# Generated by pormake.
# Topology unl, (4)-cn, num edge types: 1
# Building blocks:
#     Node 0, Type 0, BuildingBlock: TATPOV_clean_sbu_0, # of connection points: 4
#     Node 1, Type 0, BuildingBlock: TATPOV_clean_sbu_0, # of connection points: 4
#     Node 2, Type 0, BuildingBlock: TATPOV_clean_sbu_0, # of connection points: 4
#     Node 3, Type 0, BuildingBlock: TATPOV_clean_sbu_0, # of connection points: 4
#     Node 4, Type 0, BuildingBlock: TATPOV_clean_sbu_0, # of connection points: 4
#     Node 5, Type 0, BuildingBlock: TATPOV_clean_sbu_0, # of connection points: 4
#     Node 6, Type 0, BuildingBlock: TATPOV_clean_sbu_0, # of connection points: 4
#     Node 7, Type 0, BuildingBlock: TATPOV_clean_sbu_0, # of connection points: 4
#     Node 8, Type 0, BuildingBlock: TATPOV_clean_sbu_0, # of connection points: 4
#     Node 9, Type 0, BuildingBlock: TATPOV_clean_sbu_0, # of connection points: 4
#     Node 10, Type 0, BuildingBlock: TATPOV_clean_sbu_0, # of connection points: 4
#     Node 11, Type 0, BuildingBlock: TATPOV_clean_sbu_0, # of connection points: 4
#     Node 12, Type 0, BuildingBlock: TATPOV_clean_sbu_0, # of connection points: 4
#     Node 13, Type 0, BuildingBlock: TATPOV_clean_sbu_0, # of connection points: 4
#     Node 14, Type 0, BuildingBlock: TATPOV_clean_sbu_0, # of connection points: 4
#     Node 15, Type 0, BuildingBlock: TATPOV_clean_sbu_0, # of connection points: 4
#     Node 16, Type 0, BuildingBlock: TATPOV_clean_sbu_0, # of connection points: 4
#     Node 17, Type 0, BuildingBlock: TATPOV_clean_sbu_0, # of connection points: 4
#     Node 18, Type 0, BuildingBlock: TATPOV_clean_sbu_0, # of connection points: 4
#     Node 19, Type 0, BuildingBlock: TATPOV_clean_sbu_0, # of connection points: 4
#     Node 20, Type 0, BuildingBlock: TATPOV_clean_sbu_0, # of connection points: 4
#     Node 21, Type 0, BuildingBlock: TATPOV_clean_sbu_0, # of connection points: 4
#     Node 22, Type 0, BuildingBlock: TATPOV_clean_sbu_0, # of connection points: 4
#     Node 23, Type 0, BuildingBlock: TATPOV_clean_sbu_0, # of connection points: 4
#     Node 24, Type 0, BuildingBlock: TATPOV_clean_sbu_0, # of connection points: 4
#     Node 25, Type 0, BuildingBlock: TATPOV_clean_sbu_0, # of connection points: 4
#     Node 26, Type 0, BuildingBlock: TATPOV_clean_sbu_0, # of connection points: 4
#     Node 27, Type 0, BuildingBlock: TATPOV_clean_sbu_0, # of connection points: 4
#     Node 28, Type 0, BuildingBlock: TATPOV_clean_sbu_0, # of connection points: 4
#     Node 29, Type 0, BuildingBlock: TATPOV_clean_sbu_0, # of connection points: 4
#     Node 30, Type 0, BuildingBlock: TATPOV_clean_sbu_0, # of connection points: 4
#     Node 31, Type 0, BuildingBlock: TATPOV_clean_sbu_0, # of connection points: 4
#     Node 32, Type 0, BuildingBlock: TATPOV_clean_sbu_0, # of connection points: 4
#     Node 33, Type 0, BuildingBlock: TATPOV_clean_sbu_0, # of connection points: 4
#     Node 34, Type 0, BuildingBlock: TATPOV_clean_sbu_0, # of connection points: 4
#     Node 35, Type 0, BuildingBlock: TATPOV_clean_sbu_0, # of connection points: 4
#     Edge 36, Type (0, 0), BuildingBlock: ZUJKAS_clean_linker_0, # of connection points: 2
#     Edge 37, Type (0, 0), BuildingBlock: ZUJKAS_clean_linker_0, # of connection points: 2
#     Edge 38, Type (0, 0), BuildingBlock: ZUJKAS_clean_linker_0, # of connection points: 2
#     Edge 39, Type (0, 0), BuildingBlock: ZUJKAS_clean_linker_0, # of connection points: 2
#     Edge 40, Type (0, 0), BuildingBlock: ZUJKAS_clean_linker_0, # of connection points: 2
#     Edge 41, Type (0, 0), BuildingBlock: ZUJKAS_clean_linker_0, # of connection points: 2
#     Edge 42, Type (0, 0), BuildingBlock: ZUJKAS_clean_linker_0, # of connection points: 2
#     Edge 43, Type (0, 0), BuildingBlock: ZUJKAS_clean_linker_0, # of connection points: 2
#     Edge 44, Type (0, 0), BuildingBlock: ZUJKAS_clean_linker_0, # of connection points: 2
#     Edge 45, Type (0, 0), BuildingBlock: ZUJKAS_clean_linker_0, # of connection points: 2
#     Edge 46, Type (0, 0), BuildingBlock: ZUJKAS_clean_linker_0, # of connection points: 2
#     Edge 47, Type (0, 0), BuildingBlock: ZUJKAS_clean_linker_0, # of connection points: 2
#     Edge 48, Type (0, 0), BuildingBlock: ZUJKAS_clean_linker_0, # of connection points: 2
#     Edge 49, Type (0, 0), BuildingBlock: ZUJKAS_clean_linker_0, # of connection points: 2
#     Edge 50, Type (0, 0), BuildingBlock: ZUJKAS_clean_linker_0, # of connection points: 2
#     Edge 51, Type (0, 0), BuildingBlock: ZUJKAS_clean_linker_0, # of connection points: 2
#     Edge 52, Type (0, 0), BuildingBlock: ZUJKAS_clean_linker_0, # of connection points: 2
#     Edge 53, Type (0, 0), BuildingBlock: ZUJKAS_clean_linker_0, # of connection points: 2
#     Edge 54, Type (0, 0), BuildingBlock: ZUJKAS_clean_linker_0, # of connection points: 2
#     Edge 55, Type (0, 0), BuildingBlock: ZUJKAS_clean_linker_0, # of connection points: 2
#     Edge 56, Type (0, 0), BuildingBlock: ZUJKAS_clean_linker_0, # of connection points: 2
#     Edge 57, Type (0, 0), BuildingBlock: ZUJKAS_clean_linker_0, # of connection points: 2
#     Edge 58, Type (0, 0), BuildingBlock: ZUJKAS_clean_linker_0, # of connection points: 2
#     Edge 59, Type (0, 0), BuildingBlock: ZUJKAS_clean_linker_0, # of connection points: 2
#     Edge 60, Type (0, 0), BuildingBlock: ZUJKAS_clean_linker_0, # of connection points: 2
#     Edge 61, Type (0, 0), BuildingBlock: ZUJKAS_clean_linker_0, # of connection points: 2
#     Edge 62, Type (0, 0), BuildingBlock: ZUJKAS_clean_linker_0, # of connection points: 2
#     Edge 63, Type (0, 0), BuildingBlock: ZUJKAS_clean_linker_0, # of connection points: 2
#     Edge 64, Type (0, 0), BuildingBlock: ZUJKAS_clean_linker_0, # of connection points: 2
#     Edge 65, Type (0, 0), BuildingBlock: ZUJKAS_clean_linker_0, # of connection points: 2
#     Edge 66, Type (0, 0), BuildingBlock: ZUJKAS_clean_linker_0, # of connection points: 2
#     Edge 67, Type (0, 0), BuildingBlock: ZUJKAS_clean_linker_0, # of connection points: 2
#     Edge 68, Type (0, 0), BuildingBlock: ZUJKAS_clean_linker_0, # of connection points: 2
#     Edge 69, Type (0, 0), BuildingBlock: ZUJKAS_clean_linker_0, # of connection points: 2
#     Edge 70, Type (0, 0), BuildingBlock: ZUJKAS_clean_linker_0, # of connection points: 2
#     Edge 71, Type (0, 0), BuildingBlock: ZUJKAS_clean_linker_0, # of connection points: 2
#     Edge 72, Type (0, 0), BuildingBlock: ZUJKAS_clean_linker_0, # of connection points: 2
#     Edge 73, Type (0, 0), BuildingBlock: ZUJKAS_clean_linker_0, # of connection points: 2
#     Edge 74, Type (0, 0), BuildingBlock: ZUJKAS_clean_linker_0, # of connection points: 2
#     Edge 75, Type (0, 0), BuildingBlock: ZUJKAS_clean_linker_0, # of connection points: 2
#     Edge 76, Type (0, 0), BuildingBlock: ZUJKAS_clean_linker_0, # of connection points: 2
#     Edge 77, Type (0, 0), BuildingBlock: ZUJKAS_clean_linker_0, # of connection points: 2
#     Edge 78, Type (0, 0), BuildingBlock: ZUJKAS_clean_linker_0, # of connection points: 2
#     Edge 79, Type (0, 0), BuildingBlock: ZUJKAS_clean_linker_0, # of connection points: 2
#     Edge 80, Type (0, 0), BuildingBlock: ZUJKAS_clean_linker_0, # of connection points: 2
#     Edge 81, Type (0, 0), BuildingBlock: ZUJKAS_clean_linker_0, # of connection points: 2
#     Edge 82, Type (0, 0), BuildingBlock: ZUJKAS_clean_linker_0, # of connection points: 2
#     Edge 83, Type (0, 0), BuildingBlock: ZUJKAS_clean_linker_0, # of connection points: 2
#     Edge 84, Type (0, 0), BuildingBlock: ZUJKAS_clean_linker_0, # of connection points: 2
#     Edge 85, Type (0, 0), BuildingBlock: ZUJKAS_clean_linker_0, # of connection points: 2
#     Edge 86, Type (0, 0), BuildingBlock: ZUJKAS_clean_linker_0, # of connection points: 2
#     Edge 87, Type (0, 0), BuildingBlock: ZUJKAS_clean_linker_0, # of connection points: 2
#     Edge 88, Type (0, 0), BuildingBlock: ZUJKAS_clean_linker_0, # of connection points: 2
#     Edge 89, Type (0, 0), BuildingBlock: ZUJKAS_clean_linker_0, # of connection points: 2
#     Edge 90, Type (0, 0), BuildingBlock: ZUJKAS_clean_linker_0, # of connection points: 2
#     Edge 91, Type (0, 0), BuildingBlock: ZUJKAS_clean_linker_0, # of connection points: 2
#     Edge 92, Type (0, 0), BuildingBlock: ZUJKAS_clean_linker_0, # of connection points: 2
#     Edge 93, Type (0, 0), BuildingBlock: ZUJKAS_clean_linker_0, # of connection points: 2
#     Edge 94, Type (0, 0), BuildingBlock: ZUJKAS_clean_linker_0, # of connection points: 2
#     Edge 95, Type (0, 0), BuildingBlock: ZUJKAS_clean_linker_0, # of connection points: 2
#     Edge 96, Type (0, 0), BuildingBlock: ZUJKAS_clean_linker_0, # of connection points: 2
#     Edge 97, Type (0, 0), BuildingBlock: ZUJKAS_clean_linker_0, # of connection points: 2
#     Edge 98, Type (0, 0), BuildingBlock: ZUJKAS_clean_linker_0, # of connection points: 2
#     Edge 99, Type (0, 0), BuildingBlock: ZUJKAS_clean_linker_0, # of connection points: 2
#     Edge 100, Type (0, 0), BuildingBlock: ZUJKAS_clean_linker_0, # of connection points: 2
#     Edge 101, Type (0, 0), BuildingBlock: ZUJKAS_clean_linker_0, # of connection points: 2
#     Edge 102, Type (0, 0), BuildingBlock: ZUJKAS_clean_linker_0, # of connection points: 2
#     Edge 103, Type (0, 0), BuildingBlock: ZUJKAS_clean_linker_0, # of connection points: 2
#     Edge 104, Type (0, 0), BuildingBlock: ZUJKAS_clean_linker_0, # of connection points: 2
#     Edge 105, Type (0, 0), BuildingBlock: ZUJKAS_clean_linker_0, # of connection points: 2
#     Edge 106, Type (0, 0), BuildingBlock: ZUJKAS_clean_linker_0, # of connection points: 2
#     Edge 107, Type (0, 0), BuildingBlock: ZUJKAS_clean_linker_0, # of connection points: 2
# Relax obj value: 0.151
# Max RMSD: 0.192
# Mean RMSD: 0.192
data_MOF--net-unl--node1-TATPOV_clean_sbu_0--edge1-ZUJKAS_clean_linker_0
_symmetry_space_group_name_H-M    P1
_symmetry_Int_Tables_number       1
_symmetry_cell_setting            triclinic
loop_
_symmetry_equiv_pos_as_xyz
'x, y, z'
_cell_length_a     85.123826
_cell_length_b     85.1193
_cell_length_c     50.4325
_cell_angle_alpha  89.961787
_cell_angle_beta   90.098241
_cell_angle_gamma 119.95095
loop_
_atom_site_label
_atom_site_type_symbol
_atom_site_fract_x
_atom_site_fract_y
_atom_site_fract_z
_atom_type_partial_charge
Zn0 Zn 0.15188 0.07325 0.11233 0.0
Zn1 Zn 0.18786 0.09382 0.11036 0.0
O2 O 0.18018 0.098 0.14713 0.0
O3 O 0.15104 0.07856 0.15074 0.0
O4 O 0.21501 0.10672 0.11306 0.0
O5 O 0.15234 0.05086 0.10144 0.0
O6 O 0.18189 0.06843 0.09778 0.0
C7 C 0.16559 0.09112 0.16055 0.0
C8 C 0.16631 0.10443 0.07546 0.0
O9 O 0.18187 0.10735 0.08274 0.0
O10 O 0.15205 0.09111 0.08492 0.0
C11 C 0.22376 0.12177 0.12515 0.0
O12 O 0.21493 0.12952 0.13463 0.0
C13 C 0.16769 0.05293 0.09554 0.0
Zn14 Zn 0.90712 0.07327 0.1147 0.0
Zn15 Zn 0.88766 0.08966 0.11354 0.0
O16 O 0.88301 0.07741 0.15 0.0
O17 O 0.90202 0.06712 0.15317 0.0
O18 O 0.87583 0.10475 0.11739 0.0
O19 O 0.92989 0.09553 0.1035 0.0
O20 O 0.91329 0.10866 0.10145 0.0
C21 C 0.88971 0.0694 0.16322 0.0
C22 C 0.87593 0.0578 0.0778 0.0
O23 O 0.87359 0.07077 0.08524 0.0
O24 O 0.88885 0.05616 0.08735 0.0
C25 C 0.85893 0.09809 0.12098 0.0
O26 O 0.84828 0.0804 0.12078 0.0
C27 C 0.92845 0.10931 0.09848 0.0
Zn28 Zn 0.90577 0.82887 0.11509 0.0
Zn29 Zn 0.89058 0.79322 0.11488 0.0
O30 O 0.90204 0.80111 0.15184 0.0
O31 O 0.91293 0.83056 0.15311 0.0
O32 O 0.87554 0.7662 0.11856 0.0
O33 O 0.88325 0.82897 0.10467 0.0
O34 O 0.87154 0.79948 0.10115 0.0
C35 C 0.91037 0.81614 0.16419 0.0
C36 C 0.92207 0.81398 0.07864 0.0
O37 O 0.9103 0.79854 0.08763 0.0
O38 O 0.92245 0.82829 0.08675 0.0
C39 C 0.88106 0.75493 0.1158 0.0
O40 O 0.89804 0.76081 0.1093 0.0
C41 C 0.87012 0.81361 0.09846 0.0
Zn42 Zn 0.07004 0.15407 0.37323 0.0
Zn43 Zn 0.0905 0.18981 0.36747 0.0
O44 O 0.09252 0.17845 0.33224 0.0
O45 O 0.07503 0.14899 0.33675 0.0
O46 O 0.10424 0.21706 0.3611 0.0
O47 O 0.0478 0.15541 0.38037 0.0
O48 O 0.06518 0.1851 0.37947 0.0
C49 C 0.08592 0.16245 0.32295 0.0
C50 C 0.10114 0.17103 0.40889 0.0
O51 O 0.1047 0.18563 0.39693 0.0
O52 O 0.08705 0.15624 0.40286 0.0
C53 C 0.11146 0.22402 0.33891 0.0
O54 O 0.11061 0.21338 0.31948 0.0
C55 C 0.0497 0.17102 0.38302 0.0
Zn56 Zn 0.82545 0.91112 0.36883 0.0
Zn57 Zn 0.78948 0.89368 0.36301 0.0
O58 O 0.79873 0.9057 0.32666 0.0
O59 O 0.82837 0.91945 0.33123 0.0
O60 O 0.76259 0.87839 0.358 0.0
O61 O 0.82585 0.88852 0.37784 0.0
O62 O 0.79607 0.8748 0.37639 0.0
C63 C 0.81457 0.91562 0.31722 0.0
C64 C 0.8068 0.92428 0.4026 0.0
O65 O 0.79258 0.91252 0.39066 0.0
O66 O 0.82212 0.9259 0.3976 0.0
C67 C 0.75345 0.88471 0.34715 0.0
O68 O 0.76176 0.90174 0.33949 0.0
C69 C 0.8106 0.87438 0.38079 0.0
Zn70 Zn 0.06912 0.90975 0.35589 0.0
Zn71 Zn 0.08502 0.88979 0.35776 0.0
O72 O 0.07341 0.88647 0.32102 0.0
O73 O 0.064 0.9061 0.31698 0.0
O74 O 0.09971 0.87773 0.35182 0.0
O75 O 0.09138 0.93188 0.36927 0.0
O76 O 0.10393 0.91475 0.37202 0.0
C77 C 0.06612 0.89362 0.30717 0.0
C78 C 0.05247 0.87756 0.39146 0.0
O79 O 0.06572 0.87534 0.38525 0.0
O80 O 0.05106 0.89052 0.38151 0.0
C81 C 0.09746 0.86301 0.36157 0.0
O82 O 0.08445 0.85408 0.37886 0.0
C83 C 0.10474 0.92995 0.37535 0.0
Zn84 Zn 0.81298 0.89599 0.8689 0.0
Zn85 Zn 0.77908 0.88236 0.86868 0.0
O86 O 0.78785 0.90793 0.88416 0.0
O87 O 0.8166 0.91685 0.89114 0.0
O88 O 0.75271 0.87256 0.86077 0.0
O89 O 0.81688 0.8981 0.82963 0.0
O90 O 0.78818 0.87759 0.83333 0.0
C91 C 0.8032 0.91925 0.89404 0.0
C92 C 0.7935 0.86291 0.89922 0.0
O93 O 0.78036 0.8659 0.89672 0.0
O94 O 0.80831 0.87277 0.88721 0.0
C95 C 0.73973 0.86073 0.87462 0.0
O96 O 0.74328 0.8547 0.8965 0.0
C97 C 0.80273 0.88504 0.81979 0.0
Zn98 Zn 0.08037 0.91204 0.86663 0.0
Zn99 Zn 0.09589 0.89245 0.86507 0.0
O100 O 0.07038 0.87519 0.88051 0.0
O101 O 0.05766 0.89217 0.88237 0.0
O102 O 0.10613 0.87618 0.85705 0.0
O103 O 0.08206 0.91746 0.82809 0.0
O104 O 0.09992 0.90578 0.82917 0.0
C105 C 0.05698 0.87722 0.88673 0.0
C106 C 0.11267 0.9249 0.90002 0.0
O107 O 0.11212 0.91021 0.89341 0.0
O108 O 0.10132 0.92893 0.89051 0.0
C109 C 0.11592 0.8729 0.87257 0.0
O110 O 0.11959 0.88005 0.89643 0.0
C111 C 0.09357 0.91449 0.81686 0.0
Zn112 Zn 0.06309 0.16392 0.86911 0.0
Zn113 Zn 0.08369 0.19749 0.86398 0.0
O114 O 0.10095 0.18947 0.88074 0.0
O115 O 0.08146 0.16085 0.88901 0.0
O116 O 0.09957 0.22363 0.85429 0.0
O117 O 0.0586 0.1575 0.83111 0.0
O118 O 0.07052 0.18696 0.82809 0.0
C119 C 0.09734 0.17426 0.89081 0.0
C120 C 0.05074 0.18467 0.8978 0.0
O121 O 0.06634 0.19774 0.89181 0.0
O122 O 0.0455 0.16893 0.88886 0.0
C123 C 0.10558 0.23655 0.87091 0.0
O124 O 0.10213 0.23289 0.89625 0.0
C125 C 0.06179 0.17126 0.81758 0.0
Zn126 Zn 0.89015 0.81773 0.60465 0.0
Zn127 Zn 0.87858 0.78464 0.60947 0.0
O128 O 0.90401 0.7932 0.59322 0.0
O129 O 0.90998 0.82044 0.58098 0.0
O130 O 0.8685 0.75859 0.61965 0.0
O131 O 0.89426 0.82456 0.6429 0.0
O132 O 0.87478 0.79548 0.64396 0.0
C133 C 0.91376 0.80785 0.58043 0.0
C134 C 0.85677 0.79604 0.57749 0.0
O135 O 0.86105 0.78386 0.58108 0.0
O136 O 0.86604 0.81145 0.58822 0.0
C137 C 0.86109 0.74576 0.60294 0.0
O138 O 0.86113 0.7496 0.5777 0.0
C139 C 0.88234 0.81091 0.65527 0.0
Zn140 Zn 0.15963 0.06844 0.6103 0.0
Zn141 Zn 0.19452 0.08722 0.61167 0.0
O142 O 0.18758 0.10565 0.59675 0.0
O143 O 0.15799 0.08866 0.59297 0.0
O144 O 0.22115 0.10166 0.6188 0.0
O145 O 0.15604 0.06408 0.64925 0.0
O146 O 0.18537 0.07467 0.64794 0.0
C147 C 0.17235 0.10368 0.58942 0.0
C148 C 0.17774 0.05425 0.57753 0.0
O149 O 0.19196 0.06906 0.58338 0.0
O150 O 0.1626 0.05041 0.58762 0.0
C151 C 0.23322 0.11037 0.60148 0.0
O152 O 0.22837 0.11061 0.57681 0.0
C153 C 0.17042 0.06671 0.66052 0.0
Zn154 Zn 0.90749 0.08417 0.61051 0.0
Zn155 Zn 0.88768 0.0996 0.60999 0.0
O156 O 0.87033 0.07365 0.59661 0.0
O157 O 0.88746 0.06106 0.59554 0.0
O158 O 0.87169 0.11019 0.61652 0.0
O159 O 0.9124 0.08702 0.64946 0.0
O160 O 0.90131 0.10529 0.64574 0.0
C161 C 0.87241 0.06018 0.59114 0.0
C162 C 0.91969 0.11521 0.57466 0.0
O163 O 0.90488 0.11454 0.58065 0.0
O164 O 0.92425 0.10464 0.58555 0.0
C165 C 0.86839 0.11963 0.60037 0.0
O166 O 0.87518 0.12252 0.57632 0.0
C167 C 0.9097 0.09912 0.65924 0.0
Zn168 Zn 0.81776 0.40647 0.44873 0.0
Zn169 Zn 0.8536 0.4262 0.4456 0.0
O170 O 0.8467 0.43245 0.48124 0.0
O171 O 0.81764 0.41316 0.48668 0.0
O172 O 0.88054 0.43791 0.44866 0.0
O173 O 0.81702 0.38333 0.43958 0.0
O174 O 0.8466 0.40011 0.43567 0.0
C175 C 0.83241 0.4261 0.49525 0.0
C176 C 0.83258 0.43617 0.40902 0.0
O177 O 0.84814 0.43911 0.41632 0.0
O178 O 0.81834 0.4235 0.41962 0.0
C179 C 0.8908 0.4547 0.45319 0.0
O180 O 0.88377 0.46536 0.45428 0.0
C181 C 0.83216 0.38475 0.43414 0.0
Zn182 Zn 0.57247 0.40503 0.43926 0.0
Zn183 Zn 0.55036 0.4194 0.44114 0.0
O184 O 0.54811 0.40675 0.47685 0.0
O185 O 0.56702 0.39625 0.47682 0.0
O186 O 0.53667 0.43295 0.44612 0.0
O187 O 0.59415 0.42924 0.43085 0.0
O188 O 0.57505 0.43952 0.428 0.0
C189 C 0.555 0.3983 0.48841 0.0
C190 C 0.54093 0.38932 0.40249 0.0
O191 O 0.53691 0.40053 0.41271 0.0
O192 O 0.55506 0.38907 0.40998 0.0
C193 C 0.52679 0.43055 0.46631 0.0
O194 O 0.52443 0.41813 0.48376 0.0
C195 C 0.59098 0.44192 0.42564 0.0
Zn196 Zn 0.57267 0.16248 0.43634 0.0
Zn197 Zn 0.55666 0.12739 0.44782 0.0
O198 O 0.57038 0.13977 0.48179 0.0
O199 O 0.58493 0.16877 0.47163 0.0
O200 O 0.54277 0.10116 0.45892 0.0
O201 O 0.54919 0.16185 0.43162 0.0
O202 O 0.53629 0.13223 0.43559 0.0
C203 C 0.58137 0.15618 0.48804 0.0
C204 C 0.58384 0.14225 0.40276 0.0
O205 O 0.57423 0.12916 0.41839 0.0
O206 O 0.58449 0.15736 0.40536 0.0
C207 C 0.54103 0.08793 0.44505 0.0
O208 O 0.54875 0.09107 0.42162 0.0
C209 C 0.53514 0.14635 0.43092 0.0
Zn210 Zn 0.73309 0.47789 0.70023 0.0
Zn211 Zn 0.7556 0.5235 0.69627 0.0
O212 O 0.75993 0.52054 0.65652 0.0
O213 O 0.74579 0.49363 0.67159 0.0
O214 O 0.76591 0.55083 0.6993 0.0
O215 O 0.71339 0.48171 0.71184 0.0
O216 O 0.72873 0.51184 0.70811 0.0
C217 C 0.7541 0.50392 0.6528 0.0
C218 C 0.76756 0.50012 0.73066 0.0
O219 O 0.77001 0.51512 0.72082 0.0
O220 O 0.75351 0.48499 0.72547 0.0
C221 C 0.78002 0.56049 0.68553 0.0
O222 O 0.78814 0.55264 0.67401 0.0
C223 C 0.71422 0.49696 0.71351 0.0
Zn224 Zn 0.4896 0.24654 0.69756 0.0
Zn225 Zn 0.45426 0.22772 0.69778 0.0
O226 O 0.46224 0.23946 0.66086 0.0
O227 O 0.49155 0.24998 0.65832 0.0
O228 O 0.42727 0.21238 0.69357 0.0
O229 O 0.4916 0.2264 0.71437 0.0
O230 O 0.46198 0.20957 0.71067 0.0
C231 C 0.47692 0.24711 0.64762 0.0
C232 C 0.47225 0.26148 0.73068 0.0
O233 O 0.4578 0.24663 0.72573 0.0
O234 O 0.48712 0.26489 0.72012 0.0
C235 C 0.41892 0.21893 0.68095 0.0
O236 O 0.42804 0.2357 0.67224 0.0
C237 C 0.47724 0.2113 0.71722 0.0
Zn238 Zn 0.73523 0.24239 0.69524 0.0
Zn239 Zn 0.75191 0.22317 0.69741 0.0
O240 O 0.74007 0.2183 0.6609 0.0
O241 O 0.72957 0.23706 0.65661 0.0
O242 O 0.76801 0.21249 0.69297 0.0
O243 O 0.75675 0.2654 0.70708 0.0
O244 O 0.76995 0.24893 0.71031 0.0
C245 C 0.73217 0.22481 0.64709 0.0
C246 C 0.71992 0.21133 0.73254 0.0
O247 O 0.73262 0.20858 0.72498 0.0
O248 O 0.7185 0.22438 0.723 0.0
C249 C 0.76581 0.19766 0.70222 0.0
O250 O 0.75184 0.18771 0.71755 0.0
C251 C 0.7704 0.26401 0.71323 0.0
Zn252 Zn 0.48257 0.22998 0.19747 0.0
Zn253 Zn 0.44817 0.21177 0.19667 0.0
O254 O 0.45357 0.23612 0.21459 0.0
O255 O 0.48338 0.25063 0.21635 0.0
O256 O 0.42121 0.19784 0.19039 0.0
O257 O 0.48683 0.23038 0.15877 0.0
O258 O 0.45781 0.21038 0.15946 0.0
C259 C 0.46851 0.24974 0.22207 0.0
C260 C 0.46797 0.19777 0.2295 0.0
O261 O 0.45285 0.19638 0.2231 0.0
O262 O 0.48259 0.21046 0.21998 0.0
C263 C 0.40948 0.19882 0.20472 0.0
O264 O 0.41481 0.20951 0.22556 0.0
C265 C 0.47284 0.21837 0.14704 0.0
Zn266 Zn 0.74606 0.24386 0.20163 0.0
Zn267 Zn 0.7634 0.22569 0.20148 0.0
O268 O 0.73827 0.20811 0.21719 0.0
O269 O 0.72348 0.22317 0.21704 0.0
O270 O 0.77415 0.20969 0.19561 0.0
O271 O 0.74842 0.24896 0.16284 0.0
O272 O 0.76748 0.23871 0.16524 0.0
C273 C 0.72411 0.20899 0.22248 0.0
C274 C 0.77864 0.25828 0.23535 0.0
O275 O 0.77887 0.24391 0.22935 0.0
O276 O 0.76677 0.26148 0.22561 0.0
C277 C 0.79058 0.21443 0.20048 0.0
O278 O 0.80143 0.2306 0.21037 0.0
C279 C 0.76069 0.24681 0.15236 0.0
Zn280 Zn 0.73021 0.49861 0.20297 0.0
Zn281 Zn 0.75145 0.53266 0.20093 0.0
O282 O 0.76765 0.5234 0.21737 0.0
O283 O 0.7476 0.49476 0.22445 0.0
O284 O 0.7687 0.55928 0.1952 0.0
O285 O 0.72814 0.49461 0.16403 0.0
O286 O 0.73953 0.52409 0.16387 0.0
C287 C 0.7635 0.508 0.2272 0.0
C288 C 0.7171 0.51843 0.2322 0.0
O289 O 0.73308 0.53146 0.22804 0.0
O290 O 0.71184 0.5031 0.22166 0.0
C291 C 0.76397 0.57115 0.19841 0.0
O292 O 0.74739 0.56603 0.20624 0.0
C293 C 0.73151 0.5089 0.15178 0.0
Zn294 Zn 0.56063 0.15111 0.94412 0.0
Zn295 Zn 0.54458 0.11611 0.94182 0.0
O296 O 0.57063 0.12523 0.92782 0.0
O297 O 0.58387 0.15495 0.92913 0.0
O298 O 0.53449 0.08923 0.94535 0.0
O299 O 0.55754 0.15226 0.98307 0.0
O300 O 0.53907 0.12298 0.97872 0.0
C301 C 0.58439 0.14078 0.92332 0.0
C302 C 0.52948 0.13416 0.90817 0.0
O303 O 0.52938 0.11953 0.91377 0.0
O304 O 0.54085 0.14893 0.91916 0.0
C305 C 0.51788 0.0776 0.94174 0.0
O306 O 0.50658 0.08311 0.93449 0.0
C307 C 0.54545 0.13738 -0.00736 0.0
Zn308 Zn 0.82564 0.40198 0.94084 0.0
Zn309 Zn 0.86104 0.42191 0.94571 0.0
O310 O 0.85228 0.43882 0.92981 0.0
O311 O 0.8225 0.4225 0.92917 0.0
O312 O 0.88751 0.43844 0.95382 0.0
O313 O 0.82186 0.39382 0.9785 0.0
O314 O 0.85158 0.40848 0.98141 0.0
C315 C 0.83689 0.43723 0.92443 0.0
C316 C 0.84661 0.39171 0.90641 0.0
O317 O 0.86047 0.40457 0.91751 0.0
O318 O 0.83076 0.38814 0.91271 0.0
C319 C 0.90022 0.44279 0.93716 0.0
O320 O 0.8962 0.43685 0.91267 0.0
C321 C 0.83609 0.39814 -0.00834 0.0
Zn322 Zn 0.57874 0.42309 0.93999 0.0
Zn323 Zn 0.55741 0.43552 0.94475 0.0
O324 O 0.5398 0.40989 0.93029 0.0
O325 O 0.56014 0.40249 0.91841 0.0
O326 O 0.54185 0.44618 0.9538 0.0
O327 O 0.58226 0.42097 0.97874 0.0
O328 O 0.57139 0.43949 0.97987 0.0
C329 C 0.54395 0.39929 0.91832 0.0
C330 C 0.58989 0.45531 0.9102 0.0
O331 O 0.57384 0.45177 0.91524 0.0
O332 O 0.59622 0.44615 0.92082 0.0
C333 C 0.53716 0.45423 0.93709 0.0
O334 O 0.5418 0.45494 0.9121 0.0
C335 C 0.57973 0.43239 -0.00879 0.0
Zn336 Zn 0.48372 0.73887 0.78039 0.0
Zn337 Zn 0.51948 0.7586 0.77943 0.0
O338 O 0.51181 0.76352 0.81558 0.0
O339 O 0.4824 0.74513 0.81827 0.0
O340 O 0.54631 0.77047 0.78432 0.0
O341 O 0.48362 0.71595 0.77134 0.0
O342 O 0.51322 0.73285 0.7682 0.0
C343 C 0.49705 0.7573 0.82845 0.0
C344 C 0.49902 0.76921 0.74208 0.0
O345 O 0.51442 0.77231 0.75055 0.0
O346 O 0.48459 0.75601 0.75133 0.0
C347 C 0.55855 0.78547 0.77495 0.0
O348 O 0.55403 0.79494 0.75933 0.0
C349 C 0.49885 0.71747 0.7662 0.0
Zn350 Zn 0.23938 0.73815 0.77975 0.0
Zn351 Zn 0.21897 0.75309 0.78288 0.0
O352 O 0.21787 0.74169 0.81936 0.0
O353 O 0.23711 0.73166 0.81791 0.0
O354 O 0.20621 0.76709 0.79094 0.0
O355 O 0.26092 0.76049 0.76671 0.0
O356 O 0.24346 0.77272 0.76711 0.0
C357 C 0.22561 0.73393 0.83058 0.0
C358 C 0.20655 0.72098 0.74681 0.0
O359 O 0.20354 0.7332 0.75594 0.0
O360 O 0.22061 0.72051 0.75391 0.0
C361 C 0.19544 0.76933 0.77603 0.0
O362 O 0.19152 0.76187 0.75237 0.0
C363 C 0.25866 0.77382 0.7621 0.0
Zn364 Zn 0.24198 0.49442 0.78059 0.0
Zn365 Zn 0.2246 0.45816 0.77812 0.0
O366 O 0.23549 0.4643 0.81543 0.0
O367 O 0.24827 0.49391 0.81889 0.0
O368 O 0.20928 0.43107 0.77974 0.0
O369 O 0.21987 0.49552 0.77076 0.0
O370 O 0.20618 0.46587 0.76651 0.0
C371 C 0.24426 0.47873 0.82892 0.0
C372 C 0.25654 0.47896 0.74222 0.0
O373 O 0.24428 0.4636 0.7507 0.0
O374 O 0.25794 0.4935 0.75128 0.0
C375 C 0.21509 0.4221 0.79244 0.0
O376 O 0.23154 0.43064 0.80245 0.0
C377 C 0.20593 0.48068 0.76471 0.0
Zn378 Zn 0.40172 0.82006 0.03109 0.0
Zn379 Zn 0.42135 0.85582 0.03034 0.0
O380 O 0.4259 0.84747 -0.00568 0.0
O381 O 0.40759 0.81797 -0.00655 0.0
O382 O 0.4332 0.88278 0.02543 0.0
O383 O 0.37878 0.81975 0.04037 0.0
O384 O 0.39553 0.84945 0.04149 0.0
C385 C 0.41952 0.83232 0.98236 0.0
C386 C 0.43219 0.83601 0.06882 0.0
O387 O 0.43518 0.85124 0.05978 0.0
O388 O 0.41902 0.8214 0.05995 0.0
C389 C 0.45018 0.89371 0.02567 0.0
O390 O 0.46127 0.8875 0.03049 0.0
C391 C 0.38024 0.83507 0.0445 0.0
Zn392 Zn 0.15804 0.57812 0.02592 0.0
Zn393 Zn 0.12246 0.56078 0.02834 0.0
O394 O 0.12913 0.57164 -0.00899 0.0
O395 O 0.15824 0.58153 0.98662 0.0
O396 O 0.09547 0.5449 0.02483 0.0
O397 O 0.15993 0.55755 0.04114 0.0
O398 O 0.13012 0.54257 0.04123 0.0
C399 C 0.14339 0.57881 0.97686 0.0
C400 C 0.14288 0.59471 0.06092 0.0
O401 O 0.12762 0.58083 0.05541 0.0
O402 O 0.15728 0.59664 0.05046 0.0
C403 C 0.08381 0.54983 0.02858 0.0
O404 O 0.08918 0.56636 0.03698 0.0
C405 C 0.14515 0.5432 0.04585 0.0
Zn406 Zn 0.39856 0.57215 0.02933 0.0
Zn407 Zn 0.41596 0.5554 0.02847 0.0
O408 O 0.40413 0.5527 -0.00839 0.0
O409 O 0.3975 0.57445 -0.00971 0.0
O410 O 0.43092 0.54322 0.0248 0.0
O411 O 0.41704 0.59231 0.05104 0.0
O412 O 0.43459 0.58083 0.04221 0.0
C413 C 0.39811 0.56154 0.97892 0.0
C414 C 0.38134 0.5393 0.05904 0.0
O415 O 0.39662 0.54018 0.0561 0.0
O416 O 0.37811 0.55057 0.04741 0.0
C417 C 0.42686 0.53083 0.00769 0.0
O418 O 0.41237 0.52551 -0.00712 0.0
C419 C 0.43235 0.59335 0.05198 0.0
Zn420 Zn 0.14844 0.56674 0.53326 0.0
Zn421 Zn 0.1132 0.54866 0.53503 0.0
O422 O 0.12155 0.57468 0.54898 0.0
O423 O 0.15109 0.59038 0.54374 0.0
O424 O 0.08624 0.53788 0.53167 0.0
O425 O 0.14967 0.56082 0.49535 0.0
O426 O 0.12014 0.54322 0.49823 0.0
C427 C 0.13655 0.58952 0.55133 0.0
C428 C 0.13263 0.53707 0.57207 0.0
O429 O 0.11737 0.53412 0.5633 0.0
O430 O 0.14727 0.54985 0.56265 0.0
C431 C 0.07488 0.52113 0.53469 0.0
O432 O 0.08069 0.50997 0.54127 0.0
C433 C 0.13482 0.54907 0.48519 0.0
Zn434 Zn 0.4134 0.5784 0.53311 0.0
Zn435 Zn 0.43061 0.56031 0.53013 0.0
O436 O 0.40547 0.54133 0.54479 0.0
O437 O 0.39124 0.55689 0.54751 0.0
O438 O 0.44286 0.54612 0.52142 0.0
O439 O 0.41517 0.58461 0.4948 0.0
O440 O 0.43386 0.57389 0.49476 0.0
C441 C 0.39145 0.54227 0.55096 0.0
C442 C 0.44574 0.59195 0.5666 0.0
O443 O 0.446 0.57783 0.55914 0.0
O444 O 0.43391 0.59548 0.55767 0.0
C445 C 0.45027 0.5409 0.53846 0.0
O446 O 0.4496 0.54436 0.56369 0.0
C447 C 0.42697 0.58231 0.48306 0.0
Zn448 Zn 0.39831 0.83094 0.539 0.0
Zn449 Zn 0.41831 0.86498 0.53241 0.0
O450 O 0.4359 0.85693 0.54841 0.0
O451 O 0.41765 0.82785 0.55558 0.0
O452 O 0.43448 0.89141 0.52285 0.0
O453 O 0.3916 0.82454 0.50151 0.0
O454 O 0.40376 0.854 0.49731 0.0
C455 C 0.43323 0.84171 0.55727 0.0
C456 C 0.38654 0.85167 0.56912 0.0
O457 O 0.40126 0.86504 0.5609 0.0
O458 O 0.38172 0.8357 0.56174 0.0
C459 C 0.43732 0.9043 0.53848 0.0
O460 O 0.43005 0.90047 0.56223 0.0
C461 C 0.39422 0.83805 0.4878 0.0
Zn462 Zn 0.22843 0.48666 0.27428 0.0
Zn463 Zn 0.2093 0.45121 0.27815 0.0
O464 O 0.23344 0.45668 0.26051 0.0
O465 O 0.25037 0.48645 0.26079 0.0
O466 O 0.19705 0.42471 0.28715 0.0
O467 O 0.22623 0.49161 0.31219 0.0
O468 O 0.20774 0.46221 0.31391 0.0
C469 C 0.24833 0.47106 0.25532 0.0
C470 C 0.19526 0.46863 0.24151 0.0
O471 O 0.1933 0.45387 0.25085 0.0
O472 O 0.20862 0.48373 0.24859 0.0
C473 C 0.18973 0.41207 0.27013 0.0
O474 O 0.19015 0.41622 0.24494 0.0
C475 C 0.21483 0.47777 0.32484 0.0
Zn476 Zn 0.4951 0.73418 0.27347 0.0
Zn477 Zn 0.52895 0.75456 0.27617 0.0
O478 O 0.52123 0.772 0.25922 0.0
O479 O 0.49254 0.75224 0.25169 0.0
O480 O 0.55534 0.7695 0.28459 0.0
O481 O 0.48978 0.73145 0.31214 0.0
O482 O 0.51914 0.74227 0.31251 0.0
C483 C 0.50597 0.76804 0.24896 0.0
C484 C 0.51472 0.72055 0.2447 0.0
O485 O 0.52794 0.7364 0.24898 0.0
O486 O 0.4994 0.71562 0.25501 0.0
C487 C 0.56784 0.77842 0.26793 0.0
O488 O 0.56363 0.77906 0.24303 0.0
C489 C 0.50394 0.73441 0.32445 0.0
Zn490 Zn 0.2391 0.7486 0.27989 0.0
Zn491 Zn 0.22222 0.76657 0.27557 0.0
O492 O 0.20439 0.74075 0.26108 0.0
O493 O 0.2186 0.72539 0.26652 0.0
O494 O 0.20674 0.77797 0.28019 0.0
O495 O 0.24465 0.75316 0.31861 0.0
O496 O 0.23462 0.77211 0.31232 0.0
C497 C 0.20492 0.7261 0.25841 0.0
C498 C 0.25461 0.77899 0.2418 0.0
O499 O 0.24125 0.78106 0.24787 0.0
O500 O 0.25659 0.76669 0.25292 0.0
C501 C 0.20425 0.78809 0.26428 0.0
O502 O 0.21199 0.79177 0.24085 0.0
C503 C 0.24243 0.76589 0.32702 0.0
H504 H 0.14714 0.01693 0.10624 0.0
H505 H 0.14424 -0.00807 0.0788 0.0
H506 H 0.18588 0.03041 0.0266 0.0
H507 H 0.18962 0.05522 0.055 0.0
H508 H 0.13172 0.98759 0.0322 0.0
H509 H 0.19815 0.99155 0.02252 0.0
H510 H 0.19379 0.00381 0.04795 0.0
H511 H 0.20021 0.01306 0.01498 0.0
C512 C 0.15614 0.01993 0.08947 0.0
C513 C 0.1686 0.03792 0.08267 0.0
C514 C 0.15448 0.00567 0.07379 0.0
C515 C 0.16492 0.00921 0.05066 0.0
C516 C 0.17806 0.02719 0.0447 0.0
H517 H 0.12921 0.9615 0.90158 0.0
H518 H 0.14524 0.98103 0.93931 0.0
C519 C 0.18009 0.04141 0.06085 0.0
C520 C 0.15985 -0.0053 0.03061 0.0
H521 H 0.177 0.9771 0.98573 0.0
C522 C 0.14161 0.98501 0.02262 0.0
C523 C 0.1727 0.99132 0.01785 0.0
C524 C 0.19226 0.00038 0.02651 0.0
C525 C 0.13602 0.97271 0.00157 0.0
C526 C 0.14904 0.97023 -0.01218 0.0
C527 C 0.16713 0.97923 -0.00369 0.0
C528 C 0.1439 0.95936 0.96336 0.0
C529 C 0.1163 0.9629 -0.00656 0.0
C530 C 0.13864 0.94091 0.96416 0.0
C531 C 0.12964 0.92973 0.94248 0.0
C532 C 0.12558 0.93693 0.92013 0.0
C533 C 0.13206 0.95564 0.91873 0.0
C534 C 0.14128 0.96681 0.94014 0.0
H535 H 0.10756 0.96449 0.00827 0.0
H536 H 0.11481 0.96834 0.97419 0.0
H537 H 0.11138 0.94822 -0.00929 0.0
H538 H 0.14044 0.93497 0.98211 0.0
H539 H 0.12467 0.91531 0.944 0.0
H540 H 0.96429 0.11981 0.10166 0.0
H541 H -0.01152 0.14167 0.07305 0.0
H542 H 0.95094 0.1553 0.03655 0.0
H543 H 0.92691 0.13402 0.06584 0.0
H544 H 0.98569 0.1353 0.02198 0.0
H545 H -0.00391 0.20422 0.03711 0.0
H546 H 0.98438 0.18621 0.06094 0.0
H547 H 0.97265 0.18774 0.03218 0.0
C548 C 0.96137 0.12794 0.08817 0.0
C549 C 0.94373 0.12515 0.0858 0.0
C550 C 0.9752 0.14044 0.07187 0.0
C551 C 0.97155 0.15019 0.05273 0.0
C552 C 0.95421 0.14829 0.05158 0.0
H553 H 0.01423 0.16894 0.8974 0.0
H554 H -0.0049 0.1647 0.93589 0.0
C555 C 0.94044 0.13601 0.06823 0.0
C556 C 0.9847 0.15954 0.0311 0.0
H557 H 0.00612 0.19871 -0.00499 0.0
C558 C -0.00962 0.14927 0.01645 0.0
C559 C -0.00923 0.17774 0.02378 0.0
C560 C 0.98579 0.18967 0.03952 0.0
C561 C 0.00154 0.15649 -0.00571 0.0
C562 C 0.00685 0.17435 0.98618 0.0
C563 C 0.00174 0.18492 0.00118 0.0
C564 C 0.01751 0.18175 0.96177 0.0
C565 C 0.00736 0.14482 0.97947 0.0
C566 C 0.03624 0.19378 0.96329 0.0
C567 C 0.04718 0.19645 0.94116 0.0
C568 C 0.03941 0.18686 0.91764 0.0
C569 C 0.02048 0.17635 0.91546 0.0
C570 C 0.00957 0.17396 0.93735 0.0
H571 H 0.00543 0.13304 -0.00852 0.0
H572 H -0.00089 0.13954 0.96115 0.0
H573 H 0.02183 0.15284 0.9736 0.0
H574 H 0.04254 0.19983 0.98208 0.0
H575 H 0.06178 0.20455 0.94326 0.0
H576 H 0.80794 0.84115 0.89314 0.0
H577 H 0.81287 0.82416 0.92806 0.0
H578 H 0.78326 0.83849 0.98308 0.0
H579 H 0.77753 0.85472 0.94776 0.0
H580 H 0.83336 0.84344 0.96787 0.0
H581 H 0.76896 0.78836 0.00887 0.0
H582 H 0.77022 0.79855 0.97692 0.0
H583 H 0.76928 0.80956 0.00685 0.0
C584 C 0.80191 0.84005 0.91246 0.0
C585 C 0.79252 0.8493 0.918 0.0
C586 C 0.80469 0.83034 0.93234 0.0
C587 C 0.79846 0.83007 0.95818 0.0
C588 C 0.78787 0.83817 0.9632 0.0
H589 H 0.85987 0.83922 0.09689 0.0
H590 H 0.83935 0.84099 0.06468 0.0
C591 C 0.7847 0.84754 0.94307 0.0
C592 C 0.80605 0.82465 0.98043 0.0
H593 H 0.79541 0.79909 0.03681 0.0
C594 C 0.82501 0.83353 0.98269 0.0
C595 C 0.79517 0.81182 -0.00015 0.0
C596 C 0.77478 0.8014 -0.00211 0.0
C597 C 0.8334 0.8302 0.00402 0.0
C598 C 0.82254 0.81793 0.02396 0.0
C599 C 0.8036 0.80867 0.02156 0.0
C600 C 0.83103 0.81478 0.04726 0.0
C601 C 0.85387 0.83992 0.00518 0.0
C602 C 0.83228 0.79901 0.04888 0.0
C603 C 0.84392 0.79789 0.06736 0.0
C604 C 0.85453 0.81263 0.0842 0.0
C605 C 0.85199 0.82772 0.084 0.0
C606 C 0.84027 0.82876 0.06568 0.0
H607 H 0.86012 0.84624 0.98588 0.0
H608 H 0.85873 0.85081 0.02034 0.0
H609 H 0.85866 0.83043 0.01097 0.0
H610 H 0.82525 0.78814 0.03466 0.0
H611 H 0.84563 0.7861 0.06702 0.0
H612 H 0.95447 0.14197 0.58 0.0
H613 H 0.97544 0.15943 0.5443 0.0
H614 H 0.93234 0.13193 0.48708 0.0
H615 H 0.91115 0.11551 0.52308 0.0
H616 H 0.98488 0.14413 0.50951 0.0
H617 H 0.95663 0.18061 0.4543 0.0
H618 H 0.94835 0.17088 0.48663 0.0
H619 H 0.94041 0.15695 0.4573 0.0
C620 C 0.94944 0.14021 0.55984 0.0
C621 C 0.93134 0.12761 0.55404 0.0
C622 C 0.96136 0.15013 0.53948 0.0
C623 C 0.95547 0.14717 0.51295 0.0
C624 C 0.93713 0.13495 0.50735 0.0
H625 H 0.01382 0.14641 0.3787 0.0
H626 H -0.01018 0.14413 0.40768 0.0
C627 C 0.92507 0.12544 0.52785 0.0
C628 C 0.96902 0.15459 0.49129 0.0
H629 H 0.9786 0.17564 0.43087 0.0
C630 C 0.98365 0.15137 0.49265 0.0
C631 C 0.96734 0.16383 0.46903 0.0
C632 C 0.95241 0.16842 0.46685 0.0
C633 C -0.00361 0.15676 0.47226 0.0
C634 C -0.0056 0.16547 0.44975 0.0
C635 C 0.98 0.16898 0.4483 0.0
C636 C 0.0068 0.1698 0.42713 0.0
C637 C 0.01167 0.15263 0.47449 0.0
C638 C 0.02394 0.18548 0.42765 0.0
C639 C 0.03771 0.18686 0.41103 0.0
C640 C 0.03444 0.17244 0.39408 0.0
C641 C 0.01673 0.15764 0.39177 0.0
C642 C 0.00298 0.15636 0.40816 0.0
H643 H 0.01129 0.14579 0.49345 0.0
H644 H 0.01092 0.14376 0.45783 0.0
H645 H 0.0249 0.16539 0.47309 0.0
H646 H 0.02709 0.19588 0.44242 0.0
H647 H 0.05125 0.19839 0.41326 0.0
H648 H 0.78309 0.84793 0.40983 0.0
H649 H 0.78545 0.82641 0.43943 0.0
H650 H 0.83873 0.84294 0.40873 0.0
H651 H 0.83674 0.86489 0.37971 0.0
H652 H 0.79415 0.79777 0.43758 0.0
H653 H 0.84734 0.86077 0.48596 0.0
H654 H 0.83269 0.86111 0.46039 0.0
H655 H 0.85174 0.85844 0.45183 0.0
C656 C 0.79507 0.84658 0.4088 0.0
C657 C 0.80989 0.8583 0.39291 0.0
C658 C 0.79638 0.83426 0.42569 0.0
C659 C 0.81241 0.83342 0.42658 0.0
C660 C 0.82638 0.84366 0.40858 0.0
H661 H 0.84901 0.77809 0.53035 0.0
H662 H 0.83334 0.78284 0.49307 0.0
C663 C 0.82522 0.85617 0.39204 0.0
C664 C 0.81567 0.82425 0.44896 0.0
H665 H 0.8422 0.83312 0.50379 0.0
C666 C 0.80464 0.80542 0.45211 0.0
C667 C 0.82917 0.83441 0.46806 0.0
C668 C 0.84081 0.85481 0.46662 0.0
C669 C 0.80698 0.79643 0.47385 0.0
C670 C 0.82067 0.80661 0.4926 0.0
C671 C 0.83163 0.82539 0.48937 0.0
C672 C 0.82439 0.79846 0.51586 0.0
C673 C 0.79469 0.77628 0.47698 0.0
C674 C 0.8238 0.80498 0.54116 0.0
C675 C 0.83304 0.80264 0.56219 0.0
C676 C 0.84275 0.79352 0.55826 0.0
C677 C 0.84151 0.7851 0.5338 0.0
C678 C 0.8325 0.78773 0.51255 0.0
H679 H 0.78276 0.77096 0.46355 0.0
H680 H 0.80237 0.76926 0.47229 0.0
H681 H 0.78989 0.77293 0.49778 0.0
H682 H 0.81763 0.81332 0.54404 0.0
H683 H 0.83374 0.80913 0.58099 0.0
H684 H 0.11914 0.96626 0.36841 0.0
H685 H 0.1406 0.9903 0.39777 0.0
H686 H 0.14474 0.95037 0.44549 0.0
H687 H 0.12428 0.92657 0.4152 0.0
H688 H 0.13226 -0.00749 0.44529 0.0
H689 H 0.19562 0.98977 0.45074 0.0
H690 H 0.17898 0.97826 0.42501 0.0
H691 H 0.17645 0.96785 0.45707 0.0
C692 C 0.1252 0.96277 0.38463 0.0
C693 C 0.12015 0.94464 0.38958 0.0
C694 C 0.13743 0.97648 0.4014 0.0
C695 C 0.14446 0.97222 0.42378 0.0
C696 C 0.14003 0.95415 0.42797 0.0
H697 H 0.15672 0.01771 0.57549 0.0
H698 H 0.1526 -0.00175 0.53741 0.0
C699 C 0.1282 0.94051 0.41075 0.0
C700 C 0.15372 0.98598 0.44485 0.0
H701 H 0.18893 0.00293 0.48903 0.0
C702 C 0.14488 -0.00495 0.45434 0.0
C703 C 0.17016 0.98932 0.45687 0.0
C704 C 0.18091 0.98089 0.44666 0.0
C705 C 0.15161 0.00676 0.47606 0.0
C706 C 0.16738 0.0092 0.48902 0.0
C707 C 0.17671 0.00079 0.4791 0.0
C708 C 0.17343 0.01972 0.51376 0.0
C709 C 0.14153 0.01612 0.48553 0.0
C710 C 0.18714 0.03797 0.51334 0.0
C711 C 0.18965 0.0491 0.53519 0.0
C712 C 0.17823 0.04206 0.55736 0.0
C713 C 0.16552 0.02346 0.55846 0.0
C714 C 0.16323 0.01234 0.53686 0.0
H715 H 0.13139 0.0152 0.47078 0.0
H716 H 0.1343 0.0097 0.50422 0.0
H717 H 0.15116 0.03064 0.48973 0.0
H718 H 0.19501 0.04385 0.49551 0.0
H719 H 0.1995 0.06343 0.53391 0.0
H720 H 0.87447 0.02628 0.06346 0.0
H721 H 0.8539 0.00363 0.032 0.0
H722 H 0.82795 0.03525 0.01743 0.0
H723 H 0.84865 0.05823 0.0491 0.0
H724 H 0.81413 0.98365 0.03232 0.0
H725 H 0.84495 0.02702 0.94299 0.0
H726 H 0.85683 0.03215 0.97429 0.0
H727 H 0.838 0.03586 0.97019 0.0
C728 C 0.86445 0.02851 0.05359 0.0
C729 C 0.86332 0.04416 0.05862 0.0
C730 C 0.85262 0.01548 0.03573 0.0
C731 C 0.83949 0.01783 0.02239 0.0
C732 C 0.8381 0.03329 0.02747 0.0
H733 H 0.78279 0.9362 0.89518 0.0
H734 H 0.7864 0.96023 0.92619 0.0
C735 C 0.84992 0.04637 0.04553 0.0
C736 C 0.82788 0.00418 0.00253 0.0
H737 H 0.82534 -0.00401 0.93601 0.0
C738 C 0.81612 0.98642 0.01122 0.0
C739 C 0.83054 0.00789 0.97506 0.0
C740 C 0.84329 0.02672 0.96486 0.0
C741 C 0.80801 0.97203 -0.00686 0.0
C742 C 0.81187 0.97555 0.96587 0.0
C743 C 0.82235 -0.00654 0.95699 0.0
C744 C 0.8088 0.96086 0.94746 0.0
C745 C 0.79648 0.95297 0.0034 0.0
C746 C 0.82038 0.95366 0.94909 0.0
C747 C 0.81865 0.94043 0.9313 0.0
C748 C 0.80513 0.93395 0.91163 0.0
C749 C 0.79335 0.94103 0.91011 0.0
C750 C 0.79534 0.95464 0.92778 0.0
H751 H 0.79096 0.95284 0.02339 0.0
H752 H 0.78507 0.9448 -0.01037 0.0
H753 H 0.80491 0.9464 0.00488 0.0
H754 H 0.83091 0.95841 0.96409 0.0
H755 H 0.82775 0.93506 0.93328 0.0
H756 H 0.94139 0.84208 0.04523 0.0
H757 H 0.96493 0.84592 0.01427 0.0
H758 H 0.95796 0.79403 0.03757 0.0
H759 H 0.93378 0.78981 0.06831 0.0
H760 H -0.00289 0.84743 0.02576 0.0
H761 H 0.95558 0.79012 0.95695 0.0
H762 H 0.94532 0.79784 0.98114 0.0
H763 H 0.95556 0.78482 -0.00853 0.0
C764 C 0.94474 0.8314 0.04368 0.0
C765 C 0.93569 0.81561 0.0591 0.0
C766 C 0.95824 0.83363 0.02602 0.0
C767 C 0.96313 0.82022 0.0235 0.0
C768 C 0.95416 0.80439 0.03886 0.0
H769 H 0.05568 0.84922 0.9155 0.0
H770 H 0.03322 0.83131 0.94964 0.0
C771 C 0.94039 0.80202 0.05641 0.0
C772 C 0.97783 0.82338 0.00484 0.0
H773 H 0.98542 0.81078 0.94403 0.0
C774 C -0.0053 0.83918 0.00819 0.0
C775 C 0.97466 0.81253 0.98199 0.0
C776 C 0.95679 0.79542 0.97743 0.0
C777 C 0.008 0.84511 -0.01154 0.0
C778 C 0.00435 0.83492 0.9649 0.0
C779 C -0.01194 0.81847 0.96225 0.0
C780 C 0.01609 0.8428 0.94154 0.0
C781 C 0.02538 0.86291 -0.00798 0.0
C782 C 0.01341 0.85459 0.92528 0.0
C783 C 0.02612 0.86481 0.90596 0.0
C784 C 0.04175 0.86338 0.90255 0.0
C785 C 0.04373 0.85053 0.91758 0.0
C786 C 0.03098 0.84035 0.93711 0.0
H787 H 0.02722 0.86792 0.01277 0.0
H788 H 0.03721 0.86151 0.98633 0.0
H789 H 0.02517 0.87325 0.97881 0.0
H790 H 0.00197 0.85663 0.92854 0.0
H791 H 0.02416 0.87453 0.89465 0.0
H792 H 0.13198 0.20042 0.90551 0.0
H793 H 0.15273 0.19623 0.93502 0.0
H794 H 0.11357 0.13926 0.94119 0.0
H795 H 0.0931 0.14313 0.91206 0.0
H796 H 0.14233 0.17957 -0.0102 0.0
H797 H 0.16238 0.14165 0.92153 0.0
H798 H 0.15472 0.15682 0.9099 0.0
H799 H 0.13859 0.13425 0.92064 0.0
C800 C 0.12797 0.18698 0.91286 0.0
C801 C 0.11092 0.17211 0.90631 0.0
C802 C 0.13978 0.18464 0.92974 0.0
C803 C 0.13471 0.1674 0.93992 0.0
C804 C 0.11785 0.15261 0.93312 0.0
H805 H 0.13545 0.10425 0.06024 0.0
H806 H 0.13257 0.12434 0.02856 0.0
C807 C 0.10613 0.1549 0.91647 0.0
C808 C 0.14621 0.16441 0.95885 0.0
H809 H 0.16312 0.13599 0.96832 0.0
C810 C 0.14747 0.17054 0.98501 0.0
C811 C 0.15286 0.15263 0.95249 0.0
C812 C 0.15224 0.14607 0.92454 0.0
C813 C 0.15375 0.16385 0.00542 0.0
C814 C 0.15886 0.15083 -0.00068 0.0
C815 C 0.15912 0.14596 0.97287 0.0
C816 C 0.16127 0.14008 0.0202 0.0
C817 C 0.15389 0.16984 0.03358 0.0
C818 C 0.17839 0.14229 0.02574 0.0
C819 C 0.18013 0.13082 0.04394 0.0
C820 C 0.1647 0.11682 0.05647 0.0
C821 C 0.1476 0.11481 0.05088 0.0
C822 C 0.14592 0.12636 0.03295 0.0
H823 H 0.15313 0.18249 0.03445 0.0
H824 H 0.14203 0.15902 0.0443 0.0
H825 H 0.16633 0.17207 0.04404 0.0
H826 H 0.19033 0.15273 0.01582 0.0
H827 H 0.19349 0.13277 0.04791 0.0
H828 H 0.92154 0.82409 0.53293 0.0
H829 H 0.94673 0.83039 0.50383 0.0
H830 H 0.96446 0.80315 0.55811 0.0
H831 H 0.93852 0.79621 0.58736 0.0
H832 H 0.98274 0.85151 0.52225 0.0
H833 H 0.96835 0.78438 0.48284 0.0
H834 H 0.95062 0.78776 0.49641 0.0
H835 H 0.96695 0.78703 0.51806 0.0
C836 C 0.93068 0.81925 0.53861 0.0
C837 C 0.92829 0.80989 0.56253 0.0
C838 C 0.94502 0.8228 0.5219 0.0
C839 C 0.95746 0.81728 0.52884 0.0
C840 C 0.95485 0.80733 0.55229 0.0
H841 H 0.05613 0.85734 0.43082 0.0
H842 H 0.03407 0.84032 0.46596 0.0
C843 C 0.94015 0.80346 0.56899 0.0
C844 C 0.97386 0.82371 0.51231 0.0
H845 H -0.00715 0.81047 0.46393 0.0
C846 C 0.98518 0.84251 0.50988 0.0
C847 C 0.97698 0.81191 0.4963 0.0
C848 C 0.96511 0.79162 0.49829 0.0
C849 C -0.00115 0.84992 0.49077 0.0
C850 C 0.00127 0.83819 0.47361 0.0
C851 C -0.00919 0.81935 0.4771 0.0
C852 C 0.01343 0.84559 0.45052 0.0
C853 C 0.01006 0.87028 0.48821 0.0
C854 C 0.00882 0.85364 0.42998 0.0
C855 C 0.02137 0.86354 0.41031 0.0
C856 C 0.03869 0.86534 0.41063 0.0
C857 C 0.04288 0.85621 0.43021 0.0
C858 C 0.03032 0.84646 0.45018 0.0
H859 H 0.00954 0.87725 0.50653 0.0
H860 H 0.02442 0.87459 0.48375 0.0
H861 H 0.00466 0.87478 0.47162 0.0
H862 H -0.00425 0.85295 0.42986 0.0
H863 H 0.01765 0.87015 0.3952 0.0
H864 H 0.13547 0.19839 0.42209 0.0
H865 H 0.15702 0.19627 0.45248 0.0
H866 H 0.11705 0.14093 0.47028 0.0
H867 H 0.09558 0.14284 0.44048 0.0
H868 H 0.14808 0.18114 0.51258 0.0
H869 H 0.16655 0.14361 0.44081 0.0
H870 H 0.15913 0.15925 0.4306 0.0
H871 H 0.14288 0.13685 0.44163 0.0
C872 C 0.13124 0.18585 0.43273 0.0
C873 C 0.11383 0.17075 0.42875 0.0
C874 C 0.14357 0.18467 0.44995 0.0
C875 C 0.13862 0.16837 0.46324 0.0
C876 C 0.12114 0.15354 0.45991 0.0
H877 H 0.14181 0.10304 0.57202 0.0
H878 H 0.13956 0.12413 0.54191 0.0
C879 C 0.10888 0.1547 0.44288 0.0
C880 C 0.15136 0.16625 0.48067 0.0
H881 H 0.16991 0.13902 0.48712 0.0
C882 C 0.15352 0.17252 0.50686 0.0
C883 C 0.15842 0.15502 0.47305 0.0
C884 C 0.15679 0.14837 0.44492 0.0
C885 C 0.161 0.16633 0.52626 0.0
C886 C 0.16636 0.15367 0.51913 0.0
C887 C 0.16582 0.1488 0.49246 0.0
C888 C 0.16848 0.14236 0.53938 0.0
C889 C 0.16174 0.17209 0.55469 0.0
C890 C 0.18557 0.14585 0.54813 0.0
C891 C 0.18696 0.13375 0.56559 0.0
C892 C 0.17126 0.118 0.57422 0.0
C893 C 0.1542 0.11502 0.56591 0.0
C894 C 0.15285 0.12705 0.54867 0.0
H895 H 0.16007 0.18418 0.55642 0.0
H896 H 0.15072 0.16078 0.56603 0.0
H897 H 0.17484 0.17514 0.56388 0.0
H898 H 0.19776 0.15763 0.54102 0.0
H899 H 0.20029 0.13639 0.57155 0.0
H900 H 0.86952 0.02709 0.58487 0.0
H901 H 0.85098 0.004 0.55219 0.0
H902 H 0.82596 0.03518 0.52914 0.0
H903 H 0.84443 0.05846 0.56199 0.0
H904 H 0.80522 0.98737 0.5393 0.0
H905 H 0.85974 0.0262 0.46527 0.0
H906 H 0.86579 0.02602 0.49953 0.0
H907 H 0.8538 0.03752 0.4903 0.0
C908 C 0.85975 0.02885 0.57335 0.0
C909 C 0.85848 0.04462 0.57592 0.0
C910 C 0.8492 0.01566 0.55471 0.0
C911 C 0.83726 0.01804 0.53831 0.0
C912 C 0.83511 0.03318 0.54178 0.0
H913 H 0.80187 0.95283 0.39275 0.0
H914 H 0.80529 0.9762 0.4247 0.0
C915 C 0.8456 0.04638 0.56062 0.0
C916 C 0.82849 0.00544 0.51604 0.0
H917 H 0.8375 -0.00358 0.45384 0.0
C918 C 0.81203 0.98944 0.52038 0.0
C919 C 0.83743 0.00835 0.49145 0.0
C920 C 0.85516 0.02545 0.48609 0.0
C921 C 0.80468 0.97577 0.50103 0.0
C922 C 0.81427 0.97815 0.47712 0.0
C923 C 0.83018 -0.00536 0.47221 0.0
C924 C 0.80944 0.963 0.45851 0.0
C925 C 0.78701 0.9587 0.50661 0.0
C926 C 0.81059 0.94789 0.46702 0.0
C927 C 0.80888 0.93478 0.44886 0.0
C928 C 0.80579 0.93649 0.42202 0.0
C929 C 0.80395 0.95119 0.41354 0.0
C930 C 0.80593 0.96449 0.43168 0.0
H931 H 0.77866 0.96125 0.521 0.0
H932 H 0.77905 0.95299 0.48813 0.0
H933 H 0.78988 0.94843 0.51538 0.0
H934 H 0.81371 0.94671 0.4875 0.0
H935 H 0.81057 0.92362 0.45559 0.0
H936 H 0.79789 0.29476 0.23118 0.0
H937 H 0.81522 0.31633 0.26631 0.0
H938 H 0.80432 0.27183 0.31862 0.0
H939 H 0.78801 0.25033 0.28284 0.0
H940 H 0.79812 0.31718 0.30767 0.0
H941 H 0.85438 0.30751 0.34247 0.0
H942 H 0.843 0.29856 0.31122 0.0
H943 H 0.83328 0.28654 0.34167 0.0
C944 C 0.79976 0.2897 0.24995 0.0
C945 C 0.79161 0.27102 0.2546 0.0
C946 C 0.80967 0.30197 0.26994 0.0
C947 C 0.81111 0.29572 0.29512 0.0
C948 C 0.80382 0.27703 0.29924 0.0
H949 H 0.80565 0.34921 0.43484 0.0
H950 H 0.8027 0.32586 0.40381 0.0
C951 C 0.79435 0.26474 0.2789 0.0
C952 C 0.81711 0.30835 0.31789 0.0
H953 H 0.84411 0.32236 0.37301 0.0
C954 C 0.80838 0.31845 0.32168 0.0
C955 C 0.83044 0.30999 0.33627 0.0
C956 C 0.84094 0.3002 0.33255 0.0
C957 C 0.81236 0.32994 0.34345 0.0
C958 C 0.82502 0.33092 0.36248 0.0
C959 C 0.83414 0.32121 0.35856 0.0
C960 C 0.82906 0.34252 0.38602 0.0
C961 C 0.80301 0.34101 0.34583 0.0
C962 C 0.84538 0.35905 0.38739 0.0
C963 C 0.84718 0.37238 0.40523 0.0
C964 C 0.83257 0.36932 0.42163 0.0
C965 C 0.81703 0.35202 0.42217 0.0
C966 C 0.81533 0.33866 0.40453 0.0
H967 H 0.79686 0.34173 0.32674 0.0
H968 H 0.79202 0.33467 0.36076 0.0
H969 H 0.81268 0.35504 0.35247 0.0
H970 H 0.85609 0.36219 0.3732 0.0
H971 H 0.85935 0.38556 0.40446 0.0
H972 H 0.58717 0.45635 0.38028 0.0
H973 H 0.61151 0.47824 0.35202 0.0
H974 H 0.6506 0.48666 0.4131 0.0
H975 H 0.62628 0.46336 0.4404 0.0
H976 H 0.63665 0.51134 0.35009 0.0
H977 H 0.66968 0.46922 0.3566 0.0
H978 H 0.64803 0.4623 0.37152 0.0
H979 H 0.66865 0.47863 0.38784 0.0
C980 C 0.60094 0.46316 0.38783 0.0
C981 C 0.605 0.45815 0.41225 0.0
C982 C 0.61486 0.47567 0.3717 0.0
C983 C 0.63299 0.4837 0.38007 0.0
C984 C 0.63681 0.4801 0.40577 0.0
H985 H 0.72718 0.54003 0.27602 0.0
H986 H 0.70758 0.53694 0.31362 0.0
C987 C 0.62294 0.467 0.42148 0.0
C988 C 0.6477 0.49424 0.36078 0.0
H989 H 0.68337 0.49468 0.3292 0.0
C990 C 0.647 0.50783 0.34577 0.0
C991 C 0.6611 0.48949 0.35482 0.0
C992 C 0.66184 0.47401 0.36833 0.0
C993 C 0.65884 0.51626 0.32443 0.0
C994 C 0.67199 0.51136 0.3186 0.0
C995 C 0.67336 0.49852 0.33426 0.0
C996 C 0.68286 0.51723 0.2942 0.0
C997 C 0.65681 0.52972 0.30749 0.0
C998 C 0.67523 0.50751 0.2708 0.0
C999 C 0.68636 0.50894 0.24963 0.0
C1000 C 0.70523 0.52026 0.25155 0.0
C1001 C 0.71265 0.53127 0.27406 0.0
C1002 C 0.70152 0.52956 0.29548 0.0
H1003 H 0.64775 0.53404 0.31676 0.0
H1004 H 0.67028 0.54185 0.3038 0.0
H1005 H 0.65101 0.52345 0.28798 0.0
H1006 H 0.66086 0.49777 0.2697 0.0
H1007 H 0.68033 0.50041 0.23238 0.0
H1008 H 0.52708 0.17334 0.42539 0.0
H1009 H 0.50438 0.17299 0.39581 0.0
H1010 H 0.48228 0.11569 0.38257 0.0
H1011 H 0.5053 0.11598 0.41198 0.0
H1012 H 0.49643 0.13602 0.3382 0.0
H1013 H 0.45118 0.15652 0.38633 0.0
H1014 H 0.4743 0.17074 0.39636 0.0
H1015 H 0.46272 0.147 0.40472 0.0
C1016 C 0.51699 0.1605 0.41699 0.0
C1017 C 0.51823 0.14477 0.42045 0.0
C1018 C 0.50384 0.16029 0.40028 0.0
C1019 C 0.49164 0.14431 0.38699 0.0
C1020 C 0.49157 0.12814 0.39275 0.0
H1021 H 0.43979 0.16875 0.2546 0.0
H1022 H 0.44201 0.15101 0.29132 0.0
C1023 C 0.50474 0.12834 0.40953 0.0
C1024 C 0.48238 0.14565 0.36303 0.0
H1025 H 0.45867 0.16535 0.33995 0.0
C1026 C 0.48765 0.14186 0.33859 0.0
C1027 C 0.47102 0.15333 0.36354 0.0
C1028 C 0.46434 0.15696 0.3892 0.0
C1029 C 0.48306 0.14689 0.31467 0.0
C1030 C 0.47301 0.156 0.31529 0.0
C1031 C 0.46647 0.15844 0.33957 0.0
C1032 C 0.47134 0.16524 0.2916 0.0
C1033 C 0.48983 0.14322 0.28908 0.0
C1034 C 0.48709 0.17899 0.27969 0.0
C1035 C 0.48589 0.189 0.25879 0.0
C1036 C 0.46889 0.18566 0.24962 0.0
C1037 C 0.45307 0.17162 0.26123 0.0
C1038 C 0.4543 0.1615 0.28217 0.0
H1039 H 0.49155 0.13116 0.2909 0.0
H1040 H 0.48045 0.14105 0.27236 0.0
H1041 H 0.50329 0.15503 0.2843 0.0
H1042 H 0.50036 0.18241 0.28714 0.0
H1043 H 0.49835 0.19978 0.25045 0.0
H1044 H 0.5797 0.4533 0.85914 0.0
H1045 H 0.60036 0.46717 0.82166 0.0
H1046 H 0.64404 0.49931 0.87597 0.0
H1047 H 0.62364 0.48451 0.9135 0.0
H1048 H 0.62498 0.49988 0.79984 0.0
H1049 H 0.65903 0.46503 0.845 0.0
H1050 H 0.63787 0.46207 0.85731 0.0
H1051 H 0.65894 0.48197 0.86598 0.0
C1052 C 0.59356 0.46382 0.86294 0.0
C1053 C 0.60028 0.46783 0.88893 0.0
C1054 C 0.60533 0.47171 0.84159 0.0
C1055 C 0.62379 0.48385 0.84618 0.0
C1056 C 0.62991 0.4896 0.87215 0.0
H1057 H 0.71343 0.52585 0.7356 0.0
H1058 H 0.68989 0.52421 0.76525 0.0
C1059 C 0.61829 0.48129 0.8935 0.0
C1060 C 0.63692 0.48793 0.82456 0.0
H1061 H 0.67166 0.48133 0.80574 0.0
C1062 C 0.63531 0.49602 0.80119 0.0
C1063 C 0.65001 0.48231 0.82616 0.0
C1064 C 0.65149 0.4722 0.84982 0.0
C1065 C 0.64666 0.4988 0.77943 0.0
C1066 C 0.65988 0.49355 0.78143 0.0
C1067 C 0.66153 0.4855 0.80466 0.0
C1068 C 0.67185 0.49549 0.75932 0.0
C1069 C 0.6442 0.50674 0.75411 0.0
C1070 C 0.66902 0.47995 0.74581 0.0
C1071 C 0.68231 0.48082 0.72893 0.0
C1072 C 0.6987 0.49723 0.72563 0.0
C1073 C 0.7009 0.51307 0.73768 0.0
C1074 C 0.68752 0.51217 0.75459 0.0
H1075 H 0.63269 0.50938 0.75528 0.0
H1076 H 0.65679 0.51966 0.74965 0.0
H1077 H 0.64179 0.49732 0.73737 0.0
H1078 H 0.65701 0.46696 0.7495 0.0
H1079 H 0.68019 0.46839 0.71979 0.0
H1080 H 0.45042 0.17565 0.7221 0.0
H1081 H 0.45176 0.15201 0.74831 0.0
H1082 H 0.50736 0.18988 0.76884 0.0
H1083 H 0.50635 0.21317 0.74236 0.0
H1084 H 0.50143 0.15545 0.75782 0.0
H1085 H 0.45059 0.15365 0.8293 0.0
H1086 H 0.4441 0.14873 0.79504 0.0
H1087 H 0.46105 0.17123 0.80461 0.0
C1088 C 0.46298 0.17881 0.73195 0.0
C1089 C 0.47822 0.19631 0.73036 0.0
C1090 C 0.46369 0.16533 0.74695 0.0
C1091 C 0.47957 0.16931 0.7608 0.0
C1092 C 0.49498 0.18652 0.75824 0.0
H1093 H 0.522 0.16115 0.89865 0.0
H1094 H 0.50488 0.16356 0.86173 0.0
C1095 C 0.49435 0.19985 0.74312 0.0
C1096 C 0.48023 0.15637 0.77969 0.0
H1097 H 0.46799 0.1409 0.84297 0.0
C1098 C 0.49375 0.15172 0.77614 0.0
C1099 C 0.47019 0.15165 0.80358 0.0
C1100 C 0.45571 0.15659 0.8086 0.0
C1101 C 0.49863 0.14394 0.79675 0.0
C1102 C 0.48945 0.14041 0.82126 0.0
C1103 C 0.47487 0.14357 0.82402 0.0
C1104 C 0.49719 0.13717 0.84544 0.0
C1105 C 0.51468 0.14118 0.79304 0.0
C1106 C 0.49805 0.12126 0.84889 0.0
C1107 C 0.50791 0.11984 0.87008 0.0
C1108 C 0.51708 0.13437 0.88788 0.0
C1109 C 0.51529 0.14982 0.88509 0.0
C1110 C 0.50541 0.15118 0.8641 0.0
H1111 H 0.5212 0.14596 0.77336 0.0
H1112 H 0.52499 0.14854 0.80868 0.0
H1113 H 0.51022 0.12655 0.79489 0.0
H1114 H 0.49164 0.11026 0.83475 0.0
H1115 H 0.50896 0.10772 0.87185 0.0
H1116 H 0.85697 0.36619 0.90834 0.0
H1117 H 0.85402 0.34552 0.87207 0.0
H1118 H 0.83676 0.37404 0.81942 0.0
H1119 H 0.83972 0.39449 0.85541 0.0
H1120 H 0.82084 0.32386 0.84993 0.0
H1121 H 0.86869 0.36445 0.77075 0.0
H1122 H 0.87139 0.37235 0.80462 0.0
H1123 H 0.85632 0.37504 0.78233 0.0
C1124 C 0.8532 0.36833 0.88871 0.0
C1125 C 0.84865 0.38183 0.8843 0.0
C1126 C 0.8515 0.35658 0.8681 0.0
C1127 C 0.84548 0.35846 0.84295 0.0
C1128 C 0.84192 0.37265 0.83839 0.0
H1129 H 0.77575 0.29794 0.72223 0.0
H1130 H 0.7977 0.32064 0.75259 0.0
C1131 C 0.84346 0.38422 0.85896 0.0
C1132 C 0.83973 0.34401 0.82284 0.0
H1133 H 0.84072 0.33765 0.7562 0.0
C1134 C 0.8256 0.32667 0.8296 0.0
C1135 C 0.84583 0.3478 0.7963 0.0
C1136 C 0.86153 0.3659 0.78816 0.0
C1137 C 0.81653 0.31343 0.81015 0.0
C1138 C 0.82191 0.31764 0.78342 0.0
C1139 C 0.83669 0.33457 0.7768 0.0
C1140 C 0.81095 0.30529 0.76202 0.0
C1141 C 0.80041 0.29548 0.81793 0.0
C1142 C 0.81164 0.28949 0.75679 0.0
C1143 C 0.79915 0.27648 0.7394 0.0
C1144 C 0.78574 0.2791 0.72722 0.0
C1145 C 0.78587 0.29549 0.73134 0.0
C1146 C 0.79839 0.30849 0.74863 0.0
H1147 H 0.79765 0.29456 0.83957 0.0
H1148 H 0.78814 0.29344 0.80715 0.0
H1149 H 0.80282 0.28427 0.81222 0.0
H1150 H 0.82131 0.2869 0.76706 0.0
H1151 H 0.79941 0.264 0.73663 0.0
H1152 H 0.5459 0.36411 0.37633 0.0
H1153 H 0.52487 0.34047 0.34629 0.0
H1154 H 0.48707 0.35992 0.35408 0.0
H1155 H 0.50808 0.3838 0.38439 0.0
H1156 H 0.48385 0.31404 0.36244 0.0
H1157 H 0.4973 0.35469 0.26987 0.0
H1158 H 0.51496 0.36115 0.29439 0.0
H1159 H 0.49569 0.36359 0.30162 0.0
C1160 C 0.53319 0.36351 0.37159 0.0
C1161 C 0.52867 0.37585 0.38283 0.0
C1162 C 0.52119 0.34997 0.35445 0.0
C1163 C 0.50449 0.34851 0.34811 0.0
C1164 C 0.49997 0.36093 0.35878 0.0
H1165 H 0.44469 0.26282 0.22742 0.0
H1166 H 0.4472 0.28584 0.25978 0.0
C1167 C 0.51199 0.37454 0.37603 0.0
C1168 C 0.49181 0.33354 0.33081 0.0
H1169 H 0.48209 0.32285 0.26546 0.0
C1170 C 0.48293 0.31595 0.34134 0.0
C1171 C 0.49063 0.33617 0.3034 0.0
C1172 C 0.50009 0.35489 0.29144 0.0
C1173 C 0.47409 0.30078 0.32474 0.0
C1174 C 0.47434 0.30336 0.29702 0.0
C1175 C 0.48179 0.32097 0.28676 0.0
C1176 C 0.47136 0.28866 0.27859 0.0
C1177 C 0.46577 0.2821 0.33675 0.0
C1178 C 0.48417 0.28295 0.27845 0.0
C1179 C 0.48304 0.2704 0.25991 0.0
C1180 C 0.46895 0.26308 0.24113 0.0
C1181 C 0.45573 0.26838 0.24159 0.0
C1182 C 0.45711 0.2814 0.26004 0.0
H1183 H 0.46147 0.28208 0.35755 0.0
H1184 H 0.45389 0.27214 0.32502 0.0
H1185 H 0.47601 0.27765 0.33694 0.0
H1186 H 0.49536 0.28855 0.29242 0.0
H1187 H 0.49324 0.26634 0.26043 0.0
H1188 H 0.72728 0.18942 0.2627 0.0
H1189 H 0.7038 0.17073 0.29517 0.0
H1190 H 0.66464 0.1783 0.25114 0.0
H1191 H 0.6881 0.19738 0.21909 0.0
H1192 H 0.67934 0.19025 0.31688 0.0
H1193 H 0.64582 0.1192 0.27972 0.0
H1194 H 0.66969 0.13501 0.27479 0.0
H1195 H 0.65315 0.13733 0.25583 0.0
C1196 C 0.71352 0.18659 0.25952 0.0
C1197 C 0.70941 0.19472 0.23838 0.0
C1198 C 0.70019 0.176 0.27809 0.0
C1199 C 0.68255 0.17309 0.27531 0.0
C1200 C 0.67819 0.18032 0.25338 0.0
H1201 H 0.58962 0.15524 0.35273 0.0
H1202 H 0.61391 0.1591 0.3229 0.0
C1203 C 0.69155 0.19118 0.23514 0.0
C1204 C 0.66919 0.16468 0.2968 0.0
H1205 H 0.63033 0.12584 0.31335 0.0
C1206 C 0.66885 0.17607 0.31654 0.0
C1207 C 0.65566 0.14621 0.29621 0.0
C1208 C 0.656 0.13358 0.27562 0.0
C1209 C 0.65464 0.16967 0.33488 0.0
C1210 C 0.64039 0.1515 0.33317 0.0
C1211 C 0.64128 0.13978 0.31446 0.0
C1212 C 0.62364 0.14546 0.34864 0.0
C1213 C 0.65443 0.1826 0.35516 0.0
C1214 C 0.62063 0.13573 0.37236 0.0
C1215 C 0.60653 0.13326 0.38929 0.0
C1216 C 0.59557 0.14074 0.38274 0.0
C1217 C 0.59794 0.14941 0.3582 0.0
C1218 C 0.61177 0.1516 0.34118 0.0
H1219 H 0.66787 0.1951 0.35705 0.0
H1220 H 0.64437 0.18659 0.34913 0.0
H1221 H 0.65033 0.17594 0.37487 0.0
H1222 H 0.62979 0.13102 0.37844 0.0
H1223 H 0.60505 0.1267 0.40828 0.0
H1224 H 0.80145 0.43249 0.38797 0.0
H1225 H 0.79824 0.45265 0.35701 0.0
H1226 H 0.85634 0.48704 0.35418 0.0
H1227 H 0.85979 0.46676 0.38531 0.0
H1228 H 0.81242 0.49163 0.36529 0.0
H1229 H 0.83892 0.47509 0.27471 0.0
H1230 H 0.83085 0.45992 0.3028 0.0
H1231 H 0.85192 0.48085 0.30497 0.0
C1232 C 0.8136 0.44426 0.38072 0.0
C1233 C 0.83089 0.44799 0.38908 0.0
C1234 C 0.81172 0.4558 0.36309 0.0
C1235 C 0.82705 0.47128 0.35337 0.0
C1236 C 0.84437 0.47506 0.36138 0.0
H1237 H 0.80023 0.53122 0.23372 0.0
H1238 H 0.82052 0.52747 0.26481 0.0
C1239 C 0.84629 0.46346 0.37912 0.0
C1240 C 0.82443 0.48324 0.33491 0.0
H1241 H 0.82324 0.491 0.26876 0.0
C1242 C 0.81527 0.49199 0.34427 0.0
C1243 C 0.82825 0.48371 0.30756 0.0
C1244 C 0.83799 0.47439 0.29669 0.0
C1245 C 0.80855 0.49997 0.32668 0.0
C1246 C 0.811 0.49903 0.29917 0.0
C1247 C 0.82152 0.49172 0.28995 0.0
C1248 C 0.7995 0.50174 0.28001 0.0
C1249 C 0.79766 0.5081 0.33742 0.0
C1250 C 0.78124 0.48833 0.27808 0.0
C1251 C 0.76982 0.49024 0.26032 0.0
C1252 C 0.77639 0.50573 0.24417 0.0
C1253 C 0.79481 0.51914 0.24588 0.0
C1254 C 0.80637 0.51707 0.2636 0.0
H1255 H 0.80096 0.5121 0.35855 0.0
H1256 H 0.80011 0.52015 0.32566 0.0
H1257 H 0.783 0.4979 0.33606 0.0
H1258 H 0.77578 0.47635 0.29052 0.0
H1259 H 0.7557 0.4797 0.25973 0.0
H1260 H 0.61677 0.17148 0.9153 0.0
H1261 H 0.64007 0.17597 0.88338 0.0
H1262 H 0.61082 0.11901 0.86408 0.0
H1263 H 0.58712 0.11435 0.89598 0.0
H1264 H 0.66229 0.15971 0.87695 0.0
H1265 H 0.61421 0.14552 0.79302 0.0
H1266 H 0.60948 0.15012 0.82608 0.0
H1267 H 0.60766 0.12867 0.81863 0.0
C1268 C 0.61539 0.1598 0.90467 0.0
C1269 C 0.6 0.14258 0.90803 0.0
C1270 C 0.62875 0.1624 0.88644 0.0
C1271 C 0.627 0.14787 0.87116 0.0
C1272 C 0.61225 0.13042 0.8755 0.0
H1273 H 0.70939 0.17595 0.74452 0.0
H1274 H 0.68648 0.15648 0.77738 0.0
C1275 C 0.59882 0.12778 0.89387 0.0
C1276 C 0.64013 0.1516 0.84956 0.0
H1277 H 0.64497 0.15811 0.78258 0.0
C1278 C 0.65848 0.15888 0.85625 0.0
C1279 C 0.63506 0.15068 0.82261 0.0
C1280 C 0.61557 0.14342 0.81446 0.0
C1281 C 0.672 0.16615 0.83677 0.0
C1282 C 0.667 0.16611 0.81009 0.0
C1283 C 0.64863 0.15789 0.80314 0.0
C1284 C 0.68064 0.17728 0.79011 0.0
C1285 C 0.69165 0.17502 0.8449 0.0
C1286 C 0.68474 0.19525 0.78659 0.0
C1287 C 0.69759 0.20626 0.76795 0.0
C1288 C 0.7067 0.19953 0.75262 0.0
C1289 C 0.70268 0.18151 0.75628 0.0
C1290 C 0.6896 0.17038 0.77487 0.0
H1291 H 0.69327 0.17203 0.86585 0.0
H1292 H 0.69904 0.17039 0.83186 0.0
H1293 H 0.69801 0.18994 0.84253 0.0
H1294 H 0.67798 0.20076 0.79835 0.0
H1295 H 0.70049 0.22011 0.76568 0.0
H1296 H 0.86371 0.46548 0.8964 0.0
H1297 H 0.85967 0.48443 0.86354 0.0
H1298 H 0.80284 0.45863 0.88295 0.0
H1299 H 0.80672 0.43988 0.91582 0.0
H1300 H 0.836 0.46951 0.81976 0.0
H1301 H 0.81776 0.51238 0.88012 0.0
H1302 H 0.82918 0.50116 0.89396 0.0
H1303 H 0.80505 0.4888 0.8887 0.0
C1304 C 0.85049 0.46427 0.89427 0.0
C1305 C 0.83556 0.45124 0.90882 0.0
C1306 C 0.84819 0.47502 0.87538 0.0
C1307 C 0.83102 0.47309 0.87108 0.0
C1308 C 0.81629 0.46064 0.88637 0.0
H1309 H 0.76716 0.47 0.74891 0.0
H1310 H 0.78734 0.4678 0.78027 0.0
C1311 C 0.81853 0.44987 0.90511 0.0
C1312 C 0.82787 0.48257 0.84888 0.0
H1313 H 0.80802 0.50782 0.83438 0.0
C1314 C 0.83037 0.47832 0.82292 0.0
C1315 C 0.82058 0.49408 0.85303 0.0
C1316 C 0.81814 0.49952 0.88049 0.0
C1317 C 0.8245 0.48421 0.80103 0.0
C1318 C 0.8159 0.49455 0.80532 0.0
C1319 C 0.81469 0.49996 0.83114 0.0
C1320 C 0.80504 0.49675 0.7843 0.0
C1321 C 0.82666 0.47847 0.7736 0.0
C1322 C 0.80806 0.51389 0.77641 0.0
C1323 C 0.79623 0.5153 0.75836 0.0
C1324 C 0.78113 0.49954 0.74842 0.0
C1325 C 0.77852 0.4825 0.75616 0.0
C1326 C 0.79023 0.48115 0.77394 0.0
H1327 H 0.83842 0.47621 0.77266 0.0
H1328 H 0.81433 0.46548 0.76844 0.0
H1329 H 0.82844 0.48875 0.75852 0.0
H1330 H 0.81936 0.5261 0.78449 0.0
H1331 H 0.79865 0.5286 0.75269 0.0
H1332 H 0.50918 0.37212 0.9294 0.0
H1333 H 0.48978 0.34617 0.90029 0.0
H1334 H 0.53017 0.36914 0.83868 0.0
H1335 H 0.54961 0.39437 0.86769 0.0
H1336 H 0.47595 0.34312 0.84511 0.0
H1337 H 0.52581 0.31969 0.85577 0.0
H1338 H 0.52551 0.33627 0.87777 0.0
H1339 H 0.53605 0.34294 0.84568 0.0
C1340 C 0.51369 0.37159 0.90952 0.0
C1341 C 0.53093 0.3849 0.90081 0.0
C1342 C 0.50266 0.35688 0.89296 0.0
C1343 C 0.50877 0.35563 0.8676 0.0
C1344 C 0.52541 0.36968 0.85839 0.0
H1345 H 0.494 0.29788 0.72932 0.0
H1346 H 0.49811 0.31954 0.76409 0.0
C1347 C 0.53648 0.38404 0.87495 0.0
C1348 C 0.49883 0.3392 0.85112 0.0
H1349 H 0.50551 0.3079 0.81873 0.0
C1350 C 0.48213 0.3351 0.83974 0.0
C1351 C 0.50694 0.32875 0.84433 0.0
C1352 C 0.52448 0.33201 0.85674 0.0
C1353 C 0.47397 0.3215 0.82028 0.0
C1354 C 0.4828 0.31198 0.81231 0.0
C1355 C 0.49888 0.31538 0.82486 0.0
C1356 C 0.4769 0.29973 0.78924 0.0
C1357 C 0.45656 0.31797 0.8073 0.0
C1358 C 0.46317 0.28155 0.7916 0.0
C1359 C 0.4607 0.26911 0.77158 0.0
C1360 C 0.47221 0.27473 0.74939 0.0
C1361 C 0.48513 0.29317 0.74641 0.0
C1362 C 0.4874 0.30556 0.76613 0.0
H1363 H 0.45122 0.32636 0.81601 0.0
H1364 H 0.45883 0.3209 0.78575 0.0
H1365 H 0.44617 0.30343 0.80947 0.0
H1366 H 0.45513 0.27682 0.80951 0.0
H1367 H 0.45066 0.25495 0.77429 0.0
H1368 H 0.45314 0.58256 0.61456 0.0
H1369 H 0.46873 0.60327 0.65169 0.0
H1370 H 0.48311 0.64905 0.60034 0.0
H1371 H 0.46667 0.62838 0.56375 0.0
H1372 H 0.50276 0.63393 0.66446 0.0
H1373 H 0.44826 0.65134 0.65312 0.0
H1374 H 0.44796 0.63283 0.63537 0.0
H1375 H 0.46197 0.65579 0.62408 0.0
C1376 C 0.46004 0.59706 0.61117 0.0
C1377 C 0.45855 0.60401 0.58666 0.0
C1378 C 0.46896 0.60885 0.63228 0.0
C1379 C 0.47667 0.62764 0.62883 0.0
C1380 C 0.47686 0.63456 0.6035 0.0
H1381 H 0.52577 0.71823 0.73576 0.0
H1382 H 0.5226 0.69418 0.70589 0.0
C1383 C 0.46753 0.6228 0.58266 0.0
C1384 C 0.48191 0.63971 0.65218 0.0
H1385 H 0.47076 0.66773 0.68505 0.0
C1386 C 0.4958 0.64134 0.66905 0.0
C1387 C 0.47252 0.64906 0.65832 0.0
C1388 C 0.45674 0.64707 0.64194 0.0
C1389 C 0.50078 0.65244 0.69173 0.0
C1390 C 0.49163 0.66204 0.69738 0.0
C1391 C 0.4777 0.66027 0.68061 0.0
C1392 C 0.49608 0.67429 0.72032 0.0
C1393 C 0.51549 0.65365 0.70973 0.0
C1394 C 0.48252 0.6708 0.73897 0.0
C1395 C 0.48416 0.68454 0.75575 0.0
C1396 C 0.49943 0.70199 0.75415 0.0
C1397 C 0.51385 0.70491 0.73742 0.0
C1398 C 0.51211 0.69116 0.72043 0.0
H1399 H 0.51915 0.64313 0.70505 0.0
H1400 H 0.52778 0.66718 0.7075 0.0
H1401 H 0.51112 0.65217 0.73076 0.0
H1402 H 0.47002 0.65787 0.73908 0.0
H1403 H 0.47292 0.68184 0.76865 0.0
H1404 H 0.35332 0.84747 0.56108 0.0
H1405 H 0.33141 0.84344 0.5956 0.0
H1406 H 0.37208 0.85485 0.65546 0.0
H1407 H 0.39417 0.85993 0.62082 0.0
H1408 H 0.3207 0.81637 0.62738 0.0
H1409 H 0.34657 0.87753 0.69012 0.0
H1410 H 0.35588 0.87806 0.65775 0.0
H1411 H 0.3633 0.8708 0.68638 0.0
C1412 C 0.35771 0.84997 0.5816 0.0
C1413 C 0.37532 0.8542 0.58855 0.0
C1414 C 0.34523 0.8476 0.60128 0.0
C1415 C 0.3501 0.84897 0.62817 0.0
C1416 C 0.3681 0.85427 0.63493 0.0
H1417 H 0.29424 0.78362 0.75823 0.0
H1418 H 0.31626 0.80512 0.72679 0.0
C1419 C 0.38071 0.85707 0.61518 0.0
C1420 C 0.3358 0.84157 0.64875 0.0
H1421 H 0.32525 0.84892 0.71115 0.0
C1422 C 0.32147 0.82372 0.64535 0.0
C1423 C 0.33689 0.85103 0.67239 0.0
C1424 C 0.35142 0.87048 0.67673 0.0
C1425 C 0.30866 0.81486 0.66532 0.0
C1426 C 0.31028 0.82402 0.68934 0.0
C1427 C 0.32416 0.84202 0.69259 0.0
C1428 C 0.29841 0.8143 0.71183 0.0
C1429 C 0.29391 0.79543 0.66116 0.0
C1430 C 0.28138 0.81294 0.71428 0.0
C1431 C 0.26873 0.80068 0.73232 0.0
C1432 C 0.27299 0.78956 0.74779 0.0
C1433 C 0.29055 0.79194 0.74647 0.0
C1434 C 0.30317 0.80424 0.72862 0.0
H1435 H 0.29393 0.79058 0.64072 0.0
H1436 H 0.29576 0.78653 0.67539 0.0
H1437 H 0.28045 0.79405 0.66509 0.0
H1438 H 0.27753 0.82056 0.70121 0.0
H1439 H 0.25528 0.79906 0.73282 0.0
H1440 H 0.15769 0.5492 0.61098 0.0
H1441 H 0.16038 0.53191 0.64757 0.0
H1442 H 0.11282 0.48363 0.61989 0.0
H1443 H 0.10979 0.50111 0.58317 0.0
H1444 H 0.12966 0.50729 0.68755 0.0
H1445 H 0.15978 0.47546 0.62402 0.0
H1446 H 0.16061 0.49625 0.61415 0.0
H1447 H 0.13944 0.47537 0.61354 0.0
C1448 C 0.14777 0.53491 0.6127 0.0
C1449 C 0.1336 0.52641 0.59428 0.0
C1450 C 0.14926 0.52511 0.63365 0.0
C1451 C 0.13679 0.50659 0.63629 0.0
C1452 C 0.12249 0.49798 0.61809 0.0
H1453 H 0.17544 0.4523 0.7429 0.0
H1454 H 0.15283 0.4543 0.71524 0.0
C1455 C 0.12078 0.50792 0.59726 0.0
C1456 C 0.13967 0.4965 0.65763 0.0
H1457 H 0.16288 0.47431 0.67006 0.0
C1458 C 0.13645 0.4996 0.68383 0.0
C1459 C 0.14852 0.48654 0.65254 0.0
C1460 C 0.15238 0.48314 0.62458 0.0
C1461 C 0.14293 0.49393 0.70524 0.0
C1462 C 0.15308 0.48525 0.70013 0.0
C1463 C 0.15505 0.48093 0.67393 0.0
C1464 C 0.16419 0.48316 0.72087 0.0
C1465 C 0.13953 0.49803 0.73304 0.0
C1466 C 0.17779 0.49866 0.73361 0.0
C1467 C 0.19066 0.49757 0.74939 0.0
C1468 C 0.19032 0.48099 0.75246 0.0
C1469 C 0.17607 0.46527 0.74091 0.0
C1470 C 0.16315 0.46638 0.72511 0.0
H1471 H 0.12659 0.4982 0.73417 0.0
H1472 H 0.13909 0.48796 0.74746 0.0
H1473 H 0.15061 0.51168 0.7389 0.0
H1474 H 0.17916 0.51184 0.73008 0.0
H1475 H 0.20144 0.50995 0.75797 0.0
H1476 H 0.34524 0.8077 0.049 0.0
H1477 H 0.32241 0.80682 0.07889 0.0
H1478 H 0.35765 0.86322 0.09814 0.0
H1479 H 0.38077 0.86421 0.06832 0.0
H1480 H 0.3488 0.84053 0.14097 0.0
H1481 H 0.28638 0.82478 0.0861 0.0
H1482 H 0.29535 0.81067 0.07572 0.0
H1483 H 0.30836 0.83478 0.07035 0.0
C1484 C 0.34794 0.8201 0.0589 0.0
C1485 C 0.36493 0.83595 0.05665 0.0
C1486 C 0.33477 0.81962 0.07581 0.0
C1487 C 0.33831 0.83498 0.09063 0.0
C1488 C 0.35465 0.85126 0.08672 0.0
H1489 H 0.25712 0.80879 0.2166 0.0
H1490 H 0.27844 0.82677 0.18132 0.0
C1491 C 0.36783 0.85178 0.06968 0.0
C1492 C 0.32665 0.83285 0.11359 0.0
H1493 H 0.28227 0.81383 0.13163 0.0
C1494 C 0.33432 0.83521 0.13896 0.0
C1495 C 0.30781 0.82599 0.11097 0.0
C1496 C 0.29903 0.82408 0.08428 0.0
C1497 C 0.32344 0.82951 0.16166 0.0
C1498 C 0.30442 0.8211 0.15882 0.0
C1499 C 0.29687 0.82013 0.1337 0.0
C1500 C 0.29215 0.81115 0.18099 0.0
C1501 C 0.33236 0.83173 0.18835 0.0
C1502 C 0.29277 0.7964 0.19218 0.0
C1503 C 0.28076 0.78621 0.21221 0.0
C1504 C 0.26768 0.79042 0.22126 0.0
C1505 C 0.26704 0.80523 0.21002 0.0
C1506 C 0.27919 0.8155 0.18994 0.0
H1507 H 0.34649 0.84332 0.18832 0.0
H1508 H 0.32463 0.83387 0.20428 0.0
H1509 H 0.33295 0.81929 0.19303 0.0
H1510 H 0.30236 0.79253 0.18505 0.0
H1511 H 0.28154 0.77482 0.22024 0.0
H1512 H 0.11713 0.50834 0.05279 0.0
H1513 H 0.11744 0.48467 0.08028 0.0
H1514 H 0.17403 0.52064 0.09781 0.0
H1515 H 0.17402 0.54387 0.06991 0.0
H1516 H 0.16616 0.48558 0.0899 0.0
H1517 H 0.11744 0.48872 0.1606 0.0
H1518 H 0.1103 0.48266 0.12678 0.0
H1519 H 0.12805 0.50521 0.13454 0.0
C1520 C 0.12968 0.51104 0.06221 0.0
C1521 C 0.14551 0.52801 0.05938 0.0
C1522 C 0.12981 0.49756 0.07797 0.0
C1523 C 0.14568 0.50104 0.09142 0.0
C1524 C 0.16164 0.51765 0.08755 0.0
H1525 H 0.18907 0.4961 0.22942 0.0
H1526 H 0.17154 0.49768 0.19234 0.0
C1527 C 0.1616 0.53095 0.0716 0.0
C1528 C 0.14581 0.48833 0.11129 0.0
H1529 H 0.13383 0.47518 0.17549 0.0
C1530 C 0.15869 0.48275 0.10835 0.0
C1531 C 0.13605 0.48476 0.13533 0.0
C1532 C 0.12223 0.49068 0.13974 0.0
C1533 C 0.16332 0.47527 0.12965 0.0
C1534 C 0.15449 0.47294 0.15425 0.0
C1535 C 0.14044 0.47693 0.15647 0.0
C1536 C 0.16231 0.47031 0.17881 0.0
C1537 C 0.17881 0.47157 0.12649 0.0
C1538 C 0.16241 0.45415 0.18391 0.0
C1539 C 0.17243 0.45319 0.20525 0.0
C1540 C 0.18258 0.46845 0.22145 0.0
C1541 C 0.18159 0.48422 0.21706 0.0
C1542 C 0.17148 0.4851 0.196 0.0
H1543 H 0.18506 0.47531 0.10648 0.0
H1544 H 0.18947 0.47929 0.14154 0.0
H1545 H 0.17384 0.45693 0.12974 0.0
H1546 H 0.1553 0.44258 0.17087 0.0
H1547 H 0.17294 0.44085 0.20828 0.0
H1548 H 0.49581 0.68385 0.2438 0.0
H1549 H 0.4913 0.66477 0.2052 0.0
H1550 H 0.53139 0.71124 0.16195 0.0
H1551 H 0.53629 0.73047 0.20085 0.0
H1552 H 0.48269 0.68386 0.1556 0.0
H1553 H 0.53192 0.65954 0.14123 0.0
H1554 H 0.5255 0.66185 0.1745 0.0
H1555 H 0.53866 0.68169 0.15478 0.0
C1556 C 0.50419 0.68987 0.22644 0.0
C1557 C 0.51616 0.70863 0.22503 0.0
C1558 C 0.50169 0.67895 0.20451 0.0
C1559 C 0.51101 0.68669 0.1809 0.0
C1560 C 0.52427 0.70509 0.18021 0.0
H1561 H 0.46643 0.61933 0.0367 0.0
H1562 H 0.48853 0.64499 0.0641 0.0
C1563 C 0.527 0.71602 0.20237 0.0
C1564 C 0.50357 0.67659 0.15615 0.0
H1565 H 0.50489 0.64533 0.11551 0.0
C1566 C 0.48776 0.67574 0.14637 0.0
C1567 C 0.51041 0.66629 0.14419 0.0
C1568 C 0.52761 0.66732 0.15402 0.0
C1569 C 0.4778 0.66379 0.126 0.0
C1570 C 0.48377 0.65228 0.11549 0.0
C1571 C 0.50037 0.65415 0.1238 0.0
C1572 C 0.47155 0.63658 0.09908 0.0
C1573 C 0.46045 0.6629 0.11693 0.0
C1574 C 0.45512 0.62333 0.11006 0.0
C1575 C 0.44259 0.6091 0.09456 0.0
C1576 C 0.44651 0.60764 0.06804 0.0
C1577 C 0.46331 0.62032 0.05723 0.0
C1578 C 0.47582 0.63487 0.07275 0.0
H1579 H 0.46085 0.67599 0.12033 0.0
H1580 H 0.45784 0.65936 0.09557 0.0
H1581 H 0.44893 0.65234 0.12851 0.0
H1582 H 0.45181 0.62423 0.13054 0.0
H1583 H 0.42973 0.59928 0.10322 0.0
H1584 H 0.10983 0.5903 0.58078 0.0
H1585 H 0.11394 0.61329 0.61367 0.0
H1586 H 0.17018 0.64539 0.5914 0.0
H1587 H 0.16618 0.62289 0.55844 0.0
H1588 H 0.13788 0.62258 0.65618 0.0
H1589 H 0.15513 0.68358 0.59648 0.0
H1590 H 0.14388 0.66103 0.58245 0.0
H1591 H 0.16813 0.67323 0.58679 0.0
C1592 C 0.12291 0.60255 0.58231 0.0
C1593 C 0.13767 0.60477 0.56693 0.0
C1594 C 0.12525 0.6156 0.60121 0.0
C1595 C 0.1423 0.63114 0.60474 0.0
C1596 C 0.15679 0.63374 0.58858 0.0
H1597 H 0.2105 0.69457 0.72279 0.0
H1598 H 0.19037 0.67203 0.69097 0.0
C1599 C 0.15448 0.62077 0.56977 0.0
C1600 C 0.14577 0.64376 0.62707 0.0
H1601 H 0.16689 0.68893 0.64151 0.0
C1602 C 0.14374 0.63704 0.65303 0.0
C1603 C 0.15332 0.66261 0.62297 0.0
C1604 C 0.15507 0.67051 0.59564 0.0
C1605 C 0.15045 0.64885 0.67481 0.0
C1606 C 0.15936 0.66775 0.67042 0.0
C1607 C 0.16008 0.6744 0.64476 0.0
C1608 C 0.17048 0.68075 0.69129 0.0
C1609 C 0.14882 0.64113 0.70226 0.0
C1610 C 0.16602 0.69329 0.70177 0.0
C1611 C 0.17759 0.70635 0.72011 0.0
C1612 C 0.19385 0.70712 0.72791 0.0
C1613 C 0.1981 0.6944 0.71734 0.0
C1614 C 0.18655 0.68139 0.69924 0.0
H1615 H 0.1381 0.62662 0.7032 0.0
H1616 H 0.16191 0.64217 0.70793 0.0
H1617 H 0.14573 0.64891 0.71698 0.0
H1618 H 0.15369 0.69303 0.69563 0.0
H1619 H 0.17389 0.7159 0.72798 0.0
H1620 H 0.27402 0.4594 0.73856 0.0
H1621 H 0.29831 0.46459 0.70716 0.0
H1622 H 0.29147 0.50594 0.66817 0.0
H1623 H 0.26803 0.50141 0.70005 0.0
H1624 H 0.30052 0.46342 0.65213 0.0
H1625 H 0.34446 0.53341 0.68822 0.0
H1626 H 0.32457 0.51714 0.70608 0.0
H1627 H 0.32259 0.52977 0.67885 0.0
C1628 C 0.27768 0.46947 0.72309 0.0
C1629 C 0.26941 0.48019 0.72177 0.0
C1630 C 0.29152 0.47243 0.70526 0.0
C1631 C 0.297 0.48599 0.68581 0.0
C1632 C 0.28787 0.49583 0.68357 0.0
H1633 H 0.3565 0.53463 0.55223 0.0
H1634 H 0.33388 0.5165 0.58555 0.0
C1635 C 0.27442 0.49318 0.70164 0.0
C1636 C 0.31255 0.49048 0.66811 0.0
H1637 H 0.35092 0.52691 0.64424 0.0
C1638 C 0.31176 0.4772 0.65073 0.0
C1639 C 0.32744 0.50837 0.66673 0.0
C1640 C 0.32993 0.52292 0.68619 0.0
C1641 C 0.32471 0.4818 0.6305 0.0
C1642 C 0.33852 0.50003 0.62771 0.0
C1643 C 0.34008 0.51296 0.64629 0.0
C1644 C 0.35025 0.50669 0.60411 0.0
C1645 C 0.32315 0.4675 0.61139 0.0
C1646 C 0.36661 0.50649 0.60294 0.0
C1647 C 0.37957 0.51675 0.58367 0.0
C1648 C 0.37635 0.52753 0.56578 0.0
C1649 C 0.35936 0.5265 0.56581 0.0
C1650 C 0.34642 0.51614 0.5848 0.0
H1651 H 0.31219 0.45373 0.61702 0.0
H1652 H 0.32039 0.4707 0.59117 0.0
H1653 H 0.33621 0.46754 0.61063 0.0
H1654 H 0.36982 0.49939 0.61792 0.0
H1655 H 0.39262 0.51743 0.58423 0.0
H1656 H 0.5263 0.80155 0.72234 0.0
H1657 H 0.5231 0.82221 0.69159 0.0
H1658 H 0.46556 0.78499 0.68679 0.0
H1659 H 0.46852 0.76446 0.71728 0.0
H1660 H 0.50771 0.81446 0.63848 0.0
H1661 H 0.46942 0.83399 0.70661 0.0
H1662 H 0.48295 0.8244 0.71819 0.0
H1663 H 0.46047 0.80993 0.70538 0.0
C1664 C 0.51298 0.79776 0.71464 0.0
C1665 C 0.49765 0.78139 0.72238 0.0
C1666 C 0.51119 0.80961 0.69718 0.0
C1667 C 0.49404 0.80528 0.68743 0.0
C1668 C 0.47885 0.78878 0.69463 0.0
H1669 H 0.4325 0.81067 0.57168 0.0
H1670 H 0.45255 0.80725 0.60253 0.0
C1671 C 0.4806 0.77699 0.71195 0.0
C1672 C 0.49169 0.81746 0.66895 0.0
H1673 H 0.46513 0.83655 0.6596 0.0
C1674 C 0.49887 0.81982 0.64328 0.0
C1675 C 0.48032 0.82461 0.67535 0.0
C1676 C 0.47299 0.82327 0.70298 0.0
C1677 C 0.49351 0.8276 0.62318 0.0
C1678 C 0.4808 0.83313 0.62904 0.0
C1679 C 0.47492 0.83229 0.65522 0.0
C1680 C 0.47058 0.83602 0.60778 0.0
C1681 C 0.50037 0.82869 0.59534 0.0
C1682 C 0.47436 0.85342 0.60017 0.0
C1683 C 0.46288 0.85549 0.58225 0.0
C1684 C 0.4474 0.84014 0.57213 0.0
C1685 C 0.44426 0.82279 0.57906 0.0
C1686 C 0.45571 0.82078 0.5967 0.0
H1687 H 0.51238 0.82681 0.59477 0.0
H1688 H 0.48946 0.81795 0.58306 0.0
H1689 H 0.50399 0.84199 0.58633 0.0
H1690 H 0.4858 0.86532 0.60869 0.0
H1691 H 0.46561 0.86901 0.57737 0.0
H1692 H 0.24264 0.45761 0.20579 0.0
H1693 H 0.26598 0.46412 0.1723 0.0
H1694 H 0.30758 0.49062 0.23164 0.0
H1695 H 0.28424 0.48462 0.26508 0.0
H1696 H 0.29977 0.50861 0.1743 0.0
H1697 H 0.31454 0.45176 0.17288 0.0
H1698 H 0.29209 0.44781 0.18035 0.0
H1699 H 0.31006 0.45952 0.20379 0.0
C1700 C 0.25673 0.46412 0.21187 0.0
C1701 C 0.26175 0.47037 0.23797 0.0
C1702 C 0.27 0.4679 0.19276 0.0
C1703 C 0.28839 0.47765 0.1997 0.0
C1704 C 0.2934 0.48289 0.22612 0.0
H1705 H 0.38685 0.52619 0.10547 0.0
H1706 H 0.36394 0.50939 0.13962 0.0
C1707 C 0.28013 0.47943 0.24514 0.0
C1708 C 0.30226 0.48481 0.17875 0.0
H1709 H 0.3308 0.47587 0.1428 0.0
C1710 C 0.30658 0.50149 0.16735 0.0
C1711 C 0.31111 0.47549 0.17012 0.0
C1712 C 0.30682 0.45761 0.18229 0.0
C1713 C 0.3196 0.50915 0.14729 0.0
C1714 C 0.32818 0.49961 0.13804 0.0
C1715 C 0.32405 0.48302 0.14978 0.0
C1716 C 0.34146 0.50684 0.11617 0.0
C1717 C 0.32425 0.52754 0.13652 0.0
C1718 C 0.3362 0.51013 0.09138 0.0
C1719 C 0.34921 0.5199 0.07217 0.0
C1720 C 0.36762 0.52616 0.07725 0.0
C1721 C 0.37271 0.52147 0.10115 0.0
C1722 C 0.35968 0.51193 0.12062 0.0
H1723 H 0.32024 0.53503 0.15043 0.0
H1724 H 0.33901 0.53596 0.13252 0.0
H1725 H 0.31686 0.52576 0.11761 0.0
H1726 H 0.32213 0.5059 0.08736 0.0
H1727 H 0.34494 0.52313 0.0537 0.0
H1728 H 0.47831 0.76025 0.21525 0.0
H1729 H 0.47341 0.78087 0.18797 0.0
H1730 H 0.52322 0.82607 0.21681 0.0
H1731 H 0.5285 0.80518 0.24444 0.0
H1732 H 0.47189 0.8124 0.21128 0.0
H1733 H 0.52322 0.82952 0.13145 0.0
H1734 H 0.51462 0.80853 0.14961 0.0
H1735 H 0.52913 0.82964 0.16588 0.0
C1736 C 0.48829 0.77456 0.21599 0.0
C1737 C 0.50369 0.78111 0.23236 0.0
C1738 C 0.48548 0.78632 0.20024 0.0
C1739 C 0.49791 0.80494 0.20046 0.0
C1740 C 0.51352 0.81167 0.21634 0.0
H1741 H 0.46205 0.86403 0.09328 0.0
H1742 H 0.48146 0.86148 0.12727 0.0
C1743 C 0.51647 0.79978 0.23215 0.0
C1744 C 0.4935 0.81687 0.1847 0.0
H1745 H 0.49898 0.8348 0.12257 0.0
C1746 C 0.4782 0.81791 0.19228 0.0
C1747 C 0.50171 0.8239 0.15989 0.0
C1748 C 0.51811 0.82294 0.15102 0.0
C1749 C 0.46999 0.82444 0.17479 0.0
C1750 C 0.47731 0.83008 0.14917 0.0
C1751 C 0.4935 0.83052 0.14235 0.0
C1752 C 0.46647 0.83217 0.12807 0.0
C1753 C 0.4527 0.8239 0.18299 0.0
C1754 C 0.45182 0.81655 0.11736 0.0
C1755 C 0.44077 0.81791 0.09821 0.0
C1756 C 0.44415 0.83498 0.08928 0.0
C1757 C 0.45904 0.8507 0.09983 0.0
C1758 C 0.47017 0.84929 0.11912 0.0
H1759 H 0.45101 0.8231 0.20488 0.0
H1760 H 0.45243 0.83606 0.17563 0.0
H1761 H 0.44098 0.81175 0.17416 0.0
H1762 H 0.44884 0.80323 0.12402 0.0
H1763 H 0.42953 0.80551 0.09046 0.0
H1764 H 0.17695 0.72474 0.22911 0.0
H1765 H 0.1583 0.7017 0.19609 0.0
H1766 H 0.18421 0.67089 0.21683 0.0
H1767 H 0.2024 0.69336 0.24998 0.0
H1768 H 0.17183 0.69305 0.15283 0.0
H1769 H 0.13197 0.63138 0.21287 0.0
H1770 H 0.1431 0.65381 0.22726 0.0
H1771 H 0.15555 0.64216 0.22129 0.0
C1772 C 0.17825 0.71277 0.22719 0.0
C1773 C 0.19115 0.71088 0.24227 0.0
C1774 C 0.16766 0.69968 0.20821 0.0
C1775 C 0.16968 0.68444 0.20424 0.0
C1776 C 0.18204 0.68225 0.21999 0.0
H1777 H 0.17351 0.6252 0.07683 0.0
H1778 H 0.17632 0.64756 0.10926 0.0
C1779 C 0.19254 0.69522 0.23891 0.0
C1780 C 0.16044 0.67169 0.182 0.0
H1781 H 0.13799 0.62653 0.16736 0.0
C1782 C 0.16402 0.67851 0.156 0.0
C1783 C 0.15005 0.65274 0.18606 0.0
C1784 C 0.14479 0.64463 0.21342 0.0
C1785 C 0.15872 0.66682 0.13405 0.0
C1786 C 0.14983 0.64787 0.13829 0.0
C1787 C 0.14497 0.64106 0.16414 0.0
C1788 C 0.14752 0.63504 0.11678 0.0
C1789 C 0.16323 0.67484 0.10655 0.0
C1790 C 0.13038 0.62032 0.11051 0.0
C1791 C 0.1287 0.60729 0.09199 0.0
C1792 C 0.14418 0.60871 0.0797 0.0
C1793 C 0.16127 0.62364 0.08584 0.0
C1794 C 0.16291 0.63659 0.10423 0.0
H1795 H 0.16454 0.68849 0.10606 0.0
H1796 H 0.17641 0.67635 0.1003 0.0
H1797 H 0.15272 0.66595 0.09201 0.0
H1798 H 0.11835 0.6188 0.1202 0.0
H1799 H 0.11534 0.596 0.08762 0.0
H1800 H 0.07548 0.12995 0.2995 0.0
H1801 H 0.09274 0.12343 0.26762 0.0
H1802 H 0.13005 0.18067 0.2579 0.0
H1803 H 0.11319 0.18738 0.29098 0.0
H1804 H 0.10422 0.13145 0.21741 0.0
H1805 H 0.16339 0.16377 0.28631 0.0
H1806 H 0.14142 0.16028 0.29552 0.0
H1807 H 0.15545 0.17807 0.27278 0.0
C1808 C 0.08715 0.14124 0.29029 0.0
C1809 C 0.09327 0.15917 0.29839 0.0
C1810 C 0.09701 0.13747 0.27198 0.0
C1811 C 0.11304 0.15154 0.26114 0.0
C1812 C 0.11806 0.16959 0.2668 0.0
H1813 H 0.18607 0.12714 0.17154 0.0
H1814 H 0.1758 0.14432 0.19805 0.0
C1815 C 0.10829 0.1734 0.28549 0.0
C1816 C 0.12502 0.14678 0.24621 0.0
H1817 H 0.16478 0.1462 0.25168 0.0
C1818 C 0.11757 0.13491 0.22466 0.0
C1819 C 0.14251 0.15139 0.25566 0.0
C1820 C 0.1512 0.16398 0.27892 0.0
C1821 C 0.12665 0.12672 0.21322 0.0
C1822 C 0.14354 0.13037 0.22383 0.0
C1823 C 0.15164 0.1432 0.24409 0.0
C1824 C 0.1526 0.12054 0.21421 0.0
C1825 C 0.11784 0.11386 0.19025 0.0
C1826 C 0.14379 0.1016 0.21646 0.0
C1827 C 0.1495 0.09174 0.20121 0.0
C1828 C 0.16425 0.10077 0.18388 0.0
C1829 C 0.17462 0.11981 0.18469 0.0
C1830 C 0.16871 0.12967 0.19968 0.0
H1831 H 0.10767 0.11631 0.18006 0.0
H1832 H 0.1281 0.11513 0.17553 0.0
H1833 H 0.11071 0.09972 0.19778 0.0
H1834 H 0.13157 0.09438 0.22821 0.0
H1835 H 0.14141 0.07707 0.20115 0.0
H1836 H 0.84564 0.93382 0.2888 0.0
H1837 H 0.85307 0.95905 0.25912 0.0
H1838 H 0.79716 0.94608 0.25926 0.0
H1839 H 0.7897 0.92108 0.29012 0.0
H1840 H 0.84393 0.96677 0.21265 0.0
H1841 H 0.82138 -0.0047 0.29391 0.0
H1842 H 0.82246 0.97483 0.29806 0.0
H1843 H 0.80418 0.97443 0.27957 0.0
C1844 C 0.83479 0.93601 0.28202 0.0
C1845 C 0.81722 0.92587 0.29247 0.0
C1846 C 0.83906 0.95046 0.26501 0.0
C1847 C 0.82581 0.95489 0.25793 0.0
C1848 C 0.80771 0.94326 0.26535 0.0
H1849 H 0.85411 0.05556 0.17581 0.0
H1850 H 0.83642 0.02832 0.2025 0.0
C1851 C 0.80343 0.92883 0.28267 0.0
C1852 C 0.83169 0.97273 0.24555 0.0
H1853 H 0.83696 0.01458 0.25836 0.0
C1854 C 0.84218 0.97713 0.22245 0.0
C1855 C 0.82948 0.9863 0.25854 0.0
C1856 C 0.81889 0.9826 0.28399 0.0
C1857 C 0.85111 -0.00516 0.21253 0.0
C1858 C 0.84949 0.00849 0.22611 0.0
C1859 C 0.83825 0.00401 0.24833 0.0
C1860 C 0.85985 0.02752 0.21737 0.0
C1861 C 0.86264 -0.00108 0.18797 0.0
C1862 C 0.87883 0.03677 0.21881 0.0
C1863 C 0.88897 0.05223 0.20347 0.0
C1864 C 0.88018 0.05865 0.18676 0.0
C1865 C 0.86124 0.05088 0.18845 0.0
C1866 C 0.85109 0.03526 0.20358 0.0
H1867 H 0.8593 0.98641 0.17672 0.0
H1868 H 0.86091 0.00835 0.17466 0.0
H1869 H 0.87713 0.00553 0.19385 0.0
H1870 H 0.88576 0.03107 0.22979 0.0
H1871 H 0.90356 0.0581 0.20275 0.0
H1872 H 0.9188 0.79135 0.18416 0.0
H1873 H 0.94467 0.79859 0.21298 0.0
H1874 H 0.95236 0.8521 0.22585 0.0
H1875 H 0.92641 0.84485 0.19788 0.0
H1876 H 0.97736 0.82429 0.19663 0.0
H1877 H 0.96619 0.84248 0.29683 0.0
H1878 H 0.94764 0.82976 0.27414 0.0
H1879 H 0.9604 0.8542 0.27273 0.0
C1880 C 0.92546 0.80434 0.19418 0.0
C1881 C 0.92081 0.81768 0.18837 0.0
C1882 C 0.94033 0.80849 0.21049 0.0
C1883 C 0.95051 0.8259 0.22142 0.0
C1884 C 0.94458 0.83848 0.218 0.0
H1885 H 0.05213 0.90652 0.26997 0.0
H1886 H 0.02532 0.88747 0.24326 0.0
C1887 C 0.92975 0.83434 0.20182 0.0
C1888 C 0.96889 0.83222 0.23209 0.0
H1889 H -0.00247 0.85853 0.28105 0.0
C1890 C 0.98171 0.83137 0.21543 0.0
C1891 C 0.97455 0.84144 0.25658 0.0
C1892 C 0.96137 0.84183 0.27615 0.0
C1893 C 0.00024 0.84063 0.22183 0.0
C1894 C 0.00592 0.85096 0.24528 0.0
C1895 C -0.00695 0.85087 0.26271 0.0
C1896 C 0.02515 0.86255 0.25228 0.0
C1897 C 0.01373 0.84011 0.20307 0.0
C1898 C 0.03462 0.85492 0.26432 0.0
C1899 C 0.05005 0.86581 0.27947 0.0
C1900 C 0.05583 0.88431 0.28309 0.0
C1901 C 0.0478 0.89226 0.26788 0.0
C1902 C 0.03248 0.8814 0.25262 0.0
H1903 H 0.00716 0.83208 0.18493 0.0
H1904 H 0.024 0.85412 0.1972 0.0
H1905 H 0.02101 0.83404 0.21327 0.0
H1906 H 0.02908 0.84037 0.26425 0.0
H1907 H 0.05604 0.85929 0.29077 0.0
H1908 H 0.88357 0.80952 0.7099 0.0
H1909 H 0.866 0.81719 0.74109 0.0
H1910 H 0.84057 0.82794 0.6748 0.0
H1911 H 0.85765 0.8201 0.64419 0.0
H1912 H 0.86755 0.85014 0.74427 0.0
H1913 H 0.79734 0.79725 0.72136 0.0
H1914 H 0.81673 0.79517 0.71215 0.0
H1915 H 0.80956 0.80776 0.69157 0.0
C1916 C 0.87399 0.81326 0.70229 0.0
C1917 C 0.87178 0.81424 0.67492 0.0
C1918 C 0.86399 0.81759 0.71994 0.0
C1919 C 0.85169 0.82272 0.71018 0.0
C1920 C 0.84952 0.82348 0.68277 0.0
H1921 H 0.82427 0.89869 0.77602 0.0
H1922 H 0.83452 0.88207 0.74789 0.0
C1923 C 0.8594 0.81918 0.66533 0.0
C1924 C 0.84235 0.82917 0.728 0.0
H1925 H 0.8011 0.82554 0.73861 0.0
C1926 C 0.85298 0.84457 0.74349 0.0
C1927 C 0.82333 0.82175 0.72713 0.0
C1928 C 0.81108 0.80445 0.71236 0.0
C1929 C 0.84521 0.85336 0.75704 0.0
C1930 C 0.82637 0.84685 0.75431 0.0
C1931 C 0.8156 0.83083 0.74004 0.0
C1932 C 0.81757 0.85616 0.76696 0.0
C1933 C 0.8573 0.86951 0.77416 0.0
C1934 C 0.80337 0.84674 0.78496 0.0
C1935 C 0.79695 0.85604 0.80011 0.0
C1936 C 0.8049 0.87496 0.79781 0.0
C1937 C 0.81799 0.88412 0.77817 0.0
C1938 C 0.82405 0.87469 0.76247 0.0
H1939 H 0.8698 0.86939 0.78017 0.0
H1940 H 0.86151 0.88215 0.76276 0.0
H1941 H 0.85013 0.86987 0.79232 0.0
H1942 H 0.79805 0.8324 0.78856 0.0
H1943 H 0.78699 0.84866 0.81536 0.0
H1944 H 0.19476 0.05749 0.67984 0.0
H1945 H 0.18696 0.03122 0.70804 0.0
H1946 H 0.13463 0.02559 0.72353 0.0
H1947 H 0.14216 0.0517 0.69527 0.0
H1948 H 0.16564 0.01656 0.76528 0.0
H1949 H 0.13192 0.98225 0.67099 0.0
H1950 H 0.15095 0.0051 0.67197 0.0
H1951 H 0.12884 0.00073 0.68158 0.0
C1952 C 0.1819 0.05119 0.69018 0.0
C1953 C 0.16886 0.05635 0.68482 0.0
C1954 C 0.17748 0.03615 0.70621 0.0
C1955 C 0.16012 0.02637 0.71726 0.0
C1956 C 0.14804 0.03296 0.71487 0.0
H1957 H 0.08123 0.93062 0.78253 0.0
H1958 H 0.10013 0.95619 0.75374 0.0
C1959 C 0.15238 0.04789 0.69876 0.0
C1960 C 0.15329 0.00776 0.72693 0.0
H1961 H 0.1242 0.96384 0.70946 0.0
C1962 C 0.15687 0.00495 0.75305 0.0
C1963 C 0.14201 -0.00722 0.71065 0.0
C1964 C 0.13824 -0.00476 0.68214 0.0
C1965 C 0.14843 0.98743 0.76392 0.0
C1966 C 0.13634 0.9725 0.74802 0.0
C1967 C 0.13356 0.9753 0.72147 0.0
C1968 C 0.12441 0.9545 0.75979 0.0
C1969 C 0.15161 0.98513 0.79277 0.0
C1970 C 0.13154 0.94432 0.77106 0.0
C1971 C 0.12071 0.92957 0.78745 0.0
C1972 C 0.1027 0.92501 0.79285 0.0
C1973 C 0.09511 0.93394 0.77899 0.0
C1974 C 0.1059 0.94859 0.76257 0.0
H1975 H 0.1596 -0.00166 0.80309 0.0
H1976 H 0.13848 0.97709 0.80323 0.0
H1977 H 0.15914 0.97764 0.79428 0.0
H1978 H 0.14574 0.94851 0.76864 0.0
H1979 H 0.12693 0.92289 0.79774 0.0
H1980 H 0.92471 0.13522 0.66907 0.0
H1981 H 0.95199 0.15306 0.69575 0.0
H1982 H 0.94696 0.10384 0.72803 0.0
H1983 H 0.92 0.08589 0.7008 0.0
H1984 H 0.96559 0.15508 0.75109 0.0
H1985 H -0.00811 0.12596 0.67673 0.0
H1986 H 0.97031 0.12497 0.67305 0.0
H1987 H 0.97248 0.10939 0.69477 0.0
C1988 C 0.92892 0.12821 0.68277 0.0
C1989 C 0.92052 0.10917 0.6825 0.0
C1990 C 0.94457 0.13844 0.69789 0.0
C1991 C 0.95169 0.12968 0.71312 0.0
C1992 C 0.94178 0.11076 0.71589 0.0
H1993 H 0.04083 0.13939 0.79186 0.0
H1994 H 0.01632 0.13308 0.76143 0.0
C1995 C 0.92635 0.10053 0.70047 0.0
C1996 C 0.97072 0.13971 0.72211 0.0
H1997 H 0.01124 0.14146 0.71311 0.0
C1998 C 0.9757 0.15233 0.74272 0.0
C1999 C 0.98388 0.13635 0.71052 0.0
C2000 C 0.97946 0.12357 0.68736 0.0
C2001 C -0.00676 0.1606 0.75363 0.0
C2002 C 0.00611 0.15632 0.74309 0.0
C2003 C 0.00138 0.14467 0.7212 0.0
C2004 C 0.02325 0.16114 0.75707 0.0
C2005 C -0.00258 0.17291 0.77731 0.0
C2006 C 0.03612 0.17916 0.76329 0.0
C2007 C 0.05015 0.18283 0.78117 0.0
C2008 C 0.05154 0.1685 0.7927 0.0
C2009 C 0.04 0.15073 0.78371 0.0
C2010 C 0.02591 0.14708 0.76627 0.0
H2011 H 0.98505 0.17232 0.78558 0.0
H2012 H 0.00404 0.16925 0.79324 0.0
H2013 H 0.00685 0.18712 0.77126 0.0
H2014 H 0.03474 0.19027 0.75555 0.0
H2015 H 0.059 0.19671 0.78741 0.0
H2016 H 0.77446 0.52119 0.60833 0.0
H2017 H 0.78957 0.50941 0.57937 0.0
H2018 H 0.76611 0.45997 0.62511 0.0
H2019 H 0.75028 0.47067 0.65212 0.0
H2020 H 0.81448 0.50024 0.59583 0.0
H2021 H 0.7558 0.43945 0.55271 0.0
H2022 H 0.75338 0.45696 0.56914 0.0
H2023 H 0.75449 0.43957 0.58809 0.0
C2024 C 0.77211 0.5076 0.61143 0.0
C2025 C 0.76105 0.49684 0.63223 0.0
C2026 C 0.78079 0.50095 0.59514 0.0
C2027 C 0.77859 0.48367 0.59984 0.0
C2028 C 0.76744 0.473 0.62044 0.0
H2029 H 0.81536 0.41332 0.54245 0.0
H2030 H 0.80567 0.42959 0.57218 0.0
C2031 C 0.75846 0.47931 0.63602 0.0
C2032 C 0.78894 0.47703 0.58497 0.0
H2033 H 0.78415 0.43989 0.55247 0.0
C2034 C 0.80793 0.48717 0.58596 0.0
C2035 C 0.78025 0.45983 0.57261 0.0
C2036 C 0.75986 0.44843 0.57038 0.0
C2037 C 0.81855 0.48031 0.57553 0.0
C2038 C 0.80984 0.46297 0.56354 0.0
C2039 C 0.79083 0.45303 0.56213 0.0
C2040 C 0.8199 0.45503 0.55085 0.0
C2041 C 0.83888 0.49152 0.57817 0.0
C2042 C 0.83202 0.46427 0.53013 0.0
C2043 C 0.83813 0.45519 0.51391 0.0
C2044 C 0.83164 0.43661 0.51761 0.0
C2045 C 0.82063 0.4277 0.53947 0.0
C2046 C 0.81501 0.43695 0.55625 0.0
H2047 H 0.84286 0.50078 0.59551 0.0
H2048 H 0.84516 0.48286 0.58027 0.0
H2049 H 0.84449 0.50004 0.56019 0.0
H2050 H 0.83557 0.47802 0.52507 0.0
H2051 H 0.8463 0.46221 0.49676 0.0
H2052 H 0.50323 0.25908 0.60984 0.0
H2053 H 0.51121 0.28479 0.58041 0.0
H2054 H 0.46189 0.28417 0.60163 0.0
H2055 H 0.45361 0.25828 0.63086 0.0
H2056 H 0.48755 0.29554 0.53866 0.0
H2057 H 0.51284 0.33116 0.63557 0.0
H2058 H 0.51092 0.30935 0.62972 0.0
H2059 H 0.49086 0.31097 0.63341 0.0
C2060 C 0.49368 0.26387 0.60732 0.0
C2061 C 0.478 0.25694 0.62303 0.0
C2062 C 0.49827 0.27856 0.59056 0.0
C2063 C 0.48726 0.28644 0.5894 0.0
C2064 C 0.47052 0.2782 0.60247 0.0
H2065 H 0.52163 0.38901 0.50828 0.0
H2066 H 0.50351 0.36335 0.53746 0.0
C2067 C 0.46581 0.26336 0.61905 0.0
C2068 C 0.49489 0.30491 0.57876 0.0
H2069 H 0.52105 0.34923 0.59718 0.0
C2070 C 0.49457 0.30733 0.55139 0.0
C2071 C 0.50414 0.32012 0.59564 0.0
C2072 C 0.50483 0.31794 0.62526 0.0
C2073 C 0.5038 0.32473 0.54027 0.0
C2074 C 0.51353 0.3399 0.55708 0.0
C2075 C 0.51343 0.33751 0.58453 0.0
C2076 C 0.52532 0.35803 0.54585 0.0
C2077 C 0.50382 0.32681 0.51055 0.0
C2078 C 0.54381 0.36409 0.54246 0.0
C2079 C 0.55422 0.37871 0.52575 0.0
C2080 C 0.54622 0.38743 0.5123 0.0
C2081 C 0.52822 0.3826 0.51828 0.0
C2082 C 0.51778 0.36788 0.53486 0.0
H2083 H 0.4966 0.31353 0.50019 0.0
H2084 H 0.49713 0.33475 0.50537 0.0
H2085 H 0.51796 0.33442 0.5031 0.0
H2086 H 0.5498 0.35661 0.55101 0.0
H2087 H 0.5681 0.38223 0.52173 0.0
H2088 H 0.60775 0.18934 0.50469 0.0
H2089 H 0.63091 0.19542 0.53758 0.0
H2090 H 0.603 0.13902 0.5603 0.0
H2091 H 0.57983 0.13258 0.52649 0.0
H2092 H 0.6327 0.19035 0.59128 0.0
H2093 H 0.65108 0.14632 0.53241 0.0
H2094 H 0.63496 0.15247 0.52012 0.0
H2095 H 0.62876 0.13627 0.54652 0.0
C2096 C 0.60625 0.17823 0.51699 0.0
C2097 C 0.59224 0.16038 0.51248 0.0
C2098 C 0.61951 0.18176 0.53586 0.0
C2099 C 0.61891 0.16756 0.55073 0.0
C2100 C 0.60392 0.15004 0.54839 0.0
H2101 H 0.7155 0.18852 0.63907 0.0
H2102 H 0.68755 0.17152 0.61361 0.0
C2103 C 0.59065 0.14643 0.52923 0.0
C2104 C 0.63511 0.17123 0.56615 0.0
H2105 H 0.67264 0.16656 0.56251 0.0
C2106 C 0.6413 0.1849 0.58538 0.0
C2107 C 0.64618 0.16393 0.55853 0.0
C2108 C 0.64003 0.14898 0.5382 0.0
C2109 C 0.65876 0.19237 0.59593 0.0
C2110 C 0.67042 0.18623 0.58648 0.0
C2111 C 0.66377 0.17153 0.56896 0.0
C2112 C 0.68959 0.19526 0.59465 0.0
C2113 C 0.66468 0.20708 0.61662 0.0
C2114 C 0.70075 0.21393 0.59025 0.0
C2115 C 0.71653 0.22373 0.6051 0.0
C2116 C 0.72146 0.2148 0.62388 0.0
C2117 C 0.71192 0.19573 0.62478 0.0
C2118 C 0.69588 0.18599 0.61039 0.0
H2119 H 0.65288 0.20639 0.62709 0.0
H2120 H 0.67379 0.20614 0.63153 0.0
H2121 H 0.67214 0.22053 0.60681 0.0
H2122 H 0.6963 0.22117 0.57742 0.0
H2123 H 0.72382 0.23839 0.60386 0.0
H2124 H 0.50952 0.11598 0.00369 0.0
H2125 H 0.49187 0.12553 0.03057 0.0
H2126 H 0.5413 0.17042 0.06089 0.0
H2127 H 0.55905 0.16118 0.03376 0.0
H2128 H 0.49271 0.13952 0.08842 0.0
H2129 H 0.5158 0.1901 0.00675 0.0
H2130 H 0.51638 0.16923 0.0043 0.0
H2131 H 0.53326 0.18784 0.02338 0.0
C2132 C 0.51664 0.12734 0.01708 0.0
C2133 C 0.53566 0.13809 0.01627 0.0
C2134 C 0.50651 0.13283 0.03231 0.0
C2135 C 0.51535 0.1489 0.04708 0.0
C2136 C 0.5343 0.1581 0.04926 0.0
H2137 H 0.50372 0.2305 0.11798 0.0
H2138 H 0.51058 0.212 0.08897 0.0
C2139 C 0.54442 0.15276 0.03387 0.0
C2140 C 0.50532 0.15792 0.05595 0.0
H2141 H 0.50099 0.1949 0.0429 0.0
C2142 C 0.49427 0.1515 0.07842 0.0
C2143 C 0.50731 0.17338 0.04248 0.0
C2144 C 0.51871 0.18052 0.01775 0.0
C2145 C 0.48604 0.16092 0.08889 0.0
C2146 C 0.48864 0.17688 0.07598 0.0
C2147 C 0.49895 0.18266 0.05268 0.0
C2148 C 0.48317 0.18919 0.0884 0.0
C2149 C 0.4756 0.1543 0.11451 0.0
C2150 C 0.46517 0.18313 0.09598 0.0
C2151 C 0.4612 0.19367 0.11297 0.0
C2152 C 0.47519 0.21047 0.12229 0.0
C2153 C 0.49267 0.21749 0.1116 0.0
C2154 C 0.49664 0.20688 0.095 0.0
H2155 H 0.47786 0.14391 0.12437 0.0
H2156 H 0.47952 0.16572 0.12853 0.0
H2157 H 0.46089 0.14807 0.11032 0.0
H2158 H 0.45443 0.1698 0.09019 0.0
H2159 H 0.44752 0.18799 0.12048 0.0
H2160 H 0.86054 0.38942 0.01186 0.0
H2161 H 0.85303 0.36375 0.04139 0.0
H2162 H 0.80024 0.35746 0.05518 0.0
H2163 H 0.80749 0.3829 0.02555 0.0
H2164 H 0.82956 0.35035 0.10004 0.0
H2165 H 0.80059 0.31325 0.00535 0.0
H2166 H 0.81997 0.3359 0.00613 0.0
H2167 H 0.79777 0.3324 0.01284 0.0
C2168 C 0.84764 0.3831 0.02212 0.0
C2169 C 0.83445 0.3879 0.01608 0.0
C2170 C 0.84338 0.3684 0.03888 0.0
C2171 C 0.82602 0.35865 0.04999 0.0
C2172 C 0.81368 0.36484 0.04659 0.0
H2173 H 0.74781 0.26175 0.11671 0.0
H2174 H 0.7663 0.28763 0.08808 0.0
C2175 C 0.81785 0.37937 0.0297 0.0
C2176 C 0.81946 0.34038 0.06094 0.0
H2177 H 0.79262 0.29578 0.04461 0.0
C2178 C 0.82181 0.33836 0.08794 0.0
C2179 C 0.80937 0.32489 0.0449 0.0
C2180 C 0.80677 0.32657 0.01563 0.0
C2181 C 0.81348 0.32109 0.09967 0.0
C2182 C 0.80271 0.30562 0.08381 0.0
C2183 C 0.80101 0.30767 0.05659 0.0
C2184 C 0.79128 0.28761 0.09589 0.0
C2185 C 0.81536 0.31956 0.12918 0.0
C2186 C 0.79904 0.27833 0.10821 0.0
C2187 C 0.78845 0.26339 0.12443 0.0
C2188 C 0.77004 0.25772 0.12869 0.0
C2189 C 0.76198 0.26589 0.114 0.0
C2190 C 0.77253 0.28071 0.0977 0.0
H2191 H 0.82244 0.33302 0.13906 0.0
H2192 H 0.80179 0.31133 0.1384 0.0
H2193 H 0.8232 0.31258 0.13296 0.0
H2194 H 0.81347 0.28335 0.10665 0.0
H2195 H 0.79507 0.25737 0.13543 0.0
H2196 H 0.59021 0.46605 0.01107 0.0
H2197 H 0.61691 0.48376 0.03889 0.0
H2198 H 0.62126 0.4361 0.05266 0.0
H2199 H 0.59475 0.4183 0.0246 0.0
H2200 H 0.63098 0.47954 0.09293 0.0
H2201 H 0.66568 0.47273 0.00414 0.0
H2202 H 0.64264 0.4684 0.00327 0.0
H2203 H 0.64752 0.4518 0.01693 0.0
C2204 C 0.59636 0.45914 0.0209 0.0
C2205 C 0.59067 0.44087 0.01518 0.0
C2206 C 0.61167 0.46933 0.03669 0.0
C2207 C 0.62122 0.46127 0.0471 0.0
C2208 C 0.61415 0.44255 0.04432 0.0
H2209 H 0.71653 0.47974 0.11874 0.0
H2210 H 0.69136 0.47204 0.08859 0.0
C2211 C 0.59898 0.43239 0.0284 0.0
C2212 C 0.63984 0.47265 0.05716 0.0
H2213 H 0.68364 0.48486 0.04293 0.0
C2214 C 0.64258 0.48098 0.08197 0.0
C2215 C 0.65485 0.47464 0.04243 0.0
C2216 C 0.65263 0.46657 0.01509 0.0
C2217 C 0.65996 0.49029 0.09333 0.0
C2218 C 0.6749 0.49151 0.07911 0.0
C2219 C 0.67219 0.48396 0.05369 0.0
C2220 C 0.69276 0.49807 0.09186 0.0
C2221 C 0.662 0.49776 0.12105 0.0
C2222 C 0.70279 0.51574 0.10196 0.0
C2223 C 0.71726 0.52021 0.1193 0.0
C2224 C 0.72178 0.507 0.12667 0.0
C2225 C 0.7132 0.49012 0.11374 0.0
C2226 C 0.69876 0.48568 0.09654 0.0
H2227 H 0.64869 0.49308 0.13079 0.0
H2228 H 0.67011 0.49368 0.13357 0.0
H2229 H 0.66923 0.51279 0.1202 0.0
H2230 H 0.69866 0.52565 0.0979 0.0
H2231 H 0.72371 0.53339 0.12877 0.0
H2232 H 0.45223 0.85748 0.96146 0.0
H2233 H 0.47053 0.85109 0.93065 0.0
H2234 H 0.42572 0.79677 0.91972 0.0
H2235 H 0.40733 0.80313 0.9497 0.0
H2236 H 0.47963 0.82602 0.94343 0.0
H2237 H 0.4455 0.80805 0.84622 0.0
H2238 H 0.44038 0.82019 0.87091 0.0
H2239 H 0.42938 0.79577 0.87174 0.0
C2240 C 0.44604 0.84443 0.9516 0.0
C2241 C 0.42842 0.8307 0.95827 0.0
C2242 C 0.45656 0.84079 0.93413 0.0
C2243 C 0.4495 0.82347 0.9229 0.0
C2244 C 0.43138 0.81034 0.92773 0.0
H2245 H 0.47051 0.74479 0.86588 0.0
H2246 H 0.46304 0.76383 0.89315 0.0
C2247 C 0.42088 0.81396 0.94507 0.0
C2248 C 0.46152 0.81795 0.9098 0.0
H2249 H 0.46232 0.79268 0.85807 0.0
C2250 C 0.47618 0.81915 0.92441 0.0
C2251 C 0.45705 0.80907 0.88499 0.0
C2252 C 0.44232 0.80839 0.8675 0.0
C2253 C 0.48555 0.81043 0.91574 0.0
C2254 C 0.47999 0.8003 0.89208 0.0
C2255 C 0.46623 0.80018 0.87659 0.0
C2256 C 0.48742 0.78884 0.88327 0.0
C2257 C 0.5006 0.81119 0.93247 0.0
C2258 C 0.50417 0.79656 0.8703 0.0
C2259 C 0.50857 0.78567 0.85487 0.0
C2260 C 0.49605 0.76706 0.85193 0.0
C2261 C 0.48031 0.75912 0.86756 0.0
C2262 C 0.47601 0.76997 0.88311 0.0
H2263 H 0.50273 0.81899 0.95108 0.0
H2264 H 0.4975 0.79723 0.93757 0.0
H2265 H 0.51342 0.81764 0.92098 0.0
H2266 H 0.51307 0.81113 0.87017 0.0
H2267 H 0.52083 0.79217 0.84308 0.0
H2268 H 0.23775 0.7145 0.85789 0.0
H2269 H 0.21918 0.6887 0.88601 0.0
H2270 H 0.17794 0.70404 0.88858 0.0
H2271 H 0.19615 0.72955 0.85897 0.0
H2272 H 0.20219 0.67942 0.93149 0.0
H2273 H 0.15087 0.65665 0.85032 0.0
H2274 H 0.17284 0.67668 0.84729 0.0
H2275 H 0.15552 0.67708 0.86718 0.0
C2276 C 0.22495 0.71273 0.86493 0.0
C2277 C 0.21808 0.72361 0.8553 0.0
C2278 C 0.2143 0.69792 0.88106 0.0
C2279 C 0.19679 0.69396 0.88826 0.0
C2280 C 0.19109 0.70643 0.88218 0.0
H2281 H 0.12161 0.59256 0.96383 0.0
H2282 H 0.13172 0.61993 0.93734 0.0
C2283 C 0.20164 0.72115 0.86558 0.0
C2284 C 0.18418 0.67579 0.89911 0.0
H2285 H 0.14643 0.63547 0.88336 0.0
C2286 C 0.18989 0.6699 0.92115 0.0
C2287 C 0.16811 0.66333 0.88546 0.0
C2288 C 0.16148 0.66864 0.86114 0.0
C2289 C 0.18049 0.65179 0.92926 0.0
C2290 C 0.16496 0.63922 0.91491 0.0
C2291 C 0.15855 0.64519 0.89388 0.0
C2292 C 0.15539 0.61987 0.92203 0.0
C2293 C 0.18753 0.64615 0.9528 0.0
C2294 C 0.16445 0.60996 0.91995 0.0
C2295 C 0.15886 0.59444 0.93529 0.0
C2296 C 0.14405 0.58867 0.95254 0.0
C2297 C 0.13319 0.59681 0.95089 0.0
C2298 C 0.13897 0.61251 0.93584 0.0
H2299 H 0.19697 0.65796 0.9651 0.0
H2300 H 0.1762 0.63637 0.96551 0.0
H2301 H 0.19502 0.63941 0.94562 0.0
H2302 H 0.17699 0.61534 0.90886 0.0
H2303 H 0.16728 0.58822 0.93591 0.0
H2304 H 0.39322 0.53198 0.95016 0.0
H2305 H 0.36735 0.51359 0.92106 0.0
H2306 H 0.35051 0.55359 0.9277 0.0
H2307 H 0.37663 0.57237 0.95472 0.0
H2308 H 0.33385 0.49791 0.93668 0.0
H2309 H 0.3391 0.54172 0.85304 0.0
H2310 H 0.35815 0.54746 0.8746 0.0
H2311 H 0.34148 0.55387 0.88304 0.0
C2312 C 0.38446 0.53722 0.94432 0.0
C2313 C 0.3869 0.55357 0.95498 0.0
C2314 C 0.36958 0.52661 0.92792 0.0
C2315 C 0.35699 0.53221 0.92207 0.0
C2316 C 0.36024 0.54915 0.93115 0.0
H2317 H 0.25226 0.50074 0.87184 0.0
H2318 H 0.27815 0.50912 0.90109 0.0
C2319 C 0.37525 0.5599 0.94687 0.0
C2320 C 0.33931 0.51972 0.90957 0.0
H2321 H 0.30837 0.51963 0.86667 0.0
C2322 C 0.32837 0.50249 0.92099 0.0
C2323 C 0.33219 0.52556 0.88892 0.0
C2324 C 0.34349 0.5431 0.87408 0.0
C2325 C 0.31012 0.49158 0.91353 0.0
C2326 C 0.30274 0.49823 0.89451 0.0
C2327 C 0.31396 0.51488 0.882 0.0
C2328 C 0.28353 0.48839 0.88639 0.0
C2329 C 0.29873 0.47336 0.92652 0.0
C2330 C 0.27709 0.47295 0.87034 0.0
C2331 C 0.26203 0.4679 0.85404 0.0
C2332 C 0.25369 0.47859 0.85325 0.0
C2333 C 0.2586 0.49243 0.87199 0.0
C2334 C 0.27338 0.49721 0.88866 0.0
H2335 H 0.30541 0.47174 0.94442 0.0
H2336 H 0.28525 0.47138 0.93216 0.0
H2337 H 0.29648 0.46253 0.91219 0.0
H2338 H 0.28483 0.46609 0.86813 0.0
H2339 H 0.25851 0.45718 0.83969 0.0
H2340 H 0.11314 0.5133 0.47324 0.0
H2341 H 0.12218 0.49572 0.44513 0.0
H2342 H 0.16756 0.54524 0.41617 0.0
H2343 H 0.15885 0.56289 0.44453 0.0
H2344 H 0.1361 0.49754 0.38656 0.0
H2345 H 0.18632 0.5178 0.46846 0.0
H2346 H 0.16561 0.51863 0.47149 0.0
H2347 H 0.18447 0.53595 0.45336 0.0
C2348 C 0.12453 0.52047 0.45993 0.0
C2349 C 0.13554 0.53943 0.46139 0.0
C2350 C 0.12971 0.51038 0.44399 0.0
C2351 C 0.14574 0.51924 0.42917 0.0
C2352 C 0.15525 0.53823 0.42779 0.0
H2353 H 0.22631 0.5091 0.35262 0.0
H2354 H 0.20792 0.51562 0.38253 0.0
C2355 C 0.15024 0.54828 0.44392 0.0
C2356 C 0.15446 0.50914 0.41941 0.0
H2357 H 0.19141 0.50441 0.43062 0.0
C2358 C 0.14802 0.49875 0.39628 0.0
C2359 C 0.16986 0.51066 0.4325 0.0
C2360 C 0.17694 0.52123 0.45797 0.0
C2361 C 0.1574 0.49077 0.38484 0.0
C2362 C 0.17337 0.49304 0.39729 0.0
C2363 C 0.17916 0.50264 0.4212 0.0
C2364 C 0.18563 0.48796 0.3839 0.0
C2365 C 0.15076 0.48093 0.35874 0.0
C2366 C 0.17976 0.47001 0.37632 0.0
C2367 C 0.19027 0.46622 0.35902 0.0
C2368 C 0.20679 0.48036 0.34923 0.0
C2369 C 0.21354 0.49793 0.35946 0.0
C2370 C 0.20301 0.5017 0.37655 0.0
H2371 H 0.14009 0.48309 0.34965 0.0
H2372 H 0.16214 0.48547 0.34447 0.0
H2373 H 0.14494 0.46616 0.36201 0.0
H2374 H 0.16662 0.45912 0.38251 0.0
H2375 H 0.18478 0.45248 0.35177 0.0
H2376 H 0.46054 0.5921 0.46339 0.0
H2377 H 0.47875 0.6187 0.43563 0.0
H2378 H 0.43195 0.62457 0.42208 0.0
H2379 H 0.41363 0.59812 0.44983 0.0
H2380 H 0.4719 0.63305 0.37941 0.0
H2381 H 0.47269 0.66826 0.47275 0.0
H2382 H 0.4686 0.64529 0.47224 0.0
H2383 H 0.45102 0.64988 0.46236 0.0
C2384 C 0.45391 0.59856 0.45359 0.0
C2385 C 0.43575 0.59329 0.45926 0.0
C2386 C 0.46438 0.6138 0.43784 0.0
C2387 C 0.4567 0.62369 0.42743 0.0
C2388 C 0.43807 0.61712 0.43028 0.0
H2389 H 0.47466 0.71905 0.35737 0.0
H2390 H 0.46711 0.69374 0.38729 0.0
C2391 C 0.42764 0.60199 0.44608 0.0
C2392 C 0.46835 0.64222 0.41743 0.0
H2393 H 0.48318 0.68632 0.43388 0.0
C2394 C 0.47472 0.64477 0.39135 0.0
C2395 C 0.47202 0.65736 0.43333 0.0
C2396 C 0.46587 0.65518 0.46182 0.0
C2397 C 0.48382 0.66219 0.38015 0.0
C2398 C 0.48668 0.67727 0.39569 0.0
C2399 C 0.48104 0.67473 0.42216 0.0
C2400 C 0.49314 0.69523 0.38357 0.0
C2401 C 0.48935 0.66424 0.35137 0.0
C2402 C 0.51072 0.70521 0.37331 0.0
C2403 C 0.51515 0.71981 0.35633 0.0
C2404 C 0.50192 0.72439 0.34926 0.0
C2405 C 0.48506 0.71571 0.36219 0.0
C2406 C 0.4807 0.70121 0.37924 0.0
H2407 H 0.48417 0.65094 0.34132 0.0
H2408 H 0.48426 0.67218 0.34056 0.0
H2409 H 0.50436 0.67173 0.34998 0.0
H2410 H 0.52057 0.70092 0.37689 0.0
H2411 H 0.52831 0.7263 0.34682 0.0
H2412 H 0.37108 0.80548 0.4656 0.0
H2413 H 0.34625 0.79879 0.43582 0.0
H2414 H 0.36568 0.85594 0.42602 0.0
H2415 H 0.39048 0.86287 0.45728 0.0
H2416 H 0.32995 0.83743 0.43896 0.0
H2417 H 0.34129 0.80092 0.35781 0.0
H2418 H 0.34248 0.79154 0.389 0.0
H2419 H 0.35894 0.81474 0.38117 0.0
C2420 C 0.3705 0.81674 0.45663 0.0
C2421 C 0.38277 0.83474 0.46402 0.0
C2422 C 0.35625 0.81286 0.43941 0.0
C2423 C 0.35418 0.82685 0.42842 0.0
C2424 C 0.36706 0.84494 0.43428 0.0
H2425 H 0.25758 0.8022 0.33561 0.0
H2426 H 0.28413 0.8203 0.36348 0.0
C2427 C 0.38131 0.84887 0.45192 0.0
C2428 C 0.33751 0.82211 0.41314 0.0
H2429 H 0.30991 0.79236 0.36613 0.0
C2430 C 0.32568 0.82788 0.42262 0.0
C2431 C 0.33202 0.80981 0.39167 0.0
C2432 C 0.34448 0.80408 0.37919 0.0
C2433 C 0.30796 0.82053 0.41252 0.0
C2434 C 0.30208 0.80708 0.39265 0.0
C2435 C 0.31433 0.80232 0.38195 0.0
C2436 C 0.28322 0.79714 0.38273 0.0
C2437 C 0.29541 0.82649 0.42388 0.0
C2438 C 0.27335 0.77821 0.38545 0.0
C2439 C 0.25837 0.76783 0.36929 0.0
C2440 C 0.25297 0.77627 0.35034 0.0
C2441 C 0.2614 0.79532 0.35013 0.0
C2442 C 0.27661 0.80572 0.36605 0.0
H2443 H 0.30121 0.83514 0.44174 0.0
H2444 H 0.29281 0.83437 0.4087 0.0
H2445 H 0.28216 0.81452 0.42914 0.0
H2446 H 0.27824 0.77137 0.39834 0.0
H2447 H 0.25204 0.75319 0.36996 0.0
H2448 H 0.24637 0.11006 0.10661 0.0
H2449 H 0.27805 0.12128 0.11912 0.0
H2450 H 0.27687 0.16168 0.16925 0.0
H2451 H 0.24527 0.15067 0.15684 0.0
H2452 H 0.3093 0.15979 0.1157 0.0
H2453 H 0.29274 0.13085 0.21741 0.0
H2454 H 0.27648 0.12248 0.19057 0.0
H2455 H 0.28185 0.14329 0.20695 0.0
C2456 C 0.25288 0.12142 0.12015 0.0
C2457 C 0.24328 0.12942 0.13086 0.0
C2458 C 0.27095 0.12778 0.12726 0.0
C2459 C 0.27961 0.1421 0.14535 0.0
C2460 C 0.27027 0.15044 0.1555 0.0
H2461 H 0.38158 0.20217 0.22528 0.0
H2462 H 0.35005 0.187 0.21024 0.0
C2463 C 0.25226 0.14419 0.14828 0.0
C2464 C 0.29842 0.14833 0.1539 0.0
H2465 H 0.32375 0.15107 0.20804 0.0
C2466 C 0.31253 0.15779 0.13579 0.0
C2467 C 0.30244 0.14557 0.18009 0.0
C2468 C 0.28762 0.13488 0.19992 0.0
C2469 C 0.33073 0.16528 0.14354 0.0
C2470 C 0.33481 0.16287 0.16997 0.0
C2471 C 0.3206 0.15296 0.18785 0.0
C2472 C 0.35372 0.17122 0.17979 0.0
C2473 C 0.3454 0.17631 0.12366 0.0
C2474 C 0.36612 0.16703 0.16811 0.0
C2475 C 0.38419 0.17579 0.1765 0.0
C2476 C 0.39011 0.18873 0.197 0.0
C2477 C 0.37747 0.19234 0.20939 0.0
C2478 C 0.35945 0.18367 0.20082 0.0
H2479 H 0.3401 0.18057 0.10662 0.0
H2480 H 0.35662 0.1886 0.13304 0.0
H2481 H 0.35103 0.16798 0.11578 0.0
H2482 H 0.36188 0.1571 0.15234 0.0
H2483 H 0.39353 0.17252 0.16677 0.0
H2484 H 0.82486 0.22002 0.20818 0.0
H2485 H 0.83663 0.20025 0.19447 0.0
H2486 H 0.78388 0.1613 0.16425 0.0
H2487 H 0.77204 0.18097 0.17753 0.0
H2488 H 0.82562 0.16423 0.2082 0.0
H2489 H 0.81737 0.17128 0.10043 0.0
H2490 H 0.81613 0.1861 0.12488 0.0
H2491 H 0.79695 0.16392 0.11917 0.0
C2492 C 0.81576 0.20724 0.19863 0.0
C2493 C 0.79756 0.20215 0.19368 0.0
C2494 C 0.8225 0.19597 0.19085 0.0
C2495 C 0.81119 0.17952 0.1779 0.0
C2496 C 0.79291 0.17415 0.1737 0.0
H2497 H 0.8234 0.08916 0.12638 0.0
H2498 H 0.81187 0.10918 0.14008 0.0
C2499 C 0.78616 0.18537 0.18145 0.0
C2500 C 0.81848 0.16795 0.16863 0.0
H2501 H 0.8246 0.14867 0.11312 0.0
C2502 C 0.82548 0.16089 0.18742 0.0
C2503 C 0.81838 0.16375 0.14146 0.0
C2504 C 0.81197 0.17179 0.12026 0.0
C2505 C 0.83203 0.14938 0.17975 0.0
C2506 C 0.83154 0.14489 0.15271 0.0
C2507 C 0.82473 0.15206 0.13388 0.0
C2508 C 0.83841 0.13302 0.14359 0.0
C2509 C 0.83931 0.1419 0.2005 0.0
C2510 C 0.85708 0.14 0.14067 0.0
C2511 C 0.8637 0.1287 0.13269 0.0
C2512 C 0.85172 0.11019 0.12765 0.0
C2513 C 0.83296 0.10333 0.13019 0.0
C2514 C 0.82635 0.11471 0.138 0.0
H2515 H 0.83721 0.14533 0.22095 0.0
H2516 H 0.83265 0.12693 0.19861 0.0
H2517 H 0.85406 0.14751 0.19732 0.0
H2518 H 0.86653 0.15415 0.14482 0.0
H2519 H 0.87823 0.13443 0.13097 0.0
H2520 H 0.7983 0.58584 0.17843 0.0
H2521 H 0.81848 0.61727 0.16508 0.0
H2522 H 0.77846 0.63124 0.18952 0.0
H2523 H 0.75827 0.59991 0.20326 0.0
H2524 H 0.81112 0.63619 0.12679 0.0
H2525 H 0.82471 0.67072 0.22441 0.0
H2526 H 0.81499 0.64649 0.22131 0.0
H2527 H 0.80105 0.65666 0.21685 0.0
C2528 C 0.79385 0.59563 0.18125 0.0
C2529 C 0.77665 0.59036 0.19186 0.0
C2530 C 0.8054 0.61357 0.17357 0.0
C2531 C 0.80002 0.62659 0.17653 0.0
C2532 C 0.78299 0.62146 0.18748 0.0
H2533 H 0.84579 0.73908 0.13186 0.0
H2534 H 0.82589 0.70756 0.14484 0.0
C2535 C 0.77142 0.60352 0.19517 0.0
C2536 C 0.81185 0.64531 0.16684 0.0
H2537 H 0.83448 0.68963 0.18626 0.0
C2538 C 0.81634 0.64788 0.1398 0.0
C2539 C 0.81854 0.6605 0.18388 0.0
C2540 C 0.81473 0.65851 0.21327 0.0
C2541 C 0.82716 0.66531 0.12924 0.0
C2542 C 0.83381 0.68047 0.14627 0.0
C2543 C 0.82931 0.67792 0.17329 0.0
C2544 C 0.84552 0.69916 0.13654 0.0
C2545 C 0.83109 0.66742 0.0999 0.0
C2546 C 0.86311 0.7048 0.12741 0.0
C2547 C 0.87459 0.72285 0.12002 0.0
C2548 C 0.86864 0.73554 0.12174 0.0
C2549 C 0.85084 0.72969 0.13035 0.0
C2550 C 0.83943 0.71169 0.1378 0.0
H2551 H 0.82194 0.65485 0.08875 0.0
H2552 H 0.82967 0.67878 0.09175 0.0
H2553 H 0.84527 0.67062 0.09655 0.0
H2554 H 0.86811 0.69534 0.12663 0.0
H2555 H 0.88821 0.72692 0.1135 0.0
H2556 H 0.1849 0.39909 0.32085 0.0
H2557 H 0.1715 0.36748 0.33502 0.0
H2558 H 0.1616 0.35011 0.25344 0.0
H2559 H 0.17495 0.38169 0.23897 0.0
H2560 H 0.13471 0.33622 0.32118 0.0
H2561 H 0.19295 0.3291 0.28707 0.0
H2562 H 0.19484 0.35088 0.29331 0.0
H2563 H 0.18408 0.33861 0.26357 0.0
C2564 C 0.17985 0.38857 0.30588 0.0
C2565 C 0.18112 0.39292 0.27874 0.0
C2566 C 0.17216 0.37053 0.31406 0.0
C2567 C 0.16576 0.35656 0.29525 0.0
C2568 C 0.16667 0.36078 0.2682 0.0
H2569 H 0.12355 0.24195 0.29205 0.0
H2570 H 0.13645 0.27425 0.28365 0.0
C2571 C 0.17427 0.37881 0.25999 0.0
C2572 C 0.15842 0.33757 0.30384 0.0
H2573 H 0.16693 0.30247 0.30176 0.0
C2574 C 0.14174 0.3288 0.31712 0.0
C2575 C 0.16773 0.32808 0.29854 0.0
C2576 C 0.18597 0.33712 0.28502 0.0
C2577 C 0.13374 0.31045 0.32438 0.0
C2578 C 0.14295 0.30084 0.31875 0.0
C2579 C 0.15987 0.30983 0.30602 0.0
C2580 C 0.13495 0.28121 0.32447 0.0
C2581 C 0.11521 0.3014 0.33705 0.0
C2582 C 0.12999 0.27436 0.35033 0.0
C2583 C 0.12239 0.25577 0.35519 0.0
C2584 C 0.11991 0.24378 0.33432 0.0
C2585 C 0.12526 0.25078 0.30859 0.0
C2586 C 0.13266 0.26927 0.30374 0.0
H2587 H 0.10812 0.3092 0.33365 0.0
H2588 H 0.1066 0.28745 0.32926 0.0
H2589 H 0.1167 0.30052 0.35877 0.0
H2590 H 0.13206 0.28338 0.36676 0.0
H2591 H 0.11853 0.25081 0.37526 0.0
H2592 H 0.58117 0.77294 0.31401 0.0
H2593 H 0.61259 0.78891 0.32964 0.0
H2594 H 0.62909 0.82056 0.25783 0.0
H2595 H 0.59765 0.80457 0.24182 0.0
H2596 H 0.64981 0.79865 0.28737 0.0
H2597 H 0.64001 0.85062 0.34033 0.0
H2598 H 0.622 0.8273 0.33826 0.0
H2599 H 0.62855 0.84129 0.30925 0.0
C2600 C 0.59148 0.78327 0.30148 0.0
C2601 C 0.58693 0.78764 0.27677 0.0
C2602 C 0.60939 0.79227 0.3104 0.0
C2603 C 0.623 0.80584 0.29485 0.0
C2604 C 0.61866 0.81003 0.26998 0.0
H2605 H 0.73096 0.89257 0.31864 0.0
H2606 H 0.69906 0.87224 0.30791 0.0
C2607 C 0.60074 0.80093 0.26092 0.0
C2608 C 0.64163 0.81637 0.30519 0.0
H2609 H 0.66941 0.85461 0.3402 0.0
C2610 C 0.65417 0.81084 0.29904 0.0
C2611 C 0.64703 0.83212 0.32049 0.0
C2612 C 0.63378 0.83831 0.32763 0.0
C2613 C 0.67233 0.82109 0.30722 0.0
C2614 C 0.67788 0.83713 0.32213 0.0
C2615 C 0.66512 0.84234 0.32875 0.0
C2616 C 0.69706 0.84935 0.32957 0.0
C2617 C 0.68551 0.815 0.29907 0.0
C2618 C 0.7064 0.84332 0.34576 0.0
C2619 C 0.72469 0.85488 0.35177 0.0
C2620 C 0.73388 0.87274 0.34195 0.0
C2621 C 0.7243 0.87889 0.32645 0.0
C2622 C 0.70607 0.86729 0.32031 0.0
H2623 H 0.68004 0.80489 0.28275 0.0
H2624 H 0.69859 0.82671 0.29256 0.0
H2625 H 0.68823 0.80859 0.31628 0.0
H2626 H 0.69957 0.82966 0.35366 0.0
H2627 H 0.73165 0.84978 0.364 0.0
H2628 H 0.19402 0.8089 0.23536 0.0
H2629 H 0.17635 0.82271 0.25098 0.0
H2630 H 0.17218 0.79944 0.3284 0.0
H2631 H 0.18968 0.78567 0.31318 0.0
H2632 H 0.14005 0.80399 0.27509 0.0
H2633 H 0.19315 0.8548 0.34172 0.0
H2634 H 0.19819 0.8437 0.31527 0.0
H2635 H 0.18877 0.83199 0.3459 0.0
C2636 C 0.18934 0.80674 0.25569 0.0
C2637 C 0.1933 0.79623 0.27303 0.0
C2638 C 0.17926 0.81462 0.26456 0.0
C2639 C 0.17322 0.81225 0.29091 0.0
C2640 C 0.17698 0.80163 0.30811 0.0
H2641 H 0.09833 0.83296 0.37935 0.0
H2642 H 0.11677 0.82052 0.36175 0.0
C2643 C 0.18691 0.7937 0.29929 0.0
C2644 C 0.16268 0.82056 0.3006 0.0
H2645 H 0.16345 0.85058 0.34618 0.0
C2646 C 0.14518 0.81426 0.29049 0.0
C2647 C 0.1695 0.83397 0.32065 0.0
C2648 C 0.18849 0.84167 0.33142 0.0
C2649 C 0.13411 0.82075 0.30047 0.0
C2650 C 0.14079 0.83379 0.32094 0.0
C2651 C 0.15839 0.84037 0.33069 0.0
C2652 C 0.12984 0.84125 0.3318 0.0
C2653 C 0.11532 0.81366 0.2893 0.0
C2654 C 0.13135 0.85704 0.32082 0.0
C2655 C 0.12096 0.86418 0.33079 0.0
C2656 C 0.10885 0.85561 0.35193 0.0
C2657 C 0.1075 0.83983 0.36305 0.0
C2658 C 0.11798 0.83272 0.35305 0.0
H2659 H 0.1121 0.80346 0.27341 0.0
H2660 H 0.10515 0.80739 0.30539 0.0
H2661 H 0.11405 0.82509 0.2811 0.0
H2662 H 0.14048 0.86376 0.30441 0.0
H2663 H 0.1223 0.87631 0.32168 0.0
H2664 H 0.72813 0.87001 0.82994 0.0
H2665 H 0.69716 0.85661 0.81321 0.0
H2666 H 0.67774 0.82044 0.88035 0.0
H2667 H 0.70872 0.83393 0.89751 0.0
H2668 H 0.67361 0.82015 0.79972 0.0
H2669 H 0.64529 0.84347 0.87991 0.0
H2670 H 0.66936 0.85299 0.87504 0.0
H2671 H 0.65636 0.83136 0.89098 0.0
C2672 C 0.71728 0.85931 0.8413 0.0
C2673 C 0.72088 0.85309 0.86514 0.0
C2674 C 0.6996 0.85163 0.83165 0.0
C2675 C 0.68519 0.83769 0.84568 0.0
C2676 C 0.68868 0.83142 0.86948 0.0
H2677 H 0.57137 0.7701 0.80996 0.0
H2678 H 0.60241 0.78247 0.82594 0.0
C2679 C 0.70638 0.8391 0.87919 0.0
C2680 C 0.66658 0.82952 0.83501 0.0
H2681 H 0.62456 0.82348 0.84786 0.0
C2682 C 0.66289 0.82092 0.81018 0.0
C2683 C 0.65267 0.83057 0.84877 0.0
C2684 C 0.65608 0.84022 0.87505 0.0
C2685 C 0.64556 0.81323 0.79882 0.0
C2686 C 0.63174 0.81432 0.81259 0.0
C2687 C 0.63534 0.82278 0.83743 0.0
C2688 C 0.61331 0.80655 0.80162 0.0
C2689 C 0.64198 0.80381 0.77234 0.0
C2690 C 0.60933 0.81605 0.78256 0.0
C2691 C 0.59155 0.8091 0.77342 0.0
C2692 C 0.57757 0.79253 0.78324 0.0
C2693 C 0.5818 0.78291 0.80198 0.0
C2694 C 0.5995 0.78992 0.81117 0.0
H2695 H 0.65385 0.80297 0.76507 0.0
H2696 H 0.63014 0.78989 0.77387 0.0
H2697 H 0.63855 0.81128 0.75751 0.0
H2698 H 0.61992 0.82898 0.77512 0.0
H2699 H 0.58874 0.81681 0.75899 0.0
H2700 H 0.17111 0.77633 0.75046 0.0
H2701 H 0.15806 0.79447 0.76668 0.0
H2702 H 0.18841 0.80496 0.83941 0.0
H2703 H 0.20168 0.78714 0.82332 0.0
H2704 H 0.13725 0.78886 0.8118 0.0
H2705 H 0.20042 0.85567 0.8165 0.0
H2706 H 0.19905 0.83658 0.79886 0.0
H2707 H 0.20174 0.83811 0.83431 0.0
C2708 C 0.1751 0.78259 0.76983 0.0
C2709 C 0.1875 0.78033 0.78553 0.0
C2710 C 0.16762 0.79294 0.77908 0.0
C2711 C 0.17249 0.8013 0.80407 0.0
C2712 C 0.18477 0.79897 0.81983 0.0
H2713 H 0.13836 0.86398 0.89955 0.0
H2714 H 0.15173 0.84614 0.88323 0.0
C2715 C 0.19224 0.78865 0.81063 0.0
C2716 C 0.16423 0.81189 0.81414 0.0
H2717 H 0.17432 0.85368 0.83699 0.0
C2718 C 0.14533 0.80306 0.81715 0.0
C2719 C 0.17484 0.8304 0.82121 0.0
C2720 C 0.19512 0.84082 0.81735 0.0
C2721 C 0.13676 0.81217 0.82744 0.0
C2722 C 0.14736 0.83064 0.83458 0.0
C2723 C 0.16626 0.83948 0.8316 0.0
C2724 C 0.13903 0.84113 0.8446 0.0
C2725 C 0.11646 0.80188 0.83107 0.0
C2726 C 0.12759 0.8443 0.82819 0.0
C2727 C 0.11994 0.85445 0.83741 0.0
C2728 C 0.12366 0.86171 0.86322 0.0
C2729 C 0.13517 0.85853 0.87962 0.0
C2730 C 0.14285 0.84839 0.87033 0.0
H2731 H 0.11089 0.78697 0.83066 0.0
H2732 H 0.11262 0.80558 0.85012 0.0
H2733 H 0.11003 0.80542 0.81475 0.0
H2734 H 0.12474 0.83908 0.80811 0.0
H2735 H 0.11123 0.85672 0.82418 0.0
H2736 H 0.18159 0.39945 0.77114 0.0
H2737 H 0.16105 0.36752 0.78229 0.0
H2738 H 0.20037 0.36912 0.83786 0.0
H2739 H 0.221 0.40088 0.82681 0.0
H2740 H 0.18453 0.33879 0.79929 0.0
H2741 H 0.13358 0.34835 0.85553 0.0
H2742 H 0.14132 0.3596 0.82404 0.0
H2743 H 0.15673 0.36644 0.85151 0.0
C2744 C 0.18586 0.39298 0.7857 0.0
C2745 C 0.20293 0.40266 0.79805 0.0
C2746 C 0.17409 0.37481 0.79211 0.0
C2747 C 0.17919 0.36612 0.81105 0.0
C2748 C 0.19624 0.37567 0.82321 0.0
H2749 H 0.123 0.26749 0.90074 0.0
H2750 H 0.14 0.2988 0.88473 0.0
C2751 C 0.20802 0.39378 0.81678 0.0
C2752 C 0.16702 0.34692 0.81796 0.0
H2753 H 0.12865 0.31862 0.85237 0.0
C2754 C 0.17223 0.3343 0.81072 0.0
C2755 C 0.1511 0.34129 0.833 0.0
C2756 C 0.14527 0.35456 0.84168 0.0
C2757 C 0.16204 0.3161 0.81848 0.0
C2758 C 0.14614 0.31043 0.83366 0.0
C2759 C 0.14082 0.32305 0.84066 0.0
C2760 C 0.13524 0.29155 0.84319 0.0
C2761 C 0.16868 0.30324 0.81104 0.0
C2762 C 0.12678 0.2772 0.82512 0.0
C2763 C 0.11722 0.25933 0.83416 0.0
C2764 C 0.11578 0.25552 0.86149 0.0
C2765 C 0.12393 0.26998 0.87958 0.0
C2766 C 0.13358 0.28786 0.87048 0.0
H2767 H 0.18311 0.31057 0.80473 0.0
H2768 H 0.16722 0.29422 0.82792 0.0
H2769 H 0.16045 0.29461 0.79426 0.0
H2770 H 0.12763 0.27981 0.80399 0.0
H2771 H 0.11091 0.24852 0.81969 0.0
H2772 H 0.85425 0.73354 0.65407 0.0
H2773 H 0.83791 0.70207 0.66934 0.0
H2774 H 0.82968 0.68347 0.58835 0.0
H2775 H 0.84591 0.71493 0.57274 0.0
H2776 H 0.79875 0.6709 0.64856 0.0
H2777 H 0.8586 0.66181 0.63377 0.0
H2778 H 0.86096 0.68385 0.63942 0.0
H2779 H 0.85295 0.67284 0.60801 0.0
C2780 C 0.84897 0.72278 0.63945 0.0
C2781 C 0.85147 0.72673 0.61216 0.0
C2782 C 0.83954 0.70483 0.64825 0.0
C2783 C 0.83259 0.69056 0.62994 0.0
C2784 C 0.83493 0.69439 0.60271 0.0
H2785 H 0.79423 0.57708 0.63905 0.0
H2786 H 0.80448 0.60829 0.62648 0.0
C2787 C 0.84427 0.71234 0.59387 0.0
C2788 C 0.82377 0.67163 0.63934 0.0
H2789 H 0.8316 0.63647 0.64791 0.0
C2790 C 0.80583 0.66327 0.6485 0.0
C2791 C 0.83317 0.66191 0.63921 0.0
C2792 C 0.85252 0.67048 0.62972 0.0
C2793 C 0.79681 0.64506 0.65687 0.0
C2794 C 0.80623 0.63525 0.65669 0.0
C2795 C 0.82433 0.64391 0.648 0.0
C2796 C 0.79763 0.61575 0.66394 0.0
C2797 C 0.77718 0.63642 0.66497 0.0
C2798 C 0.78988 0.60928 0.68907 0.0
C2799 C 0.78362 0.59114 0.69617 0.0
C2800 C 0.78555 0.57943 0.67852 0.0
C2801 C 0.79293 0.58588 0.6533 0.0
C2802 C 0.79872 0.60372 0.64603 0.0
H2803 H 0.7707 0.64401 0.65706 0.0
H2804 H 0.76935 0.62217 0.65796 0.0
H2805 H 0.77633 0.63642 0.68692 0.0
H2806 H 0.78919 0.61835 0.70345 0.0
H2807 H 0.7779 0.58646 0.7157 0.0
H2808 H 0.26241 0.13467 0.57224 0.0
H2809 H 0.29415 0.15192 0.5867 0.0
H2810 H 0.27933 0.12549 0.66285 0.0
H2811 H 0.24764 0.1083 0.6488 0.0
H2812 H 0.30368 0.17353 0.64379 0.0
H2813 H 0.32575 0.12272 0.62672 0.0
H2814 H 0.30855 0.12325 0.60626 0.0
H2815 H 0.30347 0.11555 0.63987 0.0
C2816 C 0.26592 0.13244 0.59199 0.0
C2817 C 0.25251 0.12022 0.60943 0.0
C2818 C 0.28402 0.14227 0.60017 0.0
C2819 C 0.28894 0.13984 0.62574 0.0
C2820 C 0.27571 0.12742 0.643 0.0
H2821 H 0.39455 0.18618 0.70258 0.0
H2822 H 0.36253 0.16703 0.69074 0.0
C2823 C 0.25762 0.11769 0.63494 0.0
C2824 C 0.30775 0.15109 0.63504 0.0
H2825 H 0.34733 0.15095 0.64458 0.0
C2826 C 0.31329 0.16867 0.64396 0.0
C2827 C 0.31997 0.14445 0.63567 0.0
C2828 C 0.31429 0.12546 0.62661 0.0
C2829 C 0.33094 0.17996 0.65343 0.0
C2830 C 0.34347 0.17361 0.65314 0.0
C2831 C 0.33775 0.15584 0.64463 0.0
C2832 C 0.36269 0.18538 0.66086 0.0
C2833 C 0.33582 0.19841 0.66412 0.0
C2834 C 0.37341 0.20196 0.64786 0.0
C2835 C 0.39157 0.21302 0.65484 0.0
C2836 C 0.39948 0.20752 0.67456 0.0
C2837 C 0.38881 0.19079 0.68735 0.0
C2838 C 0.37054 0.17983 0.68058 0.0
H2839 H 0.3236 0.19875 0.67104 0.0
H2840 H 0.34557 0.2024 0.68085 0.0
H2841 H 0.34213 0.20862 0.6481 0.0
H2842 H 0.3678 0.20627 0.63204 0.0
H2843 H 0.3995 0.2257 0.64436 0.0
H2844 H 0.85514 0.11834 0.64996 0.0
H2845 H 0.83878 0.13319 0.66579 0.0
H2846 H 0.84161 0.15529 0.58785 0.0
H2847 H 0.85812 0.14043 0.57163 0.0
H2848 H 0.85171 0.17266 0.66226 0.0
H2849 H 0.78631 0.12809 0.61047 0.0
H2850 H 0.8029 0.12115 0.61639 0.0
H2851 H 0.80681 0.13756 0.59116 0.0
C2852 C 0.85225 0.12627 0.63606 0.0
C2853 C 0.8579 0.12816 0.60948 0.0
C2854 C 0.84295 0.13479 0.64521 0.0
C2855 C 0.83898 0.14523 0.62795 0.0
C2856 C 0.84448 0.14714 0.60137 0.0
H2857 H 0.7947 0.21449 0.6687 0.0
H2858 H 0.81346 0.2026 0.65129 0.0
C2859 C 0.8539 0.13866 0.59218 0.0
C2860 C 0.82912 0.15412 0.6381 0.0
H2861 H 0.78776 0.1514 0.63737 0.0
C2862 C 0.83777 0.16813 0.65673 0.0
C2863 C 0.81093 0.14803 0.63087 0.0
C2864 C 0.80105 0.13281 0.61124 0.0
C2865 C 0.8286 0.17618 0.66848 0.0
C2866 C 0.81036 0.16992 0.66148 0.0
C2867 C 0.80175 0.15604 0.64269 0.0
C2868 C 0.79988 0.17759 0.67351 0.0
C2869 C 0.83824 0.19104 0.68869 0.0
C2870 C 0.78615 0.16742 0.69187 0.0
C2871 C 0.77537 0.17414 0.70194 0.0
C2872 C 0.77811 0.19109 0.69357 0.0
C2873 C 0.79221 0.20139 0.67558 0.0
C2874 C 0.80298 0.19466 0.66562 0.0
H2875 H 0.85183 0.19309 0.6939 0.0
H2876 H 0.83997 0.20396 0.68067 0.0
H2877 H 0.82998 0.18782 0.70701 0.0
H2878 H 0.78363 0.15418 0.69813 0.0
H2879 H 0.76467 0.16592 0.71579 0.0
H2880 H 0.04676 0.48614 0.53828 0.0
H2881 H 0.01521 0.47453 0.52466 0.0
H2882 H 0.0276 0.52871 0.50416 0.0
H2883 H 0.05909 0.54042 0.51744 0.0
H2884 H -0.01112 0.48342 0.54155 0.0
H2885 H 0.00639 0.49977 0.43533 0.0
H2886 H 0.02211 0.49965 0.45928 0.0
H2887 H 0.01859 0.51876 0.45715 0.0
C2888 C 0.04275 0.4956 0.53098 0.0
C2889 C 0.05549 0.51418 0.52864 0.0
C2890 C 0.02473 0.48894 0.52324 0.0
C2891 C 0.01922 0.50073 0.51291 0.0
C2892 C 0.03171 0.51935 0.51155 0.0
H2893 H 0.91737 0.48997 0.46099 0.0
H2894 H 0.94873 0.50095 0.47526 0.0
C2895 C 0.04968 0.52602 0.51929 0.0
C2896 C 0.00049 0.4936 0.50309 0.0
H2897 H 0.97608 0.49082 0.44769 0.0
C2898 C 0.98605 0.48494 0.52102 0.0
C2899 C -0.00312 0.49551 0.47623 0.0
C2900 C 0.01178 0.50376 0.4558 0.0
C2901 C 0.96809 0.47852 0.51286 0.0
C2902 C 0.96459 0.48082 0.48619 0.0
C2903 C 0.97895 0.48928 0.46819 0.0
C2904 C 0.94598 0.4743 0.47657 0.0
C2905 C 0.95294 0.46954 0.53278 0.0
C2906 C 0.93434 0.45577 0.47212 0.0
C2907 C 0.91654 0.44948 0.46377 0.0
C2908 C 0.91007 0.46164 0.45991 0.0
C2909 C 0.92194 0.48028 0.46387 0.0
C2910 C 0.93981 0.48656 0.47202 0.0
H2911 H 0.95809 0.47071 0.55336 0.0
H2912 H 0.94409 0.47566 0.5319 0.0
H2913 H 0.94446 0.45494 0.52782 0.0
H2914 H 0.93898 0.44616 0.47537 0.0
H2915 H 0.90776 0.43503 0.46092 0.0
H2916 H 0.45747 0.53533 0.48767 0.0
H2917 H 0.47164 0.51792 0.47306 0.0
H2918 H 0.47809 0.50669 0.55446 0.0
H2919 H 0.464 0.52416 0.5694 0.0
H2920 H 0.50845 0.52224 0.49168 0.0
H2921 H 0.44634 0.45623 0.51266 0.0
H2922 H 0.44571 0.47688 0.50714 0.0
H2923 H 0.45387 0.47332 0.53809 0.0
C2924 C 0.46195 0.52922 0.50251 0.0
C2925 C 0.45946 0.53097 0.52972 0.0
C2926 C 0.47011 0.51937 0.4941 0.0
C2927 C 0.47576 0.51101 0.51272 0.0
C2928 C 0.4737 0.51303 0.53986 0.0
H2929 H 0.51217 0.43402 0.51227 0.0
H2930 H 0.50058 0.45445 0.52156 0.0
C2931 C 0.46564 0.52299 0.54833 0.0
C2932 C 0.48306 0.49944 0.50377 0.0
H2933 H 0.47246 0.45527 0.49989 0.0
C2934 C 0.50064 0.50759 0.49332 0.0
C2935 C 0.47269 0.48039 0.50588 0.0
C2936 C 0.45354 0.47107 0.51637 0.0
C2937 C 0.50844 0.49711 0.48578 0.0
C2938 C 0.49813 0.478 0.48824 0.0
C2939 C 0.48036 0.46991 0.4981 0.0
C2940 C 0.50569 0.46606 0.48216 0.0
C2941 C 0.52782 0.50664 0.47622 0.0
C2942 C 0.51229 0.46569 0.4568 0.0
C2943 C 0.51915 0.45412 0.45148 0.0
C2944 C 0.51917 0.4425 0.47132 0.0
C2945 C 0.51226 0.44272 0.4965 0.0
C2946 C 0.50566 0.45442 0.50188 0.0
H2947 H 0.53516 0.52118 0.48195 0.0
H2948 H 0.53529 0.50009 0.48428 0.0
H2949 H 0.52794 0.50591 0.45426 0.0
H2950 H 0.51202 0.47422 0.44109 0.0
H2951 H 0.5243 0.45417 0.43184 0.0
H2952 H 0.52113 0.07663 0.49074 0.0
H2953 H 0.50367 0.04566 0.50775 0.0
H2954 H 0.51905 0.02585 0.43961 0.0
H2955 H 0.53665 0.05677 0.4225 0.0
H2956 H 0.47458 0.01501 0.48358 0.0
H2957 H 0.53301 0.00472 0.5029 0.0
H2958 H 0.5356 0.02685 0.49738 0.0
H2959 H 0.53232 0.01215 0.46979 0.0
C2960 C 0.52087 0.06571 0.47939 0.0
C2961 C 0.53037 0.06918 0.4553 0.0
C2962 C 0.51085 0.04802 0.48914 0.0
C2963 C 0.51029 0.03353 0.47513 0.0
C2964 C 0.51959 0.03691 0.45096 0.0
H2965 H 0.45625 0.91715 0.49217 0.0
H2966 H 0.47357 0.94872 0.47743 0.0
C2967 C 0.52956 0.05458 0.44115 0.0
C2968 C 0.49975 0.01481 0.48554 0.0
H2969 H 0.50367 0.97859 0.50556 0.0
C2970 C 0.48093 0.00707 0.48856 0.0
C2971 C 0.50811 0.00455 0.49213 0.0
C2972 C 0.52839 0.01251 0.49065 0.0
C2973 C 0.47016 0.98911 0.4973 0.0
C2974 C 0.47851 0.97876 0.5034 0.0
C2975 C 0.49734 0.98656 0.50069 0.0
C2976 C 0.46791 0.95972 0.51242 0.0
C2977 C 0.44991 0.98118 0.49936 0.0
C2978 C 0.45921 0.95552 0.53712 0.0
C2979 C 0.44939 0.93752 0.54568 0.0
C2980 C 0.4481 0.9234 0.52966 0.0
C2981 C 0.45695 0.92769 0.50498 0.0
C2982 C 0.46684 0.94571 0.49651 0.0
H2983 H 0.44526 0.98968 0.48906 0.0
H2984 H 0.44267 0.96731 0.49081 0.0
H2985 H 0.44607 0.98019 0.52056 0.0
H2986 H 0.4601 0.96619 0.54983 0.0
H2987 H 0.44274 0.9347 0.56479 0.0
H2988 H 0.53724 0.06233 0.96086 0.0
H2989 H 0.52574 0.03078 0.97372 0.0
H2990 H 0.47188 0.01756 0.94957 0.0
H2991 H 0.48328 0.04908 0.93638 0.0
H2992 H 0.49929 0.0121 0.01218 0.0
H2993 H 0.47832 0.97769 0.91442 0.0
H2994 H 0.49322 0.00185 0.91763 0.0
H2995 H 0.46918 -0.00782 0.9219 0.0
C2996 C 0.52298 0.05269 0.95797 0.0
C2997 C 0.51116 0.05824 0.94765 0.0
C2998 C 0.51644 0.03467 0.96537 0.0
C2999 C 0.49801 0.02182 0.96241 0.0
C3000 C 0.48622 0.02721 0.95163 0.0
H3001 H 0.43088 0.90965 0.00909 0.0
H3002 H 0.44265 0.941 -0.00513 0.0
C3003 C 0.49274 0.04525 0.94424 0.0
C3004 C 0.49099 0.00306 0.97206 0.0
H3005 H 0.46932 0.95875 0.95252 0.0
C3006 C 0.49283 0.00043 -0.00087 0.0
C3007 C 0.48252 0.9879 0.95497 0.0
C3008 C 0.4808 0.98998 0.92557 0.0
C3009 C 0.4862 0.98299 0.00964 0.0
C3010 C 0.47773 0.96785 -0.00743 0.0
C3011 C 0.47584 0.97044 0.96552 0.0
C3012 C 0.47071 0.94915 0.00238 0.0
C3013 C 0.48797 0.98081 0.039 0.0
C3014 C 0.48264 0.94341 0.01137 0.0
C3015 C 0.47598 0.92546 0.01943 0.0
C3016 C 0.45727 0.91298 0.01864 0.0
C3017 C 0.44536 0.91891 0.01 0.0
C3018 C 0.45204 0.9368 0.0018 0.0
H3019 H 0.49159 -0.00657 0.05015 0.0
H3020 H 0.47511 0.9696 0.0471 0.0
H3021 H 0.49877 0.97735 0.04242 0.0
H3022 H 0.49712 0.95274 0.01167 0.0
H3023 H 0.48551 0.92133 0.02595 0.0
H3024 H 0.93086 0.45315 0.90765 0.0
H3025 H 0.96242 0.47006 0.92278 0.0
H3026 H 0.94441 0.47394 0.0011 0.0
H3027 H 0.91291 0.45698 0.98633 0.0
H3028 H 0.98138 0.50509 0.94521 0.0
H3029 H 0.978 0.45284 0.0145 0.0
H3030 H 0.96109 0.44789 -0.01077 0.0
H3031 H 0.96058 0.45855 0.01972 0.0
C3032 C 0.93361 0.45761 0.92809 0.0
C3033 C 0.91935 0.45363 0.94581 0.0
C3034 C 0.95164 0.46724 0.9367 0.0
C3035 C 0.9557 0.47295 0.96316 0.0
C3036 C 0.94153 0.46931 0.98074 0.0
H3037 H 0.05485 0.55509 0.03538 0.0
H3038 H 0.02379 0.5358 0.0193 0.0
C3039 C 0.92354 0.4597 0.97219 0.0
C3040 C 0.97475 0.48313 0.97238 0.0
H3041 H 0.00411 0.48232 0.01787 0.0
C3042 C 0.98639 0.50008 0.96099 0.0
C3043 C 0.9813 0.47641 -0.00731 0.0
C3044 C 0.96966 0.45785 0.0046 0.0
C3045 C 0.00427 0.5108 0.97004 0.0
C3046 C 0.01053 0.50445 -0.00883 0.0
C3047 C -0.00088 0.48724 0.00195 0.0
C3048 C 0.02899 0.51554 0.0022 0.0
C3049 C 0.01641 0.52881 0.95689 0.0
C3050 C 0.04195 0.51019 -0.00142 0.0
C3051 C 0.05966 0.52111 0.00781 0.0
C3052 C 0.06468 0.53757 0.02089 0.0
C3053 C 0.05146 0.54258 0.02522 0.0
C3054 C 0.03375 0.53162 0.01598 0.0
H3055 H 0.01065 0.53021 0.93783 0.0
H3056 H 0.01818 0.53992 0.97027 0.0
H3057 H 0.03002 0.53051 0.95308 0.0
H3058 H 0.03848 0.49777 -0.01194 0.0
H3059 H 0.0695 0.51683 0.00412 0.0
H3060 H 0.52947 0.45891 -0.012 0.0
H3061 H 0.51213 0.47308 0.00289 0.0
H3062 H 0.50469 0.48394 0.92174 0.0
H3063 H 0.52211 0.46986 0.90652 0.0
H3064 H 0.51836 0.51135 0.98702 0.0
H3065 H 0.45246 0.45115 0.95905 0.0
H3066 H 0.47261 0.44973 0.96538 0.0
H3067 H 0.47042 0.45937 0.93494 0.0
C3068 C 0.52418 0.46433 0.97328 0.0
C3069 C 0.52699 0.46311 0.94604 0.0
C3070 C 0.51439 0.4725 0.98187 0.0
C3071 C 0.50716 0.47943 0.96337 0.0
C3072 C 0.51019 0.47857 0.93623 0.0
H3073 H 0.43085 0.51643 0.96207 0.0
H3074 H 0.45142 0.50489 0.95348 0.0
C3075 C 0.52009 0.47051 0.9276 0.0
C3076 C 0.49564 0.48676 0.97232 0.0
H3077 H 0.45172 0.47704 0.9736 0.0
C3078 C 0.50377 0.50393 0.98423 0.0
C3079 C 0.47669 0.47686 0.96873 0.0
C3080 C 0.46741 0.45819 0.95649 0.0
C3081 C 0.4934 0.51186 -0.00833 0.0
C3082 C 0.47437 0.50205 -0.01234 0.0
C3083 C 0.46629 0.48461 0.97652 0.0
C3084 C 0.46255 0.50983 -0.00675 0.0
C3085 C 0.50303 0.53087 0.00275 0.0
C3086 C 0.46191 0.51645 0.01851 0.0
C3087 C 0.4504 0.52345 0.02328 0.0
C3088 C 0.43898 0.52342 0.00309 0.0
C3089 C 0.43941 0.51649 0.97804 0.0
C3090 C 0.45118 0.50992 0.97312 0.0
H3091 H 0.51769 0.53815 -0.00232 0.0
H3092 H 0.49693 0.53888 -0.00479 0.0
H3093 H 0.5019 0.53022 0.02468 0.0
H3094 H 0.47014 0.51603 0.03458 0.0
H3095 H 0.4502 0.5286 0.04285 0.0
loop_
_geom_bond_atom_site_label_1
_geom_bond_atom_site_label_2
_geom_bond_distance
_geom_bond_site_symmetry_2
_ccdc_geom_bond_type
Zn0 O3 2.031 . S
Zn0 O5 2.049 . S
Zn0 O10 2.067 . S
Zn1 O2 1.962 . S
Zn1 O4 1.986 . S
Zn1 O6 1.996 . S
Zn1 O9 1.943 . S
O2 Zn1 1.962 . S
O2 C7 1.254 . S
O3 Zn0 2.031 . S
O3 C7 1.269 . S
O4 Zn1 1.986 . S
O4 C11 1.262 . S
O5 Zn0 2.049 . S
O5 C13 1.260 . S
O6 Zn1 1.996 . S
O6 C13 1.257 . S
C7 O2 1.254 . S
C7 O3 1.269 . S
C8 O9 1.249 . S
C8 O10 1.270 . S
O9 Zn1 1.943 . S
O9 C8 1.249 . S
O10 Zn0 2.067 . S
O10 C8 1.270 . S
C11 O4 1.262 . S
C11 O12 1.232 . S
O12 C11 1.232 . S
C13 O5 1.260 . S
C13 O6 1.257 . S
Zn14 O17 2.031 . S
Zn14 O19 2.049 . S
Zn14 O24 2.067 . S
Zn15 O16 1.962 . S
Zn15 O18 1.986 . S
Zn15 O20 1.996 . S
Zn15 O23 1.943 . S
O16 Zn15 1.962 . S
O16 C21 1.254 . S
O17 Zn14 2.031 . S
O17 C21 1.269 . S
O18 Zn15 1.986 . S
O18 C25 1.262 . S
O19 Zn14 2.049 . S
O19 C27 1.260 . S
O20 Zn15 1.996 . S
O20 C27 1.257 . S
C21 O16 1.254 . S
C21 O17 1.269 . S
C22 O23 1.249 . S
C22 O24 1.270 . S
O23 Zn15 1.943 . S
O23 C22 1.249 . S
O24 Zn14 2.067 . S
O24 C22 1.270 . S
C25 O18 1.262 . S
C25 O26 1.232 . S
O26 C25 1.232 . S
C27 O19 1.260 . S
C27 O20 1.257 . S
Zn28 O31 2.031 . S
Zn28 O33 2.049 . S
Zn28 O38 2.067 . S
Zn29 O30 1.962 . S
Zn29 O32 1.986 . S
Zn29 O34 1.996 . S
Zn29 O37 1.943 . S
O30 Zn29 1.962 . S
O30 C35 1.254 . S
O31 Zn28 2.031 . S
O31 C35 1.269 . S
O32 Zn29 1.986 . S
O32 C39 1.262 . S
O33 Zn28 2.049 . S
O33 C41 1.260 . S
O34 Zn29 1.996 . S
O34 C41 1.257 . S
C35 O30 1.254 . S
C35 O31 1.269 . S
C36 O37 1.249 . S
C36 O38 1.270 . S
O37 Zn29 1.943 . S
O37 C36 1.249 . S
O38 Zn28 2.067 . S
O38 C36 1.270 . S
C39 O32 1.262 . S
C39 O40 1.232 . S
O40 C39 1.232 . S
C41 O33 1.260 . S
C41 O34 1.257 . S
Zn42 O45 2.031 . S
Zn42 O47 2.049 . S
Zn42 O52 2.067 . S
Zn43 O44 1.962 . S
Zn43 O46 1.986 . S
Zn43 O48 1.996 . S
Zn43 O51 1.943 . S
O44 Zn43 1.962 . S
O44 C49 1.254 . S
O45 Zn42 2.031 . S
O45 C49 1.269 . S
O46 Zn43 1.986 . S
O46 C53 1.262 . S
O47 Zn42 2.049 . S
O47 C55 1.260 . S
O48 Zn43 1.996 . S
O48 C55 1.257 . S
C49 O44 1.254 . S
C49 O45 1.269 . S
C50 O51 1.249 . S
C50 O52 1.270 . S
O51 Zn43 1.943 . S
O51 C50 1.249 . S
O52 Zn42 2.067 . S
O52 C50 1.270 . S
C53 O46 1.262 . S
C53 O54 1.232 . S
O54 C53 1.232 . S
C55 O47 1.260 . S
C55 O48 1.257 . S
Zn56 O59 2.031 . S
Zn56 O61 2.049 . S
Zn56 O66 2.067 . S
Zn57 O58 1.962 . S
Zn57 O60 1.986 . S
Zn57 O62 1.996 . S
Zn57 O65 1.943 . S
O58 Zn57 1.962 . S
O58 C63 1.254 . S
O59 Zn56 2.031 . S
O59 C63 1.269 . S
O60 Zn57 1.986 . S
O60 C67 1.262 . S
O61 Zn56 2.049 . S
O61 C69 1.260 . S
O62 Zn57 1.996 . S
O62 C69 1.257 . S
C63 O58 1.254 . S
C63 O59 1.269 . S
C64 O65 1.249 . S
C64 O66 1.270 . S
O65 Zn57 1.943 . S
O65 C64 1.249 . S
O66 Zn56 2.067 . S
O66 C64 1.270 . S
C67 O60 1.262 . S
C67 O68 1.232 . S
O68 C67 1.232 . S
C69 O61 1.260 . S
C69 O62 1.257 . S
Zn70 O73 2.031 . S
Zn70 O75 2.049 . S
Zn70 O80 2.067 . S
Zn71 O72 1.962 . S
Zn71 O74 1.986 . S
Zn71 O76 1.996 . S
Zn71 O79 1.943 . S
O72 Zn71 1.962 . S
O72 C77 1.254 . S
O73 Zn70 2.031 . S
O73 C77 1.269 . S
O74 Zn71 1.986 . S
O74 C81 1.262 . S
O75 Zn70 2.049 . S
O75 C83 1.260 . S
O76 Zn71 1.996 . S
O76 C83 1.257 . S
C77 O72 1.254 . S
C77 O73 1.269 . S
C78 O79 1.249 . S
C78 O80 1.270 . S
O79 Zn71 1.943 . S
O79 C78 1.249 . S
O80 Zn70 2.067 . S
O80 C78 1.270 . S
C81 O74 1.262 . S
C81 O82 1.232 . S
O82 C81 1.232 . S
C83 O75 1.260 . S
C83 O76 1.257 . S
Zn84 O87 2.031 . S
Zn84 O89 2.049 . S
Zn84 O94 2.067 . S
Zn85 O86 1.962 . S
Zn85 O88 1.986 . S
Zn85 O90 1.996 . S
Zn85 O93 1.943 . S
O86 Zn85 1.962 . S
O86 C91 1.254 . S
O87 Zn84 2.031 . S
O87 C91 1.269 . S
O88 Zn85 1.986 . S
O88 C95 1.262 . S
O89 Zn84 2.049 . S
O89 C97 1.260 . S
O90 Zn85 1.996 . S
O90 C97 1.257 . S
C91 O86 1.254 . S
C91 O87 1.269 . S
C92 O93 1.249 . S
C92 O94 1.270 . S
O93 Zn85 1.943 . S
O93 C92 1.249 . S
O94 Zn84 2.067 . S
O94 C92 1.270 . S
C95 O88 1.262 . S
C95 O96 1.232 . S
O96 C95 1.232 . S
C97 O89 1.260 . S
C97 O90 1.257 . S
Zn98 O101 2.031 . S
Zn98 O103 2.049 . S
Zn98 O108 2.067 . S
Zn99 O100 1.962 . S
Zn99 O102 1.986 . S
Zn99 O104 1.996 . S
Zn99 O107 1.943 . S
O100 Zn99 1.962 . S
O100 C105 1.254 . S
O101 Zn98 2.031 . S
O101 C105 1.269 . S
O102 Zn99 1.986 . S
O102 C109 1.262 . S
O103 Zn98 2.049 . S
O103 C111 1.260 . S
O104 Zn99 1.996 . S
O104 C111 1.257 . S
C105 O100 1.254 . S
C105 O101 1.269 . S
C106 O107 1.249 . S
C106 O108 1.270 . S
O107 Zn99 1.943 . S
O107 C106 1.249 . S
O108 Zn98 2.067 . S
O108 C106 1.270 . S
C109 O102 1.262 . S
C109 O110 1.232 . S
O110 C109 1.232 . S
C111 O103 1.260 . S
C111 O104 1.257 . S
Zn112 O115 2.031 . S
Zn112 O117 2.049 . S
Zn112 O122 2.067 . S
Zn113 O114 1.962 . S
Zn113 O116 1.986 . S
Zn113 O118 1.996 . S
Zn113 O121 1.943 . S
O114 Zn113 1.962 . S
O114 C119 1.254 . S
O115 Zn112 2.031 . S
O115 C119 1.269 . S
O116 Zn113 1.986 . S
O116 C123 1.262 . S
O117 Zn112 2.049 . S
O117 C125 1.260 . S
O118 Zn113 1.996 . S
O118 C125 1.257 . S
C119 O114 1.254 . S
C119 O115 1.269 . S
C120 O121 1.249 . S
C120 O122 1.270 . S
O121 Zn113 1.943 . S
O121 C120 1.249 . S
O122 Zn112 2.067 . S
O122 C120 1.270 . S
C123 O116 1.262 . S
C123 O124 1.232 . S
O124 C123 1.232 . S
C125 O117 1.260 . S
C125 O118 1.257 . S
Zn126 O129 2.031 . S
Zn126 O131 2.049 . S
Zn126 O136 2.067 . S
Zn127 O128 1.962 . S
Zn127 O130 1.986 . S
Zn127 O132 1.996 . S
Zn127 O135 1.943 . S
O128 Zn127 1.962 . S
O128 C133 1.254 . S
O129 Zn126 2.031 . S
O129 C133 1.269 . S
O130 Zn127 1.986 . S
O130 C137 1.262 . S
O131 Zn126 2.049 . S
O131 C139 1.260 . S
O132 Zn127 1.996 . S
O132 C139 1.257 . S
C133 O128 1.254 . S
C133 O129 1.269 . S
C134 O135 1.249 . S
C134 O136 1.270 . S
O135 Zn127 1.943 . S
O135 C134 1.249 . S
O136 Zn126 2.067 . S
O136 C134 1.270 . S
C137 O130 1.262 . S
C137 O138 1.232 . S
O138 C137 1.232 . S
C139 O131 1.260 . S
C139 O132 1.257 . S
Zn140 O143 2.031 . S
Zn140 O145 2.049 . S
Zn140 O150 2.067 . S
Zn141 O142 1.962 . S
Zn141 O144 1.986 . S
Zn141 O146 1.996 . S
Zn141 O149 1.943 . S
O142 Zn141 1.962 . S
O142 C147 1.254 . S
O143 Zn140 2.031 . S
O143 C147 1.269 . S
O144 Zn141 1.986 . S
O144 C151 1.262 . S
O145 Zn140 2.049 . S
O145 C153 1.260 . S
O146 Zn141 1.996 . S
O146 C153 1.257 . S
C147 O142 1.254 . S
C147 O143 1.269 . S
C148 O149 1.249 . S
C148 O150 1.270 . S
O149 Zn141 1.943 . S
O149 C148 1.249 . S
O150 Zn140 2.067 . S
O150 C148 1.270 . S
C151 O144 1.262 . S
C151 O152 1.232 . S
O152 C151 1.232 . S
C153 O145 1.260 . S
C153 O146 1.257 . S
Zn154 O157 2.031 . S
Zn154 O159 2.049 . S
Zn154 O164 2.067 . S
Zn155 O156 1.962 . S
Zn155 O158 1.986 . S
Zn155 O160 1.996 . S
Zn155 O163 1.943 . S
O156 Zn155 1.962 . S
O156 C161 1.254 . S
O157 Zn154 2.031 . S
O157 C161 1.269 . S
O158 Zn155 1.986 . S
O158 C165 1.262 . S
O159 Zn154 2.049 . S
O159 C167 1.260 . S
O160 Zn155 1.996 . S
O160 C167 1.257 . S
C161 O156 1.254 . S
C161 O157 1.269 . S
C162 O163 1.249 . S
C162 O164 1.270 . S
O163 Zn155 1.943 . S
O163 C162 1.249 . S
O164 Zn154 2.067 . S
O164 C162 1.270 . S
C165 O158 1.262 . S
C165 O166 1.232 . S
O166 C165 1.232 . S
C167 O159 1.260 . S
C167 O160 1.257 . S
Zn168 O171 2.031 . S
Zn168 O173 2.049 . S
Zn168 O178 2.067 . S
Zn169 O170 1.962 . S
Zn169 O172 1.986 . S
Zn169 O174 1.996 . S
Zn169 O177 1.943 . S
O170 Zn169 1.962 . S
O170 C175 1.254 . S
O171 Zn168 2.031 . S
O171 C175 1.269 . S
O172 Zn169 1.986 . S
O172 C179 1.262 . S
O173 Zn168 2.049 . S
O173 C181 1.260 . S
O174 Zn169 1.996 . S
O174 C181 1.257 . S
C175 O170 1.254 . S
C175 O171 1.269 . S
C176 O177 1.249 . S
C176 O178 1.270 . S
O177 Zn169 1.943 . S
O177 C176 1.249 . S
O178 Zn168 2.067 . S
O178 C176 1.270 . S
C179 O172 1.262 . S
C179 O180 1.232 . S
O180 C179 1.232 . S
C181 O173 1.260 . S
C181 O174 1.257 . S
Zn182 O185 2.031 . S
Zn182 O187 2.049 . S
Zn182 O192 2.067 . S
Zn183 O184 1.962 . S
Zn183 O186 1.986 . S
Zn183 O188 1.996 . S
Zn183 O191 1.943 . S
O184 Zn183 1.962 . S
O184 C189 1.254 . S
O185 Zn182 2.031 . S
O185 C189 1.269 . S
O186 Zn183 1.986 . S
O186 C193 1.262 . S
O187 Zn182 2.049 . S
O187 C195 1.260 . S
O188 Zn183 1.996 . S
O188 C195 1.257 . S
C189 O184 1.254 . S
C189 O185 1.269 . S
C190 O191 1.249 . S
C190 O192 1.270 . S
O191 Zn183 1.943 . S
O191 C190 1.249 . S
O192 Zn182 2.067 . S
O192 C190 1.270 . S
C193 O186 1.262 . S
C193 O194 1.232 . S
O194 C193 1.232 . S
C195 O187 1.260 . S
C195 O188 1.257 . S
Zn196 O199 2.031 . S
Zn196 O201 2.049 . S
Zn196 O206 2.067 . S
Zn197 O198 1.962 . S
Zn197 O200 1.986 . S
Zn197 O202 1.996 . S
Zn197 O205 1.943 . S
O198 Zn197 1.962 . S
O198 C203 1.254 . S
O199 Zn196 2.031 . S
O199 C203 1.269 . S
O200 Zn197 1.986 . S
O200 C207 1.262 . S
O201 Zn196 2.049 . S
O201 C209 1.260 . S
O202 Zn197 1.996 . S
O202 C209 1.257 . S
C203 O198 1.254 . S
C203 O199 1.269 . S
C204 O205 1.249 . S
C204 O206 1.270 . S
O205 Zn197 1.943 . S
O205 C204 1.249 . S
O206 Zn196 2.067 . S
O206 C204 1.270 . S
C207 O200 1.262 . S
C207 O208 1.232 . S
O208 C207 1.232 . S
C209 O201 1.260 . S
C209 O202 1.257 . S
Zn210 O213 2.031 . S
Zn210 O215 2.049 . S
Zn210 O220 2.067 . S
Zn211 O212 1.962 . S
Zn211 O214 1.986 . S
Zn211 O216 1.996 . S
Zn211 O219 1.943 . S
O212 Zn211 1.962 . S
O212 C217 1.254 . S
O213 Zn210 2.031 . S
O213 C217 1.269 . S
O214 Zn211 1.986 . S
O214 C221 1.262 . S
O215 Zn210 2.049 . S
O215 C223 1.260 . S
O216 Zn211 1.996 . S
O216 C223 1.257 . S
C217 O212 1.254 . S
C217 O213 1.269 . S
C218 O219 1.249 . S
C218 O220 1.270 . S
O219 Zn211 1.943 . S
O219 C218 1.249 . S
O220 Zn210 2.067 . S
O220 C218 1.270 . S
C221 O214 1.262 . S
C221 O222 1.232 . S
O222 C221 1.232 . S
C223 O215 1.260 . S
C223 O216 1.257 . S
Zn224 O227 2.031 . S
Zn224 O229 2.049 . S
Zn224 O234 2.067 . S
Zn225 O226 1.962 . S
Zn225 O228 1.986 . S
Zn225 O230 1.996 . S
Zn225 O233 1.943 . S
O226 Zn225 1.962 . S
O226 C231 1.254 . S
O227 Zn224 2.031 . S
O227 C231 1.269 . S
O228 Zn225 1.986 . S
O228 C235 1.262 . S
O229 Zn224 2.049 . S
O229 C237 1.260 . S
O230 Zn225 1.996 . S
O230 C237 1.257 . S
C231 O226 1.254 . S
C231 O227 1.269 . S
C232 O233 1.249 . S
C232 O234 1.270 . S
O233 Zn225 1.943 . S
O233 C232 1.249 . S
O234 Zn224 2.067 . S
O234 C232 1.270 . S
C235 O228 1.262 . S
C235 O236 1.232 . S
O236 C235 1.232 . S
C237 O229 1.260 . S
C237 O230 1.257 . S
Zn238 O241 2.031 . S
Zn238 O243 2.049 . S
Zn238 O248 2.067 . S
Zn239 O240 1.962 . S
Zn239 O242 1.986 . S
Zn239 O244 1.996 . S
Zn239 O247 1.943 . S
O240 Zn239 1.962 . S
O240 C245 1.254 . S
O241 Zn238 2.031 . S
O241 C245 1.269 . S
O242 Zn239 1.986 . S
O242 C249 1.262 . S
O243 Zn238 2.049 . S
O243 C251 1.260 . S
O244 Zn239 1.996 . S
O244 C251 1.257 . S
C245 O240 1.254 . S
C245 O241 1.269 . S
C246 O247 1.249 . S
C246 O248 1.270 . S
O247 Zn239 1.943 . S
O247 C246 1.249 . S
O248 Zn238 2.067 . S
O248 C246 1.270 . S
C249 O242 1.262 . S
C249 O250 1.232 . S
O250 C249 1.232 . S
C251 O243 1.260 . S
C251 O244 1.257 . S
Zn252 O255 2.031 . S
Zn252 O257 2.049 . S
Zn252 O262 2.067 . S
Zn253 O254 1.962 . S
Zn253 O256 1.986 . S
Zn253 O258 1.996 . S
Zn253 O261 1.943 . S
O254 Zn253 1.962 . S
O254 C259 1.254 . S
O255 Zn252 2.031 . S
O255 C259 1.269 . S
O256 Zn253 1.986 . S
O256 C263 1.262 . S
O257 Zn252 2.049 . S
O257 C265 1.260 . S
O258 Zn253 1.996 . S
O258 C265 1.257 . S
C259 O254 1.254 . S
C259 O255 1.269 . S
C260 O261 1.249 . S
C260 O262 1.270 . S
O261 Zn253 1.943 . S
O261 C260 1.249 . S
O262 Zn252 2.067 . S
O262 C260 1.270 . S
C263 O256 1.262 . S
C263 O264 1.232 . S
O264 C263 1.232 . S
C265 O257 1.260 . S
C265 O258 1.257 . S
Zn266 O269 2.031 . S
Zn266 O271 2.049 . S
Zn266 O276 2.067 . S
Zn267 O268 1.962 . S
Zn267 O270 1.986 . S
Zn267 O272 1.996 . S
Zn267 O275 1.943 . S
O268 Zn267 1.962 . S
O268 C273 1.254 . S
O269 Zn266 2.031 . S
O269 C273 1.269 . S
O270 Zn267 1.986 . S
O270 C277 1.262 . S
O271 Zn266 2.049 . S
O271 C279 1.260 . S
O272 Zn267 1.996 . S
O272 C279 1.257 . S
C273 O268 1.254 . S
C273 O269 1.269 . S
C274 O275 1.249 . S
C274 O276 1.270 . S
O275 Zn267 1.943 . S
O275 C274 1.249 . S
O276 Zn266 2.067 . S
O276 C274 1.270 . S
C277 O270 1.262 . S
C277 O278 1.232 . S
O278 C277 1.232 . S
C279 O271 1.260 . S
C279 O272 1.257 . S
Zn280 O283 2.031 . S
Zn280 O285 2.049 . S
Zn280 O290 2.067 . S
Zn281 O282 1.962 . S
Zn281 O284 1.986 . S
Zn281 O286 1.996 . S
Zn281 O289 1.943 . S
O282 Zn281 1.962 . S
O282 C287 1.254 . S
O283 Zn280 2.031 . S
O283 C287 1.269 . S
O284 Zn281 1.986 . S
O284 C291 1.262 . S
O285 Zn280 2.049 . S
O285 C293 1.260 . S
O286 Zn281 1.996 . S
O286 C293 1.257 . S
C287 O282 1.254 . S
C287 O283 1.269 . S
C288 O289 1.249 . S
C288 O290 1.270 . S
O289 Zn281 1.943 . S
O289 C288 1.249 . S
O290 Zn280 2.067 . S
O290 C288 1.270 . S
C291 O284 1.262 . S
C291 O292 1.232 . S
O292 C291 1.232 . S
C293 O285 1.260 . S
C293 O286 1.257 . S
Zn294 O297 2.031 . S
Zn294 O299 2.049 . S
Zn294 O304 2.067 . S
Zn295 O296 1.962 . S
Zn295 O298 1.986 . S
Zn295 O300 1.996 . S
Zn295 O303 1.943 . S
O296 Zn295 1.962 . S
O296 C301 1.254 . S
O297 Zn294 2.031 . S
O297 C301 1.269 . S
O298 Zn295 1.986 . S
O298 C305 1.262 . S
O299 Zn294 2.049 . S
O299 C307 1.260 . S
O300 Zn295 1.996 . S
O300 C307 1.257 . S
C301 O296 1.254 . S
C301 O297 1.269 . S
C302 O303 1.249 . S
C302 O304 1.270 . S
O303 Zn295 1.943 . S
O303 C302 1.249 . S
O304 Zn294 2.067 . S
O304 C302 1.270 . S
C305 O298 1.262 . S
C305 O306 1.232 . S
O306 C305 1.232 . S
C307 O299 1.260 . S
C307 O300 1.257 . S
Zn308 O311 2.031 . S
Zn308 O313 2.049 . S
Zn308 O318 2.067 . S
Zn309 O310 1.962 . S
Zn309 O312 1.986 . S
Zn309 O314 1.996 . S
Zn309 O317 1.943 . S
O310 Zn309 1.962 . S
O310 C315 1.254 . S
O311 Zn308 2.031 . S
O311 C315 1.269 . S
O312 Zn309 1.986 . S
O312 C319 1.262 . S
O313 Zn308 2.049 . S
O313 C321 1.260 . S
O314 Zn309 1.996 . S
O314 C321 1.257 . S
C315 O310 1.254 . S
C315 O311 1.269 . S
C316 O317 1.249 . S
C316 O318 1.270 . S
O317 Zn309 1.943 . S
O317 C316 1.249 . S
O318 Zn308 2.067 . S
O318 C316 1.270 . S
C319 O312 1.262 . S
C319 O320 1.232 . S
O320 C319 1.232 . S
C321 O313 1.260 . S
C321 O314 1.257 . S
Zn322 O325 2.031 . S
Zn322 O327 2.049 . S
Zn322 O332 2.067 . S
Zn323 O324 1.962 . S
Zn323 O326 1.986 . S
Zn323 O328 1.996 . S
Zn323 O331 1.943 . S
O324 Zn323 1.962 . S
O324 C329 1.254 . S
O325 Zn322 2.031 . S
O325 C329 1.269 . S
O326 Zn323 1.986 . S
O326 C333 1.262 . S
O327 Zn322 2.049 . S
O327 C335 1.260 . S
O328 Zn323 1.996 . S
O328 C335 1.257 . S
C329 O324 1.254 . S
C329 O325 1.269 . S
C330 O331 1.249 . S
C330 O332 1.270 . S
O331 Zn323 1.943 . S
O331 C330 1.249 . S
O332 Zn322 2.067 . S
O332 C330 1.270 . S
C333 O326 1.262 . S
C333 O334 1.232 . S
O334 C333 1.232 . S
C335 O327 1.260 . S
C335 O328 1.257 . S
Zn336 O339 2.031 . S
Zn336 O341 2.049 . S
Zn336 O346 2.067 . S
Zn337 O338 1.962 . S
Zn337 O340 1.986 . S
Zn337 O342 1.996 . S
Zn337 O345 1.943 . S
O338 Zn337 1.962 . S
O338 C343 1.254 . S
O339 Zn336 2.031 . S
O339 C343 1.269 . S
O340 Zn337 1.986 . S
O340 C347 1.262 . S
O341 Zn336 2.049 . S
O341 C349 1.260 . S
O342 Zn337 1.996 . S
O342 C349 1.257 . S
C343 O338 1.254 . S
C343 O339 1.269 . S
C344 O345 1.249 . S
C344 O346 1.270 . S
O345 Zn337 1.943 . S
O345 C344 1.249 . S
O346 Zn336 2.067 . S
O346 C344 1.270 . S
C347 O340 1.262 . S
C347 O348 1.232 . S
O348 C347 1.232 . S
C349 O341 1.260 . S
C349 O342 1.257 . S
Zn350 O353 2.031 . S
Zn350 O355 2.049 . S
Zn350 O360 2.067 . S
Zn351 O352 1.962 . S
Zn351 O354 1.986 . S
Zn351 O356 1.996 . S
Zn351 O359 1.943 . S
O352 Zn351 1.962 . S
O352 C357 1.254 . S
O353 Zn350 2.031 . S
O353 C357 1.269 . S
O354 Zn351 1.986 . S
O354 C361 1.262 . S
O355 Zn350 2.049 . S
O355 C363 1.260 . S
O356 Zn351 1.996 . S
O356 C363 1.257 . S
C357 O352 1.254 . S
C357 O353 1.269 . S
C358 O359 1.249 . S
C358 O360 1.270 . S
O359 Zn351 1.943 . S
O359 C358 1.249 . S
O360 Zn350 2.067 . S
O360 C358 1.270 . S
C361 O354 1.262 . S
C361 O362 1.232 . S
O362 C361 1.232 . S
C363 O355 1.260 . S
C363 O356 1.257 . S
Zn364 O367 2.031 . S
Zn364 O369 2.049 . S
Zn364 O374 2.067 . S
Zn365 O366 1.962 . S
Zn365 O368 1.986 . S
Zn365 O370 1.996 . S
Zn365 O373 1.943 . S
O366 Zn365 1.962 . S
O366 C371 1.254 . S
O367 Zn364 2.031 . S
O367 C371 1.269 . S
O368 Zn365 1.986 . S
O368 C375 1.262 . S
O369 Zn364 2.049 . S
O369 C377 1.260 . S
O370 Zn365 1.996 . S
O370 C377 1.257 . S
C371 O366 1.254 . S
C371 O367 1.269 . S
C372 O373 1.249 . S
C372 O374 1.270 . S
O373 Zn365 1.943 . S
O373 C372 1.249 . S
O374 Zn364 2.067 . S
O374 C372 1.270 . S
C375 O368 1.262 . S
C375 O376 1.232 . S
O376 C375 1.232 . S
C377 O369 1.260 . S
C377 O370 1.257 . S
Zn378 O381 2.031 . S
Zn378 O383 2.049 . S
Zn378 O388 2.067 . S
Zn379 O380 1.962 . S
Zn379 O382 1.986 . S
Zn379 O384 1.996 . S
Zn379 O387 1.943 . S
O380 Zn379 1.962 . S
O380 C385 1.254 . S
O381 Zn378 2.031 . S
O381 C385 1.269 . S
O382 Zn379 1.986 . S
O382 C389 1.262 . S
O383 Zn378 2.049 . S
O383 C391 1.260 . S
O384 Zn379 1.996 . S
O384 C391 1.257 . S
C385 O380 1.254 . S
C385 O381 1.269 . S
C386 O387 1.249 . S
C386 O388 1.270 . S
O387 Zn379 1.943 . S
O387 C386 1.249 . S
O388 Zn378 2.067 . S
O388 C386 1.270 . S
C389 O382 1.262 . S
C389 O390 1.232 . S
O390 C389 1.232 . S
C391 O383 1.260 . S
C391 O384 1.257 . S
Zn392 O395 2.031 . S
Zn392 O397 2.049 . S
Zn392 O402 2.067 . S
Zn393 O394 1.962 . S
Zn393 O396 1.986 . S
Zn393 O398 1.996 . S
Zn393 O401 1.943 . S
O394 Zn393 1.962 . S
O394 C399 1.254 . S
O395 Zn392 2.031 . S
O395 C399 1.269 . S
O396 Zn393 1.986 . S
O396 C403 1.262 . S
O397 Zn392 2.049 . S
O397 C405 1.260 . S
O398 Zn393 1.996 . S
O398 C405 1.257 . S
C399 O394 1.254 . S
C399 O395 1.269 . S
C400 O401 1.249 . S
C400 O402 1.270 . S
O401 Zn393 1.943 . S
O401 C400 1.249 . S
O402 Zn392 2.067 . S
O402 C400 1.270 . S
C403 O396 1.262 . S
C403 O404 1.232 . S
O404 C403 1.232 . S
C405 O397 1.260 . S
C405 O398 1.257 . S
Zn406 O409 2.031 . S
Zn406 O411 2.049 . S
Zn406 O416 2.067 . S
Zn407 O408 1.962 . S
Zn407 O410 1.986 . S
Zn407 O412 1.996 . S
Zn407 O415 1.943 . S
O408 Zn407 1.962 . S
O408 C413 1.254 . S
O409 Zn406 2.031 . S
O409 C413 1.269 . S
O410 Zn407 1.986 . S
O410 C417 1.262 . S
O411 Zn406 2.049 . S
O411 C419 1.260 . S
O412 Zn407 1.996 . S
O412 C419 1.257 . S
C413 O408 1.254 . S
C413 O409 1.269 . S
C414 O415 1.249 . S
C414 O416 1.270 . S
O415 Zn407 1.943 . S
O415 C414 1.249 . S
O416 Zn406 2.067 . S
O416 C414 1.270 . S
C417 O410 1.262 . S
C417 O418 1.232 . S
O418 C417 1.232 . S
C419 O411 1.260 . S
C419 O412 1.257 . S
Zn420 O423 2.031 . S
Zn420 O425 2.049 . S
Zn420 O430 2.067 . S
Zn421 O422 1.962 . S
Zn421 O424 1.986 . S
Zn421 O426 1.996 . S
Zn421 O429 1.943 . S
O422 Zn421 1.962 . S
O422 C427 1.254 . S
O423 Zn420 2.031 . S
O423 C427 1.269 . S
O424 Zn421 1.986 . S
O424 C431 1.262 . S
O425 Zn420 2.049 . S
O425 C433 1.260 . S
O426 Zn421 1.996 . S
O426 C433 1.257 . S
C427 O422 1.254 . S
C427 O423 1.269 . S
C428 O429 1.249 . S
C428 O430 1.270 . S
O429 Zn421 1.943 . S
O429 C428 1.249 . S
O430 Zn420 2.067 . S
O430 C428 1.270 . S
C431 O424 1.262 . S
C431 O432 1.232 . S
O432 C431 1.232 . S
C433 O425 1.260 . S
C433 O426 1.257 . S
Zn434 O437 2.031 . S
Zn434 O439 2.049 . S
Zn434 O444 2.067 . S
Zn435 O436 1.962 . S
Zn435 O438 1.986 . S
Zn435 O440 1.996 . S
Zn435 O443 1.943 . S
O436 Zn435 1.962 . S
O436 C441 1.254 . S
O437 Zn434 2.031 . S
O437 C441 1.269 . S
O438 Zn435 1.986 . S
O438 C445 1.262 . S
O439 Zn434 2.049 . S
O439 C447 1.260 . S
O440 Zn435 1.996 . S
O440 C447 1.257 . S
C441 O436 1.254 . S
C441 O437 1.269 . S
C442 O443 1.249 . S
C442 O444 1.270 . S
O443 Zn435 1.943 . S
O443 C442 1.249 . S
O444 Zn434 2.067 . S
O444 C442 1.270 . S
C445 O438 1.262 . S
C445 O446 1.232 . S
O446 C445 1.232 . S
C447 O439 1.260 . S
C447 O440 1.257 . S
Zn448 O451 2.031 . S
Zn448 O453 2.049 . S
Zn448 O458 2.067 . S
Zn449 O450 1.962 . S
Zn449 O452 1.986 . S
Zn449 O454 1.996 . S
Zn449 O457 1.943 . S
O450 Zn449 1.962 . S
O450 C455 1.254 . S
O451 Zn448 2.031 . S
O451 C455 1.269 . S
O452 Zn449 1.986 . S
O452 C459 1.262 . S
O453 Zn448 2.049 . S
O453 C461 1.260 . S
O454 Zn449 1.996 . S
O454 C461 1.257 . S
C455 O450 1.254 . S
C455 O451 1.269 . S
C456 O457 1.249 . S
C456 O458 1.270 . S
O457 Zn449 1.943 . S
O457 C456 1.249 . S
O458 Zn448 2.067 . S
O458 C456 1.270 . S
C459 O452 1.262 . S
C459 O460 1.232 . S
O460 C459 1.232 . S
C461 O453 1.260 . S
C461 O454 1.257 . S
Zn462 O465 2.031 . S
Zn462 O467 2.049 . S
Zn462 O472 2.067 . S
Zn463 O464 1.962 . S
Zn463 O466 1.986 . S
Zn463 O468 1.996 . S
Zn463 O471 1.943 . S
O464 Zn463 1.962 . S
O464 C469 1.254 . S
O465 Zn462 2.031 . S
O465 C469 1.269 . S
O466 Zn463 1.986 . S
O466 C473 1.262 . S
O467 Zn462 2.049 . S
O467 C475 1.260 . S
O468 Zn463 1.996 . S
O468 C475 1.257 . S
C469 O464 1.254 . S
C469 O465 1.269 . S
C470 O471 1.249 . S
C470 O472 1.270 . S
O471 Zn463 1.943 . S
O471 C470 1.249 . S
O472 Zn462 2.067 . S
O472 C470 1.270 . S
C473 O466 1.262 . S
C473 O474 1.232 . S
O474 C473 1.232 . S
C475 O467 1.260 . S
C475 O468 1.257 . S
Zn476 O479 2.031 . S
Zn476 O481 2.049 . S
Zn476 O486 2.067 . S
Zn477 O478 1.962 . S
Zn477 O480 1.986 . S
Zn477 O482 1.996 . S
Zn477 O485 1.943 . S
O478 Zn477 1.962 . S
O478 C483 1.254 . S
O479 Zn476 2.031 . S
O479 C483 1.269 . S
O480 Zn477 1.986 . S
O480 C487 1.262 . S
O481 Zn476 2.049 . S
O481 C489 1.260 . S
O482 Zn477 1.996 . S
O482 C489 1.257 . S
C483 O478 1.254 . S
C483 O479 1.269 . S
C484 O485 1.249 . S
C484 O486 1.270 . S
O485 Zn477 1.943 . S
O485 C484 1.249 . S
O486 Zn476 2.067 . S
O486 C484 1.270 . S
C487 O480 1.262 . S
C487 O488 1.232 . S
O488 C487 1.232 . S
C489 O481 1.260 . S
C489 O482 1.257 . S
Zn490 O493 2.031 . S
Zn490 O495 2.049 . S
Zn490 O500 2.067 . S
Zn491 O492 1.962 . S
Zn491 O494 1.986 . S
Zn491 O496 1.996 . S
Zn491 O499 1.943 . S
O492 Zn491 1.962 . S
O492 C497 1.254 . S
O493 Zn490 2.031 . S
O493 C497 1.269 . S
O494 Zn491 1.986 . S
O494 C501 1.262 . S
O495 Zn490 2.049 . S
O495 C503 1.260 . S
O496 Zn491 1.996 . S
O496 C503 1.257 . S
C497 O492 1.254 . S
C497 O493 1.269 . S
C498 O499 1.249 . S
C498 O500 1.270 . S
O499 Zn491 1.943 . S
O499 C498 1.249 . S
O500 Zn490 2.067 . S
O500 C498 1.270 . S
C501 O494 1.262 . S
C501 O502 1.232 . S
O502 C501 1.232 . S
C503 O495 1.260 . S
C503 O496 1.257 . S
H504 C512 0.929 . S
H505 C514 0.930 . S
H506 C516 0.930 . S
H507 C519 0.929 . S
H508 C522 0.930 . S
H509 C524 0.960 . S
H510 C524 0.960 . S
H511 C524 0.960 . S
C512 H504 0.929 . S
C512 C513 1.377 . S
C512 C514 1.384 . S
C513 C512 1.377 . S
C513 C519 1.390 . S
C514 H505 0.930 . S
C514 C512 1.384 . S
C514 C515 1.372 . S
C515 C514 1.372 . S
C515 C516 1.400 . S
C515 C520 1.490 . S
C516 H506 0.930 . S
C516 C515 1.400 . S
C516 C519 1.386 . S
H517 C533 0.930 . S
H518 C534 0.931 . S
C519 H507 0.929 . S
C519 C513 1.390 . S
C519 C516 1.386 . S
C520 C515 1.490 . S
C520 C522 1.395 . S
C520 C523 1.403 . S
H521 C527 0.930 1_556 S
C522 H508 0.930 . S
C522 C520 1.395 . S
C522 C525 1.403 1_545 S
C523 C520 1.403 . S
C523 C524 1.524 . S
C523 C527 1.400 1_545 S
C524 H509 0.960 . S
C524 H510 0.960 . S
C524 H511 0.960 . S
C524 C523 1.524 . S
C525 C522 1.403 1_565 S
C525 C526 1.392 1_554 S
C525 C529 1.495 . S
C526 C525 1.392 1_556 S
C526 C527 1.385 1_556 S
C526 C528 1.478 . S
C527 H521 0.930 1_554 S
C527 C523 1.400 1_565 S
C527 C526 1.385 1_554 S
C528 C526 1.478 . S
C528 C530 1.381 . S
C528 C534 1.383 . S
C529 C525 1.495 . S
C529 H535 0.959 . S
C529 H536 0.961 1_554 S
C529 H537 0.960 . S
C530 C528 1.381 . S
C530 C531 1.394 . S
C530 H538 0.930 1_556 S
C531 C530 1.394 . S
C531 C532 1.383 . S
C531 H539 0.929 . S
C532 C531 1.383 . S
C532 C533 1.377 . S
C533 H517 0.930 . S
C533 C532 1.377 . S
C533 C534 1.379 . S
C534 H518 0.931 . S
C534 C528 1.383 . S
C534 C533 1.379 . S
H535 C529 0.959 . S
H536 C529 0.961 1_556 S
H537 C529 0.960 . S
H538 C530 0.930 1_554 S
H539 C531 0.929 . S
H540 C548 0.929 . S
H541 C550 0.930 . S
H542 C552 0.930 . S
H543 C555 0.929 . S
H544 C558 0.930 . S
H545 C560 0.960 . S
H546 C560 0.960 . S
H547 C560 0.960 . S
C548 H540 0.929 . S
C548 C549 1.377 . S
C548 C550 1.384 . S
C549 C548 1.377 . S
C549 C555 1.390 . S
C550 H541 0.930 . S
C550 C548 1.384 . S
C550 C551 1.372 . S
C551 C550 1.372 . S
C551 C552 1.400 . S
C551 C556 1.490 . S
C552 H542 0.930 . S
C552 C551 1.400 . S
C552 C555 1.386 . S
H553 C569 0.930 . S
H554 C570 0.931 . S
C555 H543 0.929 . S
C555 C549 1.390 . S
C555 C552 1.386 . S
C556 C551 1.490 . S
C556 C558 1.395 . S
C556 C559 1.403 . S
H557 C563 0.930 . S
C558 H544 0.930 . S
C558 C556 1.395 . S
C558 C561 1.403 1_655 S
C559 C556 1.403 . S
C559 C560 1.524 . S
C559 C563 1.400 1_655 S
C560 H545 0.960 . S
C560 H546 0.960 . S
C560 H547 0.960 . S
C560 C559 1.524 . S
C561 C558 1.403 1_455 S
C561 C562 1.392 1_554 S
C561 C565 1.495 1_554 S
C562 C561 1.392 1_556 S
C562 C563 1.385 1_556 S
C562 C564 1.478 . S
C563 H557 0.930 . S
C563 C559 1.400 1_455 S
C563 C562 1.385 1_554 S
C564 C562 1.478 . S
C564 C566 1.381 . S
C564 C570 1.383 . S
C565 C561 1.495 1_556 S
C565 H571 0.959 . S
C565 H572 0.961 . S
C565 H573 0.960 . S
C566 C564 1.381 . S
C566 C567 1.394 . S
C566 H574 0.930 . S
C567 C566 1.394 . S
C567 C568 1.383 . S
C567 H575 0.929 . S
C568 C567 1.383 . S
C568 C569 1.377 . S
C569 H553 0.930 . S
C569 C568 1.377 . S
C569 C570 1.379 . S
C570 H554 0.931 . S
C570 C564 1.383 . S
C570 C569 1.379 . S
H571 C565 0.959 . S
H572 C565 0.961 . S
H573 C565 0.960 . S
H574 C566 0.930 . S
H575 C567 0.929 . S
H576 C584 0.929 . S
H577 C586 0.930 . S
H578 C588 0.930 1_554 S
H579 C591 0.929 . S
H580 C594 0.930 . S
H581 C596 0.960 . S
H582 C596 0.960 . S
H583 C596 0.960 . S
C584 H576 0.929 . S
C584 C585 1.377 . S
C584 C586 1.384 . S
C585 C584 1.377 . S
C585 C591 1.390 . S
C586 H577 0.930 . S
C586 C584 1.384 . S
C586 C587 1.372 . S
C587 C586 1.372 . S
C587 C588 1.400 . S
C587 C592 1.490 . S
C588 H578 0.930 1_556 S
C588 C587 1.400 . S
C588 C591 1.386 . S
H589 C605 0.930 . S
H590 C606 0.931 . S
C591 H579 0.929 . S
C591 C585 1.390 . S
C591 C588 1.386 . S
C592 C587 1.490 . S
C592 C594 1.395 . S
C592 C595 1.403 1_556 S
H593 C599 0.930 . S
C594 H580 0.930 . S
C594 C592 1.395 . S
C594 C597 1.403 1_556 S
C595 C592 1.403 1_554 S
C595 C596 1.524 . S
C595 C599 1.400 . S
C596 H581 0.960 . S
C596 H582 0.960 . S
C596 H583 0.960 . S
C596 C595 1.524 . S
C597 C594 1.403 1_554 S
C597 C598 1.392 . S
C597 C601 1.495 . S
C598 C597 1.392 . S
C598 C599 1.385 . S
C598 C600 1.478 . S
C599 H593 0.930 . S
C599 C595 1.400 . S
C599 C598 1.385 . S
C600 C598 1.478 . S
C600 C602 1.381 . S
C600 C606 1.383 . S
C601 C597 1.495 . S
C601 H607 0.959 1_554 S
C601 H608 0.961 . S
C601 H609 0.960 . S
C602 C600 1.381 . S
C602 C603 1.394 . S
C602 H610 0.930 . S
C603 C602 1.394 . S
C603 C604 1.383 . S
C603 H611 0.929 . S
C604 C603 1.383 . S
C604 C605 1.377 . S
C605 H589 0.930 . S
C605 C604 1.377 . S
C605 C606 1.379 . S
C606 H590 0.931 . S
C606 C600 1.383 . S
C606 C605 1.379 . S
H607 C601 0.959 1_556 S
H608 C601 0.961 . S
H609 C601 0.960 . S
H610 C602 0.930 . S
H611 C603 0.929 . S
H612 C620 0.929 . S
H613 C622 0.930 . S
H614 C624 0.930 . S
H615 C627 0.929 . S
H616 C630 0.930 . S
H617 C632 0.960 . S
H618 C632 0.960 . S
H619 C632 0.960 . S
C620 H612 0.929 . S
C620 C621 1.377 . S
C620 C622 1.384 . S
C621 C620 1.377 . S
C621 C627 1.390 . S
C622 H613 0.930 . S
C622 C620 1.384 . S
C622 C623 1.372 . S
C623 C622 1.372 . S
C623 C624 1.400 . S
C623 C628 1.490 . S
C624 H614 0.930 . S
C624 C623 1.400 . S
C624 C627 1.386 . S
H625 C641 0.930 . S
H626 C642 0.931 . S
C627 H615 0.929 . S
C627 C621 1.390 . S
C627 C624 1.386 . S
C628 C623 1.490 . S
C628 C630 1.395 1_655 S
C628 C631 1.403 . S
H629 C635 0.930 . S
C630 H616 0.930 . S
C630 C628 1.395 1_455 S
C630 C633 1.403 . S
C631 C628 1.403 . S
C631 C632 1.524 . S
C631 C635 1.400 1_655 S
C632 H617 0.960 . S
C632 H618 0.960 . S
C632 H619 0.960 . S
C632 C631 1.524 . S
C633 C630 1.403 . S
C633 C634 1.392 . S
C633 C637 1.495 . S
C634 C633 1.392 . S
C634 C635 1.385 . S
C634 C636 1.478 . S
C635 H629 0.930 . S
C635 C631 1.400 1_455 S
C635 C634 1.385 . S
C636 C634 1.478 . S
C636 C638 1.381 . S
C636 C642 1.383 . S
C637 C633 1.495 . S
C637 H643 0.959 . S
C637 H644 0.961 . S
C637 H645 0.960 . S
C638 C636 1.381 . S
C638 C639 1.394 . S
C638 H646 0.930 . S
C639 C638 1.394 . S
C639 C640 1.383 . S
C639 H647 0.929 . S
C640 C639 1.383 . S
C640 C641 1.377 . S
C641 H625 0.930 . S
C641 C640 1.377 . S
C641 C642 1.379 . S
C642 H626 0.931 . S
C642 C636 1.383 . S
C642 C641 1.379 . S
H643 C637 0.959 . S
H644 C637 0.961 . S
H645 C637 0.960 . S
H646 C638 0.930 . S
H647 C639 0.929 . S
H648 C656 0.929 . S
H649 C658 0.930 . S
H650 C660 0.930 . S
H651 C663 0.929 . S
H652 C666 0.930 . S
H653 C668 0.960 . S
H654 C668 0.960 . S
H655 C668 0.960 . S
C656 H648 0.929 . S
C656 C657 1.377 . S
C656 C658 1.384 . S
C657 C656 1.377 . S
C657 C663 1.390 . S
C658 H649 0.930 . S
C658 C656 1.384 . S
C658 C659 1.372 . S
C659 C658 1.372 . S
C659 C660 1.400 . S
C659 C664 1.490 . S
C660 H650 0.930 . S
C660 C659 1.400 . S
C660 C663 1.386 . S
H661 C677 0.930 . S
H662 C678 0.931 . S
C663 H651 0.929 . S
C663 C657 1.390 . S
C663 C660 1.386 . S
C664 C659 1.490 . S
C664 C666 1.395 . S
C664 C667 1.403 . S
H665 C671 0.930 . S
C666 H652 0.930 . S
C666 C664 1.395 . S
C666 C669 1.403 . S
C667 C664 1.403 . S
C667 C668 1.524 . S
C667 C671 1.400 . S
C668 H653 0.960 . S
C668 H654 0.960 . S
C668 H655 0.960 . S
C668 C667 1.524 . S
C669 C666 1.403 . S
C669 C670 1.392 . S
C669 C673 1.495 . S
C670 C669 1.392 . S
C670 C671 1.385 . S
C670 C672 1.478 . S
C671 H665 0.930 . S
C671 C667 1.400 . S
C671 C670 1.385 . S
C672 C670 1.478 . S
C672 C674 1.381 . S
C672 C678 1.383 . S
C673 C669 1.495 . S
C673 H679 0.959 . S
C673 H680 0.961 . S
C673 H681 0.960 . S
C674 C672 1.381 . S
C674 C675 1.394 . S
C674 H682 0.930 . S
C675 C674 1.394 . S
C675 C676 1.383 . S
C675 H683 0.929 . S
C676 C675 1.383 . S
C676 C677 1.377 . S
C677 H661 0.930 . S
C677 C676 1.377 . S
C677 C678 1.379 . S
C678 H662 0.931 . S
C678 C672 1.383 . S
C678 C677 1.379 . S
H679 C673 0.959 . S
H680 C673 0.961 . S
H681 C673 0.960 . S
H682 C674 0.930 . S
H683 C675 0.929 . S
H684 C692 0.929 . S
H685 C694 0.930 . S
H686 C696 0.930 . S
H687 C699 0.929 . S
H688 C702 0.930 . S
H689 C704 0.960 . S
H690 C704 0.960 . S
H691 C704 0.960 . S
C692 H684 0.929 . S
C692 C693 1.377 . S
C692 C694 1.384 . S
C693 C692 1.377 . S
C693 C699 1.390 . S
C694 H685 0.930 . S
C694 C692 1.384 . S
C694 C695 1.372 . S
C695 C694 1.372 . S
C695 C696 1.400 . S
C695 C700 1.490 . S
C696 H686 0.930 . S
C696 C695 1.400 . S
C696 C699 1.386 . S
H697 C713 0.930 . S
H698 C714 0.931 . S
C699 H687 0.929 . S
C699 C693 1.390 . S
C699 C696 1.386 . S
C700 C695 1.490 . S
C700 C702 1.395 . S
C700 C703 1.403 . S
H701 C707 0.930 . S
C702 H688 0.930 . S
C702 C700 1.395 . S
C702 C705 1.403 1_565 S
C703 C700 1.403 . S
C703 C704 1.524 . S
C703 C707 1.400 1_565 S
C704 H689 0.960 . S
C704 H690 0.960 . S
C704 H691 0.960 . S
C704 C703 1.524 . S
C705 C702 1.403 1_545 S
C705 C706 1.392 . S
C705 C709 1.495 . S
C706 C705 1.392 . S
C706 C707 1.385 . S
C706 C708 1.478 . S
C707 H701 0.930 . S
C707 C703 1.400 1_545 S
C707 C706 1.385 . S
C708 C706 1.478 . S
C708 C710 1.381 . S
C708 C714 1.383 . S
C709 C705 1.495 . S
C709 H715 0.959 . S
C709 H716 0.961 . S
C709 H717 0.960 . S
C710 C708 1.381 . S
C710 C711 1.394 . S
C710 H718 0.930 . S
C711 C710 1.394 . S
C711 C712 1.383 . S
C711 H719 0.929 . S
C712 C711 1.383 . S
C712 C713 1.377 . S
C713 H697 0.930 . S
C713 C712 1.377 . S
C713 C714 1.379 . S
C714 H698 0.931 . S
C714 C708 1.383 . S
C714 C713 1.379 . S
H715 C709 0.959 . S
H716 C709 0.961 . S
H717 C709 0.960 . S
H718 C710 0.930 . S
H719 C711 0.929 . S
H720 C728 0.929 . S
H721 C730 0.930 . S
H722 C732 0.930 . S
H723 C735 0.929 . S
H724 C738 0.930 . S
H725 C740 0.960 . S
H726 C740 0.960 . S
H727 C740 0.960 . S
C728 H720 0.929 . S
C728 C729 1.377 . S
C728 C730 1.384 . S
C729 C728 1.377 . S
C729 C735 1.390 . S
C730 H721 0.930 . S
C730 C728 1.384 . S
C730 C731 1.372 . S
C731 C730 1.372 . S
C731 C732 1.400 . S
C731 C736 1.490 . S
C732 H722 0.930 . S
C732 C731 1.400 . S
C732 C735 1.386 . S
H733 C749 0.930 . S
H734 C750 0.931 . S
C735 H723 0.929 . S
C735 C729 1.390 . S
C735 C732 1.386 . S
C736 C731 1.490 . S
C736 C738 1.395 1_545 S
C736 C739 1.403 1_554 S
H737 C743 0.930 . S
C738 H724 0.930 . S
C738 C736 1.395 1_565 S
C738 C741 1.403 . S
C739 C736 1.403 1_556 S
C739 C740 1.524 . S
C739 C743 1.400 1_545 S
C740 H725 0.960 . S
C740 H726 0.960 . S
C740 H727 0.960 . S
C740 C739 1.524 . S
C741 C738 1.403 . S
C741 C742 1.392 1_554 S
C741 C745 1.495 . S
C742 C741 1.392 1_556 S
C742 C743 1.385 . S
C742 C744 1.478 . S
C743 H737 0.930 . S
C743 C739 1.400 1_565 S
C743 C742 1.385 . S
C744 C742 1.478 . S
C744 C746 1.381 . S
C744 C750 1.383 . S
C745 C741 1.495 . S
C745 H751 0.959 . S
C745 H752 0.961 . S
C745 H753 0.960 . S
C746 C744 1.381 . S
C746 C747 1.394 . S
C746 H754 0.930 . S
C747 C746 1.394 . S
C747 C748 1.383 . S
C747 H755 0.929 . S
C748 C747 1.383 . S
C748 C749 1.377 . S
C749 H733 0.930 . S
C749 C748 1.377 . S
C749 C750 1.379 . S
C750 H734 0.931 . S
C750 C744 1.383 . S
C750 C749 1.379 . S
H751 C745 0.959 . S
H752 C745 0.961 . S
H753 C745 0.960 . S
H754 C746 0.930 . S
H755 C747 0.929 . S
H756 C764 0.929 . S
H757 C766 0.930 . S
H758 C768 0.930 . S
H759 C771 0.929 . S
H760 C774 0.930 . S
H761 C776 0.960 . S
H762 C776 0.960 . S
H763 C776 0.965 . S
C764 H756 0.929 . S
C764 C765 1.377 . S
C764 C766 1.384 . S
C765 C764 1.377 . S
C765 C771 1.390 . S
C766 H757 0.930 . S
C766 C764 1.384 . S
C766 C767 1.372 . S
C767 C766 1.372 . S
C767 C768 1.400 . S
C767 C772 1.490 . S
C768 H758 0.930 . S
C768 C767 1.400 . S
C768 C771 1.386 . S
H769 C785 0.930 . S
H770 C786 0.931 . S
C771 H759 0.929 . S
C771 C765 1.390 . S
C771 C768 1.386 . S
C772 C767 1.490 . S
C772 C774 1.395 1_655 S
C772 C775 1.403 1_554 S
H773 C779 0.930 . S
C774 H760 0.930 . S
C774 C772 1.395 1_455 S
C774 C777 1.403 . S
C775 C772 1.403 1_556 S
C775 C776 1.524 . S
C775 C779 1.400 1_655 S
C776 H761 0.960 . S
C776 H762 0.960 . S
C776 H763 0.965 . S
C776 C775 1.524 . S
C777 C774 1.403 . S
C777 C778 1.392 1_554 S
C777 C781 1.495 . S
C778 C777 1.392 1_556 S
C778 C779 1.385 . S
C778 C780 1.478 . S
C779 H773 0.930 . S
C779 C775 1.400 1_455 S
C779 C778 1.385 . S
C780 C778 1.478 . S
C780 C782 1.381 . S
C780 C786 1.383 . S
C781 C777 1.495 . S
C781 H787 0.959 . S
C781 H788 0.961 . S
C781 H789 0.960 1_554 S
C782 C780 1.381 . S
C782 C783 1.394 . S
C782 H790 0.930 . S
C783 C782 1.394 . S
C783 C784 1.383 . S
C783 H791 0.929 . S
C784 C783 1.383 . S
C784 C785 1.377 . S
C785 H769 0.930 . S
C785 C784 1.377 . S
C785 C786 1.379 . S
C786 H770 0.931 . S
C786 C780 1.383 . S
C786 C785 1.379 . S
H787 C781 0.959 . S
H788 C781 0.961 . S
H789 C781 0.960 1_556 S
H790 C782 0.930 . S
H791 C783 0.929 . S
H792 C800 0.929 . S
H793 C802 0.930 . S
H794 C804 0.930 . S
H795 C807 0.929 . S
H796 C810 0.930 . S
H797 C812 0.960 . S
H798 C812 0.960 . S
H799 C812 0.960 . S
C800 H792 0.929 . S
C800 C801 1.377 . S
C800 C802 1.384 . S
C801 C800 1.377 . S
C801 C807 1.390 . S
C802 H793 0.930 . S
C802 C800 1.384 . S
C802 C803 1.372 . S
C803 C802 1.372 . S
C803 C804 1.400 . S
C803 C808 1.490 . S
C804 H794 0.930 . S
C804 C803 1.400 . S
C804 C807 1.386 . S
H805 C821 0.930 . S
H806 C822 0.931 . S
C807 H795 0.929 . S
C807 C801 1.390 . S
C807 C804 1.386 . S
C808 C803 1.490 . S
C808 C810 1.395 1_556 S
C808 C811 1.403 . S
H809 C815 0.930 . S
C810 H796 0.930 . S
C810 C808 1.395 1_554 S
C810 C813 1.403 . S
C811 C808 1.403 . S
C811 C812 1.524 . S
C811 C815 1.400 . S
C812 H797 0.960 . S
C812 H798 0.960 . S
C812 H799 0.960 . S
C812 C811 1.524 . S
C813 C810 1.403 . S
C813 C814 1.392 . S
C813 C817 1.495 . S
C814 C813 1.392 . S
C814 C815 1.385 1_554 S
C814 C816 1.478 . S
C815 H809 0.930 . S
C815 C811 1.400 . S
C815 C814 1.385 1_556 S
C816 C814 1.478 . S
C816 C818 1.381 . S
C816 C822 1.383 . S
C817 C813 1.495 . S
C817 H823 0.959 . S
C817 H824 0.961 . S
C817 H825 0.960 . S
C818 C816 1.381 . S
C818 C819 1.394 . S
C818 H826 0.930 . S
C819 C818 1.394 . S
C819 C820 1.383 . S
C819 H827 0.929 . S
C820 C819 1.383 . S
C820 C821 1.377 . S
C821 H805 0.930 . S
C821 C820 1.377 . S
C821 C822 1.379 . S
C822 H806 0.931 . S
C822 C816 1.383 . S
C822 C821 1.379 . S
H823 C817 0.959 . S
H824 C817 0.961 . S
H825 C817 0.960 . S
H826 C818 0.930 . S
H827 C819 0.929 . S
H828 C836 0.929 . S
H829 C838 0.930 . S
H830 C840 0.930 . S
H831 C843 0.929 . S
H832 C846 0.930 . S
H833 C848 0.960 . S
H834 C848 0.960 . S
H835 C848 0.960 . S
C836 H828 0.929 . S
C836 C837 1.377 . S
C836 C838 1.384 . S
C837 C836 1.377 . S
C837 C843 1.390 . S
C838 H829 0.930 . S
C838 C836 1.384 . S
C838 C839 1.372 . S
C839 C838 1.372 . S
C839 C840 1.400 . S
C839 C844 1.490 . S
C840 H830 0.930 . S
C840 C839 1.400 . S
C840 C843 1.386 . S
H841 C857 0.930 . S
H842 C858 0.931 . S
C843 H831 0.929 . S
C843 C837 1.390 . S
C843 C840 1.386 . S
C844 C839 1.490 . S
C844 C846 1.395 . S
C844 C847 1.403 . S
H845 C851 0.930 1_455 S
C846 H832 0.930 . S
C846 C844 1.395 . S
C846 C849 1.403 1_655 S
C847 C844 1.403 . S
C847 C848 1.524 . S
C847 C851 1.400 . S
C848 H833 0.960 . S
C848 H834 0.960 . S
C848 H835 0.960 . S
C848 C847 1.524 . S
C849 C846 1.403 1_455 S
C849 C850 1.393 . S
C849 C853 1.495 . S
C850 C849 1.393 . S
C850 C851 1.385 1_455 S
C850 C852 1.478 . S
C851 H845 0.930 1_655 S
C851 C847 1.400 . S
C851 C850 1.385 1_655 S
C852 C850 1.478 . S
C852 C854 1.381 . S
C852 C858 1.383 . S
C853 C849 1.495 . S
C853 H859 0.959 . S
C853 H860 0.961 . S
C853 H861 0.960 . S
C854 C852 1.381 . S
C854 C855 1.394 . S
C854 H862 0.930 . S
C855 C854 1.394 . S
C855 C856 1.383 . S
C855 H863 0.929 . S
C856 C855 1.383 . S
C856 C857 1.377 . S
C857 H841 0.930 . S
C857 C856 1.377 . S
C857 C858 1.379 . S
C858 H842 0.931 . S
C858 C852 1.383 . S
C858 C857 1.379 . S
H859 C853 0.959 . S
H860 C853 0.961 . S
H861 C853 0.960 . S
H862 C854 0.930 . S
H863 C855 0.929 . S
H864 C872 0.929 . S
H865 C874 0.930 . S
H866 C876 0.930 . S
H867 C879 0.929 . S
H868 C882 0.930 . S
H869 C884 0.960 . S
H870 C884 0.960 . S
H871 C884 0.960 . S
C872 H864 0.929 . S
C872 C873 1.377 . S
C872 C874 1.384 . S
C873 C872 1.377 . S
C873 C879 1.390 . S
C874 H865 0.930 . S
C874 C872 1.384 . S
C874 C875 1.372 . S
C875 C874 1.372 . S
C875 C876 1.400 . S
C875 C880 1.490 . S
C876 H866 0.930 . S
C876 C875 1.400 . S
C876 C879 1.386 . S
H877 C893 0.930 . S
H878 C894 0.931 . S
C879 H867 0.929 . S
C879 C873 1.390 . S
C879 C876 1.386 . S
C880 C875 1.490 . S
C880 C882 1.395 . S
C880 C883 1.403 . S
H881 C887 0.930 . S
C882 H868 0.930 . S
C882 C880 1.395 . S
C882 C885 1.403 . S
C883 C880 1.403 . S
C883 C884 1.524 . S
C883 C887 1.400 . S
C884 H869 0.960 . S
C884 H870 0.960 . S
C884 H871 0.960 . S
C884 C883 1.524 . S
C885 C882 1.403 . S
C885 C886 1.392 . S
C885 C889 1.495 . S
C886 C885 1.392 . S
C886 C887 1.385 . S
C886 C888 1.478 . S
C887 H881 0.930 . S
C887 C883 1.400 . S
C887 C886 1.385 . S
C888 C886 1.478 . S
C888 C890 1.381 . S
C888 C894 1.383 . S
C889 C885 1.495 . S
C889 H895 0.959 . S
C889 H896 0.961 . S
C889 H897 0.960 . S
C890 C888 1.381 . S
C890 C891 1.394 . S
C890 H898 0.930 . S
C891 C890 1.394 . S
C891 C892 1.383 . S
C891 H899 0.929 . S
C892 C891 1.383 . S
C892 C893 1.377 . S
C893 H877 0.930 . S
C893 C892 1.377 . S
C893 C894 1.379 . S
C894 H878 0.931 . S
C894 C888 1.383 . S
C894 C893 1.379 . S
H895 C889 0.959 . S
H896 C889 0.961 . S
H897 C889 0.960 . S
H898 C890 0.930 . S
H899 C891 0.929 . S
H900 C908 0.929 . S
H901 C910 0.930 . S
H902 C912 0.930 . S
H903 C915 0.929 . S
H904 C918 0.930 . S
H905 C920 0.960 . S
H906 C920 0.960 . S
H907 C920 0.960 . S
C908 H900 0.929 . S
C908 C909 1.377 . S
C908 C910 1.384 . S
C909 C908 1.377 . S
C909 C915 1.390 . S
C910 H901 0.930 . S
C910 C908 1.384 . S
C910 C911 1.372 . S
C911 C910 1.372 . S
C911 C912 1.400 . S
C911 C916 1.490 . S
C912 H902 0.930 . S
C912 C911 1.400 . S
C912 C915 1.386 . S
H913 C929 0.930 . S
H914 C930 0.931 . S
C915 H903 0.929 . S
C915 C909 1.390 . S
C915 C912 1.386 . S
C916 C911 1.490 . S
C916 C918 1.395 . S
C916 C919 1.403 . S
H917 C923 0.930 . S
C918 H904 0.930 . S
C918 C916 1.395 . S
C918 C921 1.403 1_545 S
C919 C916 1.403 . S
C919 C920 1.524 . S
C919 C923 1.400 . S
C920 H905 0.960 . S
C920 H906 0.960 . S
C920 H907 0.960 . S
C920 C919 1.524 . S
C921 C918 1.403 1_565 S
C921 C922 1.392 . S
C921 C925 1.495 . S
C922 C921 1.392 . S
C922 C923 1.385 1_565 S
C922 C924 1.478 . S
C923 H917 0.930 . S
C923 C919 1.400 . S
C923 C922 1.385 1_545 S
C924 C922 1.478 . S
C924 C926 1.381 . S
C924 C930 1.383 . S
C925 C921 1.495 . S
C925 H931 0.959 . S
C925 H932 0.961 . S
C925 H933 0.960 . S
C926 C924 1.381 . S
C926 C927 1.394 . S
C926 H934 0.930 . S
C927 C926 1.394 . S
C927 C928 1.383 . S
C927 H935 0.929 . S
C928 C927 1.383 . S
C928 C929 1.377 . S
C929 H913 0.930 . S
C929 C928 1.377 . S
C929 C930 1.379 . S
C930 H914 0.931 . S
C930 C924 1.383 . S
C930 C929 1.379 . S
H931 C925 0.959 . S
H932 C925 0.961 . S
H933 C925 0.960 . S
H934 C926 0.930 . S
H935 C927 0.929 . S
H936 C944 0.929 . S
H937 C946 0.930 . S
H938 C948 0.930 . S
H939 C951 0.929 . S
H940 C954 0.930 . S
H941 C956 0.960 . S
H942 C956 0.960 . S
H943 C956 0.960 . S
C944 H936 0.929 . S
C944 C945 1.377 . S
C944 C946 1.384 . S
C945 C944 1.377 . S
C945 C951 1.390 . S
C946 H937 0.930 . S
C946 C944 1.384 . S
C946 C947 1.372 . S
C947 C946 1.372 . S
C947 C948 1.400 . S
C947 C952 1.490 . S
C948 H938 0.930 . S
C948 C947 1.400 . S
C948 C951 1.386 . S
H949 C965 0.930 . S
H950 C966 0.931 . S
C951 H939 0.929 . S
C951 C945 1.390 . S
C951 C948 1.386 . S
C952 C947 1.490 . S
C952 C954 1.395 . S
C952 C955 1.403 . S
H953 C959 0.930 . S
C954 H940 0.930 . S
C954 C952 1.395 . S
C954 C957 1.403 . S
C955 C952 1.403 . S
C955 C956 1.524 . S
C955 C959 1.400 . S
C956 H941 0.960 . S
C956 H942 0.960 . S
C956 H943 0.960 . S
C956 C955 1.524 . S
C957 C954 1.403 . S
C957 C958 1.392 . S
C957 C961 1.495 . S
C958 C957 1.392 . S
C958 C959 1.385 . S
C958 C960 1.478 . S
C959 H953 0.930 . S
C959 C955 1.400 . S
C959 C958 1.385 . S
C960 C958 1.478 . S
C960 C962 1.381 . S
C960 C966 1.383 . S
C961 C957 1.495 . S
C961 H967 0.959 . S
C961 H968 0.961 . S
C961 H969 0.960 . S
C962 C960 1.381 . S
C962 C963 1.394 . S
C962 H970 0.930 . S
C963 C962 1.394 . S
C963 C964 1.383 . S
C963 H971 0.929 . S
C964 C963 1.383 . S
C964 C965 1.377 . S
C965 H949 0.930 . S
C965 C964 1.377 . S
C965 C966 1.379 . S
C966 H950 0.931 . S
C966 C960 1.383 . S
C966 C965 1.379 . S
H967 C961 0.959 . S
H968 C961 0.961 . S
H969 C961 0.960 . S
H970 C962 0.930 . S
H971 C963 0.929 . S
H972 C980 0.929 . S
H973 C982 0.930 . S
H974 C984 0.930 . S
H975 C987 0.929 . S
H976 C990 0.930 . S
H977 C992 0.960 . S
H978 C992 0.960 . S
H979 C992 0.960 . S
C980 H972 0.929 . S
C980 C981 1.377 . S
C980 C982 1.384 . S
C981 C980 1.377 . S
C981 C987 1.390 . S
C982 H973 0.930 . S
C982 C980 1.384 . S
C982 C983 1.372 . S
C983 C982 1.372 . S
C983 C984 1.400 . S
C983 C988 1.490 . S
C984 H974 0.930 . S
C984 C983 1.400 . S
C984 C987 1.386 . S
H985 C1001 0.930 . S
H986 C1002 0.931 . S
C987 H975 0.929 . S
C987 C981 1.390 . S
C987 C984 1.386 . S
C988 C983 1.490 . S
C988 C990 1.395 . S
C988 C991 1.403 . S
H989 C995 0.930 . S
C990 H976 0.930 . S
C990 C988 1.395 . S
C990 C993 1.403 . S
C991 C988 1.403 . S
C991 C992 1.524 . S
C991 C995 1.400 . S
C992 H977 0.960 . S
C992 H978 0.960 . S
C992 H979 0.960 . S
C992 C991 1.524 . S
C993 C990 1.403 . S
C993 C994 1.392 . S
C993 C997 1.495 . S
C994 C993 1.392 . S
C994 C995 1.385 . S
C994 C996 1.478 . S
C995 H989 0.930 . S
C995 C991 1.400 . S
C995 C994 1.385 . S
C996 C994 1.478 . S
C996 C998 1.381 . S
C996 C1002 1.383 . S
C997 C993 1.495 . S
C997 H1003 0.959 . S
C997 H1004 0.961 . S
C997 H1005 0.960 . S
C998 C996 1.381 . S
C998 C999 1.394 . S
C998 H1006 0.930 . S
C999 C998 1.394 . S
C999 C1000 1.383 . S
C999 H1007 0.929 . S
C1000 C999 1.383 . S
C1000 C1001 1.377 . S
C1001 H985 0.930 . S
C1001 C1000 1.377 . S
C1001 C1002 1.379 . S
C1002 H986 0.931 . S
C1002 C996 1.383 . S
C1002 C1001 1.379 . S
H1003 C997 0.959 . S
H1004 C997 0.961 . S
H1005 C997 0.960 . S
H1006 C998 0.930 . S
H1007 C999 0.929 . S
H1008 C1016 0.929 . S
H1009 C1018 0.930 . S
H1010 C1020 0.930 . S
H1011 C1023 0.929 . S
H1012 C1026 0.930 . S
H1013 C1028 0.960 . S
H1014 C1028 0.960 . S
H1015 C1028 0.960 . S
C1016 H1008 0.929 . S
C1016 C1017 1.377 . S
C1016 C1018 1.384 . S
C1017 C1016 1.377 . S
C1017 C1023 1.390 . S
C1018 H1009 0.930 . S
C1018 C1016 1.384 . S
C1018 C1019 1.372 . S
C1019 C1018 1.372 . S
C1019 C1020 1.400 . S
C1019 C1024 1.490 . S
C1020 H1010 0.930 . S
C1020 C1019 1.400 . S
C1020 C1023 1.386 . S
H1021 C1037 0.930 . S
H1022 C1038 0.931 . S
C1023 H1011 0.929 . S
C1023 C1017 1.390 . S
C1023 C1020 1.386 . S
C1024 C1019 1.490 . S
C1024 C1026 1.395 . S
C1024 C1027 1.403 . S
H1025 C1031 0.930 . S
C1026 H1012 0.930 . S
C1026 C1024 1.395 . S
C1026 C1029 1.403 . S
C1027 C1024 1.403 . S
C1027 C1028 1.524 . S
C1027 C1031 1.400 . S
C1028 H1013 0.960 . S
C1028 H1014 0.960 . S
C1028 H1015 0.960 . S
C1028 C1027 1.524 . S
C1029 C1026 1.403 . S
C1029 C1030 1.392 . S
C1029 C1033 1.495 . S
C1030 C1029 1.392 . S
C1030 C1031 1.385 . S
C1030 C1032 1.478 . S
C1031 H1025 0.930 . S
C1031 C1027 1.400 . S
C1031 C1030 1.385 . S
C1032 C1030 1.478 . S
C1032 C1034 1.381 . S
C1032 C1038 1.383 . S
C1033 C1029 1.495 . S
C1033 H1039 0.959 . S
C1033 H1040 0.961 . S
C1033 H1041 0.960 . S
C1034 C1032 1.381 . S
C1034 C1035 1.394 . S
C1034 H1042 0.930 . S
C1035 C1034 1.394 . S
C1035 C1036 1.383 . S
C1035 H1043 0.929 . S
C1036 C1035 1.383 . S
C1036 C1037 1.377 . S
C1037 H1021 0.930 . S
C1037 C1036 1.377 . S
C1037 C1038 1.379 . S
C1038 H1022 0.931 . S
C1038 C1032 1.383 . S
C1038 C1037 1.379 . S
H1039 C1033 0.959 . S
H1040 C1033 0.961 . S
H1041 C1033 0.960 . S
H1042 C1034 0.930 . S
H1043 C1035 0.929 . S
H1044 C1052 0.929 . S
H1045 C1054 0.930 . S
H1046 C1056 0.930 . S
H1047 C1059 0.929 . S
H1048 C1062 0.930 . S
H1049 C1064 0.960 . S
H1050 C1064 0.960 . S
H1051 C1064 0.960 . S
C1052 H1044 0.929 . S
C1052 C1053 1.377 . S
C1052 C1054 1.384 . S
C1053 C1052 1.377 . S
C1053 C1059 1.390 . S
C1054 H1045 0.930 . S
C1054 C1052 1.384 . S
C1054 C1055 1.372 . S
C1055 C1054 1.372 . S
C1055 C1056 1.400 . S
C1055 C1060 1.490 . S
C1056 H1046 0.930 . S
C1056 C1055 1.400 . S
C1056 C1059 1.386 . S
H1057 C1073 0.930 . S
H1058 C1074 0.931 . S
C1059 H1047 0.929 . S
C1059 C1053 1.390 . S
C1059 C1056 1.386 . S
C1060 C1055 1.490 . S
C1060 C1062 1.395 . S
C1060 C1063 1.403 . S
H1061 C1067 0.930 . S
C1062 H1048 0.930 . S
C1062 C1060 1.395 . S
C1062 C1065 1.403 . S
C1063 C1060 1.403 . S
C1063 C1064 1.524 . S
C1063 C1067 1.400 . S
C1064 H1049 0.960 . S
C1064 H1050 0.960 . S
C1064 H1051 0.960 . S
C1064 C1063 1.524 . S
C1065 C1062 1.403 . S
C1065 C1066 1.392 . S
C1065 C1069 1.495 . S
C1066 C1065 1.392 . S
C1066 C1067 1.385 . S
C1066 C1068 1.478 . S
C1067 H1061 0.930 . S
C1067 C1063 1.400 . S
C1067 C1066 1.385 . S
C1068 C1066 1.478 . S
C1068 C1070 1.381 . S
C1068 C1074 1.383 . S
C1069 C1065 1.495 . S
C1069 H1075 0.959 . S
C1069 H1076 0.961 . S
C1069 H1077 0.960 . S
C1070 C1068 1.381 . S
C1070 C1071 1.394 . S
C1070 H1078 0.930 . S
C1071 C1070 1.394 . S
C1071 C1072 1.383 . S
C1071 H1079 0.929 . S
C1072 C1071 1.383 . S
C1072 C1073 1.377 . S
C1073 H1057 0.930 . S
C1073 C1072 1.377 . S
C1073 C1074 1.379 . S
C1074 H1058 0.931 . S
C1074 C1068 1.383 . S
C1074 C1073 1.379 . S
H1075 C1069 0.959 . S
H1076 C1069 0.961 . S
H1077 C1069 0.960 . S
H1078 C1070 0.930 . S
H1079 C1071 0.929 . S
H1080 C1088 0.929 . S
H1081 C1090 0.930 . S
H1082 C1092 0.930 . S
H1083 C1095 0.929 . S
H1084 C1098 0.930 . S
H1085 C1100 0.960 . S
H1086 C1100 0.960 . S
H1087 C1100 0.960 . S
C1088 H1080 0.929 . S
C1088 C1089 1.377 . S
C1088 C1090 1.384 . S
C1089 C1088 1.377 . S
C1089 C1095 1.390 . S
C1090 H1081 0.930 . S
C1090 C1088 1.384 . S
C1090 C1091 1.372 . S
C1091 C1090 1.372 . S
C1091 C1092 1.400 . S
C1091 C1096 1.490 . S
C1092 H1082 0.930 . S
C1092 C1091 1.400 . S
C1092 C1095 1.386 . S
H1093 C1109 0.930 . S
H1094 C1110 0.931 . S
C1095 H1083 0.929 . S
C1095 C1089 1.390 . S
C1095 C1092 1.386 . S
C1096 C1091 1.490 . S
C1096 C1098 1.395 . S
C1096 C1099 1.403 . S
H1097 C1103 0.930 . S
C1098 H1084 0.930 . S
C1098 C1096 1.395 . S
C1098 C1101 1.403 . S
C1099 C1096 1.403 . S
C1099 C1100 1.524 . S
C1099 C1103 1.400 . S
C1100 H1085 0.960 . S
C1100 H1086 0.960 . S
C1100 H1087 0.960 . S
C1100 C1099 1.524 . S
C1101 C1098 1.403 . S
C1101 C1102 1.392 . S
C1101 C1105 1.495 . S
C1102 C1101 1.392 . S
C1102 C1103 1.385 . S
C1102 C1104 1.478 . S
C1103 H1097 0.930 . S
C1103 C1099 1.400 . S
C1103 C1102 1.385 . S
C1104 C1102 1.478 . S
C1104 C1106 1.381 . S
C1104 C1110 1.383 . S
C1105 C1101 1.495 . S
C1105 H1111 0.959 . S
C1105 H1112 0.961 . S
C1105 H1113 0.960 . S
C1106 C1104 1.381 . S
C1106 C1107 1.394 . S
C1106 H1114 0.930 . S
C1107 C1106 1.394 . S
C1107 C1108 1.383 . S
C1107 H1115 0.929 . S
C1108 C1107 1.383 . S
C1108 C1109 1.377 . S
C1109 H1093 0.930 . S
C1109 C1108 1.377 . S
C1109 C1110 1.379 . S
C1110 H1094 0.931 . S
C1110 C1104 1.383 . S
C1110 C1109 1.379 . S
H1111 C1105 0.959 . S
H1112 C1105 0.961 . S
H1113 C1105 0.960 . S
H1114 C1106 0.930 . S
H1115 C1107 0.929 . S
H1116 C1124 0.929 . S
H1117 C1126 0.930 . S
H1118 C1128 0.930 . S
H1119 C1131 0.929 . S
H1120 C1134 0.930 . S
H1121 C1136 0.960 . S
H1122 C1136 0.960 . S
H1123 C1136 0.960 . S
C1124 H1116 0.929 . S
C1124 C1125 1.377 . S
C1124 C1126 1.384 . S
C1125 C1124 1.377 . S
C1125 C1131 1.390 . S
C1126 H1117 0.930 . S
C1126 C1124 1.384 . S
C1126 C1127 1.372 . S
C1127 C1126 1.372 . S
C1127 C1128 1.400 . S
C1127 C1132 1.490 . S
C1128 H1118 0.930 . S
C1128 C1127 1.400 . S
C1128 C1131 1.386 . S
H1129 C1145 0.930 . S
H1130 C1146 0.931 . S
C1131 H1119 0.929 . S
C1131 C1125 1.390 . S
C1131 C1128 1.386 . S
C1132 C1127 1.490 . S
C1132 C1134 1.395 . S
C1132 C1135 1.403 . S
H1133 C1139 0.930 . S
C1134 H1120 0.930 . S
C1134 C1132 1.395 . S
C1134 C1137 1.403 . S
C1135 C1132 1.403 . S
C1135 C1136 1.524 . S
C1135 C1139 1.400 . S
C1136 H1121 0.960 . S
C1136 H1122 0.960 . S
C1136 H1123 0.960 . S
C1136 C1135 1.524 . S
C1137 C1134 1.403 . S
C1137 C1138 1.392 . S
C1137 C1141 1.495 . S
C1138 C1137 1.392 . S
C1138 C1139 1.385 . S
C1138 C1140 1.478 . S
C1139 H1133 0.930 . S
C1139 C1135 1.400 . S
C1139 C1138 1.385 . S
C1140 C1138 1.478 . S
C1140 C1142 1.381 . S
C1140 C1146 1.383 . S
C1141 C1137 1.495 . S
C1141 H1147 0.959 . S
C1141 H1148 0.961 . S
C1141 H1149 0.960 . S
C1142 C1140 1.381 . S
C1142 C1143 1.394 . S
C1142 H1150 0.930 . S
C1143 C1142 1.394 . S
C1143 C1144 1.383 . S
C1143 H1151 0.929 . S
C1144 C1143 1.383 . S
C1144 C1145 1.377 . S
C1145 H1129 0.930 . S
C1145 C1144 1.377 . S
C1145 C1146 1.379 . S
C1146 H1130 0.931 . S
C1146 C1140 1.383 . S
C1146 C1145 1.379 . S
H1147 C1141 0.959 . S
H1148 C1141 0.961 . S
H1149 C1141 0.960 . S
H1150 C1142 0.930 . S
H1151 C1143 0.929 . S
H1152 C1160 0.929 . S
H1153 C1162 0.930 . S
H1154 C1164 0.930 . S
H1155 C1167 0.929 . S
H1156 C1170 0.930 . S
H1157 C1172 0.960 . S
H1158 C1172 0.960 . S
H1159 C1172 0.960 . S
C1160 H1152 0.929 . S
C1160 C1161 1.377 . S
C1160 C1162 1.384 . S
C1161 C1160 1.377 . S
C1161 C1167 1.390 . S
C1162 H1153 0.930 . S
C1162 C1160 1.384 . S
C1162 C1163 1.372 . S
C1163 C1162 1.372 . S
C1163 C1164 1.400 . S
C1163 C1168 1.490 . S
C1164 H1154 0.930 . S
C1164 C1163 1.400 . S
C1164 C1167 1.386 . S
H1165 C1181 0.930 . S
H1166 C1182 0.931 . S
C1167 H1155 0.929 . S
C1167 C1161 1.390 . S
C1167 C1164 1.386 . S
C1168 C1163 1.490 . S
C1168 C1170 1.395 . S
C1168 C1171 1.403 . S
H1169 C1175 0.930 . S
C1170 H1156 0.930 . S
C1170 C1168 1.395 . S
C1170 C1173 1.403 . S
C1171 C1168 1.403 . S
C1171 C1172 1.524 . S
C1171 C1175 1.400 . S
C1172 H1157 0.960 . S
C1172 H1158 0.960 . S
C1172 H1159 0.960 . S
C1172 C1171 1.524 . S
C1173 C1170 1.403 . S
C1173 C1174 1.392 . S
C1173 C1177 1.495 . S
C1174 C1173 1.392 . S
C1174 C1175 1.385 . S
C1174 C1176 1.478 . S
C1175 H1169 0.930 . S
C1175 C1171 1.400 . S
C1175 C1174 1.385 . S
C1176 C1174 1.478 . S
C1176 C1178 1.381 . S
C1176 C1182 1.383 . S
C1177 C1173 1.495 . S
C1177 H1183 0.959 . S
C1177 H1184 0.961 . S
C1177 H1185 0.960 . S
C1178 C1176 1.381 . S
C1178 C1179 1.394 . S
C1178 H1186 0.930 . S
C1179 C1178 1.394 . S
C1179 C1180 1.383 . S
C1179 H1187 0.929 . S
C1180 C1179 1.383 . S
C1180 C1181 1.377 . S
C1181 H1165 0.930 . S
C1181 C1180 1.377 . S
C1181 C1182 1.379 . S
C1182 H1166 0.931 . S
C1182 C1176 1.383 . S
C1182 C1181 1.379 . S
H1183 C1177 0.959 . S
H1184 C1177 0.961 . S
H1185 C1177 0.960 . S
H1186 C1178 0.930 . S
H1187 C1179 0.929 . S
H1188 C1196 0.929 . S
H1189 C1198 0.930 . S
H1190 C1200 0.930 . S
H1191 C1203 0.929 . S
H1192 C1206 0.930 . S
H1193 C1208 0.960 . S
H1194 C1208 0.960 . S
H1195 C1208 0.960 . S
C1196 H1188 0.929 . S
C1196 C1197 1.377 . S
C1196 C1198 1.384 . S
C1197 C1196 1.377 . S
C1197 C1203 1.390 . S
C1198 H1189 0.930 . S
C1198 C1196 1.384 . S
C1198 C1199 1.372 . S
C1199 C1198 1.372 . S
C1199 C1200 1.400 . S
C1199 C1204 1.490 . S
C1200 H1190 0.930 . S
C1200 C1199 1.400 . S
C1200 C1203 1.386 . S
H1201 C1217 0.930 . S
H1202 C1218 0.931 . S
C1203 H1191 0.929 . S
C1203 C1197 1.390 . S
C1203 C1200 1.386 . S
C1204 C1199 1.490 . S
C1204 C1206 1.395 . S
C1204 C1207 1.403 . S
H1205 C1211 0.930 . S
C1206 H1192 0.930 . S
C1206 C1204 1.395 . S
C1206 C1209 1.403 . S
C1207 C1204 1.403 . S
C1207 C1208 1.524 . S
C1207 C1211 1.400 . S
C1208 H1193 0.960 . S
C1208 H1194 0.960 . S
C1208 H1195 0.960 . S
C1208 C1207 1.524 . S
C1209 C1206 1.403 . S
C1209 C1210 1.392 . S
C1209 C1213 1.495 . S
C1210 C1209 1.392 . S
C1210 C1211 1.385 . S
C1210 C1212 1.478 . S
C1211 H1205 0.930 . S
C1211 C1207 1.400 . S
C1211 C1210 1.385 . S
C1212 C1210 1.478 . S
C1212 C1214 1.381 . S
C1212 C1218 1.383 . S
C1213 C1209 1.495 . S
C1213 H1219 0.959 . S
C1213 H1220 0.961 . S
C1213 H1221 0.960 . S
C1214 C1212 1.381 . S
C1214 C1215 1.394 . S
C1214 H1222 0.930 . S
C1215 C1214 1.394 . S
C1215 C1216 1.383 . S
C1215 H1223 0.929 . S
C1216 C1215 1.383 . S
C1216 C1217 1.377 . S
C1217 H1201 0.930 . S
C1217 C1216 1.377 . S
C1217 C1218 1.379 . S
C1218 H1202 0.931 . S
C1218 C1212 1.383 . S
C1218 C1217 1.379 . S
H1219 C1213 0.959 . S
H1220 C1213 0.961 . S
H1221 C1213 0.960 . S
H1222 C1214 0.930 . S
H1223 C1215 0.929 . S
H1224 C1232 0.929 . S
H1225 C1234 0.930 . S
H1226 C1236 0.930 . S
H1227 C1239 0.929 . S
H1228 C1242 0.930 . S
H1229 C1244 0.960 . S
H1230 C1244 0.960 . S
H1231 C1244 0.960 . S
C1232 H1224 0.929 . S
C1232 C1233 1.377 . S
C1232 C1234 1.384 . S
C1233 C1232 1.377 . S
C1233 C1239 1.390 . S
C1234 H1225 0.930 . S
C1234 C1232 1.384 . S
C1234 C1235 1.372 . S
C1235 C1234 1.372 . S
C1235 C1236 1.400 . S
C1235 C1240 1.490 . S
C1236 H1226 0.930 . S
C1236 C1235 1.400 . S
C1236 C1239 1.386 . S
H1237 C1253 0.930 . S
H1238 C1254 0.931 . S
C1239 H1227 0.929 . S
C1239 C1233 1.390 . S
C1239 C1236 1.386 . S
C1240 C1235 1.490 . S
C1240 C1242 1.395 . S
C1240 C1243 1.403 . S
H1241 C1247 0.930 . S
C1242 H1228 0.930 . S
C1242 C1240 1.395 . S
C1242 C1245 1.403 . S
C1243 C1240 1.403 . S
C1243 C1244 1.524 . S
C1243 C1247 1.400 . S
C1244 H1229 0.960 . S
C1244 H1230 0.960 . S
C1244 H1231 0.960 . S
C1244 C1243 1.524 . S
C1245 C1242 1.403 . S
C1245 C1246 1.392 . S
C1245 C1249 1.495 . S
C1246 C1245 1.392 . S
C1246 C1247 1.385 . S
C1246 C1248 1.478 . S
C1247 H1241 0.930 . S
C1247 C1243 1.400 . S
C1247 C1246 1.385 . S
C1248 C1246 1.478 . S
C1248 C1250 1.381 . S
C1248 C1254 1.383 . S
C1249 C1245 1.495 . S
C1249 H1255 0.959 . S
C1249 H1256 0.961 . S
C1249 H1257 0.960 . S
C1250 C1248 1.381 . S
C1250 C1251 1.394 . S
C1250 H1258 0.930 . S
C1251 C1250 1.394 . S
C1251 C1252 1.383 . S
C1251 H1259 0.929 . S
C1252 C1251 1.383 . S
C1252 C1253 1.377 . S
C1253 H1237 0.930 . S
C1253 C1252 1.377 . S
C1253 C1254 1.379 . S
C1254 H1238 0.931 . S
C1254 C1248 1.383 . S
C1254 C1253 1.379 . S
H1255 C1249 0.959 . S
H1256 C1249 0.961 . S
H1257 C1249 0.960 . S
H1258 C1250 0.930 . S
H1259 C1251 0.929 . S
H1260 C1268 0.929 . S
H1261 C1270 0.930 . S
H1262 C1272 0.930 . S
H1263 C1275 0.929 . S
H1264 C1278 0.930 . S
H1265 C1280 0.960 . S
H1266 C1280 0.960 . S
H1267 C1280 0.960 . S
C1268 H1260 0.929 . S
C1268 C1269 1.377 . S
C1268 C1270 1.384 . S
C1269 C1268 1.377 . S
C1269 C1275 1.390 . S
C1270 H1261 0.930 . S
C1270 C1268 1.384 . S
C1270 C1271 1.372 . S
C1271 C1270 1.372 . S
C1271 C1272 1.400 . S
C1271 C1276 1.490 . S
C1272 H1262 0.930 . S
C1272 C1271 1.400 . S
C1272 C1275 1.386 . S
H1273 C1289 0.930 . S
H1274 C1290 0.931 . S
C1275 H1263 0.929 . S
C1275 C1269 1.390 . S
C1275 C1272 1.386 . S
C1276 C1271 1.490 . S
C1276 C1278 1.395 . S
C1276 C1279 1.403 . S
H1277 C1283 0.930 . S
C1278 H1264 0.930 . S
C1278 C1276 1.395 . S
C1278 C1281 1.403 . S
C1279 C1276 1.403 . S
C1279 C1280 1.524 . S
C1279 C1283 1.400 . S
C1280 H1265 0.960 . S
C1280 H1266 0.960 . S
C1280 H1267 0.960 . S
C1280 C1279 1.524 . S
C1281 C1278 1.403 . S
C1281 C1282 1.392 . S
C1281 C1285 1.495 . S
C1282 C1281 1.392 . S
C1282 C1283 1.385 . S
C1282 C1284 1.478 . S
C1283 H1277 0.930 . S
C1283 C1279 1.400 . S
C1283 C1282 1.385 . S
C1284 C1282 1.478 . S
C1284 C1286 1.381 . S
C1284 C1290 1.383 . S
C1285 C1281 1.495 . S
C1285 H1291 0.959 . S
C1285 H1292 0.961 . S
C1285 H1293 0.960 . S
C1286 C1284 1.381 . S
C1286 C1287 1.394 . S
C1286 H1294 0.930 . S
C1287 C1286 1.394 . S
C1287 C1288 1.383 . S
C1287 H1295 0.929 . S
C1288 C1287 1.383 . S
C1288 C1289 1.377 . S
C1289 H1273 0.930 . S
C1289 C1288 1.377 . S
C1289 C1290 1.379 . S
C1290 H1274 0.931 . S
C1290 C1284 1.383 . S
C1290 C1289 1.379 . S
H1291 C1285 0.959 . S
H1292 C1285 0.961 . S
H1293 C1285 0.960 . S
H1294 C1286 0.930 . S
H1295 C1287 0.929 . S
H1296 C1304 0.929 . S
H1297 C1306 0.930 . S
H1298 C1308 0.930 . S
H1299 C1311 0.929 . S
H1300 C1314 0.930 . S
H1301 C1316 0.960 . S
H1302 C1316 0.960 . S
H1303 C1316 0.960 . S
C1304 H1296 0.929 . S
C1304 C1305 1.377 . S
C1304 C1306 1.384 . S
C1305 C1304 1.377 . S
C1305 C1311 1.390 . S
C1306 H1297 0.930 . S
C1306 C1304 1.384 . S
C1306 C1307 1.372 . S
C1307 C1306 1.372 . S
C1307 C1308 1.400 . S
C1307 C1312 1.490 . S
C1308 H1298 0.930 . S
C1308 C1307 1.400 . S
C1308 C1311 1.386 . S
H1309 C1325 0.930 . S
H1310 C1326 0.931 . S
C1311 H1299 0.929 . S
C1311 C1305 1.390 . S
C1311 C1308 1.386 . S
C1312 C1307 1.490 . S
C1312 C1314 1.395 . S
C1312 C1315 1.403 . S
H1313 C1319 0.930 . S
C1314 H1300 0.930 . S
C1314 C1312 1.395 . S
C1314 C1317 1.403 . S
C1315 C1312 1.403 . S
C1315 C1316 1.524 . S
C1315 C1319 1.400 . S
C1316 H1301 0.960 . S
C1316 H1302 0.960 . S
C1316 H1303 0.960 . S
C1316 C1315 1.524 . S
C1317 C1314 1.403 . S
C1317 C1318 1.392 . S
C1317 C1321 1.495 . S
C1318 C1317 1.392 . S
C1318 C1319 1.385 . S
C1318 C1320 1.478 . S
C1319 H1313 0.930 . S
C1319 C1315 1.400 . S
C1319 C1318 1.385 . S
C1320 C1318 1.478 . S
C1320 C1322 1.381 . S
C1320 C1326 1.383 . S
C1321 C1317 1.495 . S
C1321 H1327 0.959 . S
C1321 H1328 0.961 . S
C1321 H1329 0.960 . S
C1322 C1320 1.381 . S
C1322 C1323 1.394 . S
C1322 H1330 0.930 . S
C1323 C1322 1.394 . S
C1323 C1324 1.383 . S
C1323 H1331 0.929 . S
C1324 C1323 1.383 . S
C1324 C1325 1.377 . S
C1325 H1309 0.930 . S
C1325 C1324 1.377 . S
C1325 C1326 1.379 . S
C1326 H1310 0.931 . S
C1326 C1320 1.383 . S
C1326 C1325 1.379 . S
H1327 C1321 0.959 . S
H1328 C1321 0.961 . S
H1329 C1321 0.960 . S
H1330 C1322 0.930 . S
H1331 C1323 0.929 . S
H1332 C1340 0.929 . S
H1333 C1342 0.930 . S
H1334 C1344 0.930 . S
H1335 C1347 0.929 . S
H1336 C1350 0.930 . S
H1337 C1352 0.960 . S
H1338 C1352 0.960 . S
H1339 C1352 0.960 . S
C1340 H1332 0.929 . S
C1340 C1341 1.377 . S
C1340 C1342 1.384 . S
C1341 C1340 1.377 . S
C1341 C1347 1.390 . S
C1342 H1333 0.930 . S
C1342 C1340 1.384 . S
C1342 C1343 1.372 . S
C1343 C1342 1.372 . S
C1343 C1344 1.400 . S
C1343 C1348 1.490 . S
C1344 H1334 0.930 . S
C1344 C1343 1.400 . S
C1344 C1347 1.386 . S
H1345 C1361 0.930 . S
H1346 C1362 0.931 . S
C1347 H1335 0.929 . S
C1347 C1341 1.390 . S
C1347 C1344 1.386 . S
C1348 C1343 1.490 . S
C1348 C1350 1.395 . S
C1348 C1351 1.403 . S
H1349 C1355 0.930 . S
C1350 H1336 0.930 . S
C1350 C1348 1.395 . S
C1350 C1353 1.403 . S
C1351 C1348 1.403 . S
C1351 C1352 1.524 . S
C1351 C1355 1.400 . S
C1352 H1337 0.960 . S
C1352 H1338 0.960 . S
C1352 H1339 0.960 . S
C1352 C1351 1.524 . S
C1353 C1350 1.403 . S
C1353 C1354 1.392 . S
C1353 C1357 1.495 . S
C1354 C1353 1.392 . S
C1354 C1355 1.385 . S
C1354 C1356 1.478 . S
C1355 H1349 0.930 . S
C1355 C1351 1.400 . S
C1355 C1354 1.385 . S
C1356 C1354 1.478 . S
C1356 C1358 1.381 . S
C1356 C1362 1.383 . S
C1357 C1353 1.495 . S
C1357 H1363 0.959 . S
C1357 H1364 0.961 . S
C1357 H1365 0.960 . S
C1358 C1356 1.381 . S
C1358 C1359 1.394 . S
C1358 H1366 0.930 . S
C1359 C1358 1.394 . S
C1359 C1360 1.383 . S
C1359 H1367 0.929 . S
C1360 C1359 1.383 . S
C1360 C1361 1.377 . S
C1361 H1345 0.930 . S
C1361 C1360 1.377 . S
C1361 C1362 1.379 . S
C1362 H1346 0.931 . S
C1362 C1356 1.383 . S
C1362 C1361 1.379 . S
H1363 C1357 0.959 . S
H1364 C1357 0.961 . S
H1365 C1357 0.960 . S
H1366 C1358 0.930 . S
H1367 C1359 0.929 . S
H1368 C1376 0.929 . S
H1369 C1378 0.930 . S
H1370 C1380 0.930 . S
H1371 C1383 0.929 . S
H1372 C1386 0.930 . S
H1373 C1388 0.960 . S
H1374 C1388 0.960 . S
H1375 C1388 0.960 . S
C1376 H1368 0.929 . S
C1376 C1377 1.377 . S
C1376 C1378 1.384 . S
C1377 C1376 1.377 . S
C1377 C1383 1.390 . S
C1378 H1369 0.930 . S
C1378 C1376 1.384 . S
C1378 C1379 1.372 . S
C1379 C1378 1.372 . S
C1379 C1380 1.400 . S
C1379 C1384 1.490 . S
C1380 H1370 0.930 . S
C1380 C1379 1.400 . S
C1380 C1383 1.386 . S
H1381 C1397 0.930 . S
H1382 C1398 0.931 . S
C1383 H1371 0.929 . S
C1383 C1377 1.390 . S
C1383 C1380 1.386 . S
C1384 C1379 1.490 . S
C1384 C1386 1.395 . S
C1384 C1387 1.403 . S
H1385 C1391 0.930 . S
C1386 H1372 0.930 . S
C1386 C1384 1.395 . S
C1386 C1389 1.403 . S
C1387 C1384 1.403 . S
C1387 C1388 1.524 . S
C1387 C1391 1.400 . S
C1388 H1373 0.960 . S
C1388 H1374 0.960 . S
C1388 H1375 0.960 . S
C1388 C1387 1.524 . S
C1389 C1386 1.403 . S
C1389 C1390 1.392 . S
C1389 C1393 1.495 . S
C1390 C1389 1.392 . S
C1390 C1391 1.385 . S
C1390 C1392 1.478 . S
C1391 H1385 0.930 . S
C1391 C1387 1.400 . S
C1391 C1390 1.385 . S
C1392 C1390 1.478 . S
C1392 C1394 1.381 . S
C1392 C1398 1.383 . S
C1393 C1389 1.495 . S
C1393 H1399 0.959 . S
C1393 H1400 0.961 . S
C1393 H1401 0.960 . S
C1394 C1392 1.381 . S
C1394 C1395 1.394 . S
C1394 H1402 0.930 . S
C1395 C1394 1.394 . S
C1395 C1396 1.383 . S
C1395 H1403 0.929 . S
C1396 C1395 1.383 . S
C1396 C1397 1.377 . S
C1397 H1381 0.930 . S
C1397 C1396 1.377 . S
C1397 C1398 1.379 . S
C1398 H1382 0.931 . S
C1398 C1392 1.383 . S
C1398 C1397 1.379 . S
H1399 C1393 0.959 . S
H1400 C1393 0.961 . S
H1401 C1393 0.960 . S
H1402 C1394 0.930 . S
H1403 C1395 0.929 . S
H1404 C1412 0.929 . S
H1405 C1414 0.930 . S
H1406 C1416 0.930 . S
H1407 C1419 0.929 . S
H1408 C1422 0.930 . S
H1409 C1424 0.960 . S
H1410 C1424 0.960 . S
H1411 C1424 0.960 . S
C1412 H1404 0.929 . S
C1412 C1413 1.377 . S
C1412 C1414 1.384 . S
C1413 C1412 1.377 . S
C1413 C1419 1.390 . S
C1414 H1405 0.930 . S
C1414 C1412 1.384 . S
C1414 C1415 1.372 . S
C1415 C1414 1.372 . S
C1415 C1416 1.400 . S
C1415 C1420 1.490 . S
C1416 H1406 0.930 . S
C1416 C1415 1.400 . S
C1416 C1419 1.386 . S
H1417 C1433 0.930 . S
H1418 C1434 0.931 . S
C1419 H1407 0.929 . S
C1419 C1413 1.390 . S
C1419 C1416 1.386 . S
C1420 C1415 1.490 . S
C1420 C1422 1.395 . S
C1420 C1423 1.403 . S
H1421 C1427 0.930 . S
C1422 H1408 0.930 . S
C1422 C1420 1.395 . S
C1422 C1425 1.403 . S
C1423 C1420 1.403 . S
C1423 C1424 1.524 . S
C1423 C1427 1.400 . S
C1424 H1409 0.960 . S
C1424 H1410 0.960 . S
C1424 H1411 0.960 . S
C1424 C1423 1.524 . S
C1425 C1422 1.403 . S
C1425 C1426 1.392 . S
C1425 C1429 1.495 . S
C1426 C1425 1.392 . S
C1426 C1427 1.385 . S
C1426 C1428 1.478 . S
C1427 H1421 0.930 . S
C1427 C1423 1.400 . S
C1427 C1426 1.385 . S
C1428 C1426 1.478 . S
C1428 C1430 1.381 . S
C1428 C1434 1.383 . S
C1429 C1425 1.495 . S
C1429 H1435 0.959 . S
C1429 H1436 0.961 . S
C1429 H1437 0.960 . S
C1430 C1428 1.381 . S
C1430 C1431 1.394 . S
C1430 H1438 0.930 . S
C1431 C1430 1.394 . S
C1431 C1432 1.383 . S
C1431 H1439 0.929 . S
C1432 C1431 1.383 . S
C1432 C1433 1.377 . S
C1433 H1417 0.930 . S
C1433 C1432 1.377 . S
C1433 C1434 1.379 . S
C1434 H1418 0.931 . S
C1434 C1428 1.383 . S
C1434 C1433 1.379 . S
H1435 C1429 0.959 . S
H1436 C1429 0.961 . S
H1437 C1429 0.960 . S
H1438 C1430 0.930 . S
H1439 C1431 0.929 . S
H1440 C1448 0.929 . S
H1441 C1450 0.930 . S
H1442 C1452 0.930 . S
H1443 C1455 0.929 . S
H1444 C1458 0.930 . S
H1445 C1460 0.960 . S
H1446 C1460 0.960 . S
H1447 C1460 0.960 . S
C1448 H1440 0.929 . S
C1448 C1449 1.377 . S
C1448 C1450 1.384 . S
C1449 C1448 1.377 . S
C1449 C1455 1.390 . S
C1450 H1441 0.930 . S
C1450 C1448 1.384 . S
C1450 C1451 1.372 . S
C1451 C1450 1.372 . S
C1451 C1452 1.400 . S
C1451 C1456 1.490 . S
C1452 H1442 0.930 . S
C1452 C1451 1.400 . S
C1452 C1455 1.386 . S
H1453 C1469 0.930 . S
H1454 C1470 0.931 . S
C1455 H1443 0.929 . S
C1455 C1449 1.390 . S
C1455 C1452 1.386 . S
C1456 C1451 1.490 . S
C1456 C1458 1.395 . S
C1456 C1459 1.403 . S
H1457 C1463 0.930 . S
C1458 H1444 0.930 . S
C1458 C1456 1.395 . S
C1458 C1461 1.403 . S
C1459 C1456 1.403 . S
C1459 C1460 1.524 . S
C1459 C1463 1.400 . S
C1460 H1445 0.960 . S
C1460 H1446 0.960 . S
C1460 H1447 0.960 . S
C1460 C1459 1.524 . S
C1461 C1458 1.403 . S
C1461 C1462 1.392 . S
C1461 C1465 1.495 . S
C1462 C1461 1.392 . S
C1462 C1463 1.385 . S
C1462 C1464 1.478 . S
C1463 H1457 0.930 . S
C1463 C1459 1.400 . S
C1463 C1462 1.385 . S
C1464 C1462 1.478 . S
C1464 C1466 1.381 . S
C1464 C1470 1.383 . S
C1465 C1461 1.495 . S
C1465 H1471 0.959 . S
C1465 H1472 0.961 . S
C1465 H1473 0.960 . S
C1466 C1464 1.381 . S
C1466 C1467 1.394 . S
C1466 H1474 0.930 . S
C1467 C1466 1.394 . S
C1467 C1468 1.383 . S
C1467 H1475 0.929 . S
C1468 C1467 1.383 . S
C1468 C1469 1.377 . S
C1469 H1453 0.930 . S
C1469 C1468 1.377 . S
C1469 C1470 1.379 . S
C1470 H1454 0.931 . S
C1470 C1464 1.383 . S
C1470 C1469 1.379 . S
H1471 C1465 0.959 . S
H1472 C1465 0.961 . S
H1473 C1465 0.960 . S
H1474 C1466 0.930 . S
H1475 C1467 0.929 . S
H1476 C1484 0.929 . S
H1477 C1486 0.930 . S
H1478 C1488 0.930 . S
H1479 C1491 0.929 . S
H1480 C1494 0.930 . S
H1481 C1496 0.960 . S
H1482 C1496 0.960 . S
H1483 C1496 0.960 . S
C1484 H1476 0.929 . S
C1484 C1485 1.377 . S
C1484 C1486 1.384 . S
C1485 C1484 1.377 . S
C1485 C1491 1.390 . S
C1486 H1477 0.930 . S
C1486 C1484 1.384 . S
C1486 C1487 1.372 . S
C1487 C1486 1.372 . S
C1487 C1488 1.400 . S
C1487 C1492 1.490 . S
C1488 H1478 0.930 . S
C1488 C1487 1.400 . S
C1488 C1491 1.386 . S
H1489 C1505 0.930 . S
H1490 C1506 0.931 . S
C1491 H1479 0.929 . S
C1491 C1485 1.390 . S
C1491 C1488 1.386 . S
C1492 C1487 1.490 . S
C1492 C1494 1.395 . S
C1492 C1495 1.403 . S
H1493 C1499 0.930 . S
C1494 H1480 0.930 . S
C1494 C1492 1.395 . S
C1494 C1497 1.403 . S
C1495 C1492 1.403 . S
C1495 C1496 1.524 . S
C1495 C1499 1.400 . S
C1496 H1481 0.960 . S
C1496 H1482 0.960 . S
C1496 H1483 0.960 . S
C1496 C1495 1.524 . S
C1497 C1494 1.403 . S
C1497 C1498 1.392 . S
C1497 C1501 1.495 . S
C1498 C1497 1.392 . S
C1498 C1499 1.385 . S
C1498 C1500 1.478 . S
C1499 H1493 0.930 . S
C1499 C1495 1.400 . S
C1499 C1498 1.385 . S
C1500 C1498 1.478 . S
C1500 C1502 1.381 . S
C1500 C1506 1.383 . S
C1501 C1497 1.495 . S
C1501 H1507 0.959 . S
C1501 H1508 0.961 . S
C1501 H1509 0.960 . S
C1502 C1500 1.381 . S
C1502 C1503 1.394 . S
C1502 H1510 0.930 . S
C1503 C1502 1.394 . S
C1503 C1504 1.383 . S
C1503 H1511 0.929 . S
C1504 C1503 1.383 . S
C1504 C1505 1.377 . S
C1505 H1489 0.930 . S
C1505 C1504 1.377 . S
C1505 C1506 1.379 . S
C1506 H1490 0.931 . S
C1506 C1500 1.383 . S
C1506 C1505 1.379 . S
H1507 C1501 0.959 . S
H1508 C1501 0.961 . S
H1509 C1501 0.960 . S
H1510 C1502 0.930 . S
H1511 C1503 0.929 . S
H1512 C1520 0.929 . S
H1513 C1522 0.930 . S
H1514 C1524 0.930 . S
H1515 C1527 0.929 . S
H1516 C1530 0.930 . S
H1517 C1532 0.960 . S
H1518 C1532 0.960 . S
H1519 C1532 0.960 . S
C1520 H1512 0.929 . S
C1520 C1521 1.377 . S
C1520 C1522 1.384 . S
C1521 C1520 1.377 . S
C1521 C1527 1.390 . S
C1522 H1513 0.930 . S
C1522 C1520 1.384 . S
C1522 C1523 1.372 . S
C1523 C1522 1.372 . S
C1523 C1524 1.400 . S
C1523 C1528 1.490 . S
C1524 H1514 0.930 . S
C1524 C1523 1.400 . S
C1524 C1527 1.386 . S
H1525 C1541 0.930 . S
H1526 C1542 0.931 . S
C1527 H1515 0.929 . S
C1527 C1521 1.390 . S
C1527 C1524 1.386 . S
C1528 C1523 1.490 . S
C1528 C1530 1.395 . S
C1528 C1531 1.403 . S
H1529 C1535 0.930 . S
C1530 H1516 0.930 . S
C1530 C1528 1.395 . S
C1530 C1533 1.403 . S
C1531 C1528 1.403 . S
C1531 C1532 1.524 . S
C1531 C1535 1.400 . S
C1532 H1517 0.960 . S
C1532 H1518 0.960 . S
C1532 H1519 0.960 . S
C1532 C1531 1.524 . S
C1533 C1530 1.403 . S
C1533 C1534 1.392 . S
C1533 C1537 1.495 . S
C1534 C1533 1.392 . S
C1534 C1535 1.385 . S
C1534 C1536 1.478 . S
C1535 H1529 0.930 . S
C1535 C1531 1.400 . S
C1535 C1534 1.385 . S
C1536 C1534 1.478 . S
C1536 C1538 1.381 . S
C1536 C1542 1.383 . S
C1537 C1533 1.495 . S
C1537 H1543 0.959 . S
C1537 H1544 0.961 . S
C1537 H1545 0.960 . S
C1538 C1536 1.381 . S
C1538 C1539 1.394 . S
C1538 H1546 0.930 . S
C1539 C1538 1.394 . S
C1539 C1540 1.383 . S
C1539 H1547 0.929 . S
C1540 C1539 1.383 . S
C1540 C1541 1.377 . S
C1541 H1525 0.930 . S
C1541 C1540 1.377 . S
C1541 C1542 1.379 . S
C1542 H1526 0.931 . S
C1542 C1536 1.383 . S
C1542 C1541 1.379 . S
H1543 C1537 0.959 . S
H1544 C1537 0.961 . S
H1545 C1537 0.960 . S
H1546 C1538 0.930 . S
H1547 C1539 0.929 . S
H1548 C1556 0.929 . S
H1549 C1558 0.930 . S
H1550 C1560 0.930 . S
H1551 C1563 0.929 . S
H1552 C1566 0.930 . S
H1553 C1568 0.960 . S
H1554 C1568 0.960 . S
H1555 C1568 0.960 . S
C1556 H1548 0.929 . S
C1556 C1557 1.377 . S
C1556 C1558 1.384 . S
C1557 C1556 1.377 . S
C1557 C1563 1.390 . S
C1558 H1549 0.930 . S
C1558 C1556 1.384 . S
C1558 C1559 1.372 . S
C1559 C1558 1.372 . S
C1559 C1560 1.400 . S
C1559 C1564 1.490 . S
C1560 H1550 0.930 . S
C1560 C1559 1.400 . S
C1560 C1563 1.386 . S
H1561 C1577 0.930 . S
H1562 C1578 0.931 . S
C1563 H1551 0.929 . S
C1563 C1557 1.390 . S
C1563 C1560 1.386 . S
C1564 C1559 1.490 . S
C1564 C1566 1.395 . S
C1564 C1567 1.403 . S
H1565 C1571 0.930 . S
C1566 H1552 0.930 . S
C1566 C1564 1.395 . S
C1566 C1569 1.403 . S
C1567 C1564 1.403 . S
C1567 C1568 1.524 . S
C1567 C1571 1.400 . S
C1568 H1553 0.960 . S
C1568 H1554 0.960 . S
C1568 H1555 0.960 . S
C1568 C1567 1.524 . S
C1569 C1566 1.403 . S
C1569 C1570 1.392 . S
C1569 C1573 1.495 . S
C1570 C1569 1.392 . S
C1570 C1571 1.385 . S
C1570 C1572 1.478 . S
C1571 H1565 0.930 . S
C1571 C1567 1.400 . S
C1571 C1570 1.385 . S
C1572 C1570 1.478 . S
C1572 C1574 1.381 . S
C1572 C1578 1.383 . S
C1573 C1569 1.495 . S
C1573 H1579 0.959 . S
C1573 H1580 0.961 . S
C1573 H1581 0.960 . S
C1574 C1572 1.381 . S
C1574 C1575 1.394 . S
C1574 H1582 0.930 . S
C1575 C1574 1.394 . S
C1575 C1576 1.383 . S
C1575 H1583 0.929 . S
C1576 C1575 1.383 . S
C1576 C1577 1.377 . S
C1577 H1561 0.930 . S
C1577 C1576 1.377 . S
C1577 C1578 1.379 . S
C1578 H1562 0.931 . S
C1578 C1572 1.383 . S
C1578 C1577 1.379 . S
H1579 C1573 0.959 . S
H1580 C1573 0.961 . S
H1581 C1573 0.960 . S
H1582 C1574 0.930 . S
H1583 C1575 0.929 . S
H1584 C1592 0.929 . S
H1585 C1594 0.930 . S
H1586 C1596 0.930 . S
H1587 C1599 0.929 . S
H1588 C1602 0.930 . S
H1589 C1604 0.960 . S
H1590 C1604 0.960 . S
H1591 C1604 0.960 . S
C1592 H1584 0.929 . S
C1592 C1593 1.377 . S
C1592 C1594 1.384 . S
C1593 C1592 1.377 . S
C1593 C1599 1.390 . S
C1594 H1585 0.930 . S
C1594 C1592 1.384 . S
C1594 C1595 1.372 . S
C1595 C1594 1.372 . S
C1595 C1596 1.400 . S
C1595 C1600 1.490 . S
C1596 H1586 0.930 . S
C1596 C1595 1.400 . S
C1596 C1599 1.386 . S
H1597 C1613 0.930 . S
H1598 C1614 0.931 . S
C1599 H1587 0.929 . S
C1599 C1593 1.390 . S
C1599 C1596 1.386 . S
C1600 C1595 1.490 . S
C1600 C1602 1.395 . S
C1600 C1603 1.403 . S
H1601 C1607 0.930 . S
C1602 H1588 0.930 . S
C1602 C1600 1.395 . S
C1602 C1605 1.403 . S
C1603 C1600 1.403 . S
C1603 C1604 1.524 . S
C1603 C1607 1.400 . S
C1604 H1589 0.960 . S
C1604 H1590 0.960 . S
C1604 H1591 0.960 . S
C1604 C1603 1.524 . S
C1605 C1602 1.403 . S
C1605 C1606 1.392 . S
C1605 C1609 1.495 . S
C1606 C1605 1.392 . S
C1606 C1607 1.385 . S
C1606 C1608 1.478 . S
C1607 H1601 0.930 . S
C1607 C1603 1.400 . S
C1607 C1606 1.385 . S
C1608 C1606 1.478 . S
C1608 C1610 1.381 . S
C1608 C1614 1.383 . S
C1609 C1605 1.495 . S
C1609 H1615 0.959 . S
C1609 H1616 0.961 . S
C1609 H1617 0.960 . S
C1610 C1608 1.381 . S
C1610 C1611 1.394 . S
C1610 H1618 0.930 . S
C1611 C1610 1.394 . S
C1611 C1612 1.383 . S
C1611 H1619 0.929 . S
C1612 C1611 1.383 . S
C1612 C1613 1.377 . S
C1613 H1597 0.930 . S
C1613 C1612 1.377 . S
C1613 C1614 1.379 . S
C1614 H1598 0.931 . S
C1614 C1608 1.383 . S
C1614 C1613 1.379 . S
H1615 C1609 0.959 . S
H1616 C1609 0.961 . S
H1617 C1609 0.960 . S
H1618 C1610 0.930 . S
H1619 C1611 0.929 . S
H1620 C1628 0.929 . S
H1621 C1630 0.930 . S
H1622 C1632 0.930 . S
H1623 C1635 0.929 . S
H1624 C1638 0.930 . S
H1625 C1640 0.960 . S
H1626 C1640 0.960 . S
H1627 C1640 0.960 . S
C1628 H1620 0.929 . S
C1628 C1629 1.377 . S
C1628 C1630 1.384 . S
C1629 C1628 1.377 . S
C1629 C1635 1.390 . S
C1630 H1621 0.930 . S
C1630 C1628 1.384 . S
C1630 C1631 1.372 . S
C1631 C1630 1.372 . S
C1631 C1632 1.400 . S
C1631 C1636 1.490 . S
C1632 H1622 0.930 . S
C1632 C1631 1.400 . S
C1632 C1635 1.386 . S
H1633 C1649 0.930 . S
H1634 C1650 0.931 . S
C1635 H1623 0.929 . S
C1635 C1629 1.390 . S
C1635 C1632 1.386 . S
C1636 C1631 1.490 . S
C1636 C1638 1.395 . S
C1636 C1639 1.403 . S
H1637 C1643 0.930 . S
C1638 H1624 0.930 . S
C1638 C1636 1.395 . S
C1638 C1641 1.403 . S
C1639 C1636 1.403 . S
C1639 C1640 1.524 . S
C1639 C1643 1.400 . S
C1640 H1625 0.960 . S
C1640 H1626 0.960 . S
C1640 H1627 0.960 . S
C1640 C1639 1.524 . S
C1641 C1638 1.403 . S
C1641 C1642 1.392 . S
C1641 C1645 1.495 . S
C1642 C1641 1.392 . S
C1642 C1643 1.385 . S
C1642 C1644 1.478 . S
C1643 H1637 0.930 . S
C1643 C1639 1.400 . S
C1643 C1642 1.385 . S
C1644 C1642 1.478 . S
C1644 C1646 1.381 . S
C1644 C1650 1.383 . S
C1645 C1641 1.495 . S
C1645 H1651 0.959 . S
C1645 H1652 0.961 . S
C1645 H1653 0.960 . S
C1646 C1644 1.381 . S
C1646 C1647 1.394 . S
C1646 H1654 0.930 . S
C1647 C1646 1.394 . S
C1647 C1648 1.383 . S
C1647 H1655 0.929 . S
C1648 C1647 1.383 . S
C1648 C1649 1.377 . S
C1649 H1633 0.930 . S
C1649 C1648 1.377 . S
C1649 C1650 1.379 . S
C1650 H1634 0.931 . S
C1650 C1644 1.383 . S
C1650 C1649 1.379 . S
H1651 C1645 0.959 . S
H1652 C1645 0.961 . S
H1653 C1645 0.960 . S
H1654 C1646 0.930 . S
H1655 C1647 0.929 . S
H1656 C1664 0.929 . S
H1657 C1666 0.930 . S
H1658 C1668 0.930 . S
H1659 C1671 0.929 . S
H1660 C1674 0.930 . S
H1661 C1676 0.960 . S
H1662 C1676 0.960 . S
H1663 C1676 0.960 . S
C1664 H1656 0.929 . S
C1664 C1665 1.377 . S
C1664 C1666 1.384 . S
C1665 C1664 1.377 . S
C1665 C1671 1.390 . S
C1666 H1657 0.930 . S
C1666 C1664 1.384 . S
C1666 C1667 1.372 . S
C1667 C1666 1.372 . S
C1667 C1668 1.400 . S
C1667 C1672 1.490 . S
C1668 H1658 0.930 . S
C1668 C1667 1.400 . S
C1668 C1671 1.386 . S
H1669 C1685 0.930 . S
H1670 C1686 0.931 . S
C1671 H1659 0.929 . S
C1671 C1665 1.390 . S
C1671 C1668 1.386 . S
C1672 C1667 1.490 . S
C1672 C1674 1.395 . S
C1672 C1675 1.403 . S
H1673 C1679 0.930 . S
C1674 H1660 0.930 . S
C1674 C1672 1.395 . S
C1674 C1677 1.403 . S
C1675 C1672 1.403 . S
C1675 C1676 1.524 . S
C1675 C1679 1.400 . S
C1676 H1661 0.960 . S
C1676 H1662 0.960 . S
C1676 H1663 0.960 . S
C1676 C1675 1.524 . S
C1677 C1674 1.403 . S
C1677 C1678 1.392 . S
C1677 C1681 1.495 . S
C1678 C1677 1.392 . S
C1678 C1679 1.385 . S
C1678 C1680 1.478 . S
C1679 H1673 0.930 . S
C1679 C1675 1.400 . S
C1679 C1678 1.385 . S
C1680 C1678 1.478 . S
C1680 C1682 1.381 . S
C1680 C1686 1.383 . S
C1681 C1677 1.495 . S
C1681 H1687 0.959 . S
C1681 H1688 0.961 . S
C1681 H1689 0.960 . S
C1682 C1680 1.381 . S
C1682 C1683 1.394 . S
C1682 H1690 0.930 . S
C1683 C1682 1.394 . S
C1683 C1684 1.383 . S
C1683 H1691 0.929 . S
C1684 C1683 1.383 . S
C1684 C1685 1.377 . S
C1685 H1669 0.930 . S
C1685 C1684 1.377 . S
C1685 C1686 1.379 . S
C1686 H1670 0.931 . S
C1686 C1680 1.383 . S
C1686 C1685 1.379 . S
H1687 C1681 0.959 . S
H1688 C1681 0.961 . S
H1689 C1681 0.960 . S
H1690 C1682 0.930 . S
H1691 C1683 0.929 . S
H1692 C1700 0.929 . S
H1693 C1702 0.930 . S
H1694 C1704 0.930 . S
H1695 C1707 0.929 . S
H1696 C1710 0.930 . S
H1697 C1712 0.960 . S
H1698 C1712 0.960 . S
H1699 C1712 0.960 . S
C1700 H1692 0.929 . S
C1700 C1701 1.377 . S
C1700 C1702 1.384 . S
C1701 C1700 1.377 . S
C1701 C1707 1.390 . S
C1702 H1693 0.930 . S
C1702 C1700 1.384 . S
C1702 C1703 1.372 . S
C1703 C1702 1.372 . S
C1703 C1704 1.400 . S
C1703 C1708 1.490 . S
C1704 H1694 0.930 . S
C1704 C1703 1.400 . S
C1704 C1707 1.386 . S
H1705 C1721 0.930 . S
H1706 C1722 0.931 . S
C1707 H1695 0.929 . S
C1707 C1701 1.390 . S
C1707 C1704 1.386 . S
C1708 C1703 1.490 . S
C1708 C1710 1.395 . S
C1708 C1711 1.403 . S
H1709 C1715 0.930 . S
C1710 H1696 0.930 . S
C1710 C1708 1.395 . S
C1710 C1713 1.403 . S
C1711 C1708 1.403 . S
C1711 C1712 1.524 . S
C1711 C1715 1.400 . S
C1712 H1697 0.960 . S
C1712 H1698 0.960 . S
C1712 H1699 0.960 . S
C1712 C1711 1.524 . S
C1713 C1710 1.403 . S
C1713 C1714 1.392 . S
C1713 C1717 1.495 . S
C1714 C1713 1.392 . S
C1714 C1715 1.385 . S
C1714 C1716 1.478 . S
C1715 H1709 0.930 . S
C1715 C1711 1.400 . S
C1715 C1714 1.385 . S
C1716 C1714 1.478 . S
C1716 C1718 1.381 . S
C1716 C1722 1.383 . S
C1717 C1713 1.495 . S
C1717 H1723 0.959 . S
C1717 H1724 0.961 . S
C1717 H1725 0.960 . S
C1718 C1716 1.381 . S
C1718 C1719 1.394 . S
C1718 H1726 0.930 . S
C1719 C1718 1.394 . S
C1719 C1720 1.383 . S
C1719 H1727 0.929 . S
C1720 C1719 1.383 . S
C1720 C1721 1.377 . S
C1721 H1705 0.930 . S
C1721 C1720 1.377 . S
C1721 C1722 1.379 . S
C1722 H1706 0.931 . S
C1722 C1716 1.383 . S
C1722 C1721 1.379 . S
H1723 C1717 0.959 . S
H1724 C1717 0.961 . S
H1725 C1717 0.960 . S
H1726 C1718 0.930 . S
H1727 C1719 0.929 . S
H1728 C1736 0.929 . S
H1729 C1738 0.930 . S
H1730 C1740 0.930 . S
H1731 C1743 0.929 . S
H1732 C1746 0.930 . S
H1733 C1748 0.960 . S
H1734 C1748 0.960 . S
H1735 C1748 0.960 . S
C1736 H1728 0.929 . S
C1736 C1737 1.377 . S
C1736 C1738 1.384 . S
C1737 C1736 1.377 . S
C1737 C1743 1.390 . S
C1738 H1729 0.930 . S
C1738 C1736 1.384 . S
C1738 C1739 1.372 . S
C1739 C1738 1.372 . S
C1739 C1740 1.400 . S
C1739 C1744 1.490 . S
C1740 H1730 0.930 . S
C1740 C1739 1.400 . S
C1740 C1743 1.386 . S
H1741 C1757 0.930 . S
H1742 C1758 0.931 . S
C1743 H1731 0.929 . S
C1743 C1737 1.390 . S
C1743 C1740 1.386 . S
C1744 C1739 1.490 . S
C1744 C1746 1.395 . S
C1744 C1747 1.403 . S
H1745 C1751 0.930 . S
C1746 H1732 0.930 . S
C1746 C1744 1.395 . S
C1746 C1749 1.403 . S
C1747 C1744 1.403 . S
C1747 C1748 1.524 . S
C1747 C1751 1.400 . S
C1748 H1733 0.960 . S
C1748 H1734 0.960 . S
C1748 H1735 0.960 . S
C1748 C1747 1.524 . S
C1749 C1746 1.403 . S
C1749 C1750 1.392 . S
C1749 C1753 1.495 . S
C1750 C1749 1.392 . S
C1750 C1751 1.385 . S
C1750 C1752 1.478 . S
C1751 H1745 0.930 . S
C1751 C1747 1.400 . S
C1751 C1750 1.385 . S
C1752 C1750 1.478 . S
C1752 C1754 1.381 . S
C1752 C1758 1.383 . S
C1753 C1749 1.495 . S
C1753 H1759 0.959 . S
C1753 H1760 0.961 . S
C1753 H1761 0.960 . S
C1754 C1752 1.381 . S
C1754 C1755 1.394 . S
C1754 H1762 0.930 . S
C1755 C1754 1.394 . S
C1755 C1756 1.383 . S
C1755 H1763 0.929 . S
C1756 C1755 1.383 . S
C1756 C1757 1.377 . S
C1757 H1741 0.930 . S
C1757 C1756 1.377 . S
C1757 C1758 1.379 . S
C1758 H1742 0.931 . S
C1758 C1752 1.383 . S
C1758 C1757 1.379 . S
H1759 C1753 0.959 . S
H1760 C1753 0.961 . S
H1761 C1753 0.960 . S
H1762 C1754 0.930 . S
H1763 C1755 0.929 . S
H1764 C1772 0.929 . S
H1765 C1774 0.930 . S
H1766 C1776 0.930 . S
H1767 C1779 0.929 . S
H1768 C1782 0.930 . S
H1769 C1784 0.960 . S
H1770 C1784 0.960 . S
H1771 C1784 0.960 . S
C1772 H1764 0.929 . S
C1772 C1773 1.377 . S
C1772 C1774 1.384 . S
C1773 C1772 1.377 . S
C1773 C1779 1.390 . S
C1774 H1765 0.930 . S
C1774 C1772 1.384 . S
C1774 C1775 1.372 . S
C1775 C1774 1.372 . S
C1775 C1776 1.400 . S
C1775 C1780 1.490 . S
C1776 H1766 0.930 . S
C1776 C1775 1.400 . S
C1776 C1779 1.386 . S
H1777 C1793 0.930 . S
H1778 C1794 0.931 . S
C1779 H1767 0.929 . S
C1779 C1773 1.390 . S
C1779 C1776 1.386 . S
C1780 C1775 1.490 . S
C1780 C1782 1.395 . S
C1780 C1783 1.403 . S
H1781 C1787 0.930 . S
C1782 H1768 0.930 . S
C1782 C1780 1.395 . S
C1782 C1785 1.403 . S
C1783 C1780 1.403 . S
C1783 C1784 1.524 . S
C1783 C1787 1.400 . S
C1784 H1769 0.960 . S
C1784 H1770 0.960 . S
C1784 H1771 0.960 . S
C1784 C1783 1.524 . S
C1785 C1782 1.403 . S
C1785 C1786 1.392 . S
C1785 C1789 1.495 . S
C1786 C1785 1.392 . S
C1786 C1787 1.385 . S
C1786 C1788 1.478 . S
C1787 H1781 0.930 . S
C1787 C1783 1.400 . S
C1787 C1786 1.385 . S
C1788 C1786 1.478 . S
C1788 C1790 1.381 . S
C1788 C1794 1.383 . S
C1789 C1785 1.495 . S
C1789 H1795 0.959 . S
C1789 H1796 0.961 . S
C1789 H1797 0.960 . S
C1790 C1788 1.381 . S
C1790 C1791 1.394 . S
C1790 H1798 0.930 . S
C1791 C1790 1.394 . S
C1791 C1792 1.383 . S
C1791 H1799 0.929 . S
C1792 C1791 1.383 . S
C1792 C1793 1.377 . S
C1793 H1777 0.930 . S
C1793 C1792 1.377 . S
C1793 C1794 1.379 . S
C1794 H1778 0.931 . S
C1794 C1788 1.383 . S
C1794 C1793 1.379 . S
H1795 C1789 0.959 . S
H1796 C1789 0.961 . S
H1797 C1789 0.960 . S
H1798 C1790 0.930 . S
H1799 C1791 0.929 . S
H1800 C1808 0.929 . S
H1801 C1810 0.930 . S
H1802 C1812 0.930 . S
H1803 C1815 0.929 . S
H1804 C1818 0.930 . S
H1805 C1820 0.960 . S
H1806 C1820 0.960 . S
H1807 C1820 0.960 . S
C1808 H1800 0.929 . S
C1808 C1809 1.377 . S
C1808 C1810 1.384 . S
C1809 C1808 1.377 . S
C1809 C1815 1.390 . S
C1810 H1801 0.930 . S
C1810 C1808 1.384 . S
C1810 C1811 1.372 . S
C1811 C1810 1.372 . S
C1811 C1812 1.400 . S
C1811 C1816 1.490 . S
C1812 H1802 0.930 . S
C1812 C1811 1.400 . S
C1812 C1815 1.386 . S
H1813 C1829 0.930 . S
H1814 C1830 0.931 . S
C1815 H1803 0.929 . S
C1815 C1809 1.390 . S
C1815 C1812 1.386 . S
C1816 C1811 1.490 . S
C1816 C1818 1.395 . S
C1816 C1819 1.403 . S
H1817 C1823 0.930 . S
C1818 H1804 0.930 . S
C1818 C1816 1.395 . S
C1818 C1821 1.403 . S
C1819 C1816 1.403 . S
C1819 C1820 1.524 . S
C1819 C1823 1.400 . S
C1820 H1805 0.960 . S
C1820 H1806 0.960 . S
C1820 H1807 0.960 . S
C1820 C1819 1.524 . S
C1821 C1818 1.403 . S
C1821 C1822 1.392 . S
C1821 C1825 1.495 . S
C1822 C1821 1.392 . S
C1822 C1823 1.385 . S
C1822 C1824 1.478 . S
C1823 H1817 0.930 . S
C1823 C1819 1.400 . S
C1823 C1822 1.385 . S
C1824 C1822 1.478 . S
C1824 C1826 1.381 . S
C1824 C1830 1.383 . S
C1825 C1821 1.495 . S
C1825 H1831 0.959 . S
C1825 H1832 0.961 . S
C1825 H1833 0.960 . S
C1826 C1824 1.381 . S
C1826 C1827 1.394 . S
C1826 H1834 0.930 . S
C1827 C1826 1.394 . S
C1827 C1828 1.383 . S
C1827 H1835 0.929 . S
C1828 C1827 1.383 . S
C1828 C1829 1.377 . S
C1829 H1813 0.930 . S
C1829 C1828 1.377 . S
C1829 C1830 1.379 . S
C1830 H1814 0.931 . S
C1830 C1824 1.383 . S
C1830 C1829 1.379 . S
H1831 C1825 0.959 . S
H1832 C1825 0.961 . S
H1833 C1825 0.960 . S
H1834 C1826 0.930 . S
H1835 C1827 0.929 . S
H1836 C1844 0.929 . S
H1837 C1846 0.930 . S
H1838 C1848 0.930 . S
H1839 C1851 0.929 . S
H1840 C1854 0.930 . S
H1841 C1856 0.960 1_545 S
H1842 C1856 0.955 . S
H1843 C1856 0.960 . S
C1844 H1836 0.929 . S
C1844 C1845 1.377 . S
C1844 C1846 1.384 . S
C1845 C1844 1.377 . S
C1845 C1851 1.390 . S
C1846 H1837 0.930 . S
C1846 C1844 1.384 . S
C1846 C1847 1.372 . S
C1847 C1846 1.372 . S
C1847 C1848 1.400 . S
C1847 C1852 1.490 . S
C1848 H1838 0.930 . S
C1848 C1847 1.400 . S
C1848 C1851 1.386 . S
H1849 C1865 0.930 . S
H1850 C1866 0.931 . S
C1851 H1839 0.929 . S
C1851 C1845 1.390 . S
C1851 C1848 1.386 . S
C1852 C1847 1.490 . S
C1852 C1854 1.395 . S
C1852 C1855 1.403 . S
H1853 C1859 0.930 . S
C1854 H1840 0.930 . S
C1854 C1852 1.395 . S
C1854 C1857 1.383 1_565 S
C1855 C1852 1.403 . S
C1855 C1856 1.524 . S
C1855 C1859 1.400 1_565 S
C1856 H1841 0.960 1_565 S
C1856 H1842 0.955 . S
C1856 H1843 0.960 . S
C1856 C1855 1.524 . S
C1857 C1854 1.383 1_545 S
C1857 C1858 1.425 . S
C1857 C1861 1.483 . S
C1858 C1857 1.425 . S
C1858 C1859 1.385 . S
C1858 C1860 1.478 . S
C1859 H1853 0.930 . S
C1859 C1855 1.400 1_545 S
C1859 C1858 1.385 . S
C1860 C1858 1.478 . S
C1860 C1862 1.381 . S
C1860 C1866 1.383 . S
C1861 C1857 1.483 . S
C1861 H1867 0.959 1_545 S
C1861 H1868 0.959 . S
C1861 H1869 0.960 . S
C1862 C1860 1.381 . S
C1862 C1863 1.394 . S
C1862 H1870 0.930 . S
C1863 C1862 1.394 . S
C1863 C1864 1.383 . S
C1863 H1871 0.929 . S
C1864 C1863 1.383 . S
C1864 C1865 1.377 . S
C1865 H1849 0.930 . S
C1865 C1864 1.377 . S
C1865 C1866 1.379 . S
C1866 H1850 0.931 . S
C1866 C1860 1.383 . S
C1866 C1865 1.379 . S
H1867 C1861 0.959 1_565 S
H1868 C1861 0.959 . S
H1869 C1861 0.960 . S
H1870 C1862 0.930 . S
H1871 C1863 0.929 . S
H1872 C1880 0.929 . S
H1873 C1882 0.930 . S
H1874 C1884 0.930 . S
H1875 C1887 0.929 . S
H1876 C1890 0.916 . S
H1877 C1892 0.960 . S
H1878 C1892 0.960 . S
H1879 C1892 0.960 . S
C1880 H1872 0.929 . S
C1880 C1881 1.377 . S
C1880 C1882 1.384 . S
C1881 C1880 1.377 . S
C1881 C1887 1.390 . S
C1882 H1873 0.930 . S
C1882 C1880 1.384 . S
C1882 C1883 1.372 . S
C1883 C1882 1.372 . S
C1883 C1884 1.400 . S
C1883 C1888 1.490 . S
C1884 H1874 0.930 . S
C1884 C1883 1.400 . S
C1884 C1887 1.386 . S
H1885 C1901 0.930 . S
H1886 C1902 0.931 . S
C1887 H1875 0.929 . S
C1887 C1881 1.390 . S
C1887 C1884 1.386 . S
C1888 C1883 1.490 . S
C1888 C1890 1.461 . S
C1888 C1891 1.403 . S
H1889 C1895 0.930 . S
C1890 H1876 0.916 . S
C1890 C1888 1.461 . S
C1890 C1893 1.354 1_655 S
C1891 C1888 1.403 . S
C1891 C1892 1.524 . S
C1891 C1895 1.400 1_655 S
C1892 H1877 0.960 . S
C1892 H1878 0.960 . S
C1892 H1879 0.960 . S
C1892 C1891 1.524 . S
C1893 C1890 1.354 1_455 S
C1893 C1894 1.392 . S
C1893 C1897 1.495 . S
C1894 C1893 1.392 . S
C1894 C1895 1.385 . S
C1894 C1896 1.478 . S
C1895 H1889 0.930 . S
C1895 C1891 1.400 1_455 S
C1895 C1894 1.385 . S
C1896 C1894 1.478 . S
C1896 C1898 1.381 . S
C1896 C1902 1.383 . S
C1897 C1893 1.495 . S
C1897 H1903 0.959 . S
C1897 H1904 0.961 . S
C1897 H1905 0.960 . S
C1898 C1896 1.381 . S
C1898 C1899 1.394 . S
C1898 H1906 0.930 . S
C1899 C1898 1.394 . S
C1899 C1900 1.383 . S
C1899 H1907 0.929 . S
C1900 C1899 1.383 . S
C1900 C1901 1.377 . S
C1901 H1885 0.930 . S
C1901 C1900 1.377 . S
C1901 C1902 1.379 . S
C1902 H1886 0.931 . S
C1902 C1896 1.383 . S
C1902 C1901 1.379 . S
H1903 C1897 0.959 . S
H1904 C1897 0.961 . S
H1905 C1897 0.960 . S
H1906 C1898 0.930 . S
H1907 C1899 0.929 . S
H1908 C1916 0.929 . S
H1909 C1918 0.930 . S
H1910 C1920 0.930 . S
H1911 C1923 0.929 . S
H1912 C1926 0.930 . S
H1913 C1928 0.960 . S
H1914 C1928 0.960 . S
H1915 C1928 0.960 . S
C1916 H1908 0.929 . S
C1916 C1917 1.377 . S
C1916 C1918 1.384 . S
C1917 C1916 1.377 . S
C1917 C1923 1.390 . S
C1918 H1909 0.930 . S
C1918 C1916 1.384 . S
C1918 C1919 1.372 . S
C1919 C1918 1.372 . S
C1919 C1920 1.400 . S
C1919 C1924 1.490 . S
C1920 H1910 0.930 . S
C1920 C1919 1.400 . S
C1920 C1923 1.386 . S
H1921 C1937 0.930 . S
H1922 C1938 0.931 . S
C1923 H1911 0.929 . S
C1923 C1917 1.390 . S
C1923 C1920 1.386 . S
C1924 C1919 1.490 . S
C1924 C1926 1.395 . S
C1924 C1927 1.403 . S
H1925 C1931 0.930 . S
C1926 H1912 0.930 . S
C1926 C1924 1.395 . S
C1926 C1929 1.403 . S
C1927 C1924 1.403 . S
C1927 C1928 1.524 . S
C1927 C1931 1.400 . S
C1928 H1913 0.960 . S
C1928 H1914 0.960 . S
C1928 H1915 0.960 . S
C1928 C1927 1.524 . S
C1929 C1926 1.403 . S
C1929 C1930 1.392 . S
C1929 C1933 1.495 . S
C1930 C1929 1.392 . S
C1930 C1931 1.385 . S
C1930 C1932 1.478 . S
C1931 H1925 0.930 . S
C1931 C1927 1.400 . S
C1931 C1930 1.385 . S
C1932 C1930 1.478 . S
C1932 C1934 1.381 . S
C1932 C1938 1.383 . S
C1933 C1929 1.495 . S
C1933 H1939 0.959 . S
C1933 H1940 0.961 . S
C1933 H1941 0.960 . S
C1934 C1932 1.381 . S
C1934 C1935 1.394 . S
C1934 H1942 0.930 . S
C1935 C1934 1.394 . S
C1935 C1936 1.383 . S
C1935 H1943 0.929 . S
C1936 C1935 1.383 . S
C1936 C1937 1.377 . S
C1937 H1921 0.930 . S
C1937 C1936 1.377 . S
C1937 C1938 1.379 . S
C1938 H1922 0.931 . S
C1938 C1932 1.383 . S
C1938 C1937 1.379 . S
H1939 C1933 0.959 . S
H1940 C1933 0.961 . S
H1941 C1933 0.960 . S
H1942 C1934 0.930 . S
H1943 C1935 0.929 . S
H1944 C1952 0.929 . S
H1945 C1954 0.930 . S
H1946 C1956 0.930 . S
H1947 C1959 0.929 . S
H1948 C1962 0.930 . S
H1949 C1964 0.960 . S
H1950 C1964 0.960 . S
H1951 C1964 0.987 . S
C1952 H1944 0.929 . S
C1952 C1953 1.377 . S
C1952 C1954 1.384 . S
C1953 C1952 1.377 . S
C1953 C1959 1.390 . S
C1954 H1945 0.930 . S
C1954 C1952 1.384 . S
C1954 C1955 1.372 . S
C1955 C1954 1.372 . S
C1955 C1956 1.400 . S
C1955 C1960 1.490 . S
C1956 H1946 0.930 . S
C1956 C1955 1.400 . S
C1956 C1959 1.386 . S
H1957 C1973 0.930 . S
H1958 C1974 0.931 . S
C1959 H1947 0.929 . S
C1959 C1953 1.390 . S
C1959 C1956 1.386 . S
C1960 C1955 1.490 . S
C1960 C1962 1.395 . S
C1960 C1963 1.403 1_545 S
H1961 C1967 0.930 . S
C1962 H1948 0.930 . S
C1962 C1960 1.395 . S
C1962 C1965 1.403 . S
C1963 C1960 1.403 1_565 S
C1963 C1964 1.524 . S
C1963 C1967 1.400 . S
C1964 H1949 0.960 . S
C1964 H1950 0.960 . S
C1964 H1951 0.987 . S
C1964 C1963 1.524 . S
C1965 C1962 1.403 . S
C1965 C1966 1.392 1_545 S
C1965 C1969 1.495 . S
C1966 C1965 1.392 1_565 S
C1966 C1967 1.385 . S
C1966 C1968 1.478 . S
C1967 H1961 0.930 . S
C1967 C1963 1.400 . S
C1967 C1966 1.385 . S
C1968 C1966 1.478 . S
C1968 C1970 1.381 . S
C1968 C1974 1.383 . S
C1969 C1965 1.495 . S
C1969 H1975 0.959 . S
C1969 H1976 0.961 . S
C1969 H1977 0.961 . S
C1970 C1968 1.381 . S
C1970 C1971 1.394 . S
C1970 H1978 0.930 . S
C1971 C1970 1.394 . S
C1971 C1972 1.383 . S
C1971 H1979 0.929 . S
C1972 C1971 1.383 . S
C1972 C1973 1.377 . S
C1973 H1957 0.930 . S
C1973 C1972 1.377 . S
C1973 C1974 1.379 . S
C1974 H1958 0.931 . S
C1974 C1968 1.383 . S
C1974 C1973 1.379 . S
H1975 C1969 0.959 . S
H1976 C1969 0.961 . S
H1977 C1969 0.961 . S
H1978 C1970 0.930 . S
H1979 C1971 0.929 . S
H1980 C1988 0.929 . S
H1981 C1990 0.930 . S
H1982 C1992 0.930 . S
H1983 C1995 0.929 . S
H1984 C1998 0.930 . S
H1985 C2000 0.960 1_455 S
H1986 C2000 0.960 . S
H1987 C2000 0.960 . S
C1988 H1980 0.929 . S
C1988 C1989 1.377 . S
C1988 C1990 1.384 . S
C1989 C1988 1.377 . S
C1989 C1995 1.390 . S
C1990 H1981 0.930 . S
C1990 C1988 1.384 . S
C1990 C1991 1.372 . S
C1991 C1990 1.372 . S
C1991 C1992 1.400 . S
C1991 C1996 1.490 . S
C1992 H1982 0.930 . S
C1992 C1991 1.400 . S
C1992 C1995 1.386 . S
H1993 C2009 0.930 . S
H1994 C2010 0.931 . S
C1995 H1983 0.929 . S
C1995 C1989 1.390 . S
C1995 C1992 1.386 . S
C1996 C1991 1.490 . S
C1996 C1998 1.395 . S
C1996 C1999 1.403 . S
H1997 C2003 0.930 . S
C1998 H1984 0.930 . S
C1998 C1996 1.395 . S
C1998 C2001 1.403 1_655 S
C1999 C1996 1.403 . S
C1999 C2000 1.524 . S
C1999 C2003 1.400 1_655 S
C2000 H1985 0.960 1_655 S
C2000 H1986 0.960 . S
C2000 H1987 0.960 . S
C2000 C1999 1.524 . S
C2001 C1998 1.403 1_455 S
C2001 C2002 1.392 . S
C2001 C2005 1.495 . S
C2002 C2001 1.392 . S
C2002 C2003 1.385 . S
C2002 C2004 1.478 . S
C2003 H1997 0.930 . S
C2003 C1999 1.400 1_455 S
C2003 C2002 1.385 . S
C2004 C2002 1.478 . S
C2004 C2006 1.381 . S
C2004 C2010 1.383 . S
C2005 C2001 1.495 . S
C2005 H2011 0.959 1_455 S
C2005 H2012 0.961 . S
C2005 H2013 0.960 . S
C2006 C2004 1.381 . S
C2006 C2007 1.394 . S
C2006 H2014 0.930 . S
C2007 C2006 1.394 . S
C2007 C2008 1.383 . S
C2007 H2015 0.929 . S
C2008 C2007 1.383 . S
C2008 C2009 1.377 . S
C2009 H1993 0.930 . S
C2009 C2008 1.377 . S
C2009 C2010 1.379 . S
C2010 H1994 0.931 . S
C2010 C2004 1.383 . S
C2010 C2009 1.379 . S
H2011 C2005 0.959 1_655 S
H2012 C2005 0.961 . S
H2013 C2005 0.960 . S
H2014 C2006 0.930 . S
H2015 C2007 0.929 . S
H2016 C2024 0.929 . S
H2017 C2026 0.930 . S
H2018 C2028 0.930 . S
H2019 C2031 0.929 . S
H2020 C2034 0.930 . S
H2021 C2036 0.960 . S
H2022 C2036 0.960 . S
H2023 C2036 0.960 . S
C2024 H2016 0.929 . S
C2024 C2025 1.377 . S
C2024 C2026 1.384 . S
C2025 C2024 1.377 . S
C2025 C2031 1.390 . S
C2026 H2017 0.930 . S
C2026 C2024 1.384 . S
C2026 C2027 1.372 . S
C2027 C2026 1.372 . S
C2027 C2028 1.400 . S
C2027 C2032 1.490 . S
C2028 H2018 0.930 . S
C2028 C2027 1.400 . S
C2028 C2031 1.386 . S
H2029 C2045 0.930 . S
H2030 C2046 0.931 . S
C2031 H2019 0.929 . S
C2031 C2025 1.390 . S
C2031 C2028 1.386 . S
C2032 C2027 1.490 . S
C2032 C2034 1.395 . S
C2032 C2035 1.403 . S
H2033 C2039 0.930 . S
C2034 H2020 0.930 . S
C2034 C2032 1.395 . S
C2034 C2037 1.403 . S
C2035 C2032 1.403 . S
C2035 C2036 1.524 . S
C2035 C2039 1.400 . S
C2036 H2021 0.960 . S
C2036 H2022 0.960 . S
C2036 H2023 0.960 . S
C2036 C2035 1.524 . S
C2037 C2034 1.403 . S
C2037 C2038 1.392 . S
C2037 C2041 1.495 . S
C2038 C2037 1.392 . S
C2038 C2039 1.385 . S
C2038 C2040 1.478 . S
C2039 H2033 0.930 . S
C2039 C2035 1.400 . S
C2039 C2038 1.385 . S
C2040 C2038 1.478 . S
C2040 C2042 1.381 . S
C2040 C2046 1.383 . S
C2041 C2037 1.495 . S
C2041 H2047 0.959 . S
C2041 H2048 0.961 . S
C2041 H2049 0.960 . S
C2042 C2040 1.381 . S
C2042 C2043 1.394 . S
C2042 H2050 0.930 . S
C2043 C2042 1.394 . S
C2043 C2044 1.383 . S
C2043 H2051 0.929 . S
C2044 C2043 1.383 . S
C2044 C2045 1.377 . S
C2045 H2029 0.930 . S
C2045 C2044 1.377 . S
C2045 C2046 1.379 . S
C2046 H2030 0.931 . S
C2046 C2040 1.383 . S
C2046 C2045 1.379 . S
H2047 C2041 0.959 . S
H2048 C2041 0.961 . S
H2049 C2041 0.960 . S
H2050 C2042 0.930 . S
H2051 C2043 0.929 . S
H2052 C2060 0.929 . S
H2053 C2062 0.930 . S
H2054 C2064 0.930 . S
H2055 C2067 0.929 . S
H2056 C2070 0.930 . S
H2057 C2072 0.960 . S
H2058 C2072 0.960 . S
H2059 C2072 0.960 . S
C2060 H2052 0.929 . S
C2060 C2061 1.377 . S
C2060 C2062 1.384 . S
C2061 C2060 1.377 . S
C2061 C2067 1.390 . S
C2062 H2053 0.930 . S
C2062 C2060 1.384 . S
C2062 C2063 1.372 . S
C2063 C2062 1.372 . S
C2063 C2064 1.400 . S
C2063 C2068 1.490 . S
C2064 H2054 0.930 . S
C2064 C2063 1.400 . S
C2064 C2067 1.386 . S
H2065 C2081 0.930 . S
H2066 C2082 0.931 . S
C2067 H2055 0.929 . S
C2067 C2061 1.390 . S
C2067 C2064 1.386 . S
C2068 C2063 1.490 . S
C2068 C2070 1.395 . S
C2068 C2071 1.403 . S
H2069 C2075 0.930 . S
C2070 H2056 0.930 . S
C2070 C2068 1.395 . S
C2070 C2073 1.403 . S
C2071 C2068 1.403 . S
C2071 C2072 1.524 . S
C2071 C2075 1.400 . S
C2072 H2057 0.960 . S
C2072 H2058 0.960 . S
C2072 H2059 0.960 . S
C2072 C2071 1.524 . S
C2073 C2070 1.403 . S
C2073 C2074 1.392 . S
C2073 C2077 1.495 . S
C2074 C2073 1.392 . S
C2074 C2075 1.385 . S
C2074 C2076 1.478 . S
C2075 H2069 0.930 . S
C2075 C2071 1.400 . S
C2075 C2074 1.385 . S
C2076 C2074 1.478 . S
C2076 C2078 1.381 . S
C2076 C2082 1.383 . S
C2077 C2073 1.495 . S
C2077 H2083 0.959 . S
C2077 H2084 0.961 . S
C2077 H2085 0.960 . S
C2078 C2076 1.381 . S
C2078 C2079 1.394 . S
C2078 H2086 0.930 . S
C2079 C2078 1.394 . S
C2079 C2080 1.383 . S
C2079 H2087 0.929 . S
C2080 C2079 1.383 . S
C2080 C2081 1.377 . S
C2081 H2065 0.930 . S
C2081 C2080 1.377 . S
C2081 C2082 1.379 . S
C2082 H2066 0.931 . S
C2082 C2076 1.383 . S
C2082 C2081 1.379 . S
H2083 C2077 0.959 . S
H2084 C2077 0.961 . S
H2085 C2077 0.960 . S
H2086 C2078 0.930 . S
H2087 C2079 0.929 . S
H2088 C2096 0.929 . S
H2089 C2098 0.930 . S
H2090 C2100 0.930 . S
H2091 C2103 0.929 . S
H2092 C2106 0.930 . S
H2093 C2108 0.960 . S
H2094 C2108 0.960 . S
H2095 C2108 0.960 . S
C2096 H2088 0.929 . S
C2096 C2097 1.377 . S
C2096 C2098 1.384 . S
C2097 C2096 1.377 . S
C2097 C2103 1.390 . S
C2098 H2089 0.930 . S
C2098 C2096 1.384 . S
C2098 C2099 1.372 . S
C2099 C2098 1.372 . S
C2099 C2100 1.400 . S
C2099 C2104 1.490 . S
C2100 H2090 0.930 . S
C2100 C2099 1.400 . S
C2100 C2103 1.386 . S
H2101 C2117 0.930 . S
H2102 C2118 0.931 . S
C2103 H2091 0.929 . S
C2103 C2097 1.390 . S
C2103 C2100 1.386 . S
C2104 C2099 1.490 . S
C2104 C2106 1.395 . S
C2104 C2107 1.403 . S
H2105 C2111 0.930 . S
C2106 H2092 0.930 . S
C2106 C2104 1.395 . S
C2106 C2109 1.403 . S
C2107 C2104 1.403 . S
C2107 C2108 1.524 . S
C2107 C2111 1.400 . S
C2108 H2093 0.960 . S
C2108 H2094 0.960 . S
C2108 H2095 0.960 . S
C2108 C2107 1.524 . S
C2109 C2106 1.403 . S
C2109 C2110 1.392 . S
C2109 C2113 1.495 . S
C2110 C2109 1.392 . S
C2110 C2111 1.385 . S
C2110 C2112 1.478 . S
C2111 H2105 0.930 . S
C2111 C2107 1.400 . S
C2111 C2110 1.385 . S
C2112 C2110 1.478 . S
C2112 C2114 1.381 . S
C2112 C2118 1.383 . S
C2113 C2109 1.495 . S
C2113 H2119 0.959 . S
C2113 H2120 0.961 . S
C2113 H2121 0.960 . S
C2114 C2112 1.381 . S
C2114 C2115 1.394 . S
C2114 H2122 0.930 . S
C2115 C2114 1.394 . S
C2115 C2116 1.383 . S
C2115 H2123 0.929 . S
C2116 C2115 1.383 . S
C2116 C2117 1.377 . S
C2117 H2101 0.930 . S
C2117 C2116 1.377 . S
C2117 C2118 1.379 . S
C2118 H2102 0.931 . S
C2118 C2112 1.383 . S
C2118 C2117 1.379 . S
H2119 C2113 0.959 . S
H2120 C2113 0.961 . S
H2121 C2113 0.960 . S
H2122 C2114 0.930 . S
H2123 C2115 0.929 . S
H2124 C2132 0.929 1_556 S
H2125 C2134 0.930 . S
H2126 C2136 0.930 . S
H2127 C2139 0.929 . S
H2128 C2142 0.930 . S
H2129 C2144 0.960 . S
H2130 C2144 0.960 . S
H2131 C2144 0.960 . S
C2132 H2124 0.929 1_554 S
C2132 C2133 1.377 . S
C2132 C2134 1.384 . S
C2133 C2132 1.377 . S
C2133 C2139 1.390 . S
C2134 H2125 0.930 . S
C2134 C2132 1.384 . S
C2134 C2135 1.372 . S
C2135 C2134 1.372 . S
C2135 C2136 1.400 . S
C2135 C2140 1.490 . S
C2136 H2126 0.930 . S
C2136 C2135 1.400 . S
C2136 C2139 1.386 . S
H2137 C2153 0.930 . S
H2138 C2154 0.931 . S
C2139 H2127 0.929 . S
C2139 C2133 1.390 . S
C2139 C2136 1.386 . S
C2140 C2135 1.490 . S
C2140 C2142 1.395 . S
C2140 C2143 1.403 . S
H2141 C2147 0.930 . S
C2142 H2128 0.930 . S
C2142 C2140 1.395 . S
C2142 C2145 1.403 . S
C2143 C2140 1.403 . S
C2143 C2144 1.524 . S
C2143 C2147 1.400 . S
C2144 H2129 0.960 . S
C2144 H2130 0.960 . S
C2144 H2131 0.960 . S
C2144 C2143 1.524 . S
C2145 C2142 1.403 . S
C2145 C2146 1.392 . S
C2145 C2149 1.495 . S
C2146 C2145 1.392 . S
C2146 C2147 1.385 . S
C2146 C2148 1.478 . S
C2147 H2141 0.930 . S
C2147 C2143 1.400 . S
C2147 C2146 1.385 . S
C2148 C2146 1.478 . S
C2148 C2150 1.381 . S
C2148 C2154 1.383 . S
C2149 C2145 1.495 . S
C2149 H2155 0.959 . S
C2149 H2156 0.961 . S
C2149 H2157 0.960 . S
C2150 C2148 1.381 . S
C2150 C2151 1.394 . S
C2150 H2158 0.930 . S
C2151 C2150 1.394 . S
C2151 C2152 1.383 . S
C2151 H2159 0.929 . S
C2152 C2151 1.383 . S
C2152 C2153 1.377 . S
C2153 H2137 0.930 . S
C2153 C2152 1.377 . S
C2153 C2154 1.379 . S
C2154 H2138 0.931 . S
C2154 C2148 1.383 . S
C2154 C2153 1.379 . S
H2155 C2149 0.959 . S
H2156 C2149 0.961 . S
H2157 C2149 0.960 . S
H2158 C2150 0.930 . S
H2159 C2151 0.929 . S
H2160 C2168 0.929 . S
H2161 C2170 0.930 . S
H2162 C2172 0.930 . S
H2163 C2175 0.929 . S
H2164 C2178 0.930 . S
H2165 C2180 0.960 . S
H2166 C2180 0.960 . S
H2167 C2180 0.960 . S
C2168 H2160 0.929 . S
C2168 C2169 1.377 . S
C2168 C2170 1.384 . S
C2169 C2168 1.377 . S
C2169 C2175 1.390 . S
C2170 H2161 0.930 . S
C2170 C2168 1.384 . S
C2170 C2171 1.372 . S
C2171 C2170 1.372 . S
C2171 C2172 1.400 . S
C2171 C2176 1.490 . S
C2172 H2162 0.930 . S
C2172 C2171 1.400 . S
C2172 C2175 1.386 . S
H2173 C2189 0.930 . S
H2174 C2190 0.931 . S
C2175 H2163 0.929 . S
C2175 C2169 1.390 . S
C2175 C2172 1.386 . S
C2176 C2171 1.490 . S
C2176 C2178 1.395 . S
C2176 C2179 1.403 . S
H2177 C2183 0.930 . S
C2178 H2164 0.930 . S
C2178 C2176 1.395 . S
C2178 C2181 1.403 . S
C2179 C2176 1.403 . S
C2179 C2180 1.524 . S
C2179 C2183 1.400 . S
C2180 H2165 0.960 . S
C2180 H2166 0.960 . S
C2180 H2167 0.960 . S
C2180 C2179 1.524 . S
C2181 C2178 1.403 . S
C2181 C2182 1.392 . S
C2181 C2185 1.495 . S
C2182 C2181 1.392 . S
C2182 C2183 1.385 . S
C2182 C2184 1.478 . S
C2183 H2177 0.930 . S
C2183 C2179 1.400 . S
C2183 C2182 1.385 . S
C2184 C2182 1.478 . S
C2184 C2186 1.381 . S
C2184 C2190 1.383 . S
C2185 C2181 1.495 . S
C2185 H2191 0.959 . S
C2185 H2192 0.961 . S
C2185 H2193 0.960 . S
C2186 C2184 1.381 . S
C2186 C2187 1.394 . S
C2186 H2194 0.930 . S
C2187 C2186 1.394 . S
C2187 C2188 1.383 . S
C2187 H2195 0.929 . S
C2188 C2187 1.383 . S
C2188 C2189 1.377 . S
C2189 H2173 0.930 . S
C2189 C2188 1.377 . S
C2189 C2190 1.379 . S
C2190 H2174 0.931 . S
C2190 C2184 1.383 . S
C2190 C2189 1.379 . S
H2191 C2185 0.959 . S
H2192 C2185 0.961 . S
H2193 C2185 0.960 . S
H2194 C2186 0.930 . S
H2195 C2187 0.929 . S
H2196 C2204 0.929 . S
H2197 C2206 0.930 . S
H2198 C2208 0.930 . S
H2199 C2211 0.929 . S
H2200 C2214 0.930 . S
H2201 C2216 0.960 . S
H2202 C2216 0.960 . S
H2203 C2216 0.960 . S
C2204 H2196 0.929 . S
C2204 C2205 1.377 . S
C2204 C2206 1.384 . S
C2205 C2204 1.377 . S
C2205 C2211 1.390 . S
C2206 H2197 0.930 . S
C2206 C2204 1.384 . S
C2206 C2207 1.372 . S
C2207 C2206 1.372 . S
C2207 C2208 1.400 . S
C2207 C2212 1.490 . S
C2208 H2198 0.930 . S
C2208 C2207 1.400 . S
C2208 C2211 1.386 . S
H2209 C2225 0.930 . S
H2210 C2226 0.931 . S
C2211 H2199 0.929 . S
C2211 C2205 1.390 . S
C2211 C2208 1.386 . S
C2212 C2207 1.490 . S
C2212 C2214 1.395 . S
C2212 C2215 1.403 . S
H2213 C2219 0.930 . S
C2214 H2200 0.930 . S
C2214 C2212 1.395 . S
C2214 C2217 1.403 . S
C2215 C2212 1.403 . S
C2215 C2216 1.524 . S
C2215 C2219 1.400 . S
C2216 H2201 0.960 . S
C2216 H2202 0.960 . S
C2216 H2203 0.960 . S
C2216 C2215 1.524 . S
C2217 C2214 1.403 . S
C2217 C2218 1.392 . S
C2217 C2221 1.495 . S
C2218 C2217 1.392 . S
C2218 C2219 1.385 . S
C2218 C2220 1.478 . S
C2219 H2213 0.930 . S
C2219 C2215 1.400 . S
C2219 C2218 1.385 . S
C2220 C2218 1.478 . S
C2220 C2222 1.381 . S
C2220 C2226 1.383 . S
C2221 C2217 1.495 . S
C2221 H2227 0.959 . S
C2221 H2228 0.961 . S
C2221 H2229 0.960 . S
C2222 C2220 1.381 . S
C2222 C2223 1.394 . S
C2222 H2230 0.930 . S
C2223 C2222 1.394 . S
C2223 C2224 1.383 . S
C2223 H2231 0.929 . S
C2224 C2223 1.383 . S
C2224 C2225 1.377 . S
C2225 H2209 0.930 . S
C2225 C2224 1.377 . S
C2225 C2226 1.379 . S
C2226 H2210 0.931 . S
C2226 C2220 1.383 . S
C2226 C2225 1.379 . S
H2227 C2221 0.959 . S
H2228 C2221 0.961 . S
H2229 C2221 0.960 . S
H2230 C2222 0.930 . S
H2231 C2223 0.929 . S
H2232 C2240 0.929 . S
H2233 C2242 0.930 . S
H2234 C2244 0.930 . S
H2235 C2247 0.929 . S
H2236 C2250 0.930 . S
H2237 C2252 0.960 . S
H2238 C2252 0.960 . S
H2239 C2252 0.960 . S
C2240 H2232 0.929 . S
C2240 C2241 1.377 . S
C2240 C2242 1.384 . S
C2241 C2240 1.377 . S
C2241 C2247 1.390 . S
C2242 H2233 0.930 . S
C2242 C2240 1.384 . S
C2242 C2243 1.372 . S
C2243 C2242 1.372 . S
C2243 C2244 1.400 . S
C2243 C2248 1.490 . S
C2244 H2234 0.930 . S
C2244 C2243 1.400 . S
C2244 C2247 1.386 . S
H2245 C2261 0.930 . S
H2246 C2262 0.931 . S
C2247 H2235 0.929 . S
C2247 C2241 1.390 . S
C2247 C2244 1.386 . S
C2248 C2243 1.490 . S
C2248 C2250 1.395 . S
C2248 C2251 1.403 . S
H2249 C2255 0.930 . S
C2250 H2236 0.930 . S
C2250 C2248 1.395 . S
C2250 C2253 1.403 . S
C2251 C2248 1.403 . S
C2251 C2252 1.524 . S
C2251 C2255 1.400 . S
C2252 H2237 0.960 . S
C2252 H2238 0.960 . S
C2252 H2239 0.960 . S
C2252 C2251 1.524 . S
C2253 C2250 1.403 . S
C2253 C2254 1.392 . S
C2253 C2257 1.495 . S
C2254 C2253 1.392 . S
C2254 C2255 1.385 . S
C2254 C2256 1.478 . S
C2255 H2249 0.930 . S
C2255 C2251 1.400 . S
C2255 C2254 1.385 . S
C2256 C2254 1.478 . S
C2256 C2258 1.381 . S
C2256 C2262 1.383 . S
C2257 C2253 1.495 . S
C2257 H2263 0.959 . S
C2257 H2264 0.961 . S
C2257 H2265 0.960 . S
C2258 C2256 1.381 . S
C2258 C2259 1.394 . S
C2258 H2266 0.930 . S
C2259 C2258 1.394 . S
C2259 C2260 1.383 . S
C2259 H2267 0.929 . S
C2260 C2259 1.383 . S
C2260 C2261 1.377 . S
C2261 H2245 0.930 . S
C2261 C2260 1.377 . S
C2261 C2262 1.379 . S
C2262 H2246 0.931 . S
C2262 C2256 1.383 . S
C2262 C2261 1.379 . S
H2263 C2257 0.959 . S
H2264 C2257 0.961 . S
H2265 C2257 0.960 . S
H2266 C2258 0.930 . S
H2267 C2259 0.929 . S
H2268 C2276 0.929 . S
H2269 C2278 0.930 . S
H2270 C2280 0.930 . S
H2271 C2283 0.929 . S
H2272 C2286 0.930 . S
H2273 C2288 0.960 . S
H2274 C2288 0.960 . S
H2275 C2288 0.960 . S
C2276 H2268 0.929 . S
C2276 C2277 1.377 . S
C2276 C2278 1.384 . S
C2277 C2276 1.377 . S
C2277 C2283 1.390 . S
C2278 H2269 0.930 . S
C2278 C2276 1.384 . S
C2278 C2279 1.372 . S
C2279 C2278 1.372 . S
C2279 C2280 1.400 . S
C2279 C2284 1.490 . S
C2280 H2270 0.930 . S
C2280 C2279 1.400 . S
C2280 C2283 1.386 . S
H2281 C2297 0.930 1_554 S
H2282 C2298 0.931 . S
C2283 H2271 0.929 . S
C2283 C2277 1.390 . S
C2283 C2280 1.386 . S
C2284 C2279 1.490 . S
C2284 C2286 1.395 . S
C2284 C2287 1.403 . S
H2285 C2291 0.930 . S
C2286 H2272 0.930 . S
C2286 C2284 1.395 . S
C2286 C2289 1.403 . S
C2287 C2284 1.403 . S
C2287 C2288 1.524 . S
C2287 C2291 1.400 . S
C2288 H2273 0.960 . S
C2288 H2274 0.960 . S
C2288 H2275 0.960 . S
C2288 C2287 1.524 . S
C2289 C2286 1.403 . S
C2289 C2290 1.392 . S
C2289 C2293 1.495 . S
C2290 C2289 1.392 . S
C2290 C2291 1.385 . S
C2290 C2292 1.478 . S
C2291 H2285 0.930 . S
C2291 C2287 1.400 . S
C2291 C2290 1.385 . S
C2292 C2290 1.478 . S
C2292 C2294 1.381 . S
C2292 C2298 1.383 . S
C2293 C2289 1.495 . S
C2293 H2299 0.959 . S
C2293 H2300 0.961 . S
C2293 H2301 0.960 . S
C2294 C2292 1.381 . S
C2294 C2295 1.394 . S
C2294 H2302 0.930 . S
C2295 C2294 1.394 . S
C2295 C2296 1.383 . S
C2295 H2303 0.929 . S
C2296 C2295 1.383 . S
C2296 C2297 1.377 . S
C2297 H2281 0.930 1_556 S
C2297 C2296 1.377 . S
C2297 C2298 1.379 . S
C2298 H2282 0.931 . S
C2298 C2292 1.383 . S
C2298 C2297 1.379 . S
H2299 C2293 0.959 . S
H2300 C2293 0.961 . S
H2301 C2293 0.960 . S
H2302 C2294 0.930 . S
H2303 C2295 0.929 . S
H2304 C2312 0.929 . S
H2305 C2314 0.930 . S
H2306 C2316 0.930 . S
H2307 C2319 0.929 1_554 S
H2308 C2322 0.930 . S
H2309 C2324 0.960 . S
H2310 C2324 0.960 . S
H2311 C2324 0.960 . S
C2312 H2304 0.929 . S
C2312 C2313 1.377 . S
C2312 C2314 1.384 . S
C2313 C2312 1.377 . S
C2313 C2319 1.390 . S
C2314 H2305 0.930 . S
C2314 C2312 1.384 . S
C2314 C2315 1.372 . S
C2315 C2314 1.372 . S
C2315 C2316 1.400 . S
C2315 C2320 1.490 . S
C2316 H2306 0.930 . S
C2316 C2315 1.400 . S
C2316 C2319 1.386 . S
H2317 C2333 0.930 . S
H2318 C2334 0.931 . S
C2319 H2307 0.929 1_556 S
C2319 C2313 1.390 . S
C2319 C2316 1.386 . S
C2320 C2315 1.490 . S
C2320 C2322 1.395 . S
C2320 C2323 1.403 . S
H2321 C2327 0.930 . S
C2322 H2308 0.930 . S
C2322 C2320 1.395 . S
C2322 C2325 1.403 . S
C2323 C2320 1.403 . S
C2323 C2324 1.524 . S
C2323 C2327 1.400 . S
C2324 H2309 0.960 . S
C2324 H2310 0.960 . S
C2324 H2311 0.960 . S
C2324 C2323 1.524 . S
C2325 C2322 1.403 . S
C2325 C2326 1.392 . S
C2325 C2329 1.495 . S
C2326 C2325 1.392 . S
C2326 C2327 1.385 . S
C2326 C2328 1.478 . S
C2327 H2321 0.930 . S
C2327 C2323 1.400 . S
C2327 C2326 1.385 . S
C2328 C2326 1.478 . S
C2328 C2330 1.381 . S
C2328 C2334 1.383 . S
C2329 C2325 1.495 . S
C2329 H2335 0.959 . S
C2329 H2336 0.961 . S
C2329 H2337 0.960 . S
C2330 C2328 1.381 . S
C2330 C2331 1.394 . S
C2330 H2338 0.930 . S
C2331 C2330 1.394 . S
C2331 C2332 1.383 . S
C2331 H2339 0.929 . S
C2332 C2331 1.383 . S
C2332 C2333 1.377 . S
C2333 H2317 0.930 . S
C2333 C2332 1.377 . S
C2333 C2334 1.379 . S
C2334 H2318 0.931 . S
C2334 C2328 1.383 . S
C2334 C2333 1.379 . S
H2335 C2329 0.959 . S
H2336 C2329 0.961 . S
H2337 C2329 0.960 . S
H2338 C2330 0.930 . S
H2339 C2331 0.929 . S
H2340 C2348 0.929 . S
H2341 C2350 0.930 . S
H2342 C2352 0.930 . S
H2343 C2355 0.929 . S
H2344 C2358 0.930 . S
H2345 C2360 0.960 . S
H2346 C2360 0.960 . S
H2347 C2360 0.960 . S
C2348 H2340 0.929 . S
C2348 C2349 1.377 . S
C2348 C2350 1.384 . S
C2349 C2348 1.377 . S
C2349 C2355 1.390 . S
C2350 H2341 0.930 . S
C2350 C2348 1.384 . S
C2350 C2351 1.372 . S
C2351 C2350 1.372 . S
C2351 C2352 1.400 . S
C2351 C2356 1.490 . S
C2352 H2342 0.930 . S
C2352 C2351 1.400 . S
C2352 C2355 1.386 . S
H2353 C2369 0.930 . S
H2354 C2370 0.931 . S
C2355 H2343 0.929 . S
C2355 C2349 1.390 . S
C2355 C2352 1.386 . S
C2356 C2351 1.490 . S
C2356 C2358 1.395 . S
C2356 C2359 1.403 . S
H2357 C2363 0.930 . S
C2358 H2344 0.930 . S
C2358 C2356 1.395 . S
C2358 C2361 1.403 . S
C2359 C2356 1.403 . S
C2359 C2360 1.524 . S
C2359 C2363 1.400 . S
C2360 H2345 0.960 . S
C2360 H2346 0.960 . S
C2360 H2347 0.960 . S
C2360 C2359 1.524 . S
C2361 C2358 1.403 . S
C2361 C2362 1.392 . S
C2361 C2365 1.495 . S
C2362 C2361 1.392 . S
C2362 C2363 1.385 . S
C2362 C2364 1.478 . S
C2363 H2357 0.930 . S
C2363 C2359 1.400 . S
C2363 C2362 1.385 . S
C2364 C2362 1.478 . S
C2364 C2366 1.381 . S
C2364 C2370 1.383 . S
C2365 C2361 1.495 . S
C2365 H2371 0.959 . S
C2365 H2372 0.961 . S
C2365 H2373 0.960 . S
C2366 C2364 1.381 . S
C2366 C2367 1.394 . S
C2366 H2374 0.930 . S
C2367 C2366 1.394 . S
C2367 C2368 1.383 . S
C2367 H2375 0.929 . S
C2368 C2367 1.383 . S
C2368 C2369 1.377 . S
C2369 H2353 0.930 . S
C2369 C2368 1.377 . S
C2369 C2370 1.379 . S
C2370 H2354 0.931 . S
C2370 C2364 1.383 . S
C2370 C2369 1.379 . S
H2371 C2365 0.959 . S
H2372 C2365 0.961 . S
H2373 C2365 0.960 . S
H2374 C2366 0.930 . S
H2375 C2367 0.929 . S
H2376 C2384 0.929 . S
H2377 C2386 0.930 . S
H2378 C2388 0.930 . S
H2379 C2391 0.929 . S
H2380 C2394 0.930 . S
H2381 C2396 0.960 . S
H2382 C2396 0.960 . S
H2383 C2396 0.960 . S
C2384 H2376 0.929 . S
C2384 C2385 1.377 . S
C2384 C2386 1.384 . S
C2385 C2384 1.377 . S
C2385 C2391 1.390 . S
C2386 H2377 0.930 . S
C2386 C2384 1.384 . S
C2386 C2387 1.372 . S
C2387 C2386 1.372 . S
C2387 C2388 1.400 . S
C2387 C2392 1.490 . S
C2388 H2378 0.930 . S
C2388 C2387 1.400 . S
C2388 C2391 1.386 . S
H2389 C2405 0.930 . S
H2390 C2406 0.931 . S
C2391 H2379 0.929 . S
C2391 C2385 1.390 . S
C2391 C2388 1.386 . S
C2392 C2387 1.490 . S
C2392 C2394 1.395 . S
C2392 C2395 1.403 . S
H2393 C2399 0.930 . S
C2394 H2380 0.930 . S
C2394 C2392 1.395 . S
C2394 C2397 1.403 . S
C2395 C2392 1.403 . S
C2395 C2396 1.524 . S
C2395 C2399 1.400 . S
C2396 H2381 0.960 . S
C2396 H2382 0.960 . S
C2396 H2383 0.960 . S
C2396 C2395 1.524 . S
C2397 C2394 1.403 . S
C2397 C2398 1.392 . S
C2397 C2401 1.495 . S
C2398 C2397 1.392 . S
C2398 C2399 1.385 . S
C2398 C2400 1.478 . S
C2399 H2393 0.930 . S
C2399 C2395 1.400 . S
C2399 C2398 1.385 . S
C2400 C2398 1.478 . S
C2400 C2402 1.381 . S
C2400 C2406 1.383 . S
C2401 C2397 1.495 . S
C2401 H2407 0.959 . S
C2401 H2408 0.961 . S
C2401 H2409 0.960 . S
C2402 C2400 1.381 . S
C2402 C2403 1.394 . S
C2402 H2410 0.930 . S
C2403 C2402 1.394 . S
C2403 C2404 1.383 . S
C2403 H2411 0.929 . S
C2404 C2403 1.383 . S
C2404 C2405 1.377 . S
C2405 H2389 0.930 . S
C2405 C2404 1.377 . S
C2405 C2406 1.379 . S
C2406 H2390 0.931 . S
C2406 C2400 1.383 . S
C2406 C2405 1.379 . S
H2407 C2401 0.959 . S
H2408 C2401 0.961 . S
H2409 C2401 0.960 . S
H2410 C2402 0.930 . S
H2411 C2403 0.929 . S
H2412 C2420 0.929 . S
H2413 C2422 0.930 . S
H2414 C2424 0.930 . S
H2415 C2427 0.929 . S
H2416 C2430 0.930 . S
H2417 C2432 0.960 . S
H2418 C2432 0.960 . S
H2419 C2432 0.960 . S
C2420 H2412 0.929 . S
C2420 C2421 1.377 . S
C2420 C2422 1.384 . S
C2421 C2420 1.377 . S
C2421 C2427 1.390 . S
C2422 H2413 0.930 . S
C2422 C2420 1.384 . S
C2422 C2423 1.372 . S
C2423 C2422 1.372 . S
C2423 C2424 1.400 . S
C2423 C2428 1.490 . S
C2424 H2414 0.930 . S
C2424 C2423 1.400 . S
C2424 C2427 1.386 . S
H2425 C2441 0.930 . S
H2426 C2442 0.931 . S
C2427 H2415 0.929 . S
C2427 C2421 1.390 . S
C2427 C2424 1.386 . S
C2428 C2423 1.490 . S
C2428 C2430 1.395 . S
C2428 C2431 1.403 . S
H2429 C2435 0.930 . S
C2430 H2416 0.930 . S
C2430 C2428 1.395 . S
C2430 C2433 1.403 . S
C2431 C2428 1.403 . S
C2431 C2432 1.524 . S
C2431 C2435 1.400 . S
C2432 H2417 0.960 . S
C2432 H2418 0.960 . S
C2432 H2419 0.960 . S
C2432 C2431 1.524 . S
C2433 C2430 1.403 . S
C2433 C2434 1.392 . S
C2433 C2437 1.495 . S
C2434 C2433 1.392 . S
C2434 C2435 1.385 . S
C2434 C2436 1.478 . S
C2435 H2429 0.930 . S
C2435 C2431 1.400 . S
C2435 C2434 1.385 . S
C2436 C2434 1.478 . S
C2436 C2438 1.381 . S
C2436 C2442 1.383 . S
C2437 C2433 1.495 . S
C2437 H2443 0.959 . S
C2437 H2444 0.961 . S
C2437 H2445 0.960 . S
C2438 C2436 1.381 . S
C2438 C2439 1.394 . S
C2438 H2446 0.930 . S
C2439 C2438 1.394 . S
C2439 C2440 1.383 . S
C2439 H2447 0.929 . S
C2440 C2439 1.383 . S
C2440 C2441 1.377 . S
C2441 H2425 0.930 . S
C2441 C2440 1.377 . S
C2441 C2442 1.379 . S
C2442 H2426 0.931 . S
C2442 C2436 1.383 . S
C2442 C2441 1.379 . S
H2443 C2437 0.959 . S
H2444 C2437 0.961 . S
H2445 C2437 0.960 . S
H2446 C2438 0.930 . S
H2447 C2439 0.929 . S
H2448 C2456 0.929 . S
H2449 C2458 0.930 . S
H2450 C2460 0.930 . S
H2451 C2463 0.929 . S
H2452 C2466 0.930 . S
H2453 C2468 0.960 . S
H2454 C2468 0.960 . S
H2455 C2468 0.960 . S
C2456 H2448 0.929 . S
C2456 C2457 1.377 . S
C2456 C2458 1.384 . S
C2457 C2456 1.377 . S
C2457 C2463 1.390 . S
C2458 H2449 0.930 . S
C2458 C2456 1.384 . S
C2458 C2459 1.372 . S
C2459 C2458 1.372 . S
C2459 C2460 1.400 . S
C2459 C2464 1.490 . S
C2460 H2450 0.930 . S
C2460 C2459 1.400 . S
C2460 C2463 1.386 . S
H2461 C2477 0.930 . S
H2462 C2478 0.931 . S
C2463 H2451 0.929 . S
C2463 C2457 1.390 . S
C2463 C2460 1.386 . S
C2464 C2459 1.490 . S
C2464 C2466 1.395 . S
C2464 C2467 1.403 . S
H2465 C2471 0.930 . S
C2466 H2452 0.930 . S
C2466 C2464 1.395 . S
C2466 C2469 1.403 . S
C2467 C2464 1.403 . S
C2467 C2468 1.524 . S
C2467 C2471 1.400 . S
C2468 H2453 0.960 . S
C2468 H2454 0.960 . S
C2468 H2455 0.960 . S
C2468 C2467 1.524 . S
C2469 C2466 1.403 . S
C2469 C2470 1.392 . S
C2469 C2473 1.495 . S
C2470 C2469 1.392 . S
C2470 C2471 1.385 . S
C2470 C2472 1.478 . S
C2471 H2465 0.930 . S
C2471 C2467 1.400 . S
C2471 C2470 1.385 . S
C2472 C2470 1.478 . S
C2472 C2474 1.381 . S
C2472 C2478 1.383 . S
C2473 C2469 1.495 . S
C2473 H2479 0.959 . S
C2473 H2480 0.961 . S
C2473 H2481 0.960 . S
C2474 C2472 1.381 . S
C2474 C2475 1.394 . S
C2474 H2482 0.930 . S
C2475 C2474 1.394 . S
C2475 C2476 1.383 . S
C2475 H2483 0.929 . S
C2476 C2475 1.383 . S
C2476 C2477 1.377 . S
C2477 H2461 0.930 . S
C2477 C2476 1.377 . S
C2477 C2478 1.379 . S
C2478 H2462 0.931 . S
C2478 C2472 1.383 . S
C2478 C2477 1.379 . S
H2479 C2473 0.959 . S
H2480 C2473 0.961 . S
H2481 C2473 0.960 . S
H2482 C2474 0.930 . S
H2483 C2475 0.929 . S
H2484 C2492 0.929 . S
H2485 C2494 0.930 . S
H2486 C2496 0.930 . S
H2487 C2499 0.929 . S
H2488 C2502 0.930 . S
H2489 C2504 0.960 . S
H2490 C2504 0.960 . S
H2491 C2504 0.960 . S
C2492 H2484 0.929 . S
C2492 C2493 1.377 . S
C2492 C2494 1.384 . S
C2493 C2492 1.377 . S
C2493 C2499 1.390 . S
C2494 H2485 0.930 . S
C2494 C2492 1.384 . S
C2494 C2495 1.372 . S
C2495 C2494 1.372 . S
C2495 C2496 1.400 . S
C2495 C2500 1.490 . S
C2496 H2486 0.930 . S
C2496 C2495 1.400 . S
C2496 C2499 1.386 . S
H2497 C2513 0.930 . S
H2498 C2514 0.931 . S
C2499 H2487 0.929 . S
C2499 C2493 1.390 . S
C2499 C2496 1.386 . S
C2500 C2495 1.490 . S
C2500 C2502 1.395 . S
C2500 C2503 1.403 . S
H2501 C2507 0.930 . S
C2502 H2488 0.930 . S
C2502 C2500 1.395 . S
C2502 C2505 1.403 . S
C2503 C2500 1.403 . S
C2503 C2504 1.524 . S
C2503 C2507 1.400 . S
C2504 H2489 0.960 . S
C2504 H2490 0.960 . S
C2504 H2491 0.960 . S
C2504 C2503 1.524 . S
C2505 C2502 1.403 . S
C2505 C2506 1.392 . S
C2505 C2509 1.495 . S
C2506 C2505 1.392 . S
C2506 C2507 1.385 . S
C2506 C2508 1.478 . S
C2507 H2501 0.930 . S
C2507 C2503 1.400 . S
C2507 C2506 1.385 . S
C2508 C2506 1.478 . S
C2508 C2510 1.381 . S
C2508 C2514 1.383 . S
C2509 C2505 1.495 . S
C2509 H2515 0.959 . S
C2509 H2516 0.961 . S
C2509 H2517 0.960 . S
C2510 C2508 1.381 . S
C2510 C2511 1.394 . S
C2510 H2518 0.930 . S
C2511 C2510 1.394 . S
C2511 C2512 1.383 . S
C2511 H2519 0.929 . S
C2512 C2511 1.383 . S
C2512 C2513 1.377 . S
C2513 H2497 0.930 . S
C2513 C2512 1.377 . S
C2513 C2514 1.379 . S
C2514 H2498 0.931 . S
C2514 C2508 1.383 . S
C2514 C2513 1.379 . S
H2515 C2509 0.959 . S
H2516 C2509 0.961 . S
H2517 C2509 0.960 . S
H2518 C2510 0.930 . S
H2519 C2511 0.929 . S
H2520 C2528 0.929 . S
H2521 C2530 0.930 . S
H2522 C2532 0.930 . S
H2523 C2535 0.929 . S
H2524 C2538 0.930 . S
H2525 C2540 0.960 . S
H2526 C2540 0.960 . S
H2527 C2540 0.960 . S
C2528 H2520 0.929 . S
C2528 C2529 1.377 . S
C2528 C2530 1.384 . S
C2529 C2528 1.377 . S
C2529 C2535 1.390 . S
C2530 H2521 0.930 . S
C2530 C2528 1.384 . S
C2530 C2531 1.372 . S
C2531 C2530 1.372 . S
C2531 C2532 1.400 . S
C2531 C2536 1.490 . S
C2532 H2522 0.930 . S
C2532 C2531 1.400 . S
C2532 C2535 1.386 . S
H2533 C2549 0.930 . S
H2534 C2550 0.931 . S
C2535 H2523 0.929 . S
C2535 C2529 1.390 . S
C2535 C2532 1.386 . S
C2536 C2531 1.490 . S
C2536 C2538 1.395 . S
C2536 C2539 1.403 . S
H2537 C2543 0.930 . S
C2538 H2524 0.930 . S
C2538 C2536 1.395 . S
C2538 C2541 1.403 . S
C2539 C2536 1.403 . S
C2539 C2540 1.524 . S
C2539 C2543 1.400 . S
C2540 H2525 0.960 . S
C2540 H2526 0.960 . S
C2540 H2527 0.960 . S
C2540 C2539 1.524 . S
C2541 C2538 1.403 . S
C2541 C2542 1.392 . S
C2541 C2545 1.495 . S
C2542 C2541 1.392 . S
C2542 C2543 1.385 . S
C2542 C2544 1.478 . S
C2543 H2537 0.930 . S
C2543 C2539 1.400 . S
C2543 C2542 1.385 . S
C2544 C2542 1.478 . S
C2544 C2546 1.381 . S
C2544 C2550 1.383 . S
C2545 C2541 1.495 . S
C2545 H2551 0.959 . S
C2545 H2552 0.961 . S
C2545 H2553 0.960 . S
C2546 C2544 1.381 . S
C2546 C2547 1.394 . S
C2546 H2554 0.930 . S
C2547 C2546 1.394 . S
C2547 C2548 1.383 . S
C2547 H2555 0.929 . S
C2548 C2547 1.383 . S
C2548 C2549 1.377 . S
C2549 H2533 0.930 . S
C2549 C2548 1.377 . S
C2549 C2550 1.379 . S
C2550 H2534 0.931 . S
C2550 C2544 1.383 . S
C2550 C2549 1.379 . S
H2551 C2545 0.959 . S
H2552 C2545 0.961 . S
H2553 C2545 0.960 . S
H2554 C2546 0.930 . S
H2555 C2547 0.929 . S
H2556 C2564 0.929 . S
H2557 C2566 0.930 . S
H2558 C2568 0.930 . S
H2559 C2571 0.929 . S
H2560 C2574 0.930 . S
H2561 C2576 0.960 . S
H2562 C2576 0.960 . S
H2563 C2576 0.960 . S
C2564 H2556 0.929 . S
C2564 C2565 1.377 . S
C2564 C2566 1.384 . S
C2565 C2564 1.377 . S
C2565 C2571 1.390 . S
C2566 H2557 0.930 . S
C2566 C2564 1.384 . S
C2566 C2567 1.372 . S
C2567 C2566 1.372 . S
C2567 C2568 1.400 . S
C2567 C2572 1.490 . S
C2568 H2558 0.930 . S
C2568 C2567 1.400 . S
C2568 C2571 1.386 . S
H2569 C2585 0.930 . S
H2570 C2586 0.931 . S
C2571 H2559 0.929 . S
C2571 C2565 1.390 . S
C2571 C2568 1.386 . S
C2572 C2567 1.490 . S
C2572 C2574 1.395 . S
C2572 C2575 1.403 . S
H2573 C2579 0.930 . S
C2574 H2560 0.930 . S
C2574 C2572 1.395 . S
C2574 C2577 1.403 . S
C2575 C2572 1.403 . S
C2575 C2576 1.524 . S
C2575 C2579 1.400 . S
C2576 H2561 0.960 . S
C2576 H2562 0.960 . S
C2576 H2563 0.960 . S
C2576 C2575 1.524 . S
C2577 C2574 1.403 . S
C2577 C2578 1.392 . S
C2577 C2581 1.495 . S
C2578 C2577 1.392 . S
C2578 C2579 1.385 . S
C2578 C2580 1.478 . S
C2579 H2573 0.930 . S
C2579 C2575 1.400 . S
C2579 C2578 1.385 . S
C2580 C2578 1.478 . S
C2580 C2582 1.381 . S
C2580 C2586 1.383 . S
C2581 C2577 1.495 . S
C2581 H2587 0.959 . S
C2581 H2588 0.961 . S
C2581 H2589 0.960 . S
C2582 C2580 1.381 . S
C2582 C2583 1.394 . S
C2582 H2590 0.930 . S
C2583 C2582 1.394 . S
C2583 C2584 1.383 . S
C2583 H2591 0.929 . S
C2584 C2583 1.383 . S
C2584 C2585 1.377 . S
C2585 H2569 0.930 . S
C2585 C2584 1.377 . S
C2585 C2586 1.379 . S
C2586 H2570 0.931 . S
C2586 C2580 1.383 . S
C2586 C2585 1.379 . S
H2587 C2581 0.959 . S
H2588 C2581 0.961 . S
H2589 C2581 0.960 . S
H2590 C2582 0.930 . S
H2591 C2583 0.929 . S
H2592 C2600 0.929 . S
H2593 C2602 0.930 . S
H2594 C2604 0.930 . S
H2595 C2607 0.929 . S
H2596 C2610 0.930 . S
H2597 C2612 0.960 . S
H2598 C2612 0.960 . S
H2599 C2612 0.960 . S
C2600 H2592 0.929 . S
C2600 C2601 1.377 . S
C2600 C2602 1.384 . S
C2601 C2600 1.377 . S
C2601 C2607 1.390 . S
C2602 H2593 0.930 . S
C2602 C2600 1.384 . S
C2602 C2603 1.372 . S
C2603 C2602 1.372 . S
C2603 C2604 1.400 . S
C2603 C2608 1.490 . S
C2604 H2594 0.930 . S
C2604 C2603 1.400 . S
C2604 C2607 1.386 . S
H2605 C2621 0.930 . S
H2606 C2622 0.931 . S
C2607 H2595 0.929 . S
C2607 C2601 1.390 . S
C2607 C2604 1.386 . S
C2608 C2603 1.490 . S
C2608 C2610 1.395 . S
C2608 C2611 1.403 . S
H2609 C2615 0.930 . S
C2610 H2596 0.930 . S
C2610 C2608 1.395 . S
C2610 C2613 1.403 . S
C2611 C2608 1.403 . S
C2611 C2612 1.524 . S
C2611 C2615 1.400 . S
C2612 H2597 0.960 . S
C2612 H2598 0.960 . S
C2612 H2599 0.960 . S
C2612 C2611 1.524 . S
C2613 C2610 1.403 . S
C2613 C2614 1.392 . S
C2613 C2617 1.495 . S
C2614 C2613 1.392 . S
C2614 C2615 1.385 . S
C2614 C2616 1.478 . S
C2615 H2609 0.930 . S
C2615 C2611 1.400 . S
C2615 C2614 1.385 . S
C2616 C2614 1.478 . S
C2616 C2618 1.381 . S
C2616 C2622 1.383 . S
C2617 C2613 1.495 . S
C2617 H2623 0.959 . S
C2617 H2624 0.961 . S
C2617 H2625 0.960 . S
C2618 C2616 1.381 . S
C2618 C2619 1.394 . S
C2618 H2626 0.930 . S
C2619 C2618 1.394 . S
C2619 C2620 1.383 . S
C2619 H2627 0.929 . S
C2620 C2619 1.383 . S
C2620 C2621 1.377 . S
C2621 H2605 0.930 . S
C2621 C2620 1.377 . S
C2621 C2622 1.379 . S
C2622 H2606 0.931 . S
C2622 C2616 1.383 . S
C2622 C2621 1.379 . S
H2623 C2617 0.959 . S
H2624 C2617 0.961 . S
H2625 C2617 0.960 . S
H2626 C2618 0.930 . S
H2627 C2619 0.929 . S
H2628 C2636 0.929 . S
H2629 C2638 0.930 . S
H2630 C2640 0.930 . S
H2631 C2643 0.929 . S
H2632 C2646 0.930 . S
H2633 C2648 0.960 . S
H2634 C2648 0.960 . S
H2635 C2648 0.960 . S
C2636 H2628 0.929 . S
C2636 C2637 1.377 . S
C2636 C2638 1.384 . S
C2637 C2636 1.377 . S
C2637 C2643 1.390 . S
C2638 H2629 0.930 . S
C2638 C2636 1.384 . S
C2638 C2639 1.372 . S
C2639 C2638 1.372 . S
C2639 C2640 1.400 . S
C2639 C2644 1.490 . S
C2640 H2630 0.930 . S
C2640 C2639 1.400 . S
C2640 C2643 1.386 . S
H2641 C2657 0.930 . S
H2642 C2658 0.931 . S
C2643 H2631 0.929 . S
C2643 C2637 1.390 . S
C2643 C2640 1.386 . S
C2644 C2639 1.490 . S
C2644 C2646 1.395 . S
C2644 C2647 1.403 . S
H2645 C2651 0.930 . S
C2646 H2632 0.930 . S
C2646 C2644 1.395 . S
C2646 C2649 1.403 . S
C2647 C2644 1.403 . S
C2647 C2648 1.524 . S
C2647 C2651 1.400 . S
C2648 H2633 0.960 . S
C2648 H2634 0.960 . S
C2648 H2635 0.960 . S
C2648 C2647 1.524 . S
C2649 C2646 1.403 . S
C2649 C2650 1.392 . S
C2649 C2653 1.495 . S
C2650 C2649 1.392 . S
C2650 C2651 1.385 . S
C2650 C2652 1.478 . S
C2651 H2645 0.930 . S
C2651 C2647 1.400 . S
C2651 C2650 1.385 . S
C2652 C2650 1.478 . S
C2652 C2654 1.381 . S
C2652 C2658 1.383 . S
C2653 C2649 1.495 . S
C2653 H2659 0.959 . S
C2653 H2660 0.961 . S
C2653 H2661 0.960 . S
C2654 C2652 1.381 . S
C2654 C2655 1.394 . S
C2654 H2662 0.930 . S
C2655 C2654 1.394 . S
C2655 C2656 1.383 . S
C2655 H2663 0.929 . S
C2656 C2655 1.383 . S
C2656 C2657 1.377 . S
C2657 H2641 0.930 . S
C2657 C2656 1.377 . S
C2657 C2658 1.379 . S
C2658 H2642 0.931 . S
C2658 C2652 1.383 . S
C2658 C2657 1.379 . S
H2659 C2653 0.959 . S
H2660 C2653 0.961 . S
H2661 C2653 0.960 . S
H2662 C2654 0.930 . S
H2663 C2655 0.929 . S
H2664 C2672 0.929 . S
H2665 C2674 0.930 . S
H2666 C2676 0.930 . S
H2667 C2679 0.929 . S
H2668 C2682 0.930 . S
H2669 C2684 0.960 . S
H2670 C2684 0.960 . S
H2671 C2684 0.960 . S
C2672 H2664 0.929 . S
C2672 C2673 1.377 . S
C2672 C2674 1.384 . S
C2673 C2672 1.377 . S
C2673 C2679 1.390 . S
C2674 H2665 0.930 . S
C2674 C2672 1.384 . S
C2674 C2675 1.372 . S
C2675 C2674 1.372 . S
C2675 C2676 1.400 . S
C2675 C2680 1.490 . S
C2676 H2666 0.930 . S
C2676 C2675 1.400 . S
C2676 C2679 1.386 . S
H2677 C2693 0.930 . S
H2678 C2694 0.931 . S
C2679 H2667 0.929 . S
C2679 C2673 1.390 . S
C2679 C2676 1.386 . S
C2680 C2675 1.490 . S
C2680 C2682 1.395 . S
C2680 C2683 1.403 . S
H2681 C2687 0.930 . S
C2682 H2668 0.930 . S
C2682 C2680 1.395 . S
C2682 C2685 1.403 . S
C2683 C2680 1.403 . S
C2683 C2684 1.524 . S
C2683 C2687 1.400 . S
C2684 H2669 0.960 . S
C2684 H2670 0.960 . S
C2684 H2671 0.960 . S
C2684 C2683 1.524 . S
C2685 C2682 1.403 . S
C2685 C2686 1.392 . S
C2685 C2689 1.495 . S
C2686 C2685 1.392 . S
C2686 C2687 1.385 . S
C2686 C2688 1.478 . S
C2687 H2681 0.930 . S
C2687 C2683 1.400 . S
C2687 C2686 1.385 . S
C2688 C2686 1.478 . S
C2688 C2690 1.381 . S
C2688 C2694 1.383 . S
C2689 C2685 1.495 . S
C2689 H2695 0.959 . S
C2689 H2696 0.961 . S
C2689 H2697 0.960 . S
C2690 C2688 1.381 . S
C2690 C2691 1.394 . S
C2690 H2698 0.930 . S
C2691 C2690 1.394 . S
C2691 C2692 1.383 . S
C2691 H2699 0.929 . S
C2692 C2691 1.383 . S
C2692 C2693 1.377 . S
C2693 H2677 0.930 . S
C2693 C2692 1.377 . S
C2693 C2694 1.379 . S
C2694 H2678 0.931 . S
C2694 C2688 1.383 . S
C2694 C2693 1.379 . S
H2695 C2689 0.959 . S
H2696 C2689 0.961 . S
H2697 C2689 0.960 . S
H2698 C2690 0.930 . S
H2699 C2691 0.929 . S
H2700 C2708 0.929 . S
H2701 C2710 0.930 . S
H2702 C2712 0.930 . S
H2703 C2715 0.929 . S
H2704 C2718 0.930 . S
H2705 C2720 0.960 . S
H2706 C2720 0.960 . S
H2707 C2720 0.960 . S
C2708 H2700 0.929 . S
C2708 C2709 1.377 . S
C2708 C2710 1.384 . S
C2709 C2708 1.377 . S
C2709 C2715 1.390 . S
C2710 H2701 0.930 . S
C2710 C2708 1.384 . S
C2710 C2711 1.372 . S
C2711 C2710 1.372 . S
C2711 C2712 1.400 . S
C2711 C2716 1.490 . S
C2712 H2702 0.930 . S
C2712 C2711 1.400 . S
C2712 C2715 1.386 . S
H2713 C2729 0.930 . S
H2714 C2730 0.931 . S
C2715 H2703 0.929 . S
C2715 C2709 1.390 . S
C2715 C2712 1.386 . S
C2716 C2711 1.490 . S
C2716 C2718 1.395 . S
C2716 C2719 1.403 . S
H2717 C2723 0.930 . S
C2718 H2704 0.930 . S
C2718 C2716 1.395 . S
C2718 C2721 1.403 . S
C2719 C2716 1.403 . S
C2719 C2720 1.524 . S
C2719 C2723 1.400 . S
C2720 H2705 0.960 . S
C2720 H2706 0.960 . S
C2720 H2707 0.960 . S
C2720 C2719 1.524 . S
C2721 C2718 1.403 . S
C2721 C2722 1.392 . S
C2721 C2725 1.495 . S
C2722 C2721 1.392 . S
C2722 C2723 1.385 . S
C2722 C2724 1.478 . S
C2723 H2717 0.930 . S
C2723 C2719 1.400 . S
C2723 C2722 1.385 . S
C2724 C2722 1.478 . S
C2724 C2726 1.381 . S
C2724 C2730 1.383 . S
C2725 C2721 1.495 . S
C2725 H2731 0.959 . S
C2725 H2732 0.961 . S
C2725 H2733 0.960 . S
C2726 C2724 1.381 . S
C2726 C2727 1.394 . S
C2726 H2734 0.930 . S
C2727 C2726 1.394 . S
C2727 C2728 1.383 . S
C2727 H2735 0.929 . S
C2728 C2727 1.383 . S
C2728 C2729 1.377 . S
C2729 H2713 0.930 . S
C2729 C2728 1.377 . S
C2729 C2730 1.379 . S
C2730 H2714 0.931 . S
C2730 C2724 1.383 . S
C2730 C2729 1.379 . S
H2731 C2725 0.959 . S
H2732 C2725 0.961 . S
H2733 C2725 0.960 . S
H2734 C2726 0.930 . S
H2735 C2727 0.929 . S
H2736 C2744 0.929 . S
H2737 C2746 0.930 . S
H2738 C2748 0.930 . S
H2739 C2751 0.929 . S
H2740 C2754 0.930 . S
H2741 C2756 0.960 . S
H2742 C2756 0.960 . S
H2743 C2756 0.960 . S
C2744 H2736 0.929 . S
C2744 C2745 1.377 . S
C2744 C2746 1.384 . S
C2745 C2744 1.377 . S
C2745 C2751 1.390 . S
C2746 H2737 0.930 . S
C2746 C2744 1.384 . S
C2746 C2747 1.372 . S
C2747 C2746 1.372 . S
C2747 C2748 1.400 . S
C2747 C2752 1.490 . S
C2748 H2738 0.930 . S
C2748 C2747 1.400 . S
C2748 C2751 1.386 . S
H2749 C2765 0.930 . S
H2750 C2766 0.931 . S
C2751 H2739 0.929 . S
C2751 C2745 1.390 . S
C2751 C2748 1.386 . S
C2752 C2747 1.490 . S
C2752 C2754 1.395 . S
C2752 C2755 1.403 . S
H2753 C2759 0.930 . S
C2754 H2740 0.930 . S
C2754 C2752 1.395 . S
C2754 C2757 1.403 . S
C2755 C2752 1.403 . S
C2755 C2756 1.524 . S
C2755 C2759 1.400 . S
C2756 H2741 0.960 . S
C2756 H2742 0.960 . S
C2756 H2743 0.960 . S
C2756 C2755 1.524 . S
C2757 C2754 1.403 . S
C2757 C2758 1.392 . S
C2757 C2761 1.495 . S
C2758 C2757 1.392 . S
C2758 C2759 1.385 . S
C2758 C2760 1.478 . S
C2759 H2753 0.930 . S
C2759 C2755 1.400 . S
C2759 C2758 1.385 . S
C2760 C2758 1.478 . S
C2760 C2762 1.381 . S
C2760 C2766 1.383 . S
C2761 C2757 1.495 . S
C2761 H2767 0.959 . S
C2761 H2768 0.961 . S
C2761 H2769 0.960 . S
C2762 C2760 1.381 . S
C2762 C2763 1.394 . S
C2762 H2770 0.930 . S
C2763 C2762 1.394 . S
C2763 C2764 1.383 . S
C2763 H2771 0.929 . S
C2764 C2763 1.383 . S
C2764 C2765 1.377 . S
C2765 H2749 0.930 . S
C2765 C2764 1.377 . S
C2765 C2766 1.379 . S
C2766 H2750 0.931 . S
C2766 C2760 1.383 . S
C2766 C2765 1.379 . S
H2767 C2761 0.959 . S
H2768 C2761 0.961 . S
H2769 C2761 0.960 . S
H2770 C2762 0.930 . S
H2771 C2763 0.929 . S
H2772 C2780 0.929 . S
H2773 C2782 0.930 . S
H2774 C2784 0.930 . S
H2775 C2787 0.929 . S
H2776 C2790 0.930 . S
H2777 C2792 0.960 . S
H2778 C2792 0.960 . S
H2779 C2792 0.960 . S
C2780 H2772 0.929 . S
C2780 C2781 1.377 . S
C2780 C2782 1.384 . S
C2781 C2780 1.377 . S
C2781 C2787 1.390 . S
C2782 H2773 0.930 . S
C2782 C2780 1.384 . S
C2782 C2783 1.372 . S
C2783 C2782 1.372 . S
C2783 C2784 1.400 . S
C2783 C2788 1.490 . S
C2784 H2774 0.930 . S
C2784 C2783 1.400 . S
C2784 C2787 1.386 . S
H2785 C2801 0.930 . S
H2786 C2802 0.931 . S
C2787 H2775 0.929 . S
C2787 C2781 1.390 . S
C2787 C2784 1.386 . S
C2788 C2783 1.490 . S
C2788 C2790 1.395 . S
C2788 C2791 1.403 . S
H2789 C2795 0.930 . S
C2790 H2776 0.930 . S
C2790 C2788 1.395 . S
C2790 C2793 1.403 . S
C2791 C2788 1.403 . S
C2791 C2792 1.524 . S
C2791 C2795 1.400 . S
C2792 H2777 0.960 . S
C2792 H2778 0.960 . S
C2792 H2779 0.960 . S
C2792 C2791 1.524 . S
C2793 C2790 1.403 . S
C2793 C2794 1.392 . S
C2793 C2797 1.495 . S
C2794 C2793 1.392 . S
C2794 C2795 1.385 . S
C2794 C2796 1.478 . S
C2795 H2789 0.930 . S
C2795 C2791 1.400 . S
C2795 C2794 1.385 . S
C2796 C2794 1.478 . S
C2796 C2798 1.381 . S
C2796 C2802 1.383 . S
C2797 C2793 1.495 . S
C2797 H2803 0.959 . S
C2797 H2804 0.961 . S
C2797 H2805 0.960 . S
C2798 C2796 1.381 . S
C2798 C2799 1.394 . S
C2798 H2806 0.930 . S
C2799 C2798 1.394 . S
C2799 C2800 1.383 . S
C2799 H2807 0.929 . S
C2800 C2799 1.383 . S
C2800 C2801 1.377 . S
C2801 H2785 0.930 . S
C2801 C2800 1.377 . S
C2801 C2802 1.379 . S
C2802 H2786 0.931 . S
C2802 C2796 1.383 . S
C2802 C2801 1.379 . S
H2803 C2797 0.959 . S
H2804 C2797 0.961 . S
H2805 C2797 0.960 . S
H2806 C2798 0.930 . S
H2807 C2799 0.929 . S
H2808 C2816 0.929 . S
H2809 C2818 0.930 . S
H2810 C2820 0.930 . S
H2811 C2823 0.929 . S
H2812 C2826 0.930 . S
H2813 C2828 0.960 . S
H2814 C2828 0.960 . S
H2815 C2828 0.960 . S
C2816 H2808 0.929 . S
C2816 C2817 1.377 . S
C2816 C2818 1.384 . S
C2817 C2816 1.377 . S
C2817 C2823 1.390 . S
C2818 H2809 0.930 . S
C2818 C2816 1.384 . S
C2818 C2819 1.372 . S
C2819 C2818 1.372 . S
C2819 C2820 1.400 . S
C2819 C2824 1.490 . S
C2820 H2810 0.930 . S
C2820 C2819 1.400 . S
C2820 C2823 1.386 . S
H2821 C2837 0.930 . S
H2822 C2838 0.931 . S
C2823 H2811 0.929 . S
C2823 C2817 1.390 . S
C2823 C2820 1.386 . S
C2824 C2819 1.490 . S
C2824 C2826 1.395 . S
C2824 C2827 1.403 . S
H2825 C2831 0.930 . S
C2826 H2812 0.930 . S
C2826 C2824 1.395 . S
C2826 C2829 1.403 . S
C2827 C2824 1.403 . S
C2827 C2828 1.524 . S
C2827 C2831 1.400 . S
C2828 H2813 0.960 . S
C2828 H2814 0.960 . S
C2828 H2815 0.960 . S
C2828 C2827 1.524 . S
C2829 C2826 1.403 . S
C2829 C2830 1.392 . S
C2829 C2833 1.495 . S
C2830 C2829 1.392 . S
C2830 C2831 1.385 . S
C2830 C2832 1.478 . S
C2831 H2825 0.930 . S
C2831 C2827 1.400 . S
C2831 C2830 1.385 . S
C2832 C2830 1.478 . S
C2832 C2834 1.381 . S
C2832 C2838 1.383 . S
C2833 C2829 1.495 . S
C2833 H2839 0.959 . S
C2833 H2840 0.961 . S
C2833 H2841 0.960 . S
C2834 C2832 1.381 . S
C2834 C2835 1.394 . S
C2834 H2842 0.930 . S
C2835 C2834 1.394 . S
C2835 C2836 1.383 . S
C2835 H2843 0.929 . S
C2836 C2835 1.383 . S
C2836 C2837 1.377 . S
C2837 H2821 0.930 . S
C2837 C2836 1.377 . S
C2837 C2838 1.379 . S
C2838 H2822 0.931 . S
C2838 C2832 1.383 . S
C2838 C2837 1.379 . S
H2839 C2833 0.959 . S
H2840 C2833 0.961 . S
H2841 C2833 0.960 . S
H2842 C2834 0.930 . S
H2843 C2835 0.929 . S
H2844 C2852 0.929 . S
H2845 C2854 0.930 . S
H2846 C2856 0.930 . S
H2847 C2859 0.929 . S
H2848 C2862 0.930 . S
H2849 C2864 0.960 . S
H2850 C2864 0.960 . S
H2851 C2864 0.960 . S
C2852 H2844 0.929 . S
C2852 C2853 1.377 . S
C2852 C2854 1.384 . S
C2853 C2852 1.377 . S
C2853 C2859 1.390 . S
C2854 H2845 0.930 . S
C2854 C2852 1.384 . S
C2854 C2855 1.372 . S
C2855 C2854 1.372 . S
C2855 C2856 1.400 . S
C2855 C2860 1.490 . S
C2856 H2846 0.930 . S
C2856 C2855 1.400 . S
C2856 C2859 1.386 . S
H2857 C2873 0.930 . S
H2858 C2874 0.931 . S
C2859 H2847 0.929 . S
C2859 C2853 1.390 . S
C2859 C2856 1.386 . S
C2860 C2855 1.490 . S
C2860 C2862 1.395 . S
C2860 C2863 1.403 . S
H2861 C2867 0.930 . S
C2862 H2848 0.930 . S
C2862 C2860 1.395 . S
C2862 C2865 1.403 . S
C2863 C2860 1.403 . S
C2863 C2864 1.524 . S
C2863 C2867 1.400 . S
C2864 H2849 0.960 . S
C2864 H2850 0.960 . S
C2864 H2851 0.960 . S
C2864 C2863 1.524 . S
C2865 C2862 1.403 . S
C2865 C2866 1.392 . S
C2865 C2869 1.495 . S
C2866 C2865 1.392 . S
C2866 C2867 1.385 . S
C2866 C2868 1.478 . S
C2867 H2861 0.930 . S
C2867 C2863 1.400 . S
C2867 C2866 1.385 . S
C2868 C2866 1.478 . S
C2868 C2870 1.381 . S
C2868 C2874 1.383 . S
C2869 C2865 1.495 . S
C2869 H2875 0.959 . S
C2869 H2876 0.961 . S
C2869 H2877 0.960 . S
C2870 C2868 1.381 . S
C2870 C2871 1.394 . S
C2870 H2878 0.930 . S
C2871 C2870 1.394 . S
C2871 C2872 1.383 . S
C2871 H2879 0.929 . S
C2872 C2871 1.383 . S
C2872 C2873 1.377 . S
C2873 H2857 0.930 . S
C2873 C2872 1.377 . S
C2873 C2874 1.379 . S
C2874 H2858 0.931 . S
C2874 C2868 1.383 . S
C2874 C2873 1.379 . S
H2875 C2869 0.959 . S
H2876 C2869 0.961 . S
H2877 C2869 0.960 . S
H2878 C2870 0.930 . S
H2879 C2871 0.929 . S
H2880 C2888 0.929 . S
H2881 C2890 0.930 . S
H2882 C2892 0.930 . S
H2883 C2895 0.929 . S
H2884 C2898 0.930 1_455 S
H2885 C2900 0.960 . S
H2886 C2900 0.960 . S
H2887 C2900 0.960 . S
C2888 H2880 0.929 . S
C2888 C2889 1.377 . S
C2888 C2890 1.384 . S
C2889 C2888 1.377 . S
C2889 C2895 1.390 . S
C2890 H2881 0.930 . S
C2890 C2888 1.384 . S
C2890 C2891 1.372 . S
C2891 C2890 1.372 . S
C2891 C2892 1.400 . S
C2891 C2896 1.490 . S
C2892 H2882 0.930 . S
C2892 C2891 1.400 . S
C2892 C2895 1.386 . S
H2893 C2909 0.930 . S
H2894 C2910 0.931 . S
C2895 H2883 0.929 . S
C2895 C2889 1.390 . S
C2895 C2892 1.386 . S
C2896 C2891 1.490 . S
C2896 C2898 1.395 1_455 S
C2896 C2899 1.403 . S
H2897 C2903 0.930 . S
C2898 H2884 0.930 1_655 S
C2898 C2896 1.395 1_655 S
C2898 C2901 1.403 . S
C2899 C2896 1.403 . S
C2899 C2900 1.524 . S
C2899 C2903 1.400 1_455 S
C2900 H2885 0.960 . S
C2900 H2886 0.960 . S
C2900 H2887 0.960 . S
C2900 C2899 1.524 . S
C2901 C2898 1.403 . S
C2901 C2902 1.392 . S
C2901 C2905 1.495 . S
C2902 C2901 1.392 . S
C2902 C2903 1.385 . S
C2902 C2904 1.478 . S
C2903 H2897 0.930 . S
C2903 C2899 1.400 1_655 S
C2903 C2902 1.385 . S
C2904 C2902 1.478 . S
C2904 C2906 1.381 . S
C2904 C2910 1.383 . S
C2905 C2901 1.495 . S
C2905 H2911 0.959 . S
C2905 H2912 0.961 . S
C2905 H2913 0.960 . S
C2906 C2904 1.381 . S
C2906 C2907 1.394 . S
C2906 H2914 0.930 . S
C2907 C2906 1.394 . S
C2907 C2908 1.383 . S
C2907 H2915 0.929 . S
C2908 C2907 1.383 . S
C2908 C2909 1.377 . S
C2909 H2893 0.930 . S
C2909 C2908 1.377 . S
C2909 C2910 1.379 . S
C2910 H2894 0.931 . S
C2910 C2904 1.383 . S
C2910 C2909 1.379 . S
H2911 C2905 0.959 . S
H2912 C2905 0.961 . S
H2913 C2905 0.960 . S
H2914 C2906 0.930 . S
H2915 C2907 0.929 . S
H2916 C2924 0.929 . S
H2917 C2926 0.930 . S
H2918 C2928 0.930 . S
H2919 C2931 0.929 . S
H2920 C2934 0.930 . S
H2921 C2936 0.960 . S
H2922 C2936 0.960 . S
H2923 C2936 0.960 . S
C2924 H2916 0.929 . S
C2924 C2925 1.377 . S
C2924 C2926 1.384 . S
C2925 C2924 1.377 . S
C2925 C2931 1.390 . S
C2926 H2917 0.930 . S
C2926 C2924 1.384 . S
C2926 C2927 1.372 . S
C2927 C2926 1.372 . S
C2927 C2928 1.400 . S
C2927 C2932 1.490 . S
C2928 H2918 0.930 . S
C2928 C2927 1.400 . S
C2928 C2931 1.386 . S
H2929 C2945 0.930 . S
H2930 C2946 0.931 . S
C2931 H2919 0.929 . S
C2931 C2925 1.390 . S
C2931 C2928 1.386 . S
C2932 C2927 1.490 . S
C2932 C2934 1.395 . S
C2932 C2935 1.403 . S
H2933 C2939 0.930 . S
C2934 H2920 0.930 . S
C2934 C2932 1.395 . S
C2934 C2937 1.403 . S
C2935 C2932 1.403 . S
C2935 C2936 1.524 . S
C2935 C2939 1.400 . S
C2936 H2921 0.960 . S
C2936 H2922 0.960 . S
C2936 H2923 0.960 . S
C2936 C2935 1.524 . S
C2937 C2934 1.403 . S
C2937 C2938 1.392 . S
C2937 C2941 1.495 . S
C2938 C2937 1.392 . S
C2938 C2939 1.385 . S
C2938 C2940 1.478 . S
C2939 H2933 0.930 . S
C2939 C2935 1.400 . S
C2939 C2938 1.385 . S
C2940 C2938 1.478 . S
C2940 C2942 1.381 . S
C2940 C2946 1.383 . S
C2941 C2937 1.495 . S
C2941 H2947 0.959 . S
C2941 H2948 0.961 . S
C2941 H2949 0.960 . S
C2942 C2940 1.381 . S
C2942 C2943 1.394 . S
C2942 H2950 0.930 . S
C2943 C2942 1.394 . S
C2943 C2944 1.383 . S
C2943 H2951 0.929 . S
C2944 C2943 1.383 . S
C2944 C2945 1.377 . S
C2945 H2929 0.930 . S
C2945 C2944 1.377 . S
C2945 C2946 1.379 . S
C2946 H2930 0.931 . S
C2946 C2940 1.383 . S
C2946 C2945 1.379 . S
H2947 C2941 0.959 . S
H2948 C2941 0.961 . S
H2949 C2941 0.960 . S
H2950 C2942 0.930 . S
H2951 C2943 0.929 . S
H2952 C2960 0.929 . S
H2953 C2962 0.930 . S
H2954 C2964 0.930 . S
H2955 C2967 0.929 . S
H2956 C2970 0.930 . S
H2957 C2972 0.960 . S
H2958 C2972 0.960 . S
H2959 C2972 0.960 . S
C2960 H2952 0.929 . S
C2960 C2961 1.377 . S
C2960 C2962 1.384 . S
C2961 C2960 1.377 . S
C2961 C2967 1.390 . S
C2962 H2953 0.930 . S
C2962 C2960 1.384 . S
C2962 C2963 1.372 . S
C2963 C2962 1.372 . S
C2963 C2964 1.400 . S
C2963 C2968 1.490 . S
C2964 H2954 0.930 . S
C2964 C2963 1.400 . S
C2964 C2967 1.386 . S
H2965 C2981 0.930 . S
H2966 C2982 0.931 . S
C2967 H2955 0.929 . S
C2967 C2961 1.390 . S
C2967 C2964 1.386 . S
C2968 C2963 1.490 . S
C2968 C2970 1.395 . S
C2968 C2971 1.403 . S
H2969 C2975 0.930 . S
C2970 H2956 0.930 . S
C2970 C2968 1.395 . S
C2970 C2973 1.403 1_545 S
C2971 C2968 1.403 . S
C2971 C2972 1.524 . S
C2971 C2975 1.400 1_545 S
C2972 H2957 0.960 . S
C2972 H2958 0.960 . S
C2972 H2959 0.960 . S
C2972 C2971 1.524 . S
C2973 C2970 1.403 1_565 S
C2973 C2974 1.392 . S
C2973 C2977 1.495 . S
C2974 C2973 1.392 . S
C2974 C2975 1.385 . S
C2974 C2976 1.478 . S
C2975 H2969 0.930 . S
C2975 C2971 1.400 1_565 S
C2975 C2974 1.385 . S
C2976 C2974 1.478 . S
C2976 C2978 1.381 . S
C2976 C2982 1.383 . S
C2977 C2973 1.495 . S
C2977 H2983 0.915 1_565 S
C2977 H2984 0.961 . S
C2977 H2985 0.960 . S
C2978 C2976 1.381 . S
C2978 C2979 1.394 . S
C2978 H2986 0.930 . S
C2979 C2978 1.394 . S
C2979 C2980 1.383 . S
C2979 H2987 0.929 . S
C2980 C2979 1.383 . S
C2980 C2981 1.377 . S
C2981 H2965 0.930 . S
C2981 C2980 1.377 . S
C2981 C2982 1.379 . S
C2982 H2966 0.931 . S
C2982 C2976 1.383 . S
C2982 C2981 1.379 . S
H2983 C2977 0.915 1_545 S
H2984 C2977 0.961 . S
H2985 C2977 0.960 . S
H2986 C2978 0.930 . S
H2987 C2979 0.929 . S
H2988 C2996 0.929 . S
H2989 C2998 0.930 . S
H2990 C3000 0.930 . S
H2991 C3003 0.929 . S
H2992 C3006 0.930 . S
H2993 C3008 1.009 . S
H2994 C3008 0.959 1_545 S
H2995 C3008 0.907 1_545 S
C2996 H2988 0.929 . S
C2996 C2997 1.377 . S
C2996 C2998 1.384 . S
C2997 C2996 1.377 . S
C2997 C3003 1.390 . S
C2998 H2989 0.930 . S
C2998 C2996 1.384 . S
C2998 C2999 1.372 . S
C2999 C2998 1.372 . S
C2999 C3000 1.400 . S
C2999 C3004 1.490 . S
C3000 H2990 0.930 . S
C3000 C2999 1.400 . S
C3000 C3003 1.386 . S
H3001 C3017 0.930 . S
H3002 C3018 0.931 . S
C3003 H2991 0.929 . S
C3003 C2997 1.390 . S
C3003 C3000 1.386 . S
C3004 C2999 1.490 . S
C3004 C3006 1.395 1_556 S
C3004 C3007 1.403 1_545 S
H3005 C3011 0.930 . S
C3006 H2992 0.930 . S
C3006 C3004 1.395 1_554 S
C3006 C3009 1.403 1_545 S
C3007 C3004 1.403 1_565 S
C3007 C3008 1.533 . S
C3007 C3011 1.400 . S
C3008 H2993 1.009 . S
C3008 H2994 0.959 1_565 S
C3008 H2995 0.907 1_565 S
C3008 C3007 1.533 . S
C3009 C3006 1.403 1_565 S
C3009 C3010 1.392 . S
C3009 C3013 1.495 . S
C3010 C3009 1.392 . S
C3010 C3011 1.385 1_554 S
C3010 C3012 1.478 . S
C3011 H3005 0.930 . S
C3011 C3007 1.400 . S
C3011 C3010 1.385 1_556 S
C3012 C3010 1.478 . S
C3012 C3014 1.381 . S
C3012 C3018 1.383 . S
C3013 C3009 1.495 . S
C3013 H3019 0.959 1_565 S
C3013 H3020 0.961 . S
C3013 H3021 0.960 . S
C3014 C3012 1.381 . S
C3014 C3015 1.394 . S
C3014 H3022 0.930 . S
C3015 C3014 1.394 . S
C3015 C3016 1.383 . S
C3015 H3023 0.929 . S
C3016 C3015 1.383 . S
C3016 C3017 1.377 . S
C3017 H3001 0.930 . S
C3017 C3016 1.377 . S
C3017 C3018 1.379 . S
C3018 H3002 0.931 . S
C3018 C3012 1.383 . S
C3018 C3017 1.379 . S
H3019 C3013 0.959 1_545 S
H3020 C3013 0.961 . S
H3021 C3013 0.960 . S
H3022 C3014 0.930 . S
H3023 C3015 0.929 . S
H3024 C3032 0.929 . S
H3025 C3034 0.930 . S
H3026 C3036 0.930 1_554 S
H3027 C3039 0.929 . S
H3028 C3042 0.930 . S
H3029 C3044 0.960 . S
H3030 C3044 0.960 . S
H3031 C3044 0.960 . S
C3032 H3024 0.929 . S
C3032 C3033 1.377 . S
C3032 C3034 1.384 . S
C3033 C3032 1.377 . S
C3033 C3039 1.390 . S
C3034 H3025 0.930 . S
C3034 C3032 1.384 . S
C3034 C3035 1.372 . S
C3035 C3034 1.372 . S
C3035 C3036 1.400 . S
C3035 C3040 1.490 . S
C3036 H3026 0.930 1_556 S
C3036 C3035 1.400 . S
C3036 C3039 1.386 . S
H3037 C3053 0.930 . S
H3038 C3054 0.931 . S
C3039 H3027 0.929 . S
C3039 C3033 1.390 . S
C3039 C3036 1.386 . S
C3040 C3035 1.490 . S
C3040 C3042 1.395 . S
C3040 C3043 1.403 1_556 S
H3041 C3047 0.930 . S
C3042 H3028 0.930 . S
C3042 C3040 1.395 . S
C3042 C3045 1.403 1_655 S
C3043 C3040 1.403 1_554 S
C3043 C3044 1.524 . S
C3043 C3047 1.400 1_655 S
C3044 H3029 0.960 . S
C3044 H3030 0.960 . S
C3044 H3031 0.960 . S
C3044 C3043 1.524 . S
C3045 C3042 1.403 1_455 S
C3045 C3046 1.392 . S
C3045 C3049 1.495 . S
C3046 C3045 1.392 . S
C3046 C3047 1.385 1_556 S
C3046 C3048 1.478 1_556 S
C3047 H3041 0.930 . S
C3047 C3043 1.400 1_455 S
C3047 C3046 1.385 1_554 S
C3048 C3046 1.478 1_554 S
C3048 C3050 1.381 1_554 S
C3048 C3054 1.383 . S
C3049 C3045 1.495 . S
C3049 H3055 0.959 . S
C3049 H3056 0.961 . S
C3049 H3057 0.960 . S
C3050 C3048 1.381 1_556 S
C3050 C3051 1.394 1_556 S
C3050 H3058 0.930 . S
C3051 C3050 1.394 1_554 S
C3051 C3052 1.383 . S
C3051 H3059 0.929 1_554 S
C3052 C3051 1.383 . S
C3052 C3053 1.377 . S
C3053 H3037 0.930 . S
C3053 C3052 1.377 . S
C3053 C3054 1.379 . S
C3054 H3038 0.931 . S
C3054 C3048 1.383 . S
C3054 C3053 1.379 . S
H3055 C3049 0.959 . S
H3056 C3049 0.961 . S
H3057 C3049 0.960 . S
H3058 C3050 0.930 . S
H3059 C3051 0.929 1_556 S
H3060 C3068 0.929 . S
H3061 C3070 0.930 1_554 S
H3062 C3072 0.930 . S
H3063 C3075 0.929 . S
H3064 C3078 0.930 . S
H3065 C3080 0.960 . S
H3066 C3080 0.960 . S
H3067 C3080 0.960 . S
C3068 H3060 0.929 . S
C3068 C3069 1.377 . S
C3068 C3070 1.384 . S
C3069 C3068 1.377 . S
C3069 C3075 1.390 . S
C3070 H3061 0.930 1_556 S
C3070 C3068 1.384 . S
C3070 C3071 1.372 . S
C3071 C3070 1.372 . S
C3071 C3072 1.400 . S
C3071 C3076 1.490 . S
C3072 H3062 0.930 . S
C3072 C3071 1.400 . S
C3072 C3075 1.386 . S
H3073 C3089 0.930 1_556 S
H3074 C3090 0.931 . S
C3075 H3063 0.929 . S
C3075 C3069 1.390 . S
C3075 C3072 1.386 . S
C3076 C3071 1.490 . S
C3076 C3078 1.395 1_556 S
C3076 C3079 1.403 . S
H3077 C3083 0.930 . S
C3078 H3064 0.930 . S
C3078 C3076 1.395 1_554 S
C3078 C3081 1.403 . S
C3079 C3076 1.403 . S
C3079 C3080 1.524 . S
C3079 C3083 1.400 . S
C3080 H3065 0.960 . S
C3080 H3066 0.960 . S
C3080 H3067 0.960 . S
C3080 C3079 1.524 . S
C3081 C3078 1.403 . S
C3081 C3082 1.392 . S
C3081 C3085 1.495 . S
C3082 C3081 1.392 . S
C3082 C3083 1.385 1_554 S
C3082 C3084 1.478 . S
C3083 H3077 0.930 . S
C3083 C3079 1.400 . S
C3083 C3082 1.385 1_556 S
C3084 C3082 1.478 . S
C3084 C3086 1.381 . S
C3084 C3090 1.383 1_554 S
C3085 C3081 1.495 . S
C3085 H3091 0.959 . S
C3085 H3092 0.961 . S
C3085 H3093 0.960 . S
C3086 C3084 1.381 . S
C3086 C3087 1.394 . S
C3086 H3094 0.930 . S
C3087 C3086 1.394 . S
C3087 C3088 1.383 . S
C3087 H3095 0.929 . S
C3088 C3087 1.383 . S
C3088 C3089 1.377 . S
C3089 H3073 0.930 1_554 S
C3089 C3088 1.377 . S
C3089 C3090 1.379 1_554 S
C3090 H3074 0.931 . S
C3090 C3084 1.383 1_556 S
C3090 C3089 1.379 1_556 S
H3091 C3085 0.959 . S
H3092 C3085 0.961 . S
H3093 C3085 0.960 . S
H3094 C3086 0.930 . S
H3095 C3087 0.929 . S
C513 C13 0.921 . S
C532 C106 0.898 . S
C549 C27 0.917 . S
C568 C120 0.882 . S
C585 C92 0.922 . S
C604 C41 0.858 . S
C621 C162 0.926 . S
C640 C55 0.872 . S
C657 C69 0.907 . S
C676 C134 0.959 . S
C693 C83 0.920 . S
C712 C148 0.895 . S
C729 C22 1.205 . S
C748 C91 1.246 . S
C765 C36 1.208 . S
C784 C105 1.236 . S
C801 C119 1.259 . S
C820 C8 1.231 . S
C837 C133 1.254 . S
C856 C78 1.174 . S
C873 C50 1.219 . S
C892 C147 1.266 . S
C909 C161 1.254 . S
C928 C64 1.226 . S
C945 C274 0.922 . S
C964 C181 0.858 . S
C981 C195 0.902 . S
C1000 C288 0.930 . S
C1017 C209 0.904 . S
C1036 C260 0.878 . S
C1053 C330 0.915 . S
C1072 C223 0.949 . S
C1089 C237 0.923 . S
C1108 C302 0.938 . S
C1125 C316 0.930 . S
C1144 C251 0.894 . S
C1161 C190 1.205 . S
C1180 C259 1.242 . S
C1197 C273 1.257 . S
C1216 C204 1.184 . S
C1233 C176 1.205 . S
C1252 C287 1.241 . S
C1269 C301 1.252 . S
C1288 C246 1.208 . S
C1305 C315 1.259 . S
C1324 C218 1.214 . S
C1341 C329 1.257 . S
C1360 C232 1.245 . S
C1377 C442 0.920 . S
C1396 C349 0.962 . S
C1413 C456 0.927 . S
C1432 C363 0.872 . S
C1449 C428 0.911 . S
C1468 C377 0.917 . S
C1485 C391 0.904 . S
C1504 C498 0.878 . S
C1521 C405 0.923 . S
C1540 C470 0.941 . S
C1557 C484 0.916 . S
C1576 C419 0.858 . S
C1593 C427 1.259 . S
C1612 C358 1.214 . S
C1629 C372 1.215 . S
C1648 C441 1.270 . S
C1665 C344 1.219 . S
C1684 C455 1.268 . S
C1701 C469 1.255 . S
C1720 C414 1.177 . S
C1737 C483 1.252 . S
C1756 C386 1.181 . S
C1773 C497 1.259 . S
C1792 C400 1.219 . S
C1809 C49 0.972 . S
C1828 C7 0.968 . S
C1845 C63 0.972 . S
C1864 C21 0.962 . S
C1881 C35 0.983 . S
C1900 C77 0.996 . S
C1917 C139 1.156 . S
C1936 C97 1.105 . S
C1953 C153 1.145 . S
C1972 C111 1.123 . S
C1989 C167 1.138 . S
C2008 C125 1.161 . S
C2025 C217 0.983 . S
C2044 C175 0.976 . S
C2061 C231 0.977 . S
C2080 C189 0.950 . S
C2097 C203 0.972 . S
C2116 C245 0.971 . S
C2133 C307 1.140 1_554 S
C2152 C265 1.146 . S
C2169 C321 1.147 1_554 S
C2188 C279 1.116 . S
C2205 C335 1.142 1_554 S
C2224 C293 1.136 . S
C2241 C385 0.983 1_556 S
C2260 C343 0.996 . S
C2277 C357 0.972 . S
C2296 C399 0.966 1_556 S
C2313 C413 0.984 1_556 S
C2332 C371 0.985 . S
C2349 C433 1.140 . S
C2368 C475 1.145 . S
C2385 C447 1.145 . S
C2404 C489 1.123 . S
C2421 C461 1.138 . S
C2440 C503 1.189 . S
C2457 C11 1.427 . S
C2476 C263 1.430 . S
C2493 C277 1.442 . S
C2512 C25 1.407 . S
C2529 C291 1.441 . S
C2548 C39 1.440 . S
C2565 C473 1.439 . S
C2584 C53 1.435 . S
C2601 C487 1.440 . S
C2620 C67 1.420 . S
C2637 C501 1.443 . S
C2656 C81 1.410 . S
C2673 C95 1.439 . S
C2692 C347 1.440 . S
C2709 C361 1.430 . S
C2728 C109 1.430 . S
C2745 C375 1.430 . S
C2764 C123 1.429 . S
C2781 C137 1.439 . S
C2800 C221 1.432 . S
C2817 C151 1.443 . S
C2836 C235 1.423 . S
C2853 C165 1.439 . S
C2872 C249 1.437 . S
C2889 C431 1.442 . S
C2908 C179 1.407 . S
C2925 C445 1.439 . S
C2944 C193 1.433 . S
C2961 C207 1.423 . S
C2980 C459 1.446 . S
C2997 C305 1.440 . S
C3016 C389 1.440 . S
C3033 C319 1.444 . S
C3052 C403 1.409 . S
C3069 C333 1.439 . S
C3088 C417 1.434 . S
