# Generated by pormake.
# Topology ukt, (4)-cn, num edge types: 1
# Building blocks:
#     Node 0, Type 0, BuildingBlock: UXUYUI_clean_sbu_0, # of connection points: 4
#     Node 1, Type 0, BuildingBlock: UXUYUI_clean_sbu_0, # of connection points: 4
#     Node 2, Type 0, BuildingBlock: UXUYUI_clean_sbu_0, # of connection points: 4
#     Node 3, Type 0, BuildingBlock: UXUYUI_clean_sbu_0, # of connection points: 4
#     Node 4, Type 0, BuildingBlock: UXUYUI_clean_sbu_0, # of connection points: 4
#     Node 5, Type 0, BuildingBlock: UXUYUI_clean_sbu_0, # of connection points: 4
#     Node 6, Type 0, BuildingBlock: UXUYUI_clean_sbu_0, # of connection points: 4
#     Node 7, Type 0, BuildingBlock: UXUYUI_clean_sbu_0, # of connection points: 4
#     Node 8, Type 0, BuildingBlock: UXUYUI_clean_sbu_0, # of connection points: 4
#     Node 9, Type 0, BuildingBlock: UXUYUI_clean_sbu_0, # of connection points: 4
#     Node 10, Type 0, BuildingBlock: UXUYUI_clean_sbu_0, # of connection points: 4
#     Node 11, Type 0, BuildingBlock: UXUYUI_clean_sbu_0, # of connection points: 4
#     Node 12, Type 0, BuildingBlock: UXUYUI_clean_sbu_0, # of connection points: 4
#     Node 13, Type 0, BuildingBlock: UXUYUI_clean_sbu_0, # of connection points: 4
#     Node 14, Type 0, BuildingBlock: UXUYUI_clean_sbu_0, # of connection points: 4
#     Node 15, Type 0, BuildingBlock: UXUYUI_clean_sbu_0, # of connection points: 4
#     Edge 16, Type (0, 0), BuildingBlock: AJUNOK_clean_linker_0, # of connection points: 2
#     Edge 17, Type (0, 0), BuildingBlock: AJUNOK_clean_linker_0, # of connection points: 2
#     Edge 18, Type (0, 0), BuildingBlock: AJUNOK_clean_linker_0, # of connection points: 2
#     Edge 19, Type (0, 0), BuildingBlock: AJUNOK_clean_linker_0, # of connection points: 2
#     Edge 20, Type (0, 0), BuildingBlock: AJUNOK_clean_linker_0, # of connection points: 2
#     Edge 21, Type (0, 0), BuildingBlock: AJUNOK_clean_linker_0, # of connection points: 2
#     Edge 22, Type (0, 0), BuildingBlock: AJUNOK_clean_linker_0, # of connection points: 2
#     Edge 23, Type (0, 0), BuildingBlock: AJUNOK_clean_linker_0, # of connection points: 2
#     Edge 24, Type (0, 0), BuildingBlock: AJUNOK_clean_linker_0, # of connection points: 2
#     Edge 25, Type (0, 0), BuildingBlock: AJUNOK_clean_linker_0, # of connection points: 2
#     Edge 26, Type (0, 0), BuildingBlock: AJUNOK_clean_linker_0, # of connection points: 2
#     Edge 27, Type (0, 0), BuildingBlock: AJUNOK_clean_linker_0, # of connection points: 2
#     Edge 28, Type (0, 0), BuildingBlock: AJUNOK_clean_linker_0, # of connection points: 2
#     Edge 29, Type (0, 0), BuildingBlock: AJUNOK_clean_linker_0, # of connection points: 2
#     Edge 30, Type (0, 0), BuildingBlock: AJUNOK_clean_linker_0, # of connection points: 2
#     Edge 31, Type (0, 0), BuildingBlock: AJUNOK_clean_linker_0, # of connection points: 2
#     Edge 32, Type (0, 0), BuildingBlock: AJUNOK_clean_linker_0, # of connection points: 2
#     Edge 33, Type (0, 0), BuildingBlock: AJUNOK_clean_linker_0, # of connection points: 2
#     Edge 34, Type (0, 0), BuildingBlock: AJUNOK_clean_linker_0, # of connection points: 2
#     Edge 35, Type (0, 0), BuildingBlock: AJUNOK_clean_linker_0, # of connection points: 2
#     Edge 36, Type (0, 0), BuildingBlock: AJUNOK_clean_linker_0, # of connection points: 2
#     Edge 37, Type (0, 0), BuildingBlock: AJUNOK_clean_linker_0, # of connection points: 2
#     Edge 38, Type (0, 0), BuildingBlock: AJUNOK_clean_linker_0, # of connection points: 2
#     Edge 39, Type (0, 0), BuildingBlock: AJUNOK_clean_linker_0, # of connection points: 2
#     Edge 40, Type (0, 0), BuildingBlock: AJUNOK_clean_linker_0, # of connection points: 2
#     Edge 41, Type (0, 0), BuildingBlock: AJUNOK_clean_linker_0, # of connection points: 2
#     Edge 42, Type (0, 0), BuildingBlock: AJUNOK_clean_linker_0, # of connection points: 2
#     Edge 43, Type (0, 0), BuildingBlock: AJUNOK_clean_linker_0, # of connection points: 2
#     Edge 44, Type (0, 0), BuildingBlock: AJUNOK_clean_linker_0, # of connection points: 2
#     Edge 45, Type (0, 0), BuildingBlock: AJUNOK_clean_linker_0, # of connection points: 2
#     Edge 46, Type (0, 0), BuildingBlock: AJUNOK_clean_linker_0, # of connection points: 2
#     Edge 47, Type (0, 0), BuildingBlock: AJUNOK_clean_linker_0, # of connection points: 2
# Relax obj value: 0.433
# Max RMSD: 0.238
# Mean RMSD: 0.238
data_MOF--net-ukt--node1-UXUYUI_clean_sbu_0--edge1-AJUNOK_clean_linker_0
_symmetry_space_group_name_H-M    P1
_symmetry_Int_Tables_number       1
_symmetry_cell_setting            triclinic
loop_
_symmetry_equiv_pos_as_xyz
'x, y, z'
_cell_length_a     49.949836
_cell_length_b     49.955556
_cell_length_c     44.976409
_cell_angle_alpha  89.978589
_cell_angle_beta   90.014766
_cell_angle_gamma 89.999003
loop_
_atom_site_label
_atom_site_type_symbol
_atom_site_fract_x
_atom_site_fract_y
_atom_site_fract_z
_atom_type_partial_charge
Li0 Li 0.55133 0.15781 0.12319 0.0
Li1 Li 0.54524 0.11758 0.08716 0.0
Li2 Li 0.58878 0.13426 0.10147 0.0
Li3 Li 0.56143 0.16185 0.07002 0.0
C4 C 0.57536 0.10316 0.14744 0.0
N5 N 0.60533 0.07144 0.18523 0.0
C6 C 0.5714 0.07547 0.14806 0.0
C7 C 0.59422 0.11475 0.16643 0.0
C8 C 0.58683 0.05976 0.16722 0.0
C9 C 0.60928 0.09837 0.18525 0.0
C10 C 0.50981 0.16609 0.06852 0.0
C11 C 0.4908 0.16944 0.01936 0.0
N12 N 0.47965 0.19334 0.02685 0.0
C13 C 0.49808 0.19062 0.07578 0.0
C14 C 0.50609 0.15533 0.04013 0.0
C15 C 0.48293 0.20411 0.05438 0.0
C16 C 0.53726 0.20523 0.15066 0.0
N17 N 0.54016 0.17866 0.1563 0.0
C18 C 0.53707 0.18648 0.20865 0.0
C19 C 0.53964 0.16892 0.18453 0.0
C20 C 0.53534 0.21419 0.20347 0.0
C21 C 0.53459 0.22341 0.174 0.0
H22 H 0.53857 0.21247 0.12805 0.0
H23 H 0.54268 0.14776 0.1884 0.0
C24 C 0.5444 0.06442 0.07154 0.0
N25 N 0.52779 0.0858 0.07438 0.0
C26 C 0.53594 0.04146 0.05666 0.0
C27 C 0.49292 0.06247 0.04878 0.0
C28 C 0.50225 0.08512 0.06395 0.0
C29 C 0.51012 0.04051 0.04442 0.0
H30 H 0.56476 0.06574 0.07955 0.0
H31 H 0.4896 0.10258 0.06603 0.0
C32 C 0.60138 0.19073 0.11451 0.0
N33 N 0.63841 0.22709 0.13593 0.0
C34 C 0.61604 0.2067 0.09482 0.0
C35 C 0.60549 0.19342 0.14512 0.0
C36 C 0.63471 0.22488 0.10607 0.0
C37 C 0.62429 0.2119 0.1555 0.0
C38 C 0.59668 0.12216 0.04273 0.0
C39 C 0.61526 0.14266 0.03814 0.0
C40 C 0.60069 0.09725 0.0293 0.0
C41 C 0.63769 0.13785 0.02039 0.0
C42 C 0.62337 0.09323 0.01167 0.0
N43 N 0.64126 0.11343 0.00765 0.0
C44 C 0.62691 0.09395 0.10028 0.0
C45 C 0.64623 0.13705 0.10514 0.0
C46 C 0.6517 0.08292 0.09313 0.0
N47 N 0.62446 0.12071 0.10503 0.0
C48 C 0.67142 0.12688 0.09788 0.0
C49 C 0.67411 0.09969 0.09055 0.0
H50 H 0.60922 0.08153 0.09941 0.0
H51 H 0.64387 0.15829 0.10827 0.0
C52 C 0.5613 0.21309 0.04559 0.0
N53 N 0.56154 0.18675 0.03819 0.0
C54 C 0.56474 0.23255 0.02374 0.0
C55 C 0.56685 0.19747 0.98676 0.0
C56 C 0.56356 0.17862 0.00943 0.0
C57 C 0.56827 0.22479 0.99397 0.0
H58 H 0.55949 0.21888 0.06868 0.0
H59 H 0.56332 0.1575 0.0042 0.0
O60 O 0.56057 0.11882 0.12862 0.0
O61 O 0.52536 0.15291 0.08883 0.0
O62 O 0.5827 0.17309 0.10382 0.0
O63 O 0.57509 0.12622 0.06096 0.0
H64 H 0.55649 0.0662 0.134 0.0
H65 H 0.59744 0.13611 0.16637 0.0
H66 H 0.58406 0.03829 0.16782 0.0
H67 H 0.62413 0.10708 0.19985 0.0
H68 H 0.48794 0.16146 0.99723 0.0
H69 H 0.50065 0.19917 0.09767 0.0
H70 H 0.51537 0.13655 0.03402 0.0
H71 H 0.47379 0.22316 0.05966 0.0
H72 H 0.53786 0.17864 0.23109 0.0
H73 H 0.53294 0.24457 0.16908 0.0
H74 H 0.54975 0.02493 0.05392 0.0
H75 H 0.47301 0.06271 0.03926 0.0
H76 H 0.61313 0.20508 0.07108 0.0
H77 H 0.59419 0.18161 0.1608 0.0
H78 H 0.64623 0.23727 0.09106 0.0
H79 H 0.62758 0.21421 0.17914 0.0
H80 H 0.61258 0.16195 0.04853 0.0
H81 H 0.58654 0.08114 0.03251 0.0
H82 H 0.65231 0.1535 0.01685 0.0
H83 H 0.62679 0.07402 0.00125 0.0
H84 H 0.65296 0.06186 0.08757 0.0
H85 H 0.68805 0.14062 0.0955 0.0
H86 H 0.5658 0.25339 0.03026 0.0
H87 H 0.56883 0.19072 0.964 0.0
Li88 Li 0.34585 0.55022 0.11921 0.0
Li89 Li 0.3826 0.5403 0.08447 0.0
Li90 Li 0.3719 0.5858 0.09427 0.0
Li91 Li 0.34085 0.55775 0.06679 0.0
C92 C 0.39517 0.57572 0.14444 0.0
N93 N 0.41559 0.61188 0.185 0.0
C94 C 0.42269 0.57669 0.14991 0.0
C95 C 0.37801 0.59304 0.15971 0.0
C96 C 0.43263 0.59515 0.17048 0.0
C97 C 0.38873 0.6112 0.18009 0.0
C98 C 0.3483 0.4979 0.09866 0.0
C99 C 0.33302 0.45222 0.10234 0.0
N100 N 0.35183 0.44744 0.12356 0.0
C101 C 0.36748 0.49255 0.12053 0.0
C102 C 0.33092 0.47761 0.0895 0.0
C103 C 0.36894 0.46691 0.13282 0.0
C104 C 0.29899 0.53672 0.14876 0.0
N105 N 0.32561 0.54038 0.15341 0.0
C106 C 0.3197 0.53501 0.20583 0.0
C107 C 0.33632 0.539 0.18116 0.0
C108 C 0.29186 0.53247 0.20184 0.0
C109 C 0.28164 0.53301 0.17273 0.0
H110 H 0.29112 0.53766 0.12638 0.0
H111 H 0.35761 0.54177 0.18424 0.0
C112 C 0.43672 0.53271 0.07515 0.0
N113 N 0.41286 0.51988 0.07238 0.0
C114 C 0.45918 0.52353 0.05984 0.0
C115 C 0.43235 0.48751 0.03981 0.0
C116 C 0.41038 0.49727 0.05577 0.0
C117 C 0.45689 0.50124 0.04108 0.0
H118 H 0.43778 0.55126 0.0874 0.0
H119 H 0.39096 0.48799 0.05314 0.0
C120 C 0.31322 0.59889 0.08766 0.0
N121 N 0.27336 0.62876 0.06084 0.0
C122 C 0.31941 0.6163 0.06429 0.0
C123 C 0.28677 0.59686 0.09752 0.0
C124 C 0.29899 0.63121 0.05102 0.0
C125 C 0.26689 0.61206 0.08362 0.0
C126 C 0.38796 0.56162 0.02916 0.0
C127 C 0.41033 0.57517 0.01814 0.0
C128 C 0.37758 0.5398 0.01348 0.0
C129 C 0.42194 0.56669 0.9915 0.0
C130 C 0.38975 0.53196 0.98691 0.0
N131 N 0.41147 0.54547 0.97656 0.0
C132 C 0.41443 0.6205 0.08724 0.0
C133 C 0.37394 0.64294 0.09889 0.0
C134 C 0.42655 0.6446 0.07936 0.0
N135 N 0.38826 0.62002 0.09539 0.0
C136 C 0.38516 0.66749 0.09078 0.0
C137 C 0.41133 0.66822 0.07933 0.0
H138 H 0.42531 0.60191 0.08489 0.0
H139 H 0.35325 0.64198 0.10583 0.0
C140 C 0.29049 0.54678 0.04291 0.0
N141 N 0.31441 0.55831 0.03644 0.0
C142 C 0.26842 0.55123 0.02457 0.0
C143 C 0.29645 0.57807 0.99239 0.0
C144 C 0.31798 0.57314 0.01139 0.0
C145 C 0.27113 0.56764 0.99939 0.0
H146 H 0.28822 0.53546 0.06327 0.0
H147 H 0.33704 0.58269 0.00724 0.0
O148 O 0.38504 0.55826 0.1239 0.0
O149 O 0.34618 0.52285 0.08632 0.0
O150 O 0.33287 0.58348 0.10026 0.0
O151 O 0.37662 0.56936 0.05549 0.0
H152 H 0.43625 0.56334 0.13847 0.0
H153 H 0.35666 0.59264 0.15563 0.0
H154 H 0.45389 0.59616 0.1749 0.0
H155 H 0.3757 0.62479 0.19196 0.0
H156 H 0.31968 0.43633 0.09545 0.0
H157 H 0.38114 0.5079 0.12797 0.0
H158 H 0.31592 0.48147 0.07265 0.0
H159 H 0.38369 0.46248 0.14975 0.0
H160 H 0.32845 0.53455 0.22786 0.0
H161 H 0.26034 0.53182 0.16851 0.0
H162 H 0.47767 0.53481 0.06108 0.0
H163 H 0.42991 0.47017 0.02562 0.0
H164 H 0.33969 0.6178 0.056 0.0
H165 H 0.28157 0.58367 0.11567 0.0
H166 H 0.30348 0.64455 0.03274 0.0
H167 H 0.24632 0.61057 0.09093 0.0
H168 H 0.41867 0.59205 0.03001 0.0
H169 H 0.36053 0.52883 0.02193 0.0
H170 H 0.43928 0.57697 0.98272 0.0
H171 H 0.382 0.51505 0.9746 0.0
H172 H 0.44703 0.64448 0.07145 0.0
H173 H 0.37282 0.68532 0.09127 0.0
H174 H 0.24916 0.54293 0.0307 0.0
H175 H 0.29917 0.59133 0.97358 0.0
Li176 Li 0.95287 0.38215 0.08417 0.0
Li177 Li 0.94629 0.34261 0.12152 0.0
Li178 Li 0.93737 0.33717 0.06789 0.0
Li179 Li 0.90923 0.36548 0.09737 0.0
C180 C 0.98906 0.33088 0.07086 0.0
N181 N 0.02051 0.2978 0.0362 0.0
C182 C 0.99971 0.30736 0.08283 0.0
C183 C 0.99453 0.33768 0.04132 0.0
C184 C 0.01555 0.29089 0.06493 0.0
C185 C 0.01042 0.32065 0.02414 0.0
C186 C 0.92107 0.39488 0.14557 0.0
C187 C 0.88762 0.39446 0.18422 0.0
N188 N 0.88979 0.4215 0.18671 0.0
C189 C 0.92321 0.42263 0.14874 0.0
C190 C 0.90336 0.38064 0.16366 0.0
C191 C 0.90714 0.43574 0.16957 0.0
C192 C 0.95547 0.43634 0.07194 0.0
N193 N 0.97057 0.41373 0.07111 0.0
C194 C 0.00323 0.43552 0.04069 0.0
C195 C 0.99439 0.41304 0.05648 0.0
C196 C 0.98745 0.45881 0.04022 0.0
C197 C 0.96361 0.45926 0.0567 0.0
H198 H 0.93613 0.43598 0.08268 0.0
H199 H 0.00583 0.3947 0.05578 0.0
C200 C 0.9556 0.29566 0.1523 0.0
N201 N 0.95692 0.32265 0.15567 0.0
C202 C 0.95896 0.27874 0.17669 0.0
C203 C 0.96646 0.31763 0.20751 0.0
C204 C 0.96257 0.3339 0.18247 0.0
C205 C 0.96393 0.28963 0.20495 0.0
H206 H 0.95076 0.28729 0.13078 0.0
H207 H 0.9633 0.35546 0.18458 0.0
C208 C 0.90274 0.37925 0.03939 0.0
N209 N 0.85896 0.39324 0.00512 0.0
C210 C 0.88313 0.36026 0.03264 0.0
C211 C 0.90022 0.40532 0.02841 0.0
C212 C 0.8611 0.36772 0.01539 0.0
C213 C 0.87791 0.412 0.01119 0.0
C214 C 0.89585 0.3087 0.10849 0.0
C215 C 0.88266 0.29468 0.0859 0.0
C216 C 0.88924 0.30361 0.13817 0.0
C217 C 0.8628 0.27617 0.09336 0.0
C218 C 0.86928 0.28493 0.14473 0.0
N219 N 0.85656 0.27174 0.12237 0.0
C220 C 0.94129 0.28539 0.04477 0.0
C221 C 0.93416 0.31891 0.00823 0.0
C222 C 0.9388 0.26534 0.02342 0.0
N223 N 0.9383 0.31148 0.03694 0.0
C224 C 0.93137 0.29948 0.98615 0.0
C225 C 0.93321 0.27231 0.99381 0.0
H226 H 0.94445 0.28016 0.06785 0.0
H227 H 0.93212 0.33986 0.00265 0.0
C228 C 0.87095 0.40596 0.09612 0.0
N229 N 0.8734 0.37907 0.10002 0.0
C230 C 0.84626 0.41712 0.08865 0.0
C231 C 0.82659 0.37301 0.09155 0.0
C232 C 0.85166 0.36271 0.09908 0.0
C233 C 0.82393 0.40039 0.08506 0.0
H234 H 0.88863 0.41844 0.09622 0.0
H235 H 0.85397 0.34142 0.10165 0.0
O236 O 0.97292 0.3469 0.08778 0.0
O237 O 0.93645 0.38167 0.1251 0.0
O238 O 0.92411 0.37245 0.05695 0.0
O239 O 0.91554 0.32675 0.10159 0.0
H240 H 0.99573 0.30185 0.10565 0.0
H241 H 0.98608 0.3556 0.03158 0.0
H242 H 0.02386 0.27258 0.07386 0.0
H243 H 0.01462 0.32553 0.00118 0.0
H244 H 0.87367 0.38368 0.19819 0.0
H245 H 0.93722 0.43393 0.1354 0.0
H246 H 0.90163 0.3592 0.16163 0.0
H247 H 0.9085 0.45722 0.17218 0.0
H248 H 0.02175 0.43446 0.02821 0.0
H249 H 0.95058 0.47659 0.05634 0.0
H250 H 0.95659 0.25737 0.17361 0.0
H251 H 0.97091 0.3269 0.22869 0.0
H252 H 0.88473 0.34006 0.04097 0.0
H253 H 0.91523 0.42027 0.03317 0.0
H254 H 0.84567 0.35326 0.01026 0.0
H255 H 0.87564 0.43214 0.0027 0.0
H256 H 0.88762 0.29798 0.06282 0.0
H257 H 0.89952 0.31374 0.15605 0.0
H258 H 0.85239 0.26529 0.07608 0.0
H259 H 0.86397 0.28085 0.1676 0.0
H260 H 0.93977 0.24458 0.03031 0.0
H261 H 0.92701 0.30554 0.96353 0.0
H262 H 0.84503 0.43832 0.08377 0.0
H263 H 0.81004 0.3593 0.0884 0.0
Li264 Li 0.11654 0.95026 0.08398 0.0
Li265 Li 0.15489 0.93895 0.12125 0.0
Li266 Li 0.15877 0.92968 0.06937 0.0
Li267 Li 0.12712 0.90336 0.09725 0.0
C268 C 0.16905 0.98077 0.06888 0.0
N269 N 0.20078 0.00935 0.02984 0.0
C270 C 0.1944 0.98959 0.0777 0.0
C271 C 0.15979 0.9866 0.04029 0.0
C272 C 0.21015 0.00399 0.05762 0.0
C273 C 0.17615 0.00103 0.02085 0.0
C274 C 0.09818 0.91988 0.14372 0.0
C275 C 0.09105 0.88561 0.18066 0.0
N276 N 0.06466 0.89226 0.18176 0.0
C277 C 0.07103 0.92648 0.14532 0.0
C278 C 0.10833 0.89939 0.16164 0.0
C279 C 0.0544 0.91225 0.16465 0.0
C280 C 0.06452 0.95356 0.06778 0.0
N281 N 0.08625 0.9697 0.07061 0.0
C282 C 0.06449 0.00426 0.04286 0.0
C283 C 0.08654 0.9949 0.05913 0.0
C284 C 0.04247 0.98724 0.03819 0.0
C285 C 0.0423 0.96197 0.05167 0.0
H286 H 0.06519 0.93342 0.07647 0.0
H287 H 0.10434 0.00709 0.06112 0.0
C288 C 0.18148 0.92658 0.17377 0.0
N289 N 0.1746 0.94764 0.15625 0.0
C290 C 0.19904 0.93006 0.19754 0.0
C291 C 0.20189 0.97708 0.18533 0.0
C292 C 0.184 0.9727 0.16181 0.0
C293 C 0.20992 0.95546 0.20329 0.0
H294 H 0.17418 0.90678 0.16851 0.0
H295 H 0.17841 0.98908 0.14736 0.0
C296 C 0.1127 0.91134 0.0317 0.0
N297 N 0.09187 0.89466 0.97783 0.0
C298 C 0.11206 0.88411 0.02453 0.0
C299 C 0.10289 0.93009 0.01131 0.0
C300 C 0.10144 0.87608 0.99722 0.0
C301 C 0.09238 0.92125 0.98425 0.0
C302 C 0.18702 0.88941 0.09434 0.0
C303 C 0.18401 0.87184 0.07038 0.0
C304 C 0.2118 0.89138 0.10864 0.0
C305 C 0.20588 0.85656 0.06107 0.0
C306 C 0.23318 0.87573 0.09868 0.0
N307 N 0.22979 0.85879 0.07532 0.0
C308 C 0.21124 0.93111 0.04742 0.0
C309 C 0.17953 0.92049 0.01003 0.0
C310 C 0.23229 0.92571 0.02806 0.0
N311 N 0.18546 0.92757 0.03852 0.0
C312 C 0.20005 0.91512 0.98977 0.0
C313 C 0.22673 0.91688 0.99915 0.0
H314 H 0.21547 0.93688 0.0701 0.0
H315 H 0.15903 0.91799 0.0032 0.0
C316 C 0.08271 0.87001 0.09409 0.0
N317 N 0.10945 0.86985 0.09963 0.0
C318 C 0.06959 0.84639 0.08644 0.0
C319 C 0.1114 0.82261 0.09243 0.0
C320 C 0.12361 0.84665 0.10057 0.0
C321 C 0.08439 0.82265 0.08364 0.0
H322 H 0.072 0.88877 0.09336 0.0
H323 H 0.14481 0.84708 0.10526 0.0
O324 O 0.15348 0.96625 0.088 0.0
O325 O 0.11471 0.93329 0.12459 0.0
O326 O 0.12253 0.91959 0.05862 0.0
O327 O 0.16593 0.90477 0.1036 0.0
H328 H 0.202 0.98503 0.09964 0.0
H329 H 0.14032 0.97975 0.03305 0.0
H330 H 0.22987 0.01081 0.06407 0.0
H331 H 0.1693 0.00554 0.99859 0.0
H332 H 0.09859 0.86956 0.19448 0.0
H333 H 0.0629 0.94246 0.13183 0.0
H334 H 0.12922 0.89385 0.16044 0.0
H335 H 0.03333 0.91709 0.16607 0.0
H336 H 0.06518 0.02393 0.03276 0.0
H337 H 0.02551 0.94847 0.04885 0.0
H338 H 0.20455 0.91288 0.21091 0.0
H339 H 0.21013 0.99691 0.18862 0.0
H340 H 0.11965 0.86926 0.03982 0.0
H341 H 0.10339 0.95125 0.01623 0.0
H342 H 0.1008 0.85507 0.99145 0.0
H343 H 0.08464 0.93555 0.96835 0.0
H344 H 0.16509 0.8703 0.05884 0.0
H345 H 0.21458 0.90503 0.12705 0.0
H346 H 0.20387 0.84302 0.04244 0.0
H347 H 0.25248 0.87711 0.10947 0.0
H348 H 0.25273 0.92747 0.03589 0.0
H349 H 0.19515 0.90836 0.96754 0.0
H350 H 0.04854 0.84708 0.08068 0.0
H351 H 0.1235 0.8047 0.09069 0.0
Li352 Li 0.5919 0.3648 0.41352 0.0
Li353 Li 0.5642 0.33498 0.44194 0.0
Li354 Li 0.55729 0.34077 0.38751 0.0
Li355 Li 0.54741 0.37738 0.42296 0.0
C356 C 0.61214 0.31307 0.40716 0.0
N357 N 0.66107 0.28748 0.40385 0.0
C358 C 0.62906 0.31244 0.4319 0.0
C359 C 0.62005 0.30064 0.38076 0.0
C360 C 0.65374 0.29943 0.42977 0.0
C361 C 0.64488 0.28781 0.37952 0.0
C362 C 0.56644 0.37735 0.48045 0.0
C363 C 0.53246 0.37451 0.51846 0.0
N364 N 0.54741 0.39068 0.53623 0.0
C365 C 0.58149 0.39387 0.49915 0.0
C366 C 0.54174 0.36752 0.49022 0.0
C367 C 0.57152 0.4004 0.52725 0.0
C368 C 0.62743 0.4028 0.43066 0.0
N369 N 0.62685 0.3803 0.41372 0.0
C370 C 0.67465 0.37972 0.41103 0.0
C371 C 0.64972 0.36942 0.40252 0.0
C372 C 0.6756 0.40136 0.43086 0.0
C373 C 0.65173 0.41362 0.43973 0.0
H374 H 0.60892 0.41135 0.43869 0.0
H375 H 0.64879 0.35191 0.3885 0.0
C376 C 0.5467 0.28848 0.47153 0.0
N377 N 0.56412 0.30931 0.47291 0.0
C378 C 0.54837 0.2677 0.49222 0.0
C379 C 0.58529 0.29071 0.5158 0.0
C380 C 0.5827 0.31118 0.4949 0.0
C381 C 0.56848 0.26825 0.51409 0.0
H382 H 0.53205 0.28765 0.45384 0.0
H383 H 0.59616 0.32811 0.49557 0.0
C384 C 0.58496 0.38959 0.36469 0.0
N385 N 0.62445 0.40945 0.32775 0.0
C386 C 0.58934 0.41717 0.36278 0.0
C387 C 0.60055 0.37213 0.34766 0.0
C388 C 0.60943 0.42681 0.34401 0.0
C389 C 0.62043 0.38255 0.32915 0.0
C390 C 0.50457 0.3433 0.40865 0.0
C391 C 0.4999 0.36001 0.38425 0.0
C392 C 0.48341 0.32872 0.42092 0.0
C393 C 0.47408 0.36179 0.37248 0.0
C394 C 0.45787 0.33107 0.40853 0.0
N395 N 0.45377 0.34741 0.38476 0.0
C396 C 0.54657 0.29364 0.35699 0.0
C397 C 0.54471 0.33193 0.32591 0.0
C398 C 0.54259 0.27677 0.33264 0.0
N399 N 0.54798 0.32059 0.35315 0.0
C400 C 0.54073 0.31577 0.30088 0.0
C401 C 0.54017 0.28776 0.30405 0.0
H402 H 0.54938 0.28522 0.37894 0.0
H403 H 0.54585 0.35345 0.32352 0.0
C404 C 0.54153 0.43091 0.43429 0.0
N405 N 0.52721 0.4078 0.4347 0.0
C406 C 0.53196 0.45366 0.44869 0.0
C407 C 0.49282 0.42854 0.46361 0.0
C408 C 0.50304 0.40625 0.44854 0.0
C409 C 0.5076 0.45247 0.46411 0.0
H410 H 0.56126 0.43112 0.4245 0.0
H411 H 0.49255 0.38734 0.44956 0.0
O412 O 0.5879 0.32567 0.40872 0.0
O413 O 0.57579 0.3713 0.45261 0.0
O414 O 0.56585 0.3796 0.38345 0.0
O415 O 0.52962 0.34117 0.42071 0.0
H416 H 0.62346 0.32237 0.4523 0.0
H417 H 0.60716 0.30092 0.36141 0.0
H418 H 0.66712 0.29894 0.44868 0.0
H419 H 0.65128 0.27813 0.35922 0.0
H420 H 0.51335 0.36712 0.52622 0.0
H421 H 0.60068 0.40163 0.49205 0.0
H422 H 0.52972 0.35476 0.47616 0.0
H423 H 0.58295 0.41321 0.54191 0.0
H424 H 0.69284 0.36981 0.40391 0.0
H425 H 0.65188 0.43037 0.45504 0.0
H426 H 0.53458 0.25104 0.49061 0.0
H427 H 0.60106 0.29191 0.53228 0.0
H428 H 0.57736 0.43101 0.37558 0.0
H429 H 0.59756 0.35073 0.34902 0.0
H430 H 0.61309 0.4481 0.34238 0.0
H431 H 0.63274 0.36925 0.316 0.0
H432 H 0.51595 0.37151 0.37446 0.0
H433 H 0.48671 0.31576 0.43987 0.0
H434 H 0.47018 0.37463 0.35359 0.0
H435 H 0.4413 0.31991 0.41781 0.0
H436 H 0.54238 0.2553 0.336 0.0
H437 H 0.5385 0.32503 0.27925 0.0
H438 H 0.54425 0.47151 0.44926 0.0
H439 H 0.47407 0.42687 0.47555 0.0
Li440 Li 0.13665 0.59108 0.40837 0.0
Li441 Li 0.16528 0.56145 0.43638 0.0
Li442 Li 0.1616 0.55573 0.38311 0.0
Li443 Li 0.12227 0.54489 0.41857 0.0
C444 C 0.19003 0.60827 0.41546 0.0
N445 N 0.219 0.65081 0.43799 0.0
C446 C 0.18301 0.61966 0.44275 0.0
C447 C 0.21193 0.6184 0.39974 0.0
C448 C 0.19785 0.64117 0.45374 0.0
C449 C 0.22628 0.63996 0.41146 0.0
C450 C 0.11865 0.57753 0.47383 0.0
C451 C 0.0991 0.55969 0.51874 0.0
N452 N 0.09555 0.58501 0.52909 0.0
C453 C 0.1149 0.60338 0.48502 0.0
C454 C 0.11079 0.5555 0.49092 0.0
C455 C 0.10317 0.60675 0.51296 0.0
C456 C 0.09529 0.62643 0.41705 0.0
N457 N 0.12113 0.62592 0.40767 0.0
C458 C 0.12426 0.67346 0.4118 0.0
C459 C 0.13525 0.64887 0.40335 0.0
C460 C 0.09855 0.67415 0.42442 0.0
C461 C 0.08352 0.65047 0.42561 0.0
H462 H 0.0846 0.60787 0.42026 0.0
H463 H 0.15562 0.64801 0.39538 0.0
C464 C 0.21708 0.56128 0.45933 0.0
N465 N 0.19102 0.56054 0.468 0.0
C466 C 0.23741 0.56384 0.48034 0.0
C467 C 0.20388 0.56423 0.51906 0.0
C468 C 0.18416 0.56145 0.49726 0.0
C469 C 0.23085 0.56577 0.51059 0.0
H470 H 0.22199 0.56083 0.43592 0.0
H471 H 0.16344 0.56085 0.50377 0.0
C472 C 0.1078 0.58044 0.36073 0.0
N473 N 0.0785 0.61414 0.32445 0.0
C474 C 0.08011 0.57719 0.35815 0.0
C475 C 0.12063 0.60063 0.3446 0.0
C476 C 0.06564 0.59448 0.33974 0.0
C477 C 0.10545 0.61753 0.32648 0.0
C478 C 0.17562 0.5113 0.43056 0.0
C479 C 0.20156 0.50677 0.42007 0.0
C480 C 0.1678 0.5006 0.45793 0.0
C481 C 0.21931 0.49164 0.43723 0.0
C482 C 0.18615 0.48561 0.47444 0.0
N483 N 0.21131 0.48148 0.46384 0.0
C484 C 0.19142 0.56896 0.33305 0.0
C485 C 0.18753 0.52208 0.33971 0.0
C486 C 0.2086 0.5653 0.30896 0.0
N487 N 0.18142 0.54754 0.34799 0.0
C488 C 0.20497 0.51747 0.31585 0.0
C489 C 0.21594 0.53931 0.30027 0.0
H490 H 0.18662 0.58899 0.34036 0.0
H491 H 0.17961 0.50538 0.35226 0.0
C492 C 0.06899 0.54241 0.43192 0.0
N493 N 0.09069 0.52615 0.42957 0.0
C494 C 0.04612 0.5338 0.44679 0.0
C495 C 0.06793 0.49138 0.45593 0.0
C496 C 0.09042 0.50076 0.4405 0.0
C497 C 0.04566 0.50827 0.4597 0.0
H498 H 0.07017 0.56279 0.42406 0.0
H499 H 0.10818 0.48847 0.43897 0.0
O500 O 0.17611 0.58684 0.40446 0.0
O501 O 0.12942 0.57388 0.44609 0.0
O502 O 0.12229 0.56401 0.37901 0.0
O503 O 0.15818 0.52667 0.41445 0.0
H504 H 0.16637 0.6119 0.45539 0.0
H505 H 0.21784 0.60964 0.37873 0.0
H506 H 0.1926 0.65017 0.47482 0.0
H507 H 0.24325 0.64803 0.3995 0.0
H508 H 0.0929 0.54279 0.53213 0.0
H509 H 0.12099 0.62074 0.47235 0.0
H510 H 0.11391 0.53535 0.483 0.0
H511 H 0.10011 0.62665 0.52181 0.0
H512 H 0.13654 0.6913 0.41075 0.0
H513 H 0.06358 0.65028 0.43509 0.0
H514 H 0.25796 0.56558 0.47288 0.0
H515 H 0.19811 0.56578 0.54221 0.0
H516 H 0.0699 0.56141 0.37008 0.0
H517 H 0.14199 0.60357 0.34656 0.0
H518 H 0.04419 0.59224 0.33759 0.0
H519 H 0.1151 0.6334 0.31411 0.0
H520 H 0.20809 0.51521 0.39915 0.0
H521 H 0.14791 0.50413 0.46653 0.0
H522 H 0.2395 0.48811 0.42946 0.0
H523 H 0.18041 0.47735 0.49574 0.0
H524 H 0.21639 0.58271 0.2975 0.0
H525 H 0.2105 0.49711 0.31036 0.0
H526 H 0.02963 0.54762 0.44981 0.0
H527 H 0.06829 0.47159 0.46576 0.0
Li528 Li 0.92927 0.16601 0.43502 0.0
Li529 Li 0.89657 0.13731 0.40446 0.0
Li530 Li 0.94186 0.1219 0.41691 0.0
Li531 Li 0.93618 0.15741 0.38248 0.0
C532 C 0.91307 0.11323 0.46665 0.0
N533 N 0.91622 0.07501 0.51089 0.0
C534 C 0.90006 0.08866 0.46325 0.0
C535 C 0.92743 0.11851 0.49267 0.0
C536 C 0.90197 0.06955 0.48584 0.0
C537 C 0.92883 0.09889 0.51476 0.0
C538 C 0.90159 0.19927 0.38639 0.0
C539 C 0.88364 0.22354 0.34452 0.0
N540 N 0.89484 0.24643 0.35515 0.0
C541 C 0.91281 0.22308 0.39698 0.0
C542 C 0.88671 0.19952 0.36008 0.0
C543 C 0.90922 0.2467 0.38082 0.0
C544 C 0.95235 0.20546 0.47232 0.0
N545 N 0.93025 0.19044 0.46673 0.0
C546 C 0.90557 0.21313 0.50447 0.0
C547 C 0.90731 0.19348 0.48256 0.0
C548 C 0.92764 0.22982 0.50985 0.0
C549 C 0.95149 0.22542 0.49404 0.0
H550 H 0.97028 0.20254 0.45924 0.0
H551 H 0.89008 0.1812 0.47741 0.0
C552 C 0.85148 0.10291 0.39709 0.0
N553 N 0.86009 0.12783 0.40453 0.0
C554 C 0.82546 0.0949 0.40432 0.0
C555 C 0.81769 0.13868 0.42561 0.0
C556 C 0.84368 0.14588 0.41778 0.0
C557 C 0.8085 0.11265 0.4196 0.0
H558 H 0.86527 0.08878 0.38724 0.0
H559 H 0.85145 0.16527 0.42414 0.0
C560 C 0.98809 0.14996 0.40453 0.0
N561 N 0.03849 0.13841 0.38272 0.0
C562 C 0.99098 0.13429 0.379 0.0
C563 C 0.01084 0.15974 0.41899 0.0
C564 C 0.01662 0.12869 0.36831 0.0
C565 C 0.03615 0.15368 0.40762 0.0
C566 C 0.91608 0.1121 0.35012 0.0
C567 C 0.93251 0.09461 0.33414 0.0
C568 C 0.8924 0.12151 0.33726 0.0
C569 C 0.92517 0.08717 0.30532 0.0
C570 C 0.88574 0.11358 0.30841 0.0
N571 N 0.90215 0.09674 0.29316 0.0
C572 C 0.95063 0.06626 0.42044 0.0
C573 C 0.97693 0.09244 0.45336 0.0
C574 C 0.95848 0.04278 0.43492 0.0
N575 N 0.95951 0.09041 0.43024 0.0
C576 C 0.9851 0.06951 0.46864 0.0
C577 C 0.97544 0.04436 0.45977 0.0
H578 H 0.9362 0.06537 0.40253 0.0
H579 H 0.98312 0.11199 0.46107 0.0
C580 C 0.9617 0.20039 0.35483 0.0
N581 N 0.9489 0.17709 0.34816 0.0
C582 C 0.96745 0.21904 0.33256 0.0
C583 C 0.94892 0.18849 0.29643 0.0
C584 C 0.94312 0.17059 0.31948 0.0
C585 C 0.96045 0.21339 0.30303 0.0
H586 H 0.96619 0.20511 0.37776 0.0
H587 H 0.93311 0.1521 0.31435 0.0
O588 O 0.91217 0.13186 0.4444 0.0
O589 O 0.90507 0.17592 0.40183 0.0
O590 O 0.96323 0.15566 0.41558 0.0
O591 O 0.92286 0.11923 0.37848 0.0
H592 H 0.88898 0.08423 0.44318 0.0
H593 H 0.93768 0.13742 0.49557 0.0
H594 H 0.89223 0.05034 0.4834 0.0
H595 H 0.94005 0.10259 0.53491 0.0
H596 H 0.87232 0.22399 0.32402 0.0
H597 H 0.92437 0.22329 0.4173 0.0
H598 H 0.87769 0.18139 0.35167 0.0
H599 H 0.91793 0.26523 0.38866 0.0
H600 H 0.88679 0.21611 0.51604 0.0
H601 H 0.96897 0.2378 0.49782 0.0
H602 H 0.81918 0.07461 0.39948 0.0
H603 H 0.80573 0.15273 0.43822 0.0
H604 H 0.97366 0.1266 0.36748 0.0
H605 H 0.00894 0.17184 0.43884 0.0
H606 H 0.01913 0.11661 0.34855 0.0
H607 H 0.05393 0.16111 0.4186 0.0
H608 H 0.95074 0.08686 0.34391 0.0
H609 H 0.87934 0.13484 0.34934 0.0
H610 H 0.93776 0.07374 0.29266 0.0
H611 H 0.86754 0.12081 0.29815 0.0
H612 H 0.95036 0.02376 0.42771 0.0
H613 H 0.99825 0.07145 0.48767 0.0
H614 H 0.9766 0.23797 0.33844 0.0
H615 H 0.94323 0.18347 0.27387 0.0
Li616 Li 0.33802 0.93481 0.43344 0.0
Li617 Li 0.368 0.90664 0.40675 0.0
Li618 Li 0.37984 0.95205 0.41607 0.0
Li619 Li 0.34275 0.94219 0.38126 0.0
C620 C 0.38083 0.93211 0.47302 0.0
N621 N 0.39646 0.95025 0.5284 0.0
C622 C 0.39833 0.9169 0.49042 0.0
C623 C 0.37125 0.95655 0.48381 0.0
C624 C 0.40598 0.9264 0.51836 0.0
C625 C 0.37941 0.96537 0.51185 0.0
C626 C 0.30883 0.89495 0.41297 0.0
C627 C 0.26164 0.88643 0.41944 0.0
N628 N 0.26749 0.86724 0.43988 0.0
C629 C 0.31437 0.87505 0.43397 0.0
C630 C 0.28225 0.9006 0.40553 0.0
C631 C 0.2932 0.86128 0.44732 0.0
C632 C 0.28975 0.94995 0.46005 0.0
N633 N 0.31202 0.93481 0.46419 0.0
C634 C 0.29277 0.91396 0.50692 0.0
C635 C 0.31426 0.91764 0.48754 0.0
C636 C 0.26889 0.92808 0.50207 0.0
C637 C 0.26784 0.947 0.47897 0.0
H638 H 0.28855 0.9633 0.44115 0.0
H639 H 0.33209 0.90557 0.49002 0.0
C640 C 0.4083 0.87216 0.42045 0.0
N641 N 0.38408 0.8723 0.40678 0.0
C642 C 0.41972 0.84816 0.42957 0.0
C643 C 0.38217 0.82456 0.40794 0.0
C644 C 0.37137 0.8492 0.39922 0.0
C645 C 0.40602 0.82415 0.42446 0.0
H646 H 0.41776 0.89087 0.4263 0.0
H647 H 0.35197 0.84999 0.38856 0.0
C648 C 0.34605 0.9947 0.40173 0.0
N649 N 0.35065 0.04528 0.37739 0.0
C650 C 0.36345 0.99921 0.37789 0.0
C651 C 0.331 0.0159 0.41315 0.0
C652 C 0.36549 0.02493 0.36591 0.0
C653 C 0.33361 0.04133 0.40055 0.0
C654 C 0.39355 0.9154 0.35835 0.0
C655 C 0.42141 0.91394 0.35608 0.0
C656 C 0.37761 0.89767 0.34207 0.0
C657 C 0.4329 0.89458 0.33766 0.0
C658 C 0.38987 0.8786 0.3239 0.0
N659 N 0.41703 0.87745 0.3221 0.0
C660 C 0.43256 0.95587 0.43028 0.0
C661 C 0.40978 0.99649 0.44061 0.0
C662 C 0.45468 0.96421 0.44665 0.0
N663 N 0.4105 0.97166 0.4282 0.0
C664 C 0.43174 0.00581 0.45698 0.0
C665 C 0.45407 0.98909 0.46092 0.0
H666 H 0.43216 0.93593 0.42109 0.0
H667 H 0.39161 0.00822 0.43964 0.0
C668 C 0.29682 0.95924 0.35204 0.0
N669 N 0.32272 0.95229 0.347 0.0
C670 C 0.27931 0.96335 0.32828 0.0
C671 C 0.31594 0.95489 0.29447 0.0
C672 C 0.33271 0.95068 0.31895 0.0
C673 C 0.28868 0.96076 0.29897 0.0
H674 H 0.28953 0.96058 0.37463 0.0
H675 H 0.35347 0.94537 0.31555 0.0
O676 O 0.37387 0.92337 0.44522 0.0
O677 O 0.32929 0.90916 0.40027 0.0
O678 O 0.3435 0.96975 0.41397 0.0
O679 O 0.38188 0.93375 0.3768 0.0
H680 H 0.40602 0.89799 0.48236 0.0
H681 H 0.35788 0.96873 0.4706 0.0
H682 H 0.41957 0.91486 0.53203 0.0
H683 H 0.37224 0.98429 0.52041 0.0
H684 H 0.24098 0.89072 0.41401 0.0
H685 H 0.33476 0.87077 0.4405 0.0
H686 H 0.27754 0.91584 0.3893 0.0
H687 H 0.29721 0.84602 0.46381 0.0
H688 H 0.29425 0.89912 0.52441 0.0
H689 H 0.24989 0.95859 0.47489 0.0
H690 H 0.4381 0.84849 0.44237 0.0
H691 H 0.37098 0.80632 0.40399 0.0
H692 H 0.37529 0.98315 0.36868 0.0
H693 H 0.31743 0.01271 0.43158 0.0
H694 H 0.37887 0.02871 0.34747 0.0
H695 H 0.32207 0.05793 0.40919 0.0
H696 H 0.43404 0.92762 0.36836 0.0
H697 H 0.35601 0.8984 0.34378 0.0
H698 H 0.45444 0.89317 0.33572 0.0
H699 H 0.37779 0.86465 0.31132 0.0
H700 H 0.47163 0.95087 0.44927 0.0
H701 H 0.43064 0.02507 0.46797 0.0
H702 H 0.2584 0.96723 0.33291 0.0
H703 H 0.32402 0.95288 0.27224 0.0
Li704 Li 0.4489 0.87456 0.92137 0.0
Li705 Li 0.40469 0.85821 0.90994 0.0
Li706 Li 0.43668 0.82998 0.9397 0.0
Li707 Li 0.44233 0.83736 0.88695 0.0
C708 C 0.42506 0.87679 0.97603 0.0
N709 N 0.43569 0.90288 0.02886 0.0
C710 C 0.40757 0.89647 0.98649 0.0
C711 C 0.4479 0.87028 0.99248 0.0
C712 C 0.4133 0.90945 0.01325 0.0
C713 C 0.45294 0.88373 0.01912 0.0
C714 C 0.4142 0.89037 0.86449 0.0
C715 C 0.3769 0.89383 0.83064 0.0
N716 N 0.38028 0.92082 0.82964 0.0
C717 C 0.41755 0.9181 0.86281 0.0
C718 C 0.39395 0.87809 0.84798 0.0
C719 C 0.40011 0.93317 0.84518 0.0
C720 C 0.44866 0.92795 0.93704 0.0
N721 N 0.46551 0.90667 0.93492 0.0
C722 C 0.49853 0.92949 0.96389 0.0
C723 C 0.49025 0.90713 0.94755 0.0
C724 C 0.48096 0.95121 0.96757 0.0
C725 C 0.45607 0.95059 0.95316 0.0
H726 H 0.42869 0.92659 0.9279 0.0
H727 H 0.50289 0.88959 0.94656 0.0
C728 C 0.34907 0.85002 0.91172 0.0
N729 N 0.36845 0.86905 0.91029 0.0
C730 C 0.3232 0.85696 0.92053 0.0
C731 C 0.33742 0.90314 0.9242 0.0
C732 C 0.36303 0.89531 0.91539 0.0
C733 C 0.31756 0.88362 0.92817 0.0
H734 H 0.35416 0.82922 0.90821 0.0
H735 H 0.37907 0.90984 0.91489 0.0
C736 C 0.49496 0.84513 0.90749 0.0
N737 N 0.54505 0.85485 0.88371 0.0
C738 C 0.49788 0.86275 0.88353 0.0
C739 C 0.51752 0.83246 0.91931 0.0
C740 C 0.52337 0.86739 0.87184 0.0
C741 C 0.54267 0.83763 0.907 0.0
C742 C 0.40823 0.79602 0.89242 0.0
C743 C 0.4214 0.77282 0.90185 0.0
C744 C 0.39148 0.79498 0.86754 0.0
C745 C 0.41789 0.74906 0.88596 0.0
C746 C 0.38854 0.77084 0.85221 0.0
N747 N 0.40169 0.74857 0.86167 0.0
C748 C 0.41621 0.80229 0.98831 0.0
C749 C 0.46037 0.7895 0.97503 0.0
C750 C 0.41487 0.78181 0.00933 0.0
N751 N 0.43848 0.80528 0.9713 0.0
C752 C 0.45987 0.76868 0.99574 0.0
C753 C 0.43658 0.76422 0.01254 0.0
H754 H 0.39909 0.81513 0.98461 0.0
H755 H 0.4777 0.79232 0.96098 0.0
C756 C 0.44515 0.82504 0.8248 0.0
N757 N 0.45385 0.81816 0.85242 0.0
C758 C 0.44957 0.80789 0.80071 0.0
C759 C 0.47259 0.77743 0.83375 0.0
C760 C 0.46808 0.79532 0.85708 0.0
C761 C 0.46271 0.78339 0.80532 0.0
H762 H 0.43381 0.84323 0.82169 0.0
H763 H 0.47467 0.79032 0.87931 0.0
O764 O 0.42032 0.86457 0.94933 0.0
O765 O 0.43099 0.87531 0.88179 0.0
O766 O 0.47027 0.84013 0.91943 0.0
O767 O 0.41162 0.81955 0.90755 0.0
H768 H 0.38988 0.90184 0.97393 0.0
H769 H 0.46184 0.85534 0.98448 0.0
H770 H 0.40001 0.92482 0.02156 0.0
H771 H 0.47064 0.87905 0.03197 0.0
H772 H 0.36098 0.88458 0.81798 0.0
H773 H 0.43358 0.9279 0.87475 0.0
H774 H 0.39126 0.85666 0.8488 0.0
H775 H 0.4024 0.95466 0.84378 0.0
H776 H 0.51783 0.9292 0.97486 0.0
H777 H 0.44209 0.96706 0.95521 0.0
H778 H 0.30827 0.84143 0.92329 0.0
H779 H 0.33382 0.92382 0.93023 0.0
H780 H 0.48077 0.87278 0.874 0.0
H781 H 0.51563 0.81879 0.93786 0.0
H782 H 0.52592 0.88097 0.85331 0.0
H783 H 0.5603 0.82797 0.91595 0.0
H784 H 0.43445 0.77321 0.921 0.0
H785 H 0.38082 0.81259 0.86014 0.0
H786 H 0.42812 0.73101 0.89289 0.0
H787 H 0.37577 0.7698 0.83282 0.0
H788 H 0.39652 0.77882 0.02174 0.0
H789 H 0.47705 0.75558 0.99782 0.0
H790 H 0.44164 0.81307 0.77905 0.0
H791 H 0.48296 0.75879 0.83804 0.0
Li792 Li 0.63752 0.39894 0.90727 0.0
Li793 Li 0.6244 0.4449 0.91969 0.0
Li794 Li 0.65924 0.43753 0.88493 0.0
Li795 Li 0.66828 0.43031 0.9371 0.0
C796 C 0.61263 0.41943 0.85329 0.0
N797 N 0.59552 0.40589 0.79683 0.0
C798 C 0.59568 0.4366 0.83754 0.0
C799 C 0.62061 0.39522 0.84047 0.0
C800 C 0.58734 0.42945 0.80897 0.0
C801 C 0.6118 0.38877 0.81188 0.0
C802 C 0.61649 0.41791 0.9708 0.0
C803 C 0.6051 0.43879 0.01743 0.0
N804 N 0.58147 0.42527 0.0176 0.0
C805 C 0.59221 0.40402 0.97154 0.0
C806 C 0.62312 0.43529 0.994 0.0
C807 C 0.57473 0.40809 0.99536 0.0
C808 C 0.64178 0.34487 0.91979 0.0
N809 N 0.62517 0.36332 0.90752 0.0
C810 C 0.58875 0.33238 0.90794 0.0
C811 C 0.59926 0.35752 0.90094 0.0
C812 C 0.60506 0.31332 0.9221 0.0
C813 C 0.63209 0.3196 0.92734 0.0
H814 H 0.66206 0.35043 0.92554 0.0
H815 H 0.58636 0.37293 0.89195 0.0
C816 C 0.59504 0.48331 0.95312 0.0
N817 N 0.59326 0.46313 0.93296 0.0
C818 C 0.5723 0.49149 0.96879 0.0
C819 C 0.54629 0.45879 0.94165 0.0
C820 C 0.56946 0.45136 0.9264 0.0
C821 C 0.54766 0.47868 0.96367 0.0
H822 H 0.61437 0.49178 0.95848 0.0
H823 H 0.56888 0.43479 0.91093 0.0
C824 C 0.69941 0.4016 0.88768 0.0
N825 N 0.74546 0.39454 0.85458 0.0
C826 C 0.7236 0.41274 0.89725 0.0
C827 C 0.69871 0.3866 0.86147 0.0
C828 C 0.74664 0.409 0.88015 0.0
C829 C 0.72218 0.38338 0.84496 0.0
C830 C 0.65428 0.48985 0.90687 0.0
C831 C 0.63811 0.49336 0.88181 0.0
C832 C 0.66552 0.51216 0.92082 0.0
C833 C 0.63347 0.51919 0.87109 0.0
C834 C 0.66039 0.53768 0.90944 0.0
N835 N 0.6446 0.54063 0.88501 0.0
C836 C 0.67229 0.44287 0.82183 0.0
C837 C 0.70207 0.46268 0.85638 0.0
C838 C 0.69002 0.44817 0.79852 0.0
N839 N 0.67885 0.44952 0.85026 0.0
C840 C 0.72054 0.46804 0.83381 0.0
C841 C 0.71484 0.46014 0.80457 0.0
H842 H 0.65391 0.4325 0.81715 0.0
H843 H 0.70689 0.46777 0.87913 0.0
C844 C 0.69614 0.40656 0.98327 0.0
N845 N 0.69315 0.43011 0.96857 0.0
C846 C 0.71532 0.40409 0.00562 0.0
C847 C 0.72756 0.45041 0.9977 0.0
C848 C 0.70809 0.45198 0.97544 0.0
C849 C 0.73148 0.42614 0.01292 0.0
H850 H 0.68404 0.38949 0.97704 0.0
H851 H 0.70528 0.47039 0.96318 0.0
O852 O 0.62057 0.426 0.88146 0.0
O853 O 0.63344 0.41494 0.94717 0.0
O854 O 0.67656 0.4054 0.90391 0.0
O855 O 0.6591 0.46478 0.91793 0.0
H856 H 0.58899 0.45524 0.84731 0.0
H857 H 0.63354 0.38162 0.85236 0.0
H858 H 0.57431 0.44259 0.79648 0.0
H859 H 0.61793 0.37016 0.80164 0.0
H860 H 0.60985 0.45236 0.03541 0.0
H861 H 0.58676 0.39056 0.9537 0.0
H862 H 0.6418 0.44627 0.99366 0.0
H863 H 0.55575 0.39768 0.99611 0.0
H864 H 0.56778 0.32837 0.90374 0.0
H865 H 0.64514 0.3059 0.93908 0.0
H866 H 0.57417 0.50693 0.98555 0.0
H867 H 0.52791 0.44792 0.93751 0.0
H868 H 0.72451 0.42442 0.91747 0.0
H869 H 0.68026 0.37765 0.85384 0.0
H870 H 0.76546 0.41768 0.88716 0.0
H871 H 0.7219 0.372 0.82451 0.0
H872 H 0.62932 0.47638 0.87066 0.0
H873 H 0.67804 0.50978 0.94029 0.0
H874 H 0.62101 0.52218 0.85168 0.0
H875 H 0.66895 0.55513 0.92003 0.0
H876 H 0.68495 0.44176 0.77621 0.0
H877 H 0.73938 0.47758 0.83927 0.0
H878 H 0.71819 0.38484 0.01623 0.0
H879 H 0.73974 0.46779 0.00261 0.0
Li880 Li 0.05668 0.65924 0.88341 0.0
Li881 Li 0.05649 0.66751 0.93671 0.0
Li882 Li 0.09287 0.63862 0.91196 0.0
Li883 Li 0.04546 0.6236 0.91624 0.0
C884 C 0.10154 0.69741 0.90144 0.0
N885 N 0.13669 0.7389 0.89009 0.0
C886 C 0.09582 0.72326 0.91151 0.0
C887 C 0.12535 0.6926 0.886 0.0
C888 C 0.11379 0.74398 0.90544 0.0
C889 C 0.14279 0.71386 0.88035 0.0
C890 C 0.00882 0.6795 0.90825 0.0
C891 C 0.965 0.69979 0.90876 0.0
N892 N 0.97627 0.72394 0.90252 0.0
C893 C 0.01994 0.70451 0.90186 0.0
C894 C 0.98112 0.67708 0.91173 0.0
C895 C 0.00317 0.72673 0.89902 0.0
C896 C 0.02586 0.6819 0.83457 0.0
N897 N 0.05079 0.67732 0.84576 0.0
C898 C 0.07045 0.7033 0.80678 0.0
C899 C 0.07288 0.68708 0.83186 0.0
C900 C 0.04499 0.70932 0.79539 0.0
C901 C 0.02247 0.69812 0.8094 0.0
H902 H 0.00852 0.67358 0.84559 0.0
H903 H 0.09247 0.68266 0.84054 0.0
C904 C 0.07724 0.69628 0.98277 0.0
N905 N 0.0536 0.69185 0.96868 0.0
C906 C 0.07905 0.71554 0.00504 0.0
C907 C 0.03184 0.72471 0.99871 0.0
C908 C 0.03086 0.70498 0.97671 0.0
C909 C 0.05632 0.73047 0.01264 0.0
H910 H 0.09491 0.68539 0.97592 0.0
H911 H 0.01217 0.70072 0.96562 0.0
C912 C 0.07107 0.61878 0.8515 0.0
N913 N 0.0724 0.61649 0.79019 0.0
C914 C 0.04769 0.6134 0.83553 0.0
C915 C 0.09517 0.6228 0.83638 0.0
C916 C 0.04876 0.61239 0.80451 0.0
C917 C 0.09541 0.6216 0.80534 0.0
C918 C 0.06776 0.61649 0.97181 0.0
C919 C 0.08369 0.59367 0.975 0.0
C920 C 0.0479 0.62204 0.99279 0.0
C921 C 0.07924 0.57655 0.99906 0.0
C922 C 0.04415 0.60447 0.0166 0.0
N923 N 0.05974 0.58226 0.01919 0.0
C924 C 0.14314 0.64333 0.93693 0.0
C925 C 0.13777 0.60403 0.90791 0.0
C926 C 0.1678 0.63432 0.94735 0.0
N927 N 0.12859 0.62799 0.91797 0.0
C928 C 0.1624 0.59418 0.91785 0.0
C929 C 0.17738 0.60917 0.93839 0.0
H930 H 0.13494 0.66198 0.94507 0.0
H931 H 0.12531 0.59196 0.89351 0.0
C932 C 0.00438 0.5937 0.94414 0.0
N933 N 0.02709 0.59198 0.92762 0.0
C934 C 0.99561 0.57161 0.96057 0.0
C935 C 0.03298 0.54617 0.9414 0.0
C936 C 0.04091 0.56865 0.92516 0.0
C937 C 0.01068 0.54782 0.96032 0.0
H938 H 0.99423 0.61273 0.94628 0.0
H939 H 0.05935 0.56817 0.91258 0.0
O940 O 0.08451 0.6767 0.90777 0.0
O941 O 0.02475 0.65738 0.91127 0.0
O942 O 0.07026 0.62063 0.88178 0.0
O943 O 0.0715 0.63326 0.94817 0.0
H944 H 0.07779 0.72733 0.92404 0.0
H945 H 0.13022 0.67267 0.87827 0.0
H946 H 0.10958 0.76409 0.91304 0.0
H947 H 0.16119 0.71044 0.86826 0.0
H948 H 0.94354 0.69822 0.91142 0.0
H949 H 0.04124 0.70672 0.89885 0.0
H950 H 0.97219 0.65785 0.91672 0.0
H951 H 0.01153 0.74619 0.89401 0.0
H952 H 0.08837 0.71176 0.79702 0.0
H953 H 0.00248 0.70211 0.80119 0.0
H954 H 0.0983 0.71965 0.01517 0.0
H955 H 0.01389 0.73581 0.00425 0.0
H956 H 0.02887 0.61036 0.84699 0.0
H957 H 0.1134 0.62713 0.84847 0.0
H958 H 0.0308 0.60842 0.79182 0.0
H959 H 0.11388 0.62483 0.7933 0.0
H960 H 0.09913 0.58911 0.95889 0.0
H961 H 0.03537 0.63961 0.99055 0.0
H962 H 0.09127 0.5587 0.00172 0.0
H963 H 0.02878 0.60843 0.03295 0.0
H964 H 0.1788 0.64641 0.96318 0.0
H965 H 0.1689 0.57447 0.91092 0.0
H966 H 0.97794 0.57352 0.97435 0.0
H967 H 0.04523 0.52829 0.94066 0.0
Li968 Li 0.85996 0.09691 0.91194 0.0
Li969 Li 0.87396 0.05159 0.92334 0.0
Li970 Li 0.8366 0.06174 0.88843 0.0
Li971 Li 0.82914 0.07016 0.94217 0.0
C972 C 0.88962 0.07998 0.86089 0.0
N973 N 0.91845 0.10021 0.81347 0.0
C974 C 0.91759 0.08082 0.86201 0.0
C975 C 0.87638 0.08897 0.83539 0.0
C976 C 0.93179 0.09125 0.83789 0.0
C977 C 0.89129 0.09926 0.81173 0.0
C978 C 0.88581 0.09489 0.96564 0.0
C979 C 0.90095 0.12264 0.00616 0.0
N980 N 0.92557 0.12416 0.99335 0.0
C981 C 0.9113 0.09662 0.95297 0.0
C982 C 0.88058 0.10792 0.9925 0.0
C983 C 0.93112 0.11155 0.96728 0.0
C984 C 0.86008 0.14821 0.93307 0.0
N985 N 0.87263 0.13305 0.9122 0.0
C986 C 0.90536 0.16729 0.90459 0.0
C987 C 0.89452 0.14231 0.89742 0.0
C988 C 0.89332 0.18273 0.92693 0.0
C989 C 0.86997 0.17331 0.9406 0.0
H990 H 0.84331 0.14004 0.94523 0.0
H991 H 0.90448 0.12995 0.88128 0.0
C992 C 0.92549 0.02527 0.92167 0.0
N993 N 0.90339 0.03148 0.93791 0.0
C994 C 0.94881 0.0165 0.93599 0.0
C995 C 0.92558 0.01957 0.98303 0.0
C996 C 0.9028 0.02811 0.96788 0.0
C997 C 0.94914 0.01429 0.96716 0.0
H998 H 0.92545 0.02837 0.89788 0.0
H999 H 0.88502 0.03355 0.9802 0.0
C1000 C 0.81006 0.11715 0.90024 0.0
N1001 N 0.78941 0.16659 0.88483 0.0
C1002 C 0.7909 0.12948 0.91829 0.0
C1003 C 0.81842 0.12983 0.87415 0.0
C1004 C 0.78077 0.1545 0.91018 0.0
C1005 C 0.80784 0.15485 0.8668 0.0
C1006 C 0.82877 0.01299 0.90731 0.0
C1007 C 0.80139 0.00794 0.90425 0.0
C1008 C 0.84732 0.99628 0.89331 0.0
C1009 C 0.79299 0.98622 0.88705 0.0
C1010 C 0.83811 0.97472 0.87636 0.0
N1011 N 0.81137 0.97021 0.87358 0.0
C1012 C 0.82562 0.0374 0.83073 0.0
C1013 C 0.79007 0.05951 0.85551 0.0
C1014 C 0.80873 0.03135 0.80672 0.0
N1015 N 0.81602 0.05141 0.85438 0.0
C1016 C 0.77264 0.05397 0.83216 0.0
C1017 C 0.78181 0.03965 0.80735 0.0
H1018 H 0.84634 0.03111 0.83042 0.0
H1019 H 0.78287 0.07044 0.87464 0.0
C1020 C 0.80256 0.09398 0.98973 0.0
N1021 N 0.80502 0.0707 0.97438 0.0
C1022 C 0.78356 0.09633 0.01227 0.0
C1023 C 0.77065 0.05033 0.00349 0.0
C1024 C 0.78994 0.04888 0.98107 0.0
C1025 C 0.76706 0.07442 0.0191 0.0
H1026 H 0.81473 0.11104 0.98367 0.0
H1027 H 0.79249 0.03058 0.96858 0.0
O1028 O 0.87544 0.06937 0.88411 0.0
O1029 O 0.86593 0.08099 0.95147 0.0
O1030 O 0.82047 0.0928 0.90813 0.0
O1031 O 0.83742 0.03475 0.92301 0.0
H1032 H 0.92825 0.07387 0.88145 0.0
H1033 H 0.85484 0.08779 0.8337 0.0
H1034 H 0.95342 0.09224 0.83859 0.0
H1035 H 0.88126 0.10637 0.79192 0.0
H1036 H 0.89717 0.13289 0.02692 0.0
H1037 H 0.91561 0.08684 0.93207 0.0
H1038 H 0.861 0.10675 0.00267 0.0
H1039 H 0.95087 0.11321 0.9576 0.0
H1040 H 0.92346 0.17404 0.89365 0.0
H1041 H 0.86043 0.18451 0.9583 0.0
H1042 H 0.96669 0.01278 0.92303 0.0
H1043 H 0.92501 0.01786 0.00704 0.0
H1044 H 0.78386 0.11981 0.93831 0.0
H1045 H 0.83321 0.12067 0.85998 0.0
H1046 H 0.76602 0.1643 0.92401 0.0
H1047 H 0.81433 0.16498 0.8468 0.0
H1048 H 0.78677 0.02094 0.9146 0.0
H1049 H 0.86858 0.0001 0.89527 0.0
H1050 H 0.77186 0.98219 0.88427 0.0
H1051 H 0.85222 0.96167 0.8653 0.0
H1052 H 0.81658 0.02033 0.78792 0.0
H1053 H 0.75228 0.06135 0.83328 0.0
H1054 H 0.78098 0.11544 0.02326 0.0
H1055 H 0.75825 0.03303 0.00812 0.0
Li1056 Li 0.44384 0.6571 0.62112 0.0
Li1057 Li 0.438 0.66398 0.56695 0.0
Li1058 Li 0.40515 0.63623 0.59547 0.0
Li1059 Li 0.44976 0.62013 0.5844 0.0
C1060 C 0.39422 0.69289 0.60376 0.0
N1061 N 0.35408 0.73042 0.61125 0.0
C1062 C 0.38281 0.70553 0.57907 0.0
C1063 C 0.38539 0.69964 0.63231 0.0
C1064 C 0.36248 0.72434 0.58331 0.0
C1065 C 0.36503 0.71858 0.63562 0.0
C1066 C 0.4907 0.66955 0.57722 0.0
C1067 C 0.51783 0.68374 0.53574 0.0
N1068 N 0.52907 0.70298 0.55312 0.0
C1069 C 0.50268 0.68931 0.59473 0.0
C1070 C 0.49848 0.66657 0.54755 0.0
C1071 C 0.52199 0.70606 0.58211 0.0
C1072 C 0.46171 0.6651 0.68215 0.0
N1073 N 0.45381 0.67645 0.65609 0.0
C1074 C 0.45467 0.72004 0.678 0.0
C1075 C 0.4509 0.7034 0.65349 0.0
C1076 C 0.4619 0.70897 0.70555 0.0
C1077 C 0.46605 0.68112 0.70728 0.0
H1078 H 0.46423 0.64365 0.68359 0.0
H1079 H 0.44492 0.71194 0.63242 0.0
C1080 C 0.42617 0.68567 0.51067 0.0
N1081 N 0.43969 0.69014 0.53644 0.0
C1082 C 0.42327 0.70617 0.48981 0.0
C1083 C 0.44942 0.73498 0.52178 0.0
C1084 C 0.45129 0.71415 0.54228 0.0
C1085 C 0.43464 0.73137 0.49547 0.0
H1086 H 0.41627 0.66671 0.50709 0.0
H1087 H 0.46107 0.71748 0.56338 0.0
C1088 C 0.42099 0.61412 0.65162 0.0
N1089 N 0.4024 0.6056 0.70868 0.0
C1090 C 0.43287 0.59464 0.6696 0.0
C1091 C 0.39959 0.62915 0.66257 0.0
C1092 C 0.4232 0.59065 0.69842 0.0
C1093 C 0.39049 0.62458 0.69149 0.0
C1094 C 0.42131 0.61113 0.53448 0.0
C1095 C 0.40357 0.58953 0.53597 0.0
C1096 C 0.43947 0.6128 0.51092 0.0
C1097 C 0.40456 0.56974 0.51406 0.0
C1098 C 0.43982 0.59262 0.48943 0.0
N1099 N 0.42254 0.57166 0.49145 0.0
C1100 C 0.35189 0.63973 0.57793 0.0
C1101 C 0.36149 0.60129 0.607 0.0
C1102 C 0.32679 0.62958 0.57057 0.0
N1103 N 0.36878 0.62538 0.5954 0.0
C1104 C 0.33659 0.5902 0.59992 0.0
C1105 C 0.31934 0.60411 0.58071 0.0
H1106 H 0.35864 0.65809 0.5678 0.0
H1107 H 0.37569 0.58981 0.6199 0.0
C1108 C 0.48955 0.58885 0.55558 0.0
N1109 N 0.46699 0.58794 0.57241 0.0
C1110 C 0.4977 0.56627 0.53965 0.0
C1111 C 0.46022 0.54189 0.56021 0.0
C1112 C 0.45291 0.56487 0.57591 0.0
C1113 C 0.48226 0.54277 0.54087 0.0
H1114 H 0.50028 0.60748 0.55307 0.0
H1115 H 0.43476 0.56492 0.58905 0.0
O1116 O 0.41453 0.67476 0.60005 0.0
O1117 O 0.47169 0.65304 0.58919 0.0
O1118 O 0.43063 0.61857 0.62359 0.0
O1119 O 0.42094 0.63051 0.556 0.0
H1120 H 0.38933 0.70067 0.55683 0.0
H1121 H 0.39427 0.69056 0.65178 0.0
H1122 H 0.35339 0.73412 0.56436 0.0
H1123 H 0.35801 0.72394 0.65758 0.0
H1124 H 0.52387 0.6818 0.51275 0.0
H1125 H 0.49719 0.69168 0.61783 0.0
H1126 H 0.48943 0.65143 0.53367 0.0
H1127 H 0.53135 0.72151 0.59538 0.0
H1128 H 0.45114 0.74131 0.67555 0.0
H1129 H 0.47236 0.67177 0.72783 0.0
H1130 H 0.41096 0.70273 0.47037 0.0
H1131 H 0.45849 0.75409 0.52705 0.0
H1132 H 0.44949 0.58285 0.66142 0.0
H1133 H 0.38998 0.64401 0.64881 0.0
H1134 H 0.43225 0.57571 0.71263 0.0
H1135 H 0.37394 0.6361 0.70025 0.0
H1136 H 0.38937 0.58787 0.55399 0.0
H1137 H 0.45324 0.62943 0.50931 0.0
H1138 H 0.39107 0.55282 0.51507 0.0
H1139 H 0.45385 0.59362 0.47114 0.0
H1140 H 0.31421 0.64062 0.55525 0.0
H1141 H 0.33148 0.57043 0.60801 0.0
H1142 H 0.51525 0.56753 0.5256 0.0
H1143 H 0.4478 0.52417 0.56177 0.0
Li1144 Li 0.86611 0.40614 0.59758 0.0
Li1145 Li 0.88225 0.45142 0.58617 0.0
Li1146 Li 0.84274 0.44346 0.62193 0.0
Li1147 Li 0.83867 0.43655 0.56876 0.0
C1148 C 0.89173 0.41671 0.64775 0.0
N1149 N 0.91219 0.38274 0.69054 0.0
C1150 C 0.9194 0.41443 0.65156 0.0
C1151 C 0.87445 0.4018 0.66571 0.0
C1152 C 0.92935 0.39712 0.67332 0.0
C1153 C 0.88519 0.38472 0.68722 0.0
C1154 C 0.88385 0.41726 0.5316 0.0
C1155 C 0.90205 0.43292 0.48503 0.0
N1156 N 0.90442 0.40715 0.47565 0.0
C1157 C 0.88651 0.39093 0.52148 0.0
C1158 C 0.89161 0.43844 0.51317 0.0
C1159 C 0.89688 0.38624 0.49312 0.0
C1160 C 0.86522 0.34836 0.60085 0.0
N1161 N 0.88042 0.3709 0.5993 0.0
C1162 C 0.91863 0.34561 0.5844 0.0
C1163 C 0.90694 0.36976 0.59276 0.0
C1164 C 0.90261 0.32265 0.58196 0.0
C1165 C 0.87598 0.32381 0.59197 0.0
H1166 H 0.84432 0.34964 0.60673 0.0
H1167 H 0.9185 0.388 0.59168 0.0
C1168 C 0.91438 0.49344 0.56159 0.0
N1169 N 0.91421 0.46872 0.57423 0.0
C1170 C 0.93651 0.50174 0.54489 0.0
C1171 C 0.95829 0.45974 0.55627 0.0
C1172 C 0.93581 0.45225 0.57262 0.0
C1173 C 0.95839 0.48431 0.5412 0.0
H1174 H 0.89668 0.50587 0.56267 0.0
H1175 H 0.93475 0.43244 0.58218 0.0
C1176 C 0.8111 0.39206 0.59142 0.0
N1177 N 0.7779 0.35204 0.57044 0.0
C1178 C 0.81663 0.3795 0.56433 0.0
C1179 C 0.78866 0.38426 0.60783 0.0
C1180 C 0.79961 0.35933 0.5541 0.0
C1181 C 0.77214 0.36397 0.59686 0.0
C1182 C 0.83097 0.48847 0.57467 0.0
C1183 C 0.80803 0.49866 0.58837 0.0
C1184 C 0.83699 0.49586 0.54545 0.0
C1185 C 0.79121 0.51578 0.5724 0.0
C1186 C 0.81965 0.51299 0.53021 0.0
N1187 N 0.7973 0.5225 0.54388 0.0
C1188 C 0.83403 0.4612 0.68241 0.0
C1189 C 0.79591 0.44996 0.65363 0.0
C1190 C 0.8179 0.4654 0.70748 0.0
N1191 N 0.82279 0.45332 0.6563 0.0
C1192 C 0.77915 0.45368 0.67806 0.0
C1193 C 0.79009 0.46107 0.70563 0.0
H1194 H 0.8555 0.46366 0.68393 0.0
H1195 H 0.78756 0.44374 0.63255 0.0
C1196 C 0.81723 0.42947 0.50941 0.0
N1197 N 0.81241 0.43758 0.53779 0.0
C1198 C 0.79601 0.42583 0.48956 0.0
C1199 C 0.76555 0.44047 0.52798 0.0
C1200 C 0.78723 0.4434 0.54716 0.0
C1201 C 0.7697 0.43081 0.49902 0.0
H1202 H 0.83724 0.42434 0.50253 0.0
H1203 H 0.78386 0.44911 0.57004 0.0
O1204 O 0.88155 0.43311 0.62621 0.0
O1205 O 0.87387 0.4222 0.55943 0.0
O1206 O 0.82704 0.41244 0.60146 0.0
O1207 O 0.84745 0.47136 0.58982 0.0
H1208 H 0.93302 0.42585 0.63781 0.0
H1209 H 0.85297 0.4032 0.66285 0.0
H1210 H 0.95072 0.39509 0.6765 0.0
H1211 H 0.87207 0.37298 0.70123 0.0
H1212 H 0.9082 0.44914 0.47062 0.0
H1213 H 0.88049 0.37424 0.53527 0.0
H1214 H 0.88951 0.45892 0.52039 0.0
H1215 H 0.89888 0.36599 0.48495 0.0
H1216 H 0.93946 0.34535 0.57771 0.0
H1217 H 0.86303 0.30646 0.5907 0.0
H1218 H 0.93606 0.52105 0.53394 0.0
H1219 H 0.97468 0.4457 0.55384 0.0
H1220 H 0.83385 0.38528 0.55132 0.0
H1221 H 0.78406 0.39376 0.62883 0.0
H1222 H 0.80366 0.34949 0.53316 0.0
H1223 H 0.75471 0.35773 0.60934 0.0
H1224 H 0.80319 0.49332 0.61105 0.0
H1225 H 0.85466 0.4882 0.53454 0.0
H1226 H 0.7733 0.5237 0.58267 0.0
H1227 H 0.82394 0.5187 0.50751 0.0
H1228 H 0.82713 0.47167 0.72812 0.0
H1229 H 0.75791 0.44995 0.67558 0.0
H1230 H 0.80006 0.41777 0.46767 0.0
H1231 H 0.74558 0.44464 0.53614 0.0
Li1232 Li 0.09082 0.86551 0.59193 0.0
Li1233 Li 0.04453 0.87868 0.57896 0.0
Li1234 Li 0.05526 0.8439 0.61954 0.0
Li1235 Li 0.06223 0.83373 0.56806 0.0
C1236 C 0.07886 0.90286 0.63074 0.0
N1237 N 0.11121 0.94218 0.6547 0.0
C1238 C 0.07504 0.92966 0.62286 0.0
C1239 C 0.09894 0.89608 0.65103 0.0
C1240 C 0.09164 0.94924 0.63517 0.0
C1241 C 0.11515 0.91625 0.66282 0.0
C1242 C 0.08175 0.86398 0.5245 0.0
C1243 C 0.07132 0.8615 0.47223 0.0
N1244 N 0.0969 0.85366 0.46657 0.0
C1245 C 0.10795 0.85596 0.51817 0.0
C1246 C 0.06329 0.86687 0.50137 0.0
C1247 C 0.11522 0.85084 0.48873 0.0
C1248 C 0.14806 0.86618 0.59538 0.0
N1249 N 0.12547 0.88051 0.58978 0.0
C1250 C 0.15056 0.9149 0.56587 0.0
C1251 C 0.12635 0.90477 0.57618 0.0
C1252 C 0.17393 0.89974 0.5694 0.0
C1253 C 0.17285 0.87565 0.58542 0.0
H1254 H 0.14659 0.84663 0.60554 0.0
H1255 H 0.10796 0.9153 0.57136 0.0
C1256 C 0.00018 0.91584 0.5658 0.0
N1257 N 0.0265 0.90922 0.56289 0.0
C1258 C 0.98972 0.93767 0.5499 0.0
C1259 C 0.03371 0.94559 0.52934 0.0
C1260 C 0.04328 0.92398 0.54564 0.0
C1261 C 0.00656 0.95234 0.53086 0.0
H1262 H 0.98724 0.90381 0.5797 0.0
H1263 H 0.06418 0.91865 0.54409 0.0
C1264 C 0.08872 0.80117 0.61006 0.0
N1265 N 0.09058 0.74843 0.62855 0.0
C1266 C 0.06645 0.78458 0.60643 0.0
C1267 C 0.11195 0.79094 0.62316 0.0
C1268 C 0.06776 0.75798 0.6159 0.0
C1269 C 0.11249 0.76423 0.63236 0.0
C1270 C 0.00595 0.83277 0.57148 0.0
C1271 C 0.99402 0.80868 0.58018 0.0
C1272 C 0.99566 0.84674 0.54707 0.0
C1273 C 0.97221 0.79883 0.56409 0.0
C1274 C 0.97377 0.83627 0.53162 0.0
N1275 N 0.96262 0.81271 0.54036 0.0
C1276 C 0.0226 0.81585 0.66226 0.0
C1277 C 0.06827 0.82243 0.67461 0.0
C1278 C 0.01965 0.79766 0.68579 0.0
N1279 N 0.04686 0.82721 0.65671 0.0
C1280 C 0.06629 0.80427 0.69804 0.0
C1281 C 0.042 0.791 0.70323 0.0
H1282 H 0.00599 0.81968 0.64745 0.0
H1283 H 0.08746 0.83121 0.66933 0.0
C1284 C 0.08861 0.7938 0.53676 0.0
N1285 N 0.0644 0.80623 0.53817 0.0
C1286 C 0.09307 0.77336 0.51633 0.0
C1287 C 0.04814 0.7797 0.49769 0.0
C1288 C 0.04445 0.79995 0.51874 0.0
C1289 C 0.0726 0.76607 0.49674 0.0
H1290 H 0.10458 0.79981 0.55151 0.0
H1291 H 0.02574 0.81055 0.51931 0.0
O1292 O 0.0631 0.88337 0.61852 0.0
O1293 O 0.07411 0.86867 0.55324 0.0
O1294 O 0.08768 0.82751 0.60163 0.0
O1295 O 0.02698 0.84305 0.58734 0.0
H1296 H 0.05948 0.93527 0.60733 0.0
H1297 H 0.10225 0.87544 0.65723 0.0
H1298 H 0.08899 0.97004 0.62917 0.0
H1299 H 0.13092 0.91127 0.67837 0.0
H1300 H 0.05722 0.86355 0.45412 0.0
H1301 H 0.12245 0.85342 0.5358 0.0
H1302 H 0.04294 0.87305 0.50589 0.0
H1303 H 0.1354 0.84455 0.48351 0.0
H1304 H 0.15077 0.93352 0.55351 0.0
H1305 H 0.19056 0.86338 0.58816 0.0
H1306 H 0.96865 0.94253 0.55171 0.0
H1307 H 0.0474 0.95683 0.51542 0.0
H1308 H 0.04835 0.79218 0.59643 0.0
H1309 H 0.12931 0.80356 0.6264 0.0
H1310 H 0.05064 0.74495 0.61322 0.0
H1311 H 0.1303 0.75606 0.64261 0.0
H1312 H 0.00141 0.79768 0.59919 0.0
H1313 H 0.00474 0.86518 0.53973 0.0
H1314 H 0.96286 0.78018 0.57054 0.0
H1315 H 0.96575 0.8468 0.51258 0.0
H1316 H 0.00062 0.78773 0.6892 0.0
H1317 H 0.0839 0.79972 0.71118 0.0
H1318 H 0.11224 0.76322 0.51592 0.0
H1319 H 0.03202 0.77447 0.48267 0.0
Li1320 Li 0.66195 0.06919 0.57467 0.0
Li1321 Li 0.65618 0.05715 0.62465 0.0
Li1322 Li 0.61819 0.04967 0.5876 0.0
Li1323 Li 0.63201 0.09524 0.60645 0.0
C1324 C 0.66999 0.01749 0.57014 0.0
N1325 N 0.70135 0.98852 0.53096 0.0
C1326 C 0.69791 0.01941 0.57129 0.0
C1327 C 0.65807 0.00082 0.54897 0.0
C1328 C 0.7134 0.00465 0.5513 0.0
C1329 C 0.67425 0.98632 0.5294 0.0
C1330 C 0.69027 0.0967 0.63003 0.0
C1331 C 0.70415 0.11646 0.67649 0.0
N1332 N 0.72879 0.10527 0.67314 0.0
C1333 C 0.71586 0.08573 0.62685 0.0
C1334 C 0.68444 0.11244 0.65489 0.0
C1335 C 0.735 0.09017 0.64895 0.0
C1336 C 0.70455 0.09338 0.5447 0.0
N1337 N 0.68555 0.07411 0.54162 0.0
C1338 C 0.70024 0.06479 0.49206 0.0
C1339 C 0.68269 0.06027 0.51572 0.0
C1340 C 0.72021 0.08424 0.49503 0.0
C1341 C 0.72221 0.09881 0.52151 0.0
H1342 H 0.70588 0.10469 0.5651 0.0
H1343 H 0.66678 0.0458 0.51336 0.0
C1344 C 0.69616 0.02783 0.65639 0.0
N1345 N 0.67444 0.04404 0.65946 0.0
C1346 C 0.71312 0.02303 0.68053 0.0
C1347 C 0.68392 0.04992 0.71119 0.0
C1348 C 0.66768 0.05441 0.68638 0.0
C1349 C 0.70735 0.03461 0.7082 0.0
H1350 H 0.7011 0.01965 0.63493 0.0
H1351 H 0.6505 0.06742 0.68825 0.0
C1352 C 0.6262 0.09318 0.53824 0.0
N1353 N 0.62781 0.11516 0.4819 0.0
C1354 C 0.63653 0.1189 0.53394 0.0
C1355 C 0.61674 0.07861 0.51388 0.0
C1356 C 0.63716 0.12966 0.50529 0.0
C1357 C 0.61772 0.09008 0.48557 0.0
C1358 C 0.59662 0.07603 0.64545 0.0
C1359 C 0.57011 0.06781 0.64149 0.0
C1360 C 0.60242 0.09633 0.66585 0.0
C1361 C 0.54977 0.08042 0.65757 0.0
C1362 C 0.58153 0.10847 0.68148 0.0
N1363 N 0.55585 0.10035 0.67703 0.0
C1364 C 0.58284 0.00688 0.56653 0.0
C1365 C 0.56845 0.05198 0.56333 0.0
C1366 C 0.56042 0.99847 0.55027 0.0
N1367 N 0.58674 0.03337 0.57192 0.0
C1368 C 0.54571 0.04449 0.54752 0.0
C1369 C 0.54173 0.01752 0.54012 0.0
H1370 H 0.59749 0.99239 0.57388 0.0
H1371 H 0.57201 0.07289 0.568 0.0
C1372 C 0.63201 0.15205 0.60962 0.0
N1373 N 0.61645 0.12972 0.60884 0.0
C1374 C 0.62162 0.17656 0.60002 0.0
C1375 C 0.57907 0.15484 0.59122 0.0
C1376 C 0.5902 0.13085 0.60097 0.0
C1377 C 0.59527 0.17765 0.58927 0.0
H1378 H 0.6531 0.15035 0.61467 0.0
H1379 H 0.57862 0.11264 0.59949 0.0
O1380 O 0.65442 0.03173 0.58963 0.0
O1381 O 0.67097 0.09187 0.60907 0.0
O1382 O 0.62566 0.08218 0.56609 0.0
O1383 O 0.61675 0.06402 0.62969 0.0
H1384 H 0.70755 0.03263 0.58693 0.0
H1385 H 0.63659 0.99932 0.54732 0.0
H1386 H 0.735 0.00614 0.55185 0.0
H1387 H 0.66524 0.97342 0.51288 0.0
H1388 H 0.69982 0.12839 0.69596 0.0
H1389 H 0.72084 0.07372 0.60766 0.0
H1390 H 0.66486 0.12128 0.65764 0.0
H1391 H 0.75479 0.08155 0.64692 0.0
H1392 H 0.6982 0.05339 0.4717 0.0
H1393 H 0.73745 0.11404 0.52429 0.0
H1394 H 0.73096 0.01103 0.67744 0.0
H1395 H 0.67899 0.05949 0.73208 0.0
H1396 H 0.64426 0.13031 0.55247 0.0
H1397 H 0.60898 0.05855 0.51676 0.0
H1398 H 0.64512 0.14953 0.50163 0.0
H1399 H 0.61052 0.07902 0.46651 0.0
H1400 H 0.56527 0.05176 0.62631 0.0
H1401 H 0.62277 0.10292 0.66927 0.0
H1402 H 0.52916 0.07432 0.65462 0.0
H1403 H 0.58573 0.12437 0.69711 0.0
H1404 H 0.55834 0.97748 0.54474 0.0
H1405 H 0.53167 0.05978 0.54058 0.0
H1406 H 0.63473 0.19376 0.59827 0.0
H1407 H 0.55874 0.15504 0.58283 0.0
C1408 C 0.56121 0.26969 0.97065 0.0
C1409 C 0.57519 0.24526 0.97131 0.0
C1410 C 0.57006 0.29107 0.95308 0.0
C1411 C 0.59324 0.28884 0.93547 0.0
H1412 H 0.54387 0.27267 0.98473 0.0
H1413 H 0.55951 0.30996 0.95468 0.0
S1414 S 0.63534 0.22821 0.92669 0.0
N1415 N 0.61233 0.21945 0.95118 0.0
N1416 N 0.6284 0.25942 0.91738 0.0
C1417 C 0.60639 0.26397 0.93441 0.0
C1418 C 0.59747 0.24222 0.95245 0.0
C1419 C 0.20305 0.59781 0.98415 0.0
C1420 C 0.2014 0.59771 0.95294 0.0
C1421 C 0.22543 0.58746 0.99885 0.0
C1422 C 0.24708 0.57664 0.98292 0.0
H1423 H 0.18686 0.60596 0.99738 0.0
H1424 H 0.22602 0.58848 0.02291 0.0
S1425 S 0.25246 0.57114 0.90092 0.0
N1426 N 0.22314 0.58562 0.9065 0.0
N1427 N 0.26534 0.56591 0.93426 0.0
C1428 C 0.24563 0.57614 0.9517 0.0
C1429 C 0.22271 0.58662 0.93668 0.0
C1430 C 0.89134 0.2309 0.94115 0.0
C1431 C 0.90621 0.20714 0.93866 0.0
C1432 C 0.90114 0.25267 0.95744 0.0
C1433 C 0.92598 0.25125 0.97212 0.0
H1434 H 0.87149 0.23219 0.93154 0.0
H1435 H 0.88845 0.2701 0.96006 0.0
S1436 S 0.97346 0.19424 0.97047 0.0
N1437 N 0.94764 0.18397 0.95055 0.0
N1438 N 0.96613 0.22501 0.98119 0.0
C1439 C 0.94165 0.22812 0.96847 0.0
C1440 C 0.93176 0.20603 0.95168 0.0
C1441 C 0.27629 0.91158 0.9354 0.0
C1442 C 0.29288 0.8904 0.94471 0.0
C1443 C 0.25428 0.91969 0.95266 0.0
C1444 C 0.2487 0.90725 0.98 0.0
H1445 H 0.28055 0.92208 0.91487 0.0
H1446 H 0.24206 0.93625 0.94505 0.0
S1447 S 0.28587 0.8509 0.01415 0.0
N1448 N 0.30199 0.85708 0.98285 0.0
N1449 N 0.26085 0.87246 0.01518 0.0
C1450 C 0.26489 0.88588 0.98928 0.0
C1451 C 0.28696 0.87742 0.97165 0.0
C1452 C 0.57835 0.24825 0.56421 0.0
C1453 C 0.57337 0.24476 0.53359 0.0
C1454 C 0.58501 0.22643 0.58248 0.0
C1455 C 0.5866 0.20045 0.57074 0.0
H1456 H 0.57732 0.26801 0.57405 0.0
H1457 H 0.58909 0.22988 0.60582 0.0
S1458 S 0.57754 0.18074 0.49193 0.0
N1459 N 0.57211 0.21334 0.49226 0.0
N1460 N 0.58393 0.17244 0.52673 0.0
C1461 C 0.58167 0.19667 0.54029 0.0
C1462 C 0.57517 0.21879 0.52169 0.0
C1463 C 0.27074 0.60456 0.56757 0.0
C1464 C 0.29546 0.59109 0.5677 0.0
C1465 C 0.24925 0.59517 0.55047 0.0
C1466 C 0.25191 0.57221 0.53262 0.0
H1467 H 0.2684 0.6231 0.5798 0.0
H1468 H 0.23098 0.60685 0.54987 0.0
S1469 S 0.31177 0.52868 0.52689 0.0
N1470 N 0.32086 0.55279 0.54989 0.0
N1471 N 0.28037 0.5351 0.51783 0.0
C1472 C 0.27603 0.55781 0.53375 0.0
C1473 C 0.29784 0.56724 0.55132 0.0
C1474 C 0.90743 0.27292 0.57565 0.0
C1475 C 0.91224 0.299 0.56511 0.0
C1476 C 0.91348 0.25046 0.55817 0.0
C1477 C 0.92461 0.25333 0.52961 0.0
H1478 H 0.89839 0.26989 0.59729 0.0
H1479 H 0.9089 0.23073 0.56677 0.0
S1480 S 0.93998 0.31718 0.49118 0.0
N1481 N 0.92819 0.32631 0.5239 0.0
N1482 N 0.93974 0.28415 0.49136 0.0
C1483 C 0.92999 0.27923 0.51906 0.0
C1484 C 0.92376 0.30205 0.53673 0.0
C1485 C 0.22242 0.91262 0.56689 0.0
C1486 C 0.19812 0.90707 0.55244 0.0
C1487 C 0.2453 0.91972 0.55053 0.0
C1488 C 0.24451 0.92135 0.51926 0.0
H1489 H 0.22364 0.9117 0.59092 0.0
H1490 H 0.26367 0.9241 0.56237 0.0
S1491 S 0.18632 0.90544 0.47109 0.0
N1492 N 0.17499 0.9017 0.50532 0.0
N1493 N 0.21792 0.91461 0.47456 0.0
C1494 C 0.22042 0.91512 0.50466 0.0
C1495 C 0.19724 0.90806 0.52126 0.0
C1496 C 0.42405 0.74124 0.06014 0.0
C1497 C 0.43356 0.7397 0.03074 0.0
C1498 C 0.41796 0.718 0.07633 0.0
C1499 C 0.4211 0.69246 0.06362 0.0
H1500 H 0.42076 0.76057 0.07042 0.0
H1501 H 0.41019 0.72004 0.0987 0.0
S1502 S 0.44399 0.6778 0.98676 0.0
N1503 N 0.44525 0.71073 0.98937 0.0
N1504 N 0.43359 0.66714 0.01951 0.0
C1505 C 0.43096 0.69071 0.03435 0.0
C1506 C 0.43724 0.71431 0.01799 0.0
C1507 C 0.77985 0.43103 0.02566 0.0
C1508 C 0.75401 0.4229 0.03412 0.0
C1509 C 0.80217 0.42491 0.04321 0.0
C1510 C 0.79951 0.4104 0.06989 0.0
H1511 H 0.78307 0.44102 0.00458 0.0
H1512 H 0.82178 0.43041 0.03497 0.0
S1513 S 0.73579 0.38811 0.10412 0.0
N1514 N 0.72665 0.40224 0.0725 0.0
N1515 N 0.76874 0.39063 0.10551 0.0
C1516 C 0.77364 0.4035 0.07945 0.0
C1517 C 0.75086 0.40977 0.06157 0.0
C1518 C 0.07104 0.75072 0.0608 0.0
C1519 C 0.05917 0.75375 0.03265 0.0
C1520 C 0.07781 0.7731 0.07806 0.0
C1521 C 0.07314 0.79924 0.06761 0.0
H1522 H 0.07586 0.73093 0.0691 0.0
H1523 H 0.08756 0.76994 0.09929 0.0
S1524 S 0.04316 0.81766 0.9948 0.0
N1525 N 0.04295 0.78462 0.99507 0.0
N1526 N 0.05612 0.8267 0.02701 0.0
C1527 C 0.06062 0.80242 0.03974 0.0
C1528 C 0.05354 0.77966 0.02237 0.0
C1529 C 0.69607 0.0763 0.04815 0.0
C1530 C 0.6986 0.09001 0.07535 0.0
C1531 C 0.7185 0.07026 0.03083 0.0
C1532 C 0.74435 0.0777 0.03998 0.0
H1533 H 0.67648 0.07136 0.03941 0.0
H1534 H 0.7154 0.06085 0.0094 0.0
S1535 S 0.76219 0.11063 0.11118 0.0
N1536 N 0.72919 0.10852 0.112 0.0
N1537 N 0.77153 0.09712 0.07931 0.0
C1538 C 0.74735 0.09018 0.06781 0.0
C1539 C 0.72444 0.09635 0.08551 0.0
C1540 C 0.42097 0.77905 0.48954 0.0
C1541 C 0.42845 0.75471 0.47617 0.0
C1542 C 0.41403 0.80129 0.47243 0.0
C1543 C 0.41396 0.80006 0.44125 0.0
H1544 H 0.41992 0.78086 0.51351 0.0
H1545 H 0.4082 0.81955 0.48372 0.0
S1546 S 0.43263 0.74173 0.39501 0.0
N1547 N 0.43622 0.73109 0.42958 0.0
N1548 N 0.42223 0.77306 0.3974 0.0
C1549 C 0.42126 0.77602 0.4274 0.0
C1550 C 0.42872 0.7533 0.44486 0.0
C1551 C 0.72519 0.40888 0.49332 0.0
C1552 C 0.74638 0.42329 0.48031 0.0
C1553 C 0.70266 0.40164 0.47683 0.0
C1554 C 0.70053 0.40822 0.4466 0.0
H1555 H 0.72603 0.40302 0.5165 0.0
H1556 H 0.68666 0.39081 0.48783 0.0
S1557 S 0.75007 0.44556 0.40166 0.0
N1558 N 0.76361 0.44398 0.43515 0.0
N1559 N 0.72115 0.42961 0.40396 0.0
C1560 C 0.72158 0.42212 0.43298 0.0
C1561 C 0.74457 0.4298 0.44988 0.0
C1562 C 0.08177 0.69499 0.47099 0.0
C1563 C 0.08935 0.69801 0.44102 0.0
C1564 C 0.07561 0.7172 0.48859 0.0
C1565 C 0.07656 0.74314 0.47677 0.0
H1566 H 0.0816 0.67537 0.48128 0.0
H1567 H 0.07066 0.71414 0.51181 0.0
S1568 S 0.09388 0.76198 0.39954 0.0
N1569 N 0.09655 0.729 0.40009 0.0
N1570 N 0.0847 0.7709 0.43342 0.0
C1571 C 0.08333 0.74654 0.44675 0.0
C1572 C 0.08985 0.72391 0.4288 0.0
C1573 C 0.7621 0.0722 0.46861 0.0
C1574 C 0.73978 0.08904 0.4712 0.0
C1575 C 0.78355 0.0791 0.45008 0.0
C1576 C 0.7833 0.10306 0.43352 0.0
H1577 H 0.76364 0.05438 0.48225 0.0
H1578 H 0.80115 0.06642 0.45027 0.0
S1579 S 0.72731 0.15177 0.4297 0.0
N1580 N 0.7172 0.12912 0.45399 0.0
N1581 N 0.75718 0.14189 0.41836 0.0
C1582 C 0.76009 0.11904 0.43443 0.0
C1583 C 0.7384 0.11209 0.45352 0.0
C1584 C 0.5127 0.98695 0.98441 0.0
C1585 C 0.48798 0.97384 0.98749 0.0
C1586 C 0.51963 0.00844 0.00294 0.0
C1587 C 0.50216 0.01753 0.02537 0.0
H1588 H 0.52665 0.9808 0.96728 0.0
H1589 H 0.53871 0.01824 0.9994 0.0
S1590 S 0.43605 0.98836 0.04425 0.0
N1591 N 0.44661 0.97043 0.01574 0.0
N1592 N 0.45969 0.01076 0.05061 0.0
C1593 C 0.47755 0.00431 0.02897 0.0
C1594 C 0.47047 0.98246 0.01007 0.0
C1595 C 0.50532 0.49057 0.03272 0.0
C1596 C 0.47942 0.49407 0.02111 0.0
C1597 C 0.52722 0.48569 0.01398 0.0
C1598 C 0.5241 0.48444 0.98288 0.0
H1599 H 0.50865 0.49159 0.0565 0.0
H1600 H 0.54672 0.48264 0.02397 0.0
S1601 S 0.46065 0.49417 0.94132 0.0
N1602 N 0.45198 0.49689 0.97661 0.0
N1603 N 0.49318 0.48826 0.94132 0.0
C1604 C 0.49831 0.48812 0.971 0.0
C1605 C 0.47598 0.49283 0.99012 0.0
C1606 C 0.00468 0.49879 0.9709 0.0
C1607 C 0.00446 0.52544 0.98108 0.0
C1608 C -0.00024 0.47735 0.99031 0.0
C1609 C 0.99444 0.48172 0.02064 0.0
H1610 H 0.00839 0.49449 0.94766 0.0
H1611 H 0.99957 0.45722 0.98136 0.0
S1612 S 0.99394 0.54733 0.05912 0.0
N1613 N 0.00013 0.55475 0.02402 0.0
N1614 N 0.9907 0.51445 0.06032 0.0
C1615 C 0.9946 0.50816 0.03124 0.0
C1616 C 0.99964 0.53 0.01152 0.0
C1617 C 0.00516 0.01822 0.02417 0.0
C1618 C 0.02011 0.99501 0.01835 0.0
C1619 C 0.98245 0.02447 0.00717 0.0
C1620 C 0.97412 0.0079 0.98355 0.0
H1621 H 0.01059 0.03118 0.04251 0.0
H1622 H 0.97117 0.04232 0.01269 0.0
S1623 S 0.00763 0.94576 0.95821 0.0
N1624 N 0.02595 0.95612 0.98653 0.0
N1625 N 0.98325 0.96788 0.9546 0.0
C1626 C 0.98947 0.98513 0.97691 0.0
C1627 C 0.01244 0.97866 0.99435 0.0
C1628 C 0.48854 0.49353 0.53191 0.0
C1629 C 0.48804 0.51986 0.52077 0.0
C1630 C 0.49402 0.4717 0.51323 0.0
C1631 C 0.49914 0.47544 0.48275 0.0
H1632 H 0.4852 0.48982 0.55535 0.0
H1633 H 0.49501 0.45185 0.52287 0.0
S1634 S 0.4972 0.53986 0.44192 0.0
N1635 N 0.49096 0.54808 0.47678 0.0
N1636 N 0.50151 0.50709 0.44187 0.0
C1637 C 0.49793 0.50151 0.47118 0.0
C1638 C 0.49232 0.52371 0.49013 0.0
C1639 C 0.02824 0.4924 0.50879 0.0
C1640 C 0.02311 0.50065 0.47942 0.0
C1641 C 0.00724 0.48742 0.52874 0.0
C1642 C 0.98035 0.49058 0.52007 0.0
H1643 H 0.04866 0.49043 0.51662 0.0
H1644 H 0.01208 0.48136 0.55124 0.0
S1645 S 0.95629 0.5092 0.44479 0.0
N1646 N 0.98925 0.51016 0.44211 0.0
N1647 N 0.94976 0.50056 0.47948 0.0
C1648 C 0.97497 0.49821 0.49055 0.0
C1649 C 0.99634 0.50329 0.47027 0.0
C1650 C 0.98454 0.99714 0.52536 0.0
C1651 C 0.99634 0.97454 0.51218 0.0
C1652 C 0.97771 0.01962 0.5082 0.0
C1653 C 0.98212 0.02008 0.47726 0.0
H1654 H 0.98139 0.99777 0.54918 0.0
H1655 H 0.969 0.03683 0.51921 0.0
S1656 S 0.01121 0.9653 0.43205 0.0
N1657 N 0.0112 0.95351 0.46636 0.0
N1658 N 0.99825 0.99567 0.43414 0.0
C1659 C 0.99315 0.99727 0.46376 0.0
C1660 C 0.00031 0.97453 0.48122 0.0
C1661 C 0.51297 0.0256 0.49526 0.0
C1662 C 0.51894 0.00991 0.52052 0.0
C1663 C 0.49166 0.01907 0.47629 0.0
C1664 C 0.47581 0.99642 0.48167 0.0
H1665 H 0.52508 0.04291 0.48984 0.0
H1666 H 0.48788 0.0315 0.457 0.0
S1667 S 0.4815 0.94981 0.54549 0.0
N1668 N 0.50595 0.97159 0.55064 0.0
N1669 N 0.46644 0.95894 0.51441 0.0
C1670 C 0.48127 0.98071 0.50686 0.0
C1671 C 0.50274 0.9875 0.52639 0.0
C1672 C 0.52016 0.24837 0.27728 0.0
C1673 C 0.53838 0.26989 0.27767 0.0
C1674 C 0.5191 0.23051 0.25318 0.0
C1675 C 0.53622 0.23354 0.22858 0.0
H1676 H 0.50659 0.24533 0.29577 0.0
H1677 H 0.50473 0.21429 0.25375 0.0
S1678 S 0.58919 0.28507 0.21991 0.0
N1679 N 0.57494 0.29224 0.25206 0.0
N1680 N 0.57301 0.25875 0.2069 0.0
C1681 C 0.55472 0.2548 0.22884 0.0
C1682 C 0.55577 0.27295 0.25332 0.0
C1683 C 0.25891 0.55166 0.27497 0.0
C1684 C 0.23581 0.53551 0.27588 0.0
C1685 C 0.27726 0.54987 0.2515 0.0
C1686 C 0.27339 0.53179 0.22789 0.0
H1687 H 0.26276 0.56607 0.29245 0.0
H1688 H 0.29419 0.56341 0.25143 0.0
S1689 S 0.21707 0.48373 0.22051 0.0
N1690 N 0.21051 0.50021 0.25148 0.0
N1691 N 0.24552 0.49615 0.20788 0.0
C1692 C 0.25086 0.51485 0.229 0.0
C1693 C 0.23202 0.5168 0.25288 0.0
C1694 C 0.97843 0.24684 0.22977 0.0
C1695 C 0.96503 0.27166 0.23147 0.0
C1696 C 0.97739 0.22831 0.25322 0.0
C1697 C 0.96328 0.23402 0.27947 0.0
H1698 H 0.98949 0.24149 0.20993 0.0
H1699 H 0.9875 0.20925 0.2507 0.0
S1700 S 0.92425 0.2955 0.29525 0.0
N1701 N 0.93659 0.30044 0.26164 0.0
N1702 N 0.93552 0.26597 0.30593 0.0
C1703 C 0.95033 0.25889 0.28184 0.0
C1704 C 0.95103 0.27763 0.25784 0.0
C1705 C 0.27067 0.94134 0.25173 0.0
C1706 C 0.26965 0.96157 0.27345 0.0
C1707 C 0.25159 0.93991 0.22897 0.0
C1708 C 0.2306 0.95864 0.2269 0.0
H1709 H 0.28589 0.92591 0.25281 0.0
H1710 H 0.25319 0.92381 0.21294 0.0
S1711 S 0.21969 0.0165 0.27716 0.0
N1712 N 0.24675 0.00174 0.29044 0.0
N1713 N 0.21039 0.99858 0.24809 0.0
C1714 C 0.2297 0.97943 0.24797 0.0
C1715 C 0.24926 0.98095 0.27116 0.0
C1716 C 0.4762 0.77011 0.75372 0.0
C1717 C 0.46434 0.76338 0.78102 0.0
C1718 C 0.47625 0.752 0.72986 0.0
C1719 C 0.46406 0.72661 0.73223 0.0
H1720 H 0.48534 0.7896 0.75073 0.0
H1721 H 0.48562 0.75811 0.70923 0.0
S1722 S 0.42918 0.70006 0.79895 0.0
N1723 N 0.43997 0.72989 0.80922 0.0
N1724 N 0.43916 0.69618 0.76422 0.0
C1725 C 0.45229 0.71964 0.75963 0.0
C1726 C 0.45261 0.73796 0.78402 0.0
C1727 C 0.74708 0.47538 0.72993 0.0
C1728 C 0.77238 0.46304 0.73226 0.0
C1729 C 0.72882 0.47501 0.75364 0.0
C1730 C 0.73527 0.46257 0.78074 0.0
H1731 H 0.74114 0.48506 0.7094 0.0
H1732 H 0.70938 0.48424 0.75064 0.0
S1733 S 0.7984 0.42691 0.79841 0.0
N1734 N 0.80257 0.43757 0.76396 0.0
N1735 N 0.76851 0.43756 0.80866 0.0
C1736 C 0.76066 0.45074 0.78371 0.0
C1737 C 0.77916 0.45084 0.75947 0.0
C1738 C 0.0235 0.76989 0.74964 0.0
C1739 C 0.04094 0.76883 0.72515 0.0
C1740 C 0.02418 0.74999 0.77178 0.0
C1741 C 0.04218 0.7283 0.77002 0.0
H1742 H 0.00996 0.78666 0.75222 0.0
H1743 H 0.01123 0.75216 0.79095 0.0
S1744 S 0.08901 0.71449 0.70783 0.0
N1745 N 0.07475 0.74319 0.69886 0.0
N1746 N 0.07568 0.70561 0.73995 0.0
C1747 C 0.05864 0.72638 0.74473 0.0
C1748 C 0.05809 0.74668 0.72243 0.0
C1749 C 0.75354 0.04044 0.72886 0.0
C1750 C 0.72672 0.03269 0.73315 0.0
C1751 C 0.7716 0.04153 0.75275 0.0
C1752 C 0.7635 0.03485 0.78179 0.0
H1753 H 0.76032 0.04677 0.70708 0.0
H1754 H 0.79171 0.04876 0.74866 0.0
S1755 S 0.69647 0.00969 0.80392 0.0
N1756 N 0.69362 0.01587 0.76798 0.0
N1757 N 0.72758 0.0175 0.81283 0.0
C1758 C 0.73709 0.02573 0.78603 0.0
C1759 C 0.7187 0.02479 0.76175 0.0
loop_
_geom_bond_atom_site_label_1
_geom_bond_atom_site_label_2
_geom_bond_distance
_geom_bond_site_symmetry_2
_ccdc_geom_bond_type
Li0 N17 1.990 . S
Li0 O60 1.956 . S
Li0 O61 1.970 . S
Li0 O62 1.961 . S
Li1 N25 1.990 . S
Li1 O60 1.970 . S
Li1 O61 1.956 . S
Li1 O63 1.961 . S
Li2 N47 1.990 . S
Li2 O60 1.961 . S
Li2 O62 1.956 . S
Li2 O63 1.970 . S
Li3 N53 1.990 . S
Li3 O61 1.961 . S
Li3 O62 1.970 . S
Li3 O63 1.956 . S
C4 C6 1.348 . S
C4 C7 1.356 . S
C4 O60 1.325 . S
N5 C8 1.314 . S
N5 C9 1.279 . S
C6 C4 1.348 . S
C6 C8 1.353 . S
C6 H64 0.929 . S
C7 C4 1.356 . S
C7 C9 1.358 . S
C7 H65 0.930 . S
C8 N5 1.314 . S
C8 C6 1.353 . S
C8 H66 0.930 . S
C9 N5 1.279 . S
C9 C7 1.358 . S
C9 H67 0.930 . S
C10 C13 1.348 . S
C10 C14 1.356 . S
C10 O61 1.325 . S
C11 N12 1.279 . S
C11 C14 1.358 . S
C11 H68 0.930 . S
N12 C11 1.279 . S
N12 C15 1.314 . S
C13 C10 1.348 . S
C13 C15 1.353 . S
C13 H69 0.929 . S
C14 C10 1.356 . S
C14 C11 1.358 . S
C14 H70 0.930 . S
C15 N12 1.314 . S
C15 C13 1.353 . S
C15 H71 0.930 . S
C16 N17 1.314 . S
C16 C21 1.353 . S
C16 H22 0.930 . S
N17 Li0 1.990 . S
N17 C16 1.314 . S
N17 C19 1.279 . S
C18 C19 1.358 . S
C18 C20 1.356 . S
C18 H72 0.930 . S
C19 N17 1.279 . S
C19 C18 1.358 . S
C19 H23 0.930 . S
C20 C18 1.356 . S
C20 C21 1.348 . S
C21 C16 1.353 . S
C21 C20 1.348 . S
C21 H73 0.929 . S
H22 C16 0.930 . S
H23 C19 0.930 . S
C24 N25 1.314 . S
C24 C26 1.353 . S
C24 H30 0.930 . S
N25 Li1 1.990 . S
N25 C24 1.314 . S
N25 C28 1.279 . S
C26 C24 1.353 . S
C26 C29 1.348 . S
C26 H74 0.929 . S
C27 C28 1.358 . S
C27 C29 1.356 . S
C27 H75 0.930 . S
C28 N25 1.279 . S
C28 C27 1.358 . S
C28 H31 0.930 . S
C29 C26 1.348 . S
C29 C27 1.356 . S
H30 C24 0.930 . S
H31 C28 0.930 . S
C32 C34 1.348 . S
C32 C35 1.356 . S
C32 O62 1.325 . S
N33 C36 1.314 . S
N33 C37 1.279 . S
C34 C32 1.348 . S
C34 C36 1.353 . S
C34 H76 0.929 . S
C35 C32 1.356 . S
C35 C37 1.358 . S
C35 H77 0.930 . S
C36 N33 1.314 . S
C36 C34 1.353 . S
C36 H78 0.930 . S
C37 N33 1.279 . S
C37 C35 1.358 . S
C37 H79 0.930 . S
C38 C39 1.333 1_554 S
C38 C40 1.356 1_554 S
C38 O63 1.325 . S
C39 C38 1.333 1_556 S
C39 C41 1.382 . S
C39 H80 0.915 1_556 S
C40 C38 1.356 1_556 S
C40 C42 1.358 . S
C40 H81 0.930 1_556 S
C41 C39 1.382 . S
C41 N43 1.314 . S
C41 H82 0.930 . S
C42 C40 1.358 . S
C42 N43 1.279 . S
C42 H83 0.930 . S
N43 C41 1.314 . S
N43 C42 1.279 . S
C44 C46 1.353 . S
C44 N47 1.314 . S
C44 H50 0.930 . S
C45 N47 1.279 . S
C45 C48 1.358 . S
C45 H51 0.930 . S
C46 C44 1.353 . S
C46 C49 1.348 . S
C46 H84 0.929 . S
N47 Li2 1.990 . S
N47 C44 1.314 . S
N47 C45 1.279 . S
C48 C45 1.358 . S
C48 C49 1.356 . S
C48 H85 0.930 . S
C49 C46 1.348 . S
C49 C48 1.356 . S
H50 C44 0.930 . S
H51 C45 0.930 . S
C52 N53 1.314 . S
C52 C54 1.353 . S
C52 H58 0.930 . S
N53 Li3 1.990 . S
N53 C52 1.314 . S
N53 C56 1.279 . S
C54 C52 1.353 . S
C54 C57 1.348 . S
C54 H86 0.929 . S
C55 C56 1.358 1_556 S
C55 C57 1.356 1_556 S
C55 H87 0.930 . S
C56 N53 1.279 . S
C56 C55 1.358 1_554 S
C56 H59 0.930 1_554 S
C57 C54 1.348 . S
C57 C55 1.356 1_554 S
H58 C52 0.930 . S
H59 C56 0.930 1_556 S
O60 Li0 1.956 . S
O60 Li1 1.970 . S
O60 Li2 1.961 . S
O60 C4 1.325 . S
O61 Li0 1.970 . S
O61 Li1 1.956 . S
O61 Li3 1.961 . S
O61 C10 1.325 . S
O62 Li0 1.961 . S
O62 Li2 1.956 . S
O62 Li3 1.970 . S
O62 C32 1.325 . S
O63 Li1 1.961 . S
O63 Li2 1.970 . S
O63 Li3 1.956 . S
O63 C38 1.325 . S
H64 C6 0.929 . S
H65 C7 0.930 . S
H66 C8 0.930 . S
H67 C9 0.930 . S
H68 C11 0.930 . S
H69 C13 0.929 . S
H70 C14 0.930 . S
H71 C15 0.930 . S
H72 C18 0.930 . S
H73 C21 0.929 . S
H74 C26 0.929 . S
H75 C27 0.930 . S
H76 C34 0.929 . S
H77 C35 0.930 . S
H78 C36 0.930 . S
H79 C37 0.930 . S
H80 C39 0.915 1_554 S
H81 C40 0.930 1_554 S
H82 C41 0.930 . S
H83 C42 0.930 . S
H84 C46 0.929 . S
H85 C48 0.930 . S
H86 C54 0.929 . S
H87 C55 0.930 . S
Li88 N105 1.990 . S
Li88 O148 1.956 . S
Li88 O149 1.970 . S
Li88 O150 1.961 . S
Li89 N113 1.990 . S
Li89 O148 1.970 . S
Li89 O149 1.956 . S
Li89 O151 1.961 . S
Li90 N135 1.990 . S
Li90 O148 1.961 . S
Li90 O150 1.956 . S
Li90 O151 1.970 . S
Li91 N141 1.990 . S
Li91 O149 1.961 . S
Li91 O150 1.970 . S
Li91 O151 1.956 . S
C92 C94 1.348 . S
C92 C95 1.356 . S
C92 O148 1.325 . S
N93 C96 1.314 . S
N93 C97 1.279 . S
C94 C92 1.348 . S
C94 C96 1.353 . S
C94 H152 0.929 . S
C95 C92 1.356 . S
C95 C97 1.358 . S
C95 H153 0.930 . S
C96 N93 1.314 . S
C96 C94 1.353 . S
C96 H154 0.930 . S
C97 N93 1.279 . S
C97 C95 1.358 . S
C97 H155 0.930 . S
C98 C101 1.348 . S
C98 C102 1.356 . S
C98 O149 1.325 . S
C99 N100 1.279 . S
C99 C102 1.358 . S
C99 H156 0.930 . S
N100 C99 1.279 . S
N100 C103 1.314 . S
C101 C98 1.348 . S
C101 C103 1.353 . S
C101 H157 0.929 . S
C102 C98 1.356 . S
C102 C99 1.358 . S
C102 H158 0.930 . S
C103 N100 1.314 . S
C103 C101 1.353 . S
C103 H159 0.930 . S
C104 N105 1.314 . S
C104 C109 1.353 . S
C104 H110 0.930 . S
N105 Li88 1.990 . S
N105 C104 1.314 . S
N105 C107 1.279 . S
C106 C107 1.358 . S
C106 C108 1.356 . S
C106 H160 0.930 . S
C107 N105 1.279 . S
C107 C106 1.358 . S
C107 H111 0.930 . S
C108 C106 1.356 . S
C108 C109 1.348 . S
C109 C104 1.353 . S
C109 C108 1.348 . S
C109 H161 0.929 . S
H110 C104 0.930 . S
H111 C107 0.930 . S
C112 N113 1.314 . S
C112 C114 1.353 . S
C112 H118 0.930 . S
N113 Li89 1.990 . S
N113 C112 1.314 . S
N113 C116 1.279 . S
C114 C112 1.353 . S
C114 C117 1.348 . S
C114 H162 0.929 . S
C115 C116 1.358 . S
C115 C117 1.356 . S
C115 H163 0.930 . S
C116 N113 1.279 . S
C116 C115 1.358 . S
C116 H119 0.930 . S
C117 C114 1.348 . S
C117 C115 1.356 . S
H118 C112 0.930 . S
H119 C116 0.930 . S
C120 C122 1.348 . S
C120 C123 1.356 . S
C120 O150 1.325 . S
N121 C124 1.314 . S
N121 C125 1.279 . S
C122 C120 1.348 . S
C122 C124 1.353 . S
C122 H164 0.929 . S
C123 C120 1.356 . S
C123 C125 1.358 . S
C123 H165 0.930 . S
C124 N121 1.314 . S
C124 C122 1.353 . S
C124 H166 0.930 . S
C125 N121 1.279 . S
C125 C123 1.358 . S
C125 H167 0.930 . S
C126 C127 1.333 1_554 S
C126 C128 1.356 1_554 S
C126 O151 1.325 . S
C127 C126 1.333 1_556 S
C127 C129 1.382 . S
C127 H168 0.915 1_556 S
C128 C126 1.356 1_556 S
C128 C130 1.358 . S
C128 H169 0.930 1_556 S
C129 C127 1.382 . S
C129 N131 1.314 . S
C129 H170 0.930 . S
C130 C128 1.358 . S
C130 N131 1.279 . S
C130 H171 0.930 . S
N131 C129 1.314 . S
N131 C130 1.279 . S
C132 C134 1.353 . S
C132 N135 1.314 . S
C132 H138 0.930 . S
C133 N135 1.279 . S
C133 C136 1.358 . S
C133 H139 0.930 . S
C134 C132 1.353 . S
C134 C137 1.348 . S
C134 H172 0.929 . S
N135 Li90 1.990 . S
N135 C132 1.314 . S
N135 C133 1.279 . S
C136 C133 1.358 . S
C136 C137 1.356 . S
C136 H173 0.930 . S
C137 C134 1.348 . S
C137 C136 1.356 . S
H138 C132 0.930 . S
H139 C133 0.930 . S
C140 N141 1.314 . S
C140 C142 1.353 . S
C140 H146 0.930 . S
N141 Li91 1.990 . S
N141 C140 1.314 . S
N141 C144 1.279 . S
C142 C140 1.353 . S
C142 C145 1.348 . S
C142 H174 0.929 . S
C143 C144 1.358 1_556 S
C143 C145 1.356 1_556 S
C143 H175 0.930 . S
C144 N141 1.279 . S
C144 C143 1.358 1_554 S
C144 H147 0.930 1_554 S
C145 C142 1.348 . S
C145 C143 1.356 1_554 S
H146 C140 0.930 . S
H147 C144 0.930 1_556 S
O148 Li88 1.956 . S
O148 Li89 1.970 . S
O148 Li90 1.961 . S
O148 C92 1.325 . S
O149 Li88 1.970 . S
O149 Li89 1.956 . S
O149 Li91 1.961 . S
O149 C98 1.325 . S
O150 Li88 1.961 . S
O150 Li90 1.956 . S
O150 Li91 1.970 . S
O150 C120 1.325 . S
O151 Li89 1.961 . S
O151 Li90 1.970 . S
O151 Li91 1.956 . S
O151 C126 1.325 . S
H152 C94 0.929 . S
H153 C95 0.930 . S
H154 C96 0.930 . S
H155 C97 0.930 . S
H156 C99 0.930 . S
H157 C101 0.929 . S
H158 C102 0.930 . S
H159 C103 0.930 . S
H160 C106 0.930 . S
H161 C109 0.929 . S
H162 C114 0.929 . S
H163 C115 0.930 . S
H164 C122 0.929 . S
H165 C123 0.930 . S
H166 C124 0.930 . S
H167 C125 0.930 . S
H168 C127 0.915 1_554 S
H169 C128 0.930 1_554 S
H170 C129 0.930 . S
H171 C130 0.930 . S
H172 C134 0.929 . S
H173 C136 0.930 . S
H174 C142 0.929 . S
H175 C143 0.930 . S
Li176 N193 1.990 . S
Li176 O236 1.956 . S
Li176 O237 1.970 . S
Li176 O238 1.961 . S
Li177 N201 1.990 . S
Li177 O236 1.970 . S
Li177 O237 1.956 . S
Li177 O239 1.961 . S
Li178 N223 1.990 . S
Li178 O236 1.961 . S
Li178 O238 1.956 . S
Li178 O239 1.970 . S
Li179 N229 1.990 . S
Li179 O237 1.961 . S
Li179 O238 1.970 . S
Li179 O239 1.956 . S
C180 C182 1.348 . S
C180 C183 1.356 . S
C180 O236 1.325 . S
N181 C184 1.314 . S
N181 C185 1.279 . S
C182 C180 1.348 . S
C182 C184 1.353 1_655 S
C182 H240 0.929 . S
C183 C180 1.356 . S
C183 C185 1.358 1_655 S
C183 H241 0.930 . S
C184 N181 1.314 . S
C184 C182 1.353 1_455 S
C184 H242 0.930 . S
C185 N181 1.279 . S
C185 C183 1.358 1_455 S
C185 H243 0.930 . S
C186 C189 1.348 . S
C186 C190 1.356 . S
C186 O237 1.325 . S
C187 N188 1.279 . S
C187 C190 1.358 . S
C187 H244 0.930 . S
N188 C187 1.279 . S
N188 C191 1.314 . S
C189 C186 1.348 . S
C189 C191 1.353 . S
C189 H245 0.929 . S
C190 C186 1.356 . S
C190 C187 1.358 . S
C190 H246 0.930 . S
C191 N188 1.314 . S
C191 C189 1.353 . S
C191 H247 0.930 . S
C192 N193 1.314 . S
C192 C197 1.353 . S
C192 H198 0.930 . S
N193 Li176 1.990 . S
N193 C192 1.314 . S
N193 C195 1.279 . S
C194 C195 1.358 1_455 S
C194 C196 1.356 . S
C194 H248 0.930 . S
C195 N193 1.279 . S
C195 C194 1.358 1_655 S
C195 H199 0.944 . S
C196 C194 1.356 . S
C196 C197 1.348 1_455 S
C197 C192 1.353 . S
C197 C196 1.348 1_655 S
C197 H249 0.929 . S
H198 C192 0.930 . S
H199 C195 0.944 . S
C200 N201 1.314 . S
C200 C202 1.353 . S
C200 H206 0.930 . S
N201 Li177 1.990 . S
N201 C200 1.314 . S
N201 C204 1.279 . S
C202 C200 1.353 . S
C202 C205 1.348 . S
C202 H250 0.929 . S
C203 C204 1.358 . S
C203 C205 1.356 . S
C203 H251 0.930 . S
C204 N201 1.279 . S
C204 C203 1.358 . S
C204 H207 0.930 . S
C205 C202 1.348 . S
C205 C203 1.356 . S
H206 C200 0.930 . S
H207 C204 0.930 . S
C208 C210 1.333 1_554 S
C208 C211 1.356 1_554 S
C208 O238 1.325 . S
N209 C212 1.314 . S
N209 C213 1.279 . S
C210 C208 1.333 1_556 S
C210 C212 1.382 . S
C210 H252 0.915 1_556 S
C211 C208 1.356 1_556 S
C211 C213 1.358 . S
C211 H253 0.930 1_556 S
C212 N209 1.314 . S
C212 C210 1.382 . S
C212 H254 0.930 . S
C213 N209 1.279 . S
C213 C211 1.358 . S
C213 H255 0.930 . S
C214 C215 1.348 . S
C214 C216 1.356 . S
C214 O239 1.325 . S
C215 C214 1.348 . S
C215 C217 1.353 . S
C215 H256 0.929 . S
C216 C214 1.356 . S
C216 C218 1.358 . S
C216 H257 0.930 . S
C217 C215 1.353 . S
C217 N219 1.314 . S
C217 H258 0.930 . S
C218 C216 1.358 . S
C218 N219 1.279 . S
C218 H259 0.930 . S
N219 C217 1.314 . S
N219 C218 1.279 . S
C220 C222 1.353 . S
C220 N223 1.314 . S
C220 H226 0.930 . S
C221 N223 1.279 . S
C221 C224 1.358 1_554 S
C221 H227 0.930 1_554 S
C222 C220 1.353 . S
C222 C225 1.348 . S
C222 H260 0.929 . S
N223 Li178 1.990 . S
N223 C220 1.314 . S
N223 C221 1.279 . S
C224 C221 1.358 1_556 S
C224 C225 1.356 1_556 S
C224 H261 0.930 . S
C225 C222 1.348 . S
C225 C224 1.356 1_554 S
H226 C220 0.930 . S
H227 C221 0.930 1_556 S
C228 N229 1.314 . S
C228 C230 1.353 . S
C228 H234 0.930 . S
N229 Li179 1.990 . S
N229 C228 1.314 . S
N229 C232 1.279 . S
C230 C228 1.353 . S
C230 C233 1.348 . S
C230 H262 0.929 . S
C231 C232 1.358 . S
C231 C233 1.356 . S
C231 H263 0.930 . S
C232 N229 1.279 . S
C232 C231 1.358 . S
C232 H235 0.930 . S
C233 C230 1.348 . S
C233 C231 1.356 . S
H234 C228 0.930 . S
H235 C232 0.930 . S
O236 Li176 1.956 . S
O236 Li177 1.970 . S
O236 Li178 1.961 . S
O236 C180 1.325 . S
O237 Li176 1.970 . S
O237 Li177 1.956 . S
O237 Li179 1.961 . S
O237 C186 1.325 . S
O238 Li176 1.961 . S
O238 Li178 1.956 . S
O238 Li179 1.970 . S
O238 C208 1.325 . S
O239 Li177 1.961 . S
O239 Li178 1.970 . S
O239 Li179 1.956 . S
O239 C214 1.325 . S
H240 C182 0.929 . S
H241 C183 0.930 . S
H242 C184 0.930 . S
H243 C185 0.930 . S
H244 C187 0.930 . S
H245 C189 0.929 . S
H246 C190 0.930 . S
H247 C191 0.930 . S
H248 C194 0.930 . S
H249 C197 0.929 . S
H250 C202 0.929 . S
H251 C203 0.930 . S
H252 C210 0.915 1_554 S
H253 C211 0.930 1_554 S
H254 C212 0.930 . S
H255 C213 0.930 . S
H256 C215 0.929 . S
H257 C216 0.930 . S
H258 C217 0.930 . S
H259 C218 0.930 . S
H260 C222 0.929 . S
H261 C224 0.930 . S
H262 C230 0.929 . S
H263 C231 0.930 . S
Li264 N281 1.990 . S
Li264 O324 1.956 . S
Li264 O325 1.970 . S
Li264 O326 1.961 . S
Li265 N289 1.990 . S
Li265 O324 1.970 . S
Li265 O325 1.956 . S
Li265 O327 1.961 . S
Li266 N311 1.990 . S
Li266 O324 1.961 . S
Li266 O326 1.956 . S
Li266 O327 1.970 . S
Li267 N317 1.990 . S
Li267 O325 1.961 . S
Li267 O326 1.970 . S
Li267 O327 1.956 . S
C268 C270 1.348 . S
C268 C271 1.356 . S
C268 O324 1.325 . S
N269 C272 1.314 . S
N269 C273 1.279 . S
C270 C268 1.348 . S
C270 C272 1.353 1_565 S
C270 H328 0.929 . S
C271 C268 1.356 . S
C271 C273 1.358 1_565 S
C271 H329 0.930 . S
C272 N269 1.314 . S
C272 C270 1.353 1_545 S
C272 H330 0.930 . S
C273 N269 1.279 . S
C273 C271 1.358 1_545 S
C273 H331 0.930 . S
C274 C277 1.348 . S
C274 C278 1.356 . S
C274 O325 1.325 . S
C275 N276 1.279 . S
C275 C278 1.358 . S
C275 H332 0.930 . S
N276 C275 1.279 . S
N276 C279 1.314 . S
C277 C274 1.348 . S
C277 C279 1.353 . S
C277 H333 0.929 . S
C278 C274 1.356 . S
C278 C275 1.358 . S
C278 H334 0.930 . S
C279 N276 1.314 . S
C279 C277 1.353 . S
C279 H335 0.930 . S
C280 N281 1.314 . S
C280 C285 1.353 . S
C280 H286 0.930 . S
N281 Li264 1.990 . S
N281 C280 1.314 . S
N281 C283 1.279 . S
C282 C283 1.358 1_545 S
C282 C284 1.356 . S
C282 H336 0.930 . S
C283 N281 1.279 . S
C283 C282 1.358 1_565 S
C283 H287 0.944 . S
C284 C282 1.356 . S
C284 C285 1.348 1_545 S
C285 C280 1.353 . S
C285 C284 1.348 1_565 S
C285 H337 0.929 . S
H286 C280 0.930 . S
H287 C283 0.944 . S
C288 N289 1.314 . S
C288 C290 1.353 . S
C288 H294 0.930 . S
N289 Li265 1.990 . S
N289 C288 1.314 . S
N289 C292 1.279 . S
C290 C288 1.353 . S
C290 C293 1.348 . S
C290 H338 0.929 . S
C291 C292 1.358 . S
C291 C293 1.356 . S
C291 H339 0.930 . S
C292 N289 1.279 . S
C292 C291 1.358 . S
C292 H295 0.930 . S
C293 C290 1.348 . S
C293 C291 1.356 . S
H294 C288 0.930 . S
H295 C292 0.930 . S
C296 C298 1.333 1_554 S
C296 C299 1.356 1_554 S
C296 O326 1.325 . S
N297 C300 1.314 . S
N297 C301 1.279 . S
C298 C296 1.333 1_556 S
C298 C300 1.382 . S
C298 H340 0.915 1_556 S
C299 C296 1.356 1_556 S
C299 C301 1.358 . S
C299 H341 0.930 1_556 S
C300 N297 1.314 . S
C300 C298 1.382 . S
C300 H342 0.930 . S
C301 N297 1.279 . S
C301 C299 1.358 . S
C301 H343 0.930 . S
C302 C303 1.348 . S
C302 C304 1.356 . S
C302 O327 1.325 . S
C303 C302 1.348 . S
C303 C305 1.353 . S
C303 H344 0.929 . S
C304 C302 1.356 . S
C304 C306 1.358 . S
C304 H345 0.930 . S
C305 C303 1.353 . S
C305 N307 1.314 . S
C305 H346 0.930 . S
C306 C304 1.358 . S
C306 N307 1.279 . S
C306 H347 0.930 . S
N307 C305 1.314 . S
N307 C306 1.279 . S
C308 C310 1.353 . S
C308 N311 1.314 . S
C308 H314 0.930 . S
C309 N311 1.279 . S
C309 C312 1.358 1_554 S
C309 H315 0.930 1_554 S
C310 C308 1.353 . S
C310 C313 1.348 . S
C310 H348 0.929 . S
N311 Li266 1.990 . S
N311 C308 1.314 . S
N311 C309 1.279 . S
C312 C309 1.358 1_556 S
C312 C313 1.356 1_556 S
C312 H349 0.930 . S
C313 C310 1.348 . S
C313 C312 1.356 1_554 S
H314 C308 0.930 . S
H315 C309 0.930 1_556 S
C316 N317 1.314 . S
C316 C318 1.353 . S
C316 H322 0.930 . S
N317 Li267 1.990 . S
N317 C316 1.314 . S
N317 C320 1.279 . S
C318 C316 1.353 . S
C318 C321 1.348 . S
C318 H350 0.929 . S
C319 C320 1.358 . S
C319 C321 1.356 . S
C319 H351 0.930 . S
C320 N317 1.279 . S
C320 C319 1.358 . S
C320 H323 0.930 . S
C321 C318 1.348 . S
C321 C319 1.356 . S
H322 C316 0.930 . S
H323 C320 0.930 . S
O324 Li264 1.956 . S
O324 Li265 1.970 . S
O324 Li266 1.961 . S
O324 C268 1.325 . S
O325 Li264 1.970 . S
O325 Li265 1.956 . S
O325 Li267 1.961 . S
O325 C274 1.325 . S
O326 Li264 1.961 . S
O326 Li266 1.956 . S
O326 Li267 1.970 . S
O326 C296 1.325 . S
O327 Li265 1.961 . S
O327 Li266 1.970 . S
O327 Li267 1.956 . S
O327 C302 1.325 . S
H328 C270 0.929 . S
H329 C271 0.930 . S
H330 C272 0.930 . S
H331 C273 0.930 . S
H332 C275 0.930 . S
H333 C277 0.929 . S
H334 C278 0.930 . S
H335 C279 0.930 . S
H336 C282 0.930 . S
H337 C285 0.929 . S
H338 C290 0.929 . S
H339 C291 0.930 . S
H340 C298 0.915 1_554 S
H341 C299 0.930 1_554 S
H342 C300 0.930 . S
H343 C301 0.930 . S
H344 C303 0.929 . S
H345 C304 0.930 . S
H346 C305 0.930 . S
H347 C306 0.930 . S
H348 C310 0.929 . S
H349 C312 0.930 . S
H350 C318 0.929 . S
H351 C319 0.930 . S
Li352 N369 1.990 . S
Li352 O412 1.956 . S
Li352 O413 1.970 . S
Li352 O414 1.961 . S
Li353 N377 1.990 . S
Li353 O412 1.970 . S
Li353 O413 1.956 . S
Li353 O415 1.961 . S
Li354 N399 1.990 . S
Li354 O412 1.961 . S
Li354 O414 1.956 . S
Li354 O415 1.970 . S
Li355 N405 1.990 . S
Li355 O413 1.961 . S
Li355 O414 1.970 . S
Li355 O415 1.956 . S
C356 C358 1.348 . S
C356 C359 1.356 . S
C356 O412 1.325 . S
N357 C360 1.314 . S
N357 C361 1.279 . S
C358 C356 1.348 . S
C358 C360 1.353 . S
C358 H416 0.929 . S
C359 C356 1.356 . S
C359 C361 1.358 . S
C359 H417 0.930 . S
C360 N357 1.314 . S
C360 C358 1.353 . S
C360 H418 0.930 . S
C361 N357 1.279 . S
C361 C359 1.358 . S
C361 H419 0.930 . S
C362 C365 1.348 . S
C362 C366 1.356 . S
C362 O413 1.325 . S
C363 N364 1.279 . S
C363 C366 1.358 . S
C363 H420 0.930 . S
N364 C363 1.279 . S
N364 C367 1.314 . S
C365 C362 1.348 . S
C365 C367 1.353 . S
C365 H421 0.929 . S
C366 C362 1.356 . S
C366 C363 1.358 . S
C366 H422 0.930 . S
C367 N364 1.314 . S
C367 C365 1.353 . S
C367 H423 0.930 . S
C368 N369 1.314 . S
C368 C373 1.353 . S
C368 H374 0.930 . S
N369 Li352 1.990 . S
N369 C368 1.314 . S
N369 C371 1.279 . S
C370 C371 1.358 . S
C370 C372 1.356 . S
C370 H424 0.930 . S
C371 N369 1.279 . S
C371 C370 1.358 . S
C371 H375 0.930 . S
C372 C370 1.356 . S
C372 C373 1.348 . S
C373 C368 1.353 . S
C373 C372 1.348 . S
C373 H425 0.929 . S
H374 C368 0.930 . S
H375 C371 0.930 . S
C376 N377 1.314 . S
C376 C378 1.353 . S
C376 H382 0.930 . S
N377 Li353 1.990 . S
N377 C376 1.314 . S
N377 C380 1.279 . S
C378 C376 1.353 . S
C378 C381 1.348 . S
C378 H426 0.929 . S
C379 C380 1.358 . S
C379 C381 1.356 . S
C379 H427 0.930 . S
C380 N377 1.279 . S
C380 C379 1.358 . S
C380 H383 0.930 . S
C381 C378 1.348 . S
C381 C379 1.356 . S
H382 C376 0.930 . S
H383 C380 0.930 . S
C384 C386 1.348 . S
C384 C387 1.356 . S
C384 O414 1.325 . S
N385 C388 1.314 . S
N385 C389 1.279 . S
C386 C384 1.348 . S
C386 C388 1.353 . S
C386 H428 0.929 . S
C387 C384 1.356 . S
C387 C389 1.358 . S
C387 H429 0.930 . S
C388 N385 1.314 . S
C388 C386 1.353 . S
C388 H430 0.930 . S
C389 N385 1.279 . S
C389 C387 1.358 . S
C389 H431 0.930 . S
C390 C391 1.348 . S
C390 C392 1.356 . S
C390 O415 1.325 . S
C391 C390 1.348 . S
C391 C393 1.353 . S
C391 H432 0.929 . S
C392 C390 1.356 . S
C392 C394 1.358 . S
C392 H433 0.930 . S
C393 C391 1.353 . S
C393 N395 1.314 . S
C393 H434 0.930 . S
C394 C392 1.358 . S
C394 N395 1.279 . S
C394 H435 0.930 . S
N395 C393 1.314 . S
N395 C394 1.279 . S
C396 C398 1.353 . S
C396 N399 1.314 . S
C396 H402 0.930 . S
C397 N399 1.279 . S
C397 C400 1.358 . S
C397 H403 0.930 . S
C398 C396 1.353 . S
C398 C401 1.348 . S
C398 H436 0.929 . S
N399 Li354 1.990 . S
N399 C396 1.314 . S
N399 C397 1.279 . S
C400 C397 1.358 . S
C400 C401 1.356 . S
C400 H437 0.930 . S
C401 C398 1.348 . S
C401 C400 1.356 . S
H402 C396 0.930 . S
H403 C397 0.930 . S
C404 N405 1.314 . S
C404 C406 1.353 . S
C404 H410 0.930 . S
N405 Li355 1.990 . S
N405 C404 1.314 . S
N405 C408 1.279 . S
C406 C404 1.353 . S
C406 C409 1.348 . S
C406 H438 0.929 . S
C407 C408 1.358 . S
C407 C409 1.356 . S
C407 H439 0.930 . S
C408 N405 1.279 . S
C408 C407 1.358 . S
C408 H411 0.930 . S
C409 C406 1.348 . S
C409 C407 1.356 . S
H410 C404 0.930 . S
H411 C408 0.930 . S
O412 Li352 1.956 . S
O412 Li353 1.970 . S
O412 Li354 1.961 . S
O412 C356 1.325 . S
O413 Li352 1.970 . S
O413 Li353 1.956 . S
O413 Li355 1.961 . S
O413 C362 1.325 . S
O414 Li352 1.961 . S
O414 Li354 1.956 . S
O414 Li355 1.970 . S
O414 C384 1.325 . S
O415 Li353 1.961 . S
O415 Li354 1.970 . S
O415 Li355 1.956 . S
O415 C390 1.325 . S
H416 C358 0.929 . S
H417 C359 0.930 . S
H418 C360 0.930 . S
H419 C361 0.930 . S
H420 C363 0.930 . S
H421 C365 0.929 . S
H422 C366 0.930 . S
H423 C367 0.930 . S
H424 C370 0.930 . S
H425 C373 0.929 . S
H426 C378 0.929 . S
H427 C379 0.930 . S
H428 C386 0.929 . S
H429 C387 0.930 . S
H430 C388 0.930 . S
H431 C389 0.930 . S
H432 C391 0.929 . S
H433 C392 0.930 . S
H434 C393 0.930 . S
H435 C394 0.930 . S
H436 C398 0.929 . S
H437 C400 0.930 . S
H438 C406 0.929 . S
H439 C407 0.930 . S
Li440 N457 1.990 . S
Li440 O500 1.956 . S
Li440 O501 1.970 . S
Li440 O502 1.961 . S
Li441 N465 1.990 . S
Li441 O500 1.970 . S
Li441 O501 1.956 . S
Li441 O503 1.961 . S
Li442 N487 1.990 . S
Li442 O500 1.961 . S
Li442 O502 1.956 . S
Li442 O503 1.970 . S
Li443 N493 1.990 . S
Li443 O501 1.961 . S
Li443 O502 1.970 . S
Li443 O503 1.956 . S
C444 C446 1.348 . S
C444 C447 1.356 . S
C444 O500 1.325 . S
N445 C448 1.314 . S
N445 C449 1.279 . S
C446 C444 1.348 . S
C446 C448 1.353 . S
C446 H504 0.929 . S
C447 C444 1.356 . S
C447 C449 1.358 . S
C447 H505 0.930 . S
C448 N445 1.314 . S
C448 C446 1.353 . S
C448 H506 0.930 . S
C449 N445 1.279 . S
C449 C447 1.358 . S
C449 H507 0.930 . S
C450 C453 1.348 . S
C450 C454 1.356 . S
C450 O501 1.325 . S
C451 N452 1.279 . S
C451 C454 1.358 . S
C451 H508 0.930 . S
N452 C451 1.279 . S
N452 C455 1.314 . S
C453 C450 1.348 . S
C453 C455 1.353 . S
C453 H509 0.929 . S
C454 C450 1.356 . S
C454 C451 1.358 . S
C454 H510 0.930 . S
C455 N452 1.314 . S
C455 C453 1.353 . S
C455 H511 0.930 . S
C456 N457 1.314 . S
C456 C461 1.353 . S
C456 H462 0.930 . S
N457 Li440 1.990 . S
N457 C456 1.314 . S
N457 C459 1.279 . S
C458 C459 1.358 . S
C458 C460 1.356 . S
C458 H512 0.930 . S
C459 N457 1.279 . S
C459 C458 1.358 . S
C459 H463 0.930 . S
C460 C458 1.356 . S
C460 C461 1.348 . S
C461 C456 1.353 . S
C461 C460 1.348 . S
C461 H513 0.929 . S
H462 C456 0.930 . S
H463 C459 0.930 . S
C464 N465 1.314 . S
C464 C466 1.353 . S
C464 H470 0.930 . S
N465 Li441 1.990 . S
N465 C464 1.314 . S
N465 C468 1.279 . S
C466 C464 1.353 . S
C466 C469 1.348 . S
C466 H514 0.929 . S
C467 C468 1.358 . S
C467 C469 1.356 . S
C467 H515 0.930 . S
C468 N465 1.279 . S
C468 C467 1.358 . S
C468 H471 0.930 . S
C469 C466 1.348 . S
C469 C467 1.356 . S
H470 C464 0.930 . S
H471 C468 0.930 . S
C472 C474 1.348 . S
C472 C475 1.356 . S
C472 O502 1.325 . S
N473 C476 1.314 . S
N473 C477 1.279 . S
C474 C472 1.348 . S
C474 C476 1.353 . S
C474 H516 0.929 . S
C475 C472 1.356 . S
C475 C477 1.358 . S
C475 H517 0.930 . S
C476 N473 1.314 . S
C476 C474 1.353 . S
C476 H518 0.930 . S
C477 N473 1.279 . S
C477 C475 1.358 . S
C477 H519 0.930 . S
C478 C479 1.348 . S
C478 C480 1.356 . S
C478 O503 1.325 . S
C479 C478 1.348 . S
C479 C481 1.353 . S
C479 H520 0.929 . S
C480 C478 1.356 . S
C480 C482 1.358 . S
C480 H521 0.930 . S
C481 C479 1.353 . S
C481 N483 1.314 . S
C481 H522 0.930 . S
C482 C480 1.358 . S
C482 N483 1.279 . S
C482 H523 0.930 . S
N483 C481 1.314 . S
N483 C482 1.279 . S
C484 C486 1.353 . S
C484 N487 1.314 . S
C484 H490 0.930 . S
C485 N487 1.279 . S
C485 C488 1.358 . S
C485 H491 0.930 . S
C486 C484 1.353 . S
C486 C489 1.348 . S
C486 H524 0.929 . S
N487 Li442 1.990 . S
N487 C484 1.314 . S
N487 C485 1.279 . S
C488 C485 1.358 . S
C488 C489 1.356 . S
C488 H525 0.930 . S
C489 C486 1.348 . S
C489 C488 1.356 . S
H490 C484 0.930 . S
H491 C485 0.930 . S
C492 N493 1.314 . S
C492 C494 1.353 . S
C492 H498 0.930 . S
N493 Li443 1.990 . S
N493 C492 1.314 . S
N493 C496 1.279 . S
C494 C492 1.353 . S
C494 C497 1.348 . S
C494 H526 0.929 . S
C495 C496 1.358 . S
C495 C497 1.356 . S
C495 H527 0.930 . S
C496 N493 1.279 . S
C496 C495 1.358 . S
C496 H499 0.930 . S
C497 C494 1.348 . S
C497 C495 1.356 . S
H498 C492 0.930 . S
H499 C496 0.930 . S
O500 Li440 1.956 . S
O500 Li441 1.970 . S
O500 Li442 1.961 . S
O500 C444 1.325 . S
O501 Li440 1.970 . S
O501 Li441 1.956 . S
O501 Li443 1.961 . S
O501 C450 1.325 . S
O502 Li440 1.961 . S
O502 Li442 1.956 . S
O502 Li443 1.970 . S
O502 C472 1.325 . S
O503 Li441 1.961 . S
O503 Li442 1.970 . S
O503 Li443 1.956 . S
O503 C478 1.325 . S
H504 C446 0.929 . S
H505 C447 0.930 . S
H506 C448 0.930 . S
H507 C449 0.930 . S
H508 C451 0.930 . S
H509 C453 0.929 . S
H510 C454 0.930 . S
H511 C455 0.930 . S
H512 C458 0.930 . S
H513 C461 0.929 . S
H514 C466 0.929 . S
H515 C467 0.930 . S
H516 C474 0.929 . S
H517 C475 0.930 . S
H518 C476 0.930 . S
H519 C477 0.930 . S
H520 C479 0.929 . S
H521 C480 0.930 . S
H522 C481 0.930 . S
H523 C482 0.930 . S
H524 C486 0.929 . S
H525 C488 0.930 . S
H526 C494 0.929 . S
H527 C495 0.930 . S
Li528 N545 1.990 . S
Li528 O588 1.956 . S
Li528 O589 1.970 . S
Li528 O590 1.961 . S
Li529 N553 1.990 . S
Li529 O588 1.970 . S
Li529 O589 1.956 . S
Li529 O591 1.961 . S
Li530 N575 1.990 . S
Li530 O588 1.961 . S
Li530 O590 1.956 . S
Li530 O591 1.970 . S
Li531 N581 1.990 . S
Li531 O589 1.961 . S
Li531 O590 1.970 . S
Li531 O591 1.956 . S
C532 C534 1.348 . S
C532 C535 1.356 . S
C532 O588 1.325 . S
N533 C536 1.314 . S
N533 C537 1.279 . S
C534 C532 1.348 . S
C534 C536 1.353 . S
C534 H592 0.929 . S
C535 C532 1.356 . S
C535 C537 1.358 . S
C535 H593 0.930 . S
C536 N533 1.314 . S
C536 C534 1.353 . S
C536 H594 0.930 . S
C537 N533 1.279 . S
C537 C535 1.358 . S
C537 H595 0.930 . S
C538 C541 1.348 . S
C538 C542 1.356 . S
C538 O589 1.325 . S
C539 N540 1.279 . S
C539 C542 1.358 . S
C539 H596 0.930 . S
N540 C539 1.279 . S
N540 C543 1.314 . S
C541 C538 1.348 . S
C541 C543 1.353 . S
C541 H597 0.929 . S
C542 C538 1.356 . S
C542 C539 1.358 . S
C542 H598 0.930 . S
C543 N540 1.314 . S
C543 C541 1.353 . S
C543 H599 0.930 . S
C544 N545 1.314 . S
C544 C549 1.353 . S
C544 H550 0.930 . S
N545 Li528 1.990 . S
N545 C544 1.314 . S
N545 C547 1.279 . S
C546 C547 1.358 . S
C546 C548 1.356 . S
C546 H600 0.930 . S
C547 N545 1.279 . S
C547 C546 1.358 . S
C547 H551 0.930 . S
C548 C546 1.356 . S
C548 C549 1.348 . S
C549 C544 1.353 . S
C549 C548 1.348 . S
C549 H601 0.929 . S
H550 C544 0.930 . S
H551 C547 0.930 . S
C552 N553 1.314 . S
C552 C554 1.353 . S
C552 H558 0.930 . S
N553 Li529 1.990 . S
N553 C552 1.314 . S
N553 C556 1.279 . S
C554 C552 1.353 . S
C554 C557 1.348 . S
C554 H602 0.929 . S
C555 C556 1.358 . S
C555 C557 1.356 . S
C555 H603 0.930 . S
C556 N553 1.279 . S
C556 C555 1.358 . S
C556 H559 0.930 . S
C557 C554 1.348 . S
C557 C555 1.356 . S
H558 C552 0.930 . S
H559 C556 0.930 . S
C560 C562 1.348 . S
C560 C563 1.356 . S
C560 O590 1.325 . S
N561 C564 1.314 . S
N561 C565 1.279 . S
C562 C560 1.348 . S
C562 C564 1.353 1_655 S
C562 H604 0.929 . S
C563 C560 1.356 . S
C563 C565 1.358 1_655 S
C563 H605 0.930 . S
C564 N561 1.314 . S
C564 C562 1.353 1_455 S
C564 H606 0.930 . S
C565 N561 1.279 . S
C565 C563 1.358 1_455 S
C565 H607 0.930 . S
C566 C567 1.348 . S
C566 C568 1.356 . S
C566 O591 1.325 . S
C567 C566 1.348 . S
C567 C569 1.353 . S
C567 H608 0.929 . S
C568 C566 1.356 . S
C568 C570 1.358 . S
C568 H609 0.930 . S
C569 C567 1.353 . S
C569 N571 1.314 . S
C569 H610 0.930 . S
C570 C568 1.358 . S
C570 N571 1.279 . S
C570 H611 0.930 . S
N571 C569 1.314 . S
N571 C570 1.279 . S
C572 C574 1.353 . S
C572 N575 1.314 . S
C572 H578 0.930 . S
C573 N575 1.279 . S
C573 C576 1.358 1_655 S
C573 H579 0.944 . S
C574 C572 1.353 . S
C574 C577 1.348 1_655 S
C574 H612 0.929 . S
N575 Li530 1.990 . S
N575 C572 1.314 . S
N575 C573 1.279 . S
C576 C573 1.358 1_455 S
C576 C577 1.356 . S
C576 H613 0.930 . S
C577 C574 1.348 1_455 S
C577 C576 1.356 . S
H578 C572 0.930 . S
H579 C573 0.944 . S
C580 N581 1.314 . S
C580 C582 1.353 . S
C580 H586 0.930 . S
N581 Li531 1.990 . S
N581 C580 1.314 . S
N581 C584 1.279 . S
C582 C580 1.353 . S
C582 C585 1.348 . S
C582 H614 0.929 . S
C583 C584 1.358 . S
C583 C585 1.356 . S
C583 H615 0.930 . S
C584 N581 1.279 . S
C584 C583 1.358 . S
C584 H587 0.930 . S
C585 C582 1.348 . S
C585 C583 1.356 . S
H586 C580 0.930 . S
H587 C584 0.930 . S
O588 Li528 1.956 . S
O588 Li529 1.970 . S
O588 Li530 1.961 . S
O588 C532 1.325 . S
O589 Li528 1.970 . S
O589 Li529 1.956 . S
O589 Li531 1.961 . S
O589 C538 1.325 . S
O590 Li528 1.961 . S
O590 Li530 1.956 . S
O590 Li531 1.970 . S
O590 C560 1.325 . S
O591 Li529 1.961 . S
O591 Li530 1.970 . S
O591 Li531 1.956 . S
O591 C566 1.325 . S
H592 C534 0.929 . S
H593 C535 0.930 . S
H594 C536 0.930 . S
H595 C537 0.930 . S
H596 C539 0.930 . S
H597 C541 0.929 . S
H598 C542 0.930 . S
H599 C543 0.930 . S
H600 C546 0.930 . S
H601 C549 0.929 . S
H602 C554 0.929 . S
H603 C555 0.930 . S
H604 C562 0.929 . S
H605 C563 0.930 . S
H606 C564 0.930 . S
H607 C565 0.930 . S
H608 C567 0.929 . S
H609 C568 0.930 . S
H610 C569 0.930 . S
H611 C570 0.930 . S
H612 C574 0.929 . S
H613 C576 0.930 . S
H614 C582 0.929 . S
H615 C583 0.930 . S
Li616 N633 1.990 . S
Li616 O676 1.956 . S
Li616 O677 1.970 . S
Li616 O678 1.961 . S
Li617 N641 1.990 . S
Li617 O676 1.970 . S
Li617 O677 1.956 . S
Li617 O679 1.961 . S
Li618 N663 1.990 . S
Li618 O676 1.961 . S
Li618 O678 1.956 . S
Li618 O679 1.970 . S
Li619 N669 1.990 . S
Li619 O677 1.961 . S
Li619 O678 1.970 . S
Li619 O679 1.956 . S
C620 C622 1.348 . S
C620 C623 1.356 . S
C620 O676 1.325 . S
N621 C624 1.314 . S
N621 C625 1.279 . S
C622 C620 1.348 . S
C622 C624 1.353 . S
C622 H680 0.929 . S
C623 C620 1.356 . S
C623 C625 1.358 . S
C623 H681 0.930 . S
C624 N621 1.314 . S
C624 C622 1.353 . S
C624 H682 0.930 . S
C625 N621 1.279 . S
C625 C623 1.358 . S
C625 H683 0.930 . S
C626 C629 1.348 . S
C626 C630 1.356 . S
C626 O677 1.325 . S
C627 N628 1.279 . S
C627 C630 1.358 . S
C627 H684 0.930 . S
N628 C627 1.279 . S
N628 C631 1.314 . S
C629 C626 1.348 . S
C629 C631 1.353 . S
C629 H685 0.929 . S
C630 C626 1.356 . S
C630 C627 1.358 . S
C630 H686 0.930 . S
C631 N628 1.314 . S
C631 C629 1.353 . S
C631 H687 0.930 . S
C632 N633 1.314 . S
C632 C637 1.353 . S
C632 H638 0.930 . S
N633 Li616 1.990 . S
N633 C632 1.314 . S
N633 C635 1.279 . S
C634 C635 1.358 . S
C634 C636 1.356 . S
C634 H688 0.930 . S
C635 N633 1.279 . S
C635 C634 1.358 . S
C635 H639 0.930 . S
C636 C634 1.356 . S
C636 C637 1.348 . S
C637 C632 1.353 . S
C637 C636 1.348 . S
C637 H689 0.929 . S
H638 C632 0.930 . S
H639 C635 0.930 . S
C640 N641 1.314 . S
C640 C642 1.353 . S
C640 H646 0.930 . S
N641 Li617 1.990 . S
N641 C640 1.314 . S
N641 C644 1.279 . S
C642 C640 1.353 . S
C642 C645 1.348 . S
C642 H690 0.929 . S
C643 C644 1.358 . S
C643 C645 1.356 . S
C643 H691 0.930 . S
C644 N641 1.279 . S
C644 C643 1.358 . S
C644 H647 0.930 . S
C645 C642 1.348 . S
C645 C643 1.356 . S
H646 C640 0.930 . S
H647 C644 0.930 . S
C648 C650 1.348 . S
C648 C651 1.356 . S
C648 O678 1.325 . S
N649 C652 1.314 . S
N649 C653 1.279 . S
C650 C648 1.348 . S
C650 C652 1.353 1_565 S
C650 H692 0.929 . S
C651 C648 1.356 . S
C651 C653 1.358 1_565 S
C651 H693 0.930 . S
C652 N649 1.314 . S
C652 C650 1.353 1_545 S
C652 H694 0.930 . S
C653 N649 1.279 . S
C653 C651 1.358 1_545 S
C653 H695 0.930 . S
C654 C655 1.348 . S
C654 C656 1.356 . S
C654 O679 1.325 . S
C655 C654 1.348 . S
C655 C657 1.353 . S
C655 H696 0.929 . S
C656 C654 1.356 . S
C656 C658 1.358 . S
C656 H697 0.930 . S
C657 C655 1.353 . S
C657 N659 1.314 . S
C657 H698 0.930 . S
C658 C656 1.358 . S
C658 N659 1.279 . S
C658 H699 0.930 . S
N659 C657 1.314 . S
N659 C658 1.279 . S
C660 C662 1.353 . S
C660 N663 1.314 . S
C660 H666 0.930 . S
C661 N663 1.279 . S
C661 C664 1.358 1_565 S
C661 H667 0.944 . S
C662 C660 1.353 . S
C662 C665 1.348 1_565 S
C662 H700 0.929 . S
N663 Li618 1.990 . S
N663 C660 1.314 . S
N663 C661 1.279 . S
C664 C661 1.358 1_545 S
C664 C665 1.356 . S
C664 H701 0.930 . S
C665 C662 1.348 1_545 S
C665 C664 1.356 . S
H666 C660 0.930 . S
H667 C661 0.944 . S
C668 N669 1.314 . S
C668 C670 1.353 . S
C668 H674 0.930 . S
N669 Li619 1.990 . S
N669 C668 1.314 . S
N669 C672 1.279 . S
C670 C668 1.353 . S
C670 C673 1.348 . S
C670 H702 0.929 . S
C671 C672 1.358 . S
C671 C673 1.356 . S
C671 H703 0.930 . S
C672 N669 1.279 . S
C672 C671 1.358 . S
C672 H675 0.930 . S
C673 C670 1.348 . S
C673 C671 1.356 . S
H674 C668 0.930 . S
H675 C672 0.930 . S
O676 Li616 1.956 . S
O676 Li617 1.970 . S
O676 Li618 1.961 . S
O676 C620 1.325 . S
O677 Li616 1.970 . S
O677 Li617 1.956 . S
O677 Li619 1.961 . S
O677 C626 1.325 . S
O678 Li616 1.961 . S
O678 Li618 1.956 . S
O678 Li619 1.970 . S
O678 C648 1.325 . S
O679 Li617 1.961 . S
O679 Li618 1.970 . S
O679 Li619 1.956 . S
O679 C654 1.325 . S
H680 C622 0.929 . S
H681 C623 0.930 . S
H682 C624 0.930 . S
H683 C625 0.930 . S
H684 C627 0.930 . S
H685 C629 0.929 . S
H686 C630 0.930 . S
H687 C631 0.930 . S
H688 C634 0.930 . S
H689 C637 0.929 . S
H690 C642 0.929 . S
H691 C643 0.930 . S
H692 C650 0.929 . S
H693 C651 0.930 . S
H694 C652 0.930 . S
H695 C653 0.930 . S
H696 C655 0.929 . S
H697 C656 0.930 . S
H698 C657 0.930 . S
H699 C658 0.930 . S
H700 C662 0.929 . S
H701 C664 0.930 . S
H702 C670 0.929 . S
H703 C671 0.930 . S
Li704 N721 1.990 . S
Li704 O764 1.956 . S
Li704 O765 1.970 . S
Li704 O766 1.961 . S
Li705 N729 1.990 . S
Li705 O764 1.970 . S
Li705 O765 1.956 . S
Li705 O767 1.961 . S
Li706 N751 1.990 . S
Li706 O764 1.961 . S
Li706 O766 1.956 . S
Li706 O767 1.970 . S
Li707 N757 1.990 . S
Li707 O765 1.961 . S
Li707 O766 1.970 . S
Li707 O767 1.956 . S
C708 C710 1.348 . S
C708 C711 1.356 1_556 S
C708 O764 1.325 . S
N709 C712 1.314 . S
N709 C713 1.279 . S
C710 C708 1.348 . S
C710 C712 1.353 1_556 S
C710 H768 0.929 . S
C711 C708 1.356 1_554 S
C711 C713 1.358 . S
C711 H769 0.930 . S
C712 N709 1.314 . S
C712 C710 1.353 1_554 S
C712 H770 0.930 . S
C713 N709 1.279 . S
C713 C711 1.358 . S
C713 H771 0.930 . S
C714 C717 1.348 . S
C714 C718 1.356 . S
C714 O765 1.325 . S
C715 N716 1.279 . S
C715 C718 1.358 . S
C715 H772 0.930 . S
N716 C715 1.279 . S
N716 C719 1.314 . S
C717 C714 1.348 . S
C717 C719 1.353 . S
C717 H773 0.929 . S
C718 C714 1.356 . S
C718 C715 1.358 . S
C718 H774 0.930 . S
C719 N716 1.314 . S
C719 C717 1.353 . S
C719 H775 0.930 . S
C720 N721 1.314 . S
C720 C725 1.353 . S
C720 H726 0.930 . S
N721 Li704 1.990 . S
N721 C720 1.314 . S
N721 C723 1.279 . S
C722 C723 1.358 . S
C722 C724 1.356 . S
C722 H776 0.930 . S
C723 N721 1.279 . S
C723 C722 1.358 . S
C723 H727 0.930 . S
C724 C722 1.356 . S
C724 C725 1.348 . S
C725 C720 1.353 . S
C725 C724 1.348 . S
C725 H777 0.929 . S
H726 C720 0.930 . S
H727 C723 0.930 . S
C728 N729 1.314 . S
C728 C730 1.353 . S
C728 H734 0.930 . S
N729 Li705 1.990 . S
N729 C728 1.314 . S
N729 C732 1.279 . S
C730 C728 1.353 . S
C730 C733 1.348 . S
C730 H778 0.929 . S
C731 C732 1.358 . S
C731 C733 1.356 . S
C731 H779 0.930 . S
C732 N729 1.279 . S
C732 C731 1.358 . S
C732 H735 0.930 . S
C733 C730 1.348 . S
C733 C731 1.356 . S
H734 C728 0.930 . S
H735 C732 0.930 . S
C736 C738 1.348 . S
C736 C739 1.356 . S
C736 O766 1.325 . S
N737 C740 1.314 . S
N737 C741 1.279 . S
C738 C736 1.348 . S
C738 C740 1.353 . S
C738 H780 0.929 . S
C739 C736 1.356 . S
C739 C741 1.358 . S
C739 H781 0.930 . S
C740 N737 1.314 . S
C740 C738 1.353 . S
C740 H782 0.930 . S
C741 N737 1.279 . S
C741 C739 1.358 . S
C741 H783 0.930 . S
C742 C743 1.348 . S
C742 C744 1.356 . S
C742 O767 1.325 . S
C743 C742 1.348 . S
C743 C745 1.353 . S
C743 H784 0.929 . S
C744 C742 1.356 . S
C744 C746 1.358 . S
C744 H785 0.930 . S
C745 C743 1.353 . S
C745 N747 1.314 . S
C745 H786 0.930 . S
C746 C744 1.358 . S
C746 N747 1.279 . S
C746 H787 0.930 . S
N747 C745 1.314 . S
N747 C746 1.279 . S
C748 C750 1.353 1_556 S
C748 N751 1.314 . S
C748 H754 0.930 . S
C749 N751 1.279 . S
C749 C752 1.358 . S
C749 H755 0.930 . S
C750 C748 1.353 1_554 S
C750 C753 1.348 1_554 S
C750 H788 0.929 . S
N751 Li706 1.990 . S
N751 C748 1.314 . S
N751 C749 1.279 . S
C752 C749 1.358 . S
C752 C753 1.356 . S
C752 H789 0.930 . S
C753 C750 1.348 1_556 S
C753 C752 1.356 . S
H754 C748 0.930 . S
H755 C749 0.930 . S
C756 N757 1.314 . S
C756 C758 1.353 . S
C756 H762 0.930 . S
N757 Li707 1.990 . S
N757 C756 1.314 . S
N757 C760 1.279 . S
C758 C756 1.353 . S
C758 C761 1.348 . S
C758 H790 0.929 . S
C759 C760 1.358 . S
C759 C761 1.356 . S
C759 H791 0.930 . S
C760 N757 1.279 . S
C760 C759 1.358 . S
C760 H763 0.930 . S
C761 C758 1.348 . S
C761 C759 1.356 . S
H762 C756 0.930 . S
H763 C760 0.930 . S
O764 Li704 1.956 . S
O764 Li705 1.970 . S
O764 Li706 1.961 . S
O764 C708 1.325 . S
O765 Li704 1.970 . S
O765 Li705 1.956 . S
O765 Li707 1.961 . S
O765 C714 1.325 . S
O766 Li704 1.961 . S
O766 Li706 1.956 . S
O766 Li707 1.970 . S
O766 C736 1.325 . S
O767 Li705 1.961 . S
O767 Li706 1.970 . S
O767 Li707 1.956 . S
O767 C742 1.325 . S
H768 C710 0.929 . S
H769 C711 0.930 . S
H770 C712 0.930 . S
H771 C713 0.930 . S
H772 C715 0.930 . S
H773 C717 0.929 . S
H774 C718 0.930 . S
H775 C719 0.930 . S
H776 C722 0.930 . S
H777 C725 0.929 . S
H778 C730 0.929 . S
H779 C731 0.930 . S
H780 C738 0.929 . S
H781 C739 0.930 . S
H782 C740 0.930 . S
H783 C741 0.930 . S
H784 C743 0.929 . S
H785 C744 0.930 . S
H786 C745 0.930 . S
H787 C746 0.930 . S
H788 C750 0.929 . S
H789 C752 0.930 . S
H790 C758 0.929 . S
H791 C759 0.930 . S
Li792 N809 1.990 . S
Li792 O852 1.956 . S
Li792 O853 1.970 . S
Li792 O854 1.961 . S
Li793 N817 1.990 . S
Li793 O852 1.970 . S
Li793 O853 1.956 . S
Li793 O855 1.961 . S
Li794 N839 1.990 . S
Li794 O852 1.961 . S
Li794 O854 1.956 . S
Li794 O855 1.970 . S
Li795 N845 1.990 . S
Li795 O853 1.961 . S
Li795 O854 1.970 . S
Li795 O855 1.956 . S
C796 C798 1.348 . S
C796 C799 1.356 . S
C796 O852 1.325 . S
N797 C800 1.314 . S
N797 C801 1.279 . S
C798 C796 1.348 . S
C798 C800 1.353 . S
C798 H856 0.929 . S
C799 C796 1.356 . S
C799 C801 1.358 . S
C799 H857 0.930 . S
C800 N797 1.314 . S
C800 C798 1.353 . S
C800 H858 0.930 . S
C801 N797 1.279 . S
C801 C799 1.358 . S
C801 H859 0.930 . S
C802 C805 1.348 . S
C802 C806 1.356 1_556 S
C802 O853 1.325 . S
C803 N804 1.279 . S
C803 C806 1.358 . S
C803 H860 0.930 . S
N804 C803 1.279 . S
N804 C807 1.314 . S
C805 C802 1.348 . S
C805 C807 1.353 1_556 S
C805 H861 0.929 . S
C806 C802 1.356 1_554 S
C806 C803 1.358 . S
C806 H862 0.930 . S
C807 N804 1.314 . S
C807 C805 1.353 1_554 S
C807 H863 0.930 . S
C808 N809 1.314 . S
C808 C813 1.353 . S
C808 H814 0.930 . S
N809 Li792 1.990 . S
N809 C808 1.314 . S
N809 C811 1.279 . S
C810 C811 1.358 . S
C810 C812 1.356 . S
C810 H864 0.930 . S
C811 N809 1.279 . S
C811 C810 1.358 . S
C811 H815 0.930 . S
C812 C810 1.356 . S
C812 C813 1.348 . S
C813 C808 1.353 . S
C813 C812 1.348 . S
C813 H865 0.929 . S
H814 C808 0.930 . S
H815 C811 0.930 . S
C816 N817 1.314 . S
C816 C818 1.353 . S
C816 H822 0.930 . S
N817 Li793 1.990 . S
N817 C816 1.314 . S
N817 C820 1.279 . S
C818 C816 1.353 . S
C818 C821 1.348 . S
C818 H866 0.929 . S
C819 C820 1.358 . S
C819 C821 1.356 . S
C819 H867 0.930 . S
C820 N817 1.279 . S
C820 C819 1.358 . S
C820 H823 0.930 . S
C821 C818 1.348 . S
C821 C819 1.356 . S
H822 C816 0.930 . S
H823 C820 0.930 . S
C824 C826 1.348 . S
C824 C827 1.356 . S
C824 O854 1.325 . S
N825 C828 1.314 . S
N825 C829 1.279 . S
C826 C824 1.348 . S
C826 C828 1.353 . S
C826 H868 0.929 . S
C827 C824 1.356 . S
C827 C829 1.358 . S
C827 H869 0.930 . S
C828 N825 1.314 . S
C828 C826 1.353 . S
C828 H870 0.930 . S
C829 N825 1.279 . S
C829 C827 1.358 . S
C829 H871 0.930 . S
C830 C831 1.348 . S
C830 C832 1.356 . S
C830 O855 1.325 . S
C831 C830 1.348 . S
C831 C833 1.353 . S
C831 H872 0.929 . S
C832 C830 1.356 . S
C832 C834 1.358 . S
C832 H873 0.930 . S
C833 C831 1.353 . S
C833 N835 1.314 . S
C833 H874 0.930 . S
C834 C832 1.358 . S
C834 N835 1.279 . S
C834 H875 0.930 . S
N835 C833 1.314 . S
N835 C834 1.279 . S
C836 C838 1.353 . S
C836 N839 1.314 . S
C836 H842 0.930 . S
C837 N839 1.279 . S
C837 C840 1.358 . S
C837 H843 0.930 . S
C838 C836 1.353 . S
C838 C841 1.348 . S
C838 H876 0.929 . S
N839 Li794 1.990 . S
N839 C836 1.314 . S
N839 C837 1.279 . S
C840 C837 1.358 . S
C840 C841 1.356 . S
C840 H877 0.930 . S
C841 C838 1.348 . S
C841 C840 1.356 . S
H842 C836 0.930 . S
H843 C837 0.930 . S
C844 N845 1.314 . S
C844 C846 1.353 1_556 S
C844 H850 0.930 . S
N845 Li795 1.990 . S
N845 C844 1.314 . S
N845 C848 1.279 . S
C846 C844 1.353 1_554 S
C846 C849 1.348 1_554 S
C846 H878 0.929 . S
C847 C848 1.358 . S
C847 C849 1.356 . S
C847 H879 0.930 . S
C848 N845 1.279 . S
C848 C847 1.358 . S
C848 H851 0.930 . S
C849 C846 1.348 1_556 S
C849 C847 1.356 . S
H850 C844 0.930 . S
H851 C848 0.930 . S
O852 Li792 1.956 . S
O852 Li793 1.970 . S
O852 Li794 1.961 . S
O852 C796 1.325 . S
O853 Li792 1.970 . S
O853 Li793 1.956 . S
O853 Li795 1.961 . S
O853 C802 1.325 . S
O854 Li792 1.961 . S
O854 Li794 1.956 . S
O854 Li795 1.970 . S
O854 C824 1.325 . S
O855 Li793 1.961 . S
O855 Li794 1.970 . S
O855 Li795 1.956 . S
O855 C830 1.325 . S
H856 C798 0.929 . S
H857 C799 0.930 . S
H858 C800 0.930 . S
H859 C801 0.930 . S
H860 C803 0.930 . S
H861 C805 0.929 . S
H862 C806 0.930 . S
H863 C807 0.930 . S
H864 C810 0.930 . S
H865 C813 0.929 . S
H866 C818 0.929 . S
H867 C819 0.930 . S
H868 C826 0.929 . S
H869 C827 0.930 . S
H870 C828 0.930 . S
H871 C829 0.930 . S
H872 C831 0.929 . S
H873 C832 0.930 . S
H874 C833 0.930 . S
H875 C834 0.930 . S
H876 C838 0.929 . S
H877 C840 0.930 . S
H878 C846 0.929 . S
H879 C847 0.930 . S
Li880 N897 1.990 . S
Li880 O940 1.956 . S
Li880 O941 1.970 . S
Li880 O942 1.961 . S
Li881 N905 1.990 . S
Li881 O940 1.970 . S
Li881 O941 1.956 . S
Li881 O943 1.961 . S
Li882 N927 1.990 . S
Li882 O940 1.961 . S
Li882 O942 1.956 . S
Li882 O943 1.970 . S
Li883 N933 1.990 . S
Li883 O941 1.961 . S
Li883 O942 1.970 . S
Li883 O943 1.956 . S
C884 C886 1.348 . S
C884 C887 1.356 . S
C884 O940 1.325 . S
N885 C888 1.314 . S
N885 C889 1.279 . S
C886 C884 1.348 . S
C886 C888 1.353 . S
C886 H944 0.929 . S
C887 C884 1.356 . S
C887 C889 1.358 . S
C887 H945 0.930 . S
C888 N885 1.314 . S
C888 C886 1.353 . S
C888 H946 0.930 . S
C889 N885 1.279 . S
C889 C887 1.358 . S
C889 H947 0.930 . S
C890 C893 1.348 . S
C890 C894 1.356 . S
C890 O941 1.325 . S
C891 N892 1.279 . S
C891 C894 1.358 1_655 S
C891 H948 0.930 . S
N892 C891 1.279 . S
N892 C895 1.314 . S
C893 C890 1.348 . S
C893 C895 1.353 1_455 S
C893 H949 0.929 . S
C894 C890 1.356 . S
C894 C891 1.358 1_455 S
C894 H950 0.930 . S
C895 N892 1.314 . S
C895 C893 1.353 1_655 S
C895 H951 0.930 . S
C896 N897 1.314 . S
C896 C901 1.353 . S
C896 H902 0.930 . S
N897 Li880 1.990 . S
N897 C896 1.314 . S
N897 C899 1.279 . S
C898 C899 1.358 . S
C898 C900 1.356 . S
C898 H952 0.930 . S
C899 N897 1.279 . S
C899 C898 1.358 . S
C899 H903 0.930 . S
C900 C898 1.356 . S
C900 C901 1.348 . S
C901 C896 1.353 . S
C901 C900 1.348 . S
C901 H953 0.929 . S
H902 C896 0.930 . S
H903 C899 0.930 . S
C904 N905 1.314 . S
C904 C906 1.353 1_556 S
C904 H910 0.930 . S
N905 Li881 1.990 . S
N905 C904 1.314 . S
N905 C908 1.279 . S
C906 C904 1.353 1_554 S
C906 C909 1.348 1_554 S
C906 H954 0.929 . S
C907 C908 1.358 . S
C907 C909 1.356 . S
C907 H955 0.930 . S
C908 N905 1.279 . S
C908 C907 1.358 . S
C908 H911 0.930 . S
C909 C906 1.348 1_556 S
C909 C907 1.356 . S
H910 C904 0.930 . S
H911 C908 0.930 . S
C912 C914 1.348 . S
C912 C915 1.356 . S
C912 O942 1.325 . S
N913 C916 1.314 . S
N913 C917 1.279 . S
C914 C912 1.348 . S
C914 C916 1.353 . S
C914 H956 0.929 . S
C915 C912 1.356 . S
C915 C917 1.358 . S
C915 H957 0.930 . S
C916 N913 1.314 . S
C916 C914 1.353 . S
C916 H958 0.930 . S
C917 N913 1.279 . S
C917 C915 1.358 . S
C917 H959 0.930 . S
C918 C919 1.348 . S
C918 C920 1.356 1_556 S
C918 O943 1.325 . S
C919 C918 1.348 . S
C919 C921 1.353 1_556 S
C919 H960 0.929 . S
C920 C918 1.356 1_554 S
C920 C922 1.358 . S
C920 H961 0.930 . S
C921 C919 1.353 1_554 S
C921 N923 1.314 . S
C921 H962 0.930 . S
C922 C920 1.358 . S
C922 N923 1.279 . S
C922 H963 0.930 . S
N923 C921 1.314 . S
N923 C922 1.279 . S
C924 C926 1.353 . S
C924 N927 1.314 . S
C924 H930 0.930 . S
C925 N927 1.279 . S
C925 C928 1.358 . S
C925 H931 0.930 . S
C926 C924 1.353 . S
C926 C929 1.348 . S
C926 H964 0.929 . S
N927 Li882 1.990 . S
N927 C924 1.314 . S
N927 C925 1.279 . S
C928 C925 1.358 . S
C928 C929 1.356 . S
C928 H965 0.930 . S
C929 C926 1.348 . S
C929 C928 1.356 . S
H930 C924 0.930 . S
H931 C925 0.930 . S
C932 N933 1.314 . S
C932 C934 1.353 1_455 S
C932 H938 0.930 . S
N933 Li883 1.990 . S
N933 C932 1.314 . S
N933 C936 1.279 . S
C934 C932 1.353 1_655 S
C934 C937 1.348 . S
C934 H966 0.929 . S
C935 C936 1.358 . S
C935 C937 1.356 1_455 S
C935 H967 0.930 . S
C936 N933 1.279 . S
C936 C935 1.358 . S
C936 H939 0.930 . S
C937 C934 1.348 . S
C937 C935 1.356 1_655 S
H938 C932 0.930 . S
H939 C936 0.930 . S
O940 Li880 1.956 . S
O940 Li881 1.970 . S
O940 Li882 1.961 . S
O940 C884 1.325 . S
O941 Li880 1.970 . S
O941 Li881 1.956 . S
O941 Li883 1.961 . S
O941 C890 1.325 . S
O942 Li880 1.961 . S
O942 Li882 1.956 . S
O942 Li883 1.970 . S
O942 C912 1.325 . S
O943 Li881 1.961 . S
O943 Li882 1.970 . S
O943 Li883 1.956 . S
O943 C918 1.325 . S
H944 C886 0.929 . S
H945 C887 0.930 . S
H946 C888 0.930 . S
H947 C889 0.930 . S
H948 C891 0.930 . S
H949 C893 0.929 . S
H950 C894 0.930 . S
H951 C895 0.930 . S
H952 C898 0.930 . S
H953 C901 0.929 . S
H954 C906 0.929 . S
H955 C907 0.930 . S
H956 C914 0.929 . S
H957 C915 0.930 . S
H958 C916 0.930 . S
H959 C917 0.930 . S
H960 C919 0.929 . S
H961 C920 0.930 . S
H962 C921 0.930 . S
H963 C922 0.930 . S
H964 C926 0.929 . S
H965 C928 0.930 . S
H966 C934 0.929 . S
H967 C935 0.930 . S
Li968 N985 1.990 . S
Li968 O1028 1.956 . S
Li968 O1029 1.970 . S
Li968 O1030 1.961 . S
Li969 N993 1.990 . S
Li969 O1028 1.970 . S
Li969 O1029 1.956 . S
Li969 O1031 1.961 . S
Li970 N1015 1.990 . S
Li970 O1028 1.961 . S
Li970 O1030 1.956 . S
Li970 O1031 1.970 . S
Li971 N1021 1.990 . S
Li971 O1029 1.961 . S
Li971 O1030 1.970 . S
Li971 O1031 1.956 . S
C972 C974 1.348 . S
C972 C975 1.356 . S
C972 O1028 1.325 . S
N973 C976 1.314 . S
N973 C977 1.279 . S
C974 C972 1.348 . S
C974 C976 1.353 . S
C974 H1032 0.929 . S
C975 C972 1.356 . S
C975 C977 1.358 . S
C975 H1033 0.930 . S
C976 N973 1.314 . S
C976 C974 1.353 . S
C976 H1034 0.930 . S
C977 N973 1.279 . S
C977 C975 1.358 . S
C977 H1035 0.930 . S
C978 C981 1.348 . S
C978 C982 1.356 1_556 S
C978 O1029 1.325 . S
C979 N980 1.279 . S
C979 C982 1.358 . S
C979 H1036 0.930 . S
N980 C979 1.279 . S
N980 C983 1.314 . S
C981 C978 1.348 . S
C981 C983 1.353 1_556 S
C981 H1037 0.929 . S
C982 C978 1.356 1_554 S
C982 C979 1.358 . S
C982 H1038 0.930 . S
C983 N980 1.314 . S
C983 C981 1.353 1_554 S
C983 H1039 0.930 . S
C984 N985 1.314 . S
C984 C989 1.353 . S
C984 H990 0.930 . S
N985 Li968 1.990 . S
N985 C984 1.314 . S
N985 C987 1.279 . S
C986 C987 1.358 . S
C986 C988 1.356 . S
C986 H1040 0.930 . S
C987 N985 1.279 . S
C987 C986 1.358 . S
C987 H991 0.930 . S
C988 C986 1.356 . S
C988 C989 1.348 . S
C989 C984 1.353 . S
C989 C988 1.348 . S
C989 H1041 0.929 . S
H990 C984 0.930 . S
H991 C987 0.930 . S
C992 N993 1.314 . S
C992 C994 1.353 1_545 S
C992 H998 0.930 . S
N993 Li969 1.990 . S
N993 C992 1.314 . S
N993 C996 1.279 . S
C994 C992 1.353 1_565 S
C994 C997 1.348 . S
C994 H1042 0.929 . S
C995 C996 1.358 . S
C995 C997 1.356 1_545 S
C995 H1043 0.930 . S
C996 N993 1.279 . S
C996 C995 1.358 . S
C996 H999 0.930 . S
C997 C994 1.348 . S
C997 C995 1.356 1_565 S
H998 C992 0.930 . S
H999 C996 0.930 . S
C1000 C1002 1.348 . S
C1000 C1003 1.356 . S
C1000 O1030 1.325 . S
N1001 C1004 1.314 . S
N1001 C1005 1.279 . S
C1002 C1000 1.348 . S
C1002 C1004 1.353 . S
C1002 H1044 0.929 . S
C1003 C1000 1.356 . S
C1003 C1005 1.358 . S
C1003 H1045 0.930 . S
C1004 N1001 1.314 . S
C1004 C1002 1.353 . S
C1004 H1046 0.930 . S
C1005 N1001 1.279 . S
C1005 C1003 1.358 . S
C1005 H1047 0.930 . S
C1006 C1007 1.348 . S
C1006 C1008 1.356 . S
C1006 O1031 1.325 . S
C1007 C1006 1.348 . S
C1007 C1009 1.353 1_545 S
C1007 H1048 0.929 . S
C1008 C1006 1.356 . S
C1008 C1010 1.358 1_545 S
C1008 H1049 0.930 . S
C1009 C1007 1.353 1_565 S
C1009 N1011 1.314 . S
C1009 H1050 0.930 . S
C1010 C1008 1.358 1_565 S
C1010 N1011 1.279 . S
C1010 H1051 0.930 . S
N1011 C1009 1.314 . S
N1011 C1010 1.279 . S
C1012 C1014 1.353 . S
C1012 N1015 1.314 . S
C1012 H1018 0.930 . S
C1013 N1015 1.279 . S
C1013 C1016 1.358 . S
C1013 H1019 0.930 . S
C1014 C1012 1.353 . S
C1014 C1017 1.348 . S
C1014 H1052 0.929 . S
N1015 Li970 1.990 . S
N1015 C1012 1.314 . S
N1015 C1013 1.279 . S
C1016 C1013 1.358 . S
C1016 C1017 1.356 . S
C1016 H1053 0.930 . S
C1017 C1014 1.348 . S
C1017 C1016 1.356 . S
H1018 C1012 0.930 . S
H1019 C1013 0.930 . S
C1020 N1021 1.314 . S
C1020 C1022 1.353 1_556 S
C1020 H1026 0.930 . S
N1021 Li971 1.990 . S
N1021 C1020 1.314 . S
N1021 C1024 1.279 . S
C1022 C1020 1.353 1_554 S
C1022 C1025 1.348 1_554 S
C1022 H1054 0.929 . S
C1023 C1024 1.358 . S
C1023 C1025 1.356 . S
C1023 H1055 0.930 . S
C1024 N1021 1.279 . S
C1024 C1023 1.358 . S
C1024 H1027 0.930 . S
C1025 C1022 1.348 1_556 S
C1025 C1023 1.356 . S
H1026 C1020 0.930 . S
H1027 C1024 0.930 . S
O1028 Li968 1.956 . S
O1028 Li969 1.970 . S
O1028 Li970 1.961 . S
O1028 C972 1.325 . S
O1029 Li968 1.970 . S
O1029 Li969 1.956 . S
O1029 Li971 1.961 . S
O1029 C978 1.325 . S
O1030 Li968 1.961 . S
O1030 Li970 1.956 . S
O1030 Li971 1.970 . S
O1030 C1000 1.325 . S
O1031 Li969 1.961 . S
O1031 Li970 1.970 . S
O1031 Li971 1.956 . S
O1031 C1006 1.325 . S
H1032 C974 0.929 . S
H1033 C975 0.930 . S
H1034 C976 0.930 . S
H1035 C977 0.930 . S
H1036 C979 0.930 . S
H1037 C981 0.929 . S
H1038 C982 0.930 . S
H1039 C983 0.930 . S
H1040 C986 0.930 . S
H1041 C989 0.929 . S
H1042 C994 0.929 . S
H1043 C995 0.930 . S
H1044 C1002 0.929 . S
H1045 C1003 0.930 . S
H1046 C1004 0.930 . S
H1047 C1005 0.930 . S
H1048 C1007 0.929 . S
H1049 C1008 0.930 . S
H1050 C1009 0.930 . S
H1051 C1010 0.930 . S
H1052 C1014 0.929 . S
H1053 C1016 0.930 . S
H1054 C1022 0.929 . S
H1055 C1023 0.930 . S
Li1056 N1073 1.990 . S
Li1056 O1116 1.956 . S
Li1056 O1117 1.970 . S
Li1056 O1118 1.961 . S
Li1057 N1081 1.990 . S
Li1057 O1116 1.970 . S
Li1057 O1117 1.956 . S
Li1057 O1119 1.961 . S
Li1058 N1103 1.990 . S
Li1058 O1116 1.961 . S
Li1058 O1118 1.956 . S
Li1058 O1119 1.970 . S
Li1059 N1109 1.990 . S
Li1059 O1117 1.961 . S
Li1059 O1118 1.970 . S
Li1059 O1119 1.956 . S
C1060 C1062 1.348 . S
C1060 C1063 1.356 . S
C1060 O1116 1.325 . S
N1061 C1064 1.314 . S
N1061 C1065 1.279 . S
C1062 C1060 1.348 . S
C1062 C1064 1.353 . S
C1062 H1120 0.929 . S
C1063 C1060 1.356 . S
C1063 C1065 1.358 . S
C1063 H1121 0.930 . S
C1064 N1061 1.314 . S
C1064 C1062 1.353 . S
C1064 H1122 0.930 . S
C1065 N1061 1.279 . S
C1065 C1063 1.358 . S
C1065 H1123 0.930 . S
C1066 C1069 1.348 . S
C1066 C1070 1.356 . S
C1066 O1117 1.325 . S
C1067 N1068 1.279 . S
C1067 C1070 1.358 . S
C1067 H1124 0.930 . S
N1068 C1067 1.279 . S
N1068 C1071 1.314 . S
C1069 C1066 1.348 . S
C1069 C1071 1.353 . S
C1069 H1125 0.929 . S
C1070 C1066 1.356 . S
C1070 C1067 1.358 . S
C1070 H1126 0.930 . S
C1071 N1068 1.314 . S
C1071 C1069 1.353 . S
C1071 H1127 0.930 . S
C1072 N1073 1.314 . S
C1072 C1077 1.353 . S
C1072 H1078 0.930 . S
N1073 Li1056 1.990 . S
N1073 C1072 1.314 . S
N1073 C1075 1.279 . S
C1074 C1075 1.358 . S
C1074 C1076 1.356 . S
C1074 H1128 0.930 . S
C1075 N1073 1.279 . S
C1075 C1074 1.358 . S
C1075 H1079 0.930 . S
C1076 C1074 1.356 . S
C1076 C1077 1.348 . S
C1077 C1072 1.353 . S
C1077 C1076 1.348 . S
C1077 H1129 0.929 . S
H1078 C1072 0.930 . S
H1079 C1075 0.930 . S
C1080 N1081 1.314 . S
C1080 C1082 1.353 . S
C1080 H1086 0.930 . S
N1081 Li1057 1.990 . S
N1081 C1080 1.314 . S
N1081 C1084 1.279 . S
C1082 C1080 1.353 . S
C1082 C1085 1.348 . S
C1082 H1130 0.929 . S
C1083 C1084 1.358 . S
C1083 C1085 1.356 . S
C1083 H1131 0.930 . S
C1084 N1081 1.279 . S
C1084 C1083 1.358 . S
C1084 H1087 0.930 . S
C1085 C1082 1.348 . S
C1085 C1083 1.356 . S
H1086 C1080 0.930 . S
H1087 C1084 0.930 . S
C1088 C1090 1.348 . S
C1088 C1091 1.356 . S
C1088 O1118 1.325 . S
N1089 C1092 1.314 . S
N1089 C1093 1.279 . S
C1090 C1088 1.348 . S
C1090 C1092 1.353 . S
C1090 H1132 0.929 . S
C1091 C1088 1.356 . S
C1091 C1093 1.358 . S
C1091 H1133 0.930 . S
C1092 N1089 1.314 . S
C1092 C1090 1.353 . S
C1092 H1134 0.930 . S
C1093 N1089 1.279 . S
C1093 C1091 1.358 . S
C1093 H1135 0.930 . S
C1094 C1095 1.348 . S
C1094 C1096 1.356 . S
C1094 O1119 1.325 . S
C1095 C1094 1.348 . S
C1095 C1097 1.353 . S
C1095 H1136 0.929 . S
C1096 C1094 1.356 . S
C1096 C1098 1.358 . S
C1096 H1137 0.930 . S
C1097 C1095 1.353 . S
C1097 N1099 1.314 . S
C1097 H1138 0.930 . S
C1098 C1096 1.358 . S
C1098 N1099 1.279 . S
C1098 H1139 0.930 . S
N1099 C1097 1.314 . S
N1099 C1098 1.279 . S
C1100 C1102 1.353 . S
C1100 N1103 1.314 . S
C1100 H1106 0.930 . S
C1101 N1103 1.279 . S
C1101 C1104 1.358 . S
C1101 H1107 0.930 . S
C1102 C1100 1.353 . S
C1102 C1105 1.348 . S
C1102 H1140 0.929 . S
N1103 Li1058 1.990 . S
N1103 C1100 1.314 . S
N1103 C1101 1.279 . S
C1104 C1101 1.358 . S
C1104 C1105 1.356 . S
C1104 H1141 0.930 . S
C1105 C1102 1.348 . S
C1105 C1104 1.356 . S
H1106 C1100 0.930 . S
H1107 C1101 0.930 . S
C1108 N1109 1.314 . S
C1108 C1110 1.353 . S
C1108 H1114 0.930 . S
N1109 Li1059 1.990 . S
N1109 C1108 1.314 . S
N1109 C1112 1.279 . S
C1110 C1108 1.353 . S
C1110 C1113 1.348 . S
C1110 H1142 0.929 . S
C1111 C1112 1.358 . S
C1111 C1113 1.356 . S
C1111 H1143 0.930 . S
C1112 N1109 1.279 . S
C1112 C1111 1.358 . S
C1112 H1115 0.930 . S
C1113 C1110 1.348 . S
C1113 C1111 1.356 . S
H1114 C1108 0.930 . S
H1115 C1112 0.930 . S
O1116 Li1056 1.956 . S
O1116 Li1057 1.970 . S
O1116 Li1058 1.961 . S
O1116 C1060 1.325 . S
O1117 Li1056 1.970 . S
O1117 Li1057 1.956 . S
O1117 Li1059 1.961 . S
O1117 C1066 1.325 . S
O1118 Li1056 1.961 . S
O1118 Li1058 1.956 . S
O1118 Li1059 1.970 . S
O1118 C1088 1.325 . S
O1119 Li1057 1.961 . S
O1119 Li1058 1.970 . S
O1119 Li1059 1.956 . S
O1119 C1094 1.325 . S
H1120 C1062 0.929 . S
H1121 C1063 0.930 . S
H1122 C1064 0.930 . S
H1123 C1065 0.930 . S
H1124 C1067 0.930 . S
H1125 C1069 0.929 . S
H1126 C1070 0.930 . S
H1127 C1071 0.930 . S
H1128 C1074 0.930 . S
H1129 C1077 0.929 . S
H1130 C1082 0.929 . S
H1131 C1083 0.930 . S
H1132 C1090 0.929 . S
H1133 C1091 0.930 . S
H1134 C1092 0.930 . S
H1135 C1093 0.930 . S
H1136 C1095 0.929 . S
H1137 C1096 0.930 . S
H1138 C1097 0.930 . S
H1139 C1098 0.930 . S
H1140 C1102 0.929 . S
H1141 C1104 0.930 . S
H1142 C1110 0.929 . S
H1143 C1111 0.930 . S
Li1144 N1161 1.990 . S
Li1144 O1204 1.956 . S
Li1144 O1205 1.970 . S
Li1144 O1206 1.961 . S
Li1145 N1169 1.990 . S
Li1145 O1204 1.970 . S
Li1145 O1205 1.956 . S
Li1145 O1207 1.961 . S
Li1146 N1191 1.990 . S
Li1146 O1204 1.961 . S
Li1146 O1206 1.956 . S
Li1146 O1207 1.970 . S
Li1147 N1197 1.990 . S
Li1147 O1205 1.961 . S
Li1147 O1206 1.970 . S
Li1147 O1207 1.956 . S
C1148 C1150 1.348 . S
C1148 C1151 1.356 . S
C1148 O1204 1.325 . S
N1149 C1152 1.314 . S
N1149 C1153 1.279 . S
C1150 C1148 1.348 . S
C1150 C1152 1.353 . S
C1150 H1208 0.929 . S
C1151 C1148 1.356 . S
C1151 C1153 1.358 . S
C1151 H1209 0.930 . S
C1152 N1149 1.314 . S
C1152 C1150 1.353 . S
C1152 H1210 0.930 . S
C1153 N1149 1.279 . S
C1153 C1151 1.358 . S
C1153 H1211 0.930 . S
C1154 C1157 1.348 . S
C1154 C1158 1.356 . S
C1154 O1205 1.325 . S
C1155 N1156 1.279 . S
C1155 C1158 1.358 . S
C1155 H1212 0.930 . S
N1156 C1155 1.279 . S
N1156 C1159 1.314 . S
C1157 C1154 1.348 . S
C1157 C1159 1.353 . S
C1157 H1213 0.929 . S
C1158 C1154 1.356 . S
C1158 C1155 1.358 . S
C1158 H1214 0.930 . S
C1159 N1156 1.314 . S
C1159 C1157 1.353 . S
C1159 H1215 0.930 . S
C1160 N1161 1.314 . S
C1160 C1165 1.353 . S
C1160 H1166 0.930 . S
N1161 Li1144 1.990 . S
N1161 C1160 1.314 . S
N1161 C1163 1.279 . S
C1162 C1163 1.358 . S
C1162 C1164 1.356 . S
C1162 H1216 0.930 . S
C1163 N1161 1.279 . S
C1163 C1162 1.358 . S
C1163 H1167 0.930 . S
C1164 C1162 1.356 . S
C1164 C1165 1.348 . S
C1165 C1160 1.353 . S
C1165 C1164 1.348 . S
C1165 H1217 0.929 . S
H1166 C1160 0.930 . S
H1167 C1163 0.930 . S
C1168 N1169 1.314 . S
C1168 C1170 1.353 . S
C1168 H1174 0.930 . S
N1169 Li1145 1.990 . S
N1169 C1168 1.314 . S
N1169 C1172 1.279 . S
C1170 C1168 1.353 . S
C1170 C1173 1.348 . S
C1170 H1218 0.929 . S
C1171 C1172 1.358 . S
C1171 C1173 1.356 . S
C1171 H1219 0.930 . S
C1172 N1169 1.279 . S
C1172 C1171 1.358 . S
C1172 H1175 0.930 . S
C1173 C1170 1.348 . S
C1173 C1171 1.356 . S
H1174 C1168 0.930 . S
H1175 C1172 0.930 . S
C1176 C1178 1.348 . S
C1176 C1179 1.356 . S
C1176 O1206 1.325 . S
N1177 C1180 1.314 . S
N1177 C1181 1.279 . S
C1178 C1176 1.348 . S
C1178 C1180 1.353 . S
C1178 H1220 0.929 . S
C1179 C1176 1.356 . S
C1179 C1181 1.358 . S
C1179 H1221 0.930 . S
C1180 N1177 1.314 . S
C1180 C1178 1.353 . S
C1180 H1222 0.930 . S
C1181 N1177 1.279 . S
C1181 C1179 1.358 . S
C1181 H1223 0.930 . S
C1182 C1183 1.348 . S
C1182 C1184 1.356 . S
C1182 O1207 1.325 . S
C1183 C1182 1.348 . S
C1183 C1185 1.353 . S
C1183 H1224 0.929 . S
C1184 C1182 1.356 . S
C1184 C1186 1.358 . S
C1184 H1225 0.930 . S
C1185 C1183 1.353 . S
C1185 N1187 1.314 . S
C1185 H1226 0.930 . S
C1186 C1184 1.358 . S
C1186 N1187 1.279 . S
C1186 H1227 0.930 . S
N1187 C1185 1.314 . S
N1187 C1186 1.279 . S
C1188 C1190 1.353 . S
C1188 N1191 1.314 . S
C1188 H1194 0.930 . S
C1189 N1191 1.279 . S
C1189 C1192 1.358 . S
C1189 H1195 0.930 . S
C1190 C1188 1.353 . S
C1190 C1193 1.348 . S
C1190 H1228 0.929 . S
N1191 Li1146 1.990 . S
N1191 C1188 1.314 . S
N1191 C1189 1.279 . S
C1192 C1189 1.358 . S
C1192 C1193 1.356 . S
C1192 H1229 0.930 . S
C1193 C1190 1.348 . S
C1193 C1192 1.356 . S
H1194 C1188 0.930 . S
H1195 C1189 0.930 . S
C1196 N1197 1.314 . S
C1196 C1198 1.353 . S
C1196 H1202 0.930 . S
N1197 Li1147 1.990 . S
N1197 C1196 1.314 . S
N1197 C1200 1.279 . S
C1198 C1196 1.353 . S
C1198 C1201 1.348 . S
C1198 H1230 0.929 . S
C1199 C1200 1.358 . S
C1199 C1201 1.356 . S
C1199 H1231 0.930 . S
C1200 N1197 1.279 . S
C1200 C1199 1.358 . S
C1200 H1203 0.930 . S
C1201 C1198 1.348 . S
C1201 C1199 1.356 . S
H1202 C1196 0.930 . S
H1203 C1200 0.930 . S
O1204 Li1144 1.956 . S
O1204 Li1145 1.970 . S
O1204 Li1146 1.961 . S
O1204 C1148 1.325 . S
O1205 Li1144 1.970 . S
O1205 Li1145 1.956 . S
O1205 Li1147 1.961 . S
O1205 C1154 1.325 . S
O1206 Li1144 1.961 . S
O1206 Li1146 1.956 . S
O1206 Li1147 1.970 . S
O1206 C1176 1.325 . S
O1207 Li1145 1.961 . S
O1207 Li1146 1.970 . S
O1207 Li1147 1.956 . S
O1207 C1182 1.325 . S
H1208 C1150 0.929 . S
H1209 C1151 0.930 . S
H1210 C1152 0.930 . S
H1211 C1153 0.930 . S
H1212 C1155 0.930 . S
H1213 C1157 0.929 . S
H1214 C1158 0.930 . S
H1215 C1159 0.930 . S
H1216 C1162 0.930 . S
H1217 C1165 0.929 . S
H1218 C1170 0.929 . S
H1219 C1171 0.930 . S
H1220 C1178 0.929 . S
H1221 C1179 0.930 . S
H1222 C1180 0.930 . S
H1223 C1181 0.930 . S
H1224 C1183 0.929 . S
H1225 C1184 0.930 . S
H1226 C1185 0.930 . S
H1227 C1186 0.930 . S
H1228 C1190 0.929 . S
H1229 C1192 0.930 . S
H1230 C1198 0.929 . S
H1231 C1199 0.930 . S
Li1232 N1249 1.990 . S
Li1232 O1292 1.956 . S
Li1232 O1293 1.970 . S
Li1232 O1294 1.961 . S
Li1233 N1257 1.990 . S
Li1233 O1292 1.970 . S
Li1233 O1293 1.956 . S
Li1233 O1295 1.961 . S
Li1234 N1279 1.990 . S
Li1234 O1292 1.961 . S
Li1234 O1294 1.956 . S
Li1234 O1295 1.970 . S
Li1235 N1285 1.990 . S
Li1235 O1293 1.961 . S
Li1235 O1294 1.970 . S
Li1235 O1295 1.956 . S
C1236 C1238 1.348 . S
C1236 C1239 1.356 . S
C1236 O1292 1.325 . S
N1237 C1240 1.314 . S
N1237 C1241 1.279 . S
C1238 C1236 1.348 . S
C1238 C1240 1.353 . S
C1238 H1296 0.929 . S
C1239 C1236 1.356 . S
C1239 C1241 1.358 . S
C1239 H1297 0.930 . S
C1240 N1237 1.314 . S
C1240 C1238 1.353 . S
C1240 H1298 0.930 . S
C1241 N1237 1.279 . S
C1241 C1239 1.358 . S
C1241 H1299 0.930 . S
C1242 C1245 1.348 . S
C1242 C1246 1.356 . S
C1242 O1293 1.325 . S
C1243 N1244 1.279 . S
C1243 C1246 1.358 . S
C1243 H1300 0.930 . S
N1244 C1243 1.279 . S
N1244 C1247 1.314 . S
C1245 C1242 1.348 . S
C1245 C1247 1.353 . S
C1245 H1301 0.929 . S
C1246 C1242 1.356 . S
C1246 C1243 1.358 . S
C1246 H1302 0.930 . S
C1247 N1244 1.314 . S
C1247 C1245 1.353 . S
C1247 H1303 0.930 . S
C1248 N1249 1.314 . S
C1248 C1253 1.353 . S
C1248 H1254 0.930 . S
N1249 Li1232 1.990 . S
N1249 C1248 1.314 . S
N1249 C1251 1.279 . S
C1250 C1251 1.358 . S
C1250 C1252 1.356 . S
C1250 H1304 0.930 . S
C1251 N1249 1.279 . S
C1251 C1250 1.358 . S
C1251 H1255 0.930 . S
C1252 C1250 1.356 . S
C1252 C1253 1.348 . S
C1253 C1248 1.353 . S
C1253 C1252 1.348 . S
C1253 H1305 0.929 . S
H1254 C1248 0.930 . S
H1255 C1251 0.930 . S
C1256 N1257 1.314 . S
C1256 C1258 1.353 1_455 S
C1256 H1262 0.930 . S
N1257 Li1233 1.990 . S
N1257 C1256 1.314 . S
N1257 C1260 1.279 . S
C1258 C1256 1.353 1_655 S
C1258 C1261 1.348 . S
C1258 H1306 0.929 . S
C1259 C1260 1.358 . S
C1259 C1261 1.356 1_455 S
C1259 H1307 0.930 . S
C1260 N1257 1.279 . S
C1260 C1259 1.358 . S
C1260 H1263 0.930 . S
C1261 C1258 1.348 . S
C1261 C1259 1.356 1_655 S
H1262 C1256 0.930 . S
H1263 C1260 0.930 . S
C1264 C1266 1.348 . S
C1264 C1267 1.356 . S
C1264 O1294 1.325 . S
N1265 C1268 1.314 . S
N1265 C1269 1.279 . S
C1266 C1264 1.348 . S
C1266 C1268 1.353 . S
C1266 H1308 0.929 . S
C1267 C1264 1.356 . S
C1267 C1269 1.358 . S
C1267 H1309 0.930 . S
C1268 N1265 1.314 . S
C1268 C1266 1.353 . S
C1268 H1310 0.930 . S
C1269 N1265 1.279 . S
C1269 C1267 1.358 . S
C1269 H1311 0.930 . S
C1270 C1271 1.348 . S
C1270 C1272 1.356 . S
C1270 O1295 1.325 . S
C1271 C1270 1.348 . S
C1271 C1273 1.353 1_455 S
C1271 H1312 0.929 . S
C1272 C1270 1.356 . S
C1272 C1274 1.358 1_455 S
C1272 H1313 0.930 . S
C1273 C1271 1.353 1_655 S
C1273 N1275 1.314 . S
C1273 H1314 0.930 . S
C1274 C1272 1.358 1_655 S
C1274 N1275 1.279 . S
C1274 H1315 0.930 . S
N1275 C1273 1.314 . S
N1275 C1274 1.279 . S
C1276 C1278 1.353 . S
C1276 N1279 1.314 . S
C1276 H1282 0.930 . S
C1277 N1279 1.279 . S
C1277 C1280 1.358 . S
C1277 H1283 0.930 . S
C1278 C1276 1.353 . S
C1278 C1281 1.348 . S
C1278 H1316 0.929 . S
N1279 Li1234 1.990 . S
N1279 C1276 1.314 . S
N1279 C1277 1.279 . S
C1280 C1277 1.358 . S
C1280 C1281 1.356 . S
C1280 H1317 0.930 . S
C1281 C1278 1.348 . S
C1281 C1280 1.356 . S
H1282 C1276 0.930 . S
H1283 C1277 0.930 . S
C1284 N1285 1.314 . S
C1284 C1286 1.353 . S
C1284 H1290 0.930 . S
N1285 Li1235 1.990 . S
N1285 C1284 1.314 . S
N1285 C1288 1.279 . S
C1286 C1284 1.353 . S
C1286 C1289 1.348 . S
C1286 H1318 0.929 . S
C1287 C1288 1.358 . S
C1287 C1289 1.356 . S
C1287 H1319 0.930 . S
C1288 N1285 1.279 . S
C1288 C1287 1.358 . S
C1288 H1291 0.930 . S
C1289 C1286 1.348 . S
C1289 C1287 1.356 . S
H1290 C1284 0.930 . S
H1291 C1288 0.930 . S
O1292 Li1232 1.956 . S
O1292 Li1233 1.970 . S
O1292 Li1234 1.961 . S
O1292 C1236 1.325 . S
O1293 Li1232 1.970 . S
O1293 Li1233 1.956 . S
O1293 Li1235 1.961 . S
O1293 C1242 1.325 . S
O1294 Li1232 1.961 . S
O1294 Li1234 1.956 . S
O1294 Li1235 1.970 . S
O1294 C1264 1.325 . S
O1295 Li1233 1.961 . S
O1295 Li1234 1.970 . S
O1295 Li1235 1.956 . S
O1295 C1270 1.325 . S
H1296 C1238 0.929 . S
H1297 C1239 0.930 . S
H1298 C1240 0.930 . S
H1299 C1241 0.930 . S
H1300 C1243 0.930 . S
H1301 C1245 0.929 . S
H1302 C1246 0.930 . S
H1303 C1247 0.930 . S
H1304 C1250 0.930 . S
H1305 C1253 0.929 . S
H1306 C1258 0.929 . S
H1307 C1259 0.930 . S
H1308 C1266 0.929 . S
H1309 C1267 0.930 . S
H1310 C1268 0.930 . S
H1311 C1269 0.930 . S
H1312 C1271 0.929 . S
H1313 C1272 0.930 . S
H1314 C1273 0.930 . S
H1315 C1274 0.930 . S
H1316 C1278 0.929 . S
H1317 C1280 0.930 . S
H1318 C1286 0.929 . S
H1319 C1287 0.930 . S
Li1320 N1337 1.990 . S
Li1320 O1380 1.956 . S
Li1320 O1381 1.970 . S
Li1320 O1382 1.961 . S
Li1321 N1345 1.990 . S
Li1321 O1380 1.970 . S
Li1321 O1381 1.956 . S
Li1321 O1383 1.961 . S
Li1322 N1367 1.990 . S
Li1322 O1380 1.961 . S
Li1322 O1382 1.956 . S
Li1322 O1383 1.970 . S
Li1323 N1373 1.990 . S
Li1323 O1381 1.961 . S
Li1323 O1382 1.970 . S
Li1323 O1383 1.956 . S
C1324 C1326 1.348 . S
C1324 C1327 1.356 . S
C1324 O1380 1.325 . S
N1325 C1328 1.314 . S
N1325 C1329 1.279 . S
C1326 C1324 1.348 . S
C1326 C1328 1.353 1_545 S
C1326 H1384 0.929 . S
C1327 C1324 1.356 . S
C1327 C1329 1.358 1_545 S
C1327 H1385 0.930 . S
C1328 N1325 1.314 . S
C1328 C1326 1.353 1_565 S
C1328 H1386 0.930 . S
C1329 N1325 1.279 . S
C1329 C1327 1.358 1_565 S
C1329 H1387 0.930 . S
C1330 C1333 1.348 . S
C1330 C1334 1.356 . S
C1330 O1381 1.325 . S
C1331 N1332 1.279 . S
C1331 C1334 1.358 . S
C1331 H1388 0.930 . S
N1332 C1331 1.279 . S
N1332 C1335 1.314 . S
C1333 C1330 1.348 . S
C1333 C1335 1.353 . S
C1333 H1389 0.929 . S
C1334 C1330 1.356 . S
C1334 C1331 1.358 . S
C1334 H1390 0.930 . S
C1335 N1332 1.314 . S
C1335 C1333 1.353 . S
C1335 H1391 0.930 . S
C1336 N1337 1.314 . S
C1336 C1341 1.353 . S
C1336 H1342 0.930 . S
N1337 Li1320 1.990 . S
N1337 C1336 1.314 . S
N1337 C1339 1.279 . S
C1338 C1339 1.358 . S
C1338 C1340 1.356 . S
C1338 H1392 0.930 . S
C1339 N1337 1.279 . S
C1339 C1338 1.358 . S
C1339 H1343 0.930 . S
C1340 C1338 1.356 . S
C1340 C1341 1.348 . S
C1341 C1336 1.353 . S
C1341 C1340 1.348 . S
C1341 H1393 0.929 . S
H1342 C1336 0.930 . S
H1343 C1339 0.930 . S
C1344 N1345 1.314 . S
C1344 C1346 1.353 . S
C1344 H1350 0.930 . S
N1345 Li1321 1.990 . S
N1345 C1344 1.314 . S
N1345 C1348 1.279 . S
C1346 C1344 1.353 . S
C1346 C1349 1.348 . S
C1346 H1394 0.929 . S
C1347 C1348 1.358 . S
C1347 C1349 1.356 . S
C1347 H1395 0.930 . S
C1348 N1345 1.279 . S
C1348 C1347 1.358 . S
C1348 H1351 0.930 . S
C1349 C1346 1.348 . S
C1349 C1347 1.356 . S
H1350 C1344 0.930 . S
H1351 C1348 0.930 . S
C1352 C1354 1.348 . S
C1352 C1355 1.356 . S
C1352 O1382 1.325 . S
N1353 C1356 1.314 . S
N1353 C1357 1.279 . S
C1354 C1352 1.348 . S
C1354 C1356 1.353 . S
C1354 H1396 0.929 . S
C1355 C1352 1.356 . S
C1355 C1357 1.358 . S
C1355 H1397 0.930 . S
C1356 N1353 1.314 . S
C1356 C1354 1.353 . S
C1356 H1398 0.930 . S
C1357 N1353 1.279 . S
C1357 C1355 1.358 . S
C1357 H1399 0.930 . S
C1358 C1359 1.348 . S
C1358 C1360 1.356 . S
C1358 O1383 1.325 . S
C1359 C1358 1.348 . S
C1359 C1361 1.353 . S
C1359 H1400 0.929 . S
C1360 C1358 1.356 . S
C1360 C1362 1.358 . S
C1360 H1401 0.930 . S
C1361 C1359 1.353 . S
C1361 N1363 1.314 . S
C1361 H1402 0.930 . S
C1362 C1360 1.358 . S
C1362 N1363 1.279 . S
C1362 H1403 0.930 . S
N1363 C1361 1.314 . S
N1363 C1362 1.279 . S
C1364 C1366 1.353 1_545 S
C1364 N1367 1.314 . S
C1364 H1370 0.930 . S
C1365 N1367 1.279 . S
C1365 C1368 1.358 . S
C1365 H1371 0.930 . S
C1366 C1364 1.353 1_565 S
C1366 C1369 1.348 . S
C1366 H1404 0.929 . S
N1367 Li1322 1.990 . S
N1367 C1364 1.314 . S
N1367 C1365 1.279 . S
C1368 C1365 1.358 . S
C1368 C1369 1.356 1_545 S
C1368 H1405 0.930 . S
C1369 C1366 1.348 . S
C1369 C1368 1.356 1_565 S
H1370 C1364 0.930 . S
H1371 C1365 0.930 . S
C1372 N1373 1.314 . S
C1372 C1374 1.353 . S
C1372 H1378 0.930 . S
N1373 Li1323 1.990 . S
N1373 C1372 1.314 . S
N1373 C1376 1.279 . S
C1374 C1372 1.353 . S
C1374 C1377 1.348 . S
C1374 H1406 0.929 . S
C1375 C1376 1.358 . S
C1375 C1377 1.356 . S
C1375 H1407 0.930 . S
C1376 N1373 1.279 . S
C1376 C1375 1.358 . S
C1376 H1379 0.930 . S
C1377 C1374 1.348 . S
C1377 C1375 1.356 . S
H1378 C1372 0.930 . S
H1379 C1376 0.930 . S
O1380 Li1320 1.956 . S
O1380 Li1321 1.970 . S
O1380 Li1322 1.961 . S
O1380 C1324 1.325 . S
O1381 Li1320 1.970 . S
O1381 Li1321 1.956 . S
O1381 Li1323 1.961 . S
O1381 C1330 1.325 . S
O1382 Li1320 1.961 . S
O1382 Li1322 1.956 . S
O1382 Li1323 1.970 . S
O1382 C1352 1.325 . S
O1383 Li1321 1.961 . S
O1383 Li1322 1.970 . S
O1383 Li1323 1.956 . S
O1383 C1358 1.325 . S
H1384 C1326 0.929 . S
H1385 C1327 0.930 . S
H1386 C1328 0.930 . S
H1387 C1329 0.930 . S
H1388 C1331 0.930 . S
H1389 C1333 0.929 . S
H1390 C1334 0.930 . S
H1391 C1335 0.930 . S
H1392 C1338 0.930 . S
H1393 C1341 0.929 . S
H1394 C1346 0.929 . S
H1395 C1347 0.930 . S
H1396 C1354 0.929 . S
H1397 C1355 0.930 . S
H1398 C1356 0.930 . S
H1399 C1357 0.930 . S
H1400 C1359 0.929 . S
H1401 C1360 0.930 . S
H1402 C1361 0.930 . S
H1403 C1362 0.930 . S
H1404 C1366 0.929 . S
H1405 C1368 0.930 . S
H1406 C1374 0.929 . S
H1407 C1375 0.930 . S
C1408 C1409 1.369 . S
C1408 C1410 1.419 . S
C1408 H1412 0.930 . S
C1409 C1408 1.369 . S
C1409 C1418 1.429 . S
C1410 C1408 1.419 . S
C1410 C1411 1.363 . S
C1410 H1413 0.929 . S
C1411 C1410 1.363 . S
C1411 C1417 1.428 . S
H1412 C1408 0.930 . S
H1413 C1410 0.929 . S
S1414 N1415 1.613 1_556 S
S1414 N1416 1.610 . S
N1415 S1414 1.613 1_554 S
N1415 C1418 1.350 1_554 S
N1416 S1414 1.610 . S
N1416 C1417 1.351 . S
C1417 C1411 1.428 . S
C1417 N1416 1.351 . S
C1417 C1418 1.434 . S
C1418 C1409 1.429 . S
C1418 N1415 1.350 1_556 S
C1418 C1417 1.434 . S
C1419 C1420 1.369 . S
C1419 C1421 1.423 . S
C1419 H1423 0.930 . S
C1420 C1419 1.369 . S
C1420 C1429 1.429 . S
C1421 C1419 1.423 . S
C1421 C1422 1.364 . S
C1421 H1424 0.924 1_556 S
C1422 C1421 1.364 . S
C1422 C1428 1.428 . S
H1423 C1419 0.930 . S
H1424 C1421 0.924 1_554 S
S1425 N1426 1.613 . S
S1425 N1427 1.610 . S
N1426 S1425 1.613 . S
N1426 C1429 1.350 . S
N1427 S1425 1.610 . S
N1427 C1428 1.351 . S
C1428 C1422 1.428 . S
C1428 N1427 1.351 . S
C1428 C1429 1.434 . S
C1429 C1420 1.429 . S
C1429 N1426 1.350 . S
C1429 C1428 1.434 . S
C1430 C1431 1.369 . S
C1430 C1432 1.419 . S
C1430 H1434 0.930 . S
C1431 C1430 1.369 . S
C1431 C1440 1.429 . S
C1432 C1430 1.419 . S
C1432 C1433 1.363 . S
C1432 H1435 0.929 . S
C1433 C1432 1.363 . S
C1433 C1439 1.428 . S
H1434 C1430 0.930 . S
H1435 C1432 0.929 . S
S1436 N1437 1.613 . S
S1436 N1438 1.610 . S
N1437 S1436 1.613 . S
N1437 C1440 1.350 . S
N1438 S1436 1.610 . S
N1438 C1439 1.351 . S
C1439 C1433 1.428 . S
C1439 N1438 1.351 . S
C1439 C1440 1.434 . S
C1440 C1431 1.429 . S
C1440 N1437 1.350 . S
C1440 C1439 1.434 . S
C1441 C1442 1.369 . S
C1441 C1443 1.419 . S
C1441 H1445 0.930 . S
C1442 C1441 1.369 . S
C1442 C1451 1.429 . S
C1443 C1441 1.419 . S
C1443 C1444 1.363 . S
C1443 H1446 0.929 . S
C1444 C1443 1.363 . S
C1444 C1450 1.432 . S
H1445 C1441 0.930 . S
H1446 C1443 0.929 . S
S1447 N1448 1.613 1_554 S
S1447 N1449 1.610 . S
N1448 S1447 1.613 1_556 S
N1448 C1451 1.350 . S
N1449 S1447 1.610 . S
N1449 C1450 1.331 1_554 S
C1450 C1444 1.432 . S
C1450 N1449 1.331 1_556 S
C1450 C1451 1.452 . S
C1451 C1442 1.429 . S
C1451 N1448 1.350 . S
C1451 C1450 1.452 . S
C1452 C1453 1.369 . S
C1452 C1454 1.419 . S
C1452 H1456 0.930 . S
C1453 C1452 1.369 . S
C1453 C1462 1.429 . S
C1454 C1452 1.419 . S
C1454 C1455 1.363 . S
C1454 H1457 0.929 . S
C1455 C1454 1.363 . S
C1455 C1461 1.428 . S
H1456 C1452 0.930 . S
H1457 C1454 0.929 . S
S1458 N1459 1.613 . S
S1458 N1460 1.610 . S
N1459 S1458 1.613 . S
N1459 C1462 1.350 . S
N1460 S1458 1.610 . S
N1460 C1461 1.351 . S
C1461 C1455 1.428 . S
C1461 N1460 1.351 . S
C1461 C1462 1.434 . S
C1462 C1453 1.429 . S
C1462 N1459 1.350 . S
C1462 C1461 1.434 . S
C1463 C1464 1.369 . S
C1463 C1465 1.419 . S
C1463 H1467 0.930 . S
C1464 C1463 1.369 . S
C1464 C1473 1.429 . S
C1465 C1463 1.419 . S
C1465 C1466 1.363 . S
C1465 H1468 0.929 . S
C1466 C1465 1.363 . S
C1466 C1472 1.428 . S
H1467 C1463 0.930 . S
H1468 C1465 0.929 . S
S1469 N1470 1.613 . S
S1469 N1471 1.610 . S
N1470 S1469 1.613 . S
N1470 C1473 1.350 . S
N1471 S1469 1.610 . S
N1471 C1472 1.351 . S
C1472 C1466 1.428 . S
C1472 N1471 1.351 . S
C1472 C1473 1.434 . S
C1473 C1464 1.429 . S
C1473 N1470 1.350 . S
C1473 C1472 1.434 . S
C1474 C1475 1.369 . S
C1474 C1476 1.419 . S
C1474 H1478 0.930 . S
C1475 C1474 1.369 . S
C1475 C1484 1.429 . S
C1476 C1474 1.419 . S
C1476 C1477 1.363 . S
C1476 H1479 0.929 . S
C1477 C1476 1.363 . S
C1477 C1483 1.428 . S
H1478 C1474 0.930 . S
H1479 C1476 0.929 . S
S1480 N1481 1.613 . S
S1480 N1482 1.610 . S
N1481 S1480 1.613 . S
N1481 C1484 1.350 . S
N1482 S1480 1.610 . S
N1482 C1483 1.351 . S
C1483 C1477 1.428 . S
C1483 N1482 1.351 . S
C1483 C1484 1.434 . S
C1484 C1475 1.429 . S
C1484 N1481 1.350 . S
C1484 C1483 1.434 . S
C1485 C1486 1.369 . S
C1485 C1487 1.419 . S
C1485 H1489 0.930 . S
C1486 C1485 1.369 . S
C1486 C1495 1.429 . S
C1487 C1485 1.419 . S
C1487 C1488 1.363 . S
C1487 H1490 0.929 . S
C1488 C1487 1.363 . S
C1488 C1494 1.428 . S
H1489 C1485 0.930 . S
H1490 C1487 0.929 . S
S1491 N1492 1.613 . S
S1491 N1493 1.610 . S
N1492 S1491 1.613 . S
N1492 C1495 1.350 . S
N1493 S1491 1.610 . S
N1493 C1494 1.351 . S
C1494 C1488 1.428 . S
C1494 N1493 1.351 . S
C1494 C1495 1.434 . S
C1495 C1486 1.429 . S
C1495 N1492 1.350 . S
C1495 C1494 1.434 . S
C1496 C1497 1.369 . S
C1496 C1498 1.419 . S
C1496 H1500 0.930 . S
C1497 C1496 1.369 . S
C1497 C1506 1.429 . S
C1498 C1496 1.419 . S
C1498 C1499 1.363 . S
C1498 H1501 0.929 . S
C1499 C1498 1.363 . S
C1499 C1505 1.428 . S
H1500 C1496 0.930 . S
H1501 C1498 0.929 . S
S1502 N1503 1.613 . S
S1502 N1504 1.610 1_556 S
N1503 S1502 1.613 . S
N1503 C1506 1.350 1_556 S
N1504 S1502 1.610 1_554 S
N1504 C1505 1.351 . S
C1505 C1499 1.428 . S
C1505 N1504 1.351 . S
C1505 C1506 1.434 . S
C1506 C1497 1.429 . S
C1506 N1503 1.350 1_554 S
C1506 C1505 1.434 . S
C1507 C1508 1.369 . S
C1507 C1509 1.419 . S
C1507 H1511 0.930 1_554 S
C1508 C1507 1.369 . S
C1508 C1517 1.429 . S
C1509 C1507 1.419 . S
C1509 C1510 1.363 . S
C1509 H1512 0.929 . S
C1510 C1509 1.363 . S
C1510 C1516 1.428 . S
H1511 C1507 0.930 1_556 S
H1512 C1509 0.929 . S
S1513 N1514 1.613 . S
S1513 N1515 1.610 . S
N1514 S1513 1.613 . S
N1514 C1517 1.350 . S
N1515 S1513 1.610 . S
N1515 C1516 1.351 . S
C1516 C1510 1.428 . S
C1516 N1515 1.351 . S
C1516 C1517 1.434 . S
C1517 C1508 1.429 . S
C1517 N1514 1.350 . S
C1517 C1516 1.434 . S
C1518 C1519 1.369 . S
C1518 C1520 1.419 . S
C1518 H1522 0.930 . S
C1519 C1518 1.369 . S
C1519 C1528 1.429 . S
C1520 C1518 1.419 . S
C1520 C1521 1.363 . S
C1520 H1523 0.929 . S
C1521 C1520 1.363 . S
C1521 C1527 1.428 . S
H1522 C1518 0.930 . S
H1523 C1520 0.929 . S
S1524 N1525 1.613 . S
S1524 N1526 1.610 . S
N1525 S1524 1.613 . S
N1525 C1528 1.350 . S
N1526 S1524 1.610 . S
N1526 C1527 1.351 . S
C1527 C1521 1.428 . S
C1527 N1526 1.351 . S
C1527 C1528 1.434 . S
C1528 C1519 1.429 . S
C1528 N1525 1.350 . S
C1528 C1527 1.434 . S
C1529 C1530 1.369 . S
C1529 C1531 1.416 . S
C1529 H1533 0.930 . S
C1530 C1529 1.369 . S
C1530 C1539 1.429 . S
C1531 C1529 1.416 . S
C1531 C1532 1.362 . S
C1531 H1534 0.933 1_554 S
C1532 C1531 1.362 . S
C1532 C1538 1.428 . S
H1533 C1529 0.930 . S
H1534 C1531 0.933 1_556 S
S1535 N1536 1.613 . S
S1535 N1537 1.610 . S
N1536 S1535 1.613 . S
N1536 C1539 1.350 . S
N1537 S1535 1.610 . S
N1537 C1538 1.351 . S
C1538 C1532 1.428 . S
C1538 N1537 1.351 . S
C1538 C1539 1.434 . S
C1539 C1530 1.429 . S
C1539 N1536 1.350 . S
C1539 C1538 1.434 . S
C1540 C1541 1.369 . S
C1540 C1542 1.419 . S
C1540 H1544 0.930 . S
C1541 C1540 1.369 . S
C1541 C1550 1.429 . S
C1542 C1540 1.419 . S
C1542 C1543 1.363 . S
C1542 H1545 0.929 . S
C1543 C1542 1.363 . S
C1543 C1549 1.428 . S
H1544 C1540 0.930 . S
H1545 C1542 0.929 . S
S1546 N1547 1.613 . S
S1546 N1548 1.610 . S
N1547 S1546 1.613 . S
N1547 C1550 1.350 . S
N1548 S1546 1.610 . S
N1548 C1549 1.351 . S
C1549 C1543 1.428 . S
C1549 N1548 1.351 . S
C1549 C1550 1.434 . S
C1550 C1541 1.429 . S
C1550 N1547 1.350 . S
C1550 C1549 1.434 . S
C1551 C1552 1.369 . S
C1551 C1553 1.419 . S
C1551 H1555 0.930 . S
C1552 C1551 1.369 . S
C1552 C1561 1.429 . S
C1553 C1551 1.419 . S
C1553 C1554 1.363 . S
C1553 H1556 0.929 . S
C1554 C1553 1.363 . S
C1554 C1560 1.428 . S
H1555 C1551 0.930 . S
H1556 C1553 0.929 . S
S1557 N1558 1.613 . S
S1557 N1559 1.610 . S
N1558 S1557 1.613 . S
N1558 C1561 1.350 . S
N1559 S1557 1.610 . S
N1559 C1560 1.351 . S
C1560 C1554 1.428 . S
C1560 N1559 1.351 . S
C1560 C1561 1.434 . S
C1561 C1552 1.429 . S
C1561 N1558 1.350 . S
C1561 C1560 1.434 . S
C1562 C1563 1.369 . S
C1562 C1564 1.419 . S
C1562 H1566 0.930 . S
C1563 C1562 1.369 . S
C1563 C1572 1.429 . S
C1564 C1562 1.419 . S
C1564 C1565 1.363 . S
C1564 H1567 0.929 . S
C1565 C1564 1.363 . S
C1565 C1571 1.428 . S
H1566 C1562 0.930 . S
H1567 C1564 0.929 . S
S1568 N1569 1.613 . S
S1568 N1570 1.610 . S
N1569 S1568 1.613 . S
N1569 C1572 1.350 . S
N1570 S1568 1.610 . S
N1570 C1571 1.351 . S
C1571 C1565 1.428 . S
C1571 N1570 1.351 . S
C1571 C1572 1.434 . S
C1572 C1563 1.429 . S
C1572 N1569 1.350 . S
C1572 C1571 1.434 . S
C1573 C1574 1.369 . S
C1573 C1575 1.419 . S
C1573 H1577 0.930 . S
C1574 C1573 1.369 . S
C1574 C1583 1.429 . S
C1575 C1573 1.419 . S
C1575 C1576 1.363 . S
C1575 H1578 0.929 . S
C1576 C1575 1.363 . S
C1576 C1582 1.428 . S
H1577 C1573 0.930 . S
H1578 C1575 0.929 . S
S1579 N1580 1.613 . S
S1579 N1581 1.610 . S
N1580 S1579 1.613 . S
N1580 C1583 1.350 . S
N1581 S1579 1.610 . S
N1581 C1582 1.351 . S
C1582 C1576 1.428 . S
C1582 N1581 1.351 . S
C1582 C1583 1.434 . S
C1583 C1574 1.429 . S
C1583 N1580 1.350 . S
C1583 C1582 1.434 . S
C1584 C1585 1.353 1_545 S
C1584 C1586 1.433 1_556 S
C1584 H1588 0.932 . S
C1585 C1584 1.353 1_565 S
C1585 C1594 1.429 . S
C1586 C1584 1.433 1_554 S
C1586 C1587 1.363 . S
C1586 H1589 0.929 . S
C1587 C1586 1.363 . S
C1587 C1593 1.428 1_545 S
H1588 C1584 0.932 . S
H1589 C1586 0.929 . S
S1590 N1591 1.613 1_554 S
S1590 N1592 1.610 . S
N1591 S1590 1.613 1_556 S
N1591 C1594 1.350 . S
N1592 S1590 1.610 . S
N1592 C1593 1.351 . S
C1593 C1587 1.428 1_565 S
C1593 N1592 1.351 . S
C1593 C1594 1.434 1_554 S
C1594 C1585 1.429 . S
C1594 N1591 1.350 . S
C1594 C1593 1.434 1_556 S
C1595 C1596 1.369 . S
C1595 C1597 1.419 . S
C1595 H1599 0.930 . S
C1596 C1595 1.369 . S
C1596 C1605 1.429 1_554 S
C1597 C1595 1.419 . S
C1597 C1598 1.363 1_554 S
C1597 H1600 0.929 . S
C1598 C1597 1.363 1_556 S
C1598 C1604 1.428 . S
H1599 C1595 0.930 . S
H1600 C1597 0.929 . S
S1601 N1602 1.613 . S
S1601 N1603 1.610 . S
N1602 S1601 1.613 . S
N1602 C1605 1.350 . S
N1603 S1601 1.610 . S
N1603 C1604 1.351 . S
C1604 C1598 1.428 . S
C1604 N1603 1.351 . S
C1604 C1605 1.434 . S
C1605 C1596 1.429 1_556 S
C1605 N1602 1.350 . S
C1605 C1604 1.434 . S
C1606 C1607 1.369 1_455 S
C1606 C1608 1.419 1_556 S
C1606 H1610 0.930 . S
C1607 C1606 1.369 1_655 S
C1607 C1616 1.429 . S
C1608 C1606 1.419 1_554 S
C1608 C1609 1.363 . S
C1608 H1611 0.929 . S
C1609 C1608 1.363 . S
C1609 C1615 1.428 1_455 S
H1610 C1606 0.930 . S
H1611 C1608 0.929 . S
S1612 N1613 1.601 1_554 S
S1612 N1614 1.610 . S
N1613 S1612 1.601 1_556 S
N1613 C1616 1.351 . S
N1614 S1612 1.610 . S
N1614 C1615 1.351 . S
C1615 C1609 1.428 1_655 S
C1615 N1614 1.351 . S
C1615 C1616 1.434 1_554 S
C1616 C1607 1.429 . S
C1616 N1613 1.351 . S
C1616 C1615 1.434 1_556 S
C1617 C1618 1.369 1_655 S
C1617 C1619 1.419 1_554 S
C1617 H1621 0.930 . S
C1618 C1617 1.369 1_455 S
C1618 C1627 1.429 1_545 S
C1619 C1617 1.419 1_556 S
C1619 C1620 1.363 1_545 S
C1619 H1622 0.929 . S
C1620 C1619 1.363 1_565 S
C1620 C1626 1.428 1_655 S
H1621 C1617 0.930 . S
H1622 C1619 0.929 . S
S1623 N1624 1.600 1_556 S
S1623 N1625 1.610 . S
N1624 S1623 1.600 1_554 S
N1624 C1627 1.351 . S
N1625 S1623 1.610 . S
N1625 C1626 1.351 . S
C1626 C1620 1.428 1_455 S
C1626 N1625 1.351 . S
C1626 C1627 1.434 1_556 S
C1627 C1618 1.429 1_565 S
C1627 N1624 1.351 . S
C1627 C1626 1.434 1_554 S
C1628 C1629 1.369 . S
C1628 C1630 1.419 . S
C1628 H1632 0.930 . S
C1629 C1628 1.369 . S
C1629 C1638 1.429 . S
C1630 C1628 1.419 . S
C1630 C1631 1.363 . S
C1630 H1633 0.929 . S
C1631 C1630 1.363 . S
C1631 C1637 1.428 . S
H1632 C1628 0.930 . S
H1633 C1630 0.929 . S
S1634 N1635 1.613 . S
S1634 N1636 1.610 . S
N1635 S1634 1.613 . S
N1635 C1638 1.350 . S
N1636 S1634 1.610 . S
N1636 C1637 1.351 . S
C1637 C1631 1.428 . S
C1637 N1636 1.351 . S
C1637 C1638 1.434 . S
C1638 C1629 1.429 . S
C1638 N1635 1.350 . S
C1638 C1637 1.434 . S
C1639 C1640 1.369 . S
C1639 C1641 1.428 . S
C1639 H1643 0.930 . S
C1640 C1639 1.369 . S
C1640 C1649 1.399 1_455 S
C1641 C1639 1.428 . S
C1641 C1642 1.353 1_455 S
C1641 H1644 0.930 . S
C1642 C1641 1.353 1_655 S
C1642 C1648 1.428 . S
H1643 C1639 0.930 . S
H1644 C1641 0.930 . S
S1645 N1646 1.613 . S
S1645 N1647 1.610 . S
N1646 S1645 1.613 . S
N1646 C1649 1.355 . S
N1647 S1645 1.610 . S
N1647 C1648 1.351 . S
C1648 C1642 1.428 . S
C1648 N1647 1.351 . S
C1648 C1649 1.462 . S
C1649 C1640 1.399 1_655 S
C1649 N1646 1.355 . S
C1649 C1648 1.462 . S
C1650 C1651 1.369 1_455 S
C1650 C1652 1.419 1_565 S
C1650 H1654 0.930 . S
C1651 C1650 1.369 1_655 S
C1651 C1660 1.429 . S
C1652 C1650 1.419 1_545 S
C1652 C1653 1.363 . S
C1652 H1655 0.929 . S
C1653 C1652 1.363 . S
C1653 C1659 1.428 1_455 S
H1654 C1650 0.930 . S
H1655 C1652 0.929 . S
S1656 N1657 1.613 1_545 S
S1656 N1658 1.610 . S
N1657 S1656 1.613 1_565 S
N1657 C1660 1.350 . S
N1658 S1656 1.610 . S
N1658 C1659 1.351 . S
C1659 C1653 1.428 1_655 S
C1659 N1658 1.351 . S
C1659 C1660 1.434 1_545 S
C1660 C1651 1.429 . S
C1660 N1657 1.350 . S
C1660 C1659 1.434 1_565 S
C1661 C1662 1.369 1_545 S
C1661 C1663 1.419 . S
C1661 H1665 0.930 . S
C1662 C1661 1.369 1_565 S
C1662 C1671 1.429 . S
C1663 C1661 1.419 . S
C1663 C1664 1.363 . S
C1663 H1666 0.929 . S
C1664 C1663 1.363 . S
C1664 C1670 1.428 1_545 S
H1665 C1661 0.930 . S
H1666 C1663 0.929 . S
S1667 N1668 1.613 . S
S1667 N1669 1.610 . S
N1668 S1667 1.613 . S
N1668 C1671 1.350 . S
N1669 S1667 1.610 . S
N1669 C1670 1.351 . S
C1670 C1664 1.428 1_565 S
C1670 N1669 1.351 . S
C1670 C1671 1.434 . S
C1671 C1662 1.429 . S
C1671 N1668 1.350 . S
C1671 C1670 1.434 . S
C1672 C1673 1.369 . S
C1672 C1674 1.419 . S
C1672 H1676 0.930 . S
C1673 C1672 1.369 . S
C1673 C1682 1.429 . S
C1674 C1672 1.419 . S
C1674 C1675 1.363 . S
C1674 H1677 0.929 . S
C1675 C1674 1.363 . S
C1675 C1681 1.428 . S
H1676 C1672 0.930 . S
H1677 C1674 0.929 . S
S1678 N1679 1.613 . S
S1678 N1680 1.610 . S
N1679 S1678 1.613 . S
N1679 C1682 1.350 . S
N1680 S1678 1.610 . S
N1680 C1681 1.351 . S
C1681 C1675 1.428 . S
C1681 N1680 1.351 . S
C1681 C1682 1.434 . S
C1682 C1673 1.429 . S
C1682 N1679 1.350 . S
C1682 C1681 1.434 . S
C1683 C1684 1.369 . S
C1683 C1685 1.419 . S
C1683 H1687 0.930 . S
C1684 C1683 1.369 . S
C1684 C1693 1.429 . S
C1685 C1683 1.419 . S
C1685 C1686 1.363 . S
C1685 H1688 0.929 . S
C1686 C1685 1.363 . S
C1686 C1692 1.428 . S
H1687 C1683 0.930 . S
H1688 C1685 0.929 . S
S1689 N1690 1.613 . S
S1689 N1691 1.610 . S
N1690 S1689 1.613 . S
N1690 C1693 1.350 . S
N1691 S1689 1.610 . S
N1691 C1692 1.351 . S
C1692 C1686 1.428 . S
C1692 N1691 1.351 . S
C1692 C1693 1.434 . S
C1693 C1684 1.429 . S
C1693 N1690 1.350 . S
C1693 C1692 1.434 . S
C1694 C1695 1.369 . S
C1694 C1696 1.419 . S
C1694 H1698 0.930 . S
C1695 C1694 1.369 . S
C1695 C1704 1.429 . S
C1696 C1694 1.419 . S
C1696 C1697 1.363 . S
C1696 H1699 0.929 . S
C1697 C1696 1.363 . S
C1697 C1703 1.428 . S
H1698 C1694 0.930 . S
H1699 C1696 0.929 . S
S1700 N1701 1.613 . S
S1700 N1702 1.610 . S
N1701 S1700 1.613 . S
N1701 C1704 1.350 . S
N1702 S1700 1.610 . S
N1702 C1703 1.351 . S
C1703 C1697 1.428 . S
C1703 N1702 1.351 . S
C1703 C1704 1.434 . S
C1704 C1695 1.429 . S
C1704 N1701 1.350 . S
C1704 C1703 1.434 . S
C1705 C1706 1.369 . S
C1705 C1707 1.419 . S
C1705 H1709 0.930 . S
C1706 C1705 1.369 . S
C1706 C1715 1.429 . S
C1707 C1705 1.419 . S
C1707 C1708 1.363 . S
C1707 H1710 0.929 . S
C1708 C1707 1.363 . S
C1708 C1714 1.428 . S
H1709 C1705 0.930 . S
H1710 C1707 0.929 . S
S1711 N1712 1.613 . S
S1711 N1713 1.610 . S
N1712 S1711 1.613 . S
N1712 C1715 1.350 . S
N1713 S1711 1.610 . S
N1713 C1714 1.351 . S
C1714 C1708 1.428 . S
C1714 N1713 1.351 . S
C1714 C1715 1.434 . S
C1715 C1706 1.429 . S
C1715 N1712 1.350 . S
C1715 C1714 1.434 . S
C1716 C1717 1.369 . S
C1716 C1718 1.419 . S
C1716 H1720 0.930 . S
C1717 C1716 1.369 . S
C1717 C1726 1.429 . S
C1718 C1716 1.419 . S
C1718 C1719 1.363 . S
C1718 H1721 0.929 . S
C1719 C1718 1.363 . S
C1719 C1725 1.428 . S
H1720 C1716 0.930 . S
H1721 C1718 0.929 . S
S1722 N1723 1.613 . S
S1722 N1724 1.610 . S
N1723 S1722 1.613 . S
N1723 C1726 1.350 . S
N1724 S1722 1.610 . S
N1724 C1725 1.351 . S
C1725 C1719 1.428 . S
C1725 N1724 1.351 . S
C1725 C1726 1.434 . S
C1726 C1717 1.429 . S
C1726 N1723 1.350 . S
C1726 C1725 1.434 . S
C1727 C1728 1.369 . S
C1727 C1729 1.419 . S
C1727 H1731 0.930 . S
C1728 C1727 1.369 . S
C1728 C1737 1.429 . S
C1729 C1727 1.419 . S
C1729 C1730 1.363 . S
C1729 H1732 0.929 . S
C1730 C1729 1.363 . S
C1730 C1736 1.428 . S
H1731 C1727 0.930 . S
H1732 C1729 0.929 . S
S1733 N1734 1.613 . S
S1733 N1735 1.610 . S
N1734 S1733 1.613 . S
N1734 C1737 1.350 . S
N1735 S1733 1.610 . S
N1735 C1736 1.351 . S
C1736 C1730 1.428 . S
C1736 N1735 1.351 . S
C1736 C1737 1.434 . S
C1737 C1728 1.429 . S
C1737 N1734 1.350 . S
C1737 C1736 1.434 . S
C1738 C1739 1.369 . S
C1738 C1740 1.419 . S
C1738 H1742 0.930 . S
C1739 C1738 1.369 . S
C1739 C1748 1.429 . S
C1740 C1738 1.419 . S
C1740 C1741 1.363 . S
C1740 H1743 0.929 . S
C1741 C1740 1.363 . S
C1741 C1747 1.428 . S
H1742 C1738 0.930 . S
H1743 C1740 0.929 . S
S1744 N1745 1.613 . S
S1744 N1746 1.610 . S
N1745 S1744 1.613 . S
N1745 C1748 1.350 . S
N1746 S1744 1.610 . S
N1746 C1747 1.351 . S
C1747 C1741 1.428 . S
C1747 N1746 1.351 . S
C1747 C1748 1.434 . S
C1748 C1739 1.429 . S
C1748 N1745 1.350 . S
C1748 C1747 1.434 . S
C1749 C1750 1.369 . S
C1749 C1751 1.419 . S
C1749 H1753 0.930 . S
C1750 C1749 1.369 . S
C1750 C1759 1.429 . S
C1751 C1749 1.419 . S
C1751 C1752 1.363 . S
C1751 H1754 0.929 . S
C1752 C1751 1.363 . S
C1752 C1758 1.428 . S
H1753 C1749 0.930 . S
H1754 C1751 0.929 . S
S1755 N1756 1.613 . S
S1755 N1757 1.610 . S
N1756 S1755 1.613 . S
N1756 C1759 1.350 . S
N1757 S1755 1.610 . S
N1757 C1758 1.351 . S
C1758 C1752 1.428 . S
C1758 N1757 1.351 . S
C1758 C1759 1.434 . S
C1759 C1750 1.429 . S
C1759 N1756 1.350 . S
C1759 C1758 1.434 . S
C1409 C57 0.661 1_556 S
C1411 C812 0.662 . S
C1420 C929 0.669 . S
C1422 C145 0.673 1_556 S
C1431 C988 0.651 . S
C1433 C225 0.681 1_556 S
C1442 C733 0.663 . S
C1444 C313 0.663 1_556 S
C1453 C381 0.678 . S
C1455 C1377 0.653 . S
C1464 C1105 0.651 . S
C1466 C469 0.680 . S
C1475 C1164 0.655 . S
C1477 C548 0.668 . S
C1486 C1252 0.653 . S
C1488 C636 0.671 . S
C1497 C753 0.667 1_554 S
C1499 C137 0.647 . S
C1508 C849 0.660 1_554 S
C1510 C233 0.665 . S
C1519 C909 0.675 1_554 S
C1521 C321 0.647 . S
C1530 C49 0.668 . S
C1532 C1025 0.662 1_554 S
C1541 C1085 0.668 . S
C1543 C645 0.662 . S
C1552 C1201 0.669 . S
C1554 C372 0.662 . S
C1563 C460 0.665 . S
C1565 C1289 0.666 . S
C1574 C1340 0.658 . S
C1576 C557 0.665 . S
C1585 C724 2.051 . S
C1587 C29 2.075 . S
C1596 C117 2.072 . S
C1598 C821 2.056 . S
C1607 C937 2.060 . S
C1609 C196 2.068 . S
C1618 C284 2.066 . S
C1620 C997 2.060 . S
C1629 C1113 2.058 . S
C1631 C409 2.069 . S
C1640 C497 2.068 . S
C1642 C1173 2.059 . S
C1651 C1261 2.061 . S
C1653 C577 2.067 . S
C1662 C1369 2.062 . S
C1664 C665 2.067 . S
C1673 C401 2.676 . S
C1675 C20 2.669 . S
C1684 C489 2.676 . S
C1686 C108 2.669 . S
C1695 C205 2.676 . S
C1697 C585 2.669 . S
C1706 C673 2.668 . S
C1708 C293 2.675 . S
C1717 C761 2.665 . S
C1719 C1076 2.669 . S
C1728 C1193 2.667 . S
C1730 C841 2.667 . S
C1739 C1281 2.664 . S
C1741 C900 2.670 . S
C1750 C1349 2.671 . S
C1752 C1017 2.664 . S
