# Generated by pormake.
# Topology fcu, (12)-cn, num edge types: 1
# Building blocks:
#     Node 0, Type 0, BuildingBlock: UKIBUN_clean_sbu_0, # of connection points: 12
#     Node 1, Type 0, BuildingBlock: UKIBUN_clean_sbu_0, # of connection points: 12
#     Node 2, Type 0, BuildingBlock: UKIBUN_clean_sbu_0, # of connection points: 12
#     Node 3, Type 0, BuildingBlock: UKIBUN_clean_sbu_0, # of connection points: 12
#     Edge 4, Type (0, 0), BuildingBlock: CIFDUS_clean_linker_0, # of connection points: 2
#     Edge 5, Type (0, 0), BuildingBlock: CIFDUS_clean_linker_0, # of connection points: 2
#     Edge 6, Type (0, 0), BuildingBlock: CIFDUS_clean_linker_0, # of connection points: 2
#     Edge 7, Type (0, 0), BuildingBlock: CIFDUS_clean_linker_0, # of connection points: 2
#     Edge 8, Type (0, 0), BuildingBlock: CIFDUS_clean_linker_0, # of connection points: 2
#     Edge 9, Type (0, 0), BuildingBlock: CIFDUS_clean_linker_0, # of connection points: 2
#     Edge 10, Type (0, 0), BuildingBlock: CIFDUS_clean_linker_0, # of connection points: 2
#     Edge 11, Type (0, 0), BuildingBlock: CIFDUS_clean_linker_0, # of connection points: 2
#     Edge 12, Type (0, 0), BuildingBlock: CIFDUS_clean_linker_0, # of connection points: 2
#     Edge 13, Type (0, 0), BuildingBlock: CIFDUS_clean_linker_0, # of connection points: 2
#     Edge 14, Type (0, 0), BuildingBlock: CIFDUS_clean_linker_0, # of connection points: 2
#     Edge 15, Type (0, 0), BuildingBlock: CIFDUS_clean_linker_0, # of connection points: 2
#     Edge 16, Type (0, 0), BuildingBlock: CIFDUS_clean_linker_0, # of connection points: 2
#     Edge 17, Type (0, 0), BuildingBlock: CIFDUS_clean_linker_0, # of connection points: 2
#     Edge 18, Type (0, 0), BuildingBlock: CIFDUS_clean_linker_0, # of connection points: 2
#     Edge 19, Type (0, 0), BuildingBlock: CIFDUS_clean_linker_0, # of connection points: 2
#     Edge 20, Type (0, 0), BuildingBlock: CIFDUS_clean_linker_0, # of connection points: 2
#     Edge 21, Type (0, 0), BuildingBlock: CIFDUS_clean_linker_0, # of connection points: 2
#     Edge 22, Type (0, 0), BuildingBlock: CIFDUS_clean_linker_0, # of connection points: 2
#     Edge 23, Type (0, 0), BuildingBlock: CIFDUS_clean_linker_0, # of connection points: 2
#     Edge 24, Type (0, 0), BuildingBlock: CIFDUS_clean_linker_0, # of connection points: 2
#     Edge 25, Type (0, 0), BuildingBlock: CIFDUS_clean_linker_0, # of connection points: 2
#     Edge 26, Type (0, 0), BuildingBlock: CIFDUS_clean_linker_0, # of connection points: 2
#     Edge 27, Type (0, 0), BuildingBlock: CIFDUS_clean_linker_0, # of connection points: 2
# Relax obj value: 0.006
# Max RMSD: 0.049
# Mean RMSD: 0.049
data_MOF--net-fcu--node1-UKIBUN_clean_sbu_0--edge1-CIFDUS_clean_linker_0
_symmetry_space_group_name_H-M    P1
_symmetry_Int_Tables_number       1
_symmetry_cell_setting            triclinic
loop_
_symmetry_equiv_pos_as_xyz
'x, y, z'
_cell_length_a     23.744678
_cell_length_b     23.821202
_cell_length_c     23.807064
_cell_angle_alpha  90.075667
_cell_angle_beta   90.005778
_cell_angle_gamma 89.992568
loop_
_atom_site_label
_atom_site_type_symbol
_atom_site_fract_x
_atom_site_fract_y
_atom_site_fract_z
_atom_type_partial_charge
C0 C 0.00574 0.13724 0.12131 0.0
C1 C 0.86477 0.12503 0.00178 0.0
O2 O 0.04891 0.04673 0.03978 0.0
O3 O 0.95563 0.95164 0.05006 0.0
O4 O 0.0492 0.9523 0.04551 0.0
O5 O 0.95383 0.04661 0.04478 0.0
Hf6 Hf 0.00416 0.00316 0.09913 0.0
O7 O 0.04402 0.04162 0.94569 0.0
Hf8 Hf 0.99879 0.09832 0.99218 0.0
O9 O 0.04459 0.94653 0.95011 0.0
Hf10 Hf 0.10041 0.99596 0.99224 0.0
O11 O 0.9488 0.04157 0.9506 0.0
Hf12 Hf 0.0005 0.89545 0.00297 0.0
Hf13 Hf 0.89897 0.99474 0.00282 0.0
O14 O 0.94957 0.94514 0.95466 0.0
Hf15 Hf 0.99361 0.99162 0.89735 0.0
C16 C 0.87149 0.86223 0.01294 0.0
C17 C 0.13288 0.12621 0.9821 0.0
C18 C 0.13064 0.86409 0.004 0.0
C19 C 0.1386 0.00413 0.12168 0.0
O20 O 0.08774 0.00455 0.14125 0.0
O21 O 0.92421 0.0024 0.14952 0.0
C22 C 0.87215 0.99582 0.13422 0.0
O23 O 0.91069 0.98801 0.85503 0.0
O24 O 0.00116 0.84508 0.92316 0.0
O25 O 0.00216 0.8542 0.08683 0.0
O26 O 0.07015 0.99062 0.8456 0.0
O27 O 0.99479 0.14054 0.90935 0.0
O28 O 0.00345 0.1501 0.06877 0.0
O29 O 0.85064 0.073 0.00519 0.0
O30 O 0.85353 0.91336 0.00925 0.0
C31 C 0.12274 0.98894 0.85857 0.0
O32 O 0.14773 0.91516 0.99664 0.0
O33 O 0.1479 0.07431 0.98285 0.0
C34 C 0.85997 0.98845 0.87454 0.0
O35 O 0.99042 0.06832 0.84594 0.0
O36 O 0.00608 0.92646 0.15047 0.0
O37 O 0.00597 0.08661 0.14094 0.0
O38 O 0.99723 0.91119 0.85318 0.0
O39 O 0.84678 0.99088 0.92687 0.0
O40 O 0.14242 0.98972 0.90921 0.0
C41 C 0.00073 0.86039 0.87083 0.0
O42 O 0.15172 0.00199 0.06916 0.0
O43 O 0.08129 0.14407 0.98612 0.0
O44 O 0.85486 0.9923 0.08327 0.0
O45 O 0.07908 0.84855 0.00739 0.0
O46 O 0.9232 0.84696 0.01074 0.0
O47 O 0.91596 0.14329 0.99578 0.0
C48 C 0.9918 0.12086 0.8588 0.0
C49 C 0.00425 0.87393 0.13753 0.0
C50 C 0.97988 0.63289 0.62622 0.0
C51 C 0.85879 0.62053 0.48676 0.0
O52 O 0.04039 0.55077 0.54695 0.0
O53 O 0.95166 0.44891 0.54638 0.0
O54 O 0.04688 0.45573 0.55152 0.0
O55 O 0.94573 0.54423 0.5415 0.0
Hf56 Hf 0.99275 0.50206 0.59957 0.0
O57 O 0.04513 0.54571 0.45193 0.0
Hf58 Hf 0.99232 0.5991 0.49442 0.0
O59 O 0.05173 0.4515 0.4566 0.0
Hf60 Hf 0.09958 0.5048 0.50461 0.0
O61 O 0.95104 0.53988 0.4468 0.0
Hf62 Hf 0.00577 0.39684 0.50448 0.0
Hf63 Hf 0.8983 0.49092 0.49378 0.0
O64 O 0.95729 0.44463 0.45177 0.0
Hf65 Hf 0.0038 0.49239 0.39775 0.0
C66 C 0.87662 0.35746 0.4993 0.0
C67 C 0.12196 0.6384 0.50079 0.0
C68 C 0.13962 0.37565 0.51015 0.0
C69 C 0.12199 0.51073 0.63823 0.0
O70 O 0.06931 0.50993 0.65119 0.0
O71 O 0.90983 0.49724 0.64156 0.0
C72 C 0.85924 0.49357 0.62204 0.0
O73 O 0.92418 0.48663 0.34726 0.0
O74 O 0.01133 0.34575 0.42748 0.0
O75 O 0.00459 0.35396 0.58715 0.0
O76 O 0.08736 0.49425 0.35557 0.0
O77 O 0.9948 0.6413 0.41099 0.0
O78 O 0.985 0.6487 0.5743 0.0
O79 O 0.84611 0.56778 0.4875 0.0
O80 O 0.85693 0.40785 0.49592 0.0
C81 C 0.13803 0.49951 0.37498 0.0
O82 O 0.15226 0.42836 0.50912 0.0
O83 O 0.14151 0.58788 0.50392 0.0
C84 C 0.87203 0.48119 0.36261 0.0
O85 O 0.00274 0.56954 0.34713 0.0
O86 O 0.99624 0.42546 0.65093 0.0
O87 O 0.98101 0.58187 0.64355 0.0
O88 O 0.00907 0.40936 0.35543 0.0
O89 O 0.85443 0.48099 0.41359 0.0
O90 O 0.15083 0.50454 0.4274 0.0
C91 C 0.01139 0.35873 0.37492 0.0
O92 O 0.14165 0.5091 0.58763 0.0
O93 O 0.06927 0.65121 0.49701 0.0
O94 O 0.84621 0.49117 0.56971 0.0
O95 O 0.08907 0.35576 0.50907 0.0
O96 O 0.92924 0.34465 0.50288 0.0
O97 O 0.9093 0.64043 0.48873 0.0
C98 C 0.99906 0.62193 0.36027 0.0
C99 C 0.00075 0.3732 0.6378 0.0
C100 C 0.49245 0.12711 0.63419 0.0
C101 C 0.35812 0.11985 0.50625 0.0
O102 O 0.54643 0.05015 0.5457 0.0
O103 O 0.45835 0.94786 0.54866 0.0
O104 O 0.55385 0.95437 0.54498 0.0
O105 O 0.451 0.04215 0.5495 0.0
Hf106 Hf 0.50505 -0.00148 0.59994 0.0
O107 O 0.54137 0.04987 0.45057 0.0
Hf108 Hf 0.4921 0.09952 0.50116 0.0
O109 O 0.54879 0.95523 0.4496 0.0
Hf110 Hf 0.6006 0.00647 0.49522 0.0
O111 O 0.44767 0.04235 0.4543 0.0
Hf112 Hf 0.50771 0.89799 0.49949 0.0
Hf113 Hf 0.39929 0.99101 0.50366 0.0
O114 O 0.4549 0.94834 0.45341 0.0
Hf115 Hf 0.4964 -0.00068 0.39709 0.0
C116 C 0.3783 0.8573 0.50137 0.0
C117 C 0.62087 0.14021 0.49721 0.0
C118 C 0.64135 0.87724 0.49264 0.0
C119 C 0.63844 0.00597 0.62403 0.0
O120 O 0.58765 0.00224 0.6431 0.0
O121 O 0.42806 0.99359 0.65062 0.0
C122 C 0.3757 0.98946 0.63734 0.0
O123 O 0.41328 0.99559 0.35415 0.0
O124 O 0.51111 0.85128 0.42018 0.0
O125 O 0.50858 0.85129 0.58082 0.0
O126 O 0.57672 0.00601 0.34795 0.0
O127 O 0.48414 0.14746 0.42285 0.0
O128 O 0.4904 0.14509 0.58295 0.0
O129 O 0.34586 0.06705 0.50619 0.0
O130 O 0.35823 0.90762 0.50393 0.0
C131 C 0.62835 0.01386 0.36408 0.0
O132 O 0.65353 0.93004 0.48999 0.0
O133 O 0.64107 0.08992 0.49628 0.0
C134 C 0.36241 0.99162 0.37338 0.0
O135 O 0.49009 0.08188 0.35232 0.0
O136 O 0.50735 0.9206 0.64755 0.0
O137 O 0.49855 0.0757 0.64896 0.0
O138 O 0.5003 0.91738 0.35087 0.0
O139 O 0.3491 0.9889 0.42584 0.0
O140 O 0.64511 0.01587 0.41533 0.0
C141 C 0.50713 0.8662 0.36838 0.0
O142 O 0.6519 0.00825 0.57177 0.0
O143 O 0.56805 0.15264 0.49861 0.0
O144 O 0.35642 0.98744 0.58654 0.0
O145 O 0.59114 0.85717 0.49767 0.0
O146 O 0.4312 0.84501 0.49895 0.0
O147 O 0.40852 0.14004 0.50473 0.0
C148 C 0.48494 0.13302 0.37072 0.0
C149 C 0.50697 0.86898 0.63228 0.0
C150 C 0.48785 0.63358 0.12596 0.0
C151 C 0.36861 0.63098 0.98289 0.0
O152 O 0.54397 0.54874 0.04732 0.0
O153 O 0.4517 0.45239 0.04205 0.0
O154 O 0.54575 0.45314 0.04712 0.0
O155 O 0.45006 0.54659 0.04237 0.0
Hf156 Hf 0.49559 0.49989 0.09951 0.0
O157 O 0.54947 0.54783 0.9516 0.0
Hf158 Hf 0.49826 0.60031 0.99554 0.0
O159 O 0.55097 0.45286 0.95297 0.0
Hf160 Hf 0.60072 0.50255 0.00277 0.0
O161 O 0.45419 0.5463 0.94609 0.0
Hf162 Hf 0.50144 0.39806 0.9968 0.0
Hf163 Hf 0.39921 0.49924 0.99192 0.0
O164 O 0.45529 0.45105 0.94724 0.0
Hf165 Hf 0.50587 0.49866 0.89668 0.0
C166 C 0.36737 0.36858 0.99641 0.0
C167 C 0.62694 0.63566 0.00046 0.0
C168 C 0.63595 0.37267 -0.00061 0.0
C169 C 0.62765 0.507 0.1343 0.0
O170 O 0.57544 0.50282 0.14987 0.0
O171 O 0.41202 0.49802 0.14161 0.0
C172 C 0.36117 0.49892 0.12194 0.0
O173 O 0.42884 0.4992 0.84521 0.0
O174 O 0.50452 0.35123 0.91565 0.0
O175 O 0.50297 0.35097 0.0758 0.0
O176 O 0.58904 0.49806 0.85487 0.0
O177 O 0.50679 0.64566 0.91401 0.0
O178 O 0.48845 0.64815 0.07388 0.0
O179 O 0.35147 0.57966 0.98765 0.0
O180 O 0.35199 0.42029 0.99385 0.0
C181 C 0.63968 0.50072 0.87444 0.0
O182 O 0.64992 0.42469 0.00355 0.0
O183 O 0.64553 0.58464 0.00193 0.0
C184 C 0.37618 0.49871 0.85828 0.0
O185 O 0.51248 0.57584 0.84808 0.0
O186 O 0.49658 0.41752 0.14542 0.0
O187 O 0.4915 0.58241 0.14437 0.0
O188 O 0.51084 0.42045 0.84933 0.0
O189 O 0.35665 0.49789 0.90897 0.0
O190 O 0.65271 0.50319 0.92678 0.0
C191 C 0.50949 0.3688 0.86443 0.0
O192 O 0.64501 0.50765 0.08322 0.0
O193 O 0.57494 0.64998 -7e-05 0.0
O194 O 0.34819 0.50035 0.06933 0.0
O195 O 0.58466 0.35396 0.99683 0.0
O196 O 0.41927 0.35118 0.99681 0.0
O197 O 0.42014 0.64695 0.98392 0.0
C198 C 0.5126 0.62758 0.863 0.0
C199 C 0.50077 0.36601 0.12772 0.0
H200 H 0.01006 0.13234 0.23604 0.0
H201 H 0.00709 0.24979 0.09783 0.0
H202 H 0.00981 0.32801 0.1635 0.0
H203 H 0.01146 0.36373 0.26008 0.0
H204 H 0.01442 0.24621 0.39825 0.0
H205 H 0.01346 0.16803 0.33253 0.0
C206 C 0.01006 0.17497 0.22012 0.0
C207 C 0.00814 0.18471 0.16185 0.0
C208 C 0.01164 0.22014 0.25814 0.0
C209 C 0.00834 0.24057 0.14235 0.0
C210 C 0.00993 0.28559 0.17991 0.0
C211 C 0.01207 0.32109 0.27597 0.0
C212 C 0.01289 0.31133 0.33426 0.0
C213 C 0.01136 0.27592 0.23791 0.0
C214 C 0.01375 0.25546 0.35372 0.0
C215 C 0.01313 0.21045 0.31613 0.0
H216 H 0.85148 0.0605 0.2273 0.0
H217 H 0.79025 0.91789 0.13389 0.0
H218 H 0.70657 0.91324 0.19309 0.0
H219 H 0.64936 0.95038 0.2711 0.0
H220 H 0.71065 0.09208 0.36568 0.0
H221 H 0.79434 0.09729 0.30617 0.0
C222 C 0.82024 0.02791 0.22079 0.0
C223 C 0.82721 0.98937 0.17671 0.0
C224 C 0.77133 0.0261 0.25444 0.0
C225 C 0.78585 0.94793 0.16786 0.0
C226 C 0.73774 0.94544 0.20139 0.0
C227 C 0.68058 0.98296 0.27779 0.0
C228 C 0.67354 0.02122 0.32204 0.0
C229 C 0.72952 0.98475 0.24435 0.0
C230 C 0.71501 0.06244 0.33136 0.0
C231 C 0.76313 0.06518 0.29769 0.0
H232 H 0.00705 0.75917 0.1332 0.0
H233 H 0.99959 0.89813 0.2499 0.0
H234 H 0.997 0.83312 0.32844 0.0
H235 H 0.9966 0.73682 0.36476 0.0
H236 H 0.00435 0.59798 0.24791 0.0
H237 H 0.00702 0.663 0.16948 0.0
C238 C 0.00488 0.77537 0.17575 0.0
C239 C 0.00358 0.83366 0.18517 0.0
C240 C 0.00338 0.73772 0.22114 0.0
C241 C 0.00085 0.85356 0.24091 0.0
C242 C 0.99926 0.81638 0.28614 0.0
C243 C 0.99879 0.72066 0.32221 0.0
C244 C 0.00019 0.66237 0.31276 0.0
C245 C 0.00045 0.75835 0.27682 0.0
C246 C 0.00317 0.64253 0.25698 0.0
C247 C 0.00472 0.67972 0.21179 0.0
H248 H 0.36591 0.01089 0.26006 0.0
H249 H 0.25113 0.97128 0.39521 0.0
H250 H 0.17229 0.97299 0.33011 0.0
H251 H 0.13516 0.98555 0.23487 0.0
H252 H 0.24973 0.02476 0.09953 0.0
H253 H 0.32874 0.02341 0.16469 0.0
C254 C 0.32375 0.00239 0.27534 0.0
C255 C 0.31491 0.99105 0.33267 0.0
C256 C 0.27814 0.00353 0.23764 0.0
C257 C 0.25963 0.98037 0.35146 0.0
C258 C 0.21424 0.98133 0.31422 0.0
C259 C 0.17732 0.99414 0.21959 0.0
C260 C 0.18615 0.00521 0.16223 0.0
C261 C 0.22292 0.99303 0.25725 0.0
C262 C 0.24138 0.01582 0.14334 0.0
C263 C 0.28679 0.0151 0.18061 0.0
H264 H 0.9365 0.76739 0.85061 0.0
H265 H 0.07759 0.86225 0.78803 0.0
H266 H 0.08103 0.80396 0.7036 0.0
H267 H 0.04309 0.7262 0.64637 0.0
H268 H 0.90235 0.63083 0.70898 0.0
H269 H 0.89855 0.68941 0.79327 0.0
C270 C 0.96859 0.7743 0.81894 0.0
C271 C 0.00728 0.81827 0.82579 0.0
C272 C 0.96944 0.74141 0.76963 0.0
C273 C 0.04781 0.828 0.7838 0.0
C274 C 0.04947 0.79509 0.73527 0.0
C275 C 0.01094 0.71924 0.67798 0.0
C276 C 0.97251 0.67504 0.67117 0.0
C277 C 0.01003 0.75211 0.72725 0.0
C278 C 0.93195 0.66524 0.71314 0.0
C279 C 0.93009 0.69832 0.7616 0.0
H280 H 0.23736 0.99372 0.86342 0.0
H281 H 0.09887 0.97752 0.74666 0.0
H282 H 0.16456 0.97522 0.66835 0.0
H283 H 0.26112 0.97968 0.63239 0.0
H284 H 0.39937 0.99571 0.74957 0.0
H285 H 0.33378 0.99596 0.82775 0.0
C286 C 0.22142 0.9895 0.82093 0.0
C287 C 0.16315 0.98614 0.81126 0.0
C288 C 0.25937 0.98823 0.77581 0.0
C289 C 0.14348 0.98062 0.75566 0.0
C290 C 0.18101 0.97921 0.71064 0.0
C291 C 0.27701 0.9831 0.67497 0.0
C292 C 0.3352 0.98786 0.68467 0.0
C293 C 0.23904 0.98333 0.72016 0.0
C294 C 0.35483 0.99208 0.74041 0.0
C295 C 0.31735 0.99227 0.78543 0.0
H296 H 0.98663 0.25958 0.63285 0.0
H297 H 0.0156 0.39584 0.74932 0.0
H298 H 0.01439 0.33029 0.82758 0.0
H299 H 0.0054 0.23452 0.86337 0.0
H300 H 0.97608 0.09809 0.74711 0.0
H301 H 0.97713 0.16363 0.66882 0.0
C302 C 0.99294 0.27497 0.67528 0.0
C303 C 0.00116 0.33264 0.68493 0.0
C304 C 0.992 0.23706 0.7204 0.0
C305 C 0.00886 0.35174 0.74042 0.0
C306 C 0.00826 0.31427 0.78538 0.0
C307 C 0.99902 0.219 0.821 0.0
C308 C 0.99079 0.1613 0.81149 0.0
C309 C -0.00026 0.25687 0.7759 0.0
C310 C 0.98275 0.1422 0.75601 0.0
C311 C 0.98333 0.17966 0.711 0.0
H312 H 0.63482 0.97932 0.73509 0.0
H313 H 0.7481 0.0338 0.60392 0.0
H314 H 0.82667 0.03157 0.66942 0.0
H315 H 0.86349 0.01438 0.76366 0.0
H316 H 0.75049 0.96034 0.89512 0.0
H317 H 0.67172 0.96215 0.82953 0.0
C318 C 0.67659 0.99103 0.72086 0.0
C319 C 0.68539 0.0066 0.66467 0.0
C320 C 0.72181 0.98952 0.75865 0.0
C321 C 0.74 0.0213 0.6469 0.0
C322 C 0.78509 0.02008 0.68429 0.0
C323 C 0.82173 0.00258 0.77789 0.0
C324 C 0.81294 0.98729 0.83412 0.0
C325 C 0.77652 0.00404 0.74016 0.0
C326 C 0.75841 0.97264 0.85204 0.0
C327 C 0.71328 0.97361 0.8146 0.0
H328 H 0.36198 0.26049 0.95575 0.0
H329 H 0.26571 0.38555 0.04521 0.0
H330 H 0.18391 0.32406 0.04613 0.0
H331 H 0.13847 0.23438 0.02153 0.0
H332 H 0.2344 0.10908 0.93205 0.0
H333 H 0.31622 0.1707 0.9307 0.0
C334 C 0.32329 0.27392 0.97591 0.0
C335 C 0.32023 0.32762 0.00023 0.0
C336 C 0.27562 0.23842 0.97581 0.0
C337 C 0.26935 0.34457 0.02571 0.0
C338 C 0.22229 0.30945 0.02626 0.0
C339 C 0.17704 0.2209 0.00116 0.0
C340 C 0.17999 0.16712 0.97703 0.0
C341 C 0.22463 0.25641 0.00105 0.0
C342 C 0.23078 0.15015 0.95135 0.0
C343 C 0.27787 0.18534 0.95059 0.0
H344 H 0.26743 0.64011 0.03463 0.0
H345 H 0.37894 0.72447 0.9194 0.0
H346 H 0.31704 0.80624 0.91791 0.0
H347 H 0.23153 0.85459 0.95064 0.0
H348 H 0.12092 0.77029 0.06701 0.0
H349 H 0.18237 0.68845 0.06759 0.0
C350 C 0.27749 0.67609 0.00859 0.0
C351 C 0.32718 0.67637 0.97701 0.0
C352 C 0.24243 0.72348 0.00891 0.0
C353 C 0.34062 0.72353 0.9441 0.0
C354 C 0.3055 0.77038 0.94342 0.0
C355 C 0.22149 0.81857 0.97662 0.0
C356 C 0.17201 0.81838 0.00863 0.0
C357 C 0.25662 0.77116 0.97623 0.0
C358 C 0.15887 0.77121 0.04171 0.0
C359 C 0.19378 0.72428 0.04197 0.0
H360 H 0.63642 0.26051 0.02448 0.0
H361 H 0.74345 0.39501 0.96656 0.0
H362 H 0.82369 0.33165 0.96322 0.0
H363 H 0.86444 0.23763 0.97663 0.0
H364 H 0.75711 0.10353 0.03547 0.0
H365 H 0.67723 0.16685 0.03855 0.0
C366 C 0.67721 0.27584 0.01087 0.0
C367 C 0.68364 0.33249 0.99609 0.0
C368 C 0.72372 0.2392 0.00931 0.0
C369 C 0.73711 0.35169 0.97884 0.0
C370 C 0.78326 0.31545 0.97675 0.0
C371 C 0.82369 0.22232 0.99035 0.0
C372 C 0.81727 0.16565 0.00538 0.0
C373 C 0.77723 0.25909 0.99211 0.0
C374 C 0.76375 0.14674 0.02301 0.0
C375 C 0.71767 0.18297 0.02493 0.0
H376 H 0.76344 0.86032 0.97659 0.0
H377 H 0.88872 0.76125 0.06273 0.0
H378 H 0.8248 0.6813 0.06542 0.0
H379 H 0.73396 0.63855 0.04105 0.0
H380 H 0.6092 0.73804 0.95449 0.0
H381 H 0.67236 0.81831 0.95383 0.0
C382 C 0.77637 0.82144 0.9965 0.0
C383 C 0.83053 0.81651 0.01907 0.0
C384 C 0.7398 0.77538 0.99731 0.0
C385 C 0.84716 0.76578 0.04446 0.0
C386 C 0.81077 0.72 0.04601 0.0
C387 C 0.7209 0.67772 0.02183 0.0
C388 C 0.66717 0.68243 0.99813 0.0
C389 C 0.75724 0.72406 0.02189 0.0
C390 C 0.65038 0.73354 0.97358 0.0
C391 C 0.68637 0.77954 0.97311 0.0
H392 H 0.63452 0.48376 0.76163 0.0
H393 H 0.75116 0.51825 0.89684 0.0
H394 H 0.82916 0.51858 0.83074 0.0
H395 H 0.86439 0.50967 0.73494 0.0
H396 H 0.7479 0.47468 0.59973 0.0
H397 H 0.66988 0.47412 0.66586 0.0
C398 C 0.67693 0.49147 0.77673 0.0
C399 C 0.68677 0.50099 0.8341 0.0
C400 C 0.72177 0.49152 0.73862 0.0
C401 C 0.74218 0.51064 0.85288 0.0
C402 C 0.78695 0.5109 0.81515 0.0
C403 C 0.82202 0.50171 0.71984 0.0
C404 C 0.8122 0.49232 0.66245 0.0
C405 C 0.77721 0.50139 0.75797 0.0
C406 C 0.75685 0.4823 0.6437 0.0
C407 C 0.71207 0.48189 0.68145 0.0
H408 H 0.23643 0.50212 0.63278 0.0
H409 H 0.09918 0.52122 0.75053 0.0
H410 H 0.16532 0.51872 0.82856 0.0
H411 H 0.26185 0.51006 0.86383 0.0
H412 H 0.39891 0.49066 0.74589 0.0
H413 H 0.33286 0.49434 0.66792 0.0
C414 C 0.22085 0.50606 0.67543 0.0
C415 C 0.16275 0.51184 0.68543 0.0
C416 C 0.25905 0.50431 0.72037 0.0
C417 C 0.1436 0.51666 0.74124 0.0
C418 C 0.18141 0.51517 0.7861 0.0
C419 C 0.27739 0.50645 0.82114 0.0
C420 C 0.33541 0.49998 0.8111 0.0
C421 C 0.23919 0.5087 0.77618 0.0
C422 C 0.35455 0.49571 0.75524 0.0
C423 C 0.3168 0.49782 0.71041 0.0
H424 H 0.13348 0.49504 0.26007 0.0
H425 H 0.25082 0.50422 0.39861 0.0
H426 H 0.32945 0.50455 0.33324 0.0
H427 H 0.36567 0.50254 0.23683 0.0
H428 H 0.2484 0.49352 0.09825 0.0
H429 H 0.16974 0.4928 0.16362 0.0
C430 C 0.17618 0.49708 0.27611 0.0
C431 C 0.18573 0.49965 0.33443 0.0
C432 C 0.22165 0.49731 0.23823 0.0
C433 C 0.24169 0.50232 0.35407 0.0
C434 C 0.28698 0.50247 0.31667 0.0
C435 C 0.32298 0.50036 0.22078 0.0
C436 C 0.31345 0.4982 0.16246 0.0
C437 C 0.27751 0.50003 0.25865 0.0
C438 C 0.25749 0.49542 0.14279 0.0
C439 C 0.2122 0.49495 0.1802 0.0
H440 H 0.64785 0.44083 0.22582 0.0
H441 H 0.71079 0.58388 0.1348 0.0
H442 H 0.79508 0.58606 0.19357 0.0
H443 H 0.85215 0.5465 0.27071 0.0
H444 H 0.78909 0.40384 0.36224 0.0
H445 H 0.70497 0.40129 0.30312 0.0
C446 C 0.67957 0.47304 0.21981 0.0
C447 C 0.67284 0.51258 0.17668 0.0
C448 C 0.72882 0.47322 0.25299 0.0
C449 C 0.71492 0.55331 0.16823 0.0
C450 C 0.76338 0.55431 0.20146 0.0
C451 C 0.82049 0.51424 0.27672 0.0
C452 C 0.82716 0.47488 0.32002 0.0
C453 C 0.77127 0.51401 0.24353 0.0
C454 C 0.78508 0.43417 0.32856 0.0
C455 C 0.7367 0.43301 0.29517 0.0
H456 H 0.26352 0.86296 0.50675 0.0
H457 H 0.40094 0.74452 0.49495 0.0
H458 H 0.33412 0.66691 0.49396 0.0
H459 H 0.23685 0.63234 0.49612 0.0
H460 H 0.09962 0.75102 0.50769 0.0
H461 H 0.16648 0.82849 0.50904 0.0
C462 C 0.27909 0.82025 0.50398 0.0
C463 C 0.33745 0.80997 0.50097 0.0
C464 C 0.24045 0.7756 0.50335 0.0
C465 C 0.35641 0.75405 0.49739 0.0
C466 C 0.31818 0.70946 0.4968 0.0
C467 C 0.2214 0.67508 0.49905 0.0
C468 C 0.16304 0.68548 0.50174 0.0
C469 C 0.2601 0.71973 0.49975 0.0
C470 C 0.14415 0.74141 0.50532 0.0
C471 C 0.1824 0.78593 0.50618 0.0
H472 H 0.13314 0.26128 0.50731 0.0
H473 H 0.25276 0.39781 0.51636 0.0
H474 H 0.33028 0.33083 0.51644 0.0
H475 H 0.36437 0.23402 0.51265 0.0
H476 H 0.24486 0.09743 0.50346 0.0
H477 H 0.16723 0.16434 0.50481 0.0
C478 C 0.1761 0.27661 0.50949 0.0
C479 C 0.18679 0.33475 0.51173 0.0
C480 C 0.22067 0.23789 0.5094 0.0
C481 C 0.24296 0.35344 0.51448 0.0
C482 C 0.28748 0.31513 0.51451 0.0
C483 C 0.32141 0.21865 0.51098 0.0
C484 C 0.31078 0.16054 0.50788 0.0
C485 C 0.27682 0.25731 0.51174 0.0
C486 C 0.2546 0.14178 0.5059 0.0
C487 C 0.21003 0.18005 0.50664 0.0
H488 H 0.86568 0.73491 0.48762 0.0
H489 H 0.74544 0.59877 0.48168 0.0
H490 H 0.66818 0.6661 0.4821 0.0
H491 H 0.63453 0.76311 0.48616 0.0
H492 H 0.75472 0.89924 0.49276 0.0
H493 H 0.83206 0.83199 0.48992 0.0
C494 C 0.82265 0.71972 0.48623 0.0
C495 C 0.81172 0.66158 0.48479 0.0
C496 C 0.77825 0.75863 0.48675 0.0
C497 C 0.75544 0.64311 0.48292 0.0
C498 C 0.71107 0.68162 0.48321 0.0
C499 C 0.67758 0.7783 0.48705 0.0
C500 C 0.68851 0.83638 0.48995 0.0
C501 C 0.72199 0.73943 0.48552 0.0
C502 C 0.74478 0.85492 0.49059 0.0
C503 C 0.78916 0.81645 0.48901 0.0
H504 H 0.73527 0.13376 0.49785 0.0
H505 H 0.59793 0.25296 0.4962 0.0
H506 H 0.66495 0.33035 0.49652 0.0
H507 H 0.7621 0.36424 0.49766 0.0
H508 H 0.89924 0.24478 0.49983 0.0
H509 H 0.83221 0.16755 0.49896 0.0
C510 C 0.71977 0.17659 0.4975 0.0
C511 C 0.66151 0.18728 0.49701 0.0
C512 C 0.75842 0.22098 0.49784 0.0
C513 C 0.6425 0.24326 0.49662 0.0
C514 C 0.68079 0.28766 0.4968 0.0
C515 C 0.77751 0.32137 0.49791 0.0
C516 C 0.83576 0.31059 0.49886 0.0
C517 C 0.73881 0.27698 0.49748 0.0
C518 C 0.8547 0.25458 0.49923 0.0
C519 C 0.8164 0.21024 0.49868 0.0
H520 H 0.46783 0.26212 0.86048 0.0
H521 H 0.55969 0.38477 0.76347 0.0
H522 H 0.55941 0.32267 0.68238 0.0
H523 H 0.5328 0.23356 0.63815 0.0
H524 H 0.44285 0.10979 0.73513 0.0
H525 H 0.44207 0.17227 0.8164 0.0
C526 C 0.48829 0.27484 0.82179 0.0
C527 C 0.51343 0.32793 0.81802 0.0
C528 C 0.48774 0.23904 0.77487 0.0
C529 C 0.53948 0.34417 0.76738 0.0
C530 C 0.53934 0.30879 0.72083 0.0
C531 C 0.5125 0.22073 0.6769 0.0
C532 C 0.48789 0.1675 0.68074 0.0
C533 C 0.51314 0.25636 0.72386 0.0
C534 C 0.46234 0.15076 0.73138 0.0
C535 C 0.46196 0.18631 0.77792 0.0
H536 H 0.54989 0.7628 0.63858 0.0
H537 H 0.45269 0.88533 0.73066 0.0
H538 H 0.44845 0.82332 0.81154 0.0
H539 H 0.47212 0.73411 0.85679 0.0
H540 H 0.56878 0.61093 0.76515 0.0
H541 H 0.57405 0.67331 0.68432 0.0
C542 C 0.52749 0.77551 0.67622 0.0
C543 C 0.50201 0.82848 0.67871 0.0
C544 C 0.52555 0.73981 0.72311 0.0
C545 C 0.47331 0.84482 0.72791 0.0
C546 C 0.47079 0.80947 0.7743 0.0
C547 C 0.4948 0.72131 0.81935 0.0
C548 C 0.51974 0.66813 0.81688 0.0
C549 C 0.4971 0.75703 0.7726 0.0
C550 C 0.5487 0.6517 0.76788 0.0
C551 C 0.55174 0.68724 0.72154 0.0
H552 H 0.5317 0.63958 0.23183 0.0
H553 H 0.43547 0.73391 0.11066 0.0
H554 H 0.43471 0.81519 0.17306 0.0
H555 H 0.46207 0.86044 0.26231 0.0
H556 H 0.55962 0.76592 0.38253 0.0
H557 H 0.5596 0.68484 0.3204 0.0
C558 C 0.51002 0.6777 0.21945 0.0
C559 C 0.48362 0.68049 0.16677 0.0
C560 C 0.51049 0.72485 0.2552 0.0
C561 C 0.45637 0.73061 0.15098 0.0
C562 C 0.45598 0.77728 0.18659 0.0
C563 C 0.48377 0.82231 0.27457 0.0
C564 C 0.51054 0.81947 0.32714 0.0
C565 C 0.48334 0.77517 0.23866 0.0
C566 C 0.53813 0.76936 0.34252 0.0
C567 C 0.53817 0.72272 0.30703 0.0
H568 H 0.52516 0.13844 0.26296 0.0
H569 H 0.43543 0.23477 0.38778 0.0
H570 H 0.43416 0.316 0.32573 0.0
H571 H 0.45916 0.36094 0.23561 0.0
H572 H 0.54964 0.26422 0.11148 0.0
H573 H 0.55024 0.18318 0.17334 0.0
C574 C 0.5048 0.17698 0.27629 0.0
C575 C 0.48049 0.18018 0.33 0.0
C576 C 0.50475 0.22418 0.24057 0.0
C577 C 0.45484 0.23094 0.34676 0.0
C578 C 0.45411 0.27767 0.31131 0.0
C579 C 0.4794 0.32231 0.22238 0.0
C580 C 0.50401 0.31898 0.16876 0.0
C581 C 0.47936 0.27508 0.25821 0.0
C582 C 0.52976 0.26817 0.15227 0.0
C583 C 0.5302 0.22151 0.18764 0.0
loop_
_geom_bond_atom_site_label_1
_geom_bond_atom_site_label_2
_geom_bond_distance
_geom_bond_site_symmetry_2
_ccdc_geom_bond_type
C0 O28 1.281 . S
C0 O37 1.281 . S
C1 O29 1.281 . S
C1 O47 1.281 . S
O2 Hf6 2.202 . S
O2 Hf8 2.202 . S
O2 Hf10 2.202 . S
O3 Hf6 2.202 1_665 S
O3 Hf12 2.202 1_655 S
O3 Hf13 2.202 1_565 S
O4 Hf6 2.072 1_565 S
O4 Hf10 2.072 1_565 S
O4 Hf12 2.072 . S
O5 Hf6 2.072 1_655 S
O5 Hf8 2.072 1_655 S
O5 Hf13 2.072 . S
Hf6 O2 2.202 . S
Hf6 O3 2.202 1_445 S
Hf6 O4 2.072 1_545 S
Hf6 O5 2.072 1_455 S
Hf6 O20 2.209 1_545 S
Hf6 O21 2.209 1_455 S
Hf6 O36 2.209 1_545 S
Hf6 O37 2.209 1_455 S
O7 Hf8 2.072 1_556 S
O7 Hf10 2.072 1_556 S
O7 Hf15 2.072 . S
Hf8 O2 2.202 . S
Hf8 O5 2.072 1_455 S
Hf8 O7 2.072 1_554 S
Hf8 O11 2.202 1_454 S
Hf8 O27 2.209 1_554 S
Hf8 O28 2.209 1_455 S
Hf8 O43 2.209 1_554 S
Hf8 O47 2.209 1_455 S
O9 Hf10 2.202 1_566 S
O9 Hf12 2.202 1_556 S
O9 Hf15 2.202 1_565 S
Hf10 O2 2.202 . S
Hf10 O4 2.072 1_545 S
Hf10 O7 2.072 1_554 S
Hf10 O9 2.202 1_544 S
Hf10 O32 2.209 1_545 S
Hf10 O33 2.209 1_554 S
Hf10 O40 2.209 1_554 S
Hf10 O42 2.209 1_545 S
O11 Hf8 2.202 1_656 S
O11 Hf13 2.202 1_556 S
O11 Hf15 2.202 1_655 S
Hf12 O3 2.202 1_455 S
Hf12 O4 2.072 . S
Hf12 O9 2.202 1_554 S
Hf12 O14 2.072 1_454 S
Hf12 O24 2.209 1_454 S
Hf12 O25 2.209 . S
Hf12 O45 2.209 . S
Hf12 O46 2.209 1_454 S
Hf13 O3 2.202 1_545 S
Hf13 O5 2.072 . S
Hf13 O11 2.202 1_554 S
Hf13 O14 2.072 1_544 S
Hf13 O29 2.209 . S
Hf13 O30 2.209 1_544 S
Hf13 O39 2.209 1_544 S
Hf13 O44 2.209 . S
O14 Hf12 2.072 1_656 S
O14 Hf13 2.072 1_566 S
O14 Hf15 2.072 1_665 S
Hf15 O7 2.072 . S
Hf15 O9 2.202 1_545 S
Hf15 O11 2.202 1_455 S
Hf15 O14 2.072 1_445 S
Hf15 O23 2.209 1_445 S
Hf15 O26 2.209 . S
Hf15 O35 2.209 . S
Hf15 O38 2.209 1_445 S
C16 O30 1.281 . S
C16 O46 1.281 . S
C17 O33 1.281 . S
C17 O43 1.281 . S
C18 O32 1.281 . S
C18 O45 1.281 . S
C19 O20 1.281 . S
C19 O42 1.281 . S
O20 Hf6 2.209 1_565 S
O20 C19 1.281 . S
O21 Hf6 2.209 1_655 S
O21 C22 1.281 . S
C22 O21 1.281 . S
C22 O44 1.281 . S
O23 Hf15 2.209 1_665 S
O23 C34 1.281 . S
O24 Hf12 2.209 1_656 S
O24 C41 1.281 . S
O25 Hf12 2.209 . S
O25 C49 1.281 . S
O26 Hf15 2.209 . S
O26 C31 1.281 . S
O27 Hf8 2.209 1_556 S
O27 C48 1.281 . S
O28 C0 1.281 . S
O28 Hf8 2.209 1_655 S
O29 C1 1.281 . S
O29 Hf13 2.209 . S
O30 Hf13 2.209 1_566 S
O30 C16 1.281 . S
C31 O26 1.281 . S
C31 O40 1.281 . S
O32 Hf10 2.209 1_565 S
O32 C18 1.281 . S
O33 Hf10 2.209 1_556 S
O33 C17 1.281 . S
C34 O23 1.281 . S
C34 O39 1.281 . S
O35 Hf15 2.209 . S
O35 C48 1.281 . S
O36 Hf6 2.209 1_565 S
O36 C49 1.281 . S
O37 C0 1.281 . S
O37 Hf6 2.209 1_655 S
O38 Hf15 2.209 1_665 S
O38 C41 1.281 . S
O39 Hf13 2.209 1_566 S
O39 C34 1.281 . S
O40 Hf10 2.209 1_556 S
O40 C31 1.281 . S
C41 O24 1.281 . S
C41 O38 1.281 . S
O42 Hf10 2.209 1_565 S
O42 C19 1.281 . S
O43 Hf8 2.209 1_556 S
O43 C17 1.281 . S
O44 Hf13 2.209 . S
O44 C22 1.281 . S
O45 Hf12 2.209 . S
O45 C18 1.281 . S
O46 Hf12 2.209 1_656 S
O46 C16 1.281 . S
O47 C1 1.281 . S
O47 Hf8 2.209 1_655 S
C48 O27 1.281 . S
C48 O35 1.281 . S
C49 O25 1.281 . S
C49 O36 1.281 . S
C50 O78 1.281 . S
C50 O87 1.281 . S
C51 O79 1.281 . S
C51 O97 1.281 . S
O52 Hf56 2.202 . S
O52 Hf58 2.202 . S
O52 Hf60 2.202 . S
O53 Hf56 2.202 1_655 S
O53 Hf62 2.202 1_655 S
O53 Hf63 2.202 . S
O54 Hf56 2.072 . S
O54 Hf60 2.072 . S
O54 Hf62 2.072 . S
O55 Hf56 2.072 1_655 S
O55 Hf58 2.072 1_655 S
O55 Hf63 2.072 . S
Hf56 O52 2.202 . S
Hf56 O53 2.202 1_455 S
Hf56 O54 2.072 . S
Hf56 O55 2.072 1_455 S
Hf56 O70 2.209 . S
Hf56 O71 2.209 1_455 S
Hf56 O86 2.209 . S
Hf56 O87 2.209 1_455 S
O57 Hf58 2.072 . S
O57 Hf60 2.072 . S
O57 Hf65 2.072 . S
Hf58 O52 2.202 . S
Hf58 O55 2.072 1_455 S
Hf58 O57 2.072 . S
Hf58 O61 2.202 1_455 S
Hf58 O77 2.209 . S
Hf58 O78 2.209 1_455 S
Hf58 O93 2.209 . S
Hf58 O97 2.209 1_455 S
O59 Hf60 2.202 . S
O59 Hf62 2.202 . S
O59 Hf65 2.202 . S
Hf60 O52 2.202 . S
Hf60 O54 2.072 . S
Hf60 O57 2.072 . S
Hf60 O59 2.202 . S
Hf60 O82 2.209 . S
Hf60 O83 2.209 . S
Hf60 O90 2.209 . S
Hf60 O92 2.209 . S
O61 Hf58 2.202 1_655 S
O61 Hf63 2.202 . S
O61 Hf65 2.202 1_655 S
Hf62 O53 2.202 1_455 S
Hf62 O54 2.072 . S
Hf62 O59 2.202 . S
Hf62 O64 2.072 1_455 S
Hf62 O74 2.209 1_455 S
Hf62 O75 2.209 . S
Hf62 O95 2.209 . S
Hf62 O96 2.209 1_455 S
Hf63 O53 2.202 . S
Hf63 O55 2.072 . S
Hf63 O61 2.202 . S
Hf63 O64 2.072 . S
Hf63 O79 2.209 . S
Hf63 O80 2.209 . S
Hf63 O89 2.209 . S
Hf63 O94 2.209 . S
O64 Hf62 2.072 1_655 S
O64 Hf63 2.072 . S
O64 Hf65 2.072 1_655 S
Hf65 O57 2.072 . S
Hf65 O59 2.202 . S
Hf65 O61 2.202 1_455 S
Hf65 O64 2.072 1_455 S
Hf65 O73 2.209 1_455 S
Hf65 O76 2.209 . S
Hf65 O85 2.209 . S
Hf65 O88 2.209 1_455 S
C66 O80 1.281 . S
C66 O96 1.281 . S
C67 O83 1.281 . S
C67 O93 1.281 . S
C68 O82 1.281 . S
C68 O95 1.281 . S
C69 O70 1.281 . S
C69 O92 1.281 . S
O70 Hf56 2.209 . S
O70 C69 1.281 . S
O71 Hf56 2.209 1_655 S
O71 C72 1.281 . S
C72 O71 1.281 . S
C72 O94 1.281 . S
O73 Hf65 2.209 1_655 S
O73 C84 1.281 . S
O74 Hf62 2.209 1_655 S
O74 C91 1.281 . S
O75 Hf62 2.209 . S
O75 C99 1.281 . S
O76 Hf65 2.209 . S
O76 C81 1.281 . S
O77 Hf58 2.209 . S
O77 C98 1.281 . S
O78 C50 1.281 . S
O78 Hf58 2.209 1_655 S
O79 C51 1.281 . S
O79 Hf63 2.209 . S
O80 Hf63 2.209 . S
O80 C66 1.281 . S
C81 O76 1.281 . S
C81 O90 1.281 . S
O82 Hf60 2.209 . S
O82 C68 1.281 . S
O83 Hf60 2.209 . S
O83 C67 1.281 . S
C84 O73 1.281 . S
C84 O89 1.281 . S
O85 Hf65 2.209 . S
O85 C98 1.281 . S
O86 Hf56 2.209 . S
O86 C99 1.281 . S
O87 C50 1.281 . S
O87 Hf56 2.209 1_655 S
O88 Hf65 2.209 1_655 S
O88 C91 1.281 . S
O89 Hf63 2.209 . S
O89 C84 1.281 . S
O90 Hf60 2.209 . S
O90 C81 1.281 . S
C91 O74 1.281 . S
C91 O88 1.281 . S
O92 Hf60 2.209 . S
O92 C69 1.281 . S
O93 Hf58 2.209 . S
O93 C67 1.281 . S
O94 Hf63 2.209 . S
O94 C72 1.281 . S
O95 Hf62 2.209 . S
O95 C68 1.281 . S
O96 Hf62 2.209 1_655 S
O96 C66 1.281 . S
O97 C51 1.281 . S
O97 Hf58 2.209 1_655 S
C98 O77 1.281 . S
C98 O85 1.281 . S
C99 O75 1.281 . S
C99 O86 1.281 . S
C100 O128 1.281 . S
C100 O137 1.281 . S
C101 O129 1.281 . S
C101 O147 1.281 . S
O102 Hf106 2.202 . S
O102 Hf108 2.202 . S
O102 Hf110 2.202 . S
O103 Hf106 2.202 1_565 S
O103 Hf112 2.202 . S
O103 Hf113 2.202 1_565 S
O104 Hf106 2.072 1_565 S
O104 Hf110 2.072 1_565 S
O104 Hf112 2.072 . S
O105 Hf106 2.072 . S
O105 Hf108 2.072 . S
O105 Hf113 2.072 . S
Hf106 O102 2.202 . S
Hf106 O103 2.202 1_545 S
Hf106 O104 2.072 1_545 S
Hf106 O105 2.072 . S
Hf106 O120 2.209 1_545 S
Hf106 O121 2.209 . S
Hf106 O136 2.209 1_545 S
Hf106 O137 2.209 . S
O107 Hf108 2.072 . S
O107 Hf110 2.072 . S
O107 Hf115 2.072 . S
Hf108 O102 2.202 . S
Hf108 O105 2.072 . S
Hf108 O107 2.072 . S
Hf108 O111 2.202 . S
Hf108 O127 2.209 . S
Hf108 O128 2.209 . S
Hf108 O143 2.209 . S
Hf108 O147 2.209 . S
O109 Hf110 2.202 1_565 S
O109 Hf112 2.202 . S
O109 Hf115 2.202 1_565 S
Hf110 O102 2.202 . S
Hf110 O104 2.072 1_545 S
Hf110 O107 2.072 . S
Hf110 O109 2.202 1_545 S
Hf110 O132 2.209 1_545 S
Hf110 O133 2.209 . S
Hf110 O140 2.209 . S
Hf110 O142 2.209 1_545 S
O111 Hf108 2.202 . S
O111 Hf113 2.202 . S
O111 Hf115 2.202 . S
Hf112 O103 2.202 . S
Hf112 O104 2.072 . S
Hf112 O109 2.202 . S
Hf112 O114 2.072 . S
Hf112 O124 2.209 . S
Hf112 O125 2.209 . S
Hf112 O145 2.209 . S
Hf112 O146 2.209 . S
Hf113 O103 2.202 1_545 S
Hf113 O105 2.072 . S
Hf113 O111 2.202 . S
Hf113 O114 2.072 1_545 S
Hf113 O129 2.209 . S
Hf113 O130 2.209 1_545 S
Hf113 O139 2.209 1_545 S
Hf113 O144 2.209 . S
O114 Hf112 2.072 . S
O114 Hf113 2.072 1_565 S
O114 Hf115 2.072 1_565 S
Hf115 O107 2.072 . S
Hf115 O109 2.202 1_545 S
Hf115 O111 2.202 . S
Hf115 O114 2.072 1_545 S
Hf115 O123 2.209 1_545 S
Hf115 O126 2.209 . S
Hf115 O135 2.209 . S
Hf115 O138 2.209 1_545 S
C116 O130 1.281 . S
C116 O146 1.281 . S
C117 O133 1.281 . S
C117 O143 1.281 . S
C118 O132 1.281 . S
C118 O145 1.281 . S
C119 O120 1.281 . S
C119 O142 1.281 . S
O120 Hf106 2.209 1_565 S
O120 C119 1.281 . S
O121 Hf106 2.209 . S
O121 C122 1.281 . S
C122 O121 1.281 . S
C122 O144 1.281 . S
O123 Hf115 2.209 1_565 S
O123 C134 1.281 . S
O124 Hf112 2.209 . S
O124 C141 1.281 . S
O125 Hf112 2.209 . S
O125 C149 1.281 . S
O126 Hf115 2.209 . S
O126 C131 1.281 . S
O127 Hf108 2.209 . S
O127 C148 1.281 . S
O128 C100 1.281 . S
O128 Hf108 2.209 . S
O129 C101 1.281 . S
O129 Hf113 2.209 . S
O130 Hf113 2.209 1_565 S
O130 C116 1.281 . S
C131 O126 1.281 . S
C131 O140 1.281 . S
O132 Hf110 2.209 1_565 S
O132 C118 1.281 . S
O133 Hf110 2.209 . S
O133 C117 1.281 . S
C134 O123 1.281 . S
C134 O139 1.281 . S
O135 Hf115 2.209 . S
O135 C148 1.281 . S
O136 Hf106 2.209 1_565 S
O136 C149 1.281 . S
O137 C100 1.281 . S
O137 Hf106 2.209 . S
O138 Hf115 2.209 1_565 S
O138 C141 1.281 . S
O139 Hf113 2.209 1_565 S
O139 C134 1.281 . S
O140 Hf110 2.209 . S
O140 C131 1.281 . S
C141 O124 1.281 . S
C141 O138 1.281 . S
O142 Hf110 2.209 1_565 S
O142 C119 1.281 . S
O143 Hf108 2.209 . S
O143 C117 1.281 . S
O144 Hf113 2.209 . S
O144 C122 1.281 . S
O145 Hf112 2.209 . S
O145 C118 1.281 . S
O146 Hf112 2.209 . S
O146 C116 1.281 . S
O147 C101 1.281 . S
O147 Hf108 2.209 . S
C148 O127 1.281 . S
C148 O135 1.281 . S
C149 O125 1.281 . S
C149 O136 1.281 . S
C150 O178 1.281 . S
C150 O187 1.281 . S
C151 O179 1.281 . S
C151 O197 1.281 . S
O152 Hf156 2.202 . S
O152 Hf158 2.202 . S
O152 Hf160 2.202 . S
O153 Hf156 2.202 . S
O153 Hf162 2.202 . S
O153 Hf163 2.202 . S
O154 Hf156 2.072 . S
O154 Hf160 2.072 . S
O154 Hf162 2.072 . S
O155 Hf156 2.072 . S
O155 Hf158 2.072 . S
O155 Hf163 2.072 . S
Hf156 O152 2.202 . S
Hf156 O153 2.202 . S
Hf156 O154 2.072 . S
Hf156 O155 2.072 . S
Hf156 O170 2.209 . S
Hf156 O171 2.209 . S
Hf156 O186 2.209 . S
Hf156 O187 2.209 . S
O157 Hf158 2.072 1_556 S
O157 Hf160 2.072 1_556 S
O157 Hf165 2.072 . S
Hf158 O152 2.202 . S
Hf158 O155 2.072 . S
Hf158 O157 2.072 1_554 S
Hf158 O161 2.202 1_554 S
Hf158 O177 2.209 1_554 S
Hf158 O178 2.209 . S
Hf158 O193 2.209 1_554 S
Hf158 O197 2.209 . S
O159 Hf160 2.202 1_556 S
O159 Hf162 2.202 1_556 S
O159 Hf165 2.202 . S
Hf160 O152 2.202 . S
Hf160 O154 2.072 . S
Hf160 O157 2.072 1_554 S
Hf160 O159 2.202 1_554 S
Hf160 O182 2.209 . S
Hf160 O183 2.209 1_554 S
Hf160 O190 2.209 1_554 S
Hf160 O192 2.209 . S
O161 Hf158 2.202 1_556 S
O161 Hf163 2.202 1_556 S
O161 Hf165 2.202 . S
Hf162 O153 2.202 . S
Hf162 O154 2.072 . S
Hf162 O159 2.202 1_554 S
Hf162 O164 2.072 1_554 S
Hf162 O174 2.209 1_554 S
Hf162 O175 2.209 . S
Hf162 O195 2.209 . S
Hf162 O196 2.209 1_554 S
Hf163 O153 2.202 . S
Hf163 O155 2.072 . S
Hf163 O161 2.202 1_554 S
Hf163 O164 2.072 1_554 S
Hf163 O179 2.209 . S
Hf163 O180 2.209 1_554 S
Hf163 O189 2.209 1_554 S
Hf163 O194 2.209 . S
O164 Hf162 2.072 1_556 S
O164 Hf163 2.072 1_556 S
O164 Hf165 2.072 . S
Hf165 O157 2.072 . S
Hf165 O159 2.202 . S
Hf165 O161 2.202 . S
Hf165 O164 2.072 . S
Hf165 O173 2.209 . S
Hf165 O176 2.209 . S
Hf165 O185 2.209 . S
Hf165 O188 2.209 . S
C166 O180 1.281 . S
C166 O196 1.281 . S
C167 O183 1.281 . S
C167 O193 1.281 . S
C168 O182 1.281 . S
C168 O195 1.281 . S
C169 O170 1.281 . S
C169 O192 1.281 . S
O170 Hf156 2.209 . S
O170 C169 1.281 . S
O171 Hf156 2.209 . S
O171 C172 1.281 . S
C172 O171 1.281 . S
C172 O194 1.281 . S
O173 Hf165 2.209 . S
O173 C184 1.281 . S
O174 Hf162 2.209 1_556 S
O174 C191 1.281 . S
O175 Hf162 2.209 . S
O175 C199 1.281 . S
O176 Hf165 2.209 . S
O176 C181 1.281 . S
O177 Hf158 2.209 1_556 S
O177 C198 1.281 . S
O178 C150 1.281 . S
O178 Hf158 2.209 . S
O179 C151 1.281 . S
O179 Hf163 2.209 . S
O180 Hf163 2.209 1_556 S
O180 C166 1.281 . S
C181 O176 1.281 . S
C181 O190 1.281 . S
O182 Hf160 2.209 . S
O182 C168 1.281 . S
O183 Hf160 2.209 1_556 S
O183 C167 1.281 . S
C184 O173 1.281 . S
C184 O189 1.281 . S
O185 Hf165 2.209 . S
O185 C198 1.281 . S
O186 Hf156 2.209 . S
O186 C199 1.281 . S
O187 C150 1.281 . S
O187 Hf156 2.209 . S
O188 Hf165 2.209 . S
O188 C191 1.281 . S
O189 Hf163 2.209 1_556 S
O189 C184 1.281 . S
O190 Hf160 2.209 1_556 S
O190 C181 1.281 . S
C191 O174 1.281 . S
C191 O188 1.281 . S
O192 Hf160 2.209 . S
O192 C169 1.281 . S
O193 Hf158 2.209 1_556 S
O193 C167 1.281 . S
O194 Hf163 2.209 . S
O194 C172 1.281 . S
O195 Hf162 2.209 . S
O195 C168 1.281 . S
O196 Hf162 2.209 1_556 S
O196 C166 1.281 . S
O197 C151 1.281 . S
O197 Hf158 2.209 . S
C198 O177 1.281 . S
C198 O185 1.281 . S
C199 O175 1.281 . S
C199 O186 1.281 . S
H200 C206 0.930 . S
H201 C209 0.930 . S
H202 C210 0.930 . S
H203 C211 0.930 . S
H204 C214 0.930 . S
H205 C215 0.930 . S
C206 H200 0.930 . S
C206 C207 1.355 . S
C206 C208 1.415 . S
C207 C206 1.355 . S
C207 C209 1.419 1_655 S
C208 C206 1.415 . S
C208 C213 1.428 . S
C208 C215 1.409 . S
C209 H201 0.930 . S
C209 C207 1.419 1_455 S
C209 C210 1.362 . S
C210 H202 0.930 . S
C210 C209 1.362 . S
C210 C213 1.407 1_455 S
C211 H203 0.930 . S
C211 C212 1.355 1_455 S
C211 C213 1.414 1_455 S
C212 C211 1.355 1_655 S
C212 C214 1.419 . S
C213 C208 1.428 . S
C213 C210 1.407 1_655 S
C213 C211 1.414 1_655 S
C214 H204 0.930 . S
C214 C212 1.419 . S
C214 C215 1.362 . S
C215 H205 0.930 . S
C215 C208 1.409 . S
C215 C214 1.362 . S
H216 C222 0.930 . S
H217 C225 0.930 . S
H218 C226 0.930 . S
H219 C227 0.930 1_565 S
H220 C230 0.930 . S
H221 C231 0.930 . S
C222 H216 0.930 . S
C222 C223 1.355 . S
C222 C224 1.415 . S
C223 C222 1.355 . S
C223 C225 1.419 1_545 S
C224 C222 1.415 . S
C224 C229 1.425 . S
C224 C231 1.409 . S
C225 H217 0.930 . S
C225 C223 1.419 1_565 S
C225 C226 1.362 . S
C226 H218 0.930 . S
C226 C225 1.362 . S
C226 C229 1.409 1_565 S
C227 H219 0.930 1_545 S
C227 C228 1.355 . S
C227 C229 1.415 . S
C228 C227 1.355 . S
C228 C230 1.419 . S
C229 C224 1.425 . S
C229 C226 1.409 1_545 S
C229 C227 1.415 . S
C230 H220 0.930 . S
C230 C228 1.419 . S
C230 C231 1.362 . S
C231 H221 0.930 . S
C231 C224 1.409 . S
C231 C230 1.362 . S
H232 C238 0.930 . S
H233 C241 0.930 . S
H234 C242 0.930 . S
H235 C243 0.930 . S
H236 C246 0.930 . S
H237 C247 0.930 . S
C238 H232 0.930 . S
C238 C239 1.355 . S
C238 C240 1.415 . S
C239 C238 1.355 . S
C239 C241 1.419 1_455 S
C240 C238 1.415 . S
C240 C245 1.425 1_455 S
C240 C247 1.409 . S
C241 H233 0.930 . S
C241 C239 1.419 1_655 S
C241 C242 1.362 . S
C242 H234 0.930 . S
C242 C241 1.362 . S
C242 C245 1.409 . S
C243 H235 0.930 . S
C243 C244 1.355 1_655 S
C243 C245 1.415 . S
C244 C243 1.355 1_455 S
C244 C246 1.419 . S
C245 C240 1.425 1_655 S
C245 C242 1.409 . S
C245 C243 1.415 . S
C246 H236 0.930 . S
C246 C244 1.419 . S
C246 C247 1.362 . S
C247 H237 0.930 . S
C247 C240 1.409 . S
C247 C246 1.362 . S
H248 C254 0.930 . S
H249 C257 0.930 . S
H250 C258 0.930 . S
H251 C259 0.930 . S
H252 C262 0.930 . S
H253 C263 0.930 . S
C254 H248 0.930 . S
C254 C255 1.355 1_545 S
C254 C256 1.415 . S
C255 C254 1.355 1_565 S
C255 C257 1.419 . S
C256 C254 1.415 . S
C256 C261 1.425 1_545 S
C256 C263 1.409 . S
C257 H249 0.930 . S
C257 C255 1.419 . S
C257 C258 1.362 . S
C258 H250 0.930 . S
C258 C257 1.362 . S
C258 C261 1.409 . S
C259 H251 0.930 . S
C259 C260 1.355 . S
C259 C261 1.415 . S
C260 C259 1.355 . S
C260 C262 1.419 1_565 S
C261 C256 1.425 1_565 S
C261 C258 1.409 . S
C261 C259 1.415 . S
C262 H252 0.930 . S
C262 C260 1.419 1_545 S
C262 C263 1.362 . S
C263 H253 0.930 . S
C263 C256 1.409 . S
C263 C262 1.362 . S
H264 C270 0.930 . S
H265 C273 0.930 . S
H266 C274 0.930 . S
H267 C275 0.930 . S
H268 C278 0.930 . S
H269 C279 0.930 . S
C270 H264 0.930 . S
C270 C271 1.355 . S
C270 C272 1.415 . S
C271 C270 1.355 . S
C271 C273 1.419 1_655 S
C272 C270 1.415 . S
C272 C277 1.425 1_655 S
C272 C279 1.409 . S
C273 H265 0.930 . S
C273 C271 1.419 1_455 S
C273 C274 1.362 . S
C274 H266 0.930 . S
C274 C273 1.362 . S
C274 C277 1.409 . S
C275 H267 0.930 . S
C275 C276 1.355 1_455 S
C275 C277 1.415 . S
C276 C275 1.355 1_655 S
C276 C278 1.419 . S
C277 C272 1.425 1_455 S
C277 C274 1.409 . S
C277 C275 1.415 . S
C278 H268 0.930 . S
C278 C276 1.419 . S
C278 C279 1.362 . S
C279 H269 0.930 . S
C279 C272 1.409 . S
C279 C278 1.362 . S
H280 C286 0.930 . S
H281 C289 0.930 . S
H282 C290 0.930 . S
H283 C291 0.930 . S
H284 C294 0.930 . S
H285 C295 0.930 . S
C286 H280 0.930 . S
C286 C287 1.355 . S
C286 C288 1.415 . S
C287 C286 1.355 . S
C287 C289 1.419 1_545 S
C288 C286 1.415 . S
C288 C293 1.425 . S
C288 C295 1.409 . S
C289 H281 0.930 . S
C289 C287 1.419 1_565 S
C289 C290 1.362 . S
C290 H282 0.930 . S
C290 C289 1.362 . S
C290 C293 1.409 1_565 S
C291 H283 0.930 . S
C291 C292 1.355 1_565 S
C291 C293 1.415 1_565 S
C292 C291 1.355 1_545 S
C292 C294 1.419 . S
C293 C288 1.425 . S
C293 C290 1.409 1_545 S
C293 C291 1.415 1_545 S
C294 H284 0.930 . S
C294 C292 1.419 . S
C294 C295 1.362 . S
C295 H285 0.930 . S
C295 C288 1.409 . S
C295 C294 1.362 . S
H296 C302 0.935 . S
H297 C305 0.930 . S
H298 C306 0.930 . S
H299 C307 0.930 . S
H300 C310 0.930 . S
H301 C311 0.930 . S
C302 H296 0.935 . S
C302 C303 1.351 1_655 S
C302 C304 1.413 1_655 S
C303 C302 1.351 1_455 S
C303 C305 1.419 . S
C304 C302 1.413 1_455 S
C304 C309 1.425 . S
C304 C311 1.409 1_455 S
C305 H297 0.930 . S
C305 C303 1.419 . S
C305 C306 1.362 . S
C306 H298 0.930 . S
C306 C305 1.362 . S
C306 C309 1.409 . S
C307 H299 0.930 . S
C307 C308 1.355 . S
C307 C309 1.415 . S
C308 C307 1.355 . S
C308 C310 1.419 1_455 S
C309 C304 1.425 . S
C309 C306 1.409 . S
C309 C307 1.415 . S
C310 H300 0.930 . S
C310 C308 1.419 1_655 S
C310 C311 1.362 . S
C311 H301 0.930 . S
C311 C304 1.409 1_655 S
C311 C310 1.362 . S
H312 C318 0.930 . S
H313 C321 0.930 . S
H314 C322 0.930 . S
H315 C323 0.930 . S
H316 C326 0.930 . S
H317 C327 0.930 . S
C318 H312 0.930 . S
C318 C319 1.355 . S
C318 C320 1.415 . S
C319 C318 1.355 . S
C319 C321 1.419 1_565 S
C320 C318 1.415 . S
C320 C325 1.425 1_565 S
C320 C327 1.409 . S
C321 H313 0.930 . S
C321 C319 1.419 1_545 S
C321 C322 1.362 . S
C322 H314 0.930 . S
C322 C321 1.362 . S
C322 C325 1.409 . S
C323 H315 0.930 . S
C323 C324 1.355 1_545 S
C323 C325 1.415 . S
C324 C323 1.355 1_565 S
C324 C326 1.419 . S
C325 C320 1.425 1_545 S
C325 C322 1.409 . S
C325 C323 1.415 . S
C326 H316 0.930 . S
C326 C324 1.419 . S
C326 C327 1.362 . S
C327 H317 0.930 . S
C327 C320 1.409 . S
C327 C326 1.362 . S
H328 C334 0.930 . S
H329 C337 0.930 . S
H330 C338 0.930 . S
H331 C339 0.930 . S
H332 C342 0.930 . S
H333 C343 0.930 . S
C334 H328 0.930 . S
C334 C335 1.355 . S
C334 C336 1.415 . S
C335 C334 1.355 . S
C335 C337 1.419 . S
C336 C334 1.415 . S
C336 C341 1.425 . S
C336 C343 1.409 . S
C337 H329 0.930 . S
C337 C335 1.419 . S
C337 C338 1.362 . S
C338 H330 0.930 . S
C338 C337 1.362 . S
C338 C341 1.409 . S
C339 H331 0.930 . S
C339 C340 1.355 . S
C339 C341 1.415 . S
C340 C339 1.355 . S
C340 C342 1.419 . S
C341 C336 1.425 . S
C341 C338 1.409 . S
C341 C339 1.415 . S
C342 H332 0.930 . S
C342 C340 1.419 . S
C342 C343 1.362 . S
C343 H333 0.930 . S
C343 C336 1.409 . S
C343 C342 1.362 . S
H344 C350 0.930 . S
H345 C353 0.930 . S
H346 C354 0.930 . S
H347 C355 0.930 . S
H348 C358 0.930 . S
H349 C359 0.930 . S
C350 H344 0.930 . S
C350 C351 1.355 . S
C350 C352 1.415 . S
C351 C350 1.355 . S
C351 C353 1.419 1_554 S
C352 C350 1.415 . S
C352 C357 1.425 1_554 S
C352 C359 1.409 . S
C353 H345 0.930 . S
C353 C351 1.419 1_556 S
C353 C354 1.362 . S
C354 H346 0.930 . S
C354 C353 1.362 . S
C354 C357 1.409 . S
C355 H347 0.930 . S
C355 C356 1.355 1_556 S
C355 C357 1.415 . S
C356 C355 1.355 1_554 S
C356 C358 1.419 . S
C357 C352 1.425 1_556 S
C357 C354 1.409 . S
C357 C355 1.415 . S
C358 H348 0.930 . S
C358 C356 1.419 . S
C358 C359 1.362 . S
C359 H349 0.930 . S
C359 C352 1.409 . S
C359 C358 1.362 . S
H360 C366 0.930 . S
H361 C369 0.930 . S
H362 C370 0.930 . S
H363 C371 0.930 . S
H364 C374 0.930 . S
H365 C375 0.930 . S
C366 H360 0.930 . S
C366 C367 1.355 . S
C366 C368 1.415 . S
C367 C366 1.355 . S
C367 C369 1.419 1_554 S
C368 C366 1.415 . S
C368 C373 1.425 1_554 S
C368 C375 1.409 . S
C369 H361 0.930 . S
C369 C367 1.419 1_556 S
C369 C370 1.362 . S
C370 H362 0.930 . S
C370 C369 1.362 . S
C370 C373 1.409 . S
C371 H363 0.930 . S
C371 C372 1.355 1_556 S
C371 C373 1.415 . S
C372 C371 1.355 1_554 S
C372 C374 1.419 . S
C373 C368 1.425 1_556 S
C373 C370 1.409 . S
C373 C371 1.415 . S
C374 H364 0.930 . S
C374 C372 1.419 . S
C374 C375 1.362 . S
C375 H365 0.930 . S
C375 C368 1.409 . S
C375 C374 1.362 . S
H376 C382 0.930 . S
H377 C385 0.930 . S
H378 C386 0.930 . S
H379 C387 0.930 . S
H380 C390 0.930 . S
H381 C391 0.930 . S
C382 H376 0.930 . S
C382 C383 1.355 . S
C382 C384 1.415 . S
C383 C382 1.355 . S
C383 C385 1.419 1_556 S
C384 C382 1.415 . S
C384 C389 1.425 1_556 S
C384 C391 1.409 . S
C385 H377 0.930 . S
C385 C383 1.419 1_554 S
C385 C386 1.362 . S
C386 H378 0.930 . S
C386 C385 1.362 . S
C386 C389 1.409 . S
C387 H379 0.930 . S
C387 C388 1.355 1_554 S
C387 C389 1.415 . S
C388 C387 1.355 1_556 S
C388 C390 1.419 . S
C389 C384 1.425 1_554 S
C389 C386 1.409 . S
C389 C387 1.415 . S
C390 H380 0.930 . S
C390 C388 1.419 . S
C390 C391 1.362 . S
C391 H381 0.930 . S
C391 C384 1.409 . S
C391 C390 1.362 . S
H392 C398 0.930 . S
H393 C401 0.930 . S
H394 C402 0.930 . S
H395 C403 0.930 . S
H396 C406 0.930 . S
H397 C407 0.930 . S
C398 H392 0.930 . S
C398 C399 1.355 . S
C398 C400 1.415 . S
C399 C398 1.355 . S
C399 C401 1.419 . S
C400 C398 1.415 . S
C400 C405 1.425 . S
C400 C407 1.409 . S
C401 H393 0.930 . S
C401 C399 1.419 . S
C401 C402 1.362 . S
C402 H394 0.930 . S
C402 C401 1.362 . S
C402 C405 1.409 . S
C403 H395 0.930 . S
C403 C404 1.355 . S
C403 C405 1.415 . S
C404 C403 1.355 . S
C404 C406 1.419 . S
C405 C400 1.425 . S
C405 C402 1.409 . S
C405 C403 1.415 . S
C406 H396 0.930 . S
C406 C404 1.419 . S
C406 C407 1.362 . S
C407 H397 0.930 . S
C407 C400 1.409 . S
C407 C406 1.362 . S
H408 C414 0.930 . S
H409 C417 0.930 . S
H410 C418 0.930 . S
H411 C419 0.930 . S
H412 C422 0.930 . S
H413 C423 0.930 . S
C414 H408 0.930 . S
C414 C415 1.355 . S
C414 C416 1.415 . S
C415 C414 1.355 . S
C415 C417 1.419 . S
C416 C414 1.415 . S
C416 C421 1.425 . S
C416 C423 1.409 . S
C417 H409 0.930 . S
C417 C415 1.419 . S
C417 C418 1.362 . S
C418 H410 0.930 . S
C418 C417 1.362 . S
C418 C421 1.409 . S
C419 H411 0.930 . S
C419 C420 1.355 . S
C419 C421 1.415 . S
C420 C419 1.355 . S
C420 C422 1.419 . S
C421 C416 1.425 . S
C421 C418 1.409 . S
C421 C419 1.415 . S
C422 H412 0.930 . S
C422 C420 1.419 . S
C422 C423 1.362 . S
C423 H413 0.930 . S
C423 C416 1.409 . S
C423 C422 1.362 . S
H424 C430 0.930 . S
H425 C433 0.930 . S
H426 C434 0.930 . S
H427 C435 0.930 . S
H428 C438 0.930 . S
H429 C439 0.930 . S
C430 H424 0.930 . S
C430 C431 1.355 . S
C430 C432 1.415 . S
C431 C430 1.355 . S
C431 C433 1.419 . S
C432 C430 1.415 . S
C432 C437 1.425 . S
C432 C439 1.409 . S
C433 H425 0.930 . S
C433 C431 1.419 . S
C433 C434 1.362 . S
C434 H426 0.930 . S
C434 C433 1.362 . S
C434 C437 1.409 . S
C435 H427 0.930 . S
C435 C436 1.355 . S
C435 C437 1.415 . S
C436 C435 1.355 . S
C436 C438 1.419 . S
C437 C432 1.425 . S
C437 C434 1.409 . S
C437 C435 1.415 . S
C438 H428 0.930 . S
C438 C436 1.419 . S
C438 C439 1.362 . S
C439 H429 0.930 . S
C439 C432 1.409 . S
C439 C438 1.362 . S
H440 C446 0.930 . S
H441 C449 0.930 . S
H442 C450 0.930 . S
H443 C451 0.930 . S
H444 C454 0.930 . S
H445 C455 0.930 . S
C446 H440 0.930 . S
C446 C447 1.355 . S
C446 C448 1.415 . S
C447 C446 1.355 . S
C447 C449 1.419 . S
C448 C446 1.415 . S
C448 C453 1.425 . S
C448 C455 1.409 . S
C449 H441 0.930 . S
C449 C447 1.419 . S
C449 C450 1.362 . S
C450 H442 0.930 . S
C450 C449 1.362 . S
C450 C453 1.409 . S
C451 H443 0.930 . S
C451 C452 1.355 . S
C451 C453 1.415 . S
C452 C451 1.355 . S
C452 C454 1.419 . S
C453 C448 1.425 . S
C453 C450 1.409 . S
C453 C451 1.415 . S
C454 H444 0.930 . S
C454 C452 1.419 . S
C454 C455 1.362 . S
C455 H445 0.930 . S
C455 C448 1.409 . S
C455 C454 1.362 . S
H456 C462 0.930 . S
H457 C465 0.930 . S
H458 C466 0.930 . S
H459 C467 0.930 . S
H460 C470 0.930 . S
H461 C471 0.930 . S
C462 H456 0.930 . S
C462 C463 1.355 . S
C462 C464 1.415 . S
C463 C462 1.355 . S
C463 C465 1.419 . S
C464 C462 1.415 . S
C464 C469 1.425 . S
C464 C471 1.409 . S
C465 H457 0.930 . S
C465 C463 1.419 . S
C465 C466 1.362 . S
C466 H458 0.930 . S
C466 C465 1.362 . S
C466 C469 1.409 . S
C467 H459 0.930 . S
C467 C468 1.355 . S
C467 C469 1.415 . S
C468 C467 1.355 . S
C468 C470 1.419 . S
C469 C464 1.425 . S
C469 C466 1.409 . S
C469 C467 1.415 . S
C470 H460 0.930 . S
C470 C468 1.419 . S
C470 C471 1.362 . S
C471 H461 0.930 . S
C471 C464 1.409 . S
C471 C470 1.362 . S
H472 C478 0.930 . S
H473 C481 0.930 . S
H474 C482 0.930 . S
H475 C483 0.930 . S
H476 C486 0.930 . S
H477 C487 0.930 . S
C478 H472 0.930 . S
C478 C479 1.355 . S
C478 C480 1.415 . S
C479 C478 1.355 . S
C479 C481 1.419 . S
C480 C478 1.415 . S
C480 C485 1.425 . S
C480 C487 1.409 . S
C481 H473 0.930 . S
C481 C479 1.419 . S
C481 C482 1.362 . S
C482 H474 0.930 . S
C482 C481 1.362 . S
C482 C485 1.409 . S
C483 H475 0.930 . S
C483 C484 1.355 . S
C483 C485 1.415 . S
C484 C483 1.355 . S
C484 C486 1.419 . S
C485 C480 1.425 . S
C485 C482 1.409 . S
C485 C483 1.415 . S
C486 H476 0.930 . S
C486 C484 1.419 . S
C486 C487 1.362 . S
C487 H477 0.930 . S
C487 C480 1.409 . S
C487 C486 1.362 . S
H488 C494 0.930 . S
H489 C497 0.930 . S
H490 C498 0.930 . S
H491 C499 0.930 . S
H492 C502 0.930 . S
H493 C503 0.930 . S
C494 H488 0.930 . S
C494 C495 1.355 . S
C494 C496 1.415 . S
C495 C494 1.355 . S
C495 C497 1.419 . S
C496 C494 1.415 . S
C496 C501 1.425 . S
C496 C503 1.409 . S
C497 H489 0.930 . S
C497 C495 1.419 . S
C497 C498 1.362 . S
C498 H490 0.930 . S
C498 C497 1.362 . S
C498 C501 1.409 . S
C499 H491 0.930 . S
C499 C500 1.355 . S
C499 C501 1.415 . S
C500 C499 1.355 . S
C500 C502 1.419 . S
C501 C496 1.425 . S
C501 C498 1.409 . S
C501 C499 1.415 . S
C502 H492 0.930 . S
C502 C500 1.419 . S
C502 C503 1.362 . S
C503 H493 0.930 . S
C503 C496 1.409 . S
C503 C502 1.362 . S
H504 C510 0.930 . S
H505 C513 0.930 . S
H506 C514 0.930 . S
H507 C515 0.930 . S
H508 C518 0.930 . S
H509 C519 0.930 . S
C510 H504 0.930 . S
C510 C511 1.355 . S
C510 C512 1.415 . S
C511 C510 1.355 . S
C511 C513 1.419 . S
C512 C510 1.415 . S
C512 C517 1.425 . S
C512 C519 1.409 . S
C513 H505 0.930 . S
C513 C511 1.419 . S
C513 C514 1.362 . S
C514 H506 0.930 . S
C514 C513 1.362 . S
C514 C517 1.409 . S
C515 H507 0.930 . S
C515 C516 1.355 . S
C515 C517 1.415 . S
C516 C515 1.355 . S
C516 C518 1.419 . S
C517 C512 1.425 . S
C517 C514 1.409 . S
C517 C515 1.415 . S
C518 H508 0.930 . S
C518 C516 1.419 . S
C518 C519 1.362 . S
C519 H509 0.930 . S
C519 C512 1.409 . S
C519 C518 1.362 . S
H520 C526 0.930 . S
H521 C529 0.930 . S
H522 C530 0.930 . S
H523 C531 0.930 . S
H524 C534 0.930 . S
H525 C535 0.930 . S
C526 H520 0.930 . S
C526 C527 1.355 . S
C526 C528 1.415 . S
C527 C526 1.355 . S
C527 C529 1.419 . S
C528 C526 1.415 . S
C528 C533 1.425 . S
C528 C535 1.409 . S
C529 H521 0.930 . S
C529 C527 1.419 . S
C529 C530 1.362 . S
C530 H522 0.930 . S
C530 C529 1.362 . S
C530 C533 1.409 . S
C531 H523 0.930 . S
C531 C532 1.355 . S
C531 C533 1.415 . S
C532 C531 1.355 . S
C532 C534 1.419 . S
C533 C528 1.425 . S
C533 C530 1.409 . S
C533 C531 1.415 . S
C534 H524 0.930 . S
C534 C532 1.419 . S
C534 C535 1.362 . S
C535 H525 0.930 . S
C535 C528 1.409 . S
C535 C534 1.362 . S
H536 C542 0.930 . S
H537 C545 0.930 . S
H538 C546 0.930 . S
H539 C547 0.930 . S
H540 C550 0.930 . S
H541 C551 0.930 . S
C542 H536 0.930 . S
C542 C543 1.355 . S
C542 C544 1.415 . S
C543 C542 1.355 . S
C543 C545 1.419 . S
C544 C542 1.415 . S
C544 C549 1.425 . S
C544 C551 1.409 . S
C545 H537 0.930 . S
C545 C543 1.419 . S
C545 C546 1.362 . S
C546 H538 0.930 . S
C546 C545 1.362 . S
C546 C549 1.409 . S
C547 H539 0.930 . S
C547 C548 1.355 . S
C547 C549 1.415 . S
C548 C547 1.355 . S
C548 C550 1.419 . S
C549 C544 1.425 . S
C549 C546 1.409 . S
C549 C547 1.415 . S
C550 H540 0.930 . S
C550 C548 1.419 . S
C550 C551 1.362 . S
C551 H541 0.930 . S
C551 C544 1.409 . S
C551 C550 1.362 . S
H552 C558 0.930 . S
H553 C561 0.930 . S
H554 C562 0.930 . S
H555 C563 0.930 . S
H556 C566 0.930 . S
H557 C567 0.930 . S
C558 H552 0.930 . S
C558 C559 1.355 . S
C558 C560 1.415 . S
C559 C558 1.355 . S
C559 C561 1.419 . S
C560 C558 1.415 . S
C560 C565 1.425 . S
C560 C567 1.409 . S
C561 H553 0.930 . S
C561 C559 1.419 . S
C561 C562 1.362 . S
C562 H554 0.930 . S
C562 C561 1.362 . S
C562 C565 1.409 . S
C563 H555 0.930 . S
C563 C564 1.355 . S
C563 C565 1.415 . S
C564 C563 1.355 . S
C564 C566 1.419 . S
C565 C560 1.425 . S
C565 C562 1.409 . S
C565 C563 1.415 . S
C566 H556 0.930 . S
C566 C564 1.419 . S
C566 C567 1.362 . S
C567 H557 0.930 . S
C567 C560 1.409 . S
C567 C566 1.362 . S
H568 C574 0.930 . S
H569 C577 0.930 . S
H570 C578 0.930 . S
H571 C579 0.930 . S
H572 C582 0.930 . S
H573 C583 0.930 . S
C574 H568 0.930 . S
C574 C575 1.355 . S
C574 C576 1.415 . S
C575 C574 1.355 . S
C575 C577 1.419 . S
C576 C574 1.415 . S
C576 C581 1.425 . S
C576 C583 1.409 . S
C577 H569 0.930 . S
C577 C575 1.419 . S
C577 C578 1.362 . S
C578 H570 0.930 . S
C578 C577 1.362 . S
C578 C581 1.409 . S
C579 H571 0.930 . S
C579 C580 1.355 . S
C579 C581 1.415 . S
C580 C579 1.355 . S
C580 C582 1.419 . S
C581 C576 1.425 . S
C581 C578 1.409 . S
C581 C579 1.415 . S
C582 H572 0.930 . S
C582 C580 1.419 . S
C582 C583 1.362 . S
C583 H573 0.930 . S
C583 C576 1.409 . S
C583 C582 1.362 . S
C207 C0 1.491 . S
C212 C91 1.488 . S
C223 C22 1.489 . S
C228 C131 1.494 . S
C239 C49 1.487 . S
C244 C98 1.496 . S
C255 C134 1.492 . S
C260 C19 1.487 . S
C271 C41 1.487 . S
C276 C50 1.499 . S
C287 C31 1.491 . S
C292 C122 1.491 . S
C303 C99 1.491 . S
C308 C48 1.492 . S
C319 C119 1.486 . S
C324 C34 1.499 . S
C335 C166 1.493 . S
C340 C17 1.486 . S
C351 C151 1.486 . S
C356 C18 1.496 . S
C367 C168 1.489 . S
C372 C1 1.494 . S
C383 C16 1.487 . S
C388 C167 1.498 . S
C399 C181 1.492 . S
C404 C72 1.494 . S
C415 C69 1.494 . S
C420 C184 1.489 . S
C431 C81 1.490 . S
C436 C172 1.489 . S
C447 C169 1.486 . S
C452 C84 1.496 . S
C463 C116 1.496 . S
C468 C67 1.487 . S
C479 C68 1.496 . S
C484 C101 1.483 . S
C495 C51 1.493 . S
C500 C118 1.492 . S
C511 C117 1.490 . S
C516 C66 1.492 . S
C527 C191 1.487 . S
C532 C100 1.495 . S
C543 C149 1.486 . S
C548 C198 1.499 . S
C559 C150 1.495 . S
C564 C141 1.487 . S
C575 C148 1.491 . S
C580 C199 1.487 . S
