# Generated by pormake.
# Topology ure, (4)-cn, num edge types: 1
# Building blocks:
#     Node 0, Type 0, BuildingBlock: CEKHIL_clean_sbu_0, # of connection points: 4
#     Node 1, Type 0, BuildingBlock: CEKHIL_clean_sbu_0, # of connection points: 4
#     Node 2, Type 0, BuildingBlock: CEKHIL_clean_sbu_0, # of connection points: 4
#     Node 3, Type 0, BuildingBlock: CEKHIL_clean_sbu_0, # of connection points: 4
#     Node 4, Type 0, BuildingBlock: CEKHIL_clean_sbu_0, # of connection points: 4
#     Node 5, Type 0, BuildingBlock: CEKHIL_clean_sbu_0, # of connection points: 4
#     Node 6, Type 0, BuildingBlock: CEKHIL_clean_sbu_0, # of connection points: 4
#     Node 7, Type 0, BuildingBlock: CEKHIL_clean_sbu_0, # of connection points: 4
#     Node 8, Type 0, BuildingBlock: CEKHIL_clean_sbu_0, # of connection points: 4
#     Node 9, Type 0, BuildingBlock: CEKHIL_clean_sbu_0, # of connection points: 4
#     Node 10, Type 0, BuildingBlock: CEKHIL_clean_sbu_0, # of connection points: 4
#     Node 11, Type 0, BuildingBlock: CEKHIL_clean_sbu_0, # of connection points: 4
#     Node 12, Type 0, BuildingBlock: CEKHIL_clean_sbu_0, # of connection points: 4
#     Node 13, Type 0, BuildingBlock: CEKHIL_clean_sbu_0, # of connection points: 4
#     Node 14, Type 0, BuildingBlock: CEKHIL_clean_sbu_0, # of connection points: 4
#     Node 15, Type 0, BuildingBlock: CEKHIL_clean_sbu_0, # of connection points: 4
#     Edge 16, Type (0, 0), BuildingBlock: UVAHIK_clean_linker_0, # of connection points: 2
#     Edge 17, Type (0, 0), BuildingBlock: UVAHIK_clean_linker_0, # of connection points: 2
#     Edge 18, Type (0, 0), BuildingBlock: UVAHIK_clean_linker_0, # of connection points: 2
#     Edge 19, Type (0, 0), BuildingBlock: UVAHIK_clean_linker_0, # of connection points: 2
#     Edge 20, Type (0, 0), BuildingBlock: UVAHIK_clean_linker_0, # of connection points: 2
#     Edge 21, Type (0, 0), BuildingBlock: UVAHIK_clean_linker_0, # of connection points: 2
#     Edge 22, Type (0, 0), BuildingBlock: UVAHIK_clean_linker_0, # of connection points: 2
#     Edge 23, Type (0, 0), BuildingBlock: UVAHIK_clean_linker_0, # of connection points: 2
#     Edge 24, Type (0, 0), BuildingBlock: UVAHIK_clean_linker_0, # of connection points: 2
#     Edge 25, Type (0, 0), BuildingBlock: UVAHIK_clean_linker_0, # of connection points: 2
#     Edge 26, Type (0, 0), BuildingBlock: UVAHIK_clean_linker_0, # of connection points: 2
#     Edge 27, Type (0, 0), BuildingBlock: UVAHIK_clean_linker_0, # of connection points: 2
#     Edge 28, Type (0, 0), BuildingBlock: UVAHIK_clean_linker_0, # of connection points: 2
#     Edge 29, Type (0, 0), BuildingBlock: UVAHIK_clean_linker_0, # of connection points: 2
#     Edge 30, Type (0, 0), BuildingBlock: UVAHIK_clean_linker_0, # of connection points: 2
#     Edge 31, Type (0, 0), BuildingBlock: UVAHIK_clean_linker_0, # of connection points: 2
#     Edge 32, Type (0, 0), BuildingBlock: UVAHIK_clean_linker_0, # of connection points: 2
#     Edge 33, Type (0, 0), BuildingBlock: UVAHIK_clean_linker_0, # of connection points: 2
#     Edge 34, Type (0, 0), BuildingBlock: UVAHIK_clean_linker_0, # of connection points: 2
#     Edge 35, Type (0, 0), BuildingBlock: UVAHIK_clean_linker_0, # of connection points: 2
#     Edge 36, Type (0, 0), BuildingBlock: UVAHIK_clean_linker_0, # of connection points: 2
#     Edge 37, Type (0, 0), BuildingBlock: UVAHIK_clean_linker_0, # of connection points: 2
#     Edge 38, Type (0, 0), BuildingBlock: UVAHIK_clean_linker_0, # of connection points: 2
#     Edge 39, Type (0, 0), BuildingBlock: UVAHIK_clean_linker_0, # of connection points: 2
#     Edge 40, Type (0, 0), BuildingBlock: UVAHIK_clean_linker_0, # of connection points: 2
#     Edge 41, Type (0, 0), BuildingBlock: UVAHIK_clean_linker_0, # of connection points: 2
#     Edge 42, Type (0, 0), BuildingBlock: UVAHIK_clean_linker_0, # of connection points: 2
#     Edge 43, Type (0, 0), BuildingBlock: UVAHIK_clean_linker_0, # of connection points: 2
#     Edge 44, Type (0, 0), BuildingBlock: UVAHIK_clean_linker_0, # of connection points: 2
#     Edge 45, Type (0, 0), BuildingBlock: UVAHIK_clean_linker_0, # of connection points: 2
#     Edge 46, Type (0, 0), BuildingBlock: UVAHIK_clean_linker_0, # of connection points: 2
#     Edge 47, Type (0, 0), BuildingBlock: UVAHIK_clean_linker_0, # of connection points: 2
# Relax obj value: 0.229
# Max RMSD: 0.160
# Mean RMSD: 0.160
data_MOF--net-ure--node1-CEKHIL_clean_sbu_0--edge1-UVAHIK_clean_linker_0
_symmetry_space_group_name_H-M    P1
_symmetry_Int_Tables_number       1
_symmetry_cell_setting            triclinic
loop_
_symmetry_equiv_pos_as_xyz
'x, y, z'
_cell_length_a     44.262471
_cell_length_b     37.48697
_cell_length_c     37.484782
_cell_angle_alpha  90.003254
_cell_angle_beta   90.000508
_cell_angle_gamma 90.018024
loop_
_atom_site_label
_atom_site_type_symbol
_atom_site_fract_x
_atom_site_fract_y
_atom_site_fract_z
_atom_type_partial_charge
Co0 Co 0.27769 0.23631 0.26955 0.0
O1 O 0.23491 0.23218 0.25889 0.0
O2 O 0.27126 0.22484 0.2194 0.0
C3 C 0.27559 0.20239 0.31969 0.0
O4 O 0.32442 0.23669 0.27028 0.0
Co5 Co 0.30153 0.2691 0.34101 0.0
O6 O 0.34046 0.24813 0.32611 0.0
C7 C 0.27986 0.31646 0.28262 0.0
C8 C 0.2425 0.22375 0.22654 0.0
C9 C 0.34564 0.23916 0.29392 0.0
O10 O 0.2765 0.29005 0.26068 0.0
O11 O 0.28723 0.31254 0.31541 0.0
O12 O 0.2772 0.18718 0.28863 0.0
O13 O 0.27351 0.23658 0.31928 0.0
Co14 Co 0.98655 0.02635 0.48689 0.0
O15 O 0.02907 0.01692 0.47914 0.0
O16 O 0.99319 0.97639 0.47438 0.0
C17 C 0.98522 0.07686 0.45363 0.0
O18 O 0.93999 0.02657 0.4914 0.0
Co19 Co 0.96592 0.09667 0.52466 0.0
O20 O 0.92534 0.0816 0.50834 0.0
C21 C 0.99508 0.03927 0.5661 0.0
C22 C 0.02172 0.98434 0.47142 0.0
C23 C 0.91925 0.05011 0.49765 0.0
O24 O 0.99156 0.0169 0.54013 0.0
O25 O 0.98944 0.07264 0.56332 0.0
O26 O 0.98339 0.04595 0.43811 0.0
O27 O 0.99007 0.07595 0.48743 0.0
Co28 Co 0.23232 0.76944 0.76889 0.0
O29 O 0.27499 0.77357 0.75797 0.0
O30 O 0.23856 0.78237 0.71891 0.0
C31 C 0.23496 0.80205 0.81989 0.0
O32 O 0.1855 0.76893 0.77057 0.0
Co33 Co 0.21004 0.73428 0.84001 0.0
O34 O 0.17096 0.75582 0.82662 0.0
C35 C 0.2297 0.68881 0.77929 0.0
C36 C 0.26737 0.78286 0.7259 0.0
C37 C 0.16487 0.76557 0.79487 0.0
O38 O 0.23329 0.71598 0.75838 0.0
O39 O 0.22267 0.69143 0.81231 0.0
O40 O 0.23303 0.81804 0.78926 0.0
O41 O 0.23717 0.76789 0.81849 0.0
Co42 Co 0.52507 0.97364 0.98857 0.0
O43 O 0.48298 0.98364 0.97892 0.0
O44 O 0.51926 0.02387 0.97641 0.0
C45 C 0.52708 0.92354 0.95476 0.0
O46 O 0.5714 0.97263 0.99573 0.0
Co47 Co 0.54293 0.90233 0.02662 0.0
O48 O 0.58455 0.91798 0.01533 0.0
C49 C 0.51365 0.96018 0.06728 0.0
C50 C 0.49078 0.01625 0.97212 0.0
C51 C 0.59155 0.94927 0.00484 0.0
O52 O 0.5183 0.98259 0.04161 0.0
O53 O 0.51863 0.92667 0.06443 0.0
O54 O 0.52982 0.95459 0.93973 0.0
O55 O 0.52096 0.92413 0.98825 0.0
Co56 Co 0.27733 0.7685 0.22707 0.0
O57 O 0.23538 0.77816 0.23803 0.0
O58 O 0.27241 0.78152 0.27721 0.0
C59 C 0.27842 0.80131 0.17626 0.0
O60 O 0.32368 0.76172 0.22499 0.0
Co61 Co 0.29411 0.72907 0.15615 0.0
O62 O 0.33588 0.74181 0.17013 0.0
C63 C 0.2655 0.6897 0.21525 0.0
C64 C 0.24378 0.78557 0.27032 0.0
C65 C 0.34343 0.75297 0.20102 0.0
O66 O 0.27089 0.7156 0.23716 0.0
O67 O 0.26979 0.692 0.18156 0.0
O68 O 0.28157 0.81699 0.20694 0.0
O69 O 0.27238 0.76782 0.17768 0.0
Co70 Co 0.52984 0.02405 0.51914 0.0
O71 O 0.48719 0.0135 0.52449 0.0
O72 O 0.52344 0.97363 0.52995 0.0
C73 C 0.5288 0.07359 0.55403 0.0
O74 O 0.57663 0.02514 0.51697 0.0
Co75 Co 0.55167 0.09633 0.48606 0.0
O76 O 0.59144 0.08125 0.50455 0.0
C77 C 0.52863 0.03853 0.4391 0.0
C78 C 0.49473 0.98093 0.53193 0.0
C79 C 0.59744 0.04918 0.51329 0.0
O80 O 0.52716 0.01605 0.46529 0.0
O81 O 0.53526 0.07152 0.44323 0.0
O82 O 0.53076 0.04227 0.56864 0.0
O83 O 0.52554 0.07367 0.51997 0.0
Co84 Co 0.23612 0.23565 0.72933 0.0
O85 O 0.27832 0.22699 0.73998 0.0
O86 O 0.24134 0.22112 0.77894 0.0
C87 C 0.23566 0.20459 0.67738 0.0
O88 O 0.18968 0.24077 0.72768 0.0
Co89 Co 0.21775 0.27683 0.66006 0.0
O90 O 0.17654 0.26089 0.67319 0.0
C91 C 0.24585 0.31511 0.72017 0.0
C92 C 0.27005 0.21819 0.77197 0.0
C93 C 0.16958 0.2487 0.70387 0.0
O94 O 0.24123 0.28835 0.74125 0.0
O95 O 0.24135 0.31388 0.68648 0.0
O96 O 0.23301 0.18779 0.70754 0.0
O97 O 0.24085 0.23823 0.67992 0.0
Co98 Co 0.98076 0.9828 0.01937 0.0
O99 O 0.02367 0.99291 0.02272 0.0
O100 O 0.98782 0.03297 0.03033 0.0
C101 C 0.98281 0.93295 0.05369 0.0
O102 O 0.93401 0.98265 0.01975 0.0
Co103 Co 0.95577 0.91153 0.9876 0.0
O104 O 0.91747 0.92668 0.01002 0.0
C105 C 0.97834 0.96881 0.93942 0.0
C106 C 0.01651 0.02544 0.03097 0.0
C107 C 0.91266 0.95907 0.0185 0.0
O108 O 0.98158 0.99112 0.96553 0.0
O109 O 0.97073 0.93615 0.94385 0.0
O110 O 0.98161 0.96416 0.06865 0.0
O111 O 0.98447 0.93304 0.01946 0.0
Co112 Co 0.77965 0.26748 0.7266 0.0
O113 O 0.73687 0.27164 0.73683 0.0
O114 O 0.77283 0.27851 0.77689 0.0
C115 C 0.77808 0.30202 0.67684 0.0
O116 O 0.82644 0.26659 0.72584 0.0
Co117 Co 0.8026 0.23471 0.65467 0.0
O118 O 0.84173 0.25503 0.66973 0.0
C119 C 0.78099 0.18729 0.71291 0.0
C120 C 0.74413 0.27959 0.76937 0.0
C121 C 0.8474 0.26377 0.70189 0.0
O122 O 0.77808 0.21365 0.73499 0.0
O123 O 0.78807 0.19126 0.68004 0.0
O124 O 0.77963 0.31685 0.70809 0.0
O125 O 0.77554 0.26787 0.67692 0.0
Co126 Co 0.02638 0.52705 0.01963 0.0
O127 O 0.98431 0.51645 0.02921 0.0
O128 O 0.02103 0.47691 0.0325 0.0
C129 C 0.02777 0.57783 0.05255 0.0
O130 O 0.0728 0.52863 0.0129 0.0
Co131 Co 0.04394 0.59786 0.98049 0.0
O132 O 0.08556 0.58342 0.99332 0.0
C133 C 0.01501 0.53917 0.94073 0.0
C134 C 0.99244 0.48404 0.03649 0.0
C135 C 0.0928 0.55237 0.0043 0.0
O136 O 0.01993 0.51715 0.96667 0.0
O137 O 0.01972 0.57277 0.94312 0.0
O138 O 0.03069 0.54709 0.06817 0.0
O139 O 0.02182 0.5765 0.01903 0.0
Co140 Co 0.73366 0.73359 0.23226 0.0
O141 O 0.77595 0.72586 0.24326 0.0
O142 O 0.73893 0.72033 0.28222 0.0
C143 C 0.73388 0.70133 0.1811 0.0
O144 O 0.68711 0.73777 0.23052 0.0
Co145 Co 0.71424 0.77235 0.16201 0.0
O146 O 0.6734 0.75534 0.17535 0.0
C147 C 0.74246 0.81282 0.2208 0.0
C148 C 0.76768 0.71762 0.27542 0.0
C149 C 0.6668 0.74409 0.20649 0.0
O150 O 0.73823 0.78667 0.24276 0.0
O151 O 0.73756 0.81047 0.18722 0.0
O152 O 0.73129 0.68518 0.21162 0.0
O153 O 0.73841 0.73515 0.18281 0.0
Co154 Co 0.02755 0.47997 0.48821 0.0
O155 O 0.98463 0.48952 0.48425 0.0
O156 O 0.0202 0.53019 0.47783 0.0
C157 C 0.02646 0.43066 0.4531 0.0
O158 O 0.07428 0.4803 0.48871 0.0
Co159 Co 0.05232 0.40843 0.51967 0.0
O160 O 0.09094 0.42444 0.49868 0.0
C161 C 0.02898 0.465 0.56806 0.0
C162 C 0.9916 0.52224 0.47656 0.0
C163 C 0.09573 0.45692 0.49046 0.0
O164 O 0.02601 0.48757 0.54213 0.0
O165 O 0.03666 0.4324 0.56342 0.0
O166 O 0.02755 0.46211 0.43865 0.0
O167 O 0.02422 0.4302 0.48729 0.0
Co168 Co 0.48302 0.51714 0.9832 0.0
O169 O 0.52541 0.50669 0.97565 0.0
O170 O 0.48883 0.46722 0.96992 0.0
C171 C 0.483 0.56822 0.95084 0.0
O172 O 0.4364 0.51855 0.98727 0.0
Co173 Co 0.46329 0.58734 0.02188 0.0
O174 O 0.42262 0.57383 0.00448 0.0
C175 C 0.49158 0.52872 0.06249 0.0
C176 C 0.51752 0.47445 0.96731 0.0
C177 C 0.41606 0.54263 0.99336 0.0
O178 O 0.48754 0.50674 0.03631 0.0
O179 O 0.48655 0.56226 0.06014 0.0
O180 O 0.48063 0.53765 0.93476 0.0
O181 O 0.48748 0.56662 0.98468 0.0
Co182 Co 0.7756 0.73501 0.77202 0.0
O183 O 0.73337 0.72642 0.76141 0.0
O184 O 0.77019 0.72141 0.72214 0.0
C185 C 0.77613 0.70293 0.82332 0.0
O186 O 0.8221 0.74026 0.77352 0.0
Co187 Co 0.79434 0.77464 0.84209 0.0
O188 O 0.83551 0.75924 0.82833 0.0
C189 C 0.76589 0.81425 0.78296 0.0
C190 C 0.74151 0.71822 0.72921 0.0
C191 C 0.84233 0.74778 0.79732 0.0
O192 O 0.7703 0.78794 0.76125 0.0
O193 O 0.77071 0.81224 0.81657 0.0
O194 O 0.77879 0.68673 0.79284 0.0
O195 O 0.77101 0.73662 0.82148 0.0
Co196 Co 0.7334 0.26719 0.27319 0.0
O197 O 0.77611 0.27215 0.26289 0.0
O198 O 0.73999 0.27882 0.223 0.0
C199 C 0.73468 0.3014 0.32323 0.0
O200 O 0.68665 0.26546 0.27406 0.0
Co201 Co 0.71103 0.23357 0.34504 0.0
O202 O 0.67146 0.25259 0.32991 0.0
C203 C 0.7323 0.18684 0.28604 0.0
C204 C 0.76869 0.28036 0.23046 0.0
C205 C 0.66567 0.26153 0.29783 0.0
O206 O 0.73539 0.21344 0.26429 0.0
O207 O 0.72524 0.19042 0.31897 0.0
O208 O 0.73291 0.31641 0.2921 0.0
O209 O 0.73763 0.2673 0.32288 0.0
Co210 Co 0.48303 0.47662 0.51696 0.0
O211 O 0.52574 0.48708 0.52163 0.0
O212 O 0.48953 0.5269 0.52815 0.0
C213 C 0.48448 0.42681 0.55149 0.0
O214 O 0.43631 0.47571 0.51548 0.0
Co215 Co 0.46049 0.40458 0.48397 0.0
O216 O 0.42094 0.41987 0.50292 0.0
C217 C 0.48169 0.4632 0.43671 0.0
C218 C 0.51825 0.51955 0.5296 0.0
C219 C 0.41525 0.45201 0.51171 0.0
O220 O 0.48484 0.48515 0.46314 0.0
O221 O 0.47464 0.4303 0.44056 0.0
O222 O 0.48273 0.45804 0.56631 0.0
O223 O 0.48729 0.42693 0.51737 0.0
C224 C 0.18861 0.21349 0.20751 0.0
C225 C 0.21973 0.20983 0.20066 0.0
C226 C 0.16707 0.197 0.18547 0.0
C227 C 0.15785 0.11971 0.126 0.0
H228 H 0.084 0.16636 0.09592 0.0
C229 C 0.07067 0.04432 0.03879 0.0
C230 C 0.03976 0.05109 0.04418 0.0
C231 C 0.09282 0.06601 0.05454 0.0
C232 C 0.10424 0.1526 0.10442 0.0
H233 H 0.25245 0.18633 0.16467 0.0
H234 H 0.21491 0.15716 0.12652 0.0
H235 H 0.12179 0.19978 0.12958 0.0
H236 H 0.008 0.08654 0.07008 0.0
H237 H 0.04633 0.12361 0.09851 0.0
H238 H 0.14015 0.07221 0.10242 0.0
C239 C 0.20718 0.17293 0.14895 0.0
C240 C 0.12605 0.17196 0.12364 0.0
C241 C 0.22871 0.1899 0.17067 0.0
C242 C 0.03158 0.08072 0.06505 0.0
C243 C 0.05374 0.10212 0.08133 0.0
C244 C 0.1359 0.10021 0.10729 0.0
C245 C 0.17606 0.17588 0.1563 0.0
C246 C 0.15316 0.15578 0.13471 0.0
C247 C 0.08481 0.09484 0.07682 0.0
C248 C 0.10864 0.11624 0.09613 0.0
H249 H 0.18085 0.22854 0.23041 0.0
H250 H 0.14337 0.19971 0.1921 0.0
H251 H 0.17821 0.10618 0.13457 0.0
H252 H 0.07783 0.02184 0.02271 0.0
H253 H 0.11629 0.05984 0.04936 0.0
C254 C 0.07564 0.9658 0.46182 0.0
C255 C 0.04466 0.9589 0.4572 0.0
C256 C 0.09755 0.94422 0.44556 0.0
C257 C 0.10839 0.85763 0.39575 0.0
H258 H 0.18184 0.90422 0.36397 0.0
C259 C 0.19055 0.79712 0.29058 0.0
C260 C 0.22182 0.80033 0.29666 0.0
C261 C 0.1696 0.81373 0.3132 0.0
C262 C 0.16163 0.89065 0.37302 0.0
H263 H 0.01249 0.92339 0.4321 0.0
H264 H 0.05045 0.88646 0.40267 0.0
H265 H 0.14414 0.93817 0.39673 0.0
H266 H 0.25547 0.82321 0.33182 0.0
H267 H 0.21884 0.85281 0.37106 0.0
H268 H 0.12567 0.81045 0.37041 0.0
C269 C 0.05809 0.90798 0.41967 0.0
C270 C 0.13989 0.91013 0.39206 0.0
C271 C 0.03615 0.92929 0.4365 0.0
C272 C 0.23158 0.82004 0.32645 0.0
C273 C 0.21059 0.83721 0.34878 0.0
C274 C 0.12997 0.8383 0.3762 0.0
C275 C 0.08922 0.91537 0.42349 0.0
C276 C 0.11281 0.89403 0.40378 0.0
C277 C 0.1793 0.83454 0.34225 0.0
C278 C 0.15687 0.85456 0.36451 0.0
H279 H 0.08304 0.98824 0.4778 0.0
H280 H 0.12109 0.95045 0.45023 0.0
H281 H 0.0883 0.84382 0.4047 0.0
H282 H 0.18221 0.78219 0.26788 0.0
H283 H 0.14575 0.81128 0.30718 0.0
C284 C 0.48058 0.9243 0.5645 0.0
C285 C 0.47185 0.9549 0.54537 0.0
C286 C 0.45884 0.9024 0.58093 0.0
C287 C 0.37717 0.87863 0.58144 0.0
H288 H 0.3915 0.85347 0.68021 0.0
C289 C 0.28228 0.81894 0.6717 0.0
C290 C 0.29044 0.79665 0.70029 0.0
C291 C 0.3045 0.83558 0.65062 0.0
C292 C 0.38716 0.85947 0.65245 0.0
H293 H 0.43319 0.98554 0.52746 0.0
H294 H 0.39542 0.94705 0.55534 0.0
H295 H 0.42995 0.88583 0.64707 0.0
H296 H 0.32847 0.77306 0.72793 0.0
H297 H 0.36694 0.80036 0.6905 0.0
H298 H 0.33458 0.85191 0.58649 0.0
C299 C 0.41906 0.94002 0.55786 0.0
C300 C 0.40935 0.87828 0.63342 0.0
C301 C 0.44078 0.96218 0.54192 0.0
C302 C 0.32132 0.79025 0.70629 0.0
C303 C 0.34349 0.80637 0.68493 0.0
C304 C 0.35509 0.85935 0.60033 0.0
C305 C 0.42777 0.91019 0.57819 0.0
C306 C 0.40462 0.8884 0.59773 0.0
C307 C 0.33558 0.83003 0.65721 0.0
C308 C 0.35957 0.84961 0.63631 0.0
H309 H 0.50428 0.91795 0.56787 0.0
H310 H 0.46639 0.87948 0.59608 0.0
H311 H 0.37282 0.88566 0.55389 0.0
H312 H 0.25872 0.82475 0.66652 0.0
H313 H 0.29719 0.8538 0.62997 0.0
C314 C 0.47728 0.07172 0.93726 0.0
C315 C 0.46831 0.04214 0.95773 0.0
C316 C 0.45568 0.09335 0.92023 0.0
C317 C 0.37413 0.09198 0.89163 0.0
H318 H 0.3887 0.19181 0.871 0.0
C319 C 0.28257 0.1828 0.82735 0.0
C320 C 0.29219 0.20304 0.79787 0.0
C321 C 0.30366 0.16536 0.84931 0.0
C322 C 0.38432 0.16391 0.87649 0.0
H323 H 0.42948 0.01327 0.97782 0.0
H324 H 0.39204 0.05161 0.94997 0.0
H325 H 0.42589 0.15794 0.90515 0.0
H326 H 0.33166 0.22181 0.76923 0.0
H327 H 0.36832 0.19217 0.80791 0.0
H328 H 0.33232 0.0983 0.8634 0.0
C329 C 0.41568 0.05755 0.94556 0.0
C330 C 0.40578 0.14431 0.89596 0.0
C331 C 0.43723 0.03565 0.96199 0.0
C332 C 0.32343 0.20647 0.79171 0.0
C333 C 0.34449 0.18955 0.81397 0.0
C334 C 0.35253 0.11171 0.87266 0.0
C335 C 0.42445 0.08631 0.92365 0.0
C336 C 0.40118 0.10789 0.90371 0.0
C337 C 0.33491 0.16823 0.8427 0.0
C338 C 0.35739 0.14787 0.86458 0.0
H339 H 0.50104 0.0773 0.93317 0.0
H340 H 0.46363 0.11484 0.9034 0.0
H341 H 0.36978 0.06392 0.89603 0.0
H342 H 0.25871 0.17945 0.8328 0.0
H343 H 0.29549 0.1494 0.87138 0.0
C344 C 0.72888 0.31375 0.82461 0.0
C345 C 0.72086 0.29267 0.79506 0.0
C346 C 0.70656 0.32989 0.8459 0.0
C347 C 0.62422 0.35504 0.84355 0.0
H348 H 0.63781 0.37763 0.94314 0.0
C349 C 0.53097 0.41879 0.93271 0.0
C350 C 0.54007 0.44864 0.95278 0.0
C351 C 0.55247 0.39701 0.9157 0.0
C352 C 0.63368 0.3716 0.91531 0.0
H353 H 0.68297 0.27064 0.76589 0.0
H354 H 0.64429 0.29705 0.80366 0.0
H355 H 0.67593 0.34425 0.91003 0.0
H356 H 0.57906 0.47811 0.97164 0.0
H357 H 0.61639 0.43981 0.94277 0.0
H358 H 0.58174 0.38203 0.84918 0.0
C359 C 0.66772 0.30252 0.80985 0.0
C360 C 0.65568 0.35255 0.89613 0.0
C361 C 0.69 0.28691 0.78829 0.0
C362 C 0.57121 0.45534 0.95646 0.0
C363 C 0.59267 0.43328 0.93997 0.0
C364 C 0.60208 0.37362 0.86287 0.0
C365 C 0.67553 0.32502 0.83857 0.0
C366 C 0.6515 0.34417 0.85976 0.0
C367 C 0.58363 0.40417 0.91881 0.0
C368 C 0.60658 0.38247 0.89893 0.0
H369 H 0.75243 0.31905 0.83042 0.0
H370 H 0.7138 0.34724 0.86733 0.0
H371 H 0.62012 0.35008 0.81553 0.0
H372 H 0.5072 0.41292 0.92915 0.0
H373 H 0.54468 0.37465 0.89987 0.0
C374 C 0.97971 0.42731 0.06977 0.0
C375 C 0.97022 0.45775 0.0509 0.0
C376 C 0.95852 0.40479 0.08639 0.0
C377 C 0.87754 0.37847 0.0868 0.0
H378 H 0.89191 0.35365 0.18565 0.0
C379 C 0.78337 0.31619 0.17608 0.0
C380 C 0.79171 0.29438 0.20496 0.0
C381 C 0.80544 0.3333 0.15518 0.0
C382 C 0.88759 0.35953 0.15785 0.0
H383 H 0.93085 0.48756 0.03376 0.0
H384 H 0.89407 0.44799 0.06191 0.0
H385 H 0.92981 0.38723 0.1528 0.0
H386 H 0.82994 0.27208 0.23328 0.0
H387 H 0.8682 0.30014 0.1961 0.0
H388 H 0.83558 0.35039 0.09145 0.0
C389 C 0.91785 0.44157 0.0641 0.0
C390 C 0.90946 0.37905 0.13901 0.0
C391 C 0.939 0.46437 0.04805 0.0
C392 C 0.82266 0.28888 0.2114 0.0
C393 C 0.84469 0.30545 0.19019 0.0
C394 C 0.85583 0.35846 0.10548 0.0
C395 C 0.92729 0.41178 0.08401 0.0
C396 C 0.90465 0.38911 0.10333 0.0
C397 C 0.83655 0.32869 0.16221 0.0
C398 C 0.8603 0.34887 0.14149 0.0
H399 H 1.00354 0.42148 0.07266 0.0
H400 H 0.96659 0.38194 0.10127 0.0
H401 H 0.87319 0.38543 0.05923 0.0
H402 H 0.75975 0.32132 0.17057 0.0
H403 H 0.79793 0.35119 0.13433 0.0
C404 C 0.93739 0.54039 0.46804 0.0
C405 C 0.96828 0.54763 0.46313 0.0
C406 C 0.91521 0.5617 0.45188 0.0
C407 C 0.90351 0.6479 0.40155 0.0
H408 H 0.83065 0.6001 0.36973 0.0
C409 C 0.82108 0.70678 0.29566 0.0
C410 C 0.78984 0.70317 0.3017 0.0
C411 C 0.84216 0.69051 0.31839 0.0
C412 C 0.85069 0.614 0.37877 0.0
H413 H 0.99999 0.58351 0.43772 0.0
H414 H 0.96161 0.61993 0.40859 0.0
H415 H 0.86851 0.56691 0.40302 0.0
H416 H 0.75638 0.67988 0.33687 0.0
H417 H 0.7932 0.65094 0.37625 0.0
H418 H 0.88591 0.69464 0.37572 0.0
C419 C 0.95423 0.59838 0.4257 0.0
C420 C 0.87252 0.59496 0.39813 0.0
C421 C 0.97641 0.57736 0.44238 0.0
C422 C 0.78024 0.68337 0.33151 0.0
C423 C 0.80135 0.66656 0.35393 0.0
C424 C 0.88185 0.66678 0.3817 0.0
C425 C 0.92319 0.5906 0.42968 0.0
C426 C 0.8994 0.6115 0.40985 0.0
C427 C 0.83261 0.66965 0.34748 0.0
C428 C 0.85516 0.65007 0.36997 0.0
H429 H 0.93028 0.51781 0.484 0.0
H430 H 0.89174 0.55517 0.45665 0.0
H431 H 0.92344 0.66204 0.4105 0.0
H432 H 0.8293 0.72178 0.27295 0.0
H433 H 0.86599 0.69327 0.31243 0.0
C434 C 0.5328 0.57461 0.5644 0.0
C435 C 0.54123 0.54532 0.5432 0.0
C436 C 0.5548 0.59594 0.58109 0.0
C437 C 0.63684 0.59406 0.60757 0.0
H438 H 0.62235 0.6933 0.63089 0.0
C439 C 0.72879 0.68376 0.67325 0.0
C440 C 0.71928 0.7034 0.70319 0.0
C441 C 0.70762 0.66664 0.6511 0.0
C442 C 0.62672 0.66557 0.62465 0.0
H443 H 0.57953 0.51663 0.52155 0.0
H444 H 0.61769 0.55451 0.54891 0.0
H445 H 0.58484 0.66016 0.59655 0.0
H446 H 0.6799 0.72139 0.73249 0.0
H447 H 0.64313 0.69233 0.69354 0.0
H448 H 0.67898 0.59984 0.63528 0.0
C449 C 0.59416 0.56045 0.55404 0.0
C450 C 0.60507 0.64637 0.60505 0.0
C451 C 0.57219 0.53884 0.53789 0.0
C452 C 0.68806 0.70653 0.70966 0.0
C453 C 0.66693 0.68994 0.68723 0.0
C454 C 0.65864 0.61341 0.62668 0.0
C455 C 0.58593 0.5889 0.57666 0.0
C456 C 0.6096 0.61013 0.5964 0.0
C457 C 0.67639 0.66924 0.65798 0.0
C458 C 0.6538 0.64934 0.63579 0.0
H459 H 0.50916 0.58017 0.56938 0.0
H460 H 0.54724 0.61715 0.59852 0.0
H461 H 0.64118 0.56613 0.6024 0.0
H462 H 0.75263 0.68064 0.66756 0.0
H463 H 0.71572 0.65116 0.62866 0.0
C464 C 0.25641 0.15396 0.35983 0.0
C465 C 0.27591 0.18291 0.35386 0.0
C466 C 0.25182 0.14109 0.39461 0.0
C467 C 0.28149 0.1434 0.48715 0.0
H468 H 0.19816 0.15692 0.51605 0.0
C469 C 0.22119 0.20629 0.61338 0.0
C470 C 0.23343 0.1872 0.64215 0.0
C471 C 0.22302 0.19293 0.57874 0.0
C472 C 0.22143 0.15231 0.50833 0.0
H473 H 0.3074 0.2194 0.37879 0.0
H474 H 0.30038 0.19627 0.43879 0.0
H475 H 0.21092 0.15497 0.4526 0.0
H476 H 0.25637 0.1386 0.65757 0.0
H477 H 0.26065 0.11557 0.59623 0.0
H478 H 0.29221 0.14285 0.54292 0.0
C479 C 0.2884 0.1836 0.41699 0.0
C480 C 0.22871 0.15097 0.47203 0.0
C481 C 0.29235 0.19698 0.3826 0.0
C482 C 0.24653 0.15366 0.63582 0.0
C483 C 0.24909 0.14061 0.60082 0.0
C484 C 0.27415 0.14422 0.52346 0.0
C485 C 0.26732 0.1564 0.42362 0.0
C486 C 0.25898 0.14812 0.4611 0.0
C487 C 0.23778 0.16049 0.5719 0.0
C488 C 0.24422 0.15029 0.53438 0.0
H489 H 0.2432 0.14299 0.33811 0.0
H490 H 0.23536 0.12016 0.39903 0.0
H491 H 0.305 0.1411 0.47944 0.0
H492 H 0.21095 0.23219 0.61747 0.0
H493 H 0.21443 0.20906 0.55701 0.0
C494 C 1.00112 0.00922 0.89206 0.0
C495 C 0.98295 0.97999 0.90174 0.0
C496 C 0.0072 0.01623 0.85583 0.0
C497 C 0.00801 0.97015 0.76811 0.0
H498 H 1.00134 0.06458 0.72707 0.0
C499 C 0.99217 0.99521 0.61659 0.0
C500 C 1.00383 0.02689 0.60216 0.0
C501 C 0.99482 0.98831 0.65328 0.0
C502 C 1.00386 0.03806 0.73812 0.0
H503 H 0.95542 0.93675 0.88071 0.0
H504 H 0.96578 0.94905 0.81873 0.0
H505 H 0.99603 0.05689 0.7914 0.0
H506 H 0.02965 0.0746 0.61403 0.0
H507 H 0.03512 0.06208 0.67736 0.0
H508 H 0.01535 0.95115 0.71492 0.0
C509 C 0.97613 0.96594 0.83875 0.0
C510 C 1.00079 0.03373 0.77506 0.0
C511 C 0.97008 0.95905 0.87449 0.0
C512 C 0.02014 0.0501 0.6245 0.0
C513 C 0.02302 0.04311 0.6609 0.0
C514 C 0.01116 0.97447 0.73124 0.0
C515 C 0.99525 0.99406 0.82888 0.0
C516 C 1.00216 0.99962 0.79039 0.0
C517 C 0.00941 0.01286 0.67607 0.0
C518 C 0.0086 0.0084 0.71564 0.0
H519 H 0.01134 0.02587 0.91236 0.0
H520 H 0.02189 0.03829 0.84898 0.0
H521 H 0.00974 0.94354 0.77918 0.0
H522 H 0.97924 0.97704 0.60009 0.0
H523 H 0.98395 0.96478 0.66403 0.0
C524 C 0.25231 0.85152 0.86003 0.0
C525 C 0.23486 0.82071 0.85454 0.0
C526 C 0.25688 0.86463 0.89472 0.0
C527 C 0.22919 0.85974 0.98781 0.0
H528 H 0.31352 0.85406 0.01521 0.0
C529 C 0.29409 0.8021 0.11273 0.0
C530 C 0.28061 0.81976 0.14162 0.0
C531 C 0.2916 0.81573 0.07824 0.0
C532 C 0.28994 0.85652 0.0079 0.0
H533 H 0.20686 0.78098 0.88036 0.0
H534 H 0.21382 0.80441 0.94024 0.0
H535 H 0.29984 0.85454 0.95196 0.0
H536 H 0.25484 0.86615 0.15756 0.0
H537 H 0.24942 0.88957 0.09651 0.0
H538 H 0.21919 0.85956 0.04375 0.0
C539 C 0.22426 0.81833 0.91811 0.0
C540 C 0.28211 0.85699 0.97173 0.0
C541 C 0.22039 0.80477 0.88378 0.0
C542 C 0.2657 0.85229 0.13569 0.0
C543 C 0.26249 0.86553 0.10085 0.0
C544 C 0.23703 0.85981 0.02397 0.0
C545 C 0.24331 0.84767 0.92414 0.0
C546 C 0.2516 0.85696 0.96138 0.0
C547 C 0.2749 0.8469 0.07173 0.0
C548 C 0.26741 0.85655 0.03435 0.0
H549 H 0.26395 0.86404 0.8379 0.0
H550 H 0.27176 0.88723 0.89871 0.0
H551 H 0.2055 0.85979 0.98052 0.0
H552 H 0.30564 0.77695 0.11657 0.0
H553 H 0.30108 0.80054 0.05635 0.0
C554 C 0.53447 0.04887 0.37388 0.0
C555 C 0.52347 0.02705 0.40159 0.0
C556 C 0.52841 0.04106 0.33834 0.0
C557 C 0.50757 0.96998 0.27615 0.0
H558 H 0.48919 0.05008 0.21416 0.0
C559 C 0.48894 0.94929 0.12596 0.0
C560 C 0.50459 0.97274 0.1032 0.0
C561 C 0.48574 0.95689 0.1622 0.0
C562 C 0.49443 0.02745 0.23102 0.0
H563 H 0.49831 0.97886 0.4132 0.0
H564 H 0.48763 0.96491 0.35018 0.0
H565 H 0.49408 0.05946 0.27826 0.0
H566 H 0.52755 0.02363 0.10024 0.0
H567 H 0.52216 0.03701 0.16388 0.0
H568 H 0.50862 0.9381 0.22883 0.0
C569 C 0.50091 0.98833 0.35652 0.0
C570 C 0.49719 0.03278 0.2678 0.0
C571 C 0.50704 0.99624 0.39255 0.0
C572 C 0.51519 0.00521 0.11705 0.0
C573 C 0.51214 0.01276 0.15356 0.0
C574 C 0.5048 0.96463 0.23932 0.0
C575 C 0.51111 0.01114 0.3291 0.0
C576 C 0.50446 0.00427 0.29074 0.0
C577 C 0.49826 0.98806 0.17677 0.0
C578 C 0.49871 0.99343 0.2162 0.0
H579 H 0.5478 0.07244 0.37955 0.0
H580 H 0.53747 0.05857 0.31799 0.0
H581 H 0.51345 0.94754 0.29298 0.0
H582 H 0.48018 0.9242 0.11599 0.0
H583 H 0.47422 0.93774 0.17904 0.0
C584 C 0.38901 0.24237 0.24978 0.0
C585 C 0.37793 0.23399 0.28397 0.0
C586 C 0.42034 0.24272 0.24306 0.0
C587 C 0.49404 0.21221 0.2815 0.0
H588 H 0.52851 0.29492 0.23445 0.0
C589 C 0.61119 0.26337 0.31547 0.0
C590 C 0.63298 0.26385 0.28805 0.0
C591 C 0.58055 0.2594 0.3078 0.0
C592 C 0.51917 0.27139 0.2471 0.0
H593 H 0.3911 0.21776 0.33728 0.0
H594 H 0.44487 0.21822 0.32574 0.0
H595 H 0.47351 0.2857 0.2338 0.0
H596 H 0.6389 0.26285 0.23063 0.0
H597 H 0.58455 0.25676 0.21718 0.0
H598 H 0.53936 0.19904 0.29658 0.0
C599 C 0.42975 0.22444 0.3039 0.0
C600 C 0.48769 0.26601 0.24669 0.0
C601 C 0.39875 0.22439 0.31063 0.0
C602 C 0.62284 0.2626 0.25241 0.0
C603 C 0.59178 0.25901 0.24469 0.0
C604 C 0.52525 0.21777 0.2822 0.0
C605 C 0.44115 0.23417 0.27025 0.0
C606 C 0.47464 0.23693 0.26495 0.0
C607 C 0.57051 0.25626 0.27249 0.0
C608 C 0.5381 0.24791 0.26591 0.0
H609 H 0.3736 0.25017 0.22874 0.0
H610 H 0.42828 0.25012 0.21676 0.0
H611 H 0.48499 0.18905 0.29509 0.0
H612 H 0.61783 0.26476 0.34325 0.0
H613 H 0.56462 0.25791 0.32972 0.0
C614 C 0.04299 0.36778 0.44675 0.0
C615 C 0.02717 0.39701 0.43275 0.0
C616 C 0.03928 0.33381 0.43226 0.0
C617 C 0.98016 0.28049 0.39549 0.0
H618 H 0.04313 0.20868 0.39077 0.0
C619 C 0.99735 0.11668 0.40179 0.0
C620 C 0.98288 0.11124 0.43469 0.0
C621 C 1.0002 0.15128 0.38782 0.0
C622 C 0.02523 0.22839 0.3911 0.0
H623 H 0.99598 0.41416 0.39175 0.0
H624 H 0.98854 0.35398 0.36691 0.0
H625 H 0.05667 0.27191 0.38979 0.0
H626 H 0.95815 0.13692 0.4774 0.0
H627 H 0.96216 0.19667 0.45267 0.0
H628 H 0.94892 0.23696 0.39965 0.0
C629 C 1.00431 0.35767 0.3887 0.0
C630 C 0.03301 0.26457 0.39074 0.0
C631 C 0.00867 0.39203 0.40273 0.0
C632 C 0.96944 0.14036 0.45201 0.0
C633 C 0.97159 0.17459 0.43771 0.0
C634 C 0.97242 0.24431 0.3963 0.0
C635 C 0.01907 0.32811 0.40395 0.0
C636 C 0.01064 0.29094 0.39447 0.0
C637 C 0.98785 0.18065 0.40611 0.0
C638 C 0.99499 0.21793 0.39564 0.0
H639 H 0.05733 0.37084 0.46993 0.0
H640 H 0.05068 0.31158 0.44491 0.0
H641 H 0.96245 0.30018 0.39865 0.0
H642 H 0.00813 0.09463 0.38812 0.0
H643 H 0.01291 0.15526 0.36345 0.0
C644 C 0.89592 0.74232 0.81763 0.0
C645 C 0.87524 0.74439 0.78919 0.0
C646 C 0.92702 0.74238 0.81153 0.0
C647 C 0.98581 0.77016 0.74749 0.0
H648 H 0.03637 0.71419 0.81075 0.0
C649 C 0.12063 0.76489 0.75143 0.0
C650 C 0.13209 0.76956 0.7862 0.0
C651 C 0.08921 0.76201 0.74559 0.0
C652 C 0.0226 0.72993 0.79276 0.0
H653 H 0.87149 0.74759 0.73164 0.0
H654 H 0.9264 0.7476 0.72085 0.0
H655 H 0.98191 0.70551 0.8113 0.0
H656 H 0.11912 0.77773 0.8415 0.0
H657 H 0.06522 0.7724 0.83132 0.0
H658 H 0.02713 0.79473 0.72937 0.0
C659 C 0.91818 0.74609 0.74802 0.0
C660 C 0.99131 0.72507 0.79315 0.0
C661 C 0.88673 0.74576 0.75416 0.0
C662 C 0.11134 0.77357 0.81441 0.0
C663 C 0.08033 0.77043 0.80866 0.0
C664 C 0.01741 0.77482 0.74689 0.0
C665 C 0.93874 0.74451 0.77674 0.0
C666 C 0.9723 0.74595 0.77149 0.0
C667 C 0.06887 0.7635 0.77446 0.0
C668 C 0.03601 0.75552 0.77041 0.0
H669 H 0.8881 0.74116 0.84499 0.0
H670 H 0.94193 0.74174 0.83443 0.0
H671 H 0.97192 0.78677 0.73048 0.0
H672 H 0.1359 0.7616 0.7291 0.0
H673 H 0.08096 0.75682 0.71889 0.0
C674 C 0.46818 0.63202 0.9495 0.0
C675 C 0.48195 0.60295 0.93244 0.0
C676 C 0.47168 0.6665 0.93618 0.0
C677 C 0.52855 0.72007 0.89573 0.0
H678 H 0.46625 0.79282 0.89676 0.0
C679 C 0.51347 0.88403 0.90335 0.0
C680 C 0.52915 0.88938 0.93548 0.0
C681 C 0.50982 0.84944 0.88967 0.0
C682 C 0.4839 0.77285 0.89551 0.0
H683 H 0.50929 0.58673 0.88741 0.0
H684 H 0.51645 0.64776 0.86461 0.0
H685 H 0.45199 0.72977 0.89628 0.0
H686 H 0.55513 0.86362 0.97705 0.0
H687 H 0.54982 0.80376 0.95263 0.0
H688 H 0.56043 0.76313 0.89797 0.0
C689 C 0.5024 0.64356 0.8879 0.0
C690 C 0.47573 0.73679 0.89542 0.0
C691 C 0.49819 0.60874 0.90078 0.0
C692 C 0.54301 0.86019 0.9522 0.0
C693 C 0.54007 0.82593 0.93811 0.0
C694 C 0.53672 0.75613 0.89638 0.0
C695 C 0.48966 0.67282 0.90597 0.0
C696 C 0.49797 0.71008 0.89689 0.0
C697 C 0.52254 0.81998 0.90745 0.0
C698 C 0.51445 0.78283 0.89763 0.0
H699 H 0.45563 0.6283 0.974 0.0
H700 H 0.4619 0.68852 0.95093 0.0
H701 H 0.54616 0.70006 0.89716 0.0
H702 H 0.50229 0.90614 0.89025 0.0
H703 H 0.49613 0.84552 0.86604 0.0
C704 C 0.62194 0.74436 0.24881 0.0
C705 C 0.63404 0.73924 0.21445 0.0
C706 C 0.59043 0.74356 0.25434 0.0
C707 C 0.51919 0.71144 0.21255 0.0
H708 H 0.47955 0.78975 0.26136 0.0
C709 C 0.39724 0.74736 0.18112 0.0
C710 C 0.37658 0.75387 0.20898 0.0
C711 C 0.42816 0.74458 0.18771 0.0
C712 C 0.49028 0.7674 0.24816 0.0
H713 H 0.62246 0.72797 0.15936 0.0
H714 H 0.56834 0.72608 0.16897 0.0
H715 H 0.53494 0.78481 0.26282 0.0
H716 H 0.37302 0.76414 0.26575 0.0
H717 H 0.42775 0.75965 0.27724 0.0
H718 H 0.47498 0.69452 0.19692 0.0
C719 C 0.58287 0.73082 0.19174 0.0
C720 C 0.52201 0.76453 0.24902 0.0
C721 C 0.61403 0.73211 0.18618 0.0
C722 C 0.38816 0.75902 0.24364 0.0
C723 C 0.41949 0.75643 0.25023 0.0
C724 C 0.48772 0.71432 0.21167 0.0
C725 C 0.5705 0.7369 0.22574 0.0
C726 C 0.53689 0.73711 0.23021 0.0
C727 C 0.43975 0.74834 0.22235 0.0
C728 C 0.47285 0.74294 0.22843 0.0
H729 H 0.63671 0.75017 0.2711 0.0
H730 H 0.58165 0.74822 0.28089 0.0
H731 H 0.52977 0.68953 0.19845 0.0
H732 H 0.38957 0.74374 0.15393 0.0
H733 H 0.44309 0.73924 0.16543 0.0
C734 C 0.54515 0.13668 0.55898 0.0
C735 C 0.52996 0.10747 0.574 0.0
C736 C 0.54177 0.17078 0.57326 0.0
C737 C 0.48383 0.22413 0.61302 0.0
H738 H 0.54653 0.29646 0.61248 0.0
C739 C 0.50005 0.38803 0.60288 0.0
C740 C 0.4834 0.39284 0.57135 0.0
C741 C 0.50387 0.35368 0.61719 0.0
C742 C 0.52875 0.27663 0.61364 0.0
H743 H 0.50024 0.09056 0.6166 0.0
H744 H 0.49341 0.15095 0.64118 0.0
H745 H 0.56043 0.23337 0.61337 0.0
H746 H 0.45592 0.36627 0.53162 0.0
H747 H 0.46171 0.30706 0.5569 0.0
H748 H 0.45219 0.26736 0.6106 0.0
C749 C 0.50842 0.14714 0.61869 0.0
C750 C 0.53672 0.24051 0.61392 0.0
C751 C 0.51244 0.11266 0.6048 0.0
C752 C 0.46889 0.36337 0.5559 0.0
C753 C 0.47207 0.32941 0.57057 0.0
C754 C 0.47587 0.26025 0.61235 0.0
C755 C 0.52253 0.17666 0.60247 0.0
C756 C 0.51436 0.2139 0.61203 0.0
C757 C 0.4904 0.32393 0.60064 0.0
C758 C 0.49827 0.28683 0.61108 0.0
H759 H 0.55872 0.13349 0.5352 0.0
H760 H 0.55264 0.19293 0.55984 0.0
H761 H 0.46609 0.20429 0.61133 0.0
H762 H 0.51168 0.41034 0.61508 0.0
H763 H 0.51817 0.35019 0.64037 0.0
C764 C 0.11617 0.24298 0.68303 0.0
C765 C 0.13666 0.24483 0.71166 0.0
C766 C 0.08505 0.24247 0.6889 0.0
C767 C 0.0257 0.26857 0.75267 0.0
H768 H 0.97609 0.21245 0.68846 0.0
C769 C 0.89093 0.26217 0.74628 0.0
C770 C 0.88004 0.26745 0.71134 0.0
C771 C 0.92225 0.25928 0.75278 0.0
C772 C 0.9896 0.22819 0.70673 0.0
H773 H 0.14011 0.24703 0.76929 0.0
H774 H 0.08514 0.24611 0.77967 0.0
H775 H 0.03064 0.20438 0.68849 0.0
H776 H 0.89389 0.2767 0.65651 0.0
H777 H 0.94762 0.27135 0.66782 0.0
H778 H 0.98406 0.29262 0.7704 0.0
C779 C 0.09352 0.24519 0.75254 0.0
C780 C 0.02092 0.22368 0.70668 0.0
C781 C 0.125 0.2454 0.74662 0.0
C782 C 0.90123 0.27203 0.68368 0.0
C783 C 0.93214 0.2689 0.69009 0.0
C784 C 0.99407 0.27289 0.75292 0.0
C785 C 0.07315 0.24381 0.72364 0.0
C786 C 0.03957 0.24468 0.72866 0.0
C787 C 0.94304 0.2614 0.72441 0.0
C788 C 0.97584 0.25354 0.72904 0.0
H789 H 0.12415 0.24242 0.65572 0.0
H790 H 0.07025 0.24199 0.6659 0.0
H791 H 0.03933 0.28524 0.76992 0.0
H792 H 0.8753 0.25845 0.7682 0.0
H793 H 0.93008 0.25365 0.77956 0.0
C794 C 1.00201 0.89379 0.10294 0.0
C795 C 0.98286 0.89896 0.07351 0.0
C796 C 0.007 0.85928 0.11629 0.0
C797 C 0.979 0.7659 0.11397 0.0
H798 H 0.06317 0.7392 0.10361 0.0
C799 C 0.04312 0.64149 0.05311 0.0
C800 C 0.03011 0.61246 0.07105 0.0
C801 C 0.04074 0.67594 0.06688 0.0
C802 C 0.03965 0.74629 0.10734 0.0
H803 H 0.95232 0.87287 0.0367 0.0
H804 H 0.96008 0.81332 0.06059 0.0
H805 H 0.04917 0.80228 0.10474 0.0
H806 H 0.00535 0.59627 0.11813 0.0
H807 H 1.0002 0.65722 0.14189 0.0
H808 H 0.96931 0.70989 0.11435 0.0
C809 C 0.97148 0.83553 0.07327 0.0
C810 C 0.03165 0.7824 0.10821 0.0
C811 C 0.96712 0.86967 0.05944 0.0
C812 C 0.01583 0.61824 0.104 0.0
C813 C 0.01276 0.65303 0.11744 0.0
C814 C 0.98704 0.72979 0.11357 0.0
C815 C 0.99226 0.82972 0.10098 0.0
C816 C 1.00111 0.79253 0.10987 0.0
C817 C 0.02466 0.68229 0.09855 0.0
C818 C 0.01731 0.71964 0.10859 0.0
H819 H 0.01466 0.91595 0.11394 0.0
H820 H 0.02319 0.85551 0.13762 0.0
H821 H 0.9553 0.77297 0.11541 0.0
H822 H 0.05421 0.6378 0.02764 0.0
H823 H 0.04983 0.6979 0.05146 0.0
C824 C 0.25543 0.36408 0.24405 0.0
C825 C 0.27599 0.35398 0.27079 0.0
C826 C 0.24963 0.40046 0.23757 0.0
C827 C 0.25433 0.48767 0.28375 0.0
H828 H 0.25308 0.5297 0.18944 0.0
C829 C 0.27012 0.63901 0.25869 0.0
C830 C 0.25644 0.65408 0.22848 0.0
C831 C 0.26722 0.60235 0.26554 0.0
C832 C 0.25276 0.51839 0.21601 0.0
H833 H 0.30819 0.3741 0.30967 0.0
H834 H 0.2983 0.43647 0.29827 0.0
H835 H 0.2583 0.46521 0.19577 0.0
H836 H 0.2269 0.64351 0.18361 0.0
H837 H 0.22092 0.58022 0.19622 0.0
H838 H 0.24922 0.54068 0.30413 0.0
C839 C 0.28592 0.41671 0.28304 0.0
C840 C 0.25581 0.48136 0.21955 0.0
C841 C 0.29169 0.38082 0.2894 0.0
C842 C 0.23791 0.63251 0.20696 0.0
C843 C 0.23477 0.59613 0.21396 0.0
C844 C 0.25116 0.52461 0.28024 0.0
C845 C 0.26428 0.42708 0.25781 0.0
C846 C 0.25733 0.46569 0.25349 0.0
C847 C 0.25036 0.58023 0.24246 0.0
C848 C 0.25091 0.54059 0.24634 0.0
H849 H 0.24301 0.34403 0.2293 0.0
H850 H 0.23296 0.40772 0.21772 0.0
H851 H 0.25489 0.4763 0.31031 0.0
H852 H 0.2848 0.65492 0.27548 0.0
H853 H 0.27968 0.59107 0.28768 0.0
C854 C 0.75696 0.13977 0.75197 0.0
C855 C 0.77707 0.14977 0.72472 0.0
C856 C 0.75122 0.10342 0.75869 0.0
C857 C 0.75539 0.01585 0.71292 0.0
H858 H 0.75496 0.97463 0.8076 0.0
C859 C 0.77072 0.86458 0.73911 0.0
C860 C 0.75711 0.84988 0.76956 0.0
C861 C 0.76805 0.90121 0.73201 0.0
C862 C 0.75442 0.98572 0.78093 0.0
H863 H 0.80856 0.12949 0.68513 0.0
H864 H 0.79882 0.06718 0.69699 0.0
H865 H 0.76023 0.03905 0.80065 0.0
H866 H 0.72797 0.8611 0.81464 0.0
H867 H 0.72239 0.92434 0.80158 0.0
H868 H 0.75002 0.96267 0.69306 0.0
C869 C 0.7867 0.08698 0.71242 0.0
C870 C 0.75749 0.02271 0.77704 0.0
C871 C 0.79238 0.12285 0.70579 0.0
C872 C 0.73892 0.87181 0.7911 0.0
C873 C 0.736 0.90816 0.78384 0.0
C874 C 0.75222 0.97895 0.71679 0.0
C875 C 0.76551 0.07671 0.73823 0.0
C876 C 0.75868 0.0381 0.74295 0.0
C877 C 0.7515 0.92367 0.75507 0.0
C878 C 0.75223 0.96327 0.75082 0.0
H879 H 0.74484 0.15988 0.76699 0.0
H880 H 0.7349 0.09624 0.77899 0.0
H881 H 0.75568 0.02699 0.68626 0.0
H882 H 0.78515 0.84838 0.72232 0.0
H883 H 0.78044 0.91221 0.70966 0.0
C884 C 0.36351 0.56302 0.98041 0.0
C885 C 0.38329 0.53477 0.98841 0.0
C886 C 0.3323 0.55781 0.97939 0.0
C887 C 0.27103 0.50214 0.01511 0.0
H888 H 0.22406 0.55353 0.94456 0.0
C889 C 0.13714 0.50918 0.0105 0.0
C890 C 0.12588 0.54394 0.00501 0.0
C891 C 0.1684 0.50211 0.00777 0.0
C892 C 0.23678 0.53898 0.96451 0.0
H893 H 0.38547 0.47847 1.00112 0.0
H894 H 0.33032 0.46927 0.99956 0.0
H895 H 0.27879 0.55109 0.93906 0.0
H896 H 0.13941 0.59865 0.99403 0.0
H897 H 0.19278 0.58631 0.98924 0.0
H898 H 0.22861 0.49086 0.04095 0.0
C899 C 0.33932 0.49556 0.99403 0.0
C900 C 0.26822 0.53758 0.96135 0.0
C901 C 0.37089 0.50072 0.99459 0.0
C902 C 0.14682 0.57139 0.99796 0.0
C903 C 0.17765 0.56433 0.99501 0.0
C904 C 0.23933 0.50348 0.01825 0.0
C905 C 0.31962 0.52418 0.98658 0.0
C906 C 0.28593 0.52019 0.98719 0.0
C907 C 0.18891 0.52959 0.99915 0.0
C908 C 0.22193 0.52297 0.99358 0.0
H909 H 0.37218 0.58961 0.97548 0.0
H910 H 0.31798 0.58062 0.97402 0.0
H911 H 0.28394 0.48857 0.03555 0.0
H912 H 0.12181 0.48736 0.01604 0.0
H913 H 0.17639 0.47504 0.01128 0.0
C914 C 0.71829 0.12304 0.29106 0.0
C915 C 0.7355 0.14942 0.27373 0.0
C916 C 0.72342 0.08701 0.28476 0.0
C917 C 0.75465 0.02136 0.22327 0.0
H918 H 0.75763 0.9625 0.30845 0.0
C919 C 0.77044 0.86965 0.21245 0.0
C920 C 0.7514 0.84853 0.23378 0.0
C921 C 0.77378 0.90607 0.21912 0.0
C922 C 0.75666 0.97842 0.28437 0.0
H923 H 0.7705 0.15854 0.23442 0.0
H924 H 0.77944 0.09455 0.22289 0.0
H925 H 0.75276 0.02701 0.31397 0.0
H926 H 0.72213 0.84854 0.27997 0.0
H927 H 0.72748 0.91249 0.29154 0.0
H928 H 0.75747 0.97276 0.19358 0.0
C929 C 0.76208 0.10228 0.24172 0.0
C930 C 0.75398 0.01544 0.28752 0.0
C931 C 0.75691 0.13882 0.24815 0.0
C932 C 0.73724 0.86411 0.2634 0.0
C933 C 0.74028 0.90082 0.26988 0.0
C934 C 0.75716 0.98423 0.22008 0.0
C935 C 0.74593 0.07607 0.26086 0.0
C936 C 0.75233 0.03728 0.25702 0.0
C937 C 0.75781 0.92249 0.24704 0.0
C938 C 0.75771 0.96219 0.25061 0.0
H939 H 0.70113 0.13025 0.31038 0.0
H940 H 0.70994 0.06758 0.29908 0.0
H941 H 0.7532 0.03743 0.19932 0.0
H942 H 0.78179 0.85823 0.18952 0.0
H943 H 0.78813 0.92158 0.2016 0.0
C944 C 0.86873 0.00194 0.01262 0.0
C945 C 0.88058 0.96926 0.02465 0.0
C946 C 0.83732 0.00811 0.0131 0.0
C947 C 0.76553 0.97427 0.05289 0.0
H948 H 0.72734 0.00575 0.96524 0.0
C949 C 0.64531 0.93321 0.01826 0.0
C950 C 0.62445 0.95862 0.00554 0.0
C951 C 0.6759 0.94138 0.02168 0.0
C952 C 0.73765 0.99753 0.99011 0.0
H953 H 0.86893 0.91826 0.04813 0.0
H954 H 0.8149 0.9291 0.04958 0.0
H955 H 0.78255 0.00856 0.97117 0.0
H956 H 0.62026 0.0126 0.98535 0.0
H957 H 0.67448 0.02673 0.99082 0.0
H958 H 0.721 0.96189 0.07137 0.0
C959 C 0.8295 0.95006 0.03968 0.0
C960 C 0.76929 0.99917 0.99356 0.0
C961 C 0.86058 0.94375 0.03872 0.0
C962 C 0.63554 0.99237 0.99531 0.0
C963 C 0.66658 1.00046 0.99842 0.0
C964 C 0.73411 0.97255 0.04941 0.0
C965 C 0.81728 0.98198 0.02626 0.0
C966 C 0.78369 0.9864 0.02459 0.0
C967 C 0.68699 0.97516 0.01231 0.0
C968 C 0.71981 0.983 0.01758 0.0
H969 H 0.88352 0.02196 0.00126 0.0
H970 H 0.82869 0.03307 0.00273 0.0
H971 H 0.77571 0.96496 0.07746 0.0
H972 H 0.63805 0.9068 0.02625 0.0
H973 H 0.69101 0.92098 0.03174 0.0
C974 C 0.25671 0.64078 0.74425 0.0
C975 C 0.23253 0.65183 0.76588 0.0
C976 C 0.26206 0.60415 0.73875 0.0
C977 C 0.24841 0.51848 0.78412 0.0
H978 H 0.2641 0.47373 0.69293 0.0
C979 C 0.23701 0.36637 0.7616 0.0
C980 C 0.25416 0.35047 0.73446 0.0
C981 C 0.23913 0.4032 0.7678 0.0
C982 C 0.26039 0.48578 0.71881 0.0
H983 H 0.19369 0.63369 0.79613 0.0
H984 H 0.20275 0.57063 0.78624 0.0
H985 H 0.25824 0.53837 0.69619 0.0
H986 H 0.28868 0.35967 0.6946 0.0
H987 H 0.2936 0.42327 0.70659 0.0
H988 H 0.25045 0.46621 0.80691 0.0
C989 C 0.21808 0.58977 0.77434 0.0
C990 C 0.25691 0.52289 0.72054 0.0
C991 C 0.21277 0.62595 0.77974 0.0
C992 C 0.27518 0.37136 0.71569 0.0
C993 C 0.27765 0.40792 0.72222 0.0
C994 C 0.25214 0.48149 0.78248 0.0
C995 C 0.24333 0.57834 0.7549 0.0
C996 C 0.25021 0.53953 0.7531 0.0
C997 C 0.25871 0.42468 0.74722 0.0
C998 C 0.25762 0.46447 0.7497 0.0
H999 H 0.27238 0.66017 0.73346 0.0
H1000 H 0.28162 0.59603 0.72341 0.0
H1001 H 0.24378 0.53066 0.80976 0.0
H1002 H 0.22027 0.35096 0.77599 0.0
H1003 H 0.224 0.41506 0.78714 0.0
C1004 C 0.13883 0.50128 0.49508 0.0
C1005 C 0.12788 0.46742 0.48524 0.0
C1006 C 0.17012 0.50823 0.4954 0.0
C1007 C 0.24382 0.47183 0.46251 0.0
H1008 H 0.27842 0.5145 0.5475 0.0
C1009 C 0.36062 0.43484 0.51264 0.0
C1010 C 0.38262 0.46201 0.51402 0.0
C1011 C 0.33005 0.44294 0.50888 0.0
C1012 C 0.26904 0.50313 0.52335 0.0
H1013 H 0.14117 0.41505 0.46636 0.0
H1014 H 0.1949 0.42701 0.46671 0.0
H1015 H 0.2234 0.51556 0.53849 0.0
H1016 H 0.38895 0.51939 0.51483 0.0
H1017 H 0.33472 0.53355 0.50911 0.0
H1018 H 0.28913 0.45748 0.44847 0.0
C1019 C 0.17971 0.44841 0.47412 0.0
C1020 C 0.23755 0.50376 0.5181 0.0
C1021 C 0.14875 0.44143 0.47412 0.0
C1022 C 0.37274 0.49778 0.51384 0.0
C1023 C 0.34175 0.50591 0.51048 0.0
C1024 C 0.27504 0.47089 0.46794 0.0
C1025 C 0.191 0.48164 0.48534 0.0
C1026 C 0.22446 0.48701 0.48815 0.0
C1027 C 0.32028 0.47843 0.50689 0.0
C1028 C 0.28793 0.48558 0.49886 0.0
H1029 H 0.12337 0.52178 0.50407 0.0
H1030 H 0.17799 0.53421 0.50398 0.0
H1031 H 0.23473 0.45942 0.43872 0.0
H1032 H 0.36704 0.40697 0.51316 0.0
H1033 H 0.31395 0.42125 0.50668 0.0
C1034 C 0.76239 0.65262 0.8643 0.0
C1035 C 0.77776 0.68483 0.8582 0.0
C1036 C 0.75881 0.63972 0.89922 0.0
C1037 C 0.78631 0.64825 0.99204 0.0
H1038 H 0.7019 0.64687 0.01974 0.0
C1039 C 0.7185 0.70005 0.11747 0.0
C1040 C 0.73272 0.68308 0.14628 0.0
C1041 C 0.72182 0.68697 0.08286 0.0
C1042 C 0.72556 0.64639 0.01235 0.0
H1043 H 0.8032 0.72741 0.88311 0.0
H1044 H 0.79803 0.70436 0.9435 0.0
H1045 H 0.71544 0.64724 0.95643 0.0
H1046 H 0.76079 0.63847 0.1619 0.0
H1047 H 0.76765 0.61612 0.10064 0.0
H1048 H 0.79639 0.64942 0.04796 0.0
C1049 C 0.78844 0.6892 0.92165 0.0
C1050 C 0.73332 0.64642 0.97616 0.0
C1051 C 0.79129 0.70251 0.88707 0.0
C1052 C 0.74932 0.65175 0.1401 0.0
C1053 C 0.75335 0.63913 0.10515 0.0
C1054 C 0.77857 0.64763 0.02824 0.0
C1055 C 0.77134 0.65834 0.92828 0.0
C1056 C 0.76372 0.64893 0.96568 0.0
C1057 C 0.7401 0.65711 0.07615 0.0
C1058 C 0.74809 0.64828 0.03872 0.0
H1059 H 0.75149 0.63874 0.84246 0.0
H1060 H 0.74544 0.61592 0.90366 0.0
H1061 H 0.80992 0.65016 0.98466 0.0
H1062 H 0.70569 0.72431 0.12147 0.0
H1063 H 0.71164 0.70164 0.06105 0.0
C1064 C 0.46796 0.45746 0.37285 0.0
C1065 C 0.48488 0.47525 0.3992 0.0
C1066 C 0.47301 0.46377 0.3368 0.0
C1067 C 0.50342 0.52593 0.27112 0.0
H1068 H 0.5071 0.44093 0.21205 0.0
C1069 C 0.51933 0.53726 0.11946 0.0
C1070 C 0.50048 0.51578 0.09824 0.0
C1071 C 0.52264 0.53054 0.15587 0.0
C1072 C 0.50593 0.46496 0.22803 0.0
H1073 H 0.51927 0.51535 0.40819 0.0
H1074 H 0.52808 0.52684 0.34418 0.0
H1075 H 0.50234 0.43521 0.27656 0.0
H1076 H 0.47151 0.46932 0.09807 0.0
H1077 H 0.47681 0.45767 0.16202 0.0
H1078 H 0.50598 0.55576 0.22259 0.0
C1079 C 0.51101 0.50766 0.35196 0.0
C1080 C 0.50331 0.46169 0.26505 0.0
C1081 C 0.50592 0.50124 0.38851 0.0
C1082 C 0.48647 0.486 0.11372 0.0
C1083 C 0.48949 0.47948 0.15043 0.0
C1084 C 0.50589 0.52923 0.23399 0.0
C1085 C 0.49515 0.48813 0.32578 0.0
C1086 C 0.50142 0.49212 0.28697 0.0
C1087 C 0.50682 0.50244 0.17219 0.0
C1088 C 0.5067 0.49876 0.21188 0.0
H1089 H 0.45107 0.43782 0.38011 0.0
H1090 H 0.45973 0.44913 0.31742 0.0
H1091 H 0.50178 0.54983 0.28724 0.0
H1092 H 0.53056 0.56031 0.10811 0.0
H1093 H 0.53684 0.54817 0.17145 0.0
C1094 C 0.71888 0.30531 0.38663 0.0
C1095 C 0.73343 0.32102 0.35732 0.0
C1096 C 0.72188 0.31979 0.42069 0.0
C1097 C 0.77823 0.36266 0.47401 0.0
H1098 H 0.71531 0.35982 0.546 0.0
C1099 C 0.76161 0.35281 0.63784 0.0
C1100 C 0.779 0.32189 0.64289 0.0
C1101 C 0.75762 0.36685 0.60342 0.0
C1102 C 0.73312 0.36165 0.52626 0.0
H1103 H 0.76157 0.36503 0.34023 0.0
H1104 H 0.76777 0.38999 0.40057 0.0
H1105 H 0.70164 0.35955 0.48284 0.0
H1106 H 0.80757 0.28303 0.61667 0.0
H1107 H 0.80152 0.30794 0.55734 0.0
H1108 H 0.80975 0.36202 0.51744 0.0
C1109 C 0.75357 0.36675 0.39685 0.0
C1110 C 0.72528 0.36126 0.4901 0.0
C1111 C 0.74992 0.35263 0.36241 0.0
C1112 C 0.79407 0.30687 0.61359 0.0
C1113 C 0.79072 0.32131 0.57956 0.0
C1114 C 0.78607 0.36266 0.51017 0.0
C1115 C 0.74007 0.34995 0.42644 0.0
C1116 C 0.74779 0.36018 0.46364 0.0
C1117 C 0.77165 0.35069 0.57383 0.0
C1118 C 0.76361 0.36057 0.53664 0.0
H1119 H 0.70603 0.28095 0.38352 0.0
H1120 H 0.71151 0.30593 0.44291 0.0
H1121 H 0.79608 0.36163 0.45427 0.0
H1122 H 0.74953 0.36464 0.66001 0.0
H1123 H 0.74273 0.38948 0.59972 0.0
C1124 C 0.03648 0.45451 0.63303 0.0
C1125 C 0.02414 0.4759 0.60579 0.0
C1126 C 0.0306 0.46158 0.66877 0.0
C1127 C 0.0074 0.5306 0.73216 0.0
H1128 H 0.99295 0.44884 0.79345 0.0
C1129 C 0.98907 0.5488 0.88264 0.0
C1130 C 0.00587 0.52613 0.90502 0.0
C1131 C 0.98584 0.54127 0.84639 0.0
C1132 C 0.9971 0.47193 0.77679 0.0
H1133 H 0.99677 0.52262 0.59522 0.0
H1134 H 0.98644 0.53527 0.65857 0.0
H1135 H 0.9978 0.44043 0.7292 0.0
H1136 H 0.03087 0.4766 0.90737 0.0
H1137 H 0.02545 0.46334 0.84369 0.0
H1138 H 0.00741 0.56201 0.7798 0.0
C1139 C 1.00064 0.51277 0.65172 0.0
C1140 C 0.99983 0.46716 0.73992 0.0
C1141 C 0.00657 0.50561 0.6155 0.0
C1142 C 0.0176 0.49438 0.89084 0.0
C1143 C 0.01454 0.48691 0.85431 0.0
C1144 C 1.00466 0.53538 0.76907 0.0
C1145 C 0.01217 0.49031 0.67869 0.0
C1146 C 0.00566 0.49632 0.71723 0.0
C1147 C 0.99952 0.51097 0.83143 0.0
C1148 C 0.99997 0.50602 0.79194 0.0
H1149 H 0.05068 0.43181 0.62682 0.0
H1150 H 0.04067 0.44442 0.68876 0.0
H1151 H 0.01217 0.55354 0.71552 0.0
H1152 H 0.97947 0.57333 0.8929 0.0
H1153 H 0.97344 0.55987 0.82983 0.0
C1154 C 0.86568 0.06902 0.48876 0.0
C1155 C 0.88657 0.04116 0.49359 0.0
C1156 C 0.83466 0.06242 0.4883 0.0
C1157 C 0.77606 1.00012 0.51974 0.0
H1158 H 0.72589 0.05812 0.45789 0.0
C1159 C 0.64109 0.00479 0.51308 0.0
C1160 C 0.63022 0.04 0.51626 0.0
C1161 C 0.67239 0.99812 0.51016 0.0
C1162 C 0.73956 0.04153 0.47521 0.0
H1163 H 0.89087 0.98408 0.50114 0.0
H1164 H 0.83607 0.9724 0.50033 0.0
H1165 H 0.78047 0.0582 0.44995 0.0
H1166 H 0.64422 0.09534 0.52154 0.0
H1167 H 0.69784 0.0837 0.51602 0.0
H1168 H 0.73455 0.98405 0.54527 0.0
C1169 C 0.84405 0.99951 0.497 0.0
C1170 C 0.7709 0.04168 0.47079 0.0
C1171 C 0.87544 0.00613 0.49714 0.0
C1172 C 0.65147 0.06791 0.51852 0.0
C1173 C 0.68235 0.06131 0.51531 0.0
C1174 C 0.74442 0.99975 0.52399 0.0
C1175 C 0.82326 0.0277 0.49271 0.0
C1176 C 0.78974 0.02206 0.49379 0.0
C1177 C 0.6932 0.02657 0.51011 0.0
C1178 C 0.72598 0.02144 0.50248 0.0
H1179 H 0.87327 0.09634 0.48585 0.0
H1180 H 0.81953 0.08495 0.48552 0.0
H1181 H 0.78983 0.98474 0.538 0.0
H1182 H 0.62545 0.98265 0.51122 0.0
H1183 H 0.6802 0.97101 0.50632 0.0
loop_
_geom_bond_atom_site_label_1
_geom_bond_atom_site_label_2
_geom_bond_distance
_geom_bond_site_symmetry_2
_ccdc_geom_bond_type
Co0 O1 2.216 . S
Co0 O2 2.091 . S
Co0 O4 2.004 . S
Co0 O10 2.021 . S
Co0 O12 2.137 . S
Co0 O13 2.244 . S
O1 Co0 2.216 . S
O1 C8 1.247 . S
O2 Co0 2.091 . S
O2 C8 1.261 . S
C3 O12 1.247 . S
C3 O13 1.272 . S
O4 Co0 2.004 . S
O4 C9 1.259 . S
Co5 O6 2.061 . S
Co5 O11 2.052 . S
Co5 O13 2.135 . S
O6 Co5 2.061 . S
O6 C9 1.235 . S
C7 O10 1.238 . S
C7 O11 1.241 . S
C8 O1 1.247 . S
C8 O2 1.261 . S
C9 O4 1.259 . S
C9 O6 1.235 . S
O10 Co0 2.021 . S
O10 C7 1.238 . S
O11 Co5 2.052 . S
O11 C7 1.241 . S
O12 Co0 2.137 . S
O12 C3 1.247 . S
O13 Co0 2.244 . S
O13 C3 1.272 . S
O13 Co5 2.135 . S
Co14 O15 2.216 1_655 S
Co14 O16 2.091 1_545 S
Co14 O18 2.004 . S
Co14 O24 2.021 1_545 S
Co14 O26 2.137 . S
Co14 O27 2.244 . S
O15 Co14 2.216 1_455 S
O15 C22 1.247 1_545 S
O16 Co14 2.091 1_565 S
O16 C22 1.261 1_655 S
C17 O26 1.247 . S
C17 O27 1.272 . S
O18 Co14 2.004 . S
O18 C23 1.259 . S
Co19 O20 2.061 . S
Co19 O25 2.052 . S
Co19 O27 2.135 . S
O20 Co19 2.061 . S
O20 C23 1.235 . S
C21 O24 1.238 1_545 S
C21 O25 1.241 . S
C22 O15 1.247 1_565 S
C22 O16 1.261 1_455 S
C23 O18 1.259 . S
C23 O20 1.235 . S
O24 Co14 2.021 1_565 S
O24 C21 1.238 1_565 S
O25 Co19 2.052 . S
O25 C21 1.241 . S
O26 Co14 2.137 . S
O26 C17 1.247 . S
O27 Co14 2.244 . S
O27 C17 1.272 . S
O27 Co19 2.135 . S
Co28 O29 2.216 . S
Co28 O30 2.091 . S
Co28 O32 2.004 . S
Co28 O38 2.021 . S
Co28 O40 2.137 . S
Co28 O41 2.244 . S
O29 Co28 2.216 . S
O29 C36 1.247 . S
O30 Co28 2.091 . S
O30 C36 1.261 . S
C31 O40 1.247 . S
C31 O41 1.272 . S
O32 Co28 2.004 . S
O32 C37 1.259 . S
Co33 O34 2.061 . S
Co33 O39 2.052 . S
Co33 O41 2.135 . S
O34 Co33 2.061 . S
O34 C37 1.235 . S
C35 O38 1.238 . S
C35 O39 1.241 . S
C36 O29 1.247 . S
C36 O30 1.261 . S
C37 O32 1.259 . S
C37 O34 1.235 . S
O38 Co28 2.021 . S
O38 C35 1.238 . S
O39 Co33 2.052 . S
O39 C35 1.241 . S
O40 Co28 2.137 . S
O40 C31 1.247 . S
O41 Co28 2.244 . S
O41 C31 1.272 . S
O41 Co33 2.135 . S
Co42 O43 2.216 . S
Co42 O44 2.091 1_565 S
Co42 O46 2.004 . S
Co42 O52 2.021 1_566 S
Co42 O54 2.137 . S
Co42 O55 2.244 1_556 S
O43 Co42 2.216 . S
O43 C50 1.247 1_565 S
O44 Co42 2.091 1_545 S
O44 C50 1.261 . S
C45 O54 1.247 . S
C45 O55 1.272 1_556 S
O46 Co42 2.004 . S
O46 C51 1.259 . S
Co47 O48 2.061 . S
Co47 O53 2.052 . S
Co47 O55 2.135 . S
O48 Co47 2.061 . S
O48 C51 1.235 1_554 S
C49 O52 1.238 1_565 S
C49 O53 1.241 . S
C50 O43 1.247 1_545 S
C50 O44 1.261 . S
C51 O46 1.259 . S
C51 O48 1.235 1_556 S
O52 Co42 2.021 1_544 S
O52 C49 1.238 1_545 S
O53 Co47 2.052 . S
O53 C49 1.241 . S
O54 Co42 2.137 . S
O54 C45 1.247 . S
O55 Co42 2.244 1_554 S
O55 C45 1.272 1_554 S
O55 Co47 2.135 . S
Co56 O57 2.216 . S
Co56 O58 2.091 . S
Co56 O60 2.004 . S
Co56 O66 2.021 . S
Co56 O68 2.137 . S
Co56 O69 2.244 . S
O57 Co56 2.216 . S
O57 C64 1.247 . S
O58 Co56 2.091 . S
O58 C64 1.261 . S
C59 O68 1.247 . S
C59 O69 1.272 . S
O60 Co56 2.004 . S
O60 C65 1.259 . S
Co61 O62 2.061 . S
Co61 O67 2.052 . S
Co61 O69 2.135 . S
O62 Co61 2.061 . S
O62 C65 1.235 . S
C63 O66 1.238 . S
C63 O67 1.241 . S
C64 O57 1.247 . S
C64 O58 1.261 . S
C65 O60 1.259 . S
C65 O62 1.235 . S
O66 Co56 2.021 . S
O66 C63 1.238 . S
O67 Co61 2.052 . S
O67 C63 1.241 . S
O68 Co56 2.137 . S
O68 C59 1.247 . S
O69 Co56 2.244 . S
O69 C59 1.272 . S
O69 Co61 2.135 . S
Co70 O71 2.216 . S
Co70 O72 2.091 1_545 S
Co70 O74 2.004 . S
Co70 O80 2.021 1_545 S
Co70 O82 2.137 . S
Co70 O83 2.244 . S
O71 Co70 2.216 . S
O71 C78 1.247 1_545 S
O72 Co70 2.091 1_565 S
O72 C78 1.261 . S
C73 O82 1.247 . S
C73 O83 1.272 . S
O74 Co70 2.004 . S
O74 C79 1.259 . S
Co75 O76 2.061 . S
Co75 O81 2.052 . S
Co75 O83 2.135 . S
O76 Co75 2.061 . S
O76 C79 1.235 . S
C77 O80 1.238 1_545 S
C77 O81 1.241 . S
C78 O71 1.247 1_565 S
C78 O72 1.261 . S
C79 O74 1.259 . S
C79 O76 1.235 . S
O80 Co70 2.021 1_565 S
O80 C77 1.238 1_565 S
O81 Co75 2.052 . S
O81 C77 1.241 . S
O82 Co70 2.137 . S
O82 C73 1.247 . S
O83 Co70 2.244 . S
O83 C73 1.272 . S
O83 Co75 2.135 . S
Co84 O85 2.216 . S
Co84 O86 2.091 . S
Co84 O88 2.004 . S
Co84 O94 2.021 . S
Co84 O96 2.137 . S
Co84 O97 2.244 . S
O85 Co84 2.216 . S
O85 C92 1.247 . S
O86 Co84 2.091 . S
O86 C92 1.261 . S
C87 O96 1.247 . S
C87 O97 1.272 . S
O88 Co84 2.004 . S
O88 C93 1.259 . S
Co89 O90 2.061 . S
Co89 O95 2.052 . S
Co89 O97 2.135 . S
O90 Co89 2.061 . S
O90 C93 1.235 . S
C91 O94 1.238 . S
C91 O95 1.241 . S
C92 O85 1.247 . S
C92 O86 1.261 . S
C93 O88 1.259 . S
C93 O90 1.235 . S
O94 Co84 2.021 . S
O94 C91 1.238 . S
O95 Co89 2.052 . S
O95 C91 1.241 . S
O96 Co84 2.137 . S
O96 C87 1.247 . S
O97 Co84 2.244 . S
O97 C87 1.272 . S
O97 Co89 2.135 . S
Co98 O99 2.216 1_655 S
Co98 O100 2.091 1_565 S
Co98 O102 2.004 . S
Co98 O108 2.021 1_564 S
Co98 O110 2.137 . S
Co98 O111 2.244 1_554 S
O99 Co98 2.216 1_455 S
O99 C106 1.247 1_565 S
O100 Co98 2.091 1_545 S
O100 C106 1.261 1_655 S
C101 O110 1.247 . S
C101 O111 1.272 1_554 S
O102 Co98 2.004 . S
O102 C107 1.259 . S
Co103 O104 2.061 . S
Co103 O109 2.052 . S
Co103 O111 2.135 . S
O104 Co103 2.061 . S
O104 C107 1.235 1_556 S
C105 O108 1.238 1_565 S
C105 O109 1.241 . S
C106 O99 1.247 1_545 S
C106 O100 1.261 1_455 S
C107 O102 1.259 . S
C107 O104 1.235 1_554 S
O108 Co98 2.021 1_546 S
O108 C105 1.238 1_545 S
O109 Co103 2.052 . S
O109 C105 1.241 . S
O110 Co98 2.137 . S
O110 C101 1.247 . S
O111 Co98 2.244 1_556 S
O111 C101 1.272 1_556 S
O111 Co103 2.135 . S
Co112 O113 2.216 . S
Co112 O114 2.091 . S
Co112 O116 2.004 . S
Co112 O122 2.021 . S
Co112 O124 2.137 . S
Co112 O125 2.244 . S
O113 Co112 2.216 . S
O113 C120 1.247 . S
O114 Co112 2.091 . S
O114 C120 1.261 . S
C115 O124 1.247 . S
C115 O125 1.272 . S
O116 Co112 2.004 . S
O116 C121 1.259 . S
Co117 O118 2.061 . S
Co117 O123 2.052 . S
Co117 O125 2.135 . S
O118 Co117 2.061 . S
O118 C121 1.235 . S
C119 O122 1.238 . S
C119 O123 1.241 . S
C120 O113 1.247 . S
C120 O114 1.261 . S
C121 O116 1.259 . S
C121 O118 1.235 . S
O122 Co112 2.021 . S
O122 C119 1.238 . S
O123 Co117 2.052 . S
O123 C119 1.241 . S
O124 Co112 2.137 . S
O124 C115 1.247 . S
O125 Co112 2.244 . S
O125 C115 1.272 . S
O125 Co117 2.135 . S
Co126 O127 2.216 1_455 S
Co126 O128 2.091 . S
Co126 O130 2.004 . S
Co126 O136 2.021 1_554 S
Co126 O138 2.137 . S
Co126 O139 2.244 1_554 S
O127 Co126 2.216 1_655 S
O127 C134 1.247 . S
O128 Co126 2.091 . S
O128 C134 1.261 1_455 S
C129 O138 1.247 . S
C129 O139 1.272 1_554 S
O130 Co126 2.004 . S
O130 C135 1.259 . S
Co131 O132 2.061 . S
Co131 O137 2.052 . S
Co131 O139 2.135 . S
O132 Co131 2.061 . S
O132 C135 1.235 1_556 S
C133 O136 1.238 . S
C133 O137 1.241 . S
C134 O127 1.247 . S
C134 O128 1.261 1_655 S
C135 O130 1.259 . S
C135 O132 1.235 1_554 S
O136 Co126 2.021 1_556 S
O136 C133 1.238 . S
O137 Co131 2.052 . S
O137 C133 1.241 . S
O138 Co126 2.137 . S
O138 C129 1.247 . S
O139 Co126 2.244 1_556 S
O139 C129 1.272 1_556 S
O139 Co131 2.135 . S
Co140 O141 2.216 . S
Co140 O142 2.091 . S
Co140 O144 2.004 . S
Co140 O150 2.021 . S
Co140 O152 2.137 . S
Co140 O153 2.244 . S
O141 Co140 2.216 . S
O141 C148 1.247 . S
O142 Co140 2.091 . S
O142 C148 1.261 . S
C143 O152 1.247 . S
C143 O153 1.272 . S
O144 Co140 2.004 . S
O144 C149 1.259 . S
Co145 O146 2.061 . S
Co145 O151 2.052 . S
Co145 O153 2.135 . S
O146 Co145 2.061 . S
O146 C149 1.235 . S
C147 O150 1.238 . S
C147 O151 1.241 . S
C148 O141 1.247 . S
C148 O142 1.261 . S
C149 O144 1.259 . S
C149 O146 1.235 . S
O150 Co140 2.021 . S
O150 C147 1.238 . S
O151 Co145 2.052 . S
O151 C147 1.241 . S
O152 Co140 2.137 . S
O152 C143 1.247 . S
O153 Co140 2.244 . S
O153 C143 1.272 . S
O153 Co145 2.135 . S
Co154 O155 2.216 1_455 S
Co154 O156 2.091 . S
Co154 O158 2.004 . S
Co154 O164 2.021 . S
Co154 O166 2.137 . S
Co154 O167 2.244 . S
O155 Co154 2.216 1_655 S
O155 C162 1.247 . S
O156 Co154 2.091 . S
O156 C162 1.261 1_455 S
C157 O166 1.247 . S
C157 O167 1.272 . S
O158 Co154 2.004 . S
O158 C163 1.259 . S
Co159 O160 2.061 . S
Co159 O165 2.052 . S
Co159 O167 2.135 . S
O160 Co159 2.061 . S
O160 C163 1.235 . S
C161 O164 1.238 . S
C161 O165 1.241 . S
C162 O155 1.247 . S
C162 O156 1.261 1_655 S
C163 O158 1.259 . S
C163 O160 1.235 . S
O164 Co154 2.021 . S
O164 C161 1.238 . S
O165 Co159 2.052 . S
O165 C161 1.241 . S
O166 Co154 2.137 . S
O166 C157 1.247 . S
O167 Co154 2.244 . S
O167 C157 1.272 . S
O167 Co159 2.135 . S
Co168 O169 2.216 . S
Co168 O170 2.091 . S
Co168 O172 2.004 . S
Co168 O178 2.021 1_556 S
Co168 O180 2.137 . S
Co168 O181 2.244 1_556 S
O169 Co168 2.216 . S
O169 C176 1.247 . S
O170 Co168 2.091 . S
O170 C176 1.261 . S
C171 O180 1.247 . S
C171 O181 1.272 1_556 S
O172 Co168 2.004 . S
O172 C177 1.259 . S
Co173 O174 2.061 . S
Co173 O179 2.052 . S
Co173 O181 2.135 . S
O174 Co173 2.061 . S
O174 C177 1.235 1_554 S
C175 O178 1.238 . S
C175 O179 1.241 . S
C176 O169 1.247 . S
C176 O170 1.261 . S
C177 O172 1.259 . S
C177 O174 1.235 1_556 S
O178 Co168 2.021 1_554 S
O178 C175 1.238 . S
O179 Co173 2.052 . S
O179 C175 1.241 . S
O180 Co168 2.137 . S
O180 C171 1.247 . S
O181 Co168 2.244 1_554 S
O181 C171 1.272 1_554 S
O181 Co173 2.135 . S
Co182 O183 2.216 . S
Co182 O184 2.091 . S
Co182 O186 2.004 . S
Co182 O192 2.021 . S
Co182 O194 2.137 . S
Co182 O195 2.244 . S
O183 Co182 2.216 . S
O183 C190 1.247 . S
O184 Co182 2.091 . S
O184 C190 1.261 . S
C185 O194 1.247 . S
C185 O195 1.272 . S
O186 Co182 2.004 . S
O186 C191 1.259 . S
Co187 O188 2.061 . S
Co187 O193 2.052 . S
Co187 O195 2.135 . S
O188 Co187 2.061 . S
O188 C191 1.235 . S
C189 O192 1.238 . S
C189 O193 1.241 . S
C190 O183 1.247 . S
C190 O184 1.261 . S
C191 O186 1.259 . S
C191 O188 1.235 . S
O192 Co182 2.021 . S
O192 C189 1.238 . S
O193 Co187 2.052 . S
O193 C189 1.241 . S
O194 Co182 2.137 . S
O194 C185 1.247 . S
O195 Co182 2.244 . S
O195 C185 1.272 . S
O195 Co187 2.135 . S
Co196 O197 2.216 . S
Co196 O198 2.091 . S
Co196 O200 2.004 . S
Co196 O206 2.021 . S
Co196 O208 2.137 . S
Co196 O209 2.244 . S
O197 Co196 2.216 . S
O197 C204 1.247 . S
O198 Co196 2.091 . S
O198 C204 1.261 . S
C199 O208 1.247 . S
C199 O209 1.272 . S
O200 Co196 2.004 . S
O200 C205 1.259 . S
Co201 O202 2.061 . S
Co201 O207 2.052 . S
Co201 O209 2.135 . S
O202 Co201 2.061 . S
O202 C205 1.235 . S
C203 O206 1.238 . S
C203 O207 1.241 . S
C204 O197 1.247 . S
C204 O198 1.261 . S
C205 O200 1.259 . S
C205 O202 1.235 . S
O206 Co196 2.021 . S
O206 C203 1.238 . S
O207 Co201 2.052 . S
O207 C203 1.241 . S
O208 Co196 2.137 . S
O208 C199 1.247 . S
O209 Co196 2.244 . S
O209 C199 1.272 . S
O209 Co201 2.135 . S
Co210 O211 2.216 . S
Co210 O212 2.091 . S
Co210 O214 2.004 . S
Co210 O220 2.021 . S
Co210 O222 2.137 . S
Co210 O223 2.244 . S
O211 Co210 2.216 . S
O211 C218 1.247 . S
O212 Co210 2.091 . S
O212 C218 1.261 . S
C213 O222 1.247 . S
C213 O223 1.272 . S
O214 Co210 2.004 . S
O214 C219 1.259 . S
Co215 O216 2.061 . S
Co215 O221 2.052 . S
Co215 O223 2.135 . S
O216 Co215 2.061 . S
O216 C219 1.235 . S
C217 O220 1.238 . S
C217 O221 1.241 . S
C218 O211 1.247 . S
C218 O212 1.261 . S
C219 O214 1.259 . S
C219 O216 1.235 . S
O220 Co210 2.021 . S
O220 C217 1.238 . S
O221 Co215 2.052 . S
O221 C217 1.241 . S
O222 Co210 2.137 . S
O222 C213 1.247 . S
O223 Co210 2.244 . S
O223 C213 1.272 . S
O223 Co215 2.135 . S
C224 C225 1.349 . S
C224 C226 1.327 . S
C224 H249 0.950 . S
C225 C224 1.349 . S
C225 C241 1.349 . S
C226 C224 1.327 . S
C226 C245 1.429 . S
C226 H250 0.950 . S
C227 C244 1.574 . S
C227 C246 1.368 . S
C227 H251 0.949 . S
H228 C232 0.949 . S
C229 C230 1.349 . S
C229 C231 1.327 . S
C229 H252 0.950 . S
C230 C229 1.349 . S
C230 C242 1.349 . S
C231 C229 1.327 . S
C231 C247 1.429 . S
C231 H253 0.950 . S
C232 H228 0.949 . S
C232 C240 1.574 . S
C232 C248 1.368 . S
H233 C241 0.950 . S
H234 C239 0.950 . S
H235 C240 0.949 . S
H236 C242 0.950 . S
H237 C243 0.950 . S
H238 C244 0.949 . S
C239 H234 0.950 . S
C239 C241 1.327 . S
C239 C245 1.429 . S
C240 C232 1.574 . S
C240 H235 0.949 . S
C240 C246 1.368 . S
C241 C225 1.349 . S
C241 H233 0.950 . S
C241 C239 1.327 . S
C242 C230 1.349 . S
C242 H236 0.950 . S
C242 C243 1.327 . S
C243 H237 0.950 . S
C243 C242 1.327 . S
C243 C247 1.429 . S
C244 C227 1.574 . S
C244 H238 0.949 . S
C244 C248 1.368 . S
C245 C226 1.429 . S
C245 C239 1.429 . S
C245 C246 1.523 . S
C246 C227 1.368 . S
C246 C240 1.368 . S
C246 C245 1.523 . S
C247 C231 1.429 . S
C247 C243 1.429 . S
C247 C248 1.523 . S
C248 C232 1.368 . S
C248 C244 1.368 . S
C248 C247 1.523 . S
H249 C224 0.950 . S
H250 C226 0.950 . S
H251 C227 0.949 . S
H252 C229 0.950 . S
H253 C231 0.950 . S
C254 C255 1.349 . S
C254 C256 1.327 . S
C254 H279 0.950 1_565 S
C255 C254 1.349 . S
C255 C271 1.349 . S
C256 C254 1.327 . S
C256 C275 1.429 . S
C256 H280 0.950 . S
C257 C274 1.574 . S
C257 C276 1.368 . S
C257 H281 0.949 . S
H258 C262 0.949 . S
C259 C260 1.349 . S
C259 C261 1.327 . S
C259 H282 0.950 . S
C260 C259 1.349 . S
C260 C272 1.349 . S
C261 C259 1.327 . S
C261 C277 1.429 . S
C261 H283 0.950 . S
C262 H258 0.949 . S
C262 C270 1.574 . S
C262 C278 1.368 . S
H263 C271 0.950 . S
H264 C269 0.950 . S
H265 C270 0.949 . S
H266 C272 0.950 . S
H267 C273 0.950 . S
H268 C274 0.949 . S
C269 H264 0.950 . S
C269 C271 1.327 . S
C269 C275 1.429 . S
C270 C262 1.574 . S
C270 H265 0.949 . S
C270 C276 1.368 . S
C271 C255 1.349 . S
C271 H263 0.950 . S
C271 C269 1.327 . S
C272 C260 1.349 . S
C272 H266 0.950 . S
C272 C273 1.327 . S
C273 H267 0.950 . S
C273 C272 1.327 . S
C273 C277 1.429 . S
C274 C257 1.574 . S
C274 H268 0.949 . S
C274 C278 1.368 . S
C275 C256 1.429 . S
C275 C269 1.429 . S
C275 C276 1.523 . S
C276 C257 1.368 . S
C276 C270 1.368 . S
C276 C275 1.523 . S
C277 C261 1.429 . S
C277 C273 1.429 . S
C277 C278 1.523 . S
C278 C262 1.368 . S
C278 C274 1.368 . S
C278 C277 1.523 . S
H279 C254 0.950 1_545 S
H280 C256 0.950 . S
H281 C257 0.949 . S
H282 C259 0.950 . S
H283 C261 0.950 . S
C284 C285 1.349 . S
C284 C286 1.327 . S
C284 H309 0.950 . S
C285 C284 1.349 . S
C285 C301 1.349 . S
C286 C284 1.327 . S
C286 C305 1.429 . S
C286 H310 0.950 . S
C287 C304 1.574 . S
C287 C306 1.368 . S
C287 H311 0.949 . S
H288 C292 0.949 . S
C289 C290 1.349 . S
C289 C291 1.327 . S
C289 H312 0.950 . S
C290 C289 1.349 . S
C290 C302 1.349 . S
C291 C289 1.327 . S
C291 C307 1.429 . S
C291 H313 0.950 . S
C292 H288 0.949 . S
C292 C300 1.574 . S
C292 C308 1.368 . S
H293 C301 0.950 . S
H294 C299 0.950 . S
H295 C300 0.949 . S
H296 C302 0.950 . S
H297 C303 0.950 . S
H298 C304 0.949 . S
C299 H294 0.950 . S
C299 C301 1.327 . S
C299 C305 1.429 . S
C300 C292 1.574 . S
C300 H295 0.949 . S
C300 C306 1.368 . S
C301 C285 1.349 . S
C301 H293 0.950 . S
C301 C299 1.327 . S
C302 C290 1.349 . S
C302 H296 0.950 . S
C302 C303 1.327 . S
C303 H297 0.950 . S
C303 C302 1.327 . S
C303 C307 1.429 . S
C304 C287 1.574 . S
C304 H298 0.949 . S
C304 C308 1.368 . S
C305 C286 1.429 . S
C305 C299 1.429 . S
C305 C306 1.523 . S
C306 C287 1.368 . S
C306 C300 1.368 . S
C306 C305 1.523 . S
C307 C291 1.429 . S
C307 C303 1.429 . S
C307 C308 1.523 . S
C308 C292 1.368 . S
C308 C304 1.368 . S
C308 C307 1.523 . S
H309 C284 0.950 . S
H310 C286 0.950 . S
H311 C287 0.949 . S
H312 C289 0.950 . S
H313 C291 0.950 . S
C314 C315 1.349 . S
C314 C316 1.327 . S
C314 H339 0.950 . S
C315 C314 1.349 . S
C315 C331 1.349 . S
C316 C314 1.327 . S
C316 C335 1.429 . S
C316 H340 0.950 . S
C317 C334 1.574 . S
C317 C336 1.368 . S
C317 H341 0.949 . S
H318 C322 0.949 . S
C319 C320 1.349 . S
C319 C321 1.327 . S
C319 H342 0.950 . S
C320 C319 1.349 . S
C320 C332 1.349 . S
C321 C319 1.327 . S
C321 C337 1.429 . S
C321 H343 0.950 . S
C322 H318 0.949 . S
C322 C330 1.574 . S
C322 C338 1.368 . S
H323 C331 0.950 1_565 S
H324 C329 0.950 . S
H325 C330 0.949 . S
H326 C332 0.950 . S
H327 C333 0.950 . S
H328 C334 0.949 . S
C329 H324 0.950 . S
C329 C331 1.327 . S
C329 C335 1.429 . S
C330 C322 1.574 . S
C330 H325 0.949 . S
C330 C336 1.368 . S
C331 C315 1.349 . S
C331 H323 0.950 1_545 S
C331 C329 1.327 . S
C332 C320 1.349 . S
C332 H326 0.950 . S
C332 C333 1.327 . S
C333 H327 0.950 . S
C333 C332 1.327 . S
C333 C337 1.429 . S
C334 C317 1.574 . S
C334 H328 0.949 . S
C334 C338 1.368 . S
C335 C316 1.429 . S
C335 C329 1.429 . S
C335 C336 1.523 . S
C336 C317 1.368 . S
C336 C330 1.368 . S
C336 C335 1.523 . S
C337 C321 1.429 . S
C337 C333 1.429 . S
C337 C338 1.523 . S
C338 C322 1.368 . S
C338 C334 1.368 . S
C338 C337 1.523 . S
H339 C314 0.950 . S
H340 C316 0.950 . S
H341 C317 0.949 . S
H342 C319 0.950 . S
H343 C321 0.950 . S
C344 C345 1.349 . S
C344 C346 1.327 . S
C344 H369 0.950 . S
C345 C344 1.349 . S
C345 C361 1.349 . S
C346 C344 1.327 . S
C346 C365 1.429 . S
C346 H370 0.950 . S
C347 C364 1.574 . S
C347 C366 1.368 . S
C347 H371 0.949 . S
H348 C352 0.949 . S
C349 C350 1.349 . S
C349 C351 1.327 . S
C349 H372 0.950 . S
C350 C349 1.349 . S
C350 C362 1.349 . S
C351 C349 1.327 . S
C351 C367 1.429 . S
C351 H373 0.950 . S
C352 H348 0.949 . S
C352 C360 1.574 . S
C352 C368 1.368 . S
H353 C361 0.950 . S
H354 C359 0.950 . S
H355 C360 0.949 . S
H356 C362 0.950 . S
H357 C363 0.950 . S
H358 C364 0.949 . S
C359 H354 0.950 . S
C359 C361 1.327 . S
C359 C365 1.429 . S
C360 C352 1.574 . S
C360 H355 0.949 . S
C360 C366 1.368 . S
C361 C345 1.349 . S
C361 H353 0.950 . S
C361 C359 1.327 . S
C362 C350 1.349 . S
C362 H356 0.950 . S
C362 C363 1.327 . S
C363 H357 0.950 . S
C363 C362 1.327 . S
C363 C367 1.429 . S
C364 C347 1.574 . S
C364 H358 0.949 . S
C364 C368 1.368 . S
C365 C346 1.429 . S
C365 C359 1.429 . S
C365 C366 1.523 . S
C366 C347 1.368 . S
C366 C360 1.368 . S
C366 C365 1.523 . S
C367 C351 1.429 . S
C367 C363 1.429 . S
C367 C368 1.523 . S
C368 C352 1.368 . S
C368 C364 1.368 . S
C368 C367 1.523 . S
H369 C344 0.950 . S
H370 C346 0.950 . S
H371 C347 0.949 . S
H372 C349 0.950 . S
H373 C351 0.950 . S
C374 C375 1.349 . S
C374 C376 1.327 . S
C374 H399 0.950 . S
C375 C374 1.349 . S
C375 C391 1.349 . S
C376 C374 1.327 . S
C376 C395 1.429 . S
C376 H400 0.950 . S
C377 C394 1.574 . S
C377 C396 1.368 . S
C377 H401 0.949 . S
H378 C382 0.949 . S
C379 C380 1.349 . S
C379 C381 1.327 . S
C379 H402 0.950 . S
C380 C379 1.349 . S
C380 C392 1.349 . S
C381 C379 1.327 . S
C381 C397 1.429 . S
C381 H403 0.950 . S
C382 H378 0.949 . S
C382 C390 1.574 . S
C382 C398 1.368 . S
H383 C391 0.950 . S
H384 C389 0.950 . S
H385 C390 0.949 . S
H386 C392 0.950 . S
H387 C393 0.950 . S
H388 C394 0.949 . S
C389 H384 0.950 . S
C389 C391 1.327 . S
C389 C395 1.429 . S
C390 C382 1.574 . S
C390 H385 0.949 . S
C390 C396 1.368 . S
C391 C375 1.349 . S
C391 H383 0.950 . S
C391 C389 1.327 . S
C392 C380 1.349 . S
C392 H386 0.950 . S
C392 C393 1.327 . S
C393 H387 0.950 . S
C393 C392 1.327 . S
C393 C397 1.429 . S
C394 C377 1.574 . S
C394 H388 0.949 . S
C394 C398 1.368 . S
C395 C376 1.429 . S
C395 C389 1.429 . S
C395 C396 1.523 . S
C396 C377 1.368 . S
C396 C390 1.368 . S
C396 C395 1.523 . S
C397 C381 1.429 . S
C397 C393 1.429 . S
C397 C398 1.523 . S
C398 C382 1.368 . S
C398 C394 1.368 . S
C398 C397 1.523 . S
H399 C374 0.950 . S
H400 C376 0.950 . S
H401 C377 0.949 . S
H402 C379 0.950 . S
H403 C381 0.950 . S
C404 C405 1.349 . S
C404 C406 1.327 . S
C404 H429 0.950 . S
C405 C404 1.349 . S
C405 C421 1.349 . S
C406 C404 1.327 . S
C406 C425 1.429 . S
C406 H430 0.950 . S
C407 C424 1.574 . S
C407 C426 1.368 . S
C407 H431 0.949 . S
H408 C412 0.949 . S
C409 C410 1.349 . S
C409 C411 1.327 . S
C409 H432 0.950 . S
C410 C409 1.349 . S
C410 C422 1.349 . S
C411 C409 1.327 . S
C411 C427 1.429 . S
C411 H433 0.950 . S
C412 H408 0.949 . S
C412 C420 1.574 . S
C412 C428 1.368 . S
H413 C421 0.950 . S
H414 C419 0.950 . S
H415 C420 0.949 . S
H416 C422 0.950 . S
H417 C423 0.950 . S
H418 C424 0.949 . S
C419 H414 0.950 . S
C419 C421 1.327 . S
C419 C425 1.429 . S
C420 C412 1.574 . S
C420 H415 0.949 . S
C420 C426 1.368 . S
C421 C405 1.349 . S
C421 H413 0.950 . S
C421 C419 1.327 . S
C422 C410 1.349 . S
C422 H416 0.950 . S
C422 C423 1.327 . S
C423 H417 0.950 . S
C423 C422 1.327 . S
C423 C427 1.429 . S
C424 C407 1.574 . S
C424 H418 0.949 . S
C424 C428 1.368 . S
C425 C406 1.429 . S
C425 C419 1.429 . S
C425 C426 1.523 . S
C426 C407 1.368 . S
C426 C420 1.368 . S
C426 C425 1.523 . S
C427 C411 1.429 . S
C427 C423 1.429 . S
C427 C428 1.523 . S
C428 C412 1.368 . S
C428 C424 1.368 . S
C428 C427 1.523 . S
H429 C404 0.950 . S
H430 C406 0.950 . S
H431 C407 0.949 . S
H432 C409 0.950 . S
H433 C411 0.950 . S
C434 C435 1.349 . S
C434 C436 1.327 . S
C434 H459 0.950 . S
C435 C434 1.349 . S
C435 C451 1.349 . S
C436 C434 1.327 . S
C436 C455 1.429 . S
C436 H460 0.950 . S
C437 C454 1.574 . S
C437 C456 1.368 . S
C437 H461 0.949 . S
H438 C442 0.949 . S
C439 C440 1.349 . S
C439 C441 1.327 . S
C439 H462 0.950 . S
C440 C439 1.349 . S
C440 C452 1.349 . S
C441 C439 1.327 . S
C441 C457 1.429 . S
C441 H463 0.950 . S
C442 H438 0.949 . S
C442 C450 1.574 . S
C442 C458 1.368 . S
H443 C451 0.950 . S
H444 C449 0.950 . S
H445 C450 0.949 . S
H446 C452 0.950 . S
H447 C453 0.950 . S
H448 C454 0.949 . S
C449 H444 0.950 . S
C449 C451 1.327 . S
C449 C455 1.429 . S
C450 C442 1.574 . S
C450 H445 0.949 . S
C450 C456 1.368 . S
C451 C435 1.349 . S
C451 H443 0.950 . S
C451 C449 1.327 . S
C452 C440 1.349 . S
C452 H446 0.950 . S
C452 C453 1.327 . S
C453 H447 0.950 . S
C453 C452 1.327 . S
C453 C457 1.429 . S
C454 C437 1.574 . S
C454 H448 0.949 . S
C454 C458 1.368 . S
C455 C436 1.429 . S
C455 C449 1.429 . S
C455 C456 1.523 . S
C456 C437 1.368 . S
C456 C450 1.368 . S
C456 C455 1.523 . S
C457 C441 1.429 . S
C457 C453 1.429 . S
C457 C458 1.523 . S
C458 C442 1.368 . S
C458 C454 1.368 . S
C458 C457 1.523 . S
H459 C434 0.950 . S
H460 C436 0.950 . S
H461 C437 0.949 . S
H462 C439 0.950 . S
H463 C441 0.950 . S
C464 C465 1.349 . S
C464 C466 1.327 . S
C464 H489 0.950 . S
C465 C464 1.349 . S
C465 C481 1.349 . S
C466 C464 1.327 . S
C466 C485 1.429 . S
C466 H490 0.950 . S
C467 C484 1.574 . S
C467 C486 1.368 . S
C467 H491 0.949 . S
H468 C472 0.949 . S
C469 C470 1.349 . S
C469 C471 1.327 . S
C469 H492 0.950 . S
C470 C469 1.349 . S
C470 C482 1.349 . S
C471 C469 1.327 . S
C471 C487 1.429 . S
C471 H493 0.950 . S
C472 H468 0.949 . S
C472 C480 1.574 . S
C472 C488 1.368 . S
H473 C481 0.950 . S
H474 C479 0.950 . S
H475 C480 0.949 . S
H476 C482 0.950 . S
H477 C483 0.950 . S
H478 C484 0.949 . S
C479 H474 0.950 . S
C479 C481 1.327 . S
C479 C485 1.429 . S
C480 C472 1.574 . S
C480 H475 0.949 . S
C480 C486 1.368 . S
C481 C465 1.349 . S
C481 H473 0.950 . S
C481 C479 1.327 . S
C482 C470 1.349 . S
C482 H476 0.950 . S
C482 C483 1.327 . S
C483 H477 0.950 . S
C483 C482 1.327 . S
C483 C487 1.429 . S
C484 C467 1.574 . S
C484 H478 0.949 . S
C484 C488 1.368 . S
C485 C466 1.429 . S
C485 C479 1.429 . S
C485 C486 1.523 . S
C486 C467 1.368 . S
C486 C480 1.368 . S
C486 C485 1.523 . S
C487 C471 1.429 . S
C487 C483 1.429 . S
C487 C488 1.523 . S
C488 C472 1.368 . S
C488 C484 1.368 . S
C488 C487 1.523 . S
H489 C464 0.950 . S
H490 C466 0.950 . S
H491 C467 0.949 . S
H492 C469 0.950 . S
H493 C471 0.950 . S
C494 C495 1.349 . S
C494 C496 1.327 . S
C494 H519 0.950 . S
C495 C494 1.349 . S
C495 C511 1.349 1_545 S
C496 C494 1.327 . S
C496 C515 1.429 . S
C496 H520 0.950 . S
C497 C514 1.574 . S
C497 C516 1.368 1_565 S
C497 H521 0.949 . S
H498 C502 0.949 . S
C499 C500 1.349 . S
C499 C501 1.327 . S
C499 H522 0.950 . S
C500 C499 1.349 . S
C500 C512 1.349 1_565 S
C501 C499 1.327 . S
C501 C517 1.429 . S
C501 H523 0.950 . S
C502 H498 0.949 . S
C502 C510 1.574 . S
C502 C518 1.368 1_545 S
H503 C511 0.950 . S
H504 C509 0.950 . S
H505 C510 0.949 . S
H506 C512 0.950 . S
H507 C513 0.950 . S
H508 C514 0.949 . S
C509 H504 0.950 . S
C509 C511 1.327 . S
C509 C515 1.429 1_565 S
C510 C502 1.574 . S
C510 H505 0.949 . S
C510 C516 1.368 . S
C511 C495 1.349 1_565 S
C511 H503 0.950 . S
C511 C509 1.327 . S
C512 C500 1.349 1_545 S
C512 H506 0.950 . S
C512 C513 1.327 . S
C513 H507 0.950 . S
C513 C512 1.327 . S
C513 C517 1.429 1_545 S
C514 C497 1.574 . S
C514 H508 0.949 . S
C514 C518 1.368 . S
C515 C496 1.429 . S
C515 C509 1.429 1_545 S
C515 C516 1.523 . S
C516 C497 1.368 1_545 S
C516 C510 1.368 . S
C516 C515 1.523 . S
C517 C501 1.429 . S
C517 C513 1.429 1_565 S
C517 C518 1.523 . S
C518 C502 1.368 1_565 S
C518 C514 1.368 . S
C518 C517 1.523 . S
H519 C494 0.950 . S
H520 C496 0.950 . S
H521 C497 0.949 . S
H522 C499 0.950 . S
H523 C501 0.950 . S
C524 C525 1.349 . S
C524 C526 1.327 . S
C524 H549 0.950 . S
C525 C524 1.349 . S
C525 C541 1.349 . S
C526 C524 1.327 . S
C526 C545 1.429 . S
C526 H550 0.950 . S
C527 C544 1.574 1_556 S
C527 C546 1.368 . S
C527 H551 0.949 . S
H528 C532 0.949 . S
C529 C530 1.349 . S
C529 C531 1.327 . S
C529 H552 0.950 . S
C530 C529 1.349 . S
C530 C542 1.349 . S
C531 C529 1.327 . S
C531 C547 1.429 . S
C531 H553 0.950 . S
C532 H528 0.949 . S
C532 C540 1.574 1_554 S
C532 C548 1.368 . S
H533 C541 0.950 . S
H534 C539 0.950 . S
H535 C540 0.949 . S
H536 C542 0.950 . S
H537 C543 0.950 . S
H538 C544 0.949 . S
C539 H534 0.950 . S
C539 C541 1.327 . S
C539 C545 1.429 . S
C540 C532 1.574 1_556 S
C540 H535 0.949 . S
C540 C546 1.368 . S
C541 C525 1.349 . S
C541 H533 0.950 . S
C541 C539 1.327 . S
C542 C530 1.349 . S
C542 H536 0.950 . S
C542 C543 1.327 . S
C543 H537 0.950 . S
C543 C542 1.327 . S
C543 C547 1.429 . S
C544 C527 1.574 1_554 S
C544 H538 0.949 . S
C544 C548 1.368 . S
C545 C526 1.429 . S
C545 C539 1.429 . S
C545 C546 1.523 . S
C546 C527 1.368 . S
C546 C540 1.368 . S
C546 C545 1.523 . S
C547 C531 1.429 . S
C547 C543 1.429 . S
C547 C548 1.523 . S
C548 C532 1.368 . S
C548 C544 1.368 . S
C548 C547 1.523 . S
H549 C524 0.950 . S
H550 C526 0.950 . S
H551 C527 0.949 . S
H552 C529 0.950 . S
H553 C531 0.950 . S
C554 C555 1.349 1_545 S
C554 C556 1.327 . S
C554 H579 0.950 . S
C555 C554 1.349 1_565 S
C555 C571 1.349 . S
C556 C554 1.327 . S
C556 C575 1.429 1_545 S
C556 H580 0.950 . S
C557 C574 1.574 . S
C557 C576 1.368 . S
C557 H581 0.949 . S
H558 C562 0.949 . S
C559 C560 1.349 1_565 S
C559 C561 1.327 . S
C559 H582 0.950 . S
C560 C559 1.349 1_545 S
C560 C572 1.349 . S
C561 C559 1.327 . S
C561 C577 1.429 1_565 S
C561 H583 0.950 . S
C562 H558 0.949 . S
C562 C570 1.574 . S
C562 C578 1.368 . S
H563 C571 0.950 . S
H564 C569 0.950 . S
H565 C570 0.949 . S
H566 C572 0.950 . S
H567 C573 0.950 . S
H568 C574 0.949 . S
C569 H564 0.950 . S
C569 C571 1.327 . S
C569 C575 1.429 . S
C570 C562 1.574 . S
C570 H565 0.949 . S
C570 C576 1.368 1_545 S
C571 C555 1.349 . S
C571 H563 0.950 . S
C571 C569 1.327 . S
C572 C560 1.349 . S
C572 H566 0.950 . S
C572 C573 1.327 . S
C573 H567 0.950 . S
C573 C572 1.327 . S
C573 C577 1.429 . S
C574 C557 1.574 . S
C574 H568 0.949 . S
C574 C578 1.368 1_565 S
C575 C556 1.429 1_565 S
C575 C569 1.429 . S
C575 C576 1.523 . S
C576 C557 1.368 . S
C576 C570 1.368 1_565 S
C576 C575 1.523 . S
C577 C561 1.429 1_545 S
C577 C573 1.429 . S
C577 C578 1.523 . S
C578 C562 1.368 . S
C578 C574 1.368 1_545 S
C578 C577 1.523 . S
H579 C554 0.950 . S
H580 C556 0.950 . S
H581 C557 0.949 . S
H582 C559 0.950 . S
H583 C561 0.950 . S
C584 C585 1.349 . S
C584 C586 1.327 . S
C584 H609 0.950 . S
C585 C584 1.349 . S
C585 C601 1.349 . S
C586 C584 1.327 . S
C586 C605 1.429 . S
C586 H610 0.950 . S
C587 C604 1.574 . S
C587 C606 1.368 . S
C587 H611 0.949 . S
H588 C592 0.949 . S
C589 C590 1.349 . S
C589 C591 1.327 . S
C589 H612 0.950 . S
C590 C589 1.349 . S
C590 C602 1.349 . S
C591 C589 1.327 . S
C591 C607 1.429 . S
C591 H613 0.950 . S
C592 H588 0.949 . S
C592 C600 1.574 . S
C592 C608 1.368 . S
H593 C601 0.950 . S
H594 C599 0.950 . S
H595 C600 0.949 . S
H596 C602 0.950 . S
H597 C603 0.950 . S
H598 C604 0.949 . S
C599 H594 0.950 . S
C599 C601 1.327 . S
C599 C605 1.429 . S
C600 C592 1.574 . S
C600 H595 0.949 . S
C600 C606 1.368 . S
C601 C585 1.349 . S
C601 H593 0.950 . S
C601 C599 1.327 . S
C602 C590 1.349 . S
C602 H596 0.950 . S
C602 C603 1.327 . S
C603 H597 0.950 . S
C603 C602 1.327 . S
C603 C607 1.429 . S
C604 C587 1.574 . S
C604 H598 0.949 . S
C604 C608 1.368 . S
C605 C586 1.429 . S
C605 C599 1.429 . S
C605 C606 1.523 . S
C606 C587 1.368 . S
C606 C600 1.368 . S
C606 C605 1.523 . S
C607 C591 1.429 . S
C607 C603 1.429 . S
C607 C608 1.523 . S
C608 C592 1.368 . S
C608 C604 1.368 . S
C608 C607 1.523 . S
H609 C584 0.950 . S
H610 C586 0.950 . S
H611 C587 0.949 . S
H612 C589 0.950 . S
H613 C591 0.950 . S
C614 C615 1.349 . S
C614 C616 1.327 1_455 S
C614 H639 0.950 1_455 S
C615 C614 1.349 . S
C615 C631 1.349 . S
C616 C614 1.327 1_655 S
C616 C635 1.429 1_655 S
C616 H640 0.950 . S
C617 C634 1.574 . S
C617 C636 1.368 . S
C617 H641 0.949 . S
H618 C622 0.949 . S
C619 C620 1.349 . S
C619 C621 1.327 1_655 S
C619 H642 0.950 1_655 S
C620 C619 1.349 . S
C620 C632 1.349 . S
C621 C619 1.327 1_455 S
C621 C637 1.429 1_455 S
C621 H643 0.950 . S
C622 H618 0.949 . S
C622 C630 1.574 . S
C622 C638 1.368 . S
H623 C631 0.950 . S
H624 C629 0.950 . S
H625 C630 0.949 . S
H626 C632 0.950 . S
H627 C633 0.950 . S
H628 C634 0.949 . S
C629 H624 0.950 . S
C629 C631 1.327 . S
C629 C635 1.429 . S
C630 C622 1.574 . S
C630 H625 0.949 . S
C630 C636 1.368 1_655 S
C631 C615 1.349 . S
C631 H623 0.950 . S
C631 C629 1.327 . S
C632 C620 1.349 . S
C632 H626 0.950 . S
C632 C633 1.327 . S
C633 H627 0.950 . S
C633 C632 1.327 . S
C633 C637 1.429 . S
C634 C617 1.574 . S
C634 H628 0.949 . S
C634 C638 1.368 1_455 S
C635 C616 1.429 1_455 S
C635 C629 1.429 . S
C635 C636 1.523 . S
C636 C617 1.368 . S
C636 C630 1.368 1_455 S
C636 C635 1.523 . S
C637 C621 1.429 1_655 S
C637 C633 1.429 . S
C637 C638 1.523 . S
C638 C622 1.368 . S
C638 C634 1.368 1_655 S
C638 C637 1.523 . S
H639 C614 0.950 1_655 S
H640 C616 0.950 . S
H641 C617 0.949 . S
H642 C619 0.950 1_455 S
H643 C621 0.950 . S
C644 C645 1.349 . S
C644 C646 1.327 . S
C644 H669 0.950 . S
C645 C644 1.349 . S
C645 C661 1.349 . S
C646 C644 1.327 . S
C646 C665 1.429 . S
C646 H670 0.950 . S
C647 C664 1.574 1_655 S
C647 C666 1.368 . S
C647 H671 0.949 . S
H648 C652 0.949 . S
C649 C650 1.349 . S
C649 C651 1.327 . S
C649 H672 0.950 . S
C650 C649 1.349 . S
C650 C662 1.349 . S
C651 C649 1.327 . S
C651 C667 1.429 . S
C651 H673 0.950 . S
C652 H648 0.949 . S
C652 C660 1.574 1_455 S
C652 C668 1.368 . S
H653 C661 0.950 . S
H654 C659 0.950 . S
H655 C660 0.949 . S
H656 C662 0.950 . S
H657 C663 0.950 . S
H658 C664 0.949 . S
C659 H654 0.950 . S
C659 C661 1.327 . S
C659 C665 1.429 . S
C660 C652 1.574 1_655 S
C660 H655 0.949 . S
C660 C666 1.368 . S
C661 C645 1.349 . S
C661 H653 0.950 . S
C661 C659 1.327 . S
C662 C650 1.349 . S
C662 H656 0.950 . S
C662 C663 1.327 . S
C663 H657 0.950 . S
C663 C662 1.327 . S
C663 C667 1.429 . S
C664 C647 1.574 1_455 S
C664 H658 0.949 . S
C664 C668 1.368 . S
C665 C646 1.429 . S
C665 C659 1.429 . S
C665 C666 1.523 . S
C666 C647 1.368 . S
C666 C660 1.368 . S
C666 C665 1.523 . S
C667 C651 1.429 . S
C667 C663 1.429 . S
C667 C668 1.523 . S
C668 C652 1.368 . S
C668 C664 1.368 . S
C668 C667 1.523 . S
H669 C644 0.950 . S
H670 C646 0.950 . S
H671 C647 0.949 . S
H672 C649 0.950 . S
H673 C651 0.950 . S
C674 C675 1.328 1_554 S
C674 C676 1.328 . S
C674 H699 0.970 . S
C675 C674 1.328 1_556 S
C675 C691 1.349 . S
C676 C674 1.328 . S
C676 C695 1.429 1_554 S
C676 H700 0.950 . S
C677 C694 1.574 . S
C677 C696 1.368 . S
C677 H701 0.949 . S
H678 C682 0.949 . S
C679 C680 1.349 . S
C679 C681 1.327 . S
C679 H702 0.950 . S
C680 C679 1.349 . S
C680 C692 1.328 1_556 S
C681 C679 1.327 . S
C681 C697 1.429 . S
C681 H703 0.950 . S
C682 H678 0.949 . S
C682 C690 1.574 . S
C682 C698 1.368 1_554 S
H683 C691 0.950 . S
H684 C689 0.950 . S
H685 C690 0.949 . S
H686 C692 0.970 . S
H687 C693 0.950 . S
H688 C694 0.949 . S
C689 H684 0.950 . S
C689 C691 1.327 . S
C689 C695 1.429 . S
C690 C682 1.574 . S
C690 H685 0.949 . S
C690 C696 1.368 1_554 S
C691 C675 1.349 . S
C691 H683 0.950 . S
C691 C689 1.327 . S
C692 C680 1.328 1_554 S
C692 H686 0.970 . S
C692 C693 1.328 . S
C693 H687 0.950 . S
C693 C692 1.328 . S
C693 C697 1.429 1_554 S
C694 C677 1.574 . S
C694 H688 0.949 . S
C694 C698 1.368 . S
C695 C676 1.429 1_556 S
C695 C689 1.429 . S
C695 C696 1.523 . S
C696 C677 1.368 . S
C696 C690 1.368 1_556 S
C696 C695 1.523 . S
C697 C681 1.429 . S
C697 C693 1.429 1_556 S
C697 C698 1.523 . S
C698 C682 1.368 1_556 S
C698 C694 1.368 . S
C698 C697 1.523 . S
H699 C674 0.970 . S
H700 C676 0.950 . S
H701 C677 0.949 . S
H702 C679 0.950 . S
H703 C681 0.950 . S
C704 C705 1.349 . S
C704 C706 1.327 . S
C704 H729 0.950 . S
C705 C704 1.349 . S
C705 C721 1.349 . S
C706 C704 1.327 . S
C706 C725 1.429 . S
C706 H730 0.950 . S
C707 C724 1.574 . S
C707 C726 1.368 . S
C707 H731 0.949 . S
H708 C712 0.949 . S
C709 C710 1.349 . S
C709 C711 1.327 . S
C709 H732 0.950 . S
C710 C709 1.349 . S
C710 C722 1.349 . S
C711 C709 1.327 . S
C711 C727 1.429 . S
C711 H733 0.950 . S
C712 H708 0.949 . S
C712 C720 1.574 . S
C712 C728 1.368 . S
H713 C721 0.950 . S
H714 C719 0.950 . S
H715 C720 0.949 . S
H716 C722 0.950 . S
H717 C723 0.950 . S
H718 C724 0.949 . S
C719 H714 0.950 . S
C719 C721 1.327 . S
C719 C725 1.429 . S
C720 C712 1.574 . S
C720 H715 0.949 . S
C720 C726 1.368 . S
C721 C705 1.349 . S
C721 H713 0.950 . S
C721 C719 1.327 . S
C722 C710 1.349 . S
C722 H716 0.950 . S
C722 C723 1.327 . S
C723 H717 0.950 . S
C723 C722 1.327 . S
C723 C727 1.429 . S
C724 C707 1.574 . S
C724 H718 0.949 . S
C724 C728 1.368 . S
C725 C706 1.429 . S
C725 C719 1.429 . S
C725 C726 1.523 . S
C726 C707 1.368 . S
C726 C720 1.368 . S
C726 C725 1.523 . S
C727 C711 1.429 . S
C727 C723 1.429 . S
C727 C728 1.523 . S
C728 C712 1.368 . S
C728 C724 1.368 . S
C728 C727 1.523 . S
H729 C704 0.950 . S
H730 C706 0.950 . S
H731 C707 0.949 . S
H732 C709 0.950 . S
H733 C711 0.950 . S
C734 C735 1.349 . S
C734 C736 1.327 . S
C734 H759 0.950 . S
C735 C734 1.349 . S
C735 C751 1.349 . S
C736 C734 1.327 . S
C736 C755 1.429 . S
C736 H760 0.950 . S
C737 C754 1.574 . S
C737 C756 1.368 . S
C737 H761 0.949 . S
H738 C742 0.949 . S
C739 C740 1.349 . S
C739 C741 1.327 . S
C739 H762 0.950 . S
C740 C739 1.349 . S
C740 C752 1.349 . S
C741 C739 1.327 . S
C741 C757 1.429 . S
C741 H763 0.950 . S
C742 H738 0.949 . S
C742 C750 1.574 . S
C742 C758 1.368 . S
H743 C751 0.950 . S
H744 C749 0.950 . S
H745 C750 0.949 . S
H746 C752 0.950 . S
H747 C753 0.950 . S
H748 C754 0.949 . S
C749 H744 0.950 . S
C749 C751 1.327 . S
C749 C755 1.429 . S
C750 C742 1.574 . S
C750 H745 0.949 . S
C750 C756 1.368 . S
C751 C735 1.349 . S
C751 H743 0.950 . S
C751 C749 1.327 . S
C752 C740 1.349 . S
C752 H746 0.950 . S
C752 C753 1.327 . S
C753 H747 0.950 . S
C753 C752 1.327 . S
C753 C757 1.429 . S
C754 C737 1.574 . S
C754 H748 0.949 . S
C754 C758 1.368 . S
C755 C736 1.429 . S
C755 C749 1.429 . S
C755 C756 1.523 . S
C756 C737 1.368 . S
C756 C750 1.368 . S
C756 C755 1.523 . S
C757 C741 1.429 . S
C757 C753 1.429 . S
C757 C758 1.523 . S
C758 C742 1.368 . S
C758 C754 1.368 . S
C758 C757 1.523 . S
H759 C734 0.950 . S
H760 C736 0.950 . S
H761 C737 0.949 . S
H762 C739 0.950 . S
H763 C741 0.950 . S
C764 C765 1.349 . S
C764 C766 1.327 . S
C764 H789 0.950 . S
C765 C764 1.349 . S
C765 C781 1.349 . S
C766 C764 1.327 . S
C766 C785 1.429 . S
C766 H790 0.950 . S
C767 C784 1.574 1_455 S
C767 C786 1.368 . S
C767 H791 0.949 . S
H768 C772 0.949 . S
C769 C770 1.349 . S
C769 C771 1.327 . S
C769 H792 0.950 . S
C770 C769 1.349 . S
C770 C782 1.349 . S
C771 C769 1.327 . S
C771 C787 1.429 . S
C771 H793 0.950 . S
C772 H768 0.949 . S
C772 C780 1.574 1_655 S
C772 C788 1.368 . S
H773 C781 0.950 . S
H774 C779 0.950 . S
H775 C780 0.949 . S
H776 C782 0.950 . S
H777 C783 0.950 . S
H778 C784 0.949 . S
C779 H774 0.950 . S
C779 C781 1.327 . S
C779 C785 1.429 . S
C780 C772 1.574 1_455 S
C780 H775 0.949 . S
C780 C786 1.368 . S
C781 C765 1.349 . S
C781 H773 0.950 . S
C781 C779 1.327 . S
C782 C770 1.349 . S
C782 H776 0.950 . S
C782 C783 1.327 . S
C783 H777 0.950 . S
C783 C782 1.327 . S
C783 C787 1.429 . S
C784 C767 1.574 1_655 S
C784 H778 0.949 . S
C784 C788 1.368 . S
C785 C766 1.429 . S
C785 C779 1.429 . S
C785 C786 1.523 . S
C786 C767 1.368 . S
C786 C780 1.368 . S
C786 C785 1.523 . S
C787 C771 1.429 . S
C787 C783 1.429 . S
C787 C788 1.523 . S
C788 C772 1.368 . S
C788 C784 1.368 . S
C788 C787 1.523 . S
H789 C764 0.950 . S
H790 C766 0.950 . S
H791 C767 0.949 . S
H792 C769 0.950 . S
H793 C771 0.950 . S
C794 C795 1.349 . S
C794 C796 1.327 . S
C794 H819 0.950 . S
C795 C794 1.349 . S
C795 C811 1.328 1_554 S
C796 C794 1.327 . S
C796 C815 1.429 . S
C796 H820 0.950 . S
C797 C814 1.574 . S
C797 C816 1.368 1_456 S
C797 H821 0.949 . S
H798 C802 0.949 . S
C799 C800 1.328 1_556 S
C799 C801 1.328 . S
C799 H822 0.970 . S
C800 C799 1.328 1_554 S
C800 C812 1.349 . S
C801 C799 1.328 . S
C801 C817 1.429 1_556 S
C801 H823 0.950 . S
C802 H798 0.949 . S
C802 C810 1.574 . S
C802 C818 1.368 1_655 S
H803 C811 0.970 1_455 S
H804 C809 0.950 . S
H805 C810 0.949 . S
H806 C812 0.950 1_655 S
H807 C813 0.950 . S
H808 C814 0.949 . S
C809 H804 0.950 . S
C809 C811 1.328 1_455 S
C809 C815 1.429 1_456 S
C810 C802 1.574 . S
C810 H805 0.949 . S
C810 C816 1.368 . S
C811 C795 1.328 1_556 S
C811 H803 0.970 1_655 S
C811 C809 1.328 1_655 S
C812 C800 1.349 . S
C812 H806 0.950 1_455 S
C812 C813 1.327 1_455 S
C813 H807 0.950 . S
C813 C812 1.327 1_655 S
C813 C817 1.429 1_655 S
C814 C797 1.574 . S
C814 H808 0.949 . S
C814 C818 1.368 1_556 S
C815 C796 1.429 . S
C815 C809 1.429 1_654 S
C815 C816 1.523 . S
C816 C797 1.368 1_654 S
C816 C810 1.368 . S
C816 C815 1.523 . S
C817 C801 1.429 1_554 S
C817 C813 1.429 1_455 S
C817 C818 1.523 . S
C818 C802 1.368 1_455 S
C818 C814 1.368 1_554 S
C818 C817 1.523 . S
H819 C794 0.950 . S
H820 C796 0.950 . S
H821 C797 0.949 . S
H822 C799 0.970 . S
H823 C801 0.950 . S
C824 C825 1.349 . S
C824 C826 1.327 . S
C824 H849 0.950 . S
C825 C824 1.349 . S
C825 C841 1.349 . S
C826 C824 1.327 . S
C826 C845 1.429 . S
C826 H850 0.950 . S
C827 C844 1.574 . S
C827 C846 1.368 . S
C827 H851 0.949 . S
H828 C832 0.949 . S
C829 C830 1.349 . S
C829 C831 1.327 . S
C829 H852 0.950 . S
C830 C829 1.349 . S
C830 C842 1.349 . S
C831 C829 1.327 . S
C831 C847 1.429 . S
C831 H853 0.950 . S
C832 H828 0.949 . S
C832 C840 1.574 . S
C832 C848 1.368 . S
H833 C841 0.950 . S
H834 C839 0.950 . S
H835 C840 0.949 . S
H836 C842 0.950 . S
H837 C843 0.950 . S
H838 C844 0.949 . S
C839 H834 0.950 . S
C839 C841 1.327 . S
C839 C845 1.429 . S
C840 C832 1.574 . S
C840 H835 0.949 . S
C840 C846 1.368 . S
C841 C825 1.349 . S
C841 H833 0.950 . S
C841 C839 1.327 . S
C842 C830 1.349 . S
C842 H836 0.950 . S
C842 C843 1.327 . S
C843 H837 0.950 . S
C843 C842 1.327 . S
C843 C847 1.429 . S
C844 C827 1.574 . S
C844 H838 0.949 . S
C844 C848 1.368 . S
C845 C826 1.429 . S
C845 C839 1.429 . S
C845 C846 1.523 . S
C846 C827 1.368 . S
C846 C840 1.368 . S
C846 C845 1.523 . S
C847 C831 1.429 . S
C847 C843 1.429 . S
C847 C848 1.523 . S
C848 C832 1.368 . S
C848 C844 1.368 . S
C848 C847 1.523 . S
H849 C824 0.950 . S
H850 C826 0.950 . S
H851 C827 0.949 . S
H852 C829 0.950 . S
H853 C831 0.950 . S
C854 C855 1.349 . S
C854 C856 1.327 . S
C854 H879 0.950 . S
C855 C854 1.349 . S
C855 C871 1.349 . S
C856 C854 1.327 . S
C856 C875 1.429 . S
C856 H880 0.950 . S
C857 C874 1.574 1_545 S
C857 C876 1.368 . S
C857 H881 0.949 . S
H858 C862 0.949 . S
C859 C860 1.349 . S
C859 C861 1.327 . S
C859 H882 0.950 . S
C860 C859 1.349 . S
C860 C872 1.349 . S
C861 C859 1.327 . S
C861 C877 1.429 . S
C861 H883 0.950 . S
C862 H858 0.949 . S
C862 C870 1.574 1_565 S
C862 C878 1.368 . S
H863 C871 0.950 . S
H864 C869 0.950 . S
H865 C870 0.949 . S
H866 C872 0.950 . S
H867 C873 0.950 . S
H868 C874 0.949 . S
C869 H864 0.950 . S
C869 C871 1.327 . S
C869 C875 1.429 . S
C870 C862 1.574 1_545 S
C870 H865 0.949 . S
C870 C876 1.368 . S
C871 C855 1.349 . S
C871 H863 0.950 . S
C871 C869 1.327 . S
C872 C860 1.349 . S
C872 H866 0.950 . S
C872 C873 1.327 . S
C873 H867 0.950 . S
C873 C872 1.327 . S
C873 C877 1.429 . S
C874 C857 1.574 1_565 S
C874 H868 0.949 . S
C874 C878 1.368 . S
C875 C856 1.429 . S
C875 C869 1.429 . S
C875 C876 1.523 . S
C876 C857 1.368 . S
C876 C870 1.368 . S
C876 C875 1.523 . S
C877 C861 1.429 . S
C877 C873 1.429 . S
C877 C878 1.523 . S
C878 C862 1.368 . S
C878 C874 1.368 . S
C878 C877 1.523 . S
H879 C854 0.950 . S
H880 C856 0.950 . S
H881 C857 0.949 . S
H882 C859 0.950 . S
H883 C861 0.950 . S
C884 C885 1.349 . S
C884 C886 1.327 . S
C884 H909 0.950 . S
C885 C884 1.349 . S
C885 C901 1.349 1_556 S
C886 C884 1.327 . S
C886 C905 1.429 . S
C886 H910 0.950 . S
C887 C904 1.574 . S
C887 C906 1.368 1_554 S
C887 H911 0.949 . S
H888 C892 0.949 . S
C889 C890 1.349 . S
C889 C891 1.327 . S
C889 H912 0.950 . S
C890 C889 1.349 . S
C890 C902 1.349 1_554 S
C891 C889 1.327 . S
C891 C907 1.429 . S
C891 H913 0.950 . S
C892 H888 0.949 . S
C892 C900 1.574 . S
C892 C908 1.368 1_556 S
H893 C901 0.950 . S
H894 C899 0.950 . S
H895 C900 0.949 . S
H896 C902 0.950 . S
H897 C903 0.950 . S
H898 C904 0.949 . S
C899 H894 0.950 . S
C899 C901 1.327 . S
C899 C905 1.429 1_554 S
C900 C892 1.574 . S
C900 H895 0.949 . S
C900 C906 1.368 . S
C901 C885 1.349 1_554 S
C901 H893 0.950 . S
C901 C899 1.327 . S
C902 C890 1.349 1_556 S
C902 H896 0.950 . S
C902 C903 1.327 . S
C903 H897 0.950 . S
C903 C902 1.327 . S
C903 C907 1.429 1_556 S
C904 C887 1.574 . S
C904 H898 0.949 . S
C904 C908 1.368 . S
C905 C886 1.429 . S
C905 C899 1.429 1_556 S
C905 C906 1.523 . S
C906 C887 1.368 1_556 S
C906 C900 1.368 . S
C906 C905 1.523 . S
C907 C891 1.429 . S
C907 C903 1.429 1_554 S
C907 C908 1.523 . S
C908 C892 1.368 1_554 S
C908 C904 1.368 . S
C908 C907 1.523 . S
H909 C884 0.950 . S
H910 C886 0.950 . S
H911 C887 0.949 . S
H912 C889 0.950 . S
H913 C891 0.950 . S
C914 C915 1.349 . S
C914 C916 1.327 . S
C914 H939 0.950 . S
C915 C914 1.349 . S
C915 C931 1.349 . S
C916 C914 1.327 . S
C916 C935 1.429 . S
C916 H940 0.950 . S
C917 C934 1.574 1_545 S
C917 C936 1.368 . S
C917 H941 0.949 . S
H918 C922 0.949 . S
C919 C920 1.349 . S
C919 C921 1.327 . S
C919 H942 0.950 . S
C920 C919 1.349 . S
C920 C932 1.349 . S
C921 C919 1.327 . S
C921 C937 1.429 . S
C921 H943 0.950 . S
C922 H918 0.949 . S
C922 C930 1.574 1_565 S
C922 C938 1.368 . S
H923 C931 0.950 . S
H924 C929 0.950 . S
H925 C930 0.949 . S
H926 C932 0.950 . S
H927 C933 0.950 . S
H928 C934 0.949 . S
C929 H924 0.950 . S
C929 C931 1.327 . S
C929 C935 1.429 . S
C930 C922 1.574 1_545 S
C930 H925 0.949 . S
C930 C936 1.368 . S
C931 C915 1.349 . S
C931 H923 0.950 . S
C931 C929 1.327 . S
C932 C920 1.349 . S
C932 H926 0.950 . S
C932 C933 1.327 . S
C933 H927 0.950 . S
C933 C932 1.327 . S
C933 C937 1.429 . S
C934 C917 1.574 1_565 S
C934 H928 0.949 . S
C934 C938 1.368 . S
C935 C916 1.429 . S
C935 C929 1.429 . S
C935 C936 1.523 . S
C936 C917 1.368 . S
C936 C930 1.368 . S
C936 C935 1.523 . S
C937 C921 1.429 . S
C937 C933 1.429 . S
C937 C938 1.523 . S
C938 C922 1.368 . S
C938 C934 1.368 . S
C938 C937 1.523 . S
H939 C914 0.950 . S
H940 C916 0.950 . S
H941 C917 0.949 . S
H942 C919 0.950 . S
H943 C921 0.950 . S
C944 C945 1.349 1_556 S
C944 C946 1.327 . S
C944 H969 0.950 1_565 S
C945 C944 1.349 1_554 S
C945 C961 1.349 . S
C946 C944 1.327 . S
C946 C965 1.429 1_556 S
C946 H970 0.950 1_565 S
C947 C964 1.574 . S
C947 C966 1.368 . S
C947 H971 0.949 . S
H948 C952 0.949 1_545 S
C949 C950 1.349 1_554 S
C949 C951 1.327 . S
C949 H972 0.950 . S
C950 C949 1.349 1_556 S
C950 C962 1.349 . S
C951 C949 1.327 . S
C951 C967 1.429 1_554 S
C951 H973 0.950 . S
C952 H948 0.949 1_565 S
C952 C960 1.574 . S
C952 C968 1.368 . S
H953 C961 0.950 . S
H954 C959 0.950 . S
H955 C960 0.949 1_545 S
H956 C962 0.950 1_545 S
H957 C963 0.950 1_545 S
H958 C964 0.949 . S
C959 H954 0.950 . S
C959 C961 1.327 . S
C959 C965 1.429 . S
C960 C952 1.574 . S
C960 H955 0.949 1_565 S
C960 C966 1.368 1_556 S
C961 C945 1.349 . S
C961 H953 0.950 . S
C961 C959 1.327 . S
C962 C950 1.349 . S
C962 H956 0.950 1_565 S
C962 C963 1.327 . S
C963 H957 0.950 1_565 S
C963 C962 1.327 . S
C963 C967 1.429 . S
C964 C947 1.574 . S
C964 H958 0.949 . S
C964 C968 1.368 1_554 S
C965 C946 1.429 1_554 S
C965 C959 1.429 . S
C965 C966 1.523 . S
C966 C947 1.368 . S
C966 C960 1.368 1_554 S
C966 C965 1.523 . S
C967 C951 1.429 1_556 S
C967 C963 1.429 . S
C967 C968 1.523 . S
C968 C952 1.368 . S
C968 C964 1.368 1_556 S
C968 C967 1.523 . S
H969 C944 0.950 1_545 S
H970 C946 0.950 1_545 S
H971 C947 0.949 . S
H972 C949 0.950 . S
H973 C951 0.950 . S
C974 C975 1.349 . S
C974 C976 1.327 . S
C974 H999 0.950 . S
C975 C974 1.349 . S
C975 C991 1.349 . S
C976 C974 1.327 . S
C976 C995 1.429 . S
C976 H1000 0.950 . S
C977 C994 1.574 . S
C977 C996 1.368 . S
C977 H1001 0.949 . S
H978 C982 0.949 . S
C979 C980 1.349 . S
C979 C981 1.327 . S
C979 H1002 0.950 . S
C980 C979 1.349 . S
C980 C992 1.349 . S
C981 C979 1.327 . S
C981 C997 1.429 . S
C981 H1003 0.950 . S
C982 H978 0.949 . S
C982 C990 1.574 . S
C982 C998 1.368 . S
H983 C991 0.950 . S
H984 C989 0.950 . S
H985 C990 0.949 . S
H986 C992 0.950 . S
H987 C993 0.950 . S
H988 C994 0.949 . S
C989 H984 0.950 . S
C989 C991 1.327 . S
C989 C995 1.429 . S
C990 C982 1.574 . S
C990 H985 0.949 . S
C990 C996 1.368 . S
C991 C975 1.349 . S
C991 H983 0.950 . S
C991 C989 1.327 . S
C992 C980 1.349 . S
C992 H986 0.950 . S
C992 C993 1.327 . S
C993 H987 0.950 . S
C993 C992 1.327 . S
C993 C997 1.429 . S
C994 C977 1.574 . S
C994 H988 0.949 . S
C994 C998 1.368 . S
C995 C976 1.429 . S
C995 C989 1.429 . S
C995 C996 1.523 . S
C996 C977 1.368 . S
C996 C990 1.368 . S
C996 C995 1.523 . S
C997 C981 1.429 . S
C997 C993 1.429 . S
C997 C998 1.523 . S
C998 C982 1.368 . S
C998 C994 1.368 . S
C998 C997 1.523 . S
H999 C974 0.950 . S
H1000 C976 0.950 . S
H1001 C977 0.949 . S
H1002 C979 0.950 . S
H1003 C981 0.950 . S
C1004 C1005 1.349 . S
C1004 C1006 1.327 . S
C1004 H1029 0.950 . S
C1005 C1004 1.349 . S
C1005 C1021 1.349 . S
C1006 C1004 1.327 . S
C1006 C1025 1.429 . S
C1006 H1030 0.950 . S
C1007 C1024 1.574 . S
C1007 C1026 1.368 . S
C1007 H1031 0.949 . S
H1008 C1012 0.949 . S
C1009 C1010 1.349 . S
C1009 C1011 1.327 . S
C1009 H1032 0.950 . S
C1010 C1009 1.349 . S
C1010 C1022 1.349 . S
C1011 C1009 1.327 . S
C1011 C1027 1.429 . S
C1011 H1033 0.950 . S
C1012 H1008 0.949 . S
C1012 C1020 1.574 . S
C1012 C1028 1.368 . S
H1013 C1021 0.950 . S
H1014 C1019 0.950 . S
H1015 C1020 0.949 . S
H1016 C1022 0.950 . S
H1017 C1023 0.950 . S
H1018 C1024 0.949 . S
C1019 H1014 0.950 . S
C1019 C1021 1.327 . S
C1019 C1025 1.429 . S
C1020 C1012 1.574 . S
C1020 H1015 0.949 . S
C1020 C1026 1.368 . S
C1021 C1005 1.349 . S
C1021 H1013 0.950 . S
C1021 C1019 1.327 . S
C1022 C1010 1.349 . S
C1022 H1016 0.950 . S
C1022 C1023 1.327 . S
C1023 H1017 0.950 . S
C1023 C1022 1.327 . S
C1023 C1027 1.429 . S
C1024 C1007 1.574 . S
C1024 H1018 0.949 . S
C1024 C1028 1.368 . S
C1025 C1006 1.429 . S
C1025 C1019 1.429 . S
C1025 C1026 1.523 . S
C1026 C1007 1.368 . S
C1026 C1020 1.368 . S
C1026 C1025 1.523 . S
C1027 C1011 1.429 . S
C1027 C1023 1.429 . S
C1027 C1028 1.523 . S
C1028 C1012 1.368 . S
C1028 C1024 1.368 . S
C1028 C1027 1.523 . S
H1029 C1004 0.950 . S
H1030 C1006 0.950 . S
H1031 C1007 0.949 . S
H1032 C1009 0.950 . S
H1033 C1011 0.950 . S
C1034 C1035 1.349 . S
C1034 C1036 1.327 . S
C1034 H1059 0.950 . S
C1035 C1034 1.349 . S
C1035 C1051 1.349 . S
C1036 C1034 1.327 . S
C1036 C1055 1.429 . S
C1036 H1060 0.950 . S
C1037 C1054 1.574 1_556 S
C1037 C1056 1.368 . S
C1037 H1061 0.949 . S
H1038 C1042 0.949 . S
C1039 C1040 1.349 . S
C1039 C1041 1.327 . S
C1039 H1062 0.950 . S
C1040 C1039 1.349 . S
C1040 C1052 1.349 . S
C1041 C1039 1.327 . S
C1041 C1057 1.429 . S
C1041 H1063 0.950 . S
C1042 H1038 0.949 . S
C1042 C1050 1.574 1_554 S
C1042 C1058 1.368 . S
H1043 C1051 0.950 . S
H1044 C1049 0.950 . S
H1045 C1050 0.949 . S
H1046 C1052 0.950 . S
H1047 C1053 0.950 . S
H1048 C1054 0.949 . S
C1049 H1044 0.950 . S
C1049 C1051 1.327 . S
C1049 C1055 1.429 . S
C1050 C1042 1.574 1_556 S
C1050 H1045 0.949 . S
C1050 C1056 1.368 . S
C1051 C1035 1.349 . S
C1051 H1043 0.950 . S
C1051 C1049 1.327 . S
C1052 C1040 1.349 . S
C1052 H1046 0.950 . S
C1052 C1053 1.327 . S
C1053 H1047 0.950 . S
C1053 C1052 1.327 . S
C1053 C1057 1.429 . S
C1054 C1037 1.574 1_554 S
C1054 H1048 0.949 . S
C1054 C1058 1.368 . S
C1055 C1036 1.429 . S
C1055 C1049 1.429 . S
C1055 C1056 1.523 . S
C1056 C1037 1.368 . S
C1056 C1050 1.368 . S
C1056 C1055 1.523 . S
C1057 C1041 1.429 . S
C1057 C1053 1.429 . S
C1057 C1058 1.523 . S
C1058 C1042 1.368 . S
C1058 C1054 1.368 . S
C1058 C1057 1.523 . S
H1059 C1034 0.950 . S
H1060 C1036 0.950 . S
H1061 C1037 0.949 . S
H1062 C1039 0.950 . S
H1063 C1041 0.950 . S
C1064 C1065 1.349 . S
C1064 C1066 1.327 . S
C1064 H1089 0.950 . S
C1065 C1064 1.349 . S
C1065 C1081 1.349 . S
C1066 C1064 1.327 . S
C1066 C1085 1.429 . S
C1066 H1090 0.950 . S
C1067 C1084 1.574 . S
C1067 C1086 1.368 . S
C1067 H1091 0.949 . S
H1068 C1072 0.949 . S
C1069 C1070 1.349 . S
C1069 C1071 1.327 . S
C1069 H1092 0.950 . S
C1070 C1069 1.349 . S
C1070 C1082 1.349 . S
C1071 C1069 1.327 . S
C1071 C1087 1.429 . S
C1071 H1093 0.950 . S
C1072 H1068 0.949 . S
C1072 C1080 1.574 . S
C1072 C1088 1.368 . S
H1073 C1081 0.950 . S
H1074 C1079 0.950 . S
H1075 C1080 0.949 . S
H1076 C1082 0.950 . S
H1077 C1083 0.950 . S
H1078 C1084 0.949 . S
C1079 H1074 0.950 . S
C1079 C1081 1.327 . S
C1079 C1085 1.429 . S
C1080 C1072 1.574 . S
C1080 H1075 0.949 . S
C1080 C1086 1.368 . S
C1081 C1065 1.349 . S
C1081 H1073 0.950 . S
C1081 C1079 1.327 . S
C1082 C1070 1.349 . S
C1082 H1076 0.950 . S
C1082 C1083 1.327 . S
C1083 H1077 0.950 . S
C1083 C1082 1.327 . S
C1083 C1087 1.429 . S
C1084 C1067 1.574 . S
C1084 H1078 0.949 . S
C1084 C1088 1.368 . S
C1085 C1066 1.429 . S
C1085 C1079 1.429 . S
C1085 C1086 1.523 . S
C1086 C1067 1.368 . S
C1086 C1080 1.368 . S
C1086 C1085 1.523 . S
C1087 C1071 1.429 . S
C1087 C1083 1.429 . S
C1087 C1088 1.523 . S
C1088 C1072 1.368 . S
C1088 C1084 1.368 . S
C1088 C1087 1.523 . S
H1089 C1064 0.950 . S
H1090 C1066 0.950 . S
H1091 C1067 0.949 . S
H1092 C1069 0.950 . S
H1093 C1071 0.950 . S
C1094 C1095 1.349 . S
C1094 C1096 1.327 . S
C1094 H1119 0.950 . S
C1095 C1094 1.349 . S
C1095 C1111 1.349 . S
C1096 C1094 1.327 . S
C1096 C1115 1.429 . S
C1096 H1120 0.950 . S
C1097 C1114 1.574 . S
C1097 C1116 1.368 . S
C1097 H1121 0.949 . S
H1098 C1102 0.949 . S
C1099 C1100 1.349 . S
C1099 C1101 1.327 . S
C1099 H1122 0.950 . S
C1100 C1099 1.349 . S
C1100 C1112 1.349 . S
C1101 C1099 1.327 . S
C1101 C1117 1.429 . S
C1101 H1123 0.950 . S
C1102 H1098 0.949 . S
C1102 C1110 1.574 . S
C1102 C1118 1.368 . S
H1103 C1111 0.950 . S
H1104 C1109 0.950 . S
H1105 C1110 0.949 . S
H1106 C1112 0.950 . S
H1107 C1113 0.950 . S
H1108 C1114 0.949 . S
C1109 H1104 0.950 . S
C1109 C1111 1.327 . S
C1109 C1115 1.429 . S
C1110 C1102 1.574 . S
C1110 H1105 0.949 . S
C1110 C1116 1.368 . S
C1111 C1095 1.349 . S
C1111 H1103 0.950 . S
C1111 C1109 1.327 . S
C1112 C1100 1.349 . S
C1112 H1106 0.950 . S
C1112 C1113 1.327 . S
C1113 H1107 0.950 . S
C1113 C1112 1.327 . S
C1113 C1117 1.429 . S
C1114 C1097 1.574 . S
C1114 H1108 0.949 . S
C1114 C1118 1.368 . S
C1115 C1096 1.429 . S
C1115 C1109 1.429 . S
C1115 C1116 1.523 . S
C1116 C1097 1.368 . S
C1116 C1110 1.368 . S
C1116 C1115 1.523 . S
C1117 C1101 1.429 . S
C1117 C1113 1.429 . S
C1117 C1118 1.523 . S
C1118 C1102 1.368 . S
C1118 C1114 1.368 . S
C1118 C1117 1.523 . S
H1119 C1094 0.950 . S
H1120 C1096 0.950 . S
H1121 C1097 0.949 . S
H1122 C1099 0.950 . S
H1123 C1101 0.950 . S
C1124 C1125 1.349 . S
C1124 C1126 1.327 . S
C1124 H1149 0.950 . S
C1125 C1124 1.349 . S
C1125 C1141 1.349 . S
C1126 C1124 1.327 . S
C1126 C1145 1.429 . S
C1126 H1150 0.950 . S
C1127 C1144 1.574 . S
C1127 C1146 1.368 . S
C1127 H1151 0.949 . S
H1128 C1132 0.949 . S
C1129 C1130 1.349 . S
C1129 C1131 1.327 . S
C1129 H1152 0.950 . S
C1130 C1129 1.349 . S
C1130 C1142 1.349 . S
C1131 C1129 1.327 . S
C1131 C1147 1.429 . S
C1131 H1153 0.950 . S
C1132 H1128 0.949 . S
C1132 C1140 1.574 . S
C1132 C1148 1.368 . S
H1133 C1141 0.950 . S
H1134 C1139 0.950 . S
H1135 C1140 0.949 . S
H1136 C1142 0.950 . S
H1137 C1143 0.950 . S
H1138 C1144 0.949 . S
C1139 H1134 0.950 . S
C1139 C1141 1.327 . S
C1139 C1145 1.429 . S
C1140 C1132 1.574 . S
C1140 H1135 0.949 . S
C1140 C1146 1.368 . S
C1141 C1125 1.349 . S
C1141 H1133 0.950 . S
C1141 C1139 1.327 . S
C1142 C1130 1.349 . S
C1142 H1136 0.950 . S
C1142 C1143 1.327 . S
C1143 H1137 0.950 . S
C1143 C1142 1.327 . S
C1143 C1147 1.429 . S
C1144 C1127 1.574 . S
C1144 H1138 0.949 . S
C1144 C1148 1.368 . S
C1145 C1126 1.429 . S
C1145 C1139 1.429 . S
C1145 C1146 1.523 . S
C1146 C1127 1.368 . S
C1146 C1140 1.368 . S
C1146 C1145 1.523 . S
C1147 C1131 1.429 . S
C1147 C1143 1.429 . S
C1147 C1148 1.523 . S
C1148 C1132 1.368 . S
C1148 C1144 1.368 . S
C1148 C1147 1.523 . S
H1149 C1124 0.950 . S
H1150 C1126 0.950 . S
H1151 C1127 0.949 . S
H1152 C1129 0.950 . S
H1153 C1131 0.950 . S
C1154 C1155 1.349 . S
C1154 C1156 1.327 . S
C1154 H1179 0.950 . S
C1155 C1154 1.349 . S
C1155 C1171 1.349 . S
C1156 C1154 1.327 . S
C1156 C1175 1.429 . S
C1156 H1180 0.950 . S
C1157 C1174 1.574 . S
C1157 C1176 1.368 . S
C1157 H1181 0.949 1_545 S
H1158 C1162 0.949 . S
C1159 C1160 1.349 . S
C1159 C1161 1.327 . S
C1159 H1182 0.950 1_545 S
C1160 C1159 1.349 . S
C1160 C1172 1.349 . S
C1161 C1159 1.327 . S
C1161 C1177 1.429 . S
C1161 H1183 0.950 1_545 S
C1162 H1158 0.949 . S
C1162 C1170 1.574 . S
C1162 C1178 1.368 . S
H1163 C1171 0.950 1_565 S
H1164 C1169 0.950 1_565 S
H1165 C1170 0.949 . S
H1166 C1172 0.950 . S
H1167 C1173 0.950 . S
H1168 C1174 0.949 1_565 S
C1169 H1164 0.950 1_545 S
C1169 C1171 1.327 . S
C1169 C1175 1.429 . S
C1170 C1162 1.574 . S
C1170 H1165 0.949 . S
C1170 C1176 1.368 . S
C1171 C1155 1.349 . S
C1171 H1163 0.950 1_545 S
C1171 C1169 1.327 . S
C1172 C1160 1.349 . S
C1172 H1166 0.950 . S
C1172 C1173 1.327 . S
C1173 H1167 0.950 . S
C1173 C1172 1.327 . S
C1173 C1177 1.429 . S
C1174 C1157 1.574 . S
C1174 H1168 0.949 1_545 S
C1174 C1178 1.368 . S
C1175 C1156 1.429 . S
C1175 C1169 1.429 . S
C1175 C1176 1.523 . S
C1176 C1157 1.368 . S
C1176 C1170 1.368 . S
C1176 C1175 1.523 . S
C1177 C1161 1.429 . S
C1177 C1173 1.429 . S
C1177 C1178 1.523 . S
C1178 C1162 1.368 . S
C1178 C1174 1.368 . S
C1178 C1177 1.523 . S
H1179 C1154 0.950 . S
H1180 C1156 0.950 . S
H1181 C1157 0.949 1_565 S
H1182 C1159 0.950 1_565 S
H1183 C1161 0.950 1_565 S
C225 C8 1.837 . S
C230 C106 1.837 . S
C255 C22 1.837 . S
C260 C64 1.837 . S
C285 C78 1.837 . S
C290 C36 1.837 . S
C315 C50 1.837 . S
C320 C92 1.837 . S
C345 C120 1.837 . S
C350 C176 1.837 . S
C375 C134 1.837 . S
C380 C204 1.837 . S
C405 C162 1.837 . S
C410 C148 1.837 . S
C435 C218 1.837 . S
C440 C190 1.837 . S
C465 C3 0.530 . S
C470 C87 0.530 . S
C495 C105 1.405 1_545 S
C500 C21 1.405 1_565 S
C525 C31 0.531 . S
C530 C59 0.531 . S
C555 C77 1.405 1_565 S
C560 C49 1.405 1_545 S
C585 C9 1.344 . S
C590 C205 1.344 . S
C615 C157 0.530 . S
C620 C17 0.530 . S
C645 C191 1.344 . S
C650 C37 1.344 . S
C675 C171 0.530 . S
C680 C45 0.530 . S
C705 C149 1.344 . S
C710 C65 1.344 . S
C735 C73 0.530 . S
C740 C213 0.530 . S
C765 C93 1.344 . S
C770 C121 1.344 . S
C795 C101 0.530 . S
C800 C129 0.530 . S
C825 C7 1.405 . S
C830 C63 1.405 . S
C855 C119 1.405 . S
C860 C189 1.405 . S
C885 C177 1.344 . S
C890 C135 1.344 . S
C915 C203 1.405 . S
C920 C147 1.405 . S
C945 C107 1.344 . S
C950 C51 1.344 . S
C975 C35 1.405 . S
C980 C91 1.405 . S
C1005 C163 1.344 . S
C1010 C219 1.344 . S
C1035 C185 0.531 . S
C1040 C143 0.531 . S
C1065 C217 1.405 . S
C1070 C175 1.405 . S
C1095 C199 0.530 . S
C1100 C115 0.530 . S
C1125 C161 1.405 . S
C1130 C133 1.405 . S
C1155 C23 1.344 . S
C1160 C79 1.344 . S
