# Generated by pormake.
# Topology acs-a, (4)-cn, num edge types: 1
# Building blocks:
#     Node 0, Type 0, BuildingBlock: UXUYUI_clean_sbu_0, # of connection points: 4
#     Node 1, Type 0, BuildingBlock: UXUYUI_clean_sbu_0, # of connection points: 4
#     Node 2, Type 0, BuildingBlock: UXUYUI_clean_sbu_0, # of connection points: 4
#     Node 3, Type 0, BuildingBlock: UXUYUI_clean_sbu_0, # of connection points: 4
#     Node 4, Type 0, BuildingBlock: UXUYUI_clean_sbu_0, # of connection points: 4
#     Node 5, Type 0, BuildingBlock: UXUYUI_clean_sbu_0, # of connection points: 4
#     Node 6, Type 0, BuildingBlock: UXUYUI_clean_sbu_0, # of connection points: 4
#     Node 7, Type 0, BuildingBlock: UXUYUI_clean_sbu_0, # of connection points: 4
#     Node 8, Type 0, BuildingBlock: UXUYUI_clean_sbu_0, # of connection points: 4
#     Node 9, Type 0, BuildingBlock: UXUYUI_clean_sbu_0, # of connection points: 4
#     Node 10, Type 0, BuildingBlock: UXUYUI_clean_sbu_0, # of connection points: 4
#     Node 11, Type 0, BuildingBlock: UXUYUI_clean_sbu_0, # of connection points: 4
#     Edge 12, Type (0, 0), BuildingBlock: XIVTED_clean_linker_0, # of connection points: 2
#     Edge 13, Type (0, 0), BuildingBlock: XIVTED_clean_linker_0, # of connection points: 2
#     Edge 14, Type (0, 0), BuildingBlock: XIVTED_clean_linker_0, # of connection points: 2
#     Edge 15, Type (0, 0), BuildingBlock: XIVTED_clean_linker_0, # of connection points: 2
#     Edge 16, Type (0, 0), BuildingBlock: XIVTED_clean_linker_0, # of connection points: 2
#     Edge 17, Type (0, 0), BuildingBlock: XIVTED_clean_linker_0, # of connection points: 2
#     Edge 18, Type (0, 0), BuildingBlock: XIVTED_clean_linker_0, # of connection points: 2
#     Edge 19, Type (0, 0), BuildingBlock: XIVTED_clean_linker_0, # of connection points: 2
#     Edge 20, Type (0, 0), BuildingBlock: XIVTED_clean_linker_0, # of connection points: 2
#     Edge 21, Type (0, 0), BuildingBlock: XIVTED_clean_linker_0, # of connection points: 2
#     Edge 22, Type (0, 0), BuildingBlock: XIVTED_clean_linker_0, # of connection points: 2
#     Edge 23, Type (0, 0), BuildingBlock: XIVTED_clean_linker_0, # of connection points: 2
#     Edge 24, Type (0, 0), BuildingBlock: XIVTED_clean_linker_0, # of connection points: 2
#     Edge 25, Type (0, 0), BuildingBlock: XIVTED_clean_linker_0, # of connection points: 2
#     Edge 26, Type (0, 0), BuildingBlock: XIVTED_clean_linker_0, # of connection points: 2
#     Edge 27, Type (0, 0), BuildingBlock: XIVTED_clean_linker_0, # of connection points: 2
#     Edge 28, Type (0, 0), BuildingBlock: XIVTED_clean_linker_0, # of connection points: 2
#     Edge 29, Type (0, 0), BuildingBlock: XIVTED_clean_linker_0, # of connection points: 2
#     Edge 30, Type (0, 0), BuildingBlock: XIVTED_clean_linker_0, # of connection points: 2
#     Edge 31, Type (0, 0), BuildingBlock: XIVTED_clean_linker_0, # of connection points: 2
#     Edge 32, Type (0, 0), BuildingBlock: XIVTED_clean_linker_0, # of connection points: 2
#     Edge 33, Type (0, 0), BuildingBlock: XIVTED_clean_linker_0, # of connection points: 2
#     Edge 34, Type (0, 0), BuildingBlock: XIVTED_clean_linker_0, # of connection points: 2
#     Edge 35, Type (0, 0), BuildingBlock: XIVTED_clean_linker_0, # of connection points: 2
# Relax obj value: 0.500
# Max RMSD: 0.243
# Mean RMSD: 0.227
data_MOF--net-acs-a--node1-UXUYUI_clean_sbu_0--edge1-XIVTED_clean_linker_0
_symmetry_space_group_name_H-M    P1
_symmetry_Int_Tables_number       1
_symmetry_cell_setting            triclinic
loop_
_symmetry_equiv_pos_as_xyz
'x, y, z'
_cell_length_a     56.617506
_cell_length_b     69.693071
_cell_length_c     68.393608
_cell_angle_alpha  89.984227
_cell_angle_beta   90.022614
_cell_angle_gamma 110.98262
loop_
_atom_site_label
_atom_site_type_symbol
_atom_site_fract_x
_atom_site_fract_y
_atom_site_fract_z
_atom_type_partial_charge
Li0 Li 0.58177 0.13244 0.08644 0.0
Li1 Li 0.6244 0.13383 0.08731 0.0
Li2 Li 0.59106 0.1023 0.0799 0.0
Li3 Li 0.59739 0.11589 0.11409 0.0
C4 C 0.59501 0.13844 0.0502 0.0
N5 N 0.58043 0.16043 0.02203 0.0
C6 C 0.61108 0.15824 0.04509 0.0
C7 C 0.57157 0.1298 0.04089 0.0
C8 C 0.60336 0.1691 0.03082 0.0
C9 C 0.56453 0.14117 0.02674 0.0
C10 C 0.62561 0.16336 0.11313 0.0
C11 C 0.6539 0.18351 0.138 0.0
N12 N 0.66249 0.19954 0.1253 0.0
C13 C 0.63465 0.18006 0.10035 0.0
C14 C 0.63526 0.1651 0.13214 0.0
C15 C 0.65334 0.1982 0.10676 0.0
C16 C 0.53344 0.13521 0.0822 0.0
N17 N 0.55866 0.14613 0.0808 0.0
C18 C 0.55051 0.17611 0.07109 0.0
C19 C 0.5674 0.16625 0.07547 0.0
C20 C 0.52434 0.16523 0.07247 0.0
C21 C 0.51586 0.14449 0.07809 0.0
H22 H 0.52692 0.11931 0.08666 0.0
H23 H 0.58748 0.17469 0.07461 0.0
C24 C 0.66563 0.14736 0.06171 0.0
N25 N 0.65905 0.1483 0.0807 0.0
C26 C 0.69083 0.1562 0.05588 0.0
C27 C 0.70219 0.16634 0.08939 0.0
C28 C 0.6768 0.15719 0.09457 0.0
C29 C 0.70951 0.16597 0.06979 0.0
H30 H 0.65131 0.13938 0.05111 0.0
H31 H 0.67141 0.15685 0.10972 0.0
C32 C 0.54686 0.08585 0.09756 0.0
N33 N 0.51066 0.04681 0.09501 0.0
C34 C 0.54369 0.07189 0.1129 0.0
C35 C 0.53143 0.08001 0.08101 0.0
C36 C 0.52531 0.05222 0.11132 0.0
C37 C 0.51332 0.06018 0.07996 0.0
C38 C 0.64262 0.10477 0.09657 0.0
C39 C 0.65016 0.09842 0.07904 0.0
C40 C 0.65948 0.11054 0.11229 0.0
C41 C 0.67464 0.09813 0.07746 0.0
C42 C 0.68378 0.11002 0.11013 0.0
N43 N 0.6908 0.1039 0.0929 0.0
C44 C 0.58163 0.08006 0.04524 0.0
C45 C 0.5765 0.05946 0.07367 0.0
C46 C 0.57288 0.06267 0.03349 0.0
N47 N 0.58243 0.07812 0.06495 0.0
C48 C 0.56744 0.04158 0.06247 0.0
C49 C 0.565 0.04312 0.04214 0.0
H50 H 0.58715 0.09511 0.03869 0.0
H51 H 0.57797 0.05848 0.08938 0.0
C52 C 0.584 0.1188 0.15314 0.0
N53 N 0.595 0.10917 0.14086 0.0
C54 C 0.58287 0.1147 0.17315 0.0
C55 C 0.60382 0.09045 0.16734 0.0
C56 C 0.60453 0.09503 0.14744 0.0
C57 C 0.59309 0.1005 0.18051 0.0
H58 H 0.57656 0.12995 0.14739 0.0
H59 H 0.6128 0.0874 0.13723 0.0
O60 O 0.60206 0.12764 0.06434 0.0
O61 O 0.60722 0.14549 0.1072 0.0
O62 O 0.56504 0.10507 0.09872 0.0
O63 O 0.61901 0.10572 0.09819 0.0
H64 H 0.62919 0.16528 0.0522 0.0
H65 H 0.55881 0.11456 0.04473 0.0
H66 H 0.61556 0.18447 0.0268 0.0
H67 H 0.54638 0.13472 0.01953 0.0
H68 H 0.66159 0.18505 0.15265 0.0
H69 H 0.62767 0.17892 0.08554 0.0
H70 H 0.62858 0.15233 0.14222 0.0
H71 H 0.66062 0.21118 0.09697 0.0
H72 H 0.5579 0.19224 0.0672 0.0
H73 H 0.49585 0.13554 0.07932 0.0
H74 H 0.69565 0.15517 0.0407 0.0
H75 H 0.71586 0.17382 0.10063 0.0
H76 H 0.55538 0.07613 0.12585 0.0
H77 H 0.53367 0.09057 0.06897 0.0
H78 H 0.52273 0.04123 0.12305 0.0
H79 H 0.50143 0.0554 0.06715 0.0
H80 H 0.63736 0.09401 0.0667 0.0
H81 H 0.654 0.1157 0.12589 0.0
H82 H 0.68081 0.09339 0.06394 0.0
H83 H 0.6971 0.11459 0.12212 0.0
H84 H 0.57113 0.06455 0.0179 0.0
H85 H 0.56183 0.02676 0.06963 0.0
H86 H 0.57471 0.12297 0.1828 0.0
H87 H 0.61156 0.07919 0.17236 0.0
Li88 Li 0.51483 0.65263 0.57676 0.0
Li89 Li 0.51302 0.63342 0.60967 0.0
Li90 Li 0.50719 0.61624 0.57794 0.0
Li91 Li 0.47558 0.62726 0.58967 0.0
C92 C 0.55679 0.63301 0.58117 0.0
N93 N 0.59382 0.61907 0.56792 0.0
C94 C 0.56211 0.61772 0.59147 0.0
C95 C 0.57042 0.64138 0.56426 0.0
C96 C 0.58086 0.61082 0.58449 0.0
C97 C 0.58905 0.63409 0.55777 0.0
C98 C 0.48043 0.66126 0.60964 0.0
C99 C 0.45588 0.66601 0.63676 0.0
N100 N 0.44498 0.67601 0.62473 0.0
C101 C 0.46912 0.6717 0.59757 0.0
C102 C 0.47387 0.65845 0.62941 0.0
C103 C 0.45118 0.67899 0.60547 0.0
C104 C 0.51156 0.6828 0.55177 0.0
N105 N 0.52731 0.67871 0.56472 0.0
C106 C 0.55411 0.71407 0.5655 0.0
C107 C 0.54868 0.69367 0.57124 0.0
C108 C 0.53724 0.71896 0.55309 0.0
C109 C 0.51627 0.70288 0.54562 0.0
H110 H 0.49433 0.67067 0.54729 0.0
H111 H 0.56059 0.68997 0.58183 0.0
C112 C 0.52394 0.61901 0.64579 0.0
N113 N 0.52609 0.63612 0.63534 0.0
C114 C 0.53049 0.6206 0.66557 0.0
C115 C 0.54288 0.65751 0.66302 0.0
C116 C 0.53586 0.65517 0.64334 0.0
C117 C 0.53958 0.64004 0.67458 0.0
H118 H 0.51627 0.60406 0.63894 0.0
H119 H 0.53743 0.6685 0.63458 0.0
C120 C 0.48787 0.62421 0.54391 0.0
N121 N 0.48637 0.6112 0.5056 0.0
C122 C 0.46829 0.60653 0.53761 0.0
C123 C 0.50652 0.6354 0.53066 0.0
C124 C 0.46793 0.60016 0.51821 0.0
C125 C 0.50546 0.62855 0.51137 0.0
C126 C 0.46532 0.59187 0.60744 0.0
C127 C 0.44925 0.57982 0.59306 0.0
C128 C 0.45835 0.58856 0.62712 0.0
C129 C 0.42633 0.56478 0.59856 0.0
C130 C 0.43527 0.57334 0.63204 0.0
N131 N 0.41987 0.56189 0.61778 0.0
C132 C 0.50389 0.57536 0.57316 0.0
C133 C 0.52505 0.59685 0.54695 0.0
C134 C 0.50443 0.55804 0.56329 0.0
N135 N 0.51321 0.59419 0.56459 0.0
C136 C 0.52608 0.57993 0.53656 0.0
C137 C 0.51499 0.56015 0.54451 0.0
H138 H 0.49552 0.57366 0.58752 0.0
H139 H 0.53317 0.61199 0.54068 0.0
C140 C 0.42852 0.62473 0.5742 0.0
N141 N 0.44018 0.62273 0.59104 0.0
C142 C 0.40328 0.62326 0.57441 0.0
C143 C 0.40237 0.6175 0.60929 0.0
C144 C 0.42765 0.61917 0.60841 0.0
C145 C 0.38989 0.61974 0.59216 0.0
H146 H 0.43903 0.62803 0.56066 0.0
H147 H 0.43743 0.61814 0.62169 0.0
O148 O 0.53825 0.63971 0.58758 0.0
O149 O 0.49756 0.65356 0.60208 0.0
O150 O 0.48844 0.63077 0.56282 0.0
O151 O 0.48784 0.60668 0.60228 0.0
H152 H 0.55167 0.61111 0.6046 0.0
H153 H 0.56646 0.65324 0.55616 0.0
H154 H 0.58509 0.59889 0.59222 0.0
H155 H 0.59967 0.64032 0.54464 0.0
H156 H 0.45049 0.66384 0.65201 0.0
H157 H 0.47386 0.67388 0.58221 0.0
H158 H 0.48228 0.65025 0.63891 0.0
H159 H 0.44212 0.68695 0.59627 0.0
H160 H 0.57053 0.726 0.57155 0.0
H161 H 0.50244 0.70589 0.53639 0.0
H162 H 0.52735 0.60667 0.67385 0.0
H163 H 0.55026 0.67282 0.66919 0.0
H164 H 0.45347 0.59787 0.54755 0.0
H165 H 0.52196 0.649 0.53529 0.0
H166 H 0.45295 0.58646 0.51316 0.0
H167 H 0.51988 0.63696 0.50101 0.0
H168 H 0.45443 0.58209 0.5778 0.0
H169 H 0.47042 0.59782 0.63846 0.0
H170 H 0.41369 0.55541 0.58756 0.0
H171 H 0.42957 0.5707 0.64719 0.0
H172 H 0.49629 0.5431 0.57017 0.0
H173 H 0.53454 0.58225 0.52214 0.0
H174 H 0.39463 0.62549 0.5609 0.0
H175 H 0.39278 0.61461 0.62327 0.0
Li176 Li 0.8617 0.36507 0.08969 0.0
Li177 Li 0.89926 0.36402 0.10881 0.0
Li178 Li 0.90321 0.3821 0.07631 0.0
Li179 Li 0.8873 0.3459 0.07803 0.0
C180 C 0.87813 0.39936 0.11129 0.0
N181 N 0.85305 0.42094 0.13106 0.0
C182 C 0.87642 0.39841 0.13169 0.0
C183 C 0.86727 0.41144 0.10098 0.0
C184 C 0.86363 0.40941 0.14141 0.0
C185 C 0.8546 0.42218 0.11123 0.0
C186 C 0.85284 0.32123 0.10226 0.0
C187 C 0.84709 0.28596 0.10953 0.0
N188 N 0.82483 0.27969 0.09955 0.0
C189 C 0.82986 0.31444 0.09215 0.0
C190 C 0.86152 0.30689 0.11107 0.0
C191 C 0.816 0.29338 0.09092 0.0
C192 C 0.81466 0.36477 0.0758 0.0
N193 N 0.82838 0.36555 0.09227 0.0
C194 C 0.79489 0.36804 0.11216 0.0
C195 C 0.81876 0.36659 0.11027 0.0
C196 C 0.78048 0.36786 0.09535 0.0
C197 C 0.79057 0.36584 0.077 0.0
H198 H 0.82236 0.36321 0.0617 0.0
H199 H 0.82978 0.36659 0.12318 0.0
C200 C 0.93345 0.38065 0.13978 0.0
N201 N 0.9124 0.36473 0.13425 0.0
C202 C 0.94186 0.3822 0.15914 0.0
C203 C 0.9072 0.3506 0.16642 0.0
C204 C 0.89929 0.34983 0.14705 0.0
C205 C 0.92853 0.36709 0.17272 0.0
H206 H 0.94328 0.39239 0.12926 0.0
H207 H 0.88223 0.33769 0.14238 0.0
C208 C 0.87499 0.37212 0.04491 0.0
N209 N 0.88033 0.39121 0.0089 0.0
C210 C 0.88474 0.36469 0.02905 0.0
C211 C 0.86783 0.38919 0.04241 0.0
C212 C 0.88729 0.37456 0.01096 0.0
C213 C 0.87074 0.39866 0.02411 0.0
C214 C 0.93723 0.3541 0.08183 0.0
C215 C 0.94206 0.35079 0.06232 0.0
C216 C 0.94868 0.34689 0.0968 0.0
C217 C 0.95813 0.3401 0.05811 0.0
C218 C 0.96467 0.3363 0.09198 0.0
N219 N 0.96901 0.33314 0.0729 0.0
C220 C 0.9246 0.42453 0.06846 0.0
C221 C 0.93484 0.40346 0.04531 0.0
C222 C 0.93714 0.44202 0.05737 0.0
N223 N 0.92325 0.40571 0.06208 0.0
C224 C 0.94723 0.42046 0.03361 0.0
C225 C 0.94827 0.44008 0.03947 0.0
H226 H 0.9157 0.42596 0.08206 0.0
H227 H 0.93377 0.38838 0.04067 0.0
C228 C 0.8645 0.31415 0.05211 0.0
N229 N 0.88324 0.32029 0.06567 0.0
C230 C 0.85489 0.29379 0.04593 0.0
C231 C 0.8853 0.28665 0.06667 0.0
C232 C 0.89425 0.30719 0.07256 0.0
C233 C 0.8645 0.2795 0.05391 0.0
H234 H 0.85536 0.32458 0.04744 0.0
H235 H 0.90836 0.31208 0.08393 0.0
O236 O 0.89036 0.38852 0.10149 0.0
O237 O 0.86705 0.34177 0.10309 0.0
O238 O 0.8726 0.36281 0.06281 0.0
O239 O 0.92175 0.36468 0.0863 0.0
H240 H 0.88466 0.38915 0.13994 0.0
H241 H 0.86841 0.41237 0.08521 0.0
H242 H 0.86206 0.40873 0.15717 0.0
H243 H 0.84597 0.43147 0.10341 0.0
H244 H 0.85369 0.27468 0.11612 0.0
H245 H 0.82298 0.32527 0.08504 0.0
H246 H 0.8795 0.31181 0.11864 0.0
H247 H 0.79828 0.28791 0.08301 0.0
H248 H 0.78808 0.36966 0.12662 0.0
H249 H 0.77994 0.36496 0.06366 0.0
H250 H 0.95836 0.39516 0.16349 0.0
H251 H 0.89612 0.33889 0.17656 0.0
H252 H 0.89069 0.35167 0.03073 0.0
H253 H 0.86029 0.39517 0.05451 0.0
H254 H 0.89495 0.36906 -0.0014 0.0
H255 H 0.86541 0.41196 0.02202 0.0
H256 H 0.93316 0.35607 0.05057 0.0
H257 H 0.9452 0.3494 0.11197 0.0
H258 H 0.9619 0.33728 0.04309 0.0
H259 H 0.97361 0.33058 0.10341 0.0
H260 H 0.93801 0.45685 0.06277 0.0
H261 H 0.95525 0.4181 0.01985 0.0
H262 H 0.83848 0.28901 0.03645 0.0
H263 H 0.89332 0.27618 0.07317 0.0
Li264 Li 0.39965 0.89022 0.57291 0.0
Li265 Li 0.39024 0.86765 0.60135 0.0
Li266 Li 0.41251 0.85988 0.57256 0.0
Li267 Li 0.36739 0.85474 0.57146 0.0
C268 C 0.44734 0.89932 0.59018 0.0
N269 N 0.49436 0.9303 0.58935 0.0
C270 C 0.45741 0.91039 0.60716 0.0
C271 C 0.46129 0.90387 0.57283 0.0
C272 C 0.48119 0.92603 0.60643 0.0
C273 C 0.48499 0.91962 0.57269 0.0
C274 C 0.35563 0.88575 0.60126 0.0
C275 C 0.32341 0.87963 0.62599 0.0
N276 N 0.33239 0.90001 0.63039 0.0
C277 C 0.36437 0.90667 0.60587 0.0
C278 C 0.33484 0.87214 0.61124 0.0
C279 C 0.35242 0.91357 0.62071 0.0
C280 C 0.39352 0.91818 0.5469 0.0
N281 N 0.40656 0.91687 0.56319 0.0
C282 C 0.43108 0.95262 0.56176 0.0
C283 C 0.42419 0.93374 0.57125 0.0
C284 C 0.41926 0.95419 0.54404 0.0
C285 C 0.39945 0.93683 0.5371 0.0
H286 H 0.37918 0.9045 0.54111 0.0
H287 H 0.4336 0.93247 0.58463 0.0
C288 C 0.38148 0.8501 0.6393 0.0
N289 N 0.38869 0.86792 0.62897 0.0
C290 C 0.38005 0.85047 0.65966 0.0
C291 C 0.39366 0.88753 0.65828 0.0
C292 C 0.39509 0.88643 0.638 0.0
C293 C 0.38605 0.86939 0.66943 0.0
H294 H 0.377 0.83561 0.63176 0.0
H295 H 0.40119 0.90037 0.62942 0.0
C296 C 0.40186 0.86791 0.53362 0.0
N297 N 0.41754 0.86574 0.49569 0.0
C298 C 0.39037 0.8502 0.52248 0.0
C299 C 0.421 0.88468 0.52532 0.0
C300 C 0.39867 0.84934 0.50338 0.0
C301 C 0.42874 0.88324 0.50616 0.0
C302 C 0.36832 0.82078 0.58934 0.0
C303 C 0.37448 0.80531 0.58009 0.0
C304 C 0.34529 0.81576 0.59922 0.0
C305 C 0.35729 0.78509 0.58063 0.0
C306 C 0.32859 0.79537 0.59941 0.0
N307 N 0.33487 0.78059 0.59017 0.0
C308 C 0.46005 0.8555 0.57518 0.0
C309 C 0.43347 0.83507 0.55052 0.0
C310 C 0.47852 0.84714 0.57117 0.0
N311 N 0.43805 0.84941 0.5649 0.0
C312 C 0.45122 0.82599 0.54626 0.0
C313 C 0.47402 0.83176 0.55686 0.0
H314 H 0.46304 0.86639 0.58698 0.0
H315 H 0.41553 0.82992 0.54299 0.0
C316 C 0.31822 0.84963 0.5611 0.0
N317 N 0.33529 0.84003 0.56038 0.0
C318 C 0.29375 0.83989 0.55403 0.0
C319 C 0.30512 0.81082 0.54487 0.0
C320 C 0.32945 0.82119 0.55205 0.0
C321 C 0.28678 0.82006 0.54611 0.0
H322 H 0.32354 0.86483 0.56735 0.0
H323 H 0.3435 0.81406 0.55128 0.0
O324 O 0.42394 0.88414 0.59059 0.0
O325 O 0.36727 0.87866 0.58693 0.0
O326 O 0.39377 0.86908 0.55228 0.0
O327 O 0.38485 0.84068 0.58887 0.0
H328 H 0.44694 0.90698 0.62074 0.0
H329 H 0.45398 0.89521 0.55969 0.0
H330 H 0.48917 0.93478 0.61943 0.0
H331 H 0.49596 0.92332 0.55936 0.0
H332 H 0.30739 0.86925 0.63391 0.0
H333 H 0.38038 0.91743 0.59825 0.0
H334 H 0.32758 0.85597 0.60764 0.0
H335 H 0.35911 0.92969 0.62455 0.0
H336 H 0.44653 0.96547 0.56771 0.0
H337 H 0.38934 0.93741 0.52381 0.0
H338 H 0.37463 0.83613 0.66764 0.0
H339 H 0.3982 0.90245 0.66508 0.0
H340 H 0.37538 0.83716 0.52858 0.0
H341 H 0.42964 0.89874 0.53349 0.0
H342 H 0.39009 0.83565 0.49466 0.0
H343 H 0.44358 0.89608 0.49959 0.0
H344 H 0.39232 0.80886 0.57257 0.0
H345 H 0.34034 0.82749 0.6066 0.0
H346 H 0.36177 0.77299 0.57346 0.0
H347 H 0.31063 0.7913 0.6069 0.0
H348 H 0.49585 0.85232 0.5796 0.0
H349 H 0.44649 0.81385 0.53545 0.0
H350 H 0.28035 0.8477 0.55498 0.0
H351 H 0.30052 0.79546 0.53906 0.0
Li352 Li 0.48327 0.37065 0.11482 0.0
Li353 Li 0.47999 0.34253 0.09208 0.0
Li354 Li 0.52137 0.36868 0.09973 0.0
Li355 Li 0.4898 0.3768 0.08006 0.0
C356 C 0.49608 0.34477 0.13709 0.0
N357 N 0.49062 0.3376 0.17689 0.0
C358 C 0.47607 0.32788 0.1443 0.0
C359 C 0.51338 0.35792 0.15015 0.0
C360 C 0.47366 0.32451 0.16446 0.0
C361 C 0.51025 0.35409 0.17021 0.0
C362 C 0.44103 0.36546 0.08436 0.0
C363 C 0.417 0.36659 0.05556 0.0
N364 N 0.40798 0.37982 0.06482 0.0
C365 C 0.43146 0.37899 0.09364 0.0
C366 C 0.43368 0.3591 0.06521 0.0
C367 C 0.41478 0.3861 0.0835 0.0
C368 C 0.48388 0.39654 0.1464 0.0
N369 N 0.47089 0.3779 0.13843 0.0
C370 C 0.44729 0.36674 0.16786 0.0
C371 C 0.45182 0.36354 0.14828 0.0
C372 C 0.4623 0.38505 0.17714 0.0
C373 C 0.47979 0.40051 0.16583 0.0
H374 H 0.49843 0.40791 0.13805 0.0
H375 H 0.44149 0.34897 0.1414 0.0
C376 C 0.47626 0.30269 0.09842 0.0
N377 N 0.46582 0.31371 0.08728 0.0
C378 C 0.47087 0.28198 0.0947 0.0
C379 C 0.44423 0.2841 0.06777 0.0
C380 C 0.44956 0.30482 0.07244 0.0
C381 C 0.45521 0.27258 0.07894 0.0
H382 H 0.48992 0.31023 0.10957 0.0
H383 H 0.44195 0.31404 0.06352 0.0
C384 C 0.53311 0.40912 0.103 0.0
N385 N 0.57902 0.44141 0.10494 0.0
C386 C 0.54299 0.42105 0.08642 0.0
C387 C 0.54662 0.41369 0.12057 0.0
C388 C 0.56621 0.4373 0.0877 0.0
C389 C 0.56979 0.43004 0.12124 0.0
C390 C 0.50936 0.34234 0.06259 0.0
C391 C 0.52513 0.33196 0.06865 0.0
C392 C 0.4946 0.33582 0.04577 0.0
C393 C 0.5258 0.31517 0.05781 0.0
C394 C 0.49585 0.319 0.03531 0.0
N395 N 0.51127 0.30909 0.0415 0.0
C396 C 0.56328 0.36082 0.11541 0.0
C397 C 0.57325 0.38524 0.08975 0.0
C398 C 0.5883 0.36172 0.11613 0.0
N399 N 0.55627 0.3725 0.10236 0.0
C400 C 0.59854 0.3869 0.09018 0.0
C401 C 0.60636 0.37479 0.1033 0.0
H402 H 0.54925 0.35016 0.12473 0.0
H403 H 0.56702 0.39372 0.07896 0.0
C404 C 0.48179 0.41131 0.06595 0.0
N405 N 0.48683 0.39458 0.05997 0.0
C406 C 0.48348 0.42702 0.05281 0.0
C407 C 0.49435 0.40758 0.02734 0.0
C408 C 0.49276 0.39231 0.04106 0.0
C409 C 0.49033 0.42543 0.03334 0.0
H410 H 0.47769 0.41289 0.08118 0.0
H411 H 0.49741 0.37917 0.03683 0.0
O412 O 0.49842 0.34864 0.1174 0.0
O413 O 0.45769 0.35862 0.09392 0.0
O414 O 0.51042 0.39305 0.10206 0.0
O415 O 0.50775 0.35834 0.07342 0.0
H416 H 0.46224 0.3177 0.13447 0.0
H417 H 0.52896 0.37103 0.14486 0.0
H418 H 0.45818 0.31159 0.17023 0.0
H419 H 0.5234 0.36425 0.18047 0.0
H420 H 0.41128 0.36193 0.04068 0.0
H421 H 0.43701 0.38407 0.10846 0.0
H422 H 0.44108 0.34875 0.05779 0.0
H423 H 0.4073 0.39665 0.09046 0.0
H424 H 0.4336 0.35437 0.17596 0.0
H425 H 0.49123 0.4151 0.17222 0.0
H426 H 0.48022 0.27372 0.10329 0.0
H427 H 0.43238 0.27734 0.0553 0.0
H428 H 0.53315 0.41766 0.0726 0.0
H429 H 0.53937 0.40468 0.13355 0.0
H430 H 0.57409 0.44658 0.07496 0.0
H431 H 0.58044 0.43368 0.13474 0.0
H432 H 0.53642 0.33657 0.08175 0.0
H433 H 0.48185 0.34335 0.04109 0.0
H434 H 0.53779 0.30692 0.06241 0.0
H435 H 0.48439 0.31369 0.02236 0.0
H436 H 0.59313 0.35167 0.12615 0.0
H437 H 0.61169 0.39736 0.08012 0.0
H438 H 0.48012 0.44053 0.05793 0.0
H439 H 0.49995 0.40595 0.01247 0.0
Li440 Li 0.09518 0.6291 0.61114 0.0
Li441 Li 0.13248 0.62644 0.59239 0.0
Li442 Li 0.10749 0.64455 0.57999 0.0
Li443 Li 0.08924 0.60827 0.57976 0.0
C444 C 0.14043 0.67132 0.60276 0.0
N445 N 0.16489 0.71319 0.598 0.0
C446 C 0.16316 0.67889 0.59238 0.0
C447 C 0.1302 0.68508 0.6108 0.0
C448 C 0.1752 0.7001 0.59008 0.0
C449 C 0.14287 0.70619 0.60825 0.0
C450 C 0.10892 0.59193 0.61898 0.0
C451 C 0.11129 0.55948 0.62906 0.0
N452 N 0.11831 0.56723 0.64729 0.0
C453 C 0.11616 0.59955 0.63783 0.0
C454 C 0.10641 0.5717 0.61457 0.0
C455 C 0.12083 0.58684 0.65192 0.0
C456 C 0.06162 0.61283 0.64228 0.0
N457 N 0.08185 0.62931 0.63647 0.0
C458 C 0.08672 0.64372 0.66852 0.0
C459 C 0.09428 0.64471 0.64904 0.0
C460 C 0.06653 0.62651 0.67516 0.0
C461 C 0.05365 0.61105 0.66174 0.0
H462 H 0.05241 0.60067 0.63198 0.0
H463 H 0.11086 0.65722 0.64422 0.0
C464 C 0.1815 0.63228 0.57847 0.0
N465 N 0.16609 0.62573 0.59427 0.0
C466 C 0.20575 0.63144 0.57849 0.0
C467 C 0.19848 0.61802 0.61139 0.0
C468 C 0.17429 0.61902 0.61068 0.0
C469 C 0.21445 0.62408 0.59505 0.0
H470 H 0.17499 0.63822 0.56579 0.0
H471 H 0.1622 0.61445 0.62328 0.0
C472 C 0.05772 0.6374 0.58158 0.0
N473 N 0.02746 0.65766 0.56722 0.0
C474 C 0.05289 0.63728 0.56153 0.0
C475 C 0.04694 0.64759 0.59437 0.0
C476 C 0.03763 0.6477 0.55455 0.0
C477 C 0.03173 0.6578 0.58681 0.0
C478 C 0.12779 0.61277 0.55406 0.0
C479 C 0.13333 0.61695 0.53423 0.0
C480 C 0.13026 0.59526 0.56237 0.0
C481 C 0.14143 0.60364 0.52314 0.0
C482 C 0.13843 0.58234 0.5508 0.0
N483 N 0.14381 0.58676 0.53158 0.0
C484 C 0.12808 0.67192 0.54994 0.0
C485 C 0.10177 0.68316 0.57031 0.0
C486 C 0.13732 0.69094 0.54069 0.0
N487 N 0.11136 0.66862 0.56491 0.0
C488 C 0.11055 0.7025 0.56145 0.0
C489 C 0.12946 0.70685 0.54706 0.0
H490 H 0.13591 0.66037 0.54625 0.0
H491 H 0.08899 0.68045 0.58256 0.0
C492 C 0.05721 0.56647 0.57527 0.0
N493 N 0.0686 0.58479 0.56615 0.0
C494 C 0.04425 0.54893 0.56432 0.0
C495 C 0.05438 0.56974 0.53501 0.0
C496 C 0.06702 0.5868 0.5465 0.0
C497 C 0.04304 0.55042 0.54386 0.0
H498 H 0.05856 0.56544 0.59098 0.0
H499 H 0.07625 0.60161 0.53968 0.0
O500 O 0.12812 0.65056 0.60478 0.0
O501 O 0.10355 0.60395 0.60509 0.0
O502 O 0.0725 0.62725 0.58874 0.0
O503 O 0.11945 0.62557 0.565 0.0
H504 H 0.17128 0.66851 0.58595 0.0
H505 H 0.11233 0.67955 0.61849 0.0
H506 H 0.1927 0.70614 0.58194 0.0
H507 H 0.13504 0.71699 0.61424 0.0
H508 H 0.10944 0.54381 0.62583 0.0
H509 H 0.11874 0.61525 0.64145 0.0
H510 H 0.10075 0.56544 0.60012 0.0
H511 H 0.12656 0.59259 0.66652 0.0
H512 H 0.09747 0.65572 0.67852 0.0
H513 H 0.03805 0.59752 0.66637 0.0
H514 H 0.21766 0.63672 0.56574 0.0
H515 H 0.20445 0.61226 0.62447 0.0
H516 H 0.06107 0.62941 0.55148 0.0
H517 H 0.05042 0.64771 0.60994 0.0
H518 H 0.03387 0.64788 0.53905 0.0
H519 H 0.02336 0.66585 0.5965 0.0
H520 H 0.13122 0.63026 0.52742 0.0
H521 H 0.12609 0.59171 0.57761 0.0
H522 H 0.14577 0.60672 0.50779 0.0
H523 H 0.14049 0.56878 0.55711 0.0
H524 H 0.15223 0.69365 0.52997 0.0
H525 H 0.10398 0.71434 0.56679 0.0
H526 H 0.03542 0.53439 0.57175 0.0
H527 H 0.05424 0.57158 0.51929 0.0
Li528 Li 0.86933 0.36745 0.40276 0.0
Li529 Li 0.9123 0.37751 0.4159 0.0
Li530 Li 0.90439 0.36558 0.38284 0.0
Li531 Li 0.88897 0.34255 0.41098 0.0
C532 C 0.89969 0.40916 0.39897 0.0
N533 N 0.89904 0.44717 0.40983 0.0
C534 C 0.89135 0.41204 0.41762 0.0
C535 C 0.90771 0.42563 0.38588 0.0
C536 C 0.89118 0.43137 0.42282 0.0
C537 C 0.90721 0.44472 0.39163 0.0
C538 C 0.87098 0.35037 0.44535 0.0
C539 C 0.87613 0.33032 0.4727 0.0
N540 N 0.85197 0.32703 0.47836 0.0
C541 C 0.84631 0.347 0.4516 0.0
C542 C 0.88612 0.34218 0.45614 0.0
C543 C 0.83701 0.3351 0.46827 0.0
C544 C 0.81687 0.35382 0.40582 0.0
N545 N 0.83726 0.37084 0.40144 0.0
C546 C 0.81038 0.38983 0.39473 0.0
C547 C 0.83441 0.38854 0.39556 0.0
C548 C 0.78903 0.37262 0.39957 0.0
C549 C 0.79248 0.35437 0.40503 0.0
H550 H 0.81961 0.33978 0.40994 0.0
H551 H 0.85061 0.40163 0.39126 0.0
C552 C 0.95292 0.41425 0.42365 0.0
N553 N 0.9358 0.39736 0.43215 0.0
C554 C 0.96793 0.43057 0.43516 0.0
C555 C 0.94818 0.41139 0.46397 0.0
C556 C 0.93346 0.39551 0.45189 0.0
C557 C 0.96523 0.4294 0.45558 0.0
H558 H 0.95416 0.41538 0.40788 0.0
H559 H 0.91941 0.38212 0.45827 0.0
C560 C 0.8553 0.34212 0.3707 0.0
N561 N 0.82483 0.33808 0.33825 0.0
C562 C 0.83854 0.32275 0.3651 0.0
C563 C 0.85651 0.35945 0.35985 0.0
C564 C 0.82331 0.32103 0.34863 0.0
C565 C 0.84097 0.35708 0.34348 0.0
C566 C 0.94909 0.36504 0.40809 0.0
C567 C 0.96681 0.37905 0.3959 0.0
C568 C 0.95687 0.35955 0.42595 0.0
C569 C 0.99202 0.38756 0.40192 0.0
C570 C 0.98225 0.36841 0.43146 0.0
N571 N -0.00086 0.38213 0.41944 0.0
C572 C 0.9301 0.38647 0.34938 0.0
C573 C 0.91048 0.35035 0.34597 0.0
C574 C 0.93757 0.38836 0.3298 0.0
N575 N 0.9166 0.3677 0.35692 0.0
C576 C 0.91731 0.35154 0.32629 0.0
C577 C 0.93081 0.37078 0.31787 0.0
H578 H 0.93479 0.39997 0.35853 0.0
H579 H 0.89966 0.33565 0.35241 0.0
C580 C 0.85605 0.30537 0.42457 0.0
N581 N 0.88073 0.31528 0.4199 0.0
C582 C 0.84807 0.28554 0.43208 0.0
C583 C 0.8908 0.28591 0.42875 0.0
C584 C 0.89813 0.30606 0.42171 0.0
C585 C 0.86554 0.27563 0.43425 0.0
H586 H 0.84263 0.31302 0.42264 0.0
H587 H 0.91761 0.31432 0.41765 0.0
O588 O 0.90064 0.39052 0.39361 0.0
O589 O 0.88026 0.36179 0.42889 0.0
O590 O 0.8701 0.34402 0.38693 0.0
O591 O 0.92424 0.35689 0.40262 0.0
H592 H 0.88507 0.39955 0.428 0.0
H593 H 0.91427 0.4237 0.37141 0.0
H594 H 0.8848 0.4338 0.43719 0.0
H595 H 0.91335 0.45759 0.38163 0.0
H596 H 0.88756 0.3237 0.48103 0.0
H597 H 0.83451 0.35363 0.44377 0.0
H598 H 0.90527 0.34469 0.4516 0.0
H599 H 0.81792 0.33231 0.4732 0.0
H600 H 0.80848 0.40405 0.39001 0.0
H601 H 0.77654 0.34075 0.40891 0.0
H602 H 0.98101 0.44416 0.42816 0.0
H603 H 0.94527 0.41 0.47963 0.0
H604 H 0.83731 0.30921 0.37343 0.0
H605 H 0.86925 0.37459 0.36402 0.0
H606 H 0.81025 0.30613 0.34412 0.0
H607 H 0.84172 0.37036 0.33494 0.0
H608 H 0.96112 0.38347 0.38204 0.0
H609 H 0.94347 0.34861 0.43549 0.0
H610 H 0.0059 0.39852 0.3927 0.0
H611 H 0.98851 0.36438 0.44529 0.0
H612 H 0.9483 0.40346 0.32406 0.0
H613 H 0.91127 0.3376 0.31766 0.0
H614 H 0.82831 0.27784 0.43579 0.0
H615 H 0.90461 0.27851 0.43004 0.0
Li616 Li 0.38136 0.87152 0.88391 0.0
Li617 Li 0.39736 0.88766 0.91395 0.0
Li618 Li 0.39221 0.85308 0.91128 0.0
Li619 Li 0.35485 0.86483 0.91499 0.0
C620 C 0.42816 0.86861 0.8823 0.0
N621 N 0.45439 0.8537 0.85594 0.0
C622 C 0.45291 0.88058 0.87699 0.0
C623 C 0.41678 0.84905 0.87418 0.0
C624 C 0.46584 0.87278 0.86364 0.0
C625 C 0.43034 0.84178 0.8609 0.0
C626 C 0.37379 0.91066 0.89792 0.0
C627 C 0.36465 0.94077 0.90669 0.0
N628 N 0.38501 0.95257 0.8961 0.0
C629 C 0.39449 0.92303 0.887 0.0
C630 C 0.35862 0.91953 0.90775 0.0
C631 C 0.39991 0.94422 0.88632 0.0
C632 C 0.35757 0.86239 0.84723 0.0
N633 N 0.37954 0.8733 0.85643 0.0
C634 C 0.39991 0.88529 0.82593 0.0
C635 C 0.40036 0.88497 0.8463 0.0
C636 C 0.37768 0.87374 0.8159 0.0
C637 C 0.35619 0.8624 0.82685 0.0
H638 H 0.34121 0.85349 0.85574 0.0
H639 H 0.41748 0.89376 0.854 0.0
C640 C 0.44498 0.91408 0.92473 0.0
N641 N 0.42016 0.91183 0.92569 0.0
C642 C 0.46279 0.92886 0.93608 0.0
C643 C 0.42928 0.93927 0.94865 0.0
C644 C 0.41211 0.92431 0.93699 0.0
C645 C 0.45485 0.94125 0.94864 0.0
H646 H 0.45072 0.90356 0.91607 0.0
H647 H 0.3922 0.92183 0.93794 0.0
C648 C 0.34607 0.82437 0.89383 0.0
N649 N 0.31704 0.78313 0.89013 0.0
C650 C 0.33251 0.81338 0.90983 0.0
C651 C 0.34482 0.81438 0.87593 0.0
C652 C 0.31794 0.79255 0.90767 0.0
C653 C 0.33007 0.79352 0.87436 0.0
C654 C 0.38984 0.87552 0.95095 0.0
C655 C 0.41352 0.87713 0.95829 0.0
C656 C 0.37494 0.8843 0.96127 0.0
C657 C 0.42212 0.88786 0.97569 0.0
C658 C 0.38418 0.89482 0.97867 0.0
N659 N 0.4074 0.89641 0.98543 0.0
C660 C 0.43301 0.84243 0.92149 0.0
C661 C 0.39511 0.81326 0.92078 0.0
C662 C 0.44703 0.83026 0.9263 0.0
N663 N 0.40761 0.83381 0.91855 0.0
C664 C 0.40838 0.80049 0.92586 0.0
C665 C 0.43472 0.809 0.92845 0.0
H666 H 0.44246 0.85886 0.91996 0.0
H667 H 0.37498 0.80668 0.91855 0.0
C668 C 0.3049 0.86388 0.91364 0.0
N669 N 0.32157 0.85836 0.92445 0.0
C670 C 0.27936 0.85694 0.91883 0.0
C671 C 0.28901 0.83956 0.9466 0.0
C672 C 0.31439 0.84718 0.94109 0.0
C673 C 0.27087 0.84382 0.93505 0.0
H674 H 0.31129 0.87301 0.90057 0.0
H675 H 0.32818 0.84321 0.94949 0.0
O676 O 0.41528 0.87624 0.89528 0.0
O677 O 0.36823 0.88992 0.89883 0.0
O678 O 0.36004 0.8449 0.89553 0.0
O679 O 0.3813 0.86547 0.93371 0.0
H680 H 0.46199 0.89582 0.88302 0.0
H681 H 0.39778 0.8395 0.87812 0.0
H682 H 0.48498 0.88191 0.85938 0.0
H683 H 0.42174 0.82665 0.85454 0.0
H684 H 0.35317 0.94788 0.9143 0.0
H685 H 0.40641 0.91636 0.87934 0.0
H686 H 0.34249 0.91011 0.91624 0.0
H687 H 0.41598 0.95402 0.87804 0.0
H688 H 0.41704 0.89408 0.81817 0.0
H689 H 0.33851 0.8536 0.81979 0.0
H690 H 0.48228 0.92972 0.93587 0.0
H691 H 0.42249 0.94866 0.95808 0.0
H692 H 0.33369 0.82071 0.92387 0.0
H693 H 0.35514 0.82261 0.86335 0.0
H694 H 0.30747 0.78385 0.91998 0.0
H695 H 0.32897 0.78561 0.86059 0.0
H696 H 0.42528 0.87043 0.95049 0.0
H697 H 0.35663 0.8833 0.95574 0.0
H698 H 0.44053 0.88943 0.98143 0.0
H699 H 0.37295 0.90184 0.98672 0.0
H700 H 0.46727 0.83741 0.9284 0.0
H701 H 0.39826 0.78411 0.92727 0.0
H702 H 0.26631 0.86111 0.90973 0.0
H703 H 0.28362 0.82934 0.95906 0.0
Li704 Li 0.49796 0.384 0.42053 0.0
Li705 Li 0.48851 0.34834 0.41744 0.0
Li706 Li 0.5296 0.37228 0.40776 0.0
Li707 Li 0.49094 0.36753 0.38722 0.0
C708 C 0.51635 0.3751 0.45263 0.0
N709 N 0.51854 0.3914 0.48974 0.0
C710 C 0.49851 0.3647 0.46677 0.0
C711 C 0.53533 0.39379 0.45742 0.0
C712 C 0.49997 0.37317 0.48544 0.0
C713 C 0.53608 0.40179 0.47624 0.0
C714 C 0.44279 0.34952 0.41267 0.0
C715 C 0.40291 0.32555 0.40109 0.0
N716 N 0.39526 0.32082 0.41991 0.0
C717 C 0.43448 0.34455 0.43189 0.0
C718 C 0.42686 0.34004 0.39712 0.0
C719 C 0.41042 0.32994 0.43525 0.0
C720 C 0.50869 0.42524 0.42993 0.0
N721 N 0.49394 0.40585 0.4352 0.0
C722 C 0.47924 0.4185 0.46337 0.0
C723 C 0.47869 0.40226 0.45118 0.0
C724 C 0.49539 0.4386 0.45884 0.0
C725 C 0.50969 0.4419 0.44156 0.0
H726 H 0.52019 0.42776 0.41694 0.0
H727 H 0.46692 0.38672 0.45494 0.0
C728 C 0.48912 0.31677 0.44161 0.0
N729 N 0.47466 0.32102 0.42763 0.0
C730 C 0.48662 0.29656 0.44553 0.0
C731 C 0.45298 0.28519 0.42167 0.0
C732 C 0.45619 0.30573 0.41816 0.0
C733 C 0.46927 0.28047 0.43477 0.0
H734 H 0.5045 0.3291 0.44823 0.0
H735 H 0.4457 0.30939 0.40648 0.0
C736 C 0.54023 0.40605 0.38778 0.0
N737 N 0.58565 0.43003 0.37102 0.0
C738 C 0.54327 0.40632 0.36749 0.0
C739 C 0.56022 0.41818 0.39952 0.0
C740 C 0.56638 0.4185 0.3593 0.0
C741 C 0.58306 0.43013 0.39078 0.0
C742 C 0.50835 0.32901 0.39099 0.0
C743 C 0.52562 0.32314 0.40178 0.0
C744 C 0.49139 0.31491 0.3784 0.0
C745 C 0.52555 0.30317 0.39986 0.0
C746 C 0.49197 0.29509 0.37685 0.0
N747 N 0.50888 0.28968 0.38752 0.0
C748 C 0.57915 0.37941 0.42192 0.0
C749 C 0.57348 0.37307 0.38787 0.0
C750 C 0.6043 0.3808 0.42063 0.0
N751 N 0.56438 0.37568 0.40567 0.0
C752 C 0.59849 0.37418 0.38592 0.0
C753 C 0.6142 0.37801 0.40247 0.0
H754 H 0.57127 0.38086 0.43597 0.0
H755 H 0.56116 0.36985 0.37524 0.0
C756 C 0.46356 0.37723 0.35624 0.0
N757 N 0.47996 0.36778 0.36121 0.0
C758 C 0.45825 0.37934 0.33655 0.0
C759 C 0.48645 0.36161 0.32772 0.0
C760 C 0.49102 0.35971 0.34749 0.0
C761 C 0.47031 0.37191 0.32204 0.0
H762 H 0.45526 0.38368 0.36753 0.0
H763 H 0.50428 0.35257 0.3519 0.0
O764 O 0.5151 0.36715 0.43418 0.0
O765 O 0.46623 0.36383 0.40907 0.0
O766 O 0.51789 0.39387 0.39612 0.0
O767 O 0.50786 0.34841 0.39289 0.0
H768 H 0.48348 0.35036 0.46333 0.0
H769 H 0.5491 0.40222 0.44666 0.0
H770 H 0.48623 0.36531 0.49648 0.0
H771 H 0.55054 0.41631 0.48007 0.0
H772 H 0.39041 0.31802 0.3892 0.0
H773 H 0.44657 0.35173 0.44408 0.0
H774 H 0.43299 0.34372 0.38216 0.0
H775 H 0.40381 0.32584 0.45005 0.0
H776 H 0.46793 0.41522 0.47656 0.0
H777 H 0.52183 0.45719 0.43719 0.0
H778 H 0.50003 0.29385 0.45542 0.0
H779 H 0.4393 0.27329 0.41309 0.0
H780 H 0.52801 0.39723 0.35813 0.0
H781 H 0.55827 0.41816 0.41524 0.0
H782 H 0.56901 0.41878 0.34362 0.0
H783 H 0.59874 0.43944 0.39972 0.0
H784 H 0.53869 0.33379 0.41175 0.0
H785 H 0.47774 0.31915 0.37008 0.0
H786 H 0.53867 0.29835 0.40823 0.0
H787 H 0.47887 0.28397 0.36724 0.0
H788 H 0.61565 0.3834 0.4338 0.0
H789 H 0.60543 0.37204 0.37164 0.0
H790 H 0.44583 0.38749 0.3327 0.0
H791 H 0.49593 0.35553 0.31695 0.0
Li792 Li 0.09131 0.61485 0.91788 0.0
Li793 Li 0.1346 0.62543 0.90552 0.0
Li794 Li 0.11504 0.65053 0.91449 0.0
Li795 Li 0.10125 0.62897 0.8851 0.0
C796 C 0.13402 0.64153 0.94765 0.0
N797 N 0.15712 0.66529 0.97947 0.0
C798 C 0.15982 0.64622 0.95108 0.0
C799 C 0.11993 0.64883 0.96048 0.0
C800 C 0.17116 0.65826 0.96724 0.0
C801 C 0.13198 0.66086 0.97645 0.0
C802 C 0.11266 0.58822 0.89109 0.0
C803 C 0.13581 0.57342 0.87009 0.0
N804 N 0.13229 0.55801 0.88325 0.0
C805 C 0.1092 0.57221 0.90439 0.0
C806 C 0.12598 0.58881 0.87376 0.0
C807 C 0.11928 0.55708 0.90015 0.0
C808 C 0.05196 0.57714 0.92289 0.0
N809 N 0.06688 0.59421 0.93256 0.0
C810 C 0.04951 0.57963 0.96324 0.0
C811 C 0.06572 0.59589 0.95229 0.0
C812 C 0.03476 0.56144 0.95374 0.0
C813 C 0.03574 0.56039 0.93328 0.0
H814 H 0.05337 0.57629 0.90717 0.0
H815 H 0.07794 0.60958 0.95958 0.0
C816 C 0.18429 0.63106 0.89351 0.0
N817 N 0.16513 0.61979 0.90538 0.0
C818 C 0.2067 0.62705 0.89266 0.0
C819 C 0.18943 0.60008 0.91654 0.0
C820 C 0.16741 0.60474 0.91703 0.0
C821 C 0.20945 0.61125 0.90415 0.0
H822 H 0.18227 0.64327 0.88476 0.0
H823 H 0.15204 0.59628 0.92664 0.0
C824 C 0.05546 0.62823 0.91011 0.0
N825 N 0.00529 0.61068 0.92095 0.0
C826 C 0.03789 0.61486 0.89737 0.0
C827 C 0.04753 0.63278 0.92831 0.0
C828 C 0.0126 0.60613 0.90313 0.0
C829 C 0.02208 0.62372 0.93353 0.0
C830 C 0.1424 0.66131 0.87434 0.0
C831 C 0.14198 0.68123 0.87358 0.0
C832 C 0.1498 0.65303 0.85785 0.0
C833 C 0.14882 0.69249 0.85625 0.0
C834 C 0.15644 0.66476 0.84079 0.0
N835 N 0.15581 0.68409 0.84035 0.0
C836 C 0.14702 0.68774 0.92955 0.0
C837 C 0.10477 0.68629 0.92566 0.0
C838 C 0.15445 0.70781 0.93641 0.0
N839 N 0.12253 0.67738 0.92455 0.0
C840 C 0.11156 0.70666 0.93197 0.0
C841 C 0.13668 0.71755 0.93748 0.0
H842 H 0.16088 0.68051 0.92784 0.0
H843 H 0.08553 0.67779 0.92116 0.0
C844 C 0.0805 0.60852 0.85037 0.0
N845 N 0.0888 0.62726 0.8591 0.0
C846 C 0.07239 0.60647 0.83097 0.0
C847 C 0.08083 0.643 0.83006 0.0
C848 C 0.08829 0.64424 0.84962 0.0
C849 C 0.07307 0.62394 0.82033 0.0
H850 H 0.0803 0.59514 0.85845 0.0
H851 H 0.09422 0.65885 0.85709 0.0
O852 O 0.12264 0.62989 0.93181 0.0
O853 O 0.10336 0.6034 0.89512 0.0
O854 O 0.0804 0.63647 0.90497 0.0
O855 O 0.1357 0.65002 0.89115 0.0
H856 H 0.17104 0.64075 0.9413 0.0
H857 H 0.10003 0.6456 0.95791 0.0
H858 H 0.19113 0.66207 0.97002 0.0
H859 H 0.12136 0.66675 0.98639 0.0
H860 H 0.14627 0.57374 0.85678 0.0
H861 H 0.09921 0.57162 0.91798 0.0
H862 H 0.12884 0.6011 0.86333 0.0
H863 H 0.11687 0.54466 0.91036 0.0
H864 H 0.04942 0.58088 0.97902 0.0
H865 H 0.0245 0.54663 0.92547 0.0
H866 H 0.22182 0.63645 0.88328 0.0
H867 H 0.1906 0.58771 0.9256 0.0
H868 H 0.04377 0.61111 0.88328 0.0
H869 H 0.06095 0.64302 0.93836 0.0
H870 H -0.00119 0.59567 0.89347 0.0
H871 H 0.01568 0.62699 0.94761 0.0
H872 H 0.13631 0.68791 0.88617 0.0
H873 H 0.15019 0.63763 0.85816 0.0
H874 H 0.1485 0.7079 0.85543 0.0
H875 H 0.16205 0.6585 0.82788 0.0
H876 H 0.17415 0.71597 0.94001 0.0
H877 H 0.09754 0.71391 0.93231 0.0
H878 H 0.06582 0.59135 0.82439 0.0
H879 H 0.08189 0.65696 0.82256 0.0
Li880 Li 0.60612 0.14157 0.41397 0.0
Li881 Li 0.6429 0.1333 0.42055 0.0
Li882 Li 0.61523 0.11813 0.39133 0.0
Li883 Li 0.60178 0.10817 0.42591 0.0
C884 C 0.63933 0.1662 0.38891 0.0
N885 N 0.6455 0.2042 0.37313 0.0
C886 C 0.64758 0.18376 0.40066 0.0
C887 C 0.63423 0.16796 0.36913 0.0
C888 C 0.65054 0.20283 0.39242 0.0
C889 C 0.63749 0.18731 0.36142 0.0
C890 C 0.62997 0.14322 0.45565 0.0
C891 C 0.65249 0.14083 0.48494 0.0
N892 N 0.65685 0.16096 0.4888 0.0
C893 C 0.63449 0.16384 0.45998 0.0
C894 C 0.63885 0.13156 0.4683 0.0
C895 C 0.64818 0.17254 0.47679 0.0
C896 C 0.57714 0.15918 0.43444 0.0
N897 N 0.5885 0.16028 0.41675 0.0
C898 C 0.56787 0.18238 0.40462 0.0
C899 C 0.58407 0.1715 0.40187 0.0
C900 C 0.55573 0.18138 0.42273 0.0
C901 C 0.56068 0.16965 0.43777 0.0
H902 H 0.58003 0.14942 0.44576 0.0
H903 H 0.59221 0.17138 0.38765 0.0
C904 C 0.69077 0.13031 0.42818 0.0
N905 N 0.67698 0.14275 0.4294 0.0
C906 C 0.71606 0.13742 0.43424 0.0
C907 C 0.71202 0.16966 0.44321 0.0
C908 C 0.68717 0.16215 0.43657 0.0
C909 C 0.72681 0.15731 0.44196 0.0
H910 H 0.68228 0.11501 0.42219 0.0
H911 H 0.67613 0.17192 0.43695 0.0
C912 C 0.56133 0.11767 0.40011 0.0
N913 N 0.51781 0.12567 0.39263 0.0
C914 C 0.54252 0.11366 0.41439 0.0
C915 C 0.55795 0.12558 0.38198 0.0
C916 C 0.52067 0.11787 0.41034 0.0
C917 C 0.53581 0.12954 0.37849 0.0
C918 C 0.62695 0.08436 0.41504 0.0
C919 C 0.61673 0.06916 0.4009 0.0
C920 C 0.63364 0.07899 0.43335 0.0
C921 C 0.61302 0.04874 0.40544 0.0
C922 C 0.62959 0.05839 0.43733 0.0
N923 N 0.61943 0.04382 0.42342 0.0
C924 C 0.63359 0.11665 0.35331 0.0
C925 C 0.59067 0.09575 0.3586 0.0
C926 C 0.63141 0.11171 0.33345 0.0
N927 N 0.6132 0.10903 0.36525 0.0
C928 C 0.58764 0.09035 0.33888 0.0
C929 C 0.60802 0.09873 0.32593 0.0
H930 H 0.65127 0.12719 0.35909 0.0
H931 H 0.57487 0.08979 0.36855 0.0
C932 C 0.57433 0.09395 0.45947 0.0
N933 N 0.57994 0.08756 0.44191 0.0
C934 C 0.55472 0.08094 0.47079 0.0
C935 C 0.54744 0.05474 0.44596 0.0
C936 C 0.567 0.06841 0.43496 0.0
C937 C 0.54074 0.06112 0.46396 0.0
H938 H 0.58412 0.10956 0.46424 0.0
H939 H 0.57111 0.06406 0.42057 0.0
O940 O 0.63656 0.14742 0.39665 0.0
O941 O 0.61671 0.13444 0.43921 0.0
O942 O 0.58316 0.11423 0.404 0.0
O943 O 0.63057 0.10441 0.41092 0.0
H944 H 0.65126 0.18266 0.41604 0.0
H945 H 0.62763 0.15454 0.35984 0.0
H946 H 0.65678 0.21653 0.40137 0.0
H947 H 0.63356 0.18889 0.34615 0.0
H948 H 0.65959 0.13202 0.4948 0.0
H949 H 0.62784 0.17313 0.45033 0.0
H950 H 0.63528 0.11555 0.46527 0.0
H951 H 0.65199 0.18851 0.48024 0.0
H952 H 0.56474 0.1913 0.3926 0.0
H953 H 0.55133 0.168 0.45181 0.0
H954 H 0.72711 0.12763 0.4328 0.0
H955 H 0.71991 0.18531 0.44858 0.0
H956 H 0.54491 0.10761 0.42852 0.0
H957 H 0.57246 0.12896 0.37085 0.0
H958 H 0.50604 0.115 0.42129 0.0
H959 H 0.53301 0.13581 0.36459 0.0
H960 H 0.61158 0.07307 0.38662 0.0
H961 H 0.64183 0.0906 0.44437 0.0
H962 H 0.605 0.03679 0.39467 0.0
H963 H 0.63455 0.054 0.45148 0.0
H964 H 0.64753 0.1187 0.32398 0.0
H965 H 0.56941 0.08002 0.33377 0.0
H966 H 0.54991 0.08674 0.48431 0.0
H967 H 0.53737 0.03952 0.44021 0.0
Li968 Li 0.5052 0.63854 0.91721 0.0
Li969 Li 0.50305 0.6038 0.9174 0.0
Li970 Li 0.50684 0.62338 0.88544 0.0
Li971 Li 0.46693 0.61151 0.90601 0.0
C972 C 0.55369 0.64243 0.91403 0.0
N973 N 0.59805 0.67141 0.92768 0.0
C974 C 0.55873 0.6443 0.93408 0.0
C975 C 0.57126 0.65517 0.90089 0.0
C976 C 0.58124 0.6591 0.9407 0.0
C977 C 0.59359 0.66975 0.90809 0.0
C978 C 0.47835 0.60711 0.95039 0.0
C979 C 0.45773 0.57852 0.97182 0.0
N980 N 0.47184 0.58924 0.98702 0.0
C981 C 0.49251 0.61792 0.96625 0.0
C982 C 0.46066 0.58732 0.95321 0.0
C983 C 0.48899 0.60859 0.98465 0.0
C984 C 0.49541 0.66559 0.94228 0.0
N985 N 0.51375 0.66453 0.93001 0.0
C986 C 0.53265 0.70116 0.92913 0.0
C987 C 0.53272 0.6818 0.92391 0.0
C988 C 0.51251 0.70271 0.94026 0.0
C989 C 0.49442 0.68456 0.94763 0.0
H990 H 0.48001 0.6517 0.94632 0.0
H991 H 0.54653 0.68072 0.91354 0.0
C992 C 0.50546 0.56447 0.92014 0.0
N993 N 0.51136 0.58258 0.92988 0.0
C994 C 0.50731 0.54726 0.92944 0.0
C995 C 0.52252 0.56789 0.95837 0.0
C996 C 0.52077 0.58479 0.94837 0.0
C997 C 0.51509 0.54862 0.94908 0.0
H998 H 0.49863 0.56321 0.90527 0.0
H999 H 0.52593 0.59943 0.95568 0.0
C1000 C 0.4835 0.65712 0.89195 0.0
N1001 N 0.48168 0.69617 0.89039 0.0
C1002 C 0.46355 0.6612 0.90079 0.0
C1003 C 0.5024 0.67283 0.88215 0.0
C1004 C 0.46302 0.68107 0.8999 0.0
C1005 C 0.50115 0.69249 0.88156 0.0
C1006 C 0.46488 0.57914 0.88373 0.0
C1007 C 0.46173 0.5789 0.86345 0.0
C1008 C 0.44829 0.56338 0.89509 0.0
C1009 C 0.44174 0.56301 0.85489 0.0
C1010 C 0.42853 0.54778 0.88598 0.0
N1011 N 0.42568 0.54792 0.86624 0.0
C1012 C 0.53944 0.6245 0.85312 0.0
C1013 C 0.504 0.63413 0.84688 0.0
C1014 C 0.54676 0.6277 0.83348 0.0
N1015 N 0.51839 0.62777 0.85933 0.0
C1016 C 0.5106 0.63754 0.82724 0.0
C1017 C 0.53223 0.63435 0.82027 0.0
H1018 H 0.55046 0.61935 0.86339 0.0
H1019 H 0.48716 0.63631 0.85222 0.0
C1020 C 0.41912 0.60489 0.92188 0.0
N1021 N 0.4312 0.60382 0.90499 0.0
C1022 C 0.39343 0.60199 0.92173 0.0
C1023 C 0.3929 0.59644 0.88683 0.0
C1024 C 0.41871 0.59971 0.88763 0.0
C1025 C 0.37997 0.59795 0.90399 0.0
H1026 H 0.42967 0.60887 0.93538 0.0
H1027 H 0.42891 0.59961 0.87431 0.0
O1028 O 0.53183 0.62801 0.90725 0.0
O1029 O 0.48156 0.61596 0.93226 0.0
O1030 O 0.48469 0.6379 0.89307 0.0
O1031 O 0.48428 0.5946 0.89239 0.0
H1032 H 0.54529 0.63457 0.94441 0.0
H1033 H 0.56763 0.65389 0.88532 0.0
H1034 H 0.58533 0.66081 0.95619 0.0
H1035 H 0.60733 0.67977 0.89811 0.0
H1036 H 0.4442 0.56317 0.97419 0.0
H1037 H 0.50628 0.63325 0.96435 0.0
H1038 H 0.44933 0.57885 0.94116 0.0
H1039 H 0.49993 0.61672 0.99703 0.0
H1040 H 0.5472 0.7147 0.9233 0.0
H1041 H 0.47823 0.68478 0.95591 0.0
H1042 H 0.50214 0.53295 0.92144 0.0
H1043 H 0.52854 0.56977 0.9735 0.0
H1044 H 0.44882 0.64921 0.90847 0.0
H1045 H 0.51805 0.66993 0.87534 0.0
H1046 H 0.44782 0.68451 0.90683 0.0
H1047 H 0.51576 0.70485 0.87418 0.0
H1048 H 0.4745 0.59088 0.85443 0.0
H1049 H 0.45064 0.56322 0.91076 0.0
H1050 H 0.439 0.56268 0.83922 0.0
H1051 H 0.41548 0.53553 0.8946 0.0
H1052 H 0.56362 0.62513 0.82872 0.0
H1053 H 0.49853 0.64221 0.81753 0.0
H1054 H 0.38455 0.60382 0.93526 0.0
H1055 H 0.38335 0.59318 0.87283 0.0
H1056 H 0.64078 0.09229 0.29931 0.0
H1057 H 0.55556 0.0966 0.20722 0.0
H1058 H 0.56723 0.09748 0.30379 0.0
H1059 H 0.63135 0.09608 0.20243 0.0
H1060 H 0.55775 0.09317 0.24265 0.0
H1061 H 0.63591 0.08988 0.26377 0.0
C1062 C 0.62357 0.09283 0.29283 0.0
C1063 C 0.60446 0.09521 0.30456 0.0
C1064 C 0.57385 0.09368 0.23384 0.0
C1065 C 0.5987 0.09237 0.26392 0.0
C1066 C 0.57265 0.09574 0.21362 0.0
C1067 C 0.59338 0.09681 0.20185 0.0
C1068 C 0.59597 0.09275 0.24239 0.0
C1069 C 0.61485 0.09518 0.21091 0.0
C1070 C 0.62075 0.09137 0.27255 0.0
C1071 C 0.58237 0.09546 0.29539 0.0
N1072 N 0.61566 0.09338 0.23065 0.0
N1073 N 0.58019 0.09421 0.27562 0.0
H1074 H 0.52949 0.66681 0.69966 0.0
H1075 H 0.54922 0.61043 0.79623 0.0
H1076 H 0.55845 0.61728 0.69882 0.0
H1077 H 0.53027 0.66516 0.79624 0.0
H1078 H 0.55562 0.61388 0.76083 0.0
H1079 H 0.53256 0.66773 0.7351 0.0
C1080 C 0.53692 0.65633 0.70685 0.0
C1081 C 0.54364 0.64189 0.69611 0.0
C1082 C 0.55029 0.62524 0.76862 0.0
C1083 C 0.54657 0.64253 0.73701 0.0
C1084 C 0.54676 0.62334 0.78885 0.0
C1085 C 0.53887 0.63738 0.7992 0.0
C1086 C 0.54582 0.64125 0.75867 0.0
C1087 C 0.53579 0.65371 0.78881 0.0
C1088 C 0.53848 0.65677 0.72719 0.0
C1089 C 0.55261 0.62844 0.70645 0.0
N1090 N 0.53905 0.65508 0.76914 0.0
N1091 N 0.55361 0.62897 0.72632 0.0
H1092 H 0.93271 0.33754 0.19733 0.0
H1093 H 0.93017 0.40125 0.29264 0.0
H1094 H 0.93942 0.40115 0.1958 0.0
H1095 H 0.94396 0.34419 0.2943 0.0
H1096 H 0.93537 0.40216 0.25727 0.0
H1097 H 0.93839 0.34001 0.23283 0.0
C1098 C 0.93567 0.35208 0.20448 0.0
C1099 C 0.93544 0.36913 0.19369 0.0
C1100 C 0.93755 0.38956 0.2654 0.0
C1101 C 0.94169 0.37204 0.23423 0.0
C1102 C 0.93472 0.38907 0.28566 0.0
C1103 C 0.9364 0.37251 0.29655 0.0
C1104 C 0.94179 0.37326 0.25586 0.0
C1105 C 0.9419 0.35702 0.28651 0.0
C1106 C 0.93899 0.35351 0.22471 0.0
C1107 C 0.93958 0.38767 0.20359 0.0
N1108 N 0.94411 0.35765 0.26673 0.0
N1109 N 0.94219 0.38856 0.22336 0.0
H1110 H 0.35339 0.84094 0.79195 0.0
H1111 H 0.41747 0.89817 0.69437 0.0
H1112 H 0.40114 0.90511 0.79022 0.0
H1113 H 0.35129 0.84254 0.69401 0.0
H1114 H 0.41425 0.89964 0.72982 0.0
H1115 H 0.35452 0.83997 0.75629 0.0
C1116 C 0.36389 0.85489 0.78412 0.0
C1117 C 0.37724 0.87314 0.79419 0.0
C1118 C 0.40039 0.88715 0.72196 0.0
C1119 C 0.37905 0.87195 0.75336 0.0
C1120 C 0.40213 0.88634 0.70168 0.0
C1121 C 0.38455 0.87025 0.69109 0.0
C1122 C 0.38112 0.87165 0.73182 0.0
C1123 C 0.36549 0.85508 0.70153 0.0
C1124 C 0.36464 0.85427 0.76375 0.0
C1125 C 0.39093 0.8906 0.78317 0.0
N1126 N 0.36432 0.85613 0.72132 0.0
N1127 N 0.39159 0.88954 0.76337 0.0
H1128 H 0.42686 0.36679 0.30119 0.0
H1129 H 0.50312 0.40161 0.201 0.0
H1130 H 0.50797 0.38681 0.29538 0.0
H1131 H 0.42184 0.3719 0.20274 0.0
H1132 H 0.50416 0.40112 0.23642 0.0
H1133 H 0.42373 0.37274 0.26597 0.0
C1134 C 0.44397 0.37255 0.29252 0.0
C1135 C 0.46768 0.37606 0.30109 0.0
C1136 C 0.48603 0.39485 0.22912 0.0
C1137 C 0.46431 0.383 0.2611 0.0
C1138 C 0.48537 0.39535 0.20882 0.0
C1139 C 0.46232 0.38684 0.19878 0.0
C1140 C 0.46352 0.38563 0.23964 0.0
C1141 C 0.44006 0.37844 0.20985 0.0
C1142 C 0.44218 0.37587 0.27248 0.0
C1143 C 0.48929 0.38352 0.28927 0.0
N1144 N 0.44121 0.37794 0.22972 0.0
N1145 N 0.48706 0.38669 0.26992 0.0
H1146 H 0.06038 0.59266 0.69747 0.0
H1147 H 0.05052 0.64626 0.7988 0.0
H1148 H 0.06065 0.65454 0.70098 0.0
H1149 H 0.08177 0.59831 0.79304 0.0
H1150 H 0.04424 0.64537 0.76338 0.0
H1151 H 0.05722 0.59014 0.73313 0.0
C1152 C 0.05923 0.60555 0.70574 0.0
C1153 C 0.06089 0.62387 0.69633 0.0
C1154 C 0.05225 0.63495 0.76999 0.0
C1155 C 0.05751 0.62115 0.73702 0.0
C1156 C 0.05603 0.63552 0.79019 0.0
C1157 C 0.06693 0.62246 0.79906 0.0
C1158 C 0.05908 0.62104 0.75858 0.0
C1159 C 0.073 0.60849 0.78707 0.0
C1160 C 0.05765 0.60417 0.72606 0.0
C1161 C 0.05966 0.64022 0.70774 0.0
N1162 N 0.06905 0.6082 0.76748 0.0
N1163 N 0.05814 0.63852 0.72754 0.0
H1164 H 0.52209 0.0108 0.05116 0.0
H1165 H 0.50367 0.96697 0.94212 0.0
H1166 H 0.57788 0.03396 0.00563 0.0
H1167 H 0.44698 0.94619 0.98732 0.0
H1168 H 0.53313 0.98899 0.96605 0.0
H1169 H 0.49683 0.98376 0.0291 0.0
C1170 C 0.52929 0.00992 0.03665 0.0
C1171 C 0.55198 0.02474 0.03013 0.0
C1172 C 0.51426 0.97958 0.97073 0.0
C1173 C 0.52288 0.9942 0.00465 0.0
C1174 C 0.49747 0.96704 0.9571 0.0
C1175 C 0.47279 0.95499 0.96272 0.0
C1176 C 0.50629 0.98 0.99012 0.0
C1177 C 0.46567 0.95563 0.98228 0.0
C1178 C 0.51473 0.99461 0.02399 0.0
C1179 C 0.56025 0.02302 0.0111 0.0
N1180 N 0.48233 0.96798 0.99527 0.0
N1181 N 0.54556 0.00815 -0.00106 0.0
H1182 H 0.55135 0.55402 0.52149 0.0
H1183 H 0.45838 0.44605 0.48013 0.0
H1184 H 0.47421 0.52451 0.54086 0.0
H1185 H 0.53863 0.47067 0.4684 0.0
H1186 H 0.46355 0.47501 0.50199 0.0
H1187 H 0.54681 0.52401 0.50118 0.0
C1188 C 0.53349 0.54121 0.52148 0.0
C1189 C 0.51315 0.54174 0.53289 0.0
C1190 C 0.48003 0.47404 0.49464 0.0
C1191 C 0.50779 0.5074 0.50972 0.0
C1192 C 0.4771 0.45747 0.48221 0.0
C1193 C 0.49806 0.45598 0.47228 0.0
C1194 C 0.50407 0.48928 0.49711 0.0
C1195 C 0.52183 0.47138 0.4754 0.0
C1196 C 0.53093 0.52406 0.50997 0.0
C1197 C 0.49049 0.52464 0.53248 0.0
N1198 N 0.52416 0.48741 0.48748 0.0
N1199 N 0.48837 0.50822 0.52101 0.0
H1200 H 0.03462 0.52257 0.94969 0.0
H1201 H 0.93396 0.47345 0.03373 0.0
H1202 H 0.00223 0.55883 0.98411 0.0
H1203 H 0.99025 0.4483 0.01611 0.0
H1204 H 0.95403 0.50298 0.01247 0.0
H1205 H 0.0128 0.4928 0.97029 0.0
C1206 C 0.02263 0.52416 0.96145 0.0
C1207 C 0.02013 0.54311 0.96524 0.0
C1208 C 0.96193 0.49097 0.01333 0.0
C1209 C 0.99534 0.50926 0.98886 0.0
C1210 C 0.95063 0.47415 0.02556 0.0
C1211 C 0.96042 0.45829 0.02681 0.0
C1212 C 0.98293 0.49179 0.00205 0.0
C1213 C 0.98171 0.45991 0.01543 0.0
C1214 C 0.0104 0.50725 0.97328 0.0
C1215 C 0.0047 0.54447 0.98082 0.0
N1216 N 0.99217 0.47631 0.00347 0.0
N1217 N 0.99278 0.52771 0.99207 0.0
H1218 H 0.49558 0.03417 0.44996 0.0
H1219 H 0.44044 0.99465 0.55575 0.0
H1220 H 0.53556 0.05732 0.50384 0.0
H1221 H 0.42291 0.95635 0.50409 0.0
H1222 H 0.46651 0.02346 0.53564 0.0
H1223 H 0.46051 0.01081 0.46897 0.0
C1224 C 0.49707 0.03435 0.46574 0.0
C1225 C 0.51881 0.04751 0.47528 0.0
C1226 C 0.4565 0.00879 0.52876 0.0
C1227 C 0.47838 0.02139 0.497 0.0
C1228 C 0.44171 0.99232 0.54019 0.0
C1229 C 0.42991 0.97284 0.53173 0.0
C1230 C 0.45917 0.0058 0.50873 0.0
C1231 C 0.43156 0.97099 0.51136 0.0
C1232 C 0.47691 0.0212 0.47655 0.0
C1233 C 0.5192 0.04755 0.49582 0.0
N1234 N 0.44622 0.9872 0.50059 0.0
N1235 N 0.49933 0.03459 0.506 0.0
H1236 H 0.54688 0.54491 0.9782 0.0
H1237 H 0.4729 0.42491 0.99588 0.0
H1238 H 0.4803 0.50942 0.9454 0.0
H1239 H 0.51867 0.46562 0.04 0.0
H1240 H 0.48076 0.45451 0.974 0.0
H1241 H 0.542 0.51453 -0.00203 0.0
C1242 C 0.53127 0.53079 0.97509 0.0
C1243 C 0.51389 0.52988 0.96013 0.0
C1244 C 0.48907 0.45691 0.98848 0.0
C1245 C 0.50855 0.49494 0.98251 0.0
C1246 C 0.48466 0.44007 0.0009 0.0
C1247 C 0.49494 0.44293 0.01979 0.0
C1248 C 0.50422 0.47662 0.99493 0.0
C1249 C 0.51007 0.46285 0.02564 0.0
C1250 C 0.52858 0.51344 0.98635 0.0
C1251 C 0.4944 0.51091 0.95655 0.0
N1252 N 0.5143 0.47895 0.01323 0.0
N1253 N 0.49224 0.49423 0.96768 0.0
H1254 H 0.97097 0.46937 0.44877 0.0
H1255 H 0.04486 0.51185 0.54845 0.0
H1256 H 0.98883 0.43041 0.49082 0.0
H1257 H 0.01368 0.54693 0.51125 0.0
H1258 H 0.02663 0.48222 0.5269 0.0
H1259 H 0.98994 0.49869 0.47039 0.0
C1260 C 0.9792 0.46705 0.46246 0.0
C1261 C 0.9784 0.44745 0.468 0.0
C1262 C 0.02374 0.4964 0.52351 0.0
C1263 C -0.00026 0.48088 0.49299 0.0
C1264 C 0.03396 0.51327 0.53588 0.0
C1265 C 0.03085 0.53194 0.53164 0.0
C1266 C 0.01042 0.49824 0.50673 0.0
C1267 C 0.01692 0.53297 0.51494 0.0
C1268 C 0.98979 0.48375 0.47489 0.0
C1269 C 0.9889 0.44525 0.48608 0.0
N1270 N 0.00731 0.51639 0.50308 0.0
N1271 N -0.00084 0.46179 0.49795 0.0
H1272 H 0.48244 0.16205 0.09413 0.0
H1273 H 0.46865 0.2607 0.04408 0.0
H1274 H 0.52505 0.19288 0.0437 0.0
H1275 H 0.4398 0.23782 0.10113 0.0
H1276 H 0.47846 0.2296 0.0385 0.0
H1277 H 0.45651 0.1834 0.09155 0.0
C1278 C 0.48603 0.17302 0.08226 0.0
C1279 C 0.50624 0.17594 0.0693 0.0
C1280 C 0.46935 0.23113 0.05203 0.0
C1281 C 0.47678 0.20057 0.06641 0.0
C1282 C 0.4635 0.24873 0.05511 0.0
C1283 C 0.4536 0.25177 0.07313 0.0
C1284 C 0.46524 0.21657 0.0671 0.0
C1285 C 0.44759 0.23601 0.08709 0.0
C1286 C 0.47128 0.18528 0.08086 0.0
C1287 C 0.51005 0.19047 0.05428 0.0
N1288 N 0.45386 0.21921 0.0839 0.0
N1289 N 0.49567 0.20243 0.05338 0.0
H1290 H 0.35177 0.60272 0.56551 0.0
H1291 H 0.2494 0.63456 0.62469 0.0
H1292 H 0.36757 0.63557 0.62036 0.0
H1293 H 0.23774 0.61058 0.56587 0.0
H1294 H 0.29163 0.63252 0.6245 0.0
H1295 H 0.30887 0.60322 0.5664 0.0
C1296 C 0.34627 0.61008 0.57773 0.0
C1297 C 0.3634 0.61916 0.59287 0.0
C1298 C 0.27983 0.6277 0.61164 0.0
C1299 C 0.31414 0.61956 0.59408 0.0
C1300 C 0.25567 0.62875 0.61178 0.0
C1301 C 0.24005 0.62278 0.59525 0.0
C1302 C 0.2884 0.62051 0.59489 0.0
C1303 C 0.24928 0.61561 0.57883 0.0
C1304 C 0.32172 0.61028 0.57826 0.0
C1305 C 0.35498 0.62813 0.60849 0.0
N1306 N 0.27283 0.61465 0.57908 0.0
N1307 N 0.33098 0.62813 0.60867 0.0
H1308 H 0.8393 0.25828 0.0216 0.0
H1309 H 0.75256 0.16787 0.08956 0.0
H1310 H 0.85489 0.24985 0.08218 0.0
H1311 H 0.72756 0.18833 0.03648 0.0
H1312 H 0.79591 0.19029 0.08218 0.0
H1313 H 0.80484 0.22485 0.0222 0.0
C1314 C 0.83592 0.24922 0.03488 0.0
C1315 C 0.84959 0.2572 0.05202 0.0
C1316 C 0.78096 0.18956 0.072 0.0
C1317 C 0.81037 0.21899 0.05273 0.0
C1318 C 0.75619 0.17691 0.07626 0.0
C1319 C 0.73626 0.17662 0.06389 0.0
C1320 C 0.78585 0.20197 0.05523 0.0
C1321 C 0.74224 0.1881 0.04652 0.0
C1322 C 0.81627 0.23015 0.03519 0.0
C1323 C 0.84485 0.24449 0.06862 0.0
N1324 N 0.76645 0.20056 0.04286 0.0
N1325 N 0.82529 0.2262 0.06867 0.0
H1326 H 0.50224 0.82191 0.58511 0.0
H1327 H 0.52751 0.73758 0.5201 0.0
H1328 H 0.48595 0.8152 0.52322 0.0
H1329 H 0.54934 0.74932 0.58067 0.0
H1330 H 0.51926 0.76971 0.51911 0.0
H1331 H 0.5265 0.79966 0.58197 0.0
C1332 C 0.50414 0.81616 0.57073 0.0
C1333 C 0.49164 0.82037 0.55444 0.0
C1334 C 0.52638 0.76547 0.53249 0.0
C1335 C 0.51897 0.79406 0.5509 0.0
C1336 C 0.53107 0.74712 0.53307 0.0
C1337 C 0.53868 0.74053 0.5506 0.0
C1338 C 0.52912 0.7772 0.5496 0.0
C1339 C 0.54348 0.75369 0.56683 0.0
C1340 C 0.51793 0.80324 0.56898 0.0
C1341 C 0.49463 0.812 0.53631 0.0
N1342 N 0.53817 0.77119 0.56603 0.0
N1343 N 0.50765 0.799 0.53509 0.0
H1344 H 0.63541 0.37018 0.13407 0.0
H1345 H 0.75879 0.3875 0.07012 0.0
H1346 H 0.63775 0.37959 0.07153 0.0
H1347 H 0.74431 0.35296 0.1241 0.0
H1348 H 0.71692 0.38981 0.07234 0.0
H1349 H 0.67794 0.36887 0.13256 0.0
C1350 C 0.64474 0.37194 0.12002 0.0
C1351 C 0.63276 0.37498 0.10289 0.0
C1352 C 0.72297 0.38173 0.08368 0.0
C1353 C 0.68173 0.37394 0.10123 0.0
C1354 C 0.74683 0.38026 0.08238 0.0
C1355 C 0.75519 0.36983 0.09685 0.0
C1356 C 0.70737 0.373 0.0997 0.0
C1357 C 0.73895 0.36136 0.11269 0.0
C1358 C 0.66908 0.37127 0.11922 0.0
C1359 C 0.64621 0.3776 0.0852 0.0
N1360 N 0.71584 0.36315 0.1137 0.0
N1361 N 0.66995 0.37707 0.08484 0.0
H1362 H 0.14896 0.72223 0.51104 0.0
H1363 H 0.26872 0.79427 0.51478 0.0
H1364 H 0.14544 0.7404 0.57098 0.0
H1365 H 0.24404 0.819 0.56537 0.0
H1366 H 0.2255 0.77079 0.50976 0.0
H1367 H 0.18392 0.75462 0.50531 0.0
C1368 C 0.15528 0.73319 0.5229 0.0
C1369 C 0.14471 0.72833 0.54165 0.0
C1370 C 0.2292 0.78178 0.52156 0.0
C1371 C 0.18525 0.76504 0.53545 0.0
C1372 C 0.25407 0.79503 0.5246 0.0
C1373 C 0.26011 0.80839 0.5407 0.0
C1374 C 0.21023 0.78186 0.53481 0.0
C1375 C 0.24032 0.80899 0.55276 0.0
C1376 C 0.17545 0.7516 0.51969 0.0
C1377 C 0.15308 0.74333 0.55632 0.0
N1378 N 0.21639 0.79564 0.54977 0.0
N1379 N 0.17317 0.76082 0.55299 0.0
H1380 H 0.74552 0.34417 0.38488 0.0
H1381 H 0.65701 0.40508 0.41946 0.0
H1382 H 0.77406 0.40351 0.41296 0.0
H1383 H 0.63113 0.35149 0.38236 0.0
H1384 H 0.69982 0.40425 0.41813 0.0
H1385 H 0.70316 0.34596 0.38477 0.0
C1386 C 0.74285 0.35755 0.39107 0.0
C1387 C 0.76333 0.37369 0.39899 0.0
C1388 C 0.6848 0.39274 0.41019 0.0
C1389 C 0.71494 0.3759 0.39884 0.0
C1390 C 0.66036 0.39315 0.41102 0.0
C1391 C 0.64048 0.37832 0.40102 0.0
C1392 C 0.68939 0.37726 0.39943 0.0
C1393 C 0.64594 0.36334 0.39013 0.0
C1394 C 0.7187 0.35863 0.39089 0.0
C1395 C 0.75885 0.3908 0.40656 0.0
N1396 N 0.66984 0.36312 0.38972 0.0
N1397 N 0.73512 0.3914 0.40639 0.0
H1398 H 0.23316 0.83031 0.90744 0.0
H1399 H 0.16216 0.73667 0.96999 0.0
H1400 H 0.24536 0.83024 0.96983 0.0
H1401 H 0.13248 0.74846 0.91513 0.0
H1402 H 0.1875 0.77325 0.97278 0.0
H1403 H 0.19169 0.80421 0.91176 0.0
C1404 C 0.22698 0.82534 0.92217 0.0
C1405 C 0.24339 0.83217 0.93822 0.0
C1406 C 0.17486 0.76802 0.96042 0.0
C1407 C 0.19584 0.80143 0.94312 0.0
C1408 C 0.16043 0.74715 0.95886 0.0
C1409 C 0.1456 0.73965 0.94219 0.0
C1410 C 0.17498 0.78127 0.9449 0.0
C1411 C 0.14384 0.75372 0.92815 0.0
C1412 C 0.20315 0.81022 0.9246 0.0
C1413 C 0.23393 0.82484 0.95688 0.0
N1414 N 0.15894 0.77383 0.92955 0.0
N1415 N 0.21109 0.80945 0.95875 0.0
H1416 H 0.5491 0.20105 0.45588 0.0
H1417 H 0.46582 0.25528 0.40326 0.0
H1418 H 0.5212 0.18645 0.39689 0.0
H1419 H 0.47982 0.25923 0.46548 0.0
H1420 H 0.4815 0.22712 0.40143 0.0
H1421 H 0.52074 0.21998 0.4604 0.0
C1422 C 0.53682 0.2016 0.44393 0.0
C1423 C 0.5378 0.1923 0.42589 0.0
C1424 C 0.48071 0.23387 0.41556 0.0
C1425 C 0.50544 0.21427 0.43091 0.0
C1426 C 0.47149 0.24989 0.41668 0.0
C1427 C 0.47199 0.26003 0.43452 0.0
C1428 C 0.49075 0.22805 0.43235 0.0
C1429 C 0.47976 0.25229 0.45132 0.0
C1430 C 0.52062 0.21246 0.44652 0.0
C1431 C 0.52159 0.1938 0.41089 0.0
N1432 N 0.48931 0.23705 0.44976 0.0
N1433 N 0.50628 0.20476 0.41367 0.0
H1434 H 0.23901 0.61199 0.87214 0.0
H1435 H 0.34227 0.58157 0.93129 0.0
H1436 H 0.23418 0.60012 0.93428 0.0
H1437 H 0.35649 0.61201 0.87514 0.0
H1438 H 0.2997 0.58287 0.93097 0.0
H1439 H 0.27927 0.60661 0.87143 0.0
C1440 C 0.2464 0.60831 0.88566 0.0
C1441 C 0.23323 0.60676 0.90335 0.0
C1442 C 0.31214 0.58913 0.91869 0.0
C1443 C 0.27919 0.60017 0.90251 0.0
C1444 C 0.33651 0.58849 0.91887 0.0
C1445 C 0.35321 0.59681 0.90327 0.0
C1446 C 0.30428 0.598 0.90272 0.0
C1447 C 0.34433 0.60514 0.88739 0.0
C1448 C 0.26934 0.60512 0.8852 0.0
C1449 C 0.2435 0.60135 0.92028 0.0
N1450 N 0.32054 0.60556 0.88756 0.0
N1451 N 0.2659 0.59832 0.91945 0.0
H1452 H 0.74813 0.17632 0.47579 0.0
H1453 H 0.86735 0.24185 0.41512 0.0
H1454 H 0.76694 0.15965 0.4188 0.0
H1455 H 0.84207 0.26087 0.46862 0.0
H1456 H 0.84052 0.20619 0.4222 0.0
H1457 H 0.79148 0.20056 0.47934 0.0
C1458 C 0.76169 0.17736 0.46428 0.0
C1459 C 0.75396 0.16643 0.4468 0.0
C1460 C 0.84145 0.21806 0.43271 0.0
C1461 C 0.80321 0.19449 0.45043 0.0
C1462 C 0.85685 0.23836 0.42871 0.0
C1463 C 0.85639 0.25418 0.44115 0.0
C1464 C 0.82551 0.21379 0.44917 0.0
C1465 C 0.84251 0.24901 0.45854 0.0
C1466 C 0.78639 0.19122 0.46626 0.0
C1467 C 0.77219 0.16804 0.43241 0.0
N1468 N 0.82722 0.22929 0.46186 0.0
N1469 N 0.79587 0.1823 0.4343 0.0
H1470 H 0.5223 0.73293 0.9124 0.0
H1471 H 0.42467 0.77834 0.95573 0.0
H1472 H 0.49107 0.71722 0.9704 0.0
H1473 H 0.47818 0.8095 0.91086 0.0
H1474 H 0.44827 0.75541 0.96126 0.0
H1475 H 0.50713 0.7614 0.9118 0.0
C1476 C 0.51286 0.7357 0.92526 0.0
C1477 C 0.5078 0.72238 0.94143 0.0
C1478 C 0.45501 0.76743 0.95037 0.0
C1479 C 0.48947 0.7547 0.94042 0.0
C1480 C 0.44144 0.78037 0.94711 0.0
C1481 C 0.44944 0.79571 0.93275 0.0
C1482 C 0.47643 0.76964 0.93894 0.0
C1483 C 0.47145 0.79789 0.92212 0.0
C1484 C 0.50395 0.75192 0.92479 0.0
C1485 C 0.4949 0.72671 0.95741 0.0
N1486 N 0.48401 0.78483 0.92526 0.0
N1487 N 0.4858 0.74227 0.95637 0.0
loop_
_geom_bond_atom_site_label_1
_geom_bond_atom_site_label_2
_geom_bond_distance
_geom_bond_site_symmetry_2
_ccdc_geom_bond_type
Li0 N17 1.990 . S
Li0 O60 1.956 . S
Li0 O61 1.970 . S
Li0 O62 1.961 . S
Li1 N25 1.990 . S
Li1 O60 1.970 . S
Li1 O61 1.956 . S
Li1 O63 1.961 . S
Li2 N47 1.990 . S
Li2 O60 1.961 . S
Li2 O62 1.956 . S
Li2 O63 1.970 . S
Li3 N53 1.990 . S
Li3 O61 1.961 . S
Li3 O62 1.970 . S
Li3 O63 1.956 . S
C4 C6 1.348 . S
C4 C7 1.356 . S
C4 O60 1.325 . S
N5 C8 1.314 . S
N5 C9 1.279 . S
C6 C4 1.348 . S
C6 C8 1.353 . S
C6 H64 0.929 . S
C7 C4 1.356 . S
C7 C9 1.358 . S
C7 H65 0.930 . S
C8 N5 1.314 . S
C8 C6 1.353 . S
C8 H66 0.930 . S
C9 N5 1.279 . S
C9 C7 1.358 . S
C9 H67 0.930 . S
C10 C13 1.348 . S
C10 C14 1.356 . S
C10 O61 1.325 . S
C11 N12 1.279 . S
C11 C14 1.358 . S
C11 H68 0.930 . S
N12 C11 1.279 . S
N12 C15 1.314 . S
C13 C10 1.348 . S
C13 C15 1.353 . S
C13 H69 0.929 . S
C14 C10 1.356 . S
C14 C11 1.358 . S
C14 H70 0.930 . S
C15 N12 1.314 . S
C15 C13 1.353 . S
C15 H71 0.930 . S
C16 N17 1.314 . S
C16 C21 1.353 . S
C16 H22 0.930 . S
N17 Li0 1.990 . S
N17 C16 1.314 . S
N17 C19 1.279 . S
C18 C19 1.358 . S
C18 C20 1.356 . S
C18 H72 0.930 . S
C19 N17 1.279 . S
C19 C18 1.358 . S
C19 H23 0.930 . S
C20 C18 1.356 . S
C20 C21 1.348 . S
C21 C16 1.353 . S
C21 C20 1.348 . S
C21 H73 0.929 . S
H22 C16 0.930 . S
H23 C19 0.930 . S
C24 N25 1.314 . S
C24 C26 1.353 . S
C24 H30 0.930 . S
N25 Li1 1.990 . S
N25 C24 1.314 . S
N25 C28 1.279 . S
C26 C24 1.353 . S
C26 C29 1.348 . S
C26 H74 0.929 . S
C27 C28 1.358 . S
C27 C29 1.356 . S
C27 H75 0.930 . S
C28 N25 1.279 . S
C28 C27 1.358 . S
C28 H31 0.930 . S
C29 C26 1.348 . S
C29 C27 1.356 . S
H30 C24 0.930 . S
H31 C28 0.930 . S
C32 C34 1.348 . S
C32 C35 1.356 . S
C32 O62 1.325 . S
N33 C36 1.314 . S
N33 C37 1.279 . S
C34 C32 1.348 . S
C34 C36 1.353 . S
C34 H76 0.929 . S
C35 C32 1.356 . S
C35 C37 1.358 . S
C35 H77 0.930 . S
C36 N33 1.314 . S
C36 C34 1.353 . S
C36 H78 0.930 . S
C37 N33 1.279 . S
C37 C35 1.358 . S
C37 H79 0.930 . S
C38 C39 1.348 . S
C38 C40 1.356 . S
C38 O63 1.325 . S
C39 C38 1.348 . S
C39 C41 1.353 . S
C39 H80 0.929 . S
C40 C38 1.356 . S
C40 C42 1.358 . S
C40 H81 0.930 . S
C41 C39 1.353 . S
C41 N43 1.314 . S
C41 H82 0.930 . S
C42 C40 1.358 . S
C42 N43 1.279 . S
C42 H83 0.930 . S
N43 C41 1.314 . S
N43 C42 1.279 . S
C44 C46 1.353 . S
C44 N47 1.314 . S
C44 H50 0.930 . S
C45 N47 1.279 . S
C45 C48 1.358 . S
C45 H51 0.930 . S
C46 C44 1.353 . S
C46 C49 1.348 . S
C46 H84 0.929 . S
N47 Li2 1.990 . S
N47 C44 1.314 . S
N47 C45 1.279 . S
C48 C45 1.358 . S
C48 C49 1.356 . S
C48 H85 0.930 . S
C49 C46 1.348 . S
C49 C48 1.356 . S
H50 C44 0.930 . S
H51 C45 0.930 . S
C52 N53 1.314 . S
C52 C54 1.353 . S
C52 H58 0.930 . S
N53 Li3 1.990 . S
N53 C52 1.314 . S
N53 C56 1.279 . S
C54 C52 1.353 . S
C54 C57 1.348 . S
C54 H86 0.929 . S
C55 C56 1.358 . S
C55 C57 1.356 . S
C55 H87 0.930 . S
C56 N53 1.279 . S
C56 C55 1.358 . S
C56 H59 0.930 . S
C57 C54 1.348 . S
C57 C55 1.356 . S
H58 C52 0.930 . S
H59 C56 0.930 . S
O60 Li0 1.956 . S
O60 Li1 1.970 . S
O60 Li2 1.961 . S
O60 C4 1.325 . S
O61 Li0 1.970 . S
O61 Li1 1.956 . S
O61 Li3 1.961 . S
O61 C10 1.325 . S
O62 Li0 1.961 . S
O62 Li2 1.956 . S
O62 Li3 1.970 . S
O62 C32 1.325 . S
O63 Li1 1.961 . S
O63 Li2 1.970 . S
O63 Li3 1.956 . S
O63 C38 1.325 . S
H64 C6 0.929 . S
H65 C7 0.930 . S
H66 C8 0.930 . S
H67 C9 0.930 . S
H68 C11 0.930 . S
H69 C13 0.929 . S
H70 C14 0.930 . S
H71 C15 0.930 . S
H72 C18 0.930 . S
H73 C21 0.929 . S
H74 C26 0.929 . S
H75 C27 0.930 . S
H76 C34 0.929 . S
H77 C35 0.930 . S
H78 C36 0.930 . S
H79 C37 0.930 . S
H80 C39 0.929 . S
H81 C40 0.930 . S
H82 C41 0.930 . S
H83 C42 0.930 . S
H84 C46 0.929 . S
H85 C48 0.930 . S
H86 C54 0.929 . S
H87 C55 0.930 . S
Li88 N105 1.990 . S
Li88 O148 1.956 . S
Li88 O149 1.970 . S
Li88 O150 1.961 . S
Li89 N113 1.990 . S
Li89 O148 1.970 . S
Li89 O149 1.956 . S
Li89 O151 1.961 . S
Li90 N135 1.990 . S
Li90 O148 1.961 . S
Li90 O150 1.956 . S
Li90 O151 1.970 . S
Li91 N141 1.990 . S
Li91 O149 1.961 . S
Li91 O150 1.970 . S
Li91 O151 1.956 . S
C92 C94 1.348 . S
C92 C95 1.356 . S
C92 O148 1.325 . S
N93 C96 1.314 . S
N93 C97 1.279 . S
C94 C92 1.348 . S
C94 C96 1.353 . S
C94 H152 0.929 . S
C95 C92 1.356 . S
C95 C97 1.358 . S
C95 H153 0.930 . S
C96 N93 1.314 . S
C96 C94 1.353 . S
C96 H154 0.930 . S
C97 N93 1.279 . S
C97 C95 1.358 . S
C97 H155 0.930 . S
C98 C101 1.348 . S
C98 C102 1.356 . S
C98 O149 1.325 . S
C99 N100 1.279 . S
C99 C102 1.358 . S
C99 H156 0.930 . S
N100 C99 1.279 . S
N100 C103 1.314 . S
C101 C98 1.348 . S
C101 C103 1.353 . S
C101 H157 0.929 . S
C102 C98 1.356 . S
C102 C99 1.358 . S
C102 H158 0.930 . S
C103 N100 1.314 . S
C103 C101 1.353 . S
C103 H159 0.930 . S
C104 N105 1.314 . S
C104 C109 1.353 . S
C104 H110 0.930 . S
N105 Li88 1.990 . S
N105 C104 1.314 . S
N105 C107 1.279 . S
C106 C107 1.358 . S
C106 C108 1.356 . S
C106 H160 0.930 . S
C107 N105 1.279 . S
C107 C106 1.358 . S
C107 H111 0.930 . S
C108 C106 1.356 . S
C108 C109 1.348 . S
C109 C104 1.353 . S
C109 C108 1.348 . S
C109 H161 0.929 . S
H110 C104 0.930 . S
H111 C107 0.930 . S
C112 N113 1.314 . S
C112 C114 1.353 . S
C112 H118 0.930 . S
N113 Li89 1.990 . S
N113 C112 1.314 . S
N113 C116 1.279 . S
C114 C112 1.353 . S
C114 C117 1.348 . S
C114 H162 0.929 . S
C115 C116 1.358 . S
C115 C117 1.356 . S
C115 H163 0.930 . S
C116 N113 1.279 . S
C116 C115 1.358 . S
C116 H119 0.930 . S
C117 C114 1.348 . S
C117 C115 1.356 . S
H118 C112 0.930 . S
H119 C116 0.930 . S
C120 C122 1.348 . S
C120 C123 1.356 . S
C120 O150 1.325 . S
N121 C124 1.314 . S
N121 C125 1.279 . S
C122 C120 1.348 . S
C122 C124 1.353 . S
C122 H164 0.929 . S
C123 C120 1.356 . S
C123 C125 1.358 . S
C123 H165 0.930 . S
C124 N121 1.314 . S
C124 C122 1.353 . S
C124 H166 0.930 . S
C125 N121 1.279 . S
C125 C123 1.358 . S
C125 H167 0.930 . S
C126 C127 1.348 . S
C126 C128 1.356 . S
C126 O151 1.325 . S
C127 C126 1.348 . S
C127 C129 1.353 . S
C127 H168 0.929 . S
C128 C126 1.356 . S
C128 C130 1.358 . S
C128 H169 0.930 . S
C129 C127 1.353 . S
C129 N131 1.314 . S
C129 H170 0.930 . S
C130 C128 1.358 . S
C130 N131 1.279 . S
C130 H171 0.930 . S
N131 C129 1.314 . S
N131 C130 1.279 . S
C132 C134 1.353 . S
C132 N135 1.314 . S
C132 H138 0.930 . S
C133 N135 1.279 . S
C133 C136 1.358 . S
C133 H139 0.930 . S
C134 C132 1.353 . S
C134 C137 1.348 . S
C134 H172 0.929 . S
N135 Li90 1.990 . S
N135 C132 1.314 . S
N135 C133 1.279 . S
C136 C133 1.358 . S
C136 C137 1.356 . S
C136 H173 0.930 . S
C137 C134 1.348 . S
C137 C136 1.356 . S
H138 C132 0.930 . S
H139 C133 0.930 . S
C140 N141 1.314 . S
C140 C142 1.353 . S
C140 H146 0.930 . S
N141 Li91 1.990 . S
N141 C140 1.314 . S
N141 C144 1.279 . S
C142 C140 1.353 . S
C142 C145 1.348 . S
C142 H174 0.929 . S
C143 C144 1.358 . S
C143 C145 1.356 . S
C143 H175 0.930 . S
C144 N141 1.279 . S
C144 C143 1.358 . S
C144 H147 0.930 . S
C145 C142 1.348 . S
C145 C143 1.356 . S
H146 C140 0.930 . S
H147 C144 0.930 . S
O148 Li88 1.956 . S
O148 Li89 1.970 . S
O148 Li90 1.961 . S
O148 C92 1.325 . S
O149 Li88 1.970 . S
O149 Li89 1.956 . S
O149 Li91 1.961 . S
O149 C98 1.325 . S
O150 Li88 1.961 . S
O150 Li90 1.956 . S
O150 Li91 1.970 . S
O150 C120 1.325 . S
O151 Li89 1.961 . S
O151 Li90 1.970 . S
O151 Li91 1.956 . S
O151 C126 1.325 . S
H152 C94 0.929 . S
H153 C95 0.930 . S
H154 C96 0.930 . S
H155 C97 0.930 . S
H156 C99 0.930 . S
H157 C101 0.929 . S
H158 C102 0.930 . S
H159 C103 0.930 . S
H160 C106 0.930 . S
H161 C109 0.929 . S
H162 C114 0.929 . S
H163 C115 0.930 . S
H164 C122 0.929 . S
H165 C123 0.930 . S
H166 C124 0.930 . S
H167 C125 0.930 . S
H168 C127 0.929 . S
H169 C128 0.930 . S
H170 C129 0.930 . S
H171 C130 0.930 . S
H172 C134 0.929 . S
H173 C136 0.930 . S
H174 C142 0.929 . S
H175 C143 0.930 . S
Li176 N193 1.990 . S
Li176 O236 1.956 . S
Li176 O237 1.970 . S
Li176 O238 1.961 . S
Li177 N201 1.990 . S
Li177 O236 1.970 . S
Li177 O237 1.956 . S
Li177 O239 1.961 . S
Li178 N223 1.990 . S
Li178 O236 1.961 . S
Li178 O238 1.956 . S
Li178 O239 1.970 . S
Li179 N229 1.990 . S
Li179 O237 1.961 . S
Li179 O238 1.970 . S
Li179 O239 1.956 . S
C180 C182 1.348 . S
C180 C183 1.356 . S
C180 O236 1.325 . S
N181 C184 1.314 . S
N181 C185 1.279 . S
C182 C180 1.348 . S
C182 C184 1.353 . S
C182 H240 0.929 . S
C183 C180 1.356 . S
C183 C185 1.358 . S
C183 H241 0.930 . S
C184 N181 1.314 . S
C184 C182 1.353 . S
C184 H242 0.930 . S
C185 N181 1.279 . S
C185 C183 1.358 . S
C185 H243 0.930 . S
C186 C189 1.348 . S
C186 C190 1.356 . S
C186 O237 1.325 . S
C187 N188 1.279 . S
C187 C190 1.358 . S
C187 H244 0.930 . S
N188 C187 1.279 . S
N188 C191 1.314 . S
C189 C186 1.348 . S
C189 C191 1.353 . S
C189 H245 0.929 . S
C190 C186 1.356 . S
C190 C187 1.358 . S
C190 H246 0.930 . S
C191 N188 1.314 . S
C191 C189 1.353 . S
C191 H247 0.930 . S
C192 N193 1.314 . S
C192 C197 1.353 . S
C192 H198 0.930 . S
N193 Li176 1.990 . S
N193 C192 1.314 . S
N193 C195 1.279 . S
C194 C195 1.358 . S
C194 C196 1.356 . S
C194 H248 0.930 . S
C195 N193 1.279 . S
C195 C194 1.358 . S
C195 H199 0.930 . S
C196 C194 1.356 . S
C196 C197 1.348 . S
C197 C192 1.353 . S
C197 C196 1.348 . S
C197 H249 0.929 . S
H198 C192 0.930 . S
H199 C195 0.930 . S
C200 N201 1.314 . S
C200 C202 1.353 . S
C200 H206 0.930 . S
N201 Li177 1.990 . S
N201 C200 1.314 . S
N201 C204 1.279 . S
C202 C200 1.353 . S
C202 C205 1.348 . S
C202 H250 0.929 . S
C203 C204 1.358 . S
C203 C205 1.356 . S
C203 H251 0.930 . S
C204 N201 1.279 . S
C204 C203 1.358 . S
C204 H207 0.930 . S
C205 C202 1.348 . S
C205 C203 1.356 . S
H206 C200 0.930 . S
H207 C204 0.930 . S
C208 C210 1.348 . S
C208 C211 1.356 . S
C208 O238 1.325 . S
N209 C212 1.314 . S
N209 C213 1.279 . S
C210 C208 1.348 . S
C210 C212 1.353 . S
C210 H252 0.929 . S
C211 C208 1.356 . S
C211 C213 1.358 . S
C211 H253 0.930 . S
C212 N209 1.314 . S
C212 C210 1.353 . S
C212 H254 0.930 . S
C213 N209 1.279 . S
C213 C211 1.358 . S
C213 H255 0.930 . S
C214 C215 1.348 . S
C214 C216 1.356 . S
C214 O239 1.325 . S
C215 C214 1.348 . S
C215 C217 1.353 . S
C215 H256 0.929 . S
C216 C214 1.356 . S
C216 C218 1.358 . S
C216 H257 0.930 . S
C217 C215 1.353 . S
C217 N219 1.314 . S
C217 H258 0.930 . S
C218 C216 1.358 . S
C218 N219 1.279 . S
C218 H259 0.930 . S
N219 C217 1.314 . S
N219 C218 1.279 . S
C220 C222 1.353 . S
C220 N223 1.314 . S
C220 H226 0.930 . S
C221 N223 1.279 . S
C221 C224 1.358 . S
C221 H227 0.930 . S
C222 C220 1.353 . S
C222 C225 1.348 . S
C222 H260 0.929 . S
N223 Li178 1.990 . S
N223 C220 1.314 . S
N223 C221 1.279 . S
C224 C221 1.358 . S
C224 C225 1.356 . S
C224 H261 0.930 . S
C225 C222 1.348 . S
C225 C224 1.356 . S
H226 C220 0.930 . S
H227 C221 0.930 . S
C228 N229 1.314 . S
C228 C230 1.353 . S
C228 H234 0.930 . S
N229 Li179 1.990 . S
N229 C228 1.314 . S
N229 C232 1.279 . S
C230 C228 1.353 . S
C230 C233 1.348 . S
C230 H262 0.929 . S
C231 C232 1.358 . S
C231 C233 1.356 . S
C231 H263 0.930 . S
C232 N229 1.279 . S
C232 C231 1.358 . S
C232 H235 0.930 . S
C233 C230 1.348 . S
C233 C231 1.356 . S
H234 C228 0.930 . S
H235 C232 0.930 . S
O236 Li176 1.956 . S
O236 Li177 1.970 . S
O236 Li178 1.961 . S
O236 C180 1.325 . S
O237 Li176 1.970 . S
O237 Li177 1.956 . S
O237 Li179 1.961 . S
O237 C186 1.325 . S
O238 Li176 1.961 . S
O238 Li178 1.956 . S
O238 Li179 1.970 . S
O238 C208 1.325 . S
O239 Li177 1.961 . S
O239 Li178 1.970 . S
O239 Li179 1.956 . S
O239 C214 1.325 . S
H240 C182 0.929 . S
H241 C183 0.930 . S
H242 C184 0.930 . S
H243 C185 0.930 . S
H244 C187 0.930 . S
H245 C189 0.929 . S
H246 C190 0.930 . S
H247 C191 0.930 . S
H248 C194 0.930 . S
H249 C197 0.929 . S
H250 C202 0.929 . S
H251 C203 0.930 . S
H252 C210 0.929 . S
H253 C211 0.930 . S
H254 C212 0.930 . S
H255 C213 0.930 . S
H256 C215 0.929 . S
H257 C216 0.930 . S
H258 C217 0.930 . S
H259 C218 0.930 . S
H260 C222 0.929 . S
H261 C224 0.930 . S
H262 C230 0.929 . S
H263 C231 0.930 . S
Li264 N281 1.990 . S
Li264 O324 1.956 . S
Li264 O325 1.970 . S
Li264 O326 1.961 . S
Li265 N289 1.990 . S
Li265 O324 1.970 . S
Li265 O325 1.956 . S
Li265 O327 1.961 . S
Li266 N311 1.990 . S
Li266 O324 1.961 . S
Li266 O326 1.956 . S
Li266 O327 1.970 . S
Li267 N317 1.990 . S
Li267 O325 1.961 . S
Li267 O326 1.970 . S
Li267 O327 1.956 . S
C268 C270 1.348 . S
C268 C271 1.356 . S
C268 O324 1.325 . S
N269 C272 1.314 . S
N269 C273 1.279 . S
C270 C268 1.348 . S
C270 C272 1.353 . S
C270 H328 0.929 . S
C271 C268 1.356 . S
C271 C273 1.358 . S
C271 H329 0.930 . S
C272 N269 1.314 . S
C272 C270 1.353 . S
C272 H330 0.930 . S
C273 N269 1.279 . S
C273 C271 1.358 . S
C273 H331 0.930 . S
C274 C277 1.348 . S
C274 C278 1.356 . S
C274 O325 1.325 . S
C275 N276 1.279 . S
C275 C278 1.358 . S
C275 H332 0.930 . S
N276 C275 1.279 . S
N276 C279 1.314 . S
C277 C274 1.348 . S
C277 C279 1.353 . S
C277 H333 0.929 . S
C278 C274 1.356 . S
C278 C275 1.358 . S
C278 H334 0.930 . S
C279 N276 1.314 . S
C279 C277 1.353 . S
C279 H335 0.930 . S
C280 N281 1.314 . S
C280 C285 1.353 . S
C280 H286 0.930 . S
N281 Li264 1.990 . S
N281 C280 1.314 . S
N281 C283 1.279 . S
C282 C283 1.358 . S
C282 C284 1.356 . S
C282 H336 0.930 . S
C283 N281 1.279 . S
C283 C282 1.358 . S
C283 H287 0.930 . S
C284 C282 1.356 . S
C284 C285 1.348 . S
C285 C280 1.353 . S
C285 C284 1.348 . S
C285 H337 0.929 . S
H286 C280 0.930 . S
H287 C283 0.930 . S
C288 N289 1.314 . S
C288 C290 1.353 . S
C288 H294 0.930 . S
N289 Li265 1.990 . S
N289 C288 1.314 . S
N289 C292 1.279 . S
C290 C288 1.353 . S
C290 C293 1.348 . S
C290 H338 0.929 . S
C291 C292 1.358 . S
C291 C293 1.356 . S
C291 H339 0.930 . S
C292 N289 1.279 . S
C292 C291 1.358 . S
C292 H295 0.930 . S
C293 C290 1.348 . S
C293 C291 1.356 . S
H294 C288 0.930 . S
H295 C292 0.930 . S
C296 C298 1.348 . S
C296 C299 1.356 . S
C296 O326 1.325 . S
N297 C300 1.314 . S
N297 C301 1.279 . S
C298 C296 1.348 . S
C298 C300 1.353 . S
C298 H340 0.929 . S
C299 C296 1.356 . S
C299 C301 1.358 . S
C299 H341 0.930 . S
C300 N297 1.314 . S
C300 C298 1.353 . S
C300 H342 0.930 . S
C301 N297 1.279 . S
C301 C299 1.358 . S
C301 H343 0.930 . S
C302 C303 1.348 . S
C302 C304 1.356 . S
C302 O327 1.325 . S
C303 C302 1.348 . S
C303 C305 1.353 . S
C303 H344 0.929 . S
C304 C302 1.356 . S
C304 C306 1.358 . S
C304 H345 0.930 . S
C305 C303 1.353 . S
C305 N307 1.314 . S
C305 H346 0.930 . S
C306 C304 1.358 . S
C306 N307 1.279 . S
C306 H347 0.930 . S
N307 C305 1.314 . S
N307 C306 1.279 . S
C308 C310 1.353 . S
C308 N311 1.314 . S
C308 H314 0.930 . S
C309 N311 1.279 . S
C309 C312 1.358 . S
C309 H315 0.930 . S
C310 C308 1.353 . S
C310 C313 1.348 . S
C310 H348 0.929 . S
N311 Li266 1.990 . S
N311 C308 1.314 . S
N311 C309 1.279 . S
C312 C309 1.358 . S
C312 C313 1.356 . S
C312 H349 0.930 . S
C313 C310 1.348 . S
C313 C312 1.356 . S
H314 C308 0.930 . S
H315 C309 0.930 . S
C316 N317 1.314 . S
C316 C318 1.353 . S
C316 H322 0.930 . S
N317 Li267 1.990 . S
N317 C316 1.314 . S
N317 C320 1.279 . S
C318 C316 1.353 . S
C318 C321 1.348 . S
C318 H350 0.929 . S
C319 C320 1.358 . S
C319 C321 1.356 . S
C319 H351 0.930 . S
C320 N317 1.279 . S
C320 C319 1.358 . S
C320 H323 0.930 . S
C321 C318 1.348 . S
C321 C319 1.356 . S
H322 C316 0.930 . S
H323 C320 0.930 . S
O324 Li264 1.956 . S
O324 Li265 1.970 . S
O324 Li266 1.961 . S
O324 C268 1.325 . S
O325 Li264 1.970 . S
O325 Li265 1.956 . S
O325 Li267 1.961 . S
O325 C274 1.325 . S
O326 Li264 1.961 . S
O326 Li266 1.956 . S
O326 Li267 1.970 . S
O326 C296 1.325 . S
O327 Li265 1.961 . S
O327 Li266 1.970 . S
O327 Li267 1.956 . S
O327 C302 1.325 . S
H328 C270 0.929 . S
H329 C271 0.930 . S
H330 C272 0.930 . S
H331 C273 0.930 . S
H332 C275 0.930 . S
H333 C277 0.929 . S
H334 C278 0.930 . S
H335 C279 0.930 . S
H336 C282 0.930 . S
H337 C285 0.929 . S
H338 C290 0.929 . S
H339 C291 0.930 . S
H340 C298 0.929 . S
H341 C299 0.930 . S
H342 C300 0.930 . S
H343 C301 0.930 . S
H344 C303 0.929 . S
H345 C304 0.930 . S
H346 C305 0.930 . S
H347 C306 0.930 . S
H348 C310 0.929 . S
H349 C312 0.930 . S
H350 C318 0.929 . S
H351 C319 0.930 . S
Li352 N369 1.990 . S
Li352 O412 1.956 . S
Li352 O413 1.970 . S
Li352 O414 1.961 . S
Li353 N377 1.990 . S
Li353 O412 1.970 . S
Li353 O413 1.956 . S
Li353 O415 1.961 . S
Li354 N399 1.990 . S
Li354 O412 1.961 . S
Li354 O414 1.956 . S
Li354 O415 1.970 . S
Li355 N405 1.990 . S
Li355 O413 1.961 . S
Li355 O414 1.970 . S
Li355 O415 1.956 . S
C356 C358 1.348 . S
C356 C359 1.356 . S
C356 O412 1.325 . S
N357 C360 1.314 . S
N357 C361 1.279 . S
C358 C356 1.348 . S
C358 C360 1.353 . S
C358 H416 0.929 . S
C359 C356 1.356 . S
C359 C361 1.358 . S
C359 H417 0.930 . S
C360 N357 1.314 . S
C360 C358 1.353 . S
C360 H418 0.930 . S
C361 N357 1.279 . S
C361 C359 1.358 . S
C361 H419 0.930 . S
C362 C365 1.348 . S
C362 C366 1.356 . S
C362 O413 1.325 . S
C363 N364 1.279 . S
C363 C366 1.358 . S
C363 H420 0.930 . S
N364 C363 1.279 . S
N364 C367 1.314 . S
C365 C362 1.348 . S
C365 C367 1.353 . S
C365 H421 0.929 . S
C366 C362 1.356 . S
C366 C363 1.358 . S
C366 H422 0.930 . S
C367 N364 1.314 . S
C367 C365 1.353 . S
C367 H423 0.930 . S
C368 N369 1.314 . S
C368 C373 1.353 . S
C368 H374 0.930 . S
N369 Li352 1.990 . S
N369 C368 1.314 . S
N369 C371 1.279 . S
C370 C371 1.358 . S
C370 C372 1.356 . S
C370 H424 0.930 . S
C371 N369 1.279 . S
C371 C370 1.358 . S
C371 H375 0.930 . S
C372 C370 1.356 . S
C372 C373 1.348 . S
C373 C368 1.353 . S
C373 C372 1.348 . S
C373 H425 0.929 . S
H374 C368 0.930 . S
H375 C371 0.930 . S
C376 N377 1.314 . S
C376 C378 1.353 . S
C376 H382 0.930 . S
N377 Li353 1.990 . S
N377 C376 1.314 . S
N377 C380 1.279 . S
C378 C376 1.353 . S
C378 C381 1.348 . S
C378 H426 0.929 . S
C379 C380 1.358 . S
C379 C381 1.356 . S
C379 H427 0.930 . S
C380 N377 1.279 . S
C380 C379 1.358 . S
C380 H383 0.930 . S
C381 C378 1.348 . S
C381 C379 1.356 . S
H382 C376 0.930 . S
H383 C380 0.930 . S
C384 C386 1.348 . S
C384 C387 1.356 . S
C384 O414 1.325 . S
N385 C388 1.314 . S
N385 C389 1.279 . S
C386 C384 1.348 . S
C386 C388 1.353 . S
C386 H428 0.929 . S
C387 C384 1.356 . S
C387 C389 1.358 . S
C387 H429 0.930 . S
C388 N385 1.314 . S
C388 C386 1.353 . S
C388 H430 0.930 . S
C389 N385 1.279 . S
C389 C387 1.358 . S
C389 H431 0.930 . S
C390 C391 1.348 . S
C390 C392 1.356 . S
C390 O415 1.325 . S
C391 C390 1.348 . S
C391 C393 1.353 . S
C391 H432 0.929 . S
C392 C390 1.356 . S
C392 C394 1.358 . S
C392 H433 0.930 . S
C393 C391 1.353 . S
C393 N395 1.314 . S
C393 H434 0.930 . S
C394 C392 1.358 . S
C394 N395 1.279 . S
C394 H435 0.930 . S
N395 C393 1.314 . S
N395 C394 1.279 . S
C396 C398 1.353 . S
C396 N399 1.314 . S
C396 H402 0.930 . S
C397 N399 1.279 . S
C397 C400 1.358 . S
C397 H403 0.930 . S
C398 C396 1.353 . S
C398 C401 1.348 . S
C398 H436 0.929 . S
N399 Li354 1.990 . S
N399 C396 1.314 . S
N399 C397 1.279 . S
C400 C397 1.358 . S
C400 C401 1.356 . S
C400 H437 0.930 . S
C401 C398 1.348 . S
C401 C400 1.356 . S
H402 C396 0.930 . S
H403 C397 0.930 . S
C404 N405 1.314 . S
C404 C406 1.353 . S
C404 H410 0.930 . S
N405 Li355 1.990 . S
N405 C404 1.314 . S
N405 C408 1.279 . S
C406 C404 1.353 . S
C406 C409 1.348 . S
C406 H438 0.929 . S
C407 C408 1.358 . S
C407 C409 1.356 . S
C407 H439 0.930 . S
C408 N405 1.279 . S
C408 C407 1.358 . S
C408 H411 0.930 . S
C409 C406 1.348 . S
C409 C407 1.356 . S
H410 C404 0.930 . S
H411 C408 0.930 . S
O412 Li352 1.956 . S
O412 Li353 1.970 . S
O412 Li354 1.961 . S
O412 C356 1.325 . S
O413 Li352 1.970 . S
O413 Li353 1.956 . S
O413 Li355 1.961 . S
O413 C362 1.325 . S
O414 Li352 1.961 . S
O414 Li354 1.956 . S
O414 Li355 1.970 . S
O414 C384 1.325 . S
O415 Li353 1.961 . S
O415 Li354 1.970 . S
O415 Li355 1.956 . S
O415 C390 1.325 . S
H416 C358 0.929 . S
H417 C359 0.930 . S
H418 C360 0.930 . S
H419 C361 0.930 . S
H420 C363 0.930 . S
H421 C365 0.929 . S
H422 C366 0.930 . S
H423 C367 0.930 . S
H424 C370 0.930 . S
H425 C373 0.929 . S
H426 C378 0.929 . S
H427 C379 0.930 . S
H428 C386 0.929 . S
H429 C387 0.930 . S
H430 C388 0.930 . S
H431 C389 0.930 . S
H432 C391 0.929 . S
H433 C392 0.930 . S
H434 C393 0.930 . S
H435 C394 0.930 . S
H436 C398 0.929 . S
H437 C400 0.930 . S
H438 C406 0.929 . S
H439 C407 0.930 . S
Li440 N457 1.990 . S
Li440 O500 1.956 . S
Li440 O501 1.970 . S
Li440 O502 1.961 . S
Li441 N465 1.990 . S
Li441 O500 1.970 . S
Li441 O501 1.956 . S
Li441 O503 1.961 . S
Li442 N487 1.990 . S
Li442 O500 1.961 . S
Li442 O502 1.956 . S
Li442 O503 1.970 . S
Li443 N493 1.990 . S
Li443 O501 1.961 . S
Li443 O502 1.970 . S
Li443 O503 1.956 . S
C444 C446 1.348 . S
C444 C447 1.356 . S
C444 O500 1.325 . S
N445 C448 1.314 . S
N445 C449 1.279 . S
C446 C444 1.348 . S
C446 C448 1.353 . S
C446 H504 0.929 . S
C447 C444 1.356 . S
C447 C449 1.358 . S
C447 H505 0.930 . S
C448 N445 1.314 . S
C448 C446 1.353 . S
C448 H506 0.930 . S
C449 N445 1.279 . S
C449 C447 1.358 . S
C449 H507 0.930 . S
C450 C453 1.348 . S
C450 C454 1.356 . S
C450 O501 1.325 . S
C451 N452 1.279 . S
C451 C454 1.358 . S
C451 H508 0.930 . S
N452 C451 1.279 . S
N452 C455 1.314 . S
C453 C450 1.348 . S
C453 C455 1.353 . S
C453 H509 0.929 . S
C454 C450 1.356 . S
C454 C451 1.358 . S
C454 H510 0.930 . S
C455 N452 1.314 . S
C455 C453 1.353 . S
C455 H511 0.930 . S
C456 N457 1.314 . S
C456 C461 1.353 . S
C456 H462 0.930 . S
N457 Li440 1.990 . S
N457 C456 1.314 . S
N457 C459 1.279 . S
C458 C459 1.358 . S
C458 C460 1.356 . S
C458 H512 0.930 . S
C459 N457 1.279 . S
C459 C458 1.358 . S
C459 H463 0.930 . S
C460 C458 1.356 . S
C460 C461 1.348 . S
C461 C456 1.353 . S
C461 C460 1.348 . S
C461 H513 0.929 . S
H462 C456 0.930 . S
H463 C459 0.930 . S
C464 N465 1.314 . S
C464 C466 1.353 . S
C464 H470 0.930 . S
N465 Li441 1.990 . S
N465 C464 1.314 . S
N465 C468 1.279 . S
C466 C464 1.353 . S
C466 C469 1.348 . S
C466 H514 0.929 . S
C467 C468 1.358 . S
C467 C469 1.356 . S
C467 H515 0.930 . S
C468 N465 1.279 . S
C468 C467 1.358 . S
C468 H471 0.930 . S
C469 C466 1.348 . S
C469 C467 1.356 . S
H470 C464 0.930 . S
H471 C468 0.930 . S
C472 C474 1.348 . S
C472 C475 1.356 . S
C472 O502 1.325 . S
N473 C476 1.314 . S
N473 C477 1.279 . S
C474 C472 1.348 . S
C474 C476 1.353 . S
C474 H516 0.929 . S
C475 C472 1.356 . S
C475 C477 1.358 . S
C475 H517 0.930 . S
C476 N473 1.314 . S
C476 C474 1.353 . S
C476 H518 0.930 . S
C477 N473 1.279 . S
C477 C475 1.358 . S
C477 H519 0.930 . S
C478 C479 1.348 . S
C478 C480 1.356 . S
C478 O503 1.325 . S
C479 C478 1.348 . S
C479 C481 1.353 . S
C479 H520 0.929 . S
C480 C478 1.356 . S
C480 C482 1.358 . S
C480 H521 0.930 . S
C481 C479 1.353 . S
C481 N483 1.314 . S
C481 H522 0.930 . S
C482 C480 1.358 . S
C482 N483 1.279 . S
C482 H523 0.930 . S
N483 C481 1.314 . S
N483 C482 1.279 . S
C484 C486 1.353 . S
C484 N487 1.314 . S
C484 H490 0.930 . S
C485 N487 1.279 . S
C485 C488 1.358 . S
C485 H491 0.930 . S
C486 C484 1.353 . S
C486 C489 1.348 . S
C486 H524 0.929 . S
N487 Li442 1.990 . S
N487 C484 1.314 . S
N487 C485 1.279 . S
C488 C485 1.358 . S
C488 C489 1.356 . S
C488 H525 0.930 . S
C489 C486 1.348 . S
C489 C488 1.356 . S
H490 C484 0.930 . S
H491 C485 0.930 . S
C492 N493 1.314 . S
C492 C494 1.353 . S
C492 H498 0.930 . S
N493 Li443 1.990 . S
N493 C492 1.314 . S
N493 C496 1.279 . S
C494 C492 1.353 . S
C494 C497 1.348 . S
C494 H526 0.929 . S
C495 C496 1.358 . S
C495 C497 1.356 . S
C495 H527 0.930 . S
C496 N493 1.279 . S
C496 C495 1.358 . S
C496 H499 0.930 . S
C497 C494 1.348 . S
C497 C495 1.356 . S
H498 C492 0.930 . S
H499 C496 0.930 . S
O500 Li440 1.956 . S
O500 Li441 1.970 . S
O500 Li442 1.961 . S
O500 C444 1.325 . S
O501 Li440 1.970 . S
O501 Li441 1.956 . S
O501 Li443 1.961 . S
O501 C450 1.325 . S
O502 Li440 1.961 . S
O502 Li442 1.956 . S
O502 Li443 1.970 . S
O502 C472 1.325 . S
O503 Li441 1.961 . S
O503 Li442 1.970 . S
O503 Li443 1.956 . S
O503 C478 1.325 . S
H504 C446 0.929 . S
H505 C447 0.930 . S
H506 C448 0.930 . S
H507 C449 0.930 . S
H508 C451 0.930 . S
H509 C453 0.929 . S
H510 C454 0.930 . S
H511 C455 0.930 . S
H512 C458 0.930 . S
H513 C461 0.929 . S
H514 C466 0.929 . S
H515 C467 0.930 . S
H516 C474 0.929 . S
H517 C475 0.930 . S
H518 C476 0.930 . S
H519 C477 0.930 . S
H520 C479 0.929 . S
H521 C480 0.930 . S
H522 C481 0.930 . S
H523 C482 0.930 . S
H524 C486 0.929 . S
H525 C488 0.930 . S
H526 C494 0.929 . S
H527 C495 0.930 . S
Li528 N545 1.990 . S
Li528 O588 1.956 . S
Li528 O589 1.970 . S
Li528 O590 1.961 . S
Li529 N553 1.990 . S
Li529 O588 1.970 . S
Li529 O589 1.956 . S
Li529 O591 1.961 . S
Li530 N575 1.990 . S
Li530 O588 1.961 . S
Li530 O590 1.956 . S
Li530 O591 1.970 . S
Li531 N581 1.990 . S
Li531 O589 1.961 . S
Li531 O590 1.970 . S
Li531 O591 1.956 . S
C532 C534 1.348 . S
C532 C535 1.356 . S
C532 O588 1.325 . S
N533 C536 1.314 . S
N533 C537 1.279 . S
C534 C532 1.348 . S
C534 C536 1.353 . S
C534 H592 0.929 . S
C535 C532 1.356 . S
C535 C537 1.358 . S
C535 H593 0.930 . S
C536 N533 1.314 . S
C536 C534 1.353 . S
C536 H594 0.930 . S
C537 N533 1.279 . S
C537 C535 1.358 . S
C537 H595 0.930 . S
C538 C541 1.348 . S
C538 C542 1.356 . S
C538 O589 1.325 . S
C539 N540 1.279 . S
C539 C542 1.358 . S
C539 H596 0.930 . S
N540 C539 1.279 . S
N540 C543 1.314 . S
C541 C538 1.348 . S
C541 C543 1.353 . S
C541 H597 0.929 . S
C542 C538 1.356 . S
C542 C539 1.358 . S
C542 H598 0.930 . S
C543 N540 1.314 . S
C543 C541 1.353 . S
C543 H599 0.930 . S
C544 N545 1.314 . S
C544 C549 1.353 . S
C544 H550 0.930 . S
N545 Li528 1.990 . S
N545 C544 1.314 . S
N545 C547 1.279 . S
C546 C547 1.358 . S
C546 C548 1.356 . S
C546 H600 0.930 . S
C547 N545 1.279 . S
C547 C546 1.358 . S
C547 H551 0.930 . S
C548 C546 1.356 . S
C548 C549 1.348 . S
C549 C544 1.353 . S
C549 C548 1.348 . S
C549 H601 0.929 . S
H550 C544 0.930 . S
H551 C547 0.930 . S
C552 N553 1.314 . S
C552 C554 1.353 . S
C552 H558 0.930 . S
N553 Li529 1.990 . S
N553 C552 1.314 . S
N553 C556 1.279 . S
C554 C552 1.353 . S
C554 C557 1.348 . S
C554 H602 0.929 . S
C555 C556 1.358 . S
C555 C557 1.356 . S
C555 H603 0.930 . S
C556 N553 1.279 . S
C556 C555 1.358 . S
C556 H559 0.930 . S
C557 C554 1.348 . S
C557 C555 1.356 . S
H558 C552 0.930 . S
H559 C556 0.930 . S
C560 C562 1.348 . S
C560 C563 1.356 . S
C560 O590 1.325 . S
N561 C564 1.314 . S
N561 C565 1.279 . S
C562 C560 1.348 . S
C562 C564 1.353 . S
C562 H604 0.929 . S
C563 C560 1.356 . S
C563 C565 1.358 . S
C563 H605 0.930 . S
C564 N561 1.314 . S
C564 C562 1.353 . S
C564 H606 0.930 . S
C565 N561 1.279 . S
C565 C563 1.358 . S
C565 H607 0.930 . S
C566 C567 1.348 . S
C566 C568 1.356 . S
C566 O591 1.325 . S
C567 C566 1.348 . S
C567 C569 1.353 . S
C567 H608 0.929 . S
C568 C566 1.356 . S
C568 C570 1.358 . S
C568 H609 0.930 . S
C569 C567 1.353 . S
C569 N571 1.314 . S
C569 H610 0.930 . S
C570 C568 1.358 . S
C570 N571 1.279 . S
C570 H611 0.930 . S
N571 C569 1.314 . S
N571 C570 1.279 . S
C572 C574 1.353 . S
C572 N575 1.314 . S
C572 H578 0.930 . S
C573 N575 1.279 . S
C573 C576 1.358 . S
C573 H579 0.930 . S
C574 C572 1.353 . S
C574 C577 1.348 . S
C574 H612 0.929 . S
N575 Li530 1.990 . S
N575 C572 1.314 . S
N575 C573 1.279 . S
C576 C573 1.358 . S
C576 C577 1.356 . S
C576 H613 0.930 . S
C577 C574 1.348 . S
C577 C576 1.356 . S
H578 C572 0.930 . S
H579 C573 0.930 . S
C580 N581 1.314 . S
C580 C582 1.353 . S
C580 H586 0.930 . S
N581 Li531 1.990 . S
N581 C580 1.314 . S
N581 C584 1.279 . S
C582 C580 1.353 . S
C582 C585 1.348 . S
C582 H614 0.929 . S
C583 C584 1.358 . S
C583 C585 1.356 . S
C583 H615 0.930 . S
C584 N581 1.279 . S
C584 C583 1.358 . S
C584 H587 0.930 . S
C585 C582 1.348 . S
C585 C583 1.356 . S
H586 C580 0.930 . S
H587 C584 0.930 . S
O588 Li528 1.956 . S
O588 Li529 1.970 . S
O588 Li530 1.961 . S
O588 C532 1.325 . S
O589 Li528 1.970 . S
O589 Li529 1.956 . S
O589 Li531 1.961 . S
O589 C538 1.325 . S
O590 Li528 1.961 . S
O590 Li530 1.956 . S
O590 Li531 1.970 . S
O590 C560 1.325 . S
O591 Li529 1.961 . S
O591 Li530 1.970 . S
O591 Li531 1.956 . S
O591 C566 1.325 . S
H592 C534 0.929 . S
H593 C535 0.930 . S
H594 C536 0.930 . S
H595 C537 0.930 . S
H596 C539 0.930 . S
H597 C541 0.929 . S
H598 C542 0.930 . S
H599 C543 0.930 . S
H600 C546 0.930 . S
H601 C549 0.929 . S
H602 C554 0.929 . S
H603 C555 0.930 . S
H604 C562 0.929 . S
H605 C563 0.930 . S
H606 C564 0.930 . S
H607 C565 0.930 . S
H608 C567 0.929 . S
H609 C568 0.930 . S
H610 C569 0.930 . S
H611 C570 0.930 . S
H612 C574 0.929 . S
H613 C576 0.930 . S
H614 C582 0.929 . S
H615 C583 0.930 . S
Li616 N633 1.990 . S
Li616 O676 1.956 . S
Li616 O677 1.970 . S
Li616 O678 1.961 . S
Li617 N641 1.990 . S
Li617 O676 1.970 . S
Li617 O677 1.956 . S
Li617 O679 1.961 . S
Li618 N663 1.990 . S
Li618 O676 1.961 . S
Li618 O678 1.956 . S
Li618 O679 1.970 . S
Li619 N669 1.990 . S
Li619 O677 1.961 . S
Li619 O678 1.970 . S
Li619 O679 1.956 . S
C620 C622 1.348 . S
C620 C623 1.356 . S
C620 O676 1.325 . S
N621 C624 1.314 . S
N621 C625 1.279 . S
C622 C620 1.348 . S
C622 C624 1.353 . S
C622 H680 0.929 . S
C623 C620 1.356 . S
C623 C625 1.358 . S
C623 H681 0.930 . S
C624 N621 1.314 . S
C624 C622 1.353 . S
C624 H682 0.930 . S
C625 N621 1.279 . S
C625 C623 1.358 . S
C625 H683 0.930 . S
C626 C629 1.348 . S
C626 C630 1.356 . S
C626 O677 1.325 . S
C627 N628 1.279 . S
C627 C630 1.358 . S
C627 H684 0.930 . S
N628 C627 1.279 . S
N628 C631 1.314 . S
C629 C626 1.348 . S
C629 C631 1.353 . S
C629 H685 0.929 . S
C630 C626 1.356 . S
C630 C627 1.358 . S
C630 H686 0.930 . S
C631 N628 1.314 . S
C631 C629 1.353 . S
C631 H687 0.930 . S
C632 N633 1.314 . S
C632 C637 1.353 . S
C632 H638 0.930 . S
N633 Li616 1.990 . S
N633 C632 1.314 . S
N633 C635 1.279 . S
C634 C635 1.358 . S
C634 C636 1.356 . S
C634 H688 0.930 . S
C635 N633 1.279 . S
C635 C634 1.358 . S
C635 H639 0.930 . S
C636 C634 1.356 . S
C636 C637 1.348 . S
C637 C632 1.353 . S
C637 C636 1.348 . S
C637 H689 0.929 . S
H638 C632 0.930 . S
H639 C635 0.930 . S
C640 N641 1.314 . S
C640 C642 1.353 . S
C640 H646 0.930 . S
N641 Li617 1.990 . S
N641 C640 1.314 . S
N641 C644 1.279 . S
C642 C640 1.353 . S
C642 C645 1.348 . S
C642 H690 0.929 . S
C643 C644 1.358 . S
C643 C645 1.356 . S
C643 H691 0.930 . S
C644 N641 1.279 . S
C644 C643 1.358 . S
C644 H647 0.930 . S
C645 C642 1.348 . S
C645 C643 1.356 . S
H646 C640 0.930 . S
H647 C644 0.930 . S
C648 C650 1.348 . S
C648 C651 1.356 . S
C648 O678 1.325 . S
N649 C652 1.314 . S
N649 C653 1.279 . S
C650 C648 1.348 . S
C650 C652 1.353 . S
C650 H692 0.929 . S
C651 C648 1.356 . S
C651 C653 1.358 . S
C651 H693 0.930 . S
C652 N649 1.314 . S
C652 C650 1.353 . S
C652 H694 0.930 . S
C653 N649 1.279 . S
C653 C651 1.358 . S
C653 H695 0.930 . S
C654 C655 1.348 . S
C654 C656 1.356 . S
C654 O679 1.325 . S
C655 C654 1.348 . S
C655 C657 1.353 . S
C655 H696 0.929 . S
C656 C654 1.356 . S
C656 C658 1.358 . S
C656 H697 0.930 . S
C657 C655 1.353 . S
C657 N659 1.314 . S
C657 H698 0.930 . S
C658 C656 1.358 . S
C658 N659 1.279 . S
C658 H699 0.961 . S
N659 C657 1.314 . S
N659 C658 1.279 . S
C660 C662 1.353 . S
C660 N663 1.314 . S
C660 H666 0.930 . S
C661 N663 1.279 . S
C661 C664 1.358 . S
C661 H667 0.930 . S
C662 C660 1.353 . S
C662 C665 1.348 . S
C662 H700 0.929 . S
N663 Li618 1.990 . S
N663 C660 1.314 . S
N663 C661 1.279 . S
C664 C661 1.358 . S
C664 C665 1.356 . S
C664 H701 0.930 . S
C665 C662 1.348 . S
C665 C664 1.356 . S
H666 C660 0.930 . S
H667 C661 0.930 . S
C668 N669 1.314 . S
C668 C670 1.353 . S
C668 H674 0.930 . S
N669 Li619 1.990 . S
N669 C668 1.314 . S
N669 C672 1.279 . S
C670 C668 1.353 . S
C670 C673 1.348 . S
C670 H702 0.929 . S
C671 C672 1.358 . S
C671 C673 1.356 . S
C671 H703 0.930 . S
C672 N669 1.279 . S
C672 C671 1.358 . S
C672 H675 0.930 . S
C673 C670 1.348 . S
C673 C671 1.356 . S
H674 C668 0.930 . S
H675 C672 0.930 . S
O676 Li616 1.956 . S
O676 Li617 1.970 . S
O676 Li618 1.961 . S
O676 C620 1.325 . S
O677 Li616 1.970 . S
O677 Li617 1.956 . S
O677 Li619 1.961 . S
O677 C626 1.325 . S
O678 Li616 1.961 . S
O678 Li618 1.956 . S
O678 Li619 1.970 . S
O678 C648 1.325 . S
O679 Li617 1.961 . S
O679 Li618 1.970 . S
O679 Li619 1.956 . S
O679 C654 1.325 . S
H680 C622 0.929 . S
H681 C623 0.930 . S
H682 C624 0.930 . S
H683 C625 0.930 . S
H684 C627 0.930 . S
H685 C629 0.929 . S
H686 C630 0.930 . S
H687 C631 0.930 . S
H688 C634 0.930 . S
H689 C637 0.929 . S
H690 C642 0.929 . S
H691 C643 0.930 . S
H692 C650 0.929 . S
H693 C651 0.930 . S
H694 C652 0.930 . S
H695 C653 0.930 . S
H696 C655 0.929 . S
H697 C656 0.930 . S
H698 C657 0.930 . S
H699 C658 0.961 . S
H700 C662 0.929 . S
H701 C664 0.930 . S
H702 C670 0.929 . S
H703 C671 0.930 . S
Li704 N721 1.990 . S
Li704 O764 1.956 . S
Li704 O765 1.970 . S
Li704 O766 1.961 . S
Li705 N729 1.990 . S
Li705 O764 1.970 . S
Li705 O765 1.956 . S
Li705 O767 1.961 . S
Li706 N751 1.990 . S
Li706 O764 1.961 . S
Li706 O766 1.956 . S
Li706 O767 1.970 . S
Li707 N757 1.990 . S
Li707 O765 1.961 . S
Li707 O766 1.970 . S
Li707 O767 1.956 . S
C708 C710 1.348 . S
C708 C711 1.356 . S
C708 O764 1.325 . S
N709 C712 1.314 . S
N709 C713 1.279 . S
C710 C708 1.348 . S
C710 C712 1.353 . S
C710 H768 0.929 . S
C711 C708 1.356 . S
C711 C713 1.358 . S
C711 H769 0.930 . S
C712 N709 1.314 . S
C712 C710 1.353 . S
C712 H770 0.930 . S
C713 N709 1.279 . S
C713 C711 1.358 . S
C713 H771 0.930 . S
C714 C717 1.348 . S
C714 C718 1.356 . S
C714 O765 1.325 . S
C715 N716 1.279 . S
C715 C718 1.358 . S
C715 H772 0.930 . S
N716 C715 1.279 . S
N716 C719 1.314 . S
C717 C714 1.348 . S
C717 C719 1.353 . S
C717 H773 0.929 . S
C718 C714 1.356 . S
C718 C715 1.358 . S
C718 H774 0.930 . S
C719 N716 1.314 . S
C719 C717 1.353 . S
C719 H775 0.930 . S
C720 N721 1.314 . S
C720 C725 1.353 . S
C720 H726 0.930 . S
N721 Li704 1.990 . S
N721 C720 1.314 . S
N721 C723 1.279 . S
C722 C723 1.358 . S
C722 C724 1.356 . S
C722 H776 0.930 . S
C723 N721 1.279 . S
C723 C722 1.358 . S
C723 H727 0.930 . S
C724 C722 1.356 . S
C724 C725 1.348 . S
C725 C720 1.353 . S
C725 C724 1.348 . S
C725 H777 0.929 . S
H726 C720 0.930 . S
H727 C723 0.930 . S
C728 N729 1.314 . S
C728 C730 1.353 . S
C728 H734 0.930 . S
N729 Li705 1.990 . S
N729 C728 1.314 . S
N729 C732 1.279 . S
C730 C728 1.353 . S
C730 C733 1.348 . S
C730 H778 0.929 . S
C731 C732 1.358 . S
C731 C733 1.356 . S
C731 H779 0.930 . S
C732 N729 1.279 . S
C732 C731 1.358 . S
C732 H735 0.930 . S
C733 C730 1.348 . S
C733 C731 1.356 . S
H734 C728 0.930 . S
H735 C732 0.930 . S
C736 C738 1.348 . S
C736 C739 1.356 . S
C736 O766 1.325 . S
N737 C740 1.314 . S
N737 C741 1.279 . S
C738 C736 1.348 . S
C738 C740 1.353 . S
C738 H780 0.929 . S
C739 C736 1.356 . S
C739 C741 1.358 . S
C739 H781 0.930 . S
C740 N737 1.314 . S
C740 C738 1.353 . S
C740 H782 0.930 . S
C741 N737 1.279 . S
C741 C739 1.358 . S
C741 H783 0.930 . S
C742 C743 1.348 . S
C742 C744 1.356 . S
C742 O767 1.325 . S
C743 C742 1.348 . S
C743 C745 1.353 . S
C743 H784 0.929 . S
C744 C742 1.356 . S
C744 C746 1.358 . S
C744 H785 0.930 . S
C745 C743 1.353 . S
C745 N747 1.314 . S
C745 H786 0.930 . S
C746 C744 1.358 . S
C746 N747 1.279 . S
C746 H787 0.930 . S
N747 C745 1.314 . S
N747 C746 1.279 . S
C748 C750 1.353 . S
C748 N751 1.314 . S
C748 H754 0.930 . S
C749 N751 1.279 . S
C749 C752 1.358 . S
C749 H755 0.930 . S
C750 C748 1.353 . S
C750 C753 1.348 . S
C750 H788 0.929 . S
N751 Li706 1.990 . S
N751 C748 1.314 . S
N751 C749 1.279 . S
C752 C749 1.358 . S
C752 C753 1.356 . S
C752 H789 0.930 . S
C753 C750 1.348 . S
C753 C752 1.356 . S
H754 C748 0.930 . S
H755 C749 0.930 . S
C756 N757 1.314 . S
C756 C758 1.353 . S
C756 H762 0.930 . S
N757 Li707 1.990 . S
N757 C756 1.314 . S
N757 C760 1.279 . S
C758 C756 1.353 . S
C758 C761 1.348 . S
C758 H790 0.929 . S
C759 C760 1.358 . S
C759 C761 1.356 . S
C759 H791 0.930 . S
C760 N757 1.279 . S
C760 C759 1.358 . S
C760 H763 0.930 . S
C761 C758 1.348 . S
C761 C759 1.356 . S
H762 C756 0.930 . S
H763 C760 0.930 . S
O764 Li704 1.956 . S
O764 Li705 1.970 . S
O764 Li706 1.961 . S
O764 C708 1.325 . S
O765 Li704 1.970 . S
O765 Li705 1.956 . S
O765 Li707 1.961 . S
O765 C714 1.325 . S
O766 Li704 1.961 . S
O766 Li706 1.956 . S
O766 Li707 1.970 . S
O766 C736 1.325 . S
O767 Li705 1.961 . S
O767 Li706 1.970 . S
O767 Li707 1.956 . S
O767 C742 1.325 . S
H768 C710 0.929 . S
H769 C711 0.930 . S
H770 C712 0.930 . S
H771 C713 0.930 . S
H772 C715 0.930 . S
H773 C717 0.929 . S
H774 C718 0.930 . S
H775 C719 0.930 . S
H776 C722 0.930 . S
H777 C725 0.929 . S
H778 C730 0.929 . S
H779 C731 0.930 . S
H780 C738 0.929 . S
H781 C739 0.930 . S
H782 C740 0.930 . S
H783 C741 0.930 . S
H784 C743 0.929 . S
H785 C744 0.930 . S
H786 C745 0.930 . S
H787 C746 0.930 . S
H788 C750 0.929 . S
H789 C752 0.930 . S
H790 C758 0.929 . S
H791 C759 0.930 . S
Li792 N809 1.990 . S
Li792 O852 1.956 . S
Li792 O853 1.970 . S
Li792 O854 1.961 . S
Li793 N817 1.990 . S
Li793 O852 1.970 . S
Li793 O853 1.956 . S
Li793 O855 1.961 . S
Li794 N839 1.990 . S
Li794 O852 1.961 . S
Li794 O854 1.956 . S
Li794 O855 1.970 . S
Li795 N845 1.990 . S
Li795 O853 1.961 . S
Li795 O854 1.970 . S
Li795 O855 1.956 . S
C796 C798 1.348 . S
C796 C799 1.356 . S
C796 O852 1.325 . S
N797 C800 1.314 . S
N797 C801 1.279 . S
C798 C796 1.348 . S
C798 C800 1.353 . S
C798 H856 0.929 . S
C799 C796 1.356 . S
C799 C801 1.358 . S
C799 H857 0.930 . S
C800 N797 1.314 . S
C800 C798 1.353 . S
C800 H858 0.930 . S
C801 N797 1.279 . S
C801 C799 1.358 . S
C801 H859 0.930 . S
C802 C805 1.348 . S
C802 C806 1.356 . S
C802 O853 1.325 . S
C803 N804 1.279 . S
C803 C806 1.358 . S
C803 H860 0.930 . S
N804 C803 1.279 . S
N804 C807 1.314 . S
C805 C802 1.348 . S
C805 C807 1.353 . S
C805 H861 0.929 . S
C806 C802 1.356 . S
C806 C803 1.358 . S
C806 H862 0.930 . S
C807 N804 1.314 . S
C807 C805 1.353 . S
C807 H863 0.930 . S
C808 N809 1.314 . S
C808 C813 1.353 . S
C808 H814 0.930 . S
N809 Li792 1.990 . S
N809 C808 1.314 . S
N809 C811 1.279 . S
C810 C811 1.358 . S
C810 C812 1.356 . S
C810 H864 0.930 . S
C811 N809 1.279 . S
C811 C810 1.358 . S
C811 H815 0.930 . S
C812 C810 1.356 . S
C812 C813 1.348 . S
C813 C808 1.353 . S
C813 C812 1.348 . S
C813 H865 0.929 . S
H814 C808 0.930 . S
H815 C811 0.930 . S
C816 N817 1.314 . S
C816 C818 1.353 . S
C816 H822 0.930 . S
N817 Li793 1.990 . S
N817 C816 1.314 . S
N817 C820 1.279 . S
C818 C816 1.353 . S
C818 C821 1.348 . S
C818 H866 0.929 . S
C819 C820 1.358 . S
C819 C821 1.356 . S
C819 H867 0.930 . S
C820 N817 1.279 . S
C820 C819 1.358 . S
C820 H823 0.930 . S
C821 C818 1.348 . S
C821 C819 1.356 . S
H822 C816 0.930 . S
H823 C820 0.930 . S
C824 C826 1.348 . S
C824 C827 1.356 . S
C824 O854 1.325 . S
N825 C828 1.314 . S
N825 C829 1.279 . S
C826 C824 1.348 . S
C826 C828 1.353 . S
C826 H868 0.929 . S
C827 C824 1.356 . S
C827 C829 1.358 . S
C827 H869 0.930 . S
C828 N825 1.314 . S
C828 C826 1.353 . S
C828 H870 0.930 . S
C829 N825 1.279 . S
C829 C827 1.358 . S
C829 H871 0.930 . S
C830 C831 1.348 . S
C830 C832 1.356 . S
C830 O855 1.325 . S
C831 C830 1.348 . S
C831 C833 1.353 . S
C831 H872 0.929 . S
C832 C830 1.356 . S
C832 C834 1.358 . S
C832 H873 0.930 . S
C833 C831 1.353 . S
C833 N835 1.314 . S
C833 H874 0.930 . S
C834 C832 1.358 . S
C834 N835 1.279 . S
C834 H875 0.930 . S
N835 C833 1.314 . S
N835 C834 1.279 . S
C836 C838 1.353 . S
C836 N839 1.314 . S
C836 H842 0.930 . S
C837 N839 1.279 . S
C837 C840 1.358 . S
C837 H843 0.930 . S
C838 C836 1.353 . S
C838 C841 1.348 . S
C838 H876 0.929 . S
N839 Li794 1.990 . S
N839 C836 1.314 . S
N839 C837 1.279 . S
C840 C837 1.358 . S
C840 C841 1.356 . S
C840 H877 0.930 . S
C841 C838 1.348 . S
C841 C840 1.356 . S
H842 C836 0.930 . S
H843 C837 0.930 . S
C844 N845 1.314 . S
C844 C846 1.353 . S
C844 H850 0.930 . S
N845 Li795 1.990 . S
N845 C844 1.314 . S
N845 C848 1.279 . S
C846 C844 1.353 . S
C846 C849 1.348 . S
C846 H878 0.929 . S
C847 C848 1.358 . S
C847 C849 1.356 . S
C847 H879 0.930 . S
C848 N845 1.279 . S
C848 C847 1.358 . S
C848 H851 0.930 . S
C849 C846 1.348 . S
C849 C847 1.356 . S
H850 C844 0.930 . S
H851 C848 0.930 . S
O852 Li792 1.956 . S
O852 Li793 1.970 . S
O852 Li794 1.961 . S
O852 C796 1.325 . S
O853 Li792 1.970 . S
O853 Li793 1.956 . S
O853 Li795 1.961 . S
O853 C802 1.325 . S
O854 Li792 1.961 . S
O854 Li794 1.956 . S
O854 Li795 1.970 . S
O854 C824 1.325 . S
O855 Li793 1.961 . S
O855 Li794 1.970 . S
O855 Li795 1.956 . S
O855 C830 1.325 . S
H856 C798 0.929 . S
H857 C799 0.930 . S
H858 C800 0.930 . S
H859 C801 0.930 . S
H860 C803 0.930 . S
H861 C805 0.929 . S
H862 C806 0.930 . S
H863 C807 0.930 . S
H864 C810 0.930 . S
H865 C813 0.929 . S
H866 C818 0.929 . S
H867 C819 0.930 . S
H868 C826 0.929 . S
H869 C827 0.930 . S
H870 C828 0.930 . S
H871 C829 0.930 . S
H872 C831 0.929 . S
H873 C832 0.930 . S
H874 C833 0.930 . S
H875 C834 0.930 . S
H876 C838 0.929 . S
H877 C840 0.930 . S
H878 C846 0.929 . S
H879 C847 0.930 . S
Li880 N897 1.990 . S
Li880 O940 1.956 . S
Li880 O941 1.970 . S
Li880 O942 1.961 . S
Li881 N905 1.990 . S
Li881 O940 1.970 . S
Li881 O941 1.956 . S
Li881 O943 1.961 . S
Li882 N927 1.990 . S
Li882 O940 1.961 . S
Li882 O942 1.956 . S
Li882 O943 1.970 . S
Li883 N933 1.990 . S
Li883 O941 1.961 . S
Li883 O942 1.970 . S
Li883 O943 1.956 . S
C884 C886 1.348 . S
C884 C887 1.356 . S
C884 O940 1.325 . S
N885 C888 1.314 . S
N885 C889 1.279 . S
C886 C884 1.348 . S
C886 C888 1.353 . S
C886 H944 0.929 . S
C887 C884 1.356 . S
C887 C889 1.358 . S
C887 H945 0.930 . S
C888 N885 1.314 . S
C888 C886 1.353 . S
C888 H946 0.930 . S
C889 N885 1.279 . S
C889 C887 1.358 . S
C889 H947 0.930 . S
C890 C893 1.348 . S
C890 C894 1.356 . S
C890 O941 1.325 . S
C891 N892 1.279 . S
C891 C894 1.358 . S
C891 H948 0.930 . S
N892 C891 1.279 . S
N892 C895 1.314 . S
C893 C890 1.348 . S
C893 C895 1.353 . S
C893 H949 0.929 . S
C894 C890 1.356 . S
C894 C891 1.358 . S
C894 H950 0.930 . S
C895 N892 1.314 . S
C895 C893 1.353 . S
C895 H951 0.930 . S
C896 N897 1.314 . S
C896 C901 1.353 . S
C896 H902 0.930 . S
N897 Li880 1.990 . S
N897 C896 1.314 . S
N897 C899 1.279 . S
C898 C899 1.358 . S
C898 C900 1.356 . S
C898 H952 0.930 . S
C899 N897 1.279 . S
C899 C898 1.358 . S
C899 H903 0.930 . S
C900 C898 1.356 . S
C900 C901 1.348 . S
C901 C896 1.353 . S
C901 C900 1.348 . S
C901 H953 0.929 . S
H902 C896 0.930 . S
H903 C899 0.930 . S
C904 N905 1.314 . S
C904 C906 1.353 . S
C904 H910 0.930 . S
N905 Li881 1.990 . S
N905 C904 1.314 . S
N905 C908 1.279 . S
C906 C904 1.353 . S
C906 C909 1.348 . S
C906 H954 0.929 . S
C907 C908 1.358 . S
C907 C909 1.356 . S
C907 H955 0.930 . S
C908 N905 1.279 . S
C908 C907 1.358 . S
C908 H911 0.930 . S
C909 C906 1.348 . S
C909 C907 1.356 . S
H910 C904 0.930 . S
H911 C908 0.930 . S
C912 C914 1.348 . S
C912 C915 1.356 . S
C912 O942 1.325 . S
N913 C916 1.314 . S
N913 C917 1.279 . S
C914 C912 1.348 . S
C914 C916 1.353 . S
C914 H956 0.929 . S
C915 C912 1.356 . S
C915 C917 1.358 . S
C915 H957 0.930 . S
C916 N913 1.314 . S
C916 C914 1.353 . S
C916 H958 0.930 . S
C917 N913 1.279 . S
C917 C915 1.358 . S
C917 H959 0.930 . S
C918 C919 1.348 . S
C918 C920 1.356 . S
C918 O943 1.325 . S
C919 C918 1.348 . S
C919 C921 1.353 . S
C919 H960 0.929 . S
C920 C918 1.356 . S
C920 C922 1.358 . S
C920 H961 0.930 . S
C921 C919 1.353 . S
C921 N923 1.314 . S
C921 H962 0.930 . S
C922 C920 1.358 . S
C922 N923 1.279 . S
C922 H963 0.930 . S
N923 C921 1.314 . S
N923 C922 1.279 . S
C924 C926 1.353 . S
C924 N927 1.314 . S
C924 H930 0.930 . S
C925 N927 1.279 . S
C925 C928 1.358 . S
C925 H931 0.930 . S
C926 C924 1.353 . S
C926 C929 1.348 . S
C926 H964 0.929 . S
N927 Li882 1.990 . S
N927 C924 1.314 . S
N927 C925 1.279 . S
C928 C925 1.358 . S
C928 C929 1.356 . S
C928 H965 0.930 . S
C929 C926 1.348 . S
C929 C928 1.356 . S
H930 C924 0.930 . S
H931 C925 0.930 . S
C932 N933 1.314 . S
C932 C934 1.353 . S
C932 H938 0.930 . S
N933 Li883 1.990 . S
N933 C932 1.314 . S
N933 C936 1.279 . S
C934 C932 1.353 . S
C934 C937 1.348 . S
C934 H966 0.929 . S
C935 C936 1.358 . S
C935 C937 1.356 . S
C935 H967 0.930 . S
C936 N933 1.279 . S
C936 C935 1.358 . S
C936 H939 0.930 . S
C937 C934 1.348 . S
C937 C935 1.356 . S
H938 C932 0.930 . S
H939 C936 0.930 . S
O940 Li880 1.956 . S
O940 Li881 1.970 . S
O940 Li882 1.961 . S
O940 C884 1.325 . S
O941 Li880 1.970 . S
O941 Li881 1.956 . S
O941 Li883 1.961 . S
O941 C890 1.325 . S
O942 Li880 1.961 . S
O942 Li882 1.956 . S
O942 Li883 1.970 . S
O942 C912 1.325 . S
O943 Li881 1.961 . S
O943 Li882 1.970 . S
O943 Li883 1.956 . S
O943 C918 1.325 . S
H944 C886 0.929 . S
H945 C887 0.930 . S
H946 C888 0.930 . S
H947 C889 0.930 . S
H948 C891 0.930 . S
H949 C893 0.929 . S
H950 C894 0.930 . S
H951 C895 0.930 . S
H952 C898 0.930 . S
H953 C901 0.929 . S
H954 C906 0.929 . S
H955 C907 0.930 . S
H956 C914 0.929 . S
H957 C915 0.930 . S
H958 C916 0.930 . S
H959 C917 0.930 . S
H960 C919 0.929 . S
H961 C920 0.930 . S
H962 C921 0.930 . S
H963 C922 0.930 . S
H964 C926 0.929 . S
H965 C928 0.930 . S
H966 C934 0.929 . S
H967 C935 0.930 . S
Li968 N985 1.990 . S
Li968 O1028 1.956 . S
Li968 O1029 1.970 . S
Li968 O1030 1.961 . S
Li969 N993 1.990 . S
Li969 O1028 1.970 . S
Li969 O1029 1.956 . S
Li969 O1031 1.961 . S
Li970 N1015 1.990 . S
Li970 O1028 1.961 . S
Li970 O1030 1.956 . S
Li970 O1031 1.970 . S
Li971 N1021 1.990 . S
Li971 O1029 1.961 . S
Li971 O1030 1.970 . S
Li971 O1031 1.956 . S
C972 C974 1.348 . S
C972 C975 1.356 . S
C972 O1028 1.325 . S
N973 C976 1.314 . S
N973 C977 1.279 . S
C974 C972 1.348 . S
C974 C976 1.353 . S
C974 H1032 0.929 . S
C975 C972 1.356 . S
C975 C977 1.358 . S
C975 H1033 0.930 . S
C976 N973 1.314 . S
C976 C974 1.353 . S
C976 H1034 0.930 . S
C977 N973 1.279 . S
C977 C975 1.358 . S
C977 H1035 0.930 . S
C978 C981 1.348 . S
C978 C982 1.356 . S
C978 O1029 1.325 . S
C979 N980 1.279 . S
C979 C982 1.358 . S
C979 H1036 0.930 . S
N980 C979 1.279 . S
N980 C983 1.314 . S
C981 C978 1.348 . S
C981 C983 1.353 . S
C981 H1037 0.929 . S
C982 C978 1.356 . S
C982 C979 1.358 . S
C982 H1038 0.930 . S
C983 N980 1.314 . S
C983 C981 1.353 . S
C983 H1039 0.930 . S
C984 N985 1.314 . S
C984 C989 1.353 . S
C984 H990 0.930 . S
N985 Li968 1.990 . S
N985 C984 1.314 . S
N985 C987 1.279 . S
C986 C987 1.358 . S
C986 C988 1.356 . S
C986 H1040 0.930 . S
C987 N985 1.279 . S
C987 C986 1.358 . S
C987 H991 0.930 . S
C988 C986 1.356 . S
C988 C989 1.348 . S
C989 C984 1.353 . S
C989 C988 1.348 . S
C989 H1041 0.929 . S
H990 C984 0.930 . S
H991 C987 0.930 . S
C992 N993 1.314 . S
C992 C994 1.353 . S
C992 H998 0.930 . S
N993 Li969 1.990 . S
N993 C992 1.314 . S
N993 C996 1.279 . S
C994 C992 1.353 . S
C994 C997 1.348 . S
C994 H1042 0.929 . S
C995 C996 1.358 . S
C995 C997 1.356 . S
C995 H1043 0.930 . S
C996 N993 1.279 . S
C996 C995 1.358 . S
C996 H999 0.930 . S
C997 C994 1.348 . S
C997 C995 1.356 . S
H998 C992 0.930 . S
H999 C996 0.930 . S
C1000 C1002 1.348 . S
C1000 C1003 1.356 . S
C1000 O1030 1.325 . S
N1001 C1004 1.314 . S
N1001 C1005 1.279 . S
C1002 C1000 1.348 . S
C1002 C1004 1.353 . S
C1002 H1044 0.929 . S
C1003 C1000 1.356 . S
C1003 C1005 1.358 . S
C1003 H1045 0.930 . S
C1004 N1001 1.314 . S
C1004 C1002 1.353 . S
C1004 H1046 0.930 . S
C1005 N1001 1.279 . S
C1005 C1003 1.358 . S
C1005 H1047 0.930 . S
C1006 C1007 1.348 . S
C1006 C1008 1.356 . S
C1006 O1031 1.325 . S
C1007 C1006 1.348 . S
C1007 C1009 1.353 . S
C1007 H1048 0.929 . S
C1008 C1006 1.356 . S
C1008 C1010 1.358 . S
C1008 H1049 0.930 . S
C1009 C1007 1.353 . S
C1009 N1011 1.314 . S
C1009 H1050 0.930 . S
C1010 C1008 1.358 . S
C1010 N1011 1.279 . S
C1010 H1051 0.930 . S
N1011 C1009 1.314 . S
N1011 C1010 1.279 . S
C1012 C1014 1.353 . S
C1012 N1015 1.314 . S
C1012 H1018 0.930 . S
C1013 N1015 1.279 . S
C1013 C1016 1.358 . S
C1013 H1019 0.930 . S
C1014 C1012 1.353 . S
C1014 C1017 1.348 . S
C1014 H1052 0.929 . S
N1015 Li970 1.990 . S
N1015 C1012 1.314 . S
N1015 C1013 1.279 . S
C1016 C1013 1.358 . S
C1016 C1017 1.356 . S
C1016 H1053 0.930 . S
C1017 C1014 1.348 . S
C1017 C1016 1.356 . S
H1018 C1012 0.930 . S
H1019 C1013 0.930 . S
C1020 N1021 1.314 . S
C1020 C1022 1.353 . S
C1020 H1026 0.930 . S
N1021 Li971 1.990 . S
N1021 C1020 1.314 . S
N1021 C1024 1.279 . S
C1022 C1020 1.353 . S
C1022 C1025 1.348 . S
C1022 H1054 0.929 . S
C1023 C1024 1.358 . S
C1023 C1025 1.356 . S
C1023 H1055 0.930 . S
C1024 N1021 1.279 . S
C1024 C1023 1.358 . S
C1024 H1027 0.930 . S
C1025 C1022 1.348 . S
C1025 C1023 1.356 . S
H1026 C1020 0.930 . S
H1027 C1024 0.930 . S
O1028 Li968 1.956 . S
O1028 Li969 1.970 . S
O1028 Li970 1.961 . S
O1028 C972 1.325 . S
O1029 Li968 1.970 . S
O1029 Li969 1.956 . S
O1029 Li971 1.961 . S
O1029 C978 1.325 . S
O1030 Li968 1.961 . S
O1030 Li970 1.956 . S
O1030 Li971 1.970 . S
O1030 C1000 1.325 . S
O1031 Li969 1.961 . S
O1031 Li970 1.970 . S
O1031 Li971 1.956 . S
O1031 C1006 1.325 . S
H1032 C974 0.929 . S
H1033 C975 0.930 . S
H1034 C976 0.930 . S
H1035 C977 0.930 . S
H1036 C979 0.930 . S
H1037 C981 0.929 . S
H1038 C982 0.930 . S
H1039 C983 0.930 . S
H1040 C986 0.930 . S
H1041 C989 0.929 . S
H1042 C994 0.929 . S
H1043 C995 0.930 . S
H1044 C1002 0.929 . S
H1045 C1003 0.930 . S
H1046 C1004 0.930 . S
H1047 C1005 0.930 . S
H1048 C1007 0.929 . S
H1049 C1008 0.930 . S
H1050 C1009 0.930 . S
H1051 C1010 0.930 . S
H1052 C1014 0.929 . S
H1053 C1016 0.930 . S
H1054 C1022 0.929 . S
H1055 C1023 0.930 . S
H1056 C1062 0.930 . S
H1057 C1066 0.930 . S
H1058 C1071 0.929 . S
H1059 C1069 0.929 . S
H1060 C1064 0.929 . S
H1061 C1070 0.929 . S
C1062 H1056 0.930 . S
C1062 C1063 1.367 . S
C1062 C1070 1.378 . S
C1063 C1062 1.367 . S
C1063 C1071 1.433 . S
C1064 H1060 0.929 . S
C1064 C1066 1.378 . S
C1064 C1068 1.350 . S
C1065 C1068 1.463 . S
C1065 C1070 1.350 . S
C1065 N1073 1.427 . S
C1066 H1057 0.930 . S
C1066 C1064 1.378 . S
C1066 C1067 1.367 . S
C1067 C1066 1.367 . S
C1067 C1069 1.433 . S
C1068 C1064 1.350 . S
C1068 C1065 1.463 . S
C1068 N1072 1.427 . S
C1069 H1059 0.929 . S
C1069 C1067 1.433 . S
C1069 N1072 1.384 . S
C1070 H1061 0.929 . S
C1070 C1062 1.378 . S
C1070 C1065 1.350 . S
C1071 H1058 0.929 . S
C1071 C1063 1.433 . S
C1071 N1073 1.384 . S
N1072 C1068 1.427 . S
N1072 C1069 1.384 . S
N1073 C1065 1.427 . S
N1073 C1071 1.384 . S
H1074 C1080 0.930 . S
H1075 C1084 0.930 . S
H1076 C1089 0.929 . S
H1077 C1087 0.929 . S
H1078 C1082 0.929 . S
H1079 C1088 0.929 . S
C1080 H1074 0.930 . S
C1080 C1081 1.367 . S
C1080 C1088 1.378 . S
C1081 C1080 1.367 . S
C1081 C1089 1.433 . S
C1082 H1078 0.929 . S
C1082 C1084 1.378 . S
C1082 C1086 1.350 . S
C1083 C1086 1.463 . S
C1083 C1088 1.350 . S
C1083 N1091 1.427 . S
C1084 H1075 0.930 . S
C1084 C1082 1.378 . S
C1084 C1085 1.367 . S
C1085 C1084 1.367 . S
C1085 C1087 1.433 . S
C1086 C1082 1.350 . S
C1086 C1083 1.463 . S
C1086 N1090 1.427 . S
C1087 H1077 0.929 . S
C1087 C1085 1.433 . S
C1087 N1090 1.384 . S
C1088 H1079 0.929 . S
C1088 C1080 1.378 . S
C1088 C1083 1.350 . S
C1089 H1076 0.929 . S
C1089 C1081 1.433 . S
C1089 N1091 1.384 . S
N1090 C1086 1.427 . S
N1090 C1087 1.384 . S
N1091 C1083 1.427 . S
N1091 C1089 1.384 . S
H1092 C1098 0.930 . S
H1093 C1102 0.930 . S
H1094 C1107 0.929 . S
H1095 C1105 0.929 . S
H1096 C1100 0.929 . S
H1097 C1106 0.929 . S
C1098 H1092 0.930 . S
C1098 C1099 1.367 . S
C1098 C1106 1.378 . S
C1099 C1098 1.367 . S
C1099 C1107 1.433 . S
C1100 H1096 0.929 . S
C1100 C1102 1.378 . S
C1100 C1104 1.350 . S
C1101 C1104 1.463 . S
C1101 C1106 1.350 . S
C1101 N1109 1.427 . S
C1102 H1093 0.930 . S
C1102 C1100 1.378 . S
C1102 C1103 1.367 . S
C1103 C1102 1.367 . S
C1103 C1105 1.433 . S
C1104 C1100 1.350 . S
C1104 C1101 1.463 . S
C1104 N1108 1.427 . S
C1105 H1095 0.929 . S
C1105 C1103 1.433 . S
C1105 N1108 1.384 . S
C1106 H1097 0.929 . S
C1106 C1098 1.378 . S
C1106 C1101 1.350 . S
C1107 H1094 0.929 . S
C1107 C1099 1.433 . S
C1107 N1109 1.384 . S
N1108 C1104 1.427 . S
N1108 C1105 1.384 . S
N1109 C1101 1.427 . S
N1109 C1107 1.384 . S
H1110 C1116 0.930 . S
H1111 C1120 0.930 . S
H1112 C1125 0.929 . S
H1113 C1123 0.929 . S
H1114 C1118 0.929 . S
H1115 C1124 0.929 . S
C1116 H1110 0.930 . S
C1116 C1117 1.367 . S
C1116 C1124 1.378 . S
C1117 C1116 1.367 . S
C1117 C1125 1.433 . S
C1118 H1114 0.929 . S
C1118 C1120 1.378 . S
C1118 C1122 1.350 . S
C1119 C1122 1.463 . S
C1119 C1124 1.350 . S
C1119 N1127 1.427 . S
C1120 H1111 0.930 . S
C1120 C1118 1.378 . S
C1120 C1121 1.367 . S
C1121 C1120 1.367 . S
C1121 C1123 1.433 . S
C1122 C1118 1.350 . S
C1122 C1119 1.463 . S
C1122 N1126 1.427 . S
C1123 H1113 0.929 . S
C1123 C1121 1.433 . S
C1123 N1126 1.384 . S
C1124 H1115 0.929 . S
C1124 C1116 1.378 . S
C1124 C1119 1.350 . S
C1125 H1112 0.929 . S
C1125 C1117 1.433 . S
C1125 N1127 1.384 . S
N1126 C1122 1.427 . S
N1126 C1123 1.384 . S
N1127 C1119 1.427 . S
N1127 C1125 1.384 . S
H1128 C1134 0.930 . S
H1129 C1138 0.930 . S
H1130 C1143 0.929 . S
H1131 C1141 0.929 . S
H1132 C1136 0.929 . S
H1133 C1142 0.929 . S
C1134 H1128 0.930 . S
C1134 C1135 1.367 . S
C1134 C1142 1.378 . S
C1135 C1134 1.367 . S
C1135 C1143 1.433 . S
C1136 H1132 0.929 . S
C1136 C1138 1.378 . S
C1136 C1140 1.350 . S
C1137 C1140 1.463 . S
C1137 C1142 1.350 . S
C1137 N1145 1.427 . S
C1138 H1129 0.930 . S
C1138 C1136 1.378 . S
C1138 C1139 1.367 . S
C1139 C1138 1.367 . S
C1139 C1141 1.433 . S
C1140 C1136 1.350 . S
C1140 C1137 1.463 . S
C1140 N1144 1.427 . S
C1141 H1131 0.929 . S
C1141 C1139 1.433 . S
C1141 N1144 1.384 . S
C1142 H1133 0.929 . S
C1142 C1134 1.378 . S
C1142 C1137 1.350 . S
C1143 H1130 0.929 . S
C1143 C1135 1.433 . S
C1143 N1145 1.384 . S
N1144 C1140 1.427 . S
N1144 C1141 1.384 . S
N1145 C1137 1.427 . S
N1145 C1143 1.384 . S
H1146 C1152 0.930 . S
H1147 C1156 0.930 . S
H1148 C1161 0.929 . S
H1149 C1159 0.929 . S
H1150 C1154 0.929 . S
H1151 C1160 0.929 . S
C1152 H1146 0.930 . S
C1152 C1153 1.367 . S
C1152 C1160 1.378 . S
C1153 C1152 1.367 . S
C1153 C1161 1.433 . S
C1154 H1150 0.929 . S
C1154 C1156 1.378 . S
C1154 C1158 1.350 . S
C1155 C1158 1.463 . S
C1155 C1160 1.350 . S
C1155 N1163 1.427 . S
C1156 H1147 0.930 . S
C1156 C1154 1.378 . S
C1156 C1157 1.367 . S
C1157 C1156 1.367 . S
C1157 C1159 1.433 . S
C1158 C1154 1.350 . S
C1158 C1155 1.463 . S
C1158 N1162 1.427 . S
C1159 H1149 0.929 . S
C1159 C1157 1.433 . S
C1159 N1162 1.384 . S
C1160 H1151 0.929 . S
C1160 C1152 1.378 . S
C1160 C1155 1.350 . S
C1161 H1148 0.929 . S
C1161 C1153 1.433 . S
C1161 N1163 1.384 . S
N1162 C1158 1.427 . S
N1162 C1159 1.384 . S
N1163 C1155 1.427 . S
N1163 C1161 1.384 . S
H1164 C1170 0.930 . S
H1165 C1174 0.930 . S
H1166 C1179 0.929 . S
H1167 C1177 0.929 . S
H1168 C1172 0.929 . S
H1169 C1178 0.929 . S
C1170 H1164 0.930 . S
C1170 C1171 1.367 . S
C1170 C1178 1.378 . S
C1171 C1170 1.367 . S
C1171 C1179 1.433 . S
C1172 H1168 0.929 . S
C1172 C1174 1.378 . S
C1172 C1176 1.350 . S
C1173 C1176 1.463 1_544 S
C1173 C1178 1.350 . S
C1173 N1181 1.427 . S
C1174 H1165 0.930 . S
C1174 C1172 1.378 . S
C1174 C1175 1.367 . S
C1175 C1174 1.367 . S
C1175 C1177 1.433 . S
C1176 C1172 1.350 . S
C1176 C1173 1.463 1_566 S
C1176 N1180 1.427 . S
C1177 H1167 0.929 . S
C1177 C1175 1.433 . S
C1177 N1180 1.384 . S
C1178 H1169 0.929 . S
C1178 C1170 1.378 . S
C1178 C1173 1.350 . S
C1179 H1166 0.929 . S
C1179 C1171 1.433 . S
C1179 N1181 1.384 . S
N1180 C1176 1.427 . S
N1180 C1177 1.384 . S
N1181 C1173 1.427 . S
N1181 C1179 1.384 . S
H1182 C1188 0.930 . S
H1183 C1192 0.930 . S
H1184 C1197 0.929 . S
H1185 C1195 0.929 . S
H1186 C1190 0.929 . S
H1187 C1196 0.929 . S
C1188 H1182 0.930 . S
C1188 C1189 1.367 . S
C1188 C1196 1.378 . S
C1189 C1188 1.367 . S
C1189 C1197 1.433 . S
C1190 H1186 0.929 . S
C1190 C1192 1.378 . S
C1190 C1194 1.350 . S
C1191 C1194 1.463 . S
C1191 C1196 1.350 . S
C1191 N1199 1.427 . S
C1192 H1183 0.930 . S
C1192 C1190 1.378 . S
C1192 C1193 1.367 . S
C1193 C1192 1.367 . S
C1193 C1195 1.433 . S
C1194 C1190 1.350 . S
C1194 C1191 1.463 . S
C1194 N1198 1.427 . S
C1195 H1185 0.929 . S
C1195 C1193 1.433 . S
C1195 N1198 1.384 . S
C1196 H1187 0.929 . S
C1196 C1188 1.378 . S
C1196 C1191 1.350 . S
C1197 H1184 0.929 . S
C1197 C1189 1.433 . S
C1197 N1199 1.384 . S
N1198 C1194 1.427 . S
N1198 C1195 1.384 . S
N1199 C1191 1.427 . S
N1199 C1197 1.384 . S
H1200 C1206 0.930 . S
H1201 C1210 0.930 . S
H1202 C1215 0.929 1_554 S
H1203 C1213 0.937 . S
H1204 C1208 0.929 . S
H1205 C1214 0.929 . S
C1206 H1200 0.930 . S
C1206 C1207 1.367 . S
C1206 C1214 1.378 . S
C1207 C1206 1.367 . S
C1207 C1215 1.433 . S
C1208 H1204 0.929 . S
C1208 C1210 1.378 . S
C1208 C1212 1.350 . S
C1209 C1212 1.463 1_456 S
C1209 C1214 1.350 . S
C1209 N1217 1.427 1_456 S
C1210 H1201 0.930 . S
C1210 C1208 1.378 . S
C1210 C1211 1.367 . S
C1211 C1210 1.367 . S
C1211 C1213 1.418 1_554 S
C1212 C1208 1.350 . S
C1212 C1209 1.463 1_654 S
C1212 N1216 1.427 1_554 S
C1213 H1203 0.937 . S
C1213 C1211 1.418 1_556 S
C1213 N1216 1.390 . S
C1214 H1205 0.929 . S
C1214 C1206 1.378 . S
C1214 C1209 1.350 . S
C1215 H1202 0.929 1_556 S
C1215 C1207 1.433 . S
C1215 N1217 1.384 1_456 S
N1216 C1212 1.427 1_556 S
N1216 C1213 1.390 . S
N1217 C1209 1.427 1_654 S
N1217 C1215 1.384 1_654 S
H1218 C1224 0.930 . S
H1219 C1228 0.930 . S
H1220 C1233 0.929 . S
H1221 C1231 0.929 . S
H1222 C1226 0.929 1_545 S
H1223 C1232 0.929 1_565 S
C1224 H1218 0.930 . S
C1224 C1225 1.367 . S
C1224 C1232 1.378 . S
C1225 C1224 1.367 . S
C1225 C1233 1.433 . S
C1226 H1222 0.929 1_565 S
C1226 C1228 1.378 . S
C1226 C1230 1.350 . S
C1227 C1230 1.463 1_545 S
C1227 C1232 1.350 . S
C1227 N1235 1.427 . S
C1228 H1219 0.930 . S
C1228 C1226 1.378 . S
C1228 C1229 1.367 . S
C1229 C1228 1.367 . S
C1229 C1231 1.433 . S
C1230 C1226 1.350 . S
C1230 C1227 1.463 1_565 S
C1230 N1234 1.427 . S
C1231 H1221 0.929 . S
C1231 C1229 1.433 . S
C1231 N1234 1.384 . S
C1232 H1223 0.929 1_545 S
C1232 C1224 1.378 . S
C1232 C1227 1.350 . S
C1233 H1220 0.929 . S
C1233 C1225 1.433 . S
C1233 N1235 1.384 . S
N1234 C1230 1.427 . S
N1234 C1231 1.384 . S
N1235 C1227 1.427 . S
N1235 C1233 1.384 . S
H1236 C1242 0.930 1_554 S
H1237 C1246 0.952 . S
H1238 C1251 0.929 . S
H1239 C1249 0.929 . S
H1240 C1244 0.929 . S
H1241 C1250 0.929 . S
C1242 H1236 0.930 1_556 S
C1242 C1243 1.367 . S
C1242 C1250 1.378 1_556 S
C1243 C1242 1.367 . S
C1243 C1251 1.433 . S
C1244 H1240 0.929 . S
C1244 C1246 1.378 1_556 S
C1244 C1248 1.350 1_556 S
C1245 C1248 1.463 1_556 S
C1245 C1250 1.350 1_556 S
C1245 N1253 1.427 . S
C1246 H1237 0.952 . S
C1246 C1244 1.378 1_554 S
C1246 C1247 1.367 . S
C1247 C1246 1.367 . S
C1247 C1249 1.433 . S
C1248 C1244 1.350 1_554 S
C1248 C1245 1.463 1_554 S
C1248 N1252 1.427 . S
C1249 H1239 0.929 . S
C1249 C1247 1.433 . S
C1249 N1252 1.384 . S
C1250 H1241 0.929 . S
C1250 C1242 1.378 1_554 S
C1250 C1245 1.350 1_554 S
C1251 H1238 0.929 . S
C1251 C1243 1.433 . S
C1251 N1253 1.384 . S
N1252 C1248 1.427 . S
N1252 C1249 1.384 . S
N1253 C1245 1.427 . S
N1253 C1251 1.384 . S
H1254 C1260 0.930 . S
H1255 C1264 0.930 . S
H1256 C1269 0.929 1_455 S
H1257 C1267 0.929 . S
H1258 C1262 0.929 . S
H1259 C1268 0.929 . S
C1260 H1254 0.930 . S
C1260 C1261 1.367 . S
C1260 C1268 1.378 . S
C1261 C1260 1.367 . S
C1261 C1269 1.433 . S
C1262 H1258 0.929 . S
C1262 C1264 1.378 . S
C1262 C1266 1.350 . S
C1263 C1266 1.463 1_655 S
C1263 C1268 1.350 . S
C1263 N1271 1.427 1_655 S
C1264 H1255 0.930 . S
C1264 C1262 1.378 . S
C1264 C1265 1.367 . S
C1265 C1264 1.367 . S
C1265 C1267 1.433 . S
C1266 C1262 1.350 . S
C1266 C1263 1.463 1_455 S
C1266 N1270 1.418 1_455 S
C1267 H1257 0.929 . S
C1267 C1265 1.433 . S
C1267 N1270 1.385 1_455 S
C1268 H1259 0.929 . S
C1268 C1260 1.378 . S
C1268 C1263 1.350 . S
C1269 H1256 0.929 1_655 S
C1269 C1261 1.433 . S
C1269 N1271 1.384 1_655 S
N1270 C1266 1.418 1_655 S
N1270 C1267 1.385 1_655 S
N1271 C1263 1.427 1_455 S
N1271 C1269 1.384 1_455 S
H1272 C1278 0.930 . S
H1273 C1282 0.930 . S
H1274 C1287 0.929 . S
H1275 C1285 0.929 . S
H1276 C1280 0.929 . S
H1277 C1286 0.929 . S
C1278 H1272 0.930 . S
C1278 C1279 1.367 . S
C1278 C1286 1.378 . S
C1279 C1278 1.367 . S
C1279 C1287 1.433 . S
C1280 H1276 0.929 . S
C1280 C1282 1.378 . S
C1280 C1284 1.350 . S
C1281 C1284 1.463 . S
C1281 C1286 1.350 . S
C1281 N1289 1.427 . S
C1282 H1273 0.930 . S
C1282 C1280 1.378 . S
C1282 C1283 1.367 . S
C1283 C1282 1.367 . S
C1283 C1285 1.433 . S
C1284 C1280 1.350 . S
C1284 C1281 1.463 . S
C1284 N1288 1.427 . S
C1285 H1275 0.929 . S
C1285 C1283 1.433 . S
C1285 N1288 1.384 . S
C1286 H1277 0.929 . S
C1286 C1278 1.378 . S
C1286 C1281 1.350 . S
C1287 H1274 0.929 . S
C1287 C1279 1.433 . S
C1287 N1289 1.384 . S
N1288 C1284 1.427 . S
N1288 C1285 1.384 . S
N1289 C1281 1.427 . S
N1289 C1287 1.384 . S
H1290 C1296 0.930 . S
H1291 C1300 0.930 . S
H1292 C1305 0.929 . S
H1293 C1303 0.929 . S
H1294 C1298 0.929 . S
H1295 C1304 0.929 . S
C1296 H1290 0.930 . S
C1296 C1297 1.367 . S
C1296 C1304 1.378 . S
C1297 C1296 1.367 . S
C1297 C1305 1.433 . S
C1298 H1294 0.929 . S
C1298 C1300 1.378 . S
C1298 C1302 1.350 . S
C1299 C1302 1.463 . S
C1299 C1304 1.350 . S
C1299 N1307 1.427 . S
C1300 H1291 0.930 . S
C1300 C1298 1.378 . S
C1300 C1301 1.367 . S
C1301 C1300 1.367 . S
C1301 C1303 1.433 . S
C1302 C1298 1.350 . S
C1302 C1299 1.463 . S
C1302 N1306 1.427 . S
C1303 H1293 0.929 . S
C1303 C1301 1.433 . S
C1303 N1306 1.384 . S
C1304 H1295 0.929 . S
C1304 C1296 1.378 . S
C1304 C1299 1.350 . S
C1305 H1292 0.929 . S
C1305 C1297 1.433 . S
C1305 N1307 1.384 . S
N1306 C1302 1.427 . S
N1306 C1303 1.384 . S
N1307 C1299 1.427 . S
N1307 C1305 1.384 . S
H1308 C1314 0.930 . S
H1309 C1318 0.930 . S
H1310 C1323 0.929 . S
H1311 C1321 0.929 . S
H1312 C1316 0.929 . S
H1313 C1322 0.929 . S
C1314 H1308 0.930 . S
C1314 C1315 1.367 . S
C1314 C1322 1.378 . S
C1315 C1314 1.367 . S
C1315 C1323 1.433 . S
C1316 H1312 0.929 . S
C1316 C1318 1.378 . S
C1316 C1320 1.350 . S
C1317 C1320 1.463 . S
C1317 C1322 1.350 . S
C1317 N1325 1.427 . S
C1318 H1309 0.930 . S
C1318 C1316 1.378 . S
C1318 C1319 1.367 . S
C1319 C1318 1.367 . S
C1319 C1321 1.433 . S
C1320 C1316 1.350 . S
C1320 C1317 1.463 . S
C1320 N1324 1.427 . S
C1321 H1311 0.929 . S
C1321 C1319 1.433 . S
C1321 N1324 1.384 . S
C1322 H1313 0.929 . S
C1322 C1314 1.378 . S
C1322 C1317 1.350 . S
C1323 H1310 0.929 . S
C1323 C1315 1.433 . S
C1323 N1325 1.384 . S
N1324 C1320 1.427 . S
N1324 C1321 1.384 . S
N1325 C1317 1.427 . S
N1325 C1323 1.384 . S
H1326 C1332 0.930 . S
H1327 C1336 0.930 . S
H1328 C1341 0.929 . S
H1329 C1339 0.929 . S
H1330 C1334 0.929 . S
H1331 C1340 0.929 . S
C1332 H1326 0.930 . S
C1332 C1333 1.367 . S
C1332 C1340 1.378 . S
C1333 C1332 1.367 . S
C1333 C1341 1.433 . S
C1334 H1330 0.929 . S
C1334 C1336 1.378 . S
C1334 C1338 1.350 . S
C1335 C1338 1.463 . S
C1335 C1340 1.350 . S
C1335 N1343 1.427 . S
C1336 H1327 0.930 . S
C1336 C1334 1.378 . S
C1336 C1337 1.367 . S
C1337 C1336 1.367 . S
C1337 C1339 1.433 . S
C1338 C1334 1.350 . S
C1338 C1335 1.463 . S
C1338 N1342 1.427 . S
C1339 H1329 0.929 . S
C1339 C1337 1.433 . S
C1339 N1342 1.384 . S
C1340 H1331 0.929 . S
C1340 C1332 1.378 . S
C1340 C1335 1.350 . S
C1341 H1328 0.929 . S
C1341 C1333 1.433 . S
C1341 N1343 1.384 . S
N1342 C1338 1.427 . S
N1342 C1339 1.384 . S
N1343 C1335 1.427 . S
N1343 C1341 1.384 . S
H1344 C1350 0.930 . S
H1345 C1354 0.930 . S
H1346 C1359 0.929 . S
H1347 C1357 0.929 . S
H1348 C1352 0.929 . S
H1349 C1358 0.929 . S
C1350 H1344 0.930 . S
C1350 C1351 1.367 . S
C1350 C1358 1.378 . S
C1351 C1350 1.367 . S
C1351 C1359 1.433 . S
C1352 H1348 0.929 . S
C1352 C1354 1.378 . S
C1352 C1356 1.350 . S
C1353 C1356 1.463 . S
C1353 C1358 1.350 . S
C1353 N1361 1.427 . S
C1354 H1345 0.930 . S
C1354 C1352 1.378 . S
C1354 C1355 1.367 . S
C1355 C1354 1.367 . S
C1355 C1357 1.433 . S
C1356 C1352 1.350 . S
C1356 C1353 1.463 . S
C1356 N1360 1.427 . S
C1357 H1347 0.929 . S
C1357 C1355 1.433 . S
C1357 N1360 1.384 . S
C1358 H1349 0.929 . S
C1358 C1350 1.378 . S
C1358 C1353 1.350 . S
C1359 H1346 0.929 . S
C1359 C1351 1.433 . S
C1359 N1361 1.384 . S
N1360 C1356 1.427 . S
N1360 C1357 1.384 . S
N1361 C1353 1.427 . S
N1361 C1359 1.384 . S
H1362 C1368 0.930 . S
H1363 C1372 0.930 . S
H1364 C1377 0.929 . S
H1365 C1375 0.929 . S
H1366 C1370 0.929 . S
H1367 C1376 0.929 . S
C1368 H1362 0.930 . S
C1368 C1369 1.367 . S
C1368 C1376 1.378 . S
C1369 C1368 1.367 . S
C1369 C1377 1.433 . S
C1370 H1366 0.929 . S
C1370 C1372 1.378 . S
C1370 C1374 1.350 . S
C1371 C1374 1.463 . S
C1371 C1376 1.350 . S
C1371 N1379 1.427 . S
C1372 H1363 0.930 . S
C1372 C1370 1.378 . S
C1372 C1373 1.367 . S
C1373 C1372 1.367 . S
C1373 C1375 1.433 . S
C1374 C1370 1.350 . S
C1374 C1371 1.463 . S
C1374 N1378 1.427 . S
C1375 H1365 0.929 . S
C1375 C1373 1.433 . S
C1375 N1378 1.384 . S
C1376 H1367 0.929 . S
C1376 C1368 1.378 . S
C1376 C1371 1.350 . S
C1377 H1364 0.929 . S
C1377 C1369 1.433 . S
C1377 N1379 1.384 . S
N1378 C1374 1.427 . S
N1378 C1375 1.384 . S
N1379 C1371 1.427 . S
N1379 C1377 1.384 . S
H1380 C1386 0.930 . S
H1381 C1390 0.930 . S
H1382 C1395 0.929 . S
H1383 C1393 0.929 . S
H1384 C1388 0.929 . S
H1385 C1394 0.929 . S
C1386 H1380 0.930 . S
C1386 C1387 1.367 . S
C1386 C1394 1.378 . S
C1387 C1386 1.367 . S
C1387 C1395 1.433 . S
C1388 H1384 0.929 . S
C1388 C1390 1.378 . S
C1388 C1392 1.350 . S
C1389 C1392 1.463 . S
C1389 C1394 1.350 . S
C1389 N1397 1.427 . S
C1390 H1381 0.930 . S
C1390 C1388 1.378 . S
C1390 C1391 1.367 . S
C1391 C1390 1.367 . S
C1391 C1393 1.433 . S
C1392 C1388 1.350 . S
C1392 C1389 1.463 . S
C1392 N1396 1.427 . S
C1393 H1383 0.929 . S
C1393 C1391 1.433 . S
C1393 N1396 1.384 . S
C1394 H1385 0.929 . S
C1394 C1386 1.378 . S
C1394 C1389 1.350 . S
C1395 H1382 0.929 . S
C1395 C1387 1.433 . S
C1395 N1397 1.384 . S
N1396 C1392 1.427 . S
N1396 C1393 1.384 . S
N1397 C1389 1.427 . S
N1397 C1395 1.384 . S
H1398 C1404 0.930 . S
H1399 C1408 0.930 . S
H1400 C1413 0.929 . S
H1401 C1411 0.929 . S
H1402 C1406 0.929 . S
H1403 C1412 0.929 . S
C1404 H1398 0.930 . S
C1404 C1405 1.367 . S
C1404 C1412 1.378 . S
C1405 C1404 1.367 . S
C1405 C1413 1.433 . S
C1406 H1402 0.929 . S
C1406 C1408 1.378 . S
C1406 C1410 1.350 . S
C1407 C1410 1.463 . S
C1407 C1412 1.350 . S
C1407 N1415 1.427 . S
C1408 H1399 0.930 . S
C1408 C1406 1.378 . S
C1408 C1409 1.367 . S
C1409 C1408 1.367 . S
C1409 C1411 1.433 . S
C1410 C1406 1.350 . S
C1410 C1407 1.463 . S
C1410 N1414 1.427 . S
C1411 H1401 0.929 . S
C1411 C1409 1.433 . S
C1411 N1414 1.384 . S
C1412 H1403 0.929 . S
C1412 C1404 1.378 . S
C1412 C1407 1.350 . S
C1413 H1400 0.929 . S
C1413 C1405 1.433 . S
C1413 N1415 1.384 . S
N1414 C1410 1.427 . S
N1414 C1411 1.384 . S
N1415 C1407 1.427 . S
N1415 C1413 1.384 . S
H1416 C1422 0.930 . S
H1417 C1426 0.930 . S
H1418 C1431 0.929 . S
H1419 C1429 0.929 . S
H1420 C1424 0.929 . S
H1421 C1430 0.929 . S
C1422 H1416 0.930 . S
C1422 C1423 1.367 . S
C1422 C1430 1.378 . S
C1423 C1422 1.367 . S
C1423 C1431 1.433 . S
C1424 H1420 0.929 . S
C1424 C1426 1.378 . S
C1424 C1428 1.350 . S
C1425 C1428 1.463 . S
C1425 C1430 1.350 . S
C1425 N1433 1.427 . S
C1426 H1417 0.930 . S
C1426 C1424 1.378 . S
C1426 C1427 1.367 . S
C1427 C1426 1.367 . S
C1427 C1429 1.433 . S
C1428 C1424 1.350 . S
C1428 C1425 1.463 . S
C1428 N1432 1.427 . S
C1429 H1419 0.929 . S
C1429 C1427 1.433 . S
C1429 N1432 1.384 . S
C1430 H1421 0.929 . S
C1430 C1422 1.378 . S
C1430 C1425 1.350 . S
C1431 H1418 0.929 . S
C1431 C1423 1.433 . S
C1431 N1433 1.384 . S
N1432 C1428 1.427 . S
N1432 C1429 1.384 . S
N1433 C1425 1.427 . S
N1433 C1431 1.384 . S
H1434 C1440 0.930 . S
H1435 C1444 0.930 . S
H1436 C1449 0.929 . S
H1437 C1447 0.929 . S
H1438 C1442 0.929 . S
H1439 C1448 0.929 . S
C1440 H1434 0.930 . S
C1440 C1441 1.367 . S
C1440 C1448 1.378 . S
C1441 C1440 1.367 . S
C1441 C1449 1.433 . S
C1442 H1438 0.929 . S
C1442 C1444 1.378 . S
C1442 C1446 1.350 . S
C1443 C1446 1.463 . S
C1443 C1448 1.350 . S
C1443 N1451 1.427 . S
C1444 H1435 0.930 . S
C1444 C1442 1.378 . S
C1444 C1445 1.367 . S
C1445 C1444 1.367 . S
C1445 C1447 1.433 . S
C1446 C1442 1.350 . S
C1446 C1443 1.463 . S
C1446 N1450 1.427 . S
C1447 H1437 0.929 . S
C1447 C1445 1.433 . S
C1447 N1450 1.384 . S
C1448 H1439 0.929 . S
C1448 C1440 1.378 . S
C1448 C1443 1.350 . S
C1449 H1436 0.929 . S
C1449 C1441 1.433 . S
C1449 N1451 1.384 . S
N1450 C1446 1.427 . S
N1450 C1447 1.384 . S
N1451 C1443 1.427 . S
N1451 C1449 1.384 . S
H1452 C1458 0.930 . S
H1453 C1462 0.930 . S
H1454 C1467 0.929 . S
H1455 C1465 0.929 . S
H1456 C1460 0.929 . S
H1457 C1466 0.929 . S
C1458 H1452 0.930 . S
C1458 C1459 1.367 . S
C1458 C1466 1.378 . S
C1459 C1458 1.367 . S
C1459 C1467 1.433 . S
C1460 H1456 0.929 . S
C1460 C1462 1.378 . S
C1460 C1464 1.350 . S
C1461 C1464 1.463 . S
C1461 C1466 1.350 . S
C1461 N1469 1.427 . S
C1462 H1453 0.930 . S
C1462 C1460 1.378 . S
C1462 C1463 1.367 . S
C1463 C1462 1.367 . S
C1463 C1465 1.433 . S
C1464 C1460 1.350 . S
C1464 C1461 1.463 . S
C1464 N1468 1.427 . S
C1465 H1455 0.929 . S
C1465 C1463 1.433 . S
C1465 N1468 1.384 . S
C1466 H1457 0.929 . S
C1466 C1458 1.378 . S
C1466 C1461 1.350 . S
C1467 H1454 0.929 . S
C1467 C1459 1.433 . S
C1467 N1469 1.384 . S
N1468 C1464 1.427 . S
N1468 C1465 1.384 . S
N1469 C1461 1.427 . S
N1469 C1467 1.384 . S
H1470 C1476 0.930 . S
H1471 C1480 0.930 . S
H1472 C1485 0.929 . S
H1473 C1483 0.929 . S
H1474 C1478 0.929 . S
H1475 C1484 0.929 . S
C1476 H1470 0.930 . S
C1476 C1477 1.367 . S
C1476 C1484 1.378 . S
C1477 C1476 1.367 . S
C1477 C1485 1.433 . S
C1478 H1474 0.929 . S
C1478 C1480 1.378 . S
C1478 C1482 1.350 . S
C1479 C1482 1.463 . S
C1479 C1484 1.350 . S
C1479 N1487 1.427 . S
C1480 H1471 0.930 . S
C1480 C1478 1.378 . S
C1480 C1481 1.367 . S
C1481 C1480 1.367 . S
C1481 C1483 1.433 . S
C1482 C1478 1.350 . S
C1482 C1479 1.463 . S
C1482 N1486 1.427 . S
C1483 H1473 0.929 . S
C1483 C1481 1.433 . S
C1483 N1486 1.384 . S
C1484 H1475 0.929 . S
C1484 C1476 1.378 . S
C1484 C1479 1.350 . S
C1485 H1472 0.929 . S
C1485 C1477 1.433 . S
C1485 N1487 1.384 . S
N1486 C1482 1.427 . S
N1486 C1483 1.384 . S
N1487 C1479 1.427 . S
N1487 C1485 1.384 . S
C1063 C929 1.607 . S
C1067 C57 1.603 . S
C1081 C117 1.506 . S
C1085 C1017 1.517 . S
C1099 C205 1.560 . S
C1103 C577 1.564 . S
C1117 C636 1.600 . S
C1121 C293 1.609 . S
C1135 C761 1.511 . S
C1139 C372 1.511 . S
C1153 C460 1.565 . S
C1157 C849 1.561 . S
C1171 C49 0.555 . S
C1175 C645 0.550 . S
C1189 C137 1.321 . S
C1193 C724 1.308 . S
C1207 C812 1.238 . S
C1211 C225 1.226 . S
C1225 C937 0.563 . S
C1229 C284 0.571 . S
C1243 C997 1.310 . S
C1247 C409 1.322 . S
C1261 C557 1.238 . S
C1265 C497 1.225 . S
C1279 C20 1.076 . S
C1283 C381 1.000 . S
C1297 C145 0.807 . S
C1301 C469 0.805 . S
C1315 C233 0.925 . S
C1319 C29 0.948 . S
C1333 C313 1.077 . S
C1337 C108 0.996 . S
C1351 C401 0.801 . S
C1355 C196 0.811 . S
C1369 C489 0.935 . S
C1373 C321 0.943 . S
C1387 C548 0.799 . S
C1391 C753 0.812 . S
C1405 C673 0.962 . S
C1409 C841 0.940 . S
C1423 C900 1.060 . S
C1427 C733 0.993 . S
C1441 C821 0.800 . S
C1445 C1025 0.811 . S
C1459 C909 0.972 . S
C1463 C585 0.923 . S
C1477 C988 0.992 . S
C1481 C665 1.060 . S
