# Generated by pormake.
# Topology uko, (4)-cn, num edge types: 1
# Building blocks:
#     Node 0, Type 0, BuildingBlock: QUQFOY_clean_sbu_1, # of connection points: 4
#     Node 1, Type 0, BuildingBlock: QUQFOY_clean_sbu_1, # of connection points: 4
#     Node 2, Type 0, BuildingBlock: QUQFOY_clean_sbu_1, # of connection points: 4
#     Node 3, Type 0, BuildingBlock: QUQFOY_clean_sbu_1, # of connection points: 4
#     Node 4, Type 0, BuildingBlock: QUQFOY_clean_sbu_1, # of connection points: 4
#     Node 5, Type 0, BuildingBlock: QUQFOY_clean_sbu_1, # of connection points: 4
#     Node 6, Type 0, BuildingBlock: QUQFOY_clean_sbu_1, # of connection points: 4
#     Node 7, Type 0, BuildingBlock: QUQFOY_clean_sbu_1, # of connection points: 4
#     Node 8, Type 0, BuildingBlock: QUQFOY_clean_sbu_1, # of connection points: 4
#     Node 9, Type 0, BuildingBlock: QUQFOY_clean_sbu_1, # of connection points: 4
#     Node 10, Type 0, BuildingBlock: QUQFOY_clean_sbu_1, # of connection points: 4
#     Node 11, Type 0, BuildingBlock: QUQFOY_clean_sbu_1, # of connection points: 4
#     Node 12, Type 0, BuildingBlock: QUQFOY_clean_sbu_1, # of connection points: 4
#     Node 13, Type 0, BuildingBlock: QUQFOY_clean_sbu_1, # of connection points: 4
#     Node 14, Type 0, BuildingBlock: QUQFOY_clean_sbu_1, # of connection points: 4
#     Node 15, Type 0, BuildingBlock: QUQFOY_clean_sbu_1, # of connection points: 4
#     Node 16, Type 0, BuildingBlock: QUQFOY_clean_sbu_1, # of connection points: 4
#     Node 17, Type 0, BuildingBlock: QUQFOY_clean_sbu_1, # of connection points: 4
#     Node 18, Type 0, BuildingBlock: QUQFOY_clean_sbu_1, # of connection points: 4
#     Node 19, Type 0, BuildingBlock: QUQFOY_clean_sbu_1, # of connection points: 4
#     Node 20, Type 0, BuildingBlock: QUQFOY_clean_sbu_1, # of connection points: 4
#     Node 21, Type 0, BuildingBlock: QUQFOY_clean_sbu_1, # of connection points: 4
#     Node 22, Type 0, BuildingBlock: QUQFOY_clean_sbu_1, # of connection points: 4
#     Node 23, Type 0, BuildingBlock: QUQFOY_clean_sbu_1, # of connection points: 4
#     Node 24, Type 0, BuildingBlock: QUQFOY_clean_sbu_1, # of connection points: 4
#     Node 25, Type 0, BuildingBlock: QUQFOY_clean_sbu_1, # of connection points: 4
#     Node 26, Type 0, BuildingBlock: QUQFOY_clean_sbu_1, # of connection points: 4
#     Node 27, Type 0, BuildingBlock: QUQFOY_clean_sbu_1, # of connection points: 4
#     Node 28, Type 0, BuildingBlock: QUQFOY_clean_sbu_1, # of connection points: 4
#     Node 29, Type 0, BuildingBlock: QUQFOY_clean_sbu_1, # of connection points: 4
#     Node 30, Type 0, BuildingBlock: QUQFOY_clean_sbu_1, # of connection points: 4
#     Node 31, Type 0, BuildingBlock: QUQFOY_clean_sbu_1, # of connection points: 4
#     Node 32, Type 0, BuildingBlock: QUQFOY_clean_sbu_1, # of connection points: 4
#     Node 33, Type 0, BuildingBlock: QUQFOY_clean_sbu_1, # of connection points: 4
#     Node 34, Type 0, BuildingBlock: QUQFOY_clean_sbu_1, # of connection points: 4
#     Node 35, Type 0, BuildingBlock: QUQFOY_clean_sbu_1, # of connection points: 4
#     Node 36, Type 0, BuildingBlock: QUQFOY_clean_sbu_1, # of connection points: 4
#     Node 37, Type 0, BuildingBlock: QUQFOY_clean_sbu_1, # of connection points: 4
#     Node 38, Type 0, BuildingBlock: QUQFOY_clean_sbu_1, # of connection points: 4
#     Node 39, Type 0, BuildingBlock: QUQFOY_clean_sbu_1, # of connection points: 4
#     Node 40, Type 0, BuildingBlock: QUQFOY_clean_sbu_1, # of connection points: 4
#     Node 41, Type 0, BuildingBlock: QUQFOY_clean_sbu_1, # of connection points: 4
#     Node 42, Type 0, BuildingBlock: QUQFOY_clean_sbu_1, # of connection points: 4
#     Node 43, Type 0, BuildingBlock: QUQFOY_clean_sbu_1, # of connection points: 4
#     Node 44, Type 0, BuildingBlock: QUQFOY_clean_sbu_1, # of connection points: 4
#     Node 45, Type 0, BuildingBlock: QUQFOY_clean_sbu_1, # of connection points: 4
#     Node 46, Type 0, BuildingBlock: QUQFOY_clean_sbu_1, # of connection points: 4
#     Node 47, Type 0, BuildingBlock: QUQFOY_clean_sbu_1, # of connection points: 4
#     Edge 48, Type (0, 0), BuildingBlock: ZUJKAS_clean_linker_0, # of connection points: 2
#     Edge 49, Type (0, 0), BuildingBlock: ZUJKAS_clean_linker_0, # of connection points: 2
#     Edge 50, Type (0, 0), BuildingBlock: ZUJKAS_clean_linker_0, # of connection points: 2
#     Edge 51, Type (0, 0), BuildingBlock: ZUJKAS_clean_linker_0, # of connection points: 2
#     Edge 52, Type (0, 0), BuildingBlock: ZUJKAS_clean_linker_0, # of connection points: 2
#     Edge 53, Type (0, 0), BuildingBlock: ZUJKAS_clean_linker_0, # of connection points: 2
#     Edge 54, Type (0, 0), BuildingBlock: ZUJKAS_clean_linker_0, # of connection points: 2
#     Edge 55, Type (0, 0), BuildingBlock: ZUJKAS_clean_linker_0, # of connection points: 2
#     Edge 56, Type (0, 0), BuildingBlock: ZUJKAS_clean_linker_0, # of connection points: 2
#     Edge 57, Type (0, 0), BuildingBlock: ZUJKAS_clean_linker_0, # of connection points: 2
#     Edge 58, Type (0, 0), BuildingBlock: ZUJKAS_clean_linker_0, # of connection points: 2
#     Edge 59, Type (0, 0), BuildingBlock: ZUJKAS_clean_linker_0, # of connection points: 2
#     Edge 60, Type (0, 0), BuildingBlock: ZUJKAS_clean_linker_0, # of connection points: 2
#     Edge 61, Type (0, 0), BuildingBlock: ZUJKAS_clean_linker_0, # of connection points: 2
#     Edge 62, Type (0, 0), BuildingBlock: ZUJKAS_clean_linker_0, # of connection points: 2
#     Edge 63, Type (0, 0), BuildingBlock: ZUJKAS_clean_linker_0, # of connection points: 2
#     Edge 64, Type (0, 0), BuildingBlock: ZUJKAS_clean_linker_0, # of connection points: 2
#     Edge 65, Type (0, 0), BuildingBlock: ZUJKAS_clean_linker_0, # of connection points: 2
#     Edge 66, Type (0, 0), BuildingBlock: ZUJKAS_clean_linker_0, # of connection points: 2
#     Edge 67, Type (0, 0), BuildingBlock: ZUJKAS_clean_linker_0, # of connection points: 2
#     Edge 68, Type (0, 0), BuildingBlock: ZUJKAS_clean_linker_0, # of connection points: 2
#     Edge 69, Type (0, 0), BuildingBlock: ZUJKAS_clean_linker_0, # of connection points: 2
#     Edge 70, Type (0, 0), BuildingBlock: ZUJKAS_clean_linker_0, # of connection points: 2
#     Edge 71, Type (0, 0), BuildingBlock: ZUJKAS_clean_linker_0, # of connection points: 2
#     Edge 72, Type (0, 0), BuildingBlock: ZUJKAS_clean_linker_0, # of connection points: 2
#     Edge 73, Type (0, 0), BuildingBlock: ZUJKAS_clean_linker_0, # of connection points: 2
#     Edge 74, Type (0, 0), BuildingBlock: ZUJKAS_clean_linker_0, # of connection points: 2
#     Edge 75, Type (0, 0), BuildingBlock: ZUJKAS_clean_linker_0, # of connection points: 2
#     Edge 76, Type (0, 0), BuildingBlock: ZUJKAS_clean_linker_0, # of connection points: 2
#     Edge 77, Type (0, 0), BuildingBlock: ZUJKAS_clean_linker_0, # of connection points: 2
#     Edge 78, Type (0, 0), BuildingBlock: ZUJKAS_clean_linker_0, # of connection points: 2
#     Edge 79, Type (0, 0), BuildingBlock: ZUJKAS_clean_linker_0, # of connection points: 2
#     Edge 80, Type (0, 0), BuildingBlock: ZUJKAS_clean_linker_0, # of connection points: 2
#     Edge 81, Type (0, 0), BuildingBlock: ZUJKAS_clean_linker_0, # of connection points: 2
#     Edge 82, Type (0, 0), BuildingBlock: ZUJKAS_clean_linker_0, # of connection points: 2
#     Edge 83, Type (0, 0), BuildingBlock: ZUJKAS_clean_linker_0, # of connection points: 2
#     Edge 84, Type (0, 0), BuildingBlock: ZUJKAS_clean_linker_0, # of connection points: 2
#     Edge 85, Type (0, 0), BuildingBlock: ZUJKAS_clean_linker_0, # of connection points: 2
#     Edge 86, Type (0, 0), BuildingBlock: ZUJKAS_clean_linker_0, # of connection points: 2
#     Edge 87, Type (0, 0), BuildingBlock: ZUJKAS_clean_linker_0, # of connection points: 2
#     Edge 88, Type (0, 0), BuildingBlock: ZUJKAS_clean_linker_0, # of connection points: 2
#     Edge 89, Type (0, 0), BuildingBlock: ZUJKAS_clean_linker_0, # of connection points: 2
#     Edge 90, Type (0, 0), BuildingBlock: ZUJKAS_clean_linker_0, # of connection points: 2
#     Edge 91, Type (0, 0), BuildingBlock: ZUJKAS_clean_linker_0, # of connection points: 2
#     Edge 92, Type (0, 0), BuildingBlock: ZUJKAS_clean_linker_0, # of connection points: 2
#     Edge 93, Type (0, 0), BuildingBlock: ZUJKAS_clean_linker_0, # of connection points: 2
#     Edge 94, Type (0, 0), BuildingBlock: ZUJKAS_clean_linker_0, # of connection points: 2
#     Edge 95, Type (0, 0), BuildingBlock: ZUJKAS_clean_linker_0, # of connection points: 2
#     Edge 96, Type (0, 0), BuildingBlock: ZUJKAS_clean_linker_0, # of connection points: 2
#     Edge 97, Type (0, 0), BuildingBlock: ZUJKAS_clean_linker_0, # of connection points: 2
#     Edge 98, Type (0, 0), BuildingBlock: ZUJKAS_clean_linker_0, # of connection points: 2
#     Edge 99, Type (0, 0), BuildingBlock: ZUJKAS_clean_linker_0, # of connection points: 2
#     Edge 100, Type (0, 0), BuildingBlock: ZUJKAS_clean_linker_0, # of connection points: 2
#     Edge 101, Type (0, 0), BuildingBlock: ZUJKAS_clean_linker_0, # of connection points: 2
#     Edge 102, Type (0, 0), BuildingBlock: ZUJKAS_clean_linker_0, # of connection points: 2
#     Edge 103, Type (0, 0), BuildingBlock: ZUJKAS_clean_linker_0, # of connection points: 2
#     Edge 104, Type (0, 0), BuildingBlock: ZUJKAS_clean_linker_0, # of connection points: 2
#     Edge 105, Type (0, 0), BuildingBlock: ZUJKAS_clean_linker_0, # of connection points: 2
#     Edge 106, Type (0, 0), BuildingBlock: ZUJKAS_clean_linker_0, # of connection points: 2
#     Edge 107, Type (0, 0), BuildingBlock: ZUJKAS_clean_linker_0, # of connection points: 2
#     Edge 108, Type (0, 0), BuildingBlock: ZUJKAS_clean_linker_0, # of connection points: 2
#     Edge 109, Type (0, 0), BuildingBlock: ZUJKAS_clean_linker_0, # of connection points: 2
#     Edge 110, Type (0, 0), BuildingBlock: ZUJKAS_clean_linker_0, # of connection points: 2
#     Edge 111, Type (0, 0), BuildingBlock: ZUJKAS_clean_linker_0, # of connection points: 2
#     Edge 112, Type (0, 0), BuildingBlock: ZUJKAS_clean_linker_0, # of connection points: 2
#     Edge 113, Type (0, 0), BuildingBlock: ZUJKAS_clean_linker_0, # of connection points: 2
#     Edge 114, Type (0, 0), BuildingBlock: ZUJKAS_clean_linker_0, # of connection points: 2
#     Edge 115, Type (0, 0), BuildingBlock: ZUJKAS_clean_linker_0, # of connection points: 2
#     Edge 116, Type (0, 0), BuildingBlock: ZUJKAS_clean_linker_0, # of connection points: 2
#     Edge 117, Type (0, 0), BuildingBlock: ZUJKAS_clean_linker_0, # of connection points: 2
#     Edge 118, Type (0, 0), BuildingBlock: ZUJKAS_clean_linker_0, # of connection points: 2
#     Edge 119, Type (0, 0), BuildingBlock: ZUJKAS_clean_linker_0, # of connection points: 2
#     Edge 120, Type (0, 0), BuildingBlock: ZUJKAS_clean_linker_0, # of connection points: 2
#     Edge 121, Type (0, 0), BuildingBlock: ZUJKAS_clean_linker_0, # of connection points: 2
#     Edge 122, Type (0, 0), BuildingBlock: ZUJKAS_clean_linker_0, # of connection points: 2
#     Edge 123, Type (0, 0), BuildingBlock: ZUJKAS_clean_linker_0, # of connection points: 2
#     Edge 124, Type (0, 0), BuildingBlock: ZUJKAS_clean_linker_0, # of connection points: 2
#     Edge 125, Type (0, 0), BuildingBlock: ZUJKAS_clean_linker_0, # of connection points: 2
#     Edge 126, Type (0, 0), BuildingBlock: ZUJKAS_clean_linker_0, # of connection points: 2
#     Edge 127, Type (0, 0), BuildingBlock: ZUJKAS_clean_linker_0, # of connection points: 2
#     Edge 128, Type (0, 0), BuildingBlock: ZUJKAS_clean_linker_0, # of connection points: 2
#     Edge 129, Type (0, 0), BuildingBlock: ZUJKAS_clean_linker_0, # of connection points: 2
#     Edge 130, Type (0, 0), BuildingBlock: ZUJKAS_clean_linker_0, # of connection points: 2
#     Edge 131, Type (0, 0), BuildingBlock: ZUJKAS_clean_linker_0, # of connection points: 2
#     Edge 132, Type (0, 0), BuildingBlock: ZUJKAS_clean_linker_0, # of connection points: 2
#     Edge 133, Type (0, 0), BuildingBlock: ZUJKAS_clean_linker_0, # of connection points: 2
#     Edge 134, Type (0, 0), BuildingBlock: ZUJKAS_clean_linker_0, # of connection points: 2
#     Edge 135, Type (0, 0), BuildingBlock: ZUJKAS_clean_linker_0, # of connection points: 2
#     Edge 136, Type (0, 0), BuildingBlock: ZUJKAS_clean_linker_0, # of connection points: 2
#     Edge 137, Type (0, 0), BuildingBlock: ZUJKAS_clean_linker_0, # of connection points: 2
#     Edge 138, Type (0, 0), BuildingBlock: ZUJKAS_clean_linker_0, # of connection points: 2
#     Edge 139, Type (0, 0), BuildingBlock: ZUJKAS_clean_linker_0, # of connection points: 2
#     Edge 140, Type (0, 0), BuildingBlock: ZUJKAS_clean_linker_0, # of connection points: 2
#     Edge 141, Type (0, 0), BuildingBlock: ZUJKAS_clean_linker_0, # of connection points: 2
#     Edge 142, Type (0, 0), BuildingBlock: ZUJKAS_clean_linker_0, # of connection points: 2
#     Edge 143, Type (0, 0), BuildingBlock: ZUJKAS_clean_linker_0, # of connection points: 2
# Relax obj value: 0.238
# Max RMSD: 0.116
# Mean RMSD: 0.116
data_MOF--net-uko--node1-QUQFOY_clean_sbu_1--edge1-ZUJKAS_clean_linker_0
_symmetry_space_group_name_H-M    P1
_symmetry_Int_Tables_number       1
_symmetry_cell_setting            triclinic
loop_
_symmetry_equiv_pos_as_xyz
'x, y, z'
_cell_length_a     73.059713
_cell_length_b     73.068599
_cell_length_c     73.052681
_cell_angle_alpha  89.99992
_cell_angle_beta   89.997846
_cell_angle_gamma 89.995353
loop_
_atom_site_label
_atom_site_type_symbol
_atom_site_fract_x
_atom_site_fract_y
_atom_site_fract_z
_atom_type_partial_charge
O0 O 0.02495 0.36933 0.27093 0.0
Cd1 Cd 0.01264 0.37307 0.24581 0.0
Cd2 Cd 0.04385 0.39244 0.238 0.0
O3 O 0.05111 0.38232 0.26337 0.0
O4 O 0.99631 0.35181 0.24144 0.0
O5 O 0.02153 0.35708 0.22538 0.0
C6 C 0.00769 0.34663 0.22893 0.0
C7 C 0.06818 0.39703 0.21762 0.0
C8 C 0.04129 0.37376 0.27489 0.0
C9 C 0.00677 0.41212 0.23787 0.0
O10 O 0.02409 0.41251 0.23638 0.0
O11 O 0.9986 0.39717 0.24132 0.0
O12 O 0.06583 0.40714 0.23182 0.0
O13 O 0.05673 0.38383 0.21495 0.0
O14 O 0.97949 0.13663 0.27184 0.0
Cd15 Cd 0.99068 0.13143 0.2465 0.0
Cd16 Cd 0.9582 0.11305 0.23981 0.0
O17 O 0.95263 0.12486 0.26484 0.0
O18 O 0.00843 0.15126 0.24105 0.0
O19 O 0.98227 0.14768 0.22605 0.0
C20 C 0.99702 0.15706 0.22886 0.0
C21 C 0.93218 0.10874 0.2217 0.0
C22 C 0.96298 0.1332 0.27604 0.0
C23 C 0.99414 0.09166 0.23941 0.0
O24 O 0.97677 0.09186 0.23831 0.0
O25 O 0.00296 0.10637 0.24227 0.0
O26 O 0.93472 0.0998 0.23662 0.0
O27 O 0.94456 0.12031 0.21672 0.0
O28 O 0.02857 0.63299 0.22973 0.0
Cd29 Cd 0.01506 0.62961 0.25424 0.0
Cd30 Cd 0.04584 0.6089 0.26265 0.0
O31 O 0.05406 0.61886 0.2375 0.0
O32 O 0.99849 0.65102 0.25645 0.0
O33 O 0.02187 0.64613 0.27515 0.0
C34 C 0.0085 0.6565 0.26994 0.0
C35 C 0.06964 0.60285 0.28328 0.0
C36 C 0.04477 0.62794 0.22595 0.0
C37 C 0.0079 0.59067 0.2617 0.0
O38 O 0.02515 0.58976 0.26375 0.0
O39 O 0.00027 0.60585 0.258 0.0
O40 O 0.06695 0.593 0.26896 0.0
O41 O 0.05886 0.6166 0.28595 0.0
O42 O 0.98113 0.86746 0.22922 0.0
Cd43 Cd 0.99357 0.87105 0.25419 0.0
Cd44 Cd 0.96103 0.88811 0.26363 0.0
O45 O 0.95391 0.876 0.23904 0.0
O46 O 0.01081 0.85034 0.25752 0.0
O47 O 0.98606 0.85438 0.27466 0.0
C48 C 0.00013 0.84451 0.27035 0.0
C49 C 0.93594 0.8925 0.28314 0.0
C50 C 0.96407 0.86938 0.22658 0.0
C51 C 0.99705 0.91008 0.2626 0.0
O52 O 0.97975 0.90938 0.2644 0.0
O53 O 0.00613 0.89572 0.25898 0.0
O54 O 0.93804 0.90181 0.26837 0.0
O55 O 0.94827 0.88049 0.28712 0.0
O56 O 0.26617 0.03041 0.36185 0.0
Cd57 Cd 0.24047 0.02013 0.36722 0.0
Cd58 Cd 0.23483 0.05281 0.38469 0.0
O59 O 0.25996 0.05783 0.37277 0.0
O60 O 0.23452 0.00187 0.34799 0.0
O61 O 0.22029 0.02858 0.35066 0.0
C62 C 0.22262 0.0134 0.34184 0.0
C63 C 0.21587 0.07843 0.38754 0.0
C64 C 0.27089 0.04688 0.36483 0.0
C65 C 0.23396 0.01772 0.40716 0.0
O66 O 0.23351 0.0351 0.40665 0.0
O67 O 0.23605 0.00853 0.39255 0.0
O68 O 0.23088 0.07693 0.39658 0.0
O69 O 0.21138 0.06533 0.3766 0.0
O70 O 0.73082 0.47658 0.36819 0.0
Cd71 Cd 0.75532 0.49014 0.36952 0.0
Cd72 Cd 0.76708 0.45879 0.38804 0.0
O73 O 0.7415 0.4504 0.37881 0.0
O74 O 0.75682 0.50614 0.34769 0.0
O75 O 0.77542 0.48259 0.35244 0.0
C76 C 0.77 0.49582 0.34199 0.0
C77 C 0.78721 0.43442 0.39375 0.0
C78 C 0.72854 0.4598 0.37201 0.0
C79 C 0.76658 0.49667 0.40718 0.0
O80 O 0.76973 0.47955 0.40727 0.0
O81 O 0.76049 0.50453 0.39296 0.0
O82 O 0.77331 0.43769 0.40401 0.0
O83 O 0.78979 0.44496 0.37982 0.0
O84 O 0.26925 0.97779 0.1346 0.0
Cd85 Cd 0.24391 0.98887 0.12901 0.0
Cd86 Cd 0.23761 0.95672 0.11115 0.0
O87 O 0.26223 0.95064 0.12355 0.0
O88 O 0.23747 0.00586 0.1492 0.0
O89 O 0.22309 0.97959 0.1442 0.0
C90 C 0.22531 0.99403 0.1542 0.0
C91 C 0.21812 0.93163 0.10718 0.0
C92 C 0.27341 0.96117 0.13168 0.0
C93 C 0.23826 0.99227 0.08918 0.0
O94 O 0.2374 0.97489 0.08955 0.0
O95 O 0.2402 0.00128 0.10393 0.0
O96 O 0.23332 0.93308 0.09846 0.0
O97 O 0.21372 0.94453 0.11842 0.0
O98 O 0.73015 0.52395 0.12879 0.0
Cd99 Cd 0.7543 0.50984 0.1254 0.0
Cd100 Cd 0.76284 0.53992 0.10343 0.0
O101 O 0.73781 0.54862 0.11323 0.0
O102 O 0.75592 0.4935 0.147 0.0
O103 O 0.7754 0.51618 0.14187 0.0
C104 C 0.76971 0.50313 0.1524 0.0
C105 C 0.78331 0.56365 0.09675 0.0
C106 C 0.72641 0.53992 0.12305 0.0
C107 C 0.76148 0.50134 0.08663 0.0
O108 O 0.76393 0.5185 0.08511 0.0
O109 O 0.75751 0.49435 0.10204 0.0
O110 O 0.76917 0.56044 0.0868 0.0
O111 O 0.78598 0.55333 0.11084 0.0
O112 O 0.3613 0.2642 0.03111 0.0
Cd113 Cd 0.36709 0.23906 0.01975 0.0
Cd114 Cd 0.38514 0.2329 0.05218 0.0
O115 O 0.37225 0.25727 0.05834 0.0
O116 O 0.34792 0.2338 0.00124 0.0
O117 O 0.35083 0.21823 0.02716 0.0
C118 C 0.34195 0.22123 0.01213 0.0
C119 C 0.38986 0.2133 0.07707 0.0
C120 C 0.36407 0.26837 0.04776 0.0
C121 C 0.40709 0.23406 0.01667 0.0
O122 O 0.40677 0.23325 0.03405 0.0
O123 O 0.39232 0.23568 0.00766 0.0
O124 O 0.398 0.22883 0.07578 0.0
O125 O 0.37866 0.20871 0.0642 0.0
O126 O 0.36345 0.73448 0.47215 0.0
Cd127 Cd 0.36795 0.75892 0.48539 0.0
Cd128 Cd 0.38884 0.76652 0.45451 0.0
O129 O 0.3782 0.74149 0.44677 0.0
O130 O 0.34718 0.76224 0.50257 0.0
O131 O 0.35176 0.78001 0.47841 0.0
C132 C 0.34172 0.77553 0.49229 0.0
C133 C 0.39475 0.78673 0.43033 0.0
C134 C 0.36855 0.73039 0.45603 0.0
C135 C 0.40726 0.76539 0.49218 0.0
O136 O 0.40825 0.76756 0.47495 0.0
O137 O 0.39203 0.76191 0.49978 0.0
O138 O 0.40446 0.77232 0.43305 0.0
O139 O 0.38125 0.78975 0.44132 0.0
O140 O 0.62979 0.76824 0.48226 0.0
Cd141 Cd 0.62578 0.74256 0.49307 0.0
Cd142 Cd 0.60972 0.73488 0.46016 0.0
O143 O 0.62228 0.75958 0.45435 0.0
O144 O 0.6458 0.73746 0.5107 0.0
O145 O 0.64271 0.72289 0.48422 0.0
C146 C 0.652 0.72571 0.49903 0.0
C147 C 0.60709 0.71535 0.43486 0.0
C148 C 0.62854 0.77159 0.46525 0.0
C149 C 0.58648 0.73463 0.49513 0.0
O150 O 0.5875 0.73395 0.47776 0.0
O151 O 0.60078 0.73714 0.50467 0.0
O152 O 0.59762 0.7301 0.43629 0.0
O153 O 0.61828 0.71145 0.44796 0.0
O154 O 0.13053 0.73648 0.52989 0.0
Cd155 Cd 0.12587 0.76138 0.51749 0.0
Cd156 Cd 0.10632 0.76818 0.54907 0.0
O157 O 0.11733 0.74315 0.55621 0.0
O158 O 0.14589 0.76492 0.49947 0.0
O159 O 0.14271 0.782 0.52434 0.0
C160 C 0.15199 0.77783 0.50986 0.0
C161 C 0.10159 0.78878 0.57318 0.0
C162 C 0.1263 0.73211 0.54619 0.0
C163 C 0.08628 0.76755 0.51226 0.0
O164 O 0.08591 0.7689 0.52959 0.0
O165 O 0.10134 0.76498 0.50398 0.0
O166 O 0.09179 0.7743 0.5712 0.0
O167 O 0.11458 0.79158 0.56154 0.0
O168 O 0.97599 0.63233 0.733 0.0
Cd169 Cd 0.9897 0.62887 0.75725 0.0
Cd170 Cd 0.95922 0.60758 0.7669 0.0
O171 O 0.95154 0.61657 0.74109 0.0
O172 O 0.00627 0.65009 0.76058 0.0
O173 O 0.98217 0.64481 0.77828 0.0
C174 C 0.99586 0.65516 0.77393 0.0
C175 C 0.93441 0.60066 0.78604 0.0
C176 C 0.96012 0.6262 0.72941 0.0
C177 C 0.99764 0.59049 0.76639 0.0
O178 O 0.98066 0.58939 0.76992 0.0
O179 O 0.00459 0.60523 0.76044 0.0
O180 O 0.93864 0.59065 0.77222 0.0
O181 O 0.94426 0.615 0.78911 0.0
O182 O 0.01988 0.86925 0.73585 0.0
Cd183 Cd 0.00617 0.87204 0.7602 0.0
Cd184 Cd 0.03577 0.89418 0.76962 0.0
O185 O 0.04388 0.88576 0.74373 0.0
O186 O 0.9906 0.85004 0.76318 0.0
O187 O 0.0144 0.85615 0.781 0.0
C188 C 0.00128 0.84518 0.77639 0.0
C189 C 0.06012 0.90067 0.78946 0.0
C190 C 0.03552 0.87585 0.73212 0.0
C191 C 0.99683 0.91005 0.76952 0.0
O192 O 0.01382 0.91176 0.77279 0.0
O193 O 0.99035 0.89503 0.76372 0.0
O194 O 0.056 0.91118 0.77597 0.0
O195 O 0.05041 0.8861 0.79179 0.0
O196 O 0.98177 0.36123 0.76608 0.0
Cd197 Cd 0.99269 0.36673 0.74077 0.0
Cd198 Cd 0.95922 0.3821 0.73298 0.0
O199 O 0.9538 0.3677 0.7568 0.0
O200 O 0.01025 0.34721 0.73387 0.0
O201 O 0.98336 0.35126 0.72023 0.0
C202 C 0.99825 0.34184 0.72202 0.0
C203 C 0.9332 0.38686 0.71487 0.0
C204 C 0.96463 0.36153 0.76892 0.0
C205 C 0.99365 0.40626 0.73477 0.0
O206 O 0.97636 0.40468 0.73351 0.0
O207 O 0.00366 0.39225 0.73698 0.0
O208 O 0.93505 0.39431 0.73067 0.0
O209 O 0.94621 0.37646 0.70903 0.0
O210 O 0.01969 0.13203 0.76909 0.0
Cd211 Cd 0.00642 0.12861 0.74452 0.0
Cd212 Cd 0.03588 0.10717 0.73538 0.0
O213 O 0.04401 0.11609 0.76104 0.0
O214 O 0.9919 0.15091 0.73918 0.0
O215 O 0.01635 0.14259 0.72317 0.0
C216 C 0.00346 0.15434 0.72623 0.0
C217 C 0.06021 0.10104 0.7154 0.0
C218 C 0.03551 0.12579 0.77272 0.0
C219 C 0.99743 0.09033 0.73628 0.0
O220 O 0.01446 0.08889 0.73306 0.0
O221 O 0.99068 0.10548 0.74144 0.0
O222 O 0.05649 0.09061 0.72906 0.0
O223 O 0.05008 0.1153 0.71294 0.0
O224 O 0.73066 0.97586 0.63035 0.0
Cd225 Cd 0.75577 0.9883 0.6274 0.0
Cd226 Cd 0.76412 0.95774 0.60724 0.0
O227 O 0.73834 0.95032 0.61624 0.0
O228 O 0.75999 0.00383 0.64928 0.0
O229 O 0.77601 0.97876 0.64324 0.0
C230 C 0.77241 0.99223 0.65415 0.0
C231 C 0.78448 0.93341 0.6028 0.0
C232 C 0.72672 0.95976 0.62509 0.0
C233 C 0.76491 0.99545 0.58883 0.0
O234 O 0.76677 0.97818 0.58796 0.0
O235 O 0.76059 0.00307 0.60384 0.0
O236 O 0.77087 0.93628 0.59203 0.0
O237 O 0.78657 0.94432 0.61654 0.0
O238 O 0.26581 0.52518 0.62977 0.0
Cd239 Cd 0.24089 0.51259 0.6257 0.0
Cd240 Cd 0.23369 0.54313 0.60508 0.0
O241 O 0.25908 0.55061 0.61498 0.0
O242 O 0.23707 0.49558 0.6465 0.0
O243 O 0.22014 0.52036 0.64195 0.0
C244 C 0.22409 0.50627 0.65192 0.0
C245 C 0.2131 0.56727 0.60059 0.0
C246 C 0.27018 0.54115 0.62445 0.0
C247 C 0.23398 0.50563 0.58652 0.0
O248 O 0.23223 0.5229 0.58547 0.0
O249 O 0.23725 0.49806 0.60181 0.0
O250 O 0.22701 0.5648 0.5901 0.0
O251 O 0.2108 0.55602 0.61401 0.0
O252 O 0.72851 0.01477 0.86538 0.0
Cd253 Cd 0.75426 0.00422 0.86979 0.0
Cd254 Cd 0.76126 0.03766 0.88573 0.0
O255 O 0.73748 0.04295 0.87133 0.0
O256 O 0.76028 0.98682 0.84982 0.0
O257 O 0.77402 0.0137 0.85337 0.0
C258 C 0.77183 0.99886 0.84394 0.0
C259 C 0.77919 0.06366 0.89125 0.0
C260 C 0.72541 0.03187 0.86553 0.0
C261 C 0.76099 0.00272 0.9092 0.0
O262 O 0.76104 0.02007 0.90793 0.0
O263 O 0.75949 0.99288 0.89496 0.0
O264 O 0.76336 0.06153 0.89858 0.0
O265 O 0.78506 0.05102 0.8804 0.0
O266 O 0.2655 0.47892 0.86337 0.0
Cd267 Cd 0.24027 0.49051 0.86761 0.0
Cd268 Cd 0.23222 0.4584 0.88631 0.0
O269 O 0.25802 0.45262 0.87608 0.0
O270 O 0.23528 0.5074 0.84697 0.0
O271 O 0.21987 0.48164 0.85161 0.0
C272 C 0.22299 0.49589 0.84157 0.0
C273 C 0.21432 0.43218 0.89047 0.0
C274 C 0.26954 0.46259 0.8677 0.0
C275 C 0.23118 0.49506 0.90666 0.0
O276 O 0.22906 0.47779 0.90668 0.0
O277 O 0.23587 0.50346 0.89219 0.0
O278 O 0.22859 0.43534 0.90023 0.0
O279 O 0.20982 0.44405 0.8782 0.0
O280 O 0.63295 0.73217 0.98337 0.0
Cd281 Cd 0.62851 0.75817 0.99325 0.0
Cd282 Cd 0.61461 0.76505 0.95963 0.0
O283 O 0.62888 0.74109 0.95485 0.0
O284 O 0.64875 0.7651 0.01001 0.0
O285 O 0.64446 0.77766 0.98267 0.0
C286 C 0.65431 0.7761 0.99731 0.0
C287 C 0.61165 0.78401 0.93395 0.0
C288 C 0.63374 0.72895 0.96631 0.0
C289 C 0.58923 0.76486 0.99313 0.0
O290 O 0.59134 0.76468 0.97584 0.0
O291 O 0.60301 0.76371 0.00365 0.0
O292 O 0.60373 0.76834 0.93493 0.0
O293 O 0.62157 0.78915 0.94763 0.0
O294 O 0.63437 0.2747 0.52445 0.0
Cd295 Cd 0.62948 0.24965 0.51253 0.0
Cd296 Cd 0.6093 0.24287 0.54349 0.0
O297 O 0.62082 0.26771 0.55046 0.0
O298 O 0.65045 0.24409 0.49623 0.0
O299 O 0.6445 0.22862 0.52168 0.0
C300 C 0.65506 0.2315 0.50776 0.0
C301 C 0.60386 0.2234 0.5683 0.0
C302 C 0.62997 0.27885 0.54075 0.0
C303 C 0.59008 0.24333 0.50635 0.0
O304 O 0.58922 0.24196 0.52367 0.0
O305 O 0.60532 0.24614 0.49847 0.0
O306 O 0.59488 0.23835 0.56607 0.0
O307 O 0.6162 0.21926 0.55636 0.0
O308 O 0.36949 0.23401 0.51782 0.0
Cd309 Cd 0.3728 0.25954 0.50647 0.0
Cd310 Cd 0.39002 0.26823 0.53847 0.0
O311 O 0.37847 0.24324 0.5451 0.0
O312 O 0.35155 0.26477 0.49042 0.0
O313 O 0.35686 0.27936 0.51655 0.0
C314 C 0.34638 0.27658 0.50254 0.0
C315 C 0.39316 0.28787 0.56361 0.0
C316 C 0.37174 0.23097 0.53478 0.0
C317 C 0.41162 0.26858 0.5024 0.0
O318 O 0.41127 0.26981 0.51977 0.0
O319 O 0.39709 0.26509 0.49355 0.0
O320 O 0.40311 0.27348 0.5617 0.0
O321 O 0.38125 0.29138 0.55103 0.0
O322 O 0.86608 0.27165 0.47955 0.0
Cd323 Cd 0.87003 0.24763 0.49363 0.0
Cd324 Cd 0.89119 0.23802 0.4633 0.0
O325 O 0.88154 0.26335 0.45498 0.0
O326 O 0.84895 0.24422 0.51036 0.0
O327 O 0.85436 0.22626 0.48647 0.0
C328 C 0.84402 0.23066 0.50016 0.0
C329 C 0.89833 0.2182 0.4391 0.0
C330 C 0.87186 0.27503 0.46351 0.0
C331 C 0.90872 0.23981 0.50149 0.0
O332 O 0.90976 0.23626 0.4845 0.0
O333 O 0.89376 0.24508 0.50854 0.0
O334 O 0.90806 0.23237 0.44276 0.0
O335 O 0.8841 0.21518 0.44913 0.0
O336 O 0.52687 0.86761 0.77064 0.0
Cd337 Cd 0.51391 0.86974 0.74575 0.0
Cd338 Cd 0.54513 0.88873 0.73613 0.0
O339 O 0.55348 0.8782 0.7611 0.0
O340 O 0.49747 0.84825 0.74383 0.0
O341 O 0.52132 0.85265 0.72557 0.0
C342 C 0.50782 0.84243 0.73073 0.0
C343 C 0.56888 0.89403 0.71522 0.0
C344 C 0.54365 0.87103 0.77353 0.0
C345 C 0.50767 0.90823 0.73691 0.0
O346 O 0.52497 0.90865 0.73507 0.0
O347 O 0.49959 0.89335 0.74075 0.0
O348 O 0.5667 0.90393 0.72959 0.0
O349 O 0.55761 0.88067 0.71265 0.0
O350 O 0.4734 0.6273 0.7652 0.0
Cd351 Cd 0.48796 0.625 0.74116 0.0
Cd352 Cd 0.45755 0.60467 0.7304 0.0
O353 O 0.44827 0.61371 0.75552 0.0
O354 O 0.50465 0.64639 0.74079 0.0
O355 O 0.4822 0.64252 0.72075 0.0
C356 C 0.49533 0.65255 0.7271 0.0
C357 C 0.43428 0.59936 0.70897 0.0
C358 C 0.457 0.62221 0.76792 0.0
C359 C 0.49554 0.58648 0.7323 0.0
O360 O 0.4784 0.58564 0.72938 0.0
O361 O 0.50293 0.60148 0.737 0.0
O362 O 0.43683 0.58881 0.7228 0.0
O363 O 0.44499 0.61329 0.70716 0.0
O364 O 0.51841 0.13096 0.72821 0.0
Cd365 Cd 0.50653 0.12759 0.75348 0.0
Cd366 Cd 0.53953 0.11057 0.76188 0.0
O367 O 0.54616 0.12453 0.73812 0.0
O368 O 0.48926 0.14826 0.75669 0.0
O369 O 0.51424 0.14462 0.77358 0.0
C370 C 0.50012 0.15438 0.76923 0.0
C371 C 0.56499 0.10398 0.78022 0.0
C372 C 0.53556 0.13035 0.72563 0.0
C373 C 0.50342 0.08853 0.76088 0.0
O374 O 0.5208 0.08926 0.76165 0.0
O375 O 0.49408 0.103 0.75859 0.0
O376 O 0.56265 0.09651 0.76449 0.0
O377 O 0.55284 0.11551 0.7858 0.0
O378 O 0.47163 0.36892 0.72775 0.0
Cd379 Cd 0.48564 0.37149 0.75208 0.0
Cd380 Cd 0.45535 0.39258 0.76166 0.0
O381 O 0.44647 0.38301 0.73659 0.0
O382 O 0.50181 0.34973 0.75342 0.0
O383 O 0.47899 0.35467 0.7728 0.0
C384 C 0.49202 0.34417 0.76704 0.0
C385 C 0.43173 0.39895 0.78242 0.0
C386 C 0.45536 0.37415 0.72457 0.0
C387 C 0.4937 0.41007 0.7602 0.0
O388 O 0.47651 0.41126 0.76266 0.0
O389 O 0.50095 0.39483 0.75606 0.0
O390 O 0.43471 0.40897 0.76828 0.0
O391 O 0.4422 0.38495 0.78491 0.0
O392 O 0.76669 0.51938 0.86714 0.0
Cd393 Cd 0.74092 0.50883 0.87164 0.0
Cd394 Cd 0.73559 0.54005 0.892 0.0
O395 O 0.76035 0.54599 0.87982 0.0
O396 O 0.73404 0.49375 0.85012 0.0
O397 O 0.72082 0.52024 0.85695 0.0
C398 C 0.72258 0.50653 0.84588 0.0
C399 C 0.71776 0.56578 0.89881 0.0
C400 C 0.77127 0.53569 0.87106 0.0
C401 C 0.73445 0.50267 0.91094 0.0
O402 O 0.73435 0.52004 0.91184 0.0
O403 O 0.73629 0.49468 0.89561 0.0
O404 O 0.7329 0.56249 0.90711 0.0
O405 O 0.7125 0.55442 0.88636 0.0
O406 O 0.23001 0.97913 0.86539 0.0
Cd407 Cd 0.25538 0.99079 0.86922 0.0
Cd408 Cd 0.26305 0.95909 0.88803 0.0
O409 O 0.23721 0.95289 0.87842 0.0
O410 O 0.26046 0.00707 0.84808 0.0
O411 O 0.27563 0.9813 0.85336 0.0
C412 C 0.27262 0.99531 0.84294 0.0
C413 C 0.28177 0.93338 0.89224 0.0
C414 C 0.22578 0.96289 0.86996 0.0
C415 C 0.26425 0.99587 0.90821 0.0
O416 O 0.26591 0.97856 0.90824 0.0
O417 O 0.26018 0.00428 0.89354 0.0
O418 O 0.26803 0.93678 0.90267 0.0
O419 O 0.28509 0.94469 0.87908 0.0
O420 O 0.77179 0.48309 0.63576 0.0
Cd421 Cd 0.74725 0.49609 0.63149 0.0
Cd422 Cd 0.73684 0.46382 0.61416 0.0
O423 O 0.76156 0.4564 0.62596 0.0
O424 O 0.7419 0.51297 0.65207 0.0
O425 O 0.72638 0.48733 0.64687 0.0
C426 C 0.7293 0.50158 0.65699 0.0
C427 C 0.71739 0.43897 0.60818 0.0
C428 C 0.77411 0.46605 0.63319 0.0
C429 C 0.73894 0.5001 0.59256 0.0
O430 O 0.73591 0.48299 0.59333 0.0
O431 O 0.74368 0.50889 0.60675 0.0
O432 O 0.73223 0.44164 0.59914 0.0
O433 O 0.7135 0.45037 0.6211 0.0
O434 O 0.23073 0.02669 0.63438 0.0
Cd435 Cd 0.25592 0.01548 0.62859 0.0
Cd436 Cd 0.26256 0.04832 0.61137 0.0
O437 O 0.23791 0.05406 0.62396 0.0
O438 O 0.26149 0.99719 0.64789 0.0
O439 O 0.27659 0.02336 0.6448 0.0
C440 C 0.27379 0.0084 0.65385 0.0
C441 C 0.28178 0.07362 0.60752 0.0
C442 C 0.22667 0.04341 0.63185 0.0
C443 C 0.2619 0.01324 0.58866 0.0
O444 O 0.26299 0.03058 0.58943 0.0
O445 O 0.25958 0.00389 0.60313 0.0
O446 O 0.26647 0.0722 0.59901 0.0
O447 O 0.28643 0.06062 0.61853 0.0
O448 O 0.86526 0.76591 0.52782 0.0
Cd449 Cd 0.86906 0.74107 0.51508 0.0
Cd450 Cd 0.88849 0.73291 0.54627 0.0
O451 O 0.87821 0.75809 0.55393 0.0
O452 O 0.848 0.73748 0.4983 0.0
O453 O 0.85267 0.72055 0.52306 0.0
C454 C 0.84246 0.72472 0.50921 0.0
C455 C 0.89336 0.71234 0.57039 0.0
C456 C 0.86963 0.76969 0.54423 0.0
C457 C 0.9082 0.7337 0.50918 0.0
O458 O 0.90859 0.73187 0.52648 0.0
O459 O 0.89322 0.73707 0.50105 0.0
O460 O 0.90336 0.72663 0.56812 0.0
O461 O 0.88016 0.70965 0.55896 0.0
O462 O 0.86329 0.22855 0.97897 0.0
Cd463 Cd 0.86822 0.2543 0.98921 0.0
Cd464 Cd 0.88496 0.26063 0.95602 0.0
O465 O 0.87051 0.23682 0.95086 0.0
O466 O 0.84835 0.26118 0.00638 0.0
O467 O 0.85236 0.27427 0.97922 0.0
C468 C 0.84287 0.27265 0.99408 0.0
C469 C 0.89084 0.27822 0.92988 0.0
C470 C 0.86402 0.22511 0.96195 0.0
C471 C 0.90775 0.26045 0.99135 0.0
O472 O 0.90687 0.26058 0.97397 0.0
O473 O 0.89331 0.25899 0.00088 0.0
O474 O 0.89813 0.26241 0.9323 0.0
O475 O 0.87984 0.28426 0.94231 0.0
O476 O 0.13222 0.26591 0.97556 0.0
Cd477 Cd 0.12816 0.24061 0.98717 0.0
Cd478 Cd 0.11076 0.23246 0.95493 0.0
O479 O 0.12344 0.25689 0.94814 0.0
O480 O 0.14884 0.23531 0.00394 0.0
O481 O 0.144 0.22024 0.978 0.0
C482 C 0.15408 0.22309 0.99228 0.0
C483 C 0.1062 0.21266 0.93011 0.0
C484 C 0.13032 0.26898 0.95857 0.0
C485 C 0.08897 0.23331 0.99091 0.0
O486 O 0.08939 0.23209 0.97355 0.0
O487 O 0.10358 0.23605 -0.0001 0.0
O488 O 0.09727 0.22772 0.93182 0.0
O489 O 0.11805 0.20867 0.94259 0.0
O490 O 0.63422 0.22991 0.01756 0.0
Cd491 Cd 0.62918 0.25587 0.00786 0.0
Cd492 Cd 0.61471 0.26233 0.04161 0.0
O493 O 0.62921 0.23844 0.04606 0.0
O494 O 0.64934 0.26379 0.99144 0.0
O495 O 0.64438 0.27563 0.019 0.0
C496 C 0.65438 0.27473 0.00441 0.0
C497 C 0.61074 0.28023 0.06789 0.0
C498 C 0.63465 0.22654 0.0346 0.0
C499 C 0.58981 0.26223 0.0077 0.0
O500 O 0.59177 0.2622 0.025 0.0
O501 O 0.60366 0.26092 0.99729 0.0
O502 O 0.60317 0.26447 0.06613 0.0
O503 O 0.62088 0.28608 0.05467 0.0
O504 O 0.48554 0.12918 0.23352 0.0
Cd505 Cd 0.49857 0.12704 0.25826 0.0
Cd506 Cd 0.46728 0.10779 0.2694 0.0
O507 O 0.45971 0.11723 0.24366 0.0
O508 O 0.51466 0.14858 0.26169 0.0
O509 O 0.48981 0.1434 0.27841 0.0
C510 C 0.50355 0.15384 0.27441 0.0
C511 C 0.44193 0.10173 0.28817 0.0
C512 C 0.46891 0.12482 0.231 0.0
C513 C 0.5053 0.08923 0.26949 0.0
O514 O 0.48821 0.08888 0.27275 0.0
O515 O 0.51288 0.1035 0.26319 0.0
O516 O 0.44616 0.09145 0.27455 0.0
O517 O 0.4522 0.11575 0.29136 0.0
O518 O 0.52289 0.36501 0.23217 0.0
Cd519 Cd 0.51189 0.36953 0.25768 0.0
Cd520 Cd 0.54451 0.38584 0.26544 0.0
O521 O 0.55067 0.37227 0.24135 0.0
O522 O 0.49509 0.34908 0.26364 0.0
O523 O 0.52153 0.3538 0.27787 0.0
C524 C 0.50712 0.34377 0.27547 0.0
C525 C 0.56966 0.38971 0.2849 0.0
C526 C 0.53999 0.36591 0.22921 0.0
C527 C 0.50939 0.40886 0.26465 0.0
O528 O 0.52677 0.40798 0.26536 0.0
O529 O 0.49995 0.39444 0.26253 0.0
O530 O 0.56842 0.39809 0.26949 0.0
O531 O 0.5565 0.37889 0.28954 0.0
O532 O 0.4795 0.86536 0.267 0.0
Cd533 Cd 0.49329 0.86925 0.24281 0.0
Cd534 Cd 0.46311 0.89106 0.23391 0.0
O535 O 0.45518 0.88153 0.2594 0.0
O536 O 0.51024 0.8483 0.23975 0.0
O537 O 0.48638 0.85319 0.22163 0.0
C538 C 0.50016 0.84306 0.22622 0.0
C539 C 0.43849 0.89813 0.21458 0.0
C540 C 0.4637 0.87154 0.2708 0.0
C541 C 0.50149 0.90803 0.23524 0.0
O542 O 0.48448 0.90941 0.23191 0.0
O543 O 0.50834 0.89287 0.24021 0.0
O544 O 0.44251 0.90797 0.22858 0.0
O545 O 0.4485 0.88393 0.21138 0.0
O546 O 0.5294 0.6312 0.27119 0.0
Cd547 Cd 0.51613 0.62756 0.24661 0.0
Cd548 Cd 0.54666 0.60813 0.23732 0.0
O549 O 0.55508 0.61795 0.26251 0.0
O550 O 0.49983 0.64889 0.24265 0.0
O551 O 0.52434 0.64318 0.22564 0.0
C552 C 0.51068 0.65375 0.22956 0.0
C553 C 0.56994 0.6038 0.21574 0.0
C554 C 0.54584 0.62657 0.27447 0.0
C555 C 0.50944 0.58879 0.23863 0.0
O556 O 0.52664 0.58823 0.23611 0.0
O557 O 0.50167 0.60372 0.24289 0.0
O558 O 0.56817 0.59336 0.22979 0.0
O559 O 0.55856 0.61719 0.21393 0.0
O560 O 0.2299 0.47911 0.13379 0.0
Cd561 Cd 0.25427 0.49244 0.12955 0.0
Cd562 Cd 0.26358 0.4613 0.10977 0.0
O563 O 0.23785 0.45396 0.11913 0.0
O564 O 0.25829 0.50947 0.15028 0.0
O565 O 0.27542 0.48489 0.14529 0.0
C566 C 0.27149 0.49888 0.1554 0.0
C567 C 0.28285 0.43623 0.10437 0.0
C568 C 0.22623 0.463 0.12841 0.0
C569 C 0.26279 0.49871 0.09069 0.0
O570 O 0.2662 0.48167 0.09037 0.0
O571 O 0.25731 0.50638 0.10528 0.0
O572 O 0.26911 0.43985 0.09403 0.0
O573 O 0.28583 0.4469 0.11813 0.0
O574 O 0.76982 0.01947 0.13609 0.0
Cd575 Cd 0.74503 0.0069 0.13181 0.0
Cd576 Cd 0.73649 0.03983 0.11408 0.0
O577 O 0.75974 0.0469 0.12861 0.0
O578 O 0.74153 0.98951 0.15236 0.0
O579 O 0.72417 0.01408 0.14815 0.0
C580 C 0.72851 4e-05 0.15804 0.0
C581 C 0.71829 0.06509 0.10633 0.0
C582 C 0.77215 0.03666 0.13517 0.0
C583 C 0.73887 0.00347 0.09247 0.0
O584 O 0.7376 0.02083 0.0931 0.0
O585 O 0.74106 0.99426 0.10704 0.0
O586 O 0.73427 0.06263 0.09944 0.0
O587 O 0.71238 0.05317 0.11795 0.0
O588 O 0.23266 0.5209 0.36797 0.0
Cd589 Cd 0.25806 0.50924 0.37162 0.0
Cd590 Cd 0.26521 0.54026 0.3917 0.0
O591 O 0.23947 0.54671 0.38201 0.0
O592 O 0.26277 0.49321 0.35023 0.0
O593 O 0.27828 0.51873 0.3557 0.0
C594 C 0.27501 0.5049 0.34513 0.0
C595 C 0.28397 0.56585 0.39639 0.0
C596 C 0.22824 0.53693 0.37305 0.0
C597 C 0.26641 0.50281 0.41055 0.0
O598 O 0.26783 0.52014 0.41132 0.0
O599 O 0.26277 0.49496 0.39548 0.0
O600 O 0.27023 0.56228 0.40677 0.0
O601 O 0.28732 0.55471 0.38309 0.0
O602 O 0.77247 0.97374 0.36749 0.0
Cd603 Cd 0.74781 0.98669 0.3717 0.0
Cd604 Cd 0.73939 0.95541 0.3916 0.0
O605 O 0.76396 0.94766 0.37997 0.0
O606 O 0.74443 0.00349 0.35064 0.0
O607 O 0.72666 0.97943 0.35574 0.0
C608 C 0.73113 0.9931 0.34541 0.0
C609 C 0.71976 0.93077 0.39732 0.0
C610 C 0.77575 0.95714 0.37142 0.0
C611 C 0.74091 0.99258 0.41108 0.0
O612 O 0.73901 0.97529 0.41169 0.0
O613 O 0.74415 0.00058 0.39598 0.0
O614 O 0.73479 0.93295 0.40618 0.0
O615 O 0.71552 0.94275 0.38506 0.0
O616 O 0.13186 0.23621 0.48174 0.0
Cd617 Cd 0.12932 0.26051 0.4955 0.0
Cd618 Cd 0.11023 0.27217 0.46428 0.0
O619 O 0.12023 0.24687 0.45597 0.0
O620 O 0.15074 0.26358 0.51183 0.0
O621 O 0.14565 0.28098 0.48744 0.0
C622 C 0.15604 0.27659 0.50109 0.0
C623 C 0.10403 0.29201 0.4398 0.0
C624 C 0.12786 0.23407 0.46497 0.0
C625 C 0.09132 0.27106 0.50217 0.0
O626 O 0.0911 0.27458 0.48513 0.0
O627 O 0.10562 0.26488 0.50978 0.0
O628 O 0.094 0.27798 0.44325 0.0
O629 O 0.11798 0.2949 0.45025 0.0
O630 O 0.13093 0.77032 0.02194 0.0
Cd631 Cd 0.12793 0.74541 0.00923 0.0
Cd632 Cd 0.10986 0.73603 0.04075 0.0
O633 O 0.12076 0.76093 0.04876 0.0
O634 O 0.14919 0.74222 0.99265 0.0
O635 O 0.14423 0.72473 0.01698 0.0
C636 C 0.15453 0.72911 0.00325 0.0
C637 C 0.10549 0.71518 0.06473 0.0
C638 C 0.12789 0.77326 0.03879 0.0
C639 C 0.08916 0.73715 0.004 0.0
O640 O 0.08924 0.73517 0.0213 0.0
O641 O 0.10385 0.74089 0.99552 0.0
O642 O 0.09545 0.7295 0.06284 0.0
O643 O 0.11841 0.71259 0.05296 0.0
O644 O 0.86503 0.7321 0.01959 0.0
Cd645 Cd 0.86982 0.75775 0.00898 0.0
Cd646 Cd 0.88831 0.76388 0.04109 0.0
O647 O 0.87675 0.7387 0.04657 0.0
O648 O 0.84955 0.76369 0.99191 0.0
O649 O 0.85376 0.77787 0.01843 0.0
C650 C 0.84401 0.7755 0.00384 0.0
C651 C 0.89234 0.78231 0.06693 0.0
C652 C 0.86855 0.7276 0.03601 0.0
C653 C 0.90947 0.76482 0.00508 0.0
O654 O 0.90946 0.7655 0.02247 0.0
O655 O 0.89464 0.76232 0.99636 0.0
O656 O 0.90143 0.76744 0.06461 0.0
O657 O 0.88074 0.78702 0.05447 0.0
O658 O 0.36189 0.76443 0.96729 0.0
Cd659 Cd 0.36724 0.74032 0.98084 0.0
Cd660 Cd 0.38687 0.73246 0.94929 0.0
O661 O 0.37576 0.75722 0.94151 0.0
O662 O 0.34719 0.73791 0.999 0.0
O663 O 0.35085 0.71883 0.97571 0.0
C664 C 0.34132 0.72411 0.98967 0.0
C665 C 0.391 0.71182 0.92513 0.0
C666 C 0.36633 0.76834 0.95095 0.0
C667 C 0.40701 0.73457 0.98596 0.0
O668 O 0.40732 0.73216 0.96872 0.0
O669 O 0.39202 0.73783 0.99415 0.0
O670 O 0.40083 0.7263 0.92682 0.0
O671 O 0.37862 0.70879 0.93738 0.0
H672 H 0.97161 0.17887 0.21215 0.0
H673 H 0.97526 0.21109 0.20394 0.0
H674 H 0.03269 0.20808 0.21735 0.0
H675 H 0.02899 0.17605 0.22615 0.0
H676 H 0.01618 0.23388 0.23634 0.0
H677 H 0.99643 0.2422 0.1637 0.0
H678 H 0.97938 0.23015 0.17662 0.0
H679 H 0.0017 0.22014 0.17356 0.0
C680 C 0.98513 0.18493 0.21282 0.0
C681 C -2e-05 0.175 0.21997 0.0
C682 C 0.98723 0.20335 0.208 0.0
C683 C 0.00428 0.21203 0.20991 0.0
C684 C 0.0194 0.20169 0.21575 0.0
H685 H 0.03273 0.32834 0.20781 0.0
H686 H 0.03205 0.2958 0.1996 0.0
C687 C 0.01726 0.18338 0.2208 0.0
C688 C 0.00575 0.23227 0.20878 0.0
H689 H 0.99581 0.26959 0.18228 0.0
C690 C 0.01203 0.24161 0.22437 0.0
C691 C 0.00025 0.24244 0.1932 0.0
C692 C 0.99424 0.2332 0.17576 0.0
C693 C 0.01243 0.26075 0.22503 0.0
C694 C 0.00628 0.27088 0.20978 0.0
C695 C 0.00043 0.26169 0.19397 0.0
C696 C 0.00509 0.29102 0.2108 0.0
C697 C 0.01897 0.27012 0.24225 0.0
C698 C 0.98991 0.29911 0.21927 0.0
C699 C 0.99028 0.31759 0.22409 0.0
C700 C 0.00587 0.3283 0.22049 0.0
C701 C 0.02053 0.32046 0.21076 0.0
C702 C 0.02016 0.3019 0.20601 0.0
H703 H 0.02456 0.26029 0.25242 0.0
H704 H 0.02974 0.2803 0.23887 0.0
H705 H 0.00741 0.27763 0.24864 0.0
H706 H 0.97822 0.29084 0.22315 0.0
H707 H 0.97873 0.32323 0.23147 0.0
H708 H 0.02416 0.67119 0.30086 0.0
H709 H 0.02161 0.70284 0.31176 0.0
H710 H 0.98493 0.71508 0.26709 0.0
H711 H 0.9867 0.68358 0.2568 0.0
H712 H 0.0326 0.73202 0.29638 0.0
H713 H 0.95883 0.74162 0.30587 0.0
H714 H 0.96867 0.71914 0.30312 0.0
H715 H 0.96215 0.73255 0.28338 0.0
C716 C 0.0152 0.68056 0.29367 0.0
C717 C 0.00557 0.67485 0.27801 0.0
C718 C 0.01376 0.69865 0.2999 0.0
C719 C 0.00277 0.71137 0.2905 0.0
C720 C 0.99295 0.7055 0.27505 0.0
H721 H 0.0231 0.81789 0.2583 0.0
H722 H 0.02475 0.78634 0.26849 0.0
C723 C 0.99413 0.68743 0.26904 0.0
C724 C 0.00309 0.73118 0.29526 0.0
H725 H 0.97568 0.76895 0.29528 0.0
C726 C 0.02011 0.74004 0.29663 0.0
C727 C 0.98689 0.74178 0.29631 0.0
C728 C 0.96815 0.73317 0.29732 0.0
C729 C 0.02135 0.7592 0.29718 0.0
C730 C 0.00521 0.76982 0.29551 0.0
C731 C 0.98816 0.76094 0.29602 0.0
C732 C 0.00571 0.78969 0.291 0.0
C733 C 0.04003 0.76779 0.29914 0.0
C734 C 0.99414 0.80222 0.29993 0.0
C735 C 0.99278 0.82033 0.29373 0.0
C736 C 0.00307 0.82623 0.27858 0.0
C737 C 0.01514 0.81387 0.27015 0.0
C738 C 0.01625 0.79578 0.27612 0.0
H739 H 0.04893 0.75926 0.30805 0.0
H740 H 0.04668 0.76852 0.2855 0.0
H741 H 0.03924 0.78177 0.30502 0.0
H742 H 0.98576 0.79787 0.31136 0.0
H743 H 0.98333 0.82954 0.30049 0.0
H744 H 0.22414 0.02432 0.176 0.0
H745 H 0.21437 0.02571 0.20797 0.0
H746 H 0.19592 0.96978 0.20498 0.0
H747 H 0.20555 0.96824 0.17287 0.0
H748 H 0.17759 0.01274 0.22899 0.0
H749 H 0.24308 0.97549 0.24153 0.0
H750 H 0.23956 0.98886 0.22105 0.0
H751 H 0.22791 0.96746 0.22383 0.0
C752 C 0.21755 0.01246 0.18196 0.0
C753 C 0.21583 0.99609 0.17198 0.0
C754 C 0.2119 0.01332 0.20021 0.0
C755 C 0.20452 0.99783 0.20878 0.0
C756 C 0.20153 0.98189 0.19851 0.0
H757 H 0.21626 0.98047 0.32561 0.0
H758 H 0.20686 0.97509 0.29396 0.0
C759 C 0.20707 0.98104 0.18019 0.0
C760 C 0.20283 0.99757 0.22893 0.0
H761 H 0.22687 0.98567 0.26705 0.0
C762 C 0.18818 0.00663 0.2374 0.0
C763 C 0.21667 0.98953 0.23976 0.0
C764 C 0.23278 0.97981 0.23121 0.0
C765 C 0.18718 0.00808 0.25659 0.0
C766 C 0.2015 0.00075 0.26743 0.0
C767 C 0.21583 0.99123 0.25883 0.0
C768 C 0.20289 0.00375 0.28752 0.0
C769 C 0.1708 0.01742 0.26499 0.0
C770 C 0.20309 0.02159 0.29473 0.0
C771 C 0.20811 0.02465 0.31296 0.0
C772 C 0.21346 0.00996 0.32415 0.0
C773 C 0.21228 0.99206 0.31725 0.0
C774 C 0.20692 0.98898 0.29916 0.0
H775 H 0.15853 0.01597 0.25612 0.0
H776 H 0.16759 0.01179 0.27873 0.0
H777 H 0.1737 0.03226 0.26639 0.0
H778 H 0.20055 0.03328 0.28599 0.0
H779 H 0.20907 0.03861 0.31787 0.0
H780 H 0.75532 0.4826 0.1798 0.0
H781 H 0.765 0.4814 0.21156 0.0
H782 H 0.81165 0.51536 0.19888 0.0
H783 H 0.80137 0.51743 0.16695 0.0
H784 H 0.79347 0.4699 0.22978 0.0
H785 H 0.78869 0.5455 0.23798 0.0
H786 H 0.78123 0.53409 0.21745 0.0
H787 H 0.80524 0.53763 0.22163 0.0
C788 C 0.76775 0.4897 0.18366 0.0
C789 C 0.77744 0.50032 0.1709 0.0
C790 C 0.77332 0.48896 0.20188 0.0
C791 C 0.78885 0.49862 0.20778 0.0
C792 C 0.7993 0.50825 0.19481 0.0
H793 H 0.80127 0.48092 0.32726 0.0
H794 H 0.81138 0.48267 0.29527 0.0
C795 C 0.79351 0.5093 0.17654 0.0
C796 C 0.79301 0.49926 0.2277 0.0
H797 H 0.79349 0.52823 0.26438 0.0
C798 C 0.79372 0.48265 0.23737 0.0
C799 C 0.79338 0.51595 0.23758 0.0
C800 C 0.79196 0.53431 0.2282 0.0
C801 C 0.79323 0.48218 0.25658 0.0
C802 C 0.79287 0.49887 0.26645 0.0
C803 C 0.79372 0.51547 0.25679 0.0
C804 C 0.78867 0.49953 0.28637 0.0
C805 C 0.79165 0.46382 0.26594 0.0
C806 C 0.77323 0.50933 0.29227 0.0
C807 C 0.76776 0.50878 0.31054 0.0
C808 C 0.77746 0.49821 0.32332 0.0
C809 C 0.7934 0.48902 0.31765 0.0
C810 C 0.7991 0.48988 0.29934 0.0
H811 H 0.78831 0.45267 0.25616 0.0
H812 H 0.80489 0.46039 0.27254 0.0
H813 H 0.7809 0.46413 0.27668 0.0
H814 H 0.76494 0.51691 0.28258 0.0
H815 H 0.75542 0.51603 0.31443 0.0
H816 H 0.3184 0.20566 0.03659 0.0
H817 H 0.28654 0.19723 0.03097 0.0
H818 H 0.29389 0.20765 0.97329 0.0
H819 H 0.32551 0.21687 0.97899 0.0
H820 H 0.26707 0.22703 0.98593 0.0
H821 H 0.25666 0.15633 0.0106 0.0
H822 H 0.26719 0.17025 0.02784 0.0
H823 H 0.27919 0.16576 0.00675 0.0
C824 C 0.31337 0.20561 0.02264 0.0
C825 C 0.32436 0.21208 0.00825 0.0
C826 C 0.29515 0.20066 0.01941 0.0
C827 C 0.28777 0.20167 0.00167 0.0
C828 C 0.29924 0.20677 0.98709 0.0
H829 H 0.17297 0.20307 0.96683 0.0
H830 H 0.20523 0.19394 0.96843 0.0
C831 C 0.31731 0.21204 0.99036 0.0
C832 C 0.26767 0.20045 0.99877 0.0
H833 H 0.22944 0.17536 0.00883 0.0
C834 C 0.25895 0.21551 0.99059 0.0
C835 C 0.25697 0.1855 0.00493 0.0
C836 C 0.26553 0.16848 0.01284 0.0
C837 C 0.23987 0.21635 0.98903 0.0
C838 C 0.22918 0.20182 0.99591 0.0
C839 C 0.23777 0.18649 0.00363 0.0
C840 C 0.20903 0.20331 0.99624 0.0
C841 C 0.23114 0.23311 0.98066 0.0
C842 C 0.20048 0.21106 0.01155 0.0
C843 C 0.18216 0.21644 0.01064 0.0
C844 C 0.1721 0.21409 0.9944 0.0
C845 C 0.18035 0.20506 0.97953 0.0
C846 C 0.19875 0.19979 0.98042 0.0
H847 H 0.24143 0.24334 0.97611 0.0
H848 H 0.22272 0.22905 0.96868 0.0
H849 H 0.22188 0.23968 0.99076 0.0
H850 H 0.20829 0.21398 0.02382 0.0
H851 H 0.17618 0.22326 0.02237 0.0
H852 H 0.31952 0.77131 0.52195 0.0
H853 H 0.28717 0.7794 0.5242 0.0
H854 H 0.28995 0.8061 0.47168 0.0
H855 H 0.32248 0.7981 0.46927 0.0
H856 H 0.26524 0.82284 0.50458 0.0
H857 H 0.25462 0.75044 0.48323 0.0
H858 H 0.27084 0.75443 0.50133 0.0
H859 H 0.27564 0.76262 0.47868 0.0
C860 C 0.31342 0.77931 0.51107 0.0
C861 C 0.3235 0.78385 0.49531 0.0
C862 C 0.29495 0.78398 0.51242 0.0
C863 C 0.28623 0.79323 0.49806 0.0
C864 C 0.29652 0.79902 0.48293 0.0
H865 H 0.17089 0.7773 0.47776 0.0
H866 H 0.20304 0.78515 0.47317 0.0
C867 C 0.31508 0.7944 0.48157 0.0
C868 C 0.26603 0.79421 0.4977 0.0
H869 H 0.22854 0.76707 0.49213 0.0
C870 C 0.25713 0.81074 0.50173 0.0
C871 C 0.2556 0.77842 0.49376 0.0
C872 C 0.26458 0.76046 0.48888 0.0
C873 C 0.23789 0.81172 0.50237 0.0
C874 C 0.22747 0.79572 0.49908 0.0
C875 C 0.2365 0.77935 0.49462 0.0
C876 C 0.20723 0.7951 0.50076 0.0
C877 C 0.22891 0.82984 0.50648 0.0
C878 C 0.19869 0.79873 0.5176 0.0
C879 C 0.18019 0.79441 0.52021 0.0
C880 C 0.17008 0.7861 0.5061 0.0
C881 C 0.17836 0.78357 0.48893 0.0
C882 C 0.19674 0.78807 0.48628 0.0
H883 H 0.23811 0.84148 0.50317 0.0
H884 H 0.21596 0.83144 0.49868 0.0
H885 H 0.22565 0.83053 0.52129 0.0
H886 H 0.20656 0.80378 0.52909 0.0
H887 H 0.1742 0.79642 0.53362 0.0
H888 H 0.81925 0.72907 0.48031 0.0
H889 H 0.78669 0.72158 0.47935 0.0
H890 H 0.7909 0.69538 0.53202 0.0
H891 H 0.82363 0.70279 0.53316 0.0
H892 H 0.76471 0.67916 0.49838 0.0
H893 H 0.75623 0.75081 0.52313 0.0
H894 H 0.77234 0.7468 0.5049 0.0
H895 H 0.77683 0.73782 0.52729 0.0
C896 C 0.81341 0.72129 0.4915 0.0
C897 C 0.82398 0.71673 0.50693 0.0
C898 C 0.79481 0.71697 0.49087 0.0
C899 C 0.78647 0.70801 0.50563 0.0
C900 C 0.79719 0.70222 0.52046 0.0
H901 H 0.67195 0.7246 0.53054 0.0
H902 H 0.70416 0.71628 0.53373 0.0
C903 C 0.81586 0.7065 0.5211 0.0
C904 C 0.76629 0.70736 0.50672 0.0
H905 H 0.72955 0.73484 0.515 0.0
C906 C 0.75694 0.69123 0.50215 0.0
C907 C 0.75632 0.72311 0.51182 0.0
C908 C 0.76584 0.74064 0.51718 0.0
C909 C 0.73767 0.69063 0.50214 0.0
C910 C 0.72768 0.70662 0.50662 0.0
C911 C 0.73718 0.72256 0.51161 0.0
C912 C 0.70742 0.7077 0.50557 0.0
C913 C 0.72821 0.67291 0.49742 0.0
C914 C 0.69835 0.70505 0.48882 0.0
C915 C 0.67984 0.70966 0.48699 0.0
C916 C 0.6702 0.71728 0.50181 0.0
C917 C 0.67903 0.71887 0.51883 0.0
C918 C 0.69744 0.7141 0.52069 0.0
H919 H 0.73727 0.66094 0.49988 0.0
H920 H 0.71546 0.67116 0.50551 0.0
H921 H 0.72452 0.67301 0.48269 0.0
H922 H 0.70583 0.7005 0.47686 0.0
H923 H 0.67345 0.70837 0.47368 0.0
H924 H 0.02589 0.82724 0.79832 0.0
H925 H 0.02585 0.79449 0.80575 0.0
H926 H 0.97319 0.78859 0.77984 0.0
H927 H 0.97309 0.82114 0.7723 0.0
H928 H 0.99468 0.76704 0.82229 0.0
H929 H 0.01638 0.75992 0.74955 0.0
H930 H 0.01962 0.78082 0.76233 0.0
H931 H 0.99729 0.77482 0.75408 0.0
C932 C 0.01406 0.81908 0.79469 0.0
C933 C 0.99961 0.82671 0.78449 0.0
C934 C 0.01405 0.8004 0.79899 0.0
C935 C 0.99956 0.78921 0.79324 0.0
C936 C 0.98448 0.79707 0.78439 0.0
H937 H 0.97113 0.67537 0.79347 0.0
H938 H 0.9739 0.70767 0.80184 0.0
C939 C 0.9845 0.81566 0.78003 0.0
C940 C 0.00138 0.76909 0.79368 0.0
H941 H 0.00928 0.73285 0.76545 0.0
C942 C 0.99803 0.75948 0.80996 0.0
C943 C 0.00596 0.7594 0.7776 0.0
C944 C 0.01016 0.76919 0.75988 0.0
C945 C 0.99866 0.74023 0.8104 0.0
C946 C 0.00253 0.73051 0.79408 0.0
C947 C 0.00635 0.74027 0.77797 0.0
C948 C 0.00202 0.71025 0.79283 0.0
C949 C 0.99526 0.73049 0.82827 0.0
C950 C 0.01697 0.70084 0.78525 0.0
C951 C 0.0153 0.68252 0.78015 0.0
C952 C 0.99867 0.67319 0.78264 0.0
C953 C 0.98414 0.68219 0.79148 0.0
C954 C 0.98575 0.70064 0.79638 0.0
H955 H 0.99822 0.73951 0.84016 0.0
H956 H 0.98063 0.72646 0.82902 0.0
H957 H 0.00374 0.71793 0.8294 0.0
H958 H 0.02965 0.70797 0.78237 0.0
H959 H 0.02678 0.6759 0.77349 0.0
H960 H 0.03017 0.16985 0.705 0.0
H961 H 0.03152 0.20175 0.69464 0.0
H962 H 0.97717 0.21099 0.7156 0.0
H963 H 0.9757 0.17927 0.72612 0.0
H964 H 0.9911 0.22945 0.67713 0.0
H965 H 0.03107 0.24 0.74139 0.0
H966 H 0.03641 0.22095 0.72665 0.0
H967 H 0.01529 0.22113 0.73912 0.0
C968 C 0.01831 0.17852 0.70694 0.0
C969 C 0.00291 0.17213 0.71659 0.0
C970 C 0.0191 0.19671 0.70098 0.0
C971 C 0.00445 0.20864 0.70441 0.0
C972 C 0.98855 0.20192 0.71276 0.0
H973 H 0.97171 0.31956 0.70826 0.0
H974 H 0.97517 0.28756 0.69943 0.0
C975 C 0.98779 0.18382 0.71885 0.0
C976 C 0.00666 0.22859 0.70213 0.0
H977 H 0.02206 0.266 0.72525 0.0
C978 C 0.99811 0.23751 0.68744 0.0
C979 C 0.01588 0.23896 0.71557 0.0
C980 C 0.0252 0.2299 0.73165 0.0
C981 C 0.99819 0.25673 0.68611 0.0
C982 C 0.00656 0.26718 0.70015 0.0
C983 C 0.01569 0.25808 0.71443 0.0
C984 C 0.00477 0.28741 0.70149 0.0
C985 C 0.98927 0.26556 0.66973 0.0
C986 C 0.02021 0.29818 0.70544 0.0
C987 C 0.01819 0.31636 0.71101 0.0
C988 C 0.0007 0.3242 0.71246 0.0
C989 C 0.98537 0.31392 0.7071 0.0
C990 C 0.98736 0.29561 0.70189 0.0
H991 H 0.99014 0.25653 0.65752 0.0
H992 H 0.97455 0.26784 0.67269 0.0
H993 H 0.99568 0.27892 0.66638 0.0
H994 H 0.03378 0.2922 0.70523 0.0
H995 H 0.03025 0.324 0.71499 0.0
H996 H 0.7761 0.96716 0.82476 0.0
H997 H 0.78514 0.96404 0.79272 0.0
H998 H 0.79529 0.02214 0.78991 0.0
H999 H 0.78693 0.02521 0.82213 0.0
H1000 H 0.76574 0.97898 0.76673 0.0
H1001 H 0.83673 0.00394 0.75904 0.0
H1002 H 0.82706 0.99821 0.78106 0.0
H1003 H 0.82269 0.02023 0.77085 0.0
C1004 C 0.78079 0.97918 0.81746 0.0
C1005 C 0.7807 0.99645 0.82592 0.0
C1006 C 0.78597 0.97738 0.79914 0.0
C1007 C 0.791 0.99283 0.78886 0.0
C1008 C 0.79191 0.00994 0.7976 0.0
H1009 H 0.77026 0.02059 0.67833 0.0
H1010 H 0.77858 0.02014 0.71073 0.0
C1011 C 0.78699 0.0117 0.81603 0.0
C1012 C 0.7924 0.99149 0.76861 0.0
H1013 H 0.81814 0.00401 0.73154 0.0
C1014 C 0.77739 0.98411 0.75911 0.0
C1015 C 0.80755 0.99828 0.75858 0.0
C1016 C 0.82449 0.00543 0.76793 0.0
C1017 C 0.77682 0.98394 0.73996 0.0
C1018 C 0.79157 0.99142 0.72998 0.0
C1019 C 0.80684 0.99835 0.73932 0.0
C1020 C 0.79044 0.99306 0.70987 0.0
C1021 C 0.76015 0.97633 0.7304 0.0
C1022 C 0.79493 0.97817 0.69862 0.0
C1023 C 0.79021 0.97837 0.68004 0.0
C1024 C 0.78077 0.9934 0.67257 0.0
C1025 C 0.77742 0.00876 0.68368 0.0
C1026 C 0.78224 0.00858 0.70218 0.0
H1027 H 0.74996 0.97067 0.74017 0.0
H1028 H 0.75349 0.98727 0.72223 0.0
H1029 H 0.76431 0.96532 0.72079 0.0
H1030 H 0.80114 0.96602 0.70442 0.0
H1031 H 0.79296 0.96632 0.67185 0.0
H1032 H 0.20233 0.47089 0.82273 0.0
H1033 H 0.19441 0.47204 0.79013 0.0
H1034 H 0.21674 0.5265 0.78651 0.0
H1035 H 0.22475 0.52552 0.81896 0.0
H1036 H 0.17605 0.50534 0.76405 0.0
H1037 H 0.249 0.4844 0.75607 0.0
H1038 H 0.23602 0.47914 0.77643 0.0
H1039 H 0.24373 0.50209 0.77242 0.0
C1040 C 0.20504 0.48333 0.81514 0.0
C1041 C 0.21441 0.49802 0.82335 0.0
C1042 C 0.20045 0.48397 0.79654 0.0
C1043 C 0.20506 0.49934 0.78601 0.0
C1044 C 0.21303 0.51457 0.7945 0.0
H1045 H 0.20512 0.53097 0.67275 0.0
H1046 H 0.19683 0.52767 0.70504 0.0
C1047 C 0.21767 0.51393 0.81302 0.0
C1048 C 0.2046 0.49836 0.76583 0.0
H1049 H 0.23274 0.49145 0.72931 0.0
C1050 C 0.18834 0.50217 0.75636 0.0
C1051 C 0.22067 0.49407 0.75599 0.0
C1052 C 0.23839 0.48959 0.76564 0.0
C1053 C 0.18788 0.50214 0.73709 0.0
C1054 C 0.20415 0.49842 0.72723 0.0
C1055 C 0.22025 0.49424 0.73685 0.0
C1056 C 0.20532 0.49935 0.70698 0.0
C1057 C 0.17004 0.50599 0.72748 0.0
C1058 C 0.21255 0.48445 0.69723 0.0
C1059 C 0.21759 0.4864 0.67891 0.0
C1060 C 0.21539 0.50327 0.66994 0.0
C1061 C 0.20689 0.51778 0.67929 0.0
C1062 C 0.20204 0.51588 0.69773 0.0
H1063 H 0.15813 0.50309 0.73648 0.0
H1064 H 0.16952 0.52068 0.72365 0.0
H1065 H 0.16874 0.49772 0.71479 0.0
H1066 H 0.21522 0.47158 0.70409 0.0
H1067 H 0.22398 0.47493 0.67203 0.0
H1068 H 0.6728 0.79478 0.97062 0.0
H1069 H 0.70531 0.803 0.9708 0.0
H1070 H 0.70971 0.78503 0.0268 0.0
H1071 H 0.6773 0.77669 0.02679 0.0
H1072 H 0.73169 0.82236 0.00916 0.0
H1073 H 0.73996 0.75246 0.97946 0.0
H1074 H 0.72134 0.76691 0.97211 0.0
H1075 H 0.72129 0.75761 0.9948 0.0
C1076 C 0.68053 0.79309 0.98316 0.0
C1077 C 0.67253 0.78486 0.99863 0.0
C1078 C 0.69908 0.79784 0.98323 0.0
C1079 C 0.70981 0.79458 0.9988 0.0
C1080 C 0.70157 0.78773 0.0147 0.0
H1081 H 0.82281 0.79127 0.03033 0.0
H1082 H 0.79051 0.79961 0.02775 0.0
C1083 C 0.68306 0.7829 0.01463 0.0
C1084 C 0.72998 0.79533 0.9976 0.0
H1085 H 0.76658 0.76882 0.98618 0.0
C1086 C 0.73941 0.81078 0.00399 0.0
C1087 C 0.73987 0.7802 0.99081 0.0
C1088 C 0.73023 0.76327 0.98389 0.0
C1089 C 0.75867 0.81137 0.00389 0.0
C1090 C 0.7686 0.79595 0.99759 0.0
C1091 C 0.75902 0.78069 0.99091 0.0
C1092 C 0.78887 0.79464 0.99856 0.0
C1093 C 0.76816 0.8285 0.0104 0.0
C1094 C 0.79883 0.7893 0.98301 0.0
C1095 C 0.81718 0.78418 0.98453 0.0
C1096 C 0.82599 0.78443 0.00163 0.0
C1097 C 0.81642 0.79106 0.01695 0.0
C1098 C 0.79796 0.79595 0.01547 0.0
H1099 H 0.75922 0.8407 0.00883 0.0
H1100 H 0.77147 0.82706 0.02515 0.0
H1101 H 0.78109 0.8309 0.00278 0.0
H1102 H 0.79213 0.78818 0.96983 0.0
H1103 H 0.82422 0.77923 0.97246 0.0
H1104 H 0.67277 0.21059 0.53337 0.0
H1105 H 0.70517 0.20186 0.533 0.0
H1106 H 0.71047 0.22331 0.47832 0.0
H1107 H 0.67823 0.23215 0.47852 0.0
H1108 H 0.7319 0.18281 0.49981 0.0
H1109 H 0.74016 0.25549 0.52161 0.0
H1110 H 0.71969 0.2426 0.52664 0.0
H1111 H 0.72392 0.25041 0.50376 0.0
C1112 C 0.68067 0.21291 0.52104 0.0
C1113 C 0.67302 0.22231 0.50607 0.0
C1114 C 0.69915 0.20785 0.52085 0.0
C1115 C 0.71011 0.212 0.50565 0.0
C1116 C 0.70214 0.21994 0.49012 0.0
H1117 H 0.82352 0.21132 0.47553 0.0
H1118 H 0.79125 0.20295 0.47868 0.0
C1119 C 0.68374 0.22507 0.49032 0.0
C1120 C 0.73025 0.21129 0.50713 0.0
H1121 H 0.76686 0.23902 0.51498 0.0
C1122 C 0.73964 0.19499 0.50328 0.0
C1123 C 0.74015 0.2272 0.5118 0.0
C1124 C 0.73057 0.24496 0.51629 0.0
C1125 C 0.7589 0.19435 0.50365 0.0
C1126 C 0.76883 0.2105 0.50772 0.0
C1127 C 0.75928 0.22662 0.51195 0.0
C1128 C 0.7891 0.21157 0.50696 0.0
C1129 C 0.76841 0.17646 0.49977 0.0
C1130 C 0.79875 0.2189 0.52188 0.0
C1131 C 0.81705 0.22403 0.51999 0.0
C1132 C 0.82611 0.22178 0.50318 0.0
C1133 C 0.8169 0.21312 0.48868 0.0
C1134 C 0.79847 0.20821 0.4905 0.0
H1135 H 0.75932 0.16461 0.50267 0.0
H1136 H 0.77219 0.17592 0.48507 0.0
H1137 H 0.7811 0.17506 0.50802 0.0
H1138 H 0.79181 0.22162 0.5347 0.0
H1139 H 0.82384 0.23055 0.53145 0.0
H1140 H 0.17783 0.27504 0.53128 0.0
H1141 H 0.21015 0.28326 0.53326 0.0
H1142 H 0.20836 0.30405 0.47803 0.0
H1143 H 0.17584 0.29627 0.47612 0.0
H1144 H 0.23413 0.26639 0.51113 0.0
H1145 H 0.24135 0.34145 0.50279 0.0
H1146 H 0.21991 0.33073 0.50889 0.0
H1147 H 0.22743 0.33097 0.48545 0.0
C1148 C 0.18418 0.28183 0.51973 0.0
C1149 C 0.17435 0.28486 0.50348 0.0
C1150 C 0.20265 0.28655 0.5209 0.0
C1151 C 0.21168 0.29432 0.50582 0.0
C1152 C 0.20162 0.29841 0.48996 0.0
H1153 H 0.32239 0.27486 0.474 0.0
H1154 H 0.2899 0.28271 0.4746 0.0
C1155 C 0.18304 0.29385 0.48885 0.0
C1156 C 0.23195 0.2953 0.50573 0.0
H1157 H 0.2686 0.3235 0.49838 0.0
C1158 C 0.24162 0.27895 0.50858 0.0
C1159 C 0.24174 0.31167 0.50231 0.0
C1160 C 0.23209 0.32975 0.49985 0.0
C1161 C 0.26074 0.27841 0.50775 0.0
C1162 C 0.27049 0.29461 0.50377 0.0
C1163 C 0.26098 0.3111 0.50129 0.0
C1164 C 0.2906 0.29413 0.50188 0.0
C1165 C 0.27045 0.26044 0.51092 0.0
C1166 C 0.30181 0.29867 0.51678 0.0
C1167 C 0.32043 0.29417 0.51651 0.0
C1168 C 0.328 0.28499 0.50137 0.0
C1169 C 0.31696 0.2818 0.48592 0.0
C1170 C 0.29841 0.28634 0.48619 0.0
H1171 H 0.26111 0.24975 0.51638 0.0
H1172 H 0.27624 0.25547 0.49778 0.0
H1173 H 0.28197 0.26229 0.52066 0.0
H1174 H 0.29593 0.30459 0.52904 0.0
H1175 H 0.32858 0.29684 0.52861 0.0
H1176 H 0.48656 0.81534 0.74466 0.0
H1177 H 0.48497 0.7836 0.73486 0.0
H1178 H 0.52058 0.79566 0.68928 0.0
H1179 H 0.52301 0.8275 0.69969 0.0
H1180 H 0.47372 0.76603 0.70585 0.0
H1181 H 0.54885 0.75543 0.7127 0.0
H1182 H 0.53785 0.77622 0.72005 0.0
H1183 H 0.54205 0.77222 0.69612 0.0
C1184 C 0.49396 0.81133 0.73245 0.0
C1185 C 0.5051 0.82389 0.72308 0.0
C1186 C 0.49301 0.79313 0.72682 0.0
C1187 C 0.50296 0.78707 0.71154 0.0
C1188 C 0.51322 0.79985 0.70144 0.0
H1189 H 0.48201 0.66853 0.69571 0.0
H1190 H 0.48509 0.7007 0.68653 0.0
C1191 C 0.51447 0.81807 0.7073 0.0
C1192 C 0.50312 0.76719 0.70716 0.0
H1193 H 0.53098 0.72967 0.70664 0.0
C1194 C 0.48625 0.75806 0.70579 0.0
C1195 C 0.5195 0.75682 0.70705 0.0
C1196 C 0.53809 0.7656 0.70919 0.0
C1197 C 0.48519 0.73887 0.70578 0.0
C1198 C 0.50156 0.72848 0.70635 0.0
C1199 C 0.51847 0.73764 0.70623 0.0
C1200 C 0.5015 0.70845 0.70998 0.0
C1201 C 0.46653 0.73003 0.7066 0.0
C1202 C 0.51061 0.70183 0.72555 0.0
C1203 C 0.5093 0.68346 0.73051 0.0
C1204 C 0.49864 0.67128 0.72014 0.0
C1205 C 0.49017 0.67766 0.70407 0.0
C1206 C 0.49179 0.69607 0.6989 0.0
H1207 H 0.45558 0.74007 0.7099 0.0
H1208 H 0.46328 0.7239 0.6931 0.0
H1209 H 0.4662 0.71902 0.71706 0.0
H1210 H 0.51823 0.71104 0.73434 0.0
H1211 H 0.51602 0.67902 0.74296 0.0
H1212 H 0.51147 0.31645 0.75179 0.0
H1213 H 0.51278 0.28471 0.76153 0.0
H1214 H 0.4808 0.29784 0.80944 0.0
H1215 H 0.47855 0.32973 0.79911 0.0
H1216 H 0.52556 0.26686 0.78943 0.0
H1217 H 0.44988 0.25829 0.78867 0.0
H1218 H 0.46079 0.2788 0.78047 0.0
H1219 H 0.45841 0.27485 0.80467 0.0
C1220 C 0.50481 0.31268 0.76449 0.0
C1221 C 0.49472 0.32557 0.77457 0.0
C1222 C 0.5056 0.29446 0.77008 0.0
C1223 C 0.49656 0.2887 0.78604 0.0
C1224 C 0.4874 0.30179 0.79679 0.0
H1225 H 0.51629 0.16975 0.79955 0.0
H1226 H 0.51444 0.20183 0.80932 0.0
C1227 C 0.48627 0.32004 0.79096 0.0
C1228 C 0.4962 0.26883 0.79049 0.0
H1229 H 0.46748 0.23206 0.79338 0.0
C1230 C 0.51287 0.25924 0.79051 0.0
C1231 C 0.47961 0.25889 0.79196 0.0
C1232 C 0.46114 0.26816 0.79131 0.0
C1233 C 0.51341 0.24003 0.7904 0.0
C1234 C 0.49678 0.23007 0.79121 0.0
C1235 C 0.4802 0.23969 0.79273 0.0
C1236 C 0.49601 0.21004 0.78758 0.0
C1237 C 0.53172 0.23073 0.78797 0.0
C1238 C 0.4853 0.20366 0.77295 0.0
C1239 C 0.48588 0.18531 0.76774 0.0
C1240 C 0.49741 0.17293 0.77687 0.0
C1241 C 0.50744 0.17904 0.79213 0.0
C1242 C 0.50653 0.19741 0.79761 0.0
H1243 H 0.54256 0.24048 0.78367 0.0
H1244 H 0.53601 0.22456 0.80116 0.0
H1245 H 0.53086 0.21969 0.77757 0.0
H1246 H 0.47702 0.21305 0.765 0.0
H1247 H 0.47797 0.18108 0.75594 0.0
H1248 H 0.70734 0.53546 0.82773 0.0
H1249 H 0.69938 0.53662 0.79517 0.0
H1250 H 0.70994 0.47879 0.79038 0.0
H1251 H 0.71818 0.47752 0.82279 0.0
H1252 H 0.72971 0.52306 0.7703 0.0
H1253 H 0.66223 0.49012 0.75787 0.0
H1254 H 0.66779 0.5015 0.77915 0.0
H1255 H 0.67724 0.47939 0.77424 0.0
C1256 C 0.70738 0.52287 0.8199 0.0
C1257 C 0.71356 0.50642 0.82776 0.0
C1258 C 0.70282 0.52357 0.80131 0.0
C1259 C 0.70397 0.50778 0.79045 0.0
C1260 C 0.70872 0.49107 0.79861 0.0
H1261 H 0.71526 0.47494 0.67901 0.0
H1262 H 0.70616 0.47823 0.71109 0.0
C1263 C 0.71353 0.4904 0.8171 0.0
C1264 C 0.70373 0.50926 0.77027 0.0
H1265 H 0.68108 0.49536 0.73185 0.0
C1266 C 0.71895 0.5173 0.76183 0.0
C1267 C 0.68983 0.5014 0.75942 0.0
C1268 C 0.67324 0.49267 0.76804 0.0
C1269 C 0.72106 0.51707 0.74278 0.0
C1270 C 0.70713 0.50921 0.73176 0.0
C1271 C 0.69165 0.50153 0.74025 0.0
C1272 C 0.70922 0.5077 0.71159 0.0
C1273 C 0.73873 0.52427 0.7348 0.0
C1274 C 0.71301 0.52324 0.70093 0.0
C1275 C 0.71865 0.52134 0.68275 0.0
C1276 C 0.71996 0.50392 0.67475 0.0
C1277 C 0.71438 0.48854 0.68486 0.0
C1278 C 0.70918 0.49041 0.70319 0.0
H1279 H 0.74974 0.52512 0.74527 0.0
H1280 H 0.74363 0.51545 0.72344 0.0
H1281 H 0.73646 0.53827 0.72939 0.0
H1282 H 0.71253 0.53678 0.70693 0.0
H1283 H 0.72263 0.53345 0.67516 0.0
H1284 H 0.29034 0.03332 0.67629 0.0
H1285 H 0.29854 0.0289 0.70841 0.0
H1286 H 0.28568 0.97145 0.70387 0.0
H1287 H 0.27683 0.97593 0.67195 0.0
H1288 H 0.26664 0.98674 0.73006 0.0
H1289 H 0.33877 0.00772 0.73915 0.0
H1290 H 0.32569 0.02497 0.72761 0.0
H1291 H 0.32908 0.00303 0.7169 0.0
C1292 C 0.2898 0.01964 0.68199 0.0
C1293 C 0.28278 0.005 0.67167 0.0
C1294 C 0.29461 0.0171 0.70036 0.0
C1295 C 0.29285 -0.00019 0.70859 0.0
C1296 C 0.28716 0.98492 0.69784 0.0
H1297 H 0.29287 0.96959 0.82463 0.0
H1298 H 0.30147 0.97022 0.79218 0.0
C1299 C 0.2821 0.9875 0.67959 0.0
C1300 C 0.29395 0.99784 0.72881 0.0
H1301 H 0.31994 0.00782 0.76647 0.0
C1302 C 0.27847 0.99102 0.73794 0.0
C1303 C 0.30933 0.00351 0.73917 0.0
C1304 C 0.32672 0.01004 0.73018 0.0
C1305 C 0.27768 0.9903 0.75707 0.0
C1306 C 0.29271 0.99666 0.7674 0.0
C1307 C 0.30843 0.00302 0.75842 0.0
C1308 C 0.29147 0.99767 0.78755 0.0
C1309 C 0.26053 0.98329 0.76623 0.0
C1310 C 0.28353 0.01312 0.79568 0.0
C1311 C 0.27848 0.01277 0.81411 0.0
C1312 C 0.28131 0.99695 0.82471 0.0
C1313 C 0.29051 0.98197 0.81684 0.0
C1314 C 0.29548 0.98231 0.79833 0.0
H1315 H 0.25029 0.9782 0.75621 0.0
H1316 H 0.26403 0.97199 0.77578 0.0
H1317 H 0.25421 0.99442 0.77442 0.0
H1318 H 0.28024 0.02503 0.78749 0.0
H1319 H 0.27151 0.02456 0.81978 0.0
H1320 H 0.67325 0.29101 0.03229 0.0
H1321 H 0.7055 0.30007 0.032 0.0
H1322 H 0.70839 0.28839 0.97423 0.0
H1323 H 0.67624 0.27914 0.97441 0.0
H1324 H 0.73083 0.27124 0.01958 0.0
H1325 H 0.73975 0.33658 0.98171 0.0
H1326 H 0.71873 0.33065 0.99339 0.0
H1327 H 0.7242 0.32022 0.97183 0.0
C1328 C 0.68057 0.29092 0.0194 0.0
C1329 C 0.67226 0.28417 0.0034 0.0
C1330 C 0.69899 0.29613 0.01927 0.0
C1331 C 0.70926 0.29501 0.00308 0.0
C1332 C 0.70062 0.28963 0.9868 0.0
H1333 H 0.81965 0.28397 0.96717 0.0
H1334 H 0.78752 0.29268 0.97089 0.0
C1335 C 0.68227 0.28422 0.98696 0.0
C1336 C 0.72946 0.29602 0.00379 0.0
H1337 H 0.76659 0.31873 0.98678 0.0
C1338 C 0.73871 0.28179 0.0127 0.0
C1339 C 0.73956 0.30963 0.9945 0.0
C1340 C 0.73012 0.32525 0.98489 0.0
C1341 C 0.7578 0.28029 0.01196 0.0
C1342 C 0.76804 0.29389 0.00262 0.0
C1343 C 0.75878 0.30843 0.99406 0.0
C1344 C 0.7882 0.2923 0.00052 0.0
C1345 C 0.76664 0.26354 0.02027 0.0
C1346 C 0.79952 0.29018 0.01591 0.0
C1347 C 0.81774 0.28477 0.01381 0.0
C1348 C 0.8251 0.28201 0.99626 0.0
C1349 C 0.81431 0.28599 0.98085 0.0
C1350 C 0.79595 0.29097 0.98297 0.0
H1351 H 0.7566 0.25233 0.02246 0.0
H1352 H 0.77782 0.25827 0.01142 0.0
H1353 H 0.77252 0.26716 0.0338 0.0
H1354 H 0.79401 0.29173 0.02958 0.0
H1355 H 0.82586 0.28204 0.02592 0.0
H1356 H 0.53285 0.32544 0.29567 0.0
H1357 H 0.53246 0.29285 0.30357 0.0
H1358 H 0.47754 0.28828 0.28256 0.0
H1359 H 0.47775 0.32075 0.27457 0.0
H1360 H 0.50048 0.26591 0.32256 0.0
H1361 H 0.51924 0.25911 0.24888 0.0
H1362 H 0.5243 0.27953 0.26184 0.0
H1363 H 0.50124 0.27486 0.25487 0.0
C1364 C 0.52047 0.31765 0.29327 0.0
C1365 C 0.50543 0.3256 0.28424 0.0
C1366 C 0.52026 0.29906 0.29785 0.0
C1367 C 0.50499 0.28826 0.29357 0.0
C1368 C 0.4894 0.29648 0.28602 0.0
H1369 H 0.47808 0.17355 0.29356 0.0
H1370 H 0.47988 0.20598 0.30174 0.0
C1371 C 0.4896 0.31501 0.28139 0.0
C1372 C 0.50645 0.26811 0.2938 0.0
H1373 H 0.51383 0.23204 0.26521 0.0
C1374 C 0.5035 0.25842 0.31011 0.0
C1375 C 0.51055 0.25853 0.27753 0.0
C1376 C 0.51412 0.26844 0.25974 0.0
C1377 C 0.50427 0.23916 0.31043 0.0
C1378 C 0.50789 0.22956 0.29399 0.0
C1379 C 0.51113 0.2394 0.27782 0.0
C1380 C 0.50792 0.20931 0.29276 0.0
C1381 C 0.50134 0.22929 0.32831 0.0
C1382 C 0.52316 0.20032 0.28527 0.0
C1383 C 0.52206 0.18191 0.28031 0.0
C1384 C 0.50572 0.1721 0.28283 0.0
C1385 C 0.49088 0.18074 0.29152 0.0
C1386 C 0.49193 0.19926 0.29632 0.0
H1387 H 0.50398 0.23839 0.34021 0.0
H1388 H 0.48691 0.22463 0.32911 0.0
H1389 H 0.51033 0.21709 0.32936 0.0
H1390 H 0.53563 0.20781 0.28238 0.0
H1391 H 0.53378 0.1756 0.27376 0.0
H1392 H 0.5317 0.82333 0.22642 0.0
H1393 H 0.53535 0.79116 0.21818 0.0
H1394 H 0.47933 0.78951 0.19957 0.0
H1395 H 0.47579 0.8219 0.20727 0.0
H1396 H 0.51578 0.76644 0.23624 0.0
H1397 H 0.50386 0.75696 0.16196 0.0
H1398 H 0.50901 0.77901 0.1719 0.0
H1399 H 0.48614 0.76996 0.17293 0.0
C1400 C 0.52033 0.81626 0.22005 0.0
C1401 C 0.50341 0.82505 0.21764 0.0
C1402 C 0.52244 0.79789 0.21531 0.0
C1403 C 0.50764 0.7879 0.20822 0.0
C1404 C 0.49107 0.79698 0.20466 0.0
H1405 H 0.48168 0.67701 0.23249 0.0
H1406 H 0.48078 0.70923 0.22365 0.0
C1407 C 0.48902 0.81549 0.20918 0.0
C1408 C 0.50863 0.76763 0.20764 0.0
H1409 H 0.50136 0.72996 0.18079 0.0
C1410 C 0.51289 0.75852 0.22402 0.0
C1411 C 0.50478 0.75727 0.19172 0.0
C1412 C 0.50086 0.7663 0.17359 0.0
C1413 C 0.513 0.73941 0.22505 0.0
C1414 C 0.5085 0.72907 0.20936 0.0
C1415 C 0.50466 0.73802 0.19281 0.0
C1416 C 0.50729 0.70894 0.21051 0.0
C1417 C 0.51764 0.73034 0.24304 0.0
C1418 C 0.52221 0.69803 0.20537 0.0
C1419 C 0.52279 0.67955 0.21042 0.0
C1420 C 0.5085 0.67186 0.22079 0.0
C1421 C 0.49297 0.68256 0.22465 0.0
C1422 C 0.49238 0.70094 0.21954 0.0
H1423 H 0.52351 0.74016 0.25306 0.0
H1424 H 0.50504 0.72435 0.24904 0.0
H1425 H 0.52758 0.71904 0.24088 0.0
H1426 H 0.53388 0.70406 0.19849 0.0
H1427 H 0.53493 0.67166 0.20722 0.0
H1428 H 0.29522 0.53071 0.32689 0.0
H1429 H 0.30272 0.53073 0.29417 0.0
H1430 H 0.28072 0.47627 0.28897 0.0
H1431 H 0.27312 0.47608 0.32153 0.0
H1432 H 0.32102 0.4984 0.26682 0.0
H1433 H 0.24788 0.51915 0.26023 0.0
H1434 H 0.26106 0.52385 0.28061 0.0
H1435 H 0.25339 0.501 0.27599 0.0
C1436 C 0.2925 0.51852 0.31891 0.0
C1437 C 0.28334 0.50349 0.32673 0.0
C1438 C 0.29684 0.51855 0.30024 0.0
C1439 C 0.29221 0.50352 0.28925 0.0
C1440 C 0.28445 0.48795 0.29731 0.0
H1441 H 0.29118 0.47425 0.1756 0.0
H1442 H 0.29988 0.47722 0.20779 0.0
C1443 C 0.28005 0.48792 0.3159 0.0
C1444 C 0.29245 0.50515 0.26911 0.0
H1445 H 0.26383 0.51276 0.23311 0.0
C1446 C 0.30862 0.50169 0.25936 0.0
C1447 C 0.27625 0.50961 0.25956 0.0
C1448 C 0.25862 0.51372 0.26954 0.0
C1449 C 0.30885 0.5022 0.24009 0.0
C1450 C 0.29244 0.50603 0.23052 0.0
C1451 C 0.27643 0.5099 0.24042 0.0
C1452 C 0.29099 0.50539 0.21026 0.0
C1453 C 0.32662 0.49871 0.23019 0.0
C1454 C 0.28338 0.5203 0.20083 0.0
C1455 C 0.2781 0.51852 0.18255 0.0
C1456 C 0.28043 0.50182 0.17331 0.0
C1457 C 0.2893 0.48732 0.18234 0.0
C1458 C 0.29439 0.48904 0.20073 0.0
H1459 H 0.3386 0.50168 0.23907 0.0
H1460 H 0.3273 0.48407 0.22621 0.0
H1461 H 0.32764 0.50713 0.21758 0.0
H1462 H 0.28061 0.53303 0.2079 0.0
H1463 H 0.27142 0.52998 0.17593 0.0
H1464 H 0.74057 0.97718 0.18475 0.0
H1465 H 0.73038 0.97566 0.21629 0.0
H1466 H 0.68723 0.01426 0.2045 0.0
H1467 H 0.69813 0.01659 0.17283 0.0
H1468 H 0.70315 0.02472 0.23326 0.0
H1469 H 0.69124 0.9515 0.24385 0.0
H1470 H 0.71373 0.95379 0.23446 0.0
H1471 H 0.6941 0.96093 0.2212 0.0
C1472 C 0.72865 0.98507 0.1887 0.0
C1473 C 0.72017 0.99702 0.17626 0.0
C1474 C 0.72268 0.98403 0.2068 0.0
C1475 C 0.70773 0.99452 0.21283 0.0
C1476 C 0.69871 0.00592 0.2002 0.0
H1477 H 0.70014 0.97687 0.33154 0.0
H1478 H 0.68844 0.97911 0.30014 0.0
C1479 C 0.70493 0.00723 0.18209 0.0
C1480 C 0.70329 0.99518 0.23272 0.0
H1481 H 0.70323 0.9682 0.27081 0.0
C1482 C 0.70265 0.01232 0.24141 0.0
C1483 C 0.70192 0.97915 0.24353 0.0
C1484 C 0.70005 0.96036 0.23517 0.0
C1485 C 0.70257 0.01379 0.26057 0.0
C1486 C 0.704 0.99773 0.27133 0.0
C1487 C 0.70271 0.98061 0.26267 0.0
C1488 C 0.70913 0.99832 0.29105 0.0
C1489 C 0.70139 0.03261 0.26898 0.0
C1490 C 0.72449 0.00849 0.29654 0.0
C1491 C 0.73093 0.0075 0.31448 0.0
C1492 C 0.7225 0.99591 0.32729 0.0
C1493 C 0.70691 0.98596 0.32198 0.0
C1494 C 0.70023 0.98721 0.30403 0.0
H1495 H 0.6925 0.04167 0.26059 0.0
H1496 H 0.69588 0.03216 0.28314 0.0
H1497 H 0.71522 0.03888 0.26925 0.0
H1498 H 0.73209 0.01661 0.28675 0.0
H1499 H 0.74311 0.01518 0.31802 0.0
H1500 H 0.18165 0.74058 0.98057 0.0
H1501 H 0.21275 0.72911 0.97858 0.0
H1502 H 0.19976 0.68638 0.01726 0.0
H1503 H 0.16855 0.69848 0.01999 0.0
H1504 H 0.22979 0.70111 0.02694 0.0
H1505 H 0.2371 0.68824 0.95342 0.0
H1506 H 0.22887 0.71115 0.95601 0.0
H1507 H 0.21499 0.69218 0.96371 0.0
C1508 C 0.18525 0.72852 0.98841 0.0
C1509 C 0.17261 0.72043 0.00043 0.0
C1510 C 0.20307 0.72182 0.98711 0.0
C1511 C 0.2086 0.70656 0.99741 0.0
C1512 C 0.19582 0.69808 0.00904 0.0
H1513 H 0.32576 0.69314 0.975 0.0
H1514 H 0.29416 0.68257 0.97907 0.0
C1515 C 0.17798 0.70498 0.01058 0.0
C1516 C 0.22821 0.70105 0.99744 0.0
H1517 H 0.26521 0.69867 0.9691 0.0
C1518 C 0.23746 0.70008 0.01427 0.0
C1519 C 0.23833 0.69895 0.98104 0.0
C1520 C 0.22919 0.69746 0.96258 0.0
C1521 C 0.25663 0.69897 0.01505 0.0
C1522 C 0.26685 0.69965 0.99859 0.0
C1523 C 0.25752 0.69868 0.9818 0.0
C1524 C 0.28679 0.70384 0.99838 0.0
C1525 C 0.26566 0.69755 0.03357 0.0
C1526 C 0.29335 0.7191 0.00806 0.0
C1527 C 0.3114 0.72491 0.00603 0.0
C1528 C 0.32327 0.71593 0.99385 0.0
C1529 C 0.31695 0.70033 0.98451 0.0
C1530 C 0.29888 0.69431 0.9868 0.0
H1531 H 0.25719 0.68915 0.04301 0.0
H1532 H 0.27951 0.69137 0.03266 0.0
H1533 H 0.2668 0.71141 0.03968 0.0
H1534 H 0.28426 0.72717 0.01654 0.0
H1535 H 0.31574 0.73709 0.01329 0.0
H1536 H 0.12504 0.31904 0.42406 0.0
H1537 H 0.11701 0.338 0.39738 0.0
H1538 H 0.06456 0.31116 0.3941 0.0
H1539 H 0.07238 0.29228 0.42042 0.0
H1540 H 0.10613 0.32335 0.36135 0.0
H1541 H 0.05258 0.36695 0.39276 0.0
H1542 H 0.0698 0.35521 0.4061 0.0
H1543 H 0.05012 0.34301 0.39777 0.0
C1544 C 0.11175 0.31733 0.41772 0.0
C1545 C 0.09935 0.30417 0.42432 0.0
C1546 C 0.1072 0.32813 0.40252 0.0
C1547 C 0.0901 0.32611 0.39399 0.0
C1548 C 0.07769 0.31313 0.4007 0.0
H1549 H 0.02545 0.35312 0.30184 0.0
H1550 H 0.03899 0.34363 0.33092 0.0
C1551 C 0.08226 0.30227 0.41568 0.0
C1552 C 0.08529 0.33662 0.37737 0.0
H1553 H 0.05225 0.36469 0.36003 0.0
C1554 C 0.0946 0.33271 0.36105 0.0
C1555 C 0.0702 0.34871 0.37711 0.0
C1556 C 0.06017 0.35388 0.3944 0.0
C1557 C 0.0885 0.33972 0.34422 0.0
C1558 C 0.0729 0.35121 0.34386 0.0
C1559 C 0.06414 0.35579 0.36033 0.0
C1560 C 0.06471 0.35763 0.32646 0.0
C1561 C 0.09815 0.33394 0.3269 0.0
C1562 C 0.07459 0.36888 0.31445 0.0
C1563 C 0.06692 0.37425 0.29776 0.0
C1564 C 0.04916 0.3686 0.29286 0.0
C1565 C 0.03915 0.35769 0.30515 0.0
C1566 C 0.04686 0.35228 0.32179 0.0
H1567 H 0.1074 0.32209 0.3292 0.0
H1568 H 0.08811 0.33025 0.3161 0.0
H1569 H 0.10655 0.3455 0.32175 0.0
H1570 H 0.08824 0.37346 0.31795 0.0
H1571 H 0.07496 0.38278 0.28868 0.0
H1572 H 0.87822 0.1907 0.42304 0.0
H1573 H 0.88729 0.17169 0.39674 0.0
H1574 H 0.93936 0.19938 0.39467 0.0
H1575 H 0.93051 0.21831 0.42062 0.0
H1576 H 0.89865 0.18634 0.36109 0.0
H1577 H 0.95246 0.14392 0.39371 0.0
H1578 H 0.93483 0.15546 0.40668 0.0
H1579 H 0.95438 0.16796 0.39851 0.0
C1580 C 0.89165 0.19258 0.41705 0.0
C1581 C 0.90364 0.206 0.42386 0.0
C1582 C 0.89679 0.18175 0.40207 0.0
C1583 C 0.91409 0.184 0.39399 0.0
C1584 C 0.92609 0.19723 0.40093 0.0
H1585 H 0.97948 0.15456 0.30209 0.0
H1586 H 0.96632 0.16524 0.33099 0.0
C1587 C 0.92094 0.20812 0.4157 0.0
C1588 C 0.91943 0.17352 0.37754 0.0
H1589 H 0.95297 0.14555 0.36098 0.0
C1590 C 0.9103 0.17713 0.36105 0.0
C1591 C 0.93471 0.16166 0.37762 0.0
C1592 C 0.94459 0.15686 0.39511 0.0
C1593 C 0.91666 0.16993 0.34441 0.0
C1594 C 0.93233 0.15853 0.34441 0.0
C1595 C 0.94103 0.15437 0.36102 0.0
C1596 C 0.94038 0.15144 0.32722 0.0
C1597 C 0.90711 0.17534 0.32691 0.0
C1598 C 0.93027 0.13988 0.31573 0.0
C1599 C 0.9377 0.13385 0.29918 0.0
C1600 C 0.95547 0.13911 0.29391 0.0
C1601 C 0.96576 0.15029 0.30571 0.0
C1602 C 0.95827 0.15639 0.32223 0.0
H1603 H 0.89809 0.18742 0.32885 0.0
H1604 H 0.91719 0.17851 0.31599 0.0
H1605 H 0.89848 0.16378 0.32214 0.0
H1606 H 0.9166 0.13558 0.31952 0.0
H1607 H 0.92945 0.1251 0.2905 0.0
H1608 H 0.07649 0.7155 0.0879 0.0
H1609 H 0.07034 0.69499 0.11343 0.0
H1610 H 0.11995 0.66521 0.1019 0.0
H1611 H 0.1263 0.68581 0.07597 0.0
H1612 H 0.06914 0.65276 0.11113 0.0
H1613 H 0.12065 0.68336 0.1585 0.0
H1614 H 0.11129 0.69645 0.13973 0.0
H1615 H 0.12682 0.67803 0.13519 0.0
C1616 C 0.08615 0.7046 0.0907 0.0
C1617 C 0.10194 0.70232 0.07994 0.0
C1618 C 0.08256 0.69287 0.10528 0.0
C1619 C 0.09471 0.67869 0.10952 0.0
C1620 C 0.11046 0.67617 0.0988 0.0
H1621 H 0.07904 0.61947 0.21313 0.0
H1622 H 0.09267 0.62845 0.18386 0.0
C1623 C 0.11404 0.6879 0.08403 0.0
C1624 C 0.09066 0.66691 0.12543 0.0
H1625 H 0.09896 0.66333 0.17123 0.0
C1626 C 0.07588 0.65474 0.12422 0.0
C1627 C 0.09956 0.66952 0.14238 0.0
C1628 C 0.11547 0.68254 0.14422 0.0
C1629 C 0.06919 0.64572 0.13978 0.0
C1630 C 0.07722 0.64936 0.15702 0.0
C1631 C 0.09274 0.66066 0.15801 0.0
C1632 C 0.06874 0.64301 0.1743 0.0
C1633 C 0.0533 0.6327 0.13767 0.0
C1634 C 0.05083 0.64839 0.1787 0.0
C1635 C 0.04299 0.64332 0.19536 0.0
C1636 C 0.05297 0.63287 0.20807 0.0
C1637 C 0.07094 0.62749 0.20363 0.0
C1638 C 0.07877 0.63258 0.18692 0.0
H1639 H 0.05289 0.62673 0.12368 0.0
H1640 H 0.05403 0.62139 0.1478 0.0
H1641 H 0.04032 0.64027 0.13985 0.0
H1642 H 0.04301 0.65685 0.16936 0.0
H1643 H 0.02919 0.64779 0.19835 0.0
H1644 H 0.92869 0.85926 0.22064 0.0
H1645 H 0.91541 0.84705 0.19249 0.0
H1646 H 0.96704 0.85462 0.1648 0.0
H1647 H 0.98067 0.86592 0.19324 0.0
H1648 H 0.90961 0.85946 0.15926 0.0
H1649 H 0.95872 0.80177 0.15516 0.0
H1650 H 0.95752 0.81663 0.17479 0.0
H1651 H 0.96983 0.82362 0.15459 0.0
C1652 C 0.93721 0.85833 0.20854 0.0
C1653 C 0.95578 0.86327 0.20919 0.0
C1654 C 0.92959 0.8514 0.19244 0.0
C1655 C 0.94033 0.84952 0.17662 0.0
C1656 C 0.95864 0.85537 0.17699 0.0
H1657 H 0.89365 0.81964 0.06963 0.0
H1658 H 0.90438 0.83741 0.09607 0.0
C1659 C 0.96639 0.86192 0.19321 0.0
C1660 C 0.93245 0.84083 0.16002 0.0
H1661 H 0.93877 0.80563 0.13004 0.0
C1662 C 0.91594 0.84765 0.15288 0.0
C1663 C 0.94059 0.82525 0.15185 0.0
C1664 C 0.95752 0.81627 0.1596 0.0
C1665 C 0.90725 0.83923 0.13791 0.0
C1666 C 0.91566 0.82395 0.12948 0.0
C1667 C 0.93232 0.81736 0.13646 0.0
C1668 C 0.90725 0.81388 0.11393 0.0
C1669 C 0.88889 0.84641 0.13176 0.0
C1670 C 0.90535 0.7948 0.11509 0.0
C1671 C 0.89982 0.78468 0.09991 0.0
C1672 C 0.89566 0.79347 0.08336 0.0
C1673 C 0.89658 0.81263 0.08236 0.0
C1674 C 0.90261 0.82277 0.09749 0.0
H1675 H 0.88199 0.8543 0.14278 0.0
H1676 H 0.89089 0.85573 0.11994 0.0
H1677 H 0.87971 0.8351 0.12744 0.0
H1678 H 0.90873 0.78762 0.12762 0.0
H1679 H 0.89914 0.76991 0.10101 0.0
H1680 H 0.29725 0.02823 0.34573 0.0
H1681 H 0.32738 0.03937 0.3364 0.0
H1682 H 0.31633 0.09136 0.36206 0.0
H1683 H 0.28605 0.0805 0.37117 0.0
H1684 H 0.33033 0.09514 0.32763 0.0
H1685 H 0.37275 0.04676 0.36768 0.0
H1686 H 0.35626 0.03536 0.3535 0.0
H1687 H 0.34859 0.04986 0.37188 0.0
C1688 C 0.30124 0.042 0.34947 0.0
C1689 C 0.28924 0.05344 0.35924 0.0
C1690 C 0.31853 0.0483 0.34425 0.0
C1691 C 0.32423 0.06607 0.34885 0.0
C1692 C 0.31225 0.07756 0.35849 0.0
H1693 H 0.4255 0.12288 0.31466 0.0
H1694 H 0.39736 0.11574 0.33172 0.0
C1695 C 0.29494 0.07131 0.36367 0.0
C1696 C 0.34235 0.07294 0.34285 0.0
H1697 H 0.388 0.063 0.34354 0.0
C1698 C 0.34298 0.08831 0.33133 0.0
C1699 C 0.35883 0.06407 0.34783 0.0
C1700 C 0.35914 0.04821 0.36106 0.0
C1701 C 0.35959 0.09445 0.32387 0.0
C1702 C 0.37593 0.08507 0.32821 0.0
C1703 C 0.3754 0.07013 0.34025 0.0
C1704 C 0.39338 0.08935 0.31889 0.0
C1705 C 0.35945 0.11037 0.31071 0.0
C1706 C 0.40055 0.07672 0.30639 0.0
C1707 C 0.41646 0.08074 0.29668 0.0
C1708 C 0.42563 0.09744 0.29936 0.0
C1709 C 0.41871 0.10993 0.31228 0.0
C1710 C 0.40264 0.10591 0.32197 0.0
H1711 H 0.34534 0.11464 0.30698 0.0
H1712 H 0.3665 0.12222 0.31708 0.0
H1713 H 0.36699 0.10679 0.298 0.0
H1714 H 0.3936 0.06386 0.30386 0.0
H1715 H 0.42146 0.07077 0.28691 0.0
H1716 H 0.5712 0.38917 0.32242 0.0
H1717 H 0.59682 0.39975 0.34158 0.0
H1718 H 0.62965 0.40766 0.29313 0.0
H1719 H 0.60403 0.39797 0.27406 0.0
H1720 H 0.63238 0.39006 0.34745 0.0
H1721 H 0.62974 0.4582 0.31484 0.0
H1722 H 0.61218 0.44123 0.31131 0.0
H1723 H 0.633 0.4406 0.29807 0.0
C1724 C 0.58399 0.39299 0.31596 0.0
C1725 C 0.5856 0.39308 0.29679 0.0
C1726 C 0.59857 0.39903 0.32688 0.0
C1727 C 0.61493 0.40503 0.31872 0.0
C1728 C 0.61694 0.40371 0.29967 0.0
H1729 H 0.72238 0.42424 0.36252 0.0
H1730 H 0.69357 0.41069 0.35229 0.0
C1731 C 0.60234 0.39807 0.2888 0.0
C1732 C 0.62969 0.4135 0.32978 0.0
H1733 H 0.65722 0.45112 0.33122 0.0
C1734 C 0.6377 0.40351 0.34411 0.0
C1735 C 0.63627 0.43128 0.32578 0.0
C1736 C 0.6272 0.44352 0.31181 0.0
C1737 C 0.65273 0.41048 0.35392 0.0
C1738 C 0.66027 0.42762 0.34884 0.0
C1739 C 0.65167 0.43789 0.33505 0.0
C1740 C 0.67736 0.43509 0.357 0.0
C1741 C 0.66019 0.39944 0.36969 0.0
C1742 C 0.67806 0.45345 0.36274 0.0
C1743 C 0.69465 0.46138 0.36793 0.0
C1744 C 0.71083 0.45102 0.36786 0.0
C1745 C 0.71006 0.43247 0.36287 0.0
C1746 C 0.69353 0.42466 0.3572 0.0
H1747 H 0.64932 0.39089 0.37601 0.0
H1748 H 0.67098 0.39006 0.36456 0.0
H1749 H 0.6662 0.40836 0.38043 0.0
H1750 H 0.66581 0.46182 0.36271 0.0
H1751 H 0.69485 0.47569 0.37183 0.0
H1752 H 0.29983 0.97855 0.15185 0.0
H1753 H 0.3291 0.96604 0.16217 0.0
H1754 H 0.31694 0.9149 0.13533 0.0
H1755 H 0.28751 0.92713 0.12524 0.0
H1756 H 0.32914 0.91002 0.17017 0.0
H1757 H 0.3755 0.95703 0.13299 0.0
H1758 H 0.35893 0.96898 0.14661 0.0
H1759 H 0.35145 0.95514 0.12765 0.0
C1760 C 0.30342 0.96468 0.14804 0.0
C1761 C 0.29134 0.95386 0.13769 0.0
C1762 C 0.32022 0.95759 0.15384 0.0
C1763 C 0.32534 0.93965 0.14922 0.0
C1764 C 0.3133 0.92882 0.13892 0.0
H1765 H 0.42262 0.87822 0.18682 0.0
H1766 H 0.3956 0.88677 0.16864 0.0
C1767 C 0.29648 0.93585 0.13319 0.0
C1768 C 0.34283 0.9319 0.15593 0.0
H1769 H 0.38885 0.93982 0.15761 0.0
C1770 C 0.34224 0.91634 0.16719 0.0
C1771 C 0.3599 0.9401 0.15189 0.0
C1772 C 0.36155 0.95612 0.13897 0.0
C1773 C 0.35817 0.90934 0.17533 0.0
C1774 C 0.37509 0.91807 0.17195 0.0
C1775 C 0.3758 0.9332 0.16015 0.0
C1776 C 0.39184 0.91291 0.18205 0.0
C1777 C 0.35673 0.89323 0.18816 0.0
C1778 C 0.39874 0.92491 0.19529 0.0
C1779 C 0.414 0.92009 0.20565 0.0
C1780 C 0.42278 0.90318 0.20288 0.0
C1781 C 0.41612 0.8913 0.18928 0.0
C1782 C 0.40069 0.89613 0.17894 0.0
H1783 H 0.34229 0.88939 0.19098 0.0
H1784 H 0.36376 0.88125 0.18202 0.0
H1785 H 0.36361 0.89636 0.20135 0.0
H1786 H 0.39209 0.93792 0.19785 0.0
H1787 H 0.41883 0.92961 0.21593 0.0
H1788 H 0.58202 0.62577 0.18758 0.0
H1789 H 0.60676 0.61891 0.16569 0.0
H1790 H 0.615 0.56649 0.1915 0.0
H1791 H 0.59071 0.57317 0.21328 0.0
H1792 H 0.64524 0.60811 0.17665 0.0
H1793 H 0.60919 0.55597 0.13496 0.0
H1794 H 0.59726 0.57322 0.1481 0.0
H1795 H 0.60628 0.55322 0.15923 0.0
C1796 C 0.58908 0.61277 0.18848 0.0
C1797 C 0.58445 0.60002 0.20215 0.0
C1798 C 0.60315 0.60889 0.17601 0.0
C1799 C 0.61247 0.59211 0.17689 0.0
C1800 C 0.60777 0.5794 0.19045 0.0
H1801 H 0.69959 0.52595 0.14504 0.0
H1802 H 0.67151 0.54095 0.15507 0.0
C1803 C 0.59395 0.58331 0.20296 0.0
C1804 C 0.62778 0.58781 0.16442 0.0
H1805 H 0.64204 0.55496 0.13448 0.0
C1806 C 0.64452 0.59681 0.16704 0.0
C1807 C 0.62669 0.57305 0.15199 0.0
C1808 C 0.60884 0.56338 0.14824 0.0
C1809 C 0.66058 0.59051 0.15855 0.0
C1810 C 0.65968 0.57501 0.14695 0.0
C1811 C 0.64269 0.56677 0.14346 0.0
C1812 C 0.67639 0.56594 0.13993 0.0
C1813 C 0.67854 0.59967 0.16303 0.0
C1814 C 0.6883 0.57492 0.12786 0.0
C1815 C 0.70446 0.56639 0.12213 0.0
C1816 C 0.7089 0.54868 0.12832 0.0
C1817 C 0.69665 0.53958 0.14004 0.0
C1818 C 0.68056 0.54813 0.14576 0.0
H1819 H 0.67726 0.60946 0.17461 0.0
H1820 H 0.68909 0.58932 0.16658 0.0
H1821 H 0.68343 0.60735 0.15088 0.0
H1822 H 0.68516 0.58855 0.12296 0.0
H1823 H 0.71354 0.57374 0.113 0.0
H1824 H 0.28225 0.41532 0.0737 0.0
H1825 H 0.30024 0.38806 0.06706 0.0
H1826 H 0.32787 0.39332 0.11895 0.0
H1827 H 0.30978 0.4209 0.1258 0.0
H1828 H 0.34074 0.38444 0.06683 0.0
H1829 H 0.30467 0.34009 0.11743 0.0
H1830 H 0.29475 0.36117 0.10918 0.0
H1831 H 0.3135 0.36184 0.12499 0.0
C1832 C 0.29217 0.41077 0.08373 0.0
C1833 C 0.29453 0.42021 0.10034 0.0
C1834 C 0.30248 0.39521 0.07987 0.0
C1835 C 0.31525 0.38866 0.09256 0.0
C1836 C 0.31794 0.39815 0.10906 0.0
H1837 H 0.36977 0.28245 0.08199 0.0
H1838 H 0.36013 0.31224 0.09373 0.0
C1839 C 0.30766 0.41389 0.11291 0.0
C1840 C 0.32527 0.37161 0.08838 0.0
H1841 H 0.32549 0.32584 0.09756 0.0
C1842 C 0.33763 0.37164 0.07369 0.0
C1843 C 0.32116 0.35502 0.09741 0.0
C1844 C 0.30775 0.35433 0.1131 0.0
C1845 C 0.34567 0.35536 0.06746 0.0
C1846 C 0.34083 0.33861 0.07586 0.0
C1847 C 0.32907 0.3387 0.09107 0.0
C1848 C 0.34708 0.32076 0.06856 0.0
C1849 C 0.35916 0.35626 0.05185 0.0
C1850 C 0.3427 0.31557 0.05058 0.0
C1851 C 0.34821 0.29856 0.04379 0.0
C1852 C 0.35805 0.28635 0.05493 0.0
C1853 C 0.36222 0.29152 0.07302 0.0
C1854 C 0.35675 0.30856 0.07977 0.0
H1855 H 0.36565 0.36998 0.0509 0.0
H1856 H 0.37008 0.3458 0.05339 0.0
H1857 H 0.35186 0.35367 0.03878 0.0
H1858 H 0.33482 0.3246 0.04185 0.0
H1859 H 0.34466 0.29497 0.02985 0.0
H1860 H 0.3451 0.70503 0.47042 0.0
H1861 H 0.33417 0.67687 0.45605 0.0
H1862 H 0.36757 0.68771 0.40865 0.0
H1863 H 0.37862 0.71604 0.42284 0.0
H1864 H 0.3174 0.67779 0.41585 0.0
H1865 H 0.37679 0.63146 0.42838 0.0
H1866 H 0.37169 0.65008 0.44385 0.0
H1867 H 0.38044 0.6549 0.42146 0.0
C1868 C 0.35027 0.7014 0.457 0.0
C1869 C 0.3627 0.71283 0.44776 0.0
C1870 C 0.344 0.68532 0.44883 0.0
C1871 C 0.35016 0.68028 0.43138 0.0
C1872 C 0.36279 0.69139 0.4222 0.0
H1873 H 0.31373 0.57845 0.37693 0.0
H1874 H 0.33114 0.60674 0.38259 0.0
C1875 C 0.36902 0.70757 0.43032 0.0
C1876 C 0.34247 0.66385 0.42252 0.0
H1877 H 0.35009 0.61824 0.41594 0.0
C1878 C 0.32461 0.66481 0.41561 0.0
C1879 C 0.35206 0.64708 0.42207 0.0
C1880 C 0.37133 0.64562 0.42932 0.0
C1881 C 0.31576 0.64919 0.40891 0.0
C1882 C 0.3249 0.63213 0.40954 0.0
C1883 C 0.34313 0.63134 0.41554 0.0
C1884 C 0.31498 0.61485 0.40604 0.0
C1885 C 0.29651 0.65097 0.40165 0.0
C1886 C 0.30048 0.60995 0.4176 0.0
C1887 C 0.29063 0.59396 0.41445 0.0
C1888 C 0.29511 0.58242 0.39972 0.0
C1889 C 0.30992 0.58711 0.38834 0.0
C1890 C 0.31986 0.60322 0.39154 0.0
H1891 H 0.29365 0.66513 0.3969 0.0
H1892 H 0.29407 0.64135 0.39013 0.0
H1893 H 0.28667 0.6477 0.41275 0.0
H1894 H 0.29675 0.61857 0.42907 0.0
H1895 H 0.2794 0.59072 0.42358 0.0
H1896 H 0.73103 0.89696 0.4068 0.0
H1897 H 0.71233 0.87116 0.41666 0.0
H1898 H 0.66347 0.90341 0.40854 0.0
H1899 H 0.68229 0.92902 0.39755 0.0
H1900 H 0.69243 0.86959 0.44557 0.0
H1901 H 0.64724 0.85662 0.38596 0.0
H1902 H 0.6668 0.87161 0.38466 0.0
H1903 H 0.64568 0.87956 0.39454 0.0
C1904 C 0.71627 0.89841 0.40679 0.0
C1905 C 0.70805 0.9149 0.40142 0.0
C1906 C 0.70558 0.88369 0.41248 0.0
C1907 C 0.68645 0.88525 0.4133 0.0
C1908 C 0.67815 0.90168 0.40763 0.0
H1909 H 0.63071 0.80447 0.48298 0.0
H1910 H 0.64233 0.83344 0.47075 0.0
C1911 C 0.68889 0.91633 0.40144 0.0
C1912 C 0.67563 0.87 0.42133 0.0
H1913 H 0.64073 0.84005 0.41309 0.0
C1914 C 0.68114 0.86311 0.43842 0.0
C1915 C 0.66092 0.86152 0.41201 0.0
C1916 C 0.6549 0.86758 0.39321 0.0
C1917 C 0.67286 0.84766 0.44617 0.0
C1918 C 0.65794 0.83933 0.43703 0.0
C1919 C 0.65206 0.84651 0.42017 0.0
C1920 C 0.64914 0.8224 0.44407 0.0
C1921 C 0.68085 0.83995 0.46362 0.0
C1922 C 0.64814 0.80683 0.43286 0.0
C1923 C 0.64101 0.79046 0.43965 0.0
C1924 C 0.635 0.78925 0.45788 0.0
C1925 C 0.63555 0.80495 0.46897 0.0
C1926 C 0.64227 0.82146 0.46202 0.0
H1927 H 0.69515 0.84465 0.46582 0.0
H1928 H 0.67259 0.8447 0.47545 0.0
H1929 H 0.6808 0.82476 0.46347 0.0
H1930 H 0.65329 0.80719 0.41896 0.0
H1931 H 0.64073 0.77858 0.43078 0.0
H1932 H 0.11818 0.71743 0.57976 0.0
H1933 H 0.1282 0.68796 0.59213 0.0
H1934 H 0.15749 0.67682 0.54211 0.0
H1935 H 0.14734 0.70605 0.52949 0.0
H1936 H 0.13679 0.64714 0.55476 0.0
H1937 H 0.18007 0.67666 0.61014 0.0
H1938 H 0.15655 0.68383 0.60977 0.0
H1939 H 0.17153 0.69027 0.59138 0.0
C1940 C 0.12675 0.70871 0.57137 0.0
C1941 C 0.13204 0.71416 0.55365 0.0
C1942 C 0.13252 0.69192 0.57851 0.0
C1943 C 0.14379 0.68035 0.56813 0.0
C1944 C 0.14883 0.68559 0.55036 0.0
H1945 H 0.21142 0.58824 0.57 0.0
H1946 H 0.19154 0.61431 0.56404 0.0
C1947 C 0.14304 0.70233 0.54318 0.0
C1948 C 0.15052 0.66277 0.57565 0.0
H1949 H 0.17969 0.64461 0.60736 0.0
C1950 C 0.146 0.64656 0.5664 0.0
C1951 C 0.16242 0.66205 0.59092 0.0
C1952 C 0.16809 0.67911 0.6011 0.0
C1953 C 0.15361 0.62972 0.57158 0.0
C1954 C 0.16618 0.62914 0.58626 0.0
C1955 C 0.16998 0.64515 0.59614 0.0
C1956 C 0.17731 0.61266 0.58994 0.0
C1957 C 0.14855 0.61273 0.561 0.0
C1958 C 0.17601 0.60321 0.60663 0.0
C1959 C 0.18738 0.58814 0.6101 0.0
C1960 C 0.20039 0.5826 0.59703 0.0
C1961 C 0.20157 0.59215 0.58037 0.0
C1962 C 0.19014 0.607 0.57687 0.0
H1963 H 0.13522 0.61436 0.55386 0.0
H1964 H 0.1592 0.61004 0.55051 0.0
H1965 H 0.14777 0.60063 0.57017 0.0
H1966 H 0.16626 0.60753 0.61694 0.0
H1967 H 0.18622 0.58108 0.62308 0.0
H1968 H 0.92603 0.61616 0.71731 0.0
H1969 H 0.91131 0.62462 0.68841 0.0
H1970 H 0.95942 0.65501 0.67275 0.0
H1971 H 0.9743 0.6465 0.70138 0.0
H1972 H 0.90341 0.65943 0.67627 0.0
H1973 H 0.94931 0.62483 0.62711 0.0
H1974 H 0.94901 0.61922 0.65119 0.0
H1975 H 0.96189 0.63861 0.64306 0.0
C1976 C 0.93356 0.62449 0.70763 0.0
C1977 C 0.95139 0.63063 0.71165 0.0
C1978 C 0.92512 0.62929 0.69113 0.0
C1979 C 0.93439 0.64015 0.6783 0.0
C1980 C 0.95218 0.64622 0.68225 0.0
H1981 H 0.9226 0.71327 0.59324 0.0
H1982 H 0.92969 0.69265 0.61842 0.0
C1983 C 0.96063 0.64146 0.69871 0.0
C1984 C 0.92518 0.64632 0.66132 0.0
H1985 H 0.93195 0.65052 0.6153 0.0
C1986 C 0.90935 0.6571 0.66287 0.0
C1987 C 0.93287 0.64312 0.64384 0.0
C1988 C 0.9491 0.63064 0.64116 0.0
C1989 C 0.90185 0.66595 0.64754 0.0
C1990 C 0.9104 0.66384 0.63033 0.0
C1991 C 0.92549 0.65212 0.62858 0.0
C1992 C 0.90568 0.67578 0.61473 0.0
C1993 C 0.88561 0.67846 0.64995 0.0
C1994 C 0.88979 0.67301 0.60429 0.0
C1995 C 0.88567 0.68481 0.58971 0.0
C1996 C 0.89736 0.69954 0.58555 0.0
C1997 C 0.91325 0.70212 0.59609 0.0
C1998 C 0.91738 0.69033 0.61047 0.0
H1999 H 0.88072 0.67885 0.66435 0.0
H2000 H 0.88931 0.69256 0.64566 0.0
H2001 H 0.87421 0.6738 0.64106 0.0
H2002 H 0.88065 0.66177 0.60741 0.0
H2003 H 0.87334 0.68248 0.58182 0.0
H2004 H 0.02217 0.85403 0.70486 0.0
H2005 H 0.03738 0.8451 0.67653 0.0
H2006 H 0.08388 0.87862 0.69059 0.0
H2007 H 0.06886 0.88747 0.71924 0.0
H2008 H 0.05041 0.86645 0.64737 0.0
H2009 H 0.10669 0.82803 0.68168 0.0
H2010 H 0.08636 0.83517 0.69377 0.0
H2011 H 0.10376 0.85158 0.68816 0.0
C2012 C 0.0356 0.85959 0.70196 0.0
C2013 C 0.04434 0.87137 0.71442 0.0
C2014 C 0.04427 0.85448 0.68572 0.0
C2015 C 0.06184 0.86101 0.68159 0.0
C2016 C 0.07044 0.87318 0.69369 0.0
H2017 H 0.12227 0.8179 0.5853 0.0
H2018 H 0.11486 0.83887 0.61066 0.0
C2019 C 0.06179 0.87828 0.71001 0.0
C2020 C 0.07108 0.85458 0.66472 0.0
H2021 H 0.10519 0.82636 0.64963 0.0
C2022 C 0.06257 0.85794 0.64783 0.0
C2023 C 0.08702 0.84357 0.66535 0.0
C2024 C 0.0965 0.83921 0.68318 0.0
C2025 C 0.06904 0.84984 0.63168 0.0
C2026 C 0.08429 0.838 0.63249 0.0
C2027 C 0.09352 0.83553 0.64913 0.0
C2028 C 0.08897 0.82594 0.61695 0.0
C2029 C 0.05906 0.85337 0.61395 0.0
C2030 C 0.07698 0.81172 0.61238 0.0
C2031 C 0.08121 0.79972 0.59819 0.0
C2032 C 0.09753 0.80174 0.58819 0.0
C2033 C 0.10958 0.81606 0.59274 0.0
C2034 C 0.10538 0.82801 0.60718 0.0
H2035 H 0.05089 0.86618 0.61457 0.0
H2036 H 0.06882 0.85429 0.60233 0.0
H2037 H 0.04956 0.84184 0.61121 0.0
H2038 H 0.06436 0.80979 0.61994 0.0
H2039 H 0.07161 0.78888 0.59504 0.0
H2040 H 0.93018 0.34892 0.77537 0.0
H2041 H 0.91749 0.33794 0.80423 0.0
H2042 H 0.96888 0.3491 0.83118 0.0
H2043 H 0.98195 0.35921 0.80202 0.0
H2044 H 0.95729 0.31787 0.8415 0.0
H2045 H 0.89865 0.36505 0.84712 0.0
H2046 H 0.89756 0.35281 0.82591 0.0
H2047 H 0.91641 0.36816 0.83026 0.0
C2048 C 0.93876 0.3491 0.78747 0.0
C2049 C 0.95705 0.35494 0.78646 0.0
C2050 C 0.93141 0.34302 0.80403 0.0
C2051 C 0.94203 0.34317 0.82005 0.0
C2052 C 0.96035 0.34899 0.81905 0.0
H2053 H 0.89208 0.31556 0.92634 0.0
H2054 H 0.90483 0.33286 0.90043 0.0
C2055 C 0.96783 0.35471 0.80238 0.0
C2056 C 0.9344 0.33605 0.8375 0.0
H2057 H 0.89667 0.33731 0.86514 0.0
C2058 C 0.94416 0.32235 0.84678 0.0
C2059 C 0.91744 0.34212 0.84474 0.0
C2060 C 0.90705 0.358 0.83658 0.0
C2061 C 0.9371 0.314 0.86254 0.0
C2062 C 0.91942 0.31892 0.86879 0.0
C2063 C 0.91003 0.33323 0.86009 0.0
C2064 C 0.91032 0.30886 0.8839 0.0
C2065 C 0.94879 0.30005 0.87234 0.0
C2066 C 0.90844 0.28978 0.88287 0.0
C2067 C 0.9015 0.27996 0.89766 0.0
C2068 C 0.89578 0.28905 0.91359 0.0
C2069 C 0.89641 0.30825 0.91419 0.0
C2070 C 0.90373 0.31811 0.89945 0.0
H2071 H 0.96359 0.3026 0.86995 0.0
H2072 H 0.94623 0.30017 0.88732 0.0
H2073 H 0.94561 0.2862 0.86697 0.0
H2074 H 0.91276 0.28241 0.87075 0.0
H2075 H 0.9009 0.26517 0.89674 0.0
H2076 H 0.07 0.11656 0.78412 0.0
H2077 H 0.08527 0.12566 0.81249 0.0
H2078 H 0.03669 0.15457 0.82946 0.0
H2079 H 0.02125 0.14547 0.80124 0.0
H2080 H 0.09176 0.16165 0.82313 0.0
H2081 H 0.05054 0.1254 0.8754 0.0
H2082 H 0.05019 0.11916 0.85146 0.0
H2083 H 0.03677 0.13816 0.85955 0.0
C2084 C 0.06246 0.12466 0.79398 0.0
C2085 C 0.04439 0.1303 0.79038 0.0
C2086 C 0.07122 0.12983 0.81019 0.0
C2087 C 0.06202 0.14055 0.82318 0.0
C2088 C 0.0439 0.14594 0.81979 0.0
H2089 H 0.0872 0.22108 0.89936 0.0
H2090 H 0.07953 0.20106 0.87382 0.0
C2091 C 0.03514 0.14084 0.80357 0.0
C2092 C 0.07176 0.14748 0.83954 0.0
H2093 H 0.06831 0.15114 0.88601 0.0
C2094 C 0.08687 0.15905 0.83691 0.0
C2095 C 0.0655 0.14391 0.85751 0.0
C2096 C 0.04997 0.13083 0.8612 0.0
C2097 C 0.09509 0.16811 0.85169 0.0
C2098 C 0.08799 0.16555 0.86948 0.0
C2099 C 0.07366 0.1531 0.8723 0.0
C2100 C 0.09361 0.17747 0.88479 0.0
C2101 C 0.11085 0.18097 0.84817 0.0
C2102 C 0.10408 0.17074 0.89942 0.0
C2103 C 0.10866 0.18225 0.91408 0.0
C2104 C 0.10253 0.2005 0.91437 0.0
C2105 C 0.09211 0.2071 0.89959 0.0
C2106 C 0.08775 0.1957 0.88495 0.0
H2107 H 0.11731 0.17841 0.83464 0.0
H2108 H 0.10575 0.19528 0.84837 0.0
H2109 H 0.1214 0.17962 0.85903 0.0
H2110 H 0.10863 0.15663 0.89951 0.0
H2111 H 0.11664 0.17679 0.92532 0.0
H2112 H 0.58019 0.87426 0.68516 0.0
H2113 H 0.60532 0.88199 0.66407 0.0
H2114 H 0.61597 0.93121 0.6948 0.0
H2115 H 0.59121 0.92369 0.7158 0.0
H2116 H 0.61261 0.9338 0.65309 0.0
H2117 H 0.66218 0.88235 0.68007 0.0
H2118 H 0.63899 0.87559 0.67499 0.0
H2119 H 0.64341 0.89052 0.69393 0.0
C2120 C 0.5879 0.88672 0.68738 0.0
C2121 C 0.58377 0.89832 0.70218 0.0
C2122 C 0.60222 0.89109 0.67536 0.0
C2123 C 0.61244 0.90714 0.67798 0.0
C2124 C 0.60819 0.91878 0.69259 0.0
H2125 H 0.69932 0.9751 0.64548 0.0
H2126 H 0.67062 0.96096 0.655 0.0
C2127 C 0.59406 0.9144 0.7046 0.0
C2128 C 0.62784 0.91205 0.66584 0.0
H2129 H 0.67357 0.90471 0.66001 0.0
C2130 C 0.62588 0.92725 0.65429 0.0
C2131 C 0.64505 0.90339 0.66742 0.0
C2132 C 0.64772 0.88706 0.67977 0.0
C2133 C 0.64092 0.93453 0.64484 0.0
C2134 C 0.65842 0.92666 0.64742 0.0
C2135 C 0.66016 0.91079 0.65814 0.0
C2136 C 0.67529 0.93554 0.6405 0.0
C2137 C 0.63797 0.9508 0.63247 0.0
C2138 C 0.68764 0.92583 0.62946 0.0
C2139 C 0.70418 0.93383 0.62412 0.0
C2140 C 0.70874 0.95166 0.62983 0.0
C2141 C 0.69622 0.96141 0.64073 0.0
C2142 C 0.67972 0.95338 0.64608 0.0
H2143 H 0.62374 0.95113 0.62712 0.0
H2144 H 0.64023 0.96356 0.64039 0.0
H2145 H 0.64762 0.95065 0.62072 0.0
H2146 H 0.68455 0.91199 0.62513 0.0
H2147 H 0.71352 0.92592 0.61574 0.0
H2148 H 0.41487 0.56787 0.70623 0.0
H2149 H 0.3891 0.56131 0.68619 0.0
H2150 H 0.39371 0.61501 0.66216 0.0
H2151 H 0.41984 0.62178 0.68235 0.0
H2152 H 0.35751 0.60453 0.675 0.0
H2153 H 0.38825 0.55161 0.63032 0.0
H2154 H 0.39264 0.54781 0.6542 0.0
H2155 H 0.40185 0.5678 0.64317 0.0
C2156 C 0.41057 0.57828 0.69659 0.0
C2157 C 0.41938 0.59537 0.69588 0.0
C2158 C 0.39591 0.57444 0.68504 0.0
C2159 C 0.3897 0.58757 0.67253 0.0
C2160 C 0.39847 0.60465 0.67163 0.0
H2161 H 0.2844 0.57452 0.61486 0.0
H2162 H 0.31387 0.58756 0.62398 0.0
C2163 C 0.41335 0.60848 0.68313 0.0
C2164 C 0.3732 0.58358 0.66151 0.0
H2165 H 0.35538 0.55142 0.63273 0.0
C2166 C 0.35706 0.59321 0.66541 0.0
C2167 C 0.37273 0.56878 0.64906 0.0
C2168 C 0.38984 0.5585 0.64378 0.0
C2169 C 0.34017 0.5876 0.65814 0.0
C2170 C 0.33956 0.57216 0.64647 0.0
C2171 C 0.35588 0.56318 0.64178 0.0
C2172 C 0.32203 0.56418 0.6402 0.0
C2173 C 0.32299 0.59753 0.66389 0.0
C2174 C 0.31708 0.54653 0.64593 0.0
C2175 C 0.30033 0.53898 0.64068 0.0
C2176 C 0.2882 0.54894 0.62955 0.0
C2177 C 0.29336 0.56651 0.62355 0.0
C2178 C 0.31016 0.57404 0.62879 0.0
H2179 H 0.32547 0.60698 0.67555 0.0
H2180 H 0.31778 0.60572 0.65221 0.0
H2181 H 0.31216 0.58764 0.66787 0.0
H2182 H 0.3261 0.53869 0.65472 0.0
H2183 H 0.29683 0.52541 0.64552 0.0
H2184 H 0.71847 0.06592 0.85222 0.0
H2185 H 0.68939 0.07807 0.84127 0.0
H2186 H 0.66302 0.02677 0.85407 0.0
H2187 H 0.69243 0.0142 0.86415 0.0
H2188 H 0.65221 0.03737 0.82274 0.0
H2189 H 0.64662 0.09736 0.86811 0.0
H2190 H 0.66774 0.09831 0.85572 0.0
H2191 H 0.66367 0.07985 0.87161 0.0
C2192 C 0.70645 0.05726 0.85278 0.0
C2193 C 0.70769 0.03912 0.85906 0.0
C2194 C 0.68976 0.0643 0.84672 0.0
C2195 C 0.67384 0.05355 0.84733 0.0
C2196 C 0.67507 0.0354 0.85361 0.0
H2197 H 0.56802 0.10365 0.81766 0.0
H2198 H 0.59345 0.09087 0.83565 0.0
C2199 C 0.69187 0.02821 0.85931 0.0
C2200 C 0.65626 0.06085 0.84015 0.0
H2201 H 0.6287 0.09863 0.84019 0.0
C2202 C 0.64695 0.05064 0.82681 0.0
C2203 C 0.64903 0.07798 0.8457 0.0
C2204 C 0.6572 0.08887 0.86123 0.0
C2205 C 0.6312 0.05745 0.81824 0.0
C2206 C 0.62501 0.07531 0.82254 0.0
C2207 C 0.6337 0.08513 0.83657 0.0
C2208 C 0.61009 0.08421 0.81202 0.0
C2209 C 0.62137 0.04534 0.80468 0.0
C2210 C 0.61134 0.08541 0.7929 0.0
C2211 C 0.59682 0.09235 0.78269 0.0
C2212 C 0.58095 0.09878 0.79141 0.0
C2213 C 0.58013 0.09876 0.81062 0.0
C2214 C 0.59459 0.09143 0.82088 0.0
H2215 H 0.62358 0.03062 0.80784 0.0
H2216 H 0.60642 0.04806 0.80457 0.0
H2217 H 0.62688 0.04789 0.79076 0.0
H2218 H 0.62344 0.08061 0.7858 0.0
H2219 H 0.59792 0.09248 0.7679 0.0
H2220 H 0.2832 0.42873 0.87613 0.0
H2221 H 0.31265 0.4157 0.86703 0.0
H2222 H 0.32602 0.46565 0.83856 0.0
H2223 H 0.29679 0.47892 0.84783 0.0
H2224 H 0.32484 0.40948 0.83235 0.0
H2225 H 0.37225 0.45654 0.86791 0.0
H2226 H 0.34819 0.45528 0.87344 0.0
H2227 H 0.35587 0.46864 0.8542 0.0
C2228 C 0.29247 0.43704 0.86808 0.0
C2229 C 0.28764 0.45491 0.86274 0.0
C2230 C 0.3093 0.42955 0.86292 0.0
C2231 C 0.32165 0.43981 0.8524 0.0
C2232 C 0.3169 0.45765 0.84709 0.0
H2233 H 0.41138 0.43001 0.78243 0.0
H2234 H 0.38568 0.43774 0.80219 0.0
C2235 C 0.30011 0.46517 0.85228 0.0
C2236 C 0.33898 0.43151 0.84589 0.0
H2237 H 0.38491 0.43938 0.84268 0.0
C2238 C 0.33804 0.41577 0.83491 0.0
C2239 C 0.35619 0.43967 0.84939 0.0
C2240 C 0.35824 0.45585 0.86204 0.0
C2241 C 0.3537 0.40868 0.82634 0.0
C2242 C 0.3707 0.41751 0.82897 0.0
C2243 C 0.37181 0.43268 0.84069 0.0
C2244 C 0.38692 0.41269 0.81789 0.0
C2245 C 0.35184 0.39246 0.81369 0.0
C2246 C 0.39626 0.39607 0.82036 0.0
C2247 C 0.4111 0.39158 0.80904 0.0
C2248 C 0.41666 0.40363 0.79509 0.0
C2249 C 0.4074 0.42036 0.79296 0.0
C2250 C 0.39274 0.42485 0.80428 0.0
H2251 H 0.33735 0.38828 0.81178 0.0
H2252 H 0.35783 0.3957 0.8001 0.0
H2253 H 0.35952 0.38068 0.81943 0.0
H2254 H 0.39201 0.38658 0.83092 0.0
H2255 H 0.41801 0.37861 0.81103 0.0
H2256 H 0.64952 0.72156 0.93343 0.0
H2257 H 0.66028 0.69207 0.92208 0.0
H2258 H 0.64238 0.6662 0.97211 0.0
H2259 H 0.63253 0.69598 0.98395 0.0
H2260 H 0.67378 0.6539 0.96397 0.0
H2261 H 0.63325 0.65065 0.90047 0.0
H2262 H 0.64662 0.67118 0.9006 0.0
H2263 H 0.62914 0.66781 0.91774 0.0
C2264 C 0.64781 0.70956 0.94198 0.0
C2265 C 0.64016 0.71103 0.95956 0.0
C2266 C 0.65377 0.69265 0.93538 0.0
C2267 C 0.65165 0.67676 0.94598 0.0
C2268 C 0.64402 0.67823 0.96359 0.0
H2269 H 0.68058 0.5705 0.89643 0.0
H2270 H 0.66274 0.59635 0.90853 0.0
C2271 C 0.63844 0.69524 0.97037 0.0
C2272 C 0.65859 0.65889 0.93916 0.0
H2273 H 0.66041 0.63157 0.90126 0.0
C2274 C 0.67059 0.6489 0.95036 0.0
C2275 C 0.65413 0.652 0.92158 0.0
C2276 C 0.6399 0.66089 0.90953 0.0
C2277 C 0.67894 0.63279 0.94415 0.0
C2278 C 0.67588 0.62692 0.92593 0.0
C2279 C 0.66312 0.6363 0.91507 0.0
C2280 C 0.68644 0.61162 0.91774 0.0
C2281 C 0.69093 0.62225 0.95729 0.0
C2282 C 0.70563 0.61193 0.91827 0.0
C2283 C 0.71572 0.59714 0.91173 0.0
C2284 C 0.70687 0.58196 0.90397 0.0
C2285 C 0.68771 0.58206 0.90237 0.0
C2286 C 0.67754 0.59677 0.90931 0.0
H2287 H 0.68653 0.62443 0.97169 0.0
H2288 H 0.69067 0.60735 0.95436 0.0
H2289 H 0.70523 0.62721 0.9561 0.0
H2290 H 0.71284 0.62353 0.92402 0.0
H2291 H 0.7305 0.59755 0.91285 0.0
H2292 H 0.6208 0.29302 0.57417 0.0
H2293 H 0.63091 0.32193 0.58762 0.0
H2294 H 0.66258 0.33346 0.53914 0.0
H2295 H 0.65228 0.30477 0.52543 0.0
H2296 H 0.66562 0.33243 0.59574 0.0
H2297 H 0.63529 0.38114 0.54635 0.0
H2298 H 0.62856 0.35739 0.54736 0.0
H2299 H 0.64893 0.36406 0.53518 0.0
C2300 C 0.62979 0.30178 0.56628 0.0
C2301 C 0.63569 0.2966 0.54868 0.0
C2302 C 0.63554 0.3183 0.574 0.0
C2303 C 0.64723 0.32999 0.56427 0.0
C2304 C 0.65316 0.32487 0.54671 0.0
H2305 H 0.72102 0.41603 0.57922 0.0
H2306 H 0.70148 0.39043 0.57067 0.0
C2307 C 0.64737 0.30839 0.53894 0.0
C2308 C 0.65415 0.34703 0.57282 0.0
H2309 H 0.65989 0.39274 0.56507 0.0
C2310 C 0.66406 0.34569 0.58925 0.0
C2311 C 0.65195 0.36433 0.56441 0.0
C2312 C 0.64043 0.36687 0.54746 0.0
C2313 C 0.67278 0.36102 0.59686 0.0
C2314 C 0.67147 0.37805 0.58782 0.0
C2315 C 0.66087 0.37959 0.57191 0.0
C2316 C 0.68282 0.39381 0.59338 0.0
C2317 C 0.68418 0.35879 0.61393 0.0
C2318 C 0.67869 0.4042 0.609 0.0
C2319 C 0.68986 0.41901 0.61395 0.0
C2320 C 0.70532 0.42346 0.60336 0.0
C2321 C 0.70928 0.41295 0.58773 0.0
C2322 C 0.69811 0.39834 0.58277 0.0
H2323 H 0.68451 0.3444 0.61881 0.0
H2324 H 0.69842 0.3634 0.61128 0.0
H2325 H 0.67851 0.36754 0.62499 0.0
H2326 H 0.66686 0.40089 0.6173 0.0
H2327 H 0.68646 0.42688 0.62605 0.0
H2328 H 0.31912 0.07454 0.60481 0.0
H2329 H 0.33771 0.10019 0.59358 0.0
H2330 H 0.28939 0.13417 0.59155 0.0
H2331 H 0.2708 0.10837 0.60169 0.0
H2332 H 0.30631 0.13584 0.56069 0.0
H2333 H 0.35774 0.14587 0.61559 0.0
H2334 H 0.35765 0.12307 0.60649 0.0
H2335 H 0.33789 0.13149 0.61857 0.0
C2336 C 0.31263 0.08764 0.60231 0.0
C2337 C 0.29359 0.08956 0.60404 0.0
C2338 C 0.32324 0.1023 0.59597 0.0
C2339 C 0.31499 0.1192 0.59181 0.0
C2340 C 0.29608 0.12128 0.59455 0.0
H2341 H 0.36293 0.22432 0.57036 0.0
H2342 H 0.3506 0.19617 0.58343 0.0
C2343 C 0.28547 0.10656 0.6004 0.0
C2344 C 0.32545 0.1343 0.58308 0.0
H2345 H 0.36236 0.16253 0.58804 0.0
C2346 C 0.31855 0.14171 0.56673 0.0
C2347 C 0.3414 0.14197 0.59095 0.0
C2348 C 0.34902 0.13532 0.60896 0.0
C2349 C 0.32675 0.15684 0.55831 0.0
C2350 C 0.34291 0.16431 0.56594 0.0
C2351 C 0.35008 0.15668 0.58209 0.0
C2352 C 0.35179 0.18083 0.5581 0.0
C2353 C 0.31746 0.16513 0.54179 0.0
C2354 C 0.35698 0.18149 0.53958 0.0
C2355 C 0.36362 0.19775 0.53196 0.0
C2356 C 0.36571 0.21344 0.54286 0.0
C2357 C 0.36144 0.21245 0.5616 0.0
C2358 C 0.35444 0.19634 0.56911 0.0
H2359 H 0.30281 0.16112 0.54097 0.0
H2360 H 0.31824 0.1803 0.54206 0.0
H2361 H 0.32429 0.16016 0.52917 0.0
H2362 H 0.35562 0.16953 0.53094 0.0
H2363 H 0.36707 0.19804 0.51754 0.0
H2364 H 0.81597 0.42078 0.3735 0.0
H2365 H 0.83595 0.39485 0.38156 0.0
H2366 H 0.80642 0.38784 0.43217 0.0
H2367 H 0.78656 0.4134 0.42434 0.0
H2368 H 0.84759 0.38875 0.43391 0.0
H2369 H 0.81778 0.33922 0.38401 0.0
H2370 H 0.82428 0.36176 0.37636 0.0
H2371 H 0.80515 0.35911 0.39148 0.0
C2372 C 0.81379 0.41369 0.38633 0.0
C2373 C 0.79964 0.41908 0.39824 0.0
C2374 C 0.82516 0.39891 0.39089 0.0
C2375 C 0.82255 0.38946 0.40742 0.0
C2376 C 0.80862 0.39499 0.41936 0.0
H2377 H 0.85127 0.30301 0.47744 0.0
H2378 H 0.84245 0.3314 0.46227 0.0
C2379 C 0.79725 0.40958 0.41481 0.0
C2380 C 0.834 0.37362 0.41259 0.0
H2381 H 0.83767 0.32749 0.40635 0.0
C2382 C 0.84572 0.37539 0.42769 0.0
C2383 C 0.83156 0.3563 0.40435 0.0
C2384 C 0.819 0.35379 0.38817 0.0
C2385 C 0.85446 0.3601 0.43531 0.0
C2386 C 0.85102 0.34257 0.42788 0.0
C2387 C 0.84017 0.34095 0.41209 0.0
C2388 C 0.85718 0.32564 0.4372 0.0
C2389 C 0.86699 0.36283 0.4515 0.0
C2390 C 0.86805 0.31278 0.428 0.0
C2391 C 0.87302 0.29642 0.43661 0.0
C2392 C 0.86708 0.29258 0.45454 0.0
C2393 C 0.85618 0.30554 0.46369 0.0
C2394 C 0.85123 0.32186 0.45507 0.0
H2395 H 0.87287 0.37685 0.45163 0.0
H2396 H 0.85904 0.36103 0.46432 0.0
H2397 H 0.87836 0.35275 0.45145 0.0
H2398 H 0.87263 0.31537 0.41413 0.0
H2399 H 0.88139 0.28672 0.42913 0.0
H2400 H 0.52661 0.86869 0.80661 0.0
H2401 H 0.53985 0.85896 0.83574 0.0
H2402 H 0.59219 0.85134 0.80937 0.0
H2403 H 0.57922 0.86212 0.78049 0.0
H2404 H 0.5518 0.82765 0.84397 0.0
H2405 H 0.60946 0.87521 0.85467 0.0
H2406 H 0.59225 0.87914 0.8374 0.0
H2407 H 0.61142 0.86427 0.83282 0.0
C2408 C 0.54102 0.86523 0.80713 0.0
C2409 C 0.5519 0.86616 0.79132 0.0
C2410 C 0.54859 0.85969 0.82378 0.0
C2411 C 0.56713 0.85465 0.8249 0.0
C2412 C 0.57804 0.85573 0.8091 0.0
H2413 H 0.60555 0.77276 0.89925 0.0
H2414 H 0.59605 0.79135 0.87319 0.0
C2415 C 0.57057 0.86171 0.79252 0.0
C2416 C 0.57445 0.84648 0.84205 0.0
H2417 H 0.611 0.84658 0.87129 0.0
C2418 C 0.56462 0.83203 0.85004 0.0
C2419 C 0.59104 0.85229 0.85027 0.0
C2420 C 0.60151 0.86872 0.84344 0.0
C2421 C 0.57114 0.82288 0.86556 0.0
C2422 C 0.58842 0.8277 0.87288 0.0
C2423 C 0.59795 0.84261 0.86541 0.0
C2424 C 0.59682 0.81703 0.88796 0.0
C2425 C 0.55929 0.80818 0.874 0.0
C2426 C 0.60176 0.82545 0.90454 0.0
C2427 C 0.60771 0.81484 0.91938 0.0
C2428 C 0.60859 0.7957 0.91781 0.0
C2429 C 0.6047 0.78748 0.90089 0.0
C2430 C 0.59916 0.79807 0.88604 0.0
H2431 H 0.54458 0.81045 0.87087 0.0
H2432 H 0.56318 0.79468 0.86822 0.0
H2433 H 0.56098 0.80766 0.88909 0.0
H2434 H 0.60025 0.8401 0.90625 0.0
H2435 H 0.61065 0.82148 0.93231 0.0
H2436 H 0.47203 0.63815 0.79828 0.0
H2437 H 0.45634 0.64758 0.82623 0.0
H2438 H 0.40549 0.62626 0.80519 0.0
H2439 H 0.42104 0.61681 0.77706 0.0
H2440 H 0.40329 0.66235 0.81748 0.0
H2441 H 0.43598 0.61825 0.86971 0.0
H2442 H 0.45232 0.62955 0.85524 0.0
H2443 H 0.43677 0.61311 0.84551 0.0
C2444 C 0.45755 0.63524 0.79965 0.0
C2445 C 0.44779 0.62676 0.7854 0.0
C2446 C 0.44864 0.64051 0.81572 0.0
C2447 C 0.42982 0.63735 0.81788 0.0
C2448 C 0.42006 0.62865 0.80383 0.0
H2449 H 0.37751 0.67702 0.91996 0.0
H2450 H 0.38375 0.65652 0.89393 0.0
C2451 C 0.42898 0.62329 0.78777 0.0
C2452 C 0.42016 0.64475 0.83408 0.0
H2453 H 0.42177 0.64599 0.88077 0.0
C2454 C 0.40703 0.65849 0.83132 0.0
C2455 C 0.42488 0.63955 0.85212 0.0
C2456 C 0.43813 0.62417 0.85586 0.0
C2457 C 0.39948 0.66808 0.84614 0.0
C2458 C 0.4053 0.66384 0.86408 0.0
C2459 C 0.41743 0.64925 0.86695 0.0
C2460 C 0.40088 0.67597 0.87963 0.0
C2461 C 0.38591 0.6832 0.84247 0.0
C2462 C 0.4086 0.6935 0.88017 0.0
C2463 C 0.40524 0.70506 0.89494 0.0
C2464 C 0.39401 0.69936 0.90949 0.0
C2465 C 0.38615 0.68179 0.90891 0.0
C2466 C 0.38971 0.67009 0.89411 0.0
H2467 H 0.37928 0.68159 0.82888 0.0
H2468 H 0.37515 0.68355 0.85321 0.0
H2469 H 0.39316 0.69654 0.84263 0.0
H2470 H 0.41744 0.69817 0.86921 0.0
H2471 H 0.41149 0.7185 0.89493 0.0
H2472 H 0.51919 0.13044 0.69207 0.0
H2473 H 0.53205 0.14138 0.66315 0.0
H2474 H 0.58184 0.1566 0.69112 0.0
H2475 H 0.56945 0.14465 0.71974 0.0
H2476 H 0.5404 0.17334 0.65357 0.0
H2477 H 0.60403 0.13326 0.64791 0.0
H2478 H 0.58664 0.12788 0.66459 0.0
H2479 H 0.60367 0.14512 0.66935 0.0
C2480 C 0.53297 0.13591 0.69195 0.0
C2481 C 0.54336 0.13666 0.7081 0.0
C2482 C 0.54034 0.14212 0.67543 0.0
C2483 C 0.5581 0.1495 0.6748 0.0
C2484 C 0.56841 0.15036 0.69101 0.0
H2485 H 0.59106 0.23393 0.60136 0.0
H2486 H 0.58073 0.21448 0.62642 0.0
C2487 C 0.56123 0.14372 0.70744 0.0
C2488 C 0.56518 0.15781 0.65762 0.0
H2489 H 0.60328 0.16171 0.63077 0.0
C2490 C 0.55405 0.17052 0.64846 0.0
C2491 C 0.58284 0.15392 0.65058 0.0
C2492 C 0.59486 0.13913 0.65853 0.0
C2493 C 0.56034 0.18002 0.63305 0.0
C2494 C 0.5786 0.17741 0.62709 0.0
C2495 C 0.58944 0.16404 0.63561 0.0
C2496 C 0.58676 0.18899 0.61255 0.0
C2497 C 0.54726 0.19273 0.62333 0.0
C2498 C 0.59483 0.18116 0.59693 0.0
C2499 C 0.60129 0.19234 0.58274 0.0
C2500 C 0.59955 0.21145 0.58396 0.0
C2501 C 0.59228 0.21922 0.59995 0.0
C2502 C 0.58622 0.20811 0.61421 0.0
H2503 H 0.53284 0.18827 0.62522 0.0
H2504 H 0.54853 0.20668 0.62919 0.0
H2505 H 0.55017 0.19342 0.60843 0.0
H2506 H 0.5956 0.16643 0.59546 0.0
H2507 H 0.60688 0.18605 0.57053 0.0
H2508 H 0.47096 0.35778 0.69473 0.0
H2509 H 0.45595 0.34854 0.66634 0.0
H2510 H 0.40478 0.37045 0.68598 0.0
H2511 H 0.41966 0.37973 0.71453 0.0
H2512 H 0.4026 0.33428 0.67317 0.0
H2513 H 0.43725 0.37898 0.6227 0.0
H2514 H 0.45296 0.36732 0.63758 0.0
H2515 H 0.43723 0.38376 0.64698 0.0
C2516 C 0.45656 0.36083 0.69297 0.0
C2517 C 0.44652 0.36948 0.70693 0.0
C2518 C 0.44803 0.35566 0.67667 0.0
C2519 C 0.42933 0.35908 0.67397 0.0
C2520 C 0.41928 0.36786 0.68776 0.0
H2521 H 0.38002 0.3227 0.56932 0.0
H2522 H 0.38556 0.3423 0.59619 0.0
C2523 C 0.42782 0.37313 0.70406 0.0
C2524 C 0.42008 0.35202 0.65738 0.0
H2525 H 0.4229 0.35176 0.61074 0.0
C2526 C 0.40675 0.33837 0.65951 0.0
C2527 C 0.42534 0.35754 0.63959 0.0
C2528 C 0.43885 0.37284 0.63652 0.0
C2529 C 0.39949 0.32918 0.6443 0.0
C2530 C 0.40581 0.33373 0.6266 0.0
C2531 C 0.41818 0.34824 0.62437 0.0
C2532 C 0.40162 0.32205 0.61064 0.0
C2533 C 0.38564 0.31417 0.6473 0.0
C2534 C 0.40895 0.30436 0.60993 0.0
C2535 C 0.406 0.29331 0.59468 0.0
C2536 C 0.39558 0.29971 0.57983 0.0
C2537 C 0.38804 0.31741 0.58061 0.0
C2538 C 0.39119 0.32859 0.59589 0.0
H2539 H 0.37862 0.31564 0.66071 0.0
H2540 H 0.37521 0.31412 0.63624 0.0
H2541 H 0.39274 0.30074 0.64714 0.0
H2542 H 0.41723 0.29918 0.6211 0.0
H2543 H 0.41197 0.27975 0.59454 0.0
H2544 H 0.9144 0.56942 0.78425 0.0
H2545 H 0.88809 0.56077 0.80278 0.0
H2546 H 0.89243 0.61126 0.83302 0.0
H2547 H 0.91901 0.62017 0.81436 0.0
H2548 H 0.88618 0.55769 0.84273 0.0
H2549 H 0.83843 0.60922 0.8129 0.0
H2550 H 0.85943 0.60272 0.80159 0.0
H2551 H 0.86015 0.61714 0.82144 0.0
C2552 C 0.90982 0.57875 0.79483 0.0
C2553 C 0.91873 0.59555 0.79778 0.0
C2554 C 0.89481 0.57373 0.80544 0.0
C2555 C 0.88829 0.58542 0.81914 0.0
C2556 C 0.89721 0.60214 0.82236 0.0
H2557 H 0.78598 0.56914 0.87904 0.0
H2558 H 0.8152 0.58165 0.86873 0.0
C2559 C 0.91239 0.60717 0.81175 0.0
C2560 C 0.87192 0.57995 0.8297 0.0
H2561 H 0.82609 0.58794 0.83355 0.0
C2562 C 0.87306 0.56441 0.84092 0.0
C2563 C 0.8549 0.5888 0.8273 0.0
C2564 C 0.85298 0.60535 0.8151 0.0
C2565 C 0.85748 0.55721 0.84953 0.0
C2566 C 0.84028 0.56555 0.84645 0.0
C2567 C 0.83928 0.58152 0.83579 0.0
C2568 C 0.82304 0.55752 0.85347 0.0
C2569 C 0.85957 0.54071 0.86177 0.0
C2570 C 0.8177 0.53982 0.84821 0.0
C2571 C 0.80101 0.53257 0.85412 0.0
C2572 C 0.78926 0.54299 0.86524 0.0
C2573 C 0.79468 0.56072 0.87048 0.0
C2574 C 0.81139 0.56792 0.86462 0.0
H2575 H 0.87375 0.53956 0.86717 0.0
H2576 H 0.84992 0.54128 0.87349 0.0
H2577 H 0.85663 0.52815 0.85375 0.0
H2578 H 0.82629 0.53173 0.83924 0.0
H2579 H 0.7972 0.51894 0.84973 0.0
H2580 H 0.21172 0.92939 0.87908 0.0
H2581 H 0.18227 0.91641 0.86998 0.0
H2582 H 0.1694 0.96592 0.84054 0.0
H2583 H 0.1987 0.97917 0.84978 0.0
H2584 H 0.1403 0.95238 0.86199 0.0
H2585 H 0.17081 0.89795 0.81824 0.0
H2586 H 0.17856 0.89858 0.84157 0.0
H2587 H 0.18391 0.91721 0.82645 0.0
C2588 C 0.20263 0.93757 0.87069 0.0
C2589 C 0.20764 0.9553 0.86504 0.0
C2590 C 0.18583 0.93007 0.86545 0.0
C2591 C 0.17381 0.94009 0.85436 0.0
C2592 C 0.17855 0.95794 0.84906 0.0
H2593 H 0.07844 0.93293 0.79067 0.0
H2594 H 0.10485 0.94085 0.80937 0.0
C2595 C 0.19531 0.96548 0.85433 0.0
C2596 C 0.15636 0.93201 0.84799 0.0
H2597 H 0.13868 0.8991 0.8199 0.0
C2598 C 0.13992 0.94063 0.85292 0.0
C2599 C 0.15592 0.91658 0.83628 0.0
C2600 C 0.17322 0.90707 0.83017 0.0
C2601 C 0.12307 0.93456 0.84601 0.0
C2602 C 0.12272 0.91965 0.83369 0.0
C2603 C 0.13904 0.91049 0.82941 0.0
C2604 C 0.10598 0.91481 0.8234 0.0
C2605 C 0.10581 0.94437 0.85166 0.0
C2606 C 0.09799 0.8974 0.82493 0.0
C2607 C 0.08277 0.89278 0.8142 0.0
C2608 C 0.07558 0.90543 0.8016 0.0
C2609 C 0.08364 0.92285 0.80022 0.0
C2610 C 0.09866 0.92747 0.811 0.0
H2611 H 0.10757 0.95154 0.86495 0.0
H2612 H 0.10233 0.95478 0.84116 0.0
H2613 H 0.09414 0.9347 0.8528 0.0
H2614 H 0.1036 0.88739 0.83432 0.0
H2615 H 0.07688 0.87923 0.8155 0.0
H2616 H 0.89885 0.39141 0.72757 0.0
H2617 H 0.87218 0.40235 0.71075 0.0
H2618 H 0.90414 0.4039 0.66105 0.0
H2619 H 0.93069 0.39189 0.67782 0.0
H2620 H 0.86962 0.43428 0.69601 0.0
H2621 H 0.85772 0.38285 0.64152 0.0
H2622 H 0.8729 0.37867 0.66054 0.0
H2623 H 0.8805 0.392 0.64127 0.0
C2624 C 0.90003 0.39365 0.71296 0.0
C2625 C 0.91674 0.39081 0.70394 0.0
C2626 C 0.88482 0.39996 0.70336 0.0
C2627 C 0.88608 0.40394 0.6846 0.0
C2628 C 0.90266 0.40055 0.67541 0.0
H2629 H 0.80744 0.48208 0.63895 0.0
H2630 H 0.83559 0.46732 0.64953 0.0
C2631 C 0.91784 0.39377 0.68499 0.0
C2632 C 0.87051 0.41322 0.67537 0.0
H2633 H 0.84108 0.41077 0.63913 0.0
C2634 C 0.86335 0.42906 0.68361 0.0
C2635 C 0.86226 0.40641 0.65922 0.0
C2636 C 0.86861 0.38895 0.65021 0.0
C2637 C 0.84801 0.43806 0.67643 0.0
C2638 C 0.84005 0.43157 0.66002 0.0
C2639 C 0.84731 0.41586 0.65161 0.0
C2640 C 0.82358 0.44032 0.65195 0.0
C2641 C 0.84013 0.45399 0.687 0.0
C2642 C 0.80773 0.42991 0.64886 0.0
C2643 C 0.79179 0.43823 0.64239 0.0
C2644 C 0.79131 0.45717 0.63907 0.0
C2645 C 0.80732 0.46751 0.64168 0.0
C2646 C 0.82338 0.4591 0.64781 0.0
H2647 H 0.84441 0.45372 0.7016 0.0
H2648 H 0.84517 0.46698 0.68097 0.0
H2649 H 0.82494 0.454 0.68647 0.0
H2650 H 0.80756 0.41539 0.65189 0.0
H2651 H 0.77968 0.42989 0.64047 0.0
H2652 H 0.07679 0.12296 0.68968 0.0
H2653 H 0.10387 0.11545 0.67109 0.0
H2654 H 0.10565 0.06171 0.6954 0.0
H2655 H 0.07891 0.06902 0.71391 0.0
H2656 H 0.13906 0.10372 0.6864 0.0
H2657 H 0.10915 0.05227 0.63932 0.0
H2658 H 0.09541 0.0689 0.65143 0.0
H2659 H 0.10344 0.0487 0.66297 0.0
C2660 C 0.08287 0.1095 0.69088 0.0
C2661 C 0.07576 0.09659 0.70326 0.0
C2662 C 0.0983 0.10524 0.68029 0.0
C2663 C 0.10655 0.08795 0.68174 0.0
C2664 C 0.09928 0.07501 0.69387 0.0
H2665 H 0.20028 0.02566 0.65171 0.0
H2666 H 0.17104 0.03799 0.66237 0.0
C2667 C 0.08406 0.07928 0.70452 0.0
C2668 C 0.12351 0.08354 0.67163 0.0
H2669 H 0.14178 0.05215 0.64228 0.0
C2670 C 0.13967 0.09269 0.67648 0.0
C2671 C 0.12419 0.06907 0.65882 0.0
C2672 C 0.10709 0.05925 0.65267 0.0
C2673 C 0.1567 0.08707 0.66957 0.0
C2674 C 0.15745 0.07216 0.65722 0.0
C2675 C 0.14117 0.0635 0.65183 0.0
C2676 C 0.17505 0.06478 0.65038 0.0
C2677 C 0.17381 0.09653 0.67627 0.0
C2678 C 0.18686 0.07569 0.63992 0.0
C2679 C 0.20362 0.06873 0.63391 0.0
C2680 C 0.2088 0.05065 0.63809 0.0
C2681 C 0.19675 0.03964 0.64828 0.0
C2682 C 0.18002 0.04666 0.65436 0.0
H2683 H 0.17121 0.10477 0.68879 0.0
H2684 H 0.18475 0.08643 0.67929 0.0
H2685 H 0.1789 0.1059 0.66547 0.0
H2686 H 0.18311 0.08959 0.63638 0.0
H2687 H 0.2125 0.07754 0.62594 0.0
H2688 H 0.81075 0.9188 0.62552 0.0
H2689 H 0.83077 0.89247 0.61904 0.0
H2690 H 0.80668 0.88739 0.5654 0.0
H2691 H 0.78675 0.91332 0.5717 0.0
H2692 H 0.8174 0.85573 0.60793 0.0
H2693 H 0.86328 0.88749 0.55655 0.0
H2694 H 0.85044 0.90073 0.57306 0.0
H2695 H 0.83942 0.89215 0.5528 0.0
C2696 C 0.80987 0.91213 0.61232 0.0
C2697 C 0.79717 0.9181 0.59913 0.0
C2698 C 0.82128 0.89714 0.60865 0.0
C2699 C 0.82033 0.88821 0.59165 0.0
C2700 C 0.80781 0.8943 0.57848 0.0
H2701 H 0.84949 0.79692 0.5283 0.0
H2702 H 0.83997 0.82591 0.54193 0.0
C2703 C 0.79634 0.90905 0.58217 0.0
C2704 C 0.83149 0.87182 0.5877 0.0
H2705 H 0.86124 0.8547 0.55606 0.0
C2706 C 0.82733 0.8555 0.59689 0.0
C2707 C 0.84435 0.87166 0.57326 0.0
C2708 C 0.8498 0.88898 0.56344 0.0
C2709 C 0.83477 0.83873 0.59116 0.0
C2710 C 0.84692 0.83845 0.57606 0.0
C2711 C 0.85184 0.85495 0.56755 0.0
C2712 C 0.85342 0.82109 0.56788 0.0
C2713 C 0.82871 0.82136 0.60055 0.0
C2714 C 0.86435 0.80889 0.57788 0.0
C2715 C 0.86976 0.79224 0.57016 0.0
C2716 C 0.86442 0.78757 0.55223 0.0
C2717 C 0.85381 0.80004 0.54213 0.0
C2718 C 0.84838 0.81664 0.54989 0.0
H2719 H 0.81669 0.82363 0.60959 0.0
H2720 H 0.82515 0.8107 0.59032 0.0
H2721 H 0.84009 0.81604 0.60908 0.0
H2722 H 0.86866 0.81223 0.59167 0.0
H2723 H 0.87805 0.78301 0.57827 0.0
H2724 H 0.81657 0.06669 0.89261 0.0
H2725 H 0.83417 0.09255 0.90502 0.0
H2726 H 0.78411 0.12306 0.9122 0.0
H2727 H 0.76655 0.09712 0.90071 0.0
H2728 H 0.83925 0.12748 0.89629 0.0
H2729 H 0.80405 0.1247 0.96306 0.0
H2730 H 0.80139 0.10702 0.94604 0.0
H2731 H 0.78778 0.12759 0.94494 0.0
C2732 C 0.80941 0.07901 0.89671 0.0
C2733 C 0.79022 0.07987 0.89597 0.0
C2734 C 0.81944 0.09372 0.90384 0.0
C2735 C 0.81039 0.1095 0.91012 0.0
C2736 C 0.79133 0.11077 0.90813 0.0
H2737 H 0.85182 0.2178 0.92754 0.0
H2738 H 0.84064 0.18874 0.91555 0.0
C2739 C 0.78133 0.09601 0.9014 0.0
C2740 C 0.82063 0.12464 0.91898 0.0
H2741 H 0.81973 0.15282 0.9562 0.0
C2742 C 0.83516 0.13289 0.9095 0.0
C2743 C 0.81569 0.13137 0.93648 0.0
C2744 C 0.80152 0.12205 0.94829 0.0
C2745 C 0.84423 0.14827 0.91663 0.0
C2746 C 0.83813 0.156 0.93335 0.0
C2747 C 0.82423 0.14716 0.94323 0.0
C2748 C 0.84541 0.17356 0.94058 0.0
C2749 C 0.86032 0.15592 0.90618 0.0
C2750 C 0.85104 0.17501 0.95893 0.0
C2751 C 0.85687 0.19181 0.96601 0.0
C2752 C 0.8574 0.20741 0.95479 0.0
C2753 C 0.85177 0.20595 0.93645 0.0
C2754 C 0.84558 0.18927 0.92951 0.0
H2755 H 0.86731 0.14505 0.89815 0.0
H2756 H 0.85537 0.16637 0.89633 0.0
H2757 H 0.87047 0.16236 0.91546 0.0
H2758 H 0.85089 0.16313 0.9678 0.0
H2759 H 0.86119 0.19254 0.98017 0.0
H2760 H 0.14107 0.27556 0.92348 0.0
H2761 H 0.15313 0.30407 0.91082 0.0
H2762 H 0.14449 0.3308 0.9628 0.0
H2763 H 0.1334 0.302 0.97581 0.0
H2764 H 0.14029 0.33696 0.90525 0.0
H2765 H 0.19705 0.34197 0.95529 0.0
H2766 H 0.18267 0.32202 0.95372 0.0
H2767 H 0.17508 0.34192 0.96618 0.0
C2768 C 0.14177 0.28752 0.93221 0.0
C2769 C 0.13657 0.28652 0.9507 0.0
C2770 C 0.14862 0.30383 0.92495 0.0
C2771 C 0.15013 0.31951 0.93596 0.0
C2772 C 0.14406 0.31874 0.9542 0.0
H2773 H 0.17708 0.428 0.89097 0.0
H2774 H 0.16015 0.40079 0.90114 0.0
C2775 C 0.13762 0.30232 0.9616 0.0
C2776 C 0.15853 0.33643 0.92843 0.0
H2777 H 0.19257 0.36745 0.93588 0.0
C2778 C 0.15178 0.34361 0.91189 0.0
C2779 C 0.17369 0.34495 0.93695 0.0
C2780 C 0.18267 0.33722 0.9539 0.0
C2781 C 0.15986 0.35898 0.90359 0.0
C2782 C 0.17466 0.36781 0.91243 0.0
C2783 C 0.18119 0.36075 0.92909 0.0
C2784 C 0.18431 0.38387 0.9045 0.0
C2785 C 0.15283 0.36513 0.88517 0.0
C2786 C 0.20348 0.38354 0.9031 0.0
C2787 C 0.21309 0.39916 0.89793 0.0
C2788 C 0.20374 0.41535 0.8936 0.0
C2789 C 0.18454 0.41556 0.89404 0.0
C2790 C 0.17488 0.39999 0.89975 0.0
H2791 H 0.14558 0.35391 0.87792 0.0
H2792 H 0.14295 0.37649 0.88715 0.0
H2793 H 0.16414 0.37009 0.87632 0.0
H2794 H 0.21109 0.37129 0.90658 0.0
H2795 H 0.22791 0.39868 0.89763 0.0
H2796 H 0.63533 0.1938 0.01641 0.0
H2797 H 0.64518 0.16408 0.02843 0.0
H2798 H 0.65959 0.18964 0.07972 0.0
H2799 H 0.64891 0.21904 0.06813 0.0
H2800 H 0.67645 0.15225 0.03854 0.0
H2801 H 0.63165 0.14754 0.09902 0.0
H2802 H 0.62838 0.16474 0.08162 0.0
H2803 H 0.64455 0.16835 0.09995 0.0
C2804 C 0.6405 0.19301 0.03029 0.0
C2805 C 0.64124 0.20869 0.04139 0.0
C2806 C 0.64607 0.17602 0.03717 0.0
C2807 C 0.65267 0.17448 0.05518 0.0
C2808 C 0.65387 0.19027 0.06606 0.0
H2809 H 0.73094 0.09744 0.0936 0.0
H2810 H 0.71329 0.12286 0.08119 0.0
C2811 C 0.64796 0.20714 0.05934 0.0
C2812 C 0.65945 0.15666 0.06226 0.0
H2813 H 0.65922 0.12904 0.09999 0.0
C2814 C 0.67243 0.14705 0.05185 0.0
C2815 C 0.65392 0.1495 0.07942 0.0
C2816 C 0.63869 0.15799 0.09051 0.0
C2817 C 0.68072 0.1311 0.05853 0.0
C2818 C 0.67652 0.12499 0.07645 0.0
C2819 C 0.66278 0.13396 0.08644 0.0
C2820 C 0.68692 0.10997 0.08531 0.0
C2821 C 0.69393 0.121 0.04625 0.0
C2822 C 0.67792 0.09475 0.09293 0.0
C2823 C 0.68804 0.08034 0.10055 0.0
C2824 C 0.70725 0.08093 0.10049 0.0
C2825 C 0.71614 0.0965 0.09355 0.0
C2826 C 0.70607 0.11096 0.08629 0.0
H2827 H 0.69055 0.12318 0.03158 0.0
H2828 H 0.70797 0.12632 0.04854 0.0
H2829 H 0.69386 0.10606 0.04906 0.0
H2830 H 0.66313 0.09382 0.09255 0.0
H2831 H 0.68088 0.06848 0.10583 0.0
H2832 H 0.39819 0.22346 0.11162 0.0
H2833 H 0.40994 0.20417 0.13622 0.0
H2834 H 0.40419 0.15654 0.10179 0.0
H2835 H 0.39149 0.17584 0.07729 0.0
H2836 H 0.39643 0.14838 0.13692 0.0
H2837 H 0.46174 0.18628 0.13428 0.0
H2838 H 0.44309 0.20152 0.13887 0.0
H2839 H 0.44402 0.1894 0.11739 0.0
C2840 C 0.39916 0.20883 0.1094 0.0
C2841 C 0.39416 0.20113 0.09254 0.0
C2842 C 0.40601 0.19785 0.1234 0.0
C2843 C 0.40858 0.17902 0.1206 0.0
C2844 C 0.40254 0.17108 0.10414 0.0
H2845 H 0.48473 0.12815 0.19732 0.0
H2846 H 0.47001 0.1376 0.16876 0.0
C2847 C 0.39526 0.18208 0.0902 0.0
C2848 C 0.4183 0.16801 0.13462 0.0
H2849 H 0.45661 0.16829 0.16124 0.0
C2850 C 0.4097 0.15256 0.14211 0.0
C2851 C 0.43589 0.17308 0.14098 0.0
C2852 C 0.4468 0.18835 0.1323 0.0
C2853 C 0.41781 0.14263 0.15647 0.0
C2854 C 0.43465 0.14875 0.16393 0.0
C2855 C 0.44359 0.16367 0.15579 0.0
C2856 C 0.44297 0.14058 0.18062 0.0
C2857 C 0.40827 0.12565 0.16332 0.0
C2858 C 0.43271 0.13884 0.19679 0.0
C2859 C 0.44102 0.133 0.21299 0.0
C2860 C 0.4599 0.12937 0.21349 0.0
C2861 C 0.47016 0.13095 0.19732 0.0
C2862 C 0.46174 0.13633 0.18101 0.0
H2863 H 0.40018 0.11909 0.15223 0.0
H2864 H 0.41814 0.11548 0.16878 0.0
H2865 H 0.39857 0.12947 0.17437 0.0
H2866 H 0.41839 0.14264 0.19711 0.0
H2867 H 0.43282 0.1321 0.22532 0.0
H2868 H 0.5224 0.36143 0.19643 0.0
H2869 H 0.53539 0.34987 0.16778 0.0
H2870 H 0.58777 0.34304 0.19421 0.0
H2871 H 0.57512 0.35539 0.22256 0.0
H2872 H 0.59246 0.35611 0.16099 0.0
H2873 H 0.54474 0.29721 0.15738 0.0
H2874 H 0.53315 0.31883 0.1573 0.0
H2875 H 0.54604 0.31189 0.17714 0.0
C2876 C 0.53669 0.35747 0.1961 0.0
C2877 C 0.54771 0.35916 0.21177 0.0
C2878 C 0.54408 0.35079 0.17975 0.0
C2879 C 0.56246 0.34518 0.17894 0.0
C2880 C 0.57354 0.34722 0.1945 0.0
H2881 H 0.60503 0.26743 0.10209 0.0
H2882 H 0.59507 0.28462 0.12891 0.0
C2883 C 0.56628 0.35423 0.21072 0.0
C2884 C 0.57017 0.33683 0.16209 0.0
H2885 H 0.56425 0.30166 0.13199 0.0
C2886 C 0.58633 0.34417 0.15465 0.0
C2887 C 0.56229 0.32112 0.15396 0.0
C2888 C 0.54572 0.31168 0.16195 0.0
C2889 C 0.59493 0.33612 0.13944 0.0
C2890 C 0.58679 0.32066 0.13108 0.0
C2891 C 0.57048 0.31354 0.13836 0.0
C2892 C 0.59519 0.31097 0.1153 0.0
C2893 C 0.61293 0.34387 0.13295 0.0
C2894 C 0.59915 0.32009 0.09881 0.0
C2895 C 0.60535 0.31027 0.08354 0.0
C2896 C 0.60716 0.29117 0.08444 0.0
C2897 C 0.60367 0.28217 0.10104 0.0
C2898 C 0.59792 0.29198 0.11634 0.0
H2899 H 0.6198 0.35196 0.14385 0.0
H2900 H 0.62237 0.33285 0.12843 0.0
H2901 H 0.61042 0.35314 0.12119 0.0
H2902 H 0.59675 0.33465 0.0975 0.0
H2903 H 0.60774 0.31746 0.07079 0.0
H2904 H 0.42997 0.88209 0.28344 0.0
H2905 H 0.41539 0.87347 0.31235 0.0
H2906 H 0.46283 0.84147 0.32682 0.0
H2907 H 0.4776 0.85016 0.29818 0.0
H2908 H 0.40667 0.83872 0.3241 0.0
H2909 H 0.45428 0.8714 0.37299 0.0
H2910 H 0.4538 0.87728 0.34898 0.0
H2911 H 0.46614 0.85739 0.35668 0.0
C2912 C 0.43739 0.87335 0.29286 0.0
C2913 C 0.45501 0.86685 0.28851 0.0
C2914 C 0.42901 0.86846 0.30936 0.0
C2915 C 0.43815 0.85712 0.32186 0.0
C2916 C 0.45571 0.85063 0.31757 0.0
H2917 H 0.42463 0.78513 0.40835 0.0
H2918 H 0.4326 0.80519 0.38299 0.0
C2919 C 0.4641 0.85549 0.30111 0.0
C2920 C 0.42901 0.85101 0.3389 0.0
H2921 H 0.43601 0.84647 0.38485 0.0
C2922 C 0.41281 0.84076 0.33746 0.0
C2923 C 0.43698 0.85385 0.35631 0.0
C2924 C 0.45365 0.86575 0.35888 0.0
C2925 C 0.40514 0.83214 0.35283 0.0
C2926 C 0.41387 0.83395 0.36998 0.0
C2927 C 0.42941 0.84509 0.37162 0.0
C2928 C 0.40867 0.82238 0.38572 0.0
C2929 C 0.38846 0.82022 0.3505 0.0
C2930 C 0.39256 0.82552 0.39572 0.0
C2931 C 0.38793 0.81403 0.41038 0.0
C2932 C 0.39934 0.79925 0.4151 0.0
C2933 C 0.41549 0.79632 0.40505 0.0
C2934 C 0.42012 0.80781 0.39057 0.0
H2935 H 0.38384 0.81951 0.33602 0.0
H2936 H 0.39144 0.80613 0.35537 0.0
H2937 H 0.37708 0.82569 0.35895 0.0
H2938 H 0.38363 0.8368 0.39217 0.0
H2939 H 0.37543 0.81663 0.4179 0.0
H2940 H 0.61917 0.68002 0.42991 0.0
H2941 H 0.61366 0.66027 0.40316 0.0
H2942 H 0.58438 0.7042 0.37678 0.0
H2943 H 0.58967 0.72381 0.40319 0.0
H2944 H 0.57719 0.65144 0.38816 0.0
H2945 H 0.62229 0.68609 0.33797 0.0
H2946 H 0.62526 0.68836 0.36243 0.0
H2947 H 0.60807 0.70154 0.35076 0.0
C2948 C 0.61171 0.68547 0.41831 0.0
C2949 C 0.60484 0.70345 0.41865 0.0
C2950 C 0.60857 0.6742 0.4031 0.0
C2951 C 0.59881 0.6809 0.38796 0.0
C2952 C 0.59218 0.69888 0.38822 0.0
H2953 H 0.5298 0.64333 0.30387 0.0
H2954 H 0.54449 0.6533 0.33219 0.0
C2955 C 0.59514 0.71003 0.40339 0.0
C2956 C 0.59451 0.66907 0.37211 0.0
H2957 H 0.59804 0.66768 0.32558 0.0
C2958 C 0.58202 0.6547 0.3745 0.0
C2959 C 0.60098 0.67327 0.35437 0.0
C2960 C 0.61504 0.68805 0.35119 0.0
C2961 C 0.5749 0.64517 0.3594 0.0
C2962 C 0.58032 0.65033 0.34154 0.0
C2963 C 0.59375 0.66388 0.33928 0.0
C2964 C 0.57128 0.6429 0.325 0.0
C2965 C 0.56132 0.62997 0.36265 0.0
C2966 C 0.58153 0.63396 0.31146 0.0
C2967 C 0.57319 0.62829 0.2952 0.0
C2968 C 0.55447 0.63167 0.2921 0.0
C2969 C 0.54422 0.64047 0.30581 0.0
C2970 C 0.55256 0.64606 0.32208 0.0
H2971 H 0.56283 0.62406 0.37659 0.0
H2972 H 0.54724 0.63553 0.36145 0.0
H2973 H 0.56295 0.61887 0.3524 0.0
H2974 H 0.59603 0.63155 0.31341 0.0
H2975 H 0.5815 0.62157 0.28492 0.0
H2976 H 0.21378 0.42882 0.11925 0.0
H2977 H 0.185 0.4144 0.12853 0.0
H2978 H 0.17013 0.46314 0.15832 0.0
H2979 H 0.19863 0.47775 0.14893 0.0
H2980 H 0.17365 0.40707 0.16352 0.0
H2981 H 0.12378 0.45267 0.12954 0.0
H2982 H 0.14774 0.45233 0.12344 0.0
H2983 H 0.14 0.46537 0.14289 0.0
C2984 C 0.20429 0.43656 0.12761 0.0
C2985 C 0.2085 0.45448 0.13332 0.0
C2986 C 0.18786 0.42828 0.13289 0.0
C2987 C 0.17529 0.43781 0.14383 0.0
C2988 C 0.17941 0.4557 0.14947 0.0
H2989 H 0.09148 0.4259 0.21882 0.0
H2990 H 0.11651 0.433 0.19801 0.0
C2991 C 0.1958 0.46399 0.1442 0.0
C2992 C 0.15844 0.42874 0.15054 0.0
H2993 H 0.1125 0.43548 0.15557 0.0
C2994 C 0.1602 0.41299 0.16142 0.0
C2995 C 0.14089 0.43639 0.14763 0.0
C2996 C 0.13795 0.45251 0.13507 0.0
C2997 C 0.14505 0.40553 0.17058 0.0
C2998 C 0.1278 0.41403 0.16873 0.0
C2999 C 0.12581 0.42906 0.15697 0.0
C3000 C 0.11239 0.40925 0.18087 0.0
C3001 C 0.1477 0.38935 0.18312 0.0
C3002 C 0.10178 0.39349 0.17803 0.0
C3003 C 0.0873 0.38936 0.18994 0.0
C3004 C 0.08338 0.40092 0.20484 0.0
C3005 C 0.09413 0.41666 0.20753 0.0
C3006 C 0.10842 0.4208 0.19563 0.0
H3007 H 0.16208 0.3844 0.1832 0.0
H3008 H 0.14376 0.39314 0.19731 0.0
H3009 H 0.13866 0.37796 0.17875 0.0
H3010 H 0.10468 0.38447 0.16664 0.0
H3011 H 0.07924 0.37716 0.18753 0.0
H3012 H 0.80555 0.0203 0.13896 0.0
H3013 H 0.83374 0.03404 0.1507 0.0
H3014 H 0.8054 0.08518 0.15909 0.0
H3015 H 0.77746 0.07179 0.1465 0.0
H3016 H 0.83848 0.09148 0.14628 0.0
H3017 H 0.84375 0.04208 0.20361 0.0
H3018 H 0.84418 0.03107 0.18169 0.0
H3019 H 0.82395 0.04316 0.18896 0.0
C3020 C 0.80536 0.03447 0.1433 0.0
C3021 C 0.78928 0.04492 0.14201 0.0
C3022 C 0.82145 0.04229 0.15008 0.0
C3023 C 0.82158 0.06052 0.15621 0.0
C3024 C 0.80562 0.07108 0.15452 0.0
H3025 H 0.89839 0.1018 0.23474 0.0
H3026 H 0.87146 0.09219 0.21753 0.0
C3027 C 0.78964 0.06339 0.14738 0.0
C3028 C 0.83816 0.06852 0.16479 0.0
H3029 H 0.86876 0.06216 0.19944 0.0
C3030 C 0.84508 0.08512 0.15796 0.0
C3031 C 0.84663 0.06035 0.18018 0.0
C3032 C 0.83914 0.04329 0.18916 0.0
C3033 C 0.86016 0.09383 0.16615 0.0
C3034 C 0.86891 0.08536 0.18122 0.0
C3035 C 0.8621 0.06865 0.18786 0.0
C3036 C 0.88463 0.09375 0.191 0.0
C3037 C 0.8661 0.11225 0.15897 0.0
C3038 C 0.90089 0.09843 0.1818 0.0
C3039 C 0.9162 0.10447 0.19166 0.0
C3040 C 0.91558 0.10535 0.21084 0.0
C3041 C 0.8992 0.10115 0.21994 0.0
C3042 C 0.88384 0.09561 0.21012 0.0
H3043 H 0.85491 0.11915 0.15132 0.0
H3044 H 0.87061 0.12137 0.17025 0.0
H3045 H 0.87775 0.11034 0.1494 0.0
H3046 H 0.90201 0.09671 0.16713 0.0
H3047 H 0.92879 0.10743 0.1844 0.0
H3048 H 0.08181 0.62225 0.31322 0.0
H3049 H 0.10703 0.61385 0.33394 0.0
H3050 H 0.11602 0.56443 0.30297 0.0
H3051 H 0.09114 0.57259 0.28238 0.0
H3052 H 0.11394 0.56096 0.3437 0.0
H3053 H 0.16304 0.61345 0.31794 0.0
H3054 H 0.14023 0.62045 0.32418 0.0
H3055 H 0.14361 0.6062 0.30449 0.0
C3056 C 0.08918 0.6096 0.31088 0.0
C3057 C 0.08455 0.59814 0.29612 0.0
C3058 C 0.10355 0.60485 0.32268 0.0
C3059 C 0.11336 0.58857 0.31988 0.0
C3060 C 0.10858 0.57705 0.30533 0.0
H3061 H 0.20175 0.52124 0.35171 0.0
H3062 H 0.17286 0.53481 0.34183 0.0
C3063 C 0.09439 0.58179 0.29354 0.0
C3064 C 0.1289 0.58334 0.33171 0.0
H3065 H 0.17446 0.59122 0.33806 0.0
C3066 C 0.12713 0.56773 0.34274 0.0
C3067 C 0.14599 0.59228 0.33045 0.0
C3068 C 0.14852 0.609 0.31861 0.0
C3069 C 0.14223 0.56039 0.35205 0.0
C3070 C 0.1596 0.56866 0.34988 0.0
C3071 C 0.16115 0.58484 0.33962 0.0
C3072 C 0.17654 0.56004 0.35694 0.0
C3073 C 0.13948 0.54371 0.36391 0.0
C3074 C 0.18837 0.56984 0.36844 0.0
C3075 C 0.205 0.56218 0.37397 0.0
C3076 C 0.21016 0.5446 0.36801 0.0
C3077 C 0.19816 0.53474 0.35665 0.0
C3078 C 0.18157 0.54244 0.3511 0.0
H3079 H 0.12517 0.54285 0.36899 0.0
H3080 H 0.14222 0.53124 0.35569 0.0
H3081 H 0.1489 0.54378 0.37583 0.0
H3082 H 0.18481 0.5835 0.37299 0.0
H3083 H 0.21392 0.57017 0.38273 0.0
H3084 H 0.78626 0.92147 0.37581 0.0
H3085 H 0.81464 0.90708 0.36547 0.0
H3086 H 0.8331 0.95877 0.34379 0.0
H3087 H 0.80482 0.97335 0.35416 0.0
H3088 H 0.82661 0.90532 0.32921 0.0
H3089 H 0.87762 0.94037 0.37304 0.0
H3090 H 0.85344 0.94017 0.37825 0.0
H3091 H 0.8624 0.95587 0.36154 0.0
C3092 C 0.79642 0.92985 0.369 0.0
C3093 C 0.79326 0.94859 0.36581 0.0
C3094 C 0.81263 0.92158 0.36313 0.0
C3095 C 0.82606 0.93191 0.35413 0.0
C3096 C 0.82306 0.95064 0.35107 0.0
H3097 H 0.90563 0.91207 0.27445 0.0
H3098 H 0.87921 0.91864 0.29365 0.0
C3099 C 0.80682 0.95892 0.35688 0.0
C3100 C 0.8426 0.92291 0.34666 0.0
H3101 H 0.88926 0.92539 0.34612 0.0
C3102 C 0.84031 0.90947 0.33313 0.0
C3103 C 0.86045 0.92817 0.35198 0.0
C3104 C 0.86368 0.94181 0.36713 0.0
C3105 C 0.85542 0.90197 0.32398 0.0
C3106 C 0.87319 0.90815 0.32843 0.0
C3107 C 0.87557 0.92076 0.34271 0.0
C3108 C 0.88913 0.90335 0.31697 0.0
C3109 C 0.85226 0.8879 0.3092 0.0
C3110 C 0.90356 0.89267 0.32384 0.0
C3111 C 0.91876 0.88876 0.31279 0.0
C3112 C 0.9198 0.89577 0.29489 0.0
C3113 C 0.90529 0.90647 0.28818 0.0
C3114 C 0.89012 0.91019 0.29909 0.0
H3115 H 0.83871 0.88116 0.31069 0.0
H3116 H 0.85267 0.89474 0.29564 0.0
H3117 H 0.86312 0.87726 0.30944 0.0
H3118 H 0.90303 0.88739 0.33768 0.0
H3119 H 0.92978 0.88054 0.31834 0.0
H3120 H 0.13366 0.20043 0.48018 0.0
H3121 H 0.14483 0.17283 0.46486 0.0
H3122 H 0.1459 0.20174 0.41336 0.0
H3123 H 0.13384 0.22907 0.42844 0.0
H3124 H 0.13536 0.16738 0.40813 0.0
H3125 H 0.19751 0.16771 0.45161 0.0
H3126 H 0.17692 0.16559 0.46478 0.0
H3127 H 0.18118 0.18617 0.45188 0.0
C3128 C 0.13612 0.20083 0.46556 0.0
C3129 C 0.13311 0.21696 0.45555 0.0
C3130 C 0.1426 0.18509 0.45684 0.0
C3131 C 0.14673 0.18537 0.43806 0.0
C3132 C 0.14293 0.20122 0.42789 0.0
H3133 H 0.22711 0.11337 0.39137 0.0
H3134 H 0.20888 0.13964 0.401 0.0
C3135 C 0.13608 0.21685 0.43653 0.0
C3136 C 0.15588 0.16953 0.42919 0.0
H3137 H 0.19349 0.14209 0.43231 0.0
C3138 C 0.14811 0.16186 0.41335 0.0
C3139 C 0.1727 0.16256 0.43582 0.0
C3140 C 0.18267 0.17105 0.45183 0.0
C3141 C 0.15668 0.14738 0.40399 0.0
C3142 C 0.17318 0.14002 0.41101 0.0
C3143 C 0.18083 0.14766 0.42691 0.0
C3144 C 0.18325 0.12477 0.40206 0.0
C3145 C 0.14826 0.14054 0.38643 0.0
C3146 C 0.17483 0.10777 0.39873 0.0
C3147 C 0.18522 0.09283 0.39265 0.0
C3148 C 0.20421 0.0946 0.39038 0.0
C3149 C 0.21247 0.1117 0.39307 0.0
C3150 C 0.20207 0.12668 0.39863 0.0
H3151 H 0.13928 0.15105 0.38008 0.0
H3152 H 0.15892 0.13655 0.37636 0.0
H3153 H 0.13969 0.12836 0.38943 0.0
H3154 H 0.16045 0.10578 0.40168 0.0
H3155 H 0.17863 0.07967 0.39088 0.0
H3156 H 0.22876 0.89735 0.09838 0.0
H3157 H 0.20951 0.87191 0.08859 0.0
H3158 H 0.16127 0.90488 0.09722 0.0
H3159 H 0.18062 0.93026 0.10797 0.0
H3160 H 0.15503 0.86979 0.1066 0.0
H3161 H 0.18752 0.87153 0.0384 0.0
H3162 H 0.20436 0.86804 0.05588 0.0
H3163 H 0.19145 0.88908 0.0553 0.0
C3164 C 0.21403 0.8991 0.09841 0.0
C3165 C 0.20614 0.9158 0.10369 0.0
C3166 C 0.20305 0.88461 0.09269 0.0
C3167 C 0.184 0.88672 0.09154 0.0
C3168 C 0.17597 0.90305 0.09779 0.0
H3169 H 0.12948 0.80648 0.02195 0.0
H3170 H 0.13955 0.83555 0.03513 0.0
C3171 C 0.18699 0.9175 0.10394 0.0
C3172 C 0.17276 0.87203 0.08315 0.0
H3173 H 0.171 0.84416 0.04579 0.0
C3174 C 0.15833 0.86431 0.0932 0.0
C3175 C 0.17667 0.86525 0.06542 0.0
C3176 C 0.1907 0.87407 0.05306 0.0
C3177 C 0.14832 0.84936 0.08636 0.0
C3178 C 0.15335 0.84156 0.06932 0.0
C3179 C 0.16723 0.84988 0.05896 0.0
C3180 C 0.14502 0.82444 0.06209 0.0
C3181 C 0.13239 0.84228 0.09744 0.0
C3182 C 0.1445 0.80851 0.07285 0.0
C3183 C 0.13831 0.79199 0.06544 0.0
C3184 C 0.13311 0.79097 0.04696 0.0
C3185 C 0.13353 0.80688 0.03621 0.0
C3186 C 0.13925 0.82349 0.04375 0.0
H3187 H 0.12617 0.85337 0.10578 0.0
H3188 H 0.12162 0.83627 0.08856 0.0
H3189 H 0.13734 0.83159 0.10703 0.0
H3190 H 0.14947 0.80864 0.08681 0.0
H3191 H 0.1383 0.77987 0.07398 0.0
H3192 H 0.87598 0.71294 0.06962 0.0
H3193 H 0.86627 0.68329 0.08163 0.0
H3194 H 0.83855 0.67171 0.03081 0.0
H3195 H 0.84846 0.7012 0.01853 0.0
H3196 H 0.83142 0.67132 0.08691 0.0
H3197 H 0.86744 0.62499 0.03903 0.0
H3198 H 0.87307 0.64896 0.04106 0.0
H3199 H 0.85391 0.64179 0.02732 0.0
C3200 C 0.86794 0.70403 0.06091 0.0
C3201 C 0.86303 0.70943 0.04308 0.0
C3202 C 0.86243 0.68708 0.06781 0.0
C3203 C 0.85196 0.67517 0.05701 0.0
C3204 C 0.84702 0.6805 0.03921 0.0
H3205 H 0.78305 0.58376 0.06553 0.0
H3206 H 0.80227 0.60987 0.05777 0.0
C3207 C 0.85258 0.69743 0.03226 0.0
C3208 C 0.84522 0.65768 0.06471 0.0
H3209 H 0.84249 0.61186 0.05607 0.0
C3210 C 0.8341 0.65826 0.08038 0.0
C3211 C 0.84887 0.64066 0.05624 0.0
C3212 C 0.86163 0.639 0.0401 0.0
C3213 C 0.82566 0.6424 0.08717 0.0
C3214 C 0.82856 0.62557 0.07812 0.0
C3215 C 0.8403 0.62483 0.06294 0.0
C3216 C 0.8179 0.60906 0.08288 0.0
C3217 C 0.81292 0.64389 0.10337 0.0
C3218 C 0.82054 0.59982 0.09952 0.0
C3219 C 0.80955 0.58476 0.10404 0.0
C3220 C 0.79575 0.57887 0.09198 0.0
C3221 C 0.79347 0.58801 0.07519 0.0
C3222 C 0.80448 0.60289 0.07067 0.0
H3223 H 0.81054 0.65832 0.10752 0.0
H3224 H 0.79953 0.63746 0.10014 0.0
H3225 H 0.8189 0.63644 0.11518 0.0
H3226 H 0.83097 0.60434 0.10904 0.0
H3227 H 0.81163 0.57796 0.11704 0.0
H3228 H 0.27836 0.9092 0.92019 0.0
H3229 H 0.29593 0.88148 0.92564 0.0
H3230 H 0.32808 0.89195 0.87725 0.0
H3231 H 0.31052 0.92015 0.8717 0.0
H3232 H 0.29874 0.85146 0.90122 0.0
H3233 H 0.3666 0.88203 0.91811 0.0
H3234 H 0.34574 0.89529 0.91862 0.0
H3235 H 0.35575 0.889 0.8971 0.0
C3236 C 0.28921 0.90574 0.91069 0.0
C3237 C 0.29303 0.91688 0.89548 0.0
C3238 C 0.29923 0.88986 0.91384 0.0
C3239 C 0.31333 0.88473 0.90191 0.0
C3240 C 0.31737 0.89583 0.88674 0.0
H3241 H 0.37608 0.78291 0.91778 0.0
H3242 H 0.3645 0.81106 0.90364 0.0
C3243 C 0.3073 0.91186 0.88356 0.0
C3244 C 0.32318 0.8674 0.90541 0.0
H3245 H 0.36358 0.85013 0.92141 0.0
C3246 C 0.313 0.85112 0.90537 0.0
C3247 C 0.34178 0.86704 0.91077 0.0
C3248 C 0.35318 0.88424 0.9113 0.0
C3249 C 0.3207 0.8346 0.9113 0.0
C3250 C 0.33898 0.83442 0.91752 0.0
C3251 C 0.34951 0.85044 0.91667 0.0
C3252 C 0.34678 0.81799 0.92629 0.0
C3253 C 0.30909 0.81752 0.91143 0.0
C3254 C 0.3408 0.81285 0.94378 0.0
C3255 C 0.3474 0.79689 0.95193 0.0
C3256 C 0.36006 0.78573 0.94267 0.0
C3257 C 0.36628 0.79115 0.92524 0.0
C3258 C 0.35974 0.80722 0.91715 0.0
H3259 H 0.29664 0.81907 0.90283 0.0
H3260 H 0.31707 0.80559 0.90643 0.0
H3261 H 0.3047 0.81456 0.92567 0.0
H3262 H 0.33085 0.82111 0.95104 0.0
H3263 H 0.34234 0.79315 0.96536 0.0
H3264 H 0.01912 0.55781 0.27482 0.0
H3265 H 0.00443 0.52832 0.27087 0.0
H3266 H 0.95765 0.55453 0.24614 0.0
H3267 H 0.97265 0.58445 0.24965 0.0
H3268 H 0.97181 0.51233 0.28121 0.0
H3269 H 0.97575 0.52095 0.20541 0.0
H3270 H 0.98706 0.53668 0.22068 0.0
H3271 H 0.96259 0.53713 0.21848 0.0
C3272 C 0.0056 0.55743 0.26874 0.0
C3273 C 0.99722 0.57346 0.26223 0.0
C3274 C 0.99714 0.54051 0.2666 0.0
C3275 C 0.98007 0.53916 0.25792 0.0
C3276 C 0.97098 0.55524 0.25257 0.0
H3277 H 0.97106 0.41913 0.24798 0.0
H3278 H 0.95654 0.44936 0.25079 0.0
C3279 C 0.97951 0.57232 0.25469 0.0
C3280 C 0.97331 0.52066 0.25302 0.0
H3281 H 0.9737 0.49125 0.21675 0.0
C3282 C 0.97159 0.50769 0.2671 0.0
C3283 C 0.9729 0.51474 0.23458 0.0
C3284 C 0.97472 0.528 0.21884 0.0
C3285 C 0.97177 0.48885 0.26335 0.0
C3286 C 0.97327 0.48291 0.24496 0.0
C3287 C 0.97266 0.4959 0.23081 0.0
C3288 C 0.97998 0.46428 0.24049 0.0
C3289 C 0.97236 0.47556 0.27916 0.0
C3290 C 0.99752 0.46259 0.23288 0.0
C3291 C 0.00572 0.4455 0.23113 0.0
C3292 C 0.99658 0.42962 0.23698 0.0
C3293 C 0.9785 0.43114 0.24347 0.0
C3294 C 0.97023 0.44839 0.24519 0.0
H3295 H 0.97267 0.4826 0.29263 0.0
H3296 H 0.96008 0.46665 0.27875 0.0
H3297 H 0.98464 0.46666 0.2781 0.0
H3298 H 0.00531 0.47464 0.22912 0.0
H3299 H 0.01956 0.44485 0.22586 0.0
H3300 H 0.03099 0.91957 0.24946 0.0
H3301 H 0.0435 0.95063 0.24659 0.0
H3302 H 0.9959 0.97223 0.27405 0.0
H3303 H 0.98349 0.94153 0.27708 0.0
H3304 H 0.02653 0.97733 0.22687 0.0
H3305 H 0.03621 0.00215 0.29732 0.0
H3306 H 0.03457 0.97806 0.29194 0.0
H3307 H 0.01418 0.99158 0.29527 0.0
C3308 C 0.02346 0.93092 0.25532 0.0
C3309 C 0.0062 0.92813 0.2634 0.0
C3310 C 0.03062 0.94863 0.25366 0.0
C3311 C 0.02077 0.96373 0.26034 0.0
C3312 C 0.00398 0.96079 0.2692 0.0
H3313 H 0.98101 0.05971 0.22571 0.0
H3314 H 0.99437 0.02939 0.22862 0.0
C3315 C 0.99679 0.94321 0.27074 0.0
C3316 C 0.0263 0.98272 0.2559 0.0
H3317 H 0.02635 0.02533 0.27487 0.0
C3318 C 0.02712 0.9878 0.23738 0.0
C3319 C 0.02752 0.99639 0.26954 0.0
C3320 C 0.02828 0.9917 0.28962 0.0
C3321 C 0.02693 0.00628 0.23219 0.0
C3322 C 0.0256 0.01991 0.24586 0.0
C3323 C 0.02701 0.01487 0.26435 0.0
C3324 C 0.01937 0.03871 0.24153 0.0
C3325 C 0.02705 0.01099 0.21209 0.0
C3326 C 0.02898 0.05413 0.24782 0.0
C3327 C 0.02128 0.07162 0.2462 0.0
C3328 C 0.00373 0.07386 0.23859 0.0
C3329 C 0.99453 0.05846 0.23168 0.0
C3330 C 0.00225 0.04109 0.23316 0.0
H3331 H 0.03505 0.00075 0.20418 0.0
H3332 H 0.01281 0.01075 0.20681 0.0
H3333 H 0.0329 0.0248 0.20963 0.0
H3334 H 0.04211 0.05255 0.25451 0.0
H3335 H 0.02866 0.08323 0.25173 0.0
H3336 H 0.24799 0.97964 0.57919 0.0
H3337 H 0.24381 0.96767 0.54804 0.0
H3338 H 0.27138 0.01508 0.52621 0.0
H3339 H 0.2756 0.02701 0.557 0.0
H3340 H 0.22348 0.9862 0.52213 0.0
H3341 H 0.29288 0.97419 0.4952 0.0
H3342 H 0.28811 0.97538 0.51946 0.0
H3343 H 0.29178 0.99599 0.50641 0.0
C3344 C 0.25359 0.98723 0.56775 0.0
C3345 C 0.26202 0.00432 0.5705 0.0
C3346 C 0.25118 0.98038 0.55 0.0
C3347 C 0.25751 0.99036 0.53483 0.0
C3348 C 0.26676 0.00693 0.5377 0.0
H3349 H 0.22224 0.03195 0.43948 0.0
H3350 H 0.2255 0.01872 0.46985 0.0
C3351 C 0.269 0.01384 0.55533 0.0
C3352 C 0.25232 0.98523 0.51593 0.0
H3353 H 0.27011 0.98476 0.4728 0.0
C3354 C 0.23366 0.98526 0.51136 0.0
C3355 C 0.26553 0.98361 0.50188 0.0
C3356 C 0.28568 0.98208 0.50604 0.0
C3357 C 0.22798 0.98584 0.49302 0.0
C3358 C 0.24132 0.98665 0.47903 0.0
C3359 C 0.25987 0.98446 0.48355 0.0
C3360 C 0.23673 0.993 0.46034 0.0
C3361 C 0.20779 0.98668 0.48886 0.0
C3362 C 0.24195 0.98293 0.44482 0.0
C3363 C 0.24011 0.99053 0.42731 0.0
C3364 C 0.23336 0.00844 0.42514 0.0
C3365 C 0.22753 0.01815 0.44067 0.0
C3366 C 0.22921 0.01052 0.45807 0.0
H3367 H 0.19975 0.97919 0.49938 0.0
H3368 H 0.20324 0.00117 0.48905 0.0
H3369 H 0.20468 0.98081 0.47518 0.0
H3370 H 0.24798 0.96947 0.44631 0.0
H3371 H 0.2448 0.98274 0.4156 0.0
H3372 H 0.71717 0.49214 0.56358 0.0
H3373 H 0.72273 0.5005 0.53168 0.0
H3374 H 0.76742 0.53524 0.54839 0.0
H3375 H 0.7615 0.52738 0.58053 0.0
H3376 H 0.74748 0.54761 0.51557 0.0
H3377 H 0.7701 0.4752 0.51307 0.0
H3378 H 0.74693 0.47786 0.52079 0.0
H3379 H 0.76544 0.4869 0.5343 0.0
C3380 C 0.72777 0.50206 0.5605 0.0
C3381 C 0.73908 0.50893 0.57443 0.0
C3382 C 0.73094 0.50681 0.5423 0.0
C3383 C 0.74575 0.51813 0.53771 0.0
C3384 C 0.75596 0.52642 0.5517 0.0
H3385 H 0.7934 0.49374 0.43266 0.0
H3386 H 0.79188 0.50413 0.46442 0.0
C3387 C 0.75256 0.52193 0.57003 0.0
C3388 C 0.75223 0.51869 0.51855 0.0
H3389 H 0.76723 0.49049 0.48466 0.0
C3390 C 0.75199 0.53521 0.50877 0.0
C3391 C 0.75861 0.50258 0.50993 0.0
C3392 C 0.76049 0.48467 0.5201 0.0
C3393 C 0.75719 0.53583 0.49021 0.0
C3394 C 0.7624 0.51942 0.48128 0.0
C3395 C 0.76326 0.50311 0.4914 0.0
C3396 C 0.76595 0.51817 0.46129 0.0
C3397 C 0.75712 0.55402 0.48046 0.0
C3398 C 0.75245 0.52353 0.44866 0.0
C3399 C 0.75363 0.51805 0.43035 0.0
C3400 C 0.76802 0.5067 0.42458 0.0
C3401 C 0.78216 0.50246 0.43685 0.0
C3402 C 0.78126 0.50838 0.45498 0.0
H3403 H 0.75965 0.56544 0.49018 0.0
H3404 H 0.76761 0.55451 0.46948 0.0
H3405 H 0.74346 0.55626 0.47421 0.0
H3406 H 0.74028 0.53066 0.45318 0.0
H3407 H 0.74245 0.52129 0.42115 0.0
H3408 H 0.2787 0.98325 0.94002 0.0
H3409 H 0.27468 0.99602 0.97045 0.0
H3410 H 0.24816 0.04346 0.94738 0.0
H3411 H 0.2518 0.03046 0.91657 0.0
H3412 H 0.28349 0.02819 0.98878 0.0
H3413 H 0.20809 0.02068 0.97915 0.0
H3414 H 0.22413 0.01119 0.96299 0.0
H3415 H 0.22041 0.03546 0.96381 0.0
C3416 C 0.27228 0.99656 0.94131 0.0
C3417 C 0.26524 0.00567 0.92591 0.0
C3418 C 0.27008 0.0039 0.95875 0.0
C3419 C 0.2608 0.02052 0.96122 0.0
C3420 C 0.25507 0.03045 0.94578 0.0
H3421 H 0.24703 0.02812 0.08145 0.0
H3422 H 0.25066 0.04189 0.05097 0.0
C3423 C 0.25727 0.02306 0.9282 0.0
C3424 C 0.25548 0.02581 0.98007 0.0
H3425 H 0.21897 0.02259 0.00904 0.0
C3426 C 0.26934 0.02759 0.99325 0.0
C3427 C 0.23698 0.02501 0.9858 0.0
C3428 C 0.22148 0.02291 0.97229 0.0
C3429 C 0.26539 0.02667 0.01204 0.0
C3430 C 0.24703 0.02425 0.01771 0.0
C3431 C 0.23301 0.02442 0.00458 0.0
C3432 C 0.24259 0.01747 0.03629 0.0
C3433 C 0.281 0.02651 0.02556 0.0
C3434 C 0.23615 0.99948 0.03811 0.0
C3435 C 0.234 0.99166 0.05534 0.0
C3436 C 0.23823 0.00166 0.07122 0.0
C3437 C 0.24374 0.02004 0.06947 0.0
C3438 C 0.24592 0.0279 0.05209 0.0
H3439 H 0.29458 0.02699 0.01872 0.0
H3440 H 0.27987 0.03854 0.03475 0.0
H3441 H 0.28036 0.014 0.03417 0.0
H3442 H 0.23348 0.99119 0.0261 0.0
H3443 H 0.22957 0.97754 0.05616 0.0
H3444 H 0.77516 0.51091 0.05348 0.0
H3445 H 0.77029 0.4956 0.02444 0.0
H3446 H 0.74373 0.45072 0.05216 0.0
H3447 H 0.74818 0.46638 0.08161 0.0
H3448 H 0.77837 0.46221 0.00873 0.0
H3449 H 0.70316 0.47032 0.01942 0.0
H3450 H 0.71937 0.48102 0.03461 0.0
H3451 H 0.71605 0.45668 0.03533 0.0
C3452 C 0.76852 0.49765 0.05353 0.0
C3453 C 0.7617 0.49005 0.06982 0.0
C3454 C 0.76585 0.48882 0.03687 0.0
C3455 C 0.75634 0.47217 0.03607 0.0
C3456 C 0.7508 0.46374 0.05245 0.0
H3457 H 0.74208 0.46611 0.91644 0.0
H3458 H 0.74489 0.45038 0.94607 0.0
C3459 C 0.75345 0.47265 0.06925 0.0
C3460 C 0.75057 0.4654 0.01783 0.0
H3461 H 0.71363 0.46832 0.98942 0.0
C3462 C 0.76416 0.46286 0.00448 0.0
C3463 C 0.73198 0.46608 0.01241 0.0
C3464 C 0.71672 0.46871 0.0261 0.0
C3465 C 0.75993 0.46349 0.98574 0.0
C3466 C 0.74154 0.46631 0.98034 0.0
C3467 C 0.72772 0.4663 0.99368 0.0
C3468 C 0.7371 0.47403 0.96212 0.0
C3469 C 0.77536 0.46324 0.97201 0.0
C3470 C 0.73098 0.4922 0.9613 0.0
C3471 C 0.72927 0.50111 0.94457 0.0
C3472 C 0.73367 0.49206 0.92818 0.0
C3473 C 0.73871 0.47347 0.92886 0.0
C3474 C 0.74041 0.4645 0.94575 0.0
H3475 H 0.78899 0.4621 0.97865 0.0
H3476 H 0.77363 0.45142 0.96264 0.0
H3477 H 0.77512 0.47592 0.96363 0.0
H3478 H 0.72833 0.49984 0.97375 0.0
H3479 H 0.72514 0.51535 0.94457 0.0
H3480 H 0.44015 0.22471 0.03091 0.0
H3481 H 0.47018 0.22929 0.01728 0.0
H3482 H 0.44503 0.24878 0.96756 0.0
H3483 H 0.41462 0.24434 0.98124 0.0
H3484 H 0.48695 0.21646 0.98388 0.0
H3485 H 0.4771 0.29215 0.98628 0.0
H3486 H 0.46219 0.27686 0.99867 0.0
H3487 H 0.46066 0.27832 0.97421 0.0
C3488 C 0.44092 0.22975 0.01699 0.0
C3489 C 0.425 0.23439 0.00725 0.0
C3490 C 0.45812 0.23228 0.00918 0.0
C3491 C 0.4598 0.23956 0.99151 0.0
C3492 C 0.44397 0.24331 0.9813 0.0
H3493 H 0.57873 0.25307 0.9729 0.0
H3494 H 0.54706 0.24925 0.9622 0.0
C3495 C 0.42665 0.24069 0.98911 0.0
C3496 C 0.47827 0.24455 0.9849 0.0
H3497 H 0.50706 0.28128 0.98354 0.0
C3498 C 0.49136 0.23062 0.98316 0.0
C3499 C 0.48385 0.26307 0.98403 0.0
C3500 C 0.47031 0.27855 0.98593 0.0
C3501 C 0.51011 0.23468 0.98227 0.0
C3502 C 0.51578 0.25318 0.98296 0.0
C3503 C 0.5026 0.26714 0.98298 0.0
C3504 C 0.53485 0.25803 0.98772 0.0
C3505 C 0.52374 0.21917 0.98235 0.0
C3506 C 0.53836 0.2649 0.00528 0.0
C3507 C 0.55628 0.26707 0.01139 0.0
C3508 C 0.57109 0.26248 2e-05 0.0
C3509 C 0.56759 0.25666 0.98199 0.0
C3510 C 0.54954 0.2544 0.97588 0.0
H3511 H 0.51701 0.20556 0.98314 0.0
H3512 H 0.53206 0.21965 0.96965 0.0
H3513 H 0.53321 0.22058 0.99416 0.0
H3514 H 0.5272 0.26779 0.01462 0.0
H3515 H 0.55849 0.27177 0.02528 0.0
H3516 H 0.57729 0.74426 0.5303 0.0
H3517 H 0.54632 0.74732 0.54294 0.0
H3518 H 0.52373 0.72709 0.49228 0.0
H3519 H 0.55436 0.72385 0.4797 0.0
H3520 H 0.52075 0.77027 0.52875 0.0
H3521 H 0.49245 0.70051 0.52932 0.0
H3522 H 0.51679 0.70485 0.52832 0.0
H3523 H 0.5032 0.7048 0.5077 0.0
C3524 C 0.56572 0.74002 0.52205 0.0
C3525 C 0.56826 0.73391 0.50395 0.0
C3526 C 0.54806 0.74179 0.5293 0.0
C3527 C 0.53273 0.73718 0.51867 0.0
C3528 C 0.53535 0.7303 0.50093 0.0
H3529 H 0.43966 0.78083 0.48267 0.0
H3530 H 0.46935 0.77564 0.4967 0.0
C3531 C 0.5529 0.72863 0.49366 0.0
C3532 C 0.51394 0.74183 0.52472 0.0
H3533 H 0.47047 0.72514 0.52229 0.0
C3534 C 0.50977 0.76031 0.52796 0.0
C3535 C 0.49961 0.72884 0.5242 0.0
C3536 C 0.5033 0.70861 0.5224 0.0
C3537 C 0.49157 0.76639 0.52845 0.0
C3538 C 0.47729 0.7537 0.52531 0.0
C3539 C 0.48142 0.73496 0.52435 0.0
C3540 C 0.45884 0.7597 0.51938 0.0
C3541 C 0.48785 0.78649 0.53122 0.0
C3542 C 0.44293 0.7526 0.52753 0.0
C3543 C 0.42579 0.75554 0.51942 0.0
C3544 C 0.42443 0.76531 0.50289 0.0
C3545 C 0.44026 0.7732 0.49537 0.0
C3546 C 0.45727 0.7704 0.50351 0.0
H3547 H 0.49822 0.79266 0.54048 0.0
H3548 H 0.48883 0.79365 0.51785 0.0
H3549 H 0.47401 0.78888 0.53703 0.0
H3550 H 0.44388 0.74414 0.53967 0.0
H3551 H 0.41383 0.74922 0.52547 0.0
H3552 H 0.0528 0.77707 0.52532 0.0
H3553 H 0.02326 0.77201 0.51099 0.0
H3554 H 0.04994 0.7529 0.46189 0.0
H3555 H 0.0799 0.75757 0.47643 0.0
H3556 H 0.00605 0.78389 0.47928 0.0
H3557 H 0.01937 0.70872 0.47759 0.0
H3558 H 0.03422 0.72412 0.48989 0.0
H3559 H 0.03462 0.72365 0.46532 0.0
C3560 C 0.05249 0.772 0.51138 0.0
C3561 C 0.06872 0.76742 0.50214 0.0
C3562 C 0.03554 0.76921 0.50315 0.0
C3563 C 0.03437 0.76179 0.48548 0.0
C3564 C 0.05054 0.75834 0.47567 0.0
H3565 H 0.9152 0.74606 0.47423 0.0
H3566 H 0.94548 0.75113 0.46049 0.0
C3567 C 0.06763 0.76112 0.48395 0.0
C3568 C 0.0161 0.75625 0.47861 0.0
H3569 H 0.98901 0.71831 0.47595 0.0
C3570 C 0.0023 0.76959 0.47794 0.0
C3571 C 0.01134 0.73756 0.47678 0.0
C3572 C 0.02558 0.7226 0.47747 0.0
C3573 C 0.98373 0.76468 0.47763 0.0
C3574 C 0.97892 0.74591 0.47755 0.0
C3575 C 0.99277 0.73267 0.47606 0.0
C3576 C 0.96047 0.7398 0.4834 0.0
C3577 C 0.96948 0.77956 0.47932 0.0
C3578 C 0.95886 0.73078 0.50027 0.0
C3579 C 0.94173 0.72774 0.50801 0.0
C3580 C 0.92576 0.73369 0.49908 0.0
C3581 C 0.92726 0.74144 0.4815 0.0
C3582 C 0.94454 0.74446 0.47369 0.0
H3583 H 0.97569 0.79334 0.48096 0.0
H3584 H 0.96084 0.77973 0.46684 0.0
H3585 H 0.96045 0.77689 0.49125 0.0
H3586 H 0.97094 0.727 0.50799 0.0
H3587 H 0.94108 0.72152 0.52146 0.0
H3588 H 0.02501 0.41706 0.75219 0.0
H3589 H 0.03411 0.44867 0.75906 0.0
H3590 H 0.9896 0.46867 0.72584 0.0
H3591 H 0.98013 0.43728 0.71941 0.0
H3592 H 0.04233 0.48192 0.73931 0.0
H3593 H 0.97739 0.48564 0.77822 0.0
H3594 H 0.9866 0.46433 0.76981 0.0
H3595 H 0.97391 0.47918 0.75478 0.0
C3596 C 0.01746 0.42822 0.74601 0.0
C3597 C 0.00166 0.42477 0.73555 0.0
C3598 C 0.02267 0.44624 0.74994 0.0
C3599 C 0.01226 0.46093 0.74329 0.0
C3600 C 0.99758 0.45747 0.7314 0.0
H3601 H 0.01786 0.57606 0.73892 0.0
H3602 H 0.02662 0.54396 0.73607 0.0
C3603 C 0.99219 0.43955 0.72772 0.0
C3604 C 0.0151 0.47967 0.75037 0.0
H3605 H 0.99213 0.51396 0.7719 0.0
C3606 C 0.03151 0.48894 0.74666 0.0
C3607 C 0.00121 0.48855 0.76048 0.0
C3608 C 0.98387 0.47885 0.76624 0.0
C3609 C 0.03391 0.50733 0.75189 0.0
C3610 C 0.01934 0.51667 0.76065 0.0
C3611 C 0.00336 0.50696 0.76516 0.0
C3612 C 0.01927 0.53675 0.76391 0.0
C3613 C 0.05197 0.51648 0.74793 0.0
C3614 C 0.01267 0.54366 0.78063 0.0
C3615 C 0.00699 0.56184 0.78199 0.0
C3616 C 0.00844 0.57356 0.76688 0.0
C3617 C 0.01691 0.56729 0.75084 0.0
C3618 C 0.02204 0.54892 0.74925 0.0
H3619 H 0.06337 0.50643 0.74843 0.0
H3620 H 0.05165 0.5223 0.73391 0.0
H3621 H 0.05489 0.52767 0.7578 0.0
H3622 H 0.01046 0.5346 0.79216 0.0
H3623 H 0.0004 0.56643 0.79446 0.0
H3624 H 0.96903 0.0819 0.75909 0.0
H3625 H 0.95815 0.05088 0.76595 0.0
H3626 H 0.99034 0.0297 0.72127 0.0
H3627 H 0.00157 0.06047 0.71463 0.0
H3628 H 0.9441 0.01578 0.74405 0.0
H3629 H 0.01437 0.01496 0.77321 0.0
H3630 H 0.00253 0.03593 0.76773 0.0
H3631 H 0.0129 0.02257 0.74986 0.0
C3632 C 0.97315 0.07073 0.75025 0.0
C3633 C 0.98637 0.07347 0.73652 0.0
C3634 C 0.96691 0.05304 0.75418 0.0
C3635 C 0.97363 0.03807 0.74421 0.0
C3636 C 0.98505 0.04113 0.7291 0.0
H3637 H 0.97345 0.92247 0.74349 0.0
H3638 H 0.9627 0.95398 0.74042 0.0
C3639 C 0.9915 0.05869 0.72537 0.0
C3640 C 0.9723 0.01939 0.75179 0.0
H3641 H 0.9992 0.98659 0.77093 0.0
C3642 C 0.95601 0.00936 0.75017 0.0
C3643 C 0.98774 0.01129 0.76014 0.0
C3644 C 0.00535 0.02175 0.76302 0.0
C3645 C 0.95508 0.991 0.75598 0.0
C3646 C 0.97097 0.98253 0.76322 0.0
C3647 C 0.98695 0.99297 0.76548 0.0
C3648 C 0.97229 0.96262 0.76714 0.0
C3649 C 0.93717 0.98092 0.75427 0.0
C3650 C 0.98079 0.95671 0.78337 0.0
C3651 C 0.98754 0.93891 0.78481 0.0
C3652 C 0.98536 0.92654 0.7703 0.0
C3653 C 0.97506 0.93175 0.75495 0.0
C3654 C 0.96879 0.94976 0.75325 0.0
H3655 H 0.9254 0.99047 0.7555 0.0
H3656 H 0.93639 0.97445 0.74055 0.0
H3657 H 0.93581 0.97008 0.76484 0.0
H3658 H 0.9836 0.96632 0.79431 0.0
H3659 H 0.99546 0.93515 0.79677 0.0
H3660 H 0.72763 0.98107 0.44383 0.0
H3661 H 0.7308 0.99588 0.47339 0.0
H3662 H 0.75641 0.04246 0.44768 0.0
H3663 H 0.75346 0.02746 0.41772 0.0
H3664 H 0.77683 0.02925 0.47537 0.0
H3665 H 0.70649 0.03701 0.50062 0.0
H3666 H 0.70914 0.01431 0.49177 0.0
H3667 H 0.71151 0.03368 0.47662 0.0
C3668 C 0.73362 0.99462 0.44433 0.0
C3669 C 0.7404 0.00303 0.42843 0.0
C3670 C 0.73523 0.0032 0.46128 0.0
C3671 C 0.74355 0.02045 0.46275 0.0
C3672 C 0.74974 0.02925 0.44682 0.0
H3673 H 0.75078 0.02954 0.58146 0.0
H3674 H 0.74807 0.04394 0.5512 0.0
C3675 C 0.74804 0.02067 0.42973 0.0
C3676 C 0.74794 0.0276 0.48123 0.0
H3677 H 0.72954 0.02848 0.52406 0.0
C3678 C 0.76644 0.02974 0.48596 0.0
C3679 C 0.73445 0.02888 0.49505 0.0
C3680 C 0.71428 0.02856 0.49066 0.0
C3681 C 0.77188 0.03064 0.50436 0.0
C3682 C 0.7585 0.02893 0.51826 0.0
C3683 C 0.7399 0.02934 0.51345 0.0
C3684 C 0.76335 0.02288 0.53703 0.0
C3685 C 0.79199 0.03221 0.50871 0.0
C3686 C 0.77314 0.00649 0.53919 0.0
C3687 C 0.77464 0.99827 0.55631 0.0
C3688 C 0.76627 0.00617 0.57171 0.0
C3689 C 0.75743 0.02317 0.56984 0.0
C3690 C 0.75585 0.0314 0.55257 0.0
H3691 H 0.79898 0.04105 0.4985 0.0
H3692 H 0.79431 0.03793 0.5226 0.0
H3693 H 0.79838 0.01845 0.50794 0.0
H3694 H 0.77862 0.99935 0.52741 0.0
H3695 H 0.78159 0.98521 0.55729 0.0
H3696 H 0.25578 0.46716 0.4167 0.0
H3697 H 0.25152 0.45245 0.44664 0.0
H3698 H 0.27365 0.50034 0.47317 0.0
H3699 H 0.27839 0.51476 0.44364 0.0
H3700 H 0.28359 0.46847 0.49062 0.0
H3701 H 0.20843 0.47021 0.47708 0.0
H3702 H 0.2228 0.45693 0.46216 0.0
H3703 H 0.22439 0.48145 0.46201 0.0
C3704 C 0.26016 0.47432 0.42892 0.0
C3705 C 0.26709 0.49227 0.42783 0.0
C3706 C 0.2576 0.46595 0.44601 0.0
C3707 C 0.26188 0.47547 0.46215 0.0
C3708 C 0.27017 0.49274 0.46092 0.0
H3709 H 0.22332 0.51702 0.55278 0.0
H3710 H 0.22848 0.50177 0.52373 0.0
C3711 C 0.27277 0.50104 0.44397 0.0
C3712 C 0.25598 0.46901 0.48046 0.0
H3713 H 0.21787 0.46928 0.50746 0.0
C3714 C 0.26922 0.468 0.49435 0.0
C3715 C 0.2372 0.46827 0.4852 0.0
C3716 C 0.2223 0.46932 0.47092 0.0
C3717 C 0.26425 0.46863 0.5129 0.0
C3718 C 0.24549 0.46983 0.51759 0.0
C3719 C 0.23223 0.46846 0.50376 0.0
C3720 C 0.23967 0.47704 0.53564 0.0
C3721 C 0.27914 0.47001 0.52716 0.0
C3722 C 0.24357 0.46792 0.55211 0.0
C3723 C 0.24074 0.47676 0.56892 0.0
C3724 C 0.23393 0.49479 0.56941 0.0
C3725 C 0.2288 0.50324 0.55292 0.0
C3726 C 0.23165 0.49447 0.53625 0.0
H3727 H 0.29304 0.4704 0.52099 0.0
H3728 H 0.27725 0.48254 0.53555 0.0
H3729 H 0.27842 0.45801 0.53643 0.0
H3730 H 0.24945 0.45432 0.55195 0.0
H3731 H 0.24471 0.46983 0.58141 0.0
H3732 H 0.75317 0.96715 0.91886 0.0
H3733 H 0.75065 0.95479 0.95006 0.0
H3734 H 0.76741 0.00695 0.97201 0.0
H3735 H 0.7701 0.01927 0.94121 0.0
H3736 H 0.78322 0.97562 0.98988 0.0
H3737 H 0.70726 0.97173 0.98292 0.0
H3738 H 0.72142 0.95984 0.96663 0.0
H3739 H 0.72098 0.98439 0.96676 0.0
C3740 C 0.7566 0.97586 0.93035 0.0
C3741 C 0.76161 0.99426 0.92759 0.0
C3742 C 0.75509 0.9688 0.94813 0.0
C3743 C 0.75865 0.98004 0.9633 0.0
C3744 C 0.7646 0.99806 0.96048 0.0
H3745 H 0.72728 0.01785 0.06025 0.0
H3746 H 0.73115 0.00516 0.02974 0.0
C3747 C 0.76603 0.00511 0.94284 0.0
C3748 C 0.75484 0.97405 0.98226 0.0
H3749 H 0.71935 0.97181 0.01253 0.0
C3750 C 0.76932 0.97414 0.99487 0.0
C3751 C 0.73665 0.97214 0.98863 0.0
C3752 C 0.7206 0.97205 0.97563 0.0
C3753 C 0.76599 0.97415 0.01379 0.0
C3754 C 0.74771 0.97388 0.02015 0.0
C3755 C 0.73334 0.97198 0.00755 0.0
C3756 C 0.74317 0.97972 0.039 0.0
C3757 C 0.78193 0.97625 0.02677 0.0
C3758 C 0.74816 0.96937 0.0544 0.0
C3759 C 0.74596 0.97665 0.07202 0.0
C3760 C 0.73885 0.99441 0.07438 0.0
C3761 C 0.73298 0.00423 0.05892 0.0
C3762 C 0.73509 0.99695 0.04145 0.0
H3763 H 0.79521 0.97745 0.01947 0.0
H3764 H 0.78003 0.9886 0.03543 0.0
H3765 H 0.78261 0.96419 0.03598 0.0
H3766 H 0.75426 0.95596 0.05276 0.0
H3767 H 0.75055 0.96874 0.08369 0.0
H3768 H 0.20634 0.48989 0.93371 0.0
H3769 H 0.20887 0.50033 0.96537 0.0
H3770 H 0.25741 0.53096 0.95133 0.0
H3771 H 0.25417 0.52142 0.9194 0.0
H3772 H 0.23608 0.48872 0.98397 0.0
H3773 H 0.23686 0.56414 0.98948 0.0
H3774 H 0.22868 0.55247 0.96928 0.0
H3775 H 0.25283 0.55624 0.9726 0.0
C3776 C 0.21709 0.49946 0.93728 0.0
C3777 C 0.23011 0.50482 0.92424 0.0
C3778 C 0.21855 0.50542 0.95535 0.0
C3779 C 0.23336 0.51643 0.96082 0.0
C3780 C 0.24564 0.52284 0.94747 0.0
H3781 H 0.28629 0.49441 0.06229 0.0
H3782 H 0.28056 0.50327 0.03054 0.0
C3783 C 0.24386 0.51728 0.92922 0.0
C3784 C 0.23786 0.518 0.98058 0.0
H3785 H 0.25101 0.54751 0.01448 0.0
C3786 C 0.23903 0.50166 0.99063 0.0
C3787 C 0.24179 0.53483 0.98937 0.0
C3788 C 0.23979 0.55292 0.97965 0.0
C3789 C 0.24429 0.50159 0.009 0.0
C3790 C 0.24922 0.51826 0.01751 0.0
C3791 C 0.2476 0.53472 0.00775 0.0
C3792 C 0.25582 0.51835 0.03664 0.0
C3793 C 0.24447 0.48356 0.01915 0.0
C3794 C 0.24464 0.52524 0.05066 0.0
C3795 C 0.24813 0.52051 0.0689 0.0
C3796 C 0.26267 0.50865 0.07316 0.0
C3797 C 0.27492 0.50345 0.05931 0.0
C3798 C 0.27165 0.50849 0.04119 0.0
H3799 H 0.23589 0.47309 0.01222 0.0
H3800 H 0.25869 0.47827 0.01973 0.0
H3801 H 0.23943 0.48525 0.0334 0.0
H3802 H 0.23238 0.53291 0.04739 0.0
H3803 H 0.23846 0.52463 0.07935 0.0
H3804 H 0.41399 0.7486 0.02021 0.0
H3805 H 0.44423 0.75396 0.03393 0.0
H3806 H 0.46979 0.72752 0.98774 0.0
H3807 H 0.43992 0.72192 0.97418 0.0
H3808 H 0.48663 0.71948 0.0217 0.0
H3809 H 0.47629 0.79435 0.01078 0.0
H3810 H 0.46017 0.78217 0.02485 0.0
H3811 H 0.46114 0.77765 0.00073 0.0
C3812 C 0.42606 0.74358 0.01321 0.0
C3813 C 0.4246 0.73509 0.99597 0.0
C3814 C 0.4433 0.74675 0.02102 0.0
C3815 C 0.45924 0.7414 0.01169 0.0
C3816 C 0.45767 0.7318 0.99515 0.0
H3817 H 0.55769 0.77218 0.9748 0.0
H3818 H 0.52647 0.76838 0.98571 0.0
C3819 C 0.44056 0.72869 0.98736 0.0
C3820 C 0.47769 0.74723 0.0177 0.0
H3821 H 0.50623 0.7841 0.01503 0.0
C3822 C 0.49092 0.73366 0.02085 0.0
C3823 C 0.48316 0.76577 0.01653 0.0
C3824 C 0.46954 0.7809 0.01297 0.0
C3825 C 0.50965 0.73793 0.02117 0.0
C3826 C 0.51518 0.75629 0.0185 0.0
C3827 C 0.50187 0.77006 0.01708 0.0
C3828 C 0.53423 0.76084 0.01329 0.0
C3829 C 0.5234 0.72259 0.02265 0.0
C3830 C 0.54897 0.75837 0.02535 0.0
C3831 C 0.56699 0.7605 0.0191 0.0
C3832 C 0.57044 0.76507 0.0007 0.0
C3833 C 0.55555 0.76847 0.989 0.0
C3834 C 0.53767 0.76639 0.99524 0.0
H3835 H 0.51677 0.70891 0.02308 0.0
H3836 H 0.53298 0.72296 0.01086 0.0
H3837 H 0.53157 0.72431 0.03534 0.0
H3838 H 0.54657 0.75429 0.0394 0.0
H3839 H 0.57817 0.75786 0.02847 0.0
H3840 H 0.44351 0.2822 0.51584 0.0
H3841 H 0.47384 0.27959 0.50248 0.0
H3842 H 0.45077 0.25481 0.4541 0.0
H3843 H 0.42009 0.25725 0.46757 0.0
H3844 H 0.47732 0.23391 0.46916 0.0
H3845 H 0.50361 0.30411 0.46301 0.0
H3846 H 0.49334 0.30131 0.48509 0.0
H3847 H 0.47942 0.29923 0.4648 0.0
C3848 C 0.44478 0.27657 0.50218 0.0
C3849 C 0.42941 0.26979 0.49283 0.0
C3850 C 0.46215 0.27528 0.49445 0.0
C3851 C 0.46457 0.26726 0.47716 0.0
C3852 C 0.44917 0.26123 0.46737 0.0
H3853 H 0.58371 0.25704 0.47193 0.0
H3854 H 0.55381 0.26069 0.45698 0.0
C3855 C 0.43167 0.26264 0.47509 0.0
C3856 C 0.48336 0.26275 0.47103 0.0
H3857 H 0.52635 0.28073 0.47228 0.0
C3858 C 0.48802 0.2442 0.46917 0.0
C3859 C 0.49734 0.27612 0.47052 0.0
C3860 C 0.4931 0.29632 0.47075 0.0
C3861 C 0.50638 0.23859 0.46924 0.0
C3862 C 0.52028 0.25185 0.47153 0.0
C3863 C 0.51568 0.2705 0.47092 0.0
C3864 C 0.53869 0.24681 0.47833 0.0
C3865 C 0.51064 0.21844 0.46811 0.0
C3866 C 0.5401 0.23763 0.49514 0.0
C3867 C 0.557 0.23568 0.50372 0.0
C3868 C 0.5729 0.24291 0.4957 0.0
C3869 C 0.57168 0.25126 0.47839 0.0
C3870 C 0.55464 0.25336 0.46984 0.0
H3871 H 0.50053 0.21128 0.4593 0.0
H3872 H 0.5246 0.21598 0.46262 0.0
H3873 H 0.50974 0.21235 0.482 0.0
H3874 H 0.52795 0.23287 0.5022 0.0
H3875 H 0.55748 0.22913 0.51702 0.0
H3876 H 0.91829 0.26371 0.52857 0.0
H3877 H 0.94969 0.27032 0.53849 0.0
H3878 H 0.96913 0.22366 0.50805 0.0
H3879 H 0.93798 0.21732 0.49769 0.0
H3880 H 0.98353 0.24991 0.55348 0.0
H3881 H 0.986 0.2721 0.4808 0.0
H3882 H 0.96478 0.26764 0.49259 0.0
H3883 H 0.97834 0.24897 0.48404 0.0
C3884 C 0.92917 0.25445 0.52463 0.0
C3885 C 0.92584 0.2402 0.51213 0.0
C3886 C 0.94708 0.25823 0.53032 0.0
C3887 C 0.96167 0.24762 0.52375 0.0
C3888 C 0.95801 0.23206 0.51313 0.0
H3889 H 0.07789 0.24661 0.52679 0.0
H3890 H 0.04599 0.24402 0.53649 0.0
C3891 C 0.94024 0.22848 0.5072 0.0
C3892 C 0.98058 0.2547 0.52455 0.0
H3893 H 0.01418 0.27058 0.49652 0.0
C3894 C 0.99028 0.25464 0.54113 0.0
C3895 C 0.9891 0.2613 0.50849 0.0
C3896 C 0.979 0.26271 0.49049 0.0
C3897 C 0.0087 0.26029 0.54183 0.0
C3898 C 0.01756 0.26577 0.52547 0.0
C3899 C 0.00749 0.26645 0.50911 0.0
C3900 C 0.03747 0.26967 0.52425 0.0
C3901 C 0.01841 0.26033 0.56003 0.0
C3902 C 0.04351 0.28513 0.51452 0.0
C3903 C 0.06156 0.28626 0.50841 0.0
C3904 C 0.07401 0.27221 0.51238 0.0
C3905 C 0.06854 0.2577 0.52373 0.0
C3906 C 0.05031 0.25629 0.5294 0.0
H3907 H 0.00862 0.2626 0.57145 0.0
H3908 H 0.02495 0.2468 0.56222 0.0
H3909 H 0.02916 0.27105 0.5606 0.0
H3910 H 0.03389 0.29565 0.51042 0.0
H3911 H 0.06552 0.29761 0.49971 0.0
H3912 H 0.46889 0.07931 0.74917 0.0
H3913 H 0.4562 0.0483 0.74629 0.0
H3914 H 0.50521 0.02611 0.77064 0.0
H3915 H 0.51781 0.05674 0.77362 0.0
H3916 H 0.47223 0.02165 0.72522 0.0
H3917 H 0.46584 0.99624 0.79584 0.0
H3918 H 0.4671 0.02038 0.79056 0.0
H3919 H 0.48769 0.00697 0.79285 0.0
C3920 C 0.47672 0.06782 0.75433 0.0
C3921 C 0.49439 0.07044 0.76153 0.0
C3922 C 0.46946 0.05015 0.75266 0.0
C3923 C 0.47963 0.03493 0.75851 0.0
C3924 C 0.4969 0.03766 0.76645 0.0
H3925 H 0.51895 0.94026 0.7218 0.0
H3926 H 0.50478 0.97018 0.7249 0.0
C3927 C 0.50419 0.0552 0.76797 0.0
C3928 C 0.47379 0.01602 0.75416 0.0
H3929 H 0.47484 0.9733 0.77279 0.0
C3930 C 0.47215 0.01109 0.73566 0.0
C3931 C 0.47321 0.00225 0.76773 0.0
C3932 C 0.47335 0.00679 0.78787 0.0
C3933 C 0.47223 0.99265 0.73032 0.0
C3934 C 0.4743 0.97893 0.74381 0.0
C3935 C 0.47361 0.98382 0.76239 0.0
C3936 C 0.48072 0.96028 0.73912 0.0
C3937 C 0.47125 0.98809 0.71022 0.0
C3938 C 0.47189 0.94466 0.74602 0.0
C3939 C 0.48008 0.9274 0.74431 0.0
C3940 C 0.49735 0.92562 0.73598 0.0
C3941 C 0.50568 0.94117 0.72835 0.0
C3942 C 0.49747 0.9583 0.72993 0.0
H3943 H 0.46261 0.99819 0.70281 0.0
H3944 H 0.4852 0.98876 0.70424 0.0
H3945 H 0.46562 0.97417 0.70791 0.0
H3946 H 0.45906 0.94593 0.75334 0.0
H3947 H 0.47337 0.91566 0.75039 0.0
H3948 H 0.48435 0.55342 0.71955 0.0
H3949 H 0.49911 0.52403 0.72386 0.0
H3950 H 0.54605 0.5507 0.7478 0.0
H3951 H 0.53093 0.5805 0.74405 0.0
H3952 H 0.53104 0.50755 0.71379 0.0
H3953 H 0.52901 0.51827 0.7894 0.0
H3954 H 0.51768 0.53383 0.77398 0.0
H3955 H 0.54221 0.53384 0.77566 0.0
C3956 C 0.49792 0.55317 0.72553 0.0
C3957 C 0.50629 0.5693 0.73181 0.0
C3958 C 0.50642 0.5363 0.72788 0.0
C3959 C 0.52354 0.5351 0.73649 0.0
C3960 C 0.53266 0.55128 0.74149 0.0
H3961 H 0.52934 0.41534 0.74887 0.0
H3962 H 0.54505 0.44485 0.74515 0.0
C3963 C 0.52405 0.56829 0.73922 0.0
C3964 C 0.53031 0.51669 0.74175 0.0
H3965 H 0.53042 0.4883 0.77883 0.0
C3966 C 0.53153 0.50331 0.72801 0.0
C3967 C 0.53112 0.51127 0.76034 0.0
C3968 C 0.52989 0.52496 0.77577 0.0
C3969 C 0.53105 0.48458 0.73229 0.0
C3970 C 0.52987 0.47918 0.75086 0.0
C3971 C 0.53118 0.49254 0.76462 0.0
C3972 C 0.52266 0.46092 0.75603 0.0
C3973 C 0.52975 0.4709 0.71685 0.0
C3974 C 0.50538 0.46009 0.76436 0.0
C3975 C 0.49653 0.44339 0.76668 0.0
C3976 C 0.50472 0.42707 0.76066 0.0
C3977 C 0.52261 0.42771 0.7535 0.0
C3978 C 0.53155 0.44455 0.75125 0.0
H3979 H 0.52924 0.4776 0.70321 0.0
H3980 H 0.54186 0.46175 0.71716 0.0
H3981 H 0.51732 0.46231 0.71846 0.0
H3982 H 0.49823 0.47251 0.76821 0.0
H3983 H 0.48288 0.44342 0.77246 0.0
H3984 H 0.08039 0.24653 0.025 0.0
H3985 H 0.04962 0.25024 0.03799 0.0
H3986 H 0.02655 0.22338 0.99074 0.0
H3987 H 0.05699 0.21963 0.97779 0.0
H3988 H 0.02318 0.27076 0.0205 0.0
H3989 H 0.99682 0.2011 0.03223 0.0
H3990 H 0.02102 0.20599 0.03046 0.0
H3991 H 0.00743 0.20257 0.01015 0.0
C3992 C 0.06878 0.24099 0.01765 0.0
C3993 C 0.07107 0.2329 0.00032 0.0
C3994 C 0.05124 0.24312 0.02508 0.0
C3995 C 0.03583 0.23686 0.01545 0.0
C3996 C 0.03825 0.22794 0.99862 0.0
H3997 H 0.93981 0.27183 0.97638 0.0
H3998 H 0.97043 0.26849 0.98902 0.0
C3999 C 0.05567 0.22597 0.99113 0.0
C4000 C 0.01708 0.24189 0.02123 0.0
H4001 H 0.97406 0.22395 0.0226 0.0
C4002 C 0.01247 0.26053 0.0216 0.0
C4003 C 0.00314 0.22861 0.02305 0.0
C4004 C 0.00741 0.20845 0.02416 0.0
C4005 C 0.99412 0.26615 0.02157 0.0
C4006 C 0.98016 0.25277 0.02094 0.0
C4007 C 0.98478 0.23422 0.02278 0.0
C4008 C 0.96137 0.25737 0.01496 0.0
C4009 C 0.98985 0.28633 0.02104 0.0
C4010 C 0.94605 0.25224 0.02536 0.0
C4011 C 0.9284 0.25415 0.01811 0.0
C4012 C 0.92592 0.26086 0.00023 0.0
C4013 C 0.94127 0.26657 0.99017 0.0
C4014 C 0.9588 0.26483 0.99746 0.0
H4015 H 0.00056 0.29434 0.02829 0.0
H4016 H 0.98958 0.29101 0.00659 0.0
H4017 H 0.97634 0.28932 0.02734 0.0
H4018 H 0.94779 0.24624 0.03881 0.0
H4019 H 0.91682 0.24956 0.02615 0.0
H4020 H 0.50302 0.06357 0.29625 0.0
H4021 H 0.51358 0.0319 0.29424 0.0
H4022 H 0.53938 0.04389 0.24243 0.0
H4023 H 0.52991 0.07581 0.24511 0.0
H4024 H 0.49922 0.01247 0.26953 0.0
H4025 H 0.57379 0.00581 0.25997 0.0
H4026 H 0.56347 0.02653 0.26865 0.0
H4027 H 0.56473 0.0224 0.24435 0.0
C4028 C 0.51167 0.05957 0.28487 0.0
C4029 C 0.51561 0.07199 0.27079 0.0
C4030 C 0.51769 0.04149 0.28371 0.0
C4031 C 0.52725 0.0354 0.26815 0.0
C4032 C 0.53243 0.04822 0.25478 0.0
H4033 H 0.49755 0.93816 0.21391 0.0
H4034 H 0.50864 0.96887 0.22108 0.0
C4035 C 0.52688 0.06648 0.25624 0.0
C4036 C 0.5281 0.0155 0.26407 0.0
H4037 H 0.55511 0.98144 0.24661 0.0
C4038 C 0.5116 0.00568 0.26494 0.0
C4039 C 0.54417 0.00649 0.25799 0.0
C4040 C 0.56256 0.01585 0.25788 0.0
C4041 C 0.51054 0.98745 0.25931 0.0
C4042 C 0.52626 0.97887 0.25202 0.0
C4043 C 0.543 0.98826 0.25185 0.0
C4044 C 0.52491 0.96026 0.24427 0.0
C4045 C 0.49241 0.97762 0.26091 0.0
C4046 C 0.53153 0.94519 0.25413 0.0
C4047 C 0.52541 0.92754 0.24987 0.0
C4048 C 0.51243 0.92494 0.23589 0.0
C4049 C 0.50742 0.93984 0.22485 0.0
C4050 C 0.51377 0.95736 0.22891 0.0
H4051 H 0.48314 0.98445 0.27085 0.0
H4052 H 0.48552 0.97758 0.24737 0.0
H4053 H 0.49439 0.9632 0.26527 0.0
H4054 H 0.54011 0.94721 0.26606 0.0
H4055 H 0.52945 0.91626 0.25861 0.0
H4056 H 0.52455 0.44119 0.27514 0.0
H4057 H 0.51141 0.47163 0.27239 0.0
H4058 H 0.46093 0.44843 0.25243 0.0
H4059 H 0.47411 0.41763 0.25505 0.0
H4060 H 0.47471 0.47503 0.22978 0.0
H4061 H 0.47366 0.50112 0.30045 0.0
H4062 H 0.49538 0.49075 0.29573 0.0
H4063 H 0.47492 0.47695 0.29531 0.0
C4064 C 0.51053 0.44247 0.27048 0.0
C4065 C 0.50041 0.42699 0.26522 0.0
C4066 C 0.50296 0.45991 0.2691 0.0
C4067 C 0.48508 0.46229 0.26249 0.0
C4068 C 0.47468 0.44685 0.25776 0.0
H4069 H 0.47621 0.58121 0.25447 0.0
H4070 H 0.46237 0.55084 0.25837 0.0
C4071 C 0.48223 0.42929 0.25927 0.0
C4072 C 0.47856 0.48103 0.25842 0.0
H4073 H 0.48006 0.52396 0.27652 0.0
C4074 C 0.47525 0.4857 0.24008 0.0
C4075 C 0.47875 0.49494 0.27187 0.0
C4076 C 0.48066 0.49062 0.29197 0.0
C4077 C 0.4744 0.50408 0.23459 0.0
C4078 C 0.47724 0.518 0.24773 0.0
C4079 C 0.47822 0.5133 0.26634 0.0
C4080 C 0.48289 0.53671 0.24236 0.0
C4081 C 0.47161 0.50838 0.2146 0.0
C4082 C 0.49879 0.53886 0.2318 0.0
C4083 C 0.50674 0.55604 0.22967 0.0
C4084 C 0.499 0.57148 0.23812 0.0
C4085 C 0.48244 0.56956 0.24775 0.0
C4086 C 0.47453 0.55224 0.25 0.0
H4087 H 0.46253 0.49806 0.20809 0.0
H4088 H 0.46558 0.52219 0.21263 0.0
H4089 H 0.485 0.50784 0.20744 0.0
H4090 H 0.50578 0.52706 0.22616 0.0
H4091 H 0.51946 0.55708 0.22211 0.0
H4092 H 0.05711 0.72283 0.01625 0.0
H4093 H 0.02686 0.72671 0.003 0.0
H4094 H 0.05043 0.7545 0.95654 0.0
H4095 H 0.08102 0.75079 0.96992 0.0
H4096 H 0.02403 0.77463 0.97294 0.0
H4097 H 0.99704 0.70528 0.96182 0.0
H4098 H 0.0071 0.70656 0.98414 0.0
H4099 H 0.02126 0.70975 0.96417 0.0
C4100 C 0.05596 0.72939 0.003 0.0
C4101 C 0.07145 0.73663 0.99421 0.0
C4102 C 0.03863 0.73143 0.99532 0.0
C4103 C 0.03637 0.74066 0.97863 0.0
C4104 C 0.05189 0.74716 0.96933 0.0
H4105 H 0.91737 0.75291 0.9703 0.0
H4106 H 0.94791 0.74958 0.95665 0.0
C4107 C 0.06935 0.74501 0.97699 0.0
C4108 C 0.01765 0.74581 0.97276 0.0
H4109 H 0.97443 0.72831 0.97196 0.0
C4110 C 0.01322 0.76449 0.97208 0.0
C4111 C 0.00354 0.73267 0.97115 0.0
C4112 C 0.00755 0.71245 0.97015 0.0
C4113 C 0.99493 0.77031 0.97212 0.0
C4114 C 0.98082 0.7571 0.97317 0.0
C4115 C 0.98525 0.73848 0.97153 0.0
C4116 C 0.96217 0.76197 0.97945 0.0
C4117 C 0.99091 0.79055 0.97219 0.0
C4118 C 0.96006 0.77024 0.99666 0.0
C4119 C 0.94278 0.77204 0.0045 0.0
C4120 C 0.92718 0.76555 0.99533 0.0
C4121 C 0.92914 0.75812 0.97766 0.0
C4122 C 0.94655 0.75618 0.96985 0.0
H4123 H 0.00141 0.79816 0.96424 0.0
H4124 H 0.97719 0.79354 0.96637 0.0
H4125 H 0.99136 0.7957 0.98647 0.0
H4126 H 0.97192 0.77439 0.00455 0.0
H4127 H 0.94174 0.77786 0.0181 0.0
loop_
_geom_bond_atom_site_label_1
_geom_bond_atom_site_label_2
_geom_bond_distance
_geom_bond_site_symmetry_2
_ccdc_geom_bond_type
O0 Cd1 2.223 . S
O0 C8 1.315 . S
Cd1 O0 2.223 . S
Cd1 O4 2.297 . S
Cd1 O5 2.439 . S
Cd1 O11 2.240 . S
Cd2 O3 2.240 . S
Cd2 O10 2.223 . S
Cd2 O12 2.297 . S
Cd2 O13 2.439 . S
O3 Cd2 2.240 . S
O3 C8 1.279 . S
O4 Cd1 2.297 . S
O4 C6 1.247 . S
O5 Cd1 2.439 . S
O5 C6 1.208 . S
C6 O4 1.247 . S
C6 O5 1.208 . S
C7 O12 1.247 . S
C7 O13 1.208 . S
C8 O0 1.315 . S
C8 O3 1.279 . S
C9 O10 1.315 . S
C9 O11 1.279 . S
O10 Cd2 2.223 . S
O10 C9 1.315 . S
O11 Cd1 2.240 . S
O11 C9 1.279 . S
O12 Cd2 2.297 . S
O12 C7 1.247 . S
O13 Cd2 2.439 . S
O13 C7 1.208 . S
O14 Cd15 2.223 . S
O14 C22 1.315 . S
Cd15 O14 2.223 . S
Cd15 O18 2.297 . S
Cd15 O19 2.439 . S
Cd15 O25 2.240 . S
Cd16 O17 2.240 . S
Cd16 O24 2.223 . S
Cd16 O26 2.297 . S
Cd16 O27 2.439 . S
O17 Cd16 2.240 . S
O17 C22 1.279 . S
O18 Cd15 2.297 . S
O18 C20 1.247 . S
O19 Cd15 2.439 . S
O19 C20 1.208 . S
C20 O18 1.247 . S
C20 O19 1.208 . S
C21 O26 1.247 . S
C21 O27 1.208 . S
C22 O14 1.315 . S
C22 O17 1.279 . S
C23 O24 1.315 . S
C23 O25 1.279 . S
O24 Cd16 2.223 . S
O24 C23 1.315 . S
O25 Cd15 2.240 . S
O25 C23 1.279 . S
O26 Cd16 2.297 . S
O26 C21 1.247 . S
O27 Cd16 2.439 . S
O27 C21 1.208 . S
O28 Cd29 2.223 . S
O28 C36 1.315 . S
Cd29 O28 2.223 . S
Cd29 O32 2.297 . S
Cd29 O33 2.439 . S
Cd29 O39 2.240 . S
Cd30 O31 2.240 . S
Cd30 O38 2.223 . S
Cd30 O40 2.297 . S
Cd30 O41 2.439 . S
O31 Cd30 2.240 . S
O31 C36 1.279 . S
O32 Cd29 2.297 . S
O32 C34 1.247 . S
O33 Cd29 2.439 . S
O33 C34 1.208 . S
C34 O32 1.247 . S
C34 O33 1.208 . S
C35 O40 1.247 . S
C35 O41 1.208 . S
C36 O28 1.315 . S
C36 O31 1.279 . S
C37 O38 1.315 . S
C37 O39 1.279 . S
O38 Cd30 2.223 . S
O38 C37 1.315 . S
O39 Cd29 2.240 . S
O39 C37 1.279 . S
O40 Cd30 2.297 . S
O40 C35 1.247 . S
O41 Cd30 2.439 . S
O41 C35 1.208 . S
O42 Cd43 2.223 . S
O42 C50 1.315 . S
Cd43 O42 2.223 . S
Cd43 O46 2.297 . S
Cd43 O47 2.439 . S
Cd43 O53 2.240 . S
Cd44 O45 2.240 . S
Cd44 O52 2.223 . S
Cd44 O54 2.297 . S
Cd44 O55 2.439 . S
O45 Cd44 2.240 . S
O45 C50 1.279 . S
O46 Cd43 2.297 . S
O46 C48 1.247 . S
O47 Cd43 2.439 . S
O47 C48 1.208 . S
C48 O46 1.247 . S
C48 O47 1.208 . S
C49 O54 1.247 . S
C49 O55 1.208 . S
C50 O42 1.315 . S
C50 O45 1.279 . S
C51 O52 1.315 . S
C51 O53 1.279 . S
O52 Cd44 2.223 . S
O52 C51 1.315 . S
O53 Cd43 2.240 . S
O53 C51 1.279 . S
O54 Cd44 2.297 . S
O54 C49 1.247 . S
O55 Cd44 2.439 . S
O55 C49 1.208 . S
O56 Cd57 2.223 . S
O56 C64 1.315 . S
Cd57 O56 2.223 . S
Cd57 O60 2.297 . S
Cd57 O61 2.439 . S
Cd57 O67 2.240 . S
Cd58 O59 2.240 . S
Cd58 O66 2.223 . S
Cd58 O68 2.297 . S
Cd58 O69 2.439 . S
O59 Cd58 2.240 . S
O59 C64 1.279 . S
O60 Cd57 2.297 . S
O60 C62 1.247 . S
O61 Cd57 2.439 . S
O61 C62 1.208 . S
C62 O60 1.247 . S
C62 O61 1.208 . S
C63 O68 1.247 . S
C63 O69 1.208 . S
C64 O56 1.315 . S
C64 O59 1.279 . S
C65 O66 1.315 . S
C65 O67 1.279 . S
O66 Cd58 2.223 . S
O66 C65 1.315 . S
O67 Cd57 2.240 . S
O67 C65 1.279 . S
O68 Cd58 2.297 . S
O68 C63 1.247 . S
O69 Cd58 2.439 . S
O69 C63 1.208 . S
O70 Cd71 2.223 . S
O70 C78 1.315 . S
Cd71 O70 2.223 . S
Cd71 O74 2.297 . S
Cd71 O75 2.439 . S
Cd71 O81 2.240 . S
Cd72 O73 2.240 . S
Cd72 O80 2.223 . S
Cd72 O82 2.297 . S
Cd72 O83 2.439 . S
O73 Cd72 2.240 . S
O73 C78 1.279 . S
O74 Cd71 2.297 . S
O74 C76 1.247 . S
O75 Cd71 2.439 . S
O75 C76 1.208 . S
C76 O74 1.247 . S
C76 O75 1.208 . S
C77 O82 1.247 . S
C77 O83 1.208 . S
C78 O70 1.315 . S
C78 O73 1.279 . S
C79 O80 1.315 . S
C79 O81 1.279 . S
O80 Cd72 2.223 . S
O80 C79 1.315 . S
O81 Cd71 2.240 . S
O81 C79 1.279 . S
O82 Cd72 2.297 . S
O82 C77 1.247 . S
O83 Cd72 2.439 . S
O83 C77 1.208 . S
O84 Cd85 2.223 . S
O84 C92 1.315 . S
Cd85 O84 2.223 . S
Cd85 O88 2.297 . S
Cd85 O89 2.439 . S
Cd85 O95 2.240 . S
Cd86 O87 2.240 . S
Cd86 O94 2.223 . S
Cd86 O96 2.297 . S
Cd86 O97 2.439 . S
O87 Cd86 2.240 . S
O87 C92 1.279 . S
O88 Cd85 2.297 . S
O88 C90 1.247 . S
O89 Cd85 2.439 . S
O89 C90 1.208 . S
C90 O88 1.247 . S
C90 O89 1.208 . S
C91 O96 1.247 . S
C91 O97 1.208 . S
C92 O84 1.315 . S
C92 O87 1.279 . S
C93 O94 1.315 . S
C93 O95 1.279 . S
O94 Cd86 2.223 . S
O94 C93 1.315 . S
O95 Cd85 2.240 . S
O95 C93 1.279 . S
O96 Cd86 2.297 . S
O96 C91 1.247 . S
O97 Cd86 2.439 . S
O97 C91 1.208 . S
O98 Cd99 2.223 . S
O98 C106 1.315 . S
Cd99 O98 2.223 . S
Cd99 O102 2.297 . S
Cd99 O103 2.439 . S
Cd99 O109 2.240 . S
Cd100 O101 2.240 . S
Cd100 O108 2.223 . S
Cd100 O110 2.297 . S
Cd100 O111 2.439 . S
O101 Cd100 2.240 . S
O101 C106 1.279 . S
O102 Cd99 2.297 . S
O102 C104 1.247 . S
O103 Cd99 2.439 . S
O103 C104 1.208 . S
C104 O102 1.247 . S
C104 O103 1.208 . S
C105 O110 1.247 . S
C105 O111 1.208 . S
C106 O98 1.315 . S
C106 O101 1.279 . S
C107 O108 1.315 . S
C107 O109 1.279 . S
O108 Cd100 2.223 . S
O108 C107 1.315 . S
O109 Cd99 2.240 . S
O109 C107 1.279 . S
O110 Cd100 2.297 . S
O110 C105 1.247 . S
O111 Cd100 2.439 . S
O111 C105 1.208 . S
O112 Cd113 2.223 . S
O112 C120 1.315 . S
Cd113 O112 2.223 . S
Cd113 O116 2.297 . S
Cd113 O117 2.439 . S
Cd113 O123 2.240 . S
Cd114 O115 2.240 . S
Cd114 O122 2.223 . S
Cd114 O124 2.297 . S
Cd114 O125 2.439 . S
O115 Cd114 2.240 . S
O115 C120 1.279 . S
O116 Cd113 2.297 . S
O116 C118 1.247 . S
O117 Cd113 2.439 . S
O117 C118 1.208 . S
C118 O116 1.247 . S
C118 O117 1.208 . S
C119 O124 1.247 . S
C119 O125 1.208 . S
C120 O112 1.315 . S
C120 O115 1.279 . S
C121 O122 1.315 . S
C121 O123 1.279 . S
O122 Cd114 2.223 . S
O122 C121 1.315 . S
O123 Cd113 2.240 . S
O123 C121 1.279 . S
O124 Cd114 2.297 . S
O124 C119 1.247 . S
O125 Cd114 2.439 . S
O125 C119 1.208 . S
O126 Cd127 2.223 . S
O126 C134 1.315 . S
Cd127 O126 2.223 . S
Cd127 O130 2.297 . S
Cd127 O131 2.439 . S
Cd127 O137 2.240 . S
Cd128 O129 2.240 . S
Cd128 O136 2.223 . S
Cd128 O138 2.297 . S
Cd128 O139 2.439 . S
O129 Cd128 2.240 . S
O129 C134 1.279 . S
O130 Cd127 2.297 . S
O130 C132 1.247 . S
O131 Cd127 2.439 . S
O131 C132 1.208 . S
C132 O130 1.247 . S
C132 O131 1.208 . S
C133 O138 1.247 . S
C133 O139 1.208 . S
C134 O126 1.315 . S
C134 O129 1.279 . S
C135 O136 1.315 . S
C135 O137 1.279 . S
O136 Cd128 2.223 . S
O136 C135 1.315 . S
O137 Cd127 2.240 . S
O137 C135 1.279 . S
O138 Cd128 2.297 . S
O138 C133 1.247 . S
O139 Cd128 2.439 . S
O139 C133 1.208 . S
O140 Cd141 2.223 . S
O140 C148 1.315 . S
Cd141 O140 2.223 . S
Cd141 O144 2.297 . S
Cd141 O145 2.439 . S
Cd141 O151 2.240 . S
Cd142 O143 2.240 . S
Cd142 O150 2.223 . S
Cd142 O152 2.297 . S
Cd142 O153 2.439 . S
O143 Cd142 2.240 . S
O143 C148 1.279 . S
O144 Cd141 2.297 . S
O144 C146 1.247 . S
O145 Cd141 2.439 . S
O145 C146 1.208 . S
C146 O144 1.247 . S
C146 O145 1.208 . S
C147 O152 1.247 . S
C147 O153 1.208 . S
C148 O140 1.315 . S
C148 O143 1.279 . S
C149 O150 1.315 . S
C149 O151 1.279 . S
O150 Cd142 2.223 . S
O150 C149 1.315 . S
O151 Cd141 2.240 . S
O151 C149 1.279 . S
O152 Cd142 2.297 . S
O152 C147 1.247 . S
O153 Cd142 2.439 . S
O153 C147 1.208 . S
O154 Cd155 2.223 . S
O154 C162 1.315 . S
Cd155 O154 2.223 . S
Cd155 O158 2.297 . S
Cd155 O159 2.439 . S
Cd155 O165 2.240 . S
Cd156 O157 2.240 . S
Cd156 O164 2.223 . S
Cd156 O166 2.297 . S
Cd156 O167 2.439 . S
O157 Cd156 2.240 . S
O157 C162 1.279 . S
O158 Cd155 2.297 . S
O158 C160 1.247 . S
O159 Cd155 2.439 . S
O159 C160 1.208 . S
C160 O158 1.247 . S
C160 O159 1.208 . S
C161 O166 1.247 . S
C161 O167 1.208 . S
C162 O154 1.315 . S
C162 O157 1.279 . S
C163 O164 1.315 . S
C163 O165 1.279 . S
O164 Cd156 2.223 . S
O164 C163 1.315 . S
O165 Cd155 2.240 . S
O165 C163 1.279 . S
O166 Cd156 2.297 . S
O166 C161 1.247 . S
O167 Cd156 2.439 . S
O167 C161 1.208 . S
O168 Cd169 2.223 . S
O168 C176 1.315 . S
Cd169 O168 2.223 . S
Cd169 O172 2.297 . S
Cd169 O173 2.439 . S
Cd169 O179 2.240 . S
Cd170 O171 2.240 . S
Cd170 O178 2.223 . S
Cd170 O180 2.297 . S
Cd170 O181 2.439 . S
O171 Cd170 2.240 . S
O171 C176 1.279 . S
O172 Cd169 2.297 . S
O172 C174 1.247 . S
O173 Cd169 2.439 . S
O173 C174 1.208 . S
C174 O172 1.247 . S
C174 O173 1.208 . S
C175 O180 1.247 . S
C175 O181 1.208 . S
C176 O168 1.315 . S
C176 O171 1.279 . S
C177 O178 1.315 . S
C177 O179 1.279 . S
O178 Cd170 2.223 . S
O178 C177 1.315 . S
O179 Cd169 2.240 . S
O179 C177 1.279 . S
O180 Cd170 2.297 . S
O180 C175 1.247 . S
O181 Cd170 2.439 . S
O181 C175 1.208 . S
O182 Cd183 2.223 . S
O182 C190 1.315 . S
Cd183 O182 2.223 . S
Cd183 O186 2.297 . S
Cd183 O187 2.439 . S
Cd183 O193 2.240 . S
Cd184 O185 2.240 . S
Cd184 O192 2.223 . S
Cd184 O194 2.297 . S
Cd184 O195 2.439 . S
O185 Cd184 2.240 . S
O185 C190 1.279 . S
O186 Cd183 2.297 . S
O186 C188 1.247 . S
O187 Cd183 2.439 . S
O187 C188 1.208 . S
C188 O186 1.247 . S
C188 O187 1.208 . S
C189 O194 1.247 . S
C189 O195 1.208 . S
C190 O182 1.315 . S
C190 O185 1.279 . S
C191 O192 1.315 . S
C191 O193 1.279 . S
O192 Cd184 2.223 . S
O192 C191 1.315 . S
O193 Cd183 2.240 . S
O193 C191 1.279 . S
O194 Cd184 2.297 . S
O194 C189 1.247 . S
O195 Cd184 2.439 . S
O195 C189 1.208 . S
O196 Cd197 2.223 . S
O196 C204 1.315 . S
Cd197 O196 2.223 . S
Cd197 O200 2.297 . S
Cd197 O201 2.439 . S
Cd197 O207 2.240 . S
Cd198 O199 2.240 . S
Cd198 O206 2.223 . S
Cd198 O208 2.297 . S
Cd198 O209 2.439 . S
O199 Cd198 2.240 . S
O199 C204 1.279 . S
O200 Cd197 2.297 . S
O200 C202 1.247 . S
O201 Cd197 2.439 . S
O201 C202 1.208 . S
C202 O200 1.247 . S
C202 O201 1.208 . S
C203 O208 1.247 . S
C203 O209 1.208 . S
C204 O196 1.315 . S
C204 O199 1.279 . S
C205 O206 1.315 . S
C205 O207 1.279 . S
O206 Cd198 2.223 . S
O206 C205 1.315 . S
O207 Cd197 2.240 . S
O207 C205 1.279 . S
O208 Cd198 2.297 . S
O208 C203 1.247 . S
O209 Cd198 2.439 . S
O209 C203 1.208 . S
O210 Cd211 2.223 . S
O210 C218 1.315 . S
Cd211 O210 2.223 . S
Cd211 O214 2.297 . S
Cd211 O215 2.439 . S
Cd211 O221 2.240 . S
Cd212 O213 2.240 . S
Cd212 O220 2.223 . S
Cd212 O222 2.297 . S
Cd212 O223 2.439 . S
O213 Cd212 2.240 . S
O213 C218 1.279 . S
O214 Cd211 2.297 . S
O214 C216 1.247 . S
O215 Cd211 2.439 . S
O215 C216 1.208 . S
C216 O214 1.247 . S
C216 O215 1.208 . S
C217 O222 1.247 . S
C217 O223 1.208 . S
C218 O210 1.315 . S
C218 O213 1.279 . S
C219 O220 1.315 . S
C219 O221 1.279 . S
O220 Cd212 2.223 . S
O220 C219 1.315 . S
O221 Cd211 2.240 . S
O221 C219 1.279 . S
O222 Cd212 2.297 . S
O222 C217 1.247 . S
O223 Cd212 2.439 . S
O223 C217 1.208 . S
O224 Cd225 2.223 . S
O224 C232 1.315 . S
Cd225 O224 2.223 . S
Cd225 O228 2.297 . S
Cd225 O229 2.439 . S
Cd225 O235 2.240 . S
Cd226 O227 2.240 . S
Cd226 O234 2.223 . S
Cd226 O236 2.297 . S
Cd226 O237 2.439 . S
O227 Cd226 2.240 . S
O227 C232 1.279 . S
O228 Cd225 2.297 . S
O228 C230 1.247 . S
O229 Cd225 2.439 . S
O229 C230 1.208 . S
C230 O228 1.247 . S
C230 O229 1.208 . S
C231 O236 1.247 . S
C231 O237 1.208 . S
C232 O224 1.315 . S
C232 O227 1.279 . S
C233 O234 1.315 . S
C233 O235 1.279 . S
O234 Cd226 2.223 . S
O234 C233 1.315 . S
O235 Cd225 2.240 . S
O235 C233 1.279 . S
O236 Cd226 2.297 . S
O236 C231 1.247 . S
O237 Cd226 2.439 . S
O237 C231 1.208 . S
O238 Cd239 2.223 . S
O238 C246 1.315 . S
Cd239 O238 2.223 . S
Cd239 O242 2.297 . S
Cd239 O243 2.439 . S
Cd239 O249 2.240 . S
Cd240 O241 2.240 . S
Cd240 O248 2.223 . S
Cd240 O250 2.297 . S
Cd240 O251 2.439 . S
O241 Cd240 2.240 . S
O241 C246 1.279 . S
O242 Cd239 2.297 . S
O242 C244 1.247 . S
O243 Cd239 2.439 . S
O243 C244 1.208 . S
C244 O242 1.247 . S
C244 O243 1.208 . S
C245 O250 1.247 . S
C245 O251 1.208 . S
C246 O238 1.315 . S
C246 O241 1.279 . S
C247 O248 1.315 . S
C247 O249 1.279 . S
O248 Cd240 2.223 . S
O248 C247 1.315 . S
O249 Cd239 2.240 . S
O249 C247 1.279 . S
O250 Cd240 2.297 . S
O250 C245 1.247 . S
O251 Cd240 2.439 . S
O251 C245 1.208 . S
O252 Cd253 2.223 . S
O252 C260 1.315 . S
Cd253 O252 2.223 . S
Cd253 O256 2.297 . S
Cd253 O257 2.439 . S
Cd253 O263 2.240 . S
Cd254 O255 2.240 . S
Cd254 O262 2.223 . S
Cd254 O264 2.297 . S
Cd254 O265 2.439 . S
O255 Cd254 2.240 . S
O255 C260 1.279 . S
O256 Cd253 2.297 . S
O256 C258 1.247 . S
O257 Cd253 2.439 . S
O257 C258 1.208 . S
C258 O256 1.247 . S
C258 O257 1.208 . S
C259 O264 1.247 . S
C259 O265 1.208 . S
C260 O252 1.315 . S
C260 O255 1.279 . S
C261 O262 1.315 . S
C261 O263 1.279 . S
O262 Cd254 2.223 . S
O262 C261 1.315 . S
O263 Cd253 2.240 . S
O263 C261 1.279 . S
O264 Cd254 2.297 . S
O264 C259 1.247 . S
O265 Cd254 2.439 . S
O265 C259 1.208 . S
O266 Cd267 2.223 . S
O266 C274 1.315 . S
Cd267 O266 2.223 . S
Cd267 O270 2.297 . S
Cd267 O271 2.439 . S
Cd267 O277 2.240 . S
Cd268 O269 2.240 . S
Cd268 O276 2.223 . S
Cd268 O278 2.297 . S
Cd268 O279 2.439 . S
O269 Cd268 2.240 . S
O269 C274 1.279 . S
O270 Cd267 2.297 . S
O270 C272 1.247 . S
O271 Cd267 2.439 . S
O271 C272 1.208 . S
C272 O270 1.247 . S
C272 O271 1.208 . S
C273 O278 1.247 . S
C273 O279 1.208 . S
C274 O266 1.315 . S
C274 O269 1.279 . S
C275 O276 1.315 . S
C275 O277 1.279 . S
O276 Cd268 2.223 . S
O276 C275 1.315 . S
O277 Cd267 2.240 . S
O277 C275 1.279 . S
O278 Cd268 2.297 . S
O278 C273 1.247 . S
O279 Cd268 2.439 . S
O279 C273 1.208 . S
O280 Cd281 2.223 . S
O280 C288 1.315 . S
Cd281 O280 2.223 . S
Cd281 O284 2.297 . S
Cd281 O285 2.439 . S
Cd281 O291 2.240 . S
Cd282 O283 2.240 . S
Cd282 O290 2.223 . S
Cd282 O292 2.297 . S
Cd282 O293 2.439 . S
O283 Cd282 2.240 . S
O283 C288 1.279 . S
O284 Cd281 2.297 . S
O284 C286 1.247 . S
O285 Cd281 2.439 . S
O285 C286 1.208 . S
C286 O284 1.247 . S
C286 O285 1.208 . S
C287 O292 1.247 . S
C287 O293 1.208 . S
C288 O280 1.315 . S
C288 O283 1.279 . S
C289 O290 1.315 . S
C289 O291 1.279 . S
O290 Cd282 2.223 . S
O290 C289 1.315 . S
O291 Cd281 2.240 . S
O291 C289 1.279 . S
O292 Cd282 2.297 . S
O292 C287 1.247 . S
O293 Cd282 2.439 . S
O293 C287 1.208 . S
O294 Cd295 2.223 . S
O294 C302 1.315 . S
Cd295 O294 2.223 . S
Cd295 O298 2.297 . S
Cd295 O299 2.439 . S
Cd295 O305 2.240 . S
Cd296 O297 2.240 . S
Cd296 O304 2.223 . S
Cd296 O306 2.297 . S
Cd296 O307 2.439 . S
O297 Cd296 2.240 . S
O297 C302 1.279 . S
O298 Cd295 2.297 . S
O298 C300 1.247 . S
O299 Cd295 2.439 . S
O299 C300 1.208 . S
C300 O298 1.247 . S
C300 O299 1.208 . S
C301 O306 1.247 . S
C301 O307 1.208 . S
C302 O294 1.315 . S
C302 O297 1.279 . S
C303 O304 1.315 . S
C303 O305 1.279 . S
O304 Cd296 2.223 . S
O304 C303 1.315 . S
O305 Cd295 2.240 . S
O305 C303 1.279 . S
O306 Cd296 2.297 . S
O306 C301 1.247 . S
O307 Cd296 2.439 . S
O307 C301 1.208 . S
O308 Cd309 2.223 . S
O308 C316 1.315 . S
Cd309 O308 2.223 . S
Cd309 O312 2.297 . S
Cd309 O313 2.439 . S
Cd309 O319 2.240 . S
Cd310 O311 2.240 . S
Cd310 O318 2.223 . S
Cd310 O320 2.297 . S
Cd310 O321 2.439 . S
O311 Cd310 2.240 . S
O311 C316 1.279 . S
O312 Cd309 2.297 . S
O312 C314 1.247 . S
O313 Cd309 2.439 . S
O313 C314 1.208 . S
C314 O312 1.247 . S
C314 O313 1.208 . S
C315 O320 1.247 . S
C315 O321 1.208 . S
C316 O308 1.315 . S
C316 O311 1.279 . S
C317 O318 1.315 . S
C317 O319 1.279 . S
O318 Cd310 2.223 . S
O318 C317 1.315 . S
O319 Cd309 2.240 . S
O319 C317 1.279 . S
O320 Cd310 2.297 . S
O320 C315 1.247 . S
O321 Cd310 2.439 . S
O321 C315 1.208 . S
O322 Cd323 2.223 . S
O322 C330 1.315 . S
Cd323 O322 2.223 . S
Cd323 O326 2.297 . S
Cd323 O327 2.439 . S
Cd323 O333 2.240 . S
Cd324 O325 2.240 . S
Cd324 O332 2.223 . S
Cd324 O334 2.297 . S
Cd324 O335 2.439 . S
O325 Cd324 2.240 . S
O325 C330 1.279 . S
O326 Cd323 2.297 . S
O326 C328 1.247 . S
O327 Cd323 2.439 . S
O327 C328 1.208 . S
C328 O326 1.247 . S
C328 O327 1.208 . S
C329 O334 1.247 . S
C329 O335 1.208 . S
C330 O322 1.315 . S
C330 O325 1.279 . S
C331 O332 1.315 . S
C331 O333 1.279 . S
O332 Cd324 2.223 . S
O332 C331 1.315 . S
O333 Cd323 2.240 . S
O333 C331 1.279 . S
O334 Cd324 2.297 . S
O334 C329 1.247 . S
O335 Cd324 2.439 . S
O335 C329 1.208 . S
O336 Cd337 2.223 . S
O336 C344 1.315 . S
Cd337 O336 2.223 . S
Cd337 O340 2.297 . S
Cd337 O341 2.439 . S
Cd337 O347 2.240 . S
Cd338 O339 2.240 . S
Cd338 O346 2.223 . S
Cd338 O348 2.297 . S
Cd338 O349 2.439 . S
O339 Cd338 2.240 . S
O339 C344 1.279 . S
O340 Cd337 2.297 . S
O340 C342 1.247 . S
O341 Cd337 2.439 . S
O341 C342 1.208 . S
C342 O340 1.247 . S
C342 O341 1.208 . S
C343 O348 1.247 . S
C343 O349 1.208 . S
C344 O336 1.315 . S
C344 O339 1.279 . S
C345 O346 1.315 . S
C345 O347 1.279 . S
O346 Cd338 2.223 . S
O346 C345 1.315 . S
O347 Cd337 2.240 . S
O347 C345 1.279 . S
O348 Cd338 2.297 . S
O348 C343 1.247 . S
O349 Cd338 2.439 . S
O349 C343 1.208 . S
O350 Cd351 2.223 . S
O350 C358 1.315 . S
Cd351 O350 2.223 . S
Cd351 O354 2.297 . S
Cd351 O355 2.439 . S
Cd351 O361 2.240 . S
Cd352 O353 2.240 . S
Cd352 O360 2.223 . S
Cd352 O362 2.297 . S
Cd352 O363 2.439 . S
O353 Cd352 2.240 . S
O353 C358 1.279 . S
O354 Cd351 2.297 . S
O354 C356 1.247 . S
O355 Cd351 2.439 . S
O355 C356 1.208 . S
C356 O354 1.247 . S
C356 O355 1.208 . S
C357 O362 1.247 . S
C357 O363 1.208 . S
C358 O350 1.315 . S
C358 O353 1.279 . S
C359 O360 1.315 . S
C359 O361 1.279 . S
O360 Cd352 2.223 . S
O360 C359 1.315 . S
O361 Cd351 2.240 . S
O361 C359 1.279 . S
O362 Cd352 2.297 . S
O362 C357 1.247 . S
O363 Cd352 2.439 . S
O363 C357 1.208 . S
O364 Cd365 2.223 . S
O364 C372 1.315 . S
Cd365 O364 2.223 . S
Cd365 O368 2.297 . S
Cd365 O369 2.439 . S
Cd365 O375 2.240 . S
Cd366 O367 2.240 . S
Cd366 O374 2.223 . S
Cd366 O376 2.297 . S
Cd366 O377 2.439 . S
O367 Cd366 2.240 . S
O367 C372 1.279 . S
O368 Cd365 2.297 . S
O368 C370 1.247 . S
O369 Cd365 2.439 . S
O369 C370 1.208 . S
C370 O368 1.247 . S
C370 O369 1.208 . S
C371 O376 1.247 . S
C371 O377 1.208 . S
C372 O364 1.315 . S
C372 O367 1.279 . S
C373 O374 1.315 . S
C373 O375 1.279 . S
O374 Cd366 2.223 . S
O374 C373 1.315 . S
O375 Cd365 2.240 . S
O375 C373 1.279 . S
O376 Cd366 2.297 . S
O376 C371 1.247 . S
O377 Cd366 2.439 . S
O377 C371 1.208 . S
O378 Cd379 2.223 . S
O378 C386 1.315 . S
Cd379 O378 2.223 . S
Cd379 O382 2.297 . S
Cd379 O383 2.439 . S
Cd379 O389 2.240 . S
Cd380 O381 2.240 . S
Cd380 O388 2.223 . S
Cd380 O390 2.297 . S
Cd380 O391 2.439 . S
O381 Cd380 2.240 . S
O381 C386 1.279 . S
O382 Cd379 2.297 . S
O382 C384 1.247 . S
O383 Cd379 2.439 . S
O383 C384 1.208 . S
C384 O382 1.247 . S
C384 O383 1.208 . S
C385 O390 1.247 . S
C385 O391 1.208 . S
C386 O378 1.315 . S
C386 O381 1.279 . S
C387 O388 1.315 . S
C387 O389 1.279 . S
O388 Cd380 2.223 . S
O388 C387 1.315 . S
O389 Cd379 2.240 . S
O389 C387 1.279 . S
O390 Cd380 2.297 . S
O390 C385 1.247 . S
O391 Cd380 2.439 . S
O391 C385 1.208 . S
O392 Cd393 2.223 . S
O392 C400 1.315 . S
Cd393 O392 2.223 . S
Cd393 O396 2.297 . S
Cd393 O397 2.439 . S
Cd393 O403 2.240 . S
Cd394 O395 2.240 . S
Cd394 O402 2.223 . S
Cd394 O404 2.297 . S
Cd394 O405 2.439 . S
O395 Cd394 2.240 . S
O395 C400 1.279 . S
O396 Cd393 2.297 . S
O396 C398 1.247 . S
O397 Cd393 2.439 . S
O397 C398 1.208 . S
C398 O396 1.247 . S
C398 O397 1.208 . S
C399 O404 1.247 . S
C399 O405 1.208 . S
C400 O392 1.315 . S
C400 O395 1.279 . S
C401 O402 1.315 . S
C401 O403 1.279 . S
O402 Cd394 2.223 . S
O402 C401 1.315 . S
O403 Cd393 2.240 . S
O403 C401 1.279 . S
O404 Cd394 2.297 . S
O404 C399 1.247 . S
O405 Cd394 2.439 . S
O405 C399 1.208 . S
O406 Cd407 2.223 . S
O406 C414 1.315 . S
Cd407 O406 2.223 . S
Cd407 O410 2.297 . S
Cd407 O411 2.439 . S
Cd407 O417 2.240 . S
Cd408 O409 2.240 . S
Cd408 O416 2.223 . S
Cd408 O418 2.297 . S
Cd408 O419 2.439 . S
O409 Cd408 2.240 . S
O409 C414 1.279 . S
O410 Cd407 2.297 . S
O410 C412 1.247 . S
O411 Cd407 2.439 . S
O411 C412 1.208 . S
C412 O410 1.247 . S
C412 O411 1.208 . S
C413 O418 1.247 . S
C413 O419 1.208 . S
C414 O406 1.315 . S
C414 O409 1.279 . S
C415 O416 1.315 . S
C415 O417 1.279 . S
O416 Cd408 2.223 . S
O416 C415 1.315 . S
O417 Cd407 2.240 . S
O417 C415 1.279 . S
O418 Cd408 2.297 . S
O418 C413 1.247 . S
O419 Cd408 2.439 . S
O419 C413 1.208 . S
O420 Cd421 2.223 . S
O420 C428 1.315 . S
Cd421 O420 2.223 . S
Cd421 O424 2.297 . S
Cd421 O425 2.439 . S
Cd421 O431 2.240 . S
Cd422 O423 2.240 . S
Cd422 O430 2.223 . S
Cd422 O432 2.297 . S
Cd422 O433 2.439 . S
O423 Cd422 2.240 . S
O423 C428 1.279 . S
O424 Cd421 2.297 . S
O424 C426 1.247 . S
O425 Cd421 2.439 . S
O425 C426 1.208 . S
C426 O424 1.247 . S
C426 O425 1.208 . S
C427 O432 1.247 . S
C427 O433 1.208 . S
C428 O420 1.315 . S
C428 O423 1.279 . S
C429 O430 1.315 . S
C429 O431 1.279 . S
O430 Cd422 2.223 . S
O430 C429 1.315 . S
O431 Cd421 2.240 . S
O431 C429 1.279 . S
O432 Cd422 2.297 . S
O432 C427 1.247 . S
O433 Cd422 2.439 . S
O433 C427 1.208 . S
O434 Cd435 2.223 . S
O434 C442 1.315 . S
Cd435 O434 2.223 . S
Cd435 O438 2.297 . S
Cd435 O439 2.439 . S
Cd435 O445 2.240 . S
Cd436 O437 2.240 . S
Cd436 O444 2.223 . S
Cd436 O446 2.297 . S
Cd436 O447 2.439 . S
O437 Cd436 2.240 . S
O437 C442 1.279 . S
O438 Cd435 2.297 . S
O438 C440 1.247 . S
O439 Cd435 2.439 . S
O439 C440 1.208 . S
C440 O438 1.247 . S
C440 O439 1.208 . S
C441 O446 1.247 . S
C441 O447 1.208 . S
C442 O434 1.315 . S
C442 O437 1.279 . S
C443 O444 1.315 . S
C443 O445 1.279 . S
O444 Cd436 2.223 . S
O444 C443 1.315 . S
O445 Cd435 2.240 . S
O445 C443 1.279 . S
O446 Cd436 2.297 . S
O446 C441 1.247 . S
O447 Cd436 2.439 . S
O447 C441 1.208 . S
O448 Cd449 2.223 . S
O448 C456 1.315 . S
Cd449 O448 2.223 . S
Cd449 O452 2.297 . S
Cd449 O453 2.439 . S
Cd449 O459 2.240 . S
Cd450 O451 2.240 . S
Cd450 O458 2.223 . S
Cd450 O460 2.297 . S
Cd450 O461 2.439 . S
O451 Cd450 2.240 . S
O451 C456 1.279 . S
O452 Cd449 2.297 . S
O452 C454 1.247 . S
O453 Cd449 2.439 . S
O453 C454 1.208 . S
C454 O452 1.247 . S
C454 O453 1.208 . S
C455 O460 1.247 . S
C455 O461 1.208 . S
C456 O448 1.315 . S
C456 O451 1.279 . S
C457 O458 1.315 . S
C457 O459 1.279 . S
O458 Cd450 2.223 . S
O458 C457 1.315 . S
O459 Cd449 2.240 . S
O459 C457 1.279 . S
O460 Cd450 2.297 . S
O460 C455 1.247 . S
O461 Cd450 2.439 . S
O461 C455 1.208 . S
O462 Cd463 2.223 . S
O462 C470 1.315 . S
Cd463 O462 2.223 . S
Cd463 O466 2.297 . S
Cd463 O467 2.439 . S
Cd463 O473 2.240 . S
Cd464 O465 2.240 . S
Cd464 O472 2.223 . S
Cd464 O474 2.297 . S
Cd464 O475 2.439 . S
O465 Cd464 2.240 . S
O465 C470 1.279 . S
O466 Cd463 2.297 . S
O466 C468 1.247 . S
O467 Cd463 2.439 . S
O467 C468 1.208 . S
C468 O466 1.247 . S
C468 O467 1.208 . S
C469 O474 1.247 . S
C469 O475 1.208 . S
C470 O462 1.315 . S
C470 O465 1.279 . S
C471 O472 1.315 . S
C471 O473 1.279 . S
O472 Cd464 2.223 . S
O472 C471 1.315 . S
O473 Cd463 2.240 . S
O473 C471 1.279 . S
O474 Cd464 2.297 . S
O474 C469 1.247 . S
O475 Cd464 2.439 . S
O475 C469 1.208 . S
O476 Cd477 2.223 . S
O476 C484 1.315 . S
Cd477 O476 2.223 . S
Cd477 O480 2.297 . S
Cd477 O481 2.439 . S
Cd477 O487 2.240 . S
Cd478 O479 2.240 . S
Cd478 O486 2.223 . S
Cd478 O488 2.297 . S
Cd478 O489 2.439 . S
O479 Cd478 2.240 . S
O479 C484 1.279 . S
O480 Cd477 2.297 . S
O480 C482 1.247 . S
O481 Cd477 2.439 . S
O481 C482 1.208 . S
C482 O480 1.247 . S
C482 O481 1.208 . S
C483 O488 1.247 . S
C483 O489 1.208 . S
C484 O476 1.315 . S
C484 O479 1.279 . S
C485 O486 1.315 . S
C485 O487 1.279 . S
O486 Cd478 2.223 . S
O486 C485 1.315 . S
O487 Cd477 2.240 . S
O487 C485 1.279 . S
O488 Cd478 2.297 . S
O488 C483 1.247 . S
O489 Cd478 2.439 . S
O489 C483 1.208 . S
O490 Cd491 2.223 . S
O490 C498 1.315 . S
Cd491 O490 2.223 . S
Cd491 O494 2.297 . S
Cd491 O495 2.439 . S
Cd491 O501 2.240 . S
Cd492 O493 2.240 . S
Cd492 O500 2.223 . S
Cd492 O502 2.297 . S
Cd492 O503 2.439 . S
O493 Cd492 2.240 . S
O493 C498 1.279 . S
O494 Cd491 2.297 . S
O494 C496 1.247 . S
O495 Cd491 2.439 . S
O495 C496 1.208 . S
C496 O494 1.247 . S
C496 O495 1.208 . S
C497 O502 1.247 . S
C497 O503 1.208 . S
C498 O490 1.315 . S
C498 O493 1.279 . S
C499 O500 1.315 . S
C499 O501 1.279 . S
O500 Cd492 2.223 . S
O500 C499 1.315 . S
O501 Cd491 2.240 . S
O501 C499 1.279 . S
O502 Cd492 2.297 . S
O502 C497 1.247 . S
O503 Cd492 2.439 . S
O503 C497 1.208 . S
O504 Cd505 2.223 . S
O504 C512 1.315 . S
Cd505 O504 2.223 . S
Cd505 O508 2.297 . S
Cd505 O509 2.439 . S
Cd505 O515 2.240 . S
Cd506 O507 2.240 . S
Cd506 O514 2.223 . S
Cd506 O516 2.297 . S
Cd506 O517 2.439 . S
O507 Cd506 2.240 . S
O507 C512 1.279 . S
O508 Cd505 2.297 . S
O508 C510 1.247 . S
O509 Cd505 2.439 . S
O509 C510 1.208 . S
C510 O508 1.247 . S
C510 O509 1.208 . S
C511 O516 1.247 . S
C511 O517 1.208 . S
C512 O504 1.315 . S
C512 O507 1.279 . S
C513 O514 1.315 . S
C513 O515 1.279 . S
O514 Cd506 2.223 . S
O514 C513 1.315 . S
O515 Cd505 2.240 . S
O515 C513 1.279 . S
O516 Cd506 2.297 . S
O516 C511 1.247 . S
O517 Cd506 2.439 . S
O517 C511 1.208 . S
O518 Cd519 2.223 . S
O518 C526 1.315 . S
Cd519 O518 2.223 . S
Cd519 O522 2.297 . S
Cd519 O523 2.439 . S
Cd519 O529 2.240 . S
Cd520 O521 2.240 . S
Cd520 O528 2.223 . S
Cd520 O530 2.297 . S
Cd520 O531 2.439 . S
O521 Cd520 2.240 . S
O521 C526 1.279 . S
O522 Cd519 2.297 . S
O522 C524 1.247 . S
O523 Cd519 2.439 . S
O523 C524 1.208 . S
C524 O522 1.247 . S
C524 O523 1.208 . S
C525 O530 1.247 . S
C525 O531 1.208 . S
C526 O518 1.315 . S
C526 O521 1.279 . S
C527 O528 1.315 . S
C527 O529 1.279 . S
O528 Cd520 2.223 . S
O528 C527 1.315 . S
O529 Cd519 2.240 . S
O529 C527 1.279 . S
O530 Cd520 2.297 . S
O530 C525 1.247 . S
O531 Cd520 2.439 . S
O531 C525 1.208 . S
O532 Cd533 2.223 . S
O532 C540 1.315 . S
Cd533 O532 2.223 . S
Cd533 O536 2.297 . S
Cd533 O537 2.439 . S
Cd533 O543 2.240 . S
Cd534 O535 2.240 . S
Cd534 O542 2.223 . S
Cd534 O544 2.297 . S
Cd534 O545 2.439 . S
O535 Cd534 2.240 . S
O535 C540 1.279 . S
O536 Cd533 2.297 . S
O536 C538 1.247 . S
O537 Cd533 2.439 . S
O537 C538 1.208 . S
C538 O536 1.247 . S
C538 O537 1.208 . S
C539 O544 1.247 . S
C539 O545 1.208 . S
C540 O532 1.315 . S
C540 O535 1.279 . S
C541 O542 1.315 . S
C541 O543 1.279 . S
O542 Cd534 2.223 . S
O542 C541 1.315 . S
O543 Cd533 2.240 . S
O543 C541 1.279 . S
O544 Cd534 2.297 . S
O544 C539 1.247 . S
O545 Cd534 2.439 . S
O545 C539 1.208 . S
O546 Cd547 2.223 . S
O546 C554 1.315 . S
Cd547 O546 2.223 . S
Cd547 O550 2.297 . S
Cd547 O551 2.439 . S
Cd547 O557 2.240 . S
Cd548 O549 2.240 . S
Cd548 O556 2.223 . S
Cd548 O558 2.297 . S
Cd548 O559 2.439 . S
O549 Cd548 2.240 . S
O549 C554 1.279 . S
O550 Cd547 2.297 . S
O550 C552 1.247 . S
O551 Cd547 2.439 . S
O551 C552 1.208 . S
C552 O550 1.247 . S
C552 O551 1.208 . S
C553 O558 1.247 . S
C553 O559 1.208 . S
C554 O546 1.315 . S
C554 O549 1.279 . S
C555 O556 1.315 . S
C555 O557 1.279 . S
O556 Cd548 2.223 . S
O556 C555 1.315 . S
O557 Cd547 2.240 . S
O557 C555 1.279 . S
O558 Cd548 2.297 . S
O558 C553 1.247 . S
O559 Cd548 2.439 . S
O559 C553 1.208 . S
O560 Cd561 2.223 . S
O560 C568 1.315 . S
Cd561 O560 2.223 . S
Cd561 O564 2.297 . S
Cd561 O565 2.439 . S
Cd561 O571 2.240 . S
Cd562 O563 2.240 . S
Cd562 O570 2.223 . S
Cd562 O572 2.297 . S
Cd562 O573 2.439 . S
O563 Cd562 2.240 . S
O563 C568 1.279 . S
O564 Cd561 2.297 . S
O564 C566 1.247 . S
O565 Cd561 2.439 . S
O565 C566 1.208 . S
C566 O564 1.247 . S
C566 O565 1.208 . S
C567 O572 1.247 . S
C567 O573 1.208 . S
C568 O560 1.315 . S
C568 O563 1.279 . S
C569 O570 1.315 . S
C569 O571 1.279 . S
O570 Cd562 2.223 . S
O570 C569 1.315 . S
O571 Cd561 2.240 . S
O571 C569 1.279 . S
O572 Cd562 2.297 . S
O572 C567 1.247 . S
O573 Cd562 2.439 . S
O573 C567 1.208 . S
O574 Cd575 2.223 . S
O574 C582 1.315 . S
Cd575 O574 2.223 . S
Cd575 O578 2.297 . S
Cd575 O579 2.439 . S
Cd575 O585 2.240 . S
Cd576 O577 2.240 . S
Cd576 O584 2.223 . S
Cd576 O586 2.297 . S
Cd576 O587 2.439 . S
O577 Cd576 2.240 . S
O577 C582 1.279 . S
O578 Cd575 2.297 . S
O578 C580 1.247 . S
O579 Cd575 2.439 . S
O579 C580 1.208 . S
C580 O578 1.247 . S
C580 O579 1.208 . S
C581 O586 1.247 . S
C581 O587 1.208 . S
C582 O574 1.315 . S
C582 O577 1.279 . S
C583 O584 1.315 . S
C583 O585 1.279 . S
O584 Cd576 2.223 . S
O584 C583 1.315 . S
O585 Cd575 2.240 . S
O585 C583 1.279 . S
O586 Cd576 2.297 . S
O586 C581 1.247 . S
O587 Cd576 2.439 . S
O587 C581 1.208 . S
O588 Cd589 2.223 . S
O588 C596 1.315 . S
Cd589 O588 2.223 . S
Cd589 O592 2.297 . S
Cd589 O593 2.439 . S
Cd589 O599 2.240 . S
Cd590 O591 2.240 . S
Cd590 O598 2.223 . S
Cd590 O600 2.297 . S
Cd590 O601 2.439 . S
O591 Cd590 2.240 . S
O591 C596 1.279 . S
O592 Cd589 2.297 . S
O592 C594 1.247 . S
O593 Cd589 2.439 . S
O593 C594 1.208 . S
C594 O592 1.247 . S
C594 O593 1.208 . S
C595 O600 1.247 . S
C595 O601 1.208 . S
C596 O588 1.315 . S
C596 O591 1.279 . S
C597 O598 1.315 . S
C597 O599 1.279 . S
O598 Cd590 2.223 . S
O598 C597 1.315 . S
O599 Cd589 2.240 . S
O599 C597 1.279 . S
O600 Cd590 2.297 . S
O600 C595 1.247 . S
O601 Cd590 2.439 . S
O601 C595 1.208 . S
O602 Cd603 2.223 . S
O602 C610 1.315 . S
Cd603 O602 2.223 . S
Cd603 O606 2.297 . S
Cd603 O607 2.439 . S
Cd603 O613 2.240 . S
Cd604 O605 2.240 . S
Cd604 O612 2.223 . S
Cd604 O614 2.297 . S
Cd604 O615 2.439 . S
O605 Cd604 2.240 . S
O605 C610 1.279 . S
O606 Cd603 2.297 . S
O606 C608 1.247 . S
O607 Cd603 2.439 . S
O607 C608 1.208 . S
C608 O606 1.247 . S
C608 O607 1.208 . S
C609 O614 1.247 . S
C609 O615 1.208 . S
C610 O602 1.315 . S
C610 O605 1.279 . S
C611 O612 1.315 . S
C611 O613 1.279 . S
O612 Cd604 2.223 . S
O612 C611 1.315 . S
O613 Cd603 2.240 . S
O613 C611 1.279 . S
O614 Cd604 2.297 . S
O614 C609 1.247 . S
O615 Cd604 2.439 . S
O615 C609 1.208 . S
O616 Cd617 2.223 . S
O616 C624 1.315 . S
Cd617 O616 2.223 . S
Cd617 O620 2.297 . S
Cd617 O621 2.439 . S
Cd617 O627 2.240 . S
Cd618 O619 2.240 . S
Cd618 O626 2.223 . S
Cd618 O628 2.297 . S
Cd618 O629 2.439 . S
O619 Cd618 2.240 . S
O619 C624 1.279 . S
O620 Cd617 2.297 . S
O620 C622 1.247 . S
O621 Cd617 2.439 . S
O621 C622 1.208 . S
C622 O620 1.247 . S
C622 O621 1.208 . S
C623 O628 1.247 . S
C623 O629 1.208 . S
C624 O616 1.315 . S
C624 O619 1.279 . S
C625 O626 1.315 . S
C625 O627 1.279 . S
O626 Cd618 2.223 . S
O626 C625 1.315 . S
O627 Cd617 2.240 . S
O627 C625 1.279 . S
O628 Cd618 2.297 . S
O628 C623 1.247 . S
O629 Cd618 2.439 . S
O629 C623 1.208 . S
O630 Cd631 2.223 . S
O630 C638 1.315 . S
Cd631 O630 2.223 . S
Cd631 O634 2.297 . S
Cd631 O635 2.439 . S
Cd631 O641 2.240 . S
Cd632 O633 2.240 . S
Cd632 O640 2.223 . S
Cd632 O642 2.297 . S
Cd632 O643 2.439 . S
O633 Cd632 2.240 . S
O633 C638 1.279 . S
O634 Cd631 2.297 . S
O634 C636 1.247 . S
O635 Cd631 2.439 . S
O635 C636 1.208 . S
C636 O634 1.247 . S
C636 O635 1.208 . S
C637 O642 1.247 . S
C637 O643 1.208 . S
C638 O630 1.315 . S
C638 O633 1.279 . S
C639 O640 1.315 . S
C639 O641 1.279 . S
O640 Cd632 2.223 . S
O640 C639 1.315 . S
O641 Cd631 2.240 . S
O641 C639 1.279 . S
O642 Cd632 2.297 . S
O642 C637 1.247 . S
O643 Cd632 2.439 . S
O643 C637 1.208 . S
O644 Cd645 2.223 . S
O644 C652 1.315 . S
Cd645 O644 2.223 . S
Cd645 O648 2.297 . S
Cd645 O649 2.439 . S
Cd645 O655 2.240 . S
Cd646 O647 2.240 . S
Cd646 O654 2.223 . S
Cd646 O656 2.297 . S
Cd646 O657 2.439 . S
O647 Cd646 2.240 . S
O647 C652 1.279 . S
O648 Cd645 2.297 . S
O648 C650 1.247 . S
O649 Cd645 2.439 . S
O649 C650 1.208 . S
C650 O648 1.247 . S
C650 O649 1.208 . S
C651 O656 1.247 . S
C651 O657 1.208 . S
C652 O644 1.315 . S
C652 O647 1.279 . S
C653 O654 1.315 . S
C653 O655 1.279 . S
O654 Cd646 2.223 . S
O654 C653 1.315 . S
O655 Cd645 2.240 . S
O655 C653 1.279 . S
O656 Cd646 2.297 . S
O656 C651 1.247 . S
O657 Cd646 2.439 . S
O657 C651 1.208 . S
O658 Cd659 2.223 . S
O658 C666 1.315 . S
Cd659 O658 2.223 . S
Cd659 O662 2.297 . S
Cd659 O663 2.439 . S
Cd659 O669 2.240 . S
Cd660 O661 2.240 . S
Cd660 O668 2.223 . S
Cd660 O670 2.297 . S
Cd660 O671 2.439 . S
O661 Cd660 2.240 . S
O661 C666 1.279 . S
O662 Cd659 2.297 . S
O662 C664 1.247 . S
O663 Cd659 2.439 . S
O663 C664 1.208 . S
C664 O662 1.247 . S
C664 O663 1.208 . S
C665 O670 1.247 . S
C665 O671 1.208 . S
C666 O658 1.315 . S
C666 O661 1.279 . S
C667 O668 1.315 . S
C667 O669 1.279 . S
O668 Cd660 2.223 . S
O668 C667 1.315 . S
O669 Cd659 2.240 . S
O669 C667 1.279 . S
O670 Cd660 2.297 . S
O670 C665 1.247 . S
O671 Cd660 2.439 . S
O671 C665 1.208 . S
H672 C680 0.929 . S
H673 C682 0.930 . S
H674 C684 0.930 1_455 S
H675 C687 0.929 . S
H676 C690 0.930 . S
H677 C692 0.960 . S
H678 C692 0.960 . S
H679 C692 0.960 . S
C680 H672 0.929 . S
C680 C681 1.377 . S
C680 C682 1.384 . S
C681 C680 1.377 . S
C681 C687 1.390 . S
C682 H673 0.930 . S
C682 C680 1.384 . S
C682 C683 1.372 . S
C683 C682 1.372 . S
C683 C684 1.400 . S
C683 C688 1.490 . S
C684 H674 0.930 1_655 S
C684 C683 1.400 . S
C684 C687 1.386 . S
H685 C701 0.930 . S
H686 C702 0.931 . S
C687 H675 0.929 . S
C687 C681 1.390 . S
C687 C684 1.386 . S
C688 C683 1.490 . S
C688 C690 1.395 . S
C688 C691 1.403 1_655 S
H689 C695 0.930 . S
C690 H676 0.930 . S
C690 C688 1.395 . S
C690 C693 1.403 . S
C691 C688 1.403 1_455 S
C691 C692 1.524 . S
C691 C695 1.400 . S
C692 H677 0.960 . S
C692 H678 0.960 . S
C692 H679 0.960 . S
C692 C691 1.524 . S
C693 C690 1.403 . S
C693 C694 1.392 1_655 S
C693 C697 1.495 . S
C694 C693 1.392 1_455 S
C694 C695 1.385 . S
C694 C696 1.478 . S
C695 H689 0.930 . S
C695 C691 1.400 . S
C695 C694 1.385 . S
C696 C694 1.478 . S
C696 C698 1.396 . S
C696 C702 1.383 . S
C697 C693 1.495 . S
C697 H703 0.959 . S
C697 H704 0.961 . S
C697 H705 0.960 . S
C698 C696 1.396 . S
C698 C699 1.409 . S
C698 H706 0.902 1_455 S
C699 C698 1.409 . S
C699 C700 1.383 . S
C699 H707 0.929 . S
C700 C699 1.383 . S
C700 C701 1.377 . S
C701 H685 0.930 . S
C701 C700 1.377 . S
C701 C702 1.379 . S
C702 H686 0.931 . S
C702 C696 1.383 . S
C702 C701 1.379 . S
H703 C697 0.959 . S
H704 C697 0.961 . S
H705 C697 0.960 . S
H706 C698 0.902 1_655 S
H707 C699 0.929 . S
H708 C716 0.929 . S
H709 C718 0.930 . S
H710 C720 0.942 . S
H711 C723 0.929 . S
H712 C726 0.930 . S
H713 C728 0.960 . S
H714 C728 0.960 . S
H715 C728 0.960 . S
C716 H708 0.929 . S
C716 C717 1.377 . S
C716 C718 1.384 . S
C717 C716 1.377 . S
C717 C723 1.390 . S
C718 H709 0.930 . S
C718 C716 1.384 . S
C718 C719 1.372 . S
C719 C718 1.372 . S
C719 C720 1.400 . S
C719 C724 1.490 . S
C720 H710 0.942 . S
C720 C719 1.400 . S
C720 C723 1.386 . S
H721 C737 0.930 . S
H722 C738 0.931 . S
C723 H711 0.929 . S
C723 C717 1.390 . S
C723 C720 1.386 . S
C724 C719 1.490 . S
C724 C726 1.395 . S
C724 C727 1.403 1_455 S
H725 C731 0.930 . S
C726 H712 0.930 . S
C726 C724 1.395 . S
C726 C729 1.403 . S
C727 C724 1.403 1_655 S
C727 C728 1.524 . S
C727 C731 1.400 . S
C728 H713 0.960 . S
C728 H714 0.960 . S
C728 H715 0.960 . S
C728 C727 1.524 . S
C729 C726 1.403 . S
C729 C730 1.392 1_455 S
C729 C733 1.495 . S
C730 C729 1.392 1_655 S
C730 C731 1.385 . S
C730 C732 1.478 . S
C731 H725 0.930 . S
C731 C727 1.400 . S
C731 C730 1.385 . S
C732 C730 1.478 . S
C732 C734 1.381 . S
C732 C738 1.383 . S
C733 C729 1.495 . S
C733 H739 0.959 . S
C733 H740 0.961 . S
C733 H741 0.960 . S
C734 C732 1.381 . S
C734 C735 1.394 . S
C734 H742 0.936 . S
C735 C734 1.394 . S
C735 C736 1.383 . S
C735 H743 0.929 . S
C736 C735 1.383 . S
C736 C737 1.377 . S
C737 H721 0.930 . S
C737 C736 1.377 . S
C737 C738 1.379 . S
C738 H722 0.931 . S
C738 C732 1.383 . S
C738 C737 1.379 . S
H739 C733 0.959 . S
H740 C733 0.961 . S
H741 C733 0.960 . S
H742 C734 0.936 . S
H743 C735 0.929 . S
H744 C752 0.929 1_545 S
H745 C754 0.930 . S
H746 C756 0.930 . S
H747 C759 0.929 . S
H748 C762 0.930 . S
H749 C764 0.960 . S
H750 C764 0.960 . S
H751 C764 0.960 . S
C752 H744 0.929 1_565 S
C752 C753 1.377 . S
C752 C754 1.384 1_565 S
C753 C752 1.377 . S
C753 C759 1.390 . S
C754 H745 0.930 . S
C754 C752 1.384 1_545 S
C754 C755 1.372 1_545 S
C755 C754 1.372 1_565 S
C755 C756 1.400 . S
C755 C760 1.490 . S
C756 H746 0.930 . S
C756 C755 1.400 . S
C756 C759 1.386 . S
H757 C773 0.930 1_565 S
H758 C774 0.931 1_565 S
C759 H747 0.929 . S
C759 C753 1.390 . S
C759 C756 1.386 . S
C760 C755 1.490 . S
C760 C762 1.395 1_565 S
C760 C763 1.403 . S
H761 C767 0.930 . S
C762 H748 0.930 . S
C762 C760 1.395 1_545 S
C762 C765 1.403 . S
C763 C760 1.403 . S
C763 C764 1.524 . S
C763 C767 1.400 . S
C764 H749 0.960 . S
C764 H750 0.960 . S
C764 H751 0.960 . S
C764 C763 1.524 . S
C765 C762 1.403 . S
C765 C766 1.392 . S
C765 C769 1.495 . S
C766 C765 1.392 . S
C766 C767 1.385 1_545 S
C766 C768 1.478 . S
C767 H761 0.930 . S
C767 C763 1.400 . S
C767 C766 1.385 1_565 S
C768 C766 1.478 . S
C768 C770 1.381 . S
C768 C774 1.383 . S
C769 C765 1.495 . S
C769 H775 0.959 . S
C769 H776 0.961 . S
C769 H777 0.960 . S
C770 C768 1.381 . S
C770 C771 1.394 . S
C770 H778 0.930 . S
C771 C770 1.394 . S
C771 C772 1.383 . S
C771 H779 0.929 . S
C772 C771 1.383 . S
C772 C773 1.377 . S
C773 H757 0.930 1_545 S
C773 C772 1.377 . S
C773 C774 1.379 . S
C774 H758 0.931 1_545 S
C774 C768 1.383 . S
C774 C773 1.379 . S
H775 C769 0.959 . S
H776 C769 0.961 . S
H777 C769 0.960 . S
H778 C770 0.930 . S
H779 C771 0.929 . S
H780 C788 0.929 . S
H781 C790 0.930 . S
H782 C792 0.930 . S
H783 C795 0.929 . S
H784 C798 0.930 . S
H785 C800 0.960 . S
H786 C800 0.960 . S
H787 C800 0.960 . S
C788 H780 0.929 . S
C788 C789 1.377 . S
C788 C790 1.384 . S
C789 C788 1.377 . S
C789 C795 1.390 . S
C790 H781 0.930 . S
C790 C788 1.384 . S
C790 C791 1.372 . S
C791 C790 1.372 . S
C791 C792 1.400 . S
C791 C796 1.490 . S
C792 H782 0.930 . S
C792 C791 1.400 . S
C792 C795 1.386 . S
H793 C809 0.930 . S
H794 C810 0.931 . S
C795 H783 0.929 . S
C795 C789 1.390 . S
C795 C792 1.386 . S
C796 C791 1.490 . S
C796 C798 1.395 . S
C796 C799 1.403 . S
H797 C803 0.930 . S
C798 H784 0.930 . S
C798 C796 1.395 . S
C798 C801 1.403 . S
C799 C796 1.403 . S
C799 C800 1.524 . S
C799 C803 1.400 . S
C800 H785 0.960 . S
C800 H786 0.960 . S
C800 H787 0.960 . S
C800 C799 1.524 . S
C801 C798 1.403 . S
C801 C802 1.392 . S
C801 C805 1.495 . S
C802 C801 1.392 . S
C802 C803 1.385 . S
C802 C804 1.478 . S
C803 H797 0.930 . S
C803 C799 1.400 . S
C803 C802 1.385 . S
C804 C802 1.478 . S
C804 C806 1.381 . S
C804 C810 1.383 . S
C805 C801 1.495 . S
C805 H811 0.959 . S
C805 H812 0.961 . S
C805 H813 0.960 . S
C806 C804 1.381 . S
C806 C807 1.394 . S
C806 H814 0.930 . S
C807 C806 1.394 . S
C807 C808 1.383 . S
C807 H815 0.929 . S
C808 C807 1.383 . S
C808 C809 1.377 . S
C809 H793 0.930 . S
C809 C808 1.377 . S
C809 C810 1.379 . S
C810 H794 0.931 . S
C810 C804 1.383 . S
C810 C809 1.379 . S
H811 C805 0.959 . S
H812 C805 0.961 . S
H813 C805 0.960 . S
H814 C806 0.930 . S
H815 C807 0.929 . S
H816 C824 0.929 . S
H817 C826 0.930 . S
H818 C828 0.930 1_556 S
H819 C831 0.929 . S
H820 C834 0.930 . S
H821 C836 0.960 . S
H822 C836 0.960 . S
H823 C836 0.960 . S
C824 H816 0.929 . S
C824 C825 1.377 . S
C824 C826 1.384 . S
C825 C824 1.377 . S
C825 C831 1.390 . S
C826 H817 0.930 . S
C826 C824 1.384 . S
C826 C827 1.372 . S
C827 C826 1.372 . S
C827 C828 1.400 . S
C827 C832 1.490 . S
C828 H818 0.930 1_554 S
C828 C827 1.400 . S
C828 C831 1.386 . S
H829 C845 0.930 . S
H830 C846 0.931 . S
C831 H819 0.929 . S
C831 C825 1.390 . S
C831 C828 1.386 . S
C832 C827 1.490 . S
C832 C834 1.395 1_554 S
C832 C835 1.403 . S
H833 C839 0.930 . S
C834 H820 0.930 . S
C834 C832 1.395 1_556 S
C834 C837 1.403 . S
C835 C832 1.403 . S
C835 C836 1.524 . S
C835 C839 1.400 . S
C836 H821 0.960 . S
C836 H822 0.960 . S
C836 H823 0.960 . S
C836 C835 1.524 . S
C837 C834 1.403 . S
C837 C838 1.392 . S
C837 C841 1.495 . S
C838 C837 1.392 . S
C838 C839 1.385 1_556 S
C838 C840 1.478 . S
C839 H833 0.930 . S
C839 C835 1.400 . S
C839 C838 1.385 1_554 S
C840 C838 1.478 . S
C840 C842 1.381 . S
C840 C846 1.383 . S
C841 C837 1.495 . S
C841 H847 0.959 . S
C841 H848 0.961 . S
C841 H849 0.960 . S
C842 C840 1.381 . S
C842 C843 1.394 . S
C842 H850 0.930 1_556 S
C843 C842 1.394 . S
C843 C844 1.383 . S
C843 H851 0.937 . S
C844 C843 1.383 . S
C844 C845 1.377 . S
C845 H829 0.930 . S
C845 C844 1.377 . S
C845 C846 1.379 . S
C846 H830 0.931 . S
C846 C840 1.383 . S
C846 C845 1.379 . S
H847 C841 0.959 . S
H848 C841 0.961 . S
H849 C841 0.960 . S
H850 C842 0.930 1_554 S
H851 C843 0.937 . S
H852 C860 0.929 . S
H853 C862 0.930 . S
H854 C864 0.930 . S
H855 C867 0.929 . S
H856 C870 0.930 . S
H857 C872 0.960 . S
H858 C872 0.960 . S
H859 C872 0.960 . S
C860 H852 0.929 . S
C860 C861 1.377 . S
C860 C862 1.384 . S
C861 C860 1.377 . S
C861 C867 1.390 . S
C862 H853 0.930 . S
C862 C860 1.384 . S
C862 C863 1.372 . S
C863 C862 1.372 . S
C863 C864 1.400 . S
C863 C868 1.490 . S
C864 H854 0.930 . S
C864 C863 1.400 . S
C864 C867 1.386 . S
H865 C881 0.930 . S
H866 C882 0.931 . S
C867 H855 0.929 . S
C867 C861 1.390 . S
C867 C864 1.386 . S
C868 C863 1.490 . S
C868 C870 1.395 . S
C868 C871 1.403 . S
H869 C875 0.930 . S
C870 H856 0.930 . S
C870 C868 1.395 . S
C870 C873 1.403 . S
C871 C868 1.403 . S
C871 C872 1.524 . S
C871 C875 1.400 . S
C872 H857 0.960 . S
C872 H858 0.960 . S
C872 H859 0.960 . S
C872 C871 1.524 . S
C873 C870 1.403 . S
C873 C874 1.392 . S
C873 C877 1.495 . S
C874 C873 1.392 . S
C874 C875 1.385 . S
C874 C876 1.478 . S
C875 H869 0.930 . S
C875 C871 1.400 . S
C875 C874 1.385 . S
C876 C874 1.478 . S
C876 C878 1.381 . S
C876 C882 1.383 . S
C877 C873 1.495 . S
C877 H883 0.959 . S
C877 H884 0.961 . S
C877 H885 0.960 . S
C878 C876 1.381 . S
C878 C879 1.394 . S
C878 H886 0.930 . S
C879 C878 1.394 . S
C879 C880 1.383 . S
C879 H887 0.929 . S
C880 C879 1.383 . S
C880 C881 1.377 . S
C881 H865 0.930 . S
C881 C880 1.377 . S
C881 C882 1.379 . S
C882 H866 0.931 . S
C882 C876 1.383 . S
C882 C881 1.379 . S
H883 C877 0.959 . S
H884 C877 0.961 . S
H885 C877 0.960 . S
H886 C878 0.930 . S
H887 C879 0.929 . S
H888 C896 0.929 . S
H889 C898 0.930 . S
H890 C900 0.930 . S
H891 C903 0.929 . S
H892 C906 0.930 . S
H893 C908 0.960 . S
H894 C908 0.960 . S
H895 C908 0.960 . S
C896 H888 0.929 . S
C896 C897 1.377 . S
C896 C898 1.384 . S
C897 C896 1.377 . S
C897 C903 1.390 . S
C898 H889 0.930 . S
C898 C896 1.384 . S
C898 C899 1.372 . S
C899 C898 1.372 . S
C899 C900 1.400 . S
C899 C904 1.490 . S
C900 H890 0.930 . S
C900 C899 1.400 . S
C900 C903 1.386 . S
H901 C917 0.930 . S
H902 C918 0.931 . S
C903 H891 0.929 . S
C903 C897 1.390 . S
C903 C900 1.386 . S
C904 C899 1.490 . S
C904 C906 1.395 . S
C904 C907 1.403 . S
H905 C911 0.930 . S
C906 H892 0.930 . S
C906 C904 1.395 . S
C906 C909 1.403 . S
C907 C904 1.403 . S
C907 C908 1.524 . S
C907 C911 1.400 . S
C908 H893 0.960 . S
C908 H894 0.960 . S
C908 H895 0.960 . S
C908 C907 1.524 . S
C909 C906 1.403 . S
C909 C910 1.392 . S
C909 C913 1.495 . S
C910 C909 1.392 . S
C910 C911 1.385 . S
C910 C912 1.478 . S
C911 H905 0.930 . S
C911 C907 1.400 . S
C911 C910 1.385 . S
C912 C910 1.478 . S
C912 C914 1.381 . S
C912 C918 1.383 . S
C913 C909 1.495 . S
C913 H919 0.959 . S
C913 H920 0.961 . S
C913 H921 0.960 . S
C914 C912 1.381 . S
C914 C915 1.394 . S
C914 H922 0.930 . S
C915 C914 1.394 . S
C915 C916 1.383 . S
C915 H923 0.929 . S
C916 C915 1.383 . S
C916 C917 1.377 . S
C917 H901 0.930 . S
C917 C916 1.377 . S
C917 C918 1.379 . S
C918 H902 0.931 . S
C918 C912 1.383 . S
C918 C917 1.379 . S
H919 C913 0.959 . S
H920 C913 0.961 . S
H921 C913 0.960 . S
H922 C914 0.930 . S
H923 C915 0.929 . S
H924 C932 0.929 . S
H925 C934 0.930 . S
H926 C936 0.930 1_655 S
H927 C939 0.907 1_655 S
H928 C942 0.930 . S
H929 C944 0.960 . S
H930 C944 0.960 . S
H931 C944 0.960 . S
C932 H924 0.929 . S
C932 C933 1.377 . S
C932 C934 1.384 . S
C933 C932 1.377 . S
C933 C939 1.390 . S
C934 H925 0.930 . S
C934 C932 1.384 . S
C934 C935 1.372 . S
C935 C934 1.372 . S
C935 C936 1.400 . S
C935 C940 1.490 . S
C936 H926 0.930 1_455 S
C936 C935 1.400 . S
C936 C939 1.386 . S
H937 C953 0.930 . S
H938 C954 0.931 . S
C939 H927 0.907 1_455 S
C939 C933 1.390 . S
C939 C936 1.386 . S
C940 C935 1.490 . S
C940 C942 1.395 . S
C940 C943 1.403 1_455 S
H941 C947 0.930 . S
C942 H928 0.930 . S
C942 C940 1.395 . S
C942 C945 1.403 . S
C943 C940 1.403 1_655 S
C943 C944 1.524 . S
C943 C947 1.400 . S
C944 H929 0.960 . S
C944 H930 0.960 . S
C944 H931 0.960 . S
C944 C943 1.524 . S
C945 C942 1.403 . S
C945 C946 1.392 1_455 S
C945 C949 1.495 . S
C946 C945 1.392 1_655 S
C946 C947 1.385 . S
C946 C948 1.478 . S
C947 H941 0.930 . S
C947 C943 1.400 . S
C947 C946 1.385 . S
C948 C946 1.478 . S
C948 C950 1.366 1_655 S
C948 C954 1.383 . S
C949 C945 1.495 . S
C949 H955 0.959 . S
C949 H956 0.961 . S
C949 H957 0.960 . S
C950 C948 1.366 1_455 S
C950 C951 1.382 1_455 S
C950 H958 0.959 . S
C951 C950 1.382 1_655 S
C951 C952 1.383 . S
C951 H959 0.941 . S
C952 C951 1.383 . S
C952 C953 1.377 . S
C953 H937 0.930 . S
C953 C952 1.377 . S
C953 C954 1.379 . S
C954 H938 0.931 . S
C954 C948 1.383 . S
C954 C953 1.379 . S
H955 C949 0.959 . S
H956 C949 0.961 . S
H957 C949 0.960 . S
H958 C950 0.959 . S
H959 C951 0.941 . S
H960 C968 0.929 . S
H961 C970 0.930 . S
H962 C972 0.930 . S
H963 C975 0.929 1_655 S
H964 C978 0.930 . S
H965 C980 0.960 . S
H966 C980 0.960 . S
H967 C980 0.960 . S
C968 H960 0.929 . S
C968 C969 1.377 . S
C968 C970 1.384 . S
C969 C968 1.377 . S
C969 C975 1.390 . S
C970 H961 0.930 . S
C970 C968 1.384 . S
C970 C971 1.372 . S
C971 C970 1.372 . S
C971 C972 1.400 1_455 S
C971 C976 1.490 . S
C972 H962 0.930 . S
C972 C971 1.400 1_655 S
C972 C975 1.386 1_655 S
H973 C989 0.930 . S
H974 C990 0.931 . S
C975 H963 0.929 1_455 S
C975 C969 1.390 . S
C975 C972 1.386 1_455 S
C976 C971 1.490 . S
C976 C978 1.395 . S
C976 C979 1.403 1_455 S
H977 C983 0.930 . S
C978 H964 0.930 . S
C978 C976 1.395 . S
C978 C981 1.403 . S
C979 C976 1.403 1_655 S
C979 C980 1.524 . S
C979 C983 1.400 . S
C980 H965 0.960 . S
C980 H966 0.960 . S
C980 H967 0.960 . S
C980 C979 1.524 . S
C981 C978 1.403 . S
C981 C982 1.392 1_455 S
C981 C985 1.495 . S
C982 C981 1.392 1_655 S
C982 C983 1.385 . S
C982 C984 1.478 . S
C983 H977 0.930 . S
C983 C979 1.400 . S
C983 C982 1.385 . S
C984 C982 1.478 . S
C984 C986 1.381 1_655 S
C984 C990 1.383 . S
C985 C981 1.495 . S
C985 H991 0.959 . S
C985 H992 0.961 . S
C985 H993 0.960 . S
C986 C984 1.381 1_455 S
C986 C987 1.394 1_455 S
C986 H994 0.930 . S
C987 C986 1.394 1_655 S
C987 C988 1.383 . S
C987 H995 0.929 1_655 S
C988 C987 1.383 . S
C988 C989 1.377 . S
C989 H973 0.930 . S
C989 C988 1.377 . S
C989 C990 1.379 . S
C990 H974 0.931 . S
C990 C984 1.383 . S
C990 C989 1.379 . S
H991 C985 0.959 . S
H992 C985 0.961 . S
H993 C985 0.960 . S
H994 C986 0.930 . S
H995 C987 0.929 1_455 S
H996 C1004 0.929 . S
H997 C1006 0.930 1_565 S
H998 C1008 0.930 . S
H999 C1011 0.929 . S
H1000 C1014 0.930 . S
H1001 C1016 0.960 . S
H1002 C1016 0.960 . S
H1003 C1016 0.960 . S
C1004 H996 0.929 . S
C1004 C1005 1.377 . S
C1004 C1006 1.384 . S
C1005 C1004 1.377 . S
C1005 C1011 1.390 . S
C1006 H997 0.930 1_545 S
C1006 C1004 1.384 . S
C1006 C1007 1.372 . S
C1007 C1006 1.372 . S
C1007 C1008 1.400 . S
C1007 C1012 1.490 . S
C1008 H998 0.930 . S
C1008 C1007 1.400 . S
C1008 C1011 1.386 . S
H1009 C1025 0.930 . S
H1010 C1026 0.931 1_545 S
C1011 H999 0.929 . S
C1011 C1005 1.390 . S
C1011 C1008 1.386 . S
C1012 C1007 1.490 . S
C1012 C1014 1.395 1_545 S
C1012 C1015 1.403 . S
H1013 C1019 0.930 . S
C1014 H1000 0.930 . S
C1014 C1012 1.395 1_565 S
C1014 C1017 1.403 . S
C1015 C1012 1.403 . S
C1015 C1016 1.524 . S
C1015 C1019 1.400 . S
C1016 H1001 0.960 . S
C1016 H1002 0.960 . S
C1016 H1003 0.960 . S
C1016 C1015 1.524 . S
C1017 C1014 1.403 . S
C1017 C1018 1.392 . S
C1017 C1021 1.495 . S
C1018 C1017 1.392 . S
C1018 C1019 1.385 1_565 S
C1018 C1020 1.478 . S
C1019 H1013 0.930 . S
C1019 C1015 1.400 . S
C1019 C1018 1.385 1_545 S
C1020 C1018 1.478 . S
C1020 C1022 1.381 . S
C1020 C1026 1.383 . S
C1021 C1017 1.495 . S
C1021 H1027 0.959 . S
C1021 H1028 0.961 . S
C1021 H1029 0.960 . S
C1022 C1020 1.381 . S
C1022 C1023 1.394 . S
C1022 H1030 0.930 . S
C1023 C1022 1.394 . S
C1023 C1024 1.383 . S
C1023 H1031 0.929 . S
C1024 C1023 1.383 . S
C1024 C1025 1.377 . S
C1025 H1009 0.930 . S
C1025 C1024 1.377 . S
C1025 C1026 1.379 . S
C1026 H1010 0.931 1_565 S
C1026 C1020 1.383 . S
C1026 C1025 1.379 . S
H1027 C1021 0.959 . S
H1028 C1021 0.961 . S
H1029 C1021 0.960 . S
H1030 C1022 0.930 . S
H1031 C1023 0.929 . S
H1032 C1040 0.929 . S
H1033 C1042 0.930 . S
H1034 C1044 0.930 . S
H1035 C1047 0.929 . S
H1036 C1050 0.930 . S
H1037 C1052 0.960 . S
H1038 C1052 0.960 . S
H1039 C1052 0.960 . S
C1040 H1032 0.929 . S
C1040 C1041 1.377 . S
C1040 C1042 1.384 . S
C1041 C1040 1.377 . S
C1041 C1047 1.390 . S
C1042 H1033 0.930 . S
C1042 C1040 1.384 . S
C1042 C1043 1.372 . S
C1043 C1042 1.372 . S
C1043 C1044 1.400 . S
C1043 C1048 1.490 . S
C1044 H1034 0.930 . S
C1044 C1043 1.400 . S
C1044 C1047 1.386 . S
H1045 C1061 0.930 . S
H1046 C1062 0.931 . S
C1047 H1035 0.929 . S
C1047 C1041 1.390 . S
C1047 C1044 1.386 . S
C1048 C1043 1.490 . S
C1048 C1050 1.395 . S
C1048 C1051 1.403 . S
H1049 C1055 0.930 . S
C1050 H1036 0.930 . S
C1050 C1048 1.395 . S
C1050 C1053 1.403 . S
C1051 C1048 1.403 . S
C1051 C1052 1.524 . S
C1051 C1055 1.400 . S
C1052 H1037 0.960 . S
C1052 H1038 0.960 . S
C1052 H1039 0.960 . S
C1052 C1051 1.524 . S
C1053 C1050 1.403 . S
C1053 C1054 1.392 . S
C1053 C1057 1.495 . S
C1054 C1053 1.392 . S
C1054 C1055 1.385 . S
C1054 C1056 1.478 . S
C1055 H1049 0.930 . S
C1055 C1051 1.400 . S
C1055 C1054 1.385 . S
C1056 C1054 1.478 . S
C1056 C1058 1.381 . S
C1056 C1062 1.383 . S
C1057 C1053 1.495 . S
C1057 H1063 0.959 . S
C1057 H1064 0.961 . S
C1057 H1065 0.960 . S
C1058 C1056 1.381 . S
C1058 C1059 1.394 . S
C1058 H1066 0.930 . S
C1059 C1058 1.394 . S
C1059 C1060 1.383 . S
C1059 H1067 0.929 . S
C1060 C1059 1.383 . S
C1060 C1061 1.377 . S
C1061 H1045 0.930 . S
C1061 C1060 1.377 . S
C1061 C1062 1.379 . S
C1062 H1046 0.931 . S
C1062 C1056 1.383 . S
C1062 C1061 1.379 . S
H1063 C1057 0.959 . S
H1064 C1057 0.961 . S
H1065 C1057 0.960 . S
H1066 C1058 0.930 . S
H1067 C1059 0.929 . S
H1068 C1076 0.929 . S
H1069 C1078 0.930 . S
H1070 C1080 0.930 1_554 S
H1071 C1083 0.929 . S
H1072 C1086 0.930 . S
H1073 C1088 0.960 . S
H1074 C1088 0.960 . S
H1075 C1088 0.960 . S
C1076 H1068 0.929 . S
C1076 C1077 1.377 . S
C1076 C1078 1.384 . S
C1077 C1076 1.377 . S
C1077 C1083 1.390 . S
C1078 H1069 0.930 . S
C1078 C1076 1.384 . S
C1078 C1079 1.372 . S
C1079 C1078 1.372 . S
C1079 C1080 1.400 . S
C1079 C1084 1.490 . S
C1080 H1070 0.930 1_556 S
C1080 C1079 1.400 . S
C1080 C1083 1.386 . S
H1081 C1097 0.930 . S
H1082 C1098 0.931 . S
C1083 H1071 0.929 . S
C1083 C1077 1.390 . S
C1083 C1080 1.386 . S
C1084 C1079 1.490 . S
C1084 C1086 1.395 1_556 S
C1084 C1087 1.403 . S
H1085 C1091 0.930 . S
C1086 H1072 0.930 . S
C1086 C1084 1.395 1_554 S
C1086 C1089 1.403 . S
C1087 C1084 1.403 . S
C1087 C1088 1.524 . S
C1087 C1091 1.400 . S
C1088 H1073 0.960 . S
C1088 H1074 0.960 . S
C1088 H1075 0.960 . S
C1088 C1087 1.524 . S
C1089 C1086 1.403 . S
C1089 C1090 1.392 . S
C1089 C1093 1.495 . S
C1090 C1089 1.392 . S
C1090 C1091 1.385 1_554 S
C1090 C1092 1.478 . S
C1091 H1085 0.930 . S
C1091 C1087 1.400 . S
C1091 C1090 1.385 1_556 S
C1092 C1090 1.478 . S
C1092 C1094 1.381 . S
C1092 C1098 1.383 . S
C1093 C1089 1.495 . S
C1093 H1099 0.959 . S
C1093 H1100 0.961 . S
C1093 H1101 0.960 . S
C1094 C1092 1.381 . S
C1094 C1095 1.394 . S
C1094 H1102 0.930 1_554 S
C1095 C1094 1.394 . S
C1095 C1096 1.383 . S
C1095 H1103 0.929 . S
C1096 C1095 1.383 . S
C1096 C1097 1.377 . S
C1097 H1081 0.930 . S
C1097 C1096 1.377 . S
C1097 C1098 1.379 . S
C1098 H1082 0.931 . S
C1098 C1092 1.383 . S
C1098 C1097 1.379 . S
H1099 C1093 0.959 . S
H1100 C1093 0.961 . S
H1101 C1093 0.960 . S
H1102 C1094 0.930 1_556 S
H1103 C1095 0.929 . S
H1104 C1112 0.929 . S
H1105 C1114 0.930 . S
H1106 C1116 0.930 . S
H1107 C1119 0.929 . S
H1108 C1122 0.930 . S
H1109 C1124 0.960 . S
H1110 C1124 0.960 . S
H1111 C1124 0.960 . S
C1112 H1104 0.929 . S
C1112 C1113 1.377 . S
C1112 C1114 1.384 . S
C1113 C1112 1.377 . S
C1113 C1119 1.390 . S
C1114 H1105 0.930 . S
C1114 C1112 1.384 . S
C1114 C1115 1.372 . S
C1115 C1114 1.372 . S
C1115 C1116 1.400 . S
C1115 C1120 1.490 . S
C1116 H1106 0.930 . S
C1116 C1115 1.400 . S
C1116 C1119 1.386 . S
H1117 C1133 0.930 . S
H1118 C1134 0.931 . S
C1119 H1107 0.929 . S
C1119 C1113 1.390 . S
C1119 C1116 1.386 . S
C1120 C1115 1.490 . S
C1120 C1122 1.395 . S
C1120 C1123 1.403 . S
H1121 C1127 0.930 . S
C1122 H1108 0.930 . S
C1122 C1120 1.395 . S
C1122 C1125 1.403 . S
C1123 C1120 1.403 . S
C1123 C1124 1.524 . S
C1123 C1127 1.400 . S
C1124 H1109 0.960 . S
C1124 H1110 0.960 . S
C1124 H1111 0.960 . S
C1124 C1123 1.524 . S
C1125 C1122 1.403 . S
C1125 C1126 1.392 . S
C1125 C1129 1.495 . S
C1126 C1125 1.392 . S
C1126 C1127 1.385 . S
C1126 C1128 1.478 . S
C1127 H1121 0.930 . S
C1127 C1123 1.400 . S
C1127 C1126 1.385 . S
C1128 C1126 1.478 . S
C1128 C1130 1.381 . S
C1128 C1134 1.383 . S
C1129 C1125 1.495 . S
C1129 H1135 0.959 . S
C1129 H1136 0.961 . S
C1129 H1137 0.960 . S
C1130 C1128 1.381 . S
C1130 C1131 1.394 . S
C1130 H1138 0.930 . S
C1131 C1130 1.394 . S
C1131 C1132 1.383 . S
C1131 H1139 0.929 . S
C1132 C1131 1.383 . S
C1132 C1133 1.377 . S
C1133 H1117 0.930 . S
C1133 C1132 1.377 . S
C1133 C1134 1.379 . S
C1134 H1118 0.931 . S
C1134 C1128 1.383 . S
C1134 C1133 1.379 . S
H1135 C1129 0.959 . S
H1136 C1129 0.961 . S
H1137 C1129 0.960 . S
H1138 C1130 0.930 . S
H1139 C1131 0.929 . S
H1140 C1148 0.929 . S
H1141 C1150 0.930 . S
H1142 C1152 0.930 . S
H1143 C1155 0.929 . S
H1144 C1158 0.930 . S
H1145 C1160 0.960 . S
H1146 C1160 0.960 . S
H1147 C1160 0.960 . S
C1148 H1140 0.929 . S
C1148 C1149 1.377 . S
C1148 C1150 1.384 . S
C1149 C1148 1.377 . S
C1149 C1155 1.390 . S
C1150 H1141 0.930 . S
C1150 C1148 1.384 . S
C1150 C1151 1.372 . S
C1151 C1150 1.372 . S
C1151 C1152 1.400 . S
C1151 C1156 1.490 . S
C1152 H1142 0.930 . S
C1152 C1151 1.400 . S
C1152 C1155 1.386 . S
H1153 C1169 0.930 . S
H1154 C1170 0.931 . S
C1155 H1143 0.929 . S
C1155 C1149 1.390 . S
C1155 C1152 1.386 . S
C1156 C1151 1.490 . S
C1156 C1158 1.395 . S
C1156 C1159 1.403 . S
H1157 C1163 0.930 . S
C1158 H1144 0.930 . S
C1158 C1156 1.395 . S
C1158 C1161 1.403 . S
C1159 C1156 1.403 . S
C1159 C1160 1.524 . S
C1159 C1163 1.400 . S
C1160 H1145 0.960 . S
C1160 H1146 0.960 . S
C1160 H1147 0.960 . S
C1160 C1159 1.524 . S
C1161 C1158 1.403 . S
C1161 C1162 1.392 . S
C1161 C1165 1.495 . S
C1162 C1161 1.392 . S
C1162 C1163 1.385 . S
C1162 C1164 1.478 . S
C1163 H1157 0.930 . S
C1163 C1159 1.400 . S
C1163 C1162 1.385 . S
C1164 C1162 1.478 . S
C1164 C1166 1.381 . S
C1164 C1170 1.383 . S
C1165 C1161 1.495 . S
C1165 H1171 0.959 . S
C1165 H1172 0.961 . S
C1165 H1173 0.960 . S
C1166 C1164 1.381 . S
C1166 C1167 1.394 . S
C1166 H1174 0.930 . S
C1167 C1166 1.394 . S
C1167 C1168 1.383 . S
C1167 H1175 0.929 . S
C1168 C1167 1.383 . S
C1168 C1169 1.377 . S
C1169 H1153 0.930 . S
C1169 C1168 1.377 . S
C1169 C1170 1.379 . S
C1170 H1154 0.931 . S
C1170 C1164 1.383 . S
C1170 C1169 1.379 . S
H1171 C1165 0.959 . S
H1172 C1165 0.961 . S
H1173 C1165 0.960 . S
H1174 C1166 0.930 . S
H1175 C1167 0.929 . S
H1176 C1184 0.929 . S
H1177 C1186 0.930 . S
H1178 C1188 0.930 . S
H1179 C1191 0.929 . S
H1180 C1194 0.930 . S
H1181 C1196 0.960 . S
H1182 C1196 0.960 . S
H1183 C1196 0.960 . S
C1184 H1176 0.929 . S
C1184 C1185 1.377 . S
C1184 C1186 1.384 . S
C1185 C1184 1.377 . S
C1185 C1191 1.390 . S
C1186 H1177 0.930 . S
C1186 C1184 1.384 . S
C1186 C1187 1.372 . S
C1187 C1186 1.372 . S
C1187 C1188 1.400 . S
C1187 C1192 1.490 . S
C1188 H1178 0.930 . S
C1188 C1187 1.400 . S
C1188 C1191 1.386 . S
H1189 C1205 0.930 . S
H1190 C1206 0.931 . S
C1191 H1179 0.929 . S
C1191 C1185 1.390 . S
C1191 C1188 1.386 . S
C1192 C1187 1.490 . S
C1192 C1194 1.395 . S
C1192 C1195 1.403 . S
H1193 C1199 0.930 . S
C1194 H1180 0.930 . S
C1194 C1192 1.395 . S
C1194 C1197 1.403 . S
C1195 C1192 1.403 . S
C1195 C1196 1.524 . S
C1195 C1199 1.400 . S
C1196 H1181 0.960 . S
C1196 H1182 0.960 . S
C1196 H1183 0.960 . S
C1196 C1195 1.524 . S
C1197 C1194 1.403 . S
C1197 C1198 1.392 . S
C1197 C1201 1.495 . S
C1198 C1197 1.392 . S
C1198 C1199 1.385 . S
C1198 C1200 1.478 . S
C1199 H1193 0.930 . S
C1199 C1195 1.400 . S
C1199 C1198 1.385 . S
C1200 C1198 1.478 . S
C1200 C1202 1.381 . S
C1200 C1206 1.383 . S
C1201 C1197 1.495 . S
C1201 H1207 0.959 . S
C1201 H1208 0.961 . S
C1201 H1209 0.960 . S
C1202 C1200 1.381 . S
C1202 C1203 1.394 . S
C1202 H1210 0.930 . S
C1203 C1202 1.394 . S
C1203 C1204 1.383 . S
C1203 H1211 0.929 . S
C1204 C1203 1.383 . S
C1204 C1205 1.377 . S
C1205 H1189 0.930 . S
C1205 C1204 1.377 . S
C1205 C1206 1.379 . S
C1206 H1190 0.931 . S
C1206 C1200 1.383 . S
C1206 C1205 1.379 . S
H1207 C1201 0.959 . S
H1208 C1201 0.961 . S
H1209 C1201 0.960 . S
H1210 C1202 0.930 . S
H1211 C1203 0.929 . S
H1212 C1220 0.929 . S
H1213 C1222 0.930 . S
H1214 C1224 0.930 . S
H1215 C1227 0.929 . S
H1216 C1230 0.930 . S
H1217 C1232 0.960 . S
H1218 C1232 0.960 . S
H1219 C1232 0.960 . S
C1220 H1212 0.929 . S
C1220 C1221 1.377 . S
C1220 C1222 1.384 . S
C1221 C1220 1.377 . S
C1221 C1227 1.390 . S
C1222 H1213 0.930 . S
C1222 C1220 1.384 . S
C1222 C1223 1.372 . S
C1223 C1222 1.372 . S
C1223 C1224 1.400 . S
C1223 C1228 1.490 . S
C1224 H1214 0.930 . S
C1224 C1223 1.400 . S
C1224 C1227 1.386 . S
H1225 C1241 0.930 . S
H1226 C1242 0.931 . S
C1227 H1215 0.929 . S
C1227 C1221 1.390 . S
C1227 C1224 1.386 . S
C1228 C1223 1.490 . S
C1228 C1230 1.395 . S
C1228 C1231 1.403 . S
H1229 C1235 0.930 . S
C1230 H1216 0.930 . S
C1230 C1228 1.395 . S
C1230 C1233 1.403 . S
C1231 C1228 1.403 . S
C1231 C1232 1.524 . S
C1231 C1235 1.400 . S
C1232 H1217 0.960 . S
C1232 H1218 0.960 . S
C1232 H1219 0.960 . S
C1232 C1231 1.524 . S
C1233 C1230 1.403 . S
C1233 C1234 1.392 . S
C1233 C1237 1.495 . S
C1234 C1233 1.392 . S
C1234 C1235 1.385 . S
C1234 C1236 1.478 . S
C1235 H1229 0.930 . S
C1235 C1231 1.400 . S
C1235 C1234 1.385 . S
C1236 C1234 1.478 . S
C1236 C1238 1.381 . S
C1236 C1242 1.383 . S
C1237 C1233 1.495 . S
C1237 H1243 0.959 . S
C1237 H1244 0.961 . S
C1237 H1245 0.960 . S
C1238 C1236 1.381 . S
C1238 C1239 1.394 . S
C1238 H1246 0.930 . S
C1239 C1238 1.394 . S
C1239 C1240 1.383 . S
C1239 H1247 0.929 . S
C1240 C1239 1.383 . S
C1240 C1241 1.377 . S
C1241 H1225 0.930 . S
C1241 C1240 1.377 . S
C1241 C1242 1.379 . S
C1242 H1226 0.931 . S
C1242 C1236 1.383 . S
C1242 C1241 1.379 . S
H1243 C1237 0.959 . S
H1244 C1237 0.961 . S
H1245 C1237 0.960 . S
H1246 C1238 0.930 . S
H1247 C1239 0.929 . S
H1248 C1256 0.929 . S
H1249 C1258 0.930 . S
H1250 C1260 0.930 . S
H1251 C1263 0.929 . S
H1252 C1266 0.930 . S
H1253 C1268 0.960 . S
H1254 C1268 0.960 . S
H1255 C1268 0.960 . S
C1256 H1248 0.929 . S
C1256 C1257 1.377 . S
C1256 C1258 1.384 . S
C1257 C1256 1.377 . S
C1257 C1263 1.390 . S
C1258 H1249 0.930 . S
C1258 C1256 1.384 . S
C1258 C1259 1.372 . S
C1259 C1258 1.372 . S
C1259 C1260 1.400 . S
C1259 C1264 1.490 . S
C1260 H1250 0.930 . S
C1260 C1259 1.400 . S
C1260 C1263 1.386 . S
H1261 C1277 0.930 . S
H1262 C1278 0.931 . S
C1263 H1251 0.929 . S
C1263 C1257 1.390 . S
C1263 C1260 1.386 . S
C1264 C1259 1.490 . S
C1264 C1266 1.395 . S
C1264 C1267 1.403 . S
H1265 C1271 0.930 . S
C1266 H1252 0.930 . S
C1266 C1264 1.395 . S
C1266 C1269 1.403 . S
C1267 C1264 1.403 . S
C1267 C1268 1.524 . S
C1267 C1271 1.400 . S
C1268 H1253 0.960 . S
C1268 H1254 0.960 . S
C1268 H1255 0.960 . S
C1268 C1267 1.524 . S
C1269 C1266 1.403 . S
C1269 C1270 1.392 . S
C1269 C1273 1.495 . S
C1270 C1269 1.392 . S
C1270 C1271 1.385 . S
C1270 C1272 1.478 . S
C1271 H1265 0.930 . S
C1271 C1267 1.400 . S
C1271 C1270 1.385 . S
C1272 C1270 1.478 . S
C1272 C1274 1.381 . S
C1272 C1278 1.383 . S
C1273 C1269 1.495 . S
C1273 H1279 0.959 . S
C1273 H1280 0.961 . S
C1273 H1281 0.960 . S
C1274 C1272 1.381 . S
C1274 C1275 1.394 . S
C1274 H1282 0.930 . S
C1275 C1274 1.394 . S
C1275 C1276 1.383 . S
C1275 H1283 0.929 . S
C1276 C1275 1.383 . S
C1276 C1277 1.377 . S
C1277 H1261 0.930 . S
C1277 C1276 1.377 . S
C1277 C1278 1.379 . S
C1278 H1262 0.931 . S
C1278 C1272 1.383 . S
C1278 C1277 1.379 . S
H1279 C1273 0.959 . S
H1280 C1273 0.961 . S
H1281 C1273 0.960 . S
H1282 C1274 0.930 . S
H1283 C1275 0.929 . S
H1284 C1292 0.929 . S
H1285 C1294 0.930 . S
H1286 C1296 0.930 . S
H1287 C1299 0.929 1_565 S
H1288 C1302 0.930 . S
H1289 C1304 0.960 . S
H1290 C1304 0.960 . S
H1291 C1304 0.960 . S
C1292 H1284 0.929 . S
C1292 C1293 1.377 . S
C1292 C1294 1.384 . S
C1293 C1292 1.377 . S
C1293 C1299 1.390 . S
C1294 H1285 0.930 . S
C1294 C1292 1.384 . S
C1294 C1295 1.372 . S
C1295 C1294 1.372 . S
C1295 C1296 1.400 1_545 S
C1295 C1300 1.490 . S
C1296 H1286 0.930 . S
C1296 C1295 1.400 1_565 S
C1296 C1299 1.386 1_565 S
H1297 C1313 0.930 . S
H1298 C1314 0.931 . S
C1299 H1287 0.929 1_545 S
C1299 C1293 1.390 . S
C1299 C1296 1.386 1_545 S
C1300 C1295 1.490 . S
C1300 C1302 1.395 . S
C1300 C1303 1.403 1_545 S
H1301 C1307 0.930 . S
C1302 H1288 0.930 . S
C1302 C1300 1.395 . S
C1302 C1305 1.403 . S
C1303 C1300 1.403 1_565 S
C1303 C1304 1.524 . S
C1303 C1307 1.400 . S
C1304 H1289 0.960 . S
C1304 H1290 0.960 . S
C1304 H1291 0.960 . S
C1304 C1303 1.524 . S
C1305 C1302 1.403 . S
C1305 C1306 1.392 1_545 S
C1305 C1309 1.495 . S
C1306 C1305 1.392 1_565 S
C1306 C1307 1.385 . S
C1306 C1308 1.478 . S
C1307 H1301 0.930 . S
C1307 C1303 1.400 . S
C1307 C1306 1.385 . S
C1308 C1306 1.478 . S
C1308 C1310 1.381 1_565 S
C1308 C1314 1.383 . S
C1309 C1305 1.495 . S
C1309 H1315 0.959 . S
C1309 H1316 0.961 . S
C1309 H1317 0.960 . S
C1310 C1308 1.381 1_545 S
C1310 C1311 1.394 1_545 S
C1310 H1318 0.930 . S
C1311 C1310 1.394 1_565 S
C1311 C1312 1.383 . S
C1311 H1319 0.929 1_565 S
C1312 C1311 1.383 . S
C1312 C1313 1.377 . S
C1313 H1297 0.930 . S
C1313 C1312 1.377 . S
C1313 C1314 1.379 . S
C1314 H1298 0.931 . S
C1314 C1308 1.383 . S
C1314 C1313 1.379 . S
H1315 C1309 0.959 . S
H1316 C1309 0.961 . S
H1317 C1309 0.960 . S
H1318 C1310 0.930 . S
H1319 C1311 0.929 1_545 S
H1320 C1328 0.929 . S
H1321 C1330 0.930 . S
H1322 C1332 0.930 . S
H1323 C1335 0.929 1_556 S
H1324 C1338 0.930 . S
H1325 C1340 0.960 . S
H1326 C1340 0.960 . S
H1327 C1340 0.960 . S
C1328 H1320 0.929 . S
C1328 C1329 1.377 . S
C1328 C1330 1.384 . S
C1329 C1328 1.377 . S
C1329 C1335 1.390 . S
C1330 H1321 0.930 . S
C1330 C1328 1.384 . S
C1330 C1331 1.372 . S
C1331 C1330 1.372 . S
C1331 C1332 1.400 1_554 S
C1331 C1336 1.490 . S
C1332 H1322 0.930 . S
C1332 C1331 1.400 1_556 S
C1332 C1335 1.386 1_556 S
H1333 C1349 0.930 . S
H1334 C1350 0.931 . S
C1335 H1323 0.929 1_554 S
C1335 C1329 1.390 . S
C1335 C1332 1.386 1_554 S
C1336 C1331 1.490 . S
C1336 C1338 1.395 . S
C1336 C1339 1.403 1_554 S
H1337 C1343 0.930 . S
C1338 H1324 0.930 . S
C1338 C1336 1.395 . S
C1338 C1341 1.403 . S
C1339 C1336 1.403 1_556 S
C1339 C1340 1.524 . S
C1339 C1343 1.400 . S
C1340 H1325 0.960 . S
C1340 H1326 0.960 . S
C1340 H1327 0.960 . S
C1340 C1339 1.524 . S
C1341 C1338 1.403 . S
C1341 C1342 1.392 1_554 S
C1341 C1345 1.495 . S
C1342 C1341 1.392 1_556 S
C1342 C1343 1.385 . S
C1342 C1344 1.478 . S
C1343 H1337 0.930 . S
C1343 C1339 1.400 . S
C1343 C1342 1.385 . S
C1344 C1342 1.478 . S
C1344 C1346 1.381 1_556 S
C1344 C1350 1.383 . S
C1345 C1341 1.495 . S
C1345 H1351 0.959 . S
C1345 H1352 0.961 . S
C1345 H1353 0.960 . S
C1346 C1344 1.381 1_554 S
C1346 C1347 1.394 1_554 S
C1346 H1354 0.930 . S
C1347 C1346 1.394 1_556 S
C1347 C1348 1.383 . S
C1347 H1355 0.929 1_556 S
C1348 C1347 1.383 . S
C1348 C1349 1.377 . S
C1349 H1333 0.930 . S
C1349 C1348 1.377 . S
C1349 C1350 1.379 . S
C1350 H1334 0.931 . S
C1350 C1344 1.383 . S
C1350 C1349 1.379 . S
H1351 C1345 0.959 . S
H1352 C1345 0.961 . S
H1353 C1345 0.960 . S
H1354 C1346 0.930 . S
H1355 C1347 0.929 1_554 S
H1356 C1364 0.929 . S
H1357 C1366 0.930 . S
H1358 C1368 0.930 . S
H1359 C1371 0.929 . S
H1360 C1374 0.930 . S
H1361 C1376 0.960 . S
H1362 C1376 0.960 . S
H1363 C1376 0.960 . S
C1364 H1356 0.929 . S
C1364 C1365 1.377 . S
C1364 C1366 1.384 . S
C1365 C1364 1.377 . S
C1365 C1371 1.390 . S
C1366 H1357 0.930 . S
C1366 C1364 1.384 . S
C1366 C1367 1.372 . S
C1367 C1366 1.372 . S
C1367 C1368 1.400 . S
C1367 C1372 1.490 . S
C1368 H1358 0.930 . S
C1368 C1367 1.400 . S
C1368 C1371 1.386 . S
H1369 C1385 0.930 . S
H1370 C1386 0.931 . S
C1371 H1359 0.929 . S
C1371 C1365 1.390 . S
C1371 C1368 1.386 . S
C1372 C1367 1.490 . S
C1372 C1374 1.395 . S
C1372 C1375 1.403 . S
H1373 C1379 0.930 . S
C1374 H1360 0.930 . S
C1374 C1372 1.395 . S
C1374 C1377 1.403 . S
C1375 C1372 1.403 . S
C1375 C1376 1.524 . S
C1375 C1379 1.400 . S
C1376 H1361 0.960 . S
C1376 H1362 0.960 . S
C1376 H1363 0.960 . S
C1376 C1375 1.524 . S
C1377 C1374 1.403 . S
C1377 C1378 1.392 . S
C1377 C1381 1.495 . S
C1378 C1377 1.392 . S
C1378 C1379 1.385 . S
C1378 C1380 1.478 . S
C1379 H1373 0.930 . S
C1379 C1375 1.400 . S
C1379 C1378 1.385 . S
C1380 C1378 1.478 . S
C1380 C1382 1.381 . S
C1380 C1386 1.383 . S
C1381 C1377 1.495 . S
C1381 H1387 0.959 . S
C1381 H1388 0.961 . S
C1381 H1389 0.960 . S
C1382 C1380 1.381 . S
C1382 C1383 1.394 . S
C1382 H1390 0.930 . S
C1383 C1382 1.394 . S
C1383 C1384 1.383 . S
C1383 H1391 0.929 . S
C1384 C1383 1.383 . S
C1384 C1385 1.377 . S
C1385 H1369 0.930 . S
C1385 C1384 1.377 . S
C1385 C1386 1.379 . S
C1386 H1370 0.931 . S
C1386 C1380 1.383 . S
C1386 C1385 1.379 . S
H1387 C1381 0.959 . S
H1388 C1381 0.961 . S
H1389 C1381 0.960 . S
H1390 C1382 0.930 . S
H1391 C1383 0.929 . S
H1392 C1400 0.929 . S
H1393 C1402 0.930 . S
H1394 C1404 0.930 . S
H1395 C1407 0.929 . S
H1396 C1410 0.930 . S
H1397 C1412 0.960 . S
H1398 C1412 0.960 . S
H1399 C1412 0.960 . S
C1400 H1392 0.929 . S
C1400 C1401 1.377 . S
C1400 C1402 1.384 . S
C1401 C1400 1.377 . S
C1401 C1407 1.390 . S
C1402 H1393 0.930 . S
C1402 C1400 1.384 . S
C1402 C1403 1.372 . S
C1403 C1402 1.372 . S
C1403 C1404 1.400 . S
C1403 C1408 1.490 . S
C1404 H1394 0.930 . S
C1404 C1403 1.400 . S
C1404 C1407 1.386 . S
H1405 C1421 0.930 . S
H1406 C1422 0.931 . S
C1407 H1395 0.929 . S
C1407 C1401 1.390 . S
C1407 C1404 1.386 . S
C1408 C1403 1.490 . S
C1408 C1410 1.395 . S
C1408 C1411 1.403 . S
H1409 C1415 0.930 . S
C1410 H1396 0.930 . S
C1410 C1408 1.395 . S
C1410 C1413 1.403 . S
C1411 C1408 1.403 . S
C1411 C1412 1.524 . S
C1411 C1415 1.400 . S
C1412 H1397 0.960 . S
C1412 H1398 0.960 . S
C1412 H1399 0.960 . S
C1412 C1411 1.524 . S
C1413 C1410 1.403 . S
C1413 C1414 1.392 . S
C1413 C1417 1.495 . S
C1414 C1413 1.392 . S
C1414 C1415 1.385 . S
C1414 C1416 1.478 . S
C1415 H1409 0.930 . S
C1415 C1411 1.400 . S
C1415 C1414 1.385 . S
C1416 C1414 1.478 . S
C1416 C1418 1.381 . S
C1416 C1422 1.383 . S
C1417 C1413 1.495 . S
C1417 H1423 0.959 . S
C1417 H1424 0.961 . S
C1417 H1425 0.960 . S
C1418 C1416 1.381 . S
C1418 C1419 1.394 . S
C1418 H1426 0.930 . S
C1419 C1418 1.394 . S
C1419 C1420 1.383 . S
C1419 H1427 0.929 . S
C1420 C1419 1.383 . S
C1420 C1421 1.377 . S
C1421 H1405 0.930 . S
C1421 C1420 1.377 . S
C1421 C1422 1.379 . S
C1422 H1406 0.931 . S
C1422 C1416 1.383 . S
C1422 C1421 1.379 . S
H1423 C1417 0.959 . S
H1424 C1417 0.961 . S
H1425 C1417 0.960 . S
H1426 C1418 0.930 . S
H1427 C1419 0.929 . S
H1428 C1436 0.929 . S
H1429 C1438 0.930 . S
H1430 C1440 0.930 . S
H1431 C1443 0.929 . S
H1432 C1446 0.930 . S
H1433 C1448 0.960 . S
H1434 C1448 0.960 . S
H1435 C1448 0.960 . S
C1436 H1428 0.929 . S
C1436 C1437 1.377 . S
C1436 C1438 1.384 . S
C1437 C1436 1.377 . S
C1437 C1443 1.390 . S
C1438 H1429 0.930 . S
C1438 C1436 1.384 . S
C1438 C1439 1.372 . S
C1439 C1438 1.372 . S
C1439 C1440 1.400 . S
C1439 C1444 1.490 . S
C1440 H1430 0.930 . S
C1440 C1439 1.400 . S
C1440 C1443 1.386 . S
H1441 C1457 0.930 . S
H1442 C1458 0.931 . S
C1443 H1431 0.929 . S
C1443 C1437 1.390 . S
C1443 C1440 1.386 . S
C1444 C1439 1.490 . S
C1444 C1446 1.395 . S
C1444 C1447 1.403 . S
H1445 C1451 0.930 . S
C1446 H1432 0.930 . S
C1446 C1444 1.395 . S
C1446 C1449 1.403 . S
C1447 C1444 1.403 . S
C1447 C1448 1.524 . S
C1447 C1451 1.400 . S
C1448 H1433 0.960 . S
C1448 H1434 0.960 . S
C1448 H1435 0.960 . S
C1448 C1447 1.524 . S
C1449 C1446 1.403 . S
C1449 C1450 1.392 . S
C1449 C1453 1.495 . S
C1450 C1449 1.392 . S
C1450 C1451 1.385 . S
C1450 C1452 1.478 . S
C1451 H1445 0.930 . S
C1451 C1447 1.400 . S
C1451 C1450 1.385 . S
C1452 C1450 1.478 . S
C1452 C1454 1.381 . S
C1452 C1458 1.383 . S
C1453 C1449 1.495 . S
C1453 H1459 0.959 . S
C1453 H1460 0.961 . S
C1453 H1461 0.960 . S
C1454 C1452 1.381 . S
C1454 C1455 1.394 . S
C1454 H1462 0.930 . S
C1455 C1454 1.394 . S
C1455 C1456 1.383 . S
C1455 H1463 0.929 . S
C1456 C1455 1.383 . S
C1456 C1457 1.377 . S
C1457 H1441 0.930 . S
C1457 C1456 1.377 . S
C1457 C1458 1.379 . S
C1458 H1442 0.931 . S
C1458 C1452 1.383 . S
C1458 C1457 1.379 . S
H1459 C1453 0.959 . S
H1460 C1453 0.961 . S
H1461 C1453 0.960 . S
H1462 C1454 0.930 . S
H1463 C1455 0.929 . S
H1464 C1472 0.929 . S
H1465 C1474 0.930 . S
H1466 C1476 0.930 . S
H1467 C1479 0.929 . S
H1468 C1482 0.930 . S
H1469 C1484 0.960 . S
H1470 C1484 0.960 . S
H1471 C1484 0.960 . S
C1472 H1464 0.929 . S
C1472 C1473 1.377 . S
C1472 C1474 1.384 . S
C1473 C1472 1.377 . S
C1473 C1479 1.390 . S
C1474 H1465 0.930 . S
C1474 C1472 1.384 . S
C1474 C1475 1.372 . S
C1475 C1474 1.372 . S
C1475 C1476 1.400 . S
C1475 C1480 1.490 . S
C1476 H1466 0.930 . S
C1476 C1475 1.400 . S
C1476 C1479 1.386 . S
H1477 C1493 0.930 . S
H1478 C1494 0.931 . S
C1479 H1467 0.929 . S
C1479 C1473 1.390 . S
C1479 C1476 1.386 . S
C1480 C1475 1.490 . S
C1480 C1482 1.395 . S
C1480 C1483 1.403 1_545 S
H1481 C1487 0.930 . S
C1482 H1468 0.930 . S
C1482 C1480 1.395 . S
C1482 C1485 1.403 . S
C1483 C1480 1.403 1_565 S
C1483 C1484 1.524 . S
C1483 C1487 1.400 . S
C1484 H1469 0.960 . S
C1484 H1470 0.960 . S
C1484 H1471 0.960 . S
C1484 C1483 1.524 . S
C1485 C1482 1.403 . S
C1485 C1486 1.392 1_545 S
C1485 C1489 1.495 . S
C1486 C1485 1.392 1_565 S
C1486 C1487 1.385 . S
C1486 C1488 1.478 . S
C1487 H1481 0.930 . S
C1487 C1483 1.400 . S
C1487 C1486 1.385 . S
C1488 C1486 1.478 . S
C1488 C1490 1.381 . S
C1488 C1494 1.383 . S
C1489 C1485 1.495 . S
C1489 H1495 0.959 . S
C1489 H1496 0.961 . S
C1489 H1497 0.960 . S
C1490 C1488 1.381 . S
C1490 C1491 1.394 . S
C1490 H1498 0.930 . S
C1491 C1490 1.394 . S
C1491 C1492 1.383 . S
C1491 H1499 0.929 . S
C1492 C1491 1.383 . S
C1492 C1493 1.377 . S
C1493 H1477 0.930 . S
C1493 C1492 1.377 . S
C1493 C1494 1.379 . S
C1494 H1478 0.931 . S
C1494 C1488 1.383 . S
C1494 C1493 1.379 . S
H1495 C1489 0.959 . S
H1496 C1489 0.961 . S
H1497 C1489 0.960 . S
H1498 C1490 0.930 . S
H1499 C1491 0.929 . S
H1500 C1508 0.929 . S
H1501 C1510 0.930 . S
H1502 C1512 0.930 . S
H1503 C1515 0.929 . S
H1504 C1518 0.930 . S
H1505 C1520 0.960 . S
H1506 C1520 0.960 . S
H1507 C1520 0.960 . S
C1508 H1500 0.929 . S
C1508 C1509 1.377 . S
C1508 C1510 1.384 . S
C1509 C1508 1.377 . S
C1509 C1515 1.390 . S
C1510 H1501 0.930 . S
C1510 C1508 1.384 . S
C1510 C1511 1.372 . S
C1511 C1510 1.372 . S
C1511 C1512 1.400 . S
C1511 C1516 1.490 . S
C1512 H1502 0.930 . S
C1512 C1511 1.400 . S
C1512 C1515 1.386 . S
H1513 C1529 0.930 . S
H1514 C1530 0.931 . S
C1515 H1503 0.929 . S
C1515 C1509 1.390 . S
C1515 C1512 1.386 . S
C1516 C1511 1.490 . S
C1516 C1518 1.395 . S
C1516 C1519 1.403 1_554 S
H1517 C1523 0.930 . S
C1518 H1504 0.930 . S
C1518 C1516 1.395 . S
C1518 C1521 1.403 . S
C1519 C1516 1.403 1_556 S
C1519 C1520 1.524 . S
C1519 C1523 1.400 . S
C1520 H1505 0.960 . S
C1520 H1506 0.960 . S
C1520 H1507 0.960 . S
C1520 C1519 1.524 . S
C1521 C1518 1.403 . S
C1521 C1522 1.392 1_554 S
C1521 C1525 1.495 . S
C1522 C1521 1.392 1_556 S
C1522 C1523 1.385 . S
C1522 C1524 1.478 . S
C1523 H1517 0.930 . S
C1523 C1519 1.400 . S
C1523 C1522 1.385 . S
C1524 C1522 1.478 . S
C1524 C1526 1.381 . S
C1524 C1530 1.383 . S
C1525 C1521 1.495 . S
C1525 H1531 0.959 . S
C1525 H1532 0.961 . S
C1525 H1533 0.960 . S
C1526 C1524 1.381 . S
C1526 C1527 1.394 . S
C1526 H1534 0.930 . S
C1527 C1526 1.394 . S
C1527 C1528 1.383 . S
C1527 H1535 0.929 . S
C1528 C1527 1.383 . S
C1528 C1529 1.377 . S
C1529 H1513 0.930 . S
C1529 C1528 1.377 . S
C1529 C1530 1.379 . S
C1530 H1514 0.931 . S
C1530 C1524 1.383 . S
C1530 C1529 1.379 . S
H1531 C1525 0.959 . S
H1532 C1525 0.961 . S
H1533 C1525 0.960 . S
H1534 C1526 0.930 . S
H1535 C1527 0.929 . S
H1536 C1544 0.929 . S
H1537 C1546 0.930 . S
H1538 C1548 0.930 . S
H1539 C1551 0.929 . S
H1540 C1554 0.930 . S
H1541 C1556 0.960 . S
H1542 C1556 0.960 . S
H1543 C1556 0.960 . S
C1544 H1536 0.929 . S
C1544 C1545 1.377 . S
C1544 C1546 1.384 . S
C1545 C1544 1.377 . S
C1545 C1551 1.390 . S
C1546 H1537 0.930 . S
C1546 C1544 1.384 . S
C1546 C1547 1.372 . S
C1547 C1546 1.372 . S
C1547 C1548 1.400 . S
C1547 C1552 1.490 . S
C1548 H1538 0.930 . S
C1548 C1547 1.400 . S
C1548 C1551 1.386 . S
H1549 C1565 0.930 . S
H1550 C1566 0.931 . S
C1551 H1539 0.929 . S
C1551 C1545 1.390 . S
C1551 C1548 1.386 . S
C1552 C1547 1.490 . S
C1552 C1554 1.395 . S
C1552 C1555 1.403 . S
H1553 C1559 0.930 . S
C1554 H1540 0.930 . S
C1554 C1552 1.395 . S
C1554 C1557 1.403 . S
C1555 C1552 1.403 . S
C1555 C1556 1.524 . S
C1555 C1559 1.400 . S
C1556 H1541 0.960 . S
C1556 H1542 0.960 . S
C1556 H1543 0.960 . S
C1556 C1555 1.524 . S
C1557 C1554 1.403 . S
C1557 C1558 1.392 . S
C1557 C1561 1.495 . S
C1558 C1557 1.392 . S
C1558 C1559 1.385 . S
C1558 C1560 1.478 . S
C1559 H1553 0.930 . S
C1559 C1555 1.400 . S
C1559 C1558 1.385 . S
C1560 C1558 1.478 . S
C1560 C1562 1.381 . S
C1560 C1566 1.383 . S
C1561 C1557 1.495 . S
C1561 H1567 0.959 . S
C1561 H1568 0.961 . S
C1561 H1569 0.960 . S
C1562 C1560 1.381 . S
C1562 C1563 1.394 . S
C1562 H1570 0.930 . S
C1563 C1562 1.394 . S
C1563 C1564 1.383 . S
C1563 H1571 0.929 . S
C1564 C1563 1.383 . S
C1564 C1565 1.377 . S
C1565 H1549 0.930 . S
C1565 C1564 1.377 . S
C1565 C1566 1.379 . S
C1566 H1550 0.931 . S
C1566 C1560 1.383 . S
C1566 C1565 1.379 . S
H1567 C1561 0.959 . S
H1568 C1561 0.961 . S
H1569 C1561 0.960 . S
H1570 C1562 0.930 . S
H1571 C1563 0.929 . S
H1572 C1580 0.929 . S
H1573 C1582 0.930 . S
H1574 C1584 0.930 . S
H1575 C1587 0.929 . S
H1576 C1590 0.930 . S
H1577 C1592 0.960 . S
H1578 C1592 0.960 . S
H1579 C1592 0.960 . S
C1580 H1572 0.929 . S
C1580 C1581 1.377 . S
C1580 C1582 1.384 . S
C1581 C1580 1.377 . S
C1581 C1587 1.390 . S
C1582 H1573 0.930 . S
C1582 C1580 1.384 . S
C1582 C1583 1.372 . S
C1583 C1582 1.372 . S
C1583 C1584 1.400 . S
C1583 C1588 1.490 . S
C1584 H1574 0.930 . S
C1584 C1583 1.400 . S
C1584 C1587 1.386 . S
H1585 C1601 0.930 . S
H1586 C1602 0.931 . S
C1587 H1575 0.929 . S
C1587 C1581 1.390 . S
C1587 C1584 1.386 . S
C1588 C1583 1.490 . S
C1588 C1590 1.395 . S
C1588 C1591 1.403 . S
H1589 C1595 0.930 . S
C1590 H1576 0.930 . S
C1590 C1588 1.395 . S
C1590 C1593 1.403 . S
C1591 C1588 1.403 . S
C1591 C1592 1.524 . S
C1591 C1595 1.400 . S
C1592 H1577 0.960 . S
C1592 H1578 0.960 . S
C1592 H1579 0.960 . S
C1592 C1591 1.524 . S
C1593 C1590 1.403 . S
C1593 C1594 1.392 . S
C1593 C1597 1.495 . S
C1594 C1593 1.392 . S
C1594 C1595 1.385 . S
C1594 C1596 1.478 . S
C1595 H1589 0.930 . S
C1595 C1591 1.400 . S
C1595 C1594 1.385 . S
C1596 C1594 1.478 . S
C1596 C1598 1.381 . S
C1596 C1602 1.383 . S
C1597 C1593 1.495 . S
C1597 H1603 0.959 . S
C1597 H1604 0.961 . S
C1597 H1605 0.960 . S
C1598 C1596 1.381 . S
C1598 C1599 1.394 . S
C1598 H1606 0.930 . S
C1599 C1598 1.394 . S
C1599 C1600 1.383 . S
C1599 H1607 0.929 . S
C1600 C1599 1.383 . S
C1600 C1601 1.377 . S
C1601 H1585 0.930 . S
C1601 C1600 1.377 . S
C1601 C1602 1.379 . S
C1602 H1586 0.931 . S
C1602 C1596 1.383 . S
C1602 C1601 1.379 . S
H1603 C1597 0.959 . S
H1604 C1597 0.961 . S
H1605 C1597 0.960 . S
H1606 C1598 0.930 . S
H1607 C1599 0.929 . S
H1608 C1616 0.929 . S
H1609 C1618 0.930 . S
H1610 C1620 0.930 . S
H1611 C1623 0.929 . S
H1612 C1626 0.930 . S
H1613 C1628 0.960 . S
H1614 C1628 0.960 . S
H1615 C1628 0.960 . S
C1616 H1608 0.929 . S
C1616 C1617 1.377 . S
C1616 C1618 1.384 . S
C1617 C1616 1.377 . S
C1617 C1623 1.390 . S
C1618 H1609 0.930 . S
C1618 C1616 1.384 . S
C1618 C1619 1.372 . S
C1619 C1618 1.372 . S
C1619 C1620 1.400 . S
C1619 C1624 1.490 . S
C1620 H1610 0.930 . S
C1620 C1619 1.400 . S
C1620 C1623 1.386 . S
H1621 C1637 0.930 . S
H1622 C1638 0.931 . S
C1623 H1611 0.929 . S
C1623 C1617 1.390 . S
C1623 C1620 1.386 . S
C1624 C1619 1.490 . S
C1624 C1626 1.395 . S
C1624 C1627 1.403 . S
H1625 C1631 0.930 . S
C1626 H1612 0.930 . S
C1626 C1624 1.395 . S
C1626 C1629 1.403 . S
C1627 C1624 1.403 . S
C1627 C1628 1.524 . S
C1627 C1631 1.400 . S
C1628 H1613 0.960 . S
C1628 H1614 0.960 . S
C1628 H1615 0.960 . S
C1628 C1627 1.524 . S
C1629 C1626 1.403 . S
C1629 C1630 1.392 . S
C1629 C1633 1.495 . S
C1630 C1629 1.392 . S
C1630 C1631 1.385 . S
C1630 C1632 1.478 . S
C1631 H1625 0.930 . S
C1631 C1627 1.400 . S
C1631 C1630 1.385 . S
C1632 C1630 1.478 . S
C1632 C1634 1.381 . S
C1632 C1638 1.383 . S
C1633 C1629 1.495 . S
C1633 H1639 0.959 . S
C1633 H1640 0.961 . S
C1633 H1641 0.960 . S
C1634 C1632 1.381 . S
C1634 C1635 1.394 . S
C1634 H1642 0.930 . S
C1635 C1634 1.394 . S
C1635 C1636 1.383 . S
C1635 H1643 0.929 . S
C1636 C1635 1.383 . S
C1636 C1637 1.377 . S
C1637 H1621 0.930 . S
C1637 C1636 1.377 . S
C1637 C1638 1.379 . S
C1638 H1622 0.931 . S
C1638 C1632 1.383 . S
C1638 C1637 1.379 . S
H1639 C1633 0.959 . S
H1640 C1633 0.961 . S
H1641 C1633 0.960 . S
H1642 C1634 0.930 . S
H1643 C1635 0.929 . S
H1644 C1652 0.929 . S
H1645 C1654 0.930 . S
H1646 C1656 0.930 . S
H1647 C1659 0.929 . S
H1648 C1662 0.930 . S
H1649 C1664 0.960 . S
H1650 C1664 0.960 . S
H1651 C1664 0.960 . S
C1652 H1644 0.929 . S
C1652 C1653 1.377 . S
C1652 C1654 1.384 . S
C1653 C1652 1.377 . S
C1653 C1659 1.390 . S
C1654 H1645 0.930 . S
C1654 C1652 1.384 . S
C1654 C1655 1.372 . S
C1655 C1654 1.372 . S
C1655 C1656 1.400 . S
C1655 C1660 1.490 . S
C1656 H1646 0.930 . S
C1656 C1655 1.400 . S
C1656 C1659 1.386 . S
H1657 C1673 0.930 . S
H1658 C1674 0.931 . S
C1659 H1647 0.929 . S
C1659 C1653 1.390 . S
C1659 C1656 1.386 . S
C1660 C1655 1.490 . S
C1660 C1662 1.395 . S
C1660 C1663 1.403 . S
H1661 C1667 0.930 . S
C1662 H1648 0.930 . S
C1662 C1660 1.395 . S
C1662 C1665 1.403 . S
C1663 C1660 1.403 . S
C1663 C1664 1.524 . S
C1663 C1667 1.400 . S
C1664 H1649 0.960 . S
C1664 H1650 0.960 . S
C1664 H1651 0.960 . S
C1664 C1663 1.524 . S
C1665 C1662 1.403 . S
C1665 C1666 1.392 . S
C1665 C1669 1.495 . S
C1666 C1665 1.392 . S
C1666 C1667 1.385 . S
C1666 C1668 1.478 . S
C1667 H1661 0.930 . S
C1667 C1663 1.400 . S
C1667 C1666 1.385 . S
C1668 C1666 1.478 . S
C1668 C1670 1.381 . S
C1668 C1674 1.383 . S
C1669 C1665 1.495 . S
C1669 H1675 0.959 . S
C1669 H1676 0.961 . S
C1669 H1677 0.960 . S
C1670 C1668 1.381 . S
C1670 C1671 1.394 . S
C1670 H1678 0.930 . S
C1671 C1670 1.394 . S
C1671 C1672 1.383 . S
C1671 H1679 0.929 . S
C1672 C1671 1.383 . S
C1672 C1673 1.377 . S
C1673 H1657 0.930 . S
C1673 C1672 1.377 . S
C1673 C1674 1.379 . S
C1674 H1658 0.931 . S
C1674 C1668 1.383 . S
C1674 C1673 1.379 . S
H1675 C1669 0.959 . S
H1676 C1669 0.961 . S
H1677 C1669 0.960 . S
H1678 C1670 0.930 . S
H1679 C1671 0.929 . S
H1680 C1688 0.929 . S
H1681 C1690 0.930 . S
H1682 C1692 0.930 . S
H1683 C1695 0.929 . S
H1684 C1698 0.930 . S
H1685 C1700 0.960 . S
H1686 C1700 0.960 . S
H1687 C1700 0.960 . S
C1688 H1680 0.929 . S
C1688 C1689 1.377 . S
C1688 C1690 1.384 . S
C1689 C1688 1.377 . S
C1689 C1695 1.390 . S
C1690 H1681 0.930 . S
C1690 C1688 1.384 . S
C1690 C1691 1.372 . S
C1691 C1690 1.372 . S
C1691 C1692 1.400 . S
C1691 C1696 1.490 . S
C1692 H1682 0.930 . S
C1692 C1691 1.400 . S
C1692 C1695 1.386 . S
H1693 C1709 0.930 . S
H1694 C1710 0.931 . S
C1695 H1683 0.929 . S
C1695 C1689 1.390 . S
C1695 C1692 1.386 . S
C1696 C1691 1.490 . S
C1696 C1698 1.395 . S
C1696 C1699 1.403 . S
H1697 C1703 0.930 . S
C1698 H1684 0.930 . S
C1698 C1696 1.395 . S
C1698 C1701 1.403 . S
C1699 C1696 1.403 . S
C1699 C1700 1.524 . S
C1699 C1703 1.400 . S
C1700 H1685 0.960 . S
C1700 H1686 0.960 . S
C1700 H1687 0.960 . S
C1700 C1699 1.524 . S
C1701 C1698 1.403 . S
C1701 C1702 1.392 . S
C1701 C1705 1.495 . S
C1702 C1701 1.392 . S
C1702 C1703 1.385 . S
C1702 C1704 1.478 . S
C1703 H1697 0.930 . S
C1703 C1699 1.400 . S
C1703 C1702 1.385 . S
C1704 C1702 1.478 . S
C1704 C1706 1.381 . S
C1704 C1710 1.383 . S
C1705 C1701 1.495 . S
C1705 H1711 0.959 . S
C1705 H1712 0.961 . S
C1705 H1713 0.960 . S
C1706 C1704 1.381 . S
C1706 C1707 1.394 . S
C1706 H1714 0.930 . S
C1707 C1706 1.394 . S
C1707 C1708 1.383 . S
C1707 H1715 0.929 . S
C1708 C1707 1.383 . S
C1708 C1709 1.377 . S
C1709 H1693 0.930 . S
C1709 C1708 1.377 . S
C1709 C1710 1.379 . S
C1710 H1694 0.931 . S
C1710 C1704 1.383 . S
C1710 C1709 1.379 . S
H1711 C1705 0.959 . S
H1712 C1705 0.961 . S
H1713 C1705 0.960 . S
H1714 C1706 0.930 . S
H1715 C1707 0.929 . S
H1716 C1724 0.929 . S
H1717 C1726 0.930 . S
H1718 C1728 0.930 . S
H1719 C1731 0.929 . S
H1720 C1734 0.930 . S
H1721 C1736 0.960 . S
H1722 C1736 0.960 . S
H1723 C1736 0.960 . S
C1724 H1716 0.929 . S
C1724 C1725 1.377 . S
C1724 C1726 1.384 . S
C1725 C1724 1.377 . S
C1725 C1731 1.390 . S
C1726 H1717 0.930 . S
C1726 C1724 1.384 . S
C1726 C1727 1.372 . S
C1727 C1726 1.372 . S
C1727 C1728 1.400 . S
C1727 C1732 1.490 . S
C1728 H1718 0.930 . S
C1728 C1727 1.400 . S
C1728 C1731 1.386 . S
H1729 C1745 0.930 . S
H1730 C1746 0.931 . S
C1731 H1719 0.929 . S
C1731 C1725 1.390 . S
C1731 C1728 1.386 . S
C1732 C1727 1.490 . S
C1732 C1734 1.395 . S
C1732 C1735 1.403 . S
H1733 C1739 0.930 . S
C1734 H1720 0.930 . S
C1734 C1732 1.395 . S
C1734 C1737 1.403 . S
C1735 C1732 1.403 . S
C1735 C1736 1.524 . S
C1735 C1739 1.400 . S
C1736 H1721 0.960 . S
C1736 H1722 0.960 . S
C1736 H1723 0.960 . S
C1736 C1735 1.524 . S
C1737 C1734 1.403 . S
C1737 C1738 1.392 . S
C1737 C1741 1.495 . S
C1738 C1737 1.392 . S
C1738 C1739 1.385 . S
C1738 C1740 1.478 . S
C1739 H1733 0.930 . S
C1739 C1735 1.400 . S
C1739 C1738 1.385 . S
C1740 C1738 1.478 . S
C1740 C1742 1.381 . S
C1740 C1746 1.383 . S
C1741 C1737 1.495 . S
C1741 H1747 0.959 . S
C1741 H1748 0.961 . S
C1741 H1749 0.960 . S
C1742 C1740 1.381 . S
C1742 C1743 1.394 . S
C1742 H1750 0.930 . S
C1743 C1742 1.394 . S
C1743 C1744 1.383 . S
C1743 H1751 0.929 . S
C1744 C1743 1.383 . S
C1744 C1745 1.377 . S
C1745 H1729 0.930 . S
C1745 C1744 1.377 . S
C1745 C1746 1.379 . S
C1746 H1730 0.931 . S
C1746 C1740 1.383 . S
C1746 C1745 1.379 . S
H1747 C1741 0.959 . S
H1748 C1741 0.961 . S
H1749 C1741 0.960 . S
H1750 C1742 0.930 . S
H1751 C1743 0.929 . S
H1752 C1760 0.929 . S
H1753 C1762 0.930 . S
H1754 C1764 0.930 . S
H1755 C1767 0.929 . S
H1756 C1770 0.930 . S
H1757 C1772 0.960 . S
H1758 C1772 0.960 . S
H1759 C1772 0.960 . S
C1760 H1752 0.929 . S
C1760 C1761 1.377 . S
C1760 C1762 1.384 . S
C1761 C1760 1.377 . S
C1761 C1767 1.390 . S
C1762 H1753 0.930 . S
C1762 C1760 1.384 . S
C1762 C1763 1.372 . S
C1763 C1762 1.372 . S
C1763 C1764 1.400 . S
C1763 C1768 1.490 . S
C1764 H1754 0.930 . S
C1764 C1763 1.400 . S
C1764 C1767 1.386 . S
H1765 C1781 0.930 . S
H1766 C1782 0.931 . S
C1767 H1755 0.929 . S
C1767 C1761 1.390 . S
C1767 C1764 1.386 . S
C1768 C1763 1.490 . S
C1768 C1770 1.395 . S
C1768 C1771 1.403 . S
H1769 C1775 0.930 . S
C1770 H1756 0.930 . S
C1770 C1768 1.395 . S
C1770 C1773 1.403 . S
C1771 C1768 1.403 . S
C1771 C1772 1.524 . S
C1771 C1775 1.400 . S
C1772 H1757 0.960 . S
C1772 H1758 0.960 . S
C1772 H1759 0.960 . S
C1772 C1771 1.524 . S
C1773 C1770 1.403 . S
C1773 C1774 1.392 . S
C1773 C1777 1.495 . S
C1774 C1773 1.392 . S
C1774 C1775 1.385 . S
C1774 C1776 1.478 . S
C1775 H1769 0.930 . S
C1775 C1771 1.400 . S
C1775 C1774 1.385 . S
C1776 C1774 1.478 . S
C1776 C1778 1.381 . S
C1776 C1782 1.383 . S
C1777 C1773 1.495 . S
C1777 H1783 0.959 . S
C1777 H1784 0.961 . S
C1777 H1785 0.960 . S
C1778 C1776 1.381 . S
C1778 C1779 1.394 . S
C1778 H1786 0.930 . S
C1779 C1778 1.394 . S
C1779 C1780 1.383 . S
C1779 H1787 0.929 . S
C1780 C1779 1.383 . S
C1780 C1781 1.377 . S
C1781 H1765 0.930 . S
C1781 C1780 1.377 . S
C1781 C1782 1.379 . S
C1782 H1766 0.931 . S
C1782 C1776 1.383 . S
C1782 C1781 1.379 . S
H1783 C1777 0.959 . S
H1784 C1777 0.961 . S
H1785 C1777 0.960 . S
H1786 C1778 0.930 . S
H1787 C1779 0.929 . S
H1788 C1796 0.929 . S
H1789 C1798 0.930 . S
H1790 C1800 0.930 . S
H1791 C1803 0.929 . S
H1792 C1806 0.930 . S
H1793 C1808 0.960 . S
H1794 C1808 0.960 . S
H1795 C1808 0.960 . S
C1796 H1788 0.929 . S
C1796 C1797 1.377 . S
C1796 C1798 1.384 . S
C1797 C1796 1.377 . S
C1797 C1803 1.390 . S
C1798 H1789 0.930 . S
C1798 C1796 1.384 . S
C1798 C1799 1.372 . S
C1799 C1798 1.372 . S
C1799 C1800 1.400 . S
C1799 C1804 1.490 . S
C1800 H1790 0.930 . S
C1800 C1799 1.400 . S
C1800 C1803 1.386 . S
H1801 C1817 0.930 . S
H1802 C1818 0.931 . S
C1803 H1791 0.929 . S
C1803 C1797 1.390 . S
C1803 C1800 1.386 . S
C1804 C1799 1.490 . S
C1804 C1806 1.395 . S
C1804 C1807 1.403 . S
H1805 C1811 0.930 . S
C1806 H1792 0.930 . S
C1806 C1804 1.395 . S
C1806 C1809 1.403 . S
C1807 C1804 1.403 . S
C1807 C1808 1.524 . S
C1807 C1811 1.400 . S
C1808 H1793 0.960 . S
C1808 H1794 0.960 . S
C1808 H1795 0.960 . S
C1808 C1807 1.524 . S
C1809 C1806 1.403 . S
C1809 C1810 1.392 . S
C1809 C1813 1.495 . S
C1810 C1809 1.392 . S
C1810 C1811 1.385 . S
C1810 C1812 1.478 . S
C1811 H1805 0.930 . S
C1811 C1807 1.400 . S
C1811 C1810 1.385 . S
C1812 C1810 1.478 . S
C1812 C1814 1.381 . S
C1812 C1818 1.383 . S
C1813 C1809 1.495 . S
C1813 H1819 0.959 . S
C1813 H1820 0.961 . S
C1813 H1821 0.960 . S
C1814 C1812 1.381 . S
C1814 C1815 1.394 . S
C1814 H1822 0.930 . S
C1815 C1814 1.394 . S
C1815 C1816 1.383 . S
C1815 H1823 0.929 . S
C1816 C1815 1.383 . S
C1816 C1817 1.377 . S
C1817 H1801 0.930 . S
C1817 C1816 1.377 . S
C1817 C1818 1.379 . S
C1818 H1802 0.931 . S
C1818 C1812 1.383 . S
C1818 C1817 1.379 . S
H1819 C1813 0.959 . S
H1820 C1813 0.961 . S
H1821 C1813 0.960 . S
H1822 C1814 0.930 . S
H1823 C1815 0.929 . S
H1824 C1832 0.929 . S
H1825 C1834 0.930 . S
H1826 C1836 0.930 . S
H1827 C1839 0.929 . S
H1828 C1842 0.930 . S
H1829 C1844 0.960 . S
H1830 C1844 0.960 . S
H1831 C1844 0.960 . S
C1832 H1824 0.929 . S
C1832 C1833 1.377 . S
C1832 C1834 1.384 . S
C1833 C1832 1.377 . S
C1833 C1839 1.390 . S
C1834 H1825 0.930 . S
C1834 C1832 1.384 . S
C1834 C1835 1.372 . S
C1835 C1834 1.372 . S
C1835 C1836 1.400 . S
C1835 C1840 1.490 . S
C1836 H1826 0.930 . S
C1836 C1835 1.400 . S
C1836 C1839 1.386 . S
H1837 C1853 0.930 . S
H1838 C1854 0.931 . S
C1839 H1827 0.929 . S
C1839 C1833 1.390 . S
C1839 C1836 1.386 . S
C1840 C1835 1.490 . S
C1840 C1842 1.395 . S
C1840 C1843 1.403 . S
H1841 C1847 0.930 . S
C1842 H1828 0.930 . S
C1842 C1840 1.395 . S
C1842 C1845 1.403 . S
C1843 C1840 1.403 . S
C1843 C1844 1.524 . S
C1843 C1847 1.400 . S
C1844 H1829 0.960 . S
C1844 H1830 0.960 . S
C1844 H1831 0.960 . S
C1844 C1843 1.524 . S
C1845 C1842 1.403 . S
C1845 C1846 1.392 . S
C1845 C1849 1.495 . S
C1846 C1845 1.392 . S
C1846 C1847 1.385 . S
C1846 C1848 1.478 . S
C1847 H1841 0.930 . S
C1847 C1843 1.400 . S
C1847 C1846 1.385 . S
C1848 C1846 1.478 . S
C1848 C1850 1.381 . S
C1848 C1854 1.383 . S
C1849 C1845 1.495 . S
C1849 H1855 0.959 . S
C1849 H1856 0.961 . S
C1849 H1857 0.960 . S
C1850 C1848 1.381 . S
C1850 C1851 1.394 . S
C1850 H1858 0.930 . S
C1851 C1850 1.394 . S
C1851 C1852 1.383 . S
C1851 H1859 0.929 . S
C1852 C1851 1.383 . S
C1852 C1853 1.377 . S
C1853 H1837 0.930 . S
C1853 C1852 1.377 . S
C1853 C1854 1.379 . S
C1854 H1838 0.931 . S
C1854 C1848 1.383 . S
C1854 C1853 1.379 . S
H1855 C1849 0.959 . S
H1856 C1849 0.961 . S
H1857 C1849 0.960 . S
H1858 C1850 0.930 . S
H1859 C1851 0.929 . S
H1860 C1868 0.929 . S
H1861 C1870 0.930 . S
H1862 C1872 0.930 . S
H1863 C1875 0.929 . S
H1864 C1878 0.930 . S
H1865 C1880 0.960 . S
H1866 C1880 0.960 . S
H1867 C1880 0.960 . S
C1868 H1860 0.929 . S
C1868 C1869 1.377 . S
C1868 C1870 1.384 . S
C1869 C1868 1.377 . S
C1869 C1875 1.390 . S
C1870 H1861 0.930 . S
C1870 C1868 1.384 . S
C1870 C1871 1.372 . S
C1871 C1870 1.372 . S
C1871 C1872 1.400 . S
C1871 C1876 1.490 . S
C1872 H1862 0.930 . S
C1872 C1871 1.400 . S
C1872 C1875 1.386 . S
H1873 C1889 0.930 . S
H1874 C1890 0.931 . S
C1875 H1863 0.929 . S
C1875 C1869 1.390 . S
C1875 C1872 1.386 . S
C1876 C1871 1.490 . S
C1876 C1878 1.395 . S
C1876 C1879 1.403 . S
H1877 C1883 0.930 . S
C1878 H1864 0.930 . S
C1878 C1876 1.395 . S
C1878 C1881 1.403 . S
C1879 C1876 1.403 . S
C1879 C1880 1.524 . S
C1879 C1883 1.400 . S
C1880 H1865 0.960 . S
C1880 H1866 0.960 . S
C1880 H1867 0.960 . S
C1880 C1879 1.524 . S
C1881 C1878 1.403 . S
C1881 C1882 1.392 . S
C1881 C1885 1.495 . S
C1882 C1881 1.392 . S
C1882 C1883 1.385 . S
C1882 C1884 1.478 . S
C1883 H1877 0.930 . S
C1883 C1879 1.400 . S
C1883 C1882 1.385 . S
C1884 C1882 1.478 . S
C1884 C1886 1.381 . S
C1884 C1890 1.383 . S
C1885 C1881 1.495 . S
C1885 H1891 0.959 . S
C1885 H1892 0.961 . S
C1885 H1893 0.960 . S
C1886 C1884 1.381 . S
C1886 C1887 1.394 . S
C1886 H1894 0.930 . S
C1887 C1886 1.394 . S
C1887 C1888 1.383 . S
C1887 H1895 0.929 . S
C1888 C1887 1.383 . S
C1888 C1889 1.377 . S
C1889 H1873 0.930 . S
C1889 C1888 1.377 . S
C1889 C1890 1.379 . S
C1890 H1874 0.931 . S
C1890 C1884 1.383 . S
C1890 C1889 1.379 . S
H1891 C1885 0.959 . S
H1892 C1885 0.961 . S
H1893 C1885 0.960 . S
H1894 C1886 0.930 . S
H1895 C1887 0.929 . S
H1896 C1904 0.929 . S
H1897 C1906 0.930 . S
H1898 C1908 0.930 . S
H1899 C1911 0.929 . S
H1900 C1914 0.930 . S
H1901 C1916 0.960 . S
H1902 C1916 0.960 . S
H1903 C1916 0.960 . S
C1904 H1896 0.929 . S
C1904 C1905 1.377 . S
C1904 C1906 1.384 . S
C1905 C1904 1.377 . S
C1905 C1911 1.390 . S
C1906 H1897 0.930 . S
C1906 C1904 1.384 . S
C1906 C1907 1.372 . S
C1907 C1906 1.372 . S
C1907 C1908 1.400 . S
C1907 C1912 1.490 . S
C1908 H1898 0.930 . S
C1908 C1907 1.400 . S
C1908 C1911 1.386 . S
H1909 C1925 0.930 . S
H1910 C1926 0.931 . S
C1911 H1899 0.929 . S
C1911 C1905 1.390 . S
C1911 C1908 1.386 . S
C1912 C1907 1.490 . S
C1912 C1914 1.395 . S
C1912 C1915 1.403 . S
H1913 C1919 0.930 . S
C1914 H1900 0.930 . S
C1914 C1912 1.395 . S
C1914 C1917 1.403 . S
C1915 C1912 1.403 . S
C1915 C1916 1.524 . S
C1915 C1919 1.400 . S
C1916 H1901 0.960 . S
C1916 H1902 0.960 . S
C1916 H1903 0.960 . S
C1916 C1915 1.524 . S
C1917 C1914 1.403 . S
C1917 C1918 1.392 . S
C1917 C1921 1.495 . S
C1918 C1917 1.392 . S
C1918 C1919 1.385 . S
C1918 C1920 1.478 . S
C1919 H1913 0.930 . S
C1919 C1915 1.400 . S
C1919 C1918 1.385 . S
C1920 C1918 1.478 . S
C1920 C1922 1.381 . S
C1920 C1926 1.383 . S
C1921 C1917 1.495 . S
C1921 H1927 0.959 . S
C1921 H1928 0.961 . S
C1921 H1929 0.960 . S
C1922 C1920 1.381 . S
C1922 C1923 1.394 . S
C1922 H1930 0.930 . S
C1923 C1922 1.394 . S
C1923 C1924 1.383 . S
C1923 H1931 0.929 . S
C1924 C1923 1.383 . S
C1924 C1925 1.377 . S
C1925 H1909 0.930 . S
C1925 C1924 1.377 . S
C1925 C1926 1.379 . S
C1926 H1910 0.931 . S
C1926 C1920 1.383 . S
C1926 C1925 1.379 . S
H1927 C1921 0.959 . S
H1928 C1921 0.961 . S
H1929 C1921 0.960 . S
H1930 C1922 0.930 . S
H1931 C1923 0.929 . S
H1932 C1940 0.929 . S
H1933 C1942 0.930 . S
H1934 C1944 0.930 . S
H1935 C1947 0.929 . S
H1936 C1950 0.930 . S
H1937 C1952 0.960 . S
H1938 C1952 0.960 . S
H1939 C1952 0.960 . S
C1940 H1932 0.929 . S
C1940 C1941 1.377 . S
C1940 C1942 1.384 . S
C1941 C1940 1.377 . S
C1941 C1947 1.390 . S
C1942 H1933 0.930 . S
C1942 C1940 1.384 . S
C1942 C1943 1.372 . S
C1943 C1942 1.372 . S
C1943 C1944 1.400 . S
C1943 C1948 1.490 . S
C1944 H1934 0.930 . S
C1944 C1943 1.400 . S
C1944 C1947 1.386 . S
H1945 C1961 0.930 . S
H1946 C1962 0.931 . S
C1947 H1935 0.929 . S
C1947 C1941 1.390 . S
C1947 C1944 1.386 . S
C1948 C1943 1.490 . S
C1948 C1950 1.395 . S
C1948 C1951 1.403 . S
H1949 C1955 0.930 . S
C1950 H1936 0.930 . S
C1950 C1948 1.395 . S
C1950 C1953 1.403 . S
C1951 C1948 1.403 . S
C1951 C1952 1.524 . S
C1951 C1955 1.400 . S
C1952 H1937 0.960 . S
C1952 H1938 0.960 . S
C1952 H1939 0.960 . S
C1952 C1951 1.524 . S
C1953 C1950 1.403 . S
C1953 C1954 1.392 . S
C1953 C1957 1.495 . S
C1954 C1953 1.392 . S
C1954 C1955 1.385 . S
C1954 C1956 1.478 . S
C1955 H1949 0.930 . S
C1955 C1951 1.400 . S
C1955 C1954 1.385 . S
C1956 C1954 1.478 . S
C1956 C1958 1.381 . S
C1956 C1962 1.383 . S
C1957 C1953 1.495 . S
C1957 H1963 0.959 . S
C1957 H1964 0.961 . S
C1957 H1965 0.960 . S
C1958 C1956 1.381 . S
C1958 C1959 1.394 . S
C1958 H1966 0.930 . S
C1959 C1958 1.394 . S
C1959 C1960 1.383 . S
C1959 H1967 0.929 . S
C1960 C1959 1.383 . S
C1960 C1961 1.377 . S
C1961 H1945 0.930 . S
C1961 C1960 1.377 . S
C1961 C1962 1.379 . S
C1962 H1946 0.931 . S
C1962 C1956 1.383 . S
C1962 C1961 1.379 . S
H1963 C1957 0.959 . S
H1964 C1957 0.961 . S
H1965 C1957 0.960 . S
H1966 C1958 0.930 . S
H1967 C1959 0.929 . S
H1968 C1976 0.929 . S
H1969 C1978 0.930 . S
H1970 C1980 0.930 . S
H1971 C1983 0.929 . S
H1972 C1986 0.930 . S
H1973 C1988 0.960 . S
H1974 C1988 0.960 . S
H1975 C1988 0.960 . S
C1976 H1968 0.929 . S
C1976 C1977 1.377 . S
C1976 C1978 1.384 . S
C1977 C1976 1.377 . S
C1977 C1983 1.390 . S
C1978 H1969 0.930 . S
C1978 C1976 1.384 . S
C1978 C1979 1.372 . S
C1979 C1978 1.372 . S
C1979 C1980 1.400 . S
C1979 C1984 1.490 . S
C1980 H1970 0.930 . S
C1980 C1979 1.400 . S
C1980 C1983 1.386 . S
H1981 C1997 0.930 . S
H1982 C1998 0.931 . S
C1983 H1971 0.929 . S
C1983 C1977 1.390 . S
C1983 C1980 1.386 . S
C1984 C1979 1.490 . S
C1984 C1986 1.395 . S
C1984 C1987 1.403 . S
H1985 C1991 0.930 . S
C1986 H1972 0.930 . S
C1986 C1984 1.395 . S
C1986 C1989 1.403 . S
C1987 C1984 1.403 . S
C1987 C1988 1.524 . S
C1987 C1991 1.400 . S
C1988 H1973 0.960 . S
C1988 H1974 0.960 . S
C1988 H1975 0.960 . S
C1988 C1987 1.524 . S
C1989 C1986 1.403 . S
C1989 C1990 1.392 . S
C1989 C1993 1.495 . S
C1990 C1989 1.392 . S
C1990 C1991 1.385 . S
C1990 C1992 1.478 . S
C1991 H1985 0.930 . S
C1991 C1987 1.400 . S
C1991 C1990 1.385 . S
C1992 C1990 1.478 . S
C1992 C1994 1.381 . S
C1992 C1998 1.383 . S
C1993 C1989 1.495 . S
C1993 H1999 0.959 . S
C1993 H2000 0.961 . S
C1993 H2001 0.960 . S
C1994 C1992 1.381 . S
C1994 C1995 1.394 . S
C1994 H2002 0.930 . S
C1995 C1994 1.394 . S
C1995 C1996 1.383 . S
C1995 H2003 0.929 . S
C1996 C1995 1.383 . S
C1996 C1997 1.377 . S
C1997 H1981 0.930 . S
C1997 C1996 1.377 . S
C1997 C1998 1.379 . S
C1998 H1982 0.931 . S
C1998 C1992 1.383 . S
C1998 C1997 1.379 . S
H1999 C1993 0.959 . S
H2000 C1993 0.961 . S
H2001 C1993 0.960 . S
H2002 C1994 0.930 . S
H2003 C1995 0.929 . S
H2004 C2012 0.929 . S
H2005 C2014 0.930 . S
H2006 C2016 0.930 . S
H2007 C2019 0.929 . S
H2008 C2022 0.930 . S
H2009 C2024 0.960 . S
H2010 C2024 0.960 . S
H2011 C2024 0.960 . S
C2012 H2004 0.929 . S
C2012 C2013 1.377 . S
C2012 C2014 1.384 . S
C2013 C2012 1.377 . S
C2013 C2019 1.390 . S
C2014 H2005 0.930 . S
C2014 C2012 1.384 . S
C2014 C2015 1.372 . S
C2015 C2014 1.372 . S
C2015 C2016 1.400 . S
C2015 C2020 1.490 . S
C2016 H2006 0.930 . S
C2016 C2015 1.400 . S
C2016 C2019 1.386 . S
H2017 C2033 0.930 . S
H2018 C2034 0.931 . S
C2019 H2007 0.929 . S
C2019 C2013 1.390 . S
C2019 C2016 1.386 . S
C2020 C2015 1.490 . S
C2020 C2022 1.395 . S
C2020 C2023 1.403 . S
H2021 C2027 0.930 . S
C2022 H2008 0.930 . S
C2022 C2020 1.395 . S
C2022 C2025 1.403 . S
C2023 C2020 1.403 . S
C2023 C2024 1.524 . S
C2023 C2027 1.400 . S
C2024 H2009 0.960 . S
C2024 H2010 0.960 . S
C2024 H2011 0.960 . S
C2024 C2023 1.524 . S
C2025 C2022 1.403 . S
C2025 C2026 1.392 . S
C2025 C2029 1.495 . S
C2026 C2025 1.392 . S
C2026 C2027 1.385 . S
C2026 C2028 1.478 . S
C2027 H2021 0.930 . S
C2027 C2023 1.400 . S
C2027 C2026 1.385 . S
C2028 C2026 1.478 . S
C2028 C2030 1.381 . S
C2028 C2034 1.383 . S
C2029 C2025 1.495 . S
C2029 H2035 0.959 . S
C2029 H2036 0.961 . S
C2029 H2037 0.960 . S
C2030 C2028 1.381 . S
C2030 C2031 1.394 . S
C2030 H2038 0.930 . S
C2031 C2030 1.394 . S
C2031 C2032 1.383 . S
C2031 H2039 0.929 . S
C2032 C2031 1.383 . S
C2032 C2033 1.377 . S
C2033 H2017 0.930 . S
C2033 C2032 1.377 . S
C2033 C2034 1.379 . S
C2034 H2018 0.931 . S
C2034 C2028 1.383 . S
C2034 C2033 1.379 . S
H2035 C2029 0.959 . S
H2036 C2029 0.961 . S
H2037 C2029 0.960 . S
H2038 C2030 0.930 . S
H2039 C2031 0.929 . S
H2040 C2048 0.929 . S
H2041 C2050 0.930 . S
H2042 C2052 0.930 . S
H2043 C2055 0.929 . S
H2044 C2058 0.930 . S
H2045 C2060 0.960 . S
H2046 C2060 0.960 . S
H2047 C2060 0.960 . S
C2048 H2040 0.929 . S
C2048 C2049 1.377 . S
C2048 C2050 1.384 . S
C2049 C2048 1.377 . S
C2049 C2055 1.390 . S
C2050 H2041 0.930 . S
C2050 C2048 1.384 . S
C2050 C2051 1.372 . S
C2051 C2050 1.372 . S
C2051 C2052 1.400 . S
C2051 C2056 1.490 . S
C2052 H2042 0.930 . S
C2052 C2051 1.400 . S
C2052 C2055 1.386 . S
H2053 C2069 0.930 . S
H2054 C2070 0.931 . S
C2055 H2043 0.929 . S
C2055 C2049 1.390 . S
C2055 C2052 1.386 . S
C2056 C2051 1.490 . S
C2056 C2058 1.395 . S
C2056 C2059 1.403 . S
H2057 C2063 0.930 . S
C2058 H2044 0.930 . S
C2058 C2056 1.395 . S
C2058 C2061 1.403 . S
C2059 C2056 1.403 . S
C2059 C2060 1.524 . S
C2059 C2063 1.400 . S
C2060 H2045 0.960 . S
C2060 H2046 0.960 . S
C2060 H2047 0.960 . S
C2060 C2059 1.524 . S
C2061 C2058 1.403 . S
C2061 C2062 1.392 . S
C2061 C2065 1.495 . S
C2062 C2061 1.392 . S
C2062 C2063 1.385 . S
C2062 C2064 1.478 . S
C2063 H2057 0.930 . S
C2063 C2059 1.400 . S
C2063 C2062 1.385 . S
C2064 C2062 1.478 . S
C2064 C2066 1.381 . S
C2064 C2070 1.383 . S
C2065 C2061 1.495 . S
C2065 H2071 0.959 . S
C2065 H2072 0.961 . S
C2065 H2073 0.960 . S
C2066 C2064 1.381 . S
C2066 C2067 1.394 . S
C2066 H2074 0.930 . S
C2067 C2066 1.394 . S
C2067 C2068 1.383 . S
C2067 H2075 0.929 . S
C2068 C2067 1.383 . S
C2068 C2069 1.377 . S
C2069 H2053 0.930 . S
C2069 C2068 1.377 . S
C2069 C2070 1.379 . S
C2070 H2054 0.931 . S
C2070 C2064 1.383 . S
C2070 C2069 1.379 . S
H2071 C2065 0.959 . S
H2072 C2065 0.961 . S
H2073 C2065 0.960 . S
H2074 C2066 0.930 . S
H2075 C2067 0.929 . S
H2076 C2084 0.929 . S
H2077 C2086 0.930 . S
H2078 C2088 0.930 . S
H2079 C2091 0.929 . S
H2080 C2094 0.930 . S
H2081 C2096 0.960 . S
H2082 C2096 0.960 . S
H2083 C2096 0.960 . S
C2084 H2076 0.929 . S
C2084 C2085 1.377 . S
C2084 C2086 1.384 . S
C2085 C2084 1.377 . S
C2085 C2091 1.390 . S
C2086 H2077 0.930 . S
C2086 C2084 1.384 . S
C2086 C2087 1.372 . S
C2087 C2086 1.372 . S
C2087 C2088 1.400 . S
C2087 C2092 1.490 . S
C2088 H2078 0.930 . S
C2088 C2087 1.400 . S
C2088 C2091 1.386 . S
H2089 C2105 0.930 . S
H2090 C2106 0.931 . S
C2091 H2079 0.929 . S
C2091 C2085 1.390 . S
C2091 C2088 1.386 . S
C2092 C2087 1.490 . S
C2092 C2094 1.395 . S
C2092 C2095 1.403 . S
H2093 C2099 0.930 . S
C2094 H2080 0.930 . S
C2094 C2092 1.395 . S
C2094 C2097 1.403 . S
C2095 C2092 1.403 . S
C2095 C2096 1.524 . S
C2095 C2099 1.400 . S
C2096 H2081 0.960 . S
C2096 H2082 0.960 . S
C2096 H2083 0.960 . S
C2096 C2095 1.524 . S
C2097 C2094 1.403 . S
C2097 C2098 1.392 . S
C2097 C2101 1.495 . S
C2098 C2097 1.392 . S
C2098 C2099 1.385 . S
C2098 C2100 1.478 . S
C2099 H2093 0.930 . S
C2099 C2095 1.400 . S
C2099 C2098 1.385 . S
C2100 C2098 1.478 . S
C2100 C2102 1.381 . S
C2100 C2106 1.383 . S
C2101 C2097 1.495 . S
C2101 H2107 0.959 . S
C2101 H2108 0.961 . S
C2101 H2109 0.960 . S
C2102 C2100 1.381 . S
C2102 C2103 1.394 . S
C2102 H2110 0.930 . S
C2103 C2102 1.394 . S
C2103 C2104 1.383 . S
C2103 H2111 0.929 . S
C2104 C2103 1.383 . S
C2104 C2105 1.377 . S
C2105 H2089 0.930 . S
C2105 C2104 1.377 . S
C2105 C2106 1.379 . S
C2106 H2090 0.931 . S
C2106 C2100 1.383 . S
C2106 C2105 1.379 . S
H2107 C2101 0.959 . S
H2108 C2101 0.961 . S
H2109 C2101 0.960 . S
H2110 C2102 0.930 . S
H2111 C2103 0.929 . S
H2112 C2120 0.929 . S
H2113 C2122 0.930 . S
H2114 C2124 0.930 . S
H2115 C2127 0.929 . S
H2116 C2130 0.930 . S
H2117 C2132 0.960 . S
H2118 C2132 0.960 . S
H2119 C2132 0.960 . S
C2120 H2112 0.929 . S
C2120 C2121 1.377 . S
C2120 C2122 1.384 . S
C2121 C2120 1.377 . S
C2121 C2127 1.390 . S
C2122 H2113 0.930 . S
C2122 C2120 1.384 . S
C2122 C2123 1.372 . S
C2123 C2122 1.372 . S
C2123 C2124 1.400 . S
C2123 C2128 1.490 . S
C2124 H2114 0.930 . S
C2124 C2123 1.400 . S
C2124 C2127 1.386 . S
H2125 C2141 0.930 . S
H2126 C2142 0.931 . S
C2127 H2115 0.929 . S
C2127 C2121 1.390 . S
C2127 C2124 1.386 . S
C2128 C2123 1.490 . S
C2128 C2130 1.395 . S
C2128 C2131 1.403 . S
H2129 C2135 0.930 . S
C2130 H2116 0.930 . S
C2130 C2128 1.395 . S
C2130 C2133 1.403 . S
C2131 C2128 1.403 . S
C2131 C2132 1.524 . S
C2131 C2135 1.400 . S
C2132 H2117 0.960 . S
C2132 H2118 0.960 . S
C2132 H2119 0.960 . S
C2132 C2131 1.524 . S
C2133 C2130 1.403 . S
C2133 C2134 1.392 . S
C2133 C2137 1.495 . S
C2134 C2133 1.392 . S
C2134 C2135 1.385 . S
C2134 C2136 1.478 . S
C2135 H2129 0.930 . S
C2135 C2131 1.400 . S
C2135 C2134 1.385 . S
C2136 C2134 1.478 . S
C2136 C2138 1.381 . S
C2136 C2142 1.383 . S
C2137 C2133 1.495 . S
C2137 H2143 0.959 . S
C2137 H2144 0.961 . S
C2137 H2145 0.960 . S
C2138 C2136 1.381 . S
C2138 C2139 1.394 . S
C2138 H2146 0.930 . S
C2139 C2138 1.394 . S
C2139 C2140 1.383 . S
C2139 H2147 0.929 . S
C2140 C2139 1.383 . S
C2140 C2141 1.377 . S
C2141 H2125 0.930 . S
C2141 C2140 1.377 . S
C2141 C2142 1.379 . S
C2142 H2126 0.931 . S
C2142 C2136 1.383 . S
C2142 C2141 1.379 . S
H2143 C2137 0.959 . S
H2144 C2137 0.961 . S
H2145 C2137 0.960 . S
H2146 C2138 0.930 . S
H2147 C2139 0.929 . S
H2148 C2156 0.929 . S
H2149 C2158 0.930 . S
H2150 C2160 0.930 . S
H2151 C2163 0.929 . S
H2152 C2166 0.930 . S
H2153 C2168 0.960 . S
H2154 C2168 0.960 . S
H2155 C2168 0.960 . S
C2156 H2148 0.929 . S
C2156 C2157 1.377 . S
C2156 C2158 1.384 . S
C2157 C2156 1.377 . S
C2157 C2163 1.390 . S
C2158 H2149 0.930 . S
C2158 C2156 1.384 . S
C2158 C2159 1.372 . S
C2159 C2158 1.372 . S
C2159 C2160 1.400 . S
C2159 C2164 1.490 . S
C2160 H2150 0.930 . S
C2160 C2159 1.400 . S
C2160 C2163 1.386 . S
H2161 C2177 0.930 . S
H2162 C2178 0.931 . S
C2163 H2151 0.929 . S
C2163 C2157 1.390 . S
C2163 C2160 1.386 . S
C2164 C2159 1.490 . S
C2164 C2166 1.395 . S
C2164 C2167 1.403 . S
H2165 C2171 0.930 . S
C2166 H2152 0.930 . S
C2166 C2164 1.395 . S
C2166 C2169 1.403 . S
C2167 C2164 1.403 . S
C2167 C2168 1.524 . S
C2167 C2171 1.400 . S
C2168 H2153 0.960 . S
C2168 H2154 0.960 . S
C2168 H2155 0.960 . S
C2168 C2167 1.524 . S
C2169 C2166 1.403 . S
C2169 C2170 1.392 . S
C2169 C2173 1.495 . S
C2170 C2169 1.392 . S
C2170 C2171 1.385 . S
C2170 C2172 1.478 . S
C2171 H2165 0.930 . S
C2171 C2167 1.400 . S
C2171 C2170 1.385 . S
C2172 C2170 1.478 . S
C2172 C2174 1.381 . S
C2172 C2178 1.383 . S
C2173 C2169 1.495 . S
C2173 H2179 0.959 . S
C2173 H2180 0.961 . S
C2173 H2181 0.960 . S
C2174 C2172 1.381 . S
C2174 C2175 1.394 . S
C2174 H2182 0.930 . S
C2175 C2174 1.394 . S
C2175 C2176 1.383 . S
C2175 H2183 0.929 . S
C2176 C2175 1.383 . S
C2176 C2177 1.377 . S
C2177 H2161 0.930 . S
C2177 C2176 1.377 . S
C2177 C2178 1.379 . S
C2178 H2162 0.931 . S
C2178 C2172 1.383 . S
C2178 C2177 1.379 . S
H2179 C2173 0.959 . S
H2180 C2173 0.961 . S
H2181 C2173 0.960 . S
H2182 C2174 0.930 . S
H2183 C2175 0.929 . S
H2184 C2192 0.929 . S
H2185 C2194 0.930 . S
H2186 C2196 0.930 . S
H2187 C2199 0.929 . S
H2188 C2202 0.930 . S
H2189 C2204 0.960 . S
H2190 C2204 0.960 . S
H2191 C2204 0.960 . S
C2192 H2184 0.929 . S
C2192 C2193 1.377 . S
C2192 C2194 1.384 . S
C2193 C2192 1.377 . S
C2193 C2199 1.390 . S
C2194 H2185 0.930 . S
C2194 C2192 1.384 . S
C2194 C2195 1.372 . S
C2195 C2194 1.372 . S
C2195 C2196 1.400 . S
C2195 C2200 1.490 . S
C2196 H2186 0.930 . S
C2196 C2195 1.400 . S
C2196 C2199 1.386 . S
H2197 C2213 0.930 . S
H2198 C2214 0.931 . S
C2199 H2187 0.929 . S
C2199 C2193 1.390 . S
C2199 C2196 1.386 . S
C2200 C2195 1.490 . S
C2200 C2202 1.395 . S
C2200 C2203 1.403 . S
H2201 C2207 0.930 . S
C2202 H2188 0.930 . S
C2202 C2200 1.395 . S
C2202 C2205 1.403 . S
C2203 C2200 1.403 . S
C2203 C2204 1.524 . S
C2203 C2207 1.400 . S
C2204 H2189 0.960 . S
C2204 H2190 0.960 . S
C2204 H2191 0.960 . S
C2204 C2203 1.524 . S
C2205 C2202 1.403 . S
C2205 C2206 1.392 . S
C2205 C2209 1.495 . S
C2206 C2205 1.392 . S
C2206 C2207 1.385 . S
C2206 C2208 1.478 . S
C2207 H2201 0.930 . S
C2207 C2203 1.400 . S
C2207 C2206 1.385 . S
C2208 C2206 1.478 . S
C2208 C2210 1.381 . S
C2208 C2214 1.383 . S
C2209 C2205 1.495 . S
C2209 H2215 0.959 . S
C2209 H2216 0.961 . S
C2209 H2217 0.960 . S
C2210 C2208 1.381 . S
C2210 C2211 1.394 . S
C2210 H2218 0.930 . S
C2211 C2210 1.394 . S
C2211 C2212 1.383 . S
C2211 H2219 0.929 . S
C2212 C2211 1.383 . S
C2212 C2213 1.377 . S
C2213 H2197 0.930 . S
C2213 C2212 1.377 . S
C2213 C2214 1.379 . S
C2214 H2198 0.931 . S
C2214 C2208 1.383 . S
C2214 C2213 1.379 . S
H2215 C2209 0.959 . S
H2216 C2209 0.961 . S
H2217 C2209 0.960 . S
H2218 C2210 0.930 . S
H2219 C2211 0.929 . S
H2220 C2228 0.929 . S
H2221 C2230 0.930 . S
H2222 C2232 0.930 . S
H2223 C2235 0.929 . S
H2224 C2238 0.930 . S
H2225 C2240 0.960 . S
H2226 C2240 0.960 . S
H2227 C2240 0.960 . S
C2228 H2220 0.929 . S
C2228 C2229 1.377 . S
C2228 C2230 1.384 . S
C2229 C2228 1.377 . S
C2229 C2235 1.390 . S
C2230 H2221 0.930 . S
C2230 C2228 1.384 . S
C2230 C2231 1.372 . S
C2231 C2230 1.372 . S
C2231 C2232 1.400 . S
C2231 C2236 1.490 . S
C2232 H2222 0.930 . S
C2232 C2231 1.400 . S
C2232 C2235 1.386 . S
H2233 C2249 0.930 . S
H2234 C2250 0.931 . S
C2235 H2223 0.929 . S
C2235 C2229 1.390 . S
C2235 C2232 1.386 . S
C2236 C2231 1.490 . S
C2236 C2238 1.395 . S
C2236 C2239 1.403 . S
H2237 C2243 0.930 . S
C2238 H2224 0.930 . S
C2238 C2236 1.395 . S
C2238 C2241 1.403 . S
C2239 C2236 1.403 . S
C2239 C2240 1.524 . S
C2239 C2243 1.400 . S
C2240 H2225 0.960 . S
C2240 H2226 0.960 . S
C2240 H2227 0.960 . S
C2240 C2239 1.524 . S
C2241 C2238 1.403 . S
C2241 C2242 1.392 . S
C2241 C2245 1.495 . S
C2242 C2241 1.392 . S
C2242 C2243 1.385 . S
C2242 C2244 1.478 . S
C2243 H2237 0.930 . S
C2243 C2239 1.400 . S
C2243 C2242 1.385 . S
C2244 C2242 1.478 . S
C2244 C2246 1.381 . S
C2244 C2250 1.383 . S
C2245 C2241 1.495 . S
C2245 H2251 0.959 . S
C2245 H2252 0.961 . S
C2245 H2253 0.960 . S
C2246 C2244 1.381 . S
C2246 C2247 1.394 . S
C2246 H2254 0.930 . S
C2247 C2246 1.394 . S
C2247 C2248 1.383 . S
C2247 H2255 0.929 . S
C2248 C2247 1.383 . S
C2248 C2249 1.377 . S
C2249 H2233 0.930 . S
C2249 C2248 1.377 . S
C2249 C2250 1.379 . S
C2250 H2234 0.931 . S
C2250 C2244 1.383 . S
C2250 C2249 1.379 . S
H2251 C2245 0.959 . S
H2252 C2245 0.961 . S
H2253 C2245 0.960 . S
H2254 C2246 0.930 . S
H2255 C2247 0.929 . S
H2256 C2264 0.929 . S
H2257 C2266 0.930 . S
H2258 C2268 0.930 . S
H2259 C2271 0.929 . S
H2260 C2274 0.930 . S
H2261 C2276 0.960 . S
H2262 C2276 0.960 . S
H2263 C2276 0.960 . S
C2264 H2256 0.929 . S
C2264 C2265 1.377 . S
C2264 C2266 1.384 . S
C2265 C2264 1.377 . S
C2265 C2271 1.390 . S
C2266 H2257 0.930 . S
C2266 C2264 1.384 . S
C2266 C2267 1.372 . S
C2267 C2266 1.372 . S
C2267 C2268 1.400 . S
C2267 C2272 1.490 . S
C2268 H2258 0.930 . S
C2268 C2267 1.400 . S
C2268 C2271 1.386 . S
H2269 C2285 0.930 . S
H2270 C2286 0.931 . S
C2271 H2259 0.929 . S
C2271 C2265 1.390 . S
C2271 C2268 1.386 . S
C2272 C2267 1.490 . S
C2272 C2274 1.395 . S
C2272 C2275 1.403 . S
H2273 C2279 0.930 . S
C2274 H2260 0.930 . S
C2274 C2272 1.395 . S
C2274 C2277 1.403 . S
C2275 C2272 1.403 . S
C2275 C2276 1.524 . S
C2275 C2279 1.400 . S
C2276 H2261 0.960 . S
C2276 H2262 0.960 . S
C2276 H2263 0.960 . S
C2276 C2275 1.524 . S
C2277 C2274 1.403 . S
C2277 C2278 1.392 . S
C2277 C2281 1.495 . S
C2278 C2277 1.392 . S
C2278 C2279 1.385 . S
C2278 C2280 1.478 . S
C2279 H2273 0.930 . S
C2279 C2275 1.400 . S
C2279 C2278 1.385 . S
C2280 C2278 1.478 . S
C2280 C2282 1.381 . S
C2280 C2286 1.383 . S
C2281 C2277 1.495 . S
C2281 H2287 0.959 . S
C2281 H2288 0.961 . S
C2281 H2289 0.960 . S
C2282 C2280 1.381 . S
C2282 C2283 1.394 . S
C2282 H2290 0.930 . S
C2283 C2282 1.394 . S
C2283 C2284 1.383 . S
C2283 H2291 0.929 . S
C2284 C2283 1.383 . S
C2284 C2285 1.377 . S
C2285 H2269 0.930 . S
C2285 C2284 1.377 . S
C2285 C2286 1.379 . S
C2286 H2270 0.931 . S
C2286 C2280 1.383 . S
C2286 C2285 1.379 . S
H2287 C2281 0.959 . S
H2288 C2281 0.961 . S
H2289 C2281 0.960 . S
H2290 C2282 0.930 . S
H2291 C2283 0.929 . S
H2292 C2300 0.929 . S
H2293 C2302 0.930 . S
H2294 C2304 0.930 . S
H2295 C2307 0.929 . S
H2296 C2310 0.930 . S
H2297 C2312 0.960 . S
H2298 C2312 0.960 . S
H2299 C2312 0.960 . S
C2300 H2292 0.929 . S
C2300 C2301 1.377 . S
C2300 C2302 1.384 . S
C2301 C2300 1.377 . S
C2301 C2307 1.390 . S
C2302 H2293 0.930 . S
C2302 C2300 1.384 . S
C2302 C2303 1.372 . S
C2303 C2302 1.372 . S
C2303 C2304 1.400 . S
C2303 C2308 1.490 . S
C2304 H2294 0.930 . S
C2304 C2303 1.400 . S
C2304 C2307 1.386 . S
H2305 C2321 0.930 . S
H2306 C2322 0.931 . S
C2307 H2295 0.929 . S
C2307 C2301 1.390 . S
C2307 C2304 1.386 . S
C2308 C2303 1.490 . S
C2308 C2310 1.395 . S
C2308 C2311 1.403 . S
H2309 C2315 0.930 . S
C2310 H2296 0.930 . S
C2310 C2308 1.395 . S
C2310 C2313 1.403 . S
C2311 C2308 1.403 . S
C2311 C2312 1.524 . S
C2311 C2315 1.400 . S
C2312 H2297 0.960 . S
C2312 H2298 0.960 . S
C2312 H2299 0.960 . S
C2312 C2311 1.524 . S
C2313 C2310 1.403 . S
C2313 C2314 1.392 . S
C2313 C2317 1.495 . S
C2314 C2313 1.392 . S
C2314 C2315 1.385 . S
C2314 C2316 1.478 . S
C2315 H2309 0.930 . S
C2315 C2311 1.400 . S
C2315 C2314 1.385 . S
C2316 C2314 1.478 . S
C2316 C2318 1.381 . S
C2316 C2322 1.383 . S
C2317 C2313 1.495 . S
C2317 H2323 0.959 . S
C2317 H2324 0.961 . S
C2317 H2325 0.960 . S
C2318 C2316 1.381 . S
C2318 C2319 1.394 . S
C2318 H2326 0.930 . S
C2319 C2318 1.394 . S
C2319 C2320 1.383 . S
C2319 H2327 0.929 . S
C2320 C2319 1.383 . S
C2320 C2321 1.377 . S
C2321 H2305 0.930 . S
C2321 C2320 1.377 . S
C2321 C2322 1.379 . S
C2322 H2306 0.931 . S
C2322 C2316 1.383 . S
C2322 C2321 1.379 . S
H2323 C2317 0.959 . S
H2324 C2317 0.961 . S
H2325 C2317 0.960 . S
H2326 C2318 0.930 . S
H2327 C2319 0.929 . S
H2328 C2336 0.929 . S
H2329 C2338 0.930 . S
H2330 C2340 0.930 . S
H2331 C2343 0.929 . S
H2332 C2346 0.930 . S
H2333 C2348 0.960 . S
H2334 C2348 0.960 . S
H2335 C2348 0.960 . S
C2336 H2328 0.929 . S
C2336 C2337 1.377 . S
C2336 C2338 1.384 . S
C2337 C2336 1.377 . S
C2337 C2343 1.390 . S
C2338 H2329 0.930 . S
C2338 C2336 1.384 . S
C2338 C2339 1.372 . S
C2339 C2338 1.372 . S
C2339 C2340 1.400 . S
C2339 C2344 1.490 . S
C2340 H2330 0.930 . S
C2340 C2339 1.400 . S
C2340 C2343 1.386 . S
H2341 C2357 0.930 . S
H2342 C2358 0.931 . S
C2343 H2331 0.929 . S
C2343 C2337 1.390 . S
C2343 C2340 1.386 . S
C2344 C2339 1.490 . S
C2344 C2346 1.395 . S
C2344 C2347 1.403 . S
H2345 C2351 0.930 . S
C2346 H2332 0.930 . S
C2346 C2344 1.395 . S
C2346 C2349 1.403 . S
C2347 C2344 1.403 . S
C2347 C2348 1.524 . S
C2347 C2351 1.400 . S
C2348 H2333 0.960 . S
C2348 H2334 0.960 . S
C2348 H2335 0.960 . S
C2348 C2347 1.524 . S
C2349 C2346 1.403 . S
C2349 C2350 1.392 . S
C2349 C2353 1.495 . S
C2350 C2349 1.392 . S
C2350 C2351 1.385 . S
C2350 C2352 1.478 . S
C2351 H2345 0.930 . S
C2351 C2347 1.400 . S
C2351 C2350 1.385 . S
C2352 C2350 1.478 . S
C2352 C2354 1.381 . S
C2352 C2358 1.383 . S
C2353 C2349 1.495 . S
C2353 H2359 0.959 . S
C2353 H2360 0.961 . S
C2353 H2361 0.960 . S
C2354 C2352 1.381 . S
C2354 C2355 1.394 . S
C2354 H2362 0.930 . S
C2355 C2354 1.394 . S
C2355 C2356 1.383 . S
C2355 H2363 0.929 . S
C2356 C2355 1.383 . S
C2356 C2357 1.377 . S
C2357 H2341 0.930 . S
C2357 C2356 1.377 . S
C2357 C2358 1.379 . S
C2358 H2342 0.931 . S
C2358 C2352 1.383 . S
C2358 C2357 1.379 . S
H2359 C2353 0.959 . S
H2360 C2353 0.961 . S
H2361 C2353 0.960 . S
H2362 C2354 0.930 . S
H2363 C2355 0.929 . S
H2364 C2372 0.929 . S
H2365 C2374 0.930 . S
H2366 C2376 0.930 . S
H2367 C2379 0.929 . S
H2368 C2382 0.930 . S
H2369 C2384 0.960 . S
H2370 C2384 0.960 . S
H2371 C2384 0.960 . S
C2372 H2364 0.929 . S
C2372 C2373 1.377 . S
C2372 C2374 1.384 . S
C2373 C2372 1.377 . S
C2373 C2379 1.390 . S
C2374 H2365 0.930 . S
C2374 C2372 1.384 . S
C2374 C2375 1.372 . S
C2375 C2374 1.372 . S
C2375 C2376 1.400 . S
C2375 C2380 1.490 . S
C2376 H2366 0.930 . S
C2376 C2375 1.400 . S
C2376 C2379 1.386 . S
H2377 C2393 0.930 . S
H2378 C2394 0.931 . S
C2379 H2367 0.929 . S
C2379 C2373 1.390 . S
C2379 C2376 1.386 . S
C2380 C2375 1.490 . S
C2380 C2382 1.395 . S
C2380 C2383 1.403 . S
H2381 C2387 0.930 . S
C2382 H2368 0.930 . S
C2382 C2380 1.395 . S
C2382 C2385 1.403 . S
C2383 C2380 1.403 . S
C2383 C2384 1.524 . S
C2383 C2387 1.400 . S
C2384 H2369 0.960 . S
C2384 H2370 0.960 . S
C2384 H2371 0.960 . S
C2384 C2383 1.524 . S
C2385 C2382 1.403 . S
C2385 C2386 1.392 . S
C2385 C2389 1.495 . S
C2386 C2385 1.392 . S
C2386 C2387 1.385 . S
C2386 C2388 1.478 . S
C2387 H2381 0.930 . S
C2387 C2383 1.400 . S
C2387 C2386 1.385 . S
C2388 C2386 1.478 . S
C2388 C2390 1.381 . S
C2388 C2394 1.383 . S
C2389 C2385 1.495 . S
C2389 H2395 0.959 . S
C2389 H2396 0.961 . S
C2389 H2397 0.960 . S
C2390 C2388 1.381 . S
C2390 C2391 1.394 . S
C2390 H2398 0.930 . S
C2391 C2390 1.394 . S
C2391 C2392 1.383 . S
C2391 H2399 0.929 . S
C2392 C2391 1.383 . S
C2392 C2393 1.377 . S
C2393 H2377 0.930 . S
C2393 C2392 1.377 . S
C2393 C2394 1.379 . S
C2394 H2378 0.931 . S
C2394 C2388 1.383 . S
C2394 C2393 1.379 . S
H2395 C2389 0.959 . S
H2396 C2389 0.961 . S
H2397 C2389 0.960 . S
H2398 C2390 0.930 . S
H2399 C2391 0.929 . S
H2400 C2408 0.929 . S
H2401 C2410 0.930 . S
H2402 C2412 0.930 . S
H2403 C2415 0.929 . S
H2404 C2418 0.930 . S
H2405 C2420 0.960 . S
H2406 C2420 0.960 . S
H2407 C2420 0.960 . S
C2408 H2400 0.929 . S
C2408 C2409 1.377 . S
C2408 C2410 1.384 . S
C2409 C2408 1.377 . S
C2409 C2415 1.390 . S
C2410 H2401 0.930 . S
C2410 C2408 1.384 . S
C2410 C2411 1.372 . S
C2411 C2410 1.372 . S
C2411 C2412 1.400 . S
C2411 C2416 1.490 . S
C2412 H2402 0.930 . S
C2412 C2411 1.400 . S
C2412 C2415 1.386 . S
H2413 C2429 0.930 . S
H2414 C2430 0.931 . S
C2415 H2403 0.929 . S
C2415 C2409 1.390 . S
C2415 C2412 1.386 . S
C2416 C2411 1.490 . S
C2416 C2418 1.395 . S
C2416 C2419 1.403 . S
H2417 C2423 0.930 . S
C2418 H2404 0.930 . S
C2418 C2416 1.395 . S
C2418 C2421 1.403 . S
C2419 C2416 1.403 . S
C2419 C2420 1.524 . S
C2419 C2423 1.400 . S
C2420 H2405 0.960 . S
C2420 H2406 0.960 . S
C2420 H2407 0.960 . S
C2420 C2419 1.524 . S
C2421 C2418 1.403 . S
C2421 C2422 1.392 . S
C2421 C2425 1.495 . S
C2422 C2421 1.392 . S
C2422 C2423 1.385 . S
C2422 C2424 1.478 . S
C2423 H2417 0.930 . S
C2423 C2419 1.400 . S
C2423 C2422 1.385 . S
C2424 C2422 1.478 . S
C2424 C2426 1.381 . S
C2424 C2430 1.383 . S
C2425 C2421 1.495 . S
C2425 H2431 0.959 . S
C2425 H2432 0.961 . S
C2425 H2433 0.960 . S
C2426 C2424 1.381 . S
C2426 C2427 1.394 . S
C2426 H2434 0.930 . S
C2427 C2426 1.394 . S
C2427 C2428 1.383 . S
C2427 H2435 0.929 . S
C2428 C2427 1.383 . S
C2428 C2429 1.377 . S
C2429 H2413 0.930 . S
C2429 C2428 1.377 . S
C2429 C2430 1.379 . S
C2430 H2414 0.931 . S
C2430 C2424 1.383 . S
C2430 C2429 1.379 . S
H2431 C2425 0.959 . S
H2432 C2425 0.961 . S
H2433 C2425 0.960 . S
H2434 C2426 0.930 . S
H2435 C2427 0.929 . S
H2436 C2444 0.929 . S
H2437 C2446 0.930 . S
H2438 C2448 0.930 . S
H2439 C2451 0.929 . S
H2440 C2454 0.930 . S
H2441 C2456 0.960 . S
H2442 C2456 0.960 . S
H2443 C2456 0.960 . S
C2444 H2436 0.929 . S
C2444 C2445 1.377 . S
C2444 C2446 1.384 . S
C2445 C2444 1.377 . S
C2445 C2451 1.390 . S
C2446 H2437 0.930 . S
C2446 C2444 1.384 . S
C2446 C2447 1.372 . S
C2447 C2446 1.372 . S
C2447 C2448 1.400 . S
C2447 C2452 1.490 . S
C2448 H2438 0.930 . S
C2448 C2447 1.400 . S
C2448 C2451 1.386 . S
H2449 C2465 0.930 . S
H2450 C2466 0.931 . S
C2451 H2439 0.929 . S
C2451 C2445 1.390 . S
C2451 C2448 1.386 . S
C2452 C2447 1.490 . S
C2452 C2454 1.395 . S
C2452 C2455 1.403 . S
H2453 C2459 0.930 . S
C2454 H2440 0.930 . S
C2454 C2452 1.395 . S
C2454 C2457 1.403 . S
C2455 C2452 1.403 . S
C2455 C2456 1.524 . S
C2455 C2459 1.400 . S
C2456 H2441 0.960 . S
C2456 H2442 0.960 . S
C2456 H2443 0.960 . S
C2456 C2455 1.524 . S
C2457 C2454 1.403 . S
C2457 C2458 1.392 . S
C2457 C2461 1.495 . S
C2458 C2457 1.392 . S
C2458 C2459 1.385 . S
C2458 C2460 1.478 . S
C2459 H2453 0.930 . S
C2459 C2455 1.400 . S
C2459 C2458 1.385 . S
C2460 C2458 1.478 . S
C2460 C2462 1.381 . S
C2460 C2466 1.383 . S
C2461 C2457 1.495 . S
C2461 H2467 0.959 . S
C2461 H2468 0.961 . S
C2461 H2469 0.960 . S
C2462 C2460 1.381 . S
C2462 C2463 1.394 . S
C2462 H2470 0.930 . S
C2463 C2462 1.394 . S
C2463 C2464 1.383 . S
C2463 H2471 0.929 . S
C2464 C2463 1.383 . S
C2464 C2465 1.377 . S
C2465 H2449 0.930 . S
C2465 C2464 1.377 . S
C2465 C2466 1.379 . S
C2466 H2450 0.931 . S
C2466 C2460 1.383 . S
C2466 C2465 1.379 . S
H2467 C2461 0.959 . S
H2468 C2461 0.961 . S
H2469 C2461 0.960 . S
H2470 C2462 0.930 . S
H2471 C2463 0.929 . S
H2472 C2480 0.929 . S
H2473 C2482 0.930 . S
H2474 C2484 0.930 . S
H2475 C2487 0.929 . S
H2476 C2490 0.930 . S
H2477 C2492 0.960 . S
H2478 C2492 0.960 . S
H2479 C2492 0.960 . S
C2480 H2472 0.929 . S
C2480 C2481 1.377 . S
C2480 C2482 1.384 . S
C2481 C2480 1.377 . S
C2481 C2487 1.390 . S
C2482 H2473 0.930 . S
C2482 C2480 1.384 . S
C2482 C2483 1.372 . S
C2483 C2482 1.372 . S
C2483 C2484 1.400 . S
C2483 C2488 1.490 . S
C2484 H2474 0.930 . S
C2484 C2483 1.400 . S
C2484 C2487 1.386 . S
H2485 C2501 0.930 . S
H2486 C2502 0.931 . S
C2487 H2475 0.929 . S
C2487 C2481 1.390 . S
C2487 C2484 1.386 . S
C2488 C2483 1.490 . S
C2488 C2490 1.395 . S
C2488 C2491 1.403 . S
H2489 C2495 0.930 . S
C2490 H2476 0.930 . S
C2490 C2488 1.395 . S
C2490 C2493 1.403 . S
C2491 C2488 1.403 . S
C2491 C2492 1.524 . S
C2491 C2495 1.400 . S
C2492 H2477 0.960 . S
C2492 H2478 0.960 . S
C2492 H2479 0.960 . S
C2492 C2491 1.524 . S
C2493 C2490 1.403 . S
C2493 C2494 1.392 . S
C2493 C2497 1.495 . S
C2494 C2493 1.392 . S
C2494 C2495 1.385 . S
C2494 C2496 1.478 . S
C2495 H2489 0.930 . S
C2495 C2491 1.400 . S
C2495 C2494 1.385 . S
C2496 C2494 1.478 . S
C2496 C2498 1.381 . S
C2496 C2502 1.383 . S
C2497 C2493 1.495 . S
C2497 H2503 0.959 . S
C2497 H2504 0.961 . S
C2497 H2505 0.960 . S
C2498 C2496 1.381 . S
C2498 C2499 1.394 . S
C2498 H2506 0.930 . S
C2499 C2498 1.394 . S
C2499 C2500 1.383 . S
C2499 H2507 0.929 . S
C2500 C2499 1.383 . S
C2500 C2501 1.377 . S
C2501 H2485 0.930 . S
C2501 C2500 1.377 . S
C2501 C2502 1.379 . S
C2502 H2486 0.931 . S
C2502 C2496 1.383 . S
C2502 C2501 1.379 . S
H2503 C2497 0.959 . S
H2504 C2497 0.961 . S
H2505 C2497 0.960 . S
H2506 C2498 0.930 . S
H2507 C2499 0.929 . S
H2508 C2516 0.929 . S
H2509 C2518 0.930 . S
H2510 C2520 0.930 . S
H2511 C2523 0.929 . S
H2512 C2526 0.930 . S
H2513 C2528 0.960 . S
H2514 C2528 0.960 . S
H2515 C2528 0.960 . S
C2516 H2508 0.929 . S
C2516 C2517 1.377 . S
C2516 C2518 1.384 . S
C2517 C2516 1.377 . S
C2517 C2523 1.390 . S
C2518 H2509 0.930 . S
C2518 C2516 1.384 . S
C2518 C2519 1.372 . S
C2519 C2518 1.372 . S
C2519 C2520 1.400 . S
C2519 C2524 1.490 . S
C2520 H2510 0.930 . S
C2520 C2519 1.400 . S
C2520 C2523 1.386 . S
H2521 C2537 0.930 . S
H2522 C2538 0.931 . S
C2523 H2511 0.929 . S
C2523 C2517 1.390 . S
C2523 C2520 1.386 . S
C2524 C2519 1.490 . S
C2524 C2526 1.395 . S
C2524 C2527 1.403 . S
H2525 C2531 0.930 . S
C2526 H2512 0.930 . S
C2526 C2524 1.395 . S
C2526 C2529 1.403 . S
C2527 C2524 1.403 . S
C2527 C2528 1.524 . S
C2527 C2531 1.400 . S
C2528 H2513 0.960 . S
C2528 H2514 0.960 . S
C2528 H2515 0.960 . S
C2528 C2527 1.524 . S
C2529 C2526 1.403 . S
C2529 C2530 1.392 . S
C2529 C2533 1.495 . S
C2530 C2529 1.392 . S
C2530 C2531 1.385 . S
C2530 C2532 1.478 . S
C2531 H2525 0.930 . S
C2531 C2527 1.400 . S
C2531 C2530 1.385 . S
C2532 C2530 1.478 . S
C2532 C2534 1.381 . S
C2532 C2538 1.383 . S
C2533 C2529 1.495 . S
C2533 H2539 0.959 . S
C2533 H2540 0.961 . S
C2533 H2541 0.960 . S
C2534 C2532 1.381 . S
C2534 C2535 1.394 . S
C2534 H2542 0.930 . S
C2535 C2534 1.394 . S
C2535 C2536 1.383 . S
C2535 H2543 0.929 . S
C2536 C2535 1.383 . S
C2536 C2537 1.377 . S
C2537 H2521 0.930 . S
C2537 C2536 1.377 . S
C2537 C2538 1.379 . S
C2538 H2522 0.931 . S
C2538 C2532 1.383 . S
C2538 C2537 1.379 . S
H2539 C2533 0.959 . S
H2540 C2533 0.961 . S
H2541 C2533 0.960 . S
H2542 C2534 0.930 . S
H2543 C2535 0.929 . S
H2544 C2552 0.929 . S
H2545 C2554 0.930 . S
H2546 C2556 0.930 . S
H2547 C2559 0.929 . S
H2548 C2562 0.930 . S
H2549 C2564 0.960 . S
H2550 C2564 0.960 . S
H2551 C2564 0.960 . S
C2552 H2544 0.929 . S
C2552 C2553 1.377 . S
C2552 C2554 1.384 . S
C2553 C2552 1.377 . S
C2553 C2559 1.390 . S
C2554 H2545 0.930 . S
C2554 C2552 1.384 . S
C2554 C2555 1.372 . S
C2555 C2554 1.372 . S
C2555 C2556 1.400 . S
C2555 C2560 1.490 . S
C2556 H2546 0.930 . S
C2556 C2555 1.400 . S
C2556 C2559 1.386 . S
H2557 C2573 0.930 . S
H2558 C2574 0.931 . S
C2559 H2547 0.929 . S
C2559 C2553 1.390 . S
C2559 C2556 1.386 . S
C2560 C2555 1.490 . S
C2560 C2562 1.395 . S
C2560 C2563 1.403 . S
H2561 C2567 0.930 . S
C2562 H2548 0.930 . S
C2562 C2560 1.395 . S
C2562 C2565 1.403 . S
C2563 C2560 1.403 . S
C2563 C2564 1.524 . S
C2563 C2567 1.400 . S
C2564 H2549 0.960 . S
C2564 H2550 0.960 . S
C2564 H2551 0.960 . S
C2564 C2563 1.524 . S
C2565 C2562 1.403 . S
C2565 C2566 1.392 . S
C2565 C2569 1.495 . S
C2566 C2565 1.392 . S
C2566 C2567 1.385 . S
C2566 C2568 1.478 . S
C2567 H2561 0.930 . S
C2567 C2563 1.400 . S
C2567 C2566 1.385 . S
C2568 C2566 1.478 . S
C2568 C2570 1.381 . S
C2568 C2574 1.383 . S
C2569 C2565 1.495 . S
C2569 H2575 0.959 . S
C2569 H2576 0.961 . S
C2569 H2577 0.960 . S
C2570 C2568 1.381 . S
C2570 C2571 1.394 . S
C2570 H2578 0.930 . S
C2571 C2570 1.394 . S
C2571 C2572 1.383 . S
C2571 H2579 0.929 . S
C2572 C2571 1.383 . S
C2572 C2573 1.377 . S
C2573 H2557 0.930 . S
C2573 C2572 1.377 . S
C2573 C2574 1.379 . S
C2574 H2558 0.931 . S
C2574 C2568 1.383 . S
C2574 C2573 1.379 . S
H2575 C2569 0.959 . S
H2576 C2569 0.961 . S
H2577 C2569 0.960 . S
H2578 C2570 0.930 . S
H2579 C2571 0.929 . S
H2580 C2588 0.929 . S
H2581 C2590 0.930 . S
H2582 C2592 0.930 . S
H2583 C2595 0.929 . S
H2584 C2598 0.930 . S
H2585 C2600 0.960 . S
H2586 C2600 0.960 . S
H2587 C2600 0.960 . S
C2588 H2580 0.929 . S
C2588 C2589 1.377 . S
C2588 C2590 1.384 . S
C2589 C2588 1.377 . S
C2589 C2595 1.390 . S
C2590 H2581 0.930 . S
C2590 C2588 1.384 . S
C2590 C2591 1.372 . S
C2591 C2590 1.372 . S
C2591 C2592 1.400 . S
C2591 C2596 1.490 . S
C2592 H2582 0.930 . S
C2592 C2591 1.400 . S
C2592 C2595 1.386 . S
H2593 C2609 0.930 . S
H2594 C2610 0.931 . S
C2595 H2583 0.929 . S
C2595 C2589 1.390 . S
C2595 C2592 1.386 . S
C2596 C2591 1.490 . S
C2596 C2598 1.395 . S
C2596 C2599 1.403 . S
H2597 C2603 0.930 . S
C2598 H2584 0.930 . S
C2598 C2596 1.395 . S
C2598 C2601 1.403 . S
C2599 C2596 1.403 . S
C2599 C2600 1.524 . S
C2599 C2603 1.400 . S
C2600 H2585 0.960 . S
C2600 H2586 0.960 . S
C2600 H2587 0.960 . S
C2600 C2599 1.524 . S
C2601 C2598 1.403 . S
C2601 C2602 1.392 . S
C2601 C2605 1.495 . S
C2602 C2601 1.392 . S
C2602 C2603 1.385 . S
C2602 C2604 1.478 . S
C2603 H2597 0.930 . S
C2603 C2599 1.400 . S
C2603 C2602 1.385 . S
C2604 C2602 1.478 . S
C2604 C2606 1.381 . S
C2604 C2610 1.383 . S
C2605 C2601 1.495 . S
C2605 H2611 0.959 . S
C2605 H2612 0.961 . S
C2605 H2613 0.960 . S
C2606 C2604 1.381 . S
C2606 C2607 1.394 . S
C2606 H2614 0.930 . S
C2607 C2606 1.394 . S
C2607 C2608 1.383 . S
C2607 H2615 0.929 . S
C2608 C2607 1.383 . S
C2608 C2609 1.377 . S
C2609 H2593 0.930 . S
C2609 C2608 1.377 . S
C2609 C2610 1.379 . S
C2610 H2594 0.931 . S
C2610 C2604 1.383 . S
C2610 C2609 1.379 . S
H2611 C2605 0.959 . S
H2612 C2605 0.961 . S
H2613 C2605 0.960 . S
H2614 C2606 0.930 . S
H2615 C2607 0.929 . S
H2616 C2624 0.929 . S
H2617 C2626 0.930 . S
H2618 C2628 0.930 . S
H2619 C2631 0.929 . S
H2620 C2634 0.930 . S
H2621 C2636 0.960 . S
H2622 C2636 0.960 . S
H2623 C2636 0.960 . S
C2624 H2616 0.929 . S
C2624 C2625 1.377 . S
C2624 C2626 1.384 . S
C2625 C2624 1.377 . S
C2625 C2631 1.390 . S
C2626 H2617 0.930 . S
C2626 C2624 1.384 . S
C2626 C2627 1.372 . S
C2627 C2626 1.372 . S
C2627 C2628 1.400 . S
C2627 C2632 1.490 . S
C2628 H2618 0.930 . S
C2628 C2627 1.400 . S
C2628 C2631 1.386 . S
H2629 C2645 0.930 . S
H2630 C2646 0.931 . S
C2631 H2619 0.929 . S
C2631 C2625 1.390 . S
C2631 C2628 1.386 . S
C2632 C2627 1.490 . S
C2632 C2634 1.395 . S
C2632 C2635 1.403 . S
H2633 C2639 0.930 . S
C2634 H2620 0.930 . S
C2634 C2632 1.395 . S
C2634 C2637 1.403 . S
C2635 C2632 1.403 . S
C2635 C2636 1.524 . S
C2635 C2639 1.400 . S
C2636 H2621 0.960 . S
C2636 H2622 0.960 . S
C2636 H2623 0.960 . S
C2636 C2635 1.524 . S
C2637 C2634 1.403 . S
C2637 C2638 1.392 . S
C2637 C2641 1.495 . S
C2638 C2637 1.392 . S
C2638 C2639 1.385 . S
C2638 C2640 1.478 . S
C2639 H2633 0.930 . S
C2639 C2635 1.400 . S
C2639 C2638 1.385 . S
C2640 C2638 1.478 . S
C2640 C2642 1.381 . S
C2640 C2646 1.383 . S
C2641 C2637 1.495 . S
C2641 H2647 0.959 . S
C2641 H2648 0.961 . S
C2641 H2649 0.960 . S
C2642 C2640 1.381 . S
C2642 C2643 1.394 . S
C2642 H2650 0.930 . S
C2643 C2642 1.394 . S
C2643 C2644 1.383 . S
C2643 H2651 0.929 . S
C2644 C2643 1.383 . S
C2644 C2645 1.377 . S
C2645 H2629 0.930 . S
C2645 C2644 1.377 . S
C2645 C2646 1.379 . S
C2646 H2630 0.931 . S
C2646 C2640 1.383 . S
C2646 C2645 1.379 . S
H2647 C2641 0.959 . S
H2648 C2641 0.961 . S
H2649 C2641 0.960 . S
H2650 C2642 0.930 . S
H2651 C2643 0.929 . S
H2652 C2660 0.929 . S
H2653 C2662 0.930 . S
H2654 C2664 0.930 . S
H2655 C2667 0.929 . S
H2656 C2670 0.930 . S
H2657 C2672 0.960 . S
H2658 C2672 0.960 . S
H2659 C2672 0.960 . S
C2660 H2652 0.929 . S
C2660 C2661 1.377 . S
C2660 C2662 1.384 . S
C2661 C2660 1.377 . S
C2661 C2667 1.390 . S
C2662 H2653 0.930 . S
C2662 C2660 1.384 . S
C2662 C2663 1.372 . S
C2663 C2662 1.372 . S
C2663 C2664 1.400 . S
C2663 C2668 1.490 . S
C2664 H2654 0.930 . S
C2664 C2663 1.400 . S
C2664 C2667 1.386 . S
H2665 C2681 0.930 . S
H2666 C2682 0.931 . S
C2667 H2655 0.929 . S
C2667 C2661 1.390 . S
C2667 C2664 1.386 . S
C2668 C2663 1.490 . S
C2668 C2670 1.395 . S
C2668 C2671 1.403 . S
H2669 C2675 0.930 . S
C2670 H2656 0.930 . S
C2670 C2668 1.395 . S
C2670 C2673 1.403 . S
C2671 C2668 1.403 . S
C2671 C2672 1.524 . S
C2671 C2675 1.400 . S
C2672 H2657 0.960 . S
C2672 H2658 0.960 . S
C2672 H2659 0.960 . S
C2672 C2671 1.524 . S
C2673 C2670 1.403 . S
C2673 C2674 1.392 . S
C2673 C2677 1.495 . S
C2674 C2673 1.392 . S
C2674 C2675 1.385 . S
C2674 C2676 1.478 . S
C2675 H2669 0.930 . S
C2675 C2671 1.400 . S
C2675 C2674 1.385 . S
C2676 C2674 1.478 . S
C2676 C2678 1.381 . S
C2676 C2682 1.383 . S
C2677 C2673 1.495 . S
C2677 H2683 0.959 . S
C2677 H2684 0.961 . S
C2677 H2685 0.960 . S
C2678 C2676 1.381 . S
C2678 C2679 1.394 . S
C2678 H2686 0.930 . S
C2679 C2678 1.394 . S
C2679 C2680 1.383 . S
C2679 H2687 0.929 . S
C2680 C2679 1.383 . S
C2680 C2681 1.377 . S
C2681 H2665 0.930 . S
C2681 C2680 1.377 . S
C2681 C2682 1.379 . S
C2682 H2666 0.931 . S
C2682 C2676 1.383 . S
C2682 C2681 1.379 . S
H2683 C2677 0.959 . S
H2684 C2677 0.961 . S
H2685 C2677 0.960 . S
H2686 C2678 0.930 . S
H2687 C2679 0.929 . S
H2688 C2696 0.929 . S
H2689 C2698 0.930 . S
H2690 C2700 0.930 . S
H2691 C2703 0.929 . S
H2692 C2706 0.930 . S
H2693 C2708 0.960 . S
H2694 C2708 0.960 . S
H2695 C2708 0.960 . S
C2696 H2688 0.929 . S
C2696 C2697 1.377 . S
C2696 C2698 1.384 . S
C2697 C2696 1.377 . S
C2697 C2703 1.390 . S
C2698 H2689 0.930 . S
C2698 C2696 1.384 . S
C2698 C2699 1.372 . S
C2699 C2698 1.372 . S
C2699 C2700 1.400 . S
C2699 C2704 1.490 . S
C2700 H2690 0.930 . S
C2700 C2699 1.400 . S
C2700 C2703 1.386 . S
H2701 C2717 0.930 . S
H2702 C2718 0.931 . S
C2703 H2691 0.929 . S
C2703 C2697 1.390 . S
C2703 C2700 1.386 . S
C2704 C2699 1.490 . S
C2704 C2706 1.395 . S
C2704 C2707 1.403 . S
H2705 C2711 0.930 . S
C2706 H2692 0.930 . S
C2706 C2704 1.395 . S
C2706 C2709 1.403 . S
C2707 C2704 1.403 . S
C2707 C2708 1.524 . S
C2707 C2711 1.400 . S
C2708 H2693 0.960 . S
C2708 H2694 0.960 . S
C2708 H2695 0.960 . S
C2708 C2707 1.524 . S
C2709 C2706 1.403 . S
C2709 C2710 1.392 . S
C2709 C2713 1.495 . S
C2710 C2709 1.392 . S
C2710 C2711 1.385 . S
C2710 C2712 1.478 . S
C2711 H2705 0.930 . S
C2711 C2707 1.400 . S
C2711 C2710 1.385 . S
C2712 C2710 1.478 . S
C2712 C2714 1.381 . S
C2712 C2718 1.383 . S
C2713 C2709 1.495 . S
C2713 H2719 0.959 . S
C2713 H2720 0.961 . S
C2713 H2721 0.960 . S
C2714 C2712 1.381 . S
C2714 C2715 1.394 . S
C2714 H2722 0.930 . S
C2715 C2714 1.394 . S
C2715 C2716 1.383 . S
C2715 H2723 0.929 . S
C2716 C2715 1.383 . S
C2716 C2717 1.377 . S
C2717 H2701 0.930 . S
C2717 C2716 1.377 . S
C2717 C2718 1.379 . S
C2718 H2702 0.931 . S
C2718 C2712 1.383 . S
C2718 C2717 1.379 . S
H2719 C2713 0.959 . S
H2720 C2713 0.961 . S
H2721 C2713 0.960 . S
H2722 C2714 0.930 . S
H2723 C2715 0.929 . S
H2724 C2732 0.929 . S
H2725 C2734 0.930 . S
H2726 C2736 0.930 . S
H2727 C2739 0.929 . S
H2728 C2742 0.930 . S
H2729 C2744 0.960 . S
H2730 C2744 0.960 . S
H2731 C2744 0.960 . S
C2732 H2724 0.929 . S
C2732 C2733 1.377 . S
C2732 C2734 1.384 . S
C2733 C2732 1.377 . S
C2733 C2739 1.390 . S
C2734 H2725 0.930 . S
C2734 C2732 1.384 . S
C2734 C2735 1.372 . S
C2735 C2734 1.372 . S
C2735 C2736 1.400 . S
C2735 C2740 1.490 . S
C2736 H2726 0.930 . S
C2736 C2735 1.400 . S
C2736 C2739 1.386 . S
H2737 C2753 0.930 . S
H2738 C2754 0.931 . S
C2739 H2727 0.929 . S
C2739 C2733 1.390 . S
C2739 C2736 1.386 . S
C2740 C2735 1.490 . S
C2740 C2742 1.395 . S
C2740 C2743 1.403 . S
H2741 C2747 0.930 . S
C2742 H2728 0.930 . S
C2742 C2740 1.395 . S
C2742 C2745 1.403 . S
C2743 C2740 1.403 . S
C2743 C2744 1.524 . S
C2743 C2747 1.400 . S
C2744 H2729 0.960 . S
C2744 H2730 0.960 . S
C2744 H2731 0.960 . S
C2744 C2743 1.524 . S
C2745 C2742 1.403 . S
C2745 C2746 1.392 . S
C2745 C2749 1.495 . S
C2746 C2745 1.392 . S
C2746 C2747 1.385 . S
C2746 C2748 1.478 . S
C2747 H2741 0.930 . S
C2747 C2743 1.400 . S
C2747 C2746 1.385 . S
C2748 C2746 1.478 . S
C2748 C2750 1.381 . S
C2748 C2754 1.383 . S
C2749 C2745 1.495 . S
C2749 H2755 0.959 . S
C2749 H2756 0.961 . S
C2749 H2757 0.960 . S
C2750 C2748 1.381 . S
C2750 C2751 1.394 . S
C2750 H2758 0.930 . S
C2751 C2750 1.394 . S
C2751 C2752 1.383 . S
C2751 H2759 0.929 . S
C2752 C2751 1.383 . S
C2752 C2753 1.377 . S
C2753 H2737 0.930 . S
C2753 C2752 1.377 . S
C2753 C2754 1.379 . S
C2754 H2738 0.931 . S
C2754 C2748 1.383 . S
C2754 C2753 1.379 . S
H2755 C2749 0.959 . S
H2756 C2749 0.961 . S
H2757 C2749 0.960 . S
H2758 C2750 0.930 . S
H2759 C2751 0.929 . S
H2760 C2768 0.929 . S
H2761 C2770 0.930 . S
H2762 C2772 0.930 . S
H2763 C2775 0.929 . S
H2764 C2778 0.930 . S
H2765 C2780 0.960 . S
H2766 C2780 0.960 . S
H2767 C2780 0.960 . S
C2768 H2760 0.929 . S
C2768 C2769 1.377 . S
C2768 C2770 1.384 . S
C2769 C2768 1.377 . S
C2769 C2775 1.390 . S
C2770 H2761 0.930 . S
C2770 C2768 1.384 . S
C2770 C2771 1.372 . S
C2771 C2770 1.372 . S
C2771 C2772 1.400 . S
C2771 C2776 1.490 . S
C2772 H2762 0.930 . S
C2772 C2771 1.400 . S
C2772 C2775 1.386 . S
H2773 C2789 0.930 . S
H2774 C2790 0.931 . S
C2775 H2763 0.929 . S
C2775 C2769 1.390 . S
C2775 C2772 1.386 . S
C2776 C2771 1.490 . S
C2776 C2778 1.395 . S
C2776 C2779 1.403 . S
H2777 C2783 0.930 . S
C2778 H2764 0.930 . S
C2778 C2776 1.395 . S
C2778 C2781 1.403 . S
C2779 C2776 1.403 . S
C2779 C2780 1.524 . S
C2779 C2783 1.400 . S
C2780 H2765 0.960 . S
C2780 H2766 0.960 . S
C2780 H2767 0.960 . S
C2780 C2779 1.524 . S
C2781 C2778 1.403 . S
C2781 C2782 1.392 . S
C2781 C2785 1.495 . S
C2782 C2781 1.392 . S
C2782 C2783 1.385 . S
C2782 C2784 1.478 . S
C2783 H2777 0.930 . S
C2783 C2779 1.400 . S
C2783 C2782 1.385 . S
C2784 C2782 1.478 . S
C2784 C2786 1.381 . S
C2784 C2790 1.383 . S
C2785 C2781 1.495 . S
C2785 H2791 0.959 . S
C2785 H2792 0.961 . S
C2785 H2793 0.960 . S
C2786 C2784 1.381 . S
C2786 C2787 1.394 . S
C2786 H2794 0.930 . S
C2787 C2786 1.394 . S
C2787 C2788 1.383 . S
C2787 H2795 0.929 . S
C2788 C2787 1.383 . S
C2788 C2789 1.377 . S
C2789 H2773 0.930 . S
C2789 C2788 1.377 . S
C2789 C2790 1.379 . S
C2790 H2774 0.931 . S
C2790 C2784 1.383 . S
C2790 C2789 1.379 . S
H2791 C2785 0.959 . S
H2792 C2785 0.961 . S
H2793 C2785 0.960 . S
H2794 C2786 0.930 . S
H2795 C2787 0.929 . S
H2796 C2804 0.929 . S
H2797 C2806 0.930 . S
H2798 C2808 0.930 . S
H2799 C2811 0.929 . S
H2800 C2814 0.930 . S
H2801 C2816 0.960 . S
H2802 C2816 0.960 . S
H2803 C2816 0.960 . S
C2804 H2796 0.929 . S
C2804 C2805 1.377 . S
C2804 C2806 1.384 . S
C2805 C2804 1.377 . S
C2805 C2811 1.390 . S
C2806 H2797 0.930 . S
C2806 C2804 1.384 . S
C2806 C2807 1.372 . S
C2807 C2806 1.372 . S
C2807 C2808 1.400 . S
C2807 C2812 1.490 . S
C2808 H2798 0.930 . S
C2808 C2807 1.400 . S
C2808 C2811 1.386 . S
H2809 C2825 0.930 . S
H2810 C2826 0.931 . S
C2811 H2799 0.929 . S
C2811 C2805 1.390 . S
C2811 C2808 1.386 . S
C2812 C2807 1.490 . S
C2812 C2814 1.395 . S
C2812 C2815 1.403 . S
H2813 C2819 0.930 . S
C2814 H2800 0.930 . S
C2814 C2812 1.395 . S
C2814 C2817 1.403 . S
C2815 C2812 1.403 . S
C2815 C2816 1.524 . S
C2815 C2819 1.400 . S
C2816 H2801 0.960 . S
C2816 H2802 0.960 . S
C2816 H2803 0.960 . S
C2816 C2815 1.524 . S
C2817 C2814 1.403 . S
C2817 C2818 1.392 . S
C2817 C2821 1.495 . S
C2818 C2817 1.392 . S
C2818 C2819 1.385 . S
C2818 C2820 1.478 . S
C2819 H2813 0.930 . S
C2819 C2815 1.400 . S
C2819 C2818 1.385 . S
C2820 C2818 1.478 . S
C2820 C2822 1.381 . S
C2820 C2826 1.383 . S
C2821 C2817 1.495 . S
C2821 H2827 0.959 . S
C2821 H2828 0.961 . S
C2821 H2829 0.960 . S
C2822 C2820 1.381 . S
C2822 C2823 1.394 . S
C2822 H2830 0.930 . S
C2823 C2822 1.394 . S
C2823 C2824 1.383 . S
C2823 H2831 0.929 . S
C2824 C2823 1.383 . S
C2824 C2825 1.377 . S
C2825 H2809 0.930 . S
C2825 C2824 1.377 . S
C2825 C2826 1.379 . S
C2826 H2810 0.931 . S
C2826 C2820 1.383 . S
C2826 C2825 1.379 . S
H2827 C2821 0.959 . S
H2828 C2821 0.961 . S
H2829 C2821 0.960 . S
H2830 C2822 0.930 . S
H2831 C2823 0.929 . S
H2832 C2840 0.929 . S
H2833 C2842 0.930 . S
H2834 C2844 0.930 . S
H2835 C2847 0.929 . S
H2836 C2850 0.930 . S
H2837 C2852 0.960 . S
H2838 C2852 0.960 . S
H2839 C2852 0.960 . S
C2840 H2832 0.929 . S
C2840 C2841 1.377 . S
C2840 C2842 1.384 . S
C2841 C2840 1.377 . S
C2841 C2847 1.390 . S
C2842 H2833 0.930 . S
C2842 C2840 1.384 . S
C2842 C2843 1.372 . S
C2843 C2842 1.372 . S
C2843 C2844 1.400 . S
C2843 C2848 1.490 . S
C2844 H2834 0.930 . S
C2844 C2843 1.400 . S
C2844 C2847 1.386 . S
H2845 C2861 0.930 . S
H2846 C2862 0.931 . S
C2847 H2835 0.929 . S
C2847 C2841 1.390 . S
C2847 C2844 1.386 . S
C2848 C2843 1.490 . S
C2848 C2850 1.395 . S
C2848 C2851 1.403 . S
H2849 C2855 0.930 . S
C2850 H2836 0.930 . S
C2850 C2848 1.395 . S
C2850 C2853 1.403 . S
C2851 C2848 1.403 . S
C2851 C2852 1.524 . S
C2851 C2855 1.400 . S
C2852 H2837 0.960 . S
C2852 H2838 0.960 . S
C2852 H2839 0.960 . S
C2852 C2851 1.524 . S
C2853 C2850 1.403 . S
C2853 C2854 1.392 . S
C2853 C2857 1.495 . S
C2854 C2853 1.392 . S
C2854 C2855 1.385 . S
C2854 C2856 1.478 . S
C2855 H2849 0.930 . S
C2855 C2851 1.400 . S
C2855 C2854 1.385 . S
C2856 C2854 1.478 . S
C2856 C2858 1.381 . S
C2856 C2862 1.383 . S
C2857 C2853 1.495 . S
C2857 H2863 0.959 . S
C2857 H2864 0.961 . S
C2857 H2865 0.960 . S
C2858 C2856 1.381 . S
C2858 C2859 1.394 . S
C2858 H2866 0.930 . S
C2859 C2858 1.394 . S
C2859 C2860 1.383 . S
C2859 H2867 0.929 . S
C2860 C2859 1.383 . S
C2860 C2861 1.377 . S
C2861 H2845 0.930 . S
C2861 C2860 1.377 . S
C2861 C2862 1.379 . S
C2862 H2846 0.931 . S
C2862 C2856 1.383 . S
C2862 C2861 1.379 . S
H2863 C2857 0.959 . S
H2864 C2857 0.961 . S
H2865 C2857 0.960 . S
H2866 C2858 0.930 . S
H2867 C2859 0.929 . S
H2868 C2876 0.929 . S
H2869 C2878 0.930 . S
H2870 C2880 0.930 . S
H2871 C2883 0.929 . S
H2872 C2886 0.930 . S
H2873 C2888 0.960 . S
H2874 C2888 0.960 . S
H2875 C2888 0.960 . S
C2876 H2868 0.929 . S
C2876 C2877 1.377 . S
C2876 C2878 1.384 . S
C2877 C2876 1.377 . S
C2877 C2883 1.390 . S
C2878 H2869 0.930 . S
C2878 C2876 1.384 . S
C2878 C2879 1.372 . S
C2879 C2878 1.372 . S
C2879 C2880 1.400 . S
C2879 C2884 1.490 . S
C2880 H2870 0.930 . S
C2880 C2879 1.400 . S
C2880 C2883 1.386 . S
H2881 C2897 0.930 . S
H2882 C2898 0.931 . S
C2883 H2871 0.929 . S
C2883 C2877 1.390 . S
C2883 C2880 1.386 . S
C2884 C2879 1.490 . S
C2884 C2886 1.395 . S
C2884 C2887 1.403 . S
H2885 C2891 0.930 . S
C2886 H2872 0.930 . S
C2886 C2884 1.395 . S
C2886 C2889 1.403 . S
C2887 C2884 1.403 . S
C2887 C2888 1.524 . S
C2887 C2891 1.400 . S
C2888 H2873 0.960 . S
C2888 H2874 0.960 . S
C2888 H2875 0.960 . S
C2888 C2887 1.524 . S
C2889 C2886 1.403 . S
C2889 C2890 1.392 . S
C2889 C2893 1.495 . S
C2890 C2889 1.392 . S
C2890 C2891 1.385 . S
C2890 C2892 1.478 . S
C2891 H2885 0.930 . S
C2891 C2887 1.400 . S
C2891 C2890 1.385 . S
C2892 C2890 1.478 . S
C2892 C2894 1.381 . S
C2892 C2898 1.383 . S
C2893 C2889 1.495 . S
C2893 H2899 0.959 . S
C2893 H2900 0.961 . S
C2893 H2901 0.960 . S
C2894 C2892 1.381 . S
C2894 C2895 1.394 . S
C2894 H2902 0.930 . S
C2895 C2894 1.394 . S
C2895 C2896 1.383 . S
C2895 H2903 0.929 . S
C2896 C2895 1.383 . S
C2896 C2897 1.377 . S
C2897 H2881 0.930 . S
C2897 C2896 1.377 . S
C2897 C2898 1.379 . S
C2898 H2882 0.931 . S
C2898 C2892 1.383 . S
C2898 C2897 1.379 . S
H2899 C2893 0.959 . S
H2900 C2893 0.961 . S
H2901 C2893 0.960 . S
H2902 C2894 0.930 . S
H2903 C2895 0.929 . S
H2904 C2912 0.929 . S
H2905 C2914 0.930 . S
H2906 C2916 0.930 . S
H2907 C2919 0.929 . S
H2908 C2922 0.930 . S
H2909 C2924 0.960 . S
H2910 C2924 0.960 . S
H2911 C2924 0.960 . S
C2912 H2904 0.929 . S
C2912 C2913 1.377 . S
C2912 C2914 1.384 . S
C2913 C2912 1.377 . S
C2913 C2919 1.390 . S
C2914 H2905 0.930 . S
C2914 C2912 1.384 . S
C2914 C2915 1.372 . S
C2915 C2914 1.372 . S
C2915 C2916 1.400 . S
C2915 C2920 1.490 . S
C2916 H2906 0.930 . S
C2916 C2915 1.400 . S
C2916 C2919 1.386 . S
H2917 C2933 0.930 . S
H2918 C2934 0.931 . S
C2919 H2907 0.929 . S
C2919 C2913 1.390 . S
C2919 C2916 1.386 . S
C2920 C2915 1.490 . S
C2920 C2922 1.395 . S
C2920 C2923 1.403 . S
H2921 C2927 0.930 . S
C2922 H2908 0.930 . S
C2922 C2920 1.395 . S
C2922 C2925 1.403 . S
C2923 C2920 1.403 . S
C2923 C2924 1.524 . S
C2923 C2927 1.400 . S
C2924 H2909 0.960 . S
C2924 H2910 0.960 . S
C2924 H2911 0.960 . S
C2924 C2923 1.524 . S
C2925 C2922 1.403 . S
C2925 C2926 1.392 . S
C2925 C2929 1.495 . S
C2926 C2925 1.392 . S
C2926 C2927 1.385 . S
C2926 C2928 1.478 . S
C2927 H2921 0.930 . S
C2927 C2923 1.400 . S
C2927 C2926 1.385 . S
C2928 C2926 1.478 . S
C2928 C2930 1.381 . S
C2928 C2934 1.383 . S
C2929 C2925 1.495 . S
C2929 H2935 0.959 . S
C2929 H2936 0.961 . S
C2929 H2937 0.960 . S
C2930 C2928 1.381 . S
C2930 C2931 1.394 . S
C2930 H2938 0.930 . S
C2931 C2930 1.394 . S
C2931 C2932 1.383 . S
C2931 H2939 0.929 . S
C2932 C2931 1.383 . S
C2932 C2933 1.377 . S
C2933 H2917 0.930 . S
C2933 C2932 1.377 . S
C2933 C2934 1.379 . S
C2934 H2918 0.931 . S
C2934 C2928 1.383 . S
C2934 C2933 1.379 . S
H2935 C2929 0.959 . S
H2936 C2929 0.961 . S
H2937 C2929 0.960 . S
H2938 C2930 0.930 . S
H2939 C2931 0.929 . S
H2940 C2948 0.929 . S
H2941 C2950 0.930 . S
H2942 C2952 0.930 . S
H2943 C2955 0.929 . S
H2944 C2958 0.930 . S
H2945 C2960 0.960 . S
H2946 C2960 0.960 . S
H2947 C2960 0.960 . S
C2948 H2940 0.929 . S
C2948 C2949 1.377 . S
C2948 C2950 1.384 . S
C2949 C2948 1.377 . S
C2949 C2955 1.390 . S
C2950 H2941 0.930 . S
C2950 C2948 1.384 . S
C2950 C2951 1.372 . S
C2951 C2950 1.372 . S
C2951 C2952 1.400 . S
C2951 C2956 1.490 . S
C2952 H2942 0.930 . S
C2952 C2951 1.400 . S
C2952 C2955 1.386 . S
H2953 C2969 0.930 . S
H2954 C2970 0.931 . S
C2955 H2943 0.929 . S
C2955 C2949 1.390 . S
C2955 C2952 1.386 . S
C2956 C2951 1.490 . S
C2956 C2958 1.395 . S
C2956 C2959 1.403 . S
H2957 C2963 0.930 . S
C2958 H2944 0.930 . S
C2958 C2956 1.395 . S
C2958 C2961 1.403 . S
C2959 C2956 1.403 . S
C2959 C2960 1.524 . S
C2959 C2963 1.400 . S
C2960 H2945 0.960 . S
C2960 H2946 0.960 . S
C2960 H2947 0.960 . S
C2960 C2959 1.524 . S
C2961 C2958 1.403 . S
C2961 C2962 1.392 . S
C2961 C2965 1.495 . S
C2962 C2961 1.392 . S
C2962 C2963 1.385 . S
C2962 C2964 1.478 . S
C2963 H2957 0.930 . S
C2963 C2959 1.400 . S
C2963 C2962 1.385 . S
C2964 C2962 1.478 . S
C2964 C2966 1.381 . S
C2964 C2970 1.383 . S
C2965 C2961 1.495 . S
C2965 H2971 0.959 . S
C2965 H2972 0.961 . S
C2965 H2973 0.960 . S
C2966 C2964 1.381 . S
C2966 C2967 1.394 . S
C2966 H2974 0.930 . S
C2967 C2966 1.394 . S
C2967 C2968 1.383 . S
C2967 H2975 0.929 . S
C2968 C2967 1.383 . S
C2968 C2969 1.377 . S
C2969 H2953 0.930 . S
C2969 C2968 1.377 . S
C2969 C2970 1.379 . S
C2970 H2954 0.931 . S
C2970 C2964 1.383 . S
C2970 C2969 1.379 . S
H2971 C2965 0.959 . S
H2972 C2965 0.961 . S
H2973 C2965 0.960 . S
H2974 C2966 0.930 . S
H2975 C2967 0.929 . S
H2976 C2984 0.929 . S
H2977 C2986 0.930 . S
H2978 C2988 0.930 . S
H2979 C2991 0.929 . S
H2980 C2994 0.930 . S
H2981 C2996 0.960 . S
H2982 C2996 0.960 . S
H2983 C2996 0.960 . S
C2984 H2976 0.929 . S
C2984 C2985 1.377 . S
C2984 C2986 1.384 . S
C2985 C2984 1.377 . S
C2985 C2991 1.390 . S
C2986 H2977 0.930 . S
C2986 C2984 1.384 . S
C2986 C2987 1.372 . S
C2987 C2986 1.372 . S
C2987 C2988 1.400 . S
C2987 C2992 1.490 . S
C2988 H2978 0.930 . S
C2988 C2987 1.400 . S
C2988 C2991 1.386 . S
H2989 C3005 0.930 . S
H2990 C3006 0.931 . S
C2991 H2979 0.929 . S
C2991 C2985 1.390 . S
C2991 C2988 1.386 . S
C2992 C2987 1.490 . S
C2992 C2994 1.395 . S
C2992 C2995 1.403 . S
H2993 C2999 0.930 . S
C2994 H2980 0.930 . S
C2994 C2992 1.395 . S
C2994 C2997 1.403 . S
C2995 C2992 1.403 . S
C2995 C2996 1.524 . S
C2995 C2999 1.400 . S
C2996 H2981 0.960 . S
C2996 H2982 0.960 . S
C2996 H2983 0.960 . S
C2996 C2995 1.524 . S
C2997 C2994 1.403 . S
C2997 C2998 1.392 . S
C2997 C3001 1.495 . S
C2998 C2997 1.392 . S
C2998 C2999 1.385 . S
C2998 C3000 1.478 . S
C2999 H2993 0.930 . S
C2999 C2995 1.400 . S
C2999 C2998 1.385 . S
C3000 C2998 1.478 . S
C3000 C3002 1.381 . S
C3000 C3006 1.383 . S
C3001 C2997 1.495 . S
C3001 H3007 0.959 . S
C3001 H3008 0.961 . S
C3001 H3009 0.960 . S
C3002 C3000 1.381 . S
C3002 C3003 1.394 . S
C3002 H3010 0.930 . S
C3003 C3002 1.394 . S
C3003 C3004 1.383 . S
C3003 H3011 0.929 . S
C3004 C3003 1.383 . S
C3004 C3005 1.377 . S
C3005 H2989 0.930 . S
C3005 C3004 1.377 . S
C3005 C3006 1.379 . S
C3006 H2990 0.931 . S
C3006 C3000 1.383 . S
C3006 C3005 1.379 . S
H3007 C3001 0.959 . S
H3008 C3001 0.961 . S
H3009 C3001 0.960 . S
H3010 C3002 0.930 . S
H3011 C3003 0.929 . S
H3012 C3020 0.929 . S
H3013 C3022 0.930 . S
H3014 C3024 0.930 . S
H3015 C3027 0.929 . S
H3016 C3030 0.930 . S
H3017 C3032 0.960 . S
H3018 C3032 0.960 . S
H3019 C3032 0.960 . S
C3020 H3012 0.929 . S
C3020 C3021 1.377 . S
C3020 C3022 1.384 . S
C3021 C3020 1.377 . S
C3021 C3027 1.390 . S
C3022 H3013 0.930 . S
C3022 C3020 1.384 . S
C3022 C3023 1.372 . S
C3023 C3022 1.372 . S
C3023 C3024 1.400 . S
C3023 C3028 1.490 . S
C3024 H3014 0.930 . S
C3024 C3023 1.400 . S
C3024 C3027 1.386 . S
H3025 C3041 0.930 . S
H3026 C3042 0.931 . S
C3027 H3015 0.929 . S
C3027 C3021 1.390 . S
C3027 C3024 1.386 . S
C3028 C3023 1.490 . S
C3028 C3030 1.395 . S
C3028 C3031 1.403 . S
H3029 C3035 0.930 . S
C3030 H3016 0.930 . S
C3030 C3028 1.395 . S
C3030 C3033 1.403 . S
C3031 C3028 1.403 . S
C3031 C3032 1.524 . S
C3031 C3035 1.400 . S
C3032 H3017 0.960 . S
C3032 H3018 0.960 . S
C3032 H3019 0.960 . S
C3032 C3031 1.524 . S
C3033 C3030 1.403 . S
C3033 C3034 1.392 . S
C3033 C3037 1.495 . S
C3034 C3033 1.392 . S
C3034 C3035 1.385 . S
C3034 C3036 1.478 . S
C3035 H3029 0.930 . S
C3035 C3031 1.400 . S
C3035 C3034 1.385 . S
C3036 C3034 1.478 . S
C3036 C3038 1.381 . S
C3036 C3042 1.383 . S
C3037 C3033 1.495 . S
C3037 H3043 0.959 . S
C3037 H3044 0.961 . S
C3037 H3045 0.960 . S
C3038 C3036 1.381 . S
C3038 C3039 1.394 . S
C3038 H3046 0.930 . S
C3039 C3038 1.394 . S
C3039 C3040 1.383 . S
C3039 H3047 0.929 . S
C3040 C3039 1.383 . S
C3040 C3041 1.377 . S
C3041 H3025 0.930 . S
C3041 C3040 1.377 . S
C3041 C3042 1.379 . S
C3042 H3026 0.931 . S
C3042 C3036 1.383 . S
C3042 C3041 1.379 . S
H3043 C3037 0.959 . S
H3044 C3037 0.961 . S
H3045 C3037 0.960 . S
H3046 C3038 0.930 . S
H3047 C3039 0.929 . S
H3048 C3056 0.929 . S
H3049 C3058 0.930 . S
H3050 C3060 0.930 . S
H3051 C3063 0.929 . S
H3052 C3066 0.930 . S
H3053 C3068 0.960 . S
H3054 C3068 0.960 . S
H3055 C3068 0.960 . S
C3056 H3048 0.929 . S
C3056 C3057 1.377 . S
C3056 C3058 1.384 . S
C3057 C3056 1.377 . S
C3057 C3063 1.390 . S
C3058 H3049 0.930 . S
C3058 C3056 1.384 . S
C3058 C3059 1.372 . S
C3059 C3058 1.372 . S
C3059 C3060 1.400 . S
C3059 C3064 1.490 . S
C3060 H3050 0.930 . S
C3060 C3059 1.400 . S
C3060 C3063 1.386 . S
H3061 C3077 0.930 . S
H3062 C3078 0.931 . S
C3063 H3051 0.929 . S
C3063 C3057 1.390 . S
C3063 C3060 1.386 . S
C3064 C3059 1.490 . S
C3064 C3066 1.395 . S
C3064 C3067 1.403 . S
H3065 C3071 0.930 . S
C3066 H3052 0.930 . S
C3066 C3064 1.395 . S
C3066 C3069 1.403 . S
C3067 C3064 1.403 . S
C3067 C3068 1.524 . S
C3067 C3071 1.400 . S
C3068 H3053 0.960 . S
C3068 H3054 0.960 . S
C3068 H3055 0.960 . S
C3068 C3067 1.524 . S
C3069 C3066 1.403 . S
C3069 C3070 1.392 . S
C3069 C3073 1.495 . S
C3070 C3069 1.392 . S
C3070 C3071 1.385 . S
C3070 C3072 1.478 . S
C3071 H3065 0.930 . S
C3071 C3067 1.400 . S
C3071 C3070 1.385 . S
C3072 C3070 1.478 . S
C3072 C3074 1.381 . S
C3072 C3078 1.383 . S
C3073 C3069 1.495 . S
C3073 H3079 0.959 . S
C3073 H3080 0.961 . S
C3073 H3081 0.960 . S
C3074 C3072 1.381 . S
C3074 C3075 1.394 . S
C3074 H3082 0.930 . S
C3075 C3074 1.394 . S
C3075 C3076 1.383 . S
C3075 H3083 0.929 . S
C3076 C3075 1.383 . S
C3076 C3077 1.377 . S
C3077 H3061 0.930 . S
C3077 C3076 1.377 . S
C3077 C3078 1.379 . S
C3078 H3062 0.931 . S
C3078 C3072 1.383 . S
C3078 C3077 1.379 . S
H3079 C3073 0.959 . S
H3080 C3073 0.961 . S
H3081 C3073 0.960 . S
H3082 C3074 0.930 . S
H3083 C3075 0.929 . S
H3084 C3092 0.929 . S
H3085 C3094 0.930 . S
H3086 C3096 0.930 . S
H3087 C3099 0.929 . S
H3088 C3102 0.930 . S
H3089 C3104 0.960 . S
H3090 C3104 0.960 . S
H3091 C3104 0.960 . S
C3092 H3084 0.929 . S
C3092 C3093 1.377 . S
C3092 C3094 1.384 . S
C3093 C3092 1.377 . S
C3093 C3099 1.390 . S
C3094 H3085 0.930 . S
C3094 C3092 1.384 . S
C3094 C3095 1.372 . S
C3095 C3094 1.372 . S
C3095 C3096 1.400 . S
C3095 C3100 1.490 . S
C3096 H3086 0.930 . S
C3096 C3095 1.400 . S
C3096 C3099 1.386 . S
H3097 C3113 0.930 . S
H3098 C3114 0.931 . S
C3099 H3087 0.929 . S
C3099 C3093 1.390 . S
C3099 C3096 1.386 . S
C3100 C3095 1.490 . S
C3100 C3102 1.395 . S
C3100 C3103 1.403 . S
H3101 C3107 0.930 . S
C3102 H3088 0.930 . S
C3102 C3100 1.395 . S
C3102 C3105 1.403 . S
C3103 C3100 1.403 . S
C3103 C3104 1.524 . S
C3103 C3107 1.400 . S
C3104 H3089 0.960 . S
C3104 H3090 0.960 . S
C3104 H3091 0.960 . S
C3104 C3103 1.524 . S
C3105 C3102 1.403 . S
C3105 C3106 1.392 . S
C3105 C3109 1.495 . S
C3106 C3105 1.392 . S
C3106 C3107 1.385 . S
C3106 C3108 1.478 . S
C3107 H3101 0.930 . S
C3107 C3103 1.400 . S
C3107 C3106 1.385 . S
C3108 C3106 1.478 . S
C3108 C3110 1.381 . S
C3108 C3114 1.383 . S
C3109 C3105 1.495 . S
C3109 H3115 0.959 . S
C3109 H3116 0.961 . S
C3109 H3117 0.960 . S
C3110 C3108 1.381 . S
C3110 C3111 1.394 . S
C3110 H3118 0.930 . S
C3111 C3110 1.394 . S
C3111 C3112 1.383 . S
C3111 H3119 0.929 . S
C3112 C3111 1.383 . S
C3112 C3113 1.377 . S
C3113 H3097 0.930 . S
C3113 C3112 1.377 . S
C3113 C3114 1.379 . S
C3114 H3098 0.931 . S
C3114 C3108 1.383 . S
C3114 C3113 1.379 . S
H3115 C3109 0.959 . S
H3116 C3109 0.961 . S
H3117 C3109 0.960 . S
H3118 C3110 0.930 . S
H3119 C3111 0.929 . S
H3120 C3128 0.929 . S
H3121 C3130 0.930 . S
H3122 C3132 0.930 . S
H3123 C3135 0.929 . S
H3124 C3138 0.930 . S
H3125 C3140 0.960 . S
H3126 C3140 0.960 . S
H3127 C3140 0.960 . S
C3128 H3120 0.929 . S
C3128 C3129 1.377 . S
C3128 C3130 1.384 . S
C3129 C3128 1.377 . S
C3129 C3135 1.390 . S
C3130 H3121 0.930 . S
C3130 C3128 1.384 . S
C3130 C3131 1.372 . S
C3131 C3130 1.372 . S
C3131 C3132 1.400 . S
C3131 C3136 1.490 . S
C3132 H3122 0.930 . S
C3132 C3131 1.400 . S
C3132 C3135 1.386 . S
H3133 C3149 0.930 . S
H3134 C3150 0.931 . S
C3135 H3123 0.929 . S
C3135 C3129 1.390 . S
C3135 C3132 1.386 . S
C3136 C3131 1.490 . S
C3136 C3138 1.395 . S
C3136 C3139 1.403 . S
H3137 C3143 0.930 . S
C3138 H3124 0.930 . S
C3138 C3136 1.395 . S
C3138 C3141 1.403 . S
C3139 C3136 1.403 . S
C3139 C3140 1.524 . S
C3139 C3143 1.400 . S
C3140 H3125 0.960 . S
C3140 H3126 0.960 . S
C3140 H3127 0.960 . S
C3140 C3139 1.524 . S
C3141 C3138 1.403 . S
C3141 C3142 1.392 . S
C3141 C3145 1.495 . S
C3142 C3141 1.392 . S
C3142 C3143 1.385 . S
C3142 C3144 1.478 . S
C3143 H3137 0.930 . S
C3143 C3139 1.400 . S
C3143 C3142 1.385 . S
C3144 C3142 1.478 . S
C3144 C3146 1.381 . S
C3144 C3150 1.383 . S
C3145 C3141 1.495 . S
C3145 H3151 0.959 . S
C3145 H3152 0.961 . S
C3145 H3153 0.960 . S
C3146 C3144 1.381 . S
C3146 C3147 1.394 . S
C3146 H3154 0.930 . S
C3147 C3146 1.394 . S
C3147 C3148 1.383 . S
C3147 H3155 0.929 . S
C3148 C3147 1.383 . S
C3148 C3149 1.377 . S
C3149 H3133 0.930 . S
C3149 C3148 1.377 . S
C3149 C3150 1.379 . S
C3150 H3134 0.931 . S
C3150 C3144 1.383 . S
C3150 C3149 1.379 . S
H3151 C3145 0.959 . S
H3152 C3145 0.961 . S
H3153 C3145 0.960 . S
H3154 C3146 0.930 . S
H3155 C3147 0.929 . S
H3156 C3164 0.929 . S
H3157 C3166 0.930 . S
H3158 C3168 0.930 . S
H3159 C3171 0.929 . S
H3160 C3174 0.930 . S
H3161 C3176 0.960 . S
H3162 C3176 0.960 . S
H3163 C3176 0.960 . S
C3164 H3156 0.929 . S
C3164 C3165 1.377 . S
C3164 C3166 1.384 . S
C3165 C3164 1.377 . S
C3165 C3171 1.390 . S
C3166 H3157 0.930 . S
C3166 C3164 1.384 . S
C3166 C3167 1.372 . S
C3167 C3166 1.372 . S
C3167 C3168 1.400 . S
C3167 C3172 1.490 . S
C3168 H3158 0.930 . S
C3168 C3167 1.400 . S
C3168 C3171 1.386 . S
H3169 C3185 0.930 . S
H3170 C3186 0.931 . S
C3171 H3159 0.929 . S
C3171 C3165 1.390 . S
C3171 C3168 1.386 . S
C3172 C3167 1.490 . S
C3172 C3174 1.395 . S
C3172 C3175 1.403 . S
H3173 C3179 0.930 . S
C3174 H3160 0.930 . S
C3174 C3172 1.395 . S
C3174 C3177 1.403 . S
C3175 C3172 1.403 . S
C3175 C3176 1.524 . S
C3175 C3179 1.400 . S
C3176 H3161 0.960 . S
C3176 H3162 0.960 . S
C3176 H3163 0.960 . S
C3176 C3175 1.524 . S
C3177 C3174 1.403 . S
C3177 C3178 1.392 . S
C3177 C3181 1.495 . S
C3178 C3177 1.392 . S
C3178 C3179 1.385 . S
C3178 C3180 1.478 . S
C3179 H3173 0.930 . S
C3179 C3175 1.400 . S
C3179 C3178 1.385 . S
C3180 C3178 1.478 . S
C3180 C3182 1.381 . S
C3180 C3186 1.383 . S
C3181 C3177 1.495 . S
C3181 H3187 0.959 . S
C3181 H3188 0.961 . S
C3181 H3189 0.960 . S
C3182 C3180 1.381 . S
C3182 C3183 1.394 . S
C3182 H3190 0.930 . S
C3183 C3182 1.394 . S
C3183 C3184 1.383 . S
C3183 H3191 0.929 . S
C3184 C3183 1.383 . S
C3184 C3185 1.377 . S
C3185 H3169 0.930 . S
C3185 C3184 1.377 . S
C3185 C3186 1.379 . S
C3186 H3170 0.931 . S
C3186 C3180 1.383 . S
C3186 C3185 1.379 . S
H3187 C3181 0.959 . S
H3188 C3181 0.961 . S
H3189 C3181 0.960 . S
H3190 C3182 0.930 . S
H3191 C3183 0.929 . S
H3192 C3200 0.929 . S
H3193 C3202 0.930 . S
H3194 C3204 0.930 . S
H3195 C3207 0.929 . S
H3196 C3210 0.930 . S
H3197 C3212 0.960 . S
H3198 C3212 0.960 . S
H3199 C3212 0.960 . S
C3200 H3192 0.929 . S
C3200 C3201 1.377 . S
C3200 C3202 1.384 . S
C3201 C3200 1.377 . S
C3201 C3207 1.390 . S
C3202 H3193 0.930 . S
C3202 C3200 1.384 . S
C3202 C3203 1.372 . S
C3203 C3202 1.372 . S
C3203 C3204 1.400 . S
C3203 C3208 1.490 . S
C3204 H3194 0.930 . S
C3204 C3203 1.400 . S
C3204 C3207 1.386 . S
H3205 C3221 0.930 . S
H3206 C3222 0.931 . S
C3207 H3195 0.929 . S
C3207 C3201 1.390 . S
C3207 C3204 1.386 . S
C3208 C3203 1.490 . S
C3208 C3210 1.395 . S
C3208 C3211 1.403 . S
H3209 C3215 0.930 . S
C3210 H3196 0.930 . S
C3210 C3208 1.395 . S
C3210 C3213 1.403 . S
C3211 C3208 1.403 . S
C3211 C3212 1.524 . S
C3211 C3215 1.400 . S
C3212 H3197 0.960 . S
C3212 H3198 0.960 . S
C3212 H3199 0.960 . S
C3212 C3211 1.524 . S
C3213 C3210 1.403 . S
C3213 C3214 1.392 . S
C3213 C3217 1.495 . S
C3214 C3213 1.392 . S
C3214 C3215 1.385 . S
C3214 C3216 1.478 . S
C3215 H3209 0.930 . S
C3215 C3211 1.400 . S
C3215 C3214 1.385 . S
C3216 C3214 1.478 . S
C3216 C3218 1.381 . S
C3216 C3222 1.383 . S
C3217 C3213 1.495 . S
C3217 H3223 0.959 . S
C3217 H3224 0.961 . S
C3217 H3225 0.960 . S
C3218 C3216 1.381 . S
C3218 C3219 1.394 . S
C3218 H3226 0.930 . S
C3219 C3218 1.394 . S
C3219 C3220 1.383 . S
C3219 H3227 0.929 . S
C3220 C3219 1.383 . S
C3220 C3221 1.377 . S
C3221 H3205 0.930 . S
C3221 C3220 1.377 . S
C3221 C3222 1.379 . S
C3222 H3206 0.931 . S
C3222 C3216 1.383 . S
C3222 C3221 1.379 . S
H3223 C3217 0.959 . S
H3224 C3217 0.961 . S
H3225 C3217 0.960 . S
H3226 C3218 0.930 . S
H3227 C3219 0.929 . S
H3228 C3236 0.929 . S
H3229 C3238 0.930 . S
H3230 C3240 0.930 . S
H3231 C3243 0.929 . S
H3232 C3246 0.930 . S
H3233 C3248 0.960 . S
H3234 C3248 0.960 . S
H3235 C3248 0.960 . S
C3236 H3228 0.929 . S
C3236 C3237 1.377 . S
C3236 C3238 1.384 . S
C3237 C3236 1.377 . S
C3237 C3243 1.390 . S
C3238 H3229 0.930 . S
C3238 C3236 1.384 . S
C3238 C3239 1.372 . S
C3239 C3238 1.372 . S
C3239 C3240 1.400 . S
C3239 C3244 1.490 . S
C3240 H3230 0.930 . S
C3240 C3239 1.400 . S
C3240 C3243 1.386 . S
H3241 C3257 0.930 . S
H3242 C3258 0.931 . S
C3243 H3231 0.929 . S
C3243 C3237 1.390 . S
C3243 C3240 1.386 . S
C3244 C3239 1.490 . S
C3244 C3246 1.395 . S
C3244 C3247 1.403 . S
H3245 C3251 0.930 . S
C3246 H3232 0.930 . S
C3246 C3244 1.395 . S
C3246 C3249 1.403 . S
C3247 C3244 1.403 . S
C3247 C3248 1.524 . S
C3247 C3251 1.400 . S
C3248 H3233 0.960 . S
C3248 H3234 0.960 . S
C3248 H3235 0.960 . S
C3248 C3247 1.524 . S
C3249 C3246 1.403 . S
C3249 C3250 1.392 . S
C3249 C3253 1.495 . S
C3250 C3249 1.392 . S
C3250 C3251 1.385 . S
C3250 C3252 1.478 . S
C3251 H3245 0.930 . S
C3251 C3247 1.400 . S
C3251 C3250 1.385 . S
C3252 C3250 1.478 . S
C3252 C3254 1.381 . S
C3252 C3258 1.383 . S
C3253 C3249 1.495 . S
C3253 H3259 0.959 . S
C3253 H3260 0.961 . S
C3253 H3261 0.960 . S
C3254 C3252 1.381 . S
C3254 C3255 1.394 . S
C3254 H3262 0.930 . S
C3255 C3254 1.394 . S
C3255 C3256 1.383 . S
C3255 H3263 0.929 . S
C3256 C3255 1.383 . S
C3256 C3257 1.377 . S
C3257 H3241 0.930 . S
C3257 C3256 1.377 . S
C3257 C3258 1.379 . S
C3258 H3242 0.931 . S
C3258 C3252 1.383 . S
C3258 C3257 1.379 . S
H3259 C3253 0.959 . S
H3260 C3253 0.961 . S
H3261 C3253 0.960 . S
H3262 C3254 0.930 . S
H3263 C3255 0.929 . S
H3264 C3272 0.929 . S
H3265 C3274 0.930 . S
H3266 C3276 0.930 . S
H3267 C3279 0.929 . S
H3268 C3282 0.930 . S
H3269 C3284 0.960 . S
H3270 C3284 0.960 . S
H3271 C3284 0.960 . S
C3272 H3264 0.929 . S
C3272 C3273 1.377 . S
C3272 C3274 1.384 . S
C3273 C3272 1.377 . S
C3273 C3279 1.390 . S
C3274 H3265 0.930 . S
C3274 C3272 1.384 . S
C3274 C3275 1.372 . S
C3275 C3274 1.372 . S
C3275 C3276 1.400 . S
C3275 C3280 1.490 . S
C3276 H3266 0.930 . S
C3276 C3275 1.400 . S
C3276 C3279 1.386 . S
H3277 C3293 0.930 . S
H3278 C3294 0.931 . S
C3279 H3267 0.929 . S
C3279 C3273 1.390 . S
C3279 C3276 1.386 . S
C3280 C3275 1.490 . S
C3280 C3282 1.395 . S
C3280 C3283 1.403 . S
H3281 C3287 0.930 . S
C3282 H3268 0.930 . S
C3282 C3280 1.395 . S
C3282 C3285 1.403 . S
C3283 C3280 1.403 . S
C3283 C3284 1.524 . S
C3283 C3287 1.400 . S
C3284 H3269 0.960 . S
C3284 H3270 0.960 . S
C3284 H3271 0.960 . S
C3284 C3283 1.524 . S
C3285 C3282 1.403 . S
C3285 C3286 1.392 . S
C3285 C3289 1.495 . S
C3286 C3285 1.392 . S
C3286 C3287 1.385 . S
C3286 C3288 1.478 . S
C3287 H3281 0.930 . S
C3287 C3283 1.400 . S
C3287 C3286 1.385 . S
C3288 C3286 1.478 . S
C3288 C3290 1.381 . S
C3288 C3294 1.383 . S
C3289 C3285 1.495 . S
C3289 H3295 0.959 . S
C3289 H3296 0.961 . S
C3289 H3297 0.960 . S
C3290 C3288 1.381 . S
C3290 C3291 1.394 . S
C3290 H3298 0.930 . S
C3291 C3290 1.394 . S
C3291 C3292 1.383 . S
C3291 H3299 0.929 . S
C3292 C3291 1.383 . S
C3292 C3293 1.377 . S
C3293 H3277 0.930 . S
C3293 C3292 1.377 . S
C3293 C3294 1.379 . S
C3294 H3278 0.931 . S
C3294 C3288 1.383 . S
C3294 C3293 1.379 . S
H3295 C3289 0.959 . S
H3296 C3289 0.961 . S
H3297 C3289 0.960 . S
H3298 C3290 0.930 . S
H3299 C3291 0.929 . S
H3300 C3308 0.929 . S
H3301 C3310 0.930 . S
H3302 C3312 0.930 . S
H3303 C3315 0.929 . S
H3304 C3318 0.930 . S
H3305 C3320 0.960 1_545 S
H3306 C3320 0.960 . S
H3307 C3320 0.960 . S
C3308 H3300 0.929 . S
C3308 C3309 1.377 . S
C3308 C3310 1.384 . S
C3309 C3308 1.377 . S
C3309 C3315 1.390 . S
C3310 H3301 0.930 . S
C3310 C3308 1.384 . S
C3310 C3311 1.372 . S
C3311 C3310 1.372 . S
C3311 C3312 1.400 . S
C3311 C3316 1.490 . S
C3312 H3302 0.930 . S
C3312 C3311 1.400 . S
C3312 C3315 1.386 . S
H3313 C3329 0.930 . S
H3314 C3330 0.931 . S
C3315 H3303 0.929 . S
C3315 C3309 1.390 . S
C3315 C3312 1.386 . S
C3316 C3311 1.490 . S
C3316 C3318 1.395 . S
C3316 C3319 1.403 . S
H3317 C3323 0.930 . S
C3318 H3304 0.930 . S
C3318 C3316 1.395 . S
C3318 C3321 1.403 1_565 S
C3319 C3316 1.403 . S
C3319 C3320 1.524 . S
C3319 C3323 1.400 1_565 S
C3320 H3305 0.960 1_565 S
C3320 H3306 0.960 . S
C3320 H3307 0.960 . S
C3320 C3319 1.524 . S
C3321 C3318 1.403 1_545 S
C3321 C3322 1.392 . S
C3321 C3325 1.495 . S
C3322 C3321 1.392 . S
C3322 C3323 1.385 . S
C3322 C3324 1.478 . S
C3323 H3317 0.930 . S
C3323 C3319 1.400 1_545 S
C3323 C3322 1.385 . S
C3324 C3322 1.478 . S
C3324 C3326 1.381 . S
C3324 C3330 1.383 . S
C3325 C3321 1.495 . S
C3325 H3331 0.959 1_545 S
C3325 H3332 0.961 . S
C3325 H3333 0.960 . S
C3326 C3324 1.381 . S
C3326 C3327 1.394 . S
C3326 H3334 0.930 . S
C3327 C3326 1.394 . S
C3327 C3328 1.383 . S
C3327 H3335 0.929 . S
C3328 C3327 1.383 . S
C3328 C3329 1.377 . S
C3329 H3313 0.930 . S
C3329 C3328 1.377 . S
C3329 C3330 1.379 . S
C3330 H3314 0.931 . S
C3330 C3324 1.383 . S
C3330 C3329 1.379 . S
H3331 C3325 0.959 1_565 S
H3332 C3325 0.961 . S
H3333 C3325 0.960 . S
H3334 C3326 0.930 . S
H3335 C3327 0.929 . S
H3336 C3344 0.929 . S
H3337 C3346 0.930 . S
H3338 C3348 0.930 . S
H3339 C3351 0.929 . S
H3340 C3354 0.930 . S
H3341 C3356 0.960 . S
H3342 C3356 0.960 . S
H3343 C3356 0.960 . S
C3344 H3336 0.929 . S
C3344 C3345 1.377 . S
C3344 C3346 1.384 . S
C3345 C3344 1.377 . S
C3345 C3351 1.390 . S
C3346 H3337 0.930 . S
C3346 C3344 1.384 . S
C3346 C3347 1.372 . S
C3347 C3346 1.372 . S
C3347 C3348 1.400 . S
C3347 C3352 1.490 . S
C3348 H3338 0.930 . S
C3348 C3347 1.400 . S
C3348 C3351 1.386 . S
H3349 C3365 0.930 . S
H3350 C3366 0.931 . S
C3351 H3339 0.929 . S
C3351 C3345 1.390 . S
C3351 C3348 1.386 . S
C3352 C3347 1.490 . S
C3352 C3354 1.395 . S
C3352 C3355 1.403 . S
H3353 C3359 0.930 . S
C3354 H3340 0.930 . S
C3354 C3352 1.395 . S
C3354 C3357 1.403 . S
C3355 C3352 1.403 . S
C3355 C3356 1.524 . S
C3355 C3359 1.400 . S
C3356 H3341 0.960 . S
C3356 H3342 0.960 . S
C3356 H3343 0.960 . S
C3356 C3355 1.524 . S
C3357 C3354 1.403 . S
C3357 C3358 1.392 . S
C3357 C3361 1.495 . S
C3358 C3357 1.392 . S
C3358 C3359 1.385 . S
C3358 C3360 1.478 . S
C3359 H3353 0.930 . S
C3359 C3355 1.400 . S
C3359 C3358 1.385 . S
C3360 C3358 1.478 . S
C3360 C3362 1.381 . S
C3360 C3366 1.383 . S
C3361 C3357 1.495 . S
C3361 H3367 0.959 . S
C3361 H3368 0.961 . S
C3361 H3369 0.960 . S
C3362 C3360 1.381 . S
C3362 C3363 1.394 . S
C3362 H3370 0.930 . S
C3363 C3362 1.394 . S
C3363 C3364 1.383 . S
C3363 H3371 0.929 . S
C3364 C3363 1.383 . S
C3364 C3365 1.377 . S
C3365 H3349 0.930 . S
C3365 C3364 1.377 . S
C3365 C3366 1.379 . S
C3366 H3350 0.931 . S
C3366 C3360 1.383 . S
C3366 C3365 1.379 . S
H3367 C3361 0.959 . S
H3368 C3361 0.961 . S
H3369 C3361 0.960 . S
H3370 C3362 0.930 . S
H3371 C3363 0.929 . S
H3372 C3380 0.929 . S
H3373 C3382 0.930 . S
H3374 C3384 0.930 . S
H3375 C3387 0.929 . S
H3376 C3390 0.930 . S
H3377 C3392 0.960 . S
H3378 C3392 0.960 . S
H3379 C3392 0.960 . S
C3380 H3372 0.929 . S
C3380 C3381 1.377 . S
C3380 C3382 1.384 . S
C3381 C3380 1.377 . S
C3381 C3387 1.390 . S
C3382 H3373 0.930 . S
C3382 C3380 1.384 . S
C3382 C3383 1.372 . S
C3383 C3382 1.372 . S
C3383 C3384 1.400 . S
C3383 C3388 1.490 . S
C3384 H3374 0.930 . S
C3384 C3383 1.400 . S
C3384 C3387 1.386 . S
H3385 C3401 0.930 . S
H3386 C3402 0.931 . S
C3387 H3375 0.929 . S
C3387 C3381 1.390 . S
C3387 C3384 1.386 . S
C3388 C3383 1.490 . S
C3388 C3390 1.395 . S
C3388 C3391 1.403 . S
H3389 C3395 0.930 . S
C3390 H3376 0.930 . S
C3390 C3388 1.395 . S
C3390 C3393 1.403 . S
C3391 C3388 1.403 . S
C3391 C3392 1.524 . S
C3391 C3395 1.400 . S
C3392 H3377 0.960 . S
C3392 H3378 0.960 . S
C3392 H3379 0.960 . S
C3392 C3391 1.524 . S
C3393 C3390 1.403 . S
C3393 C3394 1.392 . S
C3393 C3397 1.495 . S
C3394 C3393 1.392 . S
C3394 C3395 1.385 . S
C3394 C3396 1.478 . S
C3395 H3389 0.930 . S
C3395 C3391 1.400 . S
C3395 C3394 1.385 . S
C3396 C3394 1.478 . S
C3396 C3398 1.381 . S
C3396 C3402 1.383 . S
C3397 C3393 1.495 . S
C3397 H3403 0.959 . S
C3397 H3404 0.961 . S
C3397 H3405 0.960 . S
C3398 C3396 1.381 . S
C3398 C3399 1.394 . S
C3398 H3406 0.930 . S
C3399 C3398 1.394 . S
C3399 C3400 1.383 . S
C3399 H3407 0.929 . S
C3400 C3399 1.383 . S
C3400 C3401 1.377 . S
C3401 H3385 0.930 . S
C3401 C3400 1.377 . S
C3401 C3402 1.379 . S
C3402 H3386 0.931 . S
C3402 C3396 1.383 . S
C3402 C3401 1.379 . S
H3403 C3397 0.959 . S
H3404 C3397 0.961 . S
H3405 C3397 0.960 . S
H3406 C3398 0.930 . S
H3407 C3399 0.929 . S
H3408 C3416 0.929 . S
H3409 C3418 0.930 . S
H3410 C3420 0.930 . S
H3411 C3423 0.929 . S
H3412 C3426 0.938 . S
H3413 C3428 0.960 . S
H3414 C3428 0.960 . S
H3415 C3428 0.960 . S
C3416 H3408 0.929 . S
C3416 C3417 1.377 . S
C3416 C3418 1.384 . S
C3417 C3416 1.377 . S
C3417 C3423 1.390 . S
C3418 H3409 0.930 . S
C3418 C3416 1.384 . S
C3418 C3419 1.372 . S
C3419 C3418 1.372 . S
C3419 C3420 1.400 . S
C3419 C3424 1.490 . S
C3420 H3410 0.930 . S
C3420 C3419 1.400 . S
C3420 C3423 1.386 . S
H3421 C3437 0.930 . S
H3422 C3438 0.931 . S
C3423 H3411 0.929 . S
C3423 C3417 1.390 . S
C3423 C3420 1.386 . S
C3424 C3419 1.490 . S
C3424 C3426 1.437 . S
C3424 C3427 1.403 . S
H3425 C3431 0.930 . S
C3426 H3412 0.938 . S
C3426 C3424 1.437 . S
C3426 C3429 1.356 1_556 S
C3427 C3424 1.403 . S
C3427 C3428 1.524 . S
C3427 C3431 1.400 1_556 S
C3428 H3413 0.960 . S
C3428 H3414 0.960 . S
C3428 H3415 0.960 . S
C3428 C3427 1.524 . S
C3429 C3426 1.356 1_554 S
C3429 C3430 1.392 . S
C3429 C3433 1.495 . S
C3430 C3429 1.392 . S
C3430 C3431 1.385 . S
C3430 C3432 1.478 . S
C3431 H3425 0.930 . S
C3431 C3427 1.400 1_554 S
C3431 C3430 1.385 . S
C3432 C3430 1.478 . S
C3432 C3434 1.381 . S
C3432 C3438 1.383 . S
C3433 C3429 1.495 . S
C3433 H3439 0.959 . S
C3433 H3440 0.961 . S
C3433 H3441 0.960 . S
C3434 C3432 1.381 . S
C3434 C3435 1.394 . S
C3434 H3442 0.930 . S
C3435 C3434 1.394 . S
C3435 C3436 1.383 . S
C3435 H3443 0.929 . S
C3436 C3435 1.383 . S
C3436 C3437 1.377 . S
C3437 H3421 0.930 . S
C3437 C3436 1.377 . S
C3437 C3438 1.379 . S
C3438 H3422 0.931 . S
C3438 C3432 1.383 . S
C3438 C3437 1.379 . S
H3439 C3433 0.959 . S
H3440 C3433 0.961 . S
H3441 C3433 0.960 . S
H3442 C3434 0.930 . S
H3443 C3435 0.929 . S
H3444 C3452 0.929 . S
H3445 C3454 0.930 . S
H3446 C3456 0.930 . S
H3447 C3459 0.929 . S
H3448 C3462 0.930 . S
H3449 C3464 0.960 . S
H3450 C3464 0.960 . S
H3451 C3464 0.960 . S
C3452 H3444 0.929 . S
C3452 C3453 1.377 . S
C3452 C3454 1.384 . S
C3453 C3452 1.377 . S
C3453 C3459 1.390 . S
C3454 H3445 0.930 . S
C3454 C3452 1.384 . S
C3454 C3455 1.372 . S
C3455 C3454 1.372 . S
C3455 C3456 1.400 . S
C3455 C3460 1.490 . S
C3456 H3446 0.930 . S
C3456 C3455 1.400 . S
C3456 C3459 1.386 . S
H3457 C3473 0.930 . S
H3458 C3474 0.931 . S
C3459 H3447 0.929 . S
C3459 C3453 1.390 . S
C3459 C3456 1.386 . S
C3460 C3455 1.490 . S
C3460 C3462 1.395 . S
C3460 C3463 1.403 . S
H3461 C3467 0.930 . S
C3462 H3448 0.930 . S
C3462 C3460 1.395 . S
C3462 C3465 1.403 1_554 S
C3463 C3460 1.403 . S
C3463 C3464 1.524 . S
C3463 C3467 1.400 1_554 S
C3464 H3449 0.960 . S
C3464 H3450 0.960 . S
C3464 H3451 0.960 . S
C3464 C3463 1.524 . S
C3465 C3462 1.403 1_556 S
C3465 C3466 1.392 . S
C3465 C3469 1.495 . S
C3466 C3465 1.392 . S
C3466 C3467 1.385 . S
C3466 C3468 1.478 . S
C3467 H3461 0.930 . S
C3467 C3463 1.400 1_556 S
C3467 C3466 1.385 . S
C3468 C3466 1.478 . S
C3468 C3470 1.381 . S
C3468 C3474 1.383 . S
C3469 C3465 1.495 . S
C3469 H3475 0.959 . S
C3469 H3476 0.961 . S
C3469 H3477 0.960 . S
C3470 C3468 1.381 . S
C3470 C3471 1.394 . S
C3470 H3478 0.930 . S
C3471 C3470 1.394 . S
C3471 C3472 1.383 . S
C3471 H3479 0.929 . S
C3472 C3471 1.383 . S
C3472 C3473 1.377 . S
C3473 H3457 0.930 . S
C3473 C3472 1.377 . S
C3473 C3474 1.379 . S
C3474 H3458 0.931 . S
C3474 C3468 1.383 . S
C3474 C3473 1.379 . S
H3475 C3469 0.959 . S
H3476 C3469 0.961 . S
H3477 C3469 0.960 . S
H3478 C3470 0.930 . S
H3479 C3471 0.929 . S
H3480 C3488 0.929 . S
H3481 C3490 0.930 . S
H3482 C3492 0.930 . S
H3483 C3495 0.929 . S
H3484 C3498 0.930 . S
H3485 C3500 0.960 . S
H3486 C3500 0.960 . S
H3487 C3500 0.960 . S
C3488 H3480 0.929 . S
C3488 C3489 1.377 . S
C3488 C3490 1.384 . S
C3489 C3488 1.377 . S
C3489 C3495 1.390 . S
C3490 H3481 0.930 . S
C3490 C3488 1.384 . S
C3490 C3491 1.372 . S
C3491 C3490 1.372 . S
C3491 C3492 1.400 . S
C3491 C3496 1.490 . S
C3492 H3482 0.930 . S
C3492 C3491 1.400 . S
C3492 C3495 1.386 . S
H3493 C3509 0.930 . S
H3494 C3510 0.931 . S
C3495 H3483 0.929 . S
C3495 C3489 1.390 . S
C3495 C3492 1.386 . S
C3496 C3491 1.490 . S
C3496 C3498 1.395 . S
C3496 C3499 1.403 . S
H3497 C3503 0.930 . S
C3498 H3484 0.930 . S
C3498 C3496 1.395 . S
C3498 C3501 1.403 . S
C3499 C3496 1.403 . S
C3499 C3500 1.524 . S
C3499 C3503 1.400 . S
C3500 H3485 0.960 . S
C3500 H3486 0.960 . S
C3500 H3487 0.960 . S
C3500 C3499 1.524 . S
C3501 C3498 1.403 . S
C3501 C3502 1.392 . S
C3501 C3505 1.495 . S
C3502 C3501 1.392 . S
C3502 C3503 1.385 . S
C3502 C3504 1.478 . S
C3503 H3497 0.930 . S
C3503 C3499 1.400 . S
C3503 C3502 1.385 . S
C3504 C3502 1.478 . S
C3504 C3506 1.381 . S
C3504 C3510 1.383 . S
C3505 C3501 1.495 . S
C3505 H3511 0.959 . S
C3505 H3512 0.961 . S
C3505 H3513 0.960 . S
C3506 C3504 1.381 . S
C3506 C3507 1.394 . S
C3506 H3514 0.930 . S
C3507 C3506 1.394 . S
C3507 C3508 1.383 . S
C3507 H3515 0.929 . S
C3508 C3507 1.383 . S
C3508 C3509 1.377 . S
C3509 H3493 0.930 . S
C3509 C3508 1.377 . S
C3509 C3510 1.379 . S
C3510 H3494 0.931 . S
C3510 C3504 1.383 . S
C3510 C3509 1.379 . S
H3511 C3505 0.959 . S
H3512 C3505 0.961 . S
H3513 C3505 0.960 . S
H3514 C3506 0.930 . S
H3515 C3507 0.929 . S
H3516 C3524 0.929 . S
H3517 C3526 0.930 . S
H3518 C3528 0.930 . S
H3519 C3531 0.929 . S
H3520 C3534 0.930 . S
H3521 C3536 0.960 . S
H3522 C3536 0.960 . S
H3523 C3536 0.960 . S
C3524 H3516 0.929 . S
C3524 C3525 1.377 . S
C3524 C3526 1.384 . S
C3525 C3524 1.377 . S
C3525 C3531 1.390 . S
C3526 H3517 0.930 . S
C3526 C3524 1.384 . S
C3526 C3527 1.372 . S
C3527 C3526 1.372 . S
C3527 C3528 1.400 . S
C3527 C3532 1.490 . S
C3528 H3518 0.930 . S
C3528 C3527 1.400 . S
C3528 C3531 1.386 . S
H3529 C3545 0.930 . S
H3530 C3546 0.931 . S
C3531 H3519 0.929 . S
C3531 C3525 1.390 . S
C3531 C3528 1.386 . S
C3532 C3527 1.490 . S
C3532 C3534 1.395 . S
C3532 C3535 1.403 . S
H3533 C3539 0.930 . S
C3534 H3520 0.930 . S
C3534 C3532 1.395 . S
C3534 C3537 1.403 . S
C3535 C3532 1.403 . S
C3535 C3536 1.524 . S
C3535 C3539 1.400 . S
C3536 H3521 0.960 . S
C3536 H3522 0.960 . S
C3536 H3523 0.960 . S
C3536 C3535 1.524 . S
C3537 C3534 1.403 . S
C3537 C3538 1.392 . S
C3537 C3541 1.495 . S
C3538 C3537 1.392 . S
C3538 C3539 1.385 . S
C3538 C3540 1.478 . S
C3539 H3533 0.930 . S
C3539 C3535 1.400 . S
C3539 C3538 1.385 . S
C3540 C3538 1.478 . S
C3540 C3542 1.381 . S
C3540 C3546 1.383 . S
C3541 C3537 1.495 . S
C3541 H3547 0.959 . S
C3541 H3548 0.961 . S
C3541 H3549 0.960 . S
C3542 C3540 1.381 . S
C3542 C3543 1.394 . S
C3542 H3550 0.930 . S
C3543 C3542 1.394 . S
C3543 C3544 1.383 . S
C3543 H3551 0.929 . S
C3544 C3543 1.383 . S
C3544 C3545 1.377 . S
C3545 H3529 0.930 . S
C3545 C3544 1.377 . S
C3545 C3546 1.379 . S
C3546 H3530 0.931 . S
C3546 C3540 1.383 . S
C3546 C3545 1.379 . S
H3547 C3541 0.959 . S
H3548 C3541 0.961 . S
H3549 C3541 0.960 . S
H3550 C3542 0.930 . S
H3551 C3543 0.929 . S
H3552 C3560 0.929 . S
H3553 C3562 0.930 . S
H3554 C3564 0.930 . S
H3555 C3567 0.929 . S
H3556 C3570 0.936 . S
H3557 C3572 0.960 . S
H3558 C3572 0.960 . S
H3559 C3572 0.960 . S
C3560 H3552 0.929 . S
C3560 C3561 1.377 . S
C3560 C3562 1.384 . S
C3561 C3560 1.377 . S
C3561 C3567 1.390 . S
C3562 H3553 0.930 . S
C3562 C3560 1.384 . S
C3562 C3563 1.372 . S
C3563 C3562 1.372 . S
C3563 C3564 1.400 . S
C3563 C3568 1.490 . S
C3564 H3554 0.930 . S
C3564 C3563 1.400 . S
C3564 C3567 1.386 . S
H3565 C3581 0.930 . S
H3566 C3582 0.931 . S
C3567 H3555 0.929 . S
C3567 C3561 1.390 . S
C3567 C3564 1.386 . S
C3568 C3563 1.490 . S
C3568 C3570 1.430 . S
C3568 C3571 1.403 . S
H3569 C3575 0.930 . S
C3570 H3556 0.936 . S
C3570 C3568 1.430 . S
C3570 C3573 1.364 1_455 S
C3571 C3568 1.403 . S
C3571 C3572 1.524 . S
C3571 C3575 1.400 1_455 S
C3572 H3557 0.960 . S
C3572 H3558 0.960 . S
C3572 H3559 0.960 . S
C3572 C3571 1.524 . S
C3573 C3570 1.364 1_655 S
C3573 C3574 1.392 . S
C3573 C3577 1.495 . S
C3574 C3573 1.392 . S
C3574 C3575 1.385 . S
C3574 C3576 1.478 . S
C3575 H3569 0.930 . S
C3575 C3571 1.400 1_655 S
C3575 C3574 1.385 . S
C3576 C3574 1.478 . S
C3576 C3578 1.381 . S
C3576 C3582 1.383 . S
C3577 C3573 1.495 . S
C3577 H3583 0.959 . S
C3577 H3584 0.961 . S
C3577 H3585 0.960 . S
C3578 C3576 1.381 . S
C3578 C3579 1.394 . S
C3578 H3586 0.930 . S
C3579 C3578 1.394 . S
C3579 C3580 1.383 . S
C3579 H3587 0.929 . S
C3580 C3579 1.383 . S
C3580 C3581 1.377 . S
C3581 H3565 0.930 . S
C3581 C3580 1.377 . S
C3581 C3582 1.379 . S
C3582 H3566 0.931 . S
C3582 C3576 1.383 . S
C3582 C3581 1.379 . S
H3583 C3577 0.959 . S
H3584 C3577 0.961 . S
H3585 C3577 0.960 . S
H3586 C3578 0.930 . S
H3587 C3579 0.929 . S
H3588 C3596 0.929 . S
H3589 C3598 0.930 . S
H3590 C3600 0.930 . S
H3591 C3603 0.929 . S
H3592 C3606 0.930 . S
H3593 C3608 0.960 . S
H3594 C3608 0.960 . S
H3595 C3608 0.960 . S
C3596 H3588 0.929 . S
C3596 C3597 1.377 . S
C3596 C3598 1.384 . S
C3597 C3596 1.377 . S
C3597 C3603 1.390 . S
C3598 H3589 0.930 . S
C3598 C3596 1.384 . S
C3598 C3599 1.372 . S
C3599 C3598 1.372 . S
C3599 C3600 1.400 . S
C3599 C3604 1.490 . S
C3600 H3590 0.930 . S
C3600 C3599 1.400 . S
C3600 C3603 1.386 . S
H3601 C3617 0.930 . S
H3602 C3618 0.931 . S
C3603 H3591 0.929 . S
C3603 C3597 1.390 . S
C3603 C3600 1.386 . S
C3604 C3599 1.490 . S
C3604 C3606 1.395 . S
C3604 C3607 1.403 . S
H3605 C3611 0.930 . S
C3606 H3592 0.930 . S
C3606 C3604 1.395 . S
C3606 C3609 1.403 . S
C3607 C3604 1.403 . S
C3607 C3608 1.524 . S
C3607 C3611 1.400 . S
C3608 H3593 0.960 . S
C3608 H3594 0.960 . S
C3608 H3595 0.960 . S
C3608 C3607 1.524 . S
C3609 C3606 1.403 . S
C3609 C3610 1.392 . S
C3609 C3613 1.495 . S
C3610 C3609 1.392 . S
C3610 C3611 1.385 . S
C3610 C3612 1.478 . S
C3611 H3605 0.930 . S
C3611 C3607 1.400 . S
C3611 C3610 1.385 . S
C3612 C3610 1.478 . S
C3612 C3614 1.381 . S
C3612 C3618 1.383 . S
C3613 C3609 1.495 . S
C3613 H3619 0.959 1_655 S
C3613 H3620 0.961 . S
C3613 H3621 0.960 . S
C3614 C3612 1.381 . S
C3614 C3615 1.394 . S
C3614 H3622 0.930 . S
C3615 C3614 1.394 . S
C3615 C3616 1.383 . S
C3615 H3623 0.929 . S
C3616 C3615 1.383 . S
C3616 C3617 1.377 . S
C3617 H3601 0.930 . S
C3617 C3616 1.377 . S
C3617 C3618 1.379 . S
C3618 H3602 0.931 . S
C3618 C3612 1.383 . S
C3618 C3617 1.379 . S
H3619 C3613 0.959 1_455 S
H3620 C3613 0.961 . S
H3621 C3613 0.960 . S
H3622 C3614 0.930 . S
H3623 C3615 0.929 . S
H3624 C3632 0.929 . S
H3625 C3634 0.930 . S
H3626 C3636 0.930 . S
H3627 C3639 0.929 . S
H3628 C3642 0.930 . S
H3629 C3644 0.960 . S
H3630 C3644 0.960 . S
H3631 C3644 0.960 . S
C3632 H3624 0.929 . S
C3632 C3633 1.377 . S
C3632 C3634 1.384 . S
C3633 C3632 1.377 . S
C3633 C3639 1.390 . S
C3634 H3625 0.930 . S
C3634 C3632 1.384 . S
C3634 C3635 1.372 . S
C3635 C3634 1.372 . S
C3635 C3636 1.400 . S
C3635 C3640 1.490 . S
C3636 H3626 0.930 . S
C3636 C3635 1.400 . S
C3636 C3639 1.386 . S
H3637 C3653 0.930 . S
H3638 C3654 0.931 . S
C3639 H3627 0.929 . S
C3639 C3633 1.390 . S
C3639 C3636 1.386 . S
C3640 C3635 1.490 . S
C3640 C3642 1.395 . S
C3640 C3643 1.403 . S
H3641 C3647 0.930 . S
C3642 H3628 0.930 . S
C3642 C3640 1.395 . S
C3642 C3645 1.403 1_545 S
C3643 C3640 1.403 . S
C3643 C3644 1.524 . S
C3643 C3647 1.400 1_545 S
C3644 H3629 0.960 . S
C3644 H3630 0.960 . S
C3644 H3631 0.960 . S
C3644 C3643 1.524 . S
C3645 C3642 1.403 1_565 S
C3645 C3646 1.392 . S
C3645 C3649 1.495 . S
C3646 C3645 1.392 . S
C3646 C3647 1.385 . S
C3646 C3648 1.478 . S
C3647 H3641 0.930 . S
C3647 C3643 1.400 1_565 S
C3647 C3646 1.385 . S
C3648 C3646 1.478 . S
C3648 C3650 1.381 . S
C3648 C3654 1.383 . S
C3649 C3645 1.495 . S
C3649 H3655 0.959 1_455 S
C3649 H3656 0.961 . S
C3649 H3657 0.960 . S
C3650 C3648 1.381 . S
C3650 C3651 1.394 . S
C3650 H3658 0.930 . S
C3651 C3650 1.394 . S
C3651 C3652 1.383 . S
C3651 H3659 0.929 . S
C3652 C3651 1.383 . S
C3652 C3653 1.377 . S
C3653 H3637 0.930 . S
C3653 C3652 1.377 . S
C3653 C3654 1.379 . S
C3654 H3638 0.931 . S
C3654 C3648 1.383 . S
C3654 C3653 1.379 . S
H3655 C3649 0.959 1_655 S
H3656 C3649 0.961 . S
H3657 C3649 0.960 . S
H3658 C3650 0.930 . S
H3659 C3651 0.929 . S
H3660 C3668 0.929 . S
H3661 C3670 0.930 . S
H3662 C3672 0.930 . S
H3663 C3675 0.929 . S
H3664 C3678 0.930 . S
H3665 C3680 0.960 . S
H3666 C3680 0.960 . S
H3667 C3680 0.960 . S
C3668 H3660 0.929 . S
C3668 C3669 1.377 . S
C3668 C3670 1.384 . S
C3669 C3668 1.377 . S
C3669 C3675 1.390 . S
C3670 H3661 0.930 . S
C3670 C3668 1.384 . S
C3670 C3671 1.372 . S
C3671 C3670 1.372 . S
C3671 C3672 1.400 . S
C3671 C3676 1.490 . S
C3672 H3662 0.930 . S
C3672 C3671 1.400 . S
C3672 C3675 1.386 . S
H3673 C3689 0.930 . S
H3674 C3690 0.931 . S
C3675 H3663 0.929 . S
C3675 C3669 1.390 . S
C3675 C3672 1.386 . S
C3676 C3671 1.490 . S
C3676 C3678 1.395 . S
C3676 C3679 1.403 . S
H3677 C3683 0.930 . S
C3678 H3664 0.930 . S
C3678 C3676 1.395 . S
C3678 C3681 1.403 . S
C3679 C3676 1.403 . S
C3679 C3680 1.524 . S
C3679 C3683 1.400 . S
C3680 H3665 0.960 . S
C3680 H3666 0.960 . S
C3680 H3667 0.960 . S
C3680 C3679 1.524 . S
C3681 C3678 1.403 . S
C3681 C3682 1.392 . S
C3681 C3685 1.495 . S
C3682 C3681 1.392 . S
C3682 C3683 1.385 . S
C3682 C3684 1.478 . S
C3683 H3677 0.930 . S
C3683 C3679 1.400 . S
C3683 C3682 1.385 . S
C3684 C3682 1.478 . S
C3684 C3686 1.381 . S
C3684 C3690 1.383 . S
C3685 C3681 1.495 . S
C3685 H3691 0.959 . S
C3685 H3692 0.961 . S
C3685 H3693 0.960 . S
C3686 C3684 1.381 . S
C3686 C3687 1.394 . S
C3686 H3694 0.930 . S
C3687 C3686 1.394 . S
C3687 C3688 1.383 . S
C3687 H3695 0.929 . S
C3688 C3687 1.383 . S
C3688 C3689 1.377 . S
C3689 H3673 0.930 . S
C3689 C3688 1.377 . S
C3689 C3690 1.379 . S
C3690 H3674 0.931 . S
C3690 C3684 1.383 . S
C3690 C3689 1.379 . S
H3691 C3685 0.959 . S
H3692 C3685 0.961 . S
H3693 C3685 0.960 . S
H3694 C3686 0.930 . S
H3695 C3687 0.929 . S
H3696 C3704 0.929 . S
H3697 C3706 0.930 . S
H3698 C3708 0.930 . S
H3699 C3711 0.929 . S
H3700 C3714 0.930 . S
H3701 C3716 0.960 . S
H3702 C3716 0.960 . S
H3703 C3716 0.960 . S
C3704 H3696 0.929 . S
C3704 C3705 1.377 . S
C3704 C3706 1.384 . S
C3705 C3704 1.377 . S
C3705 C3711 1.390 . S
C3706 H3697 0.930 . S
C3706 C3704 1.384 . S
C3706 C3707 1.372 . S
C3707 C3706 1.372 . S
C3707 C3708 1.400 . S
C3707 C3712 1.490 . S
C3708 H3698 0.930 . S
C3708 C3707 1.400 . S
C3708 C3711 1.386 . S
H3709 C3725 0.930 . S
H3710 C3726 0.931 . S
C3711 H3699 0.929 . S
C3711 C3705 1.390 . S
C3711 C3708 1.386 . S
C3712 C3707 1.490 . S
C3712 C3714 1.395 . S
C3712 C3715 1.403 . S
H3713 C3719 0.930 . S
C3714 H3700 0.930 . S
C3714 C3712 1.395 . S
C3714 C3717 1.403 . S
C3715 C3712 1.403 . S
C3715 C3716 1.524 . S
C3715 C3719 1.400 . S
C3716 H3701 0.960 . S
C3716 H3702 0.960 . S
C3716 H3703 0.960 . S
C3716 C3715 1.524 . S
C3717 C3714 1.403 . S
C3717 C3718 1.392 . S
C3717 C3721 1.495 . S
C3718 C3717 1.392 . S
C3718 C3719 1.385 . S
C3718 C3720 1.478 . S
C3719 H3713 0.930 . S
C3719 C3715 1.400 . S
C3719 C3718 1.385 . S
C3720 C3718 1.478 . S
C3720 C3722 1.381 . S
C3720 C3726 1.383 . S
C3721 C3717 1.495 . S
C3721 H3727 0.959 . S
C3721 H3728 0.961 . S
C3721 H3729 0.960 . S
C3722 C3720 1.381 . S
C3722 C3723 1.394 . S
C3722 H3730 0.930 . S
C3723 C3722 1.394 . S
C3723 C3724 1.383 . S
C3723 H3731 0.929 . S
C3724 C3723 1.383 . S
C3724 C3725 1.377 . S
C3725 H3709 0.930 . S
C3725 C3724 1.377 . S
C3725 C3726 1.379 . S
C3726 H3710 0.931 . S
C3726 C3720 1.383 . S
C3726 C3725 1.379 . S
H3727 C3721 0.959 . S
H3728 C3721 0.961 . S
H3729 C3721 0.960 . S
H3730 C3722 0.930 . S
H3731 C3723 0.929 . S
H3732 C3740 0.929 . S
H3733 C3742 0.930 . S
H3734 C3744 0.930 . S
H3735 C3747 0.929 . S
H3736 C3750 0.935 . S
H3737 C3752 0.960 . S
H3738 C3752 0.960 . S
H3739 C3752 0.960 . S
C3740 H3732 0.929 . S
C3740 C3741 1.377 . S
C3740 C3742 1.384 . S
C3741 C3740 1.377 . S
C3741 C3747 1.390 . S
C3742 H3733 0.930 . S
C3742 C3740 1.384 . S
C3742 C3743 1.372 . S
C3743 C3742 1.372 . S
C3743 C3744 1.400 . S
C3743 C3748 1.490 . S
C3744 H3734 0.930 . S
C3744 C3743 1.400 . S
C3744 C3747 1.386 . S
H3745 C3761 0.930 . S
H3746 C3762 0.931 . S
C3747 H3735 0.929 . S
C3747 C3741 1.390 . S
C3747 C3744 1.386 . S
C3748 C3743 1.490 . S
C3748 C3750 1.428 . S
C3748 C3751 1.403 . S
H3749 C3755 0.930 . S
C3750 H3736 0.935 . S
C3750 C3748 1.428 . S
C3750 C3753 1.366 1_556 S
C3751 C3748 1.403 . S
C3751 C3752 1.524 . S
C3751 C3755 1.400 1_556 S
C3752 H3737 0.960 . S
C3752 H3738 0.960 . S
C3752 H3739 0.960 . S
C3752 C3751 1.524 . S
C3753 C3750 1.366 1_554 S
C3753 C3754 1.392 . S
C3753 C3757 1.495 . S
C3754 C3753 1.392 . S
C3754 C3755 1.385 . S
C3754 C3756 1.478 . S
C3755 H3749 0.930 . S
C3755 C3751 1.400 1_554 S
C3755 C3754 1.385 . S
C3756 C3754 1.478 . S
C3756 C3758 1.381 . S
C3756 C3762 1.383 . S
C3757 C3753 1.495 . S
C3757 H3763 0.959 . S
C3757 H3764 0.961 . S
C3757 H3765 0.960 . S
C3758 C3756 1.381 . S
C3758 C3759 1.394 . S
C3758 H3766 0.930 . S
C3759 C3758 1.394 . S
C3759 C3760 1.383 . S
C3759 H3767 0.929 . S
C3760 C3759 1.383 . S
C3760 C3761 1.377 . S
C3761 H3745 0.930 . S
C3761 C3760 1.377 . S
C3761 C3762 1.379 . S
C3762 H3746 0.931 . S
C3762 C3756 1.383 . S
C3762 C3761 1.379 . S
H3763 C3757 0.959 . S
H3764 C3757 0.961 . S
H3765 C3757 0.960 . S
H3766 C3758 0.930 . S
H3767 C3759 0.929 . S
H3768 C3776 0.929 . S
H3769 C3778 0.930 . S
H3770 C3780 0.930 . S
H3771 C3783 0.929 . S
H3772 C3786 0.930 . S
H3773 C3788 0.960 . S
H3774 C3788 0.960 . S
H3775 C3788 0.960 . S
C3776 H3768 0.929 . S
C3776 C3777 1.377 . S
C3776 C3778 1.384 . S
C3777 C3776 1.377 . S
C3777 C3783 1.390 . S
C3778 H3769 0.930 . S
C3778 C3776 1.384 . S
C3778 C3779 1.372 . S
C3779 C3778 1.372 . S
C3779 C3780 1.400 . S
C3779 C3784 1.490 . S
C3780 H3770 0.930 . S
C3780 C3779 1.400 . S
C3780 C3783 1.386 . S
H3781 C3797 0.930 . S
H3782 C3798 0.931 . S
C3783 H3771 0.929 . S
C3783 C3777 1.390 . S
C3783 C3780 1.386 . S
C3784 C3779 1.490 . S
C3784 C3786 1.395 . S
C3784 C3787 1.403 . S
H3785 C3791 0.930 . S
C3786 H3772 0.930 . S
C3786 C3784 1.395 . S
C3786 C3789 1.403 1_556 S
C3787 C3784 1.403 . S
C3787 C3788 1.524 . S
C3787 C3791 1.400 1_556 S
C3788 H3773 0.960 . S
C3788 H3774 0.960 . S
C3788 H3775 0.960 . S
C3788 C3787 1.524 . S
C3789 C3786 1.403 1_554 S
C3789 C3790 1.392 . S
C3789 C3793 1.495 . S
C3790 C3789 1.392 . S
C3790 C3791 1.385 . S
C3790 C3792 1.478 . S
C3791 H3785 0.930 . S
C3791 C3787 1.400 1_554 S
C3791 C3790 1.385 . S
C3792 C3790 1.478 . S
C3792 C3794 1.381 . S
C3792 C3798 1.383 . S
C3793 C3789 1.495 . S
C3793 H3799 0.959 . S
C3793 H3800 0.961 . S
C3793 H3801 0.960 . S
C3794 C3792 1.381 . S
C3794 C3795 1.394 . S
C3794 H3802 0.930 . S
C3795 C3794 1.394 . S
C3795 C3796 1.383 . S
C3795 H3803 0.929 . S
C3796 C3795 1.383 . S
C3796 C3797 1.377 . S
C3797 H3781 0.930 . S
C3797 C3796 1.377 . S
C3797 C3798 1.379 . S
C3798 H3782 0.931 . S
C3798 C3792 1.383 . S
C3798 C3797 1.379 . S
H3799 C3793 0.959 . S
H3800 C3793 0.961 . S
H3801 C3793 0.960 . S
H3802 C3794 0.930 . S
H3803 C3795 0.929 . S
H3804 C3812 0.929 . S
H3805 C3814 0.930 . S
H3806 C3816 0.930 . S
H3807 C3819 0.929 . S
H3808 C3822 0.930 . S
H3809 C3824 0.960 . S
H3810 C3824 0.960 . S
H3811 C3824 0.960 . S
C3812 H3804 0.929 . S
C3812 C3813 1.377 . S
C3812 C3814 1.384 . S
C3813 C3812 1.377 . S
C3813 C3819 1.390 . S
C3814 H3805 0.930 . S
C3814 C3812 1.384 . S
C3814 C3815 1.372 . S
C3815 C3814 1.372 . S
C3815 C3816 1.400 . S
C3815 C3820 1.490 . S
C3816 H3806 0.930 . S
C3816 C3815 1.400 . S
C3816 C3819 1.386 . S
H3817 C3833 0.930 . S
H3818 C3834 0.931 . S
C3819 H3807 0.929 . S
C3819 C3813 1.390 . S
C3819 C3816 1.386 . S
C3820 C3815 1.490 . S
C3820 C3822 1.395 . S
C3820 C3823 1.403 . S
H3821 C3827 0.930 . S
C3822 H3808 0.930 . S
C3822 C3820 1.395 . S
C3822 C3825 1.403 . S
C3823 C3820 1.403 . S
C3823 C3824 1.524 . S
C3823 C3827 1.400 . S
C3824 H3809 0.960 . S
C3824 H3810 0.960 . S
C3824 H3811 0.960 . S
C3824 C3823 1.524 . S
C3825 C3822 1.403 . S
C3825 C3826 1.392 . S
C3825 C3829 1.495 . S
C3826 C3825 1.392 . S
C3826 C3827 1.385 . S
C3826 C3828 1.478 . S
C3827 H3821 0.930 . S
C3827 C3823 1.400 . S
C3827 C3826 1.385 . S
C3828 C3826 1.478 . S
C3828 C3830 1.381 . S
C3828 C3834 1.383 . S
C3829 C3825 1.495 . S
C3829 H3835 0.959 . S
C3829 H3836 0.961 . S
C3829 H3837 0.960 . S
C3830 C3828 1.381 . S
C3830 C3831 1.394 . S
C3830 H3838 0.930 . S
C3831 C3830 1.394 . S
C3831 C3832 1.383 . S
C3831 H3839 0.929 . S
C3832 C3831 1.383 . S
C3832 C3833 1.377 . S
C3833 H3817 0.930 . S
C3833 C3832 1.377 . S
C3833 C3834 1.379 . S
C3834 H3818 0.931 . S
C3834 C3828 1.383 . S
C3834 C3833 1.379 . S
H3835 C3829 0.959 . S
H3836 C3829 0.961 . S
H3837 C3829 0.960 . S
H3838 C3830 0.930 . S
H3839 C3831 0.929 . S
H3840 C3848 0.929 . S
H3841 C3850 0.930 . S
H3842 C3852 0.930 . S
H3843 C3855 0.929 . S
H3844 C3858 0.930 . S
H3845 C3860 0.960 . S
H3846 C3860 0.960 . S
H3847 C3860 0.960 . S
C3848 H3840 0.929 . S
C3848 C3849 1.377 . S
C3848 C3850 1.384 . S
C3849 C3848 1.377 . S
C3849 C3855 1.390 . S
C3850 H3841 0.930 . S
C3850 C3848 1.384 . S
C3850 C3851 1.372 . S
C3851 C3850 1.372 . S
C3851 C3852 1.400 . S
C3851 C3856 1.490 . S
C3852 H3842 0.930 . S
C3852 C3851 1.400 . S
C3852 C3855 1.386 . S
H3853 C3869 0.930 . S
H3854 C3870 0.931 . S
C3855 H3843 0.929 . S
C3855 C3849 1.390 . S
C3855 C3852 1.386 . S
C3856 C3851 1.490 . S
C3856 C3858 1.395 . S
C3856 C3859 1.403 . S
H3857 C3863 0.930 . S
C3858 H3844 0.930 . S
C3858 C3856 1.395 . S
C3858 C3861 1.403 . S
C3859 C3856 1.403 . S
C3859 C3860 1.524 . S
C3859 C3863 1.400 . S
C3860 H3845 0.960 . S
C3860 H3846 0.960 . S
C3860 H3847 0.960 . S
C3860 C3859 1.524 . S
C3861 C3858 1.403 . S
C3861 C3862 1.392 . S
C3861 C3865 1.495 . S
C3862 C3861 1.392 . S
C3862 C3863 1.385 . S
C3862 C3864 1.478 . S
C3863 H3857 0.930 . S
C3863 C3859 1.400 . S
C3863 C3862 1.385 . S
C3864 C3862 1.478 . S
C3864 C3866 1.381 . S
C3864 C3870 1.383 . S
C3865 C3861 1.495 . S
C3865 H3871 0.959 . S
C3865 H3872 0.961 . S
C3865 H3873 0.960 . S
C3866 C3864 1.381 . S
C3866 C3867 1.394 . S
C3866 H3874 0.930 . S
C3867 C3866 1.394 . S
C3867 C3868 1.383 . S
C3867 H3875 0.929 . S
C3868 C3867 1.383 . S
C3868 C3869 1.377 . S
C3869 H3853 0.930 . S
C3869 C3868 1.377 . S
C3869 C3870 1.379 . S
C3870 H3854 0.931 . S
C3870 C3864 1.383 . S
C3870 C3869 1.379 . S
H3871 C3865 0.959 . S
H3872 C3865 0.961 . S
H3873 C3865 0.960 . S
H3874 C3866 0.930 . S
H3875 C3867 0.929 . S
H3876 C3884 0.929 . S
H3877 C3886 0.930 . S
H3878 C3888 0.930 . S
H3879 C3891 0.929 . S
H3880 C3894 0.930 . S
H3881 C3896 0.960 1_455 S
H3882 C3896 0.960 . S
H3883 C3896 0.960 . S
C3884 H3876 0.929 . S
C3884 C3885 1.377 . S
C3884 C3886 1.384 . S
C3885 C3884 1.377 . S
C3885 C3891 1.390 . S
C3886 H3877 0.930 . S
C3886 C3884 1.384 . S
C3886 C3887 1.372 . S
C3887 C3886 1.372 . S
C3887 C3888 1.400 . S
C3887 C3892 1.490 . S
C3888 H3878 0.930 . S
C3888 C3887 1.400 . S
C3888 C3891 1.386 . S
H3889 C3905 0.930 . S
H3890 C3906 0.931 . S
C3891 H3879 0.929 . S
C3891 C3885 1.390 . S
C3891 C3888 1.386 . S
C3892 C3887 1.490 . S
C3892 C3894 1.395 . S
C3892 C3895 1.403 . S
H3893 C3899 0.930 . S
C3894 H3880 0.930 . S
C3894 C3892 1.395 . S
C3894 C3897 1.403 1_655 S
C3895 C3892 1.403 . S
C3895 C3896 1.524 . S
C3895 C3899 1.400 1_655 S
C3896 H3881 0.960 1_655 S
C3896 H3882 0.960 . S
C3896 H3883 0.960 . S
C3896 C3895 1.524 . S
C3897 C3894 1.403 1_455 S
C3897 C3898 1.392 . S
C3897 C3901 1.495 . S
C3898 C3897 1.392 . S
C3898 C3899 1.385 . S
C3898 C3900 1.478 . S
C3899 H3893 0.930 . S
C3899 C3895 1.400 1_455 S
C3899 C3898 1.385 . S
C3900 C3898 1.478 . S
C3900 C3902 1.381 . S
C3900 C3906 1.383 . S
C3901 C3897 1.495 . S
C3901 H3907 0.959 1_455 S
C3901 H3908 0.961 . S
C3901 H3909 0.960 . S
C3902 C3900 1.381 . S
C3902 C3903 1.394 . S
C3902 H3910 0.930 . S
C3903 C3902 1.394 . S
C3903 C3904 1.383 . S
C3903 H3911 0.929 . S
C3904 C3903 1.383 . S
C3904 C3905 1.377 . S
C3905 H3889 0.930 . S
C3905 C3904 1.377 . S
C3905 C3906 1.379 . S
C3906 H3890 0.931 . S
C3906 C3900 1.383 . S
C3906 C3905 1.379 . S
H3907 C3901 0.959 1_655 S
H3908 C3901 0.961 . S
H3909 C3901 0.960 . S
H3910 C3902 0.930 . S
H3911 C3903 0.929 . S
H3912 C3920 0.929 . S
H3913 C3922 0.930 . S
H3914 C3924 0.930 . S
H3915 C3927 0.929 . S
H3916 C3930 0.930 . S
H3917 C3932 0.953 1_565 S
H3918 C3932 0.960 . S
H3919 C3932 0.960 . S
C3920 H3912 0.929 . S
C3920 C3921 1.377 . S
C3920 C3922 1.384 . S
C3921 C3920 1.377 . S
C3921 C3927 1.390 . S
C3922 H3913 0.930 . S
C3922 C3920 1.384 . S
C3922 C3923 1.372 . S
C3923 C3922 1.372 . S
C3923 C3924 1.400 . S
C3923 C3928 1.490 . S
C3924 H3914 0.930 . S
C3924 C3923 1.400 . S
C3924 C3927 1.386 . S
H3925 C3941 0.930 . S
H3926 C3942 0.931 . S
C3927 H3915 0.929 . S
C3927 C3921 1.390 . S
C3927 C3924 1.386 . S
C3928 C3923 1.490 . S
C3928 C3930 1.395 . S
C3928 C3931 1.403 . S
H3929 C3935 0.930 . S
C3930 H3916 0.930 . S
C3930 C3928 1.395 . S
C3930 C3933 1.403 1_545 S
C3931 C3928 1.403 . S
C3931 C3932 1.524 . S
C3931 C3935 1.400 1_545 S
C3932 H3917 0.953 1_545 S
C3932 H3918 0.960 . S
C3932 H3919 0.960 . S
C3932 C3931 1.524 . S
C3933 C3930 1.403 1_565 S
C3933 C3934 1.392 . S
C3933 C3937 1.495 . S
C3934 C3933 1.392 . S
C3934 C3935 1.385 . S
C3934 C3936 1.478 . S
C3935 H3929 0.930 . S
C3935 C3931 1.400 1_565 S
C3935 C3934 1.385 . S
C3936 C3934 1.478 . S
C3936 C3938 1.381 . S
C3936 C3942 1.383 . S
C3937 C3933 1.495 . S
C3937 H3943 0.959 . S
C3937 H3944 0.961 . S
C3937 H3945 0.960 . S
C3938 C3936 1.381 . S
C3938 C3939 1.394 . S
C3938 H3946 0.930 . S
C3939 C3938 1.394 . S
C3939 C3940 1.383 . S
C3939 H3947 0.929 . S
C3940 C3939 1.383 . S
C3940 C3941 1.377 . S
C3941 H3925 0.930 . S
C3941 C3940 1.377 . S
C3941 C3942 1.379 . S
C3942 H3926 0.931 . S
C3942 C3936 1.383 . S
C3942 C3941 1.379 . S
H3943 C3937 0.959 . S
H3944 C3937 0.961 . S
H3945 C3937 0.960 . S
H3946 C3938 0.930 . S
H3947 C3939 0.929 . S
H3948 C3956 0.929 . S
H3949 C3958 0.930 . S
H3950 C3960 0.930 . S
H3951 C3963 0.929 . S
H3952 C3966 0.930 . S
H3953 C3968 0.960 . S
H3954 C3968 0.960 . S
H3955 C3968 0.960 . S
C3956 H3948 0.929 . S
C3956 C3957 1.377 . S
C3956 C3958 1.384 . S
C3957 C3956 1.377 . S
C3957 C3963 1.390 . S
C3958 H3949 0.930 . S
C3958 C3956 1.384 . S
C3958 C3959 1.372 . S
C3959 C3958 1.372 . S
C3959 C3960 1.400 . S
C3959 C3964 1.490 . S
C3960 H3950 0.930 . S
C3960 C3959 1.400 . S
C3960 C3963 1.386 . S
H3961 C3977 0.930 . S
H3962 C3978 0.931 . S
C3963 H3951 0.929 . S
C3963 C3957 1.390 . S
C3963 C3960 1.386 . S
C3964 C3959 1.490 . S
C3964 C3966 1.395 . S
C3964 C3967 1.403 . S
H3965 C3971 0.930 . S
C3966 H3952 0.930 . S
C3966 C3964 1.395 . S
C3966 C3969 1.403 . S
C3967 C3964 1.403 . S
C3967 C3968 1.524 . S
C3967 C3971 1.400 . S
C3968 H3953 0.960 . S
C3968 H3954 0.960 . S
C3968 H3955 0.960 . S
C3968 C3967 1.524 . S
C3969 C3966 1.403 . S
C3969 C3970 1.392 . S
C3969 C3973 1.495 . S
C3970 C3969 1.392 . S
C3970 C3971 1.385 . S
C3970 C3972 1.478 . S
C3971 H3965 0.930 . S
C3971 C3967 1.400 . S
C3971 C3970 1.385 . S
C3972 C3970 1.478 . S
C3972 C3974 1.381 . S
C3972 C3978 1.383 . S
C3973 C3969 1.495 . S
C3973 H3979 0.959 . S
C3973 H3980 0.961 . S
C3973 H3981 0.960 . S
C3974 C3972 1.381 . S
C3974 C3975 1.394 . S
C3974 H3982 0.930 . S
C3975 C3974 1.394 . S
C3975 C3976 1.383 . S
C3975 H3983 0.929 . S
C3976 C3975 1.383 . S
C3976 C3977 1.377 . S
C3977 H3961 0.930 . S
C3977 C3976 1.377 . S
C3977 C3978 1.379 . S
C3978 H3962 0.931 . S
C3978 C3972 1.383 . S
C3978 C3977 1.379 . S
H3979 C3973 0.959 . S
H3980 C3973 0.961 . S
H3981 C3973 0.960 . S
H3982 C3974 0.930 . S
H3983 C3975 0.929 . S
H3984 C3992 0.929 . S
H3985 C3994 0.930 . S
H3986 C3996 0.930 . S
H3987 C3999 0.929 . S
H3988 C4002 0.930 . S
H3989 C4004 1.016 . S
H3990 C4004 0.928 1_455 S
H3991 C4004 0.943 1_455 S
C3992 H3984 0.929 . S
C3992 C3993 1.377 . S
C3992 C3994 1.384 . S
C3993 C3992 1.377 . S
C3993 C3999 1.390 . S
C3994 H3985 0.930 . S
C3994 C3992 1.384 . S
C3994 C3995 1.372 . S
C3995 C3994 1.372 . S
C3995 C3996 1.400 . S
C3995 C4000 1.490 . S
C3996 H3986 0.930 . S
C3996 C3995 1.400 . S
C3996 C3999 1.386 . S
H3997 C4013 0.930 . S
H3998 C4014 0.931 . S
C3999 H3987 0.929 . S
C3999 C3993 1.390 . S
C3999 C3996 1.386 . S
C4000 C3995 1.490 . S
C4000 C4002 1.395 . S
C4000 C4003 1.429 . S
H4001 C4007 0.930 . S
C4002 H3988 0.930 . S
C4002 C4000 1.395 . S
C4002 C4005 1.403 . S
C4003 C4000 1.429 . S
C4003 C4004 1.520 1_455 S
C4003 C4007 1.375 1_455 S
C4004 H3989 1.016 . S
C4004 H3990 0.928 1_655 S
C4004 H3991 0.943 1_655 S
C4004 C4003 1.520 1_655 S
C4005 C4002 1.403 . S
C4005 C4006 1.392 1_455 S
C4005 C4009 1.495 . S
C4006 C4005 1.392 1_655 S
C4006 C4007 1.385 . S
C4006 C4008 1.478 . S
C4007 H4001 0.930 . S
C4007 C4003 1.375 1_655 S
C4007 C4006 1.385 . S
C4008 C4006 1.478 . S
C4008 C4010 1.381 . S
C4008 C4014 1.383 . S
C4009 C4005 1.495 . S
C4009 H4015 0.959 . S
C4009 H4016 0.961 1_455 S
C4009 H4017 0.960 1_455 S
C4010 C4008 1.381 . S
C4010 C4011 1.394 . S
C4010 H4018 0.930 . S
C4011 C4010 1.394 . S
C4011 C4012 1.383 . S
C4011 H4019 0.929 . S
C4012 C4011 1.383 . S
C4012 C4013 1.377 . S
C4013 H3997 0.930 . S
C4013 C4012 1.377 . S
C4013 C4014 1.379 . S
C4014 H3998 0.931 . S
C4014 C4008 1.383 . S
C4014 C4013 1.379 . S
H4015 C4009 0.959 . S
H4016 C4009 0.961 1_655 S
H4017 C4009 0.960 1_655 S
H4018 C4010 0.930 . S
H4019 C4011 0.929 . S
H4020 C4028 0.929 . S
H4021 C4030 0.930 . S
H4022 C4032 0.930 . S
H4023 C4035 0.929 . S
H4024 C4038 0.930 . S
H4025 C4040 0.960 . S
H4026 C4040 0.960 . S
H4027 C4040 0.960 . S
C4028 H4020 0.929 . S
C4028 C4029 1.377 . S
C4028 C4030 1.384 . S
C4029 C4028 1.377 . S
C4029 C4035 1.390 . S
C4030 H4021 0.930 . S
C4030 C4028 1.384 . S
C4030 C4031 1.372 . S
C4031 C4030 1.372 . S
C4031 C4032 1.400 . S
C4031 C4036 1.490 . S
C4032 H4022 0.930 . S
C4032 C4031 1.400 . S
C4032 C4035 1.386 . S
H4033 C4049 0.930 . S
H4034 C4050 0.931 . S
C4035 H4023 0.929 . S
C4035 C4029 1.390 . S
C4035 C4032 1.386 . S
C4036 C4031 1.490 . S
C4036 C4038 1.395 . S
C4036 C4039 1.403 . S
H4037 C4043 0.930 . S
C4038 H4024 0.930 . S
C4038 C4036 1.395 . S
C4038 C4041 1.403 1_545 S
C4039 C4036 1.403 . S
C4039 C4040 1.524 . S
C4039 C4043 1.400 1_545 S
C4040 H4025 0.960 . S
C4040 H4026 0.960 . S
C4040 H4027 0.960 . S
C4040 C4039 1.524 . S
C4041 C4038 1.403 1_565 S
C4041 C4042 1.392 . S
C4041 C4045 1.495 . S
C4042 C4041 1.392 . S
C4042 C4043 1.385 . S
C4042 C4044 1.478 . S
C4043 H4037 0.930 . S
C4043 C4039 1.400 1_565 S
C4043 C4042 1.385 . S
C4044 C4042 1.478 . S
C4044 C4046 1.381 . S
C4044 C4050 1.383 . S
C4045 C4041 1.495 . S
C4045 H4051 0.959 . S
C4045 H4052 0.961 . S
C4045 H4053 0.960 . S
C4046 C4044 1.381 . S
C4046 C4047 1.394 . S
C4046 H4054 0.930 . S
C4047 C4046 1.394 . S
C4047 C4048 1.383 . S
C4047 H4055 0.929 . S
C4048 C4047 1.383 . S
C4048 C4049 1.377 . S
C4049 H4033 0.930 . S
C4049 C4048 1.377 . S
C4049 C4050 1.379 . S
C4050 H4034 0.931 . S
C4050 C4044 1.383 . S
C4050 C4049 1.379 . S
H4051 C4045 0.959 . S
H4052 C4045 0.961 . S
H4053 C4045 0.960 . S
H4054 C4046 0.930 . S
H4055 C4047 0.929 . S
H4056 C4064 0.929 . S
H4057 C4066 0.930 . S
H4058 C4068 0.930 . S
H4059 C4071 0.929 . S
H4060 C4074 0.930 . S
H4061 C4076 0.960 . S
H4062 C4076 0.960 . S
H4063 C4076 0.960 . S
C4064 H4056 0.929 . S
C4064 C4065 1.377 . S
C4064 C4066 1.384 . S
C4065 C4064 1.377 . S
C4065 C4071 1.390 . S
C4066 H4057 0.930 . S
C4066 C4064 1.384 . S
C4066 C4067 1.372 . S
C4067 C4066 1.372 . S
C4067 C4068 1.400 . S
C4067 C4072 1.490 . S
C4068 H4058 0.930 . S
C4068 C4067 1.400 . S
C4068 C4071 1.386 . S
H4069 C4085 0.930 . S
H4070 C4086 0.931 . S
C4071 H4059 0.929 . S
C4071 C4065 1.390 . S
C4071 C4068 1.386 . S
C4072 C4067 1.490 . S
C4072 C4074 1.395 . S
C4072 C4075 1.403 . S
H4073 C4079 0.930 . S
C4074 H4060 0.930 . S
C4074 C4072 1.395 . S
C4074 C4077 1.403 . S
C4075 C4072 1.403 . S
C4075 C4076 1.524 . S
C4075 C4079 1.400 . S
C4076 H4061 0.960 . S
C4076 H4062 0.960 . S
C4076 H4063 0.960 . S
C4076 C4075 1.524 . S
C4077 C4074 1.403 . S
C4077 C4078 1.392 . S
C4077 C4081 1.495 . S
C4078 C4077 1.392 . S
C4078 C4079 1.385 . S
C4078 C4080 1.478 . S
C4079 H4073 0.930 . S
C4079 C4075 1.400 . S
C4079 C4078 1.385 . S
C4080 C4078 1.478 . S
C4080 C4082 1.381 . S
C4080 C4086 1.383 . S
C4081 C4077 1.495 . S
C4081 H4087 0.959 . S
C4081 H4088 0.961 . S
C4081 H4089 0.960 . S
C4082 C4080 1.381 . S
C4082 C4083 1.394 . S
C4082 H4090 0.930 . S
C4083 C4082 1.394 . S
C4083 C4084 1.383 . S
C4083 H4091 0.929 . S
C4084 C4083 1.383 . S
C4084 C4085 1.377 . S
C4085 H4069 0.930 . S
C4085 C4084 1.377 . S
C4085 C4086 1.379 . S
C4086 H4070 0.931 . S
C4086 C4080 1.383 . S
C4086 C4085 1.379 . S
H4087 C4081 0.959 . S
H4088 C4081 0.961 . S
H4089 C4081 0.960 . S
H4090 C4082 0.930 . S
H4091 C4083 0.929 . S
H4092 C4100 0.929 . S
H4093 C4102 0.930 . S
H4094 C4104 0.930 . S
H4095 C4107 0.929 . S
H4096 C4110 0.930 . S
H4097 C4112 0.960 . S
H4098 C4112 0.960 1_455 S
H4099 C4112 0.960 1_455 S
C4100 H4092 0.929 . S
C4100 C4101 1.377 . S
C4100 C4102 1.384 . S
C4101 C4100 1.377 . S
C4101 C4107 1.390 . S
C4102 H4093 0.930 . S
C4102 C4100 1.384 . S
C4102 C4103 1.372 . S
C4103 C4102 1.372 . S
C4103 C4104 1.400 . S
C4103 C4108 1.490 . S
C4104 H4094 0.930 . S
C4104 C4103 1.400 . S
C4104 C4107 1.386 . S
H4105 C4121 0.930 . S
H4106 C4122 0.931 . S
C4107 H4095 0.929 . S
C4107 C4101 1.390 . S
C4107 C4104 1.386 . S
C4108 C4103 1.490 . S
C4108 C4110 1.395 . S
C4108 C4111 1.407 . S
H4109 C4115 0.930 . S
C4110 H4096 0.930 . S
C4110 C4108 1.395 . S
C4110 C4113 1.403 . S
C4111 C4108 1.407 . S
C4111 C4112 1.523 1_455 S
C4111 C4115 1.396 1_455 S
C4112 H4097 0.960 . S
C4112 H4098 0.960 1_655 S
C4112 H4099 0.960 1_655 S
C4112 C4111 1.523 1_655 S
C4113 C4110 1.403 . S
C4113 C4114 1.392 1_455 S
C4113 C4117 1.495 . S
C4114 C4113 1.392 1_655 S
C4114 C4115 1.385 . S
C4114 C4116 1.478 . S
C4115 H4109 0.930 . S
C4115 C4111 1.396 1_655 S
C4115 C4114 1.385 . S
C4116 C4114 1.478 . S
C4116 C4118 1.381 . S
C4116 C4122 1.383 . S
C4117 C4113 1.495 . S
C4117 H4123 0.959 . S
C4117 H4124 0.961 1_455 S
C4117 H4125 0.960 1_455 S
C4118 C4116 1.381 . S
C4118 C4119 1.394 . S
C4118 H4126 0.930 . S
C4119 C4118 1.394 . S
C4119 C4120 1.383 . S
C4119 H4127 0.929 . S
C4120 C4119 1.383 . S
C4120 C4121 1.377 . S
C4121 H4105 0.930 . S
C4121 C4120 1.377 . S
C4121 C4122 1.379 . S
C4122 H4106 0.931 . S
C4122 C4116 1.383 . S
C4122 C4121 1.379 . S
H4123 C4117 0.959 . S
H4124 C4117 0.961 1_655 S
H4125 C4117 0.960 1_655 S
H4126 C4118 0.930 . S
H4127 C4119 0.929 . S
C681 C20 2.003 . S
C700 C6 1.988 . S
C717 C34 2.002 . S
C736 C48 1.993 . S
C753 C90 1.997 . S
C772 C62 2.009 . S
C789 C104 1.998 . S
C808 C76 1.997 . S
C825 C118 2.001 . S
C844 C482 1.984 . S
C861 C132 1.997 . S
C880 C160 2.001 . S
C897 C454 1.997 . S
C916 C146 2.001 . S
C933 C188 1.997 . S
C952 C174 1.999 . S
C969 C216 1.997 . S
C988 C202 2.006 . S
C1005 C258 2.003 . S
C1024 C230 1.994 . S
C1041 C272 1.997 . S
C1060 C244 1.994 . S
C1077 C286 2.001 . S
C1096 C650 2.011 . S
C1113 C300 1.997 . S
C1132 C328 1.995 . S
C1149 C622 2.003 . S
C1168 C314 1.995 . S
C1185 C342 1.999 . S
C1204 C356 1.990 . S
C1221 C384 1.998 . S
C1240 C370 1.992 . S
C1257 C398 2.003 . S
C1276 C426 1.990 . S
C1293 C440 2.003 . S
C1312 C412 1.984 . S
C1329 C496 2.003 . S
C1348 C468 1.984 . S
C1365 C524 2.001 . S
C1384 C510 2.010 . S
C1401 C538 2.002 . S
C1420 C552 1.982 . S
C1437 C594 1.997 . S
C1456 C566 1.995 . S
C1473 C580 1.997 . S
C1492 C608 1.991 . S
C1509 C636 1.998 . S
C1528 C664 1.986 . S
C1545 C623 1.364 . S
C1564 C8 1.496 . S
C1581 C329 1.365 . S
C1600 C22 1.495 . S
C1617 C637 1.349 . S
C1636 C36 1.489 . S
C1653 C50 1.494 . S
C1672 C651 1.345 . S
C1689 C64 1.494 . S
C1708 C511 1.319 . S
C1725 C525 1.358 . S
C1744 C78 1.499 . S
C1761 C92 1.494 . S
C1780 C539 1.317 . S
C1797 C553 1.361 . S
C1816 C106 1.486 . S
C1833 C567 1.354 . S
C1852 C120 1.498 . S
C1869 C134 1.495 . S
C1888 C595 1.312 . S
C1905 C609 1.355 . S
C1924 C148 1.486 . S
C1941 C162 1.496 . S
C1960 C245 1.394 . S
C1977 C176 1.496 . S
C1996 C455 1.311 . S
C2013 C190 1.495 . S
C2032 C161 1.338 . S
C2049 C204 1.495 . S
C2068 C469 1.332 . S
C2085 C218 1.497 . S
C2104 C483 1.315 . S
C2121 C343 1.361 . S
C2140 C232 1.493 . S
C2157 C357 1.352 . S
C2176 C246 1.492 . S
C2193 C260 1.496 . S
C2212 C371 1.315 . S
C2229 C274 1.497 . S
C2248 C385 1.314 . S
C2265 C288 1.495 . S
C2284 C399 1.331 . S
C2301 C302 1.497 . S
C2320 C427 1.331 . S
C2337 C441 1.366 . S
C2356 C316 1.487 . S
C2373 C77 1.361 . S
C2392 C330 1.493 . S
C2409 C344 1.497 . S
C2428 C287 1.361 . S
C2445 C358 1.496 . S
C2464 C665 1.318 . S
C2481 C372 1.496 . S
C2500 C301 1.369 . S
C2517 C386 1.495 . S
C2536 C315 1.312 . S
C2553 C175 1.350 . S
C2572 C400 1.496 . S
C2589 C414 1.496 . S
C2608 C189 1.384 . S
C2625 C203 1.358 . S
C2644 C428 1.485 . S
C2661 C217 1.366 . S
C2680 C442 1.490 . S
C2697 C231 1.366 . S
C2716 C456 1.492 . S
C2733 C259 1.360 . S
C2752 C470 1.498 . S
C2769 C484 1.494 . S
C2788 C273 1.348 . S
C2805 C498 1.496 . S
C2824 C581 1.370 . S
C2841 C119 1.348 . S
C2860 C512 1.497 . S
C2877 C526 1.495 . S
C2896 C497 1.375 . S
C2913 C540 1.496 . S
C2932 C133 1.329 . S
C2949 C147 1.349 . S
C2968 C554 1.499 . S
C2985 C568 1.497 . S
C3004 C7 1.313 . S
C3021 C582 1.495 . S
C3040 C21 1.383 . S
C3057 C35 1.359 . S
C3076 C596 1.494 . S
C3093 C610 1.496 . S
C3112 C49 1.367 . S
C3129 C624 1.494 . S
C3148 C63 1.394 . S
C3165 C91 1.349 . S
C3184 C638 1.495 . S
C3201 C652 1.496 . S
C3220 C105 1.315 . S
C3237 C413 1.364 . S
C3256 C666 1.485 . S
C3273 C37 0.896 . S
C3292 C9 0.849 . S
C3309 C51 0.906 . S
C3328 C23 0.943 . S
C3345 C443 0.909 . S
C3364 C65 0.888 . S
C3381 C429 0.894 . S
C3400 C79 0.934 . S
C3417 C415 0.890 . S
C3436 C93 0.912 . S
C3453 C107 0.891 . S
C3472 C401 0.920 . S
C3489 C121 0.897 . S
C3508 C499 0.849 . S
C3525 C149 0.909 . S
C3544 C135 0.890 . S
C3561 C163 0.890 . S
C3580 C457 0.871 . S
C3597 C205 0.891 . S
C3616 C177 0.947 . S
C3633 C219 0.892 . S
C3652 C191 0.946 . S
C3669 C611 0.890 . S
C3688 C233 0.939 . S
C3705 C597 0.910 . S
C3724 C247 0.858 . S
C3741 C261 0.905 . S
C3760 C583 0.895 . S
C3777 C275 0.910 . S
C3796 C569 0.848 . S
C3813 C667 0.909 . S
C3832 C289 0.866 . S
C3849 C317 0.890 . S
C3868 C303 0.938 . S
C3885 C331 0.889 . S
C3904 C625 0.947 . S
C3921 C373 0.902 . S
C3940 C345 0.948 . S
C3957 C359 0.889 . S
C3976 C387 0.901 . S
C3993 C485 0.910 . S
C4012 C471 0.894 . S
C4029 C513 0.907 . S
C4048 C541 0.853 . S
C4065 C527 0.890 . S
C4084 C555 0.932 . S
C4101 C639 0.891 . S
C4120 C653 0.930 . S
