# Generated by pormake.
# Topology tfs, (6)-cn, num edge types: 1
# Building blocks:
#     Node 0, Type 0, BuildingBlock: MIFKUJ_clean_sbu_0, # of connection points: 6
#     Node 1, Type 0, BuildingBlock: MIFKUJ_clean_sbu_0, # of connection points: 6
#     Node 2, Type 0, BuildingBlock: MIFKUJ_clean_sbu_0, # of connection points: 6
#     Node 3, Type 0, BuildingBlock: MIFKUJ_clean_sbu_0, # of connection points: 6
#     Node 4, Type 0, BuildingBlock: MIFKUJ_clean_sbu_0, # of connection points: 6
#     Node 5, Type 0, BuildingBlock: MIFKUJ_clean_sbu_0, # of connection points: 6
#     Edge 6, Type (0, 0), BuildingBlock: FUNLAD_clean_linker_0, # of connection points: 2
#     Edge 7, Type (0, 0), BuildingBlock: FUNLAD_clean_linker_0, # of connection points: 2
#     Edge 8, Type (0, 0), BuildingBlock: FUNLAD_clean_linker_0, # of connection points: 2
#     Edge 9, Type (0, 0), BuildingBlock: FUNLAD_clean_linker_0, # of connection points: 2
#     Edge 10, Type (0, 0), BuildingBlock: FUNLAD_clean_linker_0, # of connection points: 2
#     Edge 11, Type (0, 0), BuildingBlock: FUNLAD_clean_linker_0, # of connection points: 2
#     Edge 12, Type (0, 0), BuildingBlock: FUNLAD_clean_linker_0, # of connection points: 2
#     Edge 13, Type (0, 0), BuildingBlock: FUNLAD_clean_linker_0, # of connection points: 2
#     Edge 14, Type (0, 0), BuildingBlock: FUNLAD_clean_linker_0, # of connection points: 2
#     Edge 15, Type (0, 0), BuildingBlock: FUNLAD_clean_linker_0, # of connection points: 2
#     Edge 16, Type (0, 0), BuildingBlock: FUNLAD_clean_linker_0, # of connection points: 2
#     Edge 17, Type (0, 0), BuildingBlock: FUNLAD_clean_linker_0, # of connection points: 2
#     Edge 18, Type (0, 0), BuildingBlock: FUNLAD_clean_linker_0, # of connection points: 2
#     Edge 19, Type (0, 0), BuildingBlock: FUNLAD_clean_linker_0, # of connection points: 2
#     Edge 20, Type (0, 0), BuildingBlock: FUNLAD_clean_linker_0, # of connection points: 2
#     Edge 21, Type (0, 0), BuildingBlock: FUNLAD_clean_linker_0, # of connection points: 2
#     Edge 22, Type (0, 0), BuildingBlock: FUNLAD_clean_linker_0, # of connection points: 2
#     Edge 23, Type (0, 0), BuildingBlock: FUNLAD_clean_linker_0, # of connection points: 2
# Relax obj value: 0.407
# Max RMSD: 0.243
# Mean RMSD: 0.243
data_MOF--net-tfs--node1-MIFKUJ_clean_sbu_0--edge1-FUNLAD_clean_linker_0
_symmetry_space_group_name_H-M    P1
_symmetry_Int_Tables_number       1
_symmetry_cell_setting            triclinic
loop_
_symmetry_equiv_pos_as_xyz
'x, y, z'
_cell_length_a     53.923858
_cell_length_b     53.954911
_cell_length_c     16.46739
_cell_angle_alpha  89.927429
_cell_angle_beta   89.920857
_cell_angle_gamma 119.85001
loop_
_atom_site_label
_atom_site_type_symbol
_atom_site_fract_x
_atom_site_fract_y
_atom_site_fract_z
_atom_type_partial_charge
Zn0 Zn 0.21586 0.45149 0.98476 0.0
Zn1 Zn 0.20128 0.37314 0.97147 0.0
C2 C 0.27546 0.48982 0.01193 0.0
O3 O 0.26566 0.49145 0.08366 0.0
C4 C 0.14361 0.32938 0.99159 0.0
O5 O 0.15532 0.32459 0.0552 0.0
O6 O 0.20548 0.48228 0.0006 0.0
O7 O 0.19499 0.42916 0.88638 0.0
O8 O 0.21945 0.40731 0.90038 0.0
C9 C 0.21024 0.49902 0.94084 0.0
O10 O 0.2205 0.49467 0.87328 0.0
O11 O 0.25809 0.47259 0.95983 0.0
C12 C 0.22653 0.33859 0.01793 0.0
O13 O 0.21858 0.34153 0.09104 0.0
O14 O 0.22138 0.35021 0.95796 0.0
O15 O 0.2017 0.38455 0.08799 0.0
O16 O 0.20749 0.42852 0.0892 0.0
O17 O 0.15956 0.3491 0.94224 0.0
C18 C 0.20175 0.41128 0.86002 0.0
C19 C 0.20306 0.40579 0.12577 0.0
Zn20 Zn 0.75928 0.21283 0.96233 0.0
Zn21 Zn 0.82377 0.20201 0.98224 0.0
C22 C 0.76858 0.26785 0.00493 0.0
O23 O 0.74671 0.25183 0.05226 0.0
C24 C 0.80922 0.14332 0.00051 0.0
O25 O 0.82705 0.14997 0.93915 0.0
O26 O 0.71694 0.19917 0.96162 0.0
O27 O 0.76993 0.19969 0.85983 0.0
O28 O 0.80997 0.19717 0.86645 0.0
C29 C 0.70565 0.20798 0.90967 0.0
O30 O 0.72156 0.2248 0.85059 0.0
O31 O 0.7792 0.25597 0.96147 0.0
C32 C 0.8798 0.21611 0.04129 0.0
O33 O 0.86507 0.20128 0.10477 0.0
O34 O 0.86666 0.21931 0.9818 0.0
O35 O 0.81286 0.22561 0.0502 0.0
O36 O 0.76675 0.19906 0.06706 0.0
O37 O 0.80506 0.16255 0.03106 0.0
C38 C 0.78879 0.19526 0.82685 0.0
C39 C 0.7918 0.20975 0.09547 0.0
Zn40 Zn 0.54962 0.76316 0.96625 0.0
Zn41 Zn 0.62645 0.8236 0.02027 0.0
C42 C 0.50688 0.7765 0.01636 0.0
O43 O 0.5063 0.76125 0.07936 0.0
C44 C 0.6684 0.80749 0.05759 0.0
O45 O 0.68543 0.83285 0.02639 0.0
O46 O 0.52334 0.72087 0.95079 0.0
O47 O 0.57885 0.77886 0.87627 0.0
O48 O 0.62196 0.81662 0.89988 0.0
C49 C 0.50217 0.7107 0.90251 0.0
O50 O 0.49836 0.72822 0.85555 0.0
O51 O 0.52476 0.78128 0.95973 0.0
C52 C 0.65068 0.88326 0.07275 0.0
O53 O 0.62487 0.875 0.10053 0.0
O54 O 0.65571 0.86517 0.03802 0.0
O55 O 0.59008 0.81348 0.07793 0.0
O56 O 0.56466 0.76678 0.07841 0.0
O57 O 0.64184 0.79895 0.06361 0.0
C58 C 0.60361 0.79789 0.85237 0.0
C59 C 0.57962 0.78999 0.11614 0.0
Zn60 Zn 0.77715 0.54079 0.98998 0.0
Zn61 Zn 0.80671 0.62887 0.02754 0.0
C62 C 0.72529 0.49157 0.01545 0.0
O63 O 0.74288 0.48781 0.06225 0.0
C64 C 0.86443 0.67579 0.0423 0.0
O65 O 0.85556 0.68867 0.99205 0.0
O66 O 0.79481 0.51669 0.95901 0.0
O67 O 0.79174 0.57695 0.91685 0.0
O68 O 0.80761 0.62343 0.90575 0.0
C69 C 0.78391 0.49946 0.89986 0.0
O70 O 0.76474 0.5011 0.85455 0.0
O71 O 0.73485 0.5149 0.97632 0.0
C72 C 0.7912 0.66679 0.10956 0.0
O73 O 0.81443 0.67366 0.15156 0.0
O74 O 0.78329 0.64757 0.05533 0.0
O75 O 0.79143 0.58987 0.06794 0.0
O76 O 0.78369 0.54926 0.11157 0.0
O77 O 0.84691 0.65081 0.06721 0.0
C78 C 0.80075 0.5994 0.87278 0.0
C79 C 0.79038 0.57473 0.12769 0.0
Zn80 Zn 0.24097 0.78666 0.98355 0.0
Zn81 Zn 0.17946 0.80334 0.01806 0.0
C82 C 0.22976 0.733 0.04602 0.0
O83 O 0.248 0.75021 0.10039 0.0
C84 C 0.19358 0.86104 0.03407 0.0
O85 O 0.17304 0.85213 0.97992 0.0
O86 O 0.28265 0.80047 0.96404 0.0
O87 O 0.2249 0.79794 0.88718 0.0
O88 O 0.18884 0.80697 0.89929 0.0
C89 C 0.29027 0.78992 0.90676 0.0
O90 O 0.27072 0.77143 0.85734 0.0
O91 O 0.22216 0.74366 0.98894 0.0
C92 C 0.12667 0.7935 0.09201 0.0
O93 O 0.14394 0.81264 0.14441 0.0
O94 O 0.13711 0.78619 0.03365 0.0
O95 O 0.19226 0.77887 0.07166 0.0
O96 O 0.23802 0.80129 0.09335 0.0
O97 O 0.20024 0.84329 0.06308 0.0
C98 C 0.20737 0.80478 0.8566 0.0
C99 C 0.21299 0.79298 0.11915 0.0
Zn100 Zn 0.44261 0.2361 0.98705 0.0
Zn101 Zn 0.38847 0.17476 0.0201 0.0
C102 C 0.48896 0.22573 0.01642 0.0
O103 O 0.49353 0.24379 0.07569 0.0
C104 C 0.35041 0.19665 0.98154 0.0
O105 O 0.34231 0.1777 0.92294 0.0
O106 O 0.46935 0.27813 0.9723 0.0
O107 O 0.41405 0.22272 0.89716 0.0
O108 O 0.40431 0.17826 0.9089 0.0
C109 C 0.48708 0.28617 0.91382 0.0
O110 O 0.48568 0.26702 0.86199 0.0
O111 O 0.46733 0.21805 0.97094 0.0
C112 C 0.33524 0.12395 0.07218 0.0
O113 O 0.3284 0.14217 0.10321 0.0
O114 O 0.35903 0.13324 0.03561 0.0
O115 O 0.41742 0.18509 0.10786 0.0
O116 O 0.42958 0.2305 0.10283 0.0
O117 O 0.36977 0.19914 0.03037 0.0
C118 C 0.40977 0.19962 0.86456 0.0
C119 C 0.42823 0.20945 0.14128 0.0
C120 C 0.31542 0.21183 0.93773 0.0
C121 C 0.33698 0.21468 0.99117 0.0
C122 C 0.30247 0.22858 0.9474 0.0
C123 C 0.31097 0.24874 0.01059 0.0
C124 C 0.33242 0.25143 0.06414 0.0
C125 C 0.34536 0.2347 0.05445 0.0
C126 C 0.29724 0.26644 0.02492 0.0
C127 C 0.28305 0.27223 0.96736 0.0
C128 C 0.26902 0.2896 0.98249 0.0
C129 C 0.26351 0.30258 0.91629 0.0
C130 C 0.24986 0.31859 0.92765 0.0
C131 C 0.24119 0.32182 0.00561 0.0
H132 H 0.263 0.28222 0.11282 0.0
C133 C 0.24645 0.30863 0.07181 0.0
C134 C 0.26009 0.29261 0.06046 0.0
H135 H 0.23982 0.31045 0.13258 0.0
H136 H 0.30829 0.19645 0.88871 0.0
H137 H 0.28544 0.22512 0.90625 0.0
H138 H 0.33924 0.26657 0.11378 0.0
H139 H 0.36186 0.2374 0.09688 0.0
H140 H 0.3 0.27591 0.08469 0.0
H141 H 0.28254 0.265 0.90559 0.0
H142 H 0.26987 0.30041 0.85547 0.0
H143 H 0.24605 0.32838 0.87523 0.0
C144 C 0.09477 0.29299 0.03951 0.0
C145 C 0.11211 0.31389 0.9824 0.0
C146 C 0.06501 0.27984 0.03528 0.0
C147 C 0.05183 0.28744 0.97403 0.0
C148 C 0.06913 0.30747 0.91499 0.0
C149 C 0.09897 0.32068 0.91926 0.0
C150 C 0.02023 0.27477 0.96957 0.0
C151 C 0.00306 0.265 0.0355 0.0
C152 C 0.97142 0.25254 0.0339 0.0
C153 C 0.9555 0.23686 0.10181 0.0
C154 C 0.92582 0.22503 0.1042 0.0
C155 C 0.91129 0.22872 0.03875 0.0
H156 H 0.96817 0.26899 0.91588 0.0
C157 C 0.92715 0.2446 0.97096 0.0
C158 C 0.95687 0.25645 0.96853 0.0
H159 H 0.91664 0.24803 0.91972 0.0
H160 H 0.10417 0.28698 0.08835 0.0
H161 H 0.0525 0.26366 0.08 0.0
H162 H 0.05957 0.31344 0.86647 0.0
H163 H 0.1117 0.33658 0.87401 0.0
H164 H 0.01127 0.27435 0.91036 0.0
H165 H 0.01251 0.26608 0.09449 0.0
H166 H 0.96607 0.23364 0.15334 0.0
H167 H 0.9143 0.213 0.1575 0.0
C168 C 0.79515 0.09166 0.99049 0.0
C169 C 0.79202 0.1133 0.02812 0.0
C170 C 0.77704 0.06298 0.01075 0.0
C171 C 0.75546 0.05528 0.06969 0.0
C172 C 0.75284 0.077 0.10871 0.0
C173 C 0.771 0.1057 0.08856 0.0
C174 C 0.73381 0.02495 0.08668 0.0
C175 C 0.73833 0.00287 0.0728 0.0
C176 C 0.71584 0.97217 0.07911 0.0
C177 C 0.72126 0.95171 0.04328 0.0
C178 C 0.70034 0.92283 0.04256 0.0
C179 C 0.6734 0.91363 0.07794 0.0
H180 H 0.68418 0.97745 0.14789 0.0
C181 C 0.66822 0.93385 0.11635 0.0
C182 C 0.68919 0.96278 0.11727 0.0
H183 H 0.64781 0.92741 0.14514 0.0
H184 H 0.81104 0.09677 0.94341 0.0
H185 H 0.77935 0.04699 0.97736 0.0
H186 H 0.73632 0.07172 0.15394 0.0
H187 H 0.768 0.12185 0.1188 0.0
H188 H 0.71328 0.02104 0.10921 0.0
H189 H 0.75928 0.0073 0.05213 0.0
H190 H 0.74159 0.95816 0.01396 0.0
H191 H 0.70516 0.90781 0.0129 0.0
C192 C 0.75128 0.67613 0.07475 0.0
C193 C 0.77587 0.68296 0.12042 0.0
C194 C 0.73824 0.69291 0.08012 0.0
C195 C 0.7495 0.71689 0.13161 0.0
C196 C 0.77372 0.72334 0.17831 0.0
C197 C 0.78667 0.7065 0.17323 0.0
C198 C 0.7381 0.73694 0.13299 0.0
C199 C 0.71116 0.72952 0.11178 0.0
C200 C 0.70096 0.75046 0.10498 0.0
C201 C 0.67157 0.74079 0.1117 0.0
C202 C 0.66102 0.7595 0.09918 0.0
C203 C 0.67965 0.78824 0.07843 0.0
H204 H 0.74233 0.78755 0.07786 0.0
C205 C 0.7091 0.79803 0.07301 0.0
C206 C 0.71966 0.77939 0.08596 0.0
H207 H 0.72403 0.82001 0.05681 0.0
H208 H 0.74249 0.65822 0.03318 0.0
H209 H 0.72009 0.68763 0.04143 0.0
H210 H 0.78297 0.74178 0.21799 0.0
H211 H 0.80561 0.71241 0.20919 0.0
H212 H 0.75257 0.75864 0.15297 0.0
H213 H 0.6958 0.70727 0.09949 0.0
H214 H 0.65667 0.71859 0.12564 0.0
H215 H 0.63818 0.75124 0.10363 0.0
C216 C 0.0768 0.757 0.05387 0.0
C217 C 0.09544 0.7814 0.09857 0.0
C218 C 0.04731 0.74612 0.05742 0.0
C219 C 0.03586 0.75955 0.1055 0.0
C220 C 0.05446 0.78395 0.15002 0.0
C221 C 0.08397 0.79462 0.14737 0.0
C222 C 0.00481 0.7495 0.10602 0.0
C223 C 0.985 0.72178 0.09756 0.0
C224 C 0.95402 0.71158 0.09038 0.0
C225 C 0.93445 0.68356 0.11438 0.0
C226 C 0.90521 0.67234 0.10173 0.0
C227 C 0.895 0.68879 0.06326 0.0
H228 H 0.95832 0.74984 0.033 0.0
C229 C 0.91452 0.71704 0.04057 0.0
C230 C 0.94377 0.72837 0.0541 0.0
H231 H 0.9073 0.73019 0.01062 0.0
H232 H 0.085 0.74639 0.01554 0.0
H233 H 0.03364 0.72772 0.02055 0.0
H234 H 0.04613 0.79481 0.18683 0.0
H235 H 0.09782 0.81358 0.18209 0.0
H236 H 0.99819 0.7653 0.11518 0.0
H237 H 0.99161 0.70576 0.09681 0.0
H238 H 0.94183 0.67015 0.14192 0.0
H239 H 0.89073 0.65045 0.11977 0.0
C240 C 0.20234 0.91102 0.02367 0.0
C241 C 0.21005 0.89166 0.0558 0.0
C242 C 0.2192 0.9403 0.03806 0.0
C243 C 0.24416 0.9509 0.08527 0.0
C244 C 0.25149 0.93147 0.11887 0.0
C245 C 0.23454 0.90214 0.10479 0.0
C246 C 0.26426 0.98203 0.09448 0.0
C247 C 0.25646 0.00208 0.08664 0.0
C248 C 0.27738 0.03321 0.08667 0.0
C249 C 0.26842 0.0525 0.11044 0.0
C250 C 0.28729 0.082 0.1071 0.0
C251 C 0.31539 0.09278 0.07854 0.0
H252 H 0.313 0.02991 0.037 0.0
C253 C 0.3243 0.07345 0.05443 0.0
C254 C 0.30555 0.04403 0.0584 0.0
H255 H 0.34576 0.08103 0.03174 0.0
H256 H 0.18364 0.90365 0.98548 0.0
H257 H 0.21317 0.95454 0.0092 0.0
H258 H 0.27069 0.93906 0.155 0.0
H259 H 0.24108 0.8878 0.13043 0.0
H260 H 0.28637 0.98858 0.10838 0.0
H261 H 0.234 0.99567 0.08088 0.0
H262 H 0.24673 0.04473 0.13151 0.0
H263 H 0.2797 0.09632 0.12572 0.0
C264 C 0.20419 0.68411 0.9834 0.0
C265 C 0.22059 0.70215 0.04704 0.0
C266 C 0.19795 0.65565 0.98085 0.0
C267 C 0.20816 0.64469 0.04183 0.0
C268 C 0.22328 0.66235 0.10738 0.0
C269 C 0.22956 0.69077 0.10985 0.0
C270 C 0.20425 0.61538 0.03847 0.0
C271 C 0.20094 0.60114 0.96843 0.0
C272 C 0.2014 0.57382 0.96292 0.0
C273 C 0.20892 0.5667 0.88849 0.0
C274 C 0.2113 0.54218 0.88115 0.0
C275 C 0.20595 0.524 0.94806 0.0
H276 H 0.18826 0.55925 0.08708 0.0
C277 C 0.19739 0.53049 0.02195 0.0
C278 C 0.19506 0.5551 0.02935 0.0
H279 H 0.19284 0.51676 0.07444 0.0
H280 H 0.19667 0.69212 0.93453 0.0
H281 H 0.18531 0.64247 0.93081 0.0
H282 H 0.23111 0.65442 0.1557 0.0
H283 H 0.24201 0.70398 0.16019 0.0
H284 H 0.20713 0.60666 0.09481 0.0
H285 H 0.20059 0.61109 0.91144 0.0
H286 H 0.21367 0.58052 0.83608 0.0
H287 H 0.21774 0.53775 0.82314 0.0
C288 C 0.53307 0.22377 0.05169 0.0
C289 C 0.51038 0.21698 -0.00213 0.0
C290 C 0.55482 0.21796 0.0313 0.0
C291 C 0.55437 0.20515 0.95645 0.0
C292 C 0.53143 0.19793 0.90329 0.0
C293 C 0.50953 0.20356 0.92397 0.0
C294 C 0.5786 0.20131 0.92951 0.0
C295 C 0.5962 0.19836 0.98165 0.0
C296 C 0.62257 0.19807 0.95648 0.0
C297 C 0.63446 0.18653 0.00993 0.0
C298 C 0.66084 0.18861 0.99296 0.0
C299 C 0.67615 0.20263 0.92241 0.0
H300 H 0.62943 0.22107 0.84253 0.0
C301 C 0.66391 0.21346 0.86762 0.0
C302 C 0.63744 0.21126 0.88443 0.0
H303 H 0.67519 0.2245 0.8129 0.0
H304 H 0.53443 0.23424 0.10894 0.0
H305 H 0.57249 0.22463 0.07303 0.0
H306 H 0.53066 0.18829 0.84498 0.0
H307 H 0.49244 0.1982 0.8809 0.0
H308 H 0.58183 0.20082 0.86457 0.0
H309 H 0.59123 0.19606 0.04611 0.0
H310 H 0.62361 0.17641 0.06606 0.0
H311 H 0.66964 0.18007 0.03664 0.0
C312 C 0.45496 0.66919 0.8611 0.0
C313 C 0.47995 0.68012 0.90809 0.0
C314 C 0.43233 0.64143 0.87421 0.0
C315 C 0.43428 0.62392 0.9345 0.0
C316 C 0.45972 0.6345 0.97903 0.0
C317 C 0.48235 0.6622 0.96577 0.0
C318 C 0.40936 0.596 0.95872 0.0
C319 C 0.3866 0.58044 0.91065 0.0
C320 C 0.35981 0.55514 0.93993 0.0
C321 C 0.34111 0.53526 0.88311 0.0
C322 C 0.31422 0.51313 0.90707 0.0
C323 C 0.30528 0.51064 0.98841 0.0
H324 H 0.36462 0.56723 0.06743 0.0
C325 C 0.32434 0.52996 0.04579 0.0
C326 C 0.35126 0.55199 0.02193 0.0
H327 H 0.3181 0.52872 0.10888 0.0
H328 H 0.45236 0.68244 0.81632 0.0
H329 H 0.41291 0.63445 0.83974 0.0
H330 H 0.46181 0.62159 0.02603 0.0
H331 H 0.50131 0.66989 0.00302 0.0
H332 H 0.40972 0.5883 0.01943 0.0
H333 H 0.38727 0.58653 0.84748 0.0
H334 H 0.34703 0.53726 0.81953 0.0
H335 H 0.30005 0.49866 0.8612 0.0
C336 C 0.80654 0.47083 0.94555 0.0
C337 C 0.78747 0.47401 0.89418 0.0
C338 C 0.806 0.44465 0.95051 0.0
C339 C 0.78624 0.42114 0.90437 0.0
C340 C 0.7683 0.42482 0.8501 0.0
C341 C 0.76907 0.451 0.84443 0.0
C342 C 0.78125 0.39183 0.91822 0.0
C343 C 0.80112 0.38582 0.94617 0.0
C344 C 0.79362 0.35601 0.96512 0.0
C345 C 0.81205 0.34585 0.94256 0.0
C346 C 0.80423 0.31723 0.95642 0.0
C347 C 0.7782 0.29858 0.99511 0.0
H348 H 0.75369 0.34505 0.02561 0.0
C349 C 0.76045 0.30923 0.02095 0.0
C350 C 0.76799 0.33757 0.00571 0.0
H351 H 0.74028 0.29547 0.05106 0.0
H352 H 0.82095 0.48814 0.98475 0.0
H353 H 0.81984 0.44246 0.99395 0.0
H354 H 0.75286 0.40704 0.81399 0.0
H355 H 0.75408 0.45264 0.80417 0.0
H356 H 0.75998 0.37423 0.90468 0.0
H357 H 0.82322 0.40265 0.95265 0.0
H358 H 0.83207 0.3598 0.91198 0.0
H359 H 0.81842 0.30965 0.93625 0.0
C360 C 0.34023 0.81278 0.96106 0.0
C361 C 0.32008 0.79559 0.90237 0.0
C362 C 0.36735 0.81541 0.96283 0.0
C363 C 0.37485 0.80077 0.90606 0.0
C364 C 0.35534 0.78501 0.84454 0.0
C365 C 0.32818 0.78231 0.84288 0.0
C366 C 0.40229 0.80058 0.9109 0.0
C367 C 0.41579 0.80295 0.9818 0.0
C368 C 0.44064 0.79832 0.98985 0.0
C369 C 0.44504 0.78855 0.06453 0.0
C370 C 0.46695 0.7821 0.0736 0.0
C371 C 0.48526 0.78564 0.00837 0.0
H372 H 0.45746 0.81125 0.86757 0.0
C373 C 0.48169 0.79662 0.93454 0.0
C374 C 0.4596 0.8029 0.92528 0.0
H375 H 0.49557 0.79979 0.88325 0.0
H376 H 0.33482 0.82362 0.00714 0.0
H377 H 0.38219 0.82865 0.00931 0.0
H378 H 0.3607 0.77383 0.79941 0.0
H379 H 0.31327 0.76912 0.79636 0.0
H380 H 0.40977 0.79526 0.85595 0.0
H381 H 0.40662 0.8055 0.03776 0.0
H382 H 0.43095 0.78511 0.11553 0.0
H383 H 0.46924 0.77389 0.13149 0.0
C384 C 0.67558 0.47199 0.96087 0.0
C385 C 0.69599 0.46774 0.00195 0.0
C386 C 0.64843 0.44883 0.94433 0.0
C387 C 0.64145 0.42103 0.96795 0.0
C388 C 0.66182 0.41691 0.0093 0.0
C389 C 0.68869 0.44001 0.02687 0.0
C390 C 0.61383 0.39561 0.94687 0.0
C391 C 0.58908 0.39583 0.94055 0.0
C392 C 0.56186 0.3691 0.92539 0.0
C393 C 0.5373 0.36346 0.9693 0.0
C394 C 0.51245 0.3368 0.96333 0.0
C395 C 0.51165 0.3156 0.91197 0.0
H396 H 0.57902 0.35262 0.83449 0.0
C397 C 0.53566 0.32207 0.86381 0.0
C398 C 0.56057 0.34852 0.87069 0.0
H399 H 0.53569 0.30629 0.82326 0.0
H400 H 0.68068 0.49313 0.94066 0.0
H401 H 0.63335 0.45261 0.91092 0.0
H402 H 0.65698 0.39567 0.0278 0.0
H403 H 0.70399 0.43597 0.05815 0.0
H404 H 0.61358 0.37539 0.94156 0.0
H405 H 0.58833 0.41513 0.95432 0.0
H406 H 0.53777 0.37915 0.01122 0.0
H407 H 0.49418 0.33251 0.0007 0.0
C408 C 0.17409 0.40437 0.73221 0.0
C409 C 0.19236 0.39845 0.77871 0.0
C410 C 0.16932 0.39668 0.65043 0.0
C411 C 0.18297 0.38314 0.61346 0.0
C412 C 0.19898 0.37482 0.66182 0.0
C413 C 0.20372 0.38247 0.74374 0.0
C414 C 0.18288 0.37958 0.52406 0.0
C415 C 0.18266 0.39893 0.47265 0.0
C416 C 0.18762 0.39958 0.3837 0.0
C417 C 0.19608 0.42529 0.34198 0.0
C418 C 0.20144 0.42738 0.25868 0.0
C419 C 0.19833 0.4037 0.21473 0.0
H420 H 0.1771 0.35532 0.36905 0.0
C421 C 0.18968 0.37784 0.25623 0.0
C422 C 0.18427 0.37574 0.33981 0.0
H423 H 0.18672 0.35906 0.22405 0.0
H424 H 0.16445 0.41605 0.75794 0.0
H425 H 0.15574 0.40224 0.61573 0.0
H426 H 0.20928 0.3639 0.63513 0.0
H427 H 0.2175 0.37714 0.7784 0.0
H428 H 0.18676 0.36295 0.50126 0.0
H429 H 0.18136 0.41689 0.49756 0.0
H430 H 0.19877 0.44399 0.37408 0.0
H431 H 0.20797 0.44762 0.2288 0.0
C432 C 0.80818 0.18654 0.69766 0.0
C433 C 0.78643 0.18865 0.73892 0.0
C434 C 0.8066 0.18206 0.61368 0.0
C435 C 0.78319 0.17962 0.56933 0.0
C436 C 0.76095 0.18048 0.6112 0.0
C437 C 0.76258 0.18508 0.69481 0.0
C438 C 0.78128 0.17699 0.47949 0.0
C439 C 0.80421 0.18677 0.42997 0.0
C440 C 0.802 0.18948 0.34076 0.0
C441 C 0.8252 0.21158 0.29888 0.0
C442 C 0.82238 0.21749 0.21777 0.0
C443 C 0.79627 0.20133 0.17716 0.0
H444 H 0.75878 0.15375 0.32677 0.0
C445 C 0.77377 0.17789 0.21717 0.0
C446 C 0.77667 0.17184 0.29786 0.0
H447 H 0.75363 0.16453 0.18671 0.0
H448 H 0.82669 0.18881 0.72992 0.0
H449 H 0.82374 0.1806 0.58402 0.0
H450 H 0.74253 0.17838 0.57875 0.0
H451 H 0.74526 0.18626 0.72456 0.0
H452 H 0.76031 0.16974 0.45332 0.0
H453 H 0.82552 0.19646 0.45578 0.0
H454 H 0.84512 0.22521 0.33006 0.0
H455 H 0.84021 0.23548 0.18812 0.0
C456 C 0.59659 0.77355 0.71948 0.0
C457 C 0.61053 0.79866 0.76552 0.0
C458 C 0.60052 0.77439 0.63577 0.0
C459 C 0.61786 0.80056 0.5959 0.0
C460 C 0.63338 0.82536 0.64258 0.0
C461 C 0.62981 0.82443 0.72693 0.0
C462 C 0.61882 0.80275 0.50595 0.0
C463 C 0.59626 0.78492 0.46016 0.0
C464 C 0.59461 0.78689 0.37089 0.0
C465 C 0.57436 0.76247 0.32952 0.0
C466 C 0.57002 0.76349 0.24664 0.0
C467 C 0.58563 0.78912 0.20314 0.0
H468 H 0.62615 0.83195 0.35736 0.0
C469 C 0.60627 0.81358 0.24397 0.0
C470 C 0.61077 0.81251 0.32728 0.0
H471 H 0.6187 0.8336 0.21189 0.0
H472 H 0.58226 0.75324 0.74806 0.0
H473 H 0.58945 0.75451 0.60257 0.0
H474 H 0.64728 0.84569 0.61348 0.0
H475 H 0.64107 0.84407 0.76129 0.0
H476 H 0.63763 0.82027 0.47797 0.0
H477 H 0.57734 0.76793 0.48932 0.0
H478 H 0.56152 0.74251 0.36171 0.0
H479 H 0.5539 0.74425 0.21709 0.0
C480 C 0.81146 0.6216 0.73309 0.0
C481 C 0.80295 0.59751 0.78319 0.0
C482 C 0.81331 0.61963 0.64857 0.0
C483 C 0.80659 0.59339 0.61217 0.0
C484 C 0.79853 0.56953 0.66264 0.0
C485 C 0.79668 0.57152 0.74679 0.0
C486 C 0.80771 0.58953 0.52265 0.0
C487 C 0.80995 0.60844 0.46506 0.0
C488 C 0.80832 0.60203 0.37633 0.0
C489 C 0.79825 0.61529 0.32245 0.0
C490 C 0.79367 0.60747 0.24031 0.0
C491 C 0.7991 0.58626 0.21061 0.0
H492 H 0.82482 0.57256 0.38291 0.0
C493 C 0.81073 0.57423 0.26318 0.0
C494 C 0.81565 0.58226 0.34478 0.0
H495 H 0.81563 0.55819 0.24146 0.0
H496 H 0.81669 0.64206 0.7591 0.0
H497 H 0.82021 0.63876 0.61273 0.0
H498 H 0.79341 0.54906 0.63684 0.0
H499 H 0.79033 0.5526 0.78328 0.0
H500 H 0.8048 0.56902 0.50352 0.0
H501 H 0.81069 0.62816 0.48255 0.0
H502 H 0.79277 0.63087 0.34457 0.0
H503 H 0.78446 0.61686 0.20114 0.0
C504 C 0.2305 0.81862 0.25162 0.0
C505 C 0.20789 0.79862 0.20351 0.0
C506 C 0.2264 0.8209 0.33457 0.0
C507 C 0.19969 0.80289 0.37083 0.0
C508 C 0.17682 0.78389 0.32199 0.0
C509 C 0.18075 0.78204 0.23888 0.0
C510 C 0.19627 0.80062 0.46014 0.0
C511 C 0.21026 0.82284 0.5107 0.0
C512 C 0.20939 0.81831 0.59939 0.0
C513 C 0.20312 0.83479 0.6523 0.0
C514 C 0.20201 0.83014 0.73623 0.0
C515 C 0.20822 0.80967 0.7683 0.0
H516 H 0.22084 0.78516 0.59167 0.0
C517 C 0.21527 0.79378 0.71521 0.0
C518 C 0.2155 0.79781 0.63146 0.0
H519 H 0.22014 0.77788 0.7384 0.0
H520 H 0.25161 0.83178 0.22585 0.0
H521 H 0.24457 0.83545 0.37093 0.0
H522 H 0.15608 0.76975 0.3487 0.0
H523 H 0.16288 0.76648 0.20331 0.0
H524 H 0.18209 0.77955 0.4855 0.0
H525 H 0.22245 0.84448 0.4871 0.0
H526 H 0.19858 0.85086 0.62863 0.0
H527 H 0.19674 0.84282 0.7761 0.0
C528 C 0.42711 0.22409 0.73087 0.0
C529 C 0.41554 0.19897 0.77752 0.0
C530 C 0.43412 0.22376 0.64957 0.0
C531 C 0.42974 0.19826 0.61353 0.0
C532 C 0.4178 0.17312 0.65989 0.0
C533 C 0.41089 0.17347 0.74125 0.0
C534 C 0.43473 0.19647 0.52614 0.0
C535 C 0.45288 0.21909 0.48096 0.0
C536 C 0.45174 0.21782 0.39151 0.0
C537 C 0.4545 0.24149 0.34851 0.0
C538 C 0.44775 0.23911 0.26615 0.0
C539 C 0.43836 0.21304 0.22566 0.0
H540 H 0.44366 0.1743 0.38051 0.0
C541 C 0.43805 0.19014 0.26723 0.0
C542 C 0.44482 0.19255 0.34946 0.0
H543 H 0.43173 0.17005 0.23699 0.0
H544 H 0.43089 0.24407 0.75714 0.0
H545 H 0.44222 0.24335 0.61505 0.0
H546 H 0.41378 0.15313 0.63304 0.0
H547 H 0.40196 0.15374 0.77567 0.0
H548 H 0.42142 0.1759 0.49738 0.0
H549 H 0.46611 0.23979 0.50899 0.0
H550 H 0.46017 0.26129 0.37965 0.0
H551 H 0.44881 0.25734 0.2352 0.0
loop_
_geom_bond_atom_site_label_1
_geom_bond_atom_site_label_2
_geom_bond_distance
_geom_bond_site_symmetry_2
_ccdc_geom_bond_type
Zn0 O6 1.969 . S
Zn0 O7 1.965 1_554 S
Zn0 O11 2.024 1_554 S
Zn0 O16 1.969 . S
Zn1 O8 1.969 . S
Zn1 O14 1.969 . S
Zn1 O15 1.965 1_556 S
Zn1 O17 2.024 1_556 S
C2 O3 1.229 . S
C2 O11 1.058 1_554 S
O3 C2 1.229 . S
C4 O5 1.229 . S
C4 O17 1.058 1_556 S
O5 C4 1.229 . S
O6 Zn0 1.969 . S
O6 C9 1.267 1_554 S
O7 Zn0 1.965 1_556 S
O7 C18 1.260 . S
O8 Zn1 1.969 . S
O8 C18 1.258 . S
C9 O6 1.267 1_556 S
C9 O10 1.228 . S
O10 C9 1.228 . S
O11 Zn0 2.024 1_556 S
O11 C2 1.058 1_556 S
C12 O13 1.228 . S
C12 O14 1.267 1_554 S
O13 C12 1.228 . S
O14 Zn1 1.969 . S
O14 C12 1.267 1_556 S
O15 Zn1 1.965 1_554 S
O15 C19 1.260 . S
O16 Zn0 1.969 . S
O16 C19 1.258 . S
O17 Zn1 2.024 1_554 S
O17 C4 1.058 1_554 S
C18 O7 1.260 . S
C18 O8 1.258 . S
C19 O15 1.260 . S
C19 O16 1.258 . S
Zn20 O26 1.969 . S
Zn20 O27 1.965 1_554 S
Zn20 O31 2.024 1_554 S
Zn20 O36 1.969 . S
Zn21 O28 1.969 . S
Zn21 O34 1.969 . S
Zn21 O35 1.965 1_556 S
Zn21 O37 2.024 1_556 S
C22 O23 1.229 . S
C22 O31 1.058 1_554 S
O23 C22 1.229 . S
C24 O25 1.229 . S
C24 O37 1.058 1_556 S
O25 C24 1.229 . S
O26 Zn20 1.969 . S
O26 C29 1.267 1_554 S
O27 Zn20 1.965 1_556 S
O27 C38 1.260 . S
O28 Zn21 1.969 . S
O28 C38 1.258 . S
C29 O26 1.267 1_556 S
C29 O30 1.228 . S
O30 C29 1.228 . S
O31 Zn20 2.024 1_556 S
O31 C22 1.058 1_556 S
C32 O33 1.228 . S
C32 O34 1.267 1_554 S
O33 C32 1.228 . S
O34 Zn21 1.969 . S
O34 C32 1.267 1_556 S
O35 Zn21 1.965 1_554 S
O35 C39 1.260 . S
O36 Zn20 1.969 . S
O36 C39 1.258 . S
O37 Zn21 2.024 1_554 S
O37 C24 1.058 1_554 S
C38 O27 1.260 . S
C38 O28 1.258 . S
C39 O35 1.260 . S
C39 O36 1.258 . S
Zn40 O46 1.969 . S
Zn40 O47 1.965 1_554 S
Zn40 O51 2.024 1_554 S
Zn40 O56 1.969 . S
Zn41 O48 1.969 . S
Zn41 O54 1.969 . S
Zn41 O55 1.965 1_556 S
Zn41 O57 2.024 1_556 S
C42 O43 1.229 . S
C42 O51 1.058 1_554 S
O43 C42 1.229 . S
C44 O45 1.229 . S
C44 O57 1.058 1_556 S
O45 C44 1.229 . S
O46 Zn40 1.969 . S
O46 C49 1.267 1_554 S
O47 Zn40 1.965 1_556 S
O47 C58 1.260 . S
O48 Zn41 1.969 . S
O48 C58 1.258 . S
C49 O46 1.267 1_556 S
C49 O50 1.228 . S
O50 C49 1.228 . S
O51 Zn40 2.024 1_556 S
O51 C42 1.058 1_556 S
C52 O53 1.228 . S
C52 O54 1.267 1_554 S
O53 C52 1.228 . S
O54 Zn41 1.969 . S
O54 C52 1.267 1_556 S
O55 Zn41 1.965 1_554 S
O55 C59 1.260 . S
O56 Zn40 1.969 . S
O56 C59 1.258 . S
O57 Zn41 2.024 1_554 S
O57 C44 1.058 1_554 S
C58 O47 1.260 . S
C58 O48 1.258 . S
C59 O55 1.260 . S
C59 O56 1.258 . S
Zn60 O66 1.969 . S
Zn60 O67 1.965 1_554 S
Zn60 O71 2.024 1_554 S
Zn60 O76 1.969 . S
Zn61 O68 1.969 . S
Zn61 O74 1.969 . S
Zn61 O75 1.965 1_556 S
Zn61 O77 2.024 1_556 S
C62 O63 1.229 . S
C62 O71 1.058 1_554 S
O63 C62 1.229 . S
C64 O65 1.229 . S
C64 O77 1.058 1_556 S
O65 C64 1.229 . S
O66 Zn60 1.969 . S
O66 C69 1.267 1_554 S
O67 Zn60 1.965 1_556 S
O67 C78 1.260 . S
O68 Zn61 1.969 . S
O68 C78 1.258 . S
C69 O66 1.267 1_556 S
C69 O70 1.228 . S
O70 C69 1.228 . S
O71 Zn60 2.024 1_556 S
O71 C62 1.058 1_556 S
C72 O73 1.228 . S
C72 O74 1.267 1_554 S
O73 C72 1.228 . S
O74 Zn61 1.969 . S
O74 C72 1.267 1_556 S
O75 Zn61 1.965 1_554 S
O75 C79 1.260 . S
O76 Zn60 1.969 . S
O76 C79 1.258 . S
O77 Zn61 2.024 1_554 S
O77 C64 1.058 1_554 S
C78 O67 1.260 . S
C78 O68 1.258 . S
C79 O75 1.260 . S
C79 O76 1.258 . S
Zn80 O86 1.969 . S
Zn80 O87 1.965 1_554 S
Zn80 O91 2.024 1_554 S
Zn80 O96 1.969 . S
Zn81 O88 1.969 . S
Zn81 O94 1.969 . S
Zn81 O95 1.965 1_556 S
Zn81 O97 2.024 1_556 S
C82 O83 1.229 . S
C82 O91 1.058 1_554 S
O83 C82 1.229 . S
C84 O85 1.229 . S
C84 O97 1.058 1_556 S
O85 C84 1.229 . S
O86 Zn80 1.969 . S
O86 C89 1.267 1_554 S
O87 Zn80 1.965 1_556 S
O87 C98 1.260 . S
O88 Zn81 1.969 . S
O88 C98 1.258 . S
C89 O86 1.267 1_556 S
C89 O90 1.228 . S
O90 C89 1.228 . S
O91 Zn80 2.024 1_556 S
O91 C82 1.058 1_556 S
C92 O93 1.228 . S
C92 O94 1.267 1_554 S
O93 C92 1.228 . S
O94 Zn81 1.969 . S
O94 C92 1.267 1_556 S
O95 Zn81 1.965 1_554 S
O95 C99 1.260 . S
O96 Zn80 1.969 . S
O96 C99 1.258 . S
O97 Zn81 2.024 1_554 S
O97 C84 1.058 1_554 S
C98 O87 1.260 . S
C98 O88 1.258 . S
C99 O95 1.260 . S
C99 O96 1.258 . S
Zn100 O106 1.969 . S
Zn100 O107 1.965 1_554 S
Zn100 O111 2.024 1_554 S
Zn100 O116 1.969 . S
Zn101 O108 1.969 . S
Zn101 O114 1.969 . S
Zn101 O115 1.965 1_556 S
Zn101 O117 2.024 1_556 S
C102 O103 1.229 . S
C102 O111 1.058 1_554 S
O103 C102 1.229 . S
C104 O105 1.229 . S
C104 O117 1.058 1_556 S
O105 C104 1.229 . S
O106 Zn100 1.969 . S
O106 C109 1.267 1_554 S
O107 Zn100 1.965 1_556 S
O107 C118 1.260 . S
O108 Zn101 1.969 . S
O108 C118 1.258 . S
C109 O106 1.267 1_556 S
C109 O110 1.228 . S
O110 C109 1.228 . S
O111 Zn100 2.024 1_556 S
O111 C102 1.058 1_556 S
C112 O113 1.228 . S
C112 O114 1.267 1_554 S
O113 C112 1.228 . S
O114 Zn101 1.969 . S
O114 C112 1.267 1_556 S
O115 Zn101 1.965 1_554 S
O115 C119 1.260 . S
O116 Zn100 1.969 . S
O116 C119 1.258 . S
O117 Zn101 2.024 1_554 S
O117 C104 1.058 1_554 S
C118 O107 1.260 . S
C118 O108 1.258 . S
C119 O115 1.260 . S
C119 O116 1.258 . S
C120 C121 1.385 1_556 S
C120 C122 1.383 . S
C120 H136 0.951 . S
C121 C120 1.385 1_554 S
C121 C125 1.383 . S
C122 C120 1.383 . S
C122 C123 1.402 1_556 S
C122 H137 0.951 . S
C123 C122 1.402 1_554 S
C123 C124 1.375 . S
C123 C126 1.481 . S
C124 C123 1.375 . S
C124 C125 1.367 . S
C124 H138 0.951 . S
C125 C121 1.383 . S
C125 C124 1.367 . S
C125 H139 0.950 . S
C126 C123 1.481 . S
C126 C127 1.297 1_554 S
C126 H140 0.950 . S
C127 C126 1.297 1_556 S
C127 C128 1.479 . S
C127 H141 0.950 . S
C128 C127 1.479 . S
C128 C129 1.375 . S
C128 C134 1.404 1_556 S
C129 C128 1.375 . S
C129 C130 1.369 . S
C129 H142 0.950 . S
C130 C129 1.369 . S
C130 C131 1.392 1_556 S
C130 H143 0.951 . S
C131 C130 1.392 1_554 S
C131 C133 1.384 . S
H132 C134 0.949 . S
C133 C131 1.384 . S
C133 C134 1.385 . S
C133 H135 0.950 . S
C134 C128 1.404 1_554 S
C134 H132 0.949 . S
C134 C133 1.385 . S
H135 C133 0.950 . S
H136 C120 0.951 . S
H137 C122 0.951 . S
H138 C124 0.951 . S
H139 C125 0.950 . S
H140 C126 0.950 . S
H141 C127 0.950 . S
H142 C129 0.950 . S
H143 C130 0.951 . S
C144 C145 1.386 . S
C144 C146 1.383 . S
C144 H160 0.951 . S
C145 C144 1.386 . S
C145 C149 1.383 1_554 S
C146 C144 1.383 . S
C146 C147 1.402 . S
C146 H161 0.951 . S
C147 C146 1.402 . S
C147 C148 1.375 1_554 S
C147 C150 1.481 . S
C148 C147 1.375 1_556 S
C148 C149 1.367 . S
C148 H162 0.951 . S
C149 C145 1.383 1_556 S
C149 C148 1.367 . S
C149 H163 0.950 . S
C150 C147 1.481 . S
C150 C151 1.297 1_455 S
C150 H164 0.950 . S
C151 C150 1.297 1_655 S
C151 C152 1.479 . S
C151 H165 0.950 1_655 S
C152 C151 1.479 . S
C152 C153 1.375 . S
C152 C158 1.404 . S
C153 C152 1.375 . S
C153 C154 1.369 . S
C153 H166 0.950 . S
C154 C153 1.369 . S
C154 C155 1.392 . S
C154 H167 0.951 . S
C155 C154 1.392 . S
C155 C157 1.384 . S
H156 C158 0.949 . S
C157 C155 1.384 . S
C157 C158 1.385 . S
C157 H159 0.950 . S
C158 C152 1.404 . S
C158 H156 0.949 . S
C158 C157 1.385 . S
H159 C157 0.950 . S
H160 C144 0.951 . S
H161 C146 0.951 . S
H162 C148 0.951 . S
H163 C149 0.950 . S
H164 C150 0.950 . S
H165 C151 0.950 1_455 S
H166 C153 0.950 . S
H167 C154 0.951 . S
C168 C169 1.386 1_556 S
C168 C170 1.383 . S
C168 H184 0.951 . S
C169 C168 1.386 1_554 S
C169 C173 1.383 . S
C170 C168 1.383 . S
C170 C171 1.402 1_556 S
C170 H185 0.951 . S
C171 C170 1.402 1_554 S
C171 C172 1.375 . S
C171 C174 1.481 . S
C172 C171 1.375 . S
C172 C173 1.367 . S
C172 H186 0.951 . S
C173 C169 1.383 . S
C173 C172 1.367 . S
C173 H187 0.950 . S
C174 C171 1.481 . S
C174 C175 1.297 1_545 S
C174 H188 0.950 . S
C175 C174 1.297 1_565 S
C175 C176 1.479 . S
C175 H189 0.950 1_565 S
C176 C175 1.479 . S
C176 C177 1.375 . S
C176 C182 1.404 . S
C177 C176 1.375 . S
C177 C178 1.369 1_554 S
C177 H190 0.950 1_554 S
C178 C177 1.369 1_556 S
C178 C179 1.392 1_556 S
C178 H191 0.951 . S
C179 C178 1.392 1_554 S
C179 C181 1.384 . S
H180 C182 0.949 . S
C181 C179 1.384 . S
C181 C182 1.385 . S
C181 H183 0.950 . S
C182 C176 1.404 . S
C182 H180 0.949 . S
C182 C181 1.385 . S
H183 C181 0.950 . S
H184 C168 0.951 . S
H185 C170 0.951 . S
H186 C172 0.951 . S
H187 C173 0.950 . S
H188 C174 0.950 . S
H189 C175 0.950 1_545 S
H190 C177 0.950 1_556 S
H191 C178 0.951 . S
C192 C193 1.386 . S
C192 C194 1.383 . S
C192 H208 0.951 . S
C193 C192 1.386 . S
C193 C197 1.383 . S
C194 C192 1.383 . S
C194 C195 1.402 . S
C194 H209 0.951 . S
C195 C194 1.402 . S
C195 C196 1.375 . S
C195 C198 1.481 . S
C196 C195 1.375 . S
C196 C197 1.367 . S
C196 H210 0.951 . S
C197 C193 1.383 . S
C197 C196 1.367 . S
C197 H211 0.950 . S
C198 C195 1.481 . S
C198 C199 1.297 . S
C198 H212 0.950 . S
C199 C198 1.297 . S
C199 C200 1.479 . S
C199 H213 0.950 . S
C200 C199 1.479 . S
C200 C201 1.375 . S
C200 C206 1.404 . S
C201 C200 1.375 . S
C201 C202 1.369 . S
C201 H214 0.950 . S
C202 C201 1.369 . S
C202 C203 1.392 . S
C202 H215 0.951 1_554 S
C203 C202 1.392 . S
C203 C205 1.384 . S
H204 C206 0.949 . S
C205 C203 1.384 . S
C205 C206 1.385 . S
C205 H207 0.950 . S
C206 C200 1.404 . S
C206 H204 0.949 . S
C206 C205 1.385 . S
H207 C205 0.950 . S
H208 C192 0.951 . S
H209 C194 0.951 . S
H210 C196 0.951 . S
H211 C197 0.950 . S
H212 C198 0.950 . S
H213 C199 0.950 . S
H214 C201 0.950 . S
H215 C202 0.951 1_556 S
C216 C217 1.386 . S
C216 C218 1.383 . S
C216 H232 0.951 1_554 S
C217 C216 1.386 . S
C217 C221 1.383 . S
C218 C216 1.383 . S
C218 C219 1.402 . S
C218 H233 0.951 1_554 S
C219 C218 1.402 . S
C219 C220 1.375 . S
C219 C222 1.481 . S
C220 C219 1.375 . S
C220 C221 1.367 . S
C220 H234 0.951 . S
C221 C217 1.383 . S
C221 C220 1.367 . S
C221 H235 0.950 . S
C222 C219 1.481 . S
C222 C223 1.297 1_455 S
C222 H236 0.950 1_455 S
C223 C222 1.297 1_655 S
C223 C224 1.479 . S
C223 H237 0.950 . S
C224 C223 1.479 . S
C224 C225 1.375 1_554 S
C224 C230 1.404 . S
C225 C224 1.375 1_556 S
C225 C226 1.369 . S
C225 H238 0.950 . S
C226 C225 1.369 . S
C226 C227 1.392 1_556 S
C226 H239 0.951 . S
C227 C226 1.392 1_554 S
C227 C229 1.384 . S
H228 C230 0.949 . S
C229 C227 1.384 . S
C229 C230 1.385 . S
C229 H231 0.950 . S
C230 C224 1.404 . S
C230 H228 0.949 . S
C230 C229 1.385 . S
H231 C229 0.950 . S
H232 C216 0.951 1_556 S
H233 C218 0.951 1_556 S
H234 C220 0.951 . S
H235 C221 0.950 . S
H236 C222 0.950 1_655 S
H237 C223 0.950 . S
H238 C225 0.950 . S
H239 C226 0.951 . S
C240 C241 1.386 1_556 S
C240 C242 1.381 1_556 S
C240 H256 0.951 . S
C241 C240 1.386 1_554 S
C241 C245 1.383 . S
C242 C240 1.381 1_554 S
C242 C243 1.406 . S
C242 H257 0.948 1_554 S
C243 C242 1.406 . S
C243 C244 1.375 . S
C243 C246 1.481 . S
C244 C243 1.375 . S
C244 C245 1.367 . S
C244 H258 0.951 . S
C245 C241 1.383 . S
C245 C244 1.367 . S
C245 H259 0.950 . S
C246 C243 1.481 . S
C246 C247 1.297 1_565 S
C246 H260 0.950 . S
C247 C246 1.297 1_545 S
C247 C248 1.479 . S
C247 H261 0.950 1_545 S
C248 C247 1.479 . S
C248 C249 1.375 . S
C248 C254 1.404 . S
C249 C248 1.375 . S
C249 C250 1.369 . S
C249 H262 0.950 1_554 S
C250 C249 1.369 . S
C250 C251 1.392 . S
C250 H263 0.951 1_554 S
C251 C250 1.392 . S
C251 C253 1.384 . S
H252 C254 0.949 . S
C253 C251 1.384 . S
C253 C254 1.385 . S
C253 H255 0.950 . S
C254 C248 1.404 . S
C254 H252 0.949 . S
C254 C253 1.385 . S
H255 C253 0.950 . S
H256 C240 0.951 . S
H257 C242 0.948 1_556 S
H258 C244 0.951 . S
H259 C245 0.950 . S
H260 C246 0.950 . S
H261 C247 0.950 1_565 S
H262 C249 0.950 1_556 S
H263 C250 0.951 1_556 S
C264 C265 1.386 1_556 S
C264 C266 1.383 . S
C264 H280 0.951 . S
C265 C264 1.386 1_554 S
C265 C269 1.383 . S
C266 C264 1.383 . S
C266 C267 1.402 1_556 S
C266 H281 0.951 . S
C267 C266 1.402 1_554 S
C267 C268 1.375 . S
C267 C270 1.481 . S
C268 C267 1.375 . S
C268 C269 1.367 . S
C268 H282 0.951 . S
C269 C265 1.383 . S
C269 C268 1.367 . S
C269 H283 0.950 . S
C270 C267 1.481 . S
C270 C271 1.297 . S
C270 H284 0.950 . S
C271 C270 1.297 . S
C271 C272 1.479 . S
C271 H285 0.950 . S
C272 C271 1.479 . S
C272 C273 1.375 1_554 S
C272 C278 1.404 . S
C273 C272 1.375 1_556 S
C273 C274 1.369 . S
C273 H286 0.950 . S
C274 C273 1.369 . S
C274 C275 1.392 . S
C274 H287 0.951 . S
C275 C274 1.392 . S
C275 C277 1.384 1_556 S
H276 C278 0.949 . S
C277 C275 1.384 1_554 S
C277 C278 1.385 . S
C277 H279 0.950 . S
C278 C272 1.404 . S
C278 H276 0.949 . S
C278 C277 1.385 . S
H279 C277 0.950 . S
H280 C264 0.951 . S
H281 C266 0.951 . S
H282 C268 0.951 . S
H283 C269 0.950 . S
H284 C270 0.950 . S
H285 C271 0.950 . S
H286 C273 0.950 . S
H287 C274 0.951 . S
C288 C289 1.386 1_554 S
C288 C290 1.383 . S
C288 H304 0.951 . S
C289 C288 1.386 1_556 S
C289 C293 1.383 . S
C290 C288 1.383 . S
C290 C291 1.402 1_554 S
C290 H305 0.951 . S
C291 C290 1.402 1_556 S
C291 C292 1.375 . S
C291 C294 1.481 . S
C292 C291 1.375 . S
C292 C293 1.367 . S
C292 H306 0.951 . S
C293 C289 1.383 . S
C293 C292 1.367 . S
C293 H307 0.950 . S
C294 C291 1.481 . S
C294 C295 1.297 . S
C294 H308 0.950 . S
C295 C294 1.297 . S
C295 C296 1.479 . S
C295 H309 0.950 1_556 S
C296 C295 1.479 . S
C296 C297 1.375 1_556 S
C296 C302 1.404 . S
C297 C296 1.375 1_554 S
C297 C298 1.369 . S
C297 H310 0.950 . S
C298 C297 1.369 . S
C298 C299 1.392 1_554 S
C298 H311 0.951 . S
C299 C298 1.392 1_556 S
C299 C301 1.384 . S
H300 C302 0.949 . S
C301 C299 1.384 . S
C301 C302 1.385 . S
C301 H303 0.950 . S
C302 C296 1.404 . S
C302 H300 0.949 . S
C302 C301 1.385 . S
H303 C301 0.950 . S
H304 C288 0.951 . S
H305 C290 0.951 . S
H306 C292 0.951 . S
H307 C293 0.950 . S
H308 C294 0.950 . S
H309 C295 0.950 1_554 S
H310 C297 0.950 . S
H311 C298 0.951 . S
C312 C313 1.386 . S
C312 C314 1.383 . S
C312 H328 0.951 . S
C313 C312 1.386 . S
C313 C317 1.383 . S
C314 C312 1.383 . S
C314 C315 1.402 . S
C314 H329 0.951 . S
C315 C314 1.402 . S
C315 C316 1.375 . S
C315 C318 1.481 . S
C316 C315 1.375 . S
C316 C317 1.367 . S
C316 H330 0.951 1_556 S
C317 C313 1.383 . S
C317 C316 1.367 . S
C317 H331 0.950 1_556 S
C318 C315 1.481 . S
C318 C319 1.297 . S
C318 H332 0.950 . S
C319 C318 1.297 . S
C319 C320 1.479 . S
C319 H333 0.950 . S
C320 C319 1.479 . S
C320 C321 1.375 . S
C320 C326 1.404 . S
C321 C320 1.375 . S
C321 C322 1.369 . S
C321 H334 0.950 . S
C322 C321 1.369 . S
C322 C323 1.392 . S
C322 H335 0.951 . S
C323 C322 1.392 . S
C323 C325 1.384 . S
H324 C326 0.949 . S
C325 C323 1.384 . S
C325 C326 1.385 . S
C325 H327 0.950 1_556 S
C326 C320 1.404 . S
C326 H324 0.949 . S
C326 C325 1.385 . S
H327 C325 0.950 1_554 S
H328 C312 0.951 . S
H329 C314 0.951 . S
H330 C316 0.951 1_554 S
H331 C317 0.950 1_554 S
H332 C318 0.950 . S
H333 C319 0.950 . S
H334 C321 0.950 . S
H335 C322 0.951 . S
C336 C337 1.386 . S
C336 C338 1.383 . S
C336 H352 0.951 . S
C337 C336 1.386 . S
C337 C341 1.383 . S
C338 C336 1.383 . S
C338 C339 1.402 1_556 S
C338 H353 0.951 . S
C339 C338 1.402 1_554 S
C339 C340 1.375 1_554 S
C339 C342 1.481 . S
C340 C339 1.375 1_556 S
C340 C341 1.367 . S
C340 H354 0.951 1_556 S
C341 C337 1.383 . S
C341 C340 1.367 . S
C341 H355 0.950 . S
C342 C339 1.481 . S
C342 C343 1.297 . S
C342 H356 0.950 . S
C343 C342 1.297 . S
C343 C344 1.479 . S
C343 H357 0.950 . S
C344 C343 1.479 . S
C344 C345 1.375 . S
C344 C350 1.404 . S
C345 C344 1.375 . S
C345 C346 1.369 . S
C345 H358 0.950 . S
C346 C345 1.369 . S
C346 C347 1.392 . S
C346 H359 0.951 . S
C347 C346 1.392 . S
C347 C349 1.384 . S
H348 C350 0.949 . S
C349 C347 1.384 . S
C349 C350 1.385 . S
C349 H351 0.950 . S
C350 C344 1.404 . S
C350 H348 0.949 . S
C350 C349 1.385 . S
H351 C349 0.950 . S
H352 C336 0.951 . S
H353 C338 0.951 . S
H354 C340 0.951 1_554 S
H355 C341 0.950 . S
H356 C342 0.950 . S
H357 C343 0.950 . S
H358 C345 0.950 . S
H359 C346 0.951 . S
C360 C361 1.386 1_554 S
C360 C362 1.383 . S
C360 H376 0.951 . S
C361 C360 1.386 1_556 S
C361 C365 1.383 . S
C362 C360 1.383 . S
C362 C363 1.402 1_554 S
C362 H377 0.951 . S
C363 C362 1.402 1_556 S
C363 C364 1.375 . S
C363 C366 1.481 . S
C364 C363 1.375 . S
C364 C365 1.367 . S
C364 H378 0.951 . S
C365 C361 1.383 . S
C365 C364 1.367 . S
C365 H379 0.950 . S
C366 C363 1.481 . S
C366 C367 1.297 1_556 S
C366 H380 0.950 . S
C367 C366 1.297 1_554 S
C367 C368 1.479 . S
C367 H381 0.950 . S
C368 C367 1.479 . S
C368 C369 1.375 . S
C368 C374 1.404 1_554 S
C369 C368 1.375 . S
C369 C370 1.369 . S
C369 H382 0.950 . S
C370 C369 1.369 . S
C370 C371 1.392 . S
C370 H383 0.951 . S
C371 C370 1.392 . S
C371 C373 1.384 1_554 S
H372 C374 0.949 . S
C373 C371 1.384 1_556 S
C373 C374 1.385 . S
C373 H375 0.950 . S
C374 C368 1.404 1_556 S
C374 H372 0.949 . S
C374 C373 1.385 . S
H375 C373 0.950 . S
H376 C360 0.951 . S
H377 C362 0.951 . S
H378 C364 0.951 . S
H379 C365 0.950 . S
H380 C366 0.950 . S
H381 C367 0.950 . S
H382 C369 0.950 . S
H383 C370 0.951 . S
C384 C385 1.386 . S
C384 C386 1.383 . S
C384 H400 0.951 . S
C385 C384 1.386 . S
C385 C389 1.383 1_556 S
C386 C384 1.383 . S
C386 C387 1.402 . S
C386 H401 0.951 . S
C387 C386 1.402 . S
C387 C388 1.375 . S
C387 C390 1.481 . S
C388 C387 1.375 . S
C388 C389 1.367 1_556 S
C388 H402 0.952 . S
C389 C385 1.383 1_554 S
C389 C388 1.367 1_554 S
C389 H403 0.950 . S
C390 C387 1.481 . S
C390 C391 1.297 . S
C390 H404 0.950 . S
C391 C390 1.297 . S
C391 C392 1.479 . S
C391 H405 0.950 . S
C392 C391 1.479 . S
C392 C393 1.375 . S
C392 C398 1.404 . S
C393 C392 1.375 . S
C393 C394 1.369 . S
C393 H406 0.950 . S
C394 C393 1.369 . S
C394 C395 1.392 . S
C394 H407 0.951 . S
C395 C394 1.392 . S
C395 C397 1.384 . S
H396 C398 0.949 . S
C397 C395 1.384 . S
C397 C398 1.385 . S
C397 H399 0.950 . S
C398 C392 1.404 . S
C398 H396 0.949 . S
C398 C397 1.385 . S
H399 C397 0.950 . S
H400 C384 0.951 . S
H401 C386 0.951 . S
H402 C388 0.952 . S
H403 C389 0.950 . S
H404 C390 0.950 . S
H405 C391 0.950 . S
H406 C393 0.950 . S
H407 C394 0.951 . S
C408 C409 1.386 . S
C408 C410 1.383 . S
C408 H424 0.951 . S
C409 C408 1.386 . S
C409 C413 1.383 . S
C410 C408 1.383 . S
C410 C411 1.402 . S
C410 H425 0.951 . S
C411 C410 1.402 . S
C411 C412 1.375 . S
C411 C414 1.481 . S
C412 C411 1.375 . S
C412 C413 1.367 . S
C412 H426 0.951 . S
C413 C409 1.383 . S
C413 C412 1.367 . S
C413 H427 0.950 . S
C414 C411 1.481 . S
C414 C415 1.297 . S
C414 H428 0.950 . S
C415 C414 1.297 . S
C415 C416 1.479 . S
C415 H429 0.950 . S
C416 C415 1.479 . S
C416 C417 1.375 . S
C416 C422 1.404 . S
C417 C416 1.375 . S
C417 C418 1.369 . S
C417 H430 0.950 . S
C418 C417 1.369 . S
C418 C419 1.392 . S
C418 H431 0.951 . S
C419 C418 1.392 . S
C419 C421 1.384 . S
H420 C422 0.949 . S
C421 C419 1.384 . S
C421 C422 1.385 . S
C421 H423 0.950 . S
C422 C416 1.404 . S
C422 H420 0.949 . S
C422 C421 1.385 . S
H423 C421 0.950 . S
H424 C408 0.951 . S
H425 C410 0.951 . S
H426 C412 0.951 . S
H427 C413 0.950 . S
H428 C414 0.950 . S
H429 C415 0.950 . S
H430 C417 0.950 . S
H431 C418 0.951 . S
C432 C433 1.386 . S
C432 C434 1.383 . S
C432 H448 0.951 . S
C433 C432 1.386 . S
C433 C437 1.383 . S
C434 C432 1.383 . S
C434 C435 1.402 . S
C434 H449 0.951 . S
C435 C434 1.402 . S
C435 C436 1.375 . S
C435 C438 1.481 . S
C436 C435 1.375 . S
C436 C437 1.367 . S
C436 H450 0.951 . S
C437 C433 1.383 . S
C437 C436 1.367 . S
C437 H451 0.950 . S
C438 C435 1.481 . S
C438 C439 1.297 . S
C438 H452 0.950 . S
C439 C438 1.297 . S
C439 C440 1.479 . S
C439 H453 0.950 . S
C440 C439 1.479 . S
C440 C441 1.375 . S
C440 C446 1.404 . S
C441 C440 1.375 . S
C441 C442 1.369 . S
C441 H454 0.950 . S
C442 C441 1.369 . S
C442 C443 1.392 . S
C442 H455 0.951 . S
C443 C442 1.392 . S
C443 C445 1.384 . S
H444 C446 0.949 . S
C445 C443 1.384 . S
C445 C446 1.385 . S
C445 H447 0.950 . S
C446 C440 1.404 . S
C446 H444 0.949 . S
C446 C445 1.385 . S
H447 C445 0.950 . S
H448 C432 0.951 . S
H449 C434 0.951 . S
H450 C436 0.951 . S
H451 C437 0.950 . S
H452 C438 0.950 . S
H453 C439 0.950 . S
H454 C441 0.950 . S
H455 C442 0.951 . S
C456 C457 1.386 . S
C456 C458 1.383 . S
C456 H472 0.951 . S
C457 C456 1.386 . S
C457 C461 1.383 . S
C458 C456 1.383 . S
C458 C459 1.402 . S
C458 H473 0.951 . S
C459 C458 1.402 . S
C459 C460 1.375 . S
C459 C462 1.481 . S
C460 C459 1.375 . S
C460 C461 1.367 . S
C460 H474 0.951 . S
C461 C457 1.383 . S
C461 C460 1.367 . S
C461 H475 0.950 . S
C462 C459 1.481 . S
C462 C463 1.297 . S
C462 H476 0.950 . S
C463 C462 1.297 . S
C463 C464 1.479 . S
C463 H477 0.950 . S
C464 C463 1.479 . S
C464 C465 1.375 . S
C464 C470 1.404 . S
C465 C464 1.375 . S
C465 C466 1.369 . S
C465 H478 0.950 . S
C466 C465 1.369 . S
C466 C467 1.392 . S
C466 H479 0.951 . S
C467 C466 1.392 . S
C467 C469 1.384 . S
H468 C470 0.949 . S
C469 C467 1.384 . S
C469 C470 1.385 . S
C469 H471 0.950 . S
C470 C464 1.404 . S
C470 H468 0.949 . S
C470 C469 1.385 . S
H471 C469 0.950 . S
H472 C456 0.951 . S
H473 C458 0.951 . S
H474 C460 0.951 . S
H475 C461 0.950 . S
H476 C462 0.950 . S
H477 C463 0.950 . S
H478 C465 0.950 . S
H479 C466 0.951 . S
C480 C481 1.386 . S
C480 C482 1.383 . S
C480 H496 0.951 . S
C481 C480 1.386 . S
C481 C485 1.383 . S
C482 C480 1.383 . S
C482 C483 1.402 . S
C482 H497 0.951 . S
C483 C482 1.402 . S
C483 C484 1.375 . S
C483 C486 1.481 . S
C484 C483 1.375 . S
C484 C485 1.367 . S
C484 H498 0.951 . S
C485 C481 1.383 . S
C485 C484 1.367 . S
C485 H499 0.950 . S
C486 C483 1.481 . S
C486 C487 1.297 . S
C486 H500 0.950 . S
C487 C486 1.297 . S
C487 C488 1.479 . S
C487 H501 0.950 . S
C488 C487 1.479 . S
C488 C489 1.375 . S
C488 C494 1.404 . S
C489 C488 1.375 . S
C489 C490 1.369 . S
C489 H502 0.950 . S
C490 C489 1.369 . S
C490 C491 1.392 . S
C490 H503 0.951 . S
C491 C490 1.392 . S
C491 C493 1.384 . S
H492 C494 0.949 . S
C493 C491 1.384 . S
C493 C494 1.385 . S
C493 H495 0.950 . S
C494 C488 1.404 . S
C494 H492 0.949 . S
C494 C493 1.385 . S
H495 C493 0.950 . S
H496 C480 0.951 . S
H497 C482 0.951 . S
H498 C484 0.951 . S
H499 C485 0.950 . S
H500 C486 0.950 . S
H501 C487 0.950 . S
H502 C489 0.950 . S
H503 C490 0.951 . S
C504 C505 1.386 . S
C504 C506 1.383 . S
C504 H520 0.951 . S
C505 C504 1.386 . S
C505 C509 1.383 . S
C506 C504 1.383 . S
C506 C507 1.402 . S
C506 H521 0.951 . S
C507 C506 1.402 . S
C507 C508 1.375 . S
C507 C510 1.481 . S
C508 C507 1.375 . S
C508 C509 1.367 . S
C508 H522 0.951 . S
C509 C505 1.383 . S
C509 C508 1.367 . S
C509 H523 0.950 . S
C510 C507 1.481 . S
C510 C511 1.297 . S
C510 H524 0.950 . S
C511 C510 1.297 . S
C511 C512 1.479 . S
C511 H525 0.950 . S
C512 C511 1.479 . S
C512 C513 1.375 . S
C512 C518 1.404 . S
C513 C512 1.375 . S
C513 C514 1.369 . S
C513 H526 0.950 . S
C514 C513 1.369 . S
C514 C515 1.392 . S
C514 H527 0.951 . S
C515 C514 1.392 . S
C515 C517 1.384 . S
H516 C518 0.949 . S
C517 C515 1.384 . S
C517 C518 1.385 . S
C517 H519 0.950 . S
C518 C512 1.404 . S
C518 H516 0.949 . S
C518 C517 1.385 . S
H519 C517 0.950 . S
H520 C504 0.951 . S
H521 C506 0.951 . S
H522 C508 0.951 . S
H523 C509 0.950 . S
H524 C510 0.950 . S
H525 C511 0.950 . S
H526 C513 0.950 . S
H527 C514 0.951 . S
C528 C529 1.386 . S
C528 C530 1.383 . S
C528 H544 0.951 . S
C529 C528 1.386 . S
C529 C533 1.383 . S
C530 C528 1.383 . S
C530 C531 1.402 . S
C530 H545 0.951 . S
C531 C530 1.402 . S
C531 C532 1.375 . S
C531 C534 1.481 . S
C532 C531 1.375 . S
C532 C533 1.367 . S
C532 H546 0.951 . S
C533 C529 1.383 . S
C533 C532 1.367 . S
C533 H547 0.950 . S
C534 C531 1.481 . S
C534 C535 1.297 . S
C534 H548 0.950 . S
C535 C534 1.297 . S
C535 C536 1.479 . S
C535 H549 0.950 . S
C536 C535 1.479 . S
C536 C537 1.375 . S
C536 C542 1.404 . S
C537 C536 1.375 . S
C537 C538 1.369 . S
C537 H550 0.950 . S
C538 C537 1.369 . S
C538 C539 1.392 . S
C538 H551 0.951 . S
C539 C538 1.392 . S
C539 C541 1.384 . S
H540 C542 0.949 . S
C541 C539 1.384 . S
C541 C542 1.385 . S
C541 H543 0.950 . S
C542 C536 1.404 . S
C542 H540 0.949 . S
C542 C541 1.385 . S
H543 C541 0.950 . S
H544 C528 0.951 . S
H545 C530 0.951 . S
H546 C532 0.951 . S
H547 C533 0.950 . S
H548 C534 0.950 . S
H549 C535 0.950 . S
H550 C537 0.950 . S
H551 C538 0.951 . S
C121 C104 1.350 1_554 S
C131 C12 1.369 . S
C145 C4 1.375 1_554 S
C155 C32 1.358 . S
C169 C24 1.370 1_554 S
C179 C52 1.363 . S
C193 C72 1.370 . S
C203 C44 1.367 1_554 S
C217 C92 1.369 . S
C227 C64 1.372 1_554 S
C241 C84 1.371 1_554 S
C251 C112 1.362 . S
C265 C82 1.647 . S
C275 C9 1.667 . S
C289 C102 1.642 1_556 S
C299 C29 1.716 . S
C313 C49 1.711 . S
C323 C2 1.646 1_556 S
C337 C69 1.675 . S
C347 C22 1.629 . S
C361 C89 1.668 . S
C371 C42 1.590 . S
C385 C62 1.608 1_556 S
C395 C109 1.678 . S
C409 C18 1.469 . S
C419 C19 1.494 . S
C433 C38 1.474 . S
C443 C39 1.513 . S
C457 C58 1.471 . S
C467 C59 1.484 . S
C481 C78 1.468 . S
C491 C79 1.496 . S
C505 C99 1.477 . S
C515 C98 1.468 . S
C529 C118 1.491 . S
C539 C119 1.450 . S
