# Generated by pormake.
# Topology msp, (4)-cn, num edge types: 1
# Building blocks:
#     Node 0, Type 0, BuildingBlock: CEKHIL_clean_sbu_0, # of connection points: 4
#     Node 1, Type 0, BuildingBlock: CEKHIL_clean_sbu_0, # of connection points: 4
#     Node 2, Type 0, BuildingBlock: CEKHIL_clean_sbu_0, # of connection points: 4
#     Node 3, Type 0, BuildingBlock: CEKHIL_clean_sbu_0, # of connection points: 4
#     Node 4, Type 0, BuildingBlock: CEKHIL_clean_sbu_0, # of connection points: 4
#     Node 5, Type 0, BuildingBlock: CEKHIL_clean_sbu_0, # of connection points: 4
#     Node 6, Type 0, BuildingBlock: CEKHIL_clean_sbu_0, # of connection points: 4
#     Node 7, Type 0, BuildingBlock: CEKHIL_clean_sbu_0, # of connection points: 4
#     Edge 8, Type (0, 0), BuildingBlock: OJICUG_clean_linker_0, # of connection points: 2
#     Edge 9, Type (0, 0), BuildingBlock: OJICUG_clean_linker_0, # of connection points: 2
#     Edge 10, Type (0, 0), BuildingBlock: OJICUG_clean_linker_0, # of connection points: 2
#     Edge 11, Type (0, 0), BuildingBlock: OJICUG_clean_linker_0, # of connection points: 2
#     Edge 12, Type (0, 0), BuildingBlock: OJICUG_clean_linker_0, # of connection points: 2
#     Edge 13, Type (0, 0), BuildingBlock: OJICUG_clean_linker_0, # of connection points: 2
#     Edge 14, Type (0, 0), BuildingBlock: OJICUG_clean_linker_0, # of connection points: 2
#     Edge 15, Type (0, 0), BuildingBlock: OJICUG_clean_linker_0, # of connection points: 2
#     Edge 16, Type (0, 0), BuildingBlock: OJICUG_clean_linker_0, # of connection points: 2
#     Edge 17, Type (0, 0), BuildingBlock: OJICUG_clean_linker_0, # of connection points: 2
#     Edge 18, Type (0, 0), BuildingBlock: OJICUG_clean_linker_0, # of connection points: 2
#     Edge 19, Type (0, 0), BuildingBlock: OJICUG_clean_linker_0, # of connection points: 2
#     Edge 20, Type (0, 0), BuildingBlock: OJICUG_clean_linker_0, # of connection points: 2
#     Edge 21, Type (0, 0), BuildingBlock: OJICUG_clean_linker_0, # of connection points: 2
#     Edge 22, Type (0, 0), BuildingBlock: OJICUG_clean_linker_0, # of connection points: 2
#     Edge 23, Type (0, 0), BuildingBlock: OJICUG_clean_linker_0, # of connection points: 2
# Relax obj value: 0.162
# Max RMSD: 0.207
# Mean RMSD: 0.207
data_MOF--net-msp--node1-CEKHIL_clean_sbu_0--edge1-OJICUG_clean_linker_0
_symmetry_space_group_name_H-M    P1
_symmetry_Int_Tables_number       1
_symmetry_cell_setting            triclinic
loop_
_symmetry_equiv_pos_as_xyz
'x, y, z'
_cell_length_a     16.395415
_cell_length_b     15.806975
_cell_length_c     30.320933
_cell_angle_alpha  89.969543
_cell_angle_beta   96.941897
_cell_angle_gamma 89.930752
loop_
_atom_site_label
_atom_site_type_symbol
_atom_site_fract_x
_atom_site_fract_y
_atom_site_fract_z
_atom_type_partial_charge
Co0 Co 0.01779 0.33814 0.32292 0.0
O1 O 0.93434 0.38239 0.2791 0.0
O2 O 0.95126 0.24654 0.29522 0.0
C3 C 0.9993 0.42932 0.37803 0.0
O4 O 0.09755 0.27282 0.36759 0.0
Co5 Co 0.16441 0.46123 0.35113 0.0
O6 O 0.19974 0.36477 0.39038 0.0
C7 C 0.16716 0.35751 0.27116 0.0
C8 C 0.90964 0.30529 0.27212 0.0
C9 C 0.16625 0.29199 0.39074 0.0
O10 O 0.09746 0.32518 0.2775 0.0
O11 O 0.2014 0.41741 0.29496 0.0
O12 O 0.9513 0.36445 0.37038 0.0
O13 O 0.04752 0.44356 0.34814 0.0
Co14 Co 0.50718 0.34412 0.59999 0.0
O15 O 0.59146 0.38878 0.64314 0.0
O16 O 0.57412 0.25273 0.62771 0.0
C17 C 0.5245 0.43446 0.54433 0.0
O18 O 0.42658 0.27823 0.55616 0.0
Co19 Co 0.36003 0.46704 0.5719 0.0
O20 O 0.3229 0.36921 0.53414 0.0
C21 C 0.35889 0.36432 0.65241 0.0
C22 C 0.61618 0.31166 0.65033 0.0
C23 C 0.35679 0.29655 0.53382 0.0
O24 O 0.42863 0.33206 0.64599 0.0
O25 O 0.32408 0.42384 0.62844 0.0
O26 O 0.57257 0.36949 0.55194 0.0
O27 O 0.47687 0.44922 0.57444 0.0
Co28 Co 1.00991 0.69433 0.60202 0.0
O29 O 0.09631 0.65192 0.64474 0.0
O30 O 0.07562 0.78736 0.6286 0.0
C31 C 0.02718 0.60373 0.54649 0.0
O32 O 0.92674 0.75816 0.55853 0.0
Co33 Co 0.86454 0.56881 0.57622 0.0
O34 O 0.82345 0.66583 0.53873 0.0
C35 C 0.86386 0.67337 0.65602 0.0
C36 C 0.11949 0.72963 0.65126 0.0
C37 C 0.8562 0.73881 0.53741 0.0
O38 O 0.93294 0.7059 0.6488 0.0
O39 O 0.8291 0.61311 0.6327 0.0
O40 O 0.07408 0.66957 0.55348 0.0
O41 O 0.98091 0.58824 0.5772 0.0
Co42 Co 0.51744 0.70663 0.32351 0.0
O43 O 0.43491 0.6653 0.27842 0.0
O44 O 0.45135 0.79996 0.29727 0.0
C45 C 0.49782 0.61175 0.37669 0.0
O46 O 0.59616 0.76894 0.36986 0.0
Co47 Co 0.66393 0.58228 0.35026 0.0
O48 O 0.69789 0.67561 0.39174 0.0
C49 C 0.66861 0.69277 0.27283 0.0
C50 C 0.41013 0.74278 0.2729 0.0
C51 C 0.66428 0.74821 0.3932 0.0
O52 O 0.5981 0.72338 0.27899 0.0
O53 O 0.70291 0.63166 0.29578 0.0
O54 O 0.44978 0.67688 0.36979 0.0
O55 O 0.54685 0.5995 0.34694 0.0
Co56 Co 0.51826 0.84261 0.82264 0.0
O57 O 0.43561 0.88353 0.7774 0.0
O58 O 0.45228 0.74908 0.79676 0.0
C59 C 0.49863 0.93813 0.87551 0.0
O60 O 0.59709 0.78069 0.86922 0.0
Co61 Co 0.66465 0.96692 0.84893 0.0
O62 O 0.69885 0.87392 0.8907 0.0
C63 C 0.66933 0.85574 0.77183 0.0
C64 C 0.41094 0.80603 0.77218 0.0
C65 C 0.66525 0.80145 0.89245 0.0
O66 O 0.59894 0.82518 0.77816 0.0
O67 O 0.70348 0.91709 0.79453 0.0
O68 O 0.45063 0.87306 0.86883 0.0
O69 O 0.54759 0.94995 0.84568 0.0
Co70 Co 1.00876 0.85357 0.10266 0.0
O71 O 0.09483 0.89594 0.14543 0.0
O72 O 0.07473 0.76051 0.12928 0.0
C73 C 0.02601 0.94436 0.04722 0.0
O74 O 0.92589 0.78997 0.05902 0.0
Co75 Co 0.86318 0.97924 0.07685 0.0
O76 O 0.82267 0.88261 0.03905 0.0
C77 C 0.86265 0.8745 0.15663 0.0
C78 C 0.11832 0.81827 0.15196 0.0
C79 C 0.85551 0.80959 0.03771 0.0
O80 O 0.93168 0.84178 0.14935 0.0
O81 O 0.82788 0.93495 0.13337 0.0
O82 O 0.07306 0.8785 0.05422 0.0
O83 O 0.97959 0.95973 0.07787 0.0
Co84 Co 0.50951 0.20593 0.0987 0.0
O85 O 0.59371 0.16097 0.14192 0.0
O86 O 0.57657 0.29706 0.12642 0.0
C87 C 0.52673 0.11547 0.04308 0.0
O88 O 0.42907 0.2721 0.05477 0.0
Co89 Co 0.36225 0.08352 0.07059 0.0
O90 O 0.32607 0.18096 0.03221 0.0
C91 C 0.36139 0.18557 0.15129 0.0
C92 C 0.61854 0.23799 0.14908 0.0
C93 C 0.35978 0.25364 0.03202 0.0
O94 O 0.43084 0.21818 0.1447 0.0
O95 O 0.32677 0.12603 0.12737 0.0
O96 O 0.57491 0.18022 0.05066 0.0
O97 O 0.47908 0.10097 0.07321 0.0
Co98 Co 0.01623 0.20986 0.82342 0.0
O99 O 0.93199 0.16592 0.78008 0.0
O100 O 0.94978 0.30178 0.79578 0.0
C101 C 0.99815 0.11922 0.87884 0.0
O102 O 0.09708 0.27488 0.86753 0.0
Co103 Co 0.16251 0.08567 0.8512 0.0
O104 O 0.19966 0.18262 0.88958 0.0
C105 C 0.16481 0.18967 0.77121 0.0
C106 C 0.9076 0.24315 0.77299 0.0
C107 C 0.16644 0.25559 0.89004 0.0
O108 O 0.09505 0.22193 0.77757 0.0
O109 O 0.19931 0.12981 0.79504 0.0
O110 O 0.95048 0.18449 0.87129 0.0
O111 O 0.04581 0.10436 0.84873 0.0
C112 C 0.06301 0.54019 0.43007 0.0
C113 C 1.00541 0.47515 0.42074 0.0
H114 H 0.11542 0.63125 0.47734 0.0
C115 C 0.95549 0.45177 0.45336 0.0
H116 H 0.10251 0.55934 0.4057 0.0
C117 C 0.96308 0.49265 0.49453 0.0
C118 C 0.02068 0.55771 0.50383 0.0
H119 H 0.91068 0.40155 0.44718 0.0
H120 H 0.9236 0.47355 0.51892 0.0
C121 C 0.07055 0.58107 0.4712 0.0
C122 C 0.45222 0.58606 0.45117 0.0
C123 C 0.50345 0.56428 0.4189 0.0
H124 H 0.41918 0.56272 0.51628 0.0
C125 C 0.56194 0.49992 0.42833 0.0
H126 H 0.40665 0.63567 0.44493 0.0
C127 C 0.56922 0.45834 0.46933 0.0
C128 C 0.5182 0.48044 0.50165 0.0
H129 H 0.60244 0.48203 0.4042 0.0
H130 H 0.61485 0.40881 0.47566 0.0
C131 C 0.45957 0.54461 0.49215 0.0
C132 C 0.46123 1.00574 -0.00899 0.0
C133 C 0.52007 0.06959 0.00039 0.0
H134 H 0.40778 0.91494 0.94392 0.0
C135 C 0.57088 0.09143 -0.03207 0.0
H136 H 0.42097 0.98782 0.01524 0.0
C137 C 0.56321 0.04988 0.92694 0.0
C138 C 0.50454 0.98578 0.91766 0.0
H139 H 0.61664 0.14074 -0.02584 0.0
H140 H 0.60358 0.06752 0.90272 0.0
C141 C 0.45349 0.96432 0.95004 0.0
C142 C 0.96216 0.05594 -0.00463 0.0
C143 C 0.01953 0.99049 0.00458 0.0
H144 H 0.90998 0.14749 0.9481 0.0
C145 C 0.06919 0.96686 -0.02811 0.0
H146 H 0.92286 0.07525 0.01981 0.0
C147 C 0.06165 1.00787 0.93077 0.0
C148 C 1.00431 0.07332 0.92154 0.0
H149 H 0.11385 0.91636 -0.02204 0.0
H150 H 0.10096 0.98849 0.90634 0.0
C151 C 0.95461 0.09697 0.95421 0.0
C152 C 0.72141 0.33863 0.18806 0.0
C153 C 0.69258 0.25573 0.18077 0.0
H154 H 0.8127 0.41905 0.22244 0.0
C155 C 0.73626 0.18874 0.20348 0.0
H156 H 0.68938 0.39147 0.17103 0.0
C157 C 0.80715 0.20435 0.23292 0.0
C158 C 0.83591 0.28728 0.24025 0.0
H159 H 0.71582 0.12392 0.19851 0.0
H160 H 0.83918 0.15153 0.24997 0.0
C161 C 0.79229 0.35423 0.21747 0.0
C162 C 0.7186 0.21055 0.68952 0.0
C163 C 0.69024 0.29362 0.68196 0.0
H164 H 0.80958 0.12969 0.72402 0.0
C165 C 0.73442 0.36049 0.70436 0.0
H166 H 0.68614 0.15779 0.67275 0.0
C167 C 0.80539 0.34458 0.73371 0.0
C168 C 0.83369 0.26147 0.74129 0.0
H169 H 0.71435 0.42544 0.69916 0.0
H170 H 0.83786 0.39731 0.7505 0.0
C171 C 0.78954 0.19464 0.71886 0.0
C172 C 0.22163 0.83319 0.68823 0.0
C173 C 0.19371 0.74968 0.68233 0.0
H174 H 0.31235 0.91624 0.72099 0.0
C175 C 0.23845 0.68431 0.70588 0.0
H176 H 0.18877 0.88482 0.67051 0.0
C177 C 0.30942 0.70214 0.73482 0.0
C178 C 0.33728 0.78568 0.74075 0.0
H179 H 0.2187 0.61908 0.70199 0.0
H180 H 0.34224 0.65055 0.75259 0.0
C181 C 0.29268 0.85099 0.71709 0.0
C182 C 0.29206 0.69736 0.21792 0.0
C183 C 0.33642 0.76285 0.24142 0.0
H184 H 0.18822 0.66319 0.17145 0.0
C185 C 0.30824 0.84632 0.23533 0.0
H186 H 0.31201 0.63216 0.22195 0.0
C187 C 0.23716 0.86391 0.20641 0.0
C188 C 0.19264 0.79838 0.18302 0.0
H189 H 0.34087 0.89804 0.25298 0.0
H190 H 0.21716 0.9291 0.2024 0.0
C191 C 0.22091 0.71493 0.18905 0.0
C192 C 0.23463 0.19767 0.18969 0.0
C193 C 0.31394 0.22645 0.18412 0.0
H194 H 0.12547 0.21727 0.22038 0.0
C195 C 0.34325 0.3005 0.20632 0.0
H196 H 0.20955 0.14135 0.17284 0.0
C197 C 0.29443 0.34481 0.2332 0.0
C198 C 0.21505 0.31615 0.23867 0.0
H199 H 0.40357 0.32524 0.20246 0.0
H200 H 0.31949 0.40114 0.25004 0.0
C201 C 0.18581 0.24199 0.21655 0.0
C202 C 0.23128 0.35025 0.68988 0.0
C203 C 0.31134 0.32278 0.68496 0.0
H204 H 0.12156 0.32886 0.71975 0.0
C205 C 0.34146 0.24917 0.70743 0.0
H206 H 0.20556 0.40614 0.67276 0.0
C207 C 0.29269 0.20405 0.73397 0.0
C208 C 0.21258 0.23145 0.73883 0.0
H209 H 0.40239 0.22542 0.70407 0.0
H210 H 0.3184 0.14816 0.7511 0.0
C211 C 0.18251 0.30512 0.7164 0.0
C212 C 0.68781 0.73613 0.71954 0.0
C213 C 0.71778 0.81092 0.74076 0.0
H214 H 0.7109 0.63271 0.67738 0.0
C215 C 0.79808 0.83724 0.73575 0.0
H216 H 0.62674 0.71312 0.7231 0.0
C217 C 0.84691 0.79035 0.70999 0.0
C218 C 0.81669 0.71598 0.68842 0.0
H219 H 0.82377 0.89388 0.75202 0.0
H220 H 0.90788 0.81353 0.70634 0.0
C221 C 0.73665 0.68921 0.69376 0.0
C222 C 0.73545 0.85871 0.19433 0.0
C223 C 0.81559 0.83197 0.18909 0.0
H224 H 0.62559 0.83494 0.22368 0.0
C225 C 0.84606 0.75776 0.21086 0.0
H226 H 0.70951 0.91509 0.17779 0.0
C227 C 0.79737 0.71102 0.23675 0.0
C228 C 0.71696 0.73733 0.24165 0.0
H229 H 0.90714 0.73463 0.20731 0.0
H230 H 0.82324 0.65453 0.25319 0.0
C231 C 0.68674 0.81195 0.22021 0.0
C232 C 0.34625 0.22353 0.46208 0.0
C233 C 0.31415 0.23615 0.50232 0.0
H234 H 0.319 0.22716 0.39138 0.0
C235 C 0.22911 0.22627 0.50341 0.0
H236 H 0.41152 0.2308 0.46038 0.0
C237 C 0.17583 0.22454 0.46377 0.0
C238 C 0.20794 0.23266 0.42324 0.0
H239 H 0.2031 0.23533 0.53429 0.0
H240 H 0.11059 0.23287 0.46529 0.0
C241 C 0.29294 0.22151 0.42244 0.0
C242 C 0.84337 0.81411 0.46603 0.0
C243 C 0.81143 0.79822 0.50601 0.0
H244 H 0.81622 0.81516 0.3953 0.0
C245 C 0.72618 0.80578 0.5072 0.0
H246 H 0.90879 0.80853 0.46428 0.0
C247 C 0.67294 0.80946 0.4676 0.0
C248 C 0.70521 0.80533 0.42696 0.0
H249 H 0.70031 0.79409 0.53788 0.0
H250 H 0.60783 0.79974 0.46889 0.0
C251 C 0.79006 0.81795 0.42643 0.0
C252 C 0.72587 0.74323 0.00674 0.0
C253 C 0.81124 0.75064 0.00597 0.0
H254 H 0.60799 0.74987 -0.03203 0.0
C255 C 0.84381 0.73529 -0.03388 0.0
H256 H 0.69952 0.75456 0.03732 0.0
C257 C 0.79107 0.73211 0.9263 0.0
C258 C 0.7061 0.74464 0.92649 0.0
H259 H 0.90932 0.74082 -0.03533 0.0
H260 H 0.81771 0.73522 0.89532 0.0
C261 C 0.67319 0.74013 -0.03307 0.0
C262 C 0.34856 0.32429 0.95967 0.0
C263 C 0.31737 0.31402 0.00033 0.0
H264 H 0.31972 0.31765 0.88912 0.0
C265 C 0.23257 0.32518 0.00186 0.0
H266 H 0.41363 0.31597 0.95762 0.0
C267 C 0.17846 0.32564 -0.03749 0.0
C268 C 0.20952 0.31521 0.92182 0.0
H269 H 0.20726 0.31789 0.03306 0.0
H270 H 0.1133 0.31831 -0.03544 0.0
C271 C 0.29445 0.3251 0.92032 0.0
loop_
_geom_bond_atom_site_label_1
_geom_bond_atom_site_label_2
_geom_bond_distance
_geom_bond_site_symmetry_2
_ccdc_geom_bond_type
Co0 O1 2.216 1_455 S
Co0 O2 2.091 1_455 S
Co0 O4 2.004 . S
Co0 O10 2.021 . S
Co0 O12 2.137 1_455 S
Co0 O13 2.244 . S
O1 Co0 2.216 1_655 S
O1 C8 1.247 . S
O2 Co0 2.091 1_655 S
O2 C8 1.261 . S
C3 O12 1.247 1_455 S
C3 O13 1.272 . S
O4 Co0 2.004 . S
O4 C9 1.259 . S
Co5 O6 2.061 . S
Co5 O11 2.052 . S
Co5 O13 2.135 . S
O6 Co5 2.061 . S
O6 C9 1.235 . S
C7 O10 1.238 . S
C7 O11 1.241 . S
C8 O1 1.247 . S
C8 O2 1.261 . S
C9 O4 1.259 . S
C9 O6 1.235 . S
O10 Co0 2.021 . S
O10 C7 1.238 . S
O11 Co5 2.052 . S
O11 C7 1.241 . S
O12 Co0 2.137 1_655 S
O12 C3 1.247 1_655 S
O13 Co0 2.244 . S
O13 C3 1.272 . S
O13 Co5 2.135 . S
Co14 O15 2.216 . S
Co14 O16 2.091 . S
Co14 O18 2.004 . S
Co14 O24 2.021 . S
Co14 O26 2.137 . S
Co14 O27 2.244 . S
O15 Co14 2.216 . S
O15 C22 1.247 . S
O16 Co14 2.091 . S
O16 C22 1.261 . S
C17 O26 1.247 . S
C17 O27 1.272 . S
O18 Co14 2.004 . S
O18 C23 1.259 . S
Co19 O20 2.061 . S
Co19 O25 2.052 . S
Co19 O27 2.135 . S
O20 Co19 2.061 . S
O20 C23 1.235 . S
C21 O24 1.238 . S
C21 O25 1.241 . S
C22 O15 1.247 . S
C22 O16 1.261 . S
C23 O18 1.259 . S
C23 O20 1.235 . S
O24 Co14 2.021 . S
O24 C21 1.238 . S
O25 Co19 2.052 . S
O25 C21 1.241 . S
O26 Co14 2.137 . S
O26 C17 1.247 . S
O27 Co14 2.244 . S
O27 C17 1.272 . S
O27 Co19 2.135 . S
Co28 O29 2.216 1_655 S
Co28 O30 2.091 1_655 S
Co28 O32 2.004 . S
Co28 O38 2.021 . S
Co28 O40 2.137 1_655 S
Co28 O41 2.244 . S
O29 Co28 2.216 1_455 S
O29 C36 1.247 . S
O30 Co28 2.091 1_455 S
O30 C36 1.261 . S
C31 O40 1.247 1_655 S
C31 O41 1.272 . S
O32 Co28 2.004 . S
O32 C37 1.259 . S
Co33 O34 2.061 . S
Co33 O39 2.052 . S
Co33 O41 2.135 . S
O34 Co33 2.061 . S
O34 C37 1.235 . S
C35 O38 1.238 . S
C35 O39 1.241 . S
C36 O29 1.247 . S
C36 O30 1.261 . S
C37 O32 1.259 . S
C37 O34 1.235 . S
O38 Co28 2.021 . S
O38 C35 1.238 . S
O39 Co33 2.052 . S
O39 C35 1.241 . S
O40 Co28 2.137 1_455 S
O40 C31 1.247 1_455 S
O41 Co28 2.244 . S
O41 C31 1.272 . S
O41 Co33 2.135 . S
Co42 O43 2.216 . S
Co42 O44 2.091 . S
Co42 O46 2.004 . S
Co42 O52 2.021 . S
Co42 O54 2.137 . S
Co42 O55 2.244 . S
O43 Co42 2.216 . S
O43 C50 1.247 . S
O44 Co42 2.091 . S
O44 C50 1.261 . S
C45 O54 1.247 . S
C45 O55 1.272 . S
O46 Co42 2.004 . S
O46 C51 1.259 . S
Co47 O48 2.061 . S
Co47 O53 2.052 . S
Co47 O55 2.135 . S
O48 Co47 2.061 . S
O48 C51 1.235 . S
C49 O52 1.238 . S
C49 O53 1.241 . S
C50 O43 1.247 . S
C50 O44 1.261 . S
C51 O46 1.259 . S
C51 O48 1.235 . S
O52 Co42 2.021 . S
O52 C49 1.238 . S
O53 Co47 2.052 . S
O53 C49 1.241 . S
O54 Co42 2.137 . S
O54 C45 1.247 . S
O55 Co42 2.244 . S
O55 C45 1.272 . S
O55 Co47 2.135 . S
Co56 O57 2.216 . S
Co56 O58 2.091 . S
Co56 O60 2.004 . S
Co56 O66 2.021 . S
Co56 O68 2.137 . S
Co56 O69 2.244 . S
O57 Co56 2.216 . S
O57 C64 1.247 . S
O58 Co56 2.091 . S
O58 C64 1.261 . S
C59 O68 1.247 . S
C59 O69 1.272 . S
O60 Co56 2.004 . S
O60 C65 1.259 . S
Co61 O62 2.061 . S
Co61 O67 2.052 . S
Co61 O69 2.135 . S
O62 Co61 2.061 . S
O62 C65 1.235 . S
C63 O66 1.238 . S
C63 O67 1.241 . S
C64 O57 1.247 . S
C64 O58 1.261 . S
C65 O60 1.259 . S
C65 O62 1.235 . S
O66 Co56 2.021 . S
O66 C63 1.238 . S
O67 Co61 2.052 . S
O67 C63 1.241 . S
O68 Co56 2.137 . S
O68 C59 1.247 . S
O69 Co56 2.244 . S
O69 C59 1.272 . S
O69 Co61 2.135 . S
Co70 O71 2.216 1_655 S
Co70 O72 2.091 1_655 S
Co70 O74 2.004 . S
Co70 O80 2.021 . S
Co70 O82 2.137 1_655 S
Co70 O83 2.244 . S
O71 Co70 2.216 1_455 S
O71 C78 1.247 . S
O72 Co70 2.091 1_455 S
O72 C78 1.261 . S
C73 O82 1.247 1_655 S
C73 O83 1.272 . S
O74 Co70 2.004 . S
O74 C79 1.259 . S
Co75 O76 2.061 . S
Co75 O81 2.052 . S
Co75 O83 2.135 . S
O76 Co75 2.061 . S
O76 C79 1.235 . S
C77 O80 1.238 . S
C77 O81 1.241 . S
C78 O71 1.247 . S
C78 O72 1.261 . S
C79 O74 1.259 . S
C79 O76 1.235 . S
O80 Co70 2.021 . S
O80 C77 1.238 . S
O81 Co75 2.052 . S
O81 C77 1.241 . S
O82 Co70 2.137 1_455 S
O82 C73 1.247 1_455 S
O83 Co70 2.244 . S
O83 C73 1.272 . S
O83 Co75 2.135 . S
Co84 O85 2.216 . S
Co84 O86 2.091 . S
Co84 O88 2.004 . S
Co84 O94 2.021 . S
Co84 O96 2.137 . S
Co84 O97 2.244 . S
O85 Co84 2.216 . S
O85 C92 1.247 . S
O86 Co84 2.091 . S
O86 C92 1.261 . S
C87 O96 1.247 . S
C87 O97 1.272 . S
O88 Co84 2.004 . S
O88 C93 1.259 . S
Co89 O90 2.061 . S
Co89 O95 2.052 . S
Co89 O97 2.135 . S
O90 Co89 2.061 . S
O90 C93 1.235 . S
C91 O94 1.238 . S
C91 O95 1.241 . S
C92 O85 1.247 . S
C92 O86 1.261 . S
C93 O88 1.259 . S
C93 O90 1.235 . S
O94 Co84 2.021 . S
O94 C91 1.238 . S
O95 Co89 2.052 . S
O95 C91 1.241 . S
O96 Co84 2.137 . S
O96 C87 1.247 . S
O97 Co84 2.244 . S
O97 C87 1.272 . S
O97 Co89 2.135 . S
Co98 O99 2.216 1_455 S
Co98 O100 2.091 1_455 S
Co98 O102 2.004 . S
Co98 O108 2.021 . S
Co98 O110 2.137 1_455 S
Co98 O111 2.244 . S
O99 Co98 2.216 1_655 S
O99 C106 1.247 . S
O100 Co98 2.091 1_655 S
O100 C106 1.261 . S
C101 O110 1.247 1_455 S
C101 O111 1.272 . S
O102 Co98 2.004 . S
O102 C107 1.259 . S
Co103 O104 2.061 . S
Co103 O109 2.052 . S
Co103 O111 2.135 . S
O104 Co103 2.061 . S
O104 C107 1.235 . S
C105 O108 1.238 . S
C105 O109 1.241 . S
C106 O99 1.247 . S
C106 O100 1.261 . S
C107 O102 1.259 . S
C107 O104 1.235 . S
O108 Co98 2.021 . S
O108 C105 1.238 . S
O109 Co103 2.052 . S
O109 C105 1.241 . S
O110 Co98 2.137 1_655 S
O110 C101 1.247 1_655 S
O111 Co98 2.244 . S
O111 C101 1.272 . S
O111 Co103 2.135 . S
C112 C113 1.387 1_455 S
C112 H116 0.950 . S
C112 C121 1.390 . S
C113 C112 1.387 1_655 S
C113 C115 1.387 . S
H114 C121 0.950 . S
C115 C113 1.387 . S
C115 C117 1.390 . S
C115 H119 0.950 . S
H116 C112 0.950 . S
C117 C115 1.390 . S
C117 C118 1.387 1_655 S
C117 H120 0.950 . S
C118 C117 1.387 1_455 S
C118 C121 1.387 . S
H119 C115 0.950 . S
H120 C117 0.950 . S
C121 C112 1.390 . S
C121 H114 0.950 . S
C121 C118 1.387 . S
C122 C123 1.387 . S
C122 H126 0.950 . S
C122 C131 1.390 . S
C123 C122 1.387 . S
C123 C125 1.387 . S
H124 C131 0.950 . S
C125 C123 1.387 . S
C125 C127 1.390 . S
C125 H129 0.950 . S
H126 C122 0.950 . S
C127 C125 1.390 . S
C127 C128 1.387 . S
C127 H130 0.950 . S
C128 C127 1.387 . S
C128 C131 1.387 . S
H129 C125 0.950 . S
H130 C127 0.950 . S
C131 C122 1.390 . S
C131 H124 0.950 . S
C131 C128 1.387 . S
C132 C133 1.387 . S
C132 H136 0.950 . S
C132 C141 1.390 1_544 S
C133 C132 1.387 . S
C133 C135 1.387 . S
H134 C141 0.950 . S
C135 C133 1.387 . S
C135 C137 1.390 1_544 S
C135 H139 0.950 . S
H136 C132 0.950 . S
C137 C135 1.390 1_566 S
C137 C138 1.387 . S
C137 H140 0.950 . S
C138 C137 1.387 . S
C138 C141 1.387 . S
H139 C135 0.950 . S
H140 C137 0.950 . S
C141 C132 1.390 1_566 S
C141 H134 0.950 . S
C141 C138 1.387 . S
C142 C143 1.387 1_655 S
C142 H146 0.950 . S
C142 C151 1.390 1_564 S
C143 C142 1.387 1_455 S
C143 C145 1.387 . S
H144 C151 0.950 . S
C145 C143 1.387 . S
C145 C147 1.390 1_564 S
C145 H149 0.950 . S
H146 C142 0.950 . S
C147 C145 1.390 1_546 S
C147 C148 1.387 1_455 S
C147 H150 0.950 . S
C148 C147 1.387 1_655 S
C148 C151 1.387 . S
H149 C145 0.950 . S
H150 C147 0.950 . S
C151 C142 1.390 1_546 S
C151 H144 0.950 . S
C151 C148 1.387 . S
C152 C153 1.387 . S
C152 H156 0.950 . S
C152 C161 1.390 . S
C153 C152 1.387 . S
C153 C155 1.387 . S
H154 C161 0.950 . S
C155 C153 1.387 . S
C155 C157 1.390 . S
C155 H159 0.950 . S
H156 C152 0.950 . S
C157 C155 1.390 . S
C157 C158 1.387 . S
C157 H160 0.950 . S
C158 C157 1.387 . S
C158 C161 1.387 . S
H159 C155 0.950 . S
H160 C157 0.950 . S
C161 C152 1.390 . S
C161 H154 0.950 . S
C161 C158 1.387 . S
C162 C163 1.387 . S
C162 H166 0.950 . S
C162 C171 1.390 . S
C163 C162 1.387 . S
C163 C165 1.387 . S
H164 C171 0.950 . S
C165 C163 1.387 . S
C165 C167 1.390 . S
C165 H169 0.950 . S
H166 C162 0.950 . S
C167 C165 1.390 . S
C167 C168 1.387 . S
C167 H170 0.950 . S
C168 C167 1.387 . S
C168 C171 1.387 . S
H169 C165 0.950 . S
H170 C167 0.950 . S
C171 C162 1.390 . S
C171 H164 0.950 . S
C171 C168 1.387 . S
C172 C173 1.387 . S
C172 H176 0.950 . S
C172 C181 1.390 . S
C173 C172 1.387 . S
C173 C175 1.387 . S
H174 C181 0.950 . S
C175 C173 1.387 . S
C175 C177 1.390 . S
C175 H179 0.950 . S
H176 C172 0.950 . S
C177 C175 1.390 . S
C177 C178 1.387 . S
C177 H180 0.950 . S
C178 C177 1.387 . S
C178 C181 1.387 . S
H179 C175 0.950 . S
H180 C177 0.950 . S
C181 C172 1.390 . S
C181 H174 0.950 . S
C181 C178 1.387 . S
C182 C183 1.387 . S
C182 H186 0.950 . S
C182 C191 1.390 . S
C183 C182 1.387 . S
C183 C185 1.387 . S
H184 C191 0.950 . S
C185 C183 1.387 . S
C185 C187 1.390 . S
C185 H189 0.950 . S
H186 C182 0.950 . S
C187 C185 1.390 . S
C187 C188 1.387 . S
C187 H190 0.950 . S
C188 C187 1.387 . S
C188 C191 1.387 . S
H189 C185 0.950 . S
H190 C187 0.950 . S
C191 C182 1.390 . S
C191 H184 0.950 . S
C191 C188 1.387 . S
C192 C193 1.387 . S
C192 H196 0.950 . S
C192 C201 1.390 . S
C193 C192 1.387 . S
C193 C195 1.387 . S
H194 C201 0.950 . S
C195 C193 1.387 . S
C195 C197 1.390 . S
C195 H199 0.950 . S
H196 C192 0.950 . S
C197 C195 1.390 . S
C197 C198 1.387 . S
C197 H200 0.950 . S
C198 C197 1.387 . S
C198 C201 1.387 . S
H199 C195 0.950 . S
H200 C197 0.950 . S
C201 C192 1.390 . S
C201 H194 0.950 . S
C201 C198 1.387 . S
C202 C203 1.387 . S
C202 H206 0.950 . S
C202 C211 1.390 . S
C203 C202 1.387 . S
C203 C205 1.387 . S
H204 C211 0.950 . S
C205 C203 1.387 . S
C205 C207 1.390 . S
C205 H209 0.950 . S
H206 C202 0.950 . S
C207 C205 1.390 . S
C207 C208 1.387 . S
C207 H210 0.950 . S
C208 C207 1.387 . S
C208 C211 1.387 . S
H209 C205 0.950 . S
H210 C207 0.950 . S
C211 C202 1.390 . S
C211 H204 0.950 . S
C211 C208 1.387 . S
C212 C213 1.387 . S
C212 H216 0.950 . S
C212 C221 1.390 . S
C213 C212 1.387 . S
C213 C215 1.387 . S
H214 C221 0.950 . S
C215 C213 1.387 . S
C215 C217 1.390 . S
C215 H219 0.950 . S
H216 C212 0.950 . S
C217 C215 1.390 . S
C217 C218 1.387 . S
C217 H220 0.950 . S
C218 C217 1.387 . S
C218 C221 1.387 . S
H219 C215 0.950 . S
H220 C217 0.950 . S
C221 C212 1.390 . S
C221 H214 0.950 . S
C221 C218 1.387 . S
C222 C223 1.387 . S
C222 H226 0.950 . S
C222 C231 1.390 . S
C223 C222 1.387 . S
C223 C225 1.387 . S
H224 C231 0.950 . S
C225 C223 1.387 . S
C225 C227 1.390 . S
C225 H229 0.950 . S
H226 C222 0.950 . S
C227 C225 1.390 . S
C227 C228 1.387 . S
C227 H230 0.950 . S
C228 C227 1.387 . S
C228 C231 1.387 . S
H229 C225 0.950 . S
H230 C227 0.950 . S
C231 C222 1.390 . S
C231 H224 0.950 . S
C231 C228 1.387 . S
C232 C233 1.387 . S
C232 H236 0.950 . S
C232 C241 1.390 . S
C233 C232 1.387 . S
C233 C235 1.387 . S
H234 C241 0.950 . S
C235 C233 1.387 . S
C235 C237 1.390 . S
C235 H239 0.950 . S
H236 C232 0.950 . S
C237 C235 1.390 . S
C237 C238 1.387 . S
C237 H240 0.950 . S
C238 C237 1.387 . S
C238 C241 1.387 . S
H239 C235 0.950 . S
H240 C237 0.950 . S
C241 C232 1.390 . S
C241 H234 0.950 . S
C241 C238 1.387 . S
C242 C243 1.387 . S
C242 H246 0.950 . S
C242 C251 1.390 . S
C243 C242 1.387 . S
C243 C245 1.387 . S
H244 C251 0.950 . S
C245 C243 1.387 . S
C245 C247 1.390 . S
C245 H249 0.950 . S
H246 C242 0.950 . S
C247 C245 1.390 . S
C247 C248 1.387 . S
C247 H250 0.950 . S
C248 C247 1.387 . S
C248 C251 1.387 . S
H249 C245 0.950 . S
H250 C247 0.950 . S
C251 C242 1.390 . S
C251 H244 0.950 . S
C251 C248 1.387 . S
C252 C253 1.387 . S
C252 H256 0.950 . S
C252 C261 1.390 1_554 S
C253 C252 1.387 . S
C253 C255 1.387 . S
H254 C261 0.950 . S
C255 C253 1.387 . S
C255 C257 1.390 1_554 S
C255 H259 0.950 . S
H256 C252 0.950 . S
C257 C255 1.390 1_556 S
C257 C258 1.387 . S
C257 H260 0.950 . S
C258 C257 1.387 . S
C258 C261 1.387 . S
H259 C255 0.950 . S
H260 C257 0.950 . S
C261 C252 1.390 1_556 S
C261 H254 0.950 . S
C261 C258 1.387 . S
C262 C263 1.387 . S
C262 H266 0.950 . S
C262 C271 1.390 1_554 S
C263 C262 1.387 . S
C263 C265 1.387 . S
H264 C271 0.950 . S
C265 C263 1.387 . S
C265 C267 1.390 1_554 S
C265 H269 0.950 . S
H266 C262 0.950 . S
C267 C265 1.390 1_556 S
C267 C268 1.387 . S
C267 H270 0.950 . S
C268 C267 1.387 . S
C268 C271 1.387 . S
H269 C265 0.950 . S
H270 C267 0.950 . S
C271 C262 1.390 1_556 S
C271 H264 0.950 . S
C271 C268 1.387 . S
C113 C3 1.571 1_655 S
C118 C31 1.571 1_455 S
C123 C45 1.571 . S
C128 C17 1.571 . S
C133 C87 1.573 . S
C138 C59 1.573 . S
C143 C73 1.571 1_455 S
C148 C101 1.571 1_655 S
C153 C92 1.811 . S
C158 C8 1.811 . S
C163 C22 1.809 . S
C168 C106 1.809 . S
C173 C36 1.811 . S
C178 C64 1.811 . S
C183 C50 1.809 . S
C188 C78 1.809 . S
C193 C91 1.494 . S
C198 C7 1.494 . S
C203 C21 1.497 . S
C208 C105 1.497 . S
C213 C63 1.494 . S
C218 C35 1.494 . S
C223 C77 1.497 . S
C228 C49 1.497 . S
C233 C23 0.818 . S
C238 C9 0.818 . S
C243 C37 0.814 . S
C248 C51 0.814 . S
C253 C79 0.814 . S
C258 C65 0.814 . S
C263 C93 0.818 . S
C268 C107 0.818 . S
