# Generated by pormake.
# Topology msp, (4)-cn, num edge types: 1
# Building blocks:
#     Node 0, Type 0, BuildingBlock: QUQFOY_clean_sbu_1, # of connection points: 4
#     Node 1, Type 0, BuildingBlock: QUQFOY_clean_sbu_1, # of connection points: 4
#     Node 2, Type 0, BuildingBlock: QUQFOY_clean_sbu_1, # of connection points: 4
#     Node 3, Type 0, BuildingBlock: QUQFOY_clean_sbu_1, # of connection points: 4
#     Node 4, Type 0, BuildingBlock: QUQFOY_clean_sbu_1, # of connection points: 4
#     Node 5, Type 0, BuildingBlock: QUQFOY_clean_sbu_1, # of connection points: 4
#     Node 6, Type 0, BuildingBlock: QUQFOY_clean_sbu_1, # of connection points: 4
#     Node 7, Type 0, BuildingBlock: QUQFOY_clean_sbu_1, # of connection points: 4
#     Edge 8, Type (0, 0), BuildingBlock: TEMPAE_clean_linker_10, # of connection points: 2
#     Edge 9, Type (0, 0), BuildingBlock: TEMPAE_clean_linker_10, # of connection points: 2
#     Edge 10, Type (0, 0), BuildingBlock: TEMPAE_clean_linker_10, # of connection points: 2
#     Edge 11, Type (0, 0), BuildingBlock: TEMPAE_clean_linker_10, # of connection points: 2
#     Edge 12, Type (0, 0), BuildingBlock: TEMPAE_clean_linker_10, # of connection points: 2
#     Edge 13, Type (0, 0), BuildingBlock: TEMPAE_clean_linker_10, # of connection points: 2
#     Edge 14, Type (0, 0), BuildingBlock: TEMPAE_clean_linker_10, # of connection points: 2
#     Edge 15, Type (0, 0), BuildingBlock: TEMPAE_clean_linker_10, # of connection points: 2
#     Edge 16, Type (0, 0), BuildingBlock: TEMPAE_clean_linker_10, # of connection points: 2
#     Edge 17, Type (0, 0), BuildingBlock: TEMPAE_clean_linker_10, # of connection points: 2
#     Edge 18, Type (0, 0), BuildingBlock: TEMPAE_clean_linker_10, # of connection points: 2
#     Edge 19, Type (0, 0), BuildingBlock: TEMPAE_clean_linker_10, # of connection points: 2
#     Edge 20, Type (0, 0), BuildingBlock: TEMPAE_clean_linker_10, # of connection points: 2
#     Edge 21, Type (0, 0), BuildingBlock: TEMPAE_clean_linker_10, # of connection points: 2
#     Edge 22, Type (0, 0), BuildingBlock: TEMPAE_clean_linker_10, # of connection points: 2
#     Edge 23, Type (0, 0), BuildingBlock: TEMPAE_clean_linker_10, # of connection points: 2
# Relax obj value: 0.066
# Max RMSD: 0.123
# Mean RMSD: 0.123
data_MOF--net-msp--node1-QUQFOY_clean_sbu_1--edge1-TEMPAE_clean_linker_10
_symmetry_space_group_name_H-M    P1
_symmetry_Int_Tables_number       1
_symmetry_cell_setting            triclinic
loop_
_symmetry_equiv_pos_as_xyz
'x, y, z'
_cell_length_a     24.054975
_cell_length_b     38.252021
_cell_length_c     34.059227
_cell_angle_alpha  89.770382
_cell_angle_beta   93.469232
_cell_angle_gamma 90.191875
loop_
_atom_site_label
_atom_site_type_symbol
_atom_site_fract_x
_atom_site_fract_y
_atom_site_fract_z
_atom_type_partial_charge
O0 O 0.05314 0.27821 0.35207 0.0
Cd1 Cd 0.00862 0.27886 0.40094 0.0
Cd2 Cd 0.05947 0.34284 0.40497 0.0
O3 O 0.08212 0.33267 0.3478 0.0
O4 O 0.95672 0.23949 0.38767 0.0
O5 O 0.92823 0.29393 0.39468 0.0
C6 C 0.91709 0.26208 0.38433 0.0
C7 C 0.02672 0.39613 0.42859 0.0
C8 C 0.07845 0.30179 0.33391 0.0
C9 C 0.09766 0.28509 0.46278 0.0
O10 O 0.10516 0.3149 0.44722 0.0
O11 O 0.05662 0.2659 0.45118 0.0
O12 O 0.0768 0.3931 0.4175 0.0
O13 O 0.99373 0.36955 0.42365 0.0
O14 O 0.4426 0.35302 0.67908 0.0
Cd15 Cd 0.50428 0.32848 0.65068 0.0
Cd16 Cd 0.45714 0.37029 0.58673 0.0
O17 O 0.39302 0.36789 0.62501 0.0
O18 O 0.53728 0.29906 0.69494 0.0
O19 O 0.58707 0.33669 0.66276 0.0
C20 C 0.58459 0.31378 0.69052 0.0
C21 C 0.47191 0.42211 0.55013 0.0
C22 C 0.39618 0.36124 0.66176 0.0
C23 C 0.45935 0.29431 0.57518 0.0
O24 O 0.46573 0.32352 0.55798 0.0
O25 O 0.4713 0.29148 0.61192 0.0
O26 O 0.42931 0.40225 0.54265 0.0
O27 O 0.5061 0.41307 0.57905 0.0
O28 O 0.93627 0.73309 0.66893 0.0
Cd29 Cd 0.00608 0.72579 0.63886 0.0
Cd30 Cd 0.94155 0.66945 0.61205 0.0
O31 O 0.89251 0.68265 0.65835 0.0
O32 O 0.06449 0.75557 0.66635 0.0
O33 O 0.0698 0.69787 0.66404 0.0
C34 C 0.09051 0.72727 0.67656 0.0
C35 C 0.95109 0.61205 0.58785 0.0
C36 C 0.89565 0.71275 0.67437 0.0
C37 C 0.95671 0.73424 0.55978 0.0
O38 O 0.93307 0.70544 0.56722 0.0
O39 O 0.99463 0.74659 0.58336 0.0
O40 O 0.9043 0.62834 0.58481 0.0
O41 O 0.99207 0.62725 0.60726 0.0
O42 O 0.56476 0.76528 0.32553 0.0
Cd43 Cd 0.51825 0.75432 0.37197 0.0
Cd44 Cd 0.57596 0.69519 0.37037 0.0
O45 O 0.5983 0.7128 0.31504 0.0
O46 O 0.45304 0.78624 0.36474 0.0
O47 O 0.44649 0.72865 0.35944 0.0
C48 C 0.42321 0.75901 0.35569 0.0
C49 C 0.54542 0.63943 0.38915 0.0
C50 C 0.59314 0.74496 0.3053 0.0
C51 C 0.60578 0.74792 0.43448 0.0
O52 O 0.61872 0.72088 0.41558 0.0
O53 O 0.56161 0.76485 0.42479 0.0
O54 O 0.59552 0.64451 0.37869 0.0
O55 O 0.51118 0.66541 0.38571 0.0
O56 O 0.56628 0.78892 0.83738 0.0
Cd57 Cd 0.51747 0.78019 0.88339 0.0
Cd58 Cd 0.56381 0.8457 0.9043 0.0
O59 O 0.59955 0.8418 0.85035 0.0
O60 O 0.47123 0.74068 0.86155 0.0
O61 O 0.43546 0.79162 0.87689 0.0
C62 C 0.4287 0.76106 0.86125 0.0
C63 C 0.53336 0.89921 0.92978 0.0
C64 C 0.59649 0.81469 0.82871 0.0
C65 C 0.59713 0.78078 0.95309 0.0
O66 O 0.60145 0.8133 0.94593 0.0
O67 O 0.5626 0.76181 0.93289 0.0
O68 O 0.58498 0.89368 0.92399 0.0
O69 O 0.49809 0.87495 0.91936 0.0
O70 O 0.93609 0.84636 0.17081 0.0
Cd71 Cd 0.99881 0.82378 0.14164 0.0
Cd72 Cd 0.95189 0.86776 0.07983 0.0
O73 O 0.88725 0.86444 0.11767 0.0
O74 O 0.03229 0.79345 0.18493 0.0
O75 O 0.08114 0.83294 0.15471 0.0
C76 C 0.07906 0.80916 0.18156 0.0
C77 C 0.96847 0.92075 0.0458 0.0
C78 C 0.89007 0.85599 0.15395 0.0
C79 C 0.95533 0.79196 0.06444 0.0
O80 O 0.95969 0.82207 0.04887 0.0
O81 O 0.96779 0.7877 0.10096 0.0
O82 O 0.92542 0.90158 0.03717 0.0
O83 O 0.00206 0.91037 0.07446 0.0
O84 O 0.42117 0.20629 0.19972 0.0
Cd85 Cd 0.48905 0.21834 0.16901 0.0
Cd86 Cd 0.43929 0.17213 0.11333 0.0
O87 O 0.37366 0.18255 0.14889 0.0
O88 O 0.5364 0.24815 0.20585 0.0
O89 O 0.56378 0.1968 0.1846 0.0
C90 C 0.57354 0.22403 0.20622 0.0
C91 C 0.44901 0.11655 0.08421 0.0
C92 C 0.37543 0.19567 0.1833 0.0
C93 C 0.45438 0.24478 0.08779 0.0
O94 O 0.45561 0.21316 0.07671 0.0
O95 O 0.46655 0.25232 0.12357 0.0
O96 O 0.40855 0.13713 0.07376 0.0
O97 O 0.48315 0.12672 0.11263 0.0
O98 O 0.07231 0.2699 0.83494 0.0
Cd99 Cd 0.02461 0.25817 0.88059 0.0
Cd100 Cd 0.0819 0.19867 0.87846 0.0
O101 O 0.10584 0.21751 0.82397 0.0
O102 O 0.95933 0.29004 0.87341 0.0
O103 O 0.95319 0.23256 0.86674 0.0
C104 C 0.92977 0.2629 0.86351 0.0
C105 C 0.0501 0.1425 0.89472 0.0
C106 C 0.10096 0.24979 0.81466 0.0
C107 C 0.1096 0.24965 0.94482 0.0
O108 O 0.123 0.22294 0.92549 0.0
O109 O 0.06626 0.26715 0.93445 0.0
O110 O 0.10068 0.14771 0.88535 0.0
O111 O 0.0162 0.16867 0.89159 0.0
C112 C 0.9704 0.42586 0.47822 0.0
C113 C 0.00985 0.42801 0.44959 0.0
C114 C 0.95918 0.45481 0.5019 0.0
C115 C 0.98687 0.48703 0.49608 0.0
C116 C 0.02523 0.48963 0.46619 0.0
C117 C 0.0369 0.45999 0.44379 0.0
C118 C 0.91902 0.4506 0.53398 0.0
C119 C 0.05441 0.52368 0.45808 0.0
C120 C 0.9228 0.57069 0.53351 0.0
C121 C 0.95832 0.57866 0.56653 0.0
C122 C 0.93151 0.54101 0.51046 0.0
C123 C 0.97593 0.51802 0.52121 0.0
C124 C 0.01083 0.52529 0.55532 0.0
C125 C 0.00217 0.5558 0.5772 0.0
C126 C 0.89422 0.53492 0.47383 0.0
C127 C 0.05772 0.50102 0.56847 0.0
H128 H 0.94996 0.40109 0.48327 0.0
H129 H 0.06744 0.46182 0.42172 0.0
H130 H 0.94077 0.45613 0.56298 0.0
H131 H 0.88458 0.4697 0.52978 0.0
H132 H 0.90092 0.42387 0.53477 0.0
H133 H 0.08049 0.52194 0.43233 0.0
H134 H 0.02335 0.5448 0.45257 0.0
H135 H 0.08146 0.53138 0.48416 0.0
H136 H 0.8892 0.58841 0.52475 0.0
H137 H 0.02971 0.56176 0.60268 0.0
H138 H 0.8741 0.50885 0.47512 0.0
H139 H 0.91952 0.53514 0.44763 0.0
H140 H 0.86121 0.55506 0.4697 0.0
H141 H 0.04171 0.47393 0.57122 0.0
H142 H 0.07844 0.50894 0.59711 0.0
H143 H 0.08936 0.50064 0.5461 0.0
C144 C 0.48467 0.60477 0.43257 0.0
C145 C 0.52987 0.60602 0.40838 0.0
C146 C 0.47395 0.57484 0.45519 0.0
C147 C 0.50855 0.54505 0.45307 0.0
C148 C 0.55291 0.5457 0.42749 0.0
C149 C 0.56338 0.57622 0.40584 0.0
C150 C 0.42673 0.57556 0.48242 0.0
C151 C 0.59004 0.51432 0.42355 0.0
C152 C 0.51872 0.48 0.53878 0.0
C153 C 0.48133 0.45372 0.52564 0.0
C154 C 0.52747 0.50998 0.51571 0.0
C155 C 0.49907 0.51352 0.47816 0.0
C156 C 0.46172 0.48687 0.46462 0.0
C157 C 0.45291 0.45756 0.48862 0.0
C158 C 0.5669 0.538 0.53164 0.0
C159 C 0.43142 0.48913 0.42456 0.0
H160 H 0.4589 0.62775 0.4351 0.0
H161 H 0.59838 0.5769 0.38725 0.0
H162 H 0.39762 0.55355 0.47572 0.0
H163 H 0.44344 0.57217 0.51328 0.0
H164 H 0.40297 0.60041 0.48014 0.0
H165 H 0.62043 0.51817 0.40061 0.0
H166 H 0.6134 0.509 0.45202 0.0
H167 H 0.5645 0.4908 0.41609 0.0
H168 H 0.5407 0.47734 0.56736 0.0
H169 H 0.42422 0.43731 0.47804 0.0
H170 H 0.54488 0.56341 0.53237 0.0
H171 H 0.60169 0.54129 0.512 0.0
H172 H 0.58458 0.53182 0.56175 0.0
H173 H 0.40509 0.51289 0.42261 0.0
H174 H 0.40453 0.46595 0.41803 0.0
H175 H 0.46193 0.49144 0.40151 0.0
C176 C 0.4925 0.05714 0.07842 0.0
C177 C 0.45737 0.08346 0.06254 0.0
C178 C 0.50215 0.02647 0.0571 0.0
C179 C 0.47721 0.02238 0.01856 0.0
C180 C 0.4415 0.04884 1.00252 0.0
C181 C 0.43156 0.07879 0.02482 0.0
C182 C 0.53954 0.99859 0.07566 0.0
C183 C 0.41503 0.04602 0.9613 0.0
C184 C 0.55031 0.96136 0.95012 0.0
C185 C 0.51637 0.93146 0.95002 0.0
C186 C 0.53738 0.99129 0.97158 0.0
C187 C 0.49009 0.9911 0.99446 0.0
C188 C 0.45543 0.96103 0.99429 0.0
C189 C 0.46859 0.93175 0.97169 0.0
C190 C 0.57464 0.02305 0.96999 0.0
C191 C 0.40527 0.95944 0.01882 0.0
H192 H 0.51243 0.06048 0.10757 0.0
H193 H 0.40468 0.0991 0.01214 0.0
H194 H 0.51776 0.97296 0.0747 0.0
H195 H 0.57729 0.99586 0.05879 0.0
H196 H 0.55276 1.00462 0.10672 0.0
H197 H 0.38761 0.06858 0.95333 0.0
H198 H 0.44794 0.04457 0.9399 0.0
H199 H 0.39004 0.02166 0.95823 0.0
H200 H 0.58723 0.96136 0.93337 0.0
H201 H 0.44253 0.9086 0.97212 0.0
H202 H 0.59414 0.02852 0.99968 0.0
H203 H 0.54967 0.04633 0.96074 0.0
H204 H 0.60819 1.01963 0.94932 0.0
H205 H 0.41859 0.96302 0.05032 0.0
H206 H 0.38249 0.93422 0.01547 0.0
H207 H 0.37617 0.98101 0.01044 0.0
C208 C 0.01673 0.97865 0.03746 0.0
C209 C 0.97909 0.95308 0.02281 0.0
C210 C 0.02663 1.0093 0.01579 0.0
C211 C 0.99921 1.01425 0.97811 0.0
C212 C 0.96164 0.98831 0.96304 0.0
C213 C 0.95162 0.95832 0.98568 0.0
C214 C 0.06623 0.03652 0.03334 0.0
C215 C 0.93237 0.99205 0.92277 0.0
C216 C 0.98765 0.10693 0.93603 0.0
C217 C 0.03352 0.10864 0.91247 0.0
C218 C 0.97583 0.07641 0.95732 0.0
C219 C 0.00997 0.04649 0.95446 0.0
C220 C 0.05503 0.04764 0.92951 0.0
C221 C 0.06661 0.07874 0.90922 0.0
C222 C 0.92791 0.0766 0.98397 0.0
C223 C 0.09171 1.01618 0.92478 0.0
H224 H 0.03797 0.97492 0.06614 0.0
H225 H 0.92277 0.93862 0.97394 0.0
H226 H 0.10163 0.04019 0.01432 0.0
H227 H 0.04468 0.06205 0.03482 0.0
H228 H 0.083 0.02928 0.06337 0.0
H229 H 0.90518 0.96928 0.91496 0.0
H230 H 0.90652 1.01603 0.92148 0.0
H231 H 0.96354 0.9949 0.90023 0.0
H232 H 0.96219 0.12997 0.93912 0.0
H233 H 0.10213 0.07977 0.89111 0.0
H234 H 0.9438 0.07212 0.01484 0.0
H235 H 0.89849 0.05503 0.97602 0.0
H236 H 0.9047 0.10168 0.98243 0.0
H237 H 0.11424 1.00982 0.95327 0.0
H238 H 0.12279 1.02053 0.90241 0.0
H239 H 0.0659 0.99307 0.91605 0.0
C240 C 0.6348 0.20305 0.2628 0.0
C241 C 0.62433 0.22716 0.23225 0.0
C242 C 0.68006 0.20769 0.29039 0.0
C243 C 0.71675 0.23637 0.28628 0.0
C244 C 0.70684 0.26029 0.25474 0.0
C245 C 0.65992 0.25582 0.22862 0.0
C246 C 0.68798 0.18236 0.32435 0.0
C247 C 0.74604 0.29043 0.24835 0.0
C248 C 0.81417 0.27002 0.37028 0.0
C249 C 0.86379 0.25284 0.36295 0.0
C250 C 0.76509 0.2636 0.34672 0.0
C251 C 0.76657 0.24078 0.31407 0.0
C252 C 0.81662 0.22327 0.30682 0.0
C253 C 0.86423 0.22899 0.33181 0.0
C254 C 0.71199 0.28174 0.35631 0.0
C255 C 0.82075 0.19985 0.2715 0.0
H256 H 0.60641 0.18127 0.26588 0.0
H257 H 0.65132 0.27451 0.20502 0.0
H258 H 0.7284 0.16869 0.32306 0.0
H259 H 0.68916 0.1968 0.35259 0.0
H260 H 0.65424 0.16246 0.3244 0.0
H261 H 0.7338 0.30565 0.22138 0.0
H262 H 0.74699 0.30832 0.27392 0.0
H263 H 0.78901 0.28052 0.24593 0.0
H264 H 0.81383 0.28853 0.39429 0.0
H265 H 0.90282 0.21614 0.32559 0.0
H266 H 0.67734 0.26255 0.35694 0.0
H267 H 0.70032 0.30126 0.33313 0.0
H268 H 0.7162 0.29536 0.38509 0.0
H269 H 0.78948 0.17852 0.27201 0.0
H270 H 0.8627 0.188 0.27019 0.0
H271 H 0.81152 0.21515 0.24414 0.0
C272 C 0.6262 0.28756 0.75288 0.0
C273 C 0.63361 0.30497 0.71719 0.0
C274 C 0.67174 0.27946 0.77905 0.0
C275 C 0.72623 0.2884 0.76903 0.0
C276 C 0.73408 0.30558 0.73279 0.0
C277 C 0.68762 0.31398 0.70748 0.0
C278 C 0.66147 0.26173 0.81766 0.0
C279 C 0.79161 0.31504 0.72073 0.0
C280 C 0.84476 0.29885 0.84722 0.0
C281 C 0.87333 0.26717 0.84416 0.0
C282 C 0.79558 0.30553 0.82408 0.0
C283 C 0.77508 0.28021 0.79659 0.0
C284 C 0.80263 0.24766 0.79439 0.0
C285 C 0.85113 0.2414 0.81849 0.0
C286 C 0.76667 0.34019 0.82807 0.0
C287 C 0.78251 0.22012 0.76519 0.0
H288 H 0.58453 0.2807 0.76073 0.0
H289 H 0.69364 0.32728 0.67989 0.0
H290 H 0.68403 0.2365 0.81992 0.0
H291 H 0.67784 0.27827 0.84247 0.0
H292 H 0.61652 0.25666 0.82113 0.0
H293 H 0.7908 0.32727 0.69106 0.0
H294 H 0.81171 0.3335 0.74229 0.0
H295 H 0.818 0.2913 0.7207 0.0
H296 H 0.86164 0.31884 0.86706 0.0
H297 H 0.87328 0.21699 0.81567 0.0
H298 H 0.72177 0.33603 0.83237 0.0
H299 H 0.76964 0.35565 0.80065 0.0
H300 H 0.78511 0.35578 0.85308 0.0
H301 H 0.73795 0.21404 0.76863 0.0
H302 H 0.80681 0.19553 0.76856 0.0
H303 H 0.78597 0.23019 0.73484 0.0
C304 C 0.14995 0.7036 0.73318 0.0
C305 C 0.14084 0.72884 0.70358 0.0
C306 C 0.19463 0.70688 0.76155 0.0
C307 C 0.23209 0.73539 0.75931 0.0
C308 C 0.22384 0.76035 0.72867 0.0
C309 C 0.17769 0.75712 0.70165 0.0
C310 C 0.20096 0.68037 0.79446 0.0
C311 C 0.26383 0.79045 0.72433 0.0
C312 C 0.32572 0.76736 0.84609 0.0
C313 C 0.37633 0.75131 0.83882 0.0
C314 C 0.2775 0.7609 0.82166 0.0
C315 C 0.28064 0.73896 0.7884 0.0
C316 C 0.33146 0.72219 0.78147 0.0
C317 C 0.37835 0.72812 0.80712 0.0
C318 C 0.22362 0.77834 0.83079 0.0
C319 C 0.33721 0.69951 0.74574 0.0
H320 H 0.12088 0.68202 0.73504 0.0
H321 H 0.1706 0.77665 0.67873 0.0
H322 H 0.24183 0.66713 0.7939 0.0
H323 H 0.19999 0.69379 0.82325 0.0
H324 H 0.16757 0.6602 0.79254 0.0
H325 H 0.253 0.80656 0.69777 0.0
H326 H 0.26387 0.80754 0.75056 0.0
H327 H 0.30683 0.78042 0.72246 0.0
H328 H 0.32397 0.78525 0.87059 0.0
H329 H 0.41755 0.71597 0.80103 0.0
H330 H 0.18919 0.75893 0.82997 0.0
H331 H 0.21264 0.79849 0.80815 0.0
H332 H 0.22642 0.79111 0.86009 0.0
H333 H 0.30532 0.67849 0.7446 0.0
H334 H 0.37903 0.68732 0.74539 0.0
H335 H 0.33009 0.71554 0.71868 0.0
C336 C 0.34479 0.73735 0.31066 0.0
C337 C 0.3667 0.76312 0.33644 0.0
C338 C 0.29643 0.74357 0.2864 0.0
C339 C 0.26866 0.77605 0.28862 0.0
C340 C 0.2888 0.80132 0.31629 0.0
C341 C 0.33792 0.79471 0.33953 0.0
C342 C 0.27676 0.71611 0.25698 0.0
C343 C 0.25959 0.83588 0.32036 0.0
C344 C 0.18189 0.80991 0.19923 0.0
C345 C 0.12787 0.80051 0.20849 0.0
C346 C 0.22815 0.80162 0.22478 0.0
C347 C 0.22003 0.78422 0.26085 0.0
C348 C 0.16549 0.77496 0.27047 0.0
C349 C 0.12019 0.78289 0.24401 0.0
C350 C 0.28576 0.81137 0.21313 0.0
C351 C 0.1549 0.75707 0.30893 0.0
H352 H 0.36716 0.71303 0.3078 0.0
H353 H 0.35461 0.8147 0.35946 0.0
H354 H 0.23219 0.70989 0.26015 0.0
H355 H 0.28048 0.72632 0.2267 0.0
H356 H 0.30119 0.69157 0.26034 0.0
H357 H 0.27758 0.85134 0.34561 0.0
H358 H 0.26289 0.85153 0.29311 0.0
H359 H 0.21463 0.83157 0.32428 0.0
H360 H 0.1881 0.82338 0.17177 0.0
H361 H 0.07848 0.77577 0.25152 0.0
H362 H 0.31241 0.78774 0.21314 0.0
H363 H 0.30542 0.82982 0.23489 0.0
H364 H 0.28519 0.82373 0.18353 0.0
H365 H 0.17757 0.73187 0.31119 0.0
H366 H 0.10993 0.75191 0.31215 0.0
H367 H 0.17097 0.77354 0.33388 0.0
C368 C 0.27943 0.21989 0.17647 0.0
C369 C 0.32342 0.20632 0.20077 0.0
C370 C 0.23494 0.23752 0.19244 0.0
C371 C 0.23382 0.24083 0.23377 0.0
C372 C 0.27682 0.22561 0.25847 0.0
C373 C 0.32153 0.20903 0.24164 0.0
C374 C 0.19086 0.2541 0.16501 0.0
C375 C 0.2763 0.22754 0.30274 0.0
C376 C 0.15555 0.31009 0.28786 0.0
C377 C 0.11037 0.29054 0.30021 0.0
C378 C 0.1941 0.29508 0.26339 0.0
C379 C 0.18759 0.25966 0.2517 0.0
C380 C 0.13956 0.24093 0.26136 0.0
C381 C 0.10125 0.25674 0.28499 0.0
C382 C 0.24376 0.31632 0.2523 0.0
C383 C 0.13094 0.20314 0.2497 0.0
H384 H 0.28151 0.21865 0.14482 0.0
H385 H 0.35578 0.19886 0.26043 0.0
H386 H 0.14855 0.24767 0.17417 0.0
H387 H 0.19547 0.28296 0.16627 0.0
H388 H 0.19409 0.24567 0.13405 0.0
H389 H 0.31119 0.21273 0.31772 0.0
H390 H 0.27942 0.2552 0.3123 0.0
H391 H 0.23644 0.21697 0.31263 0.0
H392 H 0.1628 0.33625 0.29922 0.0
H393 H 0.06591 0.24155 0.29376 0.0
H394 H 0.25104 0.31285 0.22069 0.0
H395 H 0.28156 0.30709 0.26952 0.0
H396 H 0.23838 0.34461 0.25821 0.0
H397 H 0.13682 0.1996 0.21793 0.0
H398 H 0.08884 0.1934 0.25605 0.0
H399 H 0.16243 0.18671 0.26617 0.0
C400 C 0.29497 0.34557 0.6601 0.0
C401 C 0.34463 0.35353 0.68212 0.0
C402 C 0.25026 0.32911 0.67755 0.0
C403 C 0.25492 0.32099 0.71821 0.0
C404 C 0.30325 0.33137 0.74114 0.0
C405 C 0.34759 0.34728 0.72281 0.0
C406 C 0.19988 0.31846 0.6517 0.0
C407 C 0.30912 0.32435 0.78487 0.0
C408 C 0.12874 0.30208 0.7763 0.0
C409 C 0.13404 0.266 0.78382 0.0
C410 C 0.1663 0.32001 0.75356 0.0
C411 C 0.20989 0.30145 0.73718 0.0
C412 C 0.21292 0.26462 0.74185 0.0
C413 C 0.17521 0.24731 0.76544 0.0
C414 C 0.16109 0.35917 0.74884 0.0
C415 C 0.25752 0.24378 0.72332 0.0
H416 H 0.2922 0.3502 0.62865 0.0
H417 H 0.38564 0.35343 0.74012 0.0
H418 H 0.2055 0.29119 0.64172 0.0
H419 H 0.16102 0.31942 0.66759 0.0
H420 H 0.19469 0.33545 0.62523 0.0
H421 H 0.34775 0.33598 0.79887 0.0
H422 H 0.27281 0.33509 0.79937 0.0
H423 H 0.30983 0.29573 0.79033 0.0
H424 H 0.09666 0.31687 0.7898 0.0
H425 H 0.17946 0.21946 0.77073 0.0
H426 H 0.16038 0.36649 0.71726 0.0
H427 H 0.19786 0.37215 0.76377 0.0
H428 H 0.12289 0.36947 0.76141 0.0
H429 H 0.25832 0.25034 0.69158 0.0
H430 H 0.25107 0.21516 0.72644 0.0
H431 H 0.2989 0.25069 0.73737 0.0
C432 C 0.6209 0.78743 0.76596 0.0
C433 C 0.63623 0.809 0.79804 0.0
C434 C 0.6612 0.77314 0.74265 0.0
C435 C 0.71826 0.77987 0.75233 0.0
C436 C 0.73375 0.80326 0.78331 0.0
C437 C 0.69239 0.81791 0.80553 0.0
C438 C 0.64282 0.74929 0.70908 0.0
C439 C 0.79417 0.81091 0.79475 0.0
C440 C 0.82378 0.71132 0.72485 0.0
C441 C 0.84773 0.72773 0.69324 0.0
C442 C 0.78138 0.72804 0.74444 0.0
C443 C 0.76181 0.76133 0.73121 0.0
C444 C 0.78457 0.77716 0.69821 0.0
C445 C 0.82769 0.76036 0.67997 0.0
C446 C 0.75855 0.71056 0.77989 0.0
C447 C 0.76384 0.81201 0.68239 0.0
H448 H 0.57747 0.78035 0.76029 0.0
H449 H 0.70445 0.834 0.83079 0.0
H450 H 0.6638 0.75662 0.68209 0.0
H451 H 0.65491 0.722 0.7166 0.0
H452 H 0.59703 0.75005 0.70252 0.0
H453 H 0.79916 0.83121 0.81794 0.0
H454 H 0.8149 0.78662 0.80584 0.0
H455 H 0.81613 0.81976 0.76876 0.0
H456 H 0.83955 0.68616 0.73507 0.0
H457 H 0.84594 0.77281 0.65509 0.0
H458 H 0.71292 0.70677 0.77508 0.0
H459 H 0.76565 0.72759 0.80604 0.0
H460 H 0.77817 0.68477 0.78643 0.0
H461 H 0.71821 0.8108 0.67546 0.0
H462 H 0.78444 0.82003 0.65543 0.0
H463 H 0.77151 0.83252 0.70501 0.0
C464 C 0.84095 0.84195 0.2147 0.0
C465 C 0.83832 0.84831 0.17404 0.0
C466 C 0.79635 0.82614 0.23282 0.0
C467 C 0.74813 0.81592 0.20968 0.0
C468 C 0.7438 0.82417 0.16904 0.0
C469 C 0.7888 0.8405 0.15179 0.0
C470 C 0.80177 0.81911 0.27655 0.0
C471 C 0.69348 0.81385 0.14295 0.0
C472 C 0.6677 0.74228 0.25636 0.0
C473 C 0.62621 0.761 0.27436 0.0
C474 C 0.70578 0.75958 0.23306 0.0
C475 C 0.70287 0.79641 0.22838 0.0
C476 C 0.65895 0.81498 0.24433 0.0
C477 C 0.62093 0.79706 0.26669 0.0
C478 C 0.75059 0.73872 0.21479 0.0
C479 C 0.65379 0.85413 0.2395 0.0
H480 H 0.87894 0.84798 0.23215 0.0
H481 H 0.78638 0.84508 0.12032 0.0
H482 H 0.76528 0.82984 0.29086 0.0
H483 H 0.80244 0.79049 0.28202 0.0
H484 H 0.84027 0.83074 0.29075 0.0
H485 H 0.68694 0.83234 0.1179 0.0
H486 H 0.7005 0.78746 0.13077 0.0
H487 H 0.65482 0.81284 0.15906 0.0
H488 H 0.67193 0.71445 0.26176 0.0
H489 H 0.58858 0.81185 0.27987 0.0
H490 H 0.79186 0.74565 0.22901 0.0
H491 H 0.75166 0.74526 0.18305 0.0
H492 H 0.74412 0.7101 0.21792 0.0
H493 H 0.69065 0.86713 0.2543 0.0
H494 H 0.61567 0.8645 0.2521 0.0
H495 H 0.65295 0.86133 0.20788 0.0
C496 C 0.40221 0.27316 0.51652 0.0
C497 C 0.4191 0.2691 0.55639 0.0
C498 C 0.34865 0.26291 0.50238 0.0
C499 C 0.31141 0.2486 0.52891 0.0
C500 C 0.33181 0.23871 0.56712 0.0
C501 C 0.38591 0.24875 0.58036 0.0
C502 C 0.32937 0.27239 0.46072 0.0
C503 C 0.29419 0.22235 0.59598 0.0
C504 C 0.17381 0.29494 0.51347 0.0
C505 C 0.14305 0.2714 0.48945 0.0
C506 C 0.22719 0.28649 0.52911 0.0
C507 C 0.25051 0.25362 0.5204 0.0
C508 C 0.21741 0.22838 0.49949 0.0
C509 C 0.16373 0.23759 0.48421 0.0
C510 C 0.26046 0.31408 0.55192 0.0
C511 C 0.24003 0.19286 0.49012 0.0
H512 H 0.4282 0.28796 0.49747 0.0
H513 H 0.39896 0.24458 0.61105 0.0
H514 H 0.30251 0.25149 0.44729 0.0
H515 H 0.30438 0.29674 0.46092 0.0
H516 H 0.36503 0.27691 0.44205 0.0
H517 H 0.31853 0.20781 0.61948 0.0
H518 H 0.27065 0.24325 0.61015 0.0
H519 H 0.2636 0.20432 0.58101 0.0
H520 H 0.15766 0.32102 0.51765 0.0
H521 H 0.14017 0.2194 0.46533 0.0
H522 H 0.29537 0.3232 0.53459 0.0
H523 H 0.27869 0.30295 0.5799 0.0
H524 H 0.23481 0.33711 0.55871 0.0
H525 H 0.26191 0.19456 0.46242 0.0
H526 H 0.20592 0.17336 0.48575 0.0
H527 H 0.27023 0.18341 0.51368 0.0
C528 C 0.90486 0.74435 0.49623 0.0
C529 C 0.92469 0.75755 0.53267 0.0
C530 C 0.85288 0.75475 0.47938 0.0
C531 C 0.81966 0.77795 0.50028 0.0
C532 C 0.84316 0.79512 0.53407 0.0
C533 C 0.89619 0.78511 0.54953 0.0
C534 C 0.83041 0.73701 0.44219 0.0
C535 C 0.80956 0.82009 0.55722 0.0
C536 C 0.67753 0.79296 0.44907 0.0
C537 C 0.6494 0.76303 0.46125 0.0
C538 C 0.73211 0.80024 0.4639 0.0
C539 C 0.75822 0.7773 0.49196 0.0
C540 C 0.72712 0.74954 0.50773 0.0
C541 C 0.67336 0.74234 0.49158 0.0
C542 C 0.76345 0.83007 0.44627 0.0
C543 C 0.75258 0.72515 0.53881 0.0
H544 H 0.92682 0.72296 0.48329 0.0
H545 H 0.91126 0.79513 0.578 0.0
H546 H 0.80115 0.71589 0.44982 0.0
H547 H 0.80714 0.75582 0.42258 0.0
H548 H 0.86424 0.72521 0.42586 0.0
H549 H 0.83694 0.83756 0.57589 0.0
H550 H 0.78161 0.8363 0.53755 0.0
H551 H 0.78318 0.80488 0.57681 0.0
H552 H 0.65927 0.80855 0.42496 0.0
H553 H 0.6517 0.719 0.50056 0.0
H554 H 0.78753 0.81996 0.42198 0.0
H555 H 0.79335 0.84225 0.46826 0.0
H556 H 0.73455 0.85047 0.43393 0.0
H557 H 0.78348 0.70803 0.52554 0.0
H558 H 0.72073 0.70827 0.55178 0.0
H559 H 0.77475 0.74018 0.56279 0.0
C560 C 0.89928 0.77234 1.00463 0.0
C561 C 0.91735 0.76634 0.04398 0.0
C562 C 0.84642 0.76106 0.99014 0.0
C563 C 0.81126 0.74343 0.01572 0.0
C564 C 0.83358 0.7316 0.05274 0.0
C565 C 0.88679 0.74303 0.06645 0.0
C566 C 0.82517 0.77295 0.94968 0.0
C567 C 0.79855 0.71128 0.0802 0.0
C568 C 0.6703 0.78626 0.00693 0.0
C569 C 0.64157 0.76492 0.97919 0.0
C570 C 0.72433 0.77796 0.02138 0.0
C571 C 0.74985 0.74703 0.00851 0.0
C572 C 0.71832 0.72313 0.98452 0.0
C573 C 0.66436 0.73245 0.96989 0.0
C574 C 0.75602 0.80422 0.04723 0.0
C575 C 0.74292 0.68929 0.97123 0.0
H576 H 0.92337 0.78941 0.98662 0.0
H577 H 0.90093 0.73728 0.09661 0.0
H578 H 0.80073 0.75192 0.93434 0.0
H579 H 0.79724 0.79574 0.95248 0.0
H580 H 0.85971 0.78087 0.93128 0.0
H581 H 0.825 0.69566 0.10157 0.0
H582 H 0.77386 0.72979 0.09709 0.0
H583 H 0.76906 0.69354 0.06368 0.0
H584 H 0.65245 0.81114 0.01459 0.0
H585 H 0.64236 0.71576 0.94846 0.0
H586 H 0.79188 0.81471 0.03182 0.0
H587 H 0.77279 0.79142 0.07469 0.0
H588 H 0.72967 0.82661 0.05505 0.0
H589 H 0.76298 0.69377 0.94315 0.0
H590 H 0.70997 0.66916 0.96583 0.0
H591 H 0.77487 0.67902 0.99312 0.0
C592 C 0.37975 0.28943 0.08358 0.0
C593 C 0.4173 0.26857 0.06404 0.0
C594 C 0.32725 0.29764 0.06572 0.0
C595 C 0.31311 0.28558 0.02721 0.0
C596 C 0.35477 0.27038 0.00509 0.0
C597 C 0.40644 0.26178 0.02391 0.0
C598 C 0.28454 0.31445 0.09019 0.0
C599 C 0.34229 0.25864 0.96323 0.0
C600 C 0.17723 0.23937 1.0011 0.0
C601 C 0.15083 0.26297 0.97474 0.0
C602 C 0.22792 0.24792 0.02118 0.0
C603 C 0.25359 0.28054 0.01375 0.0
C604 C 0.22476 0.30562 0.98964 0.0
C605 C 0.17324 0.29657 0.97055 0.0
C606 C 0.25629 0.22066 0.04753 0.0
C607 C 0.25032 0.34063 0.98087 0.0
H608 H 0.38791 0.29525 0.11453 0.0
H609 H 0.43568 0.24623 0.00845 0.0
H610 H 0.25648 0.33187 0.07206 0.0
H611 H 0.25858 0.29371 0.10283 0.0
H612 H 0.3046 0.32973 0.11488 0.0
H613 H 0.38102 0.25375 0.94795 0.0
H614 H 0.31779 0.23399 0.96322 0.0
H615 H 0.31709 0.27848 0.94637 0.0
H616 H 0.15994 0.21333 1.00407 0.0
H617 H 0.15319 0.31463 0.94958 0.0
H618 H 0.27392 0.23266 0.07512 0.0
H619 H 0.29122 0.20892 0.03234 0.0
H620 H 0.22728 0.19936 0.05518 0.0
H621 H 0.27559 0.35088 0.00664 0.0
H622 H 0.21789 0.36012 0.97173 0.0
H623 H 0.27828 0.33765 0.95636 0.0
loop_
_geom_bond_atom_site_label_1
_geom_bond_atom_site_label_2
_geom_bond_distance
_geom_bond_site_symmetry_2
_ccdc_geom_bond_type
O0 Cd1 2.223 . S
O0 C8 1.315 . S
Cd1 O0 2.223 . S
Cd1 O4 2.297 1_455 S
Cd1 O5 2.439 1_455 S
Cd1 O11 2.240 . S
Cd2 O3 2.240 . S
Cd2 O10 2.223 . S
Cd2 O12 2.297 . S
Cd2 O13 2.439 1_455 S
O3 Cd2 2.240 . S
O3 C8 1.279 . S
O4 Cd1 2.297 1_655 S
O4 C6 1.247 . S
O5 Cd1 2.439 1_655 S
O5 C6 1.208 . S
C6 O4 1.247 . S
C6 O5 1.208 . S
C7 O12 1.247 . S
C7 O13 1.208 1_455 S
C8 O0 1.315 . S
C8 O3 1.279 . S
C9 O10 1.315 . S
C9 O11 1.279 . S
O10 Cd2 2.223 . S
O10 C9 1.315 . S
O11 Cd1 2.240 . S
O11 C9 1.279 . S
O12 Cd2 2.297 . S
O12 C7 1.247 . S
O13 Cd2 2.439 1_655 S
O13 C7 1.208 1_655 S
O14 Cd15 2.223 . S
O14 C22 1.315 . S
Cd15 O14 2.223 . S
Cd15 O18 2.297 . S
Cd15 O19 2.439 . S
Cd15 O25 2.240 . S
Cd16 O17 2.240 . S
Cd16 O24 2.223 . S
Cd16 O26 2.297 . S
Cd16 O27 2.439 . S
O17 Cd16 2.240 . S
O17 C22 1.279 . S
O18 Cd15 2.297 . S
O18 C20 1.247 . S
O19 Cd15 2.439 . S
O19 C20 1.208 . S
C20 O18 1.247 . S
C20 O19 1.208 . S
C21 O26 1.247 . S
C21 O27 1.208 . S
C22 O14 1.315 . S
C22 O17 1.279 . S
C23 O24 1.315 . S
C23 O25 1.279 . S
O24 Cd16 2.223 . S
O24 C23 1.315 . S
O25 Cd15 2.240 . S
O25 C23 1.279 . S
O26 Cd16 2.297 . S
O26 C21 1.247 . S
O27 Cd16 2.439 . S
O27 C21 1.208 . S
O28 Cd29 2.223 . S
O28 C36 1.315 . S
Cd29 O28 2.223 . S
Cd29 O32 2.297 1_655 S
Cd29 O33 2.439 1_655 S
Cd29 O39 2.240 . S
Cd30 O31 2.240 . S
Cd30 O38 2.223 . S
Cd30 O40 2.297 . S
Cd30 O41 2.439 1_655 S
O31 Cd30 2.240 . S
O31 C36 1.279 . S
O32 Cd29 2.297 1_455 S
O32 C34 1.247 . S
O33 Cd29 2.439 1_455 S
O33 C34 1.208 . S
C34 O32 1.247 . S
C34 O33 1.208 . S
C35 O40 1.247 . S
C35 O41 1.208 1_655 S
C36 O28 1.315 . S
C36 O31 1.279 . S
C37 O38 1.315 . S
C37 O39 1.279 . S
O38 Cd30 2.223 . S
O38 C37 1.315 . S
O39 Cd29 2.240 . S
O39 C37 1.279 . S
O40 Cd30 2.297 . S
O40 C35 1.247 . S
O41 Cd30 2.439 1_455 S
O41 C35 1.208 1_455 S
O42 Cd43 2.223 . S
O42 C50 1.315 . S
Cd43 O42 2.223 . S
Cd43 O46 2.297 . S
Cd43 O47 2.439 . S
Cd43 O53 2.240 . S
Cd44 O45 2.240 . S
Cd44 O52 2.223 . S
Cd44 O54 2.297 . S
Cd44 O55 2.439 . S
O45 Cd44 2.240 . S
O45 C50 1.279 . S
O46 Cd43 2.297 . S
O46 C48 1.247 . S
O47 Cd43 2.439 . S
O47 C48 1.208 . S
C48 O46 1.247 . S
C48 O47 1.208 . S
C49 O54 1.247 . S
C49 O55 1.208 . S
C50 O42 1.315 . S
C50 O45 1.279 . S
C51 O52 1.315 . S
C51 O53 1.279 . S
O52 Cd44 2.223 . S
O52 C51 1.315 . S
O53 Cd43 2.240 . S
O53 C51 1.279 . S
O54 Cd44 2.297 . S
O54 C49 1.247 . S
O55 Cd44 2.439 . S
O55 C49 1.208 . S
O56 Cd57 2.223 . S
O56 C64 1.315 . S
Cd57 O56 2.223 . S
Cd57 O60 2.297 . S
Cd57 O61 2.439 . S
Cd57 O67 2.240 . S
Cd58 O59 2.240 . S
Cd58 O66 2.223 . S
Cd58 O68 2.297 . S
Cd58 O69 2.439 . S
O59 Cd58 2.240 . S
O59 C64 1.279 . S
O60 Cd57 2.297 . S
O60 C62 1.247 . S
O61 Cd57 2.439 . S
O61 C62 1.208 . S
C62 O60 1.247 . S
C62 O61 1.208 . S
C63 O68 1.247 . S
C63 O69 1.208 . S
C64 O56 1.315 . S
C64 O59 1.279 . S
C65 O66 1.315 . S
C65 O67 1.279 . S
O66 Cd58 2.223 . S
O66 C65 1.315 . S
O67 Cd57 2.240 . S
O67 C65 1.279 . S
O68 Cd58 2.297 . S
O68 C63 1.247 . S
O69 Cd58 2.439 . S
O69 C63 1.208 . S
O70 Cd71 2.223 . S
O70 C78 1.315 . S
Cd71 O70 2.223 . S
Cd71 O74 2.297 1_655 S
Cd71 O75 2.439 1_655 S
Cd71 O81 2.240 . S
Cd72 O73 2.240 . S
Cd72 O80 2.223 . S
Cd72 O82 2.297 . S
Cd72 O83 2.439 1_655 S
O73 Cd72 2.240 . S
O73 C78 1.279 . S
O74 Cd71 2.297 1_455 S
O74 C76 1.247 . S
O75 Cd71 2.439 1_455 S
O75 C76 1.208 . S
C76 O74 1.247 . S
C76 O75 1.208 . S
C77 O82 1.247 . S
C77 O83 1.208 1_655 S
C78 O70 1.315 . S
C78 O73 1.279 . S
C79 O80 1.315 . S
C79 O81 1.279 . S
O80 Cd72 2.223 . S
O80 C79 1.315 . S
O81 Cd71 2.240 . S
O81 C79 1.279 . S
O82 Cd72 2.297 . S
O82 C77 1.247 . S
O83 Cd72 2.439 1_455 S
O83 C77 1.208 1_455 S
O84 Cd85 2.223 . S
O84 C92 1.315 . S
Cd85 O84 2.223 . S
Cd85 O88 2.297 . S
Cd85 O89 2.439 . S
Cd85 O95 2.240 . S
Cd86 O87 2.240 . S
Cd86 O94 2.223 . S
Cd86 O96 2.297 . S
Cd86 O97 2.439 . S
O87 Cd86 2.240 . S
O87 C92 1.279 . S
O88 Cd85 2.297 . S
O88 C90 1.247 . S
O89 Cd85 2.439 . S
O89 C90 1.208 . S
C90 O88 1.247 . S
C90 O89 1.208 . S
C91 O96 1.247 . S
C91 O97 1.208 . S
C92 O84 1.315 . S
C92 O87 1.279 . S
C93 O94 1.315 . S
C93 O95 1.279 . S
O94 Cd86 2.223 . S
O94 C93 1.315 . S
O95 Cd85 2.240 . S
O95 C93 1.279 . S
O96 Cd86 2.297 . S
O96 C91 1.247 . S
O97 Cd86 2.439 . S
O97 C91 1.208 . S
O98 Cd99 2.223 . S
O98 C106 1.315 . S
Cd99 O98 2.223 . S
Cd99 O102 2.297 1_455 S
Cd99 O103 2.439 1_455 S
Cd99 O109 2.240 . S
Cd100 O101 2.240 . S
Cd100 O108 2.223 . S
Cd100 O110 2.297 . S
Cd100 O111 2.439 1_455 S
O101 Cd100 2.240 . S
O101 C106 1.279 . S
O102 Cd99 2.297 1_655 S
O102 C104 1.247 . S
O103 Cd99 2.439 1_655 S
O103 C104 1.208 . S
C104 O102 1.247 . S
C104 O103 1.208 . S
C105 O110 1.247 . S
C105 O111 1.208 1_455 S
C106 O98 1.315 . S
C106 O101 1.279 . S
C107 O108 1.315 . S
C107 O109 1.279 . S
O108 Cd100 2.223 . S
O108 C107 1.315 . S
O109 Cd99 2.240 . S
O109 C107 1.279 . S
O110 Cd100 2.297 . S
O110 C105 1.247 . S
O111 Cd100 2.439 1_655 S
O111 C105 1.208 1_655 S
C112 C113 1.391 1_655 S
C112 C114 1.394 . S
C112 H128 0.931 . S
C113 C112 1.391 1_455 S
C113 C117 1.376 . S
C114 C112 1.394 . S
C114 C115 1.369 1_655 S
C114 C118 1.531 . S
C115 C114 1.369 1_455 S
C115 C116 1.410 . S
C115 C123 1.503 . S
C116 C115 1.410 . S
C116 C117 1.392 . S
C116 C119 1.511 . S
C117 C113 1.376 . S
C117 C116 1.392 . S
C117 H129 0.929 . S
C118 C114 1.531 . S
C118 H130 0.960 . S
C118 H131 0.962 . S
C118 H132 0.960 . S
C119 C116 1.511 . S
C119 H133 0.961 . S
C119 H134 0.961 . S
C119 H135 0.961 . S
C120 C121 1.370 . S
C120 C122 1.363 . S
C120 H136 0.931 . S
C121 C120 1.370 . S
C121 C125 1.408 1_655 S
C122 C120 1.363 . S
C122 C123 1.370 1_655 S
C122 C126 1.524 . S
C123 C115 1.503 . S
C123 C122 1.370 1_455 S
C123 C124 1.403 . S
C124 C123 1.403 . S
C124 C125 1.404 . S
C124 C127 1.539 . S
C125 C121 1.408 1_455 S
C125 C124 1.404 . S
C125 H137 0.930 . S
C126 C122 1.524 . S
C126 H138 0.956 . S
C126 H139 0.961 1_655 S
C126 H140 0.961 . S
C127 C124 1.539 . S
C127 H141 0.958 . S
C127 H142 0.961 . S
C127 H143 0.960 . S
H128 C112 0.931 . S
H129 C117 0.929 . S
H130 C118 0.960 . S
H131 C118 0.962 . S
H132 C118 0.960 . S
H133 C119 0.961 . S
H134 C119 0.961 . S
H135 C119 0.961 . S
H136 C120 0.931 . S
H137 C125 0.930 . S
H138 C126 0.956 . S
H139 C126 0.961 1_455 S
H140 C126 0.961 . S
H141 C127 0.958 . S
H142 C127 0.961 . S
H143 C127 0.960 . S
C144 C145 1.391 . S
C144 C146 1.394 . S
C144 H160 0.931 . S
C145 C144 1.391 . S
C145 C149 1.376 . S
C146 C144 1.394 . S
C146 C147 1.369 . S
C146 C150 1.531 . S
C147 C146 1.369 . S
C147 C148 1.410 . S
C147 C155 1.503 . S
C148 C147 1.410 . S
C148 C149 1.392 . S
C148 C151 1.511 . S
C149 C145 1.376 . S
C149 C148 1.392 . S
C149 H161 0.929 . S
C150 C146 1.531 . S
C150 H162 0.960 . S
C150 H163 0.962 . S
C150 H164 0.960 . S
C151 C148 1.511 . S
C151 H165 0.961 . S
C151 H166 0.961 . S
C151 H167 0.961 . S
C152 C153 1.370 . S
C152 C154 1.363 . S
C152 H168 0.931 . S
C153 C152 1.370 . S
C153 C157 1.408 . S
C154 C152 1.363 . S
C154 C155 1.370 . S
C154 C158 1.524 . S
C155 C147 1.503 . S
C155 C154 1.370 . S
C155 C156 1.403 . S
C156 C155 1.403 . S
C156 C157 1.404 . S
C156 C159 1.539 . S
C157 C153 1.408 . S
C157 C156 1.404 . S
C157 H169 0.930 . S
C158 C154 1.524 . S
C158 H170 0.956 . S
C158 H171 0.961 . S
C158 H172 0.961 . S
C159 C156 1.539 . S
C159 H173 0.958 . S
C159 H174 0.961 . S
C159 H175 0.960 . S
H160 C144 0.931 . S
H161 C149 0.929 . S
H162 C150 0.960 . S
H163 C150 0.962 . S
H164 C150 0.960 . S
H165 C151 0.961 . S
H166 C151 0.961 . S
H167 C151 0.961 . S
H168 C152 0.931 . S
H169 C157 0.930 . S
H170 C158 0.956 . S
H171 C158 0.961 . S
H172 C158 0.961 . S
H173 C159 0.958 . S
H174 C159 0.961 . S
H175 C159 0.960 . S
C176 C177 1.391 . S
C176 C178 1.394 . S
C176 H192 0.931 . S
C177 C176 1.391 . S
C177 C181 1.376 . S
C178 C176 1.394 . S
C178 C179 1.369 . S
C178 C182 1.531 . S
C179 C178 1.369 . S
C179 C180 1.410 . S
C179 C187 1.503 1_544 S
C180 C179 1.410 . S
C180 C181 1.392 . S
C180 C183 1.511 . S
C181 C177 1.376 . S
C181 C180 1.392 . S
C181 H193 0.929 . S
C182 C178 1.531 . S
C182 H194 0.960 1_545 S
C182 H195 0.962 . S
C182 H196 0.960 . S
C183 C180 1.511 . S
C183 H197 0.961 . S
C183 H198 0.961 1_554 S
C183 H199 0.953 1_545 S
C184 C185 1.370 . S
C184 C186 1.363 . S
C184 H200 0.931 . S
C185 C184 1.370 . S
C185 C189 1.408 . S
C186 C184 1.363 . S
C186 C187 1.370 . S
C186 C190 1.524 1_565 S
C187 C179 1.503 1_566 S
C187 C186 1.370 . S
C187 C188 1.403 1_556 S
C188 C187 1.403 1_554 S
C188 C189 1.404 1_554 S
C188 C191 1.539 . S
C189 C185 1.408 . S
C189 C188 1.404 1_556 S
C189 H201 0.930 . S
C190 C186 1.524 1_545 S
C190 H202 0.956 . S
C190 H203 0.961 . S
C190 H204 0.961 . S
C191 C188 1.539 . S
C191 H205 0.958 . S
C191 H206 0.961 . S
C191 H207 0.960 . S
H192 C176 0.931 . S
H193 C181 0.929 . S
H194 C182 0.960 1_565 S
H195 C182 0.962 . S
H196 C182 0.960 . S
H197 C183 0.961 . S
H198 C183 0.961 1_556 S
H199 C183 0.953 1_565 S
H200 C184 0.931 . S
H201 C189 0.930 . S
H202 C190 0.956 . S
H203 C190 0.961 . S
H204 C190 0.961 . S
H205 C191 0.958 . S
H206 C191 0.961 . S
H207 C191 0.960 . S
C208 C209 1.391 1_455 S
C208 C210 1.394 . S
C208 H224 0.931 . S
C209 C208 1.391 1_655 S
C209 C213 1.376 . S
C210 C208 1.394 . S
C210 C211 1.356 1_455 S
C210 C214 1.531 . S
C211 C210 1.356 1_655 S
C211 C212 1.423 . S
C211 C219 1.503 1_664 S
C212 C211 1.423 . S
C212 C213 1.392 . S
C212 C215 1.511 . S
C213 C209 1.376 . S
C213 C212 1.392 . S
C213 H225 0.929 . S
C214 C210 1.531 . S
C214 H226 0.960 1_554 S
C214 H227 0.962 . S
C214 H228 0.958 1_554 S
C215 C212 1.511 . S
C215 H229 0.961 . S
C215 H230 0.961 1_565 S
C215 H231 0.961 1_554 S
C216 C217 1.370 . S
C216 C218 1.363 1_556 S
C216 H232 0.931 . S
C217 C216 1.370 . S
C217 C221 1.408 1_455 S
C218 C216 1.363 1_554 S
C218 C219 1.370 1_554 S
C218 C222 1.524 . S
C219 C211 1.503 1_446 S
C219 C218 1.370 1_556 S
C219 C220 1.403 1_455 S
C220 C219 1.403 1_655 S
C220 C221 1.404 . S
C220 C223 1.539 1_545 S
C221 C217 1.408 1_655 S
C221 C220 1.404 . S
C221 H233 0.930 . S
C222 C218 1.524 . S
C222 H234 0.956 . S
C222 H235 0.961 1_455 S
C222 H236 0.961 . S
C223 C220 1.539 1_565 S
C223 H237 0.958 1_655 S
C223 H238 0.961 . S
C223 H239 0.960 . S
H224 C208 0.931 . S
H225 C213 0.929 . S
H226 C214 0.960 1_556 S
H227 C214 0.962 . S
H228 C214 0.958 1_556 S
H229 C215 0.961 . S
H230 C215 0.961 1_545 S
H231 C215 0.961 1_556 S
H232 C216 0.931 . S
H233 C221 0.930 . S
H234 C222 0.956 . S
H235 C222 0.961 1_655 S
H236 C222 0.961 . S
H237 C223 0.958 1_455 S
H238 C223 0.961 . S
H239 C223 0.960 . S
C240 C241 1.391 . S
C240 C242 1.394 . S
C240 H256 0.931 . S
C241 C240 1.391 . S
C241 C245 1.376 . S
C242 C240 1.394 . S
C242 C243 1.369 . S
C242 C246 1.531 . S
C243 C242 1.369 . S
C243 C244 1.410 . S
C243 C251 1.503 . S
C244 C243 1.410 . S
C244 C245 1.392 . S
C244 C247 1.511 . S
C245 C241 1.376 . S
C245 C244 1.392 . S
C245 H257 0.929 . S
C246 C242 1.531 . S
C246 H258 0.960 . S
C246 H259 0.962 . S
C246 H260 0.960 . S
C247 C244 1.511 . S
C247 H261 0.961 . S
C247 H262 0.961 . S
C247 H263 0.961 . S
C248 C249 1.370 . S
C248 C250 1.363 . S
C248 H264 0.931 . S
C249 C248 1.370 . S
C249 C253 1.408 . S
C250 C248 1.363 . S
C250 C251 1.370 . S
C250 C254 1.524 . S
C251 C243 1.503 . S
C251 C250 1.370 . S
C251 C252 1.403 . S
C252 C251 1.403 . S
C252 C253 1.404 . S
C252 C255 1.539 . S
C253 C249 1.408 . S
C253 C252 1.404 . S
C253 H265 0.930 . S
C254 C250 1.524 . S
C254 H266 0.956 . S
C254 H267 0.961 . S
C254 H268 0.961 . S
C255 C252 1.539 . S
C255 H269 0.958 . S
C255 H270 0.961 . S
C255 H271 0.960 . S
H256 C240 0.931 . S
H257 C245 0.929 . S
H258 C246 0.960 . S
H259 C246 0.962 . S
H260 C246 0.960 . S
H261 C247 0.961 . S
H262 C247 0.961 . S
H263 C247 0.961 . S
H264 C248 0.931 . S
H265 C253 0.930 . S
H266 C254 0.956 . S
H267 C254 0.961 . S
H268 C254 0.961 . S
H269 C255 0.958 . S
H270 C255 0.961 . S
H271 C255 0.960 . S
C272 C273 1.391 . S
C272 C274 1.394 . S
C272 H288 0.931 . S
C273 C272 1.391 . S
C273 C277 1.376 . S
C274 C272 1.394 . S
C274 C275 1.369 . S
C274 C278 1.531 . S
C275 C274 1.369 . S
C275 C276 1.410 . S
C275 C283 1.503 . S
C276 C275 1.410 . S
C276 C277 1.392 . S
C276 C279 1.511 . S
C277 C273 1.376 . S
C277 C276 1.392 . S
C277 H289 0.929 . S
C278 C274 1.531 . S
C278 H290 0.960 . S
C278 H291 0.962 . S
C278 H292 0.960 . S
C279 C276 1.511 . S
C279 H293 0.961 . S
C279 H294 0.961 . S
C279 H295 0.961 . S
C280 C281 1.370 . S
C280 C282 1.363 . S
C280 H296 0.931 . S
C281 C280 1.370 . S
C281 C285 1.408 . S
C282 C280 1.363 . S
C282 C283 1.370 . S
C282 C286 1.524 . S
C283 C275 1.503 . S
C283 C282 1.370 . S
C283 C284 1.403 . S
C284 C283 1.403 . S
C284 C285 1.404 . S
C284 C287 1.539 . S
C285 C281 1.408 . S
C285 C284 1.404 . S
C285 H297 0.930 . S
C286 C282 1.524 . S
C286 H298 0.956 . S
C286 H299 0.961 . S
C286 H300 0.961 . S
C287 C284 1.539 . S
C287 H301 0.958 . S
C287 H302 0.961 . S
C287 H303 0.960 . S
H288 C272 0.931 . S
H289 C277 0.929 . S
H290 C278 0.960 . S
H291 C278 0.962 . S
H292 C278 0.960 . S
H293 C279 0.961 . S
H294 C279 0.961 . S
H295 C279 0.961 . S
H296 C280 0.931 . S
H297 C285 0.930 . S
H298 C286 0.956 . S
H299 C286 0.961 . S
H300 C286 0.961 . S
H301 C287 0.958 . S
H302 C287 0.961 . S
H303 C287 0.960 . S
C304 C305 1.391 . S
C304 C306 1.394 . S
C304 H320 0.931 . S
C305 C304 1.391 . S
C305 C309 1.376 . S
C306 C304 1.394 . S
C306 C307 1.369 . S
C306 C310 1.531 . S
C307 C306 1.369 . S
C307 C308 1.410 . S
C307 C315 1.503 . S
C308 C307 1.410 . S
C308 C309 1.392 . S
C308 C311 1.511 . S
C309 C305 1.376 . S
C309 C308 1.392 . S
C309 H321 0.929 . S
C310 C306 1.531 . S
C310 H322 0.960 . S
C310 H323 0.962 . S
C310 H324 0.960 . S
C311 C308 1.511 . S
C311 H325 0.961 . S
C311 H326 0.961 . S
C311 H327 0.961 . S
C312 C313 1.370 . S
C312 C314 1.363 . S
C312 H328 0.931 . S
C313 C312 1.370 . S
C313 C317 1.408 . S
C314 C312 1.363 . S
C314 C315 1.370 . S
C314 C318 1.524 . S
C315 C307 1.503 . S
C315 C314 1.370 . S
C315 C316 1.403 . S
C316 C315 1.403 . S
C316 C317 1.404 . S
C316 C319 1.539 . S
C317 C313 1.408 . S
C317 C316 1.404 . S
C317 H329 0.930 . S
C318 C314 1.524 . S
C318 H330 0.956 . S
C318 H331 0.961 . S
C318 H332 0.961 . S
C319 C316 1.539 . S
C319 H333 0.958 . S
C319 H334 0.961 . S
C319 H335 0.960 . S
H320 C304 0.931 . S
H321 C309 0.929 . S
H322 C310 0.960 . S
H323 C310 0.962 . S
H324 C310 0.960 . S
H325 C311 0.961 . S
H326 C311 0.961 . S
H327 C311 0.961 . S
H328 C312 0.931 . S
H329 C317 0.930 . S
H330 C318 0.956 . S
H331 C318 0.961 . S
H332 C318 0.961 . S
H333 C319 0.958 . S
H334 C319 0.961 . S
H335 C319 0.960 . S
C336 C337 1.391 . S
C336 C338 1.394 . S
C336 H352 0.931 . S
C337 C336 1.391 . S
C337 C341 1.376 . S
C338 C336 1.394 . S
C338 C339 1.369 . S
C338 C342 1.531 . S
C339 C338 1.369 . S
C339 C340 1.410 . S
C339 C347 1.503 . S
C340 C339 1.410 . S
C340 C341 1.392 . S
C340 C343 1.511 . S
C341 C337 1.376 . S
C341 C340 1.392 . S
C341 H353 0.929 . S
C342 C338 1.531 . S
C342 H354 0.960 . S
C342 H355 0.962 . S
C342 H356 0.960 . S
C343 C340 1.511 . S
C343 H357 0.961 . S
C343 H358 0.961 . S
C343 H359 0.961 . S
C344 C345 1.370 . S
C344 C346 1.363 . S
C344 H360 0.931 . S
C345 C344 1.370 . S
C345 C349 1.408 . S
C346 C344 1.363 . S
C346 C347 1.370 . S
C346 C350 1.524 . S
C347 C339 1.503 . S
C347 C346 1.370 . S
C347 C348 1.403 . S
C348 C347 1.403 . S
C348 C349 1.404 . S
C348 C351 1.539 . S
C349 C345 1.408 . S
C349 C348 1.404 . S
C349 H361 0.930 . S
C350 C346 1.524 . S
C350 H362 0.956 . S
C350 H363 0.961 . S
C350 H364 0.961 . S
C351 C348 1.539 . S
C351 H365 0.958 . S
C351 H366 0.961 . S
C351 H367 0.960 . S
H352 C336 0.931 . S
H353 C341 0.929 . S
H354 C342 0.960 . S
H355 C342 0.962 . S
H356 C342 0.960 . S
H357 C343 0.961 . S
H358 C343 0.961 . S
H359 C343 0.961 . S
H360 C344 0.931 . S
H361 C349 0.930 . S
H362 C350 0.956 . S
H363 C350 0.961 . S
H364 C350 0.961 . S
H365 C351 0.958 . S
H366 C351 0.961 . S
H367 C351 0.960 . S
C368 C369 1.391 . S
C368 C370 1.394 . S
C368 H384 0.931 . S
C369 C368 1.391 . S
C369 C373 1.376 . S
C370 C368 1.394 . S
C370 C371 1.369 . S
C370 C374 1.531 . S
C371 C370 1.369 . S
C371 C372 1.410 . S
C371 C379 1.503 . S
C372 C371 1.410 . S
C372 C373 1.392 . S
C372 C375 1.511 . S
C373 C369 1.376 . S
C373 C372 1.392 . S
C373 H385 0.929 . S
C374 C370 1.531 . S
C374 H386 0.960 . S
C374 H387 0.962 . S
C374 H388 0.960 . S
C375 C372 1.511 . S
C375 H389 0.961 . S
C375 H390 0.961 . S
C375 H391 0.961 . S
C376 C377 1.370 . S
C376 C378 1.363 . S
C376 H392 0.931 . S
C377 C376 1.370 . S
C377 C381 1.408 . S
C378 C376 1.363 . S
C378 C379 1.370 . S
C378 C382 1.524 . S
C379 C371 1.503 . S
C379 C378 1.370 . S
C379 C380 1.403 . S
C380 C379 1.403 . S
C380 C381 1.404 . S
C380 C383 1.539 . S
C381 C377 1.408 . S
C381 C380 1.404 . S
C381 H393 0.930 . S
C382 C378 1.524 . S
C382 H394 0.956 . S
C382 H395 0.961 . S
C382 H396 0.961 . S
C383 C380 1.539 . S
C383 H397 0.958 . S
C383 H398 0.961 . S
C383 H399 0.960 . S
H384 C368 0.931 . S
H385 C373 0.929 . S
H386 C374 0.960 . S
H387 C374 0.962 . S
H388 C374 0.960 . S
H389 C375 0.961 . S
H390 C375 0.961 . S
H391 C375 0.961 . S
H392 C376 0.931 . S
H393 C381 0.930 . S
H394 C382 0.956 . S
H395 C382 0.961 . S
H396 C382 0.961 . S
H397 C383 0.958 . S
H398 C383 0.961 . S
H399 C383 0.960 . S
C400 C401 1.391 . S
C400 C402 1.394 . S
C400 H416 0.931 . S
C401 C400 1.391 . S
C401 C405 1.376 . S
C402 C400 1.394 . S
C402 C403 1.369 . S
C402 C406 1.531 . S
C403 C402 1.369 . S
C403 C404 1.410 . S
C403 C411 1.503 . S
C404 C403 1.410 . S
C404 C405 1.392 . S
C404 C407 1.511 . S
C405 C401 1.376 . S
C405 C404 1.392 . S
C405 H417 0.929 . S
C406 C402 1.531 . S
C406 H418 0.960 . S
C406 H419 0.962 . S
C406 H420 0.960 . S
C407 C404 1.511 . S
C407 H421 0.961 . S
C407 H422 0.961 . S
C407 H423 0.961 . S
C408 C409 1.370 . S
C408 C410 1.363 . S
C408 H424 0.931 . S
C409 C408 1.370 . S
C409 C413 1.408 . S
C410 C408 1.363 . S
C410 C411 1.370 . S
C410 C414 1.524 . S
C411 C403 1.503 . S
C411 C410 1.370 . S
C411 C412 1.403 . S
C412 C411 1.403 . S
C412 C413 1.404 . S
C412 C415 1.539 . S
C413 C409 1.408 . S
C413 C412 1.404 . S
C413 H425 0.930 . S
C414 C410 1.524 . S
C414 H426 0.956 . S
C414 H427 0.961 . S
C414 H428 0.961 . S
C415 C412 1.539 . S
C415 H429 0.958 . S
C415 H430 0.961 . S
C415 H431 0.960 . S
H416 C400 0.931 . S
H417 C405 0.929 . S
H418 C406 0.960 . S
H419 C406 0.962 . S
H420 C406 0.960 . S
H421 C407 0.961 . S
H422 C407 0.961 . S
H423 C407 0.961 . S
H424 C408 0.931 . S
H425 C413 0.930 . S
H426 C414 0.956 . S
H427 C414 0.961 . S
H428 C414 0.961 . S
H429 C415 0.958 . S
H430 C415 0.961 . S
H431 C415 0.960 . S
C432 C433 1.391 . S
C432 C434 1.394 . S
C432 H448 0.931 . S
C433 C432 1.391 . S
C433 C437 1.376 . S
C434 C432 1.394 . S
C434 C435 1.369 . S
C434 C438 1.531 . S
C435 C434 1.369 . S
C435 C436 1.410 . S
C435 C443 1.503 . S
C436 C435 1.410 . S
C436 C437 1.392 . S
C436 C439 1.511 . S
C437 C433 1.376 . S
C437 C436 1.392 . S
C437 H449 0.929 . S
C438 C434 1.531 . S
C438 H450 0.960 . S
C438 H451 0.962 . S
C438 H452 0.960 . S
C439 C436 1.511 . S
C439 H453 0.961 . S
C439 H454 0.961 . S
C439 H455 0.961 . S
C440 C441 1.370 . S
C440 C442 1.363 . S
C440 H456 0.931 . S
C441 C440 1.370 . S
C441 C445 1.408 . S
C442 C440 1.363 . S
C442 C443 1.370 . S
C442 C446 1.524 . S
C443 C435 1.503 . S
C443 C442 1.370 . S
C443 C444 1.403 . S
C444 C443 1.403 . S
C444 C445 1.404 . S
C444 C447 1.539 . S
C445 C441 1.408 . S
C445 C444 1.404 . S
C445 H457 0.930 . S
C446 C442 1.524 . S
C446 H458 0.956 . S
C446 H459 0.961 . S
C446 H460 0.961 . S
C447 C444 1.539 . S
C447 H461 0.958 . S
C447 H462 0.961 . S
C447 H463 0.960 . S
H448 C432 0.931 . S
H449 C437 0.929 . S
H450 C438 0.960 . S
H451 C438 0.962 . S
H452 C438 0.960 . S
H453 C439 0.961 . S
H454 C439 0.961 . S
H455 C439 0.961 . S
H456 C440 0.931 . S
H457 C445 0.930 . S
H458 C446 0.956 . S
H459 C446 0.961 . S
H460 C446 0.961 . S
H461 C447 0.958 . S
H462 C447 0.961 . S
H463 C447 0.960 . S
C464 C465 1.391 . S
C464 C466 1.394 . S
C464 H480 0.931 . S
C465 C464 1.391 . S
C465 C469 1.376 . S
C466 C464 1.394 . S
C466 C467 1.369 . S
C466 C470 1.531 . S
C467 C466 1.369 . S
C467 C468 1.410 . S
C467 C475 1.503 . S
C468 C467 1.410 . S
C468 C469 1.392 . S
C468 C471 1.511 . S
C469 C465 1.376 . S
C469 C468 1.392 . S
C469 H481 0.929 . S
C470 C466 1.531 . S
C470 H482 0.960 . S
C470 H483 0.962 . S
C470 H484 0.960 . S
C471 C468 1.511 . S
C471 H485 0.961 . S
C471 H486 0.961 . S
C471 H487 0.961 . S
C472 C473 1.370 . S
C472 C474 1.363 . S
C472 H488 0.931 . S
C473 C472 1.370 . S
C473 C477 1.408 . S
C474 C472 1.363 . S
C474 C475 1.370 . S
C474 C478 1.524 . S
C475 C467 1.503 . S
C475 C474 1.370 . S
C475 C476 1.403 . S
C476 C475 1.403 . S
C476 C477 1.404 . S
C476 C479 1.539 . S
C477 C473 1.408 . S
C477 C476 1.404 . S
C477 H489 0.930 . S
C478 C474 1.524 . S
C478 H490 0.956 . S
C478 H491 0.961 . S
C478 H492 0.961 . S
C479 C476 1.539 . S
C479 H493 0.958 . S
C479 H494 0.961 . S
C479 H495 0.960 . S
H480 C464 0.931 . S
H481 C469 0.929 . S
H482 C470 0.960 . S
H483 C470 0.962 . S
H484 C470 0.960 . S
H485 C471 0.961 . S
H486 C471 0.961 . S
H487 C471 0.961 . S
H488 C472 0.931 . S
H489 C477 0.930 . S
H490 C478 0.956 . S
H491 C478 0.961 . S
H492 C478 0.961 . S
H493 C479 0.958 . S
H494 C479 0.961 . S
H495 C479 0.960 . S
C496 C497 1.391 . S
C496 C498 1.394 . S
C496 H512 0.931 . S
C497 C496 1.391 . S
C497 C501 1.376 . S
C498 C496 1.394 . S
C498 C499 1.369 . S
C498 C502 1.531 . S
C499 C498 1.369 . S
C499 C500 1.410 . S
C499 C507 1.503 . S
C500 C499 1.410 . S
C500 C501 1.392 . S
C500 C503 1.511 . S
C501 C497 1.376 . S
C501 C500 1.392 . S
C501 H513 0.929 . S
C502 C498 1.531 . S
C502 H514 0.960 . S
C502 H515 0.962 . S
C502 H516 0.960 . S
C503 C500 1.511 . S
C503 H517 0.961 . S
C503 H518 0.961 . S
C503 H519 0.961 . S
C504 C505 1.370 . S
C504 C506 1.363 . S
C504 H520 0.931 . S
C505 C504 1.370 . S
C505 C509 1.408 . S
C506 C504 1.363 . S
C506 C507 1.370 . S
C506 C510 1.524 . S
C507 C499 1.503 . S
C507 C506 1.370 . S
C507 C508 1.403 . S
C508 C507 1.403 . S
C508 C509 1.404 . S
C508 C511 1.539 . S
C509 C505 1.408 . S
C509 C508 1.404 . S
C509 H521 0.930 . S
C510 C506 1.524 . S
C510 H522 0.956 . S
C510 H523 0.961 . S
C510 H524 0.961 . S
C511 C508 1.539 . S
C511 H525 0.958 . S
C511 H526 0.961 . S
C511 H527 0.960 . S
H512 C496 0.931 . S
H513 C501 0.929 . S
H514 C502 0.960 . S
H515 C502 0.962 . S
H516 C502 0.960 . S
H517 C503 0.961 . S
H518 C503 0.961 . S
H519 C503 0.961 . S
H520 C504 0.931 . S
H521 C509 0.930 . S
H522 C510 0.956 . S
H523 C510 0.961 . S
H524 C510 0.961 . S
H525 C511 0.958 . S
H526 C511 0.961 . S
H527 C511 0.960 . S
C528 C529 1.391 . S
C528 C530 1.394 . S
C528 H544 0.931 . S
C529 C528 1.391 . S
C529 C533 1.376 . S
C530 C528 1.394 . S
C530 C531 1.369 . S
C530 C534 1.531 . S
C531 C530 1.369 . S
C531 C532 1.410 . S
C531 C539 1.503 . S
C532 C531 1.410 . S
C532 C533 1.392 . S
C532 C535 1.511 . S
C533 C529 1.376 . S
C533 C532 1.392 . S
C533 H545 0.929 . S
C534 C530 1.531 . S
C534 H546 0.960 . S
C534 H547 0.962 . S
C534 H548 0.960 . S
C535 C532 1.511 . S
C535 H549 0.961 . S
C535 H550 0.961 . S
C535 H551 0.961 . S
C536 C537 1.370 . S
C536 C538 1.363 . S
C536 H552 0.931 . S
C537 C536 1.370 . S
C537 C541 1.408 . S
C538 C536 1.363 . S
C538 C539 1.370 . S
C538 C542 1.524 . S
C539 C531 1.503 . S
C539 C538 1.370 . S
C539 C540 1.403 . S
C540 C539 1.403 . S
C540 C541 1.404 . S
C540 C543 1.539 . S
C541 C537 1.408 . S
C541 C540 1.404 . S
C541 H553 0.930 . S
C542 C538 1.524 . S
C542 H554 0.956 . S
C542 H555 0.961 . S
C542 H556 0.961 . S
C543 C540 1.539 . S
C543 H557 0.958 . S
C543 H558 0.961 . S
C543 H559 0.960 . S
H544 C528 0.931 . S
H545 C533 0.929 . S
H546 C534 0.960 . S
H547 C534 0.962 . S
H548 C534 0.960 . S
H549 C535 0.961 . S
H550 C535 0.961 . S
H551 C535 0.961 . S
H552 C536 0.931 . S
H553 C541 0.930 . S
H554 C542 0.956 . S
H555 C542 0.961 . S
H556 C542 0.961 . S
H557 C543 0.958 . S
H558 C543 0.961 . S
H559 C543 0.960 . S
C560 C561 1.391 . S
C560 C562 1.405 . S
C560 H576 0.931 . S
C561 C560 1.391 . S
C561 C565 1.376 . S
C562 C560 1.405 . S
C562 C563 1.380 . S
C562 C566 1.508 1_554 S
C563 C562 1.380 . S
C563 C564 1.410 . S
C563 C571 1.503 1_554 S
C564 C563 1.410 . S
C564 C565 1.392 . S
C564 C567 1.511 . S
C565 C561 1.376 . S
C565 C564 1.392 . S
C565 H577 0.929 . S
C566 C562 1.508 1_556 S
C566 H578 0.960 . S
C566 H579 0.962 . S
C566 H580 0.960 . S
C567 C564 1.511 . S
C567 H581 0.961 . S
C567 H582 0.961 . S
C567 H583 0.961 . S
C568 C569 1.370 . S
C568 C570 1.363 . S
C568 H584 0.931 . S
C569 C568 1.370 . S
C569 C573 1.408 . S
C570 C568 1.363 . S
C570 C571 1.370 . S
C570 C574 1.524 . S
C571 C563 1.503 1_556 S
C571 C570 1.370 . S
C571 C572 1.403 . S
C572 C571 1.403 . S
C572 C573 1.404 . S
C572 C575 1.539 1_556 S
C573 C569 1.408 . S
C573 C572 1.404 . S
C573 H585 0.930 . S
C574 C570 1.524 . S
C574 H586 0.956 . S
C574 H587 0.961 . S
C574 H588 0.961 . S
C575 C572 1.539 1_554 S
C575 H589 0.958 . S
C575 H590 0.961 . S
C575 H591 0.960 . S
H576 C560 0.931 . S
H577 C565 0.929 . S
H578 C566 0.960 . S
H579 C566 0.962 . S
H580 C566 0.960 . S
H581 C567 0.961 . S
H582 C567 0.961 . S
H583 C567 0.961 . S
H584 C568 0.931 . S
H585 C573 0.930 . S
H586 C574 0.956 . S
H587 C574 0.961 . S
H588 C574 0.961 . S
H589 C575 0.958 . S
H590 C575 0.961 . S
H591 C575 0.960 . S
C592 C593 1.391 . S
C592 C594 1.394 . S
C592 H608 0.931 . S
C593 C592 1.391 . S
C593 C597 1.376 . S
C594 C592 1.394 . S
C594 C595 1.369 . S
C594 C598 1.531 . S
C595 C594 1.369 . S
C595 C596 1.410 1_554 S
C595 C603 1.503 1_554 S
C596 C595 1.410 1_556 S
C596 C597 1.392 1_556 S
C596 C599 1.511 . S
C597 C593 1.376 . S
C597 C596 1.392 1_554 S
C597 H609 0.929 . S
C598 C594 1.531 . S
C598 H610 0.960 . S
C598 H611 0.962 . S
C598 H612 0.960 . S
C599 C596 1.511 . S
C599 H613 0.961 . S
C599 H614 0.961 . S
C599 H615 0.961 . S
C600 C601 1.370 . S
C600 C602 1.363 . S
C600 H616 0.931 . S
C601 C600 1.370 . S
C601 C605 1.408 . S
C602 C600 1.363 . S
C602 C603 1.370 . S
C602 C606 1.524 1_556 S
C603 C595 1.503 1_556 S
C603 C602 1.370 . S
C603 C604 1.403 . S
C604 C603 1.403 . S
C604 C605 1.404 . S
C604 C607 1.539 . S
C605 C601 1.408 . S
C605 C604 1.404 . S
C605 H617 0.930 . S
C606 C602 1.524 1_554 S
C606 H618 0.956 . S
C606 H619 0.961 . S
C606 H620 0.961 . S
C607 C604 1.539 . S
C607 H621 0.958 . S
C607 H622 0.961 . S
C607 H623 0.960 . S
H608 C592 0.931 . S
H609 C597 0.929 . S
H610 C598 0.960 . S
H611 C598 0.962 . S
H612 C598 0.960 . S
H613 C599 0.961 . S
H614 C599 0.961 . S
H615 C599 0.961 . S
H616 C600 0.931 . S
H617 C605 0.930 . S
H618 C606 0.956 . S
H619 C606 0.961 . S
H620 C606 0.961 . S
H621 C607 0.958 . S
H622 C607 0.961 . S
H623 C607 0.960 . S
C113 C7 1.488 . S
C121 C35 1.501 . S
C145 C49 1.485 . S
C153 C21 1.502 . S
C177 C91 1.486 . S
C185 C63 1.502 . S
C209 C77 1.494 . S
C217 C105 1.499 . S
C241 C90 1.676 . S
C249 C6 1.667 . S
C273 C20 1.666 . S
C281 C104 1.670 . S
C305 C34 1.674 . S
C313 C62 1.668 . S
C337 C48 1.675 . S
C345 C76 1.667 . S
C369 C92 1.598 . S
C377 C8 1.579 . S
C401 C22 1.564 . S
C409 C106 1.593 . S
C433 C64 1.597 . S
C441 C36 1.578 . S
C465 C78 1.595 . S
C473 C50 1.579 . S
C497 C23 0.693 . S
C505 C9 0.619 . S
C529 C37 0.507 . S
C537 C51 0.576 . S
C561 C79 0.644 . S
C569 C65 0.638 . S
C593 C93 0.694 . S
C601 C107 0.615 . S
