# Generated by pormake.
# Topology utg, (3)-cn, num edge types: 1
# Building blocks:
#     Node 0, Type 0, BuildingBlock: OLANEW_clean_sbu_2, # of connection points: 3
#     Node 1, Type 0, BuildingBlock: OLANEW_clean_sbu_2, # of connection points: 3
#     Node 2, Type 0, BuildingBlock: OLANEW_clean_sbu_2, # of connection points: 3
#     Node 3, Type 0, BuildingBlock: OLANEW_clean_sbu_2, # of connection points: 3
#     Node 4, Type 0, BuildingBlock: OLANEW_clean_sbu_2, # of connection points: 3
#     Node 5, Type 0, BuildingBlock: OLANEW_clean_sbu_2, # of connection points: 3
#     Node 6, Type 0, BuildingBlock: OLANEW_clean_sbu_2, # of connection points: 3
#     Node 7, Type 0, BuildingBlock: OLANEW_clean_sbu_2, # of connection points: 3
#     Node 8, Type 0, BuildingBlock: OLANEW_clean_sbu_2, # of connection points: 3
#     Node 9, Type 0, BuildingBlock: OLANEW_clean_sbu_2, # of connection points: 3
#     Node 10, Type 0, BuildingBlock: OLANEW_clean_sbu_2, # of connection points: 3
#     Node 11, Type 0, BuildingBlock: OLANEW_clean_sbu_2, # of connection points: 3
#     Node 12, Type 0, BuildingBlock: OLANEW_clean_sbu_2, # of connection points: 3
#     Node 13, Type 0, BuildingBlock: OLANEW_clean_sbu_2, # of connection points: 3
#     Node 14, Type 0, BuildingBlock: OLANEW_clean_sbu_2, # of connection points: 3
#     Node 15, Type 0, BuildingBlock: OLANEW_clean_sbu_2, # of connection points: 3
#     Edge 16, Type (0, 0), BuildingBlock: XUDNAN_clean_linker_2, # of connection points: 2
#     Edge 17, Type (0, 0), BuildingBlock: XUDNAN_clean_linker_2, # of connection points: 2
#     Edge 18, Type (0, 0), BuildingBlock: XUDNAN_clean_linker_2, # of connection points: 2
#     Edge 19, Type (0, 0), BuildingBlock: XUDNAN_clean_linker_2, # of connection points: 2
#     Edge 20, Type (0, 0), BuildingBlock: XUDNAN_clean_linker_2, # of connection points: 2
#     Edge 21, Type (0, 0), BuildingBlock: XUDNAN_clean_linker_2, # of connection points: 2
#     Edge 22, Type (0, 0), BuildingBlock: XUDNAN_clean_linker_2, # of connection points: 2
#     Edge 23, Type (0, 0), BuildingBlock: XUDNAN_clean_linker_2, # of connection points: 2
#     Edge 24, Type (0, 0), BuildingBlock: XUDNAN_clean_linker_2, # of connection points: 2
#     Edge 25, Type (0, 0), BuildingBlock: XUDNAN_clean_linker_2, # of connection points: 2
#     Edge 26, Type (0, 0), BuildingBlock: XUDNAN_clean_linker_2, # of connection points: 2
#     Edge 27, Type (0, 0), BuildingBlock: XUDNAN_clean_linker_2, # of connection points: 2
#     Edge 28, Type (0, 0), BuildingBlock: XUDNAN_clean_linker_2, # of connection points: 2
#     Edge 29, Type (0, 0), BuildingBlock: XUDNAN_clean_linker_2, # of connection points: 2
#     Edge 30, Type (0, 0), BuildingBlock: XUDNAN_clean_linker_2, # of connection points: 2
#     Edge 31, Type (0, 0), BuildingBlock: XUDNAN_clean_linker_2, # of connection points: 2
#     Edge 32, Type (0, 0), BuildingBlock: XUDNAN_clean_linker_2, # of connection points: 2
#     Edge 33, Type (0, 0), BuildingBlock: XUDNAN_clean_linker_2, # of connection points: 2
#     Edge 34, Type (0, 0), BuildingBlock: XUDNAN_clean_linker_2, # of connection points: 2
#     Edge 35, Type (0, 0), BuildingBlock: XUDNAN_clean_linker_2, # of connection points: 2
#     Edge 36, Type (0, 0), BuildingBlock: XUDNAN_clean_linker_2, # of connection points: 2
#     Edge 37, Type (0, 0), BuildingBlock: XUDNAN_clean_linker_2, # of connection points: 2
#     Edge 38, Type (0, 0), BuildingBlock: XUDNAN_clean_linker_2, # of connection points: 2
#     Edge 39, Type (0, 0), BuildingBlock: XUDNAN_clean_linker_2, # of connection points: 2
# Relax obj value: 0.002
# Max RMSD: 0.043
# Mean RMSD: 0.043
data_MOF--net-utg--node1-OLANEW_clean_sbu_2--edge1-XUDNAN_clean_linker_2
_symmetry_space_group_name_H-M    P1
_symmetry_Int_Tables_number       1
_symmetry_cell_setting            triclinic
loop_
_symmetry_equiv_pos_as_xyz
'x, y, z'
_cell_length_a     43.438455
_cell_length_b     43.512789
_cell_length_c     85.73422
_cell_angle_alpha  89.954791
_cell_angle_beta   89.944972
_cell_angle_gamma 89.9508
loop_
_atom_site_label
_atom_site_type_symbol
_atom_site_fract_x
_atom_site_fract_y
_atom_site_fract_z
_atom_type_partial_charge
O0 O 0.08274 0.17726 0.18716 0.0
Cd1 Cd 0.08611 0.146 0.21086 0.0
O2 O 0.1105 0.14208 0.17517 0.0
Cd3 Cd 0.13238 0.12789 0.1969 0.0
O4 O 0.16448 0.13633 0.21597 0.0
C5 C 0.16426 0.16324 0.22172 0.0
O6 O 0.14412 0.18325 0.21645 0.0
C7 C 0.09316 0.16563 0.17461 0.0
C8 C 0.0518 0.0928 0.20541 0.0
O9 O 0.04049 0.11483 0.21351 0.0
O10 O 0.07942 0.09546 0.2004 0.0
O11 O 0.87651 0.61303 0.39731 0.0
Cd12 Cd 0.92368 0.62404 0.41184 0.0
O13 O 0.85599 0.65771 0.40349 0.0
Cd14 Cd 0.88907 0.67483 0.42047 0.0
O15 O 0.88033 0.70782 0.43915 0.0
C16 C 0.85471 0.72163 0.43752 0.0
O17 O 0.83803 0.71556 0.42512 0.0
C18 C 0.8547 0.63239 0.39614 0.0
C19 C 0.95886 0.57153 0.41768 0.0
O20 O 0.96001 0.58513 0.40443 0.0
O21 O 0.94096 0.5826 0.42817 0.0
O22 O 0.41519 0.34016 0.65941 0.0
Cd23 Cd 0.40473 0.37006 0.68302 0.0
O24 O 0.36682 0.34088 0.65178 0.0
Cd25 Cd 0.34756 0.35978 0.67319 0.0
O26 O 0.31261 0.34649 0.69021 0.0
C27 C 0.31444 0.31878 0.6948 0.0
O28 O 0.3376 0.30188 0.6899 0.0
C29 C 0.39473 0.33341 0.64938 0.0
C30 C 0.44504 0.41972 0.68624 0.0
O31 O 0.45217 0.39294 0.69133 0.0
O32 O 0.41881 0.42307 0.67961 0.0
O33 O 0.67229 0.89215 0.91304 0.0
Cd34 Cd 0.6332 0.88261 0.93306 0.0
O35 O 0.70495 0.86192 0.92533 0.0
Cd36 Cd 0.67547 0.84384 0.94375 0.0
O37 O 0.67926 0.80807 0.96151 0.0
C38 C 0.69742 0.81358 0.97277 0.0
O39 O 0.71004 0.84095 0.97374 0.0
C40 C 0.69895 0.88025 0.91418 0.0
C41 C 0.57609 0.90973 0.92701 0.0
O42 O 0.5975 0.92476 0.9339 0.0
O43 O 0.58185 0.88207 0.92278 0.0
O44 O 0.10838 0.3218 0.08568 0.0
Cd45 Cd 0.12258 0.35933 0.06569 0.0
O46 O 0.1122 0.28434 0.06858 0.0
Cd47 Cd 0.13638 0.31 0.05049 0.0
O48 O 0.17434 0.30337 0.03413 0.0
C49 C 0.16891 0.28733 0.02207 0.0
O50 O 0.14054 0.27823 0.01944 0.0
C51 C 0.10501 0.29363 0.08215 0.0
C52 C 0.07579 0.40254 0.06158 0.0
O53 O 0.07472 0.37631 0.05482 0.0
O54 O 0.0991 0.4085 0.07021 0.0
O55 O 0.66186 0.62865 0.31919 0.0
Cd56 Cd 0.6171 0.64223 0.30333 0.0
O57 O 0.65722 0.66986 0.33384 0.0
Cd58 Cd 0.62641 0.69294 0.31753 0.0
O59 O 0.62776 0.72582 0.29831 0.0
C60 C 0.63971 0.71649 0.28564 0.0
O61 O 0.64773 0.68745 0.28449 0.0
C62 C 0.67026 0.6443 0.33096 0.0
C63 C 0.57583 0.59324 0.30292 0.0
O64 O 0.57507 0.61332 0.31384 0.0
O65 O 0.59577 0.59663 0.29202 0.0
O66 O 0.41612 0.17797 0.55312 0.0
Cd67 Cd 0.40834 0.14572 0.5301 0.0
O68 O 0.36854 0.19555 0.55327 0.0
Cd69 Cd 0.35108 0.17226 0.53256 0.0
O70 O 0.31627 0.1717 0.51417 0.0
C71 C 0.28818 0.17295 0.51832 0.0
O72 O 0.28154 0.17247 0.53328 0.0
C73 C 0.39538 0.19479 0.55918 0.0
C74 C 0.43462 0.08739 0.53331 0.0
O75 O 0.45079 0.11044 0.5289 0.0
O76 O 0.40604 0.09191 0.53629 0.0
O77 O 0.808 0.92071 0.80897 0.0
Cd78 Cd 0.82859 0.92404 0.78245 0.0
O79 O 0.83733 0.88086 0.81435 0.0
Cd80 Cd 0.84122 0.868 0.78984 0.0
O81 O 0.81947 0.83639 0.7734 0.0
C82 C 0.80903 0.81189 0.77953 0.0
O83 O 0.8134 0.8073 0.79452 0.0
C84 C 0.81906 0.90192 0.81884 0.0
C85 C 0.88932 0.94552 0.78303 0.0
O86 O 0.86655 0.96425 0.7825 0.0
O87 O 0.88341 0.91668 0.78315 0.0
O88 O 0.58363 0.69536 0.66369 0.0
Cd89 Cd 0.57538 0.6781 0.69055 0.0
O90 O 0.62739 0.67019 0.66147 0.0
Cd91 Cd 0.63347 0.66454 0.68654 0.0
O92 O 0.65908 0.67779 0.70739 0.0
C93 C 0.67604 0.70141 0.70587 0.0
O94 O 0.67638 0.71577 0.69238 0.0
C95 C 0.60599 0.68607 0.65535 0.0
C96 C 0.55454 0.61728 0.69132 0.0
O97 O 0.53565 0.63971 0.68975 0.0
O98 O 0.58323 0.62358 0.6926 0.0
O99 O 0.3124 0.0893 0.90687 0.0
Cd100 Cd 0.33871 0.07483 0.93104 0.0
O101 O 0.32688 0.13764 0.90845 0.0
Cd102 Cd 0.345 0.13551 0.9321 0.0
O103 O 0.33052 0.16138 0.95264 0.0
C104 C 0.3024 0.16938 0.95197 0.0
O105 O 0.28591 0.16036 0.93997 0.0
C106 C 0.31312 0.11626 0.90116 0.0
C107 C 0.38632 0.03259 0.92636 0.0
O108 O 0.35831 0.02376 0.9277 0.0
O109 O 0.3919 0.06148 0.92711 0.0
O110 O 0.87464 0.83625 0.17784 0.0
Cd111 Cd 0.85629 0.88142 0.19204 0.0
O112 O 0.82761 0.82359 0.17083 0.0
Cd113 Cd 0.80339 0.85385 0.18696 0.0
O114 O 0.7673 0.84962 0.20454 0.0
C115 C 0.75564 0.82284 0.20483 0.0
O116 O 0.76575 0.80233 0.1948 0.0
C117 C 0.85652 0.81927 0.17003 0.0
C118 C 0.90134 0.92701 0.19166 0.0
O119 O 0.89686 0.91083 0.20395 0.0
O120 O 0.88437 0.92199 0.17973 0.0
O121 O 0.15735 0.33171 0.39304 0.0
Cd122 Cd 0.1146 0.32799 0.41161 0.0
O123 O 0.15052 0.28373 0.38577 0.0
Cd124 Cd 0.12434 0.27174 0.4066 0.0
O125 O 0.13489 0.25079 0.42913 0.0
C126 C 0.16257 0.24144 0.4301 0.0
O127 O 0.18071 0.2449 0.41795 0.0
C128 C 0.16382 0.30952 0.38394 0.0
C129 C 0.08439 0.38362 0.41713 0.0
O130 O 0.07833 0.36753 0.40501 0.0
O131 O 0.105 0.37365 0.42656 0.0
O132 O 0.60832 0.82113 0.55618 0.0
Cd133 Cd 0.60987 0.85722 0.53426 0.0
O134 O 0.646 0.79354 0.54618 0.0
Cd135 Cd 0.65904 0.82202 0.52632 0.0
O136 O 0.6958 0.82229 0.50892 0.0
C137 C 0.72329 0.82234 0.514 0.0
O138 O 0.72787 0.82499 0.52909 0.0
C139 C 0.6258 0.79769 0.55671 0.0
C140 C 0.56376 0.90197 0.53575 0.0
O141 O 0.55818 0.87507 0.53038 0.0
O142 O 0.5911 0.90775 0.54052 0.0
O143 O 0.16348 0.10736 0.80705 0.0
Cd144 Cd 0.13267 0.10215 0.78325 0.0
O145 O 0.16262 0.15781 0.80519 0.0
Cd146 Cd 0.13962 0.16226 0.78275 0.0
O147 O 0.15143 0.19179 0.76308 0.0
C148 C 0.17882 0.1886 0.75813 0.0
O149 O 0.19595 0.16664 0.76411 0.0
C150 C 0.17092 0.13361 0.81236 0.0
C151 C 0.08472 0.05949 0.78518 0.0
O152 O 0.08009 0.08797 0.7882 0.0
O153 O 0.11209 0.05114 0.7815 0.0
O154 O 0.91038 0.66445 0.07896 0.0
Cd155 Cd 0.90858 0.63801 0.05384 0.0
O156 O 0.86199 0.65519 0.08494 0.0
Cd157 Cd 0.84951 0.63696 0.06214 0.0
O158 O 0.81919 0.65102 0.04315 0.0
C159 C 0.8139 0.67976 0.04311 0.0
O160 O 0.82746 0.69696 0.05366 0.0
C161 C 0.88805 0.66643 0.0885 0.0
C162 C 0.93759 0.58084 0.0549 0.0
O163 O 0.95313 0.60558 0.05301 0.0
O164 O 0.9083 0.58308 0.05632 0.0
O165 O 0.38119 0.35282 0.34865 0.0
Cd166 Cd 0.43705 0.35796 0.34661 0.0
O167 O 0.38181 0.32544 0.32723 0.0
Cd168 Cd 0.36195 0.29782 0.30844 0.0
O169 O 0.33609 0.26545 0.29412 0.0
C170 C 0.30876 0.27205 0.29005 0.0
O171 O 0.29696 0.29857 0.2943 0.0
C172 C 0.36686 0.3367 0.33867 0.0
C173 C 0.45794 0.41021 0.33107 0.0
O174 O 0.45262 0.38522 0.32364 0.0
O175 O 0.45264 0.41066 0.34578 0.0
H176 H 0.25308 0.28228 0.27597 0.0
H177 H 0.32302 0.21228 0.28295 0.0
H178 H 0.29239 0.17581 0.26728 0.0
H179 H 0.1869 0.23183 0.27755 0.0
H180 H 0.16644 0.25227 0.26248 0.0
H181 H 0.19326 0.27241 0.27479 0.0
H182 H 0.223 0.29126 0.25037 0.0
H183 H 0.19623 0.27128 0.23799 0.0
H184 H 0.23689 0.26355 0.23641 0.0
H185 H 0.25441 0.14725 0.25042 0.0
H186 H 0.2132 0.12963 0.2327 0.0
H187 H 0.16881 0.21876 0.23653 0.0
C188 C 0.26189 0.25923 0.2743 0.0
C189 C 0.29041 0.2501 0.28073 0.0
C190 C 0.30124 0.2198 0.27813 0.0
C191 C 0.28396 0.19888 0.26929 0.0
C192 C 0.25596 0.20865 0.26311 0.0
C193 C 0.24507 0.23815 0.26544 0.0
C194 C 0.21488 0.2433 0.25704 0.0
C195 C 0.18883 0.25036 0.26866 0.0
C196 C 0.21795 0.26885 0.24472 0.0
C197 C 0.21057 0.21215 0.24952 0.0
C198 C 0.23437 0.19239 0.25325 0.0
C199 C 0.23561 0.1625 0.24745 0.0
C200 C 0.21207 0.15268 0.23741 0.0
C201 C 0.18777 0.1728 0.23322 0.0
C202 C 0.187 0.20278 0.23952 0.0
H203 H 0.72089 0.80734 0.48296 0.0
H204 H 0.78449 0.8191 0.52151 0.0
H205 H 0.82681 0.79934 0.50511 0.0
H206 H 0.74898 0.73762 0.47047 0.0
H207 H 0.74404 0.74471 0.44991 0.0
H208 H 0.7198 0.76402 0.4638 0.0
H209 H 0.73614 0.81682 0.4525 0.0
H210 H 0.76031 0.79763 0.43845 0.0
H211 H 0.77645 0.82633 0.45119 0.0
H212 H 0.86067 0.77204 0.48564 0.0
H213 H 0.88343 0.74109 0.46434 0.0
H214 H 0.79767 0.74789 0.43861 0.0
C215 C 0.74386 0.80655 0.48784 0.0
C216 C 0.74935 0.81485 0.50351 0.0
C217 C 0.7797 0.81298 0.50952 0.0
C218 C 0.80393 0.80181 0.50028 0.0
C219 C 0.79752 0.79288 0.48503 0.0
C220 C 0.76827 0.79546 0.47879 0.0
C221 C 0.76688 0.78212 0.46252 0.0
C222 C 0.74356 0.75554 0.46164 0.0
C223 C 0.75952 0.80723 0.45045 0.0
C224 C 0.7996 0.77068 0.46078 0.0
C225 C 0.81705 0.77734 0.4738 0.0
C226 C 0.84738 0.76716 0.47526 0.0
C227 C 0.86009 0.74952 0.46314 0.0
C228 C 0.84242 0.7422 0.44978 0.0
C229 C 0.81196 0.75337 0.44857 0.0
H230 H 0.31481 0.26205 0.70845 0.0
H231 H 0.25834 0.34362 0.70271 0.0
H232 H 0.21626 0.31842 0.71739 0.0
H233 H 0.25463 0.20672 0.70416 0.0
H234 H 0.26994 0.18105 0.71874 0.0
H235 H 0.29549 0.20555 0.70781 0.0
H236 H 0.31693 0.22833 0.73353 0.0
H237 H 0.2917 0.20368 0.74453 0.0
H238 H 0.29067 0.24466 0.74757 0.0
H239 H 0.17994 0.28342 0.73236 0.0
H240 H 0.15412 0.24335 0.74812 0.0
H241 H 0.23522 0.18552 0.7441 0.0
C242 C 0.29365 0.27472 0.7103 0.0
C243 C 0.28983 0.30479 0.7044 0.0
C244 C 0.2618 0.32058 0.70716 0.0
C245 C 0.23773 0.3064 0.71541 0.0
C246 C 0.24215 0.27653 0.72087 0.0
C247 C 0.26955 0.26102 0.71855 0.0
C248 C 0.26883 0.22938 0.72585 0.0
C249 C 0.27243 0.2042 0.71339 0.0
C250 C 0.29349 0.22635 0.73863 0.0
C251 C 0.23674 0.22945 0.73268 0.0
C252 C 0.22157 0.25671 0.72961 0.0
C253 C 0.19163 0.26201 0.73485 0.0
C254 C 0.17711 0.23906 0.74373 0.0
C255 C 0.19266 0.21131 0.74736 0.0
C256 C 0.22269 0.20645 0.74155 0.0
H257 H 0.73436 0.81873 -0.0016 0.0
H258 H 0.68465 0.75186 0.97059 0.0
H259 H 0.70749 0.70987 0.98623 0.0
H260 H 0.80297 0.77758 0.00144 0.0
H261 H 0.81104 0.78883 0.02125 0.0
H262 H 0.78862 0.81361 0.00887 0.0
H263 H 0.74417 0.81346 0.02907 0.0
H264 H 0.76662 0.78894 0.04162 0.0
H265 H 0.72856 0.77735 0.03569 0.0
H266 H 0.73978 0.67503 0.0035 0.0
H267 H 0.77595 0.65065 0.0221 0.0
H268 H 0.80344 0.74091 0.03848 0.0
C269 C 0.72781 0.7953 -0.00426 0.0
C270 C 0.70772 0.7886 0.98327 0.0
C271 C 0.69989 0.75758 0.98015 0.0
C272 C 0.71281 0.73356 0.98894 0.0
C273 C 0.73325 0.74099 0.00088 0.0
C274 C 0.74035 0.77116 0.00441 0.0
C275 C 0.76373 0.77311 0.01742 0.0
C276 C 0.79333 0.78923 0.01191 0.0
C277 C 0.74993 0.78916 0.0318 0.0
C278 C 0.7692 0.73933 0.02047 0.0
C279 C 0.75141 0.72109 0.01086 0.0
C280 C 0.75355 0.6891 0.01121 0.0
C281 C 0.77425 0.67547 0.02175 0.0
C282 C 0.79244 0.69386 0.03178 0.0
C283 C 0.78972 0.72617 0.03106 0.0
H284 H 0.16447 0.25495 -0.00514 0.0
H285 H 0.23106 0.29227 0.02745 0.0
H286 H 0.27309 0.2672 0.01272 0.0
H287 H 0.19878 0.18273 -0.00966 0.0
H288 H 0.19031 0.17934 0.96983 0.0
H289 H 0.16582 0.20216 0.98219 0.0
H290 H 0.17412 0.24947 0.96428 0.0
H291 H 0.19837 0.22668 0.95175 0.0
H292 H 0.21274 0.26201 0.95993 0.0
H293 H 0.30741 0.23428 -0.00452 0.0
H294 H 0.33131 0.19947 0.97609 0.0
H295 H 0.2418 0.18484 0.9549 0.0
C296 C 0.18791 0.25828 -0.0012 0.0
C297 C 0.19446 0.27556 0.01232 0.0
C298 C 0.22548 0.27924 0.01708 0.0
C299 C 0.24951 0.26501 0.00882 0.0
C300 C 0.24213 0.24745 -0.00424 0.0
C301 C 0.2121 0.24441 -0.00933 0.0
C302 C 0.21008 0.22371 0.97655 0.0
C303 C 0.19007 0.19531 0.97994 0.0
C304 C 0.19813 0.24154 0.96228 0.0
C305 C 0.24358 0.21508 0.97464 0.0
C306 C 0.26179 0.22896 0.9858 0.0
C307 C 0.29341 0.22353 0.9866 0.0
C308 C 0.30675 0.20362 0.97559 0.0
C309 C 0.28845 0.1895 0.96396 0.0
C310 C 0.25649 0.19539 0.96357 0.0
H311 H 0.66521 0.70333 0.25731 0.0
H312 H 0.63607 0.77954 0.28644 0.0
H313 H 0.65862 0.81603 0.26751 0.0
H314 H 0.73636 0.73228 0.24765 0.0
H315 H 0.73666 0.71835 0.22786 0.0
H316 H 0.7145 0.6986 0.24247 0.0
H317 H 0.66524 0.70466 0.2257 0.0
H318 H 0.68735 0.72421 0.21092 0.0
H319 H 0.65374 0.74234 0.21916 0.0
H320 H 0.69042 0.84365 0.24707 0.0
H321 H 0.72637 0.85994 0.22622 0.0
H322 H 0.7335 0.76535 0.21058 0.0
C323 C 0.66288 0.72771 0.25955 0.0
C324 C 0.64885 0.73857 0.27335 0.0
C325 C 0.64657 0.77067 0.2759 0.0
C326 C 0.65933 0.79158 0.26522 0.0
C327 C 0.67392 0.78002 0.25198 0.0
C328 C 0.67536 0.74881 0.24902 0.0
C329 C 0.69407 0.74203 0.23455 0.0
C330 C 0.72205 0.72162 0.23837 0.0
C331 C 0.67389 0.72746 0.22183 0.0
C332 C 0.70382 0.7742 0.23008 0.0
C333 C 0.69183 0.79588 0.24018 0.0
C334 C 0.69949 0.82692 0.23893 0.0
C335 C 0.72 0.83595 0.2271 0.0
C336 C 0.73261 0.81396 0.21672 0.0
C337 C 0.724 0.78281 0.21819 0.0
H338 H 0.2947 0.18203 0.48681 0.0
H339 H 0.22606 0.1767 0.52355 0.0
H340 H 0.18557 0.19057 0.50461 0.0
H341 H 0.26466 0.24709 0.46836 0.0
H342 H 0.2733 0.23453 0.44881 0.0
H343 H 0.29636 0.22121 0.46487 0.0
H344 H 0.28515 0.16471 0.45719 0.0
H345 H 0.26217 0.17787 0.44102 0.0
H346 H 0.24583 0.15206 0.45524 0.0
H347 H 0.15317 0.2092 0.48203 0.0
H348 H 0.13153 0.2299 0.45747 0.0
H349 H 0.22158 0.22277 0.43576 0.0
C350 C 0.27109 0.18321 0.49084 0.0
C351 C 0.26357 0.17819 0.50667 0.0
C352 C 0.2324 0.18036 0.51148 0.0
C353 C 0.20922 0.18821 0.5008 0.0
C354 C 0.21753 0.19367 0.48535 0.0
C355 C 0.2477 0.19104 0.48036 0.0
C356 C 0.25086 0.19961 0.46333 0.0
C357 C 0.27257 0.22725 0.46123 0.0
C358 C 0.26164 0.17191 0.45362 0.0
C359 C 0.21789 0.20808 0.45959 0.0
C360 C 0.19893 0.20433 0.47239 0.0
C361 C 0.16774 0.21192 0.47187 0.0
C362 C 0.15567 0.22372 0.4579 0.0
C363 C 0.17481 0.22788 0.44468 0.0
C364 C 0.20624 0.21969 0.4456 0.0
H365 H 0.79081 0.81665 0.74888 0.0
H366 H 0.78472 0.75741 0.78956 0.0
H367 H 0.75102 0.72205 0.775 0.0
H368 H 0.71313 0.80857 0.73693 0.0
H369 H 0.72164 0.80846 0.71635 0.0
H370 H 0.74665 0.82838 0.72967 0.0
H371 H 0.79321 0.79679 0.71961 0.0
H372 H 0.76835 0.77688 0.70619 0.0
H373 H 0.79141 0.7554 0.71986 0.0
H374 H 0.71601 0.69423 0.75641 0.0
H375 H 0.6834 0.67542 0.73482 0.0
H376 H 0.71253 0.7527 0.70635 0.0
C377 C 0.78268 0.79608 0.75468 0.0
C378 C 0.79046 0.78982 0.77037 0.0
C379 C 0.77912 0.76273 0.77755 0.0
C380 C 0.75994 0.74246 0.76938 0.0
C381 C 0.75236 0.74953 0.75402 0.0
C382 C 0.76349 0.77559 0.7467 0.0
C383 C 0.75126 0.77821 0.73022 0.0
C384 C 0.73203 0.80765 0.72818 0.0
C385 C 0.77763 0.77672 0.71827 0.0
C386 C 0.73128 0.74975 0.72948 0.0
C387 C 0.73226 0.73347 0.74331 0.0
C388 C 0.71519 0.70669 0.74549 0.0
C389 C 0.69668 0.69622 0.73318 0.0
C390 C 0.69542 0.71253 0.71889 0.0
C391 C 0.71303 0.73962 0.71709 0.0
H392 H 0.08777 0.22694 0.16812 0.0
H393 H 0.08582 0.13663 0.14682 0.0
H394 H 0.08099 0.16052 0.1208 0.0
H395 H 0.0361 0.26703 0.13958 0.0
H396 H 0.05916 0.30144 0.13993 0.0
H397 H 0.05661 0.2775 0.15705 0.0
H398 H 0.11608 0.27305 0.15772 0.0
H399 H 0.11881 0.29682 0.14061 0.0
H400 H 0.13622 0.25921 0.14072 0.0
H401 H 0.08216 0.19339 0.09727 0.0
H402 H 0.09224 0.23295 0.07743 0.0
H403 H 0.09599 0.30257 0.11366 0.0
C404 C 0.0853 0.2123 0.15799 0.0
C405 C 0.08667 0.18 0.15941 0.0
C406 C 0.08457 0.16143 0.14592 0.0
C407 C 0.08166 0.17479 0.13113 0.0
C408 C 0.08115 0.20673 0.13004 0.0
C409 C 0.08301 0.22531 0.14309 0.0
C410 C 0.08589 0.25887 0.13853 0.0
C411 C 0.05776 0.27729 0.1441 0.0
C412 C 0.11604 0.27279 0.14476 0.0
C413 C 0.08637 0.25612 0.12091 0.0
C414 C 0.08293 0.22589 0.1163 0.0
C415 C 0.08448 0.2172 0.1007 0.0
C416 C 0.09033 0.23989 0.08952 0.0
C417 C 0.09491 0.27092 0.09397 0.0
C418 C 0.09224 0.27915 0.10987 0.0
H419 H 0.69593 0.67445 0.35569 0.0
H420 H 0.70461 0.59147 0.32794 0.0
H421 H 0.75142 0.5773 0.3427 0.0
H422 H 0.77414 0.69233 0.35666 0.0
H423 H 0.77378 0.70677 0.37636 0.0
H424 H 0.73942 0.70865 0.36471 0.0
H425 H 0.70937 0.67857 0.38594 0.0
H426 H 0.74365 0.67678 0.39773 0.0
H427 H 0.72374 0.64193 0.39255 0.0
H428 H 0.79977 0.57438 0.35943 0.0
H429 H 0.84464 0.58288 0.37671 0.0
H430 H 0.80338 0.66801 0.39292 0.0
C431 C 0.70729 0.65301 0.35285 0.0
C432 C 0.69651 0.63404 0.34068 0.0
C433 C 0.71235 0.60634 0.33727 0.0
C434 C 0.73896 0.59808 0.34559 0.0
C435 C 0.74931 0.6177 0.35731 0.0
C436 C 0.7338 0.6445 0.36098 0.0
C437 C 0.75038 0.66253 0.37347 0.0
C438 C 0.76 0.69445 0.36743 0.0
C439 C 0.7306 0.66509 0.3883 0.0
C440 C 0.77799 0.64203 0.37606 0.0
C441 C 0.77697 0.61614 0.36676 0.0
C442 C 0.80066 0.59445 0.36686 0.0
C443 C 0.82606 0.59949 0.37669 0.0
C444 C 0.82759 0.6261 0.38617 0.0
C445 C 0.80301 0.64739 0.38586 0.0
H446 H 0.35559 0.23223 0.57498 0.0
H447 H 0.45088 0.20204 0.57427 0.0
H448 H 0.46211 0.23623 0.59662 0.0
H449 H 0.37021 0.31119 0.58452 0.0
H450 H 0.3369 0.31445 0.59696 0.0
H451 H 0.33668 0.28792 0.58085 0.0
H452 H 0.32346 0.24317 0.59969 0.0
H453 H 0.3234 0.26959 0.61583 0.0
H454 H 0.34781 0.23609 0.61633 0.0
H455 H 0.46237 0.27375 0.61943 0.0
H456 H 0.45114 0.30927 0.64124 0.0
H457 H 0.35575 0.31431 0.62634 0.0
C458 C 0.37887 0.23273 0.57947 0.0
C459 C 0.40236 0.21444 0.57284 0.0
C460 C 0.43248 0.21581 0.57916 0.0
C461 C 0.4391 0.23524 0.59181 0.0
C462 C 0.41536 0.25311 0.59798 0.0
C463 C 0.38584 0.25188 0.59203 0.0
C464 C 0.3642 0.27281 0.60086 0.0
C465 C 0.35125 0.29809 0.59016 0.0
C466 C 0.3382 0.2543 0.60864 0.0
C467 C 0.38607 0.28595 0.61281 0.0
C468 C 0.41552 0.27449 0.61096 0.0
C469 C 0.4394 0.28293 0.62094 0.0
C470 C 0.43282 0.30319 0.63327 0.0
C471 C 0.40258 0.31467 0.63551 0.0
C472 C 0.37915 0.30615 0.62495 0.0
H473 H 0.69326 0.91052 0.88601 0.0
H474 H 0.75936 0.86341 0.91559 0.0
H475 H 0.799 0.86932 0.89534 0.0
H476 H 0.71587 0.87625 0.85119 0.0
H477 H 0.71085 0.90986 0.83915 0.0
H478 H 0.68849 0.90549 0.85667 0.0
H479 H 0.70829 0.95808 0.86664 0.0
H480 H 0.73076 0.96263 0.8491 0.0
H481 H 0.74914 0.96488 0.86791 0.0
H482 H 0.82958 0.87436 0.87107 0.0
H483 H 0.84943 0.87927 0.8442 0.0
H484 H 0.76471 0.92452 0.83031 0.0
C485 C 0.71624 0.90204 0.88835 0.0
C486 C 0.72314 0.88653 0.90242 0.0
C487 C 0.75342 0.87536 0.90492 0.0
C488 C 0.77621 0.87871 0.89351 0.0
C489 C 0.76853 0.89352 0.87967 0.0
C490 C 0.73938 0.90522 0.87705 0.0
C491 C 0.73669 0.91818 0.86068 0.0
C492 C 0.71149 0.90144 0.85138 0.0
C493 C 0.73088 0.95302 0.86112 0.0
C494 C 0.76853 0.91097 0.8544 0.0
C495 C 0.78658 0.89698 0.86561 0.0
C496 C 0.81593 0.88584 0.86226 0.0
C497 C 0.82697 0.88864 0.84697 0.0
C498 C 0.80876 0.90259 0.83525 0.0
C499 C 0.77943 0.91443 0.83913 0.0
H500 H 0.57729 0.73445 0.64077 0.0
H501 H 0.64118 0.65932 0.63275 0.0
H502 H 0.64973 0.67773 0.60588 0.0
H503 H 0.54498 0.73769 0.60077 0.0
H504 H 0.54293 0.77907 0.60088 0.0
H505 H 0.53884 0.75792 0.61885 0.0
H506 H 0.58346 0.78936 0.63094 0.0
H507 H 0.58783 0.81043 0.61301 0.0
H508 H 0.62027 0.79028 0.62122 0.0
H509 H 0.65485 0.70624 0.58098 0.0
H510 H 0.65646 0.74319 0.55929 0.0
H511 H 0.58996 0.80094 0.58332 0.0
C512 C 0.59249 0.72146 0.63322 0.0
C513 C 0.60841 0.6953 0.6388 0.0
C514 C 0.62869 0.67935 0.62871 0.0
C515 C 0.63363 0.68958 0.61342 0.0
C516 C 0.61816 0.71583 0.6084 0.0
C517 C 0.59793 0.73155 0.61795 0.0
C518 C 0.58611 0.76044 0.61004 0.0
C519 C 0.55114 0.75866 0.60748 0.0
C520 C 0.59496 0.78932 0.61936 0.0
C521 C 0.6034 0.75881 0.5947 0.0
C522 C 0.62148 0.73269 0.59398 0.0
C523 C 0.64057 0.72662 0.58132 0.0
C524 C 0.64138 0.74788 0.56908 0.0
C525 C 0.62332 0.77503 0.56956 0.0
C526 C 0.60387 0.78033 0.58253 0.0
H527 H 0.27914 0.07718 0.88253 0.0
H528 H 0.30625 0.17274 0.88775 0.0
H529 H 0.27224 0.18703 0.86601 0.0
H530 H 0.27431 0.0786 0.83983 0.0
H531 H 0.24144 0.05337 0.83928 0.0
H532 H 0.2689 0.05029 0.85494 0.0
H533 H 0.22483 0.0574 0.875 0.0
H534 H 0.1973 0.06093 0.85941 0.0
H535 H 0.20051 0.09092 0.87381 0.0
H536 H 0.23327 0.19187 0.84515 0.0
H537 H 0.19531 0.18643 0.82412 0.0
H538 H 0.19382 0.08756 0.83142 0.0
C539 C 0.27825 0.10104 0.87896 0.0
C540 C 0.2954 0.12382 0.8869 0.0
C541 C 0.29345 0.15482 0.88188 0.0
C542 C 0.27408 0.16323 0.86957 0.0
C543 C 0.25695 0.14039 0.86228 0.0
C544 C 0.25913 0.10987 0.86658 0.0
C545 C 0.23807 0.09001 0.8567 0.0
C546 C 0.2568 0.06669 0.84712 0.0
C547 C 0.21374 0.07387 0.86684 0.0
C548 C 0.22356 0.11425 0.84631 0.0
C549 C 0.23471 0.14313 0.84985 0.0
C550 C 0.22452 0.16936 0.84215 0.0
C551 C 0.20279 0.16598 0.83026 0.0
C552 C 0.19156 0.13654 0.82604 0.0
C553 C 0.20194 0.11037 0.83433 0.0
H554 H 0.82356 0.77521 0.15474 0.0
H555 H 0.91686 0.80774 0.16211 0.0
H556 H 0.93619 0.76808 0.14388 0.0
H557 H 0.8426 0.69324 0.15121 0.0
H558 H 0.81393 0.68711 0.13636 0.0
H559 H 0.80803 0.7162 0.15101 0.0
H560 H 0.80051 0.75722 0.12939 0.0
H561 H 0.80627 0.7283 0.11471 0.0
H562 H 0.83 0.76227 0.1148 0.0
H563 H 0.94444 0.7279 0.12287 0.0
H564 H 0.94083 0.69113 0.10097 0.0
H565 H 0.84213 0.68466 0.10823 0.0
C566 C 0.84812 0.77384 0.1527 0.0
C567 C 0.8687 0.79462 0.15985 0.0
C568 C 0.90066 0.79201 0.1568 0.0
C569 C 0.91186 0.76952 0.14649 0.0
C570 C 0.89082 0.74963 0.13951 0.0
C571 C 0.85964 0.75151 0.14257 0.0
C572 C 0.84155 0.72865 0.13299 0.0
C573 C 0.82559 0.70489 0.14353 0.0
C574 C 0.81823 0.7451 0.12234 0.0
C575 C 0.8673 0.71415 0.12368 0.0
C576 C 0.89561 0.72631 0.12767 0.0
C577 C 0.92246 0.71789 0.11983 0.0
C578 C 0.92018 0.697 0.1074 0.0
C579 C 0.89124 0.68482 0.10294 0.0
C580 C 0.86468 0.6931 0.11148 0.0
H581 H 0.20517 0.35687 0.38055 0.0
H582 H 0.18036 0.26772 0.36167 0.0
H583 H 0.22718 0.26806 0.34547 0.0
H584 H 0.24257 0.38744 0.34401 0.0
H585 H 0.27199 0.40683 0.35507 0.0
H586 H 0.234 0.40207 0.3632 0.0
H587 H 0.25769 0.37556 0.38745 0.0
H588 H 0.29563 0.37991 0.37936 0.0
H589 H 0.28198 0.34232 0.38486 0.0
H590 H 0.28036 0.27334 0.33525 0.0
H591 H 0.33474 0.28498 0.33025 0.0
H592 H 0.32473 0.37232 0.35403 0.0
C593 C 0.20906 0.33788 0.37264 0.0
C594 C 0.18901 0.3123 0.37237 0.0
C595 C 0.1953 0.28761 0.36208 0.0
C596 C 0.22184 0.2876 0.35279 0.0
C597 C 0.24172 0.3126 0.35377 0.0
C598 C 0.23548 0.33752 0.36326 0.0
C599 C 0.26197 0.36019 0.36317 0.0
C600 C 0.25203 0.39096 0.35593 0.0
C601 C 0.27508 0.36474 0.37969 0.0
C602 C 0.28456 0.34343 0.35272 0.0
C603 C 0.27227 0.31619 0.34729 0.0
C604 C 0.28982 0.29522 0.33883 0.0
C605 C 0.3207 0.30231 0.33578 0.0
C606 C 0.33365 0.33038 0.3409 0.0
C607 C 0.31522 0.35112 0.34951 0.0
H608 H 0.00582 0.06536 0.22244 0.0
H609 H 0.05544 0.05988 0.1786 0.0
H610 H 0.02216 0.01689 0.17029 0.0
H611 H -0.00272 0.98232 0.22704 0.0
H612 H 0.95966 0.9853 0.23581 0.0
H613 H 0.98714 0.01592 0.23822 0.0
H614 H 0.94765 0.05471 0.22699 0.0
H615 H 0.92012 0.0242 0.22446 0.0
H616 H 0.931 0.04777 0.20806 0.0
H617 H 0.98089 0.97771 0.16589 0.0
H618 H 0.93859 0.93973 0.16706 0.0
H619 H 0.91922 0.9666 0.21476 0.0
C620 C 0.00968 0.05496 0.21113 0.0
C621 C 0.03301 0.06593 0.20109 0.0
C622 C 0.03772 0.05166 0.18645 0.0
C623 C 0.01887 0.02736 0.18162 0.0
C624 C -0.00411 0.0172 0.19171 0.0
C625 C 0.99161 0.03008 0.20629 0.0
C626 C 0.96592 0.01404 0.21507 0.0
C627 C 0.97825 -0.00153 0.22991 0.0
C628 C 0.93962 0.03653 0.21886 0.0
C629 C 0.95611 0.99052 0.20304 0.0
C630 C 0.97342 0.99307 0.18957 0.0
C631 C 0.96749 0.97513 0.17646 0.0
C632 C 0.94339 0.95378 0.17719 0.0
C633 C 0.92603 0.95014 0.19104 0.0
C634 C 0.93255 0.96866 0.20413 0.0
H635 H 0.05432 0.42048 0.39617 0.0
H636 H 0.07635 0.41176 0.44533 0.0
H637 H 0.0462 0.45872 0.45091 0.0
H638 H 0.06048 0.5035 0.3949 0.0
H639 H 0.02946 0.50785 0.38112 0.0
H640 H 0.05238 0.47334 0.3811 0.0
H641 H 0.00297 0.44062 0.38439 0.0
H642 H 0.97992 0.47503 0.38449 0.0
H643 H 0.9774 0.44827 0.4005 0.0
H644 H 0.0112 0.50501 0.45125 0.0
H645 H 0.97823 0.55024 0.44602 0.0
H646 H 0.98225 0.53076 0.39643 0.0
C647 C 0.0528 0.42849 0.4081 0.0
C648 C 0.06749 0.41243 0.42034 0.0
C649 C 0.0653 0.42378 0.43578 0.0
C650 C 0.04815 0.45034 0.43907 0.0
C651 C 0.03376 0.46553 0.42675 0.0
C652 C 0.03629 0.45528 0.41155 0.0
C653 C 0.01936 0.47631 0.40038 0.0
C654 C 0.04176 0.49113 0.38869 0.0
C655 C 0.99337 0.45902 0.39195 0.0
C656 C 0.00662 0.49982 0.41169 0.0
C657 C 0.0149 0.49301 0.42686 0.0
C658 C 0.00484 0.51075 0.4394 0.0
C659 C 0.98605 0.5363 0.43633 0.0
C660 C 0.97793 0.54408 0.42083 0.0
C661 C 0.98842 0.52556 0.40839 0.0
H662 H 0.49674 0.5959 0.68429 0.0
H663 H 0.58758 0.56578 0.69887 0.0
H664 H 0.56939 0.51201 0.69932 0.0
H665 H 0.45314 0.54214 0.70731 0.0
H666 H 0.42433 0.53612 0.69251 0.0
H667 H 0.4444 0.57227 0.69356 0.0
H668 H 0.46133 0.56634 0.66472 0.0
H669 H 0.44133 0.53018 0.66359 0.0
H670 H 0.48167 0.53217 0.65877 0.0
H671 H 0.54107 0.46159 0.69853 0.0
H672 H 0.5052 0.41795 0.69568 0.0
H673 H 0.4333 0.48085 0.68084 0.0
C674 C 0.5128 0.57802 0.68763 0.0
C675 C 0.54357 0.58506 0.69161 0.0
C676 C 0.56391 0.56095 0.69578 0.0
C677 C 0.55378 0.53034 0.69609 0.0
C678 C 0.52331 0.5242 0.6921 0.0
C679 C 0.50315 0.54733 0.68787 0.0
C680 C 0.47174 0.53451 0.68383 0.0
C681 C 0.44694 0.547 0.69497 0.0
C682 C 0.46355 0.54119 0.66671 0.0
C683 C 0.47735 0.50055 0.68648 0.0
C684 C 0.5072 0.4951 0.69132 0.0
C685 C 0.51767 0.46556 0.6947 0.0
C686 C 0.4971 0.44093 0.69306 0.0
C687 C 0.46647 0.44595 0.68799 0.0
C688 C 0.4566 0.47622 0.68466 0.0
H689 H 0.44824 0.04159 0.9307 0.0
H690 H 0.38116 0.97239 0.91764 0.0
H691 H 0.42287 0.93411 0.91499 0.0
H692 H 0.51045 0.01558 0.90535 0.0
H693 H 0.53992 0.02346 0.91957 0.0
H694 H 0.50508 0.04595 0.91938 0.0
H695 H 0.49539 0.03216 0.94839 0.0
H696 H 0.53017 0.00964 0.94866 0.0
H697 H 0.49407 0.99233 0.95417 0.0
H698 H 0.4717 0.90308 0.91434 0.0
H699 H 0.52374 0.88083 0.91705 0.0
H700 H 0.55871 0.96979 0.93152 0.0
C701 C 0.44237 0.01848 0.9271 0.0
C702 C 0.41148 0.01 0.92427 0.0
C703 C 0.40468 0.97939 0.91984 0.0
C704 C 0.42822 0.95752 0.91826 0.0
C705 C 0.45841 0.96656 0.92125 0.0
C706 C 0.46554 -0.00374 0.92565 0.0
C707 C 0.49962 -0.00039 0.92899 0.0
C708 C 0.51465 0.02251 0.91764 0.0
C709 C 0.50512 0.00898 0.94607 0.0
C710 C 0.51049 0.96708 0.92592 0.0
C711 C 0.48642 0.94847 0.92129 0.0
C712 C 0.49074 0.91744 0.91793 0.0
C713 C 0.5204 0.90503 0.91949 0.0
C714 C 0.5453 0.92354 0.92452 0.0
C715 C 0.54017 0.95502 0.92766 0.0
H716 H -0.00192 0.56886 0.06147 0.0
H717 H 0.91193 0.52456 0.04932 0.0
H718 H 0.93806 0.47404 0.04938 0.0
H719 H 0.0482 0.52077 0.03893 0.0
H720 H 0.07826 0.52004 0.05341 0.0
H721 H 0.0529 0.5527 0.0521 0.0
H722 H 0.03829 0.54615 0.08123 0.0
H723 H 0.06366 0.51351 0.08264 0.0
H724 H 0.0237 0.50971 0.08799 0.0
H725 H 0.97418 0.42869 0.04972 0.0
H726 H 0.01661 0.39119 0.05252 0.0
H727 H 0.0783 0.46481 0.06612 0.0
C728 C 0.98474 0.54853 0.05879 0.0
C729 C 0.95304 0.55058 0.05528 0.0
C730 C 0.93625 0.52345 0.05204 0.0
C731 C 0.9509 0.4947 0.052 0.0
C732 C 0.98223 0.49348 0.05545 0.0
C733 C -0.00113 0.51963 0.05897 0.0
C734 C 0.03204 0.51193 0.06277 0.0
C735 C 0.05415 0.52727 0.0511 0.0
C736 C 0.03987 0.52085 0.07966 0.0
C737 C 0.03153 0.47738 0.06071 0.0
C738 C 0.00267 0.46723 0.05633 0.0
C739 C -0.00319 0.43634 0.05327 0.0
C740 C 0.02106 0.41524 0.05484 0.0
C741 C 0.05064 0.42509 0.05963 0.0
C742 C 0.05583 0.45658 0.0626 0.0
H743 H 0.54028 0.57321 0.32725 0.0
H744 H 0.56547 0.55177 0.27948 0.0
H745 H 0.53384 0.50465 0.28072 0.0
H746 H 0.54565 0.49807 0.34134 0.0
H747 H 0.51367 0.50115 0.35467 0.0
H748 H 0.53523 0.53488 0.34942 0.0
H749 H 0.48507 0.56155 0.34017 0.0
H750 H 0.46331 0.52784 0.34543 0.0
H751 H 0.46112 0.54291 0.32587 0.0
H752 H 0.50252 0.4581 0.28781 0.0
H753 H 0.47544 0.41484 0.30044 0.0
H754 H 0.47177 0.46634 0.34376 0.0
C755 C 0.53867 0.55893 0.31695 0.0
C756 C 0.55516 0.56626 0.30323 0.0
C757 C 0.55294 0.54665 0.2901 0.0
C758 C 0.53496 0.5199 0.29067 0.0
C759 C 0.51937 0.5131 0.30447 0.0
C760 C 0.52106 0.53206 0.31737 0.0
C761 C 0.50403 0.51842 0.33114 0.0
C762 C 0.52596 0.51279 0.34495 0.0
C763 C 0.47676 0.5389 0.33593 0.0
C764 C 0.49308 0.4885 0.32409 0.0
C765 C 0.50179 0.48604 0.30863 0.0
C766 C 0.49533 0.45989 0.29986 0.0
C767 C 0.47995 0.43543 0.30715 0.0
C768 C 0.47144 0.4372 0.32308 0.0
C769 C 0.47777 0.46433 0.33154 0.0
H770 H 0.4959 0.0725 0.53484 0.0
H771 H 0.40452 0.03225 0.53474 0.0
H772 H 0.42756 0.98034 0.53588 0.0
H773 H 0.53265 0.0163 0.51116 0.0
H774 H 0.56818 0.01651 0.522 0.0
H775 H 0.54449 0.05046 0.52142 0.0
H776 H 0.54252 0.05131 0.55163 0.0
H777 H 0.56627 0.01738 0.55231 0.0
H778 H 0.52946 0.01773 0.56203 0.0
H779 H 0.4607 0.9328 0.53538 0.0
H780 H 0.50148 0.89312 0.53513 0.0
H781 H 0.57109 0.96447 0.5371 0.0
C782 C 0.48073 0.05277 0.5351 0.0
C783 C 0.44841 0.05639 0.53463 0.0
C784 C 0.42934 0.03001 0.53512 0.0
C785 C 0.44221 0.00044 0.53574 0.0
C786 C 0.47417 -0.00232 0.53608 0.0
C787 C 0.49317 0.02313 0.53596 0.0
C788 C 0.52678 0.01387 0.53655 0.0
C789 C 0.54403 0.02494 0.52191 0.0
C790 C 0.54215 0.02578 0.55152 0.0
C791 C 0.52374 0.9792 0.53678 0.0
C792 C 0.4932 0.97032 0.53642 0.0
C793 C 0.48468 0.93947 0.53585 0.0
C794 C 0.50798 0.91712 0.53566 0.0
C795 C 0.5394 0.92572 0.53622 0.0
C796 C 0.54726 0.95719 0.53688 0.0
H797 H 0.90911 0.0052 0.78585 0.0
H798 H 0.94227 0.91146 0.78139 0.0
H799 H -0.00412 0.93027 0.78208 0.0
H800 H 0.96644 0.04049 0.76185 0.0
H801 H 0.96966 0.07441 0.77379 0.0
H802 H 0.93393 0.05349 0.77316 0.0
H803 H 0.93499 0.04783 0.80325 0.0
H804 H 0.97076 0.0687 0.80397 0.0
H805 H 0.96819 0.03092 0.81251 0.0
H806 H 0.04589 0.95946 0.78248 0.0
H807 H 0.08865 -0.00317 0.78298 0.0
H808 H 0.02283 0.07138 0.7878 0.0
C809 C 0.92762 0.9886 0.78502 0.0
C810 C 0.92147 0.95684 0.78353 0.0
C811 C 0.94639 0.9359 0.78254 0.0
C812 C 0.97693 0.94636 0.78293 0.0
C813 C 0.98218 0.97781 0.7844 0.0
C814 C 0.95823 -0.00138 0.78549 0.0
C815 C 0.97012 0.03122 0.78694 0.0
C816 C 0.9594 0.05106 0.77311 0.0
C817 C 0.96044 0.0455 0.8026 0.0
C818 C 0.0045 0.02552 0.78636 0.0
C819 C 0.01098 0.99456 0.78488 0.0
C820 C 0.0411 0.98375 0.78372 0.0
C821 C 0.06523 0.00516 0.784 0.0
C822 C 0.05912 0.03702 0.78549 0.0
C823 C 0.0283 0.04718 0.78678 0.0
loop_
_geom_bond_atom_site_label_1
_geom_bond_atom_site_label_2
_geom_bond_distance
_geom_bond_site_symmetry_2
_ccdc_geom_bond_type
O0 Cd1 2.300 . S
O0 C7 1.275 . S
Cd1 O0 2.300 . S
Cd1 O9 2.381 . S
Cd1 O10 2.378 . S
O2 Cd3 2.385 . S
O2 C7 1.255 . S
Cd3 O2 2.385 . S
Cd3 O4 2.317 . S
O4 Cd3 2.317 . S
O4 C5 1.232 . S
C5 O4 1.232 . S
C5 O6 1.218 . S
O6 C5 1.218 . S
C7 O0 1.275 . S
C7 O2 1.255 . S
C8 O9 1.258 . S
C8 O10 1.256 . S
O9 Cd1 2.381 . S
O9 C8 1.258 . S
O10 Cd1 2.378 . S
O10 C8 1.256 . S
O11 Cd12 2.300 . S
O11 C18 1.275 . S
Cd12 O11 2.300 . S
Cd12 O20 2.381 . S
Cd12 O21 2.378 . S
O13 Cd14 2.385 . S
O13 C18 1.255 . S
Cd14 O13 2.385 . S
Cd14 O15 2.317 . S
O15 Cd14 2.317 . S
O15 C16 1.232 . S
C16 O15 1.232 . S
C16 O17 1.218 . S
O17 C16 1.218 . S
C18 O11 1.275 . S
C18 O13 1.255 . S
C19 O20 1.258 . S
C19 O21 1.256 . S
O20 Cd12 2.381 . S
O20 C19 1.258 . S
O21 Cd12 2.378 . S
O21 C19 1.256 . S
O22 Cd23 2.300 . S
O22 C29 1.275 . S
Cd23 O22 2.300 . S
Cd23 O31 2.381 . S
Cd23 O32 2.378 . S
O24 Cd25 2.385 . S
O24 C29 1.255 . S
Cd25 O24 2.385 . S
Cd25 O26 2.317 . S
O26 Cd25 2.317 . S
O26 C27 1.232 . S
C27 O26 1.232 . S
C27 O28 1.218 . S
O28 C27 1.218 . S
C29 O22 1.275 . S
C29 O24 1.255 . S
C30 O31 1.258 . S
C30 O32 1.256 . S
O31 Cd23 2.381 . S
O31 C30 1.258 . S
O32 Cd23 2.378 . S
O32 C30 1.256 . S
O33 Cd34 2.300 . S
O33 C40 1.275 . S
Cd34 O33 2.300 . S
Cd34 O42 2.381 . S
Cd34 O43 2.378 . S
O35 Cd36 2.385 . S
O35 C40 1.255 . S
Cd36 O35 2.385 . S
Cd36 O37 2.317 . S
O37 Cd36 2.317 . S
O37 C38 1.232 . S
C38 O37 1.232 . S
C38 O39 1.218 . S
O39 C38 1.218 . S
C40 O33 1.275 . S
C40 O35 1.255 . S
C41 O42 1.258 . S
C41 O43 1.256 . S
O42 Cd34 2.381 . S
O42 C41 1.258 . S
O43 Cd34 2.378 . S
O43 C41 1.256 . S
O44 Cd45 2.300 . S
O44 C51 1.275 . S
Cd45 O44 2.300 . S
Cd45 O53 2.381 . S
Cd45 O54 2.378 . S
O46 Cd47 2.385 . S
O46 C51 1.255 . S
Cd47 O46 2.385 . S
Cd47 O48 2.317 . S
O48 Cd47 2.317 . S
O48 C49 1.232 . S
C49 O48 1.232 . S
C49 O50 1.218 . S
O50 C49 1.218 . S
C51 O44 1.275 . S
C51 O46 1.255 . S
C52 O53 1.258 . S
C52 O54 1.256 . S
O53 Cd45 2.381 . S
O53 C52 1.258 . S
O54 Cd45 2.378 . S
O54 C52 1.256 . S
O55 Cd56 2.300 . S
O55 C62 1.275 . S
Cd56 O55 2.300 . S
Cd56 O64 2.381 . S
Cd56 O65 2.378 . S
O57 Cd58 2.385 . S
O57 C62 1.255 . S
Cd58 O57 2.385 . S
Cd58 O59 2.317 . S
O59 Cd58 2.317 . S
O59 C60 1.232 . S
C60 O59 1.232 . S
C60 O61 1.218 . S
O61 C60 1.218 . S
C62 O55 1.275 . S
C62 O57 1.255 . S
C63 O64 1.258 . S
C63 O65 1.256 . S
O64 Cd56 2.381 . S
O64 C63 1.258 . S
O65 Cd56 2.378 . S
O65 C63 1.256 . S
O66 Cd67 2.300 . S
O66 C73 1.275 . S
Cd67 O66 2.300 . S
Cd67 O75 2.381 . S
Cd67 O76 2.378 . S
O68 Cd69 2.385 . S
O68 C73 1.255 . S
Cd69 O68 2.385 . S
Cd69 O70 2.317 . S
O70 Cd69 2.317 . S
O70 C71 1.232 . S
C71 O70 1.232 . S
C71 O72 1.218 . S
O72 C71 1.218 . S
C73 O66 1.275 . S
C73 O68 1.255 . S
C74 O75 1.258 . S
C74 O76 1.256 . S
O75 Cd67 2.381 . S
O75 C74 1.258 . S
O76 Cd67 2.378 . S
O76 C74 1.256 . S
O77 Cd78 2.300 . S
O77 C84 1.275 . S
Cd78 O77 2.300 . S
Cd78 O86 2.381 . S
Cd78 O87 2.378 . S
O79 Cd80 2.385 . S
O79 C84 1.255 . S
Cd80 O79 2.385 . S
Cd80 O81 2.317 . S
O81 Cd80 2.317 . S
O81 C82 1.232 . S
C82 O81 1.232 . S
C82 O83 1.218 . S
O83 C82 1.218 . S
C84 O77 1.275 . S
C84 O79 1.255 . S
C85 O86 1.258 . S
C85 O87 1.256 . S
O86 Cd78 2.381 . S
O86 C85 1.258 . S
O87 Cd78 2.378 . S
O87 C85 1.256 . S
O88 Cd89 2.300 . S
O88 C95 1.275 . S
Cd89 O88 2.300 . S
Cd89 O97 2.381 . S
Cd89 O98 2.378 . S
O90 Cd91 2.385 . S
O90 C95 1.255 . S
Cd91 O90 2.385 . S
Cd91 O92 2.317 . S
O92 Cd91 2.317 . S
O92 C93 1.232 . S
C93 O92 1.232 . S
C93 O94 1.218 . S
O94 C93 1.218 . S
C95 O88 1.275 . S
C95 O90 1.255 . S
C96 O97 1.258 . S
C96 O98 1.256 . S
O97 Cd89 2.381 . S
O97 C96 1.258 . S
O98 Cd89 2.378 . S
O98 C96 1.256 . S
O99 Cd100 2.300 . S
O99 C106 1.275 . S
Cd100 O99 2.300 . S
Cd100 O108 2.381 . S
Cd100 O109 2.378 . S
O101 Cd102 2.385 . S
O101 C106 1.255 . S
Cd102 O101 2.385 . S
Cd102 O103 2.317 . S
O103 Cd102 2.317 . S
O103 C104 1.232 . S
C104 O103 1.232 . S
C104 O105 1.218 . S
O105 C104 1.218 . S
C106 O99 1.275 . S
C106 O101 1.255 . S
C107 O108 1.258 . S
C107 O109 1.256 . S
O108 Cd100 2.381 . S
O108 C107 1.258 . S
O109 Cd100 2.378 . S
O109 C107 1.256 . S
O110 Cd111 2.300 . S
O110 C117 1.275 . S
Cd111 O110 2.300 . S
Cd111 O119 2.381 . S
Cd111 O120 2.378 . S
O112 Cd113 2.385 . S
O112 C117 1.255 . S
Cd113 O112 2.385 . S
Cd113 O114 2.317 . S
O114 Cd113 2.317 . S
O114 C115 1.232 . S
C115 O114 1.232 . S
C115 O116 1.218 . S
O116 C115 1.218 . S
C117 O110 1.275 . S
C117 O112 1.255 . S
C118 O119 1.258 . S
C118 O120 1.256 . S
O119 Cd111 2.381 . S
O119 C118 1.258 . S
O120 Cd111 2.378 . S
O120 C118 1.256 . S
O121 Cd122 2.300 . S
O121 C128 1.275 . S
Cd122 O121 2.300 . S
Cd122 O130 2.381 . S
Cd122 O131 2.378 . S
O123 Cd124 2.385 . S
O123 C128 1.255 . S
Cd124 O123 2.385 . S
Cd124 O125 2.317 . S
O125 Cd124 2.317 . S
O125 C126 1.232 . S
C126 O125 1.232 . S
C126 O127 1.218 . S
O127 C126 1.218 . S
C128 O121 1.275 . S
C128 O123 1.255 . S
C129 O130 1.258 . S
C129 O131 1.256 . S
O130 Cd122 2.381 . S
O130 C129 1.258 . S
O131 Cd122 2.378 . S
O131 C129 1.256 . S
O132 Cd133 2.300 . S
O132 C139 1.275 . S
Cd133 O132 2.300 . S
Cd133 O141 2.381 . S
Cd133 O142 2.378 . S
O134 Cd135 2.385 . S
O134 C139 1.255 . S
Cd135 O134 2.385 . S
Cd135 O136 2.317 . S
O136 Cd135 2.317 . S
O136 C137 1.232 . S
C137 O136 1.232 . S
C137 O138 1.218 . S
O138 C137 1.218 . S
C139 O132 1.275 . S
C139 O134 1.255 . S
C140 O141 1.258 . S
C140 O142 1.256 . S
O141 Cd133 2.381 . S
O141 C140 1.258 . S
O142 Cd133 2.378 . S
O142 C140 1.256 . S
O143 Cd144 2.300 . S
O143 C150 1.275 . S
Cd144 O143 2.300 . S
Cd144 O152 2.381 . S
Cd144 O153 2.378 . S
O145 Cd146 2.385 . S
O145 C150 1.255 . S
Cd146 O145 2.385 . S
Cd146 O147 2.317 . S
O147 Cd146 2.317 . S
O147 C148 1.232 . S
C148 O147 1.232 . S
C148 O149 1.218 . S
O149 C148 1.218 . S
C150 O143 1.275 . S
C150 O145 1.255 . S
C151 O152 1.258 . S
C151 O153 1.256 . S
O152 Cd144 2.381 . S
O152 C151 1.258 . S
O153 Cd144 2.378 . S
O153 C151 1.256 . S
O154 Cd155 2.300 . S
O154 C161 1.275 . S
Cd155 O154 2.300 . S
Cd155 O163 2.381 . S
Cd155 O164 2.378 . S
O156 Cd157 2.385 . S
O156 C161 1.255 . S
Cd157 O156 2.385 . S
Cd157 O158 2.317 . S
O158 Cd157 2.317 . S
O158 C159 1.232 . S
C159 O158 1.232 . S
C159 O160 1.218 . S
O160 C159 1.218 . S
C161 O154 1.275 . S
C161 O156 1.255 . S
C162 O163 1.258 . S
C162 O164 1.256 . S
O163 Cd155 2.381 . S
O163 C162 1.258 . S
O164 Cd155 2.378 . S
O164 C162 1.256 . S
O165 Cd166 2.300 . S
O165 C172 1.275 . S
Cd166 O165 2.300 . S
Cd166 O174 2.381 . S
Cd166 O175 2.378 . S
O167 Cd168 2.385 . S
O167 C172 1.255 . S
Cd168 O167 2.385 . S
Cd168 O169 2.317 . S
O169 Cd168 2.317 . S
O169 C170 1.232 . S
C170 O169 1.232 . S
C170 O171 1.218 . S
O171 C170 1.218 . S
C172 O165 1.275 . S
C172 O167 1.255 . S
C173 O174 1.258 . S
C173 O175 1.256 . S
O174 Cd166 2.381 . S
O174 C173 1.258 . S
O175 Cd166 2.378 . S
O175 C173 1.256 . S
H176 C188 0.930 . S
H177 C190 0.930 . S
H178 C191 0.930 . S
H179 C195 0.959 . S
H180 C195 0.959 . S
H181 C195 0.961 . S
H182 C196 0.960 . S
H183 C196 0.961 . S
H184 C196 0.959 . S
H185 C199 0.929 . S
H186 C200 0.931 . S
H187 C202 0.930 . S
C188 H176 0.930 . S
C188 C189 1.399 . S
C188 C193 1.399 . S
C189 C188 1.399 . S
C189 C190 1.376 . S
C190 H177 0.930 . S
C190 C189 1.376 . S
C190 C191 1.388 . S
C191 H178 0.930 . S
C191 C190 1.388 . S
C191 C192 1.390 . S
C192 C191 1.390 . S
C192 C193 1.394 . S
C192 C198 1.465 . S
C193 C188 1.399 . S
C193 C192 1.394 . S
C193 C194 1.516 . S
C194 C193 1.516 . S
C194 C195 1.502 . S
C194 C196 1.561 . S
C194 C197 1.526 . S
C195 H179 0.959 . S
C195 H180 0.959 . S
C195 H181 0.961 . S
C195 C194 1.502 . S
C196 H182 0.960 . S
C196 H183 0.961 . S
C196 H184 0.959 . S
C196 C194 1.561 . S
C197 C194 1.526 . S
C197 C198 1.396 . S
C197 C202 1.390 . S
C198 C192 1.465 . S
C198 C197 1.396 . S
C198 C199 1.399 . S
C199 H185 0.929 . S
C199 C198 1.399 . S
C199 C200 1.385 . S
C200 H186 0.931 . S
C200 C199 1.385 . S
C200 C201 1.389 . S
C201 C200 1.389 . S
C201 C202 1.387 . S
C202 H187 0.930 . S
C202 C197 1.390 . S
C202 C201 1.387 . S
H203 C215 0.930 . S
H204 C217 0.930 . S
H205 C218 0.930 . S
H206 C222 0.959 . S
H207 C222 0.959 . S
H208 C222 0.961 . S
H209 C223 0.960 . S
H210 C223 0.961 . S
H211 C223 0.959 . S
H212 C226 0.929 . S
H213 C227 0.931 . S
H214 C229 0.930 . S
C215 H203 0.930 . S
C215 C216 1.399 . S
C215 C220 1.399 . S
C216 C215 1.399 . S
C216 C217 1.376 . S
C217 H204 0.930 . S
C217 C216 1.376 . S
C217 C218 1.388 . S
C218 H205 0.930 . S
C218 C217 1.388 . S
C218 C219 1.390 . S
C219 C218 1.390 . S
C219 C220 1.394 . S
C219 C225 1.465 . S
C220 C215 1.399 . S
C220 C219 1.394 . S
C220 C221 1.516 . S
C221 C220 1.516 . S
C221 C222 1.502 . S
C221 C223 1.561 . S
C221 C224 1.526 . S
C222 H206 0.959 . S
C222 H207 0.959 . S
C222 H208 0.961 . S
C222 C221 1.502 . S
C223 H209 0.960 . S
C223 H210 0.961 . S
C223 H211 0.959 . S
C223 C221 1.561 . S
C224 C221 1.526 . S
C224 C225 1.396 . S
C224 C229 1.390 . S
C225 C219 1.465 . S
C225 C224 1.396 . S
C225 C226 1.399 . S
C226 H212 0.929 . S
C226 C225 1.399 . S
C226 C227 1.385 . S
C227 H213 0.931 . S
C227 C226 1.385 . S
C227 C228 1.389 . S
C228 C227 1.389 . S
C228 C229 1.387 . S
C229 H214 0.930 . S
C229 C224 1.390 . S
C229 C228 1.387 . S
H230 C242 0.930 . S
H231 C244 0.930 . S
H232 C245 0.930 . S
H233 C249 0.959 . S
H234 C249 0.959 . S
H235 C249 0.961 . S
H236 C250 0.960 . S
H237 C250 0.961 . S
H238 C250 0.959 . S
H239 C253 0.929 . S
H240 C254 0.931 . S
H241 C256 0.930 . S
C242 H230 0.930 . S
C242 C243 1.399 . S
C242 C247 1.399 . S
C243 C242 1.399 . S
C243 C244 1.376 . S
C244 H231 0.930 . S
C244 C243 1.376 . S
C244 C245 1.388 . S
C245 H232 0.930 . S
C245 C244 1.388 . S
C245 C246 1.390 . S
C246 C245 1.390 . S
C246 C247 1.394 . S
C246 C252 1.465 . S
C247 C242 1.399 . S
C247 C246 1.394 . S
C247 C248 1.516 . S
C248 C247 1.516 . S
C248 C249 1.502 . S
C248 C250 1.561 . S
C248 C251 1.526 . S
C249 H233 0.959 . S
C249 H234 0.959 . S
C249 H235 0.961 . S
C249 C248 1.502 . S
C250 H236 0.960 . S
C250 H237 0.961 . S
C250 H238 0.959 . S
C250 C248 1.561 . S
C251 C248 1.526 . S
C251 C252 1.396 . S
C251 C256 1.390 . S
C252 C246 1.465 . S
C252 C251 1.396 . S
C252 C253 1.399 . S
C253 H239 0.929 . S
C253 C252 1.399 . S
C253 C254 1.385 . S
C254 H240 0.931 . S
C254 C253 1.385 . S
C254 C255 1.389 . S
C255 C254 1.389 . S
C255 C256 1.387 . S
C256 H241 0.930 . S
C256 C251 1.390 . S
C256 C255 1.387 . S
H257 C269 0.930 . S
H258 C271 0.930 . S
H259 C272 0.930 . S
H260 C276 0.959 . S
H261 C276 0.959 . S
H262 C276 0.961 . S
H263 C277 0.960 . S
H264 C277 0.961 . S
H265 C277 0.959 . S
H266 C280 0.956 . S
H267 C281 0.931 . S
H268 C283 0.930 . S
C269 H257 0.930 . S
C269 C270 1.399 . S
C269 C274 1.399 . S
C270 C269 1.399 . S
C270 C271 1.376 . S
C271 H258 0.930 . S
C271 C270 1.376 . S
C271 C272 1.388 . S
C272 H259 0.930 . S
C272 C271 1.388 . S
C272 C273 1.390 . S
C273 C272 1.390 . S
C273 C274 1.394 . S
C273 C279 1.427 1_556 S
C274 C269 1.399 . S
C274 C273 1.394 . S
C274 C275 1.516 1_556 S
C275 C274 1.516 1_554 S
C275 C276 1.502 . S
C275 C277 1.561 . S
C275 C278 1.526 . S
C276 H260 0.959 . S
C276 H261 0.959 . S
C276 H262 0.961 . S
C276 C275 1.502 . S
C277 H263 0.960 . S
C277 H264 0.961 . S
C277 H265 0.959 . S
C277 C275 1.561 . S
C278 C275 1.526 . S
C278 C279 1.447 . S
C278 C283 1.390 . S
C279 C273 1.427 1_554 S
C279 C278 1.447 . S
C279 C280 1.394 1_554 S
C280 H266 0.956 . S
C280 C279 1.394 1_556 S
C280 C281 1.361 1_556 S
C281 H267 0.931 . S
C281 C280 1.361 1_554 S
C281 C282 1.389 . S
C282 C281 1.389 . S
C282 C283 1.387 . S
C283 H268 0.930 . S
C283 C278 1.390 . S
C283 C282 1.387 . S
H284 C296 0.930 . S
H285 C298 0.930 . S
H286 C299 0.930 . S
H287 C303 0.959 . S
H288 C303 0.959 . S
H289 C303 0.961 . S
H290 C304 0.960 . S
H291 C304 0.961 . S
H292 C304 0.959 . S
H293 C307 0.929 1_554 S
H294 C308 0.931 . S
H295 C310 0.930 . S
C296 H284 0.930 . S
C296 C297 1.399 . S
C296 C301 1.399 . S
C297 C296 1.399 . S
C297 C298 1.376 . S
C298 H285 0.930 . S
C298 C297 1.376 . S
C298 C299 1.388 . S
C299 H286 0.930 . S
C299 C298 1.388 . S
C299 C300 1.390 . S
C300 C299 1.390 . S
C300 C301 1.394 . S
C300 C306 1.465 1_554 S
C301 C296 1.399 . S
C301 C300 1.394 . S
C301 C302 1.516 1_554 S
C302 C301 1.516 1_556 S
C302 C303 1.502 . S
C302 C304 1.561 . S
C302 C305 1.526 . S
C303 H287 0.959 . S
C303 H288 0.959 . S
C303 H289 0.961 . S
C303 C302 1.502 . S
C304 H290 0.960 . S
C304 H291 0.961 . S
C304 H292 0.959 . S
C304 C302 1.561 . S
C305 C302 1.526 . S
C305 C306 1.396 . S
C305 C310 1.390 . S
C306 C300 1.465 1_556 S
C306 C305 1.396 . S
C306 C307 1.399 . S
C307 H293 0.929 1_556 S
C307 C306 1.399 . S
C307 C308 1.385 . S
C308 H294 0.931 . S
C308 C307 1.385 . S
C308 C309 1.389 . S
C309 C308 1.389 . S
C309 C310 1.387 . S
C310 H295 0.930 . S
C310 C305 1.390 . S
C310 C309 1.387 . S
H311 C323 0.930 . S
H312 C325 0.930 . S
H313 C326 0.930 . S
H314 C330 0.959 . S
H315 C330 0.959 . S
H316 C330 0.961 . S
H317 C331 0.960 . S
H318 C331 0.961 . S
H319 C331 0.959 . S
H320 C334 0.929 . S
H321 C335 0.931 . S
H322 C337 0.930 . S
C323 H311 0.930 . S
C323 C324 1.399 . S
C323 C328 1.399 . S
C324 C323 1.399 . S
C324 C325 1.376 . S
C325 H312 0.930 . S
C325 C324 1.376 . S
C325 C326 1.388 . S
C326 H313 0.930 . S
C326 C325 1.388 . S
C326 C327 1.390 . S
C327 C326 1.390 . S
C327 C328 1.394 . S
C327 C333 1.465 . S
C328 C323 1.399 . S
C328 C327 1.394 . S
C328 C329 1.516 . S
C329 C328 1.516 . S
C329 C330 1.502 . S
C329 C331 1.561 . S
C329 C332 1.526 . S
C330 H314 0.959 . S
C330 H315 0.959 . S
C330 H316 0.961 . S
C330 C329 1.502 . S
C331 H317 0.960 . S
C331 H318 0.961 . S
C331 H319 0.959 . S
C331 C329 1.561 . S
C332 C329 1.526 . S
C332 C333 1.396 . S
C332 C337 1.390 . S
C333 C327 1.465 . S
C333 C332 1.396 . S
C333 C334 1.399 . S
C334 H320 0.929 . S
C334 C333 1.399 . S
C334 C335 1.385 . S
C335 H321 0.931 . S
C335 C334 1.385 . S
C335 C336 1.389 . S
C336 C335 1.389 . S
C336 C337 1.387 . S
C337 H322 0.930 . S
C337 C332 1.390 . S
C337 C336 1.387 . S
H338 C350 0.930 . S
H339 C352 0.930 . S
H340 C353 0.930 . S
H341 C357 0.959 . S
H342 C357 0.959 . S
H343 C357 0.961 . S
H344 C358 0.960 . S
H345 C358 0.961 . S
H346 C358 0.959 . S
H347 C361 0.929 . S
H348 C362 0.931 . S
H349 C364 0.930 . S
C350 H338 0.930 . S
C350 C351 1.399 . S
C350 C355 1.399 . S
C351 C350 1.399 . S
C351 C352 1.376 . S
C352 H339 0.930 . S
C352 C351 1.376 . S
C352 C353 1.388 . S
C353 H340 0.930 . S
C353 C352 1.388 . S
C353 C354 1.390 . S
C354 C353 1.390 . S
C354 C355 1.394 . S
C354 C360 1.465 . S
C355 C350 1.399 . S
C355 C354 1.394 . S
C355 C356 1.516 . S
C356 C355 1.516 . S
C356 C357 1.502 . S
C356 C358 1.561 . S
C356 C359 1.526 . S
C357 H341 0.959 . S
C357 H342 0.959 . S
C357 H343 0.961 . S
C357 C356 1.502 . S
C358 H344 0.960 . S
C358 H345 0.961 . S
C358 H346 0.959 . S
C358 C356 1.561 . S
C359 C356 1.526 . S
C359 C360 1.396 . S
C359 C364 1.390 . S
C360 C354 1.465 . S
C360 C359 1.396 . S
C360 C361 1.399 . S
C361 H347 0.929 . S
C361 C360 1.399 . S
C361 C362 1.385 . S
C362 H348 0.931 . S
C362 C361 1.385 . S
C362 C363 1.389 . S
C363 C362 1.389 . S
C363 C364 1.387 . S
C364 H349 0.930 . S
C364 C359 1.390 . S
C364 C363 1.387 . S
H365 C377 0.930 . S
H366 C379 0.930 . S
H367 C380 0.930 . S
H368 C384 0.959 . S
H369 C384 0.959 . S
H370 C384 0.961 . S
H371 C385 0.960 . S
H372 C385 0.961 . S
H373 C385 0.959 . S
H374 C388 0.929 . S
H375 C389 0.931 . S
H376 C391 0.930 . S
C377 H365 0.930 . S
C377 C378 1.399 . S
C377 C382 1.399 . S
C378 C377 1.399 . S
C378 C379 1.376 . S
C379 H366 0.930 . S
C379 C378 1.376 . S
C379 C380 1.388 . S
C380 H367 0.930 . S
C380 C379 1.388 . S
C380 C381 1.390 . S
C381 C380 1.390 . S
C381 C382 1.394 . S
C381 C387 1.465 . S
C382 C377 1.399 . S
C382 C381 1.394 . S
C382 C383 1.516 . S
C383 C382 1.516 . S
C383 C384 1.502 . S
C383 C385 1.561 . S
C383 C386 1.526 . S
C384 H368 0.959 . S
C384 H369 0.959 . S
C384 H370 0.961 . S
C384 C383 1.502 . S
C385 H371 0.960 . S
C385 H372 0.961 . S
C385 H373 0.959 . S
C385 C383 1.561 . S
C386 C383 1.526 . S
C386 C387 1.396 . S
C386 C391 1.390 . S
C387 C381 1.465 . S
C387 C386 1.396 . S
C387 C388 1.399 . S
C388 H374 0.929 . S
C388 C387 1.399 . S
C388 C389 1.385 . S
C389 H375 0.931 . S
C389 C388 1.385 . S
C389 C390 1.389 . S
C390 C389 1.389 . S
C390 C391 1.387 . S
C391 H376 0.930 . S
C391 C386 1.390 . S
C391 C390 1.387 . S
H392 C404 0.930 . S
H393 C406 0.930 . S
H394 C407 0.930 . S
H395 C411 0.959 . S
H396 C411 0.959 . S
H397 C411 0.961 . S
H398 C412 0.960 . S
H399 C412 0.961 . S
H400 C412 0.959 . S
H401 C415 0.929 . S
H402 C416 0.931 . S
H403 C418 0.930 . S
C404 H392 0.930 . S
C404 C405 1.399 . S
C404 C409 1.399 . S
C405 C404 1.399 . S
C405 C406 1.376 . S
C406 H393 0.930 . S
C406 C405 1.376 . S
C406 C407 1.388 . S
C407 H394 0.930 . S
C407 C406 1.388 . S
C407 C408 1.390 . S
C408 C407 1.390 . S
C408 C409 1.394 . S
C408 C414 1.465 . S
C409 C404 1.399 . S
C409 C408 1.394 . S
C409 C410 1.516 . S
C410 C409 1.516 . S
C410 C411 1.502 . S
C410 C412 1.561 . S
C410 C413 1.526 . S
C411 H395 0.959 . S
C411 H396 0.959 . S
C411 H397 0.961 . S
C411 C410 1.502 . S
C412 H398 0.960 . S
C412 H399 0.961 . S
C412 H400 0.959 . S
C412 C410 1.561 . S
C413 C410 1.526 . S
C413 C414 1.396 . S
C413 C418 1.390 . S
C414 C408 1.465 . S
C414 C413 1.396 . S
C414 C415 1.399 . S
C415 H401 0.929 . S
C415 C414 1.399 . S
C415 C416 1.385 . S
C416 H402 0.931 . S
C416 C415 1.385 . S
C416 C417 1.389 . S
C417 C416 1.389 . S
C417 C418 1.387 . S
C418 H403 0.930 . S
C418 C413 1.390 . S
C418 C417 1.387 . S
H419 C431 0.930 . S
H420 C433 0.930 . S
H421 C434 0.930 . S
H422 C438 0.959 . S
H423 C438 0.959 . S
H424 C438 0.961 . S
H425 C439 0.960 . S
H426 C439 0.961 . S
H427 C439 0.959 . S
H428 C442 0.929 . S
H429 C443 0.931 . S
H430 C445 0.930 . S
C431 H419 0.930 . S
C431 C432 1.399 . S
C431 C436 1.399 . S
C432 C431 1.399 . S
C432 C433 1.376 . S
C433 H420 0.930 . S
C433 C432 1.376 . S
C433 C434 1.388 . S
C434 H421 0.930 . S
C434 C433 1.388 . S
C434 C435 1.390 . S
C435 C434 1.390 . S
C435 C436 1.394 . S
C435 C441 1.465 . S
C436 C431 1.399 . S
C436 C435 1.394 . S
C436 C437 1.516 . S
C437 C436 1.516 . S
C437 C438 1.502 . S
C437 C439 1.561 . S
C437 C440 1.526 . S
C438 H422 0.959 . S
C438 H423 0.959 . S
C438 H424 0.961 . S
C438 C437 1.502 . S
C439 H425 0.960 . S
C439 H426 0.961 . S
C439 H427 0.959 . S
C439 C437 1.561 . S
C440 C437 1.526 . S
C440 C441 1.396 . S
C440 C445 1.390 . S
C441 C435 1.465 . S
C441 C440 1.396 . S
C441 C442 1.399 . S
C442 H428 0.929 . S
C442 C441 1.399 . S
C442 C443 1.385 . S
C443 H429 0.931 . S
C443 C442 1.385 . S
C443 C444 1.389 . S
C444 C443 1.389 . S
C444 C445 1.387 . S
C445 H430 0.930 . S
C445 C440 1.390 . S
C445 C444 1.387 . S
H446 C458 0.930 . S
H447 C460 0.930 . S
H448 C461 0.930 . S
H449 C465 0.959 . S
H450 C465 0.959 . S
H451 C465 0.961 . S
H452 C466 0.960 . S
H453 C466 0.961 . S
H454 C466 0.959 . S
H455 C469 0.929 . S
H456 C470 0.931 . S
H457 C472 0.930 . S
C458 H446 0.930 . S
C458 C459 1.399 . S
C458 C463 1.399 . S
C459 C458 1.399 . S
C459 C460 1.376 . S
C460 H447 0.930 . S
C460 C459 1.376 . S
C460 C461 1.388 . S
C461 H448 0.930 . S
C461 C460 1.388 . S
C461 C462 1.390 . S
C462 C461 1.390 . S
C462 C463 1.394 . S
C462 C468 1.465 . S
C463 C458 1.399 . S
C463 C462 1.394 . S
C463 C464 1.516 . S
C464 C463 1.516 . S
C464 C465 1.502 . S
C464 C466 1.561 . S
C464 C467 1.526 . S
C465 H449 0.959 . S
C465 H450 0.959 . S
C465 H451 0.961 . S
C465 C464 1.502 . S
C466 H452 0.960 . S
C466 H453 0.961 . S
C466 H454 0.959 . S
C466 C464 1.561 . S
C467 C464 1.526 . S
C467 C468 1.396 . S
C467 C472 1.390 . S
C468 C462 1.465 . S
C468 C467 1.396 . S
C468 C469 1.399 . S
C469 H455 0.929 . S
C469 C468 1.399 . S
C469 C470 1.385 . S
C470 H456 0.931 . S
C470 C469 1.385 . S
C470 C471 1.389 . S
C471 C470 1.389 . S
C471 C472 1.387 . S
C472 H457 0.930 . S
C472 C467 1.390 . S
C472 C471 1.387 . S
H473 C485 0.930 . S
H474 C487 0.930 . S
H475 C488 0.930 . S
H476 C492 0.959 . S
H477 C492 0.959 . S
H478 C492 0.961 . S
H479 C493 0.960 . S
H480 C493 0.961 . S
H481 C493 0.959 . S
H482 C496 0.929 . S
H483 C497 0.931 . S
H484 C499 0.930 . S
C485 H473 0.930 . S
C485 C486 1.399 . S
C485 C490 1.399 . S
C486 C485 1.399 . S
C486 C487 1.376 . S
C487 H474 0.930 . S
C487 C486 1.376 . S
C487 C488 1.388 . S
C488 H475 0.930 . S
C488 C487 1.388 . S
C488 C489 1.390 . S
C489 C488 1.390 . S
C489 C490 1.394 . S
C489 C495 1.465 . S
C490 C485 1.399 . S
C490 C489 1.394 . S
C490 C491 1.516 . S
C491 C490 1.516 . S
C491 C492 1.502 . S
C491 C493 1.561 . S
C491 C494 1.526 . S
C492 H476 0.959 . S
C492 H477 0.959 . S
C492 H478 0.961 . S
C492 C491 1.502 . S
C493 H479 0.960 . S
C493 H480 0.961 . S
C493 H481 0.959 . S
C493 C491 1.561 . S
C494 C491 1.526 . S
C494 C495 1.396 . S
C494 C499 1.390 . S
C495 C489 1.465 . S
C495 C494 1.396 . S
C495 C496 1.399 . S
C496 H482 0.929 . S
C496 C495 1.399 . S
C496 C497 1.385 . S
C497 H483 0.931 . S
C497 C496 1.385 . S
C497 C498 1.389 . S
C498 C497 1.389 . S
C498 C499 1.387 . S
C499 H484 0.930 . S
C499 C494 1.390 . S
C499 C498 1.387 . S
H500 C512 0.930 . S
H501 C514 0.930 . S
H502 C515 0.930 . S
H503 C519 0.959 . S
H504 C519 0.959 . S
H505 C519 0.961 . S
H506 C520 0.960 . S
H507 C520 0.961 . S
H508 C520 0.959 . S
H509 C523 0.929 . S
H510 C524 0.931 . S
H511 C526 0.930 . S
C512 H500 0.930 . S
C512 C513 1.399 . S
C512 C517 1.399 . S
C513 C512 1.399 . S
C513 C514 1.376 . S
C514 H501 0.930 . S
C514 C513 1.376 . S
C514 C515 1.388 . S
C515 H502 0.930 . S
C515 C514 1.388 . S
C515 C516 1.390 . S
C516 C515 1.390 . S
C516 C517 1.394 . S
C516 C522 1.465 . S
C517 C512 1.399 . S
C517 C516 1.394 . S
C517 C518 1.516 . S
C518 C517 1.516 . S
C518 C519 1.502 . S
C518 C520 1.561 . S
C518 C521 1.526 . S
C519 H503 0.959 . S
C519 H504 0.959 . S
C519 H505 0.961 . S
C519 C518 1.502 . S
C520 H506 0.960 . S
C520 H507 0.961 . S
C520 H508 0.959 . S
C520 C518 1.561 . S
C521 C518 1.526 . S
C521 C522 1.396 . S
C521 C526 1.390 . S
C522 C516 1.465 . S
C522 C521 1.396 . S
C522 C523 1.399 . S
C523 H509 0.929 . S
C523 C522 1.399 . S
C523 C524 1.385 . S
C524 H510 0.931 . S
C524 C523 1.385 . S
C524 C525 1.389 . S
C525 C524 1.389 . S
C525 C526 1.387 . S
C526 H511 0.930 . S
C526 C521 1.390 . S
C526 C525 1.387 . S
H527 C539 0.930 . S
H528 C541 0.930 . S
H529 C542 0.930 . S
H530 C546 0.959 . S
H531 C546 0.959 . S
H532 C546 0.961 . S
H533 C547 0.960 . S
H534 C547 0.961 . S
H535 C547 0.959 . S
H536 C550 0.929 . S
H537 C551 0.931 . S
H538 C553 0.930 . S
C539 H527 0.930 . S
C539 C540 1.399 . S
C539 C544 1.399 . S
C540 C539 1.399 . S
C540 C541 1.376 . S
C541 H528 0.930 . S
C541 C540 1.376 . S
C541 C542 1.388 . S
C542 H529 0.930 . S
C542 C541 1.388 . S
C542 C543 1.390 . S
C543 C542 1.390 . S
C543 C544 1.394 . S
C543 C549 1.465 . S
C544 C539 1.399 . S
C544 C543 1.394 . S
C544 C545 1.516 . S
C545 C544 1.516 . S
C545 C546 1.502 . S
C545 C547 1.561 . S
C545 C548 1.526 . S
C546 H530 0.959 . S
C546 H531 0.959 . S
C546 H532 0.961 . S
C546 C545 1.502 . S
C547 H533 0.960 . S
C547 H534 0.961 . S
C547 H535 0.959 . S
C547 C545 1.561 . S
C548 C545 1.526 . S
C548 C549 1.396 . S
C548 C553 1.390 . S
C549 C543 1.465 . S
C549 C548 1.396 . S
C549 C550 1.399 . S
C550 H536 0.929 . S
C550 C549 1.399 . S
C550 C551 1.385 . S
C551 H537 0.931 . S
C551 C550 1.385 . S
C551 C552 1.389 . S
C552 C551 1.389 . S
C552 C553 1.387 . S
C553 H538 0.930 . S
C553 C548 1.390 . S
C553 C552 1.387 . S
H554 C566 0.930 . S
H555 C568 0.930 . S
H556 C569 0.930 . S
H557 C573 0.959 . S
H558 C573 0.959 . S
H559 C573 0.961 . S
H560 C574 0.960 . S
H561 C574 0.961 . S
H562 C574 0.959 . S
H563 C577 0.929 . S
H564 C578 0.931 . S
H565 C580 0.930 . S
C566 H554 0.930 . S
C566 C567 1.399 . S
C566 C571 1.399 . S
C567 C566 1.399 . S
C567 C568 1.376 . S
C568 H555 0.930 . S
C568 C567 1.376 . S
C568 C569 1.388 . S
C569 H556 0.930 . S
C569 C568 1.388 . S
C569 C570 1.390 . S
C570 C569 1.390 . S
C570 C571 1.394 . S
C570 C576 1.465 . S
C571 C566 1.399 . S
C571 C570 1.394 . S
C571 C572 1.516 . S
C572 C571 1.516 . S
C572 C573 1.502 . S
C572 C574 1.561 . S
C572 C575 1.526 . S
C573 H557 0.959 . S
C573 H558 0.959 . S
C573 H559 0.961 . S
C573 C572 1.502 . S
C574 H560 0.960 . S
C574 H561 0.961 . S
C574 H562 0.959 . S
C574 C572 1.561 . S
C575 C572 1.526 . S
C575 C576 1.396 . S
C575 C580 1.390 . S
C576 C570 1.465 . S
C576 C575 1.396 . S
C576 C577 1.399 . S
C577 H563 0.929 . S
C577 C576 1.399 . S
C577 C578 1.385 . S
C578 H564 0.931 . S
C578 C577 1.385 . S
C578 C579 1.389 . S
C579 C578 1.389 . S
C579 C580 1.387 . S
C580 H565 0.930 . S
C580 C575 1.390 . S
C580 C579 1.387 . S
H581 C593 0.930 . S
H582 C595 0.930 . S
H583 C596 0.930 . S
H584 C600 0.959 . S
H585 C600 0.959 . S
H586 C600 0.961 . S
H587 C601 0.960 . S
H588 C601 0.961 . S
H589 C601 0.959 . S
H590 C604 0.929 . S
H591 C605 0.931 . S
H592 C607 0.930 . S
C593 H581 0.930 . S
C593 C594 1.399 . S
C593 C598 1.399 . S
C594 C593 1.399 . S
C594 C595 1.376 . S
C595 H582 0.930 . S
C595 C594 1.376 . S
C595 C596 1.388 . S
C596 H583 0.930 . S
C596 C595 1.388 . S
C596 C597 1.390 . S
C597 C596 1.390 . S
C597 C598 1.394 . S
C597 C603 1.465 . S
C598 C593 1.399 . S
C598 C597 1.394 . S
C598 C599 1.516 . S
C599 C598 1.516 . S
C599 C600 1.502 . S
C599 C601 1.561 . S
C599 C602 1.526 . S
C600 H584 0.959 . S
C600 H585 0.959 . S
C600 H586 0.961 . S
C600 C599 1.502 . S
C601 H587 0.960 . S
C601 H588 0.961 . S
C601 H589 0.959 . S
C601 C599 1.561 . S
C602 C599 1.526 . S
C602 C603 1.396 . S
C602 C607 1.390 . S
C603 C597 1.465 . S
C603 C602 1.396 . S
C603 C604 1.399 . S
C604 H590 0.929 . S
C604 C603 1.399 . S
C604 C605 1.385 . S
C605 H591 0.931 . S
C605 C604 1.385 . S
C605 C606 1.389 . S
C606 C605 1.389 . S
C606 C607 1.387 . S
C607 H592 0.930 . S
C607 C602 1.390 . S
C607 C606 1.387 . S
H608 C620 0.930 . S
H609 C622 0.930 . S
H610 C623 0.930 . S
H611 C627 0.959 . S
H612 C627 0.959 . S
H613 C627 0.961 . S
H614 C628 0.958 . S
H615 C628 0.961 . S
H616 C628 0.959 . S
H617 C631 0.929 . S
H618 C632 0.931 . S
H619 C634 0.930 . S
C620 H608 0.930 . S
C620 C621 1.399 . S
C620 C625 1.399 . S
C621 C620 1.399 . S
C621 C622 1.376 . S
C622 H609 0.930 . S
C622 C621 1.376 . S
C622 C623 1.388 . S
C623 H610 0.930 . S
C623 C622 1.388 . S
C623 C624 1.390 . S
C624 C623 1.390 . S
C624 C625 1.394 . S
C624 C630 1.465 1_445 S
C625 C620 1.399 . S
C625 C624 1.394 . S
C625 C626 1.516 1_545 S
C626 C625 1.516 1_565 S
C626 C627 1.502 . S
C626 C628 1.561 1_465 S
C626 C629 1.526 1_455 S
C627 H611 0.959 . S
C627 H612 0.959 . S
C627 H613 0.961 . S
C627 C626 1.502 . S
C628 H614 0.958 . S
C628 H615 0.961 . S
C628 H616 0.959 . S
C628 C626 1.561 1_645 S
C629 C626 1.526 1_655 S
C629 C630 1.396 . S
C629 C634 1.390 . S
C630 C624 1.465 1_665 S
C630 C629 1.396 . S
C630 C631 1.399 . S
C631 H617 0.929 . S
C631 C630 1.399 . S
C631 C632 1.385 . S
C632 H618 0.931 . S
C632 C631 1.385 . S
C632 C633 1.389 . S
C633 C632 1.389 . S
C633 C634 1.387 . S
C634 H619 0.930 . S
C634 C629 1.390 . S
C634 C633 1.387 . S
H635 C647 0.930 . S
H636 C649 0.930 . S
H637 C650 0.930 . S
H638 C654 0.959 . S
H639 C654 0.959 . S
H640 C654 0.961 . S
H641 C655 0.960 . S
H642 C655 0.961 . S
H643 C655 0.959 . S
H644 C658 0.929 . S
H645 C659 0.931 . S
H646 C661 0.930 . S
C647 H635 0.930 . S
C647 C648 1.399 . S
C647 C652 1.399 . S
C648 C647 1.399 . S
C648 C649 1.376 . S
C649 H636 0.930 . S
C649 C648 1.376 . S
C649 C650 1.388 . S
C650 H637 0.930 . S
C650 C649 1.388 . S
C650 C651 1.390 . S
C651 C650 1.390 . S
C651 C652 1.394 . S
C651 C657 1.465 1_455 S
C652 C647 1.399 . S
C652 C651 1.394 . S
C652 C653 1.516 . S
C653 C652 1.516 . S
C653 C654 1.502 . S
C653 C655 1.561 1_455 S
C653 C656 1.526 1_455 S
C654 H638 0.959 . S
C654 H639 0.959 . S
C654 H640 0.961 . S
C654 C653 1.502 . S
C655 H641 0.960 . S
C655 H642 0.961 . S
C655 H643 0.959 . S
C655 C653 1.561 1_655 S
C656 C653 1.526 1_655 S
C656 C657 1.396 . S
C656 C661 1.390 . S
C657 C651 1.465 1_655 S
C657 C656 1.396 . S
C657 C658 1.399 . S
C658 H644 0.929 . S
C658 C657 1.399 . S
C658 C659 1.385 . S
C659 H645 0.931 . S
C659 C658 1.385 . S
C659 C660 1.389 . S
C660 C659 1.389 . S
C660 C661 1.387 . S
C661 H646 0.930 . S
C661 C656 1.390 . S
C661 C660 1.387 . S
H662 C674 0.930 . S
H663 C676 0.930 . S
H664 C677 0.930 . S
H665 C681 0.959 . S
H666 C681 0.959 . S
H667 C681 0.961 . S
H668 C682 0.960 . S
H669 C682 0.961 . S
H670 C682 0.959 . S
H671 C685 0.929 . S
H672 C686 0.931 . S
H673 C688 0.930 . S
C674 H662 0.930 . S
C674 C675 1.399 . S
C674 C679 1.399 . S
C675 C674 1.399 . S
C675 C676 1.376 . S
C676 H663 0.930 . S
C676 C675 1.376 . S
C676 C677 1.388 . S
C677 H664 0.930 . S
C677 C676 1.388 . S
C677 C678 1.390 . S
C678 C677 1.390 . S
C678 C679 1.394 . S
C678 C684 1.465 . S
C679 C674 1.399 . S
C679 C678 1.394 . S
C679 C680 1.516 . S
C680 C679 1.516 . S
C680 C681 1.502 . S
C680 C682 1.561 . S
C680 C683 1.526 . S
C681 H665 0.959 . S
C681 H666 0.959 . S
C681 H667 0.961 . S
C681 C680 1.502 . S
C682 H668 0.960 . S
C682 H669 0.961 . S
C682 H670 0.959 . S
C682 C680 1.561 . S
C683 C680 1.526 . S
C683 C684 1.396 . S
C683 C688 1.390 . S
C684 C678 1.465 . S
C684 C683 1.396 . S
C684 C685 1.399 . S
C685 H671 0.929 . S
C685 C684 1.399 . S
C685 C686 1.385 . S
C686 H672 0.931 . S
C686 C685 1.385 . S
C686 C687 1.389 . S
C687 C686 1.389 . S
C687 C688 1.387 . S
C688 H673 0.930 . S
C688 C683 1.390 . S
C688 C687 1.387 . S
H689 C701 0.930 . S
H690 C703 0.930 . S
H691 C704 0.930 . S
H692 C708 0.959 . S
H693 C708 0.959 . S
H694 C708 0.961 . S
H695 C709 0.960 1_545 S
H696 C709 0.961 . S
H697 C709 0.959 . S
H698 C712 0.929 . S
H699 C713 0.931 . S
H700 C715 0.930 . S
C701 H689 0.930 . S
C701 C702 1.399 . S
C701 C706 1.399 . S
C702 C701 1.399 . S
C702 C703 1.376 . S
C703 H690 0.930 . S
C703 C702 1.376 . S
C703 C704 1.388 . S
C704 H691 0.930 . S
C704 C703 1.388 . S
C704 C705 1.390 . S
C705 C704 1.390 . S
C705 C706 1.394 . S
C705 C711 1.465 1_545 S
C706 C701 1.399 . S
C706 C705 1.394 . S
C706 C707 1.516 . S
C707 C706 1.516 . S
C707 C708 1.502 . S
C707 C709 1.561 1_545 S
C707 C710 1.526 1_545 S
C708 H692 0.959 . S
C708 H693 0.959 . S
C708 H694 0.961 . S
C708 C707 1.502 . S
C709 H695 0.960 1_565 S
C709 H696 0.961 . S
C709 H697 0.959 . S
C709 C707 1.561 1_565 S
C710 C707 1.526 1_565 S
C710 C711 1.396 . S
C710 C715 1.390 . S
C711 C705 1.465 1_565 S
C711 C710 1.396 . S
C711 C712 1.399 . S
C712 H698 0.929 . S
C712 C711 1.399 . S
C712 C713 1.385 . S
C713 H699 0.931 . S
C713 C712 1.385 . S
C713 C714 1.389 . S
C714 C713 1.389 . S
C714 C715 1.387 . S
C715 H700 0.930 . S
C715 C710 1.390 . S
C715 C714 1.387 . S
H716 C728 0.930 . S
H717 C730 0.930 . S
H718 C731 0.930 . S
H719 C735 0.959 . S
H720 C735 0.959 . S
H721 C735 0.961 . S
H722 C736 0.960 1_655 S
H723 C736 0.961 . S
H724 C736 0.959 1_655 S
H725 C739 0.926 1_655 S
H726 C740 0.931 . S
H727 C742 0.930 . S
C728 H716 0.930 . S
C728 C729 1.399 . S
C728 C733 1.399 . S
C729 C728 1.399 . S
C729 C730 1.376 . S
C730 H717 0.930 . S
C730 C729 1.376 . S
C730 C731 1.388 . S
C731 H718 0.930 . S
C731 C730 1.388 . S
C731 C732 1.390 . S
C732 C731 1.390 . S
C732 C733 1.394 . S
C732 C738 1.465 1_655 S
C733 C728 1.399 . S
C733 C732 1.394 . S
C733 C734 1.516 1_655 S
C734 C733 1.516 1_455 S
C734 C735 1.502 . S
C734 C736 1.561 . S
C734 C737 1.526 . S
C735 H719 0.959 . S
C735 H720 0.959 . S
C735 H721 0.961 . S
C735 C734 1.502 . S
C736 H722 0.960 1_455 S
C736 H723 0.961 . S
C736 H724 0.959 1_455 S
C736 C734 1.561 . S
C737 C734 1.526 . S
C737 C738 1.396 . S
C737 C742 1.390 . S
C738 C732 1.465 1_455 S
C738 C737 1.396 . S
C738 C739 1.399 . S
C739 H725 0.926 1_455 S
C739 C738 1.399 . S
C739 C740 1.385 . S
C740 H726 0.931 . S
C740 C739 1.385 . S
C740 C741 1.389 . S
C741 C740 1.389 . S
C741 C742 1.387 . S
C742 H727 0.930 . S
C742 C737 1.390 . S
C742 C741 1.387 . S
H743 C755 0.930 . S
H744 C757 0.930 . S
H745 C758 0.930 . S
H746 C762 0.959 . S
H747 C762 0.959 . S
H748 C762 0.961 . S
H749 C763 0.960 . S
H750 C763 0.961 . S
H751 C763 0.959 . S
H752 C766 0.929 . S
H753 C767 0.931 . S
H754 C769 0.930 . S
C755 H743 0.930 . S
C755 C756 1.399 . S
C755 C760 1.399 . S
C756 C755 1.399 . S
C756 C757 1.376 . S
C757 H744 0.930 . S
C757 C756 1.376 . S
C757 C758 1.388 . S
C758 H745 0.930 . S
C758 C757 1.388 . S
C758 C759 1.390 . S
C759 C758 1.390 . S
C759 C760 1.394 . S
C759 C765 1.465 . S
C760 C755 1.399 . S
C760 C759 1.394 . S
C760 C761 1.516 . S
C761 C760 1.516 . S
C761 C762 1.502 . S
C761 C763 1.561 . S
C761 C764 1.526 . S
C762 H746 0.959 . S
C762 H747 0.959 . S
C762 H748 0.961 . S
C762 C761 1.502 . S
C763 H749 0.960 . S
C763 H750 0.961 . S
C763 H751 0.959 . S
C763 C761 1.561 . S
C764 C761 1.526 . S
C764 C765 1.396 . S
C764 C769 1.390 . S
C765 C759 1.465 . S
C765 C764 1.396 . S
C765 C766 1.399 . S
C766 H752 0.929 . S
C766 C765 1.399 . S
C766 C767 1.385 . S
C767 H753 0.931 . S
C767 C766 1.385 . S
C767 C768 1.389 . S
C768 C767 1.389 . S
C768 C769 1.387 . S
C769 H754 0.930 . S
C769 C764 1.390 . S
C769 C768 1.387 . S
H770 C782 0.930 . S
H771 C784 0.930 . S
H772 C785 0.930 . S
H773 C789 0.959 . S
H774 C789 0.959 . S
H775 C789 0.961 . S
H776 C790 0.960 . S
H777 C790 0.961 . S
H778 C790 0.959 . S
H779 C793 0.929 . S
H780 C794 0.931 . S
H781 C796 0.930 . S
C782 H770 0.930 . S
C782 C783 1.399 . S
C782 C787 1.399 . S
C783 C782 1.399 . S
C783 C784 1.376 . S
C784 H771 0.930 . S
C784 C783 1.376 . S
C784 C785 1.388 1_545 S
C785 H772 0.930 . S
C785 C784 1.388 1_565 S
C785 C786 1.390 . S
C786 C785 1.390 . S
C786 C787 1.394 1_565 S
C786 C792 1.465 . S
C787 C782 1.399 . S
C787 C786 1.394 1_545 S
C787 C788 1.516 . S
C788 C787 1.516 . S
C788 C789 1.502 . S
C788 C790 1.561 . S
C788 C791 1.526 1_545 S
C789 H773 0.959 . S
C789 H774 0.959 . S
C789 H775 0.961 . S
C789 C788 1.502 . S
C790 H776 0.960 . S
C790 H777 0.961 . S
C790 H778 0.959 . S
C790 C788 1.561 . S
C791 C788 1.526 1_565 S
C791 C792 1.396 . S
C791 C796 1.390 . S
C792 C786 1.465 . S
C792 C791 1.396 . S
C792 C793 1.399 . S
C793 H779 0.929 . S
C793 C792 1.399 . S
C793 C794 1.385 . S
C794 H780 0.931 . S
C794 C793 1.385 . S
C794 C795 1.389 . S
C795 C794 1.389 . S
C795 C796 1.387 . S
C796 H781 0.930 . S
C796 C791 1.390 . S
C796 C795 1.387 . S
H797 C809 0.930 . S
H798 C811 0.930 . S
H799 C812 0.930 . S
H800 C816 0.959 . S
H801 C816 0.959 . S
H802 C816 0.961 . S
H803 C817 0.960 . S
H804 C817 0.961 . S
H805 C817 0.959 . S
H806 C820 0.929 . S
H807 C821 0.931 . S
H808 C823 0.930 . S
C809 H797 0.930 . S
C809 C810 1.399 . S
C809 C814 1.399 . S
C810 C809 1.399 . S
C810 C811 1.376 . S
C811 H798 0.930 . S
C811 C810 1.376 . S
C811 C812 1.388 . S
C812 H799 0.930 . S
C812 C811 1.388 . S
C812 C813 1.390 . S
C813 C812 1.390 . S
C813 C814 1.394 . S
C813 C819 1.465 1_665 S
C814 C809 1.399 . S
C814 C813 1.394 . S
C814 C815 1.540 1_655 S
C815 C814 1.540 1_455 S
C815 C816 1.484 1_465 S
C815 C817 1.581 . S
C815 C818 1.503 1_565 S
C816 H800 0.959 . S
C816 H801 0.959 . S
C816 H802 0.961 . S
C816 C815 1.484 1_645 S
C817 H803 0.960 . S
C817 H804 0.961 . S
C817 H805 0.959 . S
C817 C815 1.581 . S
C818 C815 1.503 1_545 S
C818 C819 1.396 . S
C818 C823 1.390 . S
C819 C813 1.465 1_445 S
C819 C818 1.396 . S
C819 C820 1.399 . S
C820 H806 0.929 . S
C820 C819 1.399 . S
C820 C821 1.385 . S
C821 H807 0.931 . S
C821 C820 1.385 . S
C821 C822 1.389 . S
C822 C821 1.389 . S
C822 C823 1.387 . S
C823 H808 0.930 . S
C823 C818 1.390 . S
C823 C822 1.387 . S
C189 C170 1.384 . S
C201 C5 1.318 . S
C216 C137 1.345 . S
C228 C16 1.438 . S
C243 C27 1.419 . S
C255 C148 1.325 . S
C270 C38 1.317 . S
C282 C159 1.383 . S
C297 C49 1.322 . S
C309 C104 1.367 . S
C324 C60 1.317 . S
C336 C115 1.381 . S
C351 C71 1.318 . S
C363 C126 1.405 . S
C378 C82 1.316 . S
C390 C93 1.395 . S
C405 C7 1.511 . S
C417 C51 1.549 . S
C432 C62 1.505 . S
C444 C18 1.532 . S
C459 C73 1.545 . S
C471 C29 1.501 . S
C486 C40 1.548 . S
C498 C84 1.516 . S
C513 C95 1.530 . S
C525 C139 1.538 . S
C540 C106 1.547 . S
C552 C150 1.518 . S
C567 C117 1.538 . S
C579 C161 1.503 . S
C594 C128 1.547 . S
C606 C172 1.518 . S
C621 C8 1.567 . S
C633 C118 1.570 . S
C648 C129 1.587 . S
C660 C19 1.585 . S
C675 C96 1.568 . S
C687 C30 1.567 . S
C702 C107 1.568 . S
C714 C41 1.572 . S
C729 C162 1.585 . S
C741 C52 1.581 . S
C756 C63 1.587 . S
C768 C173 1.585 . S
C783 C74 1.579 . S
C795 C140 1.574 . S
C810 C85 1.588 . S
C822 C151 1.586 . S
