# Generated by pormake.
# Topology uot, (4)-cn, num edge types: 1
# Building blocks:
#     Node 0, Type 0, BuildingBlock: QUQFOY_clean_sbu_1, # of connection points: 4
#     Node 1, Type 0, BuildingBlock: QUQFOY_clean_sbu_1, # of connection points: 4
#     Node 2, Type 0, BuildingBlock: QUQFOY_clean_sbu_1, # of connection points: 4
#     Node 3, Type 0, BuildingBlock: QUQFOY_clean_sbu_1, # of connection points: 4
#     Node 4, Type 0, BuildingBlock: QUQFOY_clean_sbu_1, # of connection points: 4
#     Node 5, Type 0, BuildingBlock: QUQFOY_clean_sbu_1, # of connection points: 4
#     Node 6, Type 0, BuildingBlock: QUQFOY_clean_sbu_1, # of connection points: 4
#     Node 7, Type 0, BuildingBlock: QUQFOY_clean_sbu_1, # of connection points: 4
#     Node 8, Type 0, BuildingBlock: QUQFOY_clean_sbu_1, # of connection points: 4
#     Node 9, Type 0, BuildingBlock: QUQFOY_clean_sbu_1, # of connection points: 4
#     Node 10, Type 0, BuildingBlock: QUQFOY_clean_sbu_1, # of connection points: 4
#     Node 11, Type 0, BuildingBlock: QUQFOY_clean_sbu_1, # of connection points: 4
#     Node 12, Type 0, BuildingBlock: QUQFOY_clean_sbu_1, # of connection points: 4
#     Node 13, Type 0, BuildingBlock: QUQFOY_clean_sbu_1, # of connection points: 4
#     Node 14, Type 0, BuildingBlock: QUQFOY_clean_sbu_1, # of connection points: 4
#     Node 15, Type 0, BuildingBlock: QUQFOY_clean_sbu_1, # of connection points: 4
#     Edge 16, Type (0, 0), BuildingBlock: XUDNAN_clean_linker_2, # of connection points: 2
#     Edge 17, Type (0, 0), BuildingBlock: XUDNAN_clean_linker_2, # of connection points: 2
#     Edge 18, Type (0, 0), BuildingBlock: XUDNAN_clean_linker_2, # of connection points: 2
#     Edge 19, Type (0, 0), BuildingBlock: XUDNAN_clean_linker_2, # of connection points: 2
#     Edge 20, Type (0, 0), BuildingBlock: XUDNAN_clean_linker_2, # of connection points: 2
#     Edge 21, Type (0, 0), BuildingBlock: XUDNAN_clean_linker_2, # of connection points: 2
#     Edge 22, Type (0, 0), BuildingBlock: XUDNAN_clean_linker_2, # of connection points: 2
#     Edge 23, Type (0, 0), BuildingBlock: XUDNAN_clean_linker_2, # of connection points: 2
#     Edge 24, Type (0, 0), BuildingBlock: XUDNAN_clean_linker_2, # of connection points: 2
#     Edge 25, Type (0, 0), BuildingBlock: XUDNAN_clean_linker_2, # of connection points: 2
#     Edge 26, Type (0, 0), BuildingBlock: XUDNAN_clean_linker_2, # of connection points: 2
#     Edge 27, Type (0, 0), BuildingBlock: XUDNAN_clean_linker_2, # of connection points: 2
#     Edge 28, Type (0, 0), BuildingBlock: XUDNAN_clean_linker_2, # of connection points: 2
#     Edge 29, Type (0, 0), BuildingBlock: XUDNAN_clean_linker_2, # of connection points: 2
#     Edge 30, Type (0, 0), BuildingBlock: XUDNAN_clean_linker_2, # of connection points: 2
#     Edge 31, Type (0, 0), BuildingBlock: XUDNAN_clean_linker_2, # of connection points: 2
#     Edge 32, Type (0, 0), BuildingBlock: XUDNAN_clean_linker_2, # of connection points: 2
#     Edge 33, Type (0, 0), BuildingBlock: XUDNAN_clean_linker_2, # of connection points: 2
#     Edge 34, Type (0, 0), BuildingBlock: XUDNAN_clean_linker_2, # of connection points: 2
#     Edge 35, Type (0, 0), BuildingBlock: XUDNAN_clean_linker_2, # of connection points: 2
#     Edge 36, Type (0, 0), BuildingBlock: XUDNAN_clean_linker_2, # of connection points: 2
#     Edge 37, Type (0, 0), BuildingBlock: XUDNAN_clean_linker_2, # of connection points: 2
#     Edge 38, Type (0, 0), BuildingBlock: XUDNAN_clean_linker_2, # of connection points: 2
#     Edge 39, Type (0, 0), BuildingBlock: XUDNAN_clean_linker_2, # of connection points: 2
#     Edge 40, Type (0, 0), BuildingBlock: XUDNAN_clean_linker_2, # of connection points: 2
#     Edge 41, Type (0, 0), BuildingBlock: XUDNAN_clean_linker_2, # of connection points: 2
#     Edge 42, Type (0, 0), BuildingBlock: XUDNAN_clean_linker_2, # of connection points: 2
#     Edge 43, Type (0, 0), BuildingBlock: XUDNAN_clean_linker_2, # of connection points: 2
#     Edge 44, Type (0, 0), BuildingBlock: XUDNAN_clean_linker_2, # of connection points: 2
#     Edge 45, Type (0, 0), BuildingBlock: XUDNAN_clean_linker_2, # of connection points: 2
#     Edge 46, Type (0, 0), BuildingBlock: XUDNAN_clean_linker_2, # of connection points: 2
#     Edge 47, Type (0, 0), BuildingBlock: XUDNAN_clean_linker_2, # of connection points: 2
# Relax obj value: 0.057
# Max RMSD: 0.082
# Mean RMSD: 0.082
data_MOF--net-uot--node1-QUQFOY_clean_sbu_1--edge1-XUDNAN_clean_linker_2
_symmetry_space_group_name_H-M    P1
_symmetry_Int_Tables_number       1
_symmetry_cell_setting            triclinic
loop_
_symmetry_equiv_pos_as_xyz
'x, y, z'
_cell_length_a     46.318956
_cell_length_b     46.341873
_cell_length_c     44.395589
_cell_angle_alpha  89.968892
_cell_angle_beta   90.019845
_cell_angle_gamma 90.011725
loop_
_atom_site_label
_atom_site_type_symbol
_atom_site_fract_x
_atom_site_fract_y
_atom_site_fract_z
_atom_type_partial_charge
O0 O 0.17428 0.40378 0.30794 0.0
Cd1 Cd 0.21057 0.42903 0.3128 0.0
Cd2 Cd 0.17645 0.45783 0.3531 0.0
O3 O 0.14574 0.42828 0.33855 0.0
O4 O 0.24277 0.40542 0.29602 0.0
O5 O 0.2403 0.41805 0.34397 0.0
C6 C 0.2535 0.40419 0.3228 0.0
C7 C 0.18458 0.4668 0.40428 0.0
C8 C 0.14976 0.40775 0.32 0.0
C9 C 0.19868 0.49154 0.30002 0.0
O10 O 0.18487 0.4919 0.32472 0.0
O11 O 0.21053 0.46852 0.29052 0.0
O12 O 0.1613 0.47535 0.39108 0.0
O13 O 0.20293 0.4521 0.38863 0.0
O14 O 0.39394 0.84087 0.70698 0.0
Cd15 Cd 0.41952 0.8051 0.70065 0.0
Cd16 Cd 0.44431 0.83916 0.65881 0.0
O17 O 0.40942 0.86601 0.66799 0.0
O18 O 0.39737 0.77211 0.71788 0.0
O19 O 0.40847 0.77545 0.66955 0.0
C20 C 0.39569 0.76161 0.69103 0.0
C21 C 0.45813 0.82907 0.6092 0.0
C22 C 0.39256 0.8632 0.69043 0.0
C23 C 0.47965 0.82325 0.71388 0.0
O24 O 0.47752 0.83844 0.6901 0.0
O25 O 0.45918 0.80657 0.72172 0.0
O26 O 0.46225 0.85415 0.62098 0.0
O27 O 0.44518 0.80979 0.62533 0.0
O28 O 0.83911 0.61439 0.31034 0.0
Cd29 Cd 0.80362 0.58852 0.31794 0.0
Cd30 Cd 0.84273 0.55845 0.35473 0.0
O31 O 0.8704 0.58949 0.33748 0.0
O32 O 0.77087 0.6114 0.30126 0.0
O33 O 0.77433 0.60005 0.34945 0.0
C34 C 0.76057 0.61317 0.32815 0.0
C35 C 0.84882 0.5447 0.40532 0.0
C36 C 0.86463 0.61037 0.31988 0.0
C37 C 0.8162 0.52638 0.30233 0.0
O38 O 0.83214 0.52563 0.32562 0.0
O39 O 0.80279 0.54936 0.29519 0.0
O40 O 0.86784 0.53898 0.38509 0.0
O41 O 0.82603 0.55865 0.39708 0.0
O42 O 0.61101 0.17837 0.70671 0.0
Cd43 Cd 0.58303 0.21025 0.69201 0.0
Cd44 Cd 0.56639 0.16627 0.65798 0.0
O45 O 0.60384 0.14578 0.67141 0.0
O46 O 0.60052 0.2461 0.709 0.0
O47 O 0.59669 0.23823 0.66011 0.0
C48 C 0.60571 0.25442 0.68183 0.0
C49 C 0.55343 0.17613 0.60825 0.0
C50 C 0.6174 0.15431 0.69468 0.0
C51 C 0.52582 0.1854 0.70638 0.0
O52 O 0.5334 0.16494 0.68904 0.0
O53 O 0.54109 0.20814 0.70839 0.0
O54 O 0.55173 0.15028 0.61903 0.0
O55 O 0.56381 0.19615 0.62542 0.0
O56 O 0.17242 0.60423 0.71073 0.0
Cd57 Cd 0.20931 0.58078 0.70272 0.0
Cd58 Cd 0.17553 0.55509 0.66132 0.0
O59 O 0.14787 0.58915 0.67116 0.0
O60 O 0.24151 0.60439 0.71945 0.0
O61 O 0.23749 0.59398 0.67101 0.0
C62 C 0.25116 0.60716 0.69235 0.0
C63 C 0.18498 0.54202 0.61132 0.0
C64 C 0.15006 0.60532 0.69422 0.0
C65 C 0.19388 0.52001 0.71575 0.0
O66 O 0.17776 0.52191 0.69261 0.0
O67 O 0.21039 0.54081 0.723 0.0
O68 O 0.16024 0.53712 0.62359 0.0
O69 O 0.2043 0.55517 0.62722 0.0
O70 O 0.60578 0.83838 0.30662 0.0
Cd71 Cd 0.58213 0.80168 0.31524 0.0
Cd72 Cd 0.55715 0.83579 0.35663 0.0
O73 O 0.59137 0.86313 0.3463 0.0
O74 O 0.60538 0.76908 0.2989 0.0
O75 O 0.59536 0.77393 0.34735 0.0
C76 C 0.60824 0.75982 0.32615 0.0
C77 C 0.54397 0.82692 0.4067 0.0
C78 C 0.60728 0.86075 0.32306 0.0
C79 C 0.52118 0.81698 0.30305 0.0
O80 O 0.52357 0.83343 0.32586 0.0
O81 O 0.54184 0.80038 0.29562 0.0
O82 O 0.53926 0.85155 0.39412 0.0
O83 O 0.55718 0.80744 0.39112 0.0
O84 O 0.83509 0.39707 0.70497 0.0
Cd85 Cd 0.80039 0.42429 0.69926 0.0
Cd86 Cd 0.83944 0.45507 0.6632 0.0
O87 O 0.86654 0.42276 0.67887 0.0
O88 O 0.76682 0.40167 0.71448 0.0
O89 O 0.77093 0.41538 0.667 0.0
C90 C 0.75666 0.40157 0.68745 0.0
C91 C 0.8464 0.47081 0.61331 0.0
C92 C 0.86058 0.40113 0.69537 0.0
C93 C 0.81475 0.48524 0.71777 0.0
O94 O 0.82977 0.48689 0.69388 0.0
O95 O 0.80128 0.46213 0.72433 0.0
O96 O 0.86523 0.47535 0.63406 0.0
O97 O 0.82322 0.45704 0.62064 0.0
O98 O 0.39862 0.17329 0.31317 0.0
Cd99 Cd 0.42498 0.20894 0.31716 0.0
Cd100 Cd 0.45505 0.17292 0.3549 0.0
O101 O 0.42358 0.14352 0.34209 0.0
O102 O 0.40154 0.2409 0.29959 0.0
O103 O 0.41504 0.24006 0.34731 0.0
C104 C 0.401 0.25269 0.32587 0.0
C105 C 0.46775 0.18014 0.40539 0.0
C106 C 0.40237 0.14846 0.32462 0.0
C107 C 0.48607 0.19414 0.29966 0.0
O108 O 0.48731 0.17962 0.32392 0.0
O109 O 0.46319 0.2078 0.29263 0.0
O110 O 0.47451 0.15672 0.3914 0.0
O111 O 0.45277 0.19921 0.39097 0.0
O112 O 0.67043 0.90388 0.7984 0.0
Cd113 Cd 0.70752 0.92722 0.80489 0.0
Cd114 Cd 0.67329 0.95039 0.85522 0.0
O115 O 0.64706 0.91696 0.83965 0.0
O116 O 0.73636 0.9086 0.77791 0.0
O117 O 0.74109 0.90923 0.82742 0.0
C118 C 0.75089 0.90131 0.80146 0.0
C119 C 0.66682 0.96289 0.9063 0.0
C120 C 0.64868 0.90197 0.81569 0.0
C121 C 0.69291 0.99006 0.80335 0.0
O122 O 0.67956 0.98632 0.82807 0.0
O123 O 0.70599 0.96941 0.79045 0.0
O124 O 0.64706 0.96692 0.88643 0.0
O125 O 0.69064 0.95121 0.89751 0.0
O126 O 0.8979 0.34218 0.21086 0.0
Cd127 Cd 0.92417 0.30686 0.20245 0.0
Cd128 Cd 0.94315 0.34428 0.15996 0.0
O129 O 0.90528 0.36616 0.16866 0.0
O130 O 0.90788 0.27668 0.22955 0.0
O131 O 0.90734 0.2725 0.18005 0.0
C132 C 0.90068 0.26203 0.2061 0.0
C133 C 0.95793 0.33328 0.11091 0.0
C134 C 0.89181 0.36308 0.19339 0.0
C135 C 0.98269 0.33146 0.21151 0.0
O136 O 0.97575 0.34958 0.19128 0.0
O137 O 0.96661 0.30985 0.21691 0.0
O138 O 0.95896 0.35929 0.12117 0.0
O139 O 0.94749 0.31346 0.12828 0.0
O140 O 0.3361 0.11506 0.80993 0.0
Cd141 Cd 0.30114 0.08825 0.81598 0.0
Cd142 Cd 0.34009 0.05763 0.85251 0.0
O143 O 0.36733 0.08985 0.83684 0.0
O144 O 0.26791 0.11106 0.80029 0.0
O145 O 0.27166 0.09784 0.84796 0.0
C146 C 0.25764 0.11157 0.82726 0.0
C147 C 0.34702 0.04162 0.90237 0.0
C148 C 0.36151 0.11119 0.81986 0.0
C149 C 0.31506 0.02709 0.79815 0.0
O150 O 0.3303 0.02571 0.82192 0.0
O151 O 0.30154 0.05012 0.79144 0.0
O152 O 0.36576 0.03708 0.88155 0.0
O153 O 0.32398 0.05568 0.89515 0.0
O154 O 0.11595 0.67549 0.20241 0.0
Cd155 Cd 0.08724 0.70837 0.19189 0.0
Cd156 Cd 0.06898 0.66501 0.15465 0.0
O157 O 0.10652 0.64398 0.16651 0.0
O158 O 0.10174 0.74046 0.21771 0.0
O159 O 0.10266 0.74267 0.16812 0.0
C160 C 0.10857 0.75445 0.19373 0.0
C161 C 0.05526 0.67551 0.10523 0.0
C162 C 0.12146 0.65181 0.1891 0.0
C163 C 0.02924 0.68205 0.20422 0.0
O164 O 0.03627 0.66228 0.18583 0.0
O165 O 0.04501 0.70431 0.20736 0.0
O166 O 0.05379 0.64957 0.11576 0.0
O167 O 0.06583 0.69538 0.12248 0.0
O168 O 0.67239 0.11282 0.21049 0.0
Cd169 Cd 0.70837 0.08721 0.20597 0.0
Cd170 Cd 0.67065 0.06002 0.16157 0.0
O171 O 0.64631 0.09624 0.17252 0.0
O172 O 0.73733 0.10675 0.23221 0.0
O173 O 0.74321 0.10249 0.18311 0.0
C174 C 0.75269 0.11183 0.20866 0.0
C175 C 0.66498 0.04222 0.11212 0.0
C176 C 0.64985 0.11384 0.19421 0.0
C177 C 0.68903 0.02625 0.21778 0.0
O178 O 0.67396 0.02785 0.19388 0.0
O179 O 0.70531 0.047 0.22567 0.0
O180 O 0.64458 0.04112 0.1317 0.0
O181 O 0.68905 0.05386 0.12031 0.0
O182 O 0.10703 0.3366 0.80957 0.0
Cd183 Cd 0.08156 0.30157 0.82113 0.0
Cd184 Cd 0.06237 0.33943 0.86052 0.0
O185 O 0.10002 0.36158 0.85112 0.0
O186 O 0.10182 0.26743 0.80391 0.0
O187 O 0.09562 0.27381 0.85286 0.0
C188 C 0.10626 0.25866 0.8311 0.0
C189 C 0.04721 0.33021 0.90986 0.0
C190 C 0.11311 0.35805 0.82624 0.0
C191 C 0.02359 0.32366 0.80881 0.0
O192 O 0.03017 0.34259 0.82836 0.0
O193 O 0.03983 0.30193 0.80462 0.0
O194 O 0.04577 0.35575 0.89838 0.0
O195 O 0.05823 0.30991 0.89355 0.0
O196 O 0.33546 0.90192 0.21172 0.0
Cd197 Cd 0.30088 0.92794 0.19994 0.0
Cd198 Cd 0.34228 0.94659 0.15858 0.0
O199 O 0.36093 0.90766 0.17017 0.0
O200 O 0.26834 0.91207 0.2242 0.0
O201 O 0.26861 0.91095 0.17451 0.0
C202 C 0.25583 0.90464 0.1995 0.0
C203 C 0.34804 0.96247 0.10851 0.0
C204 C 0.35672 0.89496 0.19516 0.0
C205 C 0.32533 0.98606 0.20992 0.0
O206 O 0.34443 0.97884 0.19081 0.0
O207 O 0.30317 0.97039 0.21405 0.0
O208 O 0.36935 0.96102 0.12703 0.0
O209 O 0.32298 0.95454 0.11819 0.0
O210 O 0.89718 0.66972 0.80778 0.0
Cd211 Cd 0.9228 0.70586 0.81091 0.0
Cd212 Cd 0.94906 0.67081 0.85521 0.0
O213 O 0.91356 0.64459 0.84649 0.0
O214 O 0.90323 0.73339 0.78307 0.0
O215 O 0.90739 0.7418 0.83176 0.0
C216 C 0.8981 0.74993 0.80569 0.0
C217 C 0.9643 0.67947 0.90483 0.0
C218 C 0.89608 0.64752 0.82456 0.0
C219 C 0.98344 0.68557 0.79913 0.0
O220 O 0.98169 0.67094 0.82332 0.0
O221 O 0.96296 0.70216 0.79117 0.0
O222 O 0.96762 0.65463 0.89227 0.0
O223 O 0.95135 0.69936 0.88952 0.0
H224 H 0.28275 0.36995 0.28309 0.0
H225 H 0.28177 0.39655 0.37678 0.0
H226 H 0.3221 0.36298 0.38746 0.0
H227 H 0.29447 0.2964 0.29669 0.0
H228 H 0.31745 0.29101 0.26443 0.0
H229 H 0.29051 0.31895 0.26385 0.0
H230 H 0.3299 0.35696 0.25169 0.0
H231 H 0.357 0.32908 0.25216 0.0
H232 H 0.36086 0.36026 0.27607 0.0
H233 H 0.36063 0.32359 0.38825 0.0
H234 H 0.3933 0.28221 0.37909 0.0
H235 H 0.3682 0.28207 0.2849 0.0
C236 C 0.29127 0.36913 0.30579 0.0
C237 C 0.27918 0.38603 0.32907 0.0
C238 C 0.29078 0.38394 0.35853 0.0
C239 C 0.3137 0.36494 0.3648 0.0
C240 C 0.32481 0.34825 0.34136 0.0
C241 C 0.31399 0.3503 0.31241 0.0
C242 C 0.32848 0.32902 0.29147 0.0
C243 C 0.30641 0.30758 0.27836 0.0
C244 C 0.34505 0.34478 0.26637 0.0
C245 C 0.34889 0.31431 0.31318 0.0
C246 C 0.34668 0.32575 0.34183 0.0
C247 C 0.36271 0.31469 0.36583 0.0
C248 C 0.38122 0.29118 0.36042 0.0
C249 C 0.38344 0.27894 0.33126 0.0
C250 C 0.36724 0.29102 0.30741 0.0
H251 H 0.36481 0.72996 0.73181 0.0
H252 H 0.38647 0.73433 0.63682 0.0
H253 H 0.35418 0.69281 0.62693 0.0
H254 H 0.35917 0.65139 0.73714 0.0
H255 H 0.32915 0.65311 0.76291 0.0
H256 H 0.35571 0.68152 0.76256 0.0
H257 H 0.31527 0.71925 0.75371 0.0
H258 H 0.28863 0.691 0.75396 0.0
H259 H 0.2912 0.71499 0.7221 0.0
H260 H 0.31651 0.65269 0.62724 0.0
H261 H 0.27727 0.61782 0.63778 0.0
H262 H 0.28106 0.64034 0.73258 0.0
C263 C 0.36318 0.72196 0.70896 0.0
C264 C 0.3783 0.73534 0.6851 0.0
C265 C 0.37522 0.72434 0.65549 0.0
C266 C 0.35693 0.70076 0.64966 0.0
C267 C 0.34199 0.68836 0.6737 0.0
C268 C 0.34506 0.69856 0.70277 0.0
C269 C 0.32564 0.68254 0.72448 0.0
C270 C 0.34349 0.66616 0.74817 0.0
C271 C 0.3039 0.70318 0.73942 0.0
C272 C 0.31077 0.66197 0.70306 0.0
C273 C 0.32053 0.66547 0.67388 0.0
C274 C 0.30894 0.64959 0.65008 0.0
C275 C 0.28666 0.62983 0.65627 0.0
C276 C 0.27617 0.6262 0.68602 0.0
C277 C 0.28873 0.64234 0.70963 0.0
H278 H 0.64054 0.72881 0.28613 0.0
H279 H 0.61914 0.7345 0.3811 0.0
H280 H 0.65356 0.69494 0.39197 0.0
H281 H 0.65028 0.65058 0.28292 0.0
H282 H 0.68007 0.65327 0.25696 0.0
H283 H 0.65205 0.68023 0.25668 0.0
H284 H 0.69048 0.72026 0.26429 0.0
H285 H 0.71857 0.69347 0.26466 0.0
H286 H 0.71486 0.71804 0.29587 0.0
H287 H 0.69315 0.65662 0.3925 0.0
H288 H 0.7341 0.62357 0.38263 0.0
H289 H 0.72885 0.64385 0.28734 0.0
C290 C 0.64268 0.72149 0.30919 0.0
C291 C 0.62701 0.73467 0.33275 0.0
C292 C 0.6308 0.72463 0.36265 0.0
C293 C 0.65029 0.70216 0.36903 0.0
C294 C 0.66573 0.68993 0.34526 0.0
C295 C 0.66201 0.69924 0.31593 0.0
C296 C 0.68217 0.68376 0.29456 0.0
C297 C 0.66512 0.6659 0.27142 0.0
C298 C 0.70273 0.70516 0.27894 0.0
C299 C 0.69818 0.66453 0.31644 0.0
C300 C 0.68835 0.66819 0.34558 0.0
C301 C 0.70081 0.65342 0.36972 0.0
C302 C 0.72405 0.63469 0.3639 0.0
C303 C 0.73464 0.631 0.33421 0.0
C304 C 0.72119 0.64596 0.31027 0.0
H305 H 0.63389 0.28732 0.72349 0.0
H306 H 0.61878 0.2797 0.62737 0.0
H307 H 0.65274 0.32007 0.61826 0.0
H308 H 0.64275 0.36619 0.72628 0.0
H309 H 0.67097 0.36386 0.75415 0.0
H310 H 0.64298 0.33688 0.753 0.0
H311 H 0.68179 0.29681 0.7485 0.0
H312 H 0.70984 0.32361 0.74952 0.0
H313 H 0.70794 0.29862 0.71849 0.0
H314 H 0.69179 0.3589 0.61979 0.0
H315 H 0.73259 0.39151 0.63171 0.0
H316 H 0.72197 0.37234 0.72674 0.0
C317 C 0.63716 0.29451 0.70053 0.0
C318 C 0.62346 0.2805 0.67615 0.0
C319 C 0.62886 0.29025 0.64642 0.0
C320 C 0.6481 0.31318 0.64105 0.0
C321 C 0.66171 0.32612 0.66563 0.0
C322 C 0.65636 0.31712 0.69479 0.0
C323 C 0.67525 0.33289 0.7172 0.0
C324 C 0.65689 0.35104 0.73893 0.0
C325 C 0.69486 0.31172 0.73442 0.0
C326 C 0.69251 0.35186 0.69611 0.0
C327 C 0.68425 0.34795 0.66648 0.0
C328 C 0.69818 0.36232 0.64296 0.0
C329 C 0.72132 0.38082 0.64994 0.0
C330 C 0.73044 0.38458 0.68016 0.0
C331 C 0.71545 0.37014 0.70343 0.0
H332 H 0.77873 0.86889 0.84495 0.0
H333 H 0.78218 0.89286 0.75047 0.0
H334 H 0.82332 0.86006 0.74299 0.0
H335 H 0.85788 0.85952 0.85573 0.0
H336 H 0.85336 0.82865 0.88 0.0
H337 H 0.82618 0.85648 0.87908 0.0
H338 H 0.78731 0.81824 0.86622 0.0
H339 H 0.81433 0.79035 0.86703 0.0
H340 H 0.79233 0.79523 0.83391 0.0
H341 H 0.86033 0.82178 0.74403 0.0
H342 H 0.89175 0.77993 0.75364 0.0
H343 H 0.86572 0.77992 0.84755 0.0
C344 C 0.78861 0.86769 0.82288 0.0
C345 C 0.77733 0.88359 0.79831 0.0
C346 C 0.79044 0.88096 0.76962 0.0
C347 C 0.81391 0.86244 0.76516 0.0
C348 C 0.82415 0.84665 0.7896 0.0
C349 C 0.81209 0.84908 0.81795 0.0
C350 C 0.82607 0.82799 0.83975 0.0
C351 C 0.84181 0.84413 0.86514 0.0
C352 C 0.80367 0.80669 0.85246 0.0
C353 C 0.84732 0.81293 0.81898 0.0
C354 C 0.84592 0.8243 0.79023 0.0
C355 C 0.86196 0.81295 0.76654 0.0
C356 C 0.87969 0.78911 0.77221 0.0
C357 C 0.88136 0.77682 0.80137 0.0
C358 C 0.86529 0.78922 0.82517 0.0
H359 H 0.77961 0.14523 0.16545 0.0
H360 H 0.78604 0.11733 0.25853 0.0
H361 H 0.8281 0.14907 0.26583 0.0
H362 H 0.85863 0.15471 0.15185 0.0
H363 H 0.85332 0.18672 0.12943 0.0
H364 H 0.82609 0.1589 0.12999 0.0
H365 H 0.78788 0.19654 0.14636 0.0
H366 H 0.81494 0.2244 0.14595 0.0
H367 H 0.79419 0.21795 0.17962 0.0
H368 H 0.86566 0.18678 0.2651 0.0
H369 H 0.89669 0.22911 0.25653 0.0
H370 H 0.86676 0.23404 0.164 0.0
C371 C 0.79041 0.14528 0.18709 0.0
C372 C 0.77975 0.12861 0.21137 0.0
C373 C 0.7939 0.12983 0.23961 0.0
C374 C 0.81789 0.14772 0.24395 0.0
C375 C 0.8275 0.16437 0.21986 0.0
C376 C 0.81433 0.16337 0.19193 0.0
C377 C 0.82756 0.18547 0.17072 0.0
C378 C 0.84228 0.17055 0.14391 0.0
C379 C 0.80478 0.20738 0.16005 0.0
C380 C 0.84964 0.19948 0.19138 0.0
C381 C 0.84937 0.18665 0.21949 0.0
C382 C 0.86639 0.19677 0.24307 0.0
C383 C 0.88389 0.2209 0.23799 0.0
C384 C 0.88431 0.23477 0.20956 0.0
C385 C 0.86728 0.22357 0.1858 0.0
H386 H 0.1362 0.22693 0.78977 0.0
H387 H 0.11862 0.23303 0.88555 0.0
H388 H 0.15273 0.19289 0.895 0.0
H389 H 0.1452 0.14837 0.78613 0.0
H390 H 0.17406 0.15096 0.75903 0.0
H391 H 0.14614 0.17802 0.75984 0.0
H392 H 0.18496 0.21791 0.76593 0.0
H393 H 0.21294 0.19102 0.76521 0.0
H394 H 0.21044 0.2156 0.79655 0.0
H395 H 0.19186 0.15417 0.89395 0.0
H396 H 0.23262 0.12135 0.88258 0.0
H397 H 0.22418 0.14173 0.78756 0.0
C398 C 0.13904 0.21952 0.81272 0.0
C399 C 0.12456 0.23301 0.83691 0.0
C400 C 0.12934 0.22291 0.86663 0.0
C401 C 0.14866 0.2001 0.87221 0.0
C402 C 0.16296 0.18762 0.84782 0.0
C403 C 0.15827 0.19698 0.81865 0.0
C404 C 0.17761 0.18144 0.79651 0.0
C405 C 0.15968 0.16364 0.77406 0.0
C406 C 0.19767 0.20277 0.7801 0.0
C407 C 0.19431 0.16215 0.81776 0.0
C408 C 0.18545 0.16575 0.84725 0.0
C409 C 0.19874 0.15099 0.8709 0.0
C410 C 0.22186 0.13238 0.86423 0.0
C411 C 0.23155 0.12886 0.83418 0.0
C412 C 0.21722 0.14373 0.81075 0.0
H413 H 0.23296 0.86824 0.15643 0.0
H414 H 0.21721 0.90349 0.24545 0.0
H415 H 0.17416 0.8727 0.25054 0.0
H416 H 0.15548 0.85809 0.13472 0.0
H417 H 0.16274 0.82444 0.11585 0.0
H418 H 0.19002 0.85217 0.11707 0.0
H419 H 0.22599 0.81591 0.14082 0.0
H420 H 0.19886 0.78815 0.13974 0.0
H421 H 0.2161 0.79718 0.1749 0.0
H422 H 0.13679 0.83482 0.249 0.0
H423 H 0.107 0.79148 0.24097 0.0
H424 H 0.14576 0.77968 0.15287 0.0
C425 C 0.21994 0.87001 0.1766 0.0
C426 C 0.22828 0.88846 0.20046 0.0
C427 C 0.21118 0.88961 0.22686 0.0
C428 C 0.18661 0.87228 0.22993 0.0
C429 C 0.17932 0.85383 0.20638 0.0
C430 C 0.19534 0.85256 0.18015 0.0
C431 C 0.18414 0.82889 0.15955 0.0
C432 C 0.1724 0.84167 0.13004 0.0
C433 C 0.20767 0.80619 0.15341 0.0
C434 C 0.15994 0.81656 0.17873 0.0
C435 C 0.15741 0.83159 0.20549 0.0
C436 C 0.13819 0.82317 0.22794 0.0
C437 C 0.12142 0.79846 0.22319 0.0
C438 C 0.12385 0.7824 0.1962 0.0
C439 C 0.14299 0.79193 0.17343 0.0
H440 H 0.17526 0.49853 0.24437 0.0
H441 H 0.21967 0.54399 0.31582 0.0
H442 H 0.21191 0.59023 0.28915 0.0
H443 H 0.19595 0.5479 0.17975 0.0
H444 H 0.16046 0.54507 0.16333 0.0
H445 H 0.17541 0.51511 0.18405 0.0
H446 H 0.1304 0.51465 0.21866 0.0
H447 H 0.11542 0.5446 0.19823 0.0
H448 H 0.12039 0.54712 0.23842 0.0
H449 H 0.19325 0.63149 0.25942 0.0
H450 H 0.16295 0.66523 0.23049 0.0
H451 H 0.12823 0.5936 0.17897 0.0
C452 C 0.18444 0.51815 0.25355 0.0
C453 C 0.19884 0.51787 0.28155 0.0
C454 C 0.20922 0.54392 0.29399 0.0
C455 C 0.20493 0.57019 0.27896 0.0
C456 C 0.1899 0.57 0.25173 0.0
C457 C 0.17974 0.54466 0.23911 0.0
C458 C 0.16042 0.55081 0.21225 0.0
C459 C 0.17388 0.53902 0.18312 0.0
C460 C 0.12986 0.53858 0.21721 0.0
C461 C 0.16042 0.58354 0.21246 0.0
C462 C 0.17809 0.59412 0.235 0.0
C463 C 0.17975 0.6235 0.24135 0.0
C464 C 0.16236 0.64252 0.22483 0.0
C465 C 0.1433 0.63213 0.20233 0.0
C466 C 0.143 0.6023 0.19558 0.0
H467 H 0.53283 0.84451 0.69868 0.0
H468 H 0.48334 0.81173 0.77427 0.0
H469 H 0.52319 0.82474 0.80873 0.0
H470 H 0.60453 0.82086 0.72728 0.0
H471 H 0.62218 0.85252 0.71252 0.0
H472 H 0.59092 0.83798 0.69368 0.0
H473 H 0.56564 0.88772 0.69764 0.0
H474 H 0.59665 0.90234 0.71664 0.0
H475 H 0.56158 0.90442 0.73407 0.0
H476 H 0.56541 0.84804 0.83558 0.0
H477 H 0.6088 0.87518 0.85189 0.0
H478 H 0.63194 0.88933 0.7584 0.0
C479 C 0.53062 0.83952 0.7224 0.0
C480 C 0.50499 0.82712 0.7338 0.0
C481 C 0.50288 0.82101 0.765 0.0
C482 C 0.52537 0.82839 0.78476 0.0
C483 C 0.55005 0.84131 0.77288 0.0
C484 C 0.55303 0.84627 0.74232 0.0
C485 C 0.58124 0.86134 0.73534 0.0
C486 C 0.60088 0.84202 0.71607 0.0
C487 C 0.57594 0.89069 0.72003 0.0
C488 C 0.59323 0.86502 0.76682 0.0
C489 C 0.57494 0.85339 0.78822 0.0
C490 C 0.58024 0.85659 0.81899 0.0
C491 C 0.60483 0.87211 0.82805 0.0
C492 C 0.62393 0.88388 0.80641 0.0
C493 C 0.61814 0.8799 0.77546 0.0
H494 H 0.87641 0.37524 0.25118 0.0
H495 H 0.86287 0.40306 0.15898 0.0
H496 H 0.83425 0.44458 0.17735 0.0
H497 H 0.80628 0.40069 0.28332 0.0
H498 H 0.82354 0.41228 0.31764 0.0
H499 H 0.83771 0.38189 0.29708 0.0
H500 H 0.88781 0.40673 0.2946 0.0
H501 H 0.87384 0.4371 0.31505 0.0
H502 H 0.89063 0.44249 0.27886 0.0
H503 H 0.812 0.48603 0.20616 0.0
H504 H 0.80198 0.52533 0.2423 0.0
H505 H 0.83251 0.47114 0.31537 0.0
C506 C 0.86659 0.38947 0.23478 0.0
C507 C 0.87146 0.38567 0.20363 0.0
C508 C 0.85915 0.40542 0.18295 0.0
C509 C 0.84276 0.42898 0.19317 0.0
C510 C 0.83901 0.43253 0.22415 0.0
C511 C 0.85068 0.4133 0.24462 0.0
C512 C 0.84709 0.42387 0.27665 0.0
C513 C 0.82748 0.40347 0.29473 0.0
C514 C 0.87659 0.42779 0.29217 0.0
C515 C 0.83246 0.45254 0.27102 0.0
C516 C 0.82728 0.45688 0.24069 0.0
C517 C 0.81559 0.48267 0.22999 0.0
C518 C 0.80987 0.50486 0.25071 0.0
C519 C 0.81641 0.50129 0.28167 0.0
C520 C 0.82708 0.47446 0.29189 0.0
H521 H 0.50892 0.13599 0.73384 0.0
H522 H 0.48562 0.22596 0.72295 0.0
H523 H 0.44188 0.21795 0.75424 0.0
H524 H 0.43941 0.10604 0.73072 0.0
H525 H 0.44603 0.07921 0.75931 0.0
H526 H 0.47547 0.09262 0.7369 0.0
H527 H 0.50289 0.10718 0.78549 0.0
H528 H 0.47343 0.0939 0.80809 0.0
H529 H 0.48565 0.13059 0.81246 0.0
H530 H 0.39792 0.19798 0.78198 0.0
H531 H 0.35992 0.16908 0.8073 0.0
H532 H 0.41542 0.09388 0.8043 0.0
C533 C 0.49462 0.15402 0.73812 0.0
C534 C 0.50028 0.18149 0.72578 0.0
C535 C 0.48147 0.20473 0.73222 0.0
C536 C 0.45667 0.20036 0.74993 0.0
C537 C 0.45159 0.17284 0.76162 0.0
C538 C 0.47037 0.15022 0.75637 0.0
C539 C 0.46029 0.12278 0.77152 0.0
C540 C 0.45498 0.09876 0.74822 0.0
C541 C 0.48185 0.11305 0.79583 0.0
C542 C 0.43236 0.13314 0.78539 0.0
C543 C 0.42755 0.16203 0.77935 0.0
C544 C 0.4018 0.17556 0.78747 0.0
C545 C 0.38037 0.15903 0.8018 0.0
C546 C 0.38511 0.12951 0.80834 0.0
C547 C 0.41164 0.11665 0.80047 0.0
H548 H 0.16955 0.46755 0.70285 0.0
H549 H 0.21058 0.51587 0.7748 0.0
H550 H 0.19876 0.47684 0.81062 0.0
H551 H 0.11154 0.44267 0.74347 0.0
H552 H 0.11008 0.40737 0.7265 0.0
H553 H 0.12506 0.43718 0.70582 0.0
H554 H 0.1727 0.40881 0.69813 0.0
H555 H 0.15777 0.37874 0.71866 0.0
H556 H 0.19152 0.39451 0.7304 0.0
H557 H 0.17532 0.43645 0.83993 0.0
H558 H 0.14612 0.39567 0.85931 0.0
H559 H 0.12344 0.37228 0.76775 0.0
C560 C 0.17669 0.46961 0.72598 0.0
C561 C 0.19101 0.49476 0.736 0.0
C562 C 0.1998 0.49671 0.76652 0.0
C563 C 0.19313 0.47466 0.78707 0.0
C564 C 0.17818 0.45054 0.77663 0.0
C565 C 0.17059 0.44764 0.74666 0.0
C566 C 0.1533 0.42037 0.74145 0.0
C567 C 0.12322 0.42733 0.72856 0.0
C568 C 0.16982 0.39936 0.72095 0.0
C569 C 0.15136 0.40896 0.77333 0.0
C570 C 0.16586 0.42662 0.79335 0.0
C571 C 0.16455 0.42203 0.8244 0.0
C572 C 0.14786 0.39892 0.83521 0.0
C573 C 0.13301 0.38055 0.815 0.0
C574 C 0.13526 0.38546 0.78369 0.0
H575 H 0.37194 0.886 0.25364 0.0
H576 H 0.39231 0.85974 0.16239 0.0
H577 H 0.43328 0.83075 0.18155 0.0
H578 H 0.44234 0.89845 0.27453 0.0
H579 H 0.43855 0.88648 0.31296 0.0
H580 H 0.40774 0.90029 0.29301 0.0
H581 H 0.37971 0.853 0.30388 0.0
H582 H 0.41049 0.83905 0.32404 0.0
H583 H 0.39526 0.81885 0.2932 0.0
H584 H 0.47466 0.80856 0.21015 0.0
H585 H 0.51507 0.79828 0.24483 0.0
H586 H 0.46921 0.84192 0.31684 0.0
C587 C 0.38441 0.87333 0.23782 0.0
C588 C 0.37867 0.87459 0.20661 0.0
C589 C 0.39619 0.85872 0.18643 0.0
C590 C 0.41941 0.84215 0.19713 0.0
C591 C 0.42496 0.84193 0.22802 0.0
C592 C 0.408 0.85723 0.24806 0.0
C593 C 0.42065 0.8566 0.27951 0.0
C594 C 0.42774 0.88727 0.29063 0.0
C595 C 0.40031 0.84093 0.30145 0.0
C596 C 0.44778 0.83923 0.27393 0.0
C597 C 0.44955 0.83037 0.24426 0.0
C598 C 0.47335 0.81513 0.2335 0.0
C599 C 0.49619 0.80935 0.2534 0.0
C600 C 0.49531 0.81928 0.28357 0.0
C601 C 0.47048 0.83392 0.29397 0.0
H602 H 0.82642 0.54181 0.706 0.0
H603 H 0.80872 0.48234 0.77911 0.0
H604 H 0.82226 0.52001 0.81596 0.0
H605 H 0.88739 0.57128 0.7348 0.0
H606 H 0.88098 0.60773 0.72228 0.0
H607 H 0.86524 0.57803 0.70214 0.0
H608 H 0.81424 0.59999 0.70916 0.0
H609 H 0.82987 0.63007 0.7291 0.0
H610 H 0.80175 0.60893 0.74647 0.0
H611 H 0.84701 0.56101 0.84384 0.0
H612 H 0.87553 0.60343 0.86036 0.0
H613 H 0.87377 0.63675 0.76908 0.0
C614 C 0.82446 0.53702 0.72979 0.0
C615 C 0.81643 0.50921 0.73971 0.0
C616 C 0.81445 0.50363 0.77102 0.0
C617 C 0.82223 0.52487 0.79211 0.0
C618 C 0.83125 0.55175 0.78151 0.0
C619 C 0.83168 0.55807 0.75106 0.0
C620 C 0.84408 0.58774 0.74521 0.0
C621 C 0.87101 0.58607 0.72493 0.0
C622 C 0.82111 0.60788 0.73169 0.0
C623 C 0.85185 0.59665 0.77697 0.0
C624 C 0.84425 0.57573 0.79769 0.0
C625 C 0.85228 0.57791 0.82794 0.0
C626 C 0.86857 0.60199 0.83711 0.0
C627 C 0.87642 0.62364 0.81613 0.0
C628 C 0.86741 0.62102 0.78585 0.0
H629 H 0.63843 0.1349 0.2501 0.0
H630 H 0.60679 0.13571 0.15819 0.0
H631 H 0.56419 0.16396 0.17455 0.0
H632 H 0.57269 0.12043 0.28226 0.0
H633 H 0.57839 0.14159 0.31579 0.0
H634 H 0.60878 0.1268 0.29597 0.0
H635 H 0.63101 0.17794 0.29105 0.0
H636 H 0.60058 0.19293 0.31094 0.0
H637 H 0.61011 0.20654 0.27422 0.0
H638 H 0.52278 0.188 0.20205 0.0
H639 H 0.48439 0.20094 0.23834 0.0
H640 H 0.54224 0.18119 0.31235 0.0
C641 C 0.62305 0.14185 0.23322 0.0
C642 C 0.62615 0.1336 0.20278 0.0
C643 C 0.60496 0.14211 0.18157 0.0
C644 C 0.58079 0.15826 0.19065 0.0
C645 C 0.57806 0.16549 0.22104 0.0
C646 C 0.5986 0.15738 0.24201 0.0
C647 C 0.58892 0.16421 0.27377 0.0
C648 C 0.58708 0.13662 0.29305 0.0
C649 C 0.60884 0.18675 0.28835 0.0
C650 C 0.55933 0.17665 0.26756 0.0
C651 C 0.5537 0.17796 0.237 0.0
C652 C 0.5271 0.18737 0.226 0.0
C653 C 0.50545 0.19478 0.24678 0.0
C654 C 0.51038 0.19211 0.27815 0.0
C655 C 0.53792 0.18361 0.28851 0.0
H656 H 0.67636 1.00096 0.74565 0.0
H657 H 0.70302 0.04262 0.82842 0.0
H658 H 0.694 0.09043 0.80539 0.0
H659 H 0.70109 0.05785 0.69127 0.0
H660 H 0.66934 0.05366 0.6682 0.0
H661 H 0.68357 0.0232 0.68867 0.0
H662 H 0.63382 0.01559 0.71412 0.0
H663 H 0.61949 0.04594 0.69381 0.0
H664 H 0.6174 0.04505 0.73434 0.0
H665 H 0.67745 0.13287 0.77579 0.0
H666 H 0.65013 0.16683 0.74417 0.0
H667 H 0.63058 0.09763 0.68144 0.0
C668 C 0.68126 0.02027 0.75842 0.0
C669 C 0.69108 0.01838 0.78846 0.0
C670 C 0.69598 0.04384 0.80518 0.0
C671 C 0.69102 0.07101 0.79223 0.0
C672 C 0.68075 0.07223 0.76271 0.0
C673 C 0.67567 0.04753 0.74606 0.0
C674 C 0.6606 0.05459 0.71662 0.0
C675 C 0.6798 0.04687 0.68959 0.0
C676 C 0.63108 0.0394 0.71463 0.0
C677 C 0.65723 0.087 0.71971 0.0
C678 C 0.66967 0.09677 0.74612 0.0
C679 C 0.66789 0.12553 0.7549 0.0
C680 C 0.65225 0.14469 0.73674 0.0
C681 C 0.63814 0.13497 0.71026 0.0
C682 C 0.6414 0.10586 0.70131 0.0
H683 H 0.0986 0.42742 0.2985 0.0
H684 H 0.14682 0.34909 0.31581 0.0
H685 H 0.10762 0.32023 0.2925 0.0
H686 H 0.02521 0.39827 0.30758 0.0
H687 H 0.01125 0.41905 0.27649 0.0
H688 H 0.04099 0.43274 0.29842 0.0
H689 H 0.07137 0.43805 0.24972 0.0
H690 H 0.04189 0.4241 0.2277 0.0
H691 H 0.07682 0.40705 0.22587 0.0
H692 H 0.06323 0.30027 0.26612 0.0
H693 H 0.0196 0.2912 0.23513 0.0
H694 H 1.00381 0.38329 0.23019 0.0
C695 C 0.10041 0.40411 0.29814 0.0
C696 C 0.12518 0.39025 0.3096 0.0
C697 C 0.12763 0.3599 0.3076 0.0
C698 C 0.10552 0.34341 0.29442 0.0
C699 C 0.08151 0.35777 0.28277 0.0
C700 C 0.079 0.38749 0.28424 0.0
C701 C 0.05263 0.39797 0.2673 0.0
C702 C 0.03126 0.41288 0.28873 0.0
C703 C 0.06121 0.41797 0.24109 0.0
C704 C 0.04077 0.36957 0.25591 0.0
C705 C 0.05736 0.34656 0.26555 0.0
C706 C 0.05018 0.31815 0.25833 0.0
C707 C 0.02543 0.31318 0.24075 0.0
C708 C 0.00869 0.33656 0.23 0.0
C709 C 0.01654 0.36505 0.23771 0.0
H710 H 0.32797 0.97084 0.81037 0.0
H711 H 0.30679 0.02892 0.73702 0.0
H712 H 0.3191 0.99073 0.70032 0.0
H713 H 0.38799 0.94116 0.7792 0.0
H714 H 0.3823 0.90493 0.79273 0.0
H715 H 0.36736 0.93494 0.81303 0.0
H716 H 0.3162 0.91264 0.80893 0.0
H717 H 0.33104 0.88228 0.78885 0.0
H718 H 0.30208 0.90299 0.77246 0.0
H719 H 0.34271 0.94938 0.67209 0.0
H720 H 0.37045 0.90668 0.65499 0.0
H721 H 0.37298 0.8749 0.74683 0.0
C722 C 0.32504 0.97523 0.7866 0.0
C723 C 0.31636 1.0028 0.77654 0.0
C724 C 0.31307 0.00783 0.74525 0.0
C725 C 0.32013 0.98629 0.72423 0.0
C726 C 0.32978 0.95966 0.73491 0.0
C727 C 0.33155 0.95388 0.76542 0.0
C728 C 0.34433 0.92435 0.77123 0.0
C729 C 0.37214 0.9265 0.79015 0.0
C730 C 0.32208 0.90438 0.78625 0.0
C731 C 0.35069 0.91489 0.73932 0.0
C732 C 0.34212 0.93545 0.71859 0.0
C733 C 0.34874 0.93276 0.68803 0.0
C734 C 0.3646 0.90854 0.67853 0.0
C735 C 0.3734 0.88724 0.69948 0.0
C736 C 0.36584 0.89037 0.73012 0.0
H737 H 0.91701 0.59127 0.30125 0.0
H738 H 0.86465 0.66843 0.30835 0.0
H739 H 0.90282 0.69648 0.28224 0.0
H740 H 0.98854 0.62487 0.30799 0.0
H741 H 1.0041 0.60151 0.2799 0.0
H742 H 0.97463 0.58887 0.30287 0.0
H743 H 0.94548 0.57668 0.25467 0.0
H744 H 0.9747 0.58952 0.23158 0.0
H745 H 0.93906 0.60451 0.22707 0.0
H746 H 0.94689 0.71563 0.25417 0.0
H747 H 0.99053 0.72317 0.22267 0.0
H748 H 0.01048 0.63201 0.2294 0.0
C749 C 0.91398 0.61425 0.29805 0.0
C750 C 0.88832 0.62795 0.30739 0.0
C751 C 0.88445 0.65775 0.30171 0.0
C752 C 0.90599 0.67379 0.28695 0.0
C753 C 0.9309 0.6595 0.27749 0.0
C754 C 0.93481 0.6303 0.28259 0.0
C755 C 0.96195 0.61932 0.2675 0.0
C756 C 0.98358 0.60798 0.29097 0.0
C757 C 0.95486 0.59615 0.2438 0.0
C758 C 0.97266 0.64681 0.25291 0.0
C759 C 0.95486 0.66992 0.25942 0.0
C760 C 0.96087 0.69764 0.24882 0.0
C761 C 0.98562 0.70174 0.23099 0.0
C762 C 1.0035 0.6781 0.22336 0.0
C763 C 0.99687 0.65037 0.23453 0.0
H764 H 0.66802 0.97263 0.20366 0.0
H765 H 0.69985 0.02392 0.27835 0.0
H766 H 0.68597 0.98517 0.31373 0.0
H767 H 0.60734 0.94538 0.23863 0.0
H768 H 0.6094 0.90979 0.22243 0.0
H769 H 0.62472 0.94004 0.20273 0.0
H770 H 0.6743 0.91423 0.2007 0.0
H771 H 0.65907 0.8837 0.22022 0.0
H772 H 0.69061 0.90147 0.2351 0.0
H773 H 0.66157 0.94411 0.34144 0.0
H774 H 0.63358 0.90154 0.35856 0.0
H775 H 0.62124 0.87566 0.26561 0.0
C776 C 0.67268 0.97543 0.22738 0.0
C777 C 0.68502 1.0013 0.23823 0.0
C778 C 0.69065 1.00419 0.26947 0.0
C779 C 0.68275 0.98233 0.28977 0.0
C780 C 0.66983 0.95744 0.27841 0.0
C781 C 0.66543 0.95363 0.24786 0.0
C782 C 0.6502 0.92537 0.24149 0.0
C783 C 0.6212 0.93047 0.22538 0.0
C784 C 0.66972 0.90499 0.2233 0.0
C785 C 0.64577 0.91437 0.27327 0.0
C786 C 0.65716 0.93316 0.29431 0.0
C787 C 0.65321 0.92887 0.32516 0.0
C788 C 0.63721 0.90475 0.3347 0.0
C789 C 0.62574 0.88509 0.31344 0.0
C790 C 0.63045 0.8899 0.2824 0.0
H791 H 0.91327 0.41877 0.71438 0.0
H792 H 0.85988 0.34262 0.70428 0.0
H793 H 0.89775 0.31313 0.72913 0.0
H794 H 0.98453 0.3845 0.70645 0.0
H795 H 1.00023 0.40669 0.73549 0.0
H796 H 0.97104 0.42047 0.71283 0.0
H797 H 0.94182 0.43138 0.76129 0.0
H798 H 0.97075 0.4174 0.78406 0.0
H799 H 0.93489 0.40271 0.78779 0.0
H800 H 0.94152 0.29247 0.75664 0.0
H801 H 0.98478 0.28344 0.78837 0.0
H802 H 1.00578 0.37452 0.78507 0.0
C803 C 0.90997 0.39573 0.7166 0.0
C804 C 0.8841 0.38272 0.70682 0.0
C805 C 0.87986 0.35278 0.71125 0.0
C806 C 0.90122 0.33593 0.72529 0.0
C807 C 0.92634 0.34955 0.73527 0.0
C808 C 0.93061 0.37886 0.73134 0.0
C809 C 0.9578 0.38899 0.74697 0.0
C810 C 0.97969 0.40085 0.72406 0.0
C811 C 0.95088 0.41144 0.77148 0.0
C812 C 0.96808 0.36091 0.76058 0.0
C813 C 0.95008 0.33823 0.75306 0.0
C814 C 0.95567 0.31011 0.76275 0.0
C815 C 0.98019 0.30516 0.78072 0.0
C816 C 0.99821 0.32837 0.7894 0.0
C817 C 0.99203 0.35649 0.77911 0.0
H818 H 0.42088 0.0966 0.30417 0.0
H819 H 0.34367 0.14748 0.31834 0.0
H820 H 0.31443 0.10961 0.29325 0.0
H821 H 0.40322 0.07697 0.23063 0.0
H822 H 0.41885 0.04139 0.23249 0.0
H823 H 0.43283 0.06981 0.25593 0.0
H824 H 0.42402 0.03869 0.30358 0.0
H825 H 0.41036 0.00997 0.28023 0.0
H826 H 0.38859 0.02401 0.3105 0.0
H827 H 0.29412 0.06645 0.26475 0.0
H828 H 0.2851 0.02392 0.23212 0.0
H829 H 0.37674 1.00497 0.23187 0.0
C830 C 0.39768 0.09924 0.30287 0.0
C831 C 0.38427 0.12442 0.31388 0.0
C832 C 0.35411 0.12796 0.31053 0.0
C833 C 0.33741 0.10661 0.29631 0.0
C834 C 0.35139 0.08224 0.285 0.0
C835 C 0.38091 0.07861 0.28793 0.0
C836 C 0.39125 0.05227 0.27093 0.0
C837 C 0.4128 0.06063 0.24602 0.0
C838 C 0.40432 0.02991 0.29261 0.0
C839 C 0.36303 0.04173 0.25778 0.0
C840 C 0.34016 0.0589 0.26662 0.0
C841 C 0.3119 0.05295 0.25761 0.0
C842 C 0.30696 0.02884 0.23908 0.0
C843 C 0.33027 0.01154 0.22919 0.0
C844 C 0.35859 0.01817 0.2387 0.0
H845 H 0.13482 0.61897 0.75158 0.0
H846 H 0.10895 0.63098 0.65855 0.0
H847 H 0.06582 0.65813 0.67556 0.0
H848 H 0.0656 0.60361 0.77803 0.0
H849 H 0.07032 0.62091 0.81405 0.0
H850 H 0.10108 0.60649 0.79447 0.0
H851 H 0.12613 0.65647 0.79679 0.0
H852 H 0.09538 0.67107 0.81644 0.0
H853 H 0.10775 0.68775 0.7821 0.0
H854 H 0.02437 0.68193 0.70315 0.0
H855 H 0.98553 0.69564 0.73846 0.0
H856 H 0.03704 0.66437 0.81331 0.0
C857 C 0.12046 0.62796 0.73475 0.0
C858 C 0.12543 0.62341 0.70373 0.0
C859 C 0.10563 0.63454 0.68241 0.0
C860 C 0.08119 0.65006 0.69187 0.0
C861 C 0.07674 0.65386 0.72272 0.0
C862 C 0.09571 0.64285 0.74383 0.0
C863 C 0.0845 0.64698 0.77557 0.0
C864 C 0.08011 0.61776 0.79144 0.0
C865 C 0.10464 0.66675 0.79379 0.0
C866 C 0.05598 0.66163 0.76909 0.0
C867 C 0.05218 0.66602 0.73854 0.0
C868 C 0.02719 0.6787 0.72711 0.0
C869 C 1.00529 0.68651 0.74737 0.0
C870 C 0.00825 0.68106 0.77864 0.0
C871 C 0.03416 0.66884 0.78955 0.0
H872 H 0.14599 0.52852 0.5672 0.0
H873 H 0.23787 0.53183 0.58582 0.0
H874 H 0.24788 0.5111 0.5355 0.0
H875 H 0.14531 0.46232 0.52606 0.0
H876 H 0.11884 0.47429 0.49903 0.0
H877 H 0.11893 0.4891 0.53653 0.0
H878 H 0.1229 0.54081 0.51465 0.0
H879 H 0.12251 0.52618 0.47708 0.0
H880 H 0.15174 0.54926 0.48885 0.0
H881 H 0.24746 0.48763 0.48378 0.0
H882 H 0.23708 0.46909 0.43262 0.0
H883 H 0.14567 0.48404 0.44705 0.0
C884 C 0.16823 0.52496 0.56066 0.0
C885 C 0.19118 0.53164 0.58045 0.0
C886 C 0.21998 0.52695 0.57096 0.0
C887 C 0.22585 0.51502 0.54251 0.0
C888 C 0.20269 0.50831 0.52368 0.0
C889 C 0.17447 0.51357 0.5322 0.0
C890 C 0.1535 0.50541 0.50743 0.0
C891 C 0.13294 0.48135 0.5179 0.0
C892 C 0.13668 0.532 0.49635 0.0
C893 C 0.17428 0.49457 0.48368 0.0
C894 C 0.20253 0.49603 0.49359 0.0
C895 C 0.22543 0.4866 0.47573 0.0
C896 C 0.21932 0.47594 0.44678 0.0
C897 C 0.1906 0.47522 0.43584 0.0
C898 C 0.16786 0.48446 0.45473 0.0
H899 H 0.52636 0.86622 0.44884 0.0
H900 H 0.53657 0.77427 0.43391 0.0
H901 H 0.51459 0.7645 0.48371 0.0
H902 H 0.54356 0.86467 0.52853 0.0
H903 H 0.51786 0.8925 0.53771 0.0
H904 H 0.53452 0.89189 0.50108 0.0
H905 H 0.48392 0.89133 0.47614 0.0
H906 H 0.4671 0.89162 0.5127 0.0
H907 H 0.45853 0.86344 0.48619 0.0
H908 H 0.48893 0.765 0.53437 0.0
H909 H 0.46659 0.7758 0.58375 0.0
H910 H 0.47539 0.86745 0.56593 0.0
C911 C 0.52414 0.84401 0.4561 0.0
C912 C 0.5331 0.82098 0.43747 0.0
C913 C 0.52997 0.79225 0.44787 0.0
C914 C 0.51736 0.7865 0.47605 0.0
C915 C 0.50834 0.80973 0.49366 0.0
C916 C 0.51199 0.83793 0.48424 0.0
C917 C 0.50102 0.85907 0.50757 0.0
C918 C 0.52571 0.87815 0.51942 0.0
C919 C 0.47616 0.87744 0.49489 0.0
C920 C 0.49039 0.8384 0.53153 0.0
C921 C 0.49452 0.81002 0.52302 0.0
C922 C 0.4858 0.78715 0.54133 0.0
C923 C 0.47299 0.79349 0.56926 0.0
C924 C 0.46933 0.82244 0.57873 0.0
C925 C 0.47801 0.84509 0.55941 0.0
H926 H 0.80794 0.53116 0.44836 0.0
H927 H 0.90032 0.53617 0.43292 0.0
H928 H 0.90929 0.51815 0.48433 0.0
H929 H 0.80876 0.55153 0.52759 0.0
H930 H 0.781 0.52619 0.53813 0.0
H931 H 0.7816 0.54105 0.50062 0.0
H932 H 0.78247 0.48939 0.47839 0.0
H933 H 0.78205 0.47438 0.51583 0.0
H934 H 0.81038 0.46462 0.48993 0.0
H935 H 0.90866 0.50024 0.53696 0.0
H936 H 0.89851 0.48133 0.58774 0.0
H937 H 0.80655 0.4843 0.56909 0.0
C938 C 0.83001 0.52878 0.45602 0.0
C939 C 0.85347 0.53529 0.43679 0.0
C940 C 0.88206 0.53136 0.44732 0.0
C941 C 0.88738 0.52116 0.47648 0.0
C942 C 0.86388 0.51459 0.49477 0.0
C943 C 0.83575 0.51803 0.48502 0.0
C944 C 0.81454 0.50808 0.50898 0.0
C945 C 0.79534 0.53321 0.51945 0.0
C946 C 0.79628 0.4826 0.4976 0.0
C947 C 0.8352 0.49866 0.53368 0.0
C948 C 0.86353 0.5029 0.52498 0.0
C949 C 0.88658 0.49667 0.54401 0.0
C950 C 0.88058 0.48596 0.57282 0.0
C951 C 0.85178 0.48117 0.58227 0.0
C952 C 0.82879 0.48741 0.56231 0.0
H953 H 0.48875 0.14039 0.44555 0.0
H954 H 0.471 0.23179 0.43524 0.0
H955 H 0.49229 0.24099 0.48545 0.0
H956 H 0.47162 0.13694 0.52525 0.0
H957 H 0.49949 0.11089 0.53323 0.0
H958 H 0.48283 0.11178 0.49659 0.0
H959 H 0.53322 0.11754 0.47194 0.0
H960 H 0.55001 0.11698 0.50853 0.0
H961 H 0.55627 0.1469 0.48341 0.0
H962 H 0.51791 0.24033 0.53589 0.0
H963 H 0.54087 0.22936 0.58486 0.0
H964 H 0.53969 0.13809 0.56305 0.0
C965 C 0.48919 0.16233 0.45391 0.0
C966 C 0.47829 0.18541 0.43644 0.0
C967 C 0.47912 0.21377 0.44828 0.0
C968 C 0.49131 0.21922 0.4767 0.0
C969 C 0.50227 0.19602 0.49315 0.0
C970 C 0.5009 0.16808 0.48238 0.0
C971 C 0.51356 0.14687 0.50477 0.0
C972 C 0.4905 0.12536 0.5156 0.0
C973 C 0.53982 0.13115 0.49136 0.0
C974 C 0.5225 0.16725 0.52977 0.0
C975 C 0.51608 0.19554 0.52252 0.0
C976 C 0.52285 0.21824 0.54187 0.0
C977 C 0.53604 0.2118 0.56958 0.0
C978 C 0.54203 0.18287 0.57783 0.0
C979 C 0.53531 0.16041 0.55746 0.0
H980 H 0.70586 0.0282 0.06893 0.0
H981 H 0.6136 0.02867 0.08633 0.0
H982 H 0.60474 0.00724 0.03651 0.0
H983 H 0.70163 0.04544 0.98957 0.0
H984 H 0.73075 0.02176 0.9789 0.0
H985 H 0.73015 0.03753 0.01596 0.0
H986 H 0.73336 0.98655 0.03967 0.0
H987 H 0.73377 0.97061 1.00266 0.0
H988 H 0.70689 0.95966 0.0297 0.0
H989 H 0.6052 0.98711 0.98501 0.0
H990 H 0.61507 0.96864 0.93405 0.0
H991 H 0.70711 0.97854 0.94936 0.0
C992 C 0.68383 0.02392 0.06213 0.0
C993 C 0.66041 0.03021 0.08155 0.0
C994 C 0.63189 0.02402 0.07194 0.0
C995 C 0.62661 0.01183 0.04365 0.0
C996 C 0.65006 1.00565 0.02519 0.0
C997 C 0.67812 0.01135 0.03393 0.0
C998 C 0.69929 1.00222 0.00957 0.0
C999 C 0.71646 0.02829 0.99781 0.0
C1000 C 0.71952 0.97834 0.02109 0.0
C1001 C 0.67866 0.99075 0.9858 0.0
C1002 C 0.65038 0.99307 0.99541 0.0
C1003 C 0.62725 0.98499 0.97727 0.0
C1004 C 0.63309 0.97454 0.94834 0.0
C1005 C 0.66183 0.97196 0.93783 0.0
C1006 C 0.68495 0.97986 0.95699 0.0
H1007 H 0.02858 0.36964 0.95148 0.0
H1008 H 0.03859 0.27759 0.93691 0.0
H1009 H 0.01585 0.26804 0.98636 0.0
H1010 H 0.04426 0.36857 0.03124 0.0
H1011 H 0.01832 0.39636 0.03984 0.0
H1012 H 0.03553 0.39562 1.00349 0.0
H1013 H 0.98533 0.39471 0.9777 0.0
H1014 H 0.96796 0.3952 0.01398 0.0
H1015 H 0.95987 0.36682 0.98754 0.0
H1016 H 0.9903 0.26877 0.03709 0.0
H1017 H 0.9675 0.27979 0.08617 0.0
H1018 H 0.97547 0.37137 0.06742 0.0
C1019 C 0.02614 0.34745 0.95871 0.0
C1020 C 0.03534 0.32435 0.94028 0.0
C1021 C 0.0318 0.29564 0.95067 0.0
C1022 C 0.0188 0.29001 0.97868 0.0
C1023 C 0.00964 0.31331 0.9961 0.0
C1024 C 0.01343 0.34147 0.98661 0.0
C1025 C 1.00205 0.36271 0.00963 0.0
C1026 C 0.0265 0.38194 0.02177 0.0
C1027 C 0.97734 0.38093 0.99642 0.0
C1028 C 0.99112 0.34215 0.03355 0.0
C1029 C 0.9955 0.31373 0.02531 0.0
C1030 C 0.98688 0.29095 0.04379 0.0
C1031 C 0.97384 0.29742 0.07158 0.0
C1032 C 0.96971 0.32643 0.08069 0.0
C1033 C 0.97834 0.34897 0.06119 0.0
H1034 H 0.30722 0.03126 0.94763 0.0
H1035 H 0.39866 0.02669 0.92666 0.0
H1036 H 0.40832 0.00627 0.97685 0.0
H1037 H 0.31507 0.04962 0.02701 0.0
H1038 H 0.28522 0.02744 0.03896 0.0
H1039 H 0.28533 0.04295 1.00174 0.0
H1040 H 0.27884 0.99206 0.97863 0.0
H1041 H 0.27887 0.97637 0.01576 0.0
H1042 H 0.30428 0.96398 0.98788 0.0
H1043 H 0.40858 0.98647 0.0286 0.0
H1044 H 0.39936 0.96733 0.0794 0.0
H1045 H 0.30749 0.98218 0.06747 0.0
C1046 C 0.32927 0.02622 0.95379 0.0
C1047 C 0.35223 0.0307 0.93326 0.0
C1048 C 0.38074 0.02344 0.94196 0.0
C1049 C 0.38647 0.01185 0.97046 0.0
C1050 C 0.36343 0.00736 0.99001 0.0
C1051 C 0.33538 0.01419 0.98217 0.0
C1052 C 0.31462 0.00623 1.00734 0.0
C1053 C 0.29915 0.03317 0.01948 0.0
C1054 C 0.29287 0.98329 0.99676 0.0
C1055 C 0.33545 0.99392 0.03046 0.0
C1056 C 0.36349 0.995 0.01992 0.0
C1057 C 0.38672 0.98543 0.03712 0.0
C1058 C 0.38123 0.9746 0.06598 0.0
C1059 C 0.35271 0.97313 0.07741 0.0
C1060 C 0.32949 0.98278 0.05925 0.0
H1061 H 0.98436 0.6398 0.94555 0.0
H1062 H 0.97176 0.73178 0.93279 0.0
H1063 H 0.99495 0.74107 0.98208 0.0
H1064 H 0.96953 0.63928 0.02555 0.0
H1065 H 0.99616 0.61195 0.03344 0.0
H1066 H 0.97855 0.61287 0.99729 0.0
H1067 H 0.02845 0.61527 0.97102 0.0
H1068 H 0.0462 0.61465 1.00711 0.0
H1069 H 0.05338 0.64358 0.98101 0.0
H1070 H 0.02141 0.74017 0.03227 0.0
H1071 H 0.04483 0.72899 0.08099 0.0
H1072 H 0.03852 0.63751 0.0612 0.0
C1073 C 0.98634 0.66192 0.95315 0.0
C1074 C 0.97629 0.68509 0.93526 0.0
C1075 C 0.97919 0.71368 0.94614 0.0
C1076 C 0.99247 0.71917 0.97404 0.0
C1077 C 1.0025 0.69582 0.99092 0.0
C1078 C 0.99925 0.66774 0.98101 0.0
C1079 C 0.01136 0.64641 1.0036 0.0
C1080 C 0.98747 0.62646 0.01569 0.0
C1081 C 0.03633 0.62896 0.98986 0.0
C1082 C 0.02209 0.66685 0.02774 0.0
C1083 C 0.01701 0.69527 0.01994 0.0
C1084 C 0.02536 0.71797 0.03864 0.0
C1085 C 0.03878 0.71142 0.06621 0.0
C1086 C 0.04351 0.68239 0.07497 0.0
C1087 C 0.0352 0.65992 0.05524 0.0
loop_
_geom_bond_atom_site_label_1
_geom_bond_atom_site_label_2
_geom_bond_distance
_geom_bond_site_symmetry_2
_ccdc_geom_bond_type
O0 Cd1 2.223 . S
O0 C8 1.315 . S
Cd1 O0 2.223 . S
Cd1 O4 2.297 . S
Cd1 O5 2.439 . S
Cd1 O11 2.240 . S
Cd2 O3 2.240 . S
Cd2 O10 2.223 . S
Cd2 O12 2.297 . S
Cd2 O13 2.439 . S
O3 Cd2 2.240 . S
O3 C8 1.279 . S
O4 Cd1 2.297 . S
O4 C6 1.247 . S
O5 Cd1 2.439 . S
O5 C6 1.208 . S
C6 O4 1.247 . S
C6 O5 1.208 . S
C7 O12 1.247 . S
C7 O13 1.208 . S
C8 O0 1.315 . S
C8 O3 1.279 . S
C9 O10 1.315 . S
C9 O11 1.279 . S
O10 Cd2 2.223 . S
O10 C9 1.315 . S
O11 Cd1 2.240 . S
O11 C9 1.279 . S
O12 Cd2 2.297 . S
O12 C7 1.247 . S
O13 Cd2 2.439 . S
O13 C7 1.208 . S
O14 Cd15 2.223 . S
O14 C22 1.315 . S
Cd15 O14 2.223 . S
Cd15 O18 2.297 . S
Cd15 O19 2.439 . S
Cd15 O25 2.240 . S
Cd16 O17 2.240 . S
Cd16 O24 2.223 . S
Cd16 O26 2.297 . S
Cd16 O27 2.439 . S
O17 Cd16 2.240 . S
O17 C22 1.279 . S
O18 Cd15 2.297 . S
O18 C20 1.247 . S
O19 Cd15 2.439 . S
O19 C20 1.208 . S
C20 O18 1.247 . S
C20 O19 1.208 . S
C21 O26 1.247 . S
C21 O27 1.208 . S
C22 O14 1.315 . S
C22 O17 1.279 . S
C23 O24 1.315 . S
C23 O25 1.279 . S
O24 Cd16 2.223 . S
O24 C23 1.315 . S
O25 Cd15 2.240 . S
O25 C23 1.279 . S
O26 Cd16 2.297 . S
O26 C21 1.247 . S
O27 Cd16 2.439 . S
O27 C21 1.208 . S
O28 Cd29 2.223 . S
O28 C36 1.315 . S
Cd29 O28 2.223 . S
Cd29 O32 2.297 . S
Cd29 O33 2.439 . S
Cd29 O39 2.240 . S
Cd30 O31 2.240 . S
Cd30 O38 2.223 . S
Cd30 O40 2.297 . S
Cd30 O41 2.439 . S
O31 Cd30 2.240 . S
O31 C36 1.279 . S
O32 Cd29 2.297 . S
O32 C34 1.247 . S
O33 Cd29 2.439 . S
O33 C34 1.208 . S
C34 O32 1.247 . S
C34 O33 1.208 . S
C35 O40 1.247 . S
C35 O41 1.208 . S
C36 O28 1.315 . S
C36 O31 1.279 . S
C37 O38 1.315 . S
C37 O39 1.279 . S
O38 Cd30 2.223 . S
O38 C37 1.315 . S
O39 Cd29 2.240 . S
O39 C37 1.279 . S
O40 Cd30 2.297 . S
O40 C35 1.247 . S
O41 Cd30 2.439 . S
O41 C35 1.208 . S
O42 Cd43 2.223 . S
O42 C50 1.315 . S
Cd43 O42 2.223 . S
Cd43 O46 2.297 . S
Cd43 O47 2.439 . S
Cd43 O53 2.240 . S
Cd44 O45 2.240 . S
Cd44 O52 2.223 . S
Cd44 O54 2.297 . S
Cd44 O55 2.439 . S
O45 Cd44 2.240 . S
O45 C50 1.279 . S
O46 Cd43 2.297 . S
O46 C48 1.247 . S
O47 Cd43 2.439 . S
O47 C48 1.208 . S
C48 O46 1.247 . S
C48 O47 1.208 . S
C49 O54 1.247 . S
C49 O55 1.208 . S
C50 O42 1.315 . S
C50 O45 1.279 . S
C51 O52 1.315 . S
C51 O53 1.279 . S
O52 Cd44 2.223 . S
O52 C51 1.315 . S
O53 Cd43 2.240 . S
O53 C51 1.279 . S
O54 Cd44 2.297 . S
O54 C49 1.247 . S
O55 Cd44 2.439 . S
O55 C49 1.208 . S
O56 Cd57 2.223 . S
O56 C64 1.315 . S
Cd57 O56 2.223 . S
Cd57 O60 2.297 . S
Cd57 O61 2.439 . S
Cd57 O67 2.240 . S
Cd58 O59 2.240 . S
Cd58 O66 2.223 . S
Cd58 O68 2.297 . S
Cd58 O69 2.439 . S
O59 Cd58 2.240 . S
O59 C64 1.279 . S
O60 Cd57 2.297 . S
O60 C62 1.247 . S
O61 Cd57 2.439 . S
O61 C62 1.208 . S
C62 O60 1.247 . S
C62 O61 1.208 . S
C63 O68 1.247 . S
C63 O69 1.208 . S
C64 O56 1.315 . S
C64 O59 1.279 . S
C65 O66 1.315 . S
C65 O67 1.279 . S
O66 Cd58 2.223 . S
O66 C65 1.315 . S
O67 Cd57 2.240 . S
O67 C65 1.279 . S
O68 Cd58 2.297 . S
O68 C63 1.247 . S
O69 Cd58 2.439 . S
O69 C63 1.208 . S
O70 Cd71 2.223 . S
O70 C78 1.315 . S
Cd71 O70 2.223 . S
Cd71 O74 2.297 . S
Cd71 O75 2.439 . S
Cd71 O81 2.240 . S
Cd72 O73 2.240 . S
Cd72 O80 2.223 . S
Cd72 O82 2.297 . S
Cd72 O83 2.439 . S
O73 Cd72 2.240 . S
O73 C78 1.279 . S
O74 Cd71 2.297 . S
O74 C76 1.247 . S
O75 Cd71 2.439 . S
O75 C76 1.208 . S
C76 O74 1.247 . S
C76 O75 1.208 . S
C77 O82 1.247 . S
C77 O83 1.208 . S
C78 O70 1.315 . S
C78 O73 1.279 . S
C79 O80 1.315 . S
C79 O81 1.279 . S
O80 Cd72 2.223 . S
O80 C79 1.315 . S
O81 Cd71 2.240 . S
O81 C79 1.279 . S
O82 Cd72 2.297 . S
O82 C77 1.247 . S
O83 Cd72 2.439 . S
O83 C77 1.208 . S
O84 Cd85 2.223 . S
O84 C92 1.315 . S
Cd85 O84 2.223 . S
Cd85 O88 2.297 . S
Cd85 O89 2.439 . S
Cd85 O95 2.240 . S
Cd86 O87 2.240 . S
Cd86 O94 2.223 . S
Cd86 O96 2.297 . S
Cd86 O97 2.439 . S
O87 Cd86 2.240 . S
O87 C92 1.279 . S
O88 Cd85 2.297 . S
O88 C90 1.247 . S
O89 Cd85 2.439 . S
O89 C90 1.208 . S
C90 O88 1.247 . S
C90 O89 1.208 . S
C91 O96 1.247 . S
C91 O97 1.208 . S
C92 O84 1.315 . S
C92 O87 1.279 . S
C93 O94 1.315 . S
C93 O95 1.279 . S
O94 Cd86 2.223 . S
O94 C93 1.315 . S
O95 Cd85 2.240 . S
O95 C93 1.279 . S
O96 Cd86 2.297 . S
O96 C91 1.247 . S
O97 Cd86 2.439 . S
O97 C91 1.208 . S
O98 Cd99 2.223 . S
O98 C106 1.315 . S
Cd99 O98 2.223 . S
Cd99 O102 2.297 . S
Cd99 O103 2.439 . S
Cd99 O109 2.240 . S
Cd100 O101 2.240 . S
Cd100 O108 2.223 . S
Cd100 O110 2.297 . S
Cd100 O111 2.439 . S
O101 Cd100 2.240 . S
O101 C106 1.279 . S
O102 Cd99 2.297 . S
O102 C104 1.247 . S
O103 Cd99 2.439 . S
O103 C104 1.208 . S
C104 O102 1.247 . S
C104 O103 1.208 . S
C105 O110 1.247 . S
C105 O111 1.208 . S
C106 O98 1.315 . S
C106 O101 1.279 . S
C107 O108 1.315 . S
C107 O109 1.279 . S
O108 Cd100 2.223 . S
O108 C107 1.315 . S
O109 Cd99 2.240 . S
O109 C107 1.279 . S
O110 Cd100 2.297 . S
O110 C105 1.247 . S
O111 Cd100 2.439 . S
O111 C105 1.208 . S
O112 Cd113 2.223 . S
O112 C120 1.315 . S
Cd113 O112 2.223 . S
Cd113 O116 2.297 . S
Cd113 O117 2.439 . S
Cd113 O123 2.240 . S
Cd114 O115 2.240 . S
Cd114 O122 2.223 . S
Cd114 O124 2.297 . S
Cd114 O125 2.439 . S
O115 Cd114 2.240 . S
O115 C120 1.279 . S
O116 Cd113 2.297 . S
O116 C118 1.247 . S
O117 Cd113 2.439 . S
O117 C118 1.208 . S
C118 O116 1.247 . S
C118 O117 1.208 . S
C119 O124 1.247 . S
C119 O125 1.208 . S
C120 O112 1.315 . S
C120 O115 1.279 . S
C121 O122 1.315 . S
C121 O123 1.279 . S
O122 Cd114 2.223 . S
O122 C121 1.315 . S
O123 Cd113 2.240 . S
O123 C121 1.279 . S
O124 Cd114 2.297 . S
O124 C119 1.247 . S
O125 Cd114 2.439 . S
O125 C119 1.208 . S
O126 Cd127 2.223 . S
O126 C134 1.315 . S
Cd127 O126 2.223 . S
Cd127 O130 2.297 . S
Cd127 O131 2.439 . S
Cd127 O137 2.240 . S
Cd128 O129 2.240 . S
Cd128 O136 2.223 . S
Cd128 O138 2.297 . S
Cd128 O139 2.439 . S
O129 Cd128 2.240 . S
O129 C134 1.279 . S
O130 Cd127 2.297 . S
O130 C132 1.247 . S
O131 Cd127 2.439 . S
O131 C132 1.208 . S
C132 O130 1.247 . S
C132 O131 1.208 . S
C133 O138 1.247 . S
C133 O139 1.208 . S
C134 O126 1.315 . S
C134 O129 1.279 . S
C135 O136 1.315 . S
C135 O137 1.279 . S
O136 Cd128 2.223 . S
O136 C135 1.315 . S
O137 Cd127 2.240 . S
O137 C135 1.279 . S
O138 Cd128 2.297 . S
O138 C133 1.247 . S
O139 Cd128 2.439 . S
O139 C133 1.208 . S
O140 Cd141 2.223 . S
O140 C148 1.315 . S
Cd141 O140 2.223 . S
Cd141 O144 2.297 . S
Cd141 O145 2.439 . S
Cd141 O151 2.240 . S
Cd142 O143 2.240 . S
Cd142 O150 2.223 . S
Cd142 O152 2.297 . S
Cd142 O153 2.439 . S
O143 Cd142 2.240 . S
O143 C148 1.279 . S
O144 Cd141 2.297 . S
O144 C146 1.247 . S
O145 Cd141 2.439 . S
O145 C146 1.208 . S
C146 O144 1.247 . S
C146 O145 1.208 . S
C147 O152 1.247 . S
C147 O153 1.208 . S
C148 O140 1.315 . S
C148 O143 1.279 . S
C149 O150 1.315 . S
C149 O151 1.279 . S
O150 Cd142 2.223 . S
O150 C149 1.315 . S
O151 Cd141 2.240 . S
O151 C149 1.279 . S
O152 Cd142 2.297 . S
O152 C147 1.247 . S
O153 Cd142 2.439 . S
O153 C147 1.208 . S
O154 Cd155 2.223 . S
O154 C162 1.315 . S
Cd155 O154 2.223 . S
Cd155 O158 2.297 . S
Cd155 O159 2.439 . S
Cd155 O165 2.240 . S
Cd156 O157 2.240 . S
Cd156 O164 2.223 . S
Cd156 O166 2.297 . S
Cd156 O167 2.439 . S
O157 Cd156 2.240 . S
O157 C162 1.279 . S
O158 Cd155 2.297 . S
O158 C160 1.247 . S
O159 Cd155 2.439 . S
O159 C160 1.208 . S
C160 O158 1.247 . S
C160 O159 1.208 . S
C161 O166 1.247 . S
C161 O167 1.208 . S
C162 O154 1.315 . S
C162 O157 1.279 . S
C163 O164 1.315 . S
C163 O165 1.279 . S
O164 Cd156 2.223 . S
O164 C163 1.315 . S
O165 Cd155 2.240 . S
O165 C163 1.279 . S
O166 Cd156 2.297 . S
O166 C161 1.247 . S
O167 Cd156 2.439 . S
O167 C161 1.208 . S
O168 Cd169 2.223 . S
O168 C176 1.315 . S
Cd169 O168 2.223 . S
Cd169 O172 2.297 . S
Cd169 O173 2.439 . S
Cd169 O179 2.240 . S
Cd170 O171 2.240 . S
Cd170 O178 2.223 . S
Cd170 O180 2.297 . S
Cd170 O181 2.439 . S
O171 Cd170 2.240 . S
O171 C176 1.279 . S
O172 Cd169 2.297 . S
O172 C174 1.247 . S
O173 Cd169 2.439 . S
O173 C174 1.208 . S
C174 O172 1.247 . S
C174 O173 1.208 . S
C175 O180 1.247 . S
C175 O181 1.208 . S
C176 O168 1.315 . S
C176 O171 1.279 . S
C177 O178 1.315 . S
C177 O179 1.279 . S
O178 Cd170 2.223 . S
O178 C177 1.315 . S
O179 Cd169 2.240 . S
O179 C177 1.279 . S
O180 Cd170 2.297 . S
O180 C175 1.247 . S
O181 Cd170 2.439 . S
O181 C175 1.208 . S
O182 Cd183 2.223 . S
O182 C190 1.315 . S
Cd183 O182 2.223 . S
Cd183 O186 2.297 . S
Cd183 O187 2.439 . S
Cd183 O193 2.240 . S
Cd184 O185 2.240 . S
Cd184 O192 2.223 . S
Cd184 O194 2.297 . S
Cd184 O195 2.439 . S
O185 Cd184 2.240 . S
O185 C190 1.279 . S
O186 Cd183 2.297 . S
O186 C188 1.247 . S
O187 Cd183 2.439 . S
O187 C188 1.208 . S
C188 O186 1.247 . S
C188 O187 1.208 . S
C189 O194 1.247 . S
C189 O195 1.208 . S
C190 O182 1.315 . S
C190 O185 1.279 . S
C191 O192 1.315 . S
C191 O193 1.279 . S
O192 Cd184 2.223 . S
O192 C191 1.315 . S
O193 Cd183 2.240 . S
O193 C191 1.279 . S
O194 Cd184 2.297 . S
O194 C189 1.247 . S
O195 Cd184 2.439 . S
O195 C189 1.208 . S
O196 Cd197 2.223 . S
O196 C204 1.315 . S
Cd197 O196 2.223 . S
Cd197 O200 2.297 . S
Cd197 O201 2.439 . S
Cd197 O207 2.240 . S
Cd198 O199 2.240 . S
Cd198 O206 2.223 . S
Cd198 O208 2.297 . S
Cd198 O209 2.439 . S
O199 Cd198 2.240 . S
O199 C204 1.279 . S
O200 Cd197 2.297 . S
O200 C202 1.247 . S
O201 Cd197 2.439 . S
O201 C202 1.208 . S
C202 O200 1.247 . S
C202 O201 1.208 . S
C203 O208 1.247 . S
C203 O209 1.208 . S
C204 O196 1.315 . S
C204 O199 1.279 . S
C205 O206 1.315 . S
C205 O207 1.279 . S
O206 Cd198 2.223 . S
O206 C205 1.315 . S
O207 Cd197 2.240 . S
O207 C205 1.279 . S
O208 Cd198 2.297 . S
O208 C203 1.247 . S
O209 Cd198 2.439 . S
O209 C203 1.208 . S
O210 Cd211 2.223 . S
O210 C218 1.315 . S
Cd211 O210 2.223 . S
Cd211 O214 2.297 . S
Cd211 O215 2.439 . S
Cd211 O221 2.240 . S
Cd212 O213 2.240 . S
Cd212 O220 2.223 . S
Cd212 O222 2.297 . S
Cd212 O223 2.439 . S
O213 Cd212 2.240 . S
O213 C218 1.279 . S
O214 Cd211 2.297 . S
O214 C216 1.247 . S
O215 Cd211 2.439 . S
O215 C216 1.208 . S
C216 O214 1.247 . S
C216 O215 1.208 . S
C217 O222 1.247 . S
C217 O223 1.208 . S
C218 O210 1.315 . S
C218 O213 1.279 . S
C219 O220 1.315 . S
C219 O221 1.279 . S
O220 Cd212 2.223 . S
O220 C219 1.315 . S
O221 Cd211 2.240 . S
O221 C219 1.279 . S
O222 Cd212 2.297 . S
O222 C217 1.247 . S
O223 Cd212 2.439 . S
O223 C217 1.208 . S
H224 C236 0.930 . S
H225 C238 0.930 . S
H226 C239 0.930 . S
H227 C243 0.959 . S
H228 C243 0.959 . S
H229 C243 0.961 . S
H230 C244 0.960 . S
H231 C244 0.961 . S
H232 C244 0.959 . S
H233 C247 0.929 . S
H234 C248 0.931 . S
H235 C250 0.930 . S
C236 H224 0.930 . S
C236 C237 1.399 . S
C236 C241 1.399 . S
C237 C236 1.399 . S
C237 C238 1.376 . S
C238 H225 0.930 . S
C238 C237 1.376 . S
C238 C239 1.388 . S
C239 H226 0.930 . S
C239 C238 1.388 . S
C239 C240 1.390 . S
C240 C239 1.390 . S
C240 C241 1.394 . S
C240 C246 1.465 . S
C241 C236 1.399 . S
C241 C240 1.394 . S
C241 C242 1.516 . S
C242 C241 1.516 . S
C242 C243 1.502 . S
C242 C244 1.561 . S
C242 C245 1.526 . S
C243 H227 0.959 . S
C243 H228 0.959 . S
C243 H229 0.961 . S
C243 C242 1.502 . S
C244 H230 0.960 . S
C244 H231 0.961 . S
C244 H232 0.959 . S
C244 C242 1.561 . S
C245 C242 1.526 . S
C245 C246 1.396 . S
C245 C250 1.390 . S
C246 C240 1.465 . S
C246 C245 1.396 . S
C246 C247 1.399 . S
C247 H233 0.929 . S
C247 C246 1.399 . S
C247 C248 1.385 . S
C248 H234 0.931 . S
C248 C247 1.385 . S
C248 C249 1.389 . S
C249 C248 1.389 . S
C249 C250 1.387 . S
C250 H235 0.930 . S
C250 C245 1.390 . S
C250 C249 1.387 . S
H251 C263 0.930 . S
H252 C265 0.930 . S
H253 C266 0.930 . S
H254 C270 0.959 . S
H255 C270 0.959 . S
H256 C270 0.961 . S
H257 C271 0.960 . S
H258 C271 0.961 . S
H259 C271 0.959 . S
H260 C274 0.929 . S
H261 C275 0.931 . S
H262 C277 0.930 . S
C263 H251 0.930 . S
C263 C264 1.399 . S
C263 C268 1.399 . S
C264 C263 1.399 . S
C264 C265 1.376 . S
C265 H252 0.930 . S
C265 C264 1.376 . S
C265 C266 1.388 . S
C266 H253 0.930 . S
C266 C265 1.388 . S
C266 C267 1.390 . S
C267 C266 1.390 . S
C267 C268 1.394 . S
C267 C273 1.465 . S
C268 C263 1.399 . S
C268 C267 1.394 . S
C268 C269 1.516 . S
C269 C268 1.516 . S
C269 C270 1.502 . S
C269 C271 1.561 . S
C269 C272 1.526 . S
C270 H254 0.959 . S
C270 H255 0.959 . S
C270 H256 0.961 . S
C270 C269 1.502 . S
C271 H257 0.960 . S
C271 H258 0.961 . S
C271 H259 0.959 . S
C271 C269 1.561 . S
C272 C269 1.526 . S
C272 C273 1.396 . S
C272 C277 1.390 . S
C273 C267 1.465 . S
C273 C272 1.396 . S
C273 C274 1.399 . S
C274 H260 0.929 . S
C274 C273 1.399 . S
C274 C275 1.385 . S
C275 H261 0.931 . S
C275 C274 1.385 . S
C275 C276 1.389 . S
C276 C275 1.389 . S
C276 C277 1.387 . S
C277 H262 0.930 . S
C277 C272 1.390 . S
C277 C276 1.387 . S
H278 C290 0.930 . S
H279 C292 0.930 . S
H280 C293 0.930 . S
H281 C297 0.959 . S
H282 C297 0.959 . S
H283 C297 0.961 . S
H284 C298 0.960 . S
H285 C298 0.961 . S
H286 C298 0.959 . S
H287 C301 0.929 . S
H288 C302 0.931 . S
H289 C304 0.930 . S
C290 H278 0.930 . S
C290 C291 1.399 . S
C290 C295 1.399 . S
C291 C290 1.399 . S
C291 C292 1.376 . S
C292 H279 0.930 . S
C292 C291 1.376 . S
C292 C293 1.388 . S
C293 H280 0.930 . S
C293 C292 1.388 . S
C293 C294 1.390 . S
C294 C293 1.390 . S
C294 C295 1.394 . S
C294 C300 1.465 . S
C295 C290 1.399 . S
C295 C294 1.394 . S
C295 C296 1.516 . S
C296 C295 1.516 . S
C296 C297 1.502 . S
C296 C298 1.561 . S
C296 C299 1.526 . S
C297 H281 0.959 . S
C297 H282 0.959 . S
C297 H283 0.961 . S
C297 C296 1.502 . S
C298 H284 0.960 . S
C298 H285 0.961 . S
C298 H286 0.959 . S
C298 C296 1.561 . S
C299 C296 1.526 . S
C299 C300 1.396 . S
C299 C304 1.390 . S
C300 C294 1.465 . S
C300 C299 1.396 . S
C300 C301 1.399 . S
C301 H287 0.929 . S
C301 C300 1.399 . S
C301 C302 1.385 . S
C302 H288 0.931 . S
C302 C301 1.385 . S
C302 C303 1.389 . S
C303 C302 1.389 . S
C303 C304 1.387 . S
C304 H289 0.930 . S
C304 C299 1.390 . S
C304 C303 1.387 . S
H305 C317 0.930 . S
H306 C319 0.930 . S
H307 C320 0.930 . S
H308 C324 0.959 . S
H309 C324 0.959 . S
H310 C324 0.961 . S
H311 C325 0.960 . S
H312 C325 0.961 . S
H313 C325 0.959 . S
H314 C328 0.929 . S
H315 C329 0.931 . S
H316 C331 0.930 . S
C317 H305 0.930 . S
C317 C318 1.399 . S
C317 C322 1.399 . S
C318 C317 1.399 . S
C318 C319 1.376 . S
C319 H306 0.930 . S
C319 C318 1.376 . S
C319 C320 1.388 . S
C320 H307 0.930 . S
C320 C319 1.388 . S
C320 C321 1.390 . S
C321 C320 1.390 . S
C321 C322 1.394 . S
C321 C327 1.465 . S
C322 C317 1.399 . S
C322 C321 1.394 . S
C322 C323 1.516 . S
C323 C322 1.516 . S
C323 C324 1.502 . S
C323 C325 1.561 . S
C323 C326 1.526 . S
C324 H308 0.959 . S
C324 H309 0.959 . S
C324 H310 0.961 . S
C324 C323 1.502 . S
C325 H311 0.960 . S
C325 H312 0.961 . S
C325 H313 0.959 . S
C325 C323 1.561 . S
C326 C323 1.526 . S
C326 C327 1.396 . S
C326 C331 1.390 . S
C327 C321 1.465 . S
C327 C326 1.396 . S
C327 C328 1.399 . S
C328 H314 0.929 . S
C328 C327 1.399 . S
C328 C329 1.385 . S
C329 H315 0.931 . S
C329 C328 1.385 . S
C329 C330 1.389 . S
C330 C329 1.389 . S
C330 C331 1.387 . S
C331 H316 0.930 . S
C331 C326 1.390 . S
C331 C330 1.387 . S
H332 C344 0.930 . S
H333 C346 0.930 . S
H334 C347 0.930 . S
H335 C351 0.959 . S
H336 C351 0.959 . S
H337 C351 0.961 . S
H338 C352 0.960 . S
H339 C352 0.961 . S
H340 C352 0.959 . S
H341 C355 0.929 . S
H342 C356 0.931 . S
H343 C358 0.930 . S
C344 H332 0.930 . S
C344 C345 1.399 . S
C344 C349 1.399 . S
C345 C344 1.399 . S
C345 C346 1.376 . S
C346 H333 0.930 . S
C346 C345 1.376 . S
C346 C347 1.388 . S
C347 H334 0.930 . S
C347 C346 1.388 . S
C347 C348 1.390 . S
C348 C347 1.390 . S
C348 C349 1.394 . S
C348 C354 1.465 . S
C349 C344 1.399 . S
C349 C348 1.394 . S
C349 C350 1.516 . S
C350 C349 1.516 . S
C350 C351 1.502 . S
C350 C352 1.561 . S
C350 C353 1.526 . S
C351 H335 0.959 . S
C351 H336 0.959 . S
C351 H337 0.961 . S
C351 C350 1.502 . S
C352 H338 0.960 . S
C352 H339 0.961 . S
C352 H340 0.959 . S
C352 C350 1.561 . S
C353 C350 1.526 . S
C353 C354 1.396 . S
C353 C358 1.390 . S
C354 C348 1.465 . S
C354 C353 1.396 . S
C354 C355 1.399 . S
C355 H341 0.929 . S
C355 C354 1.399 . S
C355 C356 1.385 . S
C356 H342 0.931 . S
C356 C355 1.385 . S
C356 C357 1.389 . S
C357 C356 1.389 . S
C357 C358 1.387 . S
C358 H343 0.930 . S
C358 C353 1.390 . S
C358 C357 1.387 . S
H359 C371 0.930 . S
H360 C373 0.930 . S
H361 C374 0.930 . S
H362 C378 0.959 . S
H363 C378 0.959 . S
H364 C378 0.961 . S
H365 C379 0.960 . S
H366 C379 0.961 . S
H367 C379 0.959 . S
H368 C382 0.929 . S
H369 C383 0.931 . S
H370 C385 0.930 . S
C371 H359 0.930 . S
C371 C372 1.399 . S
C371 C376 1.399 . S
C372 C371 1.399 . S
C372 C373 1.376 . S
C373 H360 0.930 . S
C373 C372 1.376 . S
C373 C374 1.388 . S
C374 H361 0.930 . S
C374 C373 1.388 . S
C374 C375 1.390 . S
C375 C374 1.390 . S
C375 C376 1.394 . S
C375 C381 1.465 . S
C376 C371 1.399 . S
C376 C375 1.394 . S
C376 C377 1.516 . S
C377 C376 1.516 . S
C377 C378 1.502 . S
C377 C379 1.561 . S
C377 C380 1.526 . S
C378 H362 0.959 . S
C378 H363 0.959 . S
C378 H364 0.961 . S
C378 C377 1.502 . S
C379 H365 0.960 . S
C379 H366 0.961 . S
C379 H367 0.959 . S
C379 C377 1.561 . S
C380 C377 1.526 . S
C380 C381 1.396 . S
C380 C385 1.390 . S
C381 C375 1.465 . S
C381 C380 1.396 . S
C381 C382 1.399 . S
C382 H368 0.929 . S
C382 C381 1.399 . S
C382 C383 1.385 . S
C383 H369 0.931 . S
C383 C382 1.385 . S
C383 C384 1.389 . S
C384 C383 1.389 . S
C384 C385 1.387 . S
C385 H370 0.930 . S
C385 C380 1.390 . S
C385 C384 1.387 . S
H386 C398 0.930 . S
H387 C400 0.930 . S
H388 C401 0.930 . S
H389 C405 0.959 . S
H390 C405 0.959 . S
H391 C405 0.961 . S
H392 C406 0.960 . S
H393 C406 0.961 . S
H394 C406 0.959 . S
H395 C409 0.929 . S
H396 C410 0.931 . S
H397 C412 0.930 . S
C398 H386 0.930 . S
C398 C399 1.399 . S
C398 C403 1.399 . S
C399 C398 1.399 . S
C399 C400 1.376 . S
C400 H387 0.930 . S
C400 C399 1.376 . S
C400 C401 1.388 . S
C401 H388 0.930 . S
C401 C400 1.388 . S
C401 C402 1.390 . S
C402 C401 1.390 . S
C402 C403 1.394 . S
C402 C408 1.465 . S
C403 C398 1.399 . S
C403 C402 1.394 . S
C403 C404 1.516 . S
C404 C403 1.516 . S
C404 C405 1.502 . S
C404 C406 1.561 . S
C404 C407 1.526 . S
C405 H389 0.959 . S
C405 H390 0.959 . S
C405 H391 0.961 . S
C405 C404 1.502 . S
C406 H392 0.960 . S
C406 H393 0.961 . S
C406 H394 0.959 . S
C406 C404 1.561 . S
C407 C404 1.526 . S
C407 C408 1.396 . S
C407 C412 1.390 . S
C408 C402 1.465 . S
C408 C407 1.396 . S
C408 C409 1.399 . S
C409 H395 0.929 . S
C409 C408 1.399 . S
C409 C410 1.385 . S
C410 H396 0.931 . S
C410 C409 1.385 . S
C410 C411 1.389 . S
C411 C410 1.389 . S
C411 C412 1.387 . S
C412 H397 0.930 . S
C412 C407 1.390 . S
C412 C411 1.387 . S
H413 C425 0.930 . S
H414 C427 0.930 . S
H415 C428 0.930 . S
H416 C432 0.959 . S
H417 C432 0.959 . S
H418 C432 0.961 . S
H419 C433 0.960 . S
H420 C433 0.961 . S
H421 C433 0.959 . S
H422 C436 0.929 . S
H423 C437 0.931 . S
H424 C439 0.930 . S
C425 H413 0.930 . S
C425 C426 1.399 . S
C425 C430 1.399 . S
C426 C425 1.399 . S
C426 C427 1.376 . S
C427 H414 0.930 . S
C427 C426 1.376 . S
C427 C428 1.388 . S
C428 H415 0.930 . S
C428 C427 1.388 . S
C428 C429 1.390 . S
C429 C428 1.390 . S
C429 C430 1.394 . S
C429 C435 1.465 . S
C430 C425 1.399 . S
C430 C429 1.394 . S
C430 C431 1.516 . S
C431 C430 1.516 . S
C431 C432 1.502 . S
C431 C433 1.561 . S
C431 C434 1.526 . S
C432 H416 0.959 . S
C432 H417 0.959 . S
C432 H418 0.961 . S
C432 C431 1.502 . S
C433 H419 0.960 . S
C433 H420 0.961 . S
C433 H421 0.959 . S
C433 C431 1.561 . S
C434 C431 1.526 . S
C434 C435 1.396 . S
C434 C439 1.390 . S
C435 C429 1.465 . S
C435 C434 1.396 . S
C435 C436 1.399 . S
C436 H422 0.929 . S
C436 C435 1.399 . S
C436 C437 1.385 . S
C437 H423 0.931 . S
C437 C436 1.385 . S
C437 C438 1.389 . S
C438 C437 1.389 . S
C438 C439 1.387 . S
C439 H424 0.930 . S
C439 C434 1.390 . S
C439 C438 1.387 . S
H440 C452 0.930 . S
H441 C454 0.930 . S
H442 C455 0.930 . S
H443 C459 0.959 . S
H444 C459 0.959 . S
H445 C459 0.961 . S
H446 C460 0.960 . S
H447 C460 0.961 . S
H448 C460 0.959 . S
H449 C463 0.929 . S
H450 C464 0.931 . S
H451 C466 0.930 . S
C452 H440 0.930 . S
C452 C453 1.399 . S
C452 C457 1.399 . S
C453 C452 1.399 . S
C453 C454 1.376 . S
C454 H441 0.930 . S
C454 C453 1.376 . S
C454 C455 1.388 . S
C455 H442 0.930 . S
C455 C454 1.388 . S
C455 C456 1.390 . S
C456 C455 1.390 . S
C456 C457 1.394 . S
C456 C462 1.465 . S
C457 C452 1.399 . S
C457 C456 1.394 . S
C457 C458 1.516 . S
C458 C457 1.516 . S
C458 C459 1.502 . S
C458 C460 1.561 . S
C458 C461 1.526 . S
C459 H443 0.959 . S
C459 H444 0.959 . S
C459 H445 0.961 . S
C459 C458 1.502 . S
C460 H446 0.960 . S
C460 H447 0.961 . S
C460 H448 0.959 . S
C460 C458 1.561 . S
C461 C458 1.526 . S
C461 C462 1.396 . S
C461 C466 1.390 . S
C462 C456 1.465 . S
C462 C461 1.396 . S
C462 C463 1.399 . S
C463 H449 0.929 . S
C463 C462 1.399 . S
C463 C464 1.385 . S
C464 H450 0.931 . S
C464 C463 1.385 . S
C464 C465 1.389 . S
C465 C464 1.389 . S
C465 C466 1.387 . S
C466 H451 0.930 . S
C466 C461 1.390 . S
C466 C465 1.387 . S
H467 C479 0.930 . S
H468 C481 0.930 . S
H469 C482 0.930 . S
H470 C486 0.959 . S
H471 C486 0.959 . S
H472 C486 0.961 . S
H473 C487 0.960 . S
H474 C487 0.961 . S
H475 C487 0.959 . S
H476 C490 0.929 . S
H477 C491 0.931 . S
H478 C493 0.930 . S
C479 H467 0.930 . S
C479 C480 1.399 . S
C479 C484 1.399 . S
C480 C479 1.399 . S
C480 C481 1.376 . S
C481 H468 0.930 . S
C481 C480 1.376 . S
C481 C482 1.388 . S
C482 H469 0.930 . S
C482 C481 1.388 . S
C482 C483 1.390 . S
C483 C482 1.390 . S
C483 C484 1.394 . S
C483 C489 1.465 . S
C484 C479 1.399 . S
C484 C483 1.394 . S
C484 C485 1.516 . S
C485 C484 1.516 . S
C485 C486 1.502 . S
C485 C487 1.561 . S
C485 C488 1.526 . S
C486 H470 0.959 . S
C486 H471 0.959 . S
C486 H472 0.961 . S
C486 C485 1.502 . S
C487 H473 0.960 . S
C487 H474 0.961 . S
C487 H475 0.959 . S
C487 C485 1.561 . S
C488 C485 1.526 . S
C488 C489 1.396 . S
C488 C493 1.390 . S
C489 C483 1.465 . S
C489 C488 1.396 . S
C489 C490 1.399 . S
C490 H476 0.929 . S
C490 C489 1.399 . S
C490 C491 1.385 . S
C491 H477 0.931 . S
C491 C490 1.385 . S
C491 C492 1.389 . S
C492 C491 1.389 . S
C492 C493 1.387 . S
C493 H478 0.930 . S
C493 C488 1.390 . S
C493 C492 1.387 . S
H494 C506 0.930 . S
H495 C508 0.930 . S
H496 C509 0.930 . S
H497 C513 0.959 . S
H498 C513 0.959 . S
H499 C513 0.961 . S
H500 C514 0.960 . S
H501 C514 0.961 . S
H502 C514 0.959 . S
H503 C517 0.929 . S
H504 C518 0.931 . S
H505 C520 0.930 . S
C506 H494 0.930 . S
C506 C507 1.399 . S
C506 C511 1.399 . S
C507 C506 1.399 . S
C507 C508 1.376 . S
C508 H495 0.930 . S
C508 C507 1.376 . S
C508 C509 1.388 . S
C509 H496 0.930 . S
C509 C508 1.388 . S
C509 C510 1.390 . S
C510 C509 1.390 . S
C510 C511 1.394 . S
C510 C516 1.465 . S
C511 C506 1.399 . S
C511 C510 1.394 . S
C511 C512 1.516 . S
C512 C511 1.516 . S
C512 C513 1.502 . S
C512 C514 1.561 . S
C512 C515 1.526 . S
C513 H497 0.959 . S
C513 H498 0.959 . S
C513 H499 0.961 . S
C513 C512 1.502 . S
C514 H500 0.960 . S
C514 H501 0.961 . S
C514 H502 0.959 . S
C514 C512 1.561 . S
C515 C512 1.526 . S
C515 C516 1.396 . S
C515 C520 1.390 . S
C516 C510 1.465 . S
C516 C515 1.396 . S
C516 C517 1.399 . S
C517 H503 0.929 . S
C517 C516 1.399 . S
C517 C518 1.385 . S
C518 H504 0.931 . S
C518 C517 1.385 . S
C518 C519 1.389 . S
C519 C518 1.389 . S
C519 C520 1.387 . S
C520 H505 0.930 . S
C520 C515 1.390 . S
C520 C519 1.387 . S
H521 C533 0.930 . S
H522 C535 0.930 . S
H523 C536 0.930 . S
H524 C540 0.959 . S
H525 C540 0.959 . S
H526 C540 0.961 . S
H527 C541 0.960 . S
H528 C541 0.961 . S
H529 C541 0.959 . S
H530 C544 0.929 . S
H531 C545 0.931 . S
H532 C547 0.930 . S
C533 H521 0.930 . S
C533 C534 1.399 . S
C533 C538 1.399 . S
C534 C533 1.399 . S
C534 C535 1.376 . S
C535 H522 0.930 . S
C535 C534 1.376 . S
C535 C536 1.388 . S
C536 H523 0.930 . S
C536 C535 1.388 . S
C536 C537 1.390 . S
C537 C536 1.390 . S
C537 C538 1.394 . S
C537 C543 1.465 . S
C538 C533 1.399 . S
C538 C537 1.394 . S
C538 C539 1.516 . S
C539 C538 1.516 . S
C539 C540 1.502 . S
C539 C541 1.561 . S
C539 C542 1.526 . S
C540 H524 0.959 . S
C540 H525 0.959 . S
C540 H526 0.961 . S
C540 C539 1.502 . S
C541 H527 0.960 . S
C541 H528 0.961 . S
C541 H529 0.959 . S
C541 C539 1.561 . S
C542 C539 1.526 . S
C542 C543 1.396 . S
C542 C547 1.390 . S
C543 C537 1.465 . S
C543 C542 1.396 . S
C543 C544 1.399 . S
C544 H530 0.929 . S
C544 C543 1.399 . S
C544 C545 1.385 . S
C545 H531 0.931 . S
C545 C544 1.385 . S
C545 C546 1.389 . S
C546 C545 1.389 . S
C546 C547 1.387 . S
C547 H532 0.930 . S
C547 C542 1.390 . S
C547 C546 1.387 . S
H548 C560 0.930 . S
H549 C562 0.930 . S
H550 C563 0.930 . S
H551 C567 0.959 . S
H552 C567 0.959 . S
H553 C567 0.961 . S
H554 C568 0.960 . S
H555 C568 0.961 . S
H556 C568 0.959 . S
H557 C571 0.929 . S
H558 C572 0.931 . S
H559 C574 0.930 . S
C560 H548 0.930 . S
C560 C561 1.399 . S
C560 C565 1.399 . S
C561 C560 1.399 . S
C561 C562 1.376 . S
C562 H549 0.930 . S
C562 C561 1.376 . S
C562 C563 1.388 . S
C563 H550 0.930 . S
C563 C562 1.388 . S
C563 C564 1.390 . S
C564 C563 1.390 . S
C564 C565 1.394 . S
C564 C570 1.465 . S
C565 C560 1.399 . S
C565 C564 1.394 . S
C565 C566 1.516 . S
C566 C565 1.516 . S
C566 C567 1.502 . S
C566 C568 1.561 . S
C566 C569 1.526 . S
C567 H551 0.959 . S
C567 H552 0.959 . S
C567 H553 0.961 . S
C567 C566 1.502 . S
C568 H554 0.960 . S
C568 H555 0.961 . S
C568 H556 0.959 . S
C568 C566 1.561 . S
C569 C566 1.526 . S
C569 C570 1.396 . S
C569 C574 1.390 . S
C570 C564 1.465 . S
C570 C569 1.396 . S
C570 C571 1.399 . S
C571 H557 0.929 . S
C571 C570 1.399 . S
C571 C572 1.385 . S
C572 H558 0.931 . S
C572 C571 1.385 . S
C572 C573 1.389 . S
C573 C572 1.389 . S
C573 C574 1.387 . S
C574 H559 0.930 . S
C574 C569 1.390 . S
C574 C573 1.387 . S
H575 C587 0.930 . S
H576 C589 0.930 . S
H577 C590 0.930 . S
H578 C594 0.959 . S
H579 C594 0.959 . S
H580 C594 0.961 . S
H581 C595 0.960 . S
H582 C595 0.961 . S
H583 C595 0.959 . S
H584 C598 0.929 . S
H585 C599 0.931 . S
H586 C601 0.930 . S
C587 H575 0.930 . S
C587 C588 1.399 . S
C587 C592 1.399 . S
C588 C587 1.399 . S
C588 C589 1.376 . S
C589 H576 0.930 . S
C589 C588 1.376 . S
C589 C590 1.388 . S
C590 H577 0.930 . S
C590 C589 1.388 . S
C590 C591 1.390 . S
C591 C590 1.390 . S
C591 C592 1.394 . S
C591 C597 1.465 . S
C592 C587 1.399 . S
C592 C591 1.394 . S
C592 C593 1.516 . S
C593 C592 1.516 . S
C593 C594 1.502 . S
C593 C595 1.561 . S
C593 C596 1.526 . S
C594 H578 0.959 . S
C594 H579 0.959 . S
C594 H580 0.961 . S
C594 C593 1.502 . S
C595 H581 0.960 . S
C595 H582 0.961 . S
C595 H583 0.959 . S
C595 C593 1.561 . S
C596 C593 1.526 . S
C596 C597 1.396 . S
C596 C601 1.390 . S
C597 C591 1.465 . S
C597 C596 1.396 . S
C597 C598 1.399 . S
C598 H584 0.929 . S
C598 C597 1.399 . S
C598 C599 1.385 . S
C599 H585 0.931 . S
C599 C598 1.385 . S
C599 C600 1.389 . S
C600 C599 1.389 . S
C600 C601 1.387 . S
C601 H586 0.930 . S
C601 C596 1.390 . S
C601 C600 1.387 . S
H602 C614 0.930 . S
H603 C616 0.930 . S
H604 C617 0.930 . S
H605 C621 0.959 . S
H606 C621 0.959 . S
H607 C621 0.961 . S
H608 C622 0.960 . S
H609 C622 0.961 . S
H610 C622 0.959 . S
H611 C625 0.929 . S
H612 C626 0.931 . S
H613 C628 0.930 . S
C614 H602 0.930 . S
C614 C615 1.399 . S
C614 C619 1.399 . S
C615 C614 1.399 . S
C615 C616 1.376 . S
C616 H603 0.930 . S
C616 C615 1.376 . S
C616 C617 1.388 . S
C617 H604 0.930 . S
C617 C616 1.388 . S
C617 C618 1.390 . S
C618 C617 1.390 . S
C618 C619 1.394 . S
C618 C624 1.465 . S
C619 C614 1.399 . S
C619 C618 1.394 . S
C619 C620 1.516 . S
C620 C619 1.516 . S
C620 C621 1.502 . S
C620 C622 1.561 . S
C620 C623 1.526 . S
C621 H605 0.959 . S
C621 H606 0.959 . S
C621 H607 0.961 . S
C621 C620 1.502 . S
C622 H608 0.960 . S
C622 H609 0.961 . S
C622 H610 0.959 . S
C622 C620 1.561 . S
C623 C620 1.526 . S
C623 C624 1.396 . S
C623 C628 1.390 . S
C624 C618 1.465 . S
C624 C623 1.396 . S
C624 C625 1.399 . S
C625 H611 0.929 . S
C625 C624 1.399 . S
C625 C626 1.385 . S
C626 H612 0.931 . S
C626 C625 1.385 . S
C626 C627 1.389 . S
C627 C626 1.389 . S
C627 C628 1.387 . S
C628 H613 0.930 . S
C628 C623 1.390 . S
C628 C627 1.387 . S
H629 C641 0.930 . S
H630 C643 0.930 . S
H631 C644 0.930 . S
H632 C648 0.959 . S
H633 C648 0.959 . S
H634 C648 0.961 . S
H635 C649 0.960 . S
H636 C649 0.961 . S
H637 C649 0.959 . S
H638 C652 0.929 . S
H639 C653 0.931 . S
H640 C655 0.930 . S
C641 H629 0.930 . S
C641 C642 1.399 . S
C641 C646 1.399 . S
C642 C641 1.399 . S
C642 C643 1.376 . S
C643 H630 0.930 . S
C643 C642 1.376 . S
C643 C644 1.388 . S
C644 H631 0.930 . S
C644 C643 1.388 . S
C644 C645 1.390 . S
C645 C644 1.390 . S
C645 C646 1.394 . S
C645 C651 1.465 . S
C646 C641 1.399 . S
C646 C645 1.394 . S
C646 C647 1.516 . S
C647 C646 1.516 . S
C647 C648 1.502 . S
C647 C649 1.561 . S
C647 C650 1.526 . S
C648 H632 0.959 . S
C648 H633 0.959 . S
C648 H634 0.961 . S
C648 C647 1.502 . S
C649 H635 0.960 . S
C649 H636 0.961 . S
C649 H637 0.959 . S
C649 C647 1.561 . S
C650 C647 1.526 . S
C650 C651 1.396 . S
C650 C655 1.390 . S
C651 C645 1.465 . S
C651 C650 1.396 . S
C651 C652 1.399 . S
C652 H638 0.929 . S
C652 C651 1.399 . S
C652 C653 1.385 . S
C653 H639 0.931 . S
C653 C652 1.385 . S
C653 C654 1.389 . S
C654 C653 1.389 . S
C654 C655 1.387 . S
C655 H640 0.930 . S
C655 C650 1.390 . S
C655 C654 1.387 . S
H656 C668 0.930 . S
H657 C670 0.930 . S
H658 C671 0.930 . S
H659 C675 0.959 . S
H660 C675 0.959 . S
H661 C675 0.961 . S
H662 C676 0.960 . S
H663 C676 0.961 . S
H664 C676 0.959 . S
H665 C679 0.929 . S
H666 C680 0.931 . S
H667 C682 0.930 . S
C668 H656 0.930 . S
C668 C669 1.399 . S
C668 C673 1.399 . S
C669 C668 1.399 . S
C669 C670 1.376 . S
C670 H657 0.930 . S
C670 C669 1.376 . S
C670 C671 1.388 . S
C671 H658 0.930 . S
C671 C670 1.388 . S
C671 C672 1.390 . S
C672 C671 1.390 . S
C672 C673 1.394 . S
C672 C678 1.465 . S
C673 C668 1.399 . S
C673 C672 1.394 . S
C673 C674 1.516 . S
C674 C673 1.516 . S
C674 C675 1.502 . S
C674 C676 1.561 . S
C674 C677 1.526 . S
C675 H659 0.959 . S
C675 H660 0.959 . S
C675 H661 0.961 . S
C675 C674 1.502 . S
C676 H662 0.960 . S
C676 H663 0.961 . S
C676 H664 0.959 . S
C676 C674 1.561 . S
C677 C674 1.526 . S
C677 C678 1.396 . S
C677 C682 1.390 . S
C678 C672 1.465 . S
C678 C677 1.396 . S
C678 C679 1.399 . S
C679 H665 0.929 . S
C679 C678 1.399 . S
C679 C680 1.385 . S
C680 H666 0.931 . S
C680 C679 1.385 . S
C680 C681 1.389 . S
C681 C680 1.389 . S
C681 C682 1.387 . S
C682 H667 0.930 . S
C682 C677 1.390 . S
C682 C681 1.387 . S
H683 C695 0.930 . S
H684 C697 0.930 . S
H685 C698 0.930 . S
H686 C702 0.959 . S
H687 C702 0.959 . S
H688 C702 0.961 . S
H689 C703 0.960 . S
H690 C703 0.961 . S
H691 C703 0.959 . S
H692 C706 0.929 . S
H693 C707 0.931 . S
H694 C709 0.930 1_655 S
C695 H683 0.930 . S
C695 C696 1.399 . S
C695 C700 1.399 . S
C696 C695 1.399 . S
C696 C697 1.376 . S
C697 H684 0.930 . S
C697 C696 1.376 . S
C697 C698 1.388 . S
C698 H685 0.930 . S
C698 C697 1.388 . S
C698 C699 1.390 . S
C699 C698 1.390 . S
C699 C700 1.394 . S
C699 C705 1.465 . S
C700 C695 1.399 . S
C700 C699 1.394 . S
C700 C701 1.516 . S
C701 C700 1.516 . S
C701 C702 1.502 . S
C701 C703 1.561 . S
C701 C704 1.526 . S
C702 H686 0.959 . S
C702 H687 0.959 . S
C702 H688 0.961 . S
C702 C701 1.502 . S
C703 H689 0.960 . S
C703 H690 0.961 . S
C703 H691 0.959 . S
C703 C701 1.561 . S
C704 C701 1.526 . S
C704 C705 1.396 . S
C704 C709 1.390 . S
C705 C699 1.465 . S
C705 C704 1.396 . S
C705 C706 1.399 . S
C706 H692 0.929 . S
C706 C705 1.399 . S
C706 C707 1.385 . S
C707 H693 0.931 . S
C707 C706 1.385 . S
C707 C708 1.389 . S
C708 C707 1.389 . S
C708 C709 1.387 . S
C709 H694 0.930 1_455 S
C709 C704 1.390 . S
C709 C708 1.387 . S
H710 C722 0.930 . S
H711 C724 0.930 . S
H712 C725 0.930 . S
H713 C729 0.959 . S
H714 C729 0.959 . S
H715 C729 0.961 . S
H716 C730 0.960 . S
H717 C730 0.961 . S
H718 C730 0.959 . S
H719 C733 0.929 . S
H720 C734 0.931 . S
H721 C736 0.930 . S
C722 H710 0.930 . S
C722 C723 1.431 . S
C722 C727 1.399 . S
C723 C722 1.431 . S
C723 C724 1.368 1_565 S
C724 H711 0.930 . S
C724 C723 1.368 1_545 S
C724 C725 1.388 1_545 S
C725 H712 0.930 . S
C725 C724 1.388 1_565 S
C725 C726 1.390 . S
C726 C725 1.390 . S
C726 C727 1.394 . S
C726 C732 1.465 . S
C727 C722 1.399 . S
C727 C726 1.394 . S
C727 C728 1.516 . S
C728 C727 1.516 . S
C728 C729 1.502 . S
C728 C730 1.561 . S
C728 C731 1.526 . S
C729 H713 0.959 . S
C729 H714 0.959 . S
C729 H715 0.961 . S
C729 C728 1.502 . S
C730 H716 0.960 . S
C730 H717 0.961 . S
C730 H718 0.959 . S
C730 C728 1.561 . S
C731 C728 1.526 . S
C731 C732 1.396 . S
C731 C736 1.390 . S
C732 C726 1.465 . S
C732 C731 1.396 . S
C732 C733 1.399 . S
C733 H719 0.929 . S
C733 C732 1.399 . S
C733 C734 1.385 . S
C734 H720 0.931 . S
C734 C733 1.385 . S
C734 C735 1.389 . S
C735 C734 1.389 . S
C735 C736 1.387 . S
C736 H721 0.930 . S
C736 C731 1.390 . S
C736 C735 1.387 . S
H737 C749 0.930 . S
H738 C751 0.930 . S
H739 C752 0.930 . S
H740 C756 0.959 . S
H741 C756 0.959 . S
H742 C756 0.961 . S
H743 C757 0.960 . S
H744 C757 0.961 . S
H745 C757 0.959 . S
H746 C760 0.929 . S
H747 C761 0.931 . S
H748 C763 0.930 . S
C749 H737 0.930 . S
C749 C750 1.399 . S
C749 C754 1.399 . S
C750 C749 1.399 . S
C750 C751 1.376 . S
C751 H738 0.930 . S
C751 C750 1.376 . S
C751 C752 1.388 . S
C752 H739 0.930 . S
C752 C751 1.388 . S
C752 C753 1.390 . S
C753 C752 1.390 . S
C753 C754 1.394 . S
C753 C759 1.465 . S
C754 C749 1.399 . S
C754 C753 1.394 . S
C754 C755 1.516 . S
C755 C754 1.516 . S
C755 C756 1.502 . S
C755 C757 1.561 . S
C755 C758 1.526 . S
C756 H740 0.959 . S
C756 H741 0.959 . S
C756 H742 0.961 . S
C756 C755 1.502 . S
C757 H743 0.960 . S
C757 H744 0.961 . S
C757 H745 0.959 . S
C757 C755 1.561 . S
C758 C755 1.526 . S
C758 C759 1.396 . S
C758 C763 1.390 . S
C759 C753 1.465 . S
C759 C758 1.396 . S
C759 C760 1.399 . S
C760 H746 0.929 . S
C760 C759 1.399 . S
C760 C761 1.385 . S
C761 H747 0.931 . S
C761 C760 1.385 . S
C761 C762 1.389 . S
C762 C761 1.389 . S
C762 C763 1.387 . S
C763 H748 0.930 . S
C763 C758 1.390 . S
C763 C762 1.387 . S
H764 C776 0.930 . S
H765 C778 0.930 . S
H766 C779 0.930 . S
H767 C783 0.959 . S
H768 C783 0.959 . S
H769 C783 0.961 . S
H770 C784 0.960 . S
H771 C784 0.961 . S
H772 C784 0.959 . S
H773 C787 0.929 . S
H774 C788 0.931 . S
H775 C790 0.930 . S
C776 H764 0.930 . S
C776 C777 1.399 . S
C776 C781 1.399 . S
C777 C776 1.399 . S
C777 C778 1.376 . S
C778 H765 0.930 . S
C778 C777 1.376 . S
C778 C779 1.388 . S
C779 H766 0.930 . S
C779 C778 1.388 . S
C779 C780 1.390 . S
C780 C779 1.390 . S
C780 C781 1.394 . S
C780 C786 1.465 . S
C781 C776 1.399 . S
C781 C780 1.394 . S
C781 C782 1.516 . S
C782 C781 1.516 . S
C782 C783 1.502 . S
C782 C784 1.561 . S
C782 C785 1.526 . S
C783 H767 0.959 . S
C783 H768 0.959 . S
C783 H769 0.961 . S
C783 C782 1.502 . S
C784 H770 0.960 . S
C784 H771 0.961 . S
C784 H772 0.959 . S
C784 C782 1.561 . S
C785 C782 1.526 . S
C785 C786 1.396 . S
C785 C790 1.390 . S
C786 C780 1.465 . S
C786 C785 1.396 . S
C786 C787 1.399 . S
C787 H773 0.929 . S
C787 C786 1.399 . S
C787 C788 1.385 . S
C788 H774 0.931 . S
C788 C787 1.385 . S
C788 C789 1.389 . S
C789 C788 1.389 . S
C789 C790 1.387 . S
C790 H775 0.930 . S
C790 C785 1.390 . S
C790 C789 1.387 . S
H791 C803 0.930 . S
H792 C805 0.930 . S
H793 C806 0.930 . S
H794 C810 0.959 . S
H795 C810 0.959 . S
H796 C810 0.961 . S
H797 C811 0.960 . S
H798 C811 0.961 . S
H799 C811 0.959 . S
H800 C814 0.929 . S
H801 C815 0.931 . S
H802 C817 0.930 . S
C803 H791 0.930 . S
C803 C804 1.399 . S
C803 C808 1.399 . S
C804 C803 1.399 . S
C804 C805 1.376 . S
C805 H792 0.930 . S
C805 C804 1.376 . S
C805 C806 1.388 . S
C806 H793 0.930 . S
C806 C805 1.388 . S
C806 C807 1.390 . S
C807 C806 1.390 . S
C807 C808 1.394 . S
C807 C813 1.465 . S
C808 C803 1.399 . S
C808 C807 1.394 . S
C808 C809 1.516 . S
C809 C808 1.516 . S
C809 C810 1.502 . S
C809 C811 1.561 . S
C809 C812 1.526 . S
C810 H794 0.959 . S
C810 H795 0.959 . S
C810 H796 0.961 . S
C810 C809 1.502 . S
C811 H797 0.960 . S
C811 H798 0.961 . S
C811 H799 0.959 . S
C811 C809 1.561 . S
C812 C809 1.526 . S
C812 C813 1.396 . S
C812 C817 1.390 . S
C813 C807 1.465 . S
C813 C812 1.396 . S
C813 C814 1.399 . S
C814 H800 0.929 . S
C814 C813 1.399 . S
C814 C815 1.385 . S
C815 H801 0.931 . S
C815 C814 1.385 . S
C815 C816 1.389 . S
C816 C815 1.389 . S
C816 C817 1.387 . S
C817 H802 0.930 . S
C817 C812 1.390 . S
C817 C816 1.387 . S
H818 C830 0.930 . S
H819 C832 0.930 . S
H820 C833 0.930 . S
H821 C837 0.959 . S
H822 C837 0.959 . S
H823 C837 0.961 . S
H824 C838 0.960 . S
H825 C838 0.961 . S
H826 C838 0.959 . S
H827 C841 0.929 . S
H828 C842 0.931 . S
H829 C844 0.930 1_565 S
C830 H818 0.930 . S
C830 C831 1.399 . S
C830 C835 1.399 . S
C831 C830 1.399 . S
C831 C832 1.376 . S
C832 H819 0.930 . S
C832 C831 1.376 . S
C832 C833 1.388 . S
C833 H820 0.930 . S
C833 C832 1.388 . S
C833 C834 1.390 . S
C834 C833 1.390 . S
C834 C835 1.394 . S
C834 C840 1.465 . S
C835 C830 1.399 . S
C835 C834 1.394 . S
C835 C836 1.516 . S
C836 C835 1.516 . S
C836 C837 1.502 . S
C836 C838 1.561 . S
C836 C839 1.526 . S
C837 H821 0.959 . S
C837 H822 0.959 . S
C837 H823 0.961 . S
C837 C836 1.502 . S
C838 H824 0.960 . S
C838 H825 0.961 . S
C838 H826 0.959 . S
C838 C836 1.561 . S
C839 C836 1.526 . S
C839 C840 1.396 . S
C839 C844 1.390 . S
C840 C834 1.465 . S
C840 C839 1.396 . S
C840 C841 1.399 . S
C841 H827 0.929 . S
C841 C840 1.399 . S
C841 C842 1.385 . S
C842 H828 0.931 . S
C842 C841 1.385 . S
C842 C843 1.389 . S
C843 C842 1.389 . S
C843 C844 1.387 . S
C844 H829 0.930 1_545 S
C844 C839 1.390 . S
C844 C843 1.387 . S
H845 C857 0.930 . S
H846 C859 0.930 . S
H847 C860 0.930 . S
H848 C864 0.959 . S
H849 C864 0.959 . S
H850 C864 0.961 . S
H851 C865 0.960 . S
H852 C865 0.961 . S
H853 C865 0.959 . S
H854 C868 0.929 . S
H855 C869 0.931 1_655 S
H856 C871 0.930 . S
C857 H845 0.930 . S
C857 C858 1.399 . S
C857 C862 1.399 . S
C858 C857 1.399 . S
C858 C859 1.376 . S
C859 H846 0.930 . S
C859 C858 1.376 . S
C859 C860 1.388 . S
C860 H847 0.930 . S
C860 C859 1.388 . S
C860 C861 1.390 . S
C861 C860 1.390 . S
C861 C862 1.394 . S
C861 C867 1.465 . S
C862 C857 1.399 . S
C862 C861 1.394 . S
C862 C863 1.516 . S
C863 C862 1.516 . S
C863 C864 1.502 . S
C863 C865 1.561 . S
C863 C866 1.526 . S
C864 H848 0.959 . S
C864 H849 0.959 . S
C864 H850 0.961 . S
C864 C863 1.502 . S
C865 H851 0.960 . S
C865 H852 0.961 . S
C865 H853 0.959 . S
C865 C863 1.561 . S
C866 C863 1.526 . S
C866 C867 1.396 . S
C866 C871 1.390 . S
C867 C861 1.465 . S
C867 C866 1.396 . S
C867 C868 1.399 . S
C868 H854 0.929 . S
C868 C867 1.399 . S
C868 C869 1.385 . S
C869 H855 0.931 1_455 S
C869 C868 1.385 . S
C869 C870 1.389 . S
C870 C869 1.389 . S
C870 C871 1.387 . S
C871 H856 0.930 . S
C871 C866 1.390 . S
C871 C870 1.387 . S
H872 C884 0.930 . S
H873 C886 0.930 . S
H874 C887 0.930 . S
H875 C891 0.959 . S
H876 C891 0.959 . S
H877 C891 0.961 . S
H878 C892 0.960 . S
H879 C892 0.961 . S
H880 C892 0.959 . S
H881 C895 0.929 . S
H882 C896 0.931 . S
H883 C898 0.930 . S
C884 H872 0.930 . S
C884 C885 1.399 . S
C884 C889 1.399 . S
C885 C884 1.399 . S
C885 C886 1.376 . S
C886 H873 0.930 . S
C886 C885 1.376 . S
C886 C887 1.388 . S
C887 H874 0.930 . S
C887 C886 1.388 . S
C887 C888 1.390 . S
C888 C887 1.390 . S
C888 C889 1.394 . S
C888 C894 1.465 . S
C889 C884 1.399 . S
C889 C888 1.394 . S
C889 C890 1.516 . S
C890 C889 1.516 . S
C890 C891 1.502 . S
C890 C892 1.561 . S
C890 C893 1.526 . S
C891 H875 0.959 . S
C891 H876 0.959 . S
C891 H877 0.961 . S
C891 C890 1.502 . S
C892 H878 0.960 . S
C892 H879 0.961 . S
C892 H880 0.959 . S
C892 C890 1.561 . S
C893 C890 1.526 . S
C893 C894 1.396 . S
C893 C898 1.390 . S
C894 C888 1.465 . S
C894 C893 1.396 . S
C894 C895 1.399 . S
C895 H881 0.929 . S
C895 C894 1.399 . S
C895 C896 1.385 . S
C896 H882 0.931 . S
C896 C895 1.385 . S
C896 C897 1.389 . S
C897 C896 1.389 . S
C897 C898 1.387 . S
C898 H883 0.930 . S
C898 C893 1.390 . S
C898 C897 1.387 . S
H899 C911 0.930 . S
H900 C913 0.930 . S
H901 C914 0.930 . S
H902 C918 0.959 . S
H903 C918 0.959 . S
H904 C918 0.961 . S
H905 C919 0.960 . S
H906 C919 0.961 . S
H907 C919 0.959 . S
H908 C922 0.929 . S
H909 C923 0.931 . S
H910 C925 0.930 . S
C911 H899 0.930 . S
C911 C912 1.399 . S
C911 C916 1.399 . S
C912 C911 1.399 . S
C912 C913 1.376 . S
C913 H900 0.930 . S
C913 C912 1.376 . S
C913 C914 1.388 . S
C914 H901 0.930 . S
C914 C913 1.388 . S
C914 C915 1.390 . S
C915 C914 1.390 . S
C915 C916 1.394 . S
C915 C921 1.465 . S
C916 C911 1.399 . S
C916 C915 1.394 . S
C916 C917 1.516 . S
C917 C916 1.516 . S
C917 C918 1.502 . S
C917 C919 1.561 . S
C917 C920 1.526 . S
C918 H902 0.959 . S
C918 H903 0.959 . S
C918 H904 0.961 . S
C918 C917 1.502 . S
C919 H905 0.960 . S
C919 H906 0.961 . S
C919 H907 0.959 . S
C919 C917 1.561 . S
C920 C917 1.526 . S
C920 C921 1.396 . S
C920 C925 1.390 . S
C921 C915 1.465 . S
C921 C920 1.396 . S
C921 C922 1.399 . S
C922 H908 0.929 . S
C922 C921 1.399 . S
C922 C923 1.385 . S
C923 H909 0.931 . S
C923 C922 1.385 . S
C923 C924 1.389 . S
C924 C923 1.389 . S
C924 C925 1.387 . S
C925 H910 0.930 . S
C925 C920 1.390 . S
C925 C924 1.387 . S
H926 C938 0.930 . S
H927 C940 0.930 . S
H928 C941 0.930 . S
H929 C945 0.959 . S
H930 C945 0.959 . S
H931 C945 0.961 . S
H932 C946 0.960 . S
H933 C946 0.961 . S
H934 C946 0.959 . S
H935 C949 0.929 . S
H936 C950 0.931 . S
H937 C952 0.930 . S
C938 H926 0.930 . S
C938 C939 1.399 . S
C938 C943 1.399 . S
C939 C938 1.399 . S
C939 C940 1.376 . S
C940 H927 0.930 . S
C940 C939 1.376 . S
C940 C941 1.388 . S
C941 H928 0.930 . S
C941 C940 1.388 . S
C941 C942 1.390 . S
C942 C941 1.390 . S
C942 C943 1.394 . S
C942 C948 1.465 . S
C943 C938 1.399 . S
C943 C942 1.394 . S
C943 C944 1.516 . S
C944 C943 1.516 . S
C944 C945 1.502 . S
C944 C946 1.561 . S
C944 C947 1.526 . S
C945 H929 0.959 . S
C945 H930 0.959 . S
C945 H931 0.961 . S
C945 C944 1.502 . S
C946 H932 0.960 . S
C946 H933 0.961 . S
C946 H934 0.959 . S
C946 C944 1.561 . S
C947 C944 1.526 . S
C947 C948 1.396 . S
C947 C952 1.390 . S
C948 C942 1.465 . S
C948 C947 1.396 . S
C948 C949 1.399 . S
C949 H935 0.929 . S
C949 C948 1.399 . S
C949 C950 1.385 . S
C950 H936 0.931 . S
C950 C949 1.385 . S
C950 C951 1.389 . S
C951 C950 1.389 . S
C951 C952 1.387 . S
C952 H937 0.930 . S
C952 C947 1.390 . S
C952 C951 1.387 . S
H953 C965 0.930 . S
H954 C967 0.930 . S
H955 C968 0.930 . S
H956 C972 0.959 . S
H957 C972 0.959 . S
H958 C972 0.961 . S
H959 C973 0.960 . S
H960 C973 0.961 . S
H961 C973 0.959 . S
H962 C976 0.929 . S
H963 C977 0.931 . S
H964 C979 0.930 . S
C965 H953 0.930 . S
C965 C966 1.399 . S
C965 C970 1.399 . S
C966 C965 1.399 . S
C966 C967 1.376 . S
C967 H954 0.930 . S
C967 C966 1.376 . S
C967 C968 1.388 . S
C968 H955 0.930 . S
C968 C967 1.388 . S
C968 C969 1.390 . S
C969 C968 1.390 . S
C969 C970 1.394 . S
C969 C975 1.465 . S
C970 C965 1.399 . S
C970 C969 1.394 . S
C970 C971 1.516 . S
C971 C970 1.516 . S
C971 C972 1.502 . S
C971 C973 1.561 . S
C971 C974 1.526 . S
C972 H956 0.959 . S
C972 H957 0.959 . S
C972 H958 0.961 . S
C972 C971 1.502 . S
C973 H959 0.960 . S
C973 H960 0.961 . S
C973 H961 0.959 . S
C973 C971 1.561 . S
C974 C971 1.526 . S
C974 C975 1.396 . S
C974 C979 1.390 . S
C975 C969 1.465 . S
C975 C974 1.396 . S
C975 C976 1.399 . S
C976 H962 0.929 . S
C976 C975 1.399 . S
C976 C977 1.385 . S
C977 H963 0.931 . S
C977 C976 1.385 . S
C977 C978 1.389 . S
C978 C977 1.389 . S
C978 C979 1.387 . S
C979 H964 0.930 . S
C979 C974 1.390 . S
C979 C978 1.387 . S
H980 C992 0.930 . S
H981 C994 0.930 . S
H982 C995 0.930 . S
H983 C999 0.959 . S
H984 C999 0.959 . S
H985 C999 0.961 1_554 S
H986 C1000 0.960 . S
H987 C1000 0.961 1_556 S
H988 C1000 0.959 . S
H989 C1003 0.929 . S
H990 C1004 0.931 . S
H991 C1006 0.930 . S
C992 H980 0.930 . S
C992 C993 1.399 . S
C992 C997 1.399 . S
C993 C992 1.399 . S
C993 C994 1.376 . S
C994 H981 0.930 . S
C994 C993 1.376 . S
C994 C995 1.388 . S
C995 H982 0.930 . S
C995 C994 1.388 . S
C995 C996 1.390 . S
C996 C995 1.390 . S
C996 C997 1.394 . S
C996 C1002 1.465 1_544 S
C997 C992 1.399 . S
C997 C996 1.394 . S
C997 C998 1.516 1_545 S
C998 C997 1.516 1_565 S
C998 C999 1.502 1_564 S
C998 C1000 1.561 . S
C998 C1001 1.526 1_554 S
C999 H983 0.959 . S
C999 H984 0.959 . S
C999 H985 0.961 1_556 S
C999 C998 1.502 1_546 S
C1000 H986 0.960 . S
C1000 H987 0.961 1_554 S
C1000 H988 0.959 . S
C1000 C998 1.561 . S
C1001 C998 1.526 1_556 S
C1001 C1002 1.396 . S
C1001 C1006 1.390 . S
C1002 C996 1.465 1_566 S
C1002 C1001 1.396 . S
C1002 C1003 1.399 . S
C1003 H989 0.929 . S
C1003 C1002 1.399 . S
C1003 C1004 1.385 . S
C1004 H990 0.931 . S
C1004 C1003 1.385 . S
C1004 C1005 1.389 . S
C1005 C1004 1.389 . S
C1005 C1006 1.387 . S
C1006 H991 0.930 . S
C1006 C1001 1.390 . S
C1006 C1005 1.387 . S
H1007 C1019 0.930 . S
H1008 C1021 0.930 . S
H1009 C1022 0.930 . S
H1010 C1026 0.959 . S
H1011 C1026 0.959 . S
H1012 C1026 0.961 1_556 S
H1013 C1027 0.960 . S
H1014 C1027 0.961 1_554 S
H1015 C1027 0.959 . S
H1016 C1030 0.929 . S
H1017 C1031 0.931 . S
H1018 C1033 0.930 . S
C1019 H1007 0.930 . S
C1019 C1020 1.399 . S
C1019 C1024 1.399 . S
C1020 C1019 1.399 . S
C1020 C1021 1.376 . S
C1021 H1008 0.930 . S
C1021 C1020 1.376 . S
C1021 C1022 1.388 1_455 S
C1022 H1009 0.930 . S
C1022 C1021 1.388 1_655 S
C1022 C1023 1.390 . S
C1023 C1022 1.390 . S
C1023 C1024 1.394 1_655 S
C1023 C1029 1.465 1_556 S
C1024 C1019 1.399 . S
C1024 C1023 1.394 1_455 S
C1024 C1025 1.516 1_556 S
C1025 C1024 1.516 1_554 S
C1025 C1026 1.502 . S
C1025 C1027 1.561 1_454 S
C1025 C1028 1.526 1_455 S
C1026 H1010 0.959 . S
C1026 H1011 0.959 . S
C1026 H1012 0.961 1_554 S
C1026 C1025 1.502 . S
C1027 H1013 0.960 . S
C1027 H1014 0.961 1_556 S
C1027 H1015 0.959 . S
C1027 C1025 1.561 1_656 S
C1028 C1025 1.526 1_655 S
C1028 C1029 1.396 . S
C1028 C1033 1.390 . S
C1029 C1023 1.465 1_554 S
C1029 C1028 1.396 . S
C1029 C1030 1.399 . S
C1030 H1016 0.929 . S
C1030 C1029 1.399 . S
C1030 C1031 1.385 . S
C1031 H1017 0.931 . S
C1031 C1030 1.385 . S
C1031 C1032 1.389 . S
C1032 C1031 1.389 . S
C1032 C1033 1.387 . S
C1033 H1018 0.930 . S
C1033 C1028 1.390 . S
C1033 C1032 1.387 . S
H1034 C1046 0.941 . S
H1035 C1048 0.930 . S
H1036 C1049 0.930 . S
H1037 C1053 0.959 . S
H1038 C1053 0.976 . S
H1039 C1053 0.961 . S
H1040 C1054 0.960 . S
H1041 C1054 0.961 . S
H1042 C1054 0.959 . S
H1043 C1057 0.929 . S
H1044 C1058 0.931 . S
H1045 C1060 0.930 . S
C1046 H1034 0.941 . S
C1046 C1047 1.386 1_565 S
C1046 C1051 1.401 . S
C1047 C1046 1.386 1_545 S
C1047 C1048 1.376 . S
C1048 H1035 0.930 . S
C1048 C1047 1.376 . S
C1048 C1049 1.388 . S
C1049 H1036 0.930 . S
C1049 C1048 1.388 . S
C1049 C1050 1.390 . S
C1050 C1049 1.390 . S
C1050 C1051 1.394 1_545 S
C1050 C1056 1.465 1_556 S
C1051 C1046 1.401 . S
C1051 C1050 1.394 1_565 S
C1051 C1052 1.516 . S
C1052 C1051 1.516 . S
C1052 C1053 1.502 . S
C1052 C1054 1.561 . S
C1052 C1055 1.526 1_556 S
C1053 H1037 0.959 . S
C1053 H1038 0.976 . S
C1053 H1039 0.961 . S
C1053 C1052 1.502 . S
C1054 H1040 0.960 . S
C1054 H1041 0.961 . S
C1054 H1042 0.959 . S
C1054 C1052 1.561 . S
C1055 C1052 1.526 1_554 S
C1055 C1056 1.396 1_565 S
C1055 C1060 1.390 . S
C1056 C1050 1.465 1_554 S
C1056 C1055 1.396 1_545 S
C1056 C1057 1.399 . S
C1057 H1043 0.929 . S
C1057 C1056 1.399 . S
C1057 C1058 1.385 . S
C1058 H1044 0.931 . S
C1058 C1057 1.385 . S
C1058 C1059 1.389 1_545 S
C1059 C1058 1.389 1_565 S
C1059 C1060 1.387 . S
C1060 H1045 0.930 . S
C1060 C1055 1.390 . S
C1060 C1059 1.387 . S
H1061 C1073 0.930 . S
H1062 C1075 0.930 . S
H1063 C1076 0.930 1_455 S
H1064 C1080 0.959 . S
H1065 C1080 0.959 . S
H1066 C1080 0.961 1_556 S
H1067 C1081 0.960 . S
H1068 C1081 0.961 1_554 S
H1069 C1081 0.959 . S
H1070 C1084 0.929 . S
H1071 C1085 0.931 . S
H1072 C1087 0.930 . S
C1073 H1061 0.930 . S
C1073 C1074 1.399 . S
C1073 C1078 1.399 . S
C1074 C1073 1.399 . S
C1074 C1075 1.376 . S
C1075 H1062 0.930 . S
C1075 C1074 1.376 . S
C1075 C1076 1.388 . S
C1076 H1063 0.930 1_655 S
C1076 C1075 1.388 . S
C1076 C1077 1.389 1_655 S
C1077 C1076 1.389 1_455 S
C1077 C1078 1.388 1_455 S
C1077 C1083 1.471 1_556 S
C1078 C1073 1.399 . S
C1078 C1077 1.388 1_655 S
C1078 C1079 1.495 1_556 S
C1079 C1078 1.495 1_554 S
C1079 C1080 1.510 . S
C1079 C1081 1.554 1_654 S
C1079 C1082 1.546 1_655 S
C1080 H1064 0.959 . S
C1080 H1065 0.959 . S
C1080 H1066 0.961 1_554 S
C1080 C1079 1.510 . S
C1081 H1067 0.960 . S
C1081 H1068 0.961 1_556 S
C1081 H1069 0.959 . S
C1081 C1079 1.554 1_456 S
C1082 C1079 1.546 1_455 S
C1082 C1083 1.396 . S
C1082 C1087 1.390 . S
C1083 C1077 1.471 1_554 S
C1083 C1082 1.396 . S
C1083 C1084 1.399 . S
C1084 H1070 0.929 . S
C1084 C1083 1.399 . S
C1084 C1085 1.385 . S
C1085 H1071 0.931 . S
C1085 C1084 1.385 . S
C1085 C1086 1.389 . S
C1086 C1085 1.389 . S
C1086 C1087 1.387 . S
C1087 H1072 0.930 . S
C1087 C1082 1.390 . S
C1087 C1086 1.387 . S
C237 C6 1.361 . S
C249 C104 1.367 . S
C264 C20 1.375 . S
C276 C62 1.376 . S
C291 C76 1.376 . S
C303 C34 1.376 . S
C318 C48 1.374 . S
C330 C90 1.376 . S
C345 C118 1.344 . S
C357 C216 1.338 . S
C372 C174 1.354 . S
C384 C132 1.347 . S
C399 C188 1.376 . S
C411 C146 1.376 . S
C426 C202 1.332 . S
C438 C160 1.332 . S
C453 C9 1.424 . S
C465 C162 1.482 . S
C480 C23 1.487 . S
C492 C120 1.494 . S
C507 C134 1.493 . S
C519 C37 1.449 . S
C534 C51 1.420 . S
C546 C148 1.481 . S
C561 C65 1.454 . S
C573 C190 1.495 . S
C588 C204 1.491 . S
C600 C79 1.486 . S
C615 C93 1.478 . S
C627 C218 1.501 . S
C642 C176 1.485 . S
C654 C107 1.479 . S
C669 C121 1.420 1_545 S
C681 C50 1.480 . S
C696 C8 1.479 . S
C708 C135 1.465 1_455 S
C723 C149 1.450 1_565 S
C735 C22 1.500 . S
C750 C36 1.485 . S
C762 C163 1.420 1_655 S
C777 C177 1.476 1_565 S
C789 C78 1.491 . S
C804 C92 1.484 . S
C816 C191 1.420 1_655 S
C831 C106 1.489 . S
C843 C205 1.473 1_545 S
C858 C64 1.489 . S
C870 C219 1.423 1_455 S
C885 C63 1.545 . S
C897 C7 1.569 . S
C912 C77 1.588 . S
C924 C21 1.584 . S
C939 C35 1.533 . S
C951 C91 1.550 . S
C966 C105 1.592 . S
C978 C49 1.590 . S
C993 C175 1.536 . S
C1005 C119 1.534 . S
C1020 C189 1.589 . S
C1032 C133 1.585 . S
C1047 C147 1.534 . S
C1059 C203 1.552 . S
C1074 C217 1.591 . S
C1086 C161 1.588 . S
