# Generated by pormake.
# Topology upa, (4)-cn, num edge types: 1
# Building blocks:
#     Node 0, Type 0, BuildingBlock: ICAMEG_clean_sbu_1, # of connection points: 4
#     Node 1, Type 0, BuildingBlock: ICAMEG_clean_sbu_1, # of connection points: 4
#     Node 2, Type 0, BuildingBlock: ICAMEG_clean_sbu_1, # of connection points: 4
#     Node 3, Type 0, BuildingBlock: ICAMEG_clean_sbu_1, # of connection points: 4
#     Node 4, Type 0, BuildingBlock: ICAMEG_clean_sbu_1, # of connection points: 4
#     Node 5, Type 0, BuildingBlock: ICAMEG_clean_sbu_1, # of connection points: 4
#     Node 6, Type 0, BuildingBlock: ICAMEG_clean_sbu_1, # of connection points: 4
#     Node 7, Type 0, BuildingBlock: ICAMEG_clean_sbu_1, # of connection points: 4
#     Edge 8, Type (0, 0), BuildingBlock: OJICUG_clean_linker_0, # of connection points: 2
#     Edge 9, Type (0, 0), BuildingBlock: OJICUG_clean_linker_0, # of connection points: 2
#     Edge 10, Type (0, 0), BuildingBlock: OJICUG_clean_linker_0, # of connection points: 2
#     Edge 11, Type (0, 0), BuildingBlock: OJICUG_clean_linker_0, # of connection points: 2
#     Edge 12, Type (0, 0), BuildingBlock: OJICUG_clean_linker_0, # of connection points: 2
#     Edge 13, Type (0, 0), BuildingBlock: OJICUG_clean_linker_0, # of connection points: 2
#     Edge 14, Type (0, 0), BuildingBlock: OJICUG_clean_linker_0, # of connection points: 2
#     Edge 15, Type (0, 0), BuildingBlock: OJICUG_clean_linker_0, # of connection points: 2
#     Edge 16, Type (0, 0), BuildingBlock: OJICUG_clean_linker_0, # of connection points: 2
#     Edge 17, Type (0, 0), BuildingBlock: OJICUG_clean_linker_0, # of connection points: 2
#     Edge 18, Type (0, 0), BuildingBlock: OJICUG_clean_linker_0, # of connection points: 2
#     Edge 19, Type (0, 0), BuildingBlock: OJICUG_clean_linker_0, # of connection points: 2
#     Edge 20, Type (0, 0), BuildingBlock: OJICUG_clean_linker_0, # of connection points: 2
#     Edge 21, Type (0, 0), BuildingBlock: OJICUG_clean_linker_0, # of connection points: 2
#     Edge 22, Type (0, 0), BuildingBlock: OJICUG_clean_linker_0, # of connection points: 2
#     Edge 23, Type (0, 0), BuildingBlock: OJICUG_clean_linker_0, # of connection points: 2
# Relax obj value: 0.133
# Max RMSD: 0.083
# Mean RMSD: 0.083
data_MOF--net-upa--node1-ICAMEG_clean_sbu_1--edge1-OJICUG_clean_linker_0
_symmetry_space_group_name_H-M    P1
_symmetry_Int_Tables_number       1
_symmetry_cell_setting            triclinic
loop_
_symmetry_equiv_pos_as_xyz
'x, y, z'
_cell_length_a     19.240029
_cell_length_b     19.237363
_cell_length_c     38.622206
_cell_angle_alpha  90.002756
_cell_angle_beta   89.949759
_cell_angle_gamma 89.999303
loop_
_atom_site_label
_atom_site_type_symbol
_atom_site_fract_x
_atom_site_fract_y
_atom_site_fract_z
_atom_type_partial_charge
Co0 Co 0.12681 0.28533 0.36383 0.0
Co1 Co 0.21061 0.1695 0.30835 0.0
O2 O 0.21098 0.24711 0.34161 0.0
C3 C 0.21183 0.24048 0.42287 0.0
O4 O 0.22663 0.18498 0.40455 0.0
C5 C 0.32356 0.26811 0.28225 0.0
O6 O 0.31059 0.31341 0.3068 0.0
O7 O 0.13343 0.21436 0.28073 0.0
O8 O 0.07598 0.28104 0.31916 0.0
H9 H 0.09454 0.9871 0.23532 0.0
H10 H 0.26038 0.35987 0.37355 0.0
O11 O 0.17479 0.2886 0.4098 0.0
H12 H 0.10238 0.53048 0.31981 0.0
H13 H 0.99654 0.44746 0.44318 0.0
H14 H 0.9753 0.25738 0.35822 0.0
H15 H 0.06353 0.41032 0.33078 0.0
H16 H 0.10105 0.39626 0.41639 0.0
O17 O 0.28453 0.21483 0.27841 0.0
H18 H 0.09889 0.08414 0.27694 0.0
H19 H 0.31916 0.08978 0.26944 0.0
H20 H 0.86948 0.30798 0.38392 0.0
H21 H 0.30171 0.47946 0.36275 0.0
H22 H 0.87969 0.40398 0.42663 0.0
H23 H 0.22209 0.56588 0.3361 0.0
O24 O 0.09101 0.1908 0.37559 0.0
H25 H 0.43112 0.15759 0.3794 0.0
H26 H 0.23424 0.02434 0.33212 0.0
H27 H 0.32308 0.96421 0.3667 0.0
H28 H 0.42296 0.03071 0.39037 0.0
H29 H 0.34065 0.21581 0.34552 0.0
H30 H 0.31718 0.99209 0.22824 0.0
H31 H 0.20428 0.94089 0.21046 0.0
O32 O 0.14046 0.11963 0.33663 0.0
C33 C 0.08164 0.25261 0.28949 0.0
C34 C 0.14406 1.00938 0.24264 0.0
C35 C 0.26898 1.01246 0.23849 0.0
N36 N 0.20918 0.09295 0.27551 0.0
C37 C 0.14687 0.06441 0.26618 0.0
C38 C 0.26975 0.06791 0.2618 0.0
C39 C 0.20563 0.9834 0.22873 0.0
C40 C 0.22574 0.39707 0.36165 0.0
N41 N 0.15971 0.37813 0.3528 0.0
C42 C 0.24932 0.46472 0.35568 0.0
C43 C 0.20465 0.51319 0.34071 0.0
C44 C 0.13752 0.49331 0.33148 0.0
C45 C 0.11599 0.42503 0.33753 0.0
C46 C 0.99143 0.40584 0.42451 0.0
C47 C 0.98026 0.29916 0.37675 0.0
C48 C 0.05045 0.3763 0.40941 0.0
N49 N 0.04437 0.324 0.38563 0.0
C50 C 0.92011 0.32756 0.39126 0.0
C51 C 0.92587 0.38138 0.41523 0.0
C52 C 0.09999 0.13111 0.36201 0.0
C53 C 0.38843 0.12781 0.36878 0.0
C54 C 0.27748 0.0539 0.34216 0.0
C55 C 0.32771 0.01941 0.36179 0.0
C56 C 0.38369 0.0567 0.37506 0.0
N57 N 0.28296 0.12356 0.33546 0.0
C58 C 0.33722 0.16053 0.34901 0.0
Co59 Co 0.2409 0.62611 0.86343 0.0
Co60 Co 0.35812 0.7092 0.8084 0.0
O61 O 0.28011 0.71002 0.84144 0.0
C62 C 0.28572 0.71074 0.92262 0.0
O63 O 0.34148 0.72512 0.9044 0.0
C64 C 0.26031 0.82243 0.78206 0.0
O65 O 0.2147 0.8094 0.80647 0.0
O66 O 0.31321 0.63231 0.78059 0.0
O67 O 0.24536 0.57542 0.81871 0.0
H68 H 0.54088 0.59204 0.73591 0.0
H69 H 0.16743 0.76029 0.87323 0.0
O70 O 0.2375 0.67395 0.90947 0.0
H71 H 0.9962 0.60419 0.81862 0.0
H72 H 0.07595 0.49701 0.9418 0.0
H73 H 0.26748 0.47432 0.85767 0.0
H74 H 0.11584 0.56418 0.82985 0.0
H75 H 0.12903 0.60117 0.91561 0.0
O76 O 0.31367 0.78344 0.77837 0.0
H77 H 0.44322 0.59695 0.77718 0.0
H78 H 0.43905 0.81729 0.76982 0.0
H79 H 0.215 0.36884 0.88278 0.0
H80 H 0.04839 0.80277 0.86216 0.0
H81 H 0.11822 0.37979 0.92503 0.0
H82 H 0.96166 0.72412 0.83506 0.0
O83 O 0.33495 0.5894 0.87538 0.0
H84 H 0.37053 0.92973 0.87951 0.0
H85 H 0.50298 0.7316 0.83281 0.0
H86 H 0.56317 0.81995 0.8677 0.0
H87 H 0.49708 0.92045 0.89108 0.0
H88 H 0.31221 0.83974 0.84532 0.0
H89 H 0.53749 0.81475 0.72904 0.0
H90 H 0.58819 0.70154 0.71133 0.0
O91 O 0.40708 0.63867 0.83679 0.0
C92 C 0.27441 0.58081 0.78917 0.0
C93 C 0.5188 0.6417 0.74319 0.0
C94 C 0.51661 0.76666 0.73916 0.0
N95 N 0.43512 0.70731 0.77581 0.0
C96 C 0.46342 0.64483 0.76653 0.0
C97 C 0.46076 0.76775 0.76224 0.0
C98 C 0.54541 0.70314 0.72944 0.0
C99 C 0.13009 0.72605 0.86115 0.0
N100 N 0.14857 0.65991 0.8522 0.0
C101 C 0.06275 0.7503 0.85502 0.0
C102 C 0.01411 0.70616 0.83981 0.0
C103 C 0.0335 0.63891 0.83049 0.0
C104 C 0.1015 0.61673 0.83668 0.0
C105 C 0.1179 0.49158 0.92332 0.0
C106 C 0.22541 0.4796 0.87603 0.0
C107 C 0.1485 0.5504 0.90857 0.0
N108 N 0.20117 0.54392 0.88499 0.0
C109 C 0.19594 0.41964 0.8902 0.0
C110 C 0.14168 0.42581 0.91392 0.0
C111 C 0.3949 0.59808 0.86203 0.0
C112 C 0.40014 0.88676 0.86902 0.0
C113 C 0.4736 0.77512 0.84272 0.0
C114 C 0.50812 0.82507 0.86253 0.0
C115 C 0.47106 0.88139 0.87563 0.0
N116 N 0.40414 0.78121 0.83571 0.0
C117 C 0.36738 0.83582 0.84908 0.0
Co118 Co 0.899 0.74228 0.36301 0.0
Co119 Co 0.81573 0.86026 0.30854 0.0
O120 O 0.81502 0.78181 0.34129 0.0
C121 C 0.81462 0.78613 0.42252 0.0
O122 O 0.80008 0.84215 0.40456 0.0
C123 C 0.70253 0.76272 0.28196 0.0
O124 O 0.71559 0.71695 0.30626 0.0
O125 O 0.89257 0.81579 0.28044 0.0
O126 O 0.94949 0.74746 0.31827 0.0
H127 H 0.93252 0.04434 0.23677 0.0
H128 H 0.76491 0.66861 0.37271 0.0
O129 O 0.85138 0.73814 0.4091 0.0
H130 H 0.92067 0.49834 0.31698 0.0
H131 H 0.02846 0.57563 0.44021 0.0
H132 H 0.05075 0.769 0.35717 0.0
H133 H 0.96076 0.61777 0.32875 0.0
H134 H 0.92418 0.62948 0.41462 0.0
O135 O 0.74142 0.81619 0.27841 0.0
H136 H 0.92782 0.94578 0.27749 0.0
H137 H 0.70747 0.94173 0.27047 0.0
H138 H 0.15634 0.71581 0.38171 0.0
H139 H 0.72234 0.54978 0.3611 0.0
H140 H 0.1456 0.61807 0.42339 0.0
H141 H 0.80082 0.46353 0.33343 0.0
O142 O 0.93575 0.83619 0.3753 0.0
H143 H 0.59546 0.87166 0.37999 0.0
H144 H 0.79348 1.00474 0.33362 0.0
H145 H 0.70531 0.06442 0.3689 0.0
H146 H 0.60487 0.99803 0.39212 0.0
H147 H 0.68526 0.81383 0.34542 0.0
H148 H 0.7098 0.04121 0.23035 0.0
H149 H 0.82289 0.09224 0.21272 0.0
O150 O 0.88633 0.9088 0.33702 0.0
C151 C 0.9441 0.77692 0.28885 0.0
C152 C 0.88291 0.02209 0.24402 0.0
C153 C 0.75793 0.02005 0.24023 0.0
N154 N 0.81747 0.93774 0.27627 0.0
C155 C 0.8799 0.96621 0.26704 0.0
C156 C 0.75697 0.96364 0.26295 0.0
C157 C 0.8214 0.04905 0.23056 0.0
C158 C 0.79907 0.63148 0.36039 0.0
N159 N 0.86517 0.65011 0.35142 0.0
C160 C 0.77478 0.56426 0.35395 0.0
C161 C 0.81883 0.51588 0.33842 0.0
C162 C 0.88603 0.53544 0.3291 0.0
C163 C 0.90826 0.60331 0.3356 0.0
C164 C 0.0338 0.61801 0.42199 0.0
C165 C 0.04555 0.72656 0.37531 0.0
C166 C 0.97492 0.64904 0.40756 0.0
N167 N 0.98127 0.7022 0.38427 0.0
C168 C 0.10558 0.69667 0.38915 0.0
C169 C 0.09952 0.64188 0.41255 0.0
C170 C 0.927 0.89631 0.36217 0.0
C171 C 0.6384 0.90141 0.36957 0.0
C172 C 0.74997 0.97523 0.34345 0.0
C173 C 0.70013 1.00947 0.36348 0.0
C174 C 0.64384 0.97223 0.3765 0.0
N175 N 0.74381 0.90588 0.33613 0.0
C176 C 0.68923 0.86893 0.34941 0.0
Co177 Co 0.78359 0.3976 0.86347 0.0
Co178 Co 0.667 0.31394 0.80843 0.0
O179 O 0.74494 0.31348 0.84145 0.0
C180 C 0.73938 0.31279 0.92277 0.0
O181 O 0.68363 0.29798 0.90467 0.0
C182 C 0.76527 0.201 0.78208 0.0
O183 O 0.81073 0.21404 0.80652 0.0
O184 O 0.71163 0.39105 0.7806 0.0
O185 O 0.77882 0.44835 0.81879 0.0
H186 H 0.48364 0.4302 0.73613 0.0
H187 H 0.85797 0.26389 0.87309 0.0
O188 O 0.78736 0.34972 0.90947 0.0
H189 H 0.02813 0.42132 0.81844 0.0
H190 H 0.94732 0.52769 0.94194 0.0
H191 H 0.75591 0.54919 0.85783 0.0
H192 H 0.90825 0.4605 0.82986 0.0
H193 H 0.8953 0.42322 0.91557 0.0
O194 O 0.71187 0.2399 0.77838 0.0
H195 H 0.58152 0.42579 0.7772 0.0
H196 H 0.58662 0.20546 0.76991 0.0
H197 H 0.80729 0.65498 0.88314 0.0
H198 H 0.97729 0.22223 0.86184 0.0
H199 H 0.90399 0.64463 0.9254 0.0
H200 H 0.06348 0.30156 0.83474 0.0
O201 O 0.68928 0.43364 0.87551 0.0
H202 H 0.6555 0.09341 0.87959 0.0
H203 H 0.52216 0.29075 0.83282 0.0
H204 H 0.46229 0.20206 0.86769 0.0
H205 H 0.52883 0.10195 0.8911 0.0
H206 H 0.71347 0.18372 0.84544 0.0
H207 H 0.4879 0.2075 0.72938 0.0
H208 H 0.43661 0.32045 0.71174 0.0
O209 O 0.61762 0.38424 0.83682 0.0
C210 C 0.75004 0.4428 0.78922 0.0
C211 C 0.50598 0.38065 0.74338 0.0
C212 C 0.50866 0.2557 0.73941 0.0
N213 N 0.59007 0.31546 0.77587 0.0
C214 C 0.56149 0.37781 0.76661 0.0
C215 C 0.56466 0.25489 0.76236 0.0
C216 C 0.47953 0.31908 0.72974 0.0
C217 C 0.89508 0.29841 0.861 0.0
N218 N 0.87616 0.36447 0.85213 0.0
C219 C 0.96257 0.27464 0.85477 0.0
C220 C 1.01091 0.31915 0.83955 0.0
C221 C 0.99106 0.3863 0.83032 0.0
C222 C 0.92294 0.40802 0.83661 0.0
C223 C 0.90539 0.53286 0.92347 0.0
C224 C 0.79796 0.54417 0.87619 0.0
C225 C 0.8754 0.47386 0.9086 0.0
N226 N 0.82273 0.48001 0.88504 0.0
C227 C 0.82681 0.60431 0.89047 0.0
C228 C 0.88102 0.59847 0.91419 0.0
C229 C 0.62945 0.42476 0.86212 0.0
C230 C 0.62569 0.1362 0.86909 0.0
C231 C 0.55173 0.2474 0.84275 0.0
C232 C 0.51739 0.19726 0.86254 0.0
C233 C 0.55471 0.14115 0.87566 0.0
N234 N 0.62126 0.24171 0.83576 0.0
C235 C 0.65827 0.18733 0.84916 0.0
Co236 Co 0.62725 0.24214 0.12955 0.0
Co237 Co 0.71055 0.36021 0.18397 0.0
O238 O 0.71123 0.28173 0.15124 0.0
C239 C 0.71148 0.28601 0.07001 0.0
O240 O 0.72605 0.34203 0.08796 0.0
C241 C 0.82381 0.26273 0.21054 0.0
O242 O 0.81075 0.21693 0.18624 0.0
O243 O 0.63374 0.31575 0.2121 0.0
O244 O 0.57683 0.24731 0.17431 0.0
H245 H 0.59379 0.54431 0.25575 0.0
H246 H 0.76137 0.16856 0.1198 0.0
O247 O 0.67478 0.23801 0.08344 0.0
H248 H 0.6058 0.99818 0.17558 0.0
H249 H 0.49774 0.07534 0.05244 0.0
H250 H 0.47549 0.26878 0.13546 0.0
H251 H 0.56562 0.11759 0.16384 0.0
H252 H 0.60204 0.12929 0.07797 0.0
O253 O 0.7849 0.31617 0.2141 0.0
H254 H 0.59846 0.44574 0.21503 0.0
H255 H 0.81882 0.44172 0.22202 0.0
H256 H 0.36989 0.21548 0.11099 0.0
H257 H 0.80402 0.04975 0.13138 0.0
H258 H 0.38061 0.11771 0.06932 0.0
H259 H 0.72564 0.96344 0.15907 0.0
O260 O 0.59042 0.33602 0.11728 0.0
H261 H 0.93073 0.3716 0.11246 0.0
H262 H 0.73273 0.50467 0.15887 0.0
H263 H 0.82084 0.56435 0.12356 0.0
H264 H 0.92127 0.49796 0.10032 0.0
H265 H 0.84098 0.31378 0.14706 0.0
H266 H 0.81651 0.54118 0.26215 0.0
H267 H 0.70342 0.59222 0.2798 0.0
O268 O 0.6399 0.40871 0.1555 0.0
C269 C 0.58223 0.27682 0.20372 0.0
C270 C 0.6434 0.52207 0.2485 0.0
C271 C 0.76837 0.52003 0.25227 0.0
N272 N 0.70881 0.43771 0.21623 0.0
C273 C 0.64639 0.46617 0.22548 0.0
C274 C 0.76933 0.46362 0.22955 0.0
C275 C 0.70491 0.54902 0.26195 0.0
C276 C 0.72725 0.13141 0.13214 0.0
N277 N 0.66116 0.15 0.14113 0.0
C278 C 0.75159 0.0642 0.13855 0.0
C279 C 0.7076 0.01579 0.15409 0.0
C280 C 0.6404 0.0353 0.16345 0.0
C281 C 0.61812 0.10317 0.15697 0.0
C282 C 0.49241 0.11773 0.07066 0.0
C283 C 0.48068 0.22632 0.11732 0.0
C284 C 0.5513 0.14882 0.08505 0.0
N285 N 0.54496 0.20199 0.10834 0.0
C286 C 0.42064 0.19638 0.10353 0.0
C287 C 0.42669 0.14156 0.08013 0.0
C288 C 0.59918 0.39617 0.13038 0.0
C289 C 0.8878 0.40136 0.12289 0.0
C290 C 0.77624 0.47516 0.14903 0.0
C291 C 0.82604 0.5094 0.12898 0.0
C292 C 0.88233 0.47216 0.11596 0.0
N293 N 0.78242 0.40582 0.15636 0.0
C294 C 0.83699 0.36888 0.14306 0.0
Co295 Co 0.28448 0.12608 0.62916 0.0
Co296 Co 0.16716 0.20917 0.68415 0.0
O297 O 0.24522 0.21 0.65114 0.0
C298 C 0.2398 0.21071 0.56995 0.0
O299 O 0.18399 0.22509 0.58813 0.0
C300 C 0.2649 0.32244 0.71051 0.0
O301 O 0.31054 0.3094 0.68611 0.0
O302 O 0.21205 0.13231 0.71199 0.0
O303 O 0.27992 0.0754 0.67388 0.0
H304 H 0.98431 0.09202 0.75658 0.0
H305 H 0.35797 0.26025 0.6194 0.0
O306 O 0.28798 0.17391 0.58313 0.0
H307 H 0.5291 0.10413 0.67408 0.0
H308 H 0.44961 0.99695 0.5509 0.0
H309 H 0.25788 0.97429 0.63492 0.0
H310 H 0.40947 0.06415 0.66281 0.0
H311 H 0.39646 0.10112 0.57704 0.0
O312 O 0.21154 0.28345 0.71419 0.0
H313 H 0.08206 0.09693 0.71535 0.0
H314 H 0.08613 0.31727 0.72268 0.0
H315 H 0.31042 0.8688 0.60985 0.0
H316 H 0.477 0.30271 0.63052 0.0
H317 H 0.40731 0.87973 0.56765 0.0
H318 H 0.56369 0.22405 0.65764 0.0
O319 O 0.19044 0.08937 0.61717 0.0
H320 H 0.15479 0.42966 0.61301 0.0
H321 H 0.02234 0.23152 0.65968 0.0
H322 H 0.96217 0.31983 0.62476 0.0
H323 H 0.02826 0.42032 0.60139 0.0
H324 H 0.21308 0.33971 0.64723 0.0
H325 H 0.98759 0.31473 0.7634 0.0
H326 H 0.93691 0.20152 0.78111 0.0
O327 O 0.11827 0.13861 0.65575 0.0
C328 C 0.25085 0.0808 0.70341 0.0
C329 C 1.0064 0.14168 0.7493 0.0
C330 C 1.00852 0.26664 0.7533 0.0
N331 N 0.09011 0.20728 0.71671 0.0
C332 C 0.06182 0.1448 0.72598 0.0
C333 C 0.06442 0.26773 0.73025 0.0
C334 C 0.97973 0.20312 0.76302 0.0
C335 C 0.39529 0.22601 0.6315 0.0
N336 N 0.37679 0.15987 0.64045 0.0
C337 C 0.46262 0.25024 0.63766 0.0
C338 C 0.51124 0.2061 0.65288 0.0
C339 C 0.49181 0.13886 0.66219 0.0
C340 C 0.42383 0.11669 0.65598 0.0
C341 C 0.40761 0.99153 0.56935 0.0
C342 C 0.29999 0.97957 0.61658 0.0
C343 C 0.37697 0.05035 0.58408 0.0
N344 N 0.32425 0.04389 0.60763 0.0
C345 C 0.3295 0.9196 0.60244 0.0
C346 C 0.38382 0.92576 0.57874 0.0
C347 C 0.13048 0.09804 0.63051 0.0
C348 C 0.12518 0.38669 0.62349 0.0
C349 C 0.05171 0.27504 0.64977 0.0
C350 C 0.01721 0.32496 0.62995 0.0
C351 C 0.05427 0.38129 0.61685 0.0
N352 N 0.12116 0.28116 0.65681 0.0
C353 C 0.15793 0.33577 0.64345 0.0
Co354 Co 0.39942 0.78519 0.12868 0.0
Co355 Co 0.31567 0.66946 0.18421 0.0
O356 O 0.31528 0.74703 0.15094 0.0
C357 C 0.31425 0.74037 0.06968 0.0
O358 O 0.2995 0.68487 0.08801 0.0
C359 C 0.20277 0.76811 0.21033 0.0
O360 O 0.21574 0.8134 0.18576 0.0
O361 O 0.39288 0.71433 0.2118 0.0
O362 O 0.45034 0.78088 0.17332 0.0
H363 H 0.43179 0.48708 0.25724 0.0
H364 H 0.26588 0.85982 0.11902 0.0
O365 O 0.35135 0.78847 0.08273 0.0
H366 H 0.42409 0.03032 0.1727 0.0
H367 H 0.52963 0.94717 0.04924 0.0
H368 H 0.55093 0.75715 0.13422 0.0
H369 H 0.46285 0.91015 0.1617 0.0
H370 H 0.42515 0.89607 0.0761 0.0
O371 O 0.24179 0.71482 0.21416 0.0
H372 H 0.42741 0.58411 0.21562 0.0
H373 H 0.20715 0.58977 0.22316 0.0
H374 H 0.65673 0.80764 0.10844 0.0
H375 H 0.22465 0.97943 0.12985 0.0
H376 H 0.64649 0.90361 0.06572 0.0
H377 H 0.30437 0.06579 0.15648 0.0
O378 O 0.43514 0.69063 0.11691 0.0
H379 H 0.09508 0.65752 0.11323 0.0
H380 H 0.29199 0.52428 0.16047 0.0
H381 H 0.2031 0.46414 0.12592 0.0
H382 H 0.1032 0.53063 0.10227 0.0
H383 H 0.18559 0.71576 0.14708 0.0
H384 H 0.20916 0.49208 0.26435 0.0
H385 H 0.32206 0.44088 0.28211 0.0
O386 O 0.38578 0.61953 0.15592 0.0
C387 C 0.4447 0.75252 0.20301 0.0
C388 C 0.38226 0.50937 0.24993 0.0
C389 C 0.25735 0.51245 0.25409 0.0
N390 N 0.31713 0.59293 0.21706 0.0
C391 C 0.37943 0.56439 0.22639 0.0
C392 C 0.25656 0.5679 0.23079 0.0
C393 C 0.3207 0.48339 0.26385 0.0
C394 C 0.30058 0.897 0.1309 0.0
N395 N 0.36661 0.87801 0.13972 0.0
C396 C 0.27704 0.96466 0.1369 0.0
C397 C 0.32177 0.01309 0.15185 0.0
C398 C 0.3889 0.99317 0.16105 0.0
C399 C 0.41038 0.92489 0.15498 0.0
C400 C 0.53476 0.90556 0.06791 0.0
C401 C 0.54596 0.79892 0.11569 0.0
C402 C 0.47575 0.87609 0.08305 0.0
N403 N 0.48185 0.82379 0.10684 0.0
C404 C 0.6061 0.82726 0.10114 0.0
C405 C 0.60032 0.88106 0.07715 0.0
C406 C 0.42619 0.63097 0.13051 0.0
C407 C 0.13778 0.62774 0.12384 0.0
C408 C 0.24874 0.55384 0.15043 0.0
C409 C 0.19848 0.51934 0.13083 0.0
C410 C 0.1425 0.55663 0.11757 0.0
N411 N 0.24328 0.62351 0.15712 0.0
C412 C 0.18901 0.66047 0.14359 0.0
Co413 Co 0.74178 0.89757 0.62901 0.0
Co414 Co 0.85828 0.81391 0.68409 0.0
O415 O 0.7804 0.81345 0.65104 0.0
C416 C 0.78615 0.81276 0.56974 0.0
O417 O 0.84184 0.79794 0.58787 0.0
C418 C 0.75994 0.70101 0.71043 0.0
O419 O 0.71451 0.71405 0.68597 0.0
O420 O 0.81363 0.89105 0.7119 0.0
O421 O 0.74646 0.94833 0.67369 0.0
H422 H 0.04156 0.93017 0.75646 0.0
H423 H 0.66744 0.76385 0.61935 0.0
O424 O 0.73813 0.84969 0.58301 0.0
H425 H 0.49716 0.92126 0.67393 0.0
H426 H 0.57824 0.02763 0.55045 0.0
H427 H 0.76944 0.04917 0.63466 0.0
H428 H 0.61705 0.96046 0.66256 0.0
H429 H 0.63019 0.92317 0.57685 0.0
O430 O 0.81335 0.73991 0.71413 0.0
H431 H 0.94375 0.92575 0.71534 0.0
H432 H 0.93856 0.70543 0.72267 0.0
H433 H 0.71813 0.15494 0.60932 0.0
H434 H 0.54812 0.72218 0.63055 0.0
H435 H 0.62153 0.14458 0.567 0.0
H436 H 0.46187 0.80149 0.65763 0.0
O437 O 0.83611 0.93361 0.61701 0.0
H438 H 0.86983 0.59333 0.61296 0.0
H439 H 1.00316 0.79065 0.65977 0.0
H440 H 0.06305 0.70192 0.62494 0.0
H441 H 0.99652 0.60182 0.60151 0.0
H442 H 0.81183 0.68369 0.64708 0.0
H443 H 0.03718 0.70747 0.76326 0.0
H444 H 0.08849 0.82042 0.7809 0.0
O445 O 0.90773 0.88418 0.65572 0.0
C446 C 0.77522 0.94279 0.70327 0.0
C447 C 0.01921 0.88062 0.74921 0.0
C448 C 0.01647 0.75567 0.7532 0.0
N449 N 0.93516 0.81543 0.71669 0.0
C450 C 0.96375 0.87777 0.72595 0.0
C451 C 0.96052 0.75486 0.73022 0.0
C452 C 0.04561 0.81904 0.76288 0.0
C453 C 0.63031 0.79837 0.63143 0.0
N454 N 0.6492 0.86443 0.6403 0.0
C455 C 0.56281 0.77459 0.63763 0.0
C456 C 0.51444 0.81909 0.65283 0.0
C457 C 0.53426 0.88625 0.66207 0.0
C458 C 0.60239 0.90798 0.6558 0.0
C459 C 0.62012 0.03281 0.56894 0.0
C460 C 0.72744 0.04414 0.61628 0.0
C461 C 0.65007 0.97382 0.58383 0.0
N462 N 0.70269 0.97998 0.60742 0.0
C463 C 0.69862 0.10427 0.60198 0.0
C464 C 0.64447 0.09842 0.57823 0.0
C465 C 0.89593 0.92471 0.63042 0.0
C466 C 0.89963 0.63612 0.62347 0.0
C467 C 0.97359 0.74731 0.64983 0.0
C468 C 1.00794 0.69715 0.63006 0.0
C469 C 0.97063 0.64104 0.61693 0.0
N470 N 0.90404 0.74165 0.65679 0.0
C471 C 0.86704 0.68727 0.64338 0.0
C472 C 0.08589 1.00512 0.3746 0.0
C473 C 0.05698 0.07222 0.37343 0.0
H474 H 0.06637 0.89552 0.37315 0.0
C475 C 0.9848 0.08013 0.37626 0.0
H476 H 0.14156 0.99788 0.37278 0.0
C477 C 0.94185 0.02159 0.37602 0.0
C478 C 0.97065 0.95458 0.37368 0.0
H479 H 0.9613 0.13125 0.3753 0.0
H480 H 0.88608 0.02886 0.37525 0.0
C481 C 0.04297 0.94658 0.37508 0.0
C482 C 0.44522 0.48231 0.87544 0.0
C483 C 0.45331 0.55458 0.87351 0.0
H484 H 0.49637 0.38357 0.87369 0.0
C485 C 0.52038 0.58335 0.87545 0.0
H486 H 0.39411 0.45895 0.87385 0.0
C487 C 0.57885 0.54031 0.87584 0.0
C488 C 0.57081 0.46807 0.87356 0.0
H489 H 0.52772 0.63908 0.87428 0.0
H490 H 0.62997 0.56372 0.87456 0.0
C491 C 0.5037 0.43928 0.87511 0.0
C492 C 0.5843 0.52142 0.11648 0.0
C493 C 0.55551 0.45441 0.11886 0.0
H494 H 0.56487 0.63107 0.11715 0.0
C495 C 0.48318 0.44641 0.11751 0.0
H496 H 0.64007 0.52868 0.11722 0.0
C497 C 0.44026 0.50495 0.11797 0.0
C498 C 0.46918 0.57205 0.1191 0.0
H499 H 0.4598 0.39534 0.11946 0.0
H500 H 0.3846 0.49771 0.11982 0.0
C501 C 0.54135 0.57995 0.11623 0.0
C502 C 0.08019 0.98223 0.61714 0.0
C503 C 0.07209 0.05451 0.61902 0.0
H504 H 0.02905 0.8835 0.61894 0.0
C505 C 1.00503 0.08327 0.61704 0.0
H506 H 0.1313 0.95888 0.61876 0.0
C507 C 0.94656 0.04024 0.61666 0.0
C508 C 0.9546 0.968 0.61899 0.0
H509 H 0.99769 0.13901 0.61817 0.0
H510 H 0.89544 0.06365 0.61791 0.0
C511 C 0.02171 0.93921 0.61748 0.0
C512 C 0.27674 0.19527 0.4742 0.0
C513 C 0.22779 0.2416 0.46027 0.0
H514 H 0.32008 0.15024 0.51999 0.0
C515 C 0.18888 0.28381 0.48284 0.0
H516 H 0.30774 0.16242 0.45742 0.0
C517 C 0.19519 0.27616 0.51867 0.0
C518 C 0.24138 0.22707 0.5326 0.0
H519 H 0.15072 0.32006 0.47289 0.0
H520 H 0.1621 0.30692 0.53544 0.0
C521 C 0.28393 0.1885 0.51004 0.0
C522 C 0.24182 0.68848 0.98256 0.0
C523 C 0.28428 0.72708 0.95998 0.0
H524 H 0.21821 0.66235 0.0352 0.0
C525 C 0.33052 0.77615 0.97387 0.0
H526 H 0.20563 0.65023 0.97264 0.0
C527 C 0.33697 0.78376 0.00971 0.0
C528 C 0.29815 0.74152 0.0323 0.0
H529 H 0.36354 0.80693 0.95708 0.0
H530 H 0.37517 0.82 0.01962 0.0
C531 C 0.24915 0.69521 0.0184 0.0
C532 C 0.74216 0.83605 0.50995 0.0
C533 C 0.78469 0.79706 0.53231 0.0
H534 H 0.7185 0.86324 0.45749 0.0
C535 C 0.831 0.74834 0.51812 0.0
H536 H 0.70591 0.87404 0.5201 0.0
C537 C 0.83744 0.74148 0.48224 0.0
C538 C 0.79856 0.78414 0.4599 0.0
H539 H 0.86409 0.71728 0.53472 0.0
H540 H 0.8757 0.70551 0.47209 0.0
C541 C 0.74949 0.83007 0.47408 0.0
C542 C 0.78359 0.33602 0.98251 0.0
C543 C 0.74098 0.29706 0.96019 0.0
H544 H 0.80746 0.36315 0.03497 0.0
C545 C 0.69472 0.24832 0.97441 0.0
H546 H 0.8198 0.37402 0.97235 0.0
C547 C 0.68842 0.24142 0.01029 0.0
C548 C 0.72739 0.28405 0.0326 0.0
H549 H 0.66157 0.21728 0.95783 0.0
H550 H 0.65021 0.20544 0.02047 0.0
C551 C 0.77641 0.33001 0.01839 0.0
C552 C 0.50679 0.31986 0.25326 0.0
C553 C 0.5201 0.27117 0.22684 0.0
H554 H 0.43416 0.35818 0.29105 0.0
C555 C 0.46798 0.22205 0.2191 0.0
H556 H 0.54503 0.35906 0.2597 0.0
C557 C 0.40429 0.22234 0.23652 0.0
C558 C 0.39028 0.27154 0.2625 0.0
H559 H 0.47556 0.18383 0.19885 0.0
H560 H 0.36582 0.18387 0.22935 0.0
C561 C 0.44263 0.32004 0.27087 0.0
C562 C 0.30603 0.9031 0.73627 0.0
C563 C 0.25689 0.88909 0.76229 0.0
H564 H 0.34414 0.9743 0.69845 0.0
C565 C 0.20829 0.94137 0.77067 0.0
H566 H 0.34461 0.86468 0.72913 0.0
C567 C 0.20828 1.00544 0.75303 0.0
C568 C 0.25681 0.01873 0.72653 0.0
H569 H 0.1702 0.9329 0.79089 0.0
H570 H 0.16903 0.04362 0.7595 0.0
C571 C 0.30605 0.96669 0.71876 0.0
C572 C 0.58362 0.71077 0.27055 0.0
C573 C 0.63601 0.7592 0.26211 0.0
H574 H 0.48143 0.67146 0.25937 0.0
C575 C 0.62226 0.80799 0.23592 0.0
H576 H 0.59187 0.67296 0.29091 0.0
C577 C 0.55884 0.80776 0.21828 0.0
C578 C 0.50669 0.7587 0.22614 0.0
H579 H 0.66077 0.84647 0.22875 0.0
H580 H 0.55142 0.84554 0.19782 0.0
C581 C 0.5197 0.71057 0.25282 0.0
C582 C 0.72009 0.12057 0.73609 0.0
C583 C 0.7689 0.13441 0.76225 0.0
H584 H 0.68233 0.04957 0.69814 0.0
C585 C 0.81731 0.08202 0.77069 0.0
H586 H 0.68167 0.15908 0.7289 0.0
C587 C 0.81744 0.01799 0.753 0.0
C588 C 0.76921 1.00487 0.72638 0.0
H589 H 0.85513 0.09034 0.79102 0.0
H590 H 0.85654 0.97971 0.75953 0.0
C591 C 0.72018 0.05703 0.71854 0.0
C592 C 1.00664 0.2106 0.23969 0.0
C593 C 0.01966 0.25878 0.26635 0.0
H594 H 0.93446 0.17293 0.20162 0.0
C595 C 0.96753 0.30788 0.27419 0.0
H596 H 0.0449 0.17146 0.23316 0.0
C597 C 0.9041 0.30808 0.25655 0.0
C598 C 0.89034 0.25924 0.23038 0.0
H599 H 0.97496 0.3457 0.29462 0.0
H600 H 0.8656 0.34658 0.2637 0.0
C601 C 0.94272 0.21078 0.22196 0.0
C602 C 0.21918 0.40312 0.75631 0.0
C603 C 0.26831 0.3891 0.73028 0.0
H604 H 0.18109 0.47432 0.79414 0.0
C605 C 0.31691 0.44138 0.72191 0.0
H606 H 0.18059 0.3647 0.76344 0.0
C607 C 0.31693 0.50545 0.73955 0.0
C608 C 0.26842 0.51873 0.76606 0.0
H609 H 0.355 0.43291 0.70169 0.0
H610 H 0.35619 0.54362 0.73308 0.0
C611 C 0.21917 0.46671 0.77382 0.0
C612 C 0.0837 0.82005 0.22169 0.0
C613 C 0.13607 0.77157 0.23008 0.0
H614 H 0.9813 0.85908 0.23284 0.0
C615 C 0.12207 0.72243 0.25609 0.0
H616 H 0.09217 0.85816 0.20149 0.0
C617 C 0.05839 0.72216 0.27351 0.0
C618 C 1.00625 0.77126 0.26574 0.0
H619 H 0.16055 0.68398 0.26326 0.0
H620 H 0.05081 0.68399 0.29377 0.0
C621 C 0.01954 0.8199 0.2393 0.0
C622 C 0.80503 0.55705 0.77396 0.0
C623 C 0.75602 0.50488 0.76611 0.0
H624 H 0.84353 0.6591 0.76361 0.0
C625 C 0.70778 0.518 0.7395 0.0
H626 H 0.84289 0.54958 0.79435 0.0
C627 C 0.7079 0.58203 0.72181 0.0
C628 C 0.75631 0.63442 0.73025 0.0
H629 H 0.66869 0.47972 0.73297 0.0
H630 H 0.67008 0.59035 0.70148 0.0
C631 C 0.80511 0.62059 0.75641 0.0
loop_
_geom_bond_atom_site_label_1
_geom_bond_atom_site_label_2
_geom_bond_distance
_geom_bond_site_symmetry_2
_ccdc_geom_bond_type
Co0 O2 2.143 . S
Co0 O8 2.074 . S
Co0 O11 2.093 . S
Co0 O24 2.097 . S
Co0 N41 2.151 . S
Co0 N49 2.214 1_455 S
Co1 O2 2.160 . S
Co1 O7 2.058 . S
Co1 O17 2.057 . S
Co1 O32 2.037 . S
Co1 N36 2.145 . S
Co1 N57 2.257 . S
O2 Co0 2.143 . S
O2 Co1 2.160 . S
C3 O4 1.278 . S
C3 O11 1.224 . S
O4 C3 1.278 . S
C5 O6 1.245 . S
C5 O17 1.232 . S
O6 C5 1.245 . S
O7 Co1 2.058 . S
O7 C33 1.269 . S
O8 Co0 2.074 . S
O8 C33 1.257 . S
H9 C34 0.930 . S
H10 C40 0.930 . S
O11 Co0 2.093 . S
O11 C3 1.224 . S
H12 C44 0.929 . S
H13 C46 0.930 . S
H14 C47 0.930 . S
H15 C45 0.928 . S
H16 C48 0.923 1_455 S
O17 Co1 2.057 . S
O17 C5 1.232 . S
H18 C37 0.929 . S
H19 C38 0.929 . S
H20 C50 0.931 . S
H21 C42 0.929 . S
H22 C51 0.930 . S
H23 C43 0.931 . S
O24 Co0 2.097 . S
O24 C52 1.214 . S
H25 C53 0.929 . S
H26 C54 0.929 . S
H27 C55 0.930 . S
H28 C56 0.929 1_565 S
H29 C58 0.930 . S
H30 C35 0.930 . S
H31 C39 0.930 . S
O32 Co1 2.037 . S
O32 C52 1.234 . S
C33 O7 1.269 . S
C33 O8 1.257 . S
C34 H9 0.930 . S
C34 C37 1.388 . S
C34 C39 1.418 . S
C35 H30 0.930 . S
C35 C38 1.404 . S
C35 C39 1.353 . S
N36 Co1 2.145 . S
N36 C37 1.397 . S
N36 C38 1.334 . S
C37 H18 0.929 . S
C37 C34 1.388 . S
C37 N36 1.397 . S
C38 H19 0.929 . S
C38 C35 1.404 . S
C38 N36 1.334 . S
C39 H31 0.930 . S
C39 C34 1.418 . S
C39 C35 1.353 . S
C40 H10 0.930 . S
C40 N41 1.330 . S
C40 C42 1.446 . S
N41 Co0 2.151 . S
N41 C40 1.330 . S
N41 C45 1.418 . S
C42 H21 0.929 . S
C42 C40 1.446 . S
C42 C43 1.332 . S
C43 H23 0.931 . S
C43 C42 1.332 . S
C43 C44 1.267 . S
C44 H12 0.929 . S
C44 C43 1.267 . S
C44 C45 1.251 . S
C45 H15 0.928 . S
C45 N41 1.418 . S
C45 C44 1.251 . S
C46 H13 0.930 . S
C46 C48 1.406 . S
C46 C51 1.261 . S
C47 H14 0.930 . S
C47 N49 1.325 . S
C47 C50 1.357 . S
C48 H16 0.923 1_655 S
C48 C46 1.406 . S
C48 N49 1.261 . S
N49 Co0 2.214 1_655 S
N49 C47 1.325 . S
N49 C48 1.261 . S
C50 H20 0.931 . S
C50 C47 1.357 . S
C50 C51 1.312 . S
C51 H22 0.930 . S
C51 C46 1.261 . S
C51 C50 1.312 . S
C52 O24 1.214 . S
C52 O32 1.234 . S
C53 H25 0.929 . S
C53 C56 1.391 . S
C53 C58 1.391 . S
C54 H26 0.929 . S
C54 C55 1.390 1_545 S
C54 N57 1.391 . S
C55 H27 0.930 . S
C55 C54 1.390 1_565 S
C55 C56 1.392 1_565 S
C56 H28 0.929 1_545 S
C56 C53 1.391 . S
C56 C55 1.392 1_545 S
N57 Co1 2.257 . S
N57 C54 1.391 . S
N57 C58 1.388 . S
C58 H29 0.930 . S
C58 C53 1.391 . S
C58 N57 1.388 . S
Co59 O61 2.143 . S
Co59 O67 2.074 . S
Co59 O70 2.093 . S
Co59 O83 2.097 . S
Co59 N100 2.151 . S
Co59 N108 2.214 . S
Co60 O61 2.160 . S
Co60 O66 2.058 . S
Co60 O76 2.057 . S
Co60 O91 2.037 . S
Co60 N95 2.145 . S
Co60 N116 2.257 . S
O61 Co59 2.143 . S
O61 Co60 2.160 . S
C62 O63 1.278 . S
C62 O70 1.224 . S
O63 C62 1.278 . S
C64 O65 1.245 . S
C64 O76 1.232 . S
O65 C64 1.245 . S
O66 Co60 2.058 . S
O66 C92 1.269 . S
O67 Co59 2.074 . S
O67 C92 1.257 . S
H68 C93 0.930 . S
H69 C99 0.930 . S
O70 Co59 2.093 . S
O70 C62 1.224 . S
H71 C103 0.929 . S
H72 C105 0.930 . S
H73 C106 0.930 . S
H74 C104 0.929 . S
H75 C107 0.928 . S
O76 Co60 2.057 . S
O76 C64 1.232 . S
H77 C96 0.929 . S
H78 C97 0.929 . S
H79 C109 0.931 . S
H80 C101 0.929 . S
H81 C110 0.930 . S
H82 C102 0.931 1_655 S
O83 Co59 2.097 . S
O83 C111 1.214 . S
H84 C112 0.929 . S
H85 C113 0.929 . S
H86 C114 0.930 . S
H87 C115 0.929 . S
H88 C117 0.930 . S
H89 C94 0.930 . S
H90 C98 0.930 . S
O91 Co60 2.037 . S
O91 C111 1.234 . S
C92 O66 1.269 . S
C92 O67 1.257 . S
C93 H68 0.930 . S
C93 C96 1.388 . S
C93 C98 1.418 . S
C94 H89 0.930 . S
C94 C97 1.404 . S
C94 C98 1.353 . S
N95 Co60 2.145 . S
N95 C96 1.397 . S
N95 C97 1.334 . S
C96 H77 0.929 . S
C96 C93 1.388 . S
C96 N95 1.397 . S
C97 H78 0.929 . S
C97 C94 1.404 . S
C97 N95 1.334 . S
C98 H90 0.930 . S
C98 C93 1.418 . S
C98 C94 1.353 . S
C99 H69 0.930 . S
C99 N100 1.330 . S
C99 C101 1.446 . S
N100 Co59 2.151 . S
N100 C99 1.330 . S
N100 C104 1.418 . S
C101 H80 0.929 . S
C101 C99 1.446 . S
C101 C102 1.332 . S
C102 H82 0.931 1_455 S
C102 C101 1.332 . S
C102 C103 1.267 . S
C103 H71 0.929 . S
C103 C102 1.267 . S
C103 C104 1.251 . S
C104 H74 0.929 . S
C104 N100 1.418 . S
C104 C103 1.251 . S
C105 H72 0.930 . S
C105 C107 1.406 . S
C105 C110 1.261 . S
C106 H73 0.930 . S
C106 N108 1.325 . S
C106 C109 1.357 . S
C107 H75 0.928 . S
C107 C105 1.406 . S
C107 N108 1.261 . S
N108 Co59 2.214 . S
N108 C106 1.325 . S
N108 C107 1.261 . S
C109 H79 0.931 . S
C109 C106 1.357 . S
C109 C110 1.312 . S
C110 H81 0.930 . S
C110 C105 1.261 . S
C110 C109 1.312 . S
C111 O83 1.214 . S
C111 O91 1.234 . S
C112 H84 0.929 . S
C112 C115 1.391 . S
C112 C117 1.391 . S
C113 H85 0.929 . S
C113 C114 1.390 . S
C113 N116 1.391 . S
C114 H86 0.930 . S
C114 C113 1.390 . S
C114 C115 1.392 . S
C115 H87 0.929 . S
C115 C112 1.391 . S
C115 C114 1.392 . S
N116 Co60 2.257 . S
N116 C113 1.391 . S
N116 C117 1.388 . S
C117 H88 0.930 . S
C117 C112 1.391 . S
C117 N116 1.388 . S
Co118 O120 2.143 . S
Co118 O126 2.074 . S
Co118 O129 2.093 . S
Co118 O142 2.097 . S
Co118 N159 2.151 . S
Co118 N167 2.214 1_655 S
Co119 O120 2.160 . S
Co119 O125 2.058 . S
Co119 O135 2.057 . S
Co119 O150 2.037 . S
Co119 N154 2.145 . S
Co119 N175 2.257 . S
O120 Co118 2.143 . S
O120 Co119 2.160 . S
C121 O122 1.278 . S
C121 O129 1.224 . S
O122 C121 1.278 . S
C123 O124 1.245 . S
C123 O135 1.232 . S
O124 C123 1.245 . S
O125 Co119 2.058 . S
O125 C151 1.269 . S
O126 Co118 2.074 . S
O126 C151 1.257 . S
H127 C152 0.930 . S
H128 C158 0.930 . S
O129 Co118 2.093 . S
O129 C121 1.224 . S
H130 C162 0.929 . S
H131 C164 0.930 . S
H132 C165 0.930 . S
H133 C163 0.928 . S
H134 C166 0.923 1_655 S
O135 Co119 2.057 . S
O135 C123 1.232 . S
H136 C155 0.929 . S
H137 C156 0.929 . S
H138 C168 0.931 . S
H139 C160 0.929 . S
H140 C169 0.930 . S
H141 C161 0.931 . S
O142 Co118 2.097 . S
O142 C170 1.214 . S
H143 C171 0.929 . S
H144 C172 0.929 . S
H145 C173 0.930 . S
H146 C174 0.929 1_545 S
H147 C176 0.930 . S
H148 C153 0.930 . S
H149 C157 0.930 . S
O150 Co119 2.037 . S
O150 C170 1.234 . S
C151 O125 1.269 . S
C151 O126 1.257 . S
C152 H127 0.930 . S
C152 C155 1.388 . S
C152 C157 1.418 . S
C153 H148 0.930 . S
C153 C156 1.404 . S
C153 C157 1.353 . S
N154 Co119 2.145 . S
N154 C155 1.397 . S
N154 C156 1.334 . S
C155 H136 0.929 . S
C155 C152 1.388 . S
C155 N154 1.397 . S
C156 H137 0.929 . S
C156 C153 1.404 . S
C156 N154 1.334 . S
C157 H149 0.930 . S
C157 C152 1.418 . S
C157 C153 1.353 . S
C158 H128 0.930 . S
C158 N159 1.330 . S
C158 C160 1.446 . S
N159 Co118 2.151 . S
N159 C158 1.330 . S
N159 C163 1.418 . S
C160 H139 0.929 . S
C160 C158 1.446 . S
C160 C161 1.332 . S
C161 H141 0.931 . S
C161 C160 1.332 . S
C161 C162 1.267 . S
C162 H130 0.929 . S
C162 C161 1.267 . S
C162 C163 1.251 . S
C163 H133 0.928 . S
C163 N159 1.418 . S
C163 C162 1.251 . S
C164 H131 0.930 . S
C164 C166 1.406 . S
C164 C169 1.261 . S
C165 H132 0.930 . S
C165 N167 1.325 . S
C165 C168 1.357 . S
C166 H134 0.923 1_455 S
C166 C164 1.406 . S
C166 N167 1.261 . S
N167 Co118 2.214 1_455 S
N167 C165 1.325 . S
N167 C166 1.261 . S
C168 H138 0.931 . S
C168 C165 1.357 . S
C168 C169 1.312 . S
C169 H140 0.930 . S
C169 C164 1.261 . S
C169 C168 1.312 . S
C170 O142 1.214 . S
C170 O150 1.234 . S
C171 H143 0.929 . S
C171 C174 1.391 . S
C171 C176 1.391 . S
C172 H144 0.929 . S
C172 C173 1.390 1_565 S
C172 N175 1.391 . S
C173 H145 0.930 . S
C173 C172 1.390 1_545 S
C173 C174 1.392 1_545 S
C174 H146 0.929 1_565 S
C174 C171 1.391 . S
C174 C173 1.392 1_565 S
N175 Co119 2.257 . S
N175 C172 1.391 . S
N175 C176 1.388 . S
C176 H147 0.930 . S
C176 C171 1.391 . S
C176 N175 1.388 . S
Co177 O179 2.143 . S
Co177 O185 2.074 . S
Co177 O188 2.093 . S
Co177 O201 2.097 . S
Co177 N218 2.151 . S
Co177 N226 2.214 . S
Co178 O179 2.160 . S
Co178 O184 2.058 . S
Co178 O194 2.057 . S
Co178 O209 2.037 . S
Co178 N213 2.145 . S
Co178 N234 2.257 . S
O179 Co177 2.143 . S
O179 Co178 2.160 . S
C180 O181 1.278 . S
C180 O188 1.224 . S
O181 C180 1.278 . S
C182 O183 1.245 . S
C182 O194 1.232 . S
O183 C182 1.245 . S
O184 Co178 2.058 . S
O184 C210 1.269 . S
O185 Co177 2.074 . S
O185 C210 1.257 . S
H186 C211 0.930 . S
H187 C217 0.930 . S
O188 Co177 2.093 . S
O188 C180 1.224 . S
H189 C221 0.929 . S
H190 C223 0.930 . S
H191 C224 0.930 . S
H192 C222 0.929 . S
H193 C225 0.928 . S
O194 Co178 2.057 . S
O194 C182 1.232 . S
H195 C214 0.929 . S
H196 C215 0.929 . S
H197 C227 0.931 . S
H198 C219 0.929 . S
H199 C228 0.930 . S
H200 C220 0.931 1_455 S
O201 Co177 2.097 . S
O201 C229 1.214 . S
H202 C230 0.929 . S
H203 C231 0.929 . S
H204 C232 0.930 . S
H205 C233 0.929 . S
H206 C235 0.930 . S
H207 C212 0.930 . S
H208 C216 0.930 . S
O209 Co178 2.037 . S
O209 C229 1.234 . S
C210 O184 1.269 . S
C210 O185 1.257 . S
C211 H186 0.930 . S
C211 C214 1.388 . S
C211 C216 1.418 . S
C212 H207 0.930 . S
C212 C215 1.404 . S
C212 C216 1.353 . S
N213 Co178 2.145 . S
N213 C214 1.397 . S
N213 C215 1.334 . S
C214 H195 0.929 . S
C214 C211 1.388 . S
C214 N213 1.397 . S
C215 H196 0.929 . S
C215 C212 1.404 . S
C215 N213 1.334 . S
C216 H208 0.930 . S
C216 C211 1.418 . S
C216 C212 1.353 . S
C217 H187 0.930 . S
C217 N218 1.330 . S
C217 C219 1.446 . S
N218 Co177 2.151 . S
N218 C217 1.330 . S
N218 C222 1.418 . S
C219 H198 0.929 . S
C219 C217 1.446 . S
C219 C220 1.332 . S
C220 H200 0.931 1_655 S
C220 C219 1.332 . S
C220 C221 1.267 . S
C221 H189 0.929 . S
C221 C220 1.267 . S
C221 C222 1.251 . S
C222 H192 0.929 . S
C222 N218 1.418 . S
C222 C221 1.251 . S
C223 H190 0.930 . S
C223 C225 1.406 . S
C223 C228 1.261 . S
C224 H191 0.930 . S
C224 N226 1.325 . S
C224 C227 1.357 . S
C225 H193 0.928 . S
C225 C223 1.406 . S
C225 N226 1.261 . S
N226 Co177 2.214 . S
N226 C224 1.325 . S
N226 C225 1.261 . S
C227 H197 0.931 . S
C227 C224 1.357 . S
C227 C228 1.312 . S
C228 H199 0.930 . S
C228 C223 1.261 . S
C228 C227 1.312 . S
C229 O201 1.214 . S
C229 O209 1.234 . S
C230 H202 0.929 . S
C230 C233 1.391 . S
C230 C235 1.391 . S
C231 H203 0.929 . S
C231 C232 1.390 . S
C231 N234 1.391 . S
C232 H204 0.930 . S
C232 C231 1.390 . S
C232 C233 1.392 . S
C233 H205 0.929 . S
C233 C230 1.391 . S
C233 C232 1.392 . S
N234 Co178 2.257 . S
N234 C231 1.391 . S
N234 C235 1.388 . S
C235 H206 0.930 . S
C235 C230 1.391 . S
C235 N234 1.388 . S
Co236 O238 2.143 . S
Co236 O244 2.074 . S
Co236 O247 2.093 . S
Co236 O260 2.097 . S
Co236 N277 2.151 . S
Co236 N285 2.214 . S
Co237 O238 2.160 . S
Co237 O243 2.058 . S
Co237 O253 2.057 . S
Co237 O268 2.037 . S
Co237 N272 2.145 . S
Co237 N293 2.257 . S
O238 Co236 2.143 . S
O238 Co237 2.160 . S
C239 O240 1.278 . S
C239 O247 1.224 . S
O240 C239 1.278 . S
C241 O242 1.245 . S
C241 O253 1.232 . S
O242 C241 1.245 . S
O243 Co237 2.058 . S
O243 C269 1.269 . S
O244 Co236 2.074 . S
O244 C269 1.257 . S
H245 C270 0.930 . S
H246 C276 0.930 . S
O247 Co236 2.093 . S
O247 C239 1.224 . S
H248 C280 0.929 . S
H249 C282 0.930 . S
H250 C283 0.930 . S
H251 C281 0.929 . S
H252 C284 0.928 . S
O253 Co237 2.057 . S
O253 C241 1.232 . S
H254 C273 0.929 . S
H255 C274 0.929 . S
H256 C286 0.931 . S
H257 C278 0.929 . S
H258 C287 0.930 . S
H259 C279 0.931 1_565 S
O260 Co236 2.097 . S
O260 C288 1.214 . S
H261 C289 0.929 . S
H262 C290 0.929 . S
H263 C291 0.930 . S
H264 C292 0.929 . S
H265 C294 0.930 . S
H266 C271 0.930 . S
H267 C275 0.930 . S
O268 Co237 2.037 . S
O268 C288 1.234 . S
C269 O243 1.269 . S
C269 O244 1.257 . S
C270 H245 0.930 . S
C270 C273 1.388 . S
C270 C275 1.418 . S
C271 H266 0.930 . S
C271 C274 1.404 . S
C271 C275 1.353 . S
N272 Co237 2.145 . S
N272 C273 1.397 . S
N272 C274 1.334 . S
C273 H254 0.929 . S
C273 C270 1.388 . S
C273 N272 1.397 . S
C274 H255 0.929 . S
C274 C271 1.404 . S
C274 N272 1.334 . S
C275 H267 0.930 . S
C275 C270 1.418 . S
C275 C271 1.353 . S
C276 H246 0.930 . S
C276 N277 1.330 . S
C276 C278 1.446 . S
N277 Co236 2.151 . S
N277 C276 1.330 . S
N277 C281 1.418 . S
C278 H257 0.929 . S
C278 C276 1.446 . S
C278 C279 1.332 . S
C279 H259 0.931 1_545 S
C279 C278 1.332 . S
C279 C280 1.267 . S
C280 H248 0.929 . S
C280 C279 1.267 . S
C280 C281 1.251 . S
C281 H251 0.929 . S
C281 N277 1.418 . S
C281 C280 1.251 . S
C282 H249 0.930 . S
C282 C284 1.406 . S
C282 C287 1.261 . S
C283 H250 0.930 . S
C283 N285 1.325 . S
C283 C286 1.357 . S
C284 H252 0.928 . S
C284 C282 1.406 . S
C284 N285 1.261 . S
N285 Co236 2.214 . S
N285 C283 1.325 . S
N285 C284 1.261 . S
C286 H256 0.931 . S
C286 C283 1.357 . S
C286 C287 1.312 . S
C287 H258 0.930 . S
C287 C282 1.261 . S
C287 C286 1.312 . S
C288 O260 1.214 . S
C288 O268 1.234 . S
C289 H261 0.929 . S
C289 C292 1.391 . S
C289 C294 1.391 . S
C290 H262 0.929 . S
C290 C291 1.390 . S
C290 N293 1.391 . S
C291 H263 0.930 . S
C291 C290 1.390 . S
C291 C292 1.392 . S
C292 H264 0.929 . S
C292 C289 1.391 . S
C292 C291 1.392 . S
N293 Co237 2.257 . S
N293 C290 1.391 . S
N293 C294 1.388 . S
C294 H265 0.930 . S
C294 C289 1.391 . S
C294 N293 1.388 . S
Co295 O297 2.143 . S
Co295 O303 2.074 . S
Co295 O306 2.093 . S
Co295 O319 2.097 . S
Co295 N336 2.151 . S
Co295 N344 2.214 1_545 S
Co296 O297 2.160 . S
Co296 O302 2.058 . S
Co296 O312 2.057 . S
Co296 O327 2.037 . S
Co296 N331 2.145 . S
Co296 N352 2.257 . S
O297 Co295 2.143 . S
O297 Co296 2.160 . S
C298 O299 1.278 . S
C298 O306 1.224 . S
O299 C298 1.278 . S
C300 O301 1.245 . S
C300 O312 1.232 . S
O301 C300 1.245 . S
O302 Co296 2.058 . S
O302 C328 1.269 . S
O303 Co295 2.074 . S
O303 C328 1.257 . S
H304 C329 0.930 . S
H305 C335 0.930 . S
O306 Co295 2.093 . S
O306 C298 1.224 . S
H307 C339 0.929 . S
H308 C341 0.930 . S
H309 C342 0.930 . S
H310 C340 0.928 . S
H311 C343 0.923 1_545 S
O312 Co296 2.057 . S
O312 C300 1.232 . S
H313 C332 0.929 . S
H314 C333 0.929 . S
H315 C345 0.931 . S
H316 C337 0.929 . S
H317 C346 0.930 . S
H318 C338 0.931 . S
O319 Co295 2.097 . S
O319 C347 1.214 . S
H320 C348 0.929 . S
H321 C349 0.929 . S
H322 C350 0.930 . S
H323 C351 0.929 1_655 S
H324 C353 0.930 . S
H325 C330 0.930 . S
H326 C334 0.930 . S
O327 Co296 2.037 . S
O327 C347 1.234 . S
C328 O302 1.269 . S
C328 O303 1.257 . S
C329 H304 0.930 . S
C329 C332 1.388 . S
C329 C334 1.418 . S
C330 H325 0.930 . S
C330 C333 1.404 . S
C330 C334 1.353 . S
N331 Co296 2.145 . S
N331 C332 1.397 . S
N331 C333 1.334 . S
C332 H313 0.929 . S
C332 C329 1.388 . S
C332 N331 1.397 . S
C333 H314 0.929 . S
C333 C330 1.404 . S
C333 N331 1.334 . S
C334 H326 0.930 . S
C334 C329 1.418 . S
C334 C330 1.353 . S
C335 H305 0.930 . S
C335 N336 1.330 . S
C335 C337 1.446 . S
N336 Co295 2.151 . S
N336 C335 1.330 . S
N336 C340 1.418 . S
C337 H316 0.929 . S
C337 C335 1.446 . S
C337 C338 1.332 . S
C338 H318 0.931 . S
C338 C337 1.332 . S
C338 C339 1.267 . S
C339 H307 0.929 . S
C339 C338 1.267 . S
C339 C340 1.251 . S
C340 H310 0.928 . S
C340 N336 1.418 . S
C340 C339 1.251 . S
C341 H308 0.930 . S
C341 C343 1.406 . S
C341 C346 1.261 . S
C342 H309 0.930 . S
C342 N344 1.325 . S
C342 C345 1.357 . S
C343 H311 0.923 1_565 S
C343 C341 1.406 . S
C343 N344 1.261 . S
N344 Co295 2.214 1_565 S
N344 C342 1.325 . S
N344 C343 1.261 . S
C345 H315 0.931 . S
C345 C342 1.357 . S
C345 C346 1.312 . S
C346 H317 0.930 . S
C346 C341 1.261 . S
C346 C345 1.312 . S
C347 O319 1.214 . S
C347 O327 1.234 . S
C348 H320 0.929 . S
C348 C351 1.391 . S
C348 C353 1.391 . S
C349 H321 0.929 . S
C349 C350 1.390 1_455 S
C349 N352 1.391 . S
C350 H322 0.930 . S
C350 C349 1.390 1_655 S
C350 C351 1.392 1_655 S
C351 H323 0.929 1_455 S
C351 C348 1.391 . S
C351 C350 1.392 1_455 S
N352 Co296 2.257 . S
N352 C349 1.391 . S
N352 C353 1.388 . S
C353 H324 0.930 . S
C353 C348 1.391 . S
C353 N352 1.388 . S
Co354 O356 2.143 . S
Co354 O362 2.074 . S
Co354 O365 2.093 . S
Co354 O378 2.097 . S
Co354 N395 2.151 . S
Co354 N403 2.214 . S
Co355 O356 2.160 . S
Co355 O361 2.058 . S
Co355 O371 2.057 . S
Co355 O386 2.037 . S
Co355 N390 2.145 . S
Co355 N411 2.257 . S
O356 Co354 2.143 . S
O356 Co355 2.160 . S
C357 O358 1.278 . S
C357 O365 1.224 . S
O358 C357 1.278 . S
C359 O360 1.245 . S
C359 O371 1.232 . S
O360 C359 1.245 . S
O361 Co355 2.058 . S
O361 C387 1.269 . S
O362 Co354 2.074 . S
O362 C387 1.257 . S
H363 C388 0.930 . S
H364 C394 0.930 . S
O365 Co354 2.093 . S
O365 C357 1.224 . S
H366 C398 0.929 . S
H367 C400 0.930 . S
H368 C401 0.930 . S
H369 C399 0.929 . S
H370 C402 0.928 . S
O371 Co355 2.057 . S
O371 C359 1.232 . S
H372 C391 0.929 . S
H373 C392 0.929 . S
H374 C404 0.931 . S
H375 C396 0.929 . S
H376 C405 0.930 . S
H377 C397 0.931 1_545 S
O378 Co354 2.097 . S
O378 C406 1.214 . S
H379 C407 0.929 . S
H380 C408 0.929 . S
H381 C409 0.930 . S
H382 C410 0.929 . S
H383 C412 0.930 . S
H384 C389 0.930 . S
H385 C393 0.930 . S
O386 Co355 2.037 . S
O386 C406 1.234 . S
C387 O361 1.269 . S
C387 O362 1.257 . S
C388 H363 0.930 . S
C388 C391 1.388 . S
C388 C393 1.418 . S
C389 H384 0.930 . S
C389 C392 1.404 . S
C389 C393 1.353 . S
N390 Co355 2.145 . S
N390 C391 1.397 . S
N390 C392 1.334 . S
C391 H372 0.929 . S
C391 C388 1.388 . S
C391 N390 1.397 . S
C392 H373 0.929 . S
C392 C389 1.404 . S
C392 N390 1.334 . S
C393 H385 0.930 . S
C393 C388 1.418 . S
C393 C389 1.353 . S
C394 H364 0.930 . S
C394 N395 1.330 . S
C394 C396 1.446 . S
N395 Co354 2.151 . S
N395 C394 1.330 . S
N395 C399 1.418 . S
C396 H375 0.929 . S
C396 C394 1.446 . S
C396 C397 1.332 . S
C397 H377 0.931 1_565 S
C397 C396 1.332 . S
C397 C398 1.267 . S
C398 H366 0.929 . S
C398 C397 1.267 . S
C398 C399 1.251 . S
C399 H369 0.929 . S
C399 N395 1.418 . S
C399 C398 1.251 . S
C400 H367 0.930 . S
C400 C402 1.406 . S
C400 C405 1.261 . S
C401 H368 0.930 . S
C401 N403 1.325 . S
C401 C404 1.357 . S
C402 H370 0.928 . S
C402 C400 1.406 . S
C402 N403 1.261 . S
N403 Co354 2.214 . S
N403 C401 1.325 . S
N403 C402 1.261 . S
C404 H374 0.931 . S
C404 C401 1.357 . S
C404 C405 1.312 . S
C405 H376 0.930 . S
C405 C400 1.261 . S
C405 C404 1.312 . S
C406 O378 1.214 . S
C406 O386 1.234 . S
C407 H379 0.929 . S
C407 C410 1.391 . S
C407 C412 1.391 . S
C408 H380 0.929 . S
C408 C409 1.390 . S
C408 N411 1.391 . S
C409 H381 0.930 . S
C409 C408 1.390 . S
C409 C410 1.392 . S
C410 H382 0.929 . S
C410 C407 1.391 . S
C410 C409 1.392 . S
N411 Co355 2.257 . S
N411 C408 1.391 . S
N411 C412 1.388 . S
C412 H383 0.930 . S
C412 C407 1.391 . S
C412 N411 1.388 . S
Co413 O415 2.143 . S
Co413 O421 2.074 . S
Co413 O424 2.093 . S
Co413 O437 2.097 . S
Co413 N454 2.151 . S
Co413 N462 2.214 1_565 S
Co414 O415 2.160 . S
Co414 O420 2.058 . S
Co414 O430 2.057 . S
Co414 O445 2.037 . S
Co414 N449 2.145 . S
Co414 N470 2.257 . S
O415 Co413 2.143 . S
O415 Co414 2.160 . S
C416 O417 1.278 . S
C416 O424 1.224 . S
O417 C416 1.278 . S
C418 O419 1.245 . S
C418 O430 1.232 . S
O419 C418 1.245 . S
O420 Co414 2.058 . S
O420 C446 1.269 . S
O421 Co413 2.074 . S
O421 C446 1.257 . S
H422 C447 0.930 . S
H423 C453 0.930 . S
O424 Co413 2.093 . S
O424 C416 1.224 . S
H425 C457 0.929 . S
H426 C459 0.930 . S
H427 C460 0.930 . S
H428 C458 0.928 . S
H429 C461 0.923 1_565 S
O430 Co414 2.057 . S
O430 C418 1.232 . S
H431 C450 0.929 . S
H432 C451 0.929 . S
H433 C463 0.931 . S
H434 C455 0.929 . S
H435 C464 0.930 . S
H436 C456 0.931 . S
O437 Co413 2.097 . S
O437 C465 1.214 . S
H438 C466 0.929 . S
H439 C467 0.929 . S
H440 C468 0.930 . S
H441 C469 0.929 1_455 S
H442 C471 0.930 . S
H443 C448 0.930 . S
H444 C452 0.930 . S
O445 Co414 2.037 . S
O445 C465 1.234 . S
C446 O420 1.269 . S
C446 O421 1.257 . S
C447 H422 0.930 . S
C447 C450 1.388 . S
C447 C452 1.418 . S
C448 H443 0.930 . S
C448 C451 1.404 . S
C448 C452 1.353 . S
N449 Co414 2.145 . S
N449 C450 1.397 . S
N449 C451 1.334 . S
C450 H431 0.929 . S
C450 C447 1.388 . S
C450 N449 1.397 . S
C451 H432 0.929 . S
C451 C448 1.404 . S
C451 N449 1.334 . S
C452 H444 0.930 . S
C452 C447 1.418 . S
C452 C448 1.353 . S
C453 H423 0.930 . S
C453 N454 1.330 . S
C453 C455 1.446 . S
N454 Co413 2.151 . S
N454 C453 1.330 . S
N454 C458 1.418 . S
C455 H434 0.929 . S
C455 C453 1.446 . S
C455 C456 1.332 . S
C456 H436 0.931 . S
C456 C455 1.332 . S
C456 C457 1.267 . S
C457 H425 0.929 . S
C457 C456 1.267 . S
C457 C458 1.251 . S
C458 H428 0.928 . S
C458 N454 1.418 . S
C458 C457 1.251 . S
C459 H426 0.930 . S
C459 C461 1.406 . S
C459 C464 1.261 . S
C460 H427 0.930 . S
C460 N462 1.325 . S
C460 C463 1.357 . S
C461 H429 0.923 1_545 S
C461 C459 1.406 . S
C461 N462 1.261 . S
N462 Co413 2.214 1_545 S
N462 C460 1.325 . S
N462 C461 1.261 . S
C463 H433 0.931 . S
C463 C460 1.357 . S
C463 C464 1.312 . S
C464 H435 0.930 . S
C464 C459 1.261 . S
C464 C463 1.312 . S
C465 O437 1.214 . S
C465 O445 1.234 . S
C466 H438 0.929 . S
C466 C469 1.391 . S
C466 C471 1.391 . S
C467 H439 0.929 . S
C467 C468 1.390 1_655 S
C467 N470 1.391 . S
C468 H440 0.930 . S
C468 C467 1.390 1_455 S
C468 C469 1.392 1_455 S
C469 H441 0.929 1_655 S
C469 C466 1.391 . S
C469 C468 1.392 1_655 S
N470 Co414 2.257 . S
N470 C467 1.391 . S
N470 C471 1.388 . S
C471 H442 0.930 . S
C471 C466 1.391 . S
C471 N470 1.388 . S
C472 C473 1.387 . S
C472 H476 0.950 . S
C472 C481 1.390 1_445 S
C473 C472 1.387 . S
C473 C475 1.387 . S
H474 C481 0.950 . S
C475 C473 1.387 . S
C475 C477 1.390 1_445 S
C475 H479 0.950 . S
H476 C472 0.950 . S
C477 C475 1.390 1_665 S
C477 C478 1.387 . S
C477 H480 0.950 . S
C478 C477 1.387 . S
C478 C481 1.387 . S
H479 C475 0.950 . S
H480 C477 0.950 . S
C481 C472 1.390 1_665 S
C481 H474 0.950 . S
C481 C478 1.387 . S
C482 C483 1.387 . S
C482 H486 0.950 . S
C482 C491 1.390 . S
C483 C482 1.387 . S
C483 C485 1.387 . S
H484 C491 0.950 . S
C485 C483 1.387 . S
C485 C487 1.390 . S
C485 H489 0.950 . S
H486 C482 0.950 . S
C487 C485 1.390 . S
C487 C488 1.387 . S
C487 H490 0.950 . S
C488 C487 1.387 . S
C488 C491 1.387 . S
H489 C485 0.950 . S
H490 C487 0.950 . S
C491 C482 1.390 . S
C491 H484 0.950 . S
C491 C488 1.387 . S
C492 C493 1.387 . S
C492 H496 0.950 . S
C492 C501 1.390 . S
C493 C492 1.387 . S
C493 C495 1.387 . S
H494 C501 0.950 . S
C495 C493 1.387 . S
C495 C497 1.390 . S
C495 H499 0.950 . S
H496 C492 0.950 . S
C497 C495 1.390 . S
C497 C498 1.387 . S
C497 H500 0.950 . S
C498 C497 1.387 . S
C498 C501 1.387 . S
H499 C495 0.950 . S
H500 C497 0.950 . S
C501 C492 1.390 . S
C501 H494 0.950 . S
C501 C498 1.387 . S
C502 C503 1.387 . S
C502 H506 0.950 . S
C502 C511 1.390 1_445 S
C503 C502 1.387 . S
C503 C505 1.387 . S
H504 C511 0.950 . S
C505 C503 1.387 . S
C505 C507 1.390 1_445 S
C505 H509 0.950 . S
H506 C502 0.950 . S
C507 C505 1.390 1_665 S
C507 C508 1.387 . S
C507 H510 0.950 . S
C508 C507 1.387 . S
C508 C511 1.387 . S
H509 C505 0.950 . S
H510 C507 0.950 . S
C511 C502 1.390 1_665 S
C511 H504 0.950 . S
C511 C508 1.387 . S
C512 C513 1.387 . S
C512 H516 0.950 . S
C512 C521 1.390 . S
C513 C512 1.387 . S
C513 C515 1.387 . S
H514 C521 0.950 . S
C515 C513 1.387 . S
C515 C517 1.390 . S
C515 H519 0.950 . S
H516 C512 0.950 . S
C517 C515 1.390 . S
C517 C518 1.387 . S
C517 H520 0.950 . S
C518 C517 1.387 . S
C518 C521 1.387 . S
H519 C515 0.950 . S
H520 C517 0.950 . S
C521 C512 1.390 . S
C521 H514 0.950 . S
C521 C518 1.387 . S
C522 C523 1.387 . S
C522 H526 0.950 . S
C522 C531 1.390 1_556 S
C523 C522 1.387 . S
C523 C525 1.387 . S
H524 C531 0.950 . S
C525 C523 1.387 . S
C525 C527 1.390 1_556 S
C525 H529 0.950 . S
H526 C522 0.950 . S
C527 C525 1.390 1_554 S
C527 C528 1.387 . S
C527 H530 0.950 . S
C528 C527 1.387 . S
C528 C531 1.387 . S
H529 C525 0.950 . S
H530 C527 0.950 . S
C531 C522 1.390 1_554 S
C531 H524 0.950 . S
C531 C528 1.387 . S
C532 C533 1.387 . S
C532 H536 0.950 . S
C532 C541 1.390 . S
C533 C532 1.387 . S
C533 C535 1.387 . S
H534 C541 0.950 . S
C535 C533 1.387 . S
C535 C537 1.390 . S
C535 H539 0.950 . S
H536 C532 0.950 . S
C537 C535 1.390 . S
C537 C538 1.387 . S
C537 H540 0.950 . S
C538 C537 1.387 . S
C538 C541 1.387 . S
H539 C535 0.950 . S
H540 C537 0.950 . S
C541 C532 1.390 . S
C541 H534 0.950 . S
C541 C538 1.387 . S
C542 C543 1.387 . S
C542 H546 0.950 . S
C542 C551 1.390 1_556 S
C543 C542 1.387 . S
C543 C545 1.387 . S
H544 C551 0.950 . S
C545 C543 1.387 . S
C545 C547 1.390 1_556 S
C545 H549 0.950 . S
H546 C542 0.950 . S
C547 C545 1.390 1_554 S
C547 C548 1.387 . S
C547 H550 0.950 . S
C548 C547 1.387 . S
C548 C551 1.387 . S
H549 C545 0.950 . S
H550 C547 0.950 . S
C551 C542 1.390 1_554 S
C551 H544 0.950 . S
C551 C548 1.387 . S
C552 C553 1.387 . S
C552 H556 0.950 . S
C552 C561 1.390 . S
C553 C552 1.387 . S
C553 C555 1.387 . S
H554 C561 0.950 . S
C555 C553 1.387 . S
C555 C557 1.390 . S
C555 H559 0.950 . S
H556 C552 0.950 . S
C557 C555 1.390 . S
C557 C558 1.387 . S
C557 H560 0.950 . S
C558 C557 1.387 . S
C558 C561 1.387 . S
H559 C555 0.950 . S
H560 C557 0.950 . S
C561 C552 1.390 . S
C561 H554 0.950 . S
C561 C558 1.387 . S
C562 C563 1.387 . S
C562 H566 0.950 . S
C562 C571 1.390 . S
C563 C562 1.387 . S
C563 C565 1.387 . S
H564 C571 0.950 . S
C565 C563 1.387 . S
C565 C567 1.390 . S
C565 H569 0.950 . S
H566 C562 0.950 . S
C567 C565 1.390 . S
C567 C568 1.387 . S
C567 H570 0.950 1_565 S
C568 C567 1.387 . S
C568 C571 1.387 . S
H569 C565 0.950 . S
H570 C567 0.950 1_545 S
C571 C562 1.390 . S
C571 H564 0.950 . S
C571 C568 1.387 . S
C572 C573 1.387 . S
C572 H576 0.950 . S
C572 C581 1.390 . S
C573 C572 1.387 . S
C573 C575 1.387 . S
H574 C581 0.950 . S
C575 C573 1.387 . S
C575 C577 1.390 . S
C575 H579 0.950 . S
H576 C572 0.950 . S
C577 C575 1.390 . S
C577 C578 1.387 . S
C577 H580 0.950 . S
C578 C577 1.387 . S
C578 C581 1.387 . S
H579 C575 0.950 . S
H580 C577 0.950 . S
C581 C572 1.390 . S
C581 H574 0.950 . S
C581 C578 1.387 . S
C582 C583 1.387 . S
C582 H586 0.950 . S
C582 C591 1.390 . S
C583 C582 1.387 . S
C583 C585 1.387 . S
H584 C591 0.950 . S
C585 C583 1.387 . S
C585 C587 1.390 . S
C585 H589 0.950 . S
H586 C582 0.950 . S
C587 C585 1.390 . S
C587 C588 1.387 . S
C587 H590 0.950 1_545 S
C588 C587 1.387 . S
C588 C591 1.387 . S
H589 C585 0.950 . S
H590 C587 0.950 1_565 S
C591 C582 1.390 . S
C591 H584 0.950 . S
C591 C588 1.387 . S
C592 C593 1.387 . S
C592 H596 0.950 . S
C592 C601 1.390 . S
C593 C592 1.387 . S
C593 C595 1.387 . S
H594 C601 0.950 . S
C595 C593 1.387 . S
C595 C597 1.390 . S
C595 H599 0.950 . S
H596 C592 0.950 . S
C597 C595 1.390 . S
C597 C598 1.387 . S
C597 H600 0.950 . S
C598 C597 1.387 . S
C598 C601 1.387 . S
H599 C595 0.950 . S
H600 C597 0.950 . S
C601 C592 1.390 . S
C601 H594 0.950 . S
C601 C598 1.387 . S
C602 C603 1.387 . S
C602 H606 0.950 . S
C602 C611 1.390 . S
C603 C602 1.387 . S
C603 C605 1.387 . S
H604 C611 0.950 . S
C605 C603 1.387 . S
C605 C607 1.390 . S
C605 H609 0.950 . S
H606 C602 0.950 . S
C607 C605 1.390 . S
C607 C608 1.387 . S
C607 H610 0.950 . S
C608 C607 1.387 . S
C608 C611 1.387 . S
H609 C605 0.950 . S
H610 C607 0.950 . S
C611 C602 1.390 . S
C611 H604 0.950 . S
C611 C608 1.387 . S
C612 C613 1.387 . S
C612 H616 0.950 . S
C612 C621 1.390 . S
C613 C612 1.387 . S
C613 C615 1.387 . S
H614 C621 0.950 . S
C615 C613 1.387 . S
C615 C617 1.390 . S
C615 H619 0.950 . S
H616 C612 0.950 . S
C617 C615 1.390 . S
C617 C618 1.387 . S
C617 H620 0.950 . S
C618 C617 1.387 . S
C618 C621 1.387 . S
H619 C615 0.950 . S
H620 C617 0.950 . S
C621 C612 1.390 . S
C621 H614 0.950 . S
C621 C618 1.387 . S
C622 C623 1.387 . S
C622 H626 0.950 . S
C622 C631 1.390 . S
C623 C622 1.387 . S
C623 C625 1.387 . S
H624 C631 0.950 . S
C625 C623 1.387 . S
C625 C627 1.390 . S
C625 H629 0.950 . S
H626 C622 0.950 . S
C627 C625 1.390 . S
C627 C628 1.387 . S
C627 H630 0.950 . S
C628 C627 1.387 . S
C628 C631 1.387 . S
H629 C625 0.950 . S
H630 C627 0.950 . S
C631 C622 1.390 . S
C631 H624 0.950 . S
C631 C628 1.387 . S
C473 C52 1.081 . S
C478 C170 1.081 . S
C483 C111 1.081 . S
C488 C229 1.081 . S
C493 C288 1.080 . S
C498 C406 1.080 . S
C503 C347 1.081 . S
C508 C465 1.081 . S
C513 C3 1.455 . S
C518 C298 1.457 . S
C523 C62 1.456 . S
C528 C357 1.455 . S
C533 C416 1.457 . S
C538 C121 1.455 . S
C543 C180 1.456 . S
C548 C239 1.455 . S
C553 C269 1.751 . S
C558 C5 1.790 . S
C563 C64 1.788 . S
C568 C328 1.749 1_565 S
C573 C123 1.789 . S
C578 C387 1.751 . S
C583 C182 1.788 . S
C588 C446 1.749 1_545 S
C593 C33 1.751 1_655 S
C598 C241 1.789 . S
C603 C300 1.789 . S
C608 C92 1.749 . S
C613 C359 1.790 . S
C618 C151 1.751 1_455 S
C623 C210 1.749 . S
C628 C418 1.788 . S
