# Generated by pormake.
# Topology snk, (6)-cn, num edge types: 1
# Building blocks:
#     Node 0, Type 0, BuildingBlock: KUMJIN_clean_sbu_0, # of connection points: 6
#     Node 1, Type 0, BuildingBlock: KUMJIN_clean_sbu_0, # of connection points: 6
#     Node 2, Type 0, BuildingBlock: KUMJIN_clean_sbu_0, # of connection points: 6
#     Node 3, Type 0, BuildingBlock: KUMJIN_clean_sbu_0, # of connection points: 6
#     Node 4, Type 0, BuildingBlock: KUMJIN_clean_sbu_0, # of connection points: 6
#     Node 5, Type 0, BuildingBlock: KUMJIN_clean_sbu_0, # of connection points: 6
#     Node 6, Type 0, BuildingBlock: KUMJIN_clean_sbu_0, # of connection points: 6
#     Node 7, Type 0, BuildingBlock: KUMJIN_clean_sbu_0, # of connection points: 6
#     Edge 8, Type (0, 0), BuildingBlock: TEMPAE_clean_linker_10, # of connection points: 2
#     Edge 9, Type (0, 0), BuildingBlock: TEMPAE_clean_linker_10, # of connection points: 2
#     Edge 10, Type (0, 0), BuildingBlock: TEMPAE_clean_linker_10, # of connection points: 2
#     Edge 11, Type (0, 0), BuildingBlock: TEMPAE_clean_linker_10, # of connection points: 2
#     Edge 12, Type (0, 0), BuildingBlock: TEMPAE_clean_linker_10, # of connection points: 2
#     Edge 13, Type (0, 0), BuildingBlock: TEMPAE_clean_linker_10, # of connection points: 2
#     Edge 14, Type (0, 0), BuildingBlock: TEMPAE_clean_linker_10, # of connection points: 2
#     Edge 15, Type (0, 0), BuildingBlock: TEMPAE_clean_linker_10, # of connection points: 2
#     Edge 16, Type (0, 0), BuildingBlock: TEMPAE_clean_linker_10, # of connection points: 2
#     Edge 17, Type (0, 0), BuildingBlock: TEMPAE_clean_linker_10, # of connection points: 2
#     Edge 18, Type (0, 0), BuildingBlock: TEMPAE_clean_linker_10, # of connection points: 2
#     Edge 19, Type (0, 0), BuildingBlock: TEMPAE_clean_linker_10, # of connection points: 2
#     Edge 20, Type (0, 0), BuildingBlock: TEMPAE_clean_linker_10, # of connection points: 2
#     Edge 21, Type (0, 0), BuildingBlock: TEMPAE_clean_linker_10, # of connection points: 2
#     Edge 22, Type (0, 0), BuildingBlock: TEMPAE_clean_linker_10, # of connection points: 2
#     Edge 23, Type (0, 0), BuildingBlock: TEMPAE_clean_linker_10, # of connection points: 2
#     Edge 24, Type (0, 0), BuildingBlock: TEMPAE_clean_linker_10, # of connection points: 2
#     Edge 25, Type (0, 0), BuildingBlock: TEMPAE_clean_linker_10, # of connection points: 2
#     Edge 26, Type (0, 0), BuildingBlock: TEMPAE_clean_linker_10, # of connection points: 2
#     Edge 27, Type (0, 0), BuildingBlock: TEMPAE_clean_linker_10, # of connection points: 2
#     Edge 28, Type (0, 0), BuildingBlock: TEMPAE_clean_linker_10, # of connection points: 2
#     Edge 29, Type (0, 0), BuildingBlock: TEMPAE_clean_linker_10, # of connection points: 2
#     Edge 30, Type (0, 0), BuildingBlock: TEMPAE_clean_linker_10, # of connection points: 2
#     Edge 31, Type (0, 0), BuildingBlock: TEMPAE_clean_linker_10, # of connection points: 2
# Relax obj value: 0.006
# Max RMSD: 0.053
# Mean RMSD: 0.050
data_MOF--net-snk--node1-KUMJIN_clean_sbu_0--edge1-TEMPAE_clean_linker_10
_symmetry_space_group_name_H-M    P1
_symmetry_Int_Tables_number       1
_symmetry_cell_setting            triclinic
loop_
_symmetry_equiv_pos_as_xyz
'x, y, z'
_cell_length_a     38.476527
_cell_length_b     38.504181
_cell_length_c     24.944819
_cell_angle_alpha  88.600721
_cell_angle_beta   88.561001
_cell_angle_gamma 89.851705
loop_
_atom_site_label
_atom_site_type_symbol
_atom_site_fract_x
_atom_site_fract_y
_atom_site_fract_z
_atom_type_partial_charge
Eu0 Eu 1.00188 0.97489 0.45777 0.0
C1 C 0.00793 0.11264 0.57337 0.0
C2 C 0.06845 0.12868 0.56236 0.0
C3 C 0.02411 0.17363 0.5664 0.0
C4 C 0.04229 0.10306 0.56649 0.0
C5 C 0.99858 0.14802 0.5757 0.0
C6 C 0.05906 0.16395 0.55976 0.0
C7 C 0.94101 0.13011 0.60554 0.0
N8 N 0.98424 0.08726 0.5841 0.0
C9 C 0.95166 0.0954 0.60304 0.0
C10 C 0.96434 0.15654 0.59054 0.0
Eu11 Eu 0.0033 0.02897 0.57546 0.0
N12 N 0.05042 0.06881 0.57075 0.0
C13 C 0.08413 0.05874 0.57741 0.0
C14 C 0.1032 0.11822 0.56502 0.0
C15 C 0.11097 0.08323 0.57458 0.0
H16 H 0.93341 0.07497 0.61394 0.0
H17 H 0.13766 0.075 0.57911 0.0
H18 H 0.07875 0.18397 0.55557 0.0
H19 H 0.91479 0.13642 0.61877 0.0
H20 H 0.09067 0.03175 0.58397 0.0
H21 H 0.8655 0.93455 0.45617 0.0
H22 H 0.12407 0.13708 0.56248 0.0
H23 H 0.07296 0.92923 0.42755 0.0
H24 H 0.91361 0.97515 0.46605 0.0
H25 H 0.08992 0.86861 0.40899 0.0
H26 H 0.01736 0.20095 0.56712 0.0
H27 H 0.87737 0.87268 0.43902 0.0
H28 H 0.92093 0.82492 0.426 0.0
H29 H 0.95611 0.18341 0.59288 0.0
H30 H 0.98198 0.80651 0.4164 0.0
N31 N 0.95334 0.93687 0.45599 0.0
C32 C 0.91967 0.94833 0.45891 0.0
C33 C 0.89885 0.89042 0.44364 0.0
C34 C 0.93326 0.87876 0.44028 0.0
C35 C 0.89205 0.9253 0.45329 0.0
C36 C 0.96031 0.90291 0.44654 0.0
H37 H 0.04516 0.82257 0.41004 0.0
N38 N 0.01976 0.91703 0.44278 0.0
C39 C 0.06304 0.87489 0.41835 0.0
C40 C 0.99462 0.89251 0.44127 0.0
C41 C 0.05339 0.90911 0.42902 0.0
C42 C 0.03773 0.84898 0.4192 0.0
C43 C 0.0029 0.85776 0.42933 0.0
O44 O 0.029 0.9769 0.3793 0.0
O45 O 0.02228 0.02479 0.49006 0.0
O46 O 0.97054 0.05881 0.51532 0.0
O47 O 0.95889 0.01571 0.45435 0.0
O48 O 0.05751 0.99463 0.44867 0.0
O49 O 0.9743 0.98882 0.38471 0.0
O50 O 0.97733 0.02779 0.65474 0.0
O51 O 0.98325 0.97799 0.54463 0.0
O52 O 0.03252 0.94378 0.51945 0.0
O53 O 0.04615 0.98758 0.57846 0.0
O54 O 0.94854 0.00861 0.58618 0.0
O55 O 0.03269 0.01992 0.64839 0.0
C56 C 0.05352 0.02382 0.47228 0.0
C57 C 0.99529 0.96502 0.30354 0.0
C58 C 0.99047 0.96321 0.20587 0.0
C59 C 0.99712 0.98182 0.25268 0.0
C60 C 0.98257 0.9276 0.21084 0.0
C61 C 0.98705 0.92962 0.30703 0.0
C62 C 0.98088 0.91102 0.26108 0.0
C63 C 0.95365 0.04695 0.47402 0.0
C64 C 1.0012 0.98463 0.3527 0.0
C65 C 0.97612 0.83335 0.42521 0.0
C66 C 0.94137 0.84387 0.43039 0.0
C67 C 0.95237 0.97863 0.56478 0.0
C68 C 0.01091 0.04691 0.72629 0.0
C69 C 0.00628 0.0341 0.77932 0.0
C70 C 0.01083 0.05607 0.8231 0.0
C71 C 0.02012 0.09096 0.81277 0.0
C72 C 0.02039 0.08173 0.71719 0.0
C73 C 0.02488 0.1036 0.7602 0.0
C74 C 0.05015 0.95571 0.56013 0.0
C75 C 0.006 0.02384 0.68081 0.0
H76 H 0.00306 0.00931 0.24968 0.0
H77 H 0.97798 0.91243 0.17572 0.0
H78 H 0.9852 0.91629 0.34517 0.0
H79 H 0.97471 0.88363 0.26444 0.0
H80 H 0.99885 0.00721 0.7864 0.0
H81 H 0.0243 0.10839 0.84542 0.0
H82 H 0.0245 0.09198 0.67692 0.0
H83 H 0.03226 0.13043 0.75275 0.0
Eu84 Eu 0.27758 0.74415 0.70818 0.0
C85 C 0.14158 0.77045 0.84539 0.0
C86 C 0.13137 0.83243 0.8373 0.0
C87 C 0.08261 0.79306 0.85223 0.0
C88 C 0.15425 0.80376 0.83674 0.0
C89 C 0.1057 0.76476 0.85435 0.0
C90 C 0.09543 0.82684 0.84386 0.0
C91 C 0.11853 0.70411 0.87208 0.0
N92 N 0.16462 0.74379 0.8481 0.0
C93 C 0.1539 0.71111 0.86316 0.0
C94 C 0.09426 0.73097 0.86693 0.0
Eu95 Eu 0.22389 0.75748 0.83222 0.0
N96 N 0.18913 0.8083 0.83106 0.0
C97 C 0.203 0.84093 0.82847 0.0
C98 C 0.14539 0.86589 0.83295 0.0
C99 C 0.18136 0.87015 0.82868 0.0
H100 H 0.17261 0.69029 0.86692 0.0
H101 H 0.19246 0.89595 0.8259 0.0
H102 H 0.07743 0.84853 0.84373 0.0
H103 H 0.11002 0.67803 0.88277 0.0
H104 H 0.23076 0.84463 0.82551 0.0
H105 H 0.30827 0.60551 0.71376 0.0
H106 H 0.12876 0.88859 0.83429 0.0
H107 H 0.32924 0.81104 0.67345 0.0
H108 H 0.27027 0.65703 0.7145 0.0
H109 H 0.39192 0.82299 0.6579 0.0
H110 H 0.05491 0.78919 0.85851 0.0
H111 H 0.37201 0.61254 0.7055 0.0
H112 H 0.42358 0.65233 0.69684 0.0
H113 H 0.0669 0.72552 0.87402 0.0
H114 H 0.44644 0.71158 0.68249 0.0
N115 N 0.31209 0.69316 0.7093 0.0
C116 C 0.29805 0.6606 0.71166 0.0
C117 C 0.35551 0.63533 0.70708 0.0
C118 C 0.36973 0.66872 0.70312 0.0
C119 C 0.31952 0.63126 0.71125 0.0
C120 C 0.34701 0.69751 0.7038 0.0
H121 H 0.4348 0.77532 0.66698 0.0
N122 N 0.33695 0.75752 0.69251 0.0
C123 C 0.38326 0.79696 0.66862 0.0
C124 C 0.35986 0.73076 0.69538 0.0
C125 C 0.34785 0.79013 0.67736 0.0
C126 C 0.4074 0.77 0.67397 0.0
C127 C 0.39578 0.73627 0.68654 0.0
O128 O 0.27627 0.76779 0.62745 0.0
O129 O 0.23285 0.77236 0.74575 0.0
O130 O 0.18957 0.73416 0.77125 0.0
O131 O 0.23182 0.7071 0.71813 0.0
O132 O 0.26363 0.80105 0.69302 0.0
O133 O 0.2624 0.71382 0.63984 0.0
O134 O 0.22567 0.73372 0.91277 0.0
O135 O 0.26865 0.72939 0.79462 0.0
O136 O 0.31172 0.76774 0.76903 0.0
O137 O 0.26957 0.79464 0.82258 0.0
O138 O 0.23801 0.70057 0.8473 0.0
O139 O 0.23861 0.78799 0.90073 0.0
C140 C 0.23586 0.80188 0.72301 0.0
C141 C 0.28809 0.72999 0.55593 0.0
C142 C 0.29296 0.72641 0.45813 0.0
C143 C 0.27398 0.73562 0.50489 0.0
C144 C 0.32635 0.71192 0.46344 0.0
C145 C 0.32136 0.71539 0.55998 0.0
C146 C 0.34037 0.70651 0.51401 0.0
C147 C 0.19903 0.71268 0.73304 0.0
C148 C 0.26789 0.73896 0.60469 0.0
C149 C 0.41871 0.70785 0.68866 0.0
C150 C 0.4057 0.67412 0.69678 0.0
C151 C 0.26579 0.69986 0.8173 0.0
C152 C 0.21287 0.77103 0.98444 0.0
C153 C 0.22573 0.76278 0.03557 0.0
C154 C 0.20586 0.77013 0.08232 0.0
C155 C 0.17311 0.786 0.07693 0.0
C156 C 0.1802 0.78694 0.9803 0.0
C157 C 0.16047 0.79434 0.02627 0.0
C158 C 0.30229 0.78941 0.80698 0.0
C159 C 0.23343 0.76266 0.93571 0.0
H160 H 0.24812 0.74657 0.50169 0.0
H161 H 0.34183 0.70509 0.42838 0.0
H162 H 0.33261 0.71071 0.59861 0.0
H163 H 0.36608 0.69535 0.51759 0.0
H164 H 0.25089 0.75029 0.03888 0.0
H165 H 0.15743 0.79243 0.11198 0.0
H166 H 0.16995 0.79375 0.94163 0.0
H167 H 0.13532 0.8067 0.02263 0.0
Eu168 Eu 0.50952 0.97761 0.07142 0.0
C169 C 0.48315 0.11331 0.93352 0.0
C170 C 0.42108 0.12341 0.941 0.0
C171 C 0.46043 0.17217 0.92602 0.0
C172 C 0.44981 0.10061 0.94193 0.0
C173 C 0.4888 0.14915 0.92436 0.0
C174 C 0.42662 0.15931 0.93421 0.0
C175 C 0.5496 0.13641 0.90736 0.0
N176 N 0.5099 0.09034 0.93127 0.0
C177 C 0.54265 0.10108 0.9165 0.0
C178 C 0.52264 0.16062 0.91204 0.0
Eu179 Eu 0.49626 0.03112 0.94726 0.0
N180 N 0.44532 0.06574 0.94773 0.0
C181 C 0.41269 0.05183 0.94998 0.0
C182 C 0.38761 0.10935 0.94532 0.0
C183 C 0.3834 0.0734 0.94958 0.0
H184 H 0.56355 0.08242 0.9131 0.0
H185 H 0.3576 0.06226 0.95227 0.0
H186 H 0.40488 0.17726 0.93404 0.0
H187 H 0.57573 0.14494 0.89686 0.0
H188 H 0.40904 0.02408 0.95297 0.0
H189 H 0.64858 0.94866 0.0683 0.0
H190 H 0.36487 0.12594 0.94398 0.0
H191 H 0.44302 0.92524 0.10526 0.0
H192 H 0.5966 0.98594 0.0656 0.0
H193 H 0.43172 0.86248 0.12081 0.0
H194 H 0.46426 0.19984 0.91958 0.0
H195 H 0.6423 0.88497 0.0777 0.0
H196 H 0.60311 0.8329 0.08527 0.0
H197 H 0.52807 0.18795 0.90478 0.0
H198 H 0.54402 0.80933 0.09837 0.0
N199 N 0.56094 0.94372 0.07067 0.0
C200 C 0.59335 0.95816 0.06871 0.0
C201 C 0.61931 0.90112 0.07499 0.0
C202 C 0.58607 0.88648 0.07805 0.0
C203 C 0.62296 0.9371 0.07025 0.0
C204 C 0.55698 0.90879 0.07639 0.0
H205 H 0.48 0.8202 0.11259 0.0
N206 N 0.49675 0.91813 0.08679 0.0
C207 C 0.45772 0.87142 0.11038 0.0
C208 C 0.52382 0.89556 0.08434 0.0
C209 C 0.46417 0.90687 0.10163 0.0
C210 C 0.48502 0.84763 0.1055 0.0
C211 C 0.5187 0.85962 0.09337 0.0
O212 O 0.4856 0.97852 0.15205 0.0
O213 O 0.48105 0.02207 0.03364 0.0
O214 O 0.51906 0.06572 1.00846 0.0
O215 O 0.54623 0.02368 0.06167 0.0
O216 O 0.45245 0.99106 0.08628 0.0
O217 O 0.53943 0.99314 0.13997 0.0
O218 O 0.52006 0.02962 0.86667 0.0
O219 O 0.52443 0.98655 0.98509 0.0
O220 O 0.48616 0.94341 1.01048 0.0
O221 O 0.45919 0.98536 0.95671 0.0
O222 O 0.55328 0.01694 0.93224 0.0
O223 O 0.46594 0.01589 0.87885 0.0
C224 C 0.45147 0.01872 0.05616 0.0
C225 C 0.52346 0.96715 0.22367 0.0
C226 C 0.52734 0.96238 0.3214 0.0
C227 C 0.51781 0.98122 0.27474 0.0
C228 C 0.5422 0.92918 0.31601 0.0
C229 C 0.53842 0.93407 0.21953 0.0
C230 C 0.54763 0.9152 0.26542 0.0
C231 C 0.54044 0.05641 0.04689 0.0
C232 C 0.51427 0.98728 0.17498 0.0
C233 C 0.54744 0.83706 0.09202 0.0
C234 C 0.58108 0.85048 0.08461 0.0
C235 C 0.554 0.98928 0.96241 0.0
C236 C 0.48246 0.04188 0.79517 0.0
C237 C 0.49092 0.02919 0.744 0.0
C238 C 0.48313 0.04889 0.69732 0.0
C239 C 0.46663 0.0813 0.7028 0.0
C240 C 0.4659 0.0742 0.79939 0.0
C241 C 0.45807 0.09377 0.7535 0.0
C242 C 0.46449 0.95271 0.97247 0.0
C243 C 0.49119 0.02145 0.84381 0.0
H244 H 0.50659 0.00696 0.27802 0.0
H245 H 0.5493 0.91382 0.35102 0.0
H246 H 0.54314 0.92286 0.1809 0.0
H247 H 0.55907 0.88962 0.26176 0.0
H248 H 0.50389 0.00428 0.7406 0.0
H249 H 0.45985 0.09683 0.66779 0.0
H250 H 0.45888 0.0843 0.83807 0.0
H251 H 0.44521 0.11866 0.75723 0.0
Eu252 Eu 0.27893 0.24817 0.32518 0.0
C253 C 0.14106 0.25563 0.2045 0.0
C254 C 0.11963 0.19674 0.21286 0.0
C255 C 0.07879 0.24483 0.20706 0.0
C256 C 0.14745 0.22056 0.21103 0.0
C257 C 0.10671 0.26808 0.20016 0.0
C258 C 0.08525 0.20914 0.21341 0.0
C259 C 0.13033 0.32413 0.17346 0.0
N260 N 0.16866 0.27705 0.19616 0.0
C261 C 0.1639 0.31051 0.17829 0.0
C262 C 0.10159 0.30305 0.18578 0.0
Eu263 Eu 0.2248 0.25282 0.20699 0.0
N264 N 0.18095 0.20956 0.20857 0.0
C265 C 0.18831 0.17529 0.20123 0.0
C266 C 0.12718 0.16128 0.20993 0.0
C267 C 0.1616 0.15065 0.20204 0.0
H268 H 0.18605 0.32706 0.16951 0.0
H269 H 0.16764 0.12345 0.19701 0.0
H270 H 0.06353 0.19126 0.21576 0.0
H271 H 0.12668 0.35093 0.16072 0.0
H272 H 0.21484 0.16667 0.19578 0.0
H273 H 0.33907 0.37609 0.33531 0.0
H274 H 0.10658 0.14212 0.21075 0.0
H275 H 0.31571 0.1727 0.36229 0.0
H276 H 0.29085 0.33398 0.33614 0.0
H277 H 0.3744 0.1475 0.3722 0.0
H278 H 0.05219 0.25394 0.20473 0.0
H279 H 0.39974 0.35594 0.32282 0.0
H280 H 0.44163 0.30577 0.31901 0.0
H281 H 0.07563 0.31362 0.18184 0.0
H282 H 0.4514 0.24284 0.33032 0.0
N283 N 0.3238 0.29032 0.32405 0.0
C284 C 0.31721 0.32475 0.3311 0.0
C285 C 0.37869 0.33728 0.32338 0.0
C286 C 0.38542 0.30164 0.32085 0.0
C287 C 0.34449 0.34875 0.33053 0.0
C288 C 0.35703 0.27849 0.32229 0.0
H289 H 0.42642 0.18371 0.35254 0.0
N290 N 0.33439 0.22248 0.33666 0.0
C291 C 0.37145 0.17442 0.35965 0.0
C292 C 0.36255 0.24327 0.32899 0.0
C293 C 0.33825 0.18881 0.35411 0.0
C294 C 0.40075 0.19489 0.34816 0.0
C295 C 0.39655 0.23 0.33388 0.0
O296 O 0.27359 0.22211 0.40412 0.0
O297 O 0.22828 0.23064 0.29118 0.0
O298 O 0.19598 0.28379 0.27046 0.0
O299 O 0.24067 0.29388 0.32973 0.0
O300 O 0.25646 0.19368 0.33216 0.0
O301 O 0.27015 0.27791 0.3978 0.0
O302 O 0.22998 0.27953 0.12856 0.0
O303 O 0.27524 0.2705 0.24117 0.0
O304 O 0.30833 0.21832 0.26102 0.0
O305 O 0.26376 0.20775 0.20185 0.0
O306 O 0.24713 0.30742 0.19994 0.0
O307 O 0.23319 0.2237 0.13364 0.0
C308 C 0.22791 0.19901 0.30741 0.0
C309 C 0.29304 0.25406 0.47743 0.0
C310 C 0.29883 0.25771 0.5747 0.0
C311 C 0.27798 0.25354 0.52951 0.0
C312 C 0.33493 0.2619 0.56679 0.0
C313 C 0.32904 0.25852 0.47077 0.0
C314 C 0.34984 0.26227 0.51521 0.0
C315 C 0.20889 0.29976 0.31199 0.0
C316 C 0.27104 0.25092 0.43023 0.0
C317 C 0.42505 0.25259 0.32753 0.0
C318 C 0.41949 0.28842 0.32101 0.0
C319 C 0.2756 0.30215 0.22501 0.0
C320 C 0.21001 0.24849 0.05479 0.0
C321 C 0.22458 0.25161 1.00253 0.0
C322 C 0.20334 0.24939 0.95736 0.0
C323 C 0.16744 0.24387 0.96554 0.0
C324 C 0.1742 0.24277 0.06171 0.0
C325 C 0.15308 0.24055 1.01733 0.0
C326 C 0.2957 0.20239 0.21925 0.0
C327 C 0.23226 0.25097 0.10181 0.0
H328 H 0.25007 0.25059 0.53469 0.0
H329 H 0.35175 0.26462 0.60061 0.0
H330 H 0.34108 0.25934 0.43128 0.0
H331 H 0.37763 0.26558 0.50964 0.0
H332 H 0.25226 0.25609 0.9971 0.0
H333 H 0.15049 0.24153 0.9318 0.0
H334 H 0.16258 0.23984 0.10134 0.0
H335 H 0.12546 0.23606 0.0231 0.0
Eu336 Eu 0.77799 0.24473 0.20785 0.0
C337 C 0.64124 0.27018 0.34231 0.0
C338 C 0.63165 0.33234 0.33664 0.0
C339 C 0.58237 0.2932 0.34745 0.0
C340 C 0.65429 0.30349 0.33566 0.0
C341 C 0.60518 0.26467 0.34928 0.0
C342 C 0.5956 0.32699 0.34134 0.0
C343 C 0.61719 0.2036 0.36456 0.0
N344 N 0.664 0.24328 0.34488 0.0
C345 C 0.65275 0.21044 0.35784 0.0
C346 C 0.59326 0.23077 0.35958 0.0
Eu347 Eu 0.72359 0.25669 0.3318 0.0
N348 N 0.68928 0.3078 0.33153 0.0
C349 C 0.70342 0.3403 0.33089 0.0
C350 C 0.646 0.3657 0.33459 0.0
C351 C 0.68203 0.36969 0.3318 0.0
H352 H 0.67124 0.18939 0.36144 0.0
H353 H 0.69336 0.39541 0.3307 0.0
H354 H 0.57778 0.34883 0.34148 0.0
H355 H 0.60828 0.17741 0.3735 0.0
H356 H 0.73123 0.3438 0.32908 0.0
H357 H 0.80924 0.10622 0.20923 0.0
H358 H 0.62955 0.38851 0.33654 0.0
H359 H 0.82958 0.3122 0.17599 0.0
H360 H 0.77105 0.15755 0.21132 0.0
H361 H 0.89229 0.32459 0.16185 0.0
H362 H 0.55455 0.28948 0.35223 0.0
H363 H 0.87296 0.11355 0.20187 0.0
H364 H 0.92442 0.1536 0.19538 0.0
H365 H 0.56574 0.22544 0.36504 0.0
H366 H 0.94712 0.21307 0.18333 0.0
N367 N 0.81273 0.19388 0.20779 0.0
C368 C 0.79881 0.16126 0.20891 0.0
C369 C 0.85638 0.13625 0.20409 0.0
C370 C 0.87048 0.16971 0.20148 0.0
C371 C 0.82039 0.13202 0.20772 0.0
C372 C 0.84764 0.1984 0.20281 0.0
H373 H 0.9353 0.27695 0.16983 0.0
N374 N 0.83738 0.25846 0.19316 0.0
C375 C 0.88368 0.29838 0.17147 0.0
C376 C 0.86039 0.23176 0.19551 0.0
C377 C 0.84825 0.29131 0.1794 0.0
C378 C 0.90788 0.27144 0.1762 0.0
C379 C 0.89633 0.23751 0.18741 0.0
O380 O 0.77748 0.26876 0.12735 0.0
O381 O 0.73332 0.27257 0.24603 0.0
O382 O 0.68994 0.23428 0.2692 0.0
O383 O 0.73249 0.20729 0.21676 0.0
O384 O 0.76389 0.30177 0.19383 0.0
O385 O 0.76176 0.21524 0.13921 0.0
O386 O 0.72356 0.23199 0.4118 0.0
O387 O 0.76842 0.22908 0.29377 0.0
O388 O 0.81181 0.26761 0.26984 0.0
O389 O 0.76956 0.29368 0.32431 0.0
O390 O 0.73789 0.19968 0.34581 0.0
O391 O 0.73837 0.28592 0.40158 0.0
C392 C 0.73624 0.3023 0.22408 0.0
C393 C 0.78793 0.23084 0.05548 0.0
C394 C 0.79207 0.22634 0.95777 0.0
C395 C 0.77355 0.23621 1.00458 0.0
C396 C 0.82526 0.21137 0.96287 0.0
C397 C 0.82103 0.21584 0.05934 0.0
C398 C 0.83957 0.20623 1.0133 0.0
C399 C 0.69961 0.21293 0.23097 0.0
C400 C 0.7681 0.24034 0.10432 0.0
C401 C 0.91937 0.20917 0.18895 0.0
C402 C 0.90646 0.17531 0.19579 0.0
C403 C 0.76566 0.19935 0.31577 0.0
C404 C 0.71129 0.26891 0.48421 0.0
C405 C 0.72408 0.26104 0.53551 0.0
C406 C 0.7042 0.26879 0.58208 0.0
C407 C 0.67149 0.28471 0.57629 0.0
C408 C 0.67864 0.2848 0.47969 0.0
C409 C 0.6589 0.29263 0.52546 0.0
C410 C 0.80231 0.28863 0.30865 0.0
C411 C 0.73202 0.26038 0.43575 0.0
H412 H 0.74781 0.24749 1.00156 0.0
H413 H 0.84039 0.20398 0.92774 0.0
H414 H 0.83251 0.21142 0.09788 0.0
H415 H 0.86515 0.19474 1.01671 0.0
H416 H 0.74922 0.24854 0.53908 0.0
H417 H 0.6558 0.2915 0.61116 0.0
H418 H 0.66843 0.29126 0.44086 0.0
H419 H 0.63377 0.30501 0.52152 0.0
Eu420 Eu 0.78062 0.7509 0.83024 0.0
C421 C 0.64838 0.74116 0.68873 0.0
C422 C 0.6335 0.67987 0.69243 0.0
C423 C 0.58934 0.72277 0.67078 0.0
C424 C 0.65817 0.70665 0.69782 0.0
C425 C 0.61401 0.74934 0.67409 0.0
C426 C 0.59909 0.68816 0.67968 0.0
C427 C 0.63161 0.80911 0.66042 0.0
N428 N 0.67284 0.76649 0.69063 0.0
C429 C 0.6654 0.79976 0.67412 0.0
C430 C 0.60568 0.78388 0.66109 0.0
Eu431 Eu 0.72964 0.74808 0.71158 0.0
N432 N 0.69173 0.69912 0.71055 0.0
C433 C 0.70203 0.66517 0.71684 0.0
C434 C 0.64406 0.64536 0.69966 0.0
C435 C 0.67838 0.63803 0.71204 0.0
H436 H 0.68535 0.81942 0.6731 0.0
H437 H 0.68673 0.61137 0.71792 0.0
H438 H 0.57986 0.6679 0.676 0.0
H439 H 0.62567 0.83573 0.64901 0.0
H440 H 0.72815 0.65813 0.72683 0.0
H441 H 0.81548 0.88876 0.83109 0.0
H442 H 0.62586 0.62418 0.6959 0.0
H443 H 0.82999 0.68209 0.85939 0.0
H444 H 0.77619 0.83895 0.82678 0.0
H445 H 0.89204 0.66769 0.87197 0.0
H446 H 0.56283 0.72865 0.65999 0.0
H447 H 0.87867 0.87942 0.83952 0.0
H448 H 0.92853 0.83785 0.84836 0.0
H449 H 0.57958 0.79113 0.64983 0.0
H450 H 0.9497 0.77768 0.85582 0.0
N451 N 0.8166 0.80099 0.83033 0.0
C452 C 0.80364 0.8341 0.82989 0.0
C453 C 0.86153 0.85725 0.83721 0.0
C454 C 0.87462 0.82334 0.83942 0.0
C455 C 0.82589 0.86263 0.83246 0.0
C456 C 0.85125 0.79535 0.83562 0.0
H457 H 0.93636 0.71407 0.86441 0.0
N458 N 0.8397 0.73529 0.84017 0.0
C459 C 0.88439 0.69411 0.86219 0.0
C460 C 0.86328 0.76146 0.83897 0.0
C461 C 0.84939 0.70229 0.85483 0.0
C462 C 0.90933 0.72034 0.85765 0.0
C463 C 0.89881 0.75467 0.84766 0.0
O464 O 0.7814 0.72309 0.90783 0.0
O465 O 0.72982 0.73068 0.79887 0.0
O466 O 0.69911 0.7847 0.76546 0.0
O467 O 0.73716 0.79123 0.83581 0.0
O468 O 0.76016 0.69605 0.84115 0.0
O469 O 0.77056 0.77813 0.90507 0.0
O470 O 0.76665 0.7538 0.64331 0.0
O471 O 0.77865 0.77039 0.74435 0.0
O472 O 0.81161 0.7197 0.76861 0.0
O473 O 0.7669 0.70243 0.71452 0.0
O474 O 0.74556 0.80467 0.7062 0.0
O475 O 0.71396 0.73984 0.62907 0.0
C476 C 0.73018 0.70011 0.81977 0.0
C477 C 0.79778 0.75553 0.98252 0.0
C478 C 0.80382 0.76164 0.07904 0.0
C479 C 0.78279 0.75637 0.03448 0.0
C480 C 0.83991 0.76553 0.07104 0.0
C481 C 0.83381 0.75957 0.97584 0.0
C482 C 0.85474 0.76446 0.0197 0.0
C483 C 0.70812 0.7991 0.81074 0.0
C484 C 0.77569 0.75079 0.93575 0.0
C485 C 0.9223 0.78241 0.84955 0.0
C486 C 0.91021 0.81667 0.84574 0.0
C487 C 0.77607 0.80164 0.72654 0.0
C488 C 0.74197 0.77448 0.56271 0.0
C489 C 0.74442 0.76348 0.50949 0.0
C490 C 0.74104 0.78762 0.46656 0.0
C491 C 0.73567 0.82289 0.47769 0.0
C492 C 0.73632 0.80976 0.57275 0.0
C493 C 0.73338 0.83381 0.53049 0.0
C494 C 0.79931 0.70017 0.73044 0.0
C495 C 0.74357 0.74881 0.60728 0.0
H496 H 0.7549 0.75354 0.0401 0.0
H497 H 0.85672 0.76916 0.10465 0.0
H498 H 0.84596 0.75894 0.93698 0.0
H499 H 0.88256 0.76746 1.01381 0.0
H500 H 0.74832 0.73616 0.50155 0.0
H501 H 0.73366 0.84213 0.4455 0.0
H502 H 0.73385 0.81882 0.61307 0.0
H503 H 0.7292 0.861 0.53871 0.0
Eu504 Eu 0.50017 0.47373 0.96173 0.0
C505 C 0.51021 0.6103 0.09477 0.0
C506 C 0.57171 0.62361 0.09318 0.0
C507 C 0.52944 0.66946 0.10897 0.0
C508 C 0.54437 0.59958 0.08854 0.0
C509 C 0.50239 0.64522 0.10623 0.0
C510 C 0.56404 0.65864 0.10274 0.0
C511 C 0.44219 0.62871 0.11908 0.0
N512 N 0.48482 0.58599 0.0944 0.0
C513 C 0.4514 0.59432 0.10882 0.0
C514 C 0.46775 0.65439 0.11712 0.0
Eu515 Eu 0.50193 0.52786 0.0797 0.0
N516 N 0.55091 0.56546 0.07977 0.0
C517 C 0.58445 0.55368 0.07638 0.0
C518 C 0.606 0.61171 0.08851 0.0
C519 C 0.61236 0.5766 0.08 0.0
H520 H 0.43166 0.57437 0.11117 0.0
H521 H 0.6388 0.56712 0.07643 0.0
H522 H 0.58471 0.67748 0.10596 0.0
H523 H 0.41547 0.63531 0.12899 0.0
H524 H 0.59019 0.52669 0.07005 0.0
H525 H 0.3661 0.42698 0.95801 0.0
H526 H 0.6277 0.62937 0.09155 0.0
H527 H 0.5704 0.42822 0.92327 0.0
H528 H 0.41283 0.4705 0.95348 0.0
H529 H 0.58938 0.36688 0.91815 0.0
H530 H 0.52393 0.69642 0.11741 0.0
H531 H 0.38004 0.36494 0.97409 0.0
H532 H 0.42563 0.31828 0.98067 0.0
H533 H 0.46067 0.68094 0.12594 0.0
H534 H 0.48711 0.30167 0.9691 0.0
N535 N 0.4533 0.43362 0.96636 0.0
C536 C 0.41953 0.44353 0.95982 0.0
C537 C 0.4008 0.38392 0.97171 0.0
C538 C 0.43562 0.37364 0.97429 0.0
C539 C 0.39283 0.41889 0.96248 0.0
C540 C 0.46163 0.39941 0.97035 0.0
H541 H 0.54829 0.31961 0.94363 0.0
N542 N 0.5196 0.41558 0.95289 0.0
C543 C 0.56311 0.37302 0.93134 0.0
C544 C 0.49605 0.39004 0.96342 0.0
C545 C 0.55226 0.40766 0.934 0.0
C546 C 0.53991 0.34642 0.9461 0.0
C547 C 0.5056 0.35472 0.9609 0.0
O548 O 0.5259 0.47515 0.88228 0.0
O549 O 0.52012 0.52468 0.99277 0.0
O550 O 0.47044 0.55861 0.01873 0.0
O551 O 0.45712 0.51491 0.95928 0.0
O552 O 0.55474 0.49449 0.95005 0.0
O553 O 0.47052 0.48282 0.88909 0.0
O554 O 0.47511 0.52643 0.15842 0.0
O555 O 0.48143 0.47812 0.0472 0.0
O556 O 0.53297 0.44383 0.02182 0.0
O557 O 0.5445 0.48664 0.08336 0.0
O558 O 0.44636 0.50794 0.08947 0.0
O559 O 0.52968 0.51394 0.15259 0.0
C560 C 0.55084 0.52423 0.97214 0.0
C561 C 0.49216 0.45613 0.81083 0.0
C562 C 0.49218 0.44726 0.71394 0.0
C563 C 0.4968 0.46909 0.75788 0.0
C564 C 0.4828 0.41237 0.72406 0.0
C565 C 0.48264 0.42131 0.81973 0.0
C566 C 0.47806 0.39959 0.77657 0.0
C567 C 0.45281 0.54663 0.97807 0.0
C568 C 0.49713 0.47907 0.85646 0.0
C569 C 0.48021 0.32895 0.96999 0.0
C570 C 0.44521 0.33841 0.97663 0.0
C571 C 0.45025 0.47893 0.06529 0.0
C572 C 0.50929 0.53829 0.23364 0.0
C573 C 0.50688 0.52186 0.28473 0.0
C574 C 0.51394 0.54053 0.33131 0.0
C575 C 0.52281 0.57589 0.32585 0.0
C576 C 0.51859 0.57342 0.22962 0.0
C577 C 0.52511 0.59212 0.27536 0.0
C578 C 0.54973 0.45549 0.0634 0.0
C579 C 0.50296 0.51853 0.1848 0.0
H580 H 0.50431 0.49597 0.75099 0.0
H581 H 0.47855 0.39505 0.6913 0.0
H582 H 0.47857 0.41094 0.85994 0.0
H583 H 0.47063 0.37276 0.78384 0.0
H584 H 0.5002 0.49454 0.28807 0.0
H585 H 0.52773 0.59115 0.36076 0.0
H586 H 0.521 0.58643 0.19124 0.0
H587 H 0.53208 0.61931 0.27163 0.0
Eu588 Eu 0.00994 0.47327 0.58029 0.0
C589 C 0.98244 0.60915 0.44441 0.0
C590 C 0.92031 0.61868 0.45254 0.0
C591 C 0.95923 0.66789 0.43877 0.0
C592 C 0.94923 0.59611 0.45272 0.0
C593 C 0.98779 0.64513 0.43631 0.0
C594 C 0.92554 0.65468 0.44672 0.0
C595 C 0.04869 0.63308 0.41891 0.0
N596 N 0.00936 0.58643 0.44139 0.0
C597 C 0.04202 0.59761 0.42688 0.0
C598 C 0.02153 0.657 0.42432 0.0
Eu599 Eu 0.99626 0.52696 0.45626 0.0
N600 N 0.94504 0.56118 0.45781 0.0
C601 C 0.91253 0.54699 0.46015 0.0
C602 C 0.88697 0.60431 0.45656 0.0
C603 C 0.88307 0.56831 0.46022 0.0
H604 H 0.06307 0.57915 0.42293 0.0
H605 H 0.85736 0.55695 0.46278 0.0
H606 H 0.90365 0.67245 0.44714 0.0
H607 H 0.07474 0.64195 0.40869 0.0
H608 H 0.9091 0.51921 0.46266 0.0
H609 H 0.14883 0.44322 0.57685 0.0
H610 H 0.86408 0.6207 0.45546 0.0
H611 H 0.94302 0.42138 0.61396 0.0
H612 H 0.09713 0.48095 0.57527 0.0
H613 H 0.93124 0.35873 0.62958 0.0
H614 H 0.96283 0.69565 0.43314 0.0
H615 H 0.14207 0.37951 0.58529 0.0
H616 H 0.10246 0.32783 0.59403 0.0
H617 H 0.02673 0.68446 0.41794 0.0
H618 H 0.0432 0.30473 0.60756 0.0
N619 N 0.06114 0.43901 0.58015 0.0
C620 C 0.09366 0.45319 0.57823 0.0
C621 C 0.1192 0.39589 0.58342 0.0
C622 C 0.08584 0.38155 0.58711 0.0
C623 C 0.12312 0.43187 0.57913 0.0
C624 C 0.05693 0.40411 0.58586 0.0
H625 H 0.97924 0.3161 0.62174 0.0
N626 N 0.99677 0.41391 0.5961 0.0
C627 C 0.95734 0.36748 0.61938 0.0
C628 C 0.02368 0.39114 0.59386 0.0
C629 C 0.96407 0.40288 0.6106 0.0
C630 C 0.98449 0.34349 0.61472 0.0
C631 C 0.01828 0.35524 0.60278 0.0
O632 O 0.98635 0.47417 0.66111 0.0
O633 O 0.98145 0.5177 0.54263 0.0
O634 O 0.01938 0.56111 0.51745 0.0
O635 O 0.04697 0.51904 0.57005 0.0
O636 O 0.95291 0.48695 0.59551 0.0
O637 O 0.03982 0.48991 0.64828 0.0
O638 O 0.02002 0.52603 0.37559 0.0
O639 O 0.02471 0.48251 0.49393 0.0
O640 O 0.98667 0.43898 0.5191 0.0
O641 O 0.95945 0.48104 0.46587 0.0
O642 O 0.05328 0.51315 0.44081 0.0
O643 O 0.966 0.51194 0.38767 0.0
C644 C 0.95194 0.51464 0.56544 0.0
C645 C 0.02468 0.46414 0.73252 0.0
C646 C 0.02883 0.4601 0.83029 0.0
C647 C 0.01878 0.47841 0.78341 0.0
C648 C 0.04448 0.42723 0.82527 0.0
C649 C 0.04039 0.43138 0.72876 0.0
C650 C 0.05015 0.41304 0.77486 0.0
C651 C 0.04117 0.55177 0.55524 0.0
C652 C 0.0149 0.48371 0.68361 0.0
C653 C 0.04683 0.33245 0.60131 0.0
C654 C 0.08057 0.34559 0.59365 0.0
C655 C 0.05423 0.4856 0.47118 0.0
C656 C 0.98232 0.53843 0.30425 0.0
C657 C 0.99083 0.52605 0.25289 0.0
C658 C 0.98284 0.54589 0.20643 0.0
C659 C 0.96609 0.57815 0.21236 0.0
C660 C 0.96557 0.57062 0.30891 0.0
C661 C 0.95754 0.59033 0.26324 0.0
C662 C 0.9649 0.44835 0.48123 0.0
C663 C 0.9912 0.51781 0.35265 0.0
H664 H 0.00694 0.50389 0.78638 0.0
H665 H 0.052 0.41226 0.86044 0.0
H666 H 0.04524 0.42 0.69025 0.0
H667 H 0.06218 0.38771 0.77151 0.0
H668 H 0.00398 0.50126 0.24919 0.0
H669 H 0.95913 0.59379 0.17756 0.0
H670 H 0.95856 0.58051 0.34776 0.0
H671 H 0.9445 0.61511 0.26729 0.0
C672 C 0.11169 0.05296 0.45888 0.0
C673 C 0.0755 0.05436 0.45351 0.0
C674 C 0.13381 0.07952 0.43791 0.0
C675 C 0.12043 0.10655 0.40415 0.0
C676 C 0.08371 0.10733 0.39686 0.0
C677 C 0.06178 0.08214 0.42312 0.0
C678 C 0.17161 0.0779 0.45269 0.0
C679 C 0.06696 0.13384 0.36016 0.0
C680 C 0.17102 0.19048 0.36032 0.0
C681 C 0.19663 0.17767 0.32479 0.0
C682 C 0.14628 0.16808 0.38666 0.0
C683 C 0.14518 0.13201 0.37453 0.0
C684 C 0.16984 0.11975 0.33578 0.0
C685 C 0.19624 0.14199 0.31458 0.0
C686 C 0.12251 0.1835 0.42885 0.0
C687 C 0.16928 0.08294 0.31631 0.0
H688 H 0.12281 0.03136 0.48134 0.0
H689 H 0.03398 0.08304 0.41704 0.0
H690 H 0.18497 0.05747 0.42927 0.0
H691 H 0.18533 0.10297 0.44583 0.0
H692 H 0.17395 0.07015 0.49562 0.0
H693 H 0.05622 0.15523 0.38459 0.0
H694 H 0.08541 0.14492 0.32946 0.0
H695 H 0.04483 0.12216 0.33928 0.0
H696 H 0.17178 0.21769 0.3705 0.0
H697 H 0.21645 0.13138 0.28863 0.0
H698 H 0.11171 0.16374 0.45768 0.0
H699 H 0.10071 0.19704 0.40882 0.0
H700 H 0.13651 0.20328 0.45173 0.0
H701 H 0.18969 0.06752 0.33662 0.0
H702 H 0.17569 0.08246 0.2727 0.0
H703 H 0.14374 0.07012 0.32341 0.0
C704 C 0.08298 0.93727 0.6419 0.0
C705 C 0.07558 0.93251 0.58772 0.0
C706 C 0.10736 0.91618 0.66862 0.0
C707 C 0.12531 0.8898 0.64046 0.0
C708 C 0.11783 0.88478 0.58581 0.0
C709 C 0.0929 0.9059 0.56043 0.0
C710 C 0.11308 0.92171 0.72737 0.0
C711 C 0.13677 0.85758 0.55364 0.0
C712 C 0.21412 0.85877 0.68719 0.0
C713 C 0.20668 0.82552 0.70857 0.0
C714 C 0.18781 0.8802 0.66618 0.0
C715 C 0.15294 0.86837 0.66702 0.0
C716 C 0.14506 0.83531 0.69043 0.0
C717 C 0.17209 0.814 0.70966 0.0
C718 C 0.19752 0.91515 0.64158 0.0
C719 C 0.10818 0.8221 0.6942 0.0
H720 H 0.06934 0.95732 0.66384 0.0
H721 H 0.08778 0.9021 0.51875 0.0
H722 H 0.09939 0.90087 0.75092 0.0
H723 H 0.14107 0.92022 0.73679 0.0
H724 H 0.10268 0.94713 0.7406 0.0
H725 H 0.12787 0.85679 0.51165 0.0
H726 H 0.16511 0.86293 0.55289 0.0
H727 H 0.13287 0.83153 0.5728 0.0
H728 H 0.24084 0.86768 0.68555 0.0
H729 H 0.16609 0.78807 0.72456 0.0
H730 H 0.18255 0.93598 0.66177 0.0
H731 H 0.19066 0.9161 0.59861 0.0
H732 H 0.2257 0.92078 0.6446 0.0
H733 H 0.09105 0.84168 0.71337 0.0
H734 H 0.10601 0.79727 0.7177 0.0
H735 H 0.09843 0.81796 0.65338 0.0
C736 C 0.32081 0.82945 0.87718 0.0
C737 C 0.32946 0.80896 0.83317 0.0
C738 C 0.34609 0.84902 0.90161 0.0
C739 C 0.38043 0.84891 0.8802 0.0
C740 C 0.38972 0.82732 0.83718 0.0
C741 C 0.36413 0.80694 0.81488 0.0
C742 C 0.33571 0.87089 0.94893 0.0
C743 C 0.42605 0.82717 0.81278 0.0
C744 C 0.42409 0.93396 0.90288 0.0
C745 C 0.44503 0.92542 0.94641 0.0
C746 C 0.40466 0.90853 0.87855 0.0
C747 C 0.40538 0.87414 0.89958 0.0
C748 C 0.42736 0.86499 0.94216 0.0
C749 C 0.44758 0.89075 0.96435 0.0
C750 C 0.38232 0.91878 0.83173 0.0
C751 C 0.42814 0.82861 0.96619 0.0
H752 H 0.29424 0.83055 0.89245 0.0
H753 H 0.37127 0.79009 0.78238 0.0
H754 H 0.35439 0.86714 0.98175 0.0
H755 H 0.33627 0.89879 0.93668 0.0
H756 H 0.30918 0.86454 0.96481 0.0
H757 H 0.43006 0.8056 0.78448 0.0
H758 H 0.43074 0.8521 0.79055 0.0
H759 H 0.44577 0.825 0.84436 0.0
H760 H 0.42255 0.96054 0.88791 0.0
H761 H 0.46477 0.88371 0.99646 0.0
H762 H 0.35449 0.9177 0.84439 0.0
H763 H 0.38619 0.90034 0.79859 0.0
H764 H 0.38815 0.94546 0.81611 0.0
H765 H 0.40337 0.8235 0.98872 0.0
H766 H 0.44994 0.82481 0.99415 0.0
H767 H 0.43043 0.80906 0.93438 0.0
C768 C 0.39384 0.03943 0.09064 0.0
C769 C 0.42709 0.04746 0.06969 0.0
C770 C 0.37166 0.06539 0.11085 0.0
C771 C 0.38264 0.10052 0.1093 0.0
C772 C 0.41566 0.10897 0.08614 0.0
C773 C 0.43783 0.08228 0.06809 0.0
C774 C 0.33695 0.05503 0.13579 0.0
C775 C 0.42789 0.14614 0.08137 0.0
C776 C 0.3123 0.16886 0.1368 0.0
C777 C 0.31821 0.17684 0.19046 0.0
C778 C 0.33347 0.14482 0.10929 0.0
C779 C 0.36089 0.12768 0.13631 0.0
C780 C 0.36688 0.13564 0.19044 0.0
C781 C 0.34594 0.16043 0.21626 0.0
C782 C 0.32704 0.1388 0.05088 0.0
C783 C 0.39503 0.11743 0.22166 0.0
H784 H 0.38556 0.01253 0.09275 0.0
H785 H 0.46378 0.08872 0.05361 0.0
H786 H 0.33596 0.06212 0.17868 0.0
H787 H 0.31572 0.06938 0.1156 0.0
H788 H 0.33197 0.02672 0.13318 0.0
H789 H 0.45262 0.1487 0.05763 0.0
H790 H 0.40777 0.1625 0.06195 0.0
H791 H 0.4319 0.15649 0.12184 0.0
H792 H 0.29147 0.18188 0.11582 0.0
H793 H 0.35097 0.16637 0.25717 0.0
H794 H 0.33018 0.11103 0.04092 0.0
H795 H 0.34639 0.15393 0.02636 0.0
H796 H 0.30067 0.14752 0.03928 0.0
H797 H 0.39084 0.08892 0.2217 0.0
H798 H 0.39574 0.12588 0.26389 0.0
H799 H 0.42081 0.1226 0.20227 0.0
C800 C 0.9056 0.95533 0.62879 0.0
C801 C 0.93116 0.94835 0.58886 0.0
C802 C 0.88491 0.92901 0.6537 0.0
C803 C 0.88646 0.89449 0.63498 0.0
C804 C 0.91242 0.8869 0.59504 0.0
C805 C 0.93588 0.91329 0.57576 0.0
C806 C 0.86121 0.93891 0.70009 0.0
C807 C 0.91404 0.85184 0.5692 0.0
C808 C 0.841 0.81662 0.70998 0.0
C809 C 0.80556 0.8238 0.70245 0.0
C810 C 0.86758 0.83959 0.69016 0.0
C811 C 0.8593 0.86791 0.65477 0.0
C812 C 0.82378 0.87256 0.6418 0.0
C813 C 0.79768 0.85203 0.66781 0.0
C814 C 0.90388 0.83489 0.71088 0.0
C815 C 0.81252 0.89933 0.60048 0.0
H816 H 0.90206 0.98172 0.6421 0.0
H817 H 0.95735 0.90645 0.54959 0.0
H818 H 0.83682 0.95014 0.68442 0.0
H819 H 0.85469 0.91642 0.72713 0.0
H820 H 0.87349 0.9592 0.7242 0.0
H821 H 0.93998 0.84698 0.55027 0.0
H822 H 0.90766 0.83007 0.59735 0.0
H823 H 0.89419 0.85117 0.53783 0.0
H824 H 0.84804 0.79346 0.73238 0.0
H825 H 0.77076 0.85786 0.65957 0.0
H826 H 0.90809 0.85438 0.74205 0.0
H827 H 0.92433 0.83967 0.67973 0.0
H828 H 0.90776 0.80852 0.72879 0.0
H829 H 0.80254 0.92267 0.62104 0.0
H830 H 0.79083 0.8891 0.57691 0.0
H831 H 0.83394 0.90714 0.57212 0.0
C832 C 0.90802 0.09394 0.47618 0.0
C833 C 0.92752 0.06962 0.44726 0.0
C834 C 0.88289 0.11499 0.45126 0.0
C835 C 0.87692 0.11172 0.39576 0.0
C836 C 0.89667 0.08727 0.36623 0.0
C837 C 0.92162 0.06657 0.39227 0.0
C838 C 0.86224 0.14032 0.48469 0.0
C839 C 0.89211 0.08336 0.30685 0.0
C840 C 0.78808 0.14194 0.34828 0.0
C841 C 0.79506 0.17583 0.32929 0.0
C842 C 0.81464 0.12046 0.3684 0.0
C843 C 0.84919 0.13308 0.3695 0.0
C844 C 0.85659 0.16688 0.34857 0.0
C845 C 0.82938 0.18803 0.32975 0.0
C846 C 0.80552 0.0846 0.39005 0.0
C847 C 0.8931 0.18114 0.34745 0.0
H848 H 0.91159 0.09586 0.51868 0.0
H849 H 0.93681 0.04817 0.36926 0.0
H850 H 0.86524 0.16702 0.46751 0.0
H851 H 0.83419 0.13374 0.48399 0.0
H852 H 0.87046 0.14023 0.52707 0.0
H853 H 0.90462 0.05933 0.29179 0.0
H854 H 0.86418 0.08297 0.29691 0.0
H855 H 0.90428 0.10595 0.28537 0.0
H856 H 0.76155 0.1325 0.34865 0.0
H857 H 0.83498 0.21441 0.31665 0.0
H858 H 0.81113 0.08272 0.43346 0.0
H859 H 0.8218 0.06485 0.36961 0.0
H860 H 0.77771 0.07818 0.3847 0.0
H861 H 0.9018 0.1845 0.38906 0.0
H862 H 0.89503 0.20657 0.32553 0.0
H863 H 0.91124 0.16257 0.328 0.0
C864 C 0.68186 0.17372 0.15921 0.0
C865 C 0.67255 0.19477 0.20226 0.0
C866 C 0.65663 0.15593 0.13175 0.0
C867 C 0.62147 0.15845 0.14899 0.0
C868 C 0.61163 0.18062 0.19104 0.0
C869 C 0.63737 0.19902 0.21672 0.0
C870 C 0.66787 0.13312 0.08595 0.0
C871 C 0.57437 0.18339 0.21102 0.0
C872 C 0.55814 0.11819 0.0563 0.0
C873 C 0.55868 0.08362 0.07518 0.0
C874 C 0.57737 0.14365 0.0813 0.0
C875 C 0.59622 0.1343 0.12735 0.0
C876 C 0.5945 0.10014 0.14914 0.0
C877 C 0.57628 0.07503 0.12216 0.0
C878 C 0.57915 0.17983 0.05662 0.0
C879 C 0.61339 0.08961 0.19945 0.0
H880 H 0.7089 0.17069 0.14712 0.0
H881 H 0.62988 0.21614 0.24878 0.0
H882 H 0.66511 0.1054 0.09852 0.0
H883 H 0.65108 0.13772 0.05095 0.0
H884 H 0.69536 0.13774 0.07305 0.0
H885 H 0.57028 0.20603 0.23725 0.0
H886 H 0.55635 0.18557 0.1771 0.0
H887 H 0.56735 0.15946 0.23449 0.0
H888 H 0.54357 0.12527 0.02121 0.0
H889 H 0.57625 0.04859 0.13785 0.0
H890 H 0.60518 0.18389 0.03734 0.0
H891 H 0.57579 0.1997 0.08778 0.0
H892 H 0.55917 0.18411 0.02574 0.0
H893 H 0.6418 0.08905 0.19074 0.0
H894 H 0.60534 0.06351 0.2151 0.0
H895 H 0.60854 0.10875 0.23132 0.0
C896 C 0.688 0.83369 0.88983 0.0
C897 C 0.68478 0.82565 0.83556 0.0
C898 C 0.66691 0.85909 0.91407 0.0
C899 C 0.64186 0.87726 0.8835 0.0
C900 C 0.63833 0.86915 0.82873 0.0
C901 C 0.65963 0.84339 0.80562 0.0
C902 C 0.67102 0.86569 0.97286 0.0
C903 C 0.61243 0.88813 0.79418 0.0
C904 C 0.56552 0.92542 0.94926 0.0
C905 C 0.57745 0.95985 0.94827 0.0
C906 C 0.58665 0.89811 0.93055 0.0
C907 C 0.6201 0.90546 0.90804 0.0
C908 C 0.63233 0.94018 0.90719 0.0
C909 C 0.61096 0.96683 0.92742 0.0
C910 C 0.57284 0.86146 0.93398 0.0
C911 C 0.66779 0.94931 0.88378 0.0
H912 H 0.70692 0.81989 0.91381 0.0
H913 H 0.65697 0.83774 0.76376 0.0
H914 H 0.67042 0.8939 0.98084 0.0
H915 H 0.64902 0.85326 0.99552 0.0
H916 H 0.69561 0.85459 0.98831 0.0
H917 H 0.6126 0.87861 0.75248 0.0
H918 H 0.58584 0.88504 0.81181 0.0
H919 H 0.61838 0.91634 0.79281 0.0
H920 H 0.5394 0.91977 0.9637 0.0
H921 H 0.6202 0.99342 0.92583 0.0
H922 H 0.59177 0.84411 0.95422 0.0
H923 H 0.5694 0.85164 0.89302 0.0
H924 H 0.54752 0.85972 0.95633 0.0
H925 H 0.6881 0.9343 0.9051 0.0
H926 H 0.67365 0.97744 0.88649 0.0
H927 H 0.6694 0.94207 0.84099 0.0
C928 C 0.59995 0.54796 0.91327 0.0
C929 C 0.57229 0.55476 0.94973 0.0
C930 C 0.62071 0.5746 0.88941 0.0
C931 C 0.61666 0.60946 0.90577 0.0
C932 C 0.58852 0.61686 0.9421 0.0
C933 C 0.56548 0.58988 0.96052 0.0
C934 C 0.64722 0.56481 0.84666 0.0
C935 C 0.58403 0.65261 0.96488 0.0
C936 C 0.70518 0.65424 0.88392 0.0
C937 C 0.69928 0.67975 0.8436 0.0
C938 C 0.67801 0.63418 0.90792 0.0
C939 C 0.64379 0.63658 0.8881 0.0
C940 C 0.63729 0.66273 0.84807 0.0
C941 C 0.66451 0.68535 0.82935 0.0
C942 C 0.6866 0.61003 0.95439 0.0
C943 C 0.60251 0.66526 0.82149 0.0
H944 H 0.60521 0.52142 0.90197 0.0
H945 H 0.54268 0.59628 0.98433 0.0
H946 H 0.65252 0.58658 0.81761 0.0
H947 H 0.67192 0.55726 0.86573 0.0
H948 H 0.63827 0.54211 0.82409 0.0
H949 H 0.55795 0.65598 0.98416 0.0
H950 H 0.60412 0.65638 0.9953 0.0
H951 H 0.58812 0.67357 0.93436 0.0
H952 H 0.73134 0.65015 0.89797 0.0
H953 H 0.65861 0.7067 0.80233 0.0
H954 H 0.69571 0.58476 0.93892 0.0
H955 H 0.66377 0.60535 0.98168 0.0
H956 H 0.70795 0.6208 0.9781 0.0
H957 H 0.60092 0.64441 0.79179 0.0
H958 H 0.59903 0.69074 0.80046 0.0
H959 H 0.58039 0.66097 0.84995 0.0
C960 C 0.71398 0.35982 0.19178 0.0
C961 C 0.70691 0.32586 0.21035 0.0
C962 C 0.68757 0.38132 0.17125 0.0
C963 C 0.65307 0.36865 0.16924 0.0
C964 C 0.64556 0.33476 0.18972 0.0
C965 C 0.67264 0.31361 0.20901 0.0
C966 C 0.69682 0.41727 0.1501 0.0
C967 C 0.60911 0.32039 0.18977 0.0
C968 C 0.58086 0.43525 0.14565 0.0
C969 C 0.57553 0.43256 0.09044 0.0
C970 C 0.60551 0.41436 0.17202 0.0
C971 C 0.62555 0.39008 0.1426 0.0
C972 C 0.62013 0.38714 0.08688 0.0
C973 C 0.59526 0.40838 0.06163 0.0
C974 C 0.60952 0.41791 0.23158 0.0
C975 C 0.64109 0.36198 0.05359 0.0
H976 H 0.74049 0.36929 0.19206 0.0
H977 H 0.66697 0.28717 0.22172 0.0
H978 H 0.69168 0.41927 0.10655 0.0
H979 H 0.68026 0.43692 0.17027 0.0
H980 H 0.72453 0.42374 0.15623 0.0
H981 H 0.59068 0.33886 0.20878 0.0
H982 H 0.60093 0.31705 0.14788 0.0
H983 H 0.60702 0.29491 0.21154 0.0
H984 H 0.56546 0.45353 0.16857 0.0
H985 H 0.59211 0.40672 0.019 0.0
H986 H 0.63737 0.41904 0.24187 0.0
H987 H 0.59796 0.39479 0.25247 0.0
H988 H 0.59622 0.44143 0.24698 0.0
H989 H 0.6691 0.3686 0.05487 0.0
H990 H 0.6332 0.36223 1.01104 0.0
H991 H 0.63801 0.33521 0.07045 0.0
C992 C 0.94739 0.38648 0.47261 0.0
C993 C 0.94542 0.42121 0.45473 0.0
C994 C 0.92715 0.36098 0.44965 0.0
C995 C 0.90571 0.37045 0.40653 0.0
C996 C 0.90555 0.40491 0.38575 0.0
C997 C 0.925 0.43003 0.41071 0.0
C998 C 0.92739 0.32449 0.47329 0.0
C999 C 0.88377 0.41557 0.33847 0.0
C1000 C 0.86435 0.30497 0.31876 0.0
C1001 C 0.82952 0.30737 0.33619 0.0
C1002 C 0.89007 0.32442 0.34264 0.0
C1003 C 0.8807 0.34557 0.38617 0.0
C1004 C 0.84612 0.34604 0.4066 0.0
C1005 C 0.82078 0.32733 0.38076 0.0
C1006 C 0.92666 0.32387 0.31925 0.0
C1007 C 0.83555 0.36755 0.45422 0.0
H1008 H 0.9641 0.37924 0.50523 0.0
H1009 H 0.92386 0.45665 0.3958 0.0
H1010 H 0.90221 0.31933 0.49462 0.0
H1011 H 0.93023 0.30514 0.44128 0.0
H1012 H 0.94863 0.32047 0.5022 0.0
H1013 H 0.8899 0.4423 0.32335 0.0
H1014 H 0.8879 0.39732 0.30515 0.0
H1015 H 0.85582 0.41459 0.35041 0.0
H1016 H 0.87154 0.28857 0.28571 0.0
H1017 H 0.79407 0.32874 0.39533 0.0
H1018 H 0.94598 0.32144 0.35136 0.0
H1019 H 0.93186 0.34875 0.29715 0.0
H1020 H 0.93072 0.30227 0.29099 0.0
H1021 H 0.85387 0.36326 0.4874 0.0
H1022 H 0.80881 0.36136 0.46935 0.0
H1023 H 0.83652 0.39554 0.44261 0.0
C1024 C 0.81785 0.66799 0.6485 0.0
C1025 C 0.82246 0.67478 0.7029 0.0
C1026 C 0.83876 0.64363 0.62146 0.0
C1027 C 0.86478 0.62512 0.64955 0.0
C1028 C 0.86961 0.63198 0.70446 0.0
C1029 C 0.84859 0.65682 0.73023 0.0
C1030 C 0.83341 0.63843 0.56254 0.0
C1031 C 0.89648 0.61244 0.73647 0.0
C1032 C 0.89508 0.5365 0.60132 0.0
C1033 C 0.92842 0.54383 0.58012 0.0
C1034 C 0.87382 0.56281 0.62271 0.0
C1035 C 0.88598 0.59754 0.62255 0.0
C1036 C 0.91914 0.60531 0.59936 0.0
C1037 C 0.94022 0.57829 0.57961 0.0
C1038 C 0.83872 0.55324 0.64703 0.0
C1039 C 0.93277 0.64203 0.59653 0.0
H1040 H 0.798 0.68206 0.62673 0.0
H1041 H 0.85195 0.66123 0.77222 0.0
H1042 H 0.85506 0.65115 0.53943 0.0
H1043 H 0.83369 0.61044 0.55301 0.0
H1044 H 0.80858 0.65001 0.5489 0.0
H1045 H 0.89736 0.62112 0.77857 0.0
H1046 H 0.89064 0.58422 0.73686 0.0
H1047 H 0.92262 0.61599 0.71742 0.0
H1048 H 0.88597 0.50986 0.6025 0.0
H1049 H 0.96623 0.58419 0.56488 0.0
H1050 H 0.81806 0.56869 0.6273 0.0
H1051 H 0.83785 0.55959 0.69022 0.0
H1052 H 0.83277 0.52521 0.6432 0.0
H1053 H 0.91335 0.65961 0.57791 0.0
H1054 H 0.95761 0.64418 0.57299 0.0
H1055 H 0.93708 0.65125 0.63761 0.0
C1056 C 0.33252 0.31133 0.1726 0.0
C1057 C 0.30685 0.32372 0.20838 0.0
C1058 C 0.35728 0.33403 0.14696 0.0
C1059 C 0.35831 0.36995 0.16006 0.0
C1060 C 0.33356 0.38175 0.19905 0.0
C1061 C 0.30716 0.35926 0.21956 0.0
C1062 C 0.38111 0.31906 0.10445 0.0
C1063 C 0.33404 0.41833 0.21951 0.0
C1064 C 0.44184 0.42013 0.11292 0.0
C1065 C 0.42819 0.44829 0.0833 0.0
C1066 C 0.41984 0.39474 0.1385 0.0
C1067 C 0.38311 0.39573 0.13125 0.0
C1068 C 0.3698 0.42319 0.09826 0.0
C1069 C 0.39201 0.44989 0.07798 0.0
C1070 C 0.43652 0.36774 0.17443 0.0
C1071 C 0.33201 0.42514 0.08349 0.0
H1072 H 0.33181 0.28426 0.16168 0.0
H1073 H 0.28691 0.36955 0.24575 0.0
H1074 H 0.39234 0.33914 0.07659 0.0
H1075 H 0.40259 0.30485 0.12422 0.0
H1076 H 0.36697 0.29993 0.08052 0.0
H1077 H 0.32744 0.41833 0.2631 0.0
H1078 H 0.3596 0.4312 0.21299 0.0
H1079 H 0.31371 0.43397 0.19942 0.0
H1080 H 0.46964 0.41906 0.11894 0.0
H1081 H 0.38095 0.47177 0.05607 0.0
H1082 H 0.41806 0.35642 0.2049 0.0
H1083 H 0.45874 0.37906 0.19555 0.0
H1084 H 0.44711 0.34658 0.14937 0.0
H1085 H 0.32971 0.43324 0.04071 0.0
H1086 H 0.31876 0.44545 0.10728 0.0
H1087 H 0.31815 0.4001 0.08987 0.0
C1088 C 0.41969 0.56526 0.89676 0.0
C1089 C 0.42702 0.56967 0.95104 0.0
C1090 C 0.39505 0.58626 0.87047 0.0
C1091 C 0.3768 0.61221 0.89915 0.0
C1092 C 0.38418 0.61684 0.95393 0.0
C1093 C 0.40932 0.59578 0.97892 0.0
C1094 C 0.38937 0.58111 0.81163 0.0
C1095 C 0.36495 0.64359 0.98661 0.0
C1096 C 0.32959 0.68805 0.83077 0.0
C1097 C 0.29508 0.67632 0.83164 0.0
C1098 C 0.35672 0.66685 0.84991 0.0
C1099 C 0.34904 0.63363 0.87289 0.0
C1100 C 0.31424 0.62158 0.87349 0.0
C1101 C 0.28782 0.64295 0.85268 0.0
C1102 C 0.3935 0.68036 0.84654 0.0
C1103 C 0.30474 0.58643 0.89758 0.0
H1104 H 0.43359 0.54558 0.87442 0.0
H1105 H 0.41434 0.59921 0.02075 0.0
H1106 H 0.36132 0.58204 0.80244 0.0
H1107 H 0.40251 0.60246 0.78846 0.0
H1108 H 0.40032 0.55606 0.79778 0.0
H1109 H 0.37386 0.64417 0.02861 0.0
H1110 H 0.36855 0.6698 0.9679 0.0
H1111 H 0.33667 0.63792 0.98729 0.0
H1112 H 0.33544 0.71408 0.81613 0.0
H1113 H 0.26115 0.63388 0.85414 0.0
H1114 H 0.41087 0.66099 0.82733 0.0
H1115 H 0.40306 0.68442 0.88749 0.0
H1116 H 0.39555 0.70529 0.82327 0.0
H1117 H 0.31992 0.56583 0.87721 0.0
H1118 H 0.27662 0.58061 0.8943 0.0
H1119 H 0.31149 0.5853 0.94059 0.0
C1120 C 0.13722 0.69524 0.72368 0.0
C1121 C 0.17189 0.69409 0.70522 0.0
C1122 C 0.11173 0.67575 0.69928 0.0
C1123 C 0.12118 0.65597 0.65424 0.0
C1124 C 0.15548 0.65701 0.63276 0.0
C1125 C 0.18061 0.67557 0.65916 0.0
C1126 C 0.0754 0.6747 0.72364 0.0
C1127 C 0.16609 0.63709 0.58347 0.0
C1128 C 0.08072 0.57028 0.62603 0.0
C1129 C 0.05974 0.57908 0.58269 0.0
C1130 C 0.09891 0.59576 0.65229 0.0
C1131 C 0.09688 0.6306 0.63348 0.0
C1132 C 0.07484 0.63996 0.59107 0.0
C1133 C 0.05597 0.61402 0.5667 0.0
C1134 C 0.12152 0.5851 0.69862 0.0
C1135 C 0.07264 0.67686 0.56942 0.0
H1136 H 0.13005 0.71054 0.75798 0.0
H1137 H 0.20716 0.67514 0.64379 0.0
H1138 H 0.05568 0.6775 0.69217 0.0
H1139 H 0.07109 0.64913 0.74418 0.0
H1140 H 0.0711 0.69537 0.75344 0.0
H1141 H 0.19234 0.64464 0.56774 0.0
H1142 H 0.16637 0.60885 0.59344 0.0
H1143 H 0.14711 0.64146 0.55121 0.0
H1144 H 0.08334 0.54344 0.63933 0.0
H1145 H 0.03888 0.62116 0.53446 0.0
H1146 H 0.11701 0.60255 0.73287 0.0
H1147 H 0.14931 0.58737 0.68609 0.0
H1148 H 0.11657 0.55791 0.71263 0.0
H1149 H 0.07035 0.69551 0.6025 0.0
H1150 H 0.05028 0.6807 0.54255 0.0
H1151 H 0.09687 0.68321 0.5462 0.0
C1152 C 0.19202 0.33333 0.39418 0.0
C1153 C 0.18691 0.32603 0.34006 0.0
C1154 C 0.1712 0.35791 0.42114 0.0
C1155 C 0.14481 0.37607 0.39324 0.0
C1156 C 0.13969 0.36885 0.33859 0.0
C1157 C 0.1605 0.34382 0.31311 0.0
C1158 C 0.17687 0.36345 0.47987 0.0
C1159 C 0.11253 0.388 0.30658 0.0
C1160 C 0.0676 0.42202 0.45968 0.0
C1161 C 0.07861 0.45674 0.45839 0.0
C1162 C 0.08971 0.39518 0.44206 0.0
C1163 C 0.12308 0.40336 0.41999 0.0
C1164 C 0.13443 0.43837 0.41906 0.0
C1165 C 0.11217 0.46452 0.4385 0.0
C1166 C 0.07695 0.35816 0.44577 0.0
C1167 C 0.16961 0.44841 0.39556 0.0
H1168 H 0.21194 0.31939 0.4159 0.0
H1169 H 0.15646 0.33879 0.27159 0.0
H1170 H 0.17474 0.39131 0.48979 0.0
H1171 H 0.1565 0.34909 0.50348 0.0
H1172 H 0.20264 0.35359 0.49253 0.0
H1173 H 0.11216 0.37975 0.26423 0.0
H1174 H 0.08637 0.38351 0.32509 0.0
H1175 H 0.11753 0.41637 0.30696 0.0
H1176 H 0.04144 0.41578 0.47342 0.0
H1177 H 0.12067 0.49136 0.4367 0.0
H1178 H 0.09668 0.34129 0.46512 0.0
H1179 H 0.07307 0.34833 0.40493 0.0
H1180 H 0.05203 0.35572 0.46906 0.0
H1181 H 0.19031 0.43335 0.41589 0.0
H1182 H 0.17506 0.47655 0.39933 0.0
H1183 H 0.17102 0.44195 0.35243 0.0
C1184 C 0.98876 0.06293 0.91791 0.0
C1185 C 0.00639 0.04288 0.87955 0.0
C1186 C 0.98555 0.05162 0.97178 0.0
C1187 C 1.00042 0.01948 0.98792 0.0
C1188 C 0.01805 0.99898 0.94935 0.0
C1189 C 0.02073 0.01088 0.89565 0.0
C1190 C 0.96621 0.07406 1.01144 0.0
C1191 C 0.03429 0.96457 0.96491 0.0
C1192 C 0.01945 1.00198 0.1355 0.0
C1193 C 0.99174 0.98022 0.15156 0.0
C1194 C 0.02239 0.01537 0.08256 0.0
C1195 C 0.99692 0.00692 0.0449 0.0
C1196 C 0.96834 0.98586 0.06144 0.0
C1197 C 0.9661 0.97282 0.11444 0.0
C1198 C 0.05323 0.03779 0.06652 0.0
C1199 C 0.94042 0.9765 0.02284 0.0
H1200 H 0.97721 0.08748 0.90566 0.0
H1201 H 0.03474 0.99544 0.86643 0.0
H1202 H 0.94393 0.05947 0.02982 0.0
H1203 H 0.98356 0.08095 0.04441 0.0
H1204 H 0.95626 0.09841 0.99253 0.0
H1205 H 0.0473 0.95186 0.93027 0.0
H1206 H 0.05373 0.9684 0.99633 0.0
H1207 H 0.0141 0.94675 0.98216 0.0
H1208 H 0.03947 0.0076 0.16383 0.0
H1209 H 0.94431 0.95645 0.12681 0.0
H1210 H 0.04429 0.06295 0.04909 0.0
H1211 H 0.06909 0.02479 0.03509 0.0
H1212 H 0.07005 0.04304 0.10095 0.0
H1213 H 0.92894 1.00041 1.0049 0.0
H1214 H 0.91926 0.96086 0.0425 0.0
H1215 H 0.95197 0.96141 0.98948 0.0
C1216 C 0.28236 0.70605 0.36512 0.0
C1217 C 0.27842 0.73181 0.40371 0.0
C1218 C 0.27054 0.71129 0.31271 0.0
C1219 C 0.25441 0.74313 0.29827 0.0
C1220 C 0.24987 0.76908 0.33722 0.0
C1221 C 0.26183 0.76307 0.3895 0.0
C1222 C 0.27554 0.6828 0.27267 0.0
C1223 C 0.23285 0.8034 0.32342 0.0
C1224 C 0.25316 0.76992 0.15014 0.0
C1225 C 0.21899 0.76171 0.13684 0.0
C1226 C 0.26504 0.764 0.20247 0.0
C1227 C 0.24231 0.74927 0.2424 0.0
C1228 C 0.208 0.74034 0.2289 0.0
C1229 C 0.19676 0.74673 0.17642 0.0
C1230 C 0.30178 0.77399 0.21525 0.0
C1231 C 0.18307 0.7242 0.27001 0.0
H1232 H 0.29469 0.68162 0.376 0.0
H1233 H 0.25898 0.78321 0.4189 0.0
H1234 H 0.25007 0.67524 0.25667 0.0
H1235 H 0.2919 0.69235 0.23818 0.0
H1236 H 0.28805 0.65934 0.29049 0.0
H1237 H 0.2309 0.8207 0.35837 0.0
H1238 H 0.24797 0.81693 0.29074 0.0
H1239 H 0.20635 0.79901 0.30848 0.0
H1240 H 0.27035 0.78182 0.11993 0.0
H1241 H 0.17046 0.7399 0.16626 0.0
H1242 H 0.31609 0.75095 0.23075 0.0
H1243 H 0.3014 0.79353 0.24722 0.0
H1244 H 0.31627 0.78493 0.17967 0.0
H1245 H 0.19426 0.69981 0.28681 0.0
H1246 H 0.15744 0.71825 0.25289 0.0
H1247 H 0.17891 0.74205 0.30383 0.0
C1248 C 0.50626 0.05835 0.60316 0.0
C1249 C 0.49171 0.0359 0.64279 0.0
C1250 C 0.51275 0.04721 0.55065 0.0
C1251 C 0.50436 0.01277 0.5372 0.0
C1252 C 0.49009 0.98981 0.57718 0.0
C1253 C 0.48406 1.00161 0.62954 0.0
C1254 C 0.52838 0.07239 0.50945 0.0
C1255 C 0.4807 0.95293 0.56443 0.0
C1256 C 0.49042 0.99299 0.39029 0.0
C1257 C 0.5219 0.97689 0.37582 0.0
C1258 C 0.48438 0.00488 0.4426 0.0
C1259 C 0.51054 1.00079 0.48129 0.0
C1260 C 0.54262 0.98518 0.46657 0.0
C1261 C 0.54788 0.9734 0.41414 0.0
C1262 C 0.44979 0.02132 0.45672 0.0
C1263 C 0.57134 0.98069 0.50634 0.0
H1264 H 0.51265 0.08475 0.61331 0.0
H1265 H 0.47249 0.98424 0.6598 0.0
H1266 H 0.55292 0.0616 0.49242 0.0
H1267 H 0.51035 0.07625 0.4758 0.0
H1268 H 0.53397 0.09808 0.52658 0.0
H1269 H 0.4701 0.93826 0.60008 0.0
H1270 H 0.46105 0.95296 0.53263 0.0
H1271 H 0.50395 0.93902 0.54872 0.0
H1272 H 0.47012 0.99548 0.36108 0.0
H1273 H 0.57248 0.96145 0.40303 0.0
H1274 H 0.45381 0.04788 0.47166 0.0
H1275 H 0.4366 0.006 0.48949 0.0
H1276 H 0.43235 0.02299 0.42193 0.0
H1277 H 0.57851 0.00626 0.52233 0.0
H1278 H 0.59498 0.9686 0.48829 0.0
H1279 H 0.56217 0.96415 0.54088 0.0
C1280 C 0.24865 0.23437 0.88715 0.0
C1281 C 0.21823 0.25236 0.90167 0.0
C1282 C 0.26166 0.23537 0.83389 0.0
C1283 C 0.24397 0.25503 0.79421 0.0
C1284 C 0.21361 0.27374 0.80887 0.0
C1285 C 0.2011 0.27212 0.86228 0.0
C1286 C 0.29407 0.21498 0.81992 0.0
C1287 C 0.19419 0.29535 0.76805 0.0
C1288 C 0.29448 0.28228 0.66694 0.0
C1289 C 0.28342 0.25784 0.63015 0.0
C1290 C 0.28171 0.28179 0.72021 0.0
C1291 C 0.25729 0.25617 0.73741 0.0
C1292 C 0.24561 0.23172 0.70032 0.0
C1293 C 0.25871 0.23292 0.6471 0.0
C1294 C 0.29453 0.30861 0.75818 0.0
C1295 C 0.21965 0.20394 0.71707 0.0
H1296 H 0.26182 0.21876 0.91719 0.0
H1297 H 0.17783 0.28647 0.87333 0.0
H1298 H 0.28818 0.19558 0.78926 0.0
H1299 H 0.31428 0.23261 0.80225 0.0
H1300 H 0.3049 0.20118 0.85541 0.0
H1301 H 0.17127 0.30874 0.78606 0.0
H1302 H 0.21176 0.31519 0.7492 0.0
H1303 H 0.1852 0.27861 0.73561 0.0
H1304 H 0.31318 0.30195 0.65395 0.0
H1305 H 0.25027 0.21378 0.61909 0.0
H1306 H 0.30754 0.29557 0.7924 0.0
H1307 H 0.27225 0.32352 0.77494 0.0
H1308 H 0.31314 0.32713 0.73832 0.0
H1309 H 0.23036 0.18741 0.74979 0.0
H1310 H 0.21292 0.18709 0.68334 0.0
H1311 H 0.19546 0.21605 0.73303 0.0
C1312 C 0.76121 0.26306 0.88894 0.0
C1313 C 0.77726 0.23158 0.90351 0.0
C1314 C 0.74907 0.26893 0.83675 0.0
C1315 C 0.75285 0.24261 0.79824 0.0
C1316 C 0.76838 0.21054 0.81307 0.0
C1317 C 0.78042 0.20545 0.86539 0.0
C1318 C 0.73271 0.30351 0.82253 0.0
C1319 C 0.77254 0.18165 0.77352 0.0
C1320 C 0.69487 0.24647 0.67677 0.0
C1321 C 0.71727 0.26072 0.63676 0.0
C1322 C 0.70613 0.2403 0.7293 0.0
C1323 C 0.74066 0.24863 0.74239 0.0
C1324 C 0.76356 0.26263 0.70206 0.0
C1325 C 0.75163 0.2684 0.64973 0.0
C1326 C 0.68099 0.225 0.77087 0.0
C1327 C 0.80055 0.27194 0.7144 0.0
H1328 H 0.75897 0.28348 0.91799 0.0
H1329 H 0.79232 0.18086 0.87656 0.0
H1330 H 0.74801 0.31653 0.78957 0.0
H1331 H 0.70607 0.29955 0.80782 0.0
H1332 H 0.73121 0.32106 0.85721 0.0
H1333 H 0.78456 0.15803 0.79165 0.0
H1334 H 0.74684 0.17457 0.75785 0.0
H1335 H 0.78901 0.19058 0.73875 0.0
H1336 H 0.66842 0.24001 0.66691 0.0
H1337 H 0.76897 0.27975 0.61923 0.0
H1338 H 0.67744 0.24312 0.80447 0.0
H1339 H 0.69166 0.20042 0.78788 0.0
H1340 H 0.65514 0.21958 0.75409 0.0
H1341 H 0.80071 0.29166 0.74609 0.0
H1342 H 0.81513 0.28238 0.67856 0.0
H1343 H 0.81444 0.24869 0.73009 0.0
C1344 C 0.72095 0.78999 0.37199 0.0
C1345 C 0.744 0.77667 0.41005 0.0
C1346 C 0.72631 0.78409 0.31717 0.0
C1347 C 0.7555 0.76446 0.30008 0.0
C1348 C 0.7775 0.74894 0.33861 0.0
C1349 C 0.77146 0.75522 0.39325 0.0
C1350 C 0.70205 0.80078 0.27742 0.0
C1351 C 0.80882 0.72771 0.32197 0.0
C1352 C 0.7659 0.73786 0.15454 0.0
C1353 C 0.78873 0.76353 0.1341 0.0
C1354 C 0.75434 0.73793 0.20847 0.0
C1355 C 0.76581 0.76438 0.24228 0.0
C1356 C 0.78796 0.79093 0.22119 0.0
C1357 C 0.79911 0.79017 0.16742 0.0
C1358 C 0.73072 0.70923 0.22962 0.0
C1359 C 0.80051 0.81984 0.25573 0.0
H1360 H 0.69927 0.80602 0.38501 0.0
H1361 H 0.78937 0.74491 0.42252 0.0
H1362 H 0.71556 0.82265 0.25597 0.0
H1363 H 0.69452 0.78193 0.24689 0.0
H1364 H 0.6781 0.81103 0.29725 0.0
H1365 H 0.8205 0.7137 0.3566 0.0
H1366 H 0.80171 0.70851 0.2917 0.0
H1367 H 0.82884 0.74511 0.30315 0.0
H1368 H 0.75806 0.71712 0.12886 0.0
H1369 H 0.81637 0.81031 0.15142 0.0
H1370 H 0.70739 0.72032 0.24992 0.0
H1371 H 0.74449 0.69319 0.25996 0.0
H1372 H 0.72218 0.69207 0.19732 0.0
H1373 H 0.778 0.83384 0.27365 0.0
H1374 H 0.81704 0.83889 0.23277 0.0
H1375 H 0.81578 0.8088 0.28925 0.0
C1376 C 0.5141 0.44053 0.61901 0.0
C1377 C 0.49669 0.4606 0.65757 0.0
C1378 C 0.51739 0.45201 0.56522 0.0
C1379 C 0.50288 0.48437 0.54938 0.0
C1380 C 0.48548 0.50489 0.58814 0.0
C1381 C 0.48267 0.49281 0.64174 0.0
C1382 C 0.53645 0.4295 0.52534 0.0
C1383 C 0.46963 0.53955 0.5729 0.0
C1384 C 0.53786 0.53085 0.42307 0.0
C1385 C 0.51219 0.52379 0.38582 0.0
C1386 C 0.53537 0.51782 0.47607 0.0
C1387 C 0.5065 0.49711 0.49249 0.0
C1388 C 0.48094 0.48907 0.45475 0.0
C1389 C 0.48413 0.50245 0.40182 0.0
C1390 C 0.56337 0.52675 0.51477 0.0
C1391 C 0.44981 0.46702 0.47065 0.0
H1392 H 0.52542 0.41582 0.63102 0.0
H1393 H 0.46883 0.50829 0.6711 0.0
H1394 H 0.51903 0.42298 0.49229 0.0
H1395 H 0.55892 0.44389 0.50712 0.0
H1396 H 0.54611 0.40495 0.54401 0.0
H1397 H 0.45679 0.55227 0.60768 0.0
H1398 H 0.49002 0.55719 0.55578 0.0
H1399 H 0.45013 0.53608 0.54147 0.0
H1400 H 0.55993 0.54685 0.41077 0.0
H1401 H 0.46408 0.4971 0.37343 0.0
H1402 H 0.57466 0.50265 0.5324 0.0
H1403 H 0.55196 0.54175 0.54833 0.0
H1404 H 0.58466 0.5423 0.49528 0.0
H1405 H 0.45843 0.44166 0.48775 0.0
H1406 H 0.43286 0.46218 0.43622 0.0
H1407 H 0.43419 0.48007 0.50229 0.0
C1408 C 0.0491 0.47207 0.92289 0.0
C1409 C 0.02306 0.47478 0.88455 0.0
C1410 C 0.04353 0.48387 0.97526 0.0
C1411 C 0.01107 0.49873 0.9899 0.0
C1412 C 0.98486 0.5021 0.95116 0.0
C1413 C 0.99121 0.4902 0.89892 0.0
C1414 C 0.07232 0.48015 1.01506 0.0
C1415 C 0.94989 0.51776 0.96518 0.0
C1416 C 0.98456 0.49881 0.13823 0.0
C1417 C 0.99149 0.53322 0.15167 0.0
C1418 C 0.9908 0.48723 0.08578 0.0
C1419 C 0.00453 0.51055 0.04585 0.0
C1420 C 0.01212 0.54515 0.05944 0.0
C1421 C 0.00548 0.55605 0.11206 0.0
C1422 C 0.98228 0.45015 0.07291 0.0
C1423 C 0.02712 0.57074 0.0183 0.0
H1424 H 0.07398 0.46066 0.91187 0.0
H1425 H 0.97087 0.4921 0.8697 0.0
H1426 H 0.07878 0.5059 0.03111 0.0
H1427 H 0.06356 0.46337 0.04956 0.0
H1428 H 0.09629 0.4687 0.99703 0.0
H1429 H 0.93249 0.51908 0.9303 0.0
H1430 H 0.93697 0.50209 0.99782 0.0
H1431 H 0.95326 0.54437 0.98025 0.0
H1432 H 0.97342 0.48112 0.16842 0.0
H1433 H 0.01135 0.58256 0.1223 0.0
H1434 H 0.00587 0.43679 0.05728 0.0
H1435 H 0.9627 0.44975 0.04102 0.0
H1436 H 0.97194 0.43523 0.10848 0.0
H1437 H 0.05198 0.56063 1.00137 0.0
H1438 H 0.03196 0.59659 0.03545 0.0
H1439 H 0.00907 0.5741 0.98457 0.0
loop_
_geom_bond_atom_site_label_1
_geom_bond_atom_site_label_2
_geom_bond_distance
_geom_bond_site_symmetry_2
_ccdc_geom_bond_type
Eu0 N31 2.647 1_455 S
Eu0 N38 2.609 1_455 S
Eu0 O44 2.564 . S
Eu0 O45 2.616 1_565 S
Eu0 O47 2.331 1_465 S
Eu0 O48 2.571 1_565 S
Eu0 O49 2.417 1_455 S
Eu0 O51 2.376 1_455 S
Eu0 O52 2.440 . S
Eu0 C64 2.849 . S
C1 C4 1.429 . S
C1 C5 1.411 . S
C1 N8 1.377 . S
C2 C4 1.420 . S
C2 C6 1.423 . S
C2 C14 1.392 . S
C3 C5 1.420 . S
C3 C6 1.351 . S
C3 H26 0.931 . S
C4 C1 1.429 . S
C4 C2 1.420 . S
C4 N12 1.362 . S
C5 C1 1.411 . S
C5 C3 1.420 . S
C5 C10 1.395 . S
C6 C2 1.423 . S
C6 C3 1.351 . S
C6 H18 0.930 . S
C7 C9 1.400 . S
C7 C10 1.386 1_655 S
C7 H19 0.930 . S
N8 C1 1.377 . S
N8 C9 1.321 1_455 S
N8 Eu11 2.609 1_455 S
C9 C7 1.400 . S
C9 N8 1.321 1_655 S
C9 H16 0.930 . S
C10 C5 1.395 . S
C10 C7 1.386 1_455 S
C10 H29 0.931 . S
Eu11 N8 2.609 1_655 S
Eu11 N12 2.654 1_655 S
Eu11 O45 2.379 1_655 S
Eu11 O46 2.434 . S
Eu11 O50 2.560 . S
Eu11 O51 2.613 1_545 S
Eu11 O53 2.336 1_645 S
Eu11 O54 2.566 1_545 S
Eu11 O55 2.418 1_655 S
Eu11 C75 2.848 . S
N12 C4 1.362 . S
N12 Eu11 2.654 1_455 S
N12 C13 1.334 . S
C13 N12 1.334 . S
C13 C15 1.413 . S
C13 H20 0.929 . S
C14 C2 1.392 . S
C14 C15 1.367 . S
C14 H22 0.930 . S
C15 C13 1.413 . S
C15 C14 1.367 . S
C15 H17 0.930 . S
H16 C9 0.930 . S
H17 C15 0.930 . S
H18 C6 0.930 . S
H19 C7 0.930 . S
H20 C13 0.929 . S
H21 C35 0.930 . S
H22 C14 0.930 . S
H23 C41 0.930 . S
H24 C32 0.929 . S
H25 C39 0.930 . S
H26 C3 0.931 . S
H27 C33 0.930 . S
H28 C66 0.930 . S
H29 C10 0.931 . S
H30 C65 0.931 . S
N31 Eu0 2.647 1_655 S
N31 C32 1.334 . S
N31 C36 1.362 . S
C32 H24 0.929 . S
C32 N31 1.334 . S
C32 C35 1.413 . S
C33 H27 0.930 . S
C33 C34 1.392 . S
C33 C35 1.367 . S
C34 C33 1.392 . S
C34 C36 1.420 . S
C34 C66 1.423 . S
C35 H21 0.930 . S
C35 C32 1.413 . S
C35 C33 1.367 . S
C36 N31 1.362 . S
C36 C34 1.420 . S
C36 C40 1.429 . S
H37 C42 0.930 . S
N38 Eu0 2.609 1_655 S
N38 C40 1.377 . S
N38 C41 1.321 1_655 S
C39 H25 0.930 . S
C39 C41 1.400 . S
C39 C42 1.386 1_455 S
C40 C36 1.429 . S
C40 N38 1.377 . S
C40 C43 1.411 . S
C41 H23 0.930 . S
C41 N38 1.321 1_455 S
C41 C39 1.400 . S
C42 H37 0.930 . S
C42 C39 1.386 1_655 S
C42 C43 1.395 . S
C43 C40 1.411 . S
C43 C42 1.395 . S
C43 C65 1.420 . S
O44 Eu0 2.564 . S
O44 C64 1.257 . S
O45 Eu0 2.616 1_545 S
O45 Eu11 2.379 1_455 S
O45 C56 1.276 . S
O46 Eu11 2.434 . S
O46 C63 1.264 . S
O47 Eu0 2.331 1_645 S
O47 C63 1.254 . S
O48 Eu0 2.571 1_545 S
O48 C56 1.235 . S
O49 Eu0 2.417 1_655 S
O49 C64 1.249 1_655 S
O50 Eu11 2.560 . S
O50 C75 1.257 . S
O51 Eu0 2.376 1_655 S
O51 Eu11 2.613 1_565 S
O51 C67 1.276 . S
O52 Eu0 2.440 . S
O52 C74 1.264 . S
O53 Eu11 2.336 1_465 S
O53 C74 1.254 . S
O54 Eu11 2.566 1_565 S
O54 C67 1.235 . S
O55 Eu11 2.418 1_455 S
O55 C75 1.249 1_455 S
C56 O45 1.276 . S
C56 O48 1.235 . S
C57 C59 1.393 . S
C57 C61 1.395 . S
C57 C64 1.492 . S
C58 C59 1.392 . S
C58 C60 1.386 . S
C59 C57 1.393 . S
C59 C58 1.392 . S
C59 H76 0.930 1_465 S
C60 C58 1.386 . S
C60 C62 1.395 . S
C60 H77 0.930 . S
C61 C57 1.395 . S
C61 C62 1.379 . S
C61 H78 0.930 . S
C62 C60 1.395 . S
C62 C61 1.379 . S
C62 H79 0.930 . S
C63 O46 1.264 . S
C63 O47 1.254 . S
C64 Eu0 2.849 . S
C64 O44 1.257 . S
C64 O49 1.249 1_455 S
C64 C57 1.492 . S
C65 H30 0.931 . S
C65 C43 1.420 . S
C65 C66 1.351 . S
C66 H28 0.930 . S
C66 C34 1.423 . S
C66 C65 1.351 . S
C67 O51 1.276 . S
C67 O54 1.235 . S
C68 C69 1.393 . S
C68 C72 1.395 . S
C68 C75 1.492 . S
C69 C68 1.393 . S
C69 C70 1.392 . S
C69 H80 0.930 1_645 S
C70 C69 1.392 . S
C70 C71 1.386 . S
C71 C70 1.386 . S
C71 C73 1.395 . S
C71 H81 0.930 . S
C72 C68 1.395 . S
C72 C73 1.379 . S
C72 H82 0.930 . S
C73 C71 1.395 . S
C73 C72 1.379 . S
C73 H83 0.930 . S
C74 O52 1.264 . S
C74 O53 1.254 . S
C75 Eu11 2.848 . S
C75 O50 1.257 . S
C75 O55 1.249 1_655 S
C75 C68 1.492 . S
H76 C59 0.930 1_645 S
H77 C60 0.930 . S
H78 C61 0.930 . S
H79 C62 0.930 . S
H80 C69 0.930 1_465 S
H81 C71 0.930 . S
H82 C72 0.930 . S
H83 C73 0.930 . S
Eu84 N115 2.657 . S
Eu84 N122 2.609 . S
Eu84 O128 2.558 . S
Eu84 O129 2.612 . S
Eu84 O131 2.339 . S
Eu84 O132 2.563 . S
Eu84 O133 2.419 . S
Eu84 O135 2.380 . S
Eu84 O136 2.432 . S
Eu84 C148 2.848 . S
C85 C88 1.429 . S
C85 C89 1.411 . S
C85 N92 1.377 . S
C86 C88 1.420 . S
C86 C90 1.423 . S
C86 C98 1.392 . S
C87 C89 1.420 . S
C87 C90 1.351 . S
C87 H110 0.931 . S
C88 C85 1.429 . S
C88 C86 1.420 . S
C88 N96 1.362 . S
C89 C85 1.411 . S
C89 C87 1.420 . S
C89 C94 1.395 . S
C90 C86 1.423 . S
C90 C87 1.351 . S
C90 H102 0.930 . S
C91 C93 1.400 . S
C91 C94 1.386 . S
C91 H103 0.930 . S
N92 C85 1.377 . S
N92 C93 1.321 . S
N92 Eu95 2.609 . S
C93 C91 1.400 . S
C93 N92 1.321 . S
C93 H100 0.930 . S
C94 C89 1.395 . S
C94 C91 1.386 . S
C94 H113 0.930 . S
Eu95 N92 2.609 . S
Eu95 N96 2.657 . S
Eu95 O129 2.380 . S
Eu95 O130 2.432 . S
Eu95 O134 2.558 . S
Eu95 O135 2.612 . S
Eu95 O137 2.339 . S
Eu95 O138 2.563 . S
Eu95 O139 2.419 . S
Eu95 C159 2.848 . S
N96 C88 1.362 . S
N96 Eu95 2.657 . S
N96 C97 1.334 . S
C97 N96 1.334 . S
C97 C99 1.413 . S
C97 H104 0.929 . S
C98 C86 1.392 . S
C98 C99 1.367 . S
C98 H106 0.930 . S
C99 C97 1.413 . S
C99 C98 1.367 . S
C99 H101 0.930 . S
H100 C93 0.930 . S
H101 C99 0.930 . S
H102 C90 0.930 . S
H103 C91 0.930 . S
H104 C97 0.929 . S
H105 C119 0.930 . S
H106 C98 0.930 . S
H107 C125 0.930 . S
H108 C116 0.929 . S
H109 C123 0.930 . S
H110 C87 0.931 . S
H111 C117 0.930 . S
H112 C150 0.930 . S
H113 C94 0.930 . S
H114 C149 0.931 . S
N115 Eu84 2.657 . S
N115 C116 1.334 . S
N115 C120 1.362 . S
C116 H108 0.929 . S
C116 N115 1.334 . S
C116 C119 1.413 . S
C117 H111 0.930 . S
C117 C118 1.392 . S
C117 C119 1.367 . S
C118 C117 1.392 . S
C118 C120 1.420 . S
C118 C150 1.423 . S
C119 H105 0.930 . S
C119 C116 1.413 . S
C119 C117 1.367 . S
C120 N115 1.362 . S
C120 C118 1.420 . S
C120 C124 1.429 . S
H121 C126 0.930 . S
N122 Eu84 2.609 . S
N122 C124 1.377 . S
N122 C125 1.321 . S
C123 H109 0.930 . S
C123 C125 1.400 . S
C123 C126 1.386 . S
C124 C120 1.429 . S
C124 N122 1.377 . S
C124 C127 1.411 . S
C125 H107 0.930 . S
C125 N122 1.321 . S
C125 C123 1.400 . S
C126 H121 0.930 . S
C126 C123 1.386 . S
C126 C127 1.395 . S
C127 C124 1.411 . S
C127 C126 1.395 . S
C127 C149 1.420 . S
O128 Eu84 2.558 . S
O128 C148 1.257 . S
O129 Eu84 2.612 . S
O129 Eu95 2.380 . S
O129 C140 1.276 . S
O130 Eu95 2.432 . S
O130 C147 1.264 . S
O131 Eu84 2.339 . S
O131 C147 1.254 . S
O132 Eu84 2.563 . S
O132 C140 1.235 . S
O133 Eu84 2.419 . S
O133 C148 1.249 . S
O134 Eu95 2.558 . S
O134 C159 1.257 . S
O135 Eu84 2.380 . S
O135 Eu95 2.612 . S
O135 C151 1.276 . S
O136 Eu84 2.432 . S
O136 C158 1.264 . S
O137 Eu95 2.339 . S
O137 C158 1.254 . S
O138 Eu95 2.563 . S
O138 C151 1.235 . S
O139 Eu95 2.419 . S
O139 C159 1.249 . S
C140 O129 1.276 . S
C140 O132 1.235 . S
C141 C143 1.393 . S
C141 C145 1.395 . S
C141 C148 1.492 . S
C142 C143 1.392 . S
C142 C144 1.386 . S
C143 C141 1.393 . S
C143 C142 1.392 . S
C143 H160 0.930 . S
C144 C142 1.386 . S
C144 C146 1.395 . S
C144 H161 0.930 . S
C145 C141 1.395 . S
C145 C146 1.379 . S
C145 H162 0.930 . S
C146 C144 1.395 . S
C146 C145 1.379 . S
C146 H163 0.930 . S
C147 O130 1.264 . S
C147 O131 1.254 . S
C148 Eu84 2.848 . S
C148 O128 1.257 . S
C148 O133 1.249 . S
C148 C141 1.492 . S
C149 H114 0.931 . S
C149 C127 1.420 . S
C149 C150 1.351 . S
C150 H112 0.930 . S
C150 C118 1.423 . S
C150 C149 1.351 . S
C151 O135 1.276 . S
C151 O138 1.235 . S
C152 C153 1.393 1_556 S
C152 C156 1.395 1_556 S
C152 C159 1.492 . S
C153 C152 1.393 1_554 S
C153 C154 1.392 . S
C153 H164 0.930 1_554 S
C154 C153 1.392 . S
C154 C155 1.386 . S
C155 C154 1.386 . S
C155 C157 1.395 . S
C155 H165 0.930 . S
C156 C152 1.395 1_554 S
C156 C157 1.379 . S
C156 H166 0.930 1_554 S
C157 C155 1.395 . S
C157 C156 1.379 . S
C157 H167 0.930 . S
C158 O136 1.264 . S
C158 O137 1.254 . S
C159 Eu95 2.848 . S
C159 O134 1.257 . S
C159 O139 1.249 . S
C159 C152 1.492 . S
H160 C143 0.930 . S
H161 C144 0.930 . S
H162 C145 0.930 . S
H163 C146 0.930 . S
H164 C153 0.930 1_556 S
H165 C155 0.930 . S
H166 C156 0.930 1_556 S
H167 C157 0.930 . S
Eu168 N199 2.657 . S
Eu168 N206 2.609 . S
Eu168 O212 2.558 . S
Eu168 O213 2.612 1_565 S
Eu168 O215 2.339 1_565 S
Eu168 O216 2.563 1_565 S
Eu168 O217 2.419 . S
Eu168 O219 2.380 1_554 S
Eu168 O220 2.432 . S
Eu168 C232 2.848 . S
C169 C172 1.429 . S
C169 C173 1.411 . S
C169 N176 1.377 . S
C170 C172 1.420 . S
C170 C174 1.423 . S
C170 C182 1.392 . S
C171 C173 1.420 . S
C171 C174 1.351 . S
C171 H194 0.931 . S
C172 C169 1.429 . S
C172 C170 1.420 . S
C172 N180 1.362 . S
C173 C169 1.411 . S
C173 C171 1.420 . S
C173 C178 1.395 . S
C174 C170 1.423 . S
C174 C171 1.351 . S
C174 H186 0.930 . S
C175 C177 1.400 . S
C175 C178 1.386 . S
C175 H187 0.930 . S
N176 C169 1.377 . S
N176 C177 1.321 . S
N176 Eu179 2.609 . S
C177 C175 1.400 . S
C177 N176 1.321 . S
C177 H184 0.930 . S
C178 C173 1.395 . S
C178 C175 1.386 . S
C178 H197 0.930 . S
Eu179 N176 2.609 . S
Eu179 N180 2.657 . S
Eu179 O213 2.380 1_556 S
Eu179 O214 2.432 . S
Eu179 O218 2.558 . S
Eu179 O219 2.612 1_545 S
Eu179 O221 2.339 1_545 S
Eu179 O222 2.563 1_545 S
Eu179 O223 2.419 . S
Eu179 C243 2.848 . S
N180 C172 1.362 . S
N180 Eu179 2.657 . S
N180 C181 1.334 . S
C181 N180 1.334 . S
C181 C183 1.413 . S
C181 H188 0.929 . S
C182 C170 1.392 . S
C182 C183 1.367 . S
C182 H190 0.930 . S
C183 C181 1.413 . S
C183 C182 1.367 . S
C183 H185 0.930 . S
H184 C177 0.930 . S
H185 C183 0.930 . S
H186 C174 0.930 . S
H187 C175 0.930 . S
H188 C181 0.929 . S
H189 C203 0.930 . S
H190 C182 0.930 . S
H191 C209 0.930 . S
H192 C200 0.929 . S
H193 C207 0.930 . S
H194 C171 0.931 . S
H195 C201 0.930 . S
H196 C234 0.930 . S
H197 C178 0.930 . S
H198 C233 0.931 . S
N199 Eu168 2.657 . S
N199 C200 1.334 . S
N199 C204 1.362 . S
C200 H192 0.929 . S
C200 N199 1.334 . S
C200 C203 1.413 . S
C201 H195 0.930 . S
C201 C202 1.392 . S
C201 C203 1.367 . S
C202 C201 1.392 . S
C202 C204 1.420 . S
C202 C234 1.423 . S
C203 H189 0.930 . S
C203 C200 1.413 . S
C203 C201 1.367 . S
C204 N199 1.362 . S
C204 C202 1.420 . S
C204 C208 1.429 . S
H205 C210 0.930 . S
N206 Eu168 2.609 . S
N206 C208 1.377 . S
N206 C209 1.321 . S
C207 H193 0.930 . S
C207 C209 1.400 . S
C207 C210 1.386 . S
C208 C204 1.429 . S
C208 N206 1.377 . S
C208 C211 1.411 . S
C209 H191 0.930 . S
C209 N206 1.321 . S
C209 C207 1.400 . S
C210 H205 0.930 . S
C210 C207 1.386 . S
C210 C211 1.395 . S
C211 C208 1.411 . S
C211 C210 1.395 . S
C211 C233 1.420 . S
O212 Eu168 2.558 . S
O212 C232 1.257 . S
O213 Eu168 2.612 1_545 S
O213 Eu179 2.380 1_554 S
O213 C224 1.276 . S
O214 Eu179 2.432 . S
O214 C231 1.264 1_556 S
O215 Eu168 2.339 1_545 S
O215 C231 1.254 . S
O216 Eu168 2.563 1_545 S
O216 C224 1.235 . S
O217 Eu168 2.419 . S
O217 C232 1.249 . S
O218 Eu179 2.558 . S
O218 C243 1.257 . S
O219 Eu168 2.380 1_556 S
O219 Eu179 2.612 1_565 S
O219 C235 1.276 . S
O220 Eu168 2.432 . S
O220 C242 1.264 1_554 S
O221 Eu179 2.339 1_565 S
O221 C242 1.254 . S
O222 Eu179 2.563 1_565 S
O222 C235 1.235 . S
O223 Eu179 2.419 . S
O223 C243 1.249 . S
C224 O213 1.276 . S
C224 O216 1.235 . S
C225 C227 1.393 . S
C225 C229 1.395 . S
C225 C232 1.492 . S
C226 C227 1.392 . S
C226 C228 1.386 . S
C227 C225 1.393 . S
C227 C226 1.392 . S
C227 H244 0.930 1_565 S
C228 C226 1.386 . S
C228 C230 1.395 . S
C228 H245 0.930 . S
C229 C225 1.395 . S
C229 C230 1.379 . S
C229 H246 0.930 . S
C230 C228 1.395 . S
C230 C229 1.379 . S
C230 H247 0.930 . S
C231 O214 1.264 1_554 S
C231 O215 1.254 . S
C232 Eu168 2.848 . S
C232 O212 1.257 . S
C232 O217 1.249 . S
C232 C225 1.492 . S
C233 H198 0.931 . S
C233 C211 1.420 . S
C233 C234 1.351 . S
C234 H196 0.930 . S
C234 C202 1.423 . S
C234 C233 1.351 . S
C235 O219 1.276 . S
C235 O222 1.235 . S
C236 C237 1.393 . S
C236 C240 1.395 . S
C236 C243 1.492 . S
C237 C236 1.393 . S
C237 C238 1.392 . S
C237 H248 0.930 1_545 S
C238 C237 1.392 . S
C238 C239 1.386 . S
C239 C238 1.386 . S
C239 C241 1.395 . S
C239 H249 0.930 . S
C240 C236 1.395 . S
C240 C241 1.379 . S
C240 H250 0.930 . S
C241 C239 1.395 . S
C241 C240 1.379 . S
C241 H251 0.930 . S
C242 O220 1.264 1_556 S
C242 O221 1.254 . S
C243 Eu179 2.848 . S
C243 O218 1.257 . S
C243 O223 1.249 . S
C243 C236 1.492 . S
H244 C227 0.930 1_545 S
H245 C228 0.930 . S
H246 C229 0.930 . S
H247 C230 0.930 . S
H248 C237 0.930 1_565 S
H249 C239 0.930 . S
H250 C240 0.930 . S
H251 C241 0.930 . S
Eu252 N283 2.657 . S
Eu252 N290 2.609 . S
Eu252 O296 2.558 . S
Eu252 O297 2.612 . S
Eu252 O299 2.339 . S
Eu252 O300 2.563 . S
Eu252 O301 2.419 . S
Eu252 O303 2.380 . S
Eu252 O304 2.432 . S
Eu252 C316 2.848 . S
C253 C256 1.429 . S
C253 C257 1.411 . S
C253 N260 1.377 . S
C254 C256 1.420 . S
C254 C258 1.423 . S
C254 C266 1.392 . S
C255 C257 1.420 . S
C255 C258 1.351 . S
C255 H278 0.931 . S
C256 C253 1.429 . S
C256 C254 1.420 . S
C256 N264 1.362 . S
C257 C253 1.411 . S
C257 C255 1.420 . S
C257 C262 1.395 . S
C258 C254 1.423 . S
C258 C255 1.351 . S
C258 H270 0.930 . S
C259 C261 1.400 . S
C259 C262 1.386 . S
C259 H271 0.930 . S
N260 C253 1.377 . S
N260 C261 1.321 . S
N260 Eu263 2.609 . S
C261 C259 1.400 . S
C261 N260 1.321 . S
C261 H268 0.930 . S
C262 C257 1.395 . S
C262 C259 1.386 . S
C262 H281 0.930 . S
Eu263 N260 2.609 . S
Eu263 N264 2.657 . S
Eu263 O297 2.380 . S
Eu263 O298 2.432 . S
Eu263 O302 2.558 . S
Eu263 O303 2.612 . S
Eu263 O305 2.339 . S
Eu263 O306 2.563 . S
Eu263 O307 2.419 . S
Eu263 C327 2.848 . S
N264 C256 1.362 . S
N264 Eu263 2.657 . S
N264 C265 1.334 . S
C265 N264 1.334 . S
C265 C267 1.413 . S
C265 H272 0.929 . S
C266 C254 1.392 . S
C266 C267 1.367 . S
C266 H274 0.930 . S
C267 C265 1.413 . S
C267 C266 1.367 . S
C267 H269 0.930 . S
H268 C261 0.930 . S
H269 C267 0.930 . S
H270 C258 0.930 . S
H271 C259 0.930 . S
H272 C265 0.929 . S
H273 C287 0.930 . S
H274 C266 0.930 . S
H275 C293 0.930 . S
H276 C284 0.929 . S
H277 C291 0.930 . S
H278 C255 0.931 . S
H279 C285 0.930 . S
H280 C318 0.930 . S
H281 C262 0.930 . S
H282 C317 0.931 . S
N283 Eu252 2.657 . S
N283 C284 1.334 . S
N283 C288 1.362 . S
C284 H276 0.929 . S
C284 N283 1.334 . S
C284 C287 1.413 . S
C285 H279 0.930 . S
C285 C286 1.392 . S
C285 C287 1.367 . S
C286 C285 1.392 . S
C286 C288 1.420 . S
C286 C318 1.423 . S
C287 H273 0.930 . S
C287 C284 1.413 . S
C287 C285 1.367 . S
C288 N283 1.362 . S
C288 C286 1.420 . S
C288 C292 1.429 . S
H289 C294 0.930 . S
N290 Eu252 2.609 . S
N290 C292 1.377 . S
N290 C293 1.321 . S
C291 H277 0.930 . S
C291 C293 1.400 . S
C291 C294 1.386 . S
C292 C288 1.429 . S
C292 N290 1.377 . S
C292 C295 1.411 . S
C293 H275 0.930 . S
C293 N290 1.321 . S
C293 C291 1.400 . S
C294 H289 0.930 . S
C294 C291 1.386 . S
C294 C295 1.395 . S
C295 C292 1.411 . S
C295 C294 1.395 . S
C295 C317 1.420 . S
O296 Eu252 2.558 . S
O296 C316 1.257 . S
O297 Eu252 2.612 . S
O297 Eu263 2.380 . S
O297 C308 1.276 . S
O298 Eu263 2.432 . S
O298 C315 1.264 . S
O299 Eu252 2.339 . S
O299 C315 1.254 . S
O300 Eu252 2.563 . S
O300 C308 1.235 . S
O301 Eu252 2.419 . S
O301 C316 1.249 . S
O302 Eu263 2.558 . S
O302 C327 1.257 . S
O303 Eu252 2.380 . S
O303 Eu263 2.612 . S
O303 C319 1.276 . S
O304 Eu252 2.432 . S
O304 C326 1.264 . S
O305 Eu263 2.339 . S
O305 C326 1.254 . S
O306 Eu263 2.563 . S
O306 C319 1.235 . S
O307 Eu263 2.419 . S
O307 C327 1.249 . S
C308 O297 1.276 . S
C308 O300 1.235 . S
C309 C311 1.393 . S
C309 C313 1.395 . S
C309 C316 1.492 . S
C310 C311 1.392 . S
C310 C312 1.386 . S
C311 C309 1.393 . S
C311 C310 1.392 . S
C311 H328 0.930 . S
C312 C310 1.386 . S
C312 C314 1.395 . S
C312 H329 0.930 . S
C313 C309 1.395 . S
C313 C314 1.379 . S
C313 H330 0.930 . S
C314 C312 1.395 . S
C314 C313 1.379 . S
C314 H331 0.930 . S
C315 O298 1.264 . S
C315 O299 1.254 . S
C316 Eu252 2.848 . S
C316 O296 1.257 . S
C316 O301 1.249 . S
C316 C309 1.492 . S
C317 H282 0.931 . S
C317 C295 1.420 . S
C317 C318 1.351 . S
C318 H280 0.930 . S
C318 C286 1.423 . S
C318 C317 1.351 . S
C319 O303 1.276 . S
C319 O306 1.235 . S
C320 C321 1.393 1_554 S
C320 C324 1.395 1_554 S
C320 C327 1.492 . S
C321 C320 1.393 1_556 S
C321 C322 1.392 . S
C321 H332 0.930 1_556 S
C322 C321 1.392 . S
C322 C323 1.386 . S
C323 C322 1.386 . S
C323 C325 1.395 . S
C323 H333 0.930 . S
C324 C320 1.395 1_556 S
C324 C325 1.379 . S
C324 H334 0.930 1_556 S
C325 C323 1.395 . S
C325 C324 1.379 . S
C325 H335 0.930 . S
C326 O304 1.264 . S
C326 O305 1.254 . S
C327 Eu263 2.848 . S
C327 O302 1.257 . S
C327 O307 1.249 . S
C327 C320 1.492 . S
H328 C311 0.930 . S
H329 C312 0.930 . S
H330 C313 0.930 . S
H331 C314 0.930 . S
H332 C321 0.930 1_554 S
H333 C323 0.930 . S
H334 C324 0.930 1_554 S
H335 C325 0.930 . S
Eu336 N367 2.657 . S
Eu336 N374 2.609 . S
Eu336 O380 2.558 . S
Eu336 O381 2.612 . S
Eu336 O383 2.339 . S
Eu336 O384 2.563 . S
Eu336 O385 2.419 . S
Eu336 O387 2.380 . S
Eu336 O388 2.432 . S
Eu336 C400 2.848 . S
C337 C340 1.429 . S
C337 C341 1.411 . S
C337 N344 1.377 . S
C338 C340 1.420 . S
C338 C342 1.423 . S
C338 C350 1.392 . S
C339 C341 1.420 . S
C339 C342 1.351 . S
C339 H362 0.931 . S
C340 C337 1.429 . S
C340 C338 1.420 . S
C340 N348 1.362 . S
C341 C337 1.411 . S
C341 C339 1.420 . S
C341 C346 1.395 . S
C342 C338 1.423 . S
C342 C339 1.351 . S
C342 H354 0.930 . S
C343 C345 1.400 . S
C343 C346 1.386 . S
C343 H355 0.930 . S
N344 C337 1.377 . S
N344 C345 1.321 . S
N344 Eu347 2.609 . S
C345 C343 1.400 . S
C345 N344 1.321 . S
C345 H352 0.930 . S
C346 C341 1.395 . S
C346 C343 1.386 . S
C346 H365 0.930 . S
Eu347 N344 2.609 . S
Eu347 N348 2.657 . S
Eu347 O381 2.380 . S
Eu347 O382 2.432 . S
Eu347 O386 2.558 . S
Eu347 O387 2.612 . S
Eu347 O389 2.339 . S
Eu347 O390 2.563 . S
Eu347 O391 2.419 . S
Eu347 C411 2.848 . S
N348 C340 1.362 . S
N348 Eu347 2.657 . S
N348 C349 1.334 . S
C349 N348 1.334 . S
C349 C351 1.413 . S
C349 H356 0.929 . S
C350 C338 1.392 . S
C350 C351 1.367 . S
C350 H358 0.930 . S
C351 C349 1.413 . S
C351 C350 1.367 . S
C351 H353 0.930 . S
H352 C345 0.930 . S
H353 C351 0.930 . S
H354 C342 0.930 . S
H355 C343 0.930 . S
H356 C349 0.929 . S
H357 C371 0.930 . S
H358 C350 0.930 . S
H359 C377 0.930 . S
H360 C368 0.929 . S
H361 C375 0.930 . S
H362 C339 0.931 . S
H363 C369 0.930 . S
H364 C402 0.930 . S
H365 C346 0.930 . S
H366 C401 0.931 . S
N367 Eu336 2.657 . S
N367 C368 1.334 . S
N367 C372 1.362 . S
C368 H360 0.929 . S
C368 N367 1.334 . S
C368 C371 1.413 . S
C369 H363 0.930 . S
C369 C370 1.392 . S
C369 C371 1.367 . S
C370 C369 1.392 . S
C370 C372 1.420 . S
C370 C402 1.423 . S
C371 H357 0.930 . S
C371 C368 1.413 . S
C371 C369 1.367 . S
C372 N367 1.362 . S
C372 C370 1.420 . S
C372 C376 1.429 . S
H373 C378 0.930 . S
N374 Eu336 2.609 . S
N374 C376 1.377 . S
N374 C377 1.321 . S
C375 H361 0.930 . S
C375 C377 1.400 . S
C375 C378 1.386 . S
C376 C372 1.429 . S
C376 N374 1.377 . S
C376 C379 1.411 . S
C377 H359 0.930 . S
C377 N374 1.321 . S
C377 C375 1.400 . S
C378 H373 0.930 . S
C378 C375 1.386 . S
C378 C379 1.395 . S
C379 C376 1.411 . S
C379 C378 1.395 . S
C379 C401 1.420 . S
O380 Eu336 2.558 . S
O380 C400 1.257 . S
O381 Eu336 2.612 . S
O381 Eu347 2.380 . S
O381 C392 1.276 . S
O382 Eu347 2.432 . S
O382 C399 1.264 . S
O383 Eu336 2.339 . S
O383 C399 1.254 . S
O384 Eu336 2.563 . S
O384 C392 1.235 . S
O385 Eu336 2.419 . S
O385 C400 1.249 . S
O386 Eu347 2.558 . S
O386 C411 1.257 . S
O387 Eu336 2.380 . S
O387 Eu347 2.612 . S
O387 C403 1.276 . S
O388 Eu336 2.432 . S
O388 C410 1.264 . S
O389 Eu347 2.339 . S
O389 C410 1.254 . S
O390 Eu347 2.563 . S
O390 C403 1.235 . S
O391 Eu347 2.419 . S
O391 C411 1.249 . S
C392 O381 1.276 . S
C392 O384 1.235 . S
C393 C395 1.393 1_554 S
C393 C397 1.395 1_554 S
C393 C400 1.492 . S
C394 C395 1.392 . S
C394 C396 1.386 . S
C395 C393 1.393 1_556 S
C395 C394 1.392 . S
C395 H412 0.930 1_556 S
C396 C394 1.386 . S
C396 C398 1.395 . S
C396 H413 0.930 . S
C397 C393 1.395 1_556 S
C397 C398 1.379 . S
C397 H414 0.930 1_556 S
C398 C396 1.395 . S
C398 C397 1.379 . S
C398 H415 0.930 . S
C399 O382 1.264 . S
C399 O383 1.254 . S
C400 Eu336 2.848 . S
C400 O380 1.257 . S
C400 O385 1.249 . S
C400 C393 1.492 . S
C401 H366 0.931 . S
C401 C379 1.420 . S
C401 C402 1.351 . S
C402 H364 0.930 . S
C402 C370 1.423 . S
C402 C401 1.351 . S
C403 O387 1.276 . S
C403 O390 1.235 . S
C404 C405 1.393 . S
C404 C408 1.395 . S
C404 C411 1.492 . S
C405 C404 1.393 . S
C405 C406 1.392 . S
C405 H416 0.930 . S
C406 C405 1.392 . S
C406 C407 1.386 . S
C407 C406 1.386 . S
C407 C409 1.395 . S
C407 H417 0.930 . S
C408 C404 1.395 . S
C408 C409 1.379 . S
C408 H418 0.930 . S
C409 C407 1.395 . S
C409 C408 1.379 . S
C409 H419 0.930 . S
C410 O388 1.264 . S
C410 O389 1.254 . S
C411 Eu347 2.848 . S
C411 O386 1.257 . S
C411 O391 1.249 . S
C411 C404 1.492 . S
H412 C395 0.930 1_554 S
H413 C396 0.930 . S
H414 C397 0.930 1_554 S
H415 C398 0.930 . S
H416 C405 0.930 . S
H417 C407 0.930 . S
H418 C408 0.930 . S
H419 C409 0.930 . S
Eu420 N451 2.657 . S
Eu420 N458 2.609 . S
Eu420 O464 2.558 . S
Eu420 O465 2.612 . S
Eu420 O467 2.339 . S
Eu420 O468 2.563 . S
Eu420 O469 2.419 . S
Eu420 O471 2.380 . S
Eu420 O472 2.432 . S
Eu420 C484 2.848 . S
C421 C424 1.429 . S
C421 C425 1.411 . S
C421 N428 1.377 . S
C422 C424 1.420 . S
C422 C426 1.423 . S
C422 C434 1.392 . S
C423 C425 1.420 . S
C423 C426 1.351 . S
C423 H446 0.931 . S
C424 C421 1.429 . S
C424 C422 1.420 . S
C424 N432 1.362 . S
C425 C421 1.411 . S
C425 C423 1.420 . S
C425 C430 1.395 . S
C426 C422 1.423 . S
C426 C423 1.351 . S
C426 H438 0.930 . S
C427 C429 1.400 . S
C427 C430 1.386 . S
C427 H439 0.930 . S
N428 C421 1.377 . S
N428 C429 1.321 . S
N428 Eu431 2.609 . S
C429 C427 1.400 . S
C429 N428 1.321 . S
C429 H436 0.930 . S
C430 C425 1.395 . S
C430 C427 1.386 . S
C430 H449 0.930 . S
Eu431 N428 2.609 . S
Eu431 N432 2.657 . S
Eu431 O465 2.380 . S
Eu431 O466 2.432 . S
Eu431 O470 2.558 . S
Eu431 O471 2.612 . S
Eu431 O473 2.339 . S
Eu431 O474 2.563 . S
Eu431 O475 2.419 . S
Eu431 C495 2.848 . S
N432 C424 1.362 . S
N432 Eu431 2.657 . S
N432 C433 1.334 . S
C433 N432 1.334 . S
C433 C435 1.413 . S
C433 H440 0.929 . S
C434 C422 1.392 . S
C434 C435 1.367 . S
C434 H442 0.930 . S
C435 C433 1.413 . S
C435 C434 1.367 . S
C435 H437 0.930 . S
H436 C429 0.930 . S
H437 C435 0.930 . S
H438 C426 0.930 . S
H439 C427 0.930 . S
H440 C433 0.929 . S
H441 C455 0.930 . S
H442 C434 0.930 . S
H443 C461 0.930 . S
H444 C452 0.929 . S
H445 C459 0.930 . S
H446 C423 0.931 . S
H447 C453 0.930 . S
H448 C486 0.930 . S
H449 C430 0.930 . S
H450 C485 0.931 . S
N451 Eu420 2.657 . S
N451 C452 1.334 . S
N451 C456 1.362 . S
C452 H444 0.929 . S
C452 N451 1.334 . S
C452 C455 1.413 . S
C453 H447 0.930 . S
C453 C454 1.392 . S
C453 C455 1.367 . S
C454 C453 1.392 . S
C454 C456 1.420 . S
C454 C486 1.423 . S
C455 H441 0.930 . S
C455 C452 1.413 . S
C455 C453 1.367 . S
C456 N451 1.362 . S
C456 C454 1.420 . S
C456 C460 1.429 . S
H457 C462 0.930 . S
N458 Eu420 2.609 . S
N458 C460 1.377 . S
N458 C461 1.321 . S
C459 H445 0.930 . S
C459 C461 1.400 . S
C459 C462 1.386 . S
C460 C456 1.429 . S
C460 N458 1.377 . S
C460 C463 1.411 . S
C461 H443 0.930 . S
C461 N458 1.321 . S
C461 C459 1.400 . S
C462 H457 0.930 . S
C462 C459 1.386 . S
C462 C463 1.395 . S
C463 C460 1.411 . S
C463 C462 1.395 . S
C463 C485 1.420 . S
O464 Eu420 2.558 . S
O464 C484 1.257 . S
O465 Eu420 2.612 . S
O465 Eu431 2.380 . S
O465 C476 1.276 . S
O466 Eu431 2.432 . S
O466 C483 1.264 . S
O467 Eu420 2.339 . S
O467 C483 1.254 . S
O468 Eu420 2.563 . S
O468 C476 1.235 . S
O469 Eu420 2.419 . S
O469 C484 1.249 . S
O470 Eu431 2.558 . S
O470 C495 1.257 . S
O471 Eu420 2.380 . S
O471 Eu431 2.612 . S
O471 C487 1.276 . S
O472 Eu420 2.432 . S
O472 C494 1.264 . S
O473 Eu431 2.339 . S
O473 C494 1.254 . S
O474 Eu431 2.563 . S
O474 C487 1.235 . S
O475 Eu431 2.419 . S
O475 C495 1.249 . S
C476 O465 1.276 . S
C476 O468 1.235 . S
C477 C479 1.393 1_556 S
C477 C481 1.395 1_556 S
C477 C484 1.492 . S
C478 C479 1.392 . S
C478 C480 1.386 . S
C479 C477 1.393 1_554 S
C479 C478 1.392 . S
C479 H496 0.930 1_554 S
C480 C478 1.386 . S
C480 C482 1.395 . S
C480 H497 0.930 . S
C481 C477 1.395 1_554 S
C481 C482 1.379 . S
C481 H498 0.930 1_554 S
C482 C480 1.395 . S
C482 C481 1.379 . S
C482 H499 0.930 . S
C483 O466 1.264 . S
C483 O467 1.254 . S
C484 Eu420 2.848 . S
C484 O464 1.257 . S
C484 O469 1.249 . S
C484 C477 1.492 . S
C485 H450 0.931 . S
C485 C463 1.420 . S
C485 C486 1.351 . S
C486 H448 0.930 . S
C486 C454 1.423 . S
C486 C485 1.351 . S
C487 O471 1.276 . S
C487 O474 1.235 . S
C488 C489 1.393 . S
C488 C492 1.395 . S
C488 C495 1.492 . S
C489 C488 1.393 . S
C489 C490 1.392 . S
C489 H500 0.930 . S
C490 C489 1.392 . S
C490 C491 1.386 . S
C491 C490 1.386 . S
C491 C493 1.395 . S
C491 H501 0.930 . S
C492 C488 1.395 . S
C492 C493 1.379 . S
C492 H502 0.930 . S
C493 C491 1.395 . S
C493 C492 1.379 . S
C493 H503 0.930 . S
C494 O472 1.264 . S
C494 O473 1.254 . S
C495 Eu431 2.848 . S
C495 O470 1.257 . S
C495 O475 1.249 . S
C495 C488 1.492 . S
H496 C479 0.930 1_556 S
H497 C480 0.930 . S
H498 C481 0.930 1_556 S
H499 C482 0.930 . S
H500 C489 0.930 . S
H501 C491 0.930 . S
H502 C492 0.930 . S
H503 C493 0.930 . S
Eu504 N535 2.657 . S
Eu504 N542 2.609 . S
Eu504 O548 2.558 . S
Eu504 O549 2.612 . S
Eu504 O551 2.339 . S
Eu504 O552 2.563 . S
Eu504 O553 2.419 . S
Eu504 O555 2.380 1_556 S
Eu504 O556 2.432 . S
Eu504 C568 2.848 . S
C505 C508 1.429 . S
C505 C509 1.411 . S
C505 N512 1.377 . S
C506 C508 1.420 . S
C506 C510 1.423 . S
C506 C518 1.392 . S
C507 C509 1.420 . S
C507 C510 1.351 . S
C507 H530 0.931 . S
C508 C505 1.429 . S
C508 C506 1.420 . S
C508 N516 1.362 . S
C509 C505 1.411 . S
C509 C507 1.420 . S
C509 C514 1.395 . S
C510 C506 1.423 . S
C510 C507 1.351 . S
C510 H522 0.930 . S
C511 C513 1.400 . S
C511 C514 1.386 . S
C511 H523 0.930 . S
N512 C505 1.377 . S
N512 C513 1.321 . S
N512 Eu515 2.609 . S
C513 C511 1.400 . S
C513 N512 1.321 . S
C513 H520 0.930 . S
C514 C509 1.395 . S
C514 C511 1.386 . S
C514 H533 0.930 . S
Eu515 N512 2.609 . S
Eu515 N516 2.657 . S
Eu515 O549 2.380 1_554 S
Eu515 O550 2.432 . S
Eu515 O554 2.558 . S
Eu515 O555 2.612 . S
Eu515 O557 2.339 . S
Eu515 O558 2.563 . S
Eu515 O559 2.419 . S
Eu515 C579 2.848 . S
N516 C508 1.362 . S
N516 Eu515 2.657 . S
N516 C517 1.334 . S
C517 N516 1.334 . S
C517 C519 1.413 . S
C517 H524 0.929 . S
C518 C506 1.392 . S
C518 C519 1.367 . S
C518 H526 0.930 . S
C519 C517 1.413 . S
C519 C518 1.367 . S
C519 H521 0.930 . S
H520 C513 0.930 . S
H521 C519 0.930 . S
H522 C510 0.930 . S
H523 C511 0.930 . S
H524 C517 0.929 . S
H525 C539 0.930 . S
H526 C518 0.930 . S
H527 C545 0.930 . S
H528 C536 0.929 . S
H529 C543 0.930 . S
H530 C507 0.931 . S
H531 C537 0.930 . S
H532 C570 0.930 . S
H533 C514 0.930 . S
H534 C569 0.931 . S
N535 Eu504 2.657 . S
N535 C536 1.334 . S
N535 C540 1.362 . S
C536 H528 0.929 . S
C536 N535 1.334 . S
C536 C539 1.413 . S
C537 H531 0.930 . S
C537 C538 1.392 . S
C537 C539 1.367 . S
C538 C537 1.392 . S
C538 C540 1.420 . S
C538 C570 1.423 . S
C539 H525 0.930 . S
C539 C536 1.413 . S
C539 C537 1.367 . S
C540 N535 1.362 . S
C540 C538 1.420 . S
C540 C544 1.429 . S
H541 C546 0.930 . S
N542 Eu504 2.609 . S
N542 C544 1.377 . S
N542 C545 1.321 . S
C543 H529 0.930 . S
C543 C545 1.400 . S
C543 C546 1.386 . S
C544 C540 1.429 . S
C544 N542 1.377 . S
C544 C547 1.411 . S
C545 H527 0.930 . S
C545 N542 1.321 . S
C545 C543 1.400 . S
C546 H541 0.930 . S
C546 C543 1.386 . S
C546 C547 1.395 . S
C547 C544 1.411 . S
C547 C546 1.395 . S
C547 C569 1.420 . S
O548 Eu504 2.558 . S
O548 C568 1.257 . S
O549 Eu504 2.612 . S
O549 Eu515 2.380 1_556 S
O549 C560 1.276 . S
O550 Eu515 2.432 . S
O550 C567 1.264 1_554 S
O551 Eu504 2.339 . S
O551 C567 1.254 . S
O552 Eu504 2.563 . S
O552 C560 1.235 . S
O553 Eu504 2.419 . S
O553 C568 1.249 . S
O554 Eu515 2.558 . S
O554 C579 1.257 . S
O555 Eu504 2.380 1_554 S
O555 Eu515 2.612 . S
O555 C571 1.276 . S
O556 Eu504 2.432 . S
O556 C578 1.264 1_556 S
O557 Eu515 2.339 . S
O557 C578 1.254 . S
O558 Eu515 2.563 . S
O558 C571 1.235 . S
O559 Eu515 2.419 . S
O559 C579 1.249 . S
C560 O549 1.276 . S
C560 O552 1.235 . S
C561 C563 1.393 . S
C561 C565 1.395 . S
C561 C568 1.492 . S
C562 C563 1.392 . S
C562 C564 1.386 . S
C563 C561 1.393 . S
C563 C562 1.392 . S
C563 H580 0.930 . S
C564 C562 1.386 . S
C564 C566 1.395 . S
C564 H581 0.930 . S
C565 C561 1.395 . S
C565 C566 1.379 . S
C565 H582 0.930 . S
C566 C564 1.395 . S
C566 C565 1.379 . S
C566 H583 0.930 . S
C567 O550 1.264 1_556 S
C567 O551 1.254 . S
C568 Eu504 2.848 . S
C568 O548 1.257 . S
C568 O553 1.249 . S
C568 C561 1.492 . S
C569 H534 0.931 . S
C569 C547 1.420 . S
C569 C570 1.351 . S
C570 H532 0.930 . S
C570 C538 1.423 . S
C570 C569 1.351 . S
C571 O555 1.276 . S
C571 O558 1.235 . S
C572 C573 1.393 . S
C572 C576 1.395 . S
C572 C579 1.492 . S
C573 C572 1.393 . S
C573 C574 1.392 . S
C573 H584 0.930 . S
C574 C573 1.392 . S
C574 C575 1.386 . S
C575 C574 1.386 . S
C575 C577 1.395 . S
C575 H585 0.930 . S
C576 C572 1.395 . S
C576 C577 1.379 . S
C576 H586 0.930 . S
C577 C575 1.395 . S
C577 C576 1.379 . S
C577 H587 0.930 . S
C578 O556 1.264 1_554 S
C578 O557 1.254 . S
C579 Eu515 2.848 . S
C579 O554 1.257 . S
C579 O559 1.249 . S
C579 C572 1.492 . S
H580 C563 0.930 . S
H581 C564 0.930 . S
H582 C565 0.930 . S
H583 C566 0.930 . S
H584 C573 0.930 . S
H585 C575 0.930 . S
H586 C576 0.930 . S
H587 C577 0.930 . S
Eu588 N619 2.654 1_655 S
Eu588 N626 2.609 1_655 S
Eu588 O632 2.560 . S
Eu588 O633 2.613 . S
Eu588 O635 2.337 1_655 S
Eu588 O636 2.565 . S
Eu588 O637 2.418 1_655 S
Eu588 O639 2.379 1_655 S
Eu588 O640 2.434 . S
Eu588 C652 2.848 . S
C589 C592 1.429 . S
C589 C593 1.411 . S
C589 N596 1.377 . S
C590 C592 1.420 . S
C590 C594 1.423 . S
C590 C602 1.392 . S
C591 C593 1.420 . S
C591 C594 1.351 . S
C591 H614 0.931 . S
C592 C589 1.429 . S
C592 C590 1.420 . S
C592 N600 1.362 . S
C593 C589 1.411 . S
C593 C591 1.420 . S
C593 C598 1.395 . S
C594 C590 1.423 . S
C594 C591 1.351 . S
C594 H606 0.930 . S
C595 C597 1.400 . S
C595 C598 1.386 1_455 S
C595 H607 0.930 . S
N596 C589 1.377 . S
N596 C597 1.321 1_655 S
N596 Eu599 2.609 1_655 S
C597 C595 1.400 . S
C597 N596 1.321 1_455 S
C597 H604 0.930 . S
C598 C593 1.395 . S
C598 C595 1.386 1_655 S
C598 H617 0.930 . S
Eu599 N596 2.609 1_455 S
Eu599 N600 2.647 1_455 S
Eu599 O633 2.376 1_455 S
Eu599 O634 2.440 . S
Eu599 O638 2.563 . S
Eu599 O639 2.616 . S
Eu599 O641 2.331 1_455 S
Eu599 O642 2.571 . S
Eu599 O643 2.417 1_455 S
Eu599 C663 2.849 . S
N600 C592 1.362 . S
N600 Eu599 2.647 1_655 S
N600 C601 1.334 . S
C601 N600 1.334 . S
C601 C603 1.413 . S
C601 H608 0.929 . S
C602 C590 1.392 . S
C602 C603 1.367 . S
C602 H610 0.930 . S
C603 C601 1.413 . S
C603 C602 1.367 . S
C603 H605 0.930 . S
H604 C597 0.930 . S
H605 C603 0.930 . S
H606 C594 0.930 . S
H607 C595 0.930 . S
H608 C601 0.929 . S
H609 C623 0.930 . S
H610 C602 0.930 . S
H611 C629 0.930 . S
H612 C620 0.929 . S
H613 C627 0.930 . S
H614 C591 0.931 . S
H615 C621 0.930 . S
H616 C654 0.930 . S
H617 C598 0.930 . S
H618 C653 0.931 . S
N619 Eu588 2.654 1_455 S
N619 C620 1.334 . S
N619 C624 1.362 . S
C620 H612 0.929 . S
C620 N619 1.334 . S
C620 C623 1.413 . S
C621 H615 0.930 . S
C621 C622 1.392 . S
C621 C623 1.367 . S
C622 C621 1.392 . S
C622 C624 1.420 . S
C622 C654 1.423 . S
C623 H609 0.930 . S
C623 C620 1.413 . S
C623 C621 1.367 . S
C624 N619 1.362 . S
C624 C622 1.420 . S
C624 C628 1.429 . S
H625 C630 0.931 . S
N626 Eu588 2.609 1_455 S
N626 C628 1.377 . S
N626 C629 1.321 1_455 S
C627 H613 0.930 . S
C627 C629 1.400 . S
C627 C630 1.386 1_655 S
C628 C624 1.429 . S
C628 N626 1.377 . S
C628 C631 1.411 . S
C629 H611 0.930 . S
C629 N626 1.321 1_655 S
C629 C627 1.400 . S
C630 H625 0.931 . S
C630 C627 1.386 1_455 S
C630 C631 1.395 . S
C631 C628 1.411 . S
C631 C630 1.395 . S
C631 C653 1.420 . S
O632 Eu588 2.560 . S
O632 C652 1.257 . S
O633 Eu588 2.613 . S
O633 Eu599 2.376 1_655 S
O633 C644 1.276 . S
O634 Eu599 2.440 . S
O634 C651 1.264 . S
O635 Eu588 2.337 1_455 S
O635 C651 1.254 . S
O636 Eu588 2.565 . S
O636 C644 1.235 . S
O637 Eu588 2.418 1_455 S
O637 C652 1.249 1_455 S
O638 Eu599 2.563 . S
O638 C663 1.257 . S
O639 Eu588 2.379 1_455 S
O639 Eu599 2.616 . S
O639 C655 1.276 . S
O640 Eu588 2.434 . S
O640 C662 1.264 . S
O641 Eu599 2.331 1_655 S
O641 C662 1.254 . S
O642 Eu599 2.571 . S
O642 C655 1.235 . S
O643 Eu599 2.417 1_655 S
O643 C663 1.249 1_655 S
C644 O633 1.276 . S
C644 O636 1.235 . S
C645 C647 1.393 . S
C645 C649 1.395 . S
C645 C652 1.492 . S
C646 C647 1.392 . S
C646 C648 1.386 . S
C647 C645 1.393 . S
C647 C646 1.392 . S
C647 H664 0.930 1_655 S
C648 C646 1.386 . S
C648 C650 1.395 . S
C648 H665 0.930 . S
C649 C645 1.395 . S
C649 C650 1.379 . S
C649 H666 0.930 . S
C650 C648 1.395 . S
C650 C649 1.379 . S
C650 H667 0.930 . S
C651 O634 1.264 . S
C651 O635 1.254 . S
C652 Eu588 2.848 . S
C652 O632 1.257 . S
C652 O637 1.249 1_655 S
C652 C645 1.492 . S
C653 H618 0.931 . S
C653 C631 1.420 . S
C653 C654 1.351 . S
C654 H616 0.930 . S
C654 C622 1.423 . S
C654 C653 1.351 . S
C655 O639 1.276 . S
C655 O642 1.235 . S
C656 C657 1.393 . S
C656 C660 1.395 . S
C656 C663 1.492 . S
C657 C656 1.393 . S
C657 C658 1.392 . S
C657 H668 0.930 1_455 S
C658 C657 1.392 . S
C658 C659 1.386 . S
C659 C658 1.386 . S
C659 C661 1.395 . S
C659 H669 0.930 . S
C660 C656 1.395 . S
C660 C661 1.379 . S
C660 H670 0.930 . S
C661 C659 1.395 . S
C661 C660 1.379 . S
C661 H671 0.930 . S
C662 O640 1.264 . S
C662 O641 1.254 . S
C663 Eu599 2.849 . S
C663 O638 1.257 . S
C663 O643 1.249 1_455 S
C663 C656 1.492 . S
H664 C647 0.930 1_455 S
H665 C648 0.930 . S
H666 C649 0.930 . S
H667 C650 0.930 . S
H668 C657 0.930 1_655 S
H669 C659 0.930 . S
H670 C660 0.930 . S
H671 C661 0.930 . S
C672 C673 1.391 . S
C672 C674 1.394 . S
C672 H688 0.931 . S
C673 C672 1.391 . S
C673 C677 1.376 . S
C674 C672 1.394 . S
C674 C675 1.369 . S
C674 C678 1.531 . S
C675 C674 1.369 . S
C675 C676 1.410 . S
C675 C683 1.503 . S
C676 C675 1.410 . S
C676 C677 1.392 . S
C676 C679 1.511 . S
C677 C673 1.376 . S
C677 C676 1.392 . S
C677 H689 0.929 . S
C678 C674 1.531 . S
C678 H690 0.960 . S
C678 H691 0.962 . S
C678 H692 0.960 . S
C679 C676 1.511 . S
C679 H693 0.961 . S
C679 H694 0.961 . S
C679 H695 0.961 . S
C680 C681 1.370 . S
C680 C682 1.363 . S
C680 H696 0.931 . S
C681 C680 1.370 . S
C681 C685 1.408 . S
C682 C680 1.363 . S
C682 C683 1.370 . S
C682 C686 1.524 . S
C683 C675 1.503 . S
C683 C682 1.370 . S
C683 C684 1.403 . S
C684 C683 1.403 . S
C684 C685 1.404 . S
C684 C687 1.539 . S
C685 C681 1.408 . S
C685 C684 1.404 . S
C685 H697 0.930 . S
C686 C682 1.524 . S
C686 H698 0.956 . S
C686 H699 0.961 . S
C686 H700 0.961 . S
C687 C684 1.539 . S
C687 H701 0.958 . S
C687 H702 0.961 . S
C687 H703 0.960 . S
H688 C672 0.931 . S
H689 C677 0.929 . S
H690 C678 0.960 . S
H691 C678 0.962 . S
H692 C678 0.960 . S
H693 C679 0.961 . S
H694 C679 0.961 . S
H695 C679 0.961 . S
H696 C680 0.931 . S
H697 C685 0.930 . S
H698 C686 0.956 . S
H699 C686 0.961 . S
H700 C686 0.961 . S
H701 C687 0.958 . S
H702 C687 0.961 . S
H703 C687 0.960 . S
C704 C705 1.391 . S
C704 C706 1.394 . S
C704 H720 0.931 . S
C705 C704 1.391 . S
C705 C709 1.376 . S
C706 C704 1.394 . S
C706 C707 1.369 . S
C706 C710 1.531 . S
C707 C706 1.369 . S
C707 C708 1.410 . S
C707 C715 1.503 . S
C708 C707 1.410 . S
C708 C709 1.392 . S
C708 C711 1.511 . S
C709 C705 1.376 . S
C709 C708 1.392 . S
C709 H721 0.929 . S
C710 C706 1.531 . S
C710 H722 0.960 . S
C710 H723 0.962 . S
C710 H724 0.960 . S
C711 C708 1.511 . S
C711 H725 0.961 . S
C711 H726 0.961 . S
C711 H727 0.961 . S
C712 C713 1.370 . S
C712 C714 1.363 . S
C712 H728 0.931 . S
C713 C712 1.370 . S
C713 C717 1.408 . S
C714 C712 1.363 . S
C714 C715 1.370 . S
C714 C718 1.524 . S
C715 C707 1.503 . S
C715 C714 1.370 . S
C715 C716 1.403 . S
C716 C715 1.403 . S
C716 C717 1.404 . S
C716 C719 1.539 . S
C717 C713 1.408 . S
C717 C716 1.404 . S
C717 H729 0.930 . S
C718 C714 1.524 . S
C718 H730 0.956 . S
C718 H731 0.961 . S
C718 H732 0.961 . S
C719 C716 1.539 . S
C719 H733 0.958 . S
C719 H734 0.961 . S
C719 H735 0.960 . S
H720 C704 0.931 . S
H721 C709 0.929 . S
H722 C710 0.960 . S
H723 C710 0.962 . S
H724 C710 0.960 . S
H725 C711 0.961 . S
H726 C711 0.961 . S
H727 C711 0.961 . S
H728 C712 0.931 . S
H729 C717 0.930 . S
H730 C718 0.956 . S
H731 C718 0.961 . S
H732 C718 0.961 . S
H733 C719 0.958 . S
H734 C719 0.961 . S
H735 C719 0.960 . S
C736 C737 1.391 . S
C736 C738 1.394 . S
C736 H752 0.931 . S
C737 C736 1.391 . S
C737 C741 1.376 . S
C738 C736 1.394 . S
C738 C739 1.369 . S
C738 C742 1.531 . S
C739 C738 1.369 . S
C739 C740 1.410 . S
C739 C747 1.503 . S
C740 C739 1.410 . S
C740 C741 1.392 . S
C740 C743 1.511 . S
C741 C737 1.376 . S
C741 C740 1.392 . S
C741 H753 0.929 . S
C742 C738 1.531 . S
C742 H754 0.960 . S
C742 H755 0.962 . S
C742 H756 0.960 . S
C743 C740 1.511 . S
C743 H757 0.961 . S
C743 H758 0.961 . S
C743 H759 0.961 . S
C744 C745 1.370 . S
C744 C746 1.363 . S
C744 H760 0.931 . S
C745 C744 1.370 . S
C745 C749 1.408 . S
C746 C744 1.363 . S
C746 C747 1.370 . S
C746 C750 1.524 . S
C747 C739 1.503 . S
C747 C746 1.370 . S
C747 C748 1.403 . S
C748 C747 1.403 . S
C748 C749 1.404 . S
C748 C751 1.539 . S
C749 C745 1.408 . S
C749 C748 1.404 . S
C749 H761 0.930 . S
C750 C746 1.524 . S
C750 H762 0.956 . S
C750 H763 0.961 . S
C750 H764 0.961 . S
C751 C748 1.539 . S
C751 H765 0.958 . S
C751 H766 0.961 . S
C751 H767 0.960 . S
H752 C736 0.931 . S
H753 C741 0.929 . S
H754 C742 0.960 . S
H755 C742 0.962 . S
H756 C742 0.960 . S
H757 C743 0.961 . S
H758 C743 0.961 . S
H759 C743 0.961 . S
H760 C744 0.931 . S
H761 C749 0.930 . S
H762 C750 0.956 . S
H763 C750 0.961 . S
H764 C750 0.961 . S
H765 C751 0.958 . S
H766 C751 0.961 . S
H767 C751 0.960 . S
C768 C769 1.391 . S
C768 C770 1.394 . S
C768 H784 0.931 . S
C769 C768 1.391 . S
C769 C773 1.376 . S
C770 C768 1.394 . S
C770 C771 1.369 . S
C770 C774 1.531 . S
C771 C770 1.369 . S
C771 C772 1.410 . S
C771 C779 1.503 . S
C772 C771 1.410 . S
C772 C773 1.392 . S
C772 C775 1.511 . S
C773 C769 1.376 . S
C773 C772 1.392 . S
C773 H785 0.929 . S
C774 C770 1.531 . S
C774 H786 0.960 . S
C774 H787 0.962 . S
C774 H788 0.960 . S
C775 C772 1.511 . S
C775 H789 0.961 . S
C775 H790 0.961 . S
C775 H791 0.961 . S
C776 C777 1.370 . S
C776 C778 1.363 . S
C776 H792 0.931 . S
C777 C776 1.370 . S
C777 C781 1.408 . S
C778 C776 1.363 . S
C778 C779 1.370 . S
C778 C782 1.524 . S
C779 C771 1.503 . S
C779 C778 1.370 . S
C779 C780 1.403 . S
C780 C779 1.403 . S
C780 C781 1.404 . S
C780 C783 1.539 . S
C781 C777 1.408 . S
C781 C780 1.404 . S
C781 H793 0.930 . S
C782 C778 1.524 . S
C782 H794 0.956 . S
C782 H795 0.961 . S
C782 H796 0.961 . S
C783 C780 1.539 . S
C783 H797 0.958 . S
C783 H798 0.961 . S
C783 H799 0.960 . S
H784 C768 0.931 . S
H785 C773 0.929 . S
H786 C774 0.960 . S
H787 C774 0.962 . S
H788 C774 0.960 . S
H789 C775 0.961 . S
H790 C775 0.961 . S
H791 C775 0.961 . S
H792 C776 0.931 . S
H793 C781 0.930 . S
H794 C782 0.956 . S
H795 C782 0.961 . S
H796 C782 0.961 . S
H797 C783 0.958 . S
H798 C783 0.961 . S
H799 C783 0.960 . S
C800 C801 1.391 . S
C800 C802 1.394 . S
C800 H816 0.931 . S
C801 C800 1.391 . S
C801 C805 1.376 . S
C802 C800 1.394 . S
C802 C803 1.369 . S
C802 C806 1.531 . S
C803 C802 1.369 . S
C803 C804 1.410 . S
C803 C811 1.503 . S
C804 C803 1.410 . S
C804 C805 1.392 . S
C804 C807 1.511 . S
C805 C801 1.376 . S
C805 C804 1.392 . S
C805 H817 0.929 . S
C806 C802 1.531 . S
C806 H818 0.960 . S
C806 H819 0.962 . S
C806 H820 0.960 . S
C807 C804 1.511 . S
C807 H821 0.961 . S
C807 H822 0.961 . S
C807 H823 0.961 . S
C808 C809 1.370 . S
C808 C810 1.363 . S
C808 H824 0.931 . S
C809 C808 1.370 . S
C809 C813 1.408 . S
C810 C808 1.363 . S
C810 C811 1.370 . S
C810 C814 1.524 . S
C811 C803 1.503 . S
C811 C810 1.370 . S
C811 C812 1.403 . S
C812 C811 1.403 . S
C812 C813 1.404 . S
C812 C815 1.539 . S
C813 C809 1.408 . S
C813 C812 1.404 . S
C813 H825 0.930 . S
C814 C810 1.524 . S
C814 H826 0.956 . S
C814 H827 0.961 . S
C814 H828 0.961 . S
C815 C812 1.539 . S
C815 H829 0.958 . S
C815 H830 0.961 . S
C815 H831 0.960 . S
H816 C800 0.931 . S
H817 C805 0.929 . S
H818 C806 0.960 . S
H819 C806 0.962 . S
H820 C806 0.960 . S
H821 C807 0.961 . S
H822 C807 0.961 . S
H823 C807 0.961 . S
H824 C808 0.931 . S
H825 C813 0.930 . S
H826 C814 0.956 . S
H827 C814 0.961 . S
H828 C814 0.961 . S
H829 C815 0.958 . S
H830 C815 0.961 . S
H831 C815 0.960 . S
C832 C833 1.391 . S
C832 C834 1.394 . S
C832 H848 0.931 . S
C833 C832 1.391 . S
C833 C837 1.376 . S
C834 C832 1.394 . S
C834 C835 1.369 . S
C834 C838 1.531 . S
C835 C834 1.369 . S
C835 C836 1.410 . S
C835 C843 1.503 . S
C836 C835 1.410 . S
C836 C837 1.392 . S
C836 C839 1.511 . S
C837 C833 1.376 . S
C837 C836 1.392 . S
C837 H849 0.929 . S
C838 C834 1.531 . S
C838 H850 0.960 . S
C838 H851 0.962 . S
C838 H852 0.960 . S
C839 C836 1.511 . S
C839 H853 0.961 . S
C839 H854 0.961 . S
C839 H855 0.961 . S
C840 C841 1.370 . S
C840 C842 1.363 . S
C840 H856 0.931 . S
C841 C840 1.370 . S
C841 C845 1.408 . S
C842 C840 1.363 . S
C842 C843 1.370 . S
C842 C846 1.524 . S
C843 C835 1.503 . S
C843 C842 1.370 . S
C843 C844 1.403 . S
C844 C843 1.403 . S
C844 C845 1.404 . S
C844 C847 1.539 . S
C845 C841 1.408 . S
C845 C844 1.404 . S
C845 H857 0.930 . S
C846 C842 1.524 . S
C846 H858 0.956 . S
C846 H859 0.961 . S
C846 H860 0.961 . S
C847 C844 1.539 . S
C847 H861 0.958 . S
C847 H862 0.961 . S
C847 H863 0.960 . S
H848 C832 0.931 . S
H849 C837 0.929 . S
H850 C838 0.960 . S
H851 C838 0.962 . S
H852 C838 0.960 . S
H853 C839 0.961 . S
H854 C839 0.961 . S
H855 C839 0.961 . S
H856 C840 0.931 . S
H857 C845 0.930 . S
H858 C846 0.956 . S
H859 C846 0.961 . S
H860 C846 0.961 . S
H861 C847 0.958 . S
H862 C847 0.961 . S
H863 C847 0.960 . S
C864 C865 1.391 . S
C864 C866 1.394 . S
C864 H880 0.931 . S
C865 C864 1.391 . S
C865 C869 1.376 . S
C866 C864 1.394 . S
C866 C867 1.369 . S
C866 C870 1.531 . S
C867 C866 1.369 . S
C867 C868 1.410 . S
C867 C875 1.503 . S
C868 C867 1.410 . S
C868 C869 1.392 . S
C868 C871 1.511 . S
C869 C865 1.376 . S
C869 C868 1.392 . S
C869 H881 0.929 . S
C870 C866 1.531 . S
C870 H882 0.960 . S
C870 H883 0.962 . S
C870 H884 0.960 . S
C871 C868 1.511 . S
C871 H885 0.961 . S
C871 H886 0.961 . S
C871 H887 0.961 . S
C872 C873 1.370 . S
C872 C874 1.363 . S
C872 H888 0.931 . S
C873 C872 1.370 . S
C873 C877 1.408 . S
C874 C872 1.363 . S
C874 C875 1.370 . S
C874 C878 1.524 . S
C875 C867 1.503 . S
C875 C874 1.370 . S
C875 C876 1.403 . S
C876 C875 1.403 . S
C876 C877 1.404 . S
C876 C879 1.539 . S
C877 C873 1.408 . S
C877 C876 1.404 . S
C877 H889 0.930 . S
C878 C874 1.524 . S
C878 H890 0.956 . S
C878 H891 0.961 . S
C878 H892 0.961 . S
C879 C876 1.539 . S
C879 H893 0.958 . S
C879 H894 0.961 . S
C879 H895 0.960 . S
H880 C864 0.931 . S
H881 C869 0.929 . S
H882 C870 0.960 . S
H883 C870 0.962 . S
H884 C870 0.960 . S
H885 C871 0.961 . S
H886 C871 0.961 . S
H887 C871 0.961 . S
H888 C872 0.931 . S
H889 C877 0.930 . S
H890 C878 0.956 . S
H891 C878 0.961 . S
H892 C878 0.961 . S
H893 C879 0.958 . S
H894 C879 0.961 . S
H895 C879 0.960 . S
C896 C897 1.391 . S
C896 C898 1.394 . S
C896 H912 0.931 . S
C897 C896 1.391 . S
C897 C901 1.376 . S
C898 C896 1.394 . S
C898 C899 1.369 . S
C898 C902 1.531 . S
C899 C898 1.369 . S
C899 C900 1.410 . S
C899 C907 1.503 . S
C900 C899 1.410 . S
C900 C901 1.392 . S
C900 C903 1.511 . S
C901 C897 1.376 . S
C901 C900 1.392 . S
C901 H913 0.929 . S
C902 C898 1.531 . S
C902 H914 0.960 . S
C902 H915 0.962 . S
C902 H916 0.960 . S
C903 C900 1.511 . S
C903 H917 0.961 . S
C903 H918 0.961 . S
C903 H919 0.961 . S
C904 C905 1.370 . S
C904 C906 1.363 . S
C904 H920 0.931 . S
C905 C904 1.370 . S
C905 C909 1.408 . S
C906 C904 1.363 . S
C906 C907 1.370 . S
C906 C910 1.524 . S
C907 C899 1.503 . S
C907 C906 1.370 . S
C907 C908 1.403 . S
C908 C907 1.403 . S
C908 C909 1.404 . S
C908 C911 1.539 . S
C909 C905 1.408 . S
C909 C908 1.404 . S
C909 H921 0.930 . S
C910 C906 1.524 . S
C910 H922 0.956 . S
C910 H923 0.961 . S
C910 H924 0.961 . S
C911 C908 1.539 . S
C911 H925 0.958 . S
C911 H926 0.961 . S
C911 H927 0.960 . S
H912 C896 0.931 . S
H913 C901 0.929 . S
H914 C902 0.960 . S
H915 C902 0.962 . S
H916 C902 0.960 . S
H917 C903 0.961 . S
H918 C903 0.961 . S
H919 C903 0.961 . S
H920 C904 0.931 . S
H921 C909 0.930 . S
H922 C910 0.956 . S
H923 C910 0.961 . S
H924 C910 0.961 . S
H925 C911 0.958 . S
H926 C911 0.961 . S
H927 C911 0.960 . S
C928 C929 1.391 . S
C928 C930 1.394 . S
C928 H944 0.931 . S
C929 C928 1.391 . S
C929 C933 1.376 . S
C930 C928 1.394 . S
C930 C931 1.369 . S
C930 C934 1.531 . S
C931 C930 1.369 . S
C931 C932 1.410 . S
C931 C939 1.503 . S
C932 C931 1.410 . S
C932 C933 1.392 . S
C932 C935 1.511 . S
C933 C929 1.376 . S
C933 C932 1.392 . S
C933 H945 0.929 . S
C934 C930 1.531 . S
C934 H946 0.960 . S
C934 H947 0.962 . S
C934 H948 0.960 . S
C935 C932 1.511 . S
C935 H949 0.961 . S
C935 H950 0.961 . S
C935 H951 0.961 . S
C936 C937 1.370 . S
C936 C938 1.363 . S
C936 H952 0.931 . S
C937 C936 1.370 . S
C937 C941 1.408 . S
C938 C936 1.363 . S
C938 C939 1.370 . S
C938 C942 1.524 . S
C939 C931 1.503 . S
C939 C938 1.370 . S
C939 C940 1.403 . S
C940 C939 1.403 . S
C940 C941 1.404 . S
C940 C943 1.539 . S
C941 C937 1.408 . S
C941 C940 1.404 . S
C941 H953 0.930 . S
C942 C938 1.524 . S
C942 H954 0.956 . S
C942 H955 0.961 . S
C942 H956 0.961 . S
C943 C940 1.539 . S
C943 H957 0.958 . S
C943 H958 0.961 . S
C943 H959 0.960 . S
H944 C928 0.931 . S
H945 C933 0.929 . S
H946 C934 0.960 . S
H947 C934 0.962 . S
H948 C934 0.960 . S
H949 C935 0.961 . S
H950 C935 0.961 . S
H951 C935 0.961 . S
H952 C936 0.931 . S
H953 C941 0.930 . S
H954 C942 0.956 . S
H955 C942 0.961 . S
H956 C942 0.961 . S
H957 C943 0.958 . S
H958 C943 0.961 . S
H959 C943 0.960 . S
C960 C961 1.391 . S
C960 C962 1.394 . S
C960 H976 0.931 . S
C961 C960 1.391 . S
C961 C965 1.376 . S
C962 C960 1.394 . S
C962 C963 1.369 . S
C962 C966 1.531 . S
C963 C962 1.369 . S
C963 C964 1.410 . S
C963 C971 1.503 . S
C964 C963 1.410 . S
C964 C965 1.392 . S
C964 C967 1.511 . S
C965 C961 1.376 . S
C965 C964 1.392 . S
C965 H977 0.929 . S
C966 C962 1.531 . S
C966 H978 0.960 . S
C966 H979 0.962 . S
C966 H980 0.960 . S
C967 C964 1.511 . S
C967 H981 0.961 . S
C967 H982 0.961 . S
C967 H983 0.961 . S
C968 C969 1.370 . S
C968 C970 1.363 . S
C968 H984 0.931 . S
C969 C968 1.370 . S
C969 C973 1.408 . S
C970 C968 1.363 . S
C970 C971 1.370 . S
C970 C974 1.524 . S
C971 C963 1.503 . S
C971 C970 1.370 . S
C971 C972 1.403 . S
C972 C971 1.403 . S
C972 C973 1.404 . S
C972 C975 1.539 . S
C973 C969 1.408 . S
C973 C972 1.404 . S
C973 H985 0.930 . S
C974 C970 1.524 . S
C974 H986 0.956 . S
C974 H987 0.961 . S
C974 H988 0.961 . S
C975 C972 1.539 . S
C975 H989 0.958 . S
C975 H990 0.961 . S
C975 H991 0.960 . S
H976 C960 0.931 . S
H977 C965 0.929 . S
H978 C966 0.960 . S
H979 C966 0.962 . S
H980 C966 0.960 . S
H981 C967 0.961 . S
H982 C967 0.961 . S
H983 C967 0.961 . S
H984 C968 0.931 . S
H985 C973 0.930 . S
H986 C974 0.956 . S
H987 C974 0.961 . S
H988 C974 0.961 . S
H989 C975 0.958 . S
H990 C975 0.961 . S
H991 C975 0.960 . S
C992 C993 1.391 . S
C992 C994 1.394 . S
C992 H1008 0.931 . S
C993 C992 1.391 . S
C993 C997 1.376 . S
C994 C992 1.394 . S
C994 C995 1.369 . S
C994 C998 1.531 . S
C995 C994 1.369 . S
C995 C996 1.410 . S
C995 C1003 1.503 . S
C996 C995 1.410 . S
C996 C997 1.392 . S
C996 C999 1.511 . S
C997 C993 1.376 . S
C997 C996 1.392 . S
C997 H1009 0.929 . S
C998 C994 1.531 . S
C998 H1010 0.960 . S
C998 H1011 0.962 . S
C998 H1012 0.960 . S
C999 C996 1.511 . S
C999 H1013 0.961 . S
C999 H1014 0.961 . S
C999 H1015 0.961 . S
C1000 C1001 1.370 . S
C1000 C1002 1.363 . S
C1000 H1016 0.931 . S
C1001 C1000 1.370 . S
C1001 C1005 1.408 . S
C1002 C1000 1.363 . S
C1002 C1003 1.370 . S
C1002 C1006 1.524 . S
C1003 C995 1.503 . S
C1003 C1002 1.370 . S
C1003 C1004 1.403 . S
C1004 C1003 1.403 . S
C1004 C1005 1.404 . S
C1004 C1007 1.539 . S
C1005 C1001 1.408 . S
C1005 C1004 1.404 . S
C1005 H1017 0.930 . S
C1006 C1002 1.524 . S
C1006 H1018 0.956 . S
C1006 H1019 0.961 . S
C1006 H1020 0.961 . S
C1007 C1004 1.539 . S
C1007 H1021 0.958 . S
C1007 H1022 0.961 . S
C1007 H1023 0.960 . S
H1008 C992 0.931 . S
H1009 C997 0.929 . S
H1010 C998 0.960 . S
H1011 C998 0.962 . S
H1012 C998 0.960 . S
H1013 C999 0.961 . S
H1014 C999 0.961 . S
H1015 C999 0.961 . S
H1016 C1000 0.931 . S
H1017 C1005 0.930 . S
H1018 C1006 0.956 . S
H1019 C1006 0.961 . S
H1020 C1006 0.961 . S
H1021 C1007 0.958 . S
H1022 C1007 0.961 . S
H1023 C1007 0.960 . S
C1024 C1025 1.391 . S
C1024 C1026 1.394 . S
C1024 H1040 0.931 . S
C1025 C1024 1.391 . S
C1025 C1029 1.376 . S
C1026 C1024 1.394 . S
C1026 C1027 1.369 . S
C1026 C1030 1.531 . S
C1027 C1026 1.369 . S
C1027 C1028 1.410 . S
C1027 C1035 1.503 . S
C1028 C1027 1.410 . S
C1028 C1029 1.392 . S
C1028 C1031 1.511 . S
C1029 C1025 1.376 . S
C1029 C1028 1.392 . S
C1029 H1041 0.929 . S
C1030 C1026 1.531 . S
C1030 H1042 0.960 . S
C1030 H1043 0.962 . S
C1030 H1044 0.960 . S
C1031 C1028 1.511 . S
C1031 H1045 0.961 . S
C1031 H1046 0.961 . S
C1031 H1047 0.961 . S
C1032 C1033 1.370 . S
C1032 C1034 1.363 . S
C1032 H1048 0.931 . S
C1033 C1032 1.370 . S
C1033 C1037 1.408 . S
C1034 C1032 1.363 . S
C1034 C1035 1.370 . S
C1034 C1038 1.524 . S
C1035 C1027 1.503 . S
C1035 C1034 1.370 . S
C1035 C1036 1.403 . S
C1036 C1035 1.403 . S
C1036 C1037 1.404 . S
C1036 C1039 1.539 . S
C1037 C1033 1.408 . S
C1037 C1036 1.404 . S
C1037 H1049 0.930 . S
C1038 C1034 1.524 . S
C1038 H1050 0.956 . S
C1038 H1051 0.961 . S
C1038 H1052 0.961 . S
C1039 C1036 1.539 . S
C1039 H1053 0.958 . S
C1039 H1054 0.961 . S
C1039 H1055 0.960 . S
H1040 C1024 0.931 . S
H1041 C1029 0.929 . S
H1042 C1030 0.960 . S
H1043 C1030 0.962 . S
H1044 C1030 0.960 . S
H1045 C1031 0.961 . S
H1046 C1031 0.961 . S
H1047 C1031 0.961 . S
H1048 C1032 0.931 . S
H1049 C1037 0.930 . S
H1050 C1038 0.956 . S
H1051 C1038 0.961 . S
H1052 C1038 0.961 . S
H1053 C1039 0.958 . S
H1054 C1039 0.961 . S
H1055 C1039 0.960 . S
C1056 C1057 1.391 . S
C1056 C1058 1.394 . S
C1056 H1072 0.931 . S
C1057 C1056 1.391 . S
C1057 C1061 1.376 . S
C1058 C1056 1.394 . S
C1058 C1059 1.369 . S
C1058 C1062 1.531 . S
C1059 C1058 1.369 . S
C1059 C1060 1.410 . S
C1059 C1067 1.503 . S
C1060 C1059 1.410 . S
C1060 C1061 1.392 . S
C1060 C1063 1.511 . S
C1061 C1057 1.376 . S
C1061 C1060 1.392 . S
C1061 H1073 0.929 . S
C1062 C1058 1.531 . S
C1062 H1074 0.960 . S
C1062 H1075 0.962 . S
C1062 H1076 0.960 . S
C1063 C1060 1.511 . S
C1063 H1077 0.961 . S
C1063 H1078 0.961 . S
C1063 H1079 0.961 . S
C1064 C1065 1.370 . S
C1064 C1066 1.363 . S
C1064 H1080 0.931 . S
C1065 C1064 1.370 . S
C1065 C1069 1.408 . S
C1066 C1064 1.363 . S
C1066 C1067 1.370 . S
C1066 C1070 1.524 . S
C1067 C1059 1.503 . S
C1067 C1066 1.370 . S
C1067 C1068 1.403 . S
C1068 C1067 1.403 . S
C1068 C1069 1.404 . S
C1068 C1071 1.539 . S
C1069 C1065 1.408 . S
C1069 C1068 1.404 . S
C1069 H1081 0.930 1_554 S
C1070 C1066 1.524 . S
C1070 H1082 0.956 . S
C1070 H1083 0.961 . S
C1070 H1084 0.961 . S
C1071 C1068 1.539 . S
C1071 H1085 0.958 1_554 S
C1071 H1086 0.961 1_554 S
C1071 H1087 0.960 . S
H1072 C1056 0.931 . S
H1073 C1061 0.929 . S
H1074 C1062 0.960 . S
H1075 C1062 0.962 . S
H1076 C1062 0.960 . S
H1077 C1063 0.961 . S
H1078 C1063 0.961 . S
H1079 C1063 0.961 . S
H1080 C1064 0.931 . S
H1081 C1069 0.930 1_556 S
H1082 C1070 0.956 . S
H1083 C1070 0.961 . S
H1084 C1070 0.961 . S
H1085 C1071 0.958 1_556 S
H1086 C1071 0.961 1_556 S
H1087 C1071 0.960 . S
C1088 C1089 1.391 . S
C1088 C1090 1.394 . S
C1088 H1104 0.931 . S
C1089 C1088 1.391 . S
C1089 C1093 1.376 . S
C1090 C1088 1.394 . S
C1090 C1091 1.369 . S
C1090 C1094 1.531 . S
C1091 C1090 1.369 . S
C1091 C1092 1.410 . S
C1091 C1099 1.503 . S
C1092 C1091 1.410 . S
C1092 C1093 1.392 . S
C1092 C1095 1.511 . S
C1093 C1089 1.376 . S
C1093 C1092 1.392 . S
C1093 H1105 0.929 . S
C1094 C1090 1.531 . S
C1094 H1106 0.960 . S
C1094 H1107 0.962 . S
C1094 H1108 0.960 . S
C1095 C1092 1.511 . S
C1095 H1109 0.961 . S
C1095 H1110 0.961 . S
C1095 H1111 0.961 . S
C1096 C1097 1.370 . S
C1096 C1098 1.363 . S
C1096 H1112 0.931 . S
C1097 C1096 1.370 . S
C1097 C1101 1.408 . S
C1098 C1096 1.363 . S
C1098 C1099 1.370 . S
C1098 C1102 1.524 . S
C1099 C1091 1.503 . S
C1099 C1098 1.370 . S
C1099 C1100 1.403 . S
C1100 C1099 1.403 . S
C1100 C1101 1.404 . S
C1100 C1103 1.539 . S
C1101 C1097 1.408 . S
C1101 C1100 1.404 . S
C1101 H1113 0.930 . S
C1102 C1098 1.524 . S
C1102 H1114 0.956 . S
C1102 H1115 0.961 . S
C1102 H1116 0.961 . S
C1103 C1100 1.539 . S
C1103 H1117 0.958 . S
C1103 H1118 0.961 . S
C1103 H1119 0.960 . S
H1104 C1088 0.931 . S
H1105 C1093 0.929 . S
H1106 C1094 0.960 . S
H1107 C1094 0.962 . S
H1108 C1094 0.960 . S
H1109 C1095 0.961 . S
H1110 C1095 0.961 . S
H1111 C1095 0.961 . S
H1112 C1096 0.931 . S
H1113 C1101 0.930 . S
H1114 C1102 0.956 . S
H1115 C1102 0.961 . S
H1116 C1102 0.961 . S
H1117 C1103 0.958 . S
H1118 C1103 0.961 . S
H1119 C1103 0.960 . S
C1120 C1121 1.391 . S
C1120 C1122 1.394 . S
C1120 H1136 0.931 . S
C1121 C1120 1.391 . S
C1121 C1125 1.376 . S
C1122 C1120 1.394 . S
C1122 C1123 1.369 . S
C1122 C1126 1.531 . S
C1123 C1122 1.369 . S
C1123 C1124 1.410 . S
C1123 C1131 1.503 . S
C1124 C1123 1.410 . S
C1124 C1125 1.392 . S
C1124 C1127 1.511 . S
C1125 C1121 1.376 . S
C1125 C1124 1.392 . S
C1125 H1137 0.929 . S
C1126 C1122 1.531 . S
C1126 H1138 0.960 . S
C1126 H1139 0.962 . S
C1126 H1140 0.960 . S
C1127 C1124 1.511 . S
C1127 H1141 0.961 . S
C1127 H1142 0.961 . S
C1127 H1143 0.961 . S
C1128 C1129 1.370 . S
C1128 C1130 1.363 . S
C1128 H1144 0.931 . S
C1129 C1128 1.370 . S
C1129 C1133 1.408 . S
C1130 C1128 1.363 . S
C1130 C1131 1.370 . S
C1130 C1134 1.524 . S
C1131 C1123 1.503 . S
C1131 C1130 1.370 . S
C1131 C1132 1.403 . S
C1132 C1131 1.403 . S
C1132 C1133 1.404 . S
C1132 C1135 1.539 . S
C1133 C1129 1.408 . S
C1133 C1132 1.404 . S
C1133 H1145 0.930 . S
C1134 C1130 1.524 . S
C1134 H1146 0.956 . S
C1134 H1147 0.961 . S
C1134 H1148 0.961 . S
C1135 C1132 1.539 . S
C1135 H1149 0.958 . S
C1135 H1150 0.961 . S
C1135 H1151 0.960 . S
H1136 C1120 0.931 . S
H1137 C1125 0.929 . S
H1138 C1126 0.960 . S
H1139 C1126 0.962 . S
H1140 C1126 0.960 . S
H1141 C1127 0.961 . S
H1142 C1127 0.961 . S
H1143 C1127 0.961 . S
H1144 C1128 0.931 . S
H1145 C1133 0.930 . S
H1146 C1134 0.956 . S
H1147 C1134 0.961 . S
H1148 C1134 0.961 . S
H1149 C1135 0.958 . S
H1150 C1135 0.961 . S
H1151 C1135 0.960 . S
C1152 C1153 1.391 . S
C1152 C1154 1.394 . S
C1152 H1168 0.931 . S
C1153 C1152 1.391 . S
C1153 C1157 1.376 . S
C1154 C1152 1.394 . S
C1154 C1155 1.369 . S
C1154 C1158 1.531 . S
C1155 C1154 1.369 . S
C1155 C1156 1.410 . S
C1155 C1163 1.503 . S
C1156 C1155 1.410 . S
C1156 C1157 1.392 . S
C1156 C1159 1.511 . S
C1157 C1153 1.376 . S
C1157 C1156 1.392 . S
C1157 H1169 0.929 . S
C1158 C1154 1.531 . S
C1158 H1170 0.960 . S
C1158 H1171 0.962 . S
C1158 H1172 0.960 . S
C1159 C1156 1.511 . S
C1159 H1173 0.961 . S
C1159 H1174 0.961 . S
C1159 H1175 0.961 . S
C1160 C1161 1.370 . S
C1160 C1162 1.363 . S
C1160 H1176 0.931 . S
C1161 C1160 1.370 . S
C1161 C1165 1.408 . S
C1162 C1160 1.363 . S
C1162 C1163 1.370 . S
C1162 C1166 1.524 . S
C1163 C1155 1.503 . S
C1163 C1162 1.370 . S
C1163 C1164 1.403 . S
C1164 C1163 1.403 . S
C1164 C1165 1.404 . S
C1164 C1167 1.539 . S
C1165 C1161 1.408 . S
C1165 C1164 1.404 . S
C1165 H1177 0.930 . S
C1166 C1162 1.524 . S
C1166 H1178 0.956 . S
C1166 H1179 0.961 . S
C1166 H1180 0.961 . S
C1167 C1164 1.539 . S
C1167 H1181 0.958 . S
C1167 H1182 0.961 . S
C1167 H1183 0.960 . S
H1168 C1152 0.931 . S
H1169 C1157 0.929 . S
H1170 C1158 0.960 . S
H1171 C1158 0.962 . S
H1172 C1158 0.960 . S
H1173 C1159 0.961 . S
H1174 C1159 0.961 . S
H1175 C1159 0.961 . S
H1176 C1160 0.931 . S
H1177 C1165 0.930 . S
H1178 C1166 0.956 . S
H1179 C1166 0.961 . S
H1180 C1166 0.961 . S
H1181 C1167 0.958 . S
H1182 C1167 0.961 . S
H1183 C1167 0.960 . S
C1184 C1185 1.391 . S
C1184 C1186 1.394 . S
C1184 H1200 0.931 . S
C1185 C1184 1.391 . S
C1185 C1189 1.376 1_665 S
C1186 C1184 1.394 . S
C1186 C1187 1.369 1_655 S
C1186 C1190 1.531 . S
C1187 C1186 1.369 1_455 S
C1187 C1188 1.410 1_565 S
C1187 C1195 1.503 1_556 S
C1188 C1187 1.410 1_545 S
C1188 C1189 1.392 . S
C1188 C1191 1.511 . S
C1189 C1185 1.376 1_445 S
C1189 C1188 1.392 . S
C1189 H1201 0.929 . S
C1190 C1186 1.531 . S
C1190 H1202 0.960 1_556 S
C1190 H1203 0.962 . S
C1190 H1204 0.960 . S
C1191 C1188 1.511 . S
C1191 H1205 0.961 . S
C1191 H1206 0.961 1_556 S
C1191 H1207 0.961 1_545 S
C1192 C1193 1.396 1_655 S
C1192 C1194 1.363 . S
C1192 H1208 0.931 . S
C1193 C1192 1.396 1_455 S
C1193 C1197 1.380 1_545 S
C1194 C1192 1.363 . S
C1194 C1195 1.370 1_645 S
C1194 C1198 1.524 . S
C1195 C1187 1.503 1_554 S
C1195 C1194 1.370 1_465 S
C1195 C1196 1.403 . S
C1196 C1195 1.403 . S
C1196 C1197 1.404 . S
C1196 C1199 1.539 . S
C1197 C1193 1.380 1_565 S
C1197 C1196 1.404 . S
C1197 H1209 0.930 . S
C1198 C1194 1.524 . S
C1198 H1210 0.956 . S
C1198 H1211 0.961 1_554 S
C1198 H1212 0.961 . S
C1199 C1196 1.539 . S
C1199 H1213 0.958 . S
C1199 H1214 0.961 . S
C1199 H1215 0.959 1_554 S
H1200 C1184 0.931 . S
H1201 C1189 0.929 . S
H1202 C1190 0.960 1_554 S
H1203 C1190 0.962 . S
H1204 C1190 0.960 . S
H1205 C1191 0.961 . S
H1206 C1191 0.961 1_554 S
H1207 C1191 0.961 1_565 S
H1208 C1192 0.931 . S
H1209 C1197 0.930 . S
H1210 C1198 0.956 . S
H1211 C1198 0.961 1_556 S
H1212 C1198 0.961 . S
H1213 C1199 0.958 . S
H1214 C1199 0.961 . S
H1215 C1199 0.959 1_556 S
C1216 C1217 1.391 . S
C1216 C1218 1.394 . S
C1216 H1232 0.931 . S
C1217 C1216 1.391 . S
C1217 C1221 1.376 . S
C1218 C1216 1.394 . S
C1218 C1219 1.369 . S
C1218 C1222 1.531 . S
C1219 C1218 1.369 . S
C1219 C1220 1.410 . S
C1219 C1227 1.503 . S
C1220 C1219 1.410 . S
C1220 C1221 1.392 . S
C1220 C1223 1.511 . S
C1221 C1217 1.376 . S
C1221 C1220 1.392 . S
C1221 H1233 0.929 . S
C1222 C1218 1.531 . S
C1222 H1234 0.960 . S
C1222 H1235 0.962 . S
C1222 H1236 0.960 . S
C1223 C1220 1.511 . S
C1223 H1237 0.961 . S
C1223 H1238 0.961 . S
C1223 H1239 0.961 . S
C1224 C1225 1.370 . S
C1224 C1226 1.363 . S
C1224 H1240 0.931 . S
C1225 C1224 1.370 . S
C1225 C1229 1.408 . S
C1226 C1224 1.363 . S
C1226 C1227 1.370 . S
C1226 C1230 1.524 . S
C1227 C1219 1.503 . S
C1227 C1226 1.370 . S
C1227 C1228 1.403 . S
C1228 C1227 1.403 . S
C1228 C1229 1.404 . S
C1228 C1231 1.539 . S
C1229 C1225 1.408 . S
C1229 C1228 1.404 . S
C1229 H1241 0.930 . S
C1230 C1226 1.524 . S
C1230 H1242 0.956 . S
C1230 H1243 0.961 . S
C1230 H1244 0.961 . S
C1231 C1228 1.539 . S
C1231 H1245 0.958 . S
C1231 H1246 0.961 . S
C1231 H1247 0.960 . S
H1232 C1216 0.931 . S
H1233 C1221 0.929 . S
H1234 C1222 0.960 . S
H1235 C1222 0.962 . S
H1236 C1222 0.960 . S
H1237 C1223 0.961 . S
H1238 C1223 0.961 . S
H1239 C1223 0.961 . S
H1240 C1224 0.931 . S
H1241 C1229 0.930 . S
H1242 C1230 0.956 . S
H1243 C1230 0.961 . S
H1244 C1230 0.961 . S
H1245 C1231 0.958 . S
H1246 C1231 0.961 . S
H1247 C1231 0.960 . S
C1248 C1249 1.391 1_545 S
C1248 C1250 1.394 . S
C1248 H1264 0.931 . S
C1249 C1248 1.391 1_565 S
C1249 C1253 1.376 . S
C1250 C1248 1.394 . S
C1250 C1251 1.369 1_545 S
C1250 C1254 1.531 . S
C1251 C1250 1.369 1_565 S
C1251 C1252 1.410 . S
C1251 C1259 1.503 . S
C1252 C1251 1.410 . S
C1252 C1253 1.392 . S
C1252 C1255 1.511 . S
C1253 C1249 1.376 . S
C1253 C1252 1.392 . S
C1253 H1265 0.929 . S
C1254 C1250 1.531 . S
C1254 H1266 0.960 . S
C1254 H1267 0.962 . S
C1254 H1268 0.960 . S
C1255 C1252 1.511 . S
C1255 H1269 0.961 . S
C1255 H1270 0.961 . S
C1255 H1271 0.961 . S
C1256 C1257 1.370 . S
C1256 C1258 1.363 . S
C1256 H1272 0.931 . S
C1257 C1256 1.370 . S
C1257 C1261 1.408 1_545 S
C1258 C1256 1.363 . S
C1258 C1259 1.370 1_545 S
C1258 C1262 1.524 . S
C1259 C1251 1.503 . S
C1259 C1258 1.370 1_565 S
C1259 C1260 1.403 . S
C1260 C1259 1.403 . S
C1260 C1261 1.404 . S
C1260 C1263 1.539 . S
C1261 C1257 1.408 1_565 S
C1261 C1260 1.404 . S
C1261 H1273 0.930 . S
C1262 C1258 1.524 . S
C1262 H1274 0.956 . S
C1262 H1275 0.961 . S
C1262 H1276 0.961 . S
C1263 C1260 1.539 . S
C1263 H1277 0.958 . S
C1263 H1278 0.961 . S
C1263 H1279 0.960 . S
H1264 C1248 0.931 . S
H1265 C1253 0.929 . S
H1266 C1254 0.960 . S
H1267 C1254 0.962 . S
H1268 C1254 0.960 . S
H1269 C1255 0.961 . S
H1270 C1255 0.961 . S
H1271 C1255 0.961 . S
H1272 C1256 0.931 . S
H1273 C1261 0.930 . S
H1274 C1262 0.956 . S
H1275 C1262 0.961 . S
H1276 C1262 0.961 . S
H1277 C1263 0.958 . S
H1278 C1263 0.961 . S
H1279 C1263 0.960 . S
C1280 C1281 1.391 . S
C1280 C1282 1.394 . S
C1280 H1296 0.931 . S
C1281 C1280 1.391 . S
C1281 C1285 1.376 . S
C1282 C1280 1.394 . S
C1282 C1283 1.369 . S
C1282 C1286 1.531 . S
C1283 C1282 1.369 . S
C1283 C1284 1.410 . S
C1283 C1291 1.503 . S
C1284 C1283 1.410 . S
C1284 C1285 1.392 . S
C1284 C1287 1.511 . S
C1285 C1281 1.376 . S
C1285 C1284 1.392 . S
C1285 H1297 0.929 . S
C1286 C1282 1.531 . S
C1286 H1298 0.960 . S
C1286 H1299 0.962 . S
C1286 H1300 0.960 . S
C1287 C1284 1.511 . S
C1287 H1301 0.961 . S
C1287 H1302 0.961 . S
C1287 H1303 0.961 . S
C1288 C1289 1.370 . S
C1288 C1290 1.363 . S
C1288 H1304 0.931 . S
C1289 C1288 1.370 . S
C1289 C1293 1.408 . S
C1290 C1288 1.363 . S
C1290 C1291 1.370 . S
C1290 C1294 1.524 . S
C1291 C1283 1.503 . S
C1291 C1290 1.370 . S
C1291 C1292 1.403 . S
C1292 C1291 1.403 . S
C1292 C1293 1.404 . S
C1292 C1295 1.539 . S
C1293 C1289 1.408 . S
C1293 C1292 1.404 . S
C1293 H1305 0.930 . S
C1294 C1290 1.524 . S
C1294 H1306 0.956 . S
C1294 H1307 0.961 . S
C1294 H1308 0.961 . S
C1295 C1292 1.539 . S
C1295 H1309 0.958 . S
C1295 H1310 0.961 . S
C1295 H1311 0.960 . S
H1296 C1280 0.931 . S
H1297 C1285 0.929 . S
H1298 C1286 0.960 . S
H1299 C1286 0.962 . S
H1300 C1286 0.960 . S
H1301 C1287 0.961 . S
H1302 C1287 0.961 . S
H1303 C1287 0.961 . S
H1304 C1288 0.931 . S
H1305 C1293 0.930 . S
H1306 C1294 0.956 . S
H1307 C1294 0.961 . S
H1308 C1294 0.961 . S
H1309 C1295 0.958 . S
H1310 C1295 0.961 . S
H1311 C1295 0.960 . S
C1312 C1313 1.391 . S
C1312 C1314 1.394 . S
C1312 H1328 0.931 . S
C1313 C1312 1.391 . S
C1313 C1317 1.376 . S
C1314 C1312 1.394 . S
C1314 C1315 1.369 . S
C1314 C1318 1.531 . S
C1315 C1314 1.369 . S
C1315 C1316 1.410 . S
C1315 C1323 1.503 . S
C1316 C1315 1.410 . S
C1316 C1317 1.392 . S
C1316 C1319 1.511 . S
C1317 C1313 1.376 . S
C1317 C1316 1.392 . S
C1317 H1329 0.929 . S
C1318 C1314 1.531 . S
C1318 H1330 0.960 . S
C1318 H1331 0.962 . S
C1318 H1332 0.960 . S
C1319 C1316 1.511 . S
C1319 H1333 0.961 . S
C1319 H1334 0.961 . S
C1319 H1335 0.961 . S
C1320 C1321 1.370 . S
C1320 C1322 1.363 . S
C1320 H1336 0.931 . S
C1321 C1320 1.370 . S
C1321 C1325 1.408 . S
C1322 C1320 1.363 . S
C1322 C1323 1.370 . S
C1322 C1326 1.524 . S
C1323 C1315 1.503 . S
C1323 C1322 1.370 . S
C1323 C1324 1.403 . S
C1324 C1323 1.403 . S
C1324 C1325 1.404 . S
C1324 C1327 1.539 . S
C1325 C1321 1.408 . S
C1325 C1324 1.404 . S
C1325 H1337 0.930 . S
C1326 C1322 1.524 . S
C1326 H1338 0.956 . S
C1326 H1339 0.961 . S
C1326 H1340 0.961 . S
C1327 C1324 1.539 . S
C1327 H1341 0.958 . S
C1327 H1342 0.961 . S
C1327 H1343 0.960 . S
H1328 C1312 0.931 . S
H1329 C1317 0.929 . S
H1330 C1318 0.960 . S
H1331 C1318 0.962 . S
H1332 C1318 0.960 . S
H1333 C1319 0.961 . S
H1334 C1319 0.961 . S
H1335 C1319 0.961 . S
H1336 C1320 0.931 . S
H1337 C1325 0.930 . S
H1338 C1326 0.956 . S
H1339 C1326 0.961 . S
H1340 C1326 0.961 . S
H1341 C1327 0.958 . S
H1342 C1327 0.961 . S
H1343 C1327 0.960 . S
C1344 C1345 1.391 . S
C1344 C1346 1.394 . S
C1344 H1360 0.931 . S
C1345 C1344 1.391 . S
C1345 C1349 1.376 . S
C1346 C1344 1.394 . S
C1346 C1347 1.369 . S
C1346 C1350 1.531 . S
C1347 C1346 1.369 . S
C1347 C1348 1.410 . S
C1347 C1355 1.503 . S
C1348 C1347 1.410 . S
C1348 C1349 1.392 . S
C1348 C1351 1.511 . S
C1349 C1345 1.376 . S
C1349 C1348 1.392 . S
C1349 H1361 0.929 . S
C1350 C1346 1.531 . S
C1350 H1362 0.960 . S
C1350 H1363 0.962 . S
C1350 H1364 0.960 . S
C1351 C1348 1.511 . S
C1351 H1365 0.961 . S
C1351 H1366 0.961 . S
C1351 H1367 0.961 . S
C1352 C1353 1.370 . S
C1352 C1354 1.363 . S
C1352 H1368 0.931 . S
C1353 C1352 1.370 . S
C1353 C1357 1.408 . S
C1354 C1352 1.363 . S
C1354 C1355 1.370 . S
C1354 C1358 1.524 . S
C1355 C1347 1.503 . S
C1355 C1354 1.370 . S
C1355 C1356 1.403 . S
C1356 C1355 1.403 . S
C1356 C1357 1.404 . S
C1356 C1359 1.539 . S
C1357 C1353 1.408 . S
C1357 C1356 1.404 . S
C1357 H1369 0.930 . S
C1358 C1354 1.524 . S
C1358 H1370 0.956 . S
C1358 H1371 0.961 . S
C1358 H1372 0.961 . S
C1359 C1356 1.539 . S
C1359 H1373 0.958 . S
C1359 H1374 0.961 . S
C1359 H1375 0.960 . S
H1360 C1344 0.931 . S
H1361 C1349 0.929 . S
H1362 C1350 0.960 . S
H1363 C1350 0.962 . S
H1364 C1350 0.960 . S
H1365 C1351 0.961 . S
H1366 C1351 0.961 . S
H1367 C1351 0.961 . S
H1368 C1352 0.931 . S
H1369 C1357 0.930 . S
H1370 C1358 0.956 . S
H1371 C1358 0.961 . S
H1372 C1358 0.961 . S
H1373 C1359 0.958 . S
H1374 C1359 0.961 . S
H1375 C1359 0.960 . S
C1376 C1377 1.391 . S
C1376 C1378 1.394 . S
C1376 H1392 0.931 . S
C1377 C1376 1.391 . S
C1377 C1381 1.376 . S
C1378 C1376 1.394 . S
C1378 C1379 1.369 . S
C1378 C1382 1.531 . S
C1379 C1378 1.369 . S
C1379 C1380 1.410 . S
C1379 C1387 1.503 . S
C1380 C1379 1.410 . S
C1380 C1381 1.392 . S
C1380 C1383 1.511 . S
C1381 C1377 1.376 . S
C1381 C1380 1.392 . S
C1381 H1393 0.929 . S
C1382 C1378 1.531 . S
C1382 H1394 0.960 . S
C1382 H1395 0.962 . S
C1382 H1396 0.960 . S
C1383 C1380 1.511 . S
C1383 H1397 0.961 . S
C1383 H1398 0.961 . S
C1383 H1399 0.961 . S
C1384 C1385 1.370 . S
C1384 C1386 1.363 . S
C1384 H1400 0.931 . S
C1385 C1384 1.370 . S
C1385 C1389 1.408 . S
C1386 C1384 1.363 . S
C1386 C1387 1.370 . S
C1386 C1390 1.524 . S
C1387 C1379 1.503 . S
C1387 C1386 1.370 . S
C1387 C1388 1.403 . S
C1388 C1387 1.403 . S
C1388 C1389 1.404 . S
C1388 C1391 1.539 . S
C1389 C1385 1.408 . S
C1389 C1388 1.404 . S
C1389 H1401 0.930 . S
C1390 C1386 1.524 . S
C1390 H1402 0.956 . S
C1390 H1403 0.961 . S
C1390 H1404 0.961 . S
C1391 C1388 1.539 . S
C1391 H1405 0.958 . S
C1391 H1406 0.961 . S
C1391 H1407 0.960 . S
H1392 C1376 0.931 . S
H1393 C1381 0.929 . S
H1394 C1382 0.960 . S
H1395 C1382 0.962 . S
H1396 C1382 0.960 . S
H1397 C1383 0.961 . S
H1398 C1383 0.961 . S
H1399 C1383 0.961 . S
H1400 C1384 0.931 . S
H1401 C1389 0.930 . S
H1402 C1390 0.956 . S
H1403 C1390 0.961 . S
H1404 C1390 0.961 . S
H1405 C1391 0.958 . S
H1406 C1391 0.961 . S
H1407 C1391 0.960 . S
C1408 C1409 1.391 1_455 S
C1408 C1410 1.394 . S
C1408 H1424 0.931 . S
C1409 C1408 1.391 1_655 S
C1409 C1413 1.376 . S
C1410 C1408 1.394 . S
C1410 C1411 1.369 . S
C1410 C1414 1.531 . S
C1411 C1410 1.369 . S
C1411 C1412 1.410 1_455 S
C1411 C1419 1.503 1_556 S
C1412 C1411 1.410 1_655 S
C1412 C1413 1.392 . S
C1412 C1415 1.511 . S
C1413 C1409 1.376 . S
C1413 C1412 1.392 . S
C1413 H1425 0.929 . S
C1414 C1410 1.531 . S
C1414 H1426 0.979 . S
C1414 H1427 0.962 . S
C1414 H1428 0.960 . S
C1415 C1412 1.511 . S
C1415 H1429 0.961 . S
C1415 H1430 0.961 1_556 S
C1415 H1431 0.961 . S
C1416 C1417 1.370 1_655 S
C1416 C1418 1.363 . S
C1416 H1432 0.931 . S
C1417 C1416 1.370 1_455 S
C1417 C1421 1.408 . S
C1418 C1416 1.363 . S
C1418 C1419 1.370 1_655 S
C1418 C1422 1.524 . S
C1419 C1411 1.503 1_554 S
C1419 C1418 1.370 1_455 S
C1419 C1420 1.403 . S
C1420 C1419 1.403 . S
C1420 C1421 1.404 . S
C1420 C1423 1.539 . S
C1421 C1417 1.408 . S
C1421 C1420 1.404 . S
C1421 H1433 0.930 . S
C1422 C1418 1.524 . S
C1422 H1434 0.955 1_554 S
C1422 H1435 0.961 1_554 S
C1422 H1436 0.961 . S
C1423 C1420 1.539 . S
C1423 H1437 0.958 . S
C1423 H1438 0.961 . S
C1423 H1439 0.960 . S
H1424 C1408 0.931 . S
H1425 C1413 0.929 . S
H1426 C1414 0.979 . S
H1427 C1414 0.962 . S
H1428 C1414 0.960 . S
H1429 C1415 0.961 . S
H1430 C1415 0.961 1_554 S
H1431 C1415 0.961 . S
H1432 C1416 0.931 . S
H1433 C1421 0.930 . S
H1434 C1422 0.955 1_556 S
H1435 C1422 0.961 1_556 S
H1436 C1422 0.961 . S
H1437 C1423 0.958 . S
H1438 C1423 0.961 . S
H1439 C1423 0.960 . S
C673 C56 1.572 . S
C681 C308 1.585 . S
C705 C74 1.484 . S
C713 C140 1.454 . S
C737 C158 1.348 . S
C745 C242 1.333 . S
C769 C224 1.425 . S
C777 C326 1.463 . S
C801 C67 1.605 . S
C809 C487 1.590 . S
C833 C63 1.485 . S
C841 C403 1.460 . S
C865 C399 1.317 . S
C873 C231 1.330 . S
C897 C483 1.441 . S
C905 C235 1.441 . S
C929 C560 1.584 . S
C937 C476 1.609 . S
C961 C392 1.464 . S
C969 C578 1.477 . S
C993 C662 1.290 . S
C1001 C410 1.321 . S
C1025 C494 1.481 . S
C1033 C644 1.464 . S
C1057 C319 1.568 . S
C1065 C571 1.602 . S
C1089 C567 1.464 . S
C1097 C151 1.451 . S
C1121 C147 1.331 . S
C1129 C651 1.333 . S
C1153 C315 1.449 . S
C1161 C655 1.440 . S
C1185 C70 1.468 1_565 S
C1193 C58 1.385 1_545 S
C1217 C142 1.440 . S
C1225 C154 1.397 . S
C1249 C238 1.447 1_565 S
C1257 C226 1.394 1_545 S
C1281 C322 1.366 . S
C1289 C310 1.441 . S
C1313 C394 1.363 . S
C1321 C406 1.433 . S
C1345 C490 1.421 . S
C1353 C478 1.414 . S
C1377 C562 1.375 . S
C1385 C574 1.434 . S
C1409 C646 1.451 . S
C1417 C658 1.393 . S
