# Generated by pormake.
# Topology wkr, (6)-cn, num edge types: 1
# Building blocks:
#     Node 0, Type 0, BuildingBlock: VOLQOD_clean_sbu_1, # of connection points: 6
#     Node 1, Type 0, BuildingBlock: VOLQOD_clean_sbu_1, # of connection points: 6
#     Node 2, Type 0, BuildingBlock: VOLQOD_clean_sbu_1, # of connection points: 6
#     Node 3, Type 0, BuildingBlock: VOLQOD_clean_sbu_1, # of connection points: 6
#     Node 4, Type 0, BuildingBlock: VOLQOD_clean_sbu_1, # of connection points: 6
#     Node 5, Type 0, BuildingBlock: VOLQOD_clean_sbu_1, # of connection points: 6
#     Node 6, Type 0, BuildingBlock: VOLQOD_clean_sbu_1, # of connection points: 6
#     Node 7, Type 0, BuildingBlock: VOLQOD_clean_sbu_1, # of connection points: 6
#     Node 8, Type 0, BuildingBlock: VOLQOD_clean_sbu_1, # of connection points: 6
#     Node 9, Type 0, BuildingBlock: VOLQOD_clean_sbu_1, # of connection points: 6
#     Node 10, Type 0, BuildingBlock: VOLQOD_clean_sbu_1, # of connection points: 6
#     Node 11, Type 0, BuildingBlock: VOLQOD_clean_sbu_1, # of connection points: 6
#     Node 12, Type 0, BuildingBlock: VOLQOD_clean_sbu_1, # of connection points: 6
#     Node 13, Type 0, BuildingBlock: VOLQOD_clean_sbu_1, # of connection points: 6
#     Node 14, Type 0, BuildingBlock: VOLQOD_clean_sbu_1, # of connection points: 6
#     Node 15, Type 0, BuildingBlock: VOLQOD_clean_sbu_1, # of connection points: 6
#     Node 16, Type 0, BuildingBlock: VOLQOD_clean_sbu_1, # of connection points: 6
#     Node 17, Type 0, BuildingBlock: VOLQOD_clean_sbu_1, # of connection points: 6
#     Node 18, Type 0, BuildingBlock: VOLQOD_clean_sbu_1, # of connection points: 6
#     Node 19, Type 0, BuildingBlock: VOLQOD_clean_sbu_1, # of connection points: 6
#     Node 20, Type 0, BuildingBlock: VOLQOD_clean_sbu_1, # of connection points: 6
#     Node 21, Type 0, BuildingBlock: VOLQOD_clean_sbu_1, # of connection points: 6
#     Node 22, Type 0, BuildingBlock: VOLQOD_clean_sbu_1, # of connection points: 6
#     Node 23, Type 0, BuildingBlock: VOLQOD_clean_sbu_1, # of connection points: 6
#     Edge 24, Type (0, 0), BuildingBlock: OJICUG_clean_linker_0, # of connection points: 2
#     Edge 25, Type (0, 0), BuildingBlock: OJICUG_clean_linker_0, # of connection points: 2
#     Edge 26, Type (0, 0), BuildingBlock: OJICUG_clean_linker_0, # of connection points: 2
#     Edge 27, Type (0, 0), BuildingBlock: OJICUG_clean_linker_0, # of connection points: 2
#     Edge 28, Type (0, 0), BuildingBlock: OJICUG_clean_linker_0, # of connection points: 2
#     Edge 29, Type (0, 0), BuildingBlock: OJICUG_clean_linker_0, # of connection points: 2
#     Edge 30, Type (0, 0), BuildingBlock: OJICUG_clean_linker_0, # of connection points: 2
#     Edge 31, Type (0, 0), BuildingBlock: OJICUG_clean_linker_0, # of connection points: 2
#     Edge 32, Type (0, 0), BuildingBlock: OJICUG_clean_linker_0, # of connection points: 2
#     Edge 33, Type (0, 0), BuildingBlock: OJICUG_clean_linker_0, # of connection points: 2
#     Edge 34, Type (0, 0), BuildingBlock: OJICUG_clean_linker_0, # of connection points: 2
#     Edge 35, Type (0, 0), BuildingBlock: OJICUG_clean_linker_0, # of connection points: 2
#     Edge 36, Type (0, 0), BuildingBlock: OJICUG_clean_linker_0, # of connection points: 2
#     Edge 37, Type (0, 0), BuildingBlock: OJICUG_clean_linker_0, # of connection points: 2
#     Edge 38, Type (0, 0), BuildingBlock: OJICUG_clean_linker_0, # of connection points: 2
#     Edge 39, Type (0, 0), BuildingBlock: OJICUG_clean_linker_0, # of connection points: 2
#     Edge 40, Type (0, 0), BuildingBlock: OJICUG_clean_linker_0, # of connection points: 2
#     Edge 41, Type (0, 0), BuildingBlock: OJICUG_clean_linker_0, # of connection points: 2
#     Edge 42, Type (0, 0), BuildingBlock: OJICUG_clean_linker_0, # of connection points: 2
#     Edge 43, Type (0, 0), BuildingBlock: OJICUG_clean_linker_0, # of connection points: 2
#     Edge 44, Type (0, 0), BuildingBlock: OJICUG_clean_linker_0, # of connection points: 2
#     Edge 45, Type (0, 0), BuildingBlock: OJICUG_clean_linker_0, # of connection points: 2
#     Edge 46, Type (0, 0), BuildingBlock: OJICUG_clean_linker_0, # of connection points: 2
#     Edge 47, Type (0, 0), BuildingBlock: OJICUG_clean_linker_0, # of connection points: 2
#     Edge 48, Type (0, 0), BuildingBlock: OJICUG_clean_linker_0, # of connection points: 2
#     Edge 49, Type (0, 0), BuildingBlock: OJICUG_clean_linker_0, # of connection points: 2
#     Edge 50, Type (0, 0), BuildingBlock: OJICUG_clean_linker_0, # of connection points: 2
#     Edge 51, Type (0, 0), BuildingBlock: OJICUG_clean_linker_0, # of connection points: 2
#     Edge 52, Type (0, 0), BuildingBlock: OJICUG_clean_linker_0, # of connection points: 2
#     Edge 53, Type (0, 0), BuildingBlock: OJICUG_clean_linker_0, # of connection points: 2
#     Edge 54, Type (0, 0), BuildingBlock: OJICUG_clean_linker_0, # of connection points: 2
#     Edge 55, Type (0, 0), BuildingBlock: OJICUG_clean_linker_0, # of connection points: 2
#     Edge 56, Type (0, 0), BuildingBlock: OJICUG_clean_linker_0, # of connection points: 2
#     Edge 57, Type (0, 0), BuildingBlock: OJICUG_clean_linker_0, # of connection points: 2
#     Edge 58, Type (0, 0), BuildingBlock: OJICUG_clean_linker_0, # of connection points: 2
#     Edge 59, Type (0, 0), BuildingBlock: OJICUG_clean_linker_0, # of connection points: 2
#     Edge 60, Type (0, 0), BuildingBlock: OJICUG_clean_linker_0, # of connection points: 2
#     Edge 61, Type (0, 0), BuildingBlock: OJICUG_clean_linker_0, # of connection points: 2
#     Edge 62, Type (0, 0), BuildingBlock: OJICUG_clean_linker_0, # of connection points: 2
#     Edge 63, Type (0, 0), BuildingBlock: OJICUG_clean_linker_0, # of connection points: 2
#     Edge 64, Type (0, 0), BuildingBlock: OJICUG_clean_linker_0, # of connection points: 2
#     Edge 65, Type (0, 0), BuildingBlock: OJICUG_clean_linker_0, # of connection points: 2
#     Edge 66, Type (0, 0), BuildingBlock: OJICUG_clean_linker_0, # of connection points: 2
#     Edge 67, Type (0, 0), BuildingBlock: OJICUG_clean_linker_0, # of connection points: 2
#     Edge 68, Type (0, 0), BuildingBlock: OJICUG_clean_linker_0, # of connection points: 2
#     Edge 69, Type (0, 0), BuildingBlock: OJICUG_clean_linker_0, # of connection points: 2
#     Edge 70, Type (0, 0), BuildingBlock: OJICUG_clean_linker_0, # of connection points: 2
#     Edge 71, Type (0, 0), BuildingBlock: OJICUG_clean_linker_0, # of connection points: 2
#     Edge 72, Type (0, 0), BuildingBlock: OJICUG_clean_linker_0, # of connection points: 2
#     Edge 73, Type (0, 0), BuildingBlock: OJICUG_clean_linker_0, # of connection points: 2
#     Edge 74, Type (0, 0), BuildingBlock: OJICUG_clean_linker_0, # of connection points: 2
#     Edge 75, Type (0, 0), BuildingBlock: OJICUG_clean_linker_0, # of connection points: 2
#     Edge 76, Type (0, 0), BuildingBlock: OJICUG_clean_linker_0, # of connection points: 2
#     Edge 77, Type (0, 0), BuildingBlock: OJICUG_clean_linker_0, # of connection points: 2
#     Edge 78, Type (0, 0), BuildingBlock: OJICUG_clean_linker_0, # of connection points: 2
#     Edge 79, Type (0, 0), BuildingBlock: OJICUG_clean_linker_0, # of connection points: 2
#     Edge 80, Type (0, 0), BuildingBlock: OJICUG_clean_linker_0, # of connection points: 2
#     Edge 81, Type (0, 0), BuildingBlock: OJICUG_clean_linker_0, # of connection points: 2
#     Edge 82, Type (0, 0), BuildingBlock: OJICUG_clean_linker_0, # of connection points: 2
#     Edge 83, Type (0, 0), BuildingBlock: OJICUG_clean_linker_0, # of connection points: 2
#     Edge 84, Type (0, 0), BuildingBlock: OJICUG_clean_linker_0, # of connection points: 2
#     Edge 85, Type (0, 0), BuildingBlock: OJICUG_clean_linker_0, # of connection points: 2
#     Edge 86, Type (0, 0), BuildingBlock: OJICUG_clean_linker_0, # of connection points: 2
#     Edge 87, Type (0, 0), BuildingBlock: OJICUG_clean_linker_0, # of connection points: 2
#     Edge 88, Type (0, 0), BuildingBlock: OJICUG_clean_linker_0, # of connection points: 2
#     Edge 89, Type (0, 0), BuildingBlock: OJICUG_clean_linker_0, # of connection points: 2
#     Edge 90, Type (0, 0), BuildingBlock: OJICUG_clean_linker_0, # of connection points: 2
#     Edge 91, Type (0, 0), BuildingBlock: OJICUG_clean_linker_0, # of connection points: 2
#     Edge 92, Type (0, 0), BuildingBlock: OJICUG_clean_linker_0, # of connection points: 2
#     Edge 93, Type (0, 0), BuildingBlock: OJICUG_clean_linker_0, # of connection points: 2
#     Edge 94, Type (0, 0), BuildingBlock: OJICUG_clean_linker_0, # of connection points: 2
#     Edge 95, Type (0, 0), BuildingBlock: OJICUG_clean_linker_0, # of connection points: 2
# Relax obj value: 0.730
# Max RMSD: 0.278
# Mean RMSD: 0.278
data_MOF--net-wkr--node1-VOLQOD_clean_sbu_1--edge1-OJICUG_clean_linker_0
_symmetry_space_group_name_H-M    P1
_symmetry_Int_Tables_number       1
_symmetry_cell_setting            triclinic
loop_
_symmetry_equiv_pos_as_xyz
'x, y, z'
_cell_length_a     38.818999
_cell_length_b     38.817737
_cell_length_c     38.362176
_cell_angle_alpha  89.994954
_cell_angle_beta   89.998359
_cell_angle_gamma 120.0133
loop_
_atom_site_label
_atom_site_type_symbol
_atom_site_fract_x
_atom_site_fract_y
_atom_site_fract_z
_atom_type_partial_charge
O0 O 0.48644 0.08958 0.19828 0.0
Zn1 Zn 0.4754 0.13588 0.18231 0.0
O2 O 0.52637 0.18184 0.16601 0.0
Zn3 Zn 0.53371 0.23143 0.18521 0.0
Zn4 Zn 0.5697 0.17483 0.18148 0.0
Zn5 Zn 0.5318 0.1887 0.11523 0.0
O6 O 0.53913 0.26991 0.14862 0.0
O7 O 0.53703 0.2404 0.09857 0.0
O8 O 0.45201 0.15726 0.22299 0.0
O9 O 0.48851 0.22261 0.21457 0.0
O10 O 0.58075 0.25765 0.21767 0.0
O11 O 0.60123 0.21352 0.21805 0.0
O12 O 0.60767 0.18423 0.14402 0.0
O13 O 0.4388 0.11395 0.13778 0.0
O14 O 0.58108 0.19055 0.09521 0.0
O15 O 0.48274 0.14535 0.09481 0.0
C16 C 0.51907 0.08891 0.20209 0.0
C17 C 0.53945 0.2696 0.11555 0.0
C18 C 0.60404 0.24585 0.22853 0.0
C19 C 0.46008 0.19316 0.22986 0.0
C20 C 0.6089 0.18907 0.11133 0.0
C21 C 0.44815 0.11963 0.10527 0.0
O22 O 0.55234 0.12019 0.19728 0.0
O23 O 0.41351 0.47974 0.19751 0.0
Zn24 Zn 0.35611 0.46862 0.18161 0.0
O25 O 0.36095 0.51958 0.16541 0.0
Zn26 Zn 0.31904 0.52715 0.18504 0.0
Zn27 Zn 0.41154 0.56296 0.18048 0.0
Zn28 Zn 0.35884 0.52483 0.11466 0.0
O29 O 0.2854 0.53219 0.14882 0.0
O30 O 0.31179 0.52932 0.09845 0.0
O31 O 0.31125 0.44487 0.22224 0.0
O32 O 0.28304 0.48208 0.21468 0.0
O33 O 0.34031 0.57443 0.21722 0.0
O34 O 0.40489 0.59474 0.21718 0.0
O35 O 0.43961 0.60085 0.14284 0.0
O36 O 0.3416 0.43215 0.13702 0.0
O37 O 0.4057 0.57445 0.09441 0.0
O38 O 0.35354 0.47598 0.09409 0.0
C39 C 0.4469 0.51237 0.20098 0.0
C40 C 0.28534 0.53197 0.11575 0.0
C41 C 0.37553 0.59771 0.22784 0.0
C42 C 0.28372 0.45325 0.2295 0.0
C43 C 0.43534 0.60223 0.11026 0.0
C44 C 0.34504 0.44148 0.10451 0.0
O45 O 0.44894 0.54562 0.19595 0.0
O46 O 0.94839 0.40443 0.1979 0.0
Zn47 Zn 0.90216 0.34696 0.18198 0.0
O48 O 0.85601 0.35169 0.16567 0.0
Zn49 Zn 0.80653 0.30973 0.18529 0.0
Zn50 Zn 0.86314 0.40227 0.18062 0.0
Zn51 Zn 0.84865 0.34946 0.11491 0.0
O52 O 0.76783 0.27602 0.14911 0.0
O53 O 0.79703 0.30248 0.09873 0.0
O54 O 0.88099 0.3022 0.22272 0.0
O55 O 0.81558 0.27379 0.21497 0.0
O56 O 0.78048 0.33098 0.21745 0.0
O57 O 0.82459 0.39561 0.21719 0.0
O58 O 0.85355 0.43036 0.14285 0.0
O59 O 0.92417 0.33237 0.13745 0.0
O60 O 0.84619 0.39639 0.09449 0.0
O61 O 0.8921 0.34396 0.09446 0.0
C62 C 0.94906 0.43777 0.20136 0.0
C63 C 0.76796 0.27599 0.11603 0.0
C64 C 0.79231 0.36621 0.22794 0.0
C65 C 0.84509 0.27461 0.22993 0.0
C66 C 0.84808 0.42608 0.11025 0.0
C67 C 0.91816 0.33557 0.10492 0.0
O68 O 0.91782 0.43972 0.19625 0.0
O69 O 0.55797 0.94107 0.19842 0.0
Zn70 Zn 0.56937 0.89502 0.1824 0.0
O71 O 0.51854 0.84884 0.16607 0.0
Zn72 Zn 0.51132 0.79936 0.18544 0.0
Zn73 Zn 0.475 0.85567 0.18128 0.0
Zn74 Zn 0.51333 0.84184 0.1153 0.0
O75 O 0.50623 0.76086 0.14897 0.0
O76 O 0.50878 0.79038 0.09881 0.0
O77 O 0.59306 0.8739 0.22303 0.0
O78 O 0.55653 0.8085 0.21493 0.0
O79 O 0.46419 0.77309 0.21782 0.0
O80 O 0.44349 0.81705 0.21793 0.0
O81 O 0.43706 0.84588 0.14369 0.0
O82 O 0.60595 0.91725 0.1379 0.0
O83 O 0.46382 0.8393 0.0951 0.0
O84 O 0.5622 0.88549 0.0949 0.0
C85 C 0.52526 0.94163 0.20195 0.0
C86 C 0.50629 0.76121 0.11589 0.0
C87 C 0.44079 0.78481 0.22855 0.0
C88 C 0.58503 0.83804 0.23005 0.0
C89 C 0.43588 0.84075 0.11105 0.0
C90 C 0.59667 0.91149 0.10538 0.0
O91 O 0.49208 0.91032 0.19691 0.0
O92 O 0.63359 0.55086 0.1975 0.0
Zn93 Zn 0.69102 0.56207 0.18161 0.0
O94 O 0.68622 0.51121 0.16527 0.0
Zn95 Zn 0.72833 0.50382 0.18473 0.0
Zn96 Zn 0.63575 0.46776 0.18044 0.0
Zn97 Zn 0.6881 0.50602 0.11451 0.0
O98 O 0.76149 0.49822 0.14834 0.0
O99 O 0.73482 0.5011 0.09811 0.0
O100 O 0.73575 0.58556 0.22232 0.0
O101 O 0.76467 0.54911 0.21402 0.0
O102 O 0.70729 0.45689 0.21735 0.0
O103 O 0.64264 0.4363 0.21727 0.0
O104 O 0.60769 0.42977 0.14287 0.0
O105 O 0.70566 0.59874 0.13714 0.0
O106 O 0.64102 0.4566 0.09427 0.0
O107 O 0.69368 0.55505 0.09408 0.0
C108 C 0.60022 0.51821 0.20093 0.0
C109 C 0.76127 0.49828 0.11526 0.0
C110 C 0.67212 0.43358 0.22805 0.0
C111 C 0.76361 0.57755 0.22924 0.0
C112 C 0.61165 0.42863 0.11022 0.0
C113 C 0.70227 0.58954 0.1046 0.0
O114 O 0.59823 0.48498 0.19587 0.0
O115 O 0.09691 0.62467 0.19817 0.0
Zn116 Zn 0.14302 0.68218 0.18232 0.0
O117 O 0.18922 0.67758 0.16603 0.0
Zn118 Zn 0.23864 0.71989 0.18541 0.0
Zn119 Zn 0.18238 0.62722 0.18128 0.0
Zn120 Zn 0.19635 0.67944 0.11527 0.0
O121 O 0.27713 0.75344 0.14902 0.0
O122 O 0.24786 0.72637 0.09882 0.0
O123 O 0.16406 0.72691 0.22306 0.0
O124 O 0.22946 0.75586 0.21496 0.0
O125 O 0.26499 0.69908 0.21768 0.0
O126 O 0.22103 0.6344 0.21793 0.0
O127 O 0.19225 0.59911 0.14371 0.0
O128 O 0.12093 0.69666 0.1378 0.0
O129 O 0.19888 0.63245 0.0951 0.0
O130 O 0.15277 0.68472 0.09484 0.0
C131 C 0.09634 0.59138 0.20174 0.0
C132 C 0.27691 0.75313 0.11595 0.0
C133 C 0.2533 0.66397 0.22845 0.0
C134 C 0.19991 0.75475 0.2301 0.0
C135 C 0.19743 0.60307 0.11106 0.0
C136 C 0.12678 0.69321 0.10529 0.0
O137 O 0.12768 0.58955 0.19684 0.0
O138 O 0.94886 0.55054 0.38168 0.0
Zn139 Zn 0.90276 0.56188 0.39763 0.0
O140 O 0.85661 0.51104 0.41395 0.0
Zn141 Zn 0.80713 0.50386 0.39464 0.0
Zn142 Zn 0.86346 0.46754 0.39865 0.0
Zn143 Zn 0.84961 0.50576 0.46472 0.0
O144 O 0.76863 0.49871 0.43112 0.0
O145 O 0.79807 0.50103 0.48126 0.0
O146 O 0.88162 0.58547 0.35692 0.0
O147 O 0.81623 0.54908 0.36517 0.0
O148 O 0.78083 0.45677 0.36225 0.0
O149 O 0.8248 0.43608 0.36201 0.0
O150 O 0.85368 0.42955 0.4362 0.0
O151 O 0.92487 0.59848 0.44212 0.0
O152 O 0.84723 0.4563 0.48486 0.0
O153 O 0.89319 0.55467 0.48512 0.0
C154 C 0.94944 0.51784 0.37807 0.0
C155 C 0.76893 0.49861 0.4642 0.0
C156 C 0.79255 0.43338 0.35146 0.0
C157 C 0.84577 0.57749 0.34996 0.0
C158 C 0.84863 0.42836 0.46886 0.0
C159 C 0.91912 0.58918 0.47465 0.0
O160 O 0.91812 0.48464 0.38301 0.0
O161 O 0.41217 0.94036 0.38251 0.0
Zn162 Zn 0.35471 0.89416 0.39845 0.0
O163 O 0.35944 0.84804 0.41481 0.0
Zn164 Zn 0.31741 0.79855 0.39526 0.0
Zn165 Zn 0.40996 0.85508 0.39978 0.0
Zn166 Zn 0.35735 0.84084 0.46558 0.0
O167 O 0.28397 0.75982 0.43154 0.0
O168 O 0.31044 0.78923 0.48185 0.0
O169 O 0.30994 0.87296 0.35775 0.0
O170 O 0.28127 0.80756 0.36577 0.0
O171 O 0.33855 0.7726 0.36286 0.0
O172 O 0.4032 0.81665 0.36305 0.0
O173 O 0.43795 0.84523 0.43747 0.0
O174 O 0.34012 0.91622 0.44294 0.0
O175 O 0.40428 0.83831 0.48593 0.0
O176 O 0.35185 0.88433 0.486 0.0
C177 C 0.44553 0.94104 0.37911 0.0
C178 C 0.28401 0.76004 0.46462 0.0
C179 C 0.37376 0.78443 0.35227 0.0
C180 C 0.28221 0.83707 0.35069 0.0
C181 C 0.43379 0.83991 0.47009 0.0
C182 C 0.34339 0.91032 0.47548 0.0
O183 O 0.44748 0.9098 0.38427 0.0
O184 O 0.48771 0.40592 0.38224 0.0
Zn185 Zn 0.47635 0.34845 0.39817 0.0
O186 O 0.52719 0.3531 0.41445 0.0
Zn187 Zn 0.53451 0.31098 0.39492 0.0
Zn188 Zn 0.57072 0.40357 0.39934 0.0
Zn189 Zn 0.53238 0.35108 0.46522 0.0
O190 O 0.53958 0.27744 0.43124 0.0
O191 O 0.53682 0.30404 0.48153 0.0
O192 O 0.45261 0.30364 0.3575 0.0
O193 O 0.48934 0.27496 0.36539 0.0
O194 O 0.58167 0.33202 0.36259 0.0
O195 O 0.60227 0.39667 0.36258 0.0
O196 O 0.60868 0.43155 0.43695 0.0
O197 O 0.4398 0.33402 0.4427 0.0
O198 O 0.58201 0.39793 0.48546 0.0
O199 O 0.48352 0.34585 0.4857 0.0
C200 C 0.52041 0.43925 0.37881 0.0
C201 C 0.53941 0.27751 0.46431 0.0
C202 C 0.60504 0.36719 0.35191 0.0
C203 C 0.46074 0.27591 0.35039 0.0
C204 C 0.60993 0.4274 0.46957 0.0
C205 C 0.44906 0.33742 0.47522 0.0
O206 O 0.5536 0.44116 0.38389 0.0
O207 O 0.09742 0.47902 0.38168 0.0
Zn208 Zn 0.14365 0.46786 0.39763 0.0
O209 O 0.18971 0.51878 0.414 0.0
Zn210 Zn 0.23927 0.52631 0.39455 0.0
Zn211 Zn 0.1826 0.5622 0.39893 0.0
Zn212 Zn 0.19685 0.52394 0.46476 0.0
O213 O 0.27781 0.53129 0.43089 0.0
O214 O 0.24846 0.52875 0.48114 0.0
O215 O 0.16493 0.44438 0.35693 0.0
O216 O 0.23032 0.48134 0.36486 0.0
O217 O 0.26546 0.57366 0.36244 0.0
O218 O 0.22131 0.59411 0.36248 0.0
O219 O 0.19196 0.59986 0.43665 0.0
O220 O 0.12161 0.4312 0.44212 0.0
O221 O 0.19904 0.57322 0.48511 0.0
O222 O 0.15344 0.47493 0.48513 0.0
C223 C 0.09674 0.51167 0.3781 0.0
C224 C 0.27757 0.53125 0.46397 0.0
C225 C 0.25365 0.59705 0.35187 0.0
C226 C 0.20085 0.4527 0.34981 0.0
C227 C 0.1972 0.60101 0.46928 0.0
C228 C 0.1275 0.44044 0.47465 0.0
O229 O 0.12798 0.5449 0.38313 0.0
O230 O 0.63235 0.08912 0.38222 0.0
Zn231 Zn 0.68979 0.13533 0.39812 0.0
O232 O 0.68504 0.18151 0.4143 0.0
Zn233 Zn 0.72711 0.23098 0.39475 0.0
Zn234 Zn 0.63453 0.17442 0.39917 0.0
Zn235 Zn 0.68707 0.18882 0.46505 0.0
O236 O 0.76081 0.26955 0.43102 0.0
O237 O 0.73411 0.24033 0.48134 0.0
O238 O 0.73467 0.1564 0.35749 0.0
O239 O 0.76302 0.22183 0.36509 0.0
O240 O 0.70601 0.25719 0.36263 0.0
O241 O 0.64139 0.21301 0.36256 0.0
O242 O 0.60638 0.18414 0.4368 0.0
O243 O 0.7042 0.1133 0.44271 0.0
O244 O 0.64017 0.19149 0.48527 0.0
O245 O 0.69229 0.14526 0.48559 0.0
C246 C 0.59901 0.08843 0.37866 0.0
C247 C 0.76073 0.26937 0.4641 0.0
C248 C 0.67082 0.24536 0.35198 0.0
C249 C 0.76226 0.1923 0.35025 0.0
C250 C 0.61056 0.18966 0.4694 0.0
C251 C 0.70075 0.11923 0.47521 0.0
O252 O 0.59705 0.1197 0.38361 0.0
O253 O 0.55916 0.62604 0.38236 0.0
Zn254 Zn 0.57023 0.68342 0.39824 0.0
O255 O 0.51929 0.67848 0.41449 0.0
Zn256 Zn 0.51204 0.72075 0.39522 0.0
Zn257 Zn 0.47595 0.62814 0.39899 0.0
Zn258 Zn 0.51384 0.67994 0.46525 0.0
O259 O 0.50633 0.75368 0.43176 0.0
O260 O 0.5086 0.72644 0.48185 0.0
O261 O 0.59364 0.72814 0.35751 0.0
O262 O 0.55741 0.75725 0.36606 0.0
O263 O 0.46523 0.69995 0.36248 0.0
O264 O 0.44466 0.63531 0.3622 0.0
O265 O 0.43783 0.59973 0.43639 0.0
O266 O 0.60681 0.69812 0.44277 0.0
O267 O 0.46449 0.63255 0.48523 0.0
O268 O 0.56288 0.68562 0.48573 0.0
C269 C 0.52652 0.59271 0.37865 0.0
C270 C 0.50603 0.7531 0.46483 0.0
C271 C 0.44198 0.66486 0.35158 0.0
C272 C 0.58573 0.75609 0.35071 0.0
C273 C 0.43659 0.60332 0.46908 0.0
C274 C 0.59746 0.69446 0.47528 0.0
O275 O 0.49326 0.59073 0.38344 0.0
O276 O 0.55793 0.9413 0.88246 0.0
Zn277 Zn 0.56931 0.89519 0.89842 0.0
O278 O 0.51846 0.84894 0.91471 0.0
Zn279 Zn 0.51093 0.79951 0.89497 0.0
Zn280 Zn 0.47492 0.85601 0.89989 0.0
Zn281 Zn 0.51343 0.84146 0.96545 0.0
O282 O 0.5061 0.7608 0.93107 0.0
O283 O 0.50928 0.79003 0.98153 0.0
O284 O 0.59316 0.87419 0.85779 0.0
O285 O 0.55595 0.80874 0.86522 0.0
O286 O 0.46356 0.77345 0.8629 0.0
O287 O 0.44304 0.81754 0.86325 0.0
O288 O 0.43717 0.84606 0.93769 0.0
O289 O 0.60583 0.91735 0.94296 0.0
O290 O 0.46375 0.83835 0.98591 0.0
O291 O 0.5622 0.88516 0.98595 0.0
C292 C 0.52524 0.94196 0.87917 0.0
C293 C 0.50657 0.76096 0.96414 0.0
C294 C 0.44013 0.78527 0.85247 0.0
C295 C 0.5848 0.8383 0.85046 0.0
C296 C 0.4359 0.84023 0.97024 0.0
C297 C 0.5966 0.91135 0.97548 0.0
O298 O 0.49206 0.91073 0.88442 0.0
O299 O 0.63355 0.55127 0.88177 0.0
Zn300 Zn 0.69094 0.56243 0.89776 0.0
O301 O 0.68606 0.51152 0.91416 0.0
Zn302 Zn 0.7281 0.504 0.89472 0.0
Zn303 Zn 0.63554 0.4681 0.89907 0.0
Zn304 Zn 0.68799 0.50635 0.96492 0.0
O305 O 0.76147 0.49876 0.93109 0.0
O306 O 0.73468 0.50136 0.98132 0.0
O307 O 0.73572 0.58588 0.85707 0.0
O308 O 0.76428 0.54907 0.86516 0.0
O309 O 0.70696 0.45679 0.86246 0.0
O310 O 0.64234 0.43626 0.86258 0.0
O311 O 0.60722 0.43041 0.93677 0.0
O312 O 0.70557 0.5991 0.94223 0.0
O313 O 0.64081 0.45711 0.98527 0.0
O314 O 0.6937 0.55541 0.98527 0.0
C315 C 0.60021 0.51861 0.8782 0.0
C316 C 0.76123 0.49875 0.96417 0.0
C317 C 0.67175 0.43339 0.8519 0.0
C318 C 0.7634 0.57765 0.85004 0.0
C319 C 0.61123 0.42928 0.96941 0.0
C320 C 0.70225 0.58989 0.97477 0.0
O321 O 0.59821 0.48539 0.88328 0.0
O322 O 0.09685 0.62452 0.88234 0.0
Zn323 Zn 0.14308 0.68191 0.89833 0.0
O324 O 0.18915 0.67706 0.91456 0.0
Zn325 Zn 0.23867 0.71929 0.89522 0.0
Zn326 Zn 0.18216 0.62668 0.89919 0.0
Zn327 Zn 0.19612 0.67865 0.96533 0.0
O328 O 0.27724 0.75248 0.93173 0.0
O329 O 0.24768 0.72543 0.98187 0.0
O330 O 0.16428 0.72682 0.85776 0.0
O331 O 0.22967 0.75557 0.86586 0.0
O332 O 0.26482 0.6984 0.86274 0.0
O333 O 0.22068 0.63377 0.86245 0.0
O334 O 0.192 0.59841 0.93664 0.0
O335 O 0.12106 0.69639 0.94287 0.0
O336 O 0.19857 0.63155 0.98536 0.0
O337 O 0.15256 0.68399 0.98583 0.0
C338 C 0.09618 0.59119 0.87872 0.0
C339 C 0.27689 0.75208 0.96481 0.0
C340 C 0.25298 0.66329 0.85189 0.0
C341 C 0.20015 0.75463 0.85078 0.0
C342 C 0.19715 0.60223 0.9693 0.0
C343 C 0.12673 0.69271 0.97538 0.0
O344 O 0.12744 0.58922 0.88364 0.0
O345 O 0.48651 0.09005 0.88236 0.0
Zn346 Zn 0.47537 0.13632 0.89827 0.0
O347 O 0.52632 0.18239 0.91455 0.0
Zn348 Zn 0.53381 0.23193 0.89509 0.0
Zn349 Zn 0.56972 0.1753 0.89936 0.0
Zn350 Zn 0.53157 0.18952 0.96531 0.0
O351 O 0.53908 0.27056 0.93145 0.0
O352 O 0.5364 0.24113 0.98169 0.0
O353 O 0.4518 0.1576 0.85761 0.0
O354 O 0.48868 0.22298 0.86561 0.0
O355 O 0.58095 0.25796 0.86272 0.0
O356 O 0.60139 0.2138 0.86268 0.0
O357 O 0.60759 0.18497 0.93697 0.0
O358 O 0.4388 0.11432 0.94281 0.0
O359 O 0.58099 0.19185 0.98554 0.0
O360 O 0.48259 0.14608 0.98578 0.0
C361 C 0.51915 0.08933 0.87883 0.0
C362 C 0.53903 0.2703 0.96453 0.0
C363 C 0.60426 0.2461 0.85203 0.0
C364 C 0.46004 0.19351 0.85055 0.0
C365 C 0.60882 0.1902 0.9696 0.0
C366 C 0.44808 0.12016 0.97533 0.0
O367 O 0.5524 0.12058 0.8838 0.0
O368 O 0.41345 0.47972 0.88159 0.0
Zn369 Zn 0.356 0.46838 0.89748 0.0
O370 O 0.36069 0.51923 0.91375 0.0
Zn371 Zn 0.31839 0.52638 0.89441 0.0
Zn372 Zn 0.41105 0.56272 0.89842 0.0
Zn373 Zn 0.35892 0.52456 0.9645 0.0
O374 O 0.28478 0.53115 0.93084 0.0
O375 O 0.31201 0.52913 0.98101 0.0
O376 O 0.3113 0.44474 0.85673 0.0
O377 O 0.28247 0.48131 0.86475 0.0
O378 O 0.33921 0.57365 0.86224 0.0
O379 O 0.40386 0.59427 0.86186 0.0
O380 O 0.43934 0.60067 0.93598 0.0
O381 O 0.34149 0.43183 0.94203 0.0
O382 O 0.406 0.57406 0.98462 0.0
O383 O 0.35364 0.4757 0.98496 0.0
C384 C 0.44672 0.51242 0.87789 0.0
C385 C 0.28516 0.5313 0.96392 0.0
C386 C 0.37431 0.59705 0.85143 0.0
C387 C 0.28354 0.45282 0.84964 0.0
C388 C 0.43543 0.60192 0.96863 0.0
C389 C 0.34506 0.44118 0.97454 0.0
O390 O 0.4486 0.54562 0.88273 0.0
O391 O 0.94815 0.40442 0.88218 0.0
Zn392 Zn 0.90193 0.34696 0.89798 0.0
O393 O 0.85584 0.35169 0.91429 0.0
Zn394 Zn 0.80638 0.30938 0.89494 0.0
Zn395 Zn 0.86272 0.40202 0.89892 0.0
Zn396 Zn 0.84883 0.35 0.96505 0.0
O397 O 0.76768 0.27629 0.93139 0.0
O398 O 0.79711 0.30337 0.98155 0.0
O399 O 0.88072 0.3024 0.85713 0.0
O400 O 0.81538 0.27302 0.86575 0.0
O401 O 0.78038 0.33016 0.86219 0.0
O402 O 0.82431 0.39485 0.86206 0.0
O403 O 0.85282 0.43019 0.9364 0.0
O404 O 0.9239 0.33226 0.94247 0.0
O405 O 0.84673 0.39725 0.98516 0.0
O406 O 0.89222 0.34436 0.98548 0.0
C407 C 0.94878 0.43772 0.8786 0.0
C408 C 0.76791 0.27674 0.96446 0.0
C409 C 0.79216 0.36526 0.85135 0.0
C410 C 0.8449 0.27438 0.85032 0.0
C411 C 0.84798 0.42648 0.96909 0.0
C412 C 0.91809 0.33571 0.975 0.0
O413 O 0.91747 0.43961 0.88348 0.0
O414 O 0.09774 0.47946 0.69742 0.0
Zn415 Zn 0.14406 0.46842 0.68152 0.0
O416 O 0.19006 0.51938 0.66523 0.0
Zn417 Zn 0.23961 0.52684 0.68462 0.0
Zn418 Zn 0.18295 0.56272 0.68052 0.0
Zn419 Zn 0.19705 0.52467 0.61445 0.0
O420 O 0.27837 0.53262 0.64816 0.0
O421 O 0.24877 0.52982 0.59798 0.0
O422 O 0.1654 0.44494 0.72216 0.0
O423 O 0.23076 0.48151 0.71384 0.0
O424 O 0.26547 0.57374 0.71727 0.0
O425 O 0.22132 0.59419 0.71733 0.0
O426 O 0.19277 0.60075 0.64302 0.0
O427 O 0.12211 0.43181 0.63703 0.0
O428 O 0.19923 0.57406 0.59433 0.0
O429 O 0.15366 0.4756 0.594 0.0
C430 C 0.09696 0.51207 0.70095 0.0
C431 C 0.27807 0.53267 0.61508 0.0
C432 C 0.25356 0.59698 0.72804 0.0
C433 C 0.20129 0.45301 0.72904 0.0
C434 C 0.19781 0.60197 0.61036 0.0
C435 C 0.12785 0.44106 0.6045 0.0
O436 O 0.12818 0.54534 0.69599 0.0
O437 O 0.63184 0.08971 0.69821 0.0
Zn438 Zn 0.68924 0.13581 0.68212 0.0
O439 O 0.68448 0.18189 0.66576 0.0
Zn440 Zn 0.7268 0.23143 0.68501 0.0
Zn441 Zn 0.63415 0.17505 0.6811 0.0
Zn442 Zn 0.68603 0.18871 0.61497 0.0
O443 O 0.75994 0.26989 0.6484 0.0
O444 O 0.7328 0.2402 0.59833 0.0
O445 O 0.73415 0.15704 0.72265 0.0
O446 O 0.76309 0.22241 0.71435 0.0
O447 O 0.70603 0.25768 0.71749 0.0
O448 O 0.64137 0.21367 0.71777 0.0
O449 O 0.6059 0.18487 0.64362 0.0
O450 O 0.70365 0.11363 0.63765 0.0
O451 O 0.63894 0.19115 0.5949 0.0
O452 O 0.69131 0.14507 0.59459 0.0
C453 C 0.59855 0.08911 0.7018 0.0
C454 C 0.75948 0.26946 0.61532 0.0
C455 C 0.67093 0.24593 0.72832 0.0
C456 C 0.76205 0.1929 0.72954 0.0
C457 C 0.60969 0.18987 0.61095 0.0
C458 C 0.69999 0.11924 0.60512 0.0
O459 O 0.59664 0.12039 0.69677 0.0
O460 O 0.55878 0.62631 0.6981 0.0
Zn461 Zn 0.57018 0.68383 0.68219 0.0
O462 O 0.51937 0.67923 0.66578 0.0
Zn463 Zn 0.51187 0.72117 0.68544 0.0
Zn464 Zn 0.47581 0.62863 0.68059 0.0
Zn465 Zn 0.5144 0.68163 0.61502 0.0
O466 O 0.50691 0.75494 0.64931 0.0
O467 O 0.50986 0.72867 0.59889 0.0
O468 O 0.59376 0.72855 0.72295 0.0
O469 O 0.55688 0.75707 0.71513 0.0
O470 O 0.46458 0.69991 0.71761 0.0
O471 O 0.44391 0.63525 0.71716 0.0
O472 O 0.4382 0.60072 0.64274 0.0
O473 O 0.60687 0.69839 0.63772 0.0
O474 O 0.46501 0.6348 0.59446 0.0
O475 O 0.56338 0.68715 0.59466 0.0
C476 C 0.52606 0.59297 0.70143 0.0
C477 C 0.5072 0.75508 0.61623 0.0
C478 C 0.4411 0.66465 0.72801 0.0
C479 C 0.58551 0.75619 0.73013 0.0
C480 C 0.43712 0.6051 0.61015 0.0
C481 C 0.59776 0.69537 0.60517 0.0
O482 O 0.49291 0.59107 0.69619 0.0
O483 O 0.94871 0.55049 0.69748 0.0
Zn484 Zn 0.90254 0.56178 0.68159 0.0
O485 O 0.85632 0.5109 0.6653 0.0
Zn486 Zn 0.80688 0.50325 0.6851 0.0
Zn487 Zn 0.86349 0.4674 0.68005 0.0
Zn488 Zn 0.84882 0.50592 0.61456 0.0
O489 O 0.76813 0.49843 0.64904 0.0
O490 O 0.79739 0.50181 0.59854 0.0
O491 O 0.88151 0.58553 0.72227 0.0
O492 O 0.81606 0.5482 0.71491 0.0
O493 O 0.78091 0.45584 0.71714 0.0
O494 O 0.82512 0.43547 0.71676 0.0
O495 O 0.85353 0.42968 0.64223 0.0
O496 O 0.92465 0.59834 0.63706 0.0
O497 O 0.84568 0.45626 0.59406 0.0
O498 O 0.8925 0.55472 0.59406 0.0
C499 C 0.94944 0.51783 0.70071 0.0
C500 C 0.7683 0.499 0.61596 0.0
C501 C 0.79283 0.43249 0.72757 0.0
C502 C 0.84561 0.57708 0.72965 0.0
C503 C 0.84763 0.42842 0.6097 0.0
C504 C 0.91865 0.58913 0.60453 0.0
O505 O 0.91825 0.48462 0.69544 0.0
O506 O 0.4118 0.94112 0.69839 0.0
Zn507 Zn 0.35444 0.89482 0.6825 0.0
O508 O 0.35938 0.84882 0.66627 0.0
Zn509 Zn 0.31705 0.79927 0.68548 0.0
Zn510 Zn 0.40969 0.8558 0.68181 0.0
Zn511 Zn 0.35797 0.8419 0.61551 0.0
O512 O 0.28394 0.76077 0.64892 0.0
O513 O 0.3115 0.79016 0.59887 0.0
O514 O 0.30977 0.87351 0.72328 0.0
O515 O 0.28071 0.80816 0.71482 0.0
O516 O 0.33779 0.77305 0.71803 0.0
O517 O 0.40244 0.81713 0.71843 0.0
O518 O 0.43828 0.84639 0.64438 0.0
O519 O 0.33977 0.91671 0.63793 0.0
O520 O 0.40546 0.84017 0.59553 0.0
O521 O 0.35225 0.8852 0.59504 0.0
C522 C 0.44509 0.94177 0.70224 0.0
C523 C 0.28464 0.76102 0.61585 0.0
C524 C 0.37287 0.78483 0.72893 0.0
C525 C 0.28188 0.83764 0.73016 0.0
C526 C 0.43475 0.84165 0.61167 0.0
C527 C 0.34342 0.91096 0.60543 0.0
O528 O 0.44703 0.91046 0.69755 0.0
O529 O 0.48691 0.40605 0.69816 0.0
Zn530 Zn 0.47559 0.34857 0.68231 0.0
O531 O 0.52648 0.35329 0.66611 0.0
Zn532 Zn 0.53362 0.31099 0.68545 0.0
Zn533 Zn 0.56995 0.40365 0.68149 0.0
Zn534 Zn 0.53192 0.35157 0.61536 0.0
O535 O 0.53841 0.27739 0.64905 0.0
O536 O 0.53653 0.30466 0.59887 0.0
O537 O 0.45187 0.30379 0.72303 0.0
O538 O 0.48853 0.27505 0.71508 0.0
O539 O 0.58087 0.33179 0.71762 0.0
O540 O 0.60148 0.39644 0.71807 0.0
O541 O 0.60795 0.43198 0.64397 0.0
O542 O 0.43913 0.33408 0.6377 0.0
O543 O 0.58145 0.39867 0.59531 0.0
O544 O 0.48311 0.3463 0.59483 0.0
C545 C 0.5196 0.43932 0.70191 0.0
C546 C 0.53863 0.27778 0.61598 0.0
C547 C 0.60426 0.36687 0.72846 0.0
C548 C 0.45998 0.27604 0.73014 0.0
C549 C 0.60927 0.42809 0.61133 0.0
C550 C 0.44856 0.33769 0.6052 0.0
O551 O 0.55281 0.44119 0.69716 0.0
C552 C 0.4401 0.26049 0.28726 0.0
C553 C 0.44277 0.24713 0.3206 0.0
H554 H 0.4422 0.25281 0.23204 0.0
C555 C 0.44023 0.2095 0.32306 0.0
H556 H 0.44266 0.28941 0.28409 0.0
C557 C 0.43996 0.18827 0.29311 0.0
C558 C 0.44244 0.2042 0.25975 0.0
H559 H 0.44252 0.19829 0.34831 0.0
H560 H 0.4424 0.16185 0.29627 0.0
C561 C 0.44004 0.23937 0.2573 0.0
C562 C 0.2681 0.43248 0.29257 0.0
C563 C 0.25484 0.43522 0.25921 0.0
H564 H 0.26031 0.43457 0.34777 0.0
C565 C 0.21726 0.43277 0.25668 0.0
H566 H 0.29699 0.43498 0.2958 0.0
C567 C 0.19599 0.43252 0.28659 0.0
C568 C 0.21182 0.43493 0.31998 0.0
H569 H 0.20615 0.43515 0.23141 0.0
H570 H 0.16963 0.43506 0.28338 0.0
C571 C 0.24694 0.43244 0.32249 0.0
C572 C 0.79907 0.20824 0.25725 0.0
C573 C 0.83418 0.24587 0.25975 0.0
H574 H 0.74901 0.16072 0.28394 0.0
C575 C 0.85 0.25931 0.29314 0.0
H576 H 0.78571 0.19699 0.23196 0.0
C577 C 0.82872 0.23829 0.32306 0.0
C578 C 0.79113 0.20313 0.32053 0.0
H579 H 0.87635 0.28823 0.29634 0.0
H580 H 0.83983 0.25179 0.34832 0.0
C581 C 0.77789 0.18712 0.28717 0.0
C582 C 0.60541 0.79207 0.25744 0.0
C583 C 0.60296 0.82721 0.25986 0.0
H584 H 0.6032 0.74226 0.28428 0.0
C585 C 0.60574 0.84333 0.29318 0.0
H586 H 0.60304 0.77851 0.23221 0.0
C587 C 0.60583 0.82232 0.32316 0.0
C588 C 0.60335 0.78471 0.32076 0.0
H589 H 0.60327 0.86974 0.29632 0.0
H590 H 0.60378 0.83367 0.34841 0.0
C591 C 0.60572 0.77117 0.28741 0.0
C592 C 0.77884 0.59792 0.29243 0.0
C593 C 0.79229 0.5953 0.25912 0.0
H594 H 0.78631 0.59562 0.34766 0.0
C595 C 0.82987 0.59772 0.25674 0.0
H596 H 0.74997 0.59547 0.29554 0.0
C597 C 0.85094 0.59781 0.28674 0.0
C598 C 0.83492 0.59528 0.32006 0.0
H599 H 0.84114 0.59547 0.23151 0.0
H600 H 0.87732 0.59527 0.28363 0.0
C601 C 0.79981 0.59781 0.32243 0.0
C602 C 0.26684 0.84221 0.28753 0.0
C603 C 0.25346 0.82615 0.32086 0.0
H604 H 0.25928 0.8324 0.23231 0.0
C605 C 0.2159 0.79095 0.32328 0.0
H606 H 0.29571 0.86865 0.28439 0.0
C607 C 0.19478 0.76994 0.29331 0.0
C608 C 0.21074 0.78343 0.25997 0.0
H609 H 0.20468 0.77743 0.34853 0.0
H610 H 0.16843 0.741 0.29645 0.0
C611 C 0.24582 0.82109 0.25756 0.0
C612 C 0.60587 0.82252 0.7575 0.0
C613 C 0.60332 0.78488 0.75998 0.0
H614 H 0.60331 0.87001 0.7842 0.0
C615 C 0.60562 0.77138 0.79337 0.0
H616 H 0.60383 0.83382 0.73221 0.0
C617 C 0.60531 0.79236 0.82329 0.0
C618 C 0.60291 0.82752 0.82078 0.0
H619 H 0.60302 0.74245 0.79656 0.0
H620 H 0.60285 0.77881 0.84855 0.0
C621 C 0.60577 0.8436 0.78742 0.0
C622 C 0.7997 0.5976 0.75688 0.0
C623 C 0.83483 0.59512 0.75939 0.0
H624 H 0.74981 0.59533 0.78362 0.0
C625 C 0.85082 0.59781 0.79274 0.0
H626 H 0.78622 0.59525 0.73162 0.0
C627 C 0.82972 0.59784 0.82268 0.0
C628 C 0.79213 0.59539 0.82019 0.0
H629 H 0.8772 0.59528 0.79595 0.0
H630 H 0.84096 0.59569 0.84795 0.0
C631 C 0.77871 0.59784 0.78681 0.0
C632 C 0.26706 0.84237 0.79354 0.0
C633 C 0.25336 0.82663 0.76017 0.0
H634 H 0.25993 0.83212 0.84872 0.0
C635 C 0.21568 0.79157 0.75778 0.0
H636 H 0.29603 0.86869 0.79665 0.0
C637 C 0.19475 0.77036 0.78776 0.0
C638 C 0.21102 0.78351 0.82107 0.0
H639 H 0.20422 0.77828 0.73252 0.0
H640 H 0.16827 0.74152 0.78459 0.0
C641 C 0.24624 0.82105 0.82351 0.0
C642 C 0.43986 0.2397 0.82329 0.0
C643 C 0.44218 0.20448 0.82078 0.0
H644 H 0.44236 0.28971 0.79657 0.0
C645 C 0.43942 0.18848 0.78742 0.0
H646 H 0.44223 0.25319 0.84856 0.0
C647 C 0.43949 0.20965 0.75749 0.0
C648 C 0.44211 0.24732 0.75998 0.0
H649 H 0.44181 0.16203 0.78421 0.0
H650 H 0.44158 0.19838 0.73221 0.0
C651 C 0.43972 0.26076 0.79337 0.0
C652 C 0.2475 0.43291 0.75641 0.0
C653 C 0.21227 0.4352 0.75885 0.0
H654 H 0.29744 0.43538 0.78323 0.0
C655 C 0.19615 0.43236 0.79218 0.0
H656 H 0.26106 0.43533 0.73117 0.0
C657 C 0.21723 0.43239 0.82215 0.0
C658 C 0.25491 0.43503 0.81973 0.0
H659 H 0.16967 0.43471 0.79534 0.0
H660 H 0.20587 0.43442 0.8474 0.0
C661 C 0.26847 0.43273 0.78638 0.0
C662 C 0.77776 0.18738 0.79255 0.0
C663 C 0.7909 0.20378 0.75928 0.0
H664 H 0.78565 0.19666 0.84781 0.0
C665 C 0.82841 0.23905 0.75689 0.0
H666 H 0.74896 0.16085 0.79567 0.0
C667 C 0.84969 0.25979 0.78689 0.0
C668 C 0.83395 0.24595 0.82024 0.0
H669 H 0.83947 0.25281 0.7317 0.0
H670 H 0.87598 0.28879 0.78382 0.0
C671 C 0.79894 0.20823 0.82256 0.0
C672 C 0.55691 0.0519 0.20936 0.0
C673 C 0.51998 0.05103 0.20797 0.0
H674 H 0.5879 0.01888 0.20862 0.0
C675 C 0.48516 1.01371 0.20857 0.0
H676 H 0.58465 0.07997 0.20914 0.0
C677 C 0.48724 0.97854 0.20867 0.0
C678 C 0.5242 0.97942 0.20786 0.0
H679 H 0.45628 1.01157 0.20758 0.0
H680 H 0.45952 0.95048 0.20791 0.0
C681 C 0.559 0.01673 0.20914 0.0
C682 C 0.55901 0.55213 0.20783 0.0
C683 C 0.56142 0.51728 0.20677 0.0
H684 H 0.52154 0.5779 0.20762 0.0
C685 C 0.52529 0.48037 0.20777 0.0
H686 H 0.58581 0.58101 0.20715 0.0
C687 C 0.48808 0.47838 0.20764 0.0
C688 C 0.48567 0.51324 0.20682 0.0
H689 H 0.52556 0.45261 0.20719 0.0
H690 H 0.46128 0.44951 0.20681 0.0
C691 C 0.5218 0.55014 0.20801 0.0
C692 C 0.98601 0.51267 0.20846 0.0
C693 C 0.9869 0.47661 0.20731 0.0
H694 H 1.019 0.57668 0.2077 0.0
C695 C 0.02423 0.47915 0.20827 0.0
H696 H 0.95794 0.51231 0.20796 0.0
C697 C 0.05939 0.51643 0.20852 0.0
C698 C 0.0585 0.5525 0.2075 0.0
H699 H 0.02639 0.45241 0.20747 0.0
H700 H 0.08747 0.5168 0.20805 0.0
C701 C 1.02117 0.54994 0.2084 0.0
C702 C 0.98639 0.47987 0.37123 0.0
C703 C 0.98726 0.51682 0.3722 0.0
H704 H 1.01942 0.4489 0.37225 0.0
C705 C 0.02457 0.55163 0.37112 0.0
H706 H 0.95832 0.45214 0.37184 0.0
C707 C 0.05974 0.54955 0.37095 0.0
C708 C 0.05888 0.51261 0.37218 0.0
H709 H 0.02672 0.58053 0.37176 0.0
H710 H 0.08781 0.57728 0.37132 0.0
C711 C 1.02156 0.47779 0.37138 0.0
C712 C 0.48684 0.01618 0.372 0.0
C713 C 0.48435 0.97888 0.37316 0.0
H714 H 0.52441 0.07943 0.37203 0.0
C715 C 0.52045 0.97805 0.37215 0.0
H716 H 0.46007 0.0183 0.37267 0.0
C717 C 0.55769 1.01324 0.37218 0.0
C718 C 0.56018 0.05054 0.37289 0.0
H719 H 0.52012 0.95 0.37281 0.0
H720 H 0.58446 1.01112 0.37301 0.0
C721 C 0.52409 0.05137 0.37171 0.0
C722 C 0.48661 0.48057 0.37177 0.0
C723 C 0.52143 0.47809 0.37295 0.0
H724 H 0.46094 0.51812 0.37185 0.0
C725 C 0.55837 0.51419 0.37206 0.0
H726 H 0.45772 0.45379 0.37236 0.0
C727 C 0.56043 0.55144 0.37217 0.0
C728 C 0.5256 0.55391 0.37284 0.0
H729 H 0.5861 0.51388 0.37275 0.0
H730 H 0.58931 0.5782 0.37308 0.0
C731 C 0.48868 0.51781 0.37156 0.0
C732 C 0.55698 0.05227 0.87174 0.0
C733 C 0.52006 0.05144 0.87302 0.0
H734 H 0.58794 0.01923 0.87259 0.0
C735 C 0.48523 1.01412 0.87238 0.0
H736 H 0.58472 0.08034 0.87199 0.0
C737 C 0.48729 0.97894 0.87233 0.0
C738 C 0.52423 0.97979 0.87324 0.0
H739 H 0.45635 1.012 0.8733 0.0
H740 H 0.45956 0.95088 0.87305 0.0
C741 C 0.55904 0.01709 0.872 0.0
C742 C 0.55892 0.55247 0.87129 0.0
C743 C 0.56141 0.51765 0.87223 0.0
H744 H 0.52133 0.57811 0.87155 0.0
C745 C 0.52532 0.48071 0.87105 0.0
H746 H 0.58568 0.58136 0.8721 0.0
C747 C 0.48807 0.47863 0.87114 0.0
C748 C 0.48558 0.51343 0.87208 0.0
H749 H 0.52565 0.45298 0.87153 0.0
H750 H 0.46131 0.44972 0.87184 0.0
C751 C 0.52166 0.55038 0.87105 0.0
C752 C 0.98581 0.51267 0.87185 0.0
C753 C 0.98664 0.47657 0.87282 0.0
H754 H 1.01889 0.57668 0.87287 0.0
C755 C 0.02394 0.47905 0.8718 0.0
H756 H 0.95776 0.51235 0.87241 0.0
C757 C 0.05913 0.51629 0.87166 0.0
C758 C 0.0583 0.55239 0.87286 0.0
H759 H 0.02605 0.45228 0.87246 0.0
H760 H 0.08718 0.51661 0.87207 0.0
C761 C 1.021 0.54991 0.87202 0.0
C762 C 0.0598 0.54978 0.70804 0.0
C763 C 0.05904 0.5129 0.70676 0.0
H764 H 0.02665 0.58063 0.70721 0.0
C765 C 1.02176 0.47803 0.70744 0.0
H766 H 0.08783 0.57756 0.70776 0.0
C767 C 0.98654 0.48 0.70751 0.0
C768 C 0.98731 0.51691 0.70661 0.0
H769 H 1.0197 0.44917 0.70653 0.0
H770 H 0.95851 0.45224 0.70682 0.0
C771 C 0.02457 0.55176 0.70781 0.0
C772 C 0.52364 0.05215 0.70872 0.0
C773 C 0.55972 0.0513 0.70778 0.0
H774 H 0.45963 0.01909 0.70779 0.0
C775 C 0.55723 1.01401 0.709 0.0
H776 H 0.52397 0.0802 0.70801 0.0
C777 C 0.51999 0.97882 0.70929 0.0
C778 C 0.4839 0.97966 0.70803 0.0
H779 H 0.584 1.01187 0.70838 0.0
H780 H 0.51966 0.95076 0.70902 0.0
C781 C 0.48639 0.01697 0.70868 0.0
C782 C 0.48585 0.48076 0.70831 0.0
C783 C 0.52063 0.4782 0.70766 0.0
H784 H 0.4603 0.51842 0.70764 0.0
C785 C 0.5576 0.51426 0.70889 0.0
H786 H 0.45694 0.45403 0.70744 0.0
C787 C 0.55974 0.55154 0.7086 0.0
C788 C 0.52498 0.5541 0.70739 0.0
H789 H 0.5853 0.51387 0.70862 0.0
H790 H 0.58867 0.57828 0.70797 0.0
C791 C 0.488 0.51804 0.70834 0.0
C792 C 0.66744 0.26821 0.25931 0.0
C793 C 0.62983 0.26503 0.25846 0.0
H794 H 0.71069 0.26478 0.29125 0.0
C795 C 0.61231 0.26764 0.28952 0.0
H796 H 0.68116 0.26584 0.2355 0.0
C797 C 0.62941 0.26744 0.32139 0.0
C798 C 0.66404 0.26462 0.32219 0.0
H799 H 0.58283 0.26418 0.28939 0.0
H800 H 0.61306 0.26452 0.34516 0.0
C801 C 0.68453 0.26799 0.29117 0.0
C802 C 0.43417 0.67838 0.29047 0.0
C803 C 0.41641 0.65829 0.32149 0.0
H804 H 0.43368 0.67451 0.23484 0.0
C805 C 0.37872 0.62394 0.32053 0.0
H806 H 0.46369 0.70434 0.29069 0.0
C807 C 0.36174 0.60668 0.28862 0.0
C808 C 0.38242 0.62375 0.25766 0.0
H809 H 0.36482 0.60789 0.34431 0.0
H810 H 0.33547 0.57738 0.28848 0.0
C811 C 0.41719 0.66112 0.25855 0.0
C812 C 0.77049 0.40779 0.25864 0.0
C813 C 0.77326 0.37312 0.25782 0.0
H814 H 0.77399 0.45448 0.29062 0.0
C815 C 0.77008 0.35273 0.28886 0.0
H816 H 0.77327 0.42406 0.23485 0.0
C817 C 0.77008 0.36993 0.32072 0.0
C818 C 0.7733 0.40756 0.32156 0.0
H819 H 0.77323 0.32653 0.28876 0.0
H820 H 0.77258 0.35626 0.34451 0.0
C821 C 0.77051 0.42499 0.29051 0.0
C822 C 0.4323 0.76257 0.28946 0.0
C823 C 0.41493 0.7656 0.25846 0.0
H824 H 0.43138 0.76509 0.34513 0.0
C825 C 0.3774 0.7626 0.25937 0.0
H826 H 0.46172 0.76589 0.28929 0.0
C827 C 0.36025 0.76255 0.29128 0.0
C828 C 0.38058 0.76546 0.32229 0.0
H829 H 0.36379 0.76527 0.23562 0.0
H830 H 0.33414 0.76585 0.29144 0.0
C831 C 0.41513 0.7625 0.32137 0.0
C832 C 0.66841 0.4085 0.32106 0.0
C833 C 0.6309 0.37391 0.32199 0.0
H834 H 0.71173 0.45491 0.28892 0.0
C835 C 0.61361 0.35339 0.29103 0.0
H836 H 0.68197 0.42487 0.34478 0.0
C837 C 0.63083 0.37037 0.2591 0.0
C838 C 0.66536 0.40792 0.25813 0.0
H839 H 0.58421 0.32725 0.29121 0.0
H840 H 0.61464 0.35661 0.23535 0.0
C841 C 0.68563 0.42549 0.28913 0.0
C842 C 0.27549 0.66048 0.32125 0.0
C843 C 0.27281 0.62308 0.32205 0.0
H844 H 0.27177 0.70356 0.2893 0.0
C845 C 0.27604 0.60591 0.291 0.0
H846 H 0.27268 0.67393 0.34504 0.0
C847 C 0.27593 0.62308 0.25914 0.0
C848 C 0.2726 0.65742 0.25834 0.0
H849 H 0.27296 0.57659 0.29109 0.0
H850 H 0.27346 0.60694 0.23535 0.0
C851 C 0.27536 0.67762 0.28939 0.0
C852 C 0.37668 0.76356 0.82187 0.0
C853 C 0.41403 0.76614 0.82268 0.0
H854 H 0.33343 0.76693 0.78986 0.0
C855 C 0.43101 0.76253 0.79167 0.0
H856 H 0.36335 0.76665 0.84564 0.0
C857 C 0.4137 0.76229 0.7598 0.0
C858 C 0.37939 0.76568 0.75894 0.0
H859 H 0.4603 0.76554 0.79175 0.0
H860 H 0.42971 0.76447 0.73599 0.0
C861 C 0.35937 0.76333 0.79 0.0
C862 C 0.6852 0.42475 0.79097 0.0
C863 C 0.66487 0.40745 0.82201 0.0
H864 H 0.68147 0.42395 0.73532 0.0
C865 C 0.63015 0.37005 0.82117 0.0
H866 H 0.71145 0.45406 0.7911 0.0
C867 C 0.61279 0.35304 0.7893 0.0
C868 C 0.63017 0.37336 0.75827 0.0
H869 H 0.61392 0.3565 0.84496 0.0
H870 H 0.58326 0.32709 0.7892 0.0
C871 C 0.66786 0.40771 0.75909 0.0
C872 C 0.27534 0.67719 0.79102 0.0
C873 C 0.27219 0.65667 0.82197 0.0
H874 H 0.27302 0.67395 0.73534 0.0
C875 C 0.27514 0.62211 0.82101 0.0
H876 H 0.27205 0.7033 0.79123 0.0
C877 C 0.2753 0.60512 0.78907 0.0
C878 C 0.27252 0.62267 0.75809 0.0
H879 H 0.27238 0.60574 0.84472 0.0
H880 H 0.27198 0.5757 0.78884 0.0
C881 C 0.27551 0.6602 0.75908 0.0
C882 C 0.61269 0.26815 0.79108 0.0
C883 C 0.63009 0.26517 0.82208 0.0
H884 H 0.61354 0.26555 0.73543 0.0
C885 C 0.66761 0.26813 0.82116 0.0
H886 H 0.58328 0.26484 0.79127 0.0
C887 C 0.68472 0.26812 0.78924 0.0
C888 C 0.66434 0.26516 0.75824 0.0
H889 H 0.68123 0.26548 0.84491 0.0
H890 H 0.7108 0.26478 0.78906 0.0
C891 C 0.62982 0.26818 0.75917 0.0
C892 C 0.4324 0.67796 0.78897 0.0
C893 C 0.41514 0.65767 0.75791 0.0
H894 H 0.43147 0.67422 0.84461 0.0
C895 C 0.37771 0.62299 0.75871 0.0
H896 H 0.46174 0.70418 0.78888 0.0
C897 C 0.36059 0.60565 0.79057 0.0
C898 C 0.38086 0.62299 0.82161 0.0
H899 H 0.36418 0.60679 0.7349 0.0
H900 H 0.33459 0.57615 0.79064 0.0
C901 C 0.41527 0.66064 0.82082 0.0
C902 C 0.76995 0.42329 0.78834 0.0
C903 C 0.77377 0.40637 0.75738 0.0
H904 H 0.77167 0.42201 0.84402 0.0
C905 C 0.77139 0.36911 0.75826 0.0
H906 H 0.77279 0.45251 0.7882 0.0
C907 C 0.77111 0.35183 0.79017 0.0
C908 C 0.77322 0.37181 0.8212 0.0
H909 H 0.77463 0.35582 0.73454 0.0
H910 H 0.7748 0.32596 0.79038 0.0
C911 C 0.76967 0.40603 0.82024 0.0
C912 C 0.58774 0.32861 0.08283 0.0
C913 C 0.54987 0.30692 0.09785 0.0
H914 H 0.6377 0.38662 0.0741 0.0
C915 C 0.5285 0.32618 0.10592 0.0
H916 H 0.60488 0.31425 0.07695 0.0
C917 C 0.54695 0.36749 0.10353 0.0
C918 C 0.58712 0.38979 0.09378 0.0
H919 H 0.49938 0.30989 0.11792 0.0
H920 H 0.53171 0.38221 0.11399 0.0
C921 C 0.60644 0.37004 0.08097 0.0
C922 C 0.1943 0.53851 0.10487 0.0
C923 C 0.21172 0.5785 0.09464 0.0
H924 H 0.20505 0.49147 0.11942 0.0
C925 C 0.25049 0.59782 0.08113 0.0
H926 H 0.16457 0.52327 0.11581 0.0
C927 C 0.27351 0.57941 0.08282 0.0
C928 C 0.25789 0.54184 0.09833 0.0
H929 H 0.26482 0.62894 0.07385 0.0
H930 H 0.30487 0.59665 0.07641 0.0
C931 C 0.21745 0.52037 0.10706 0.0
C932 C 0.71133 0.20821 0.10762 0.0
C933 C 0.73059 0.2486 0.09864 0.0
H934 H 0.65533 0.15565 0.11655 0.0
C935 C 0.70887 0.26434 0.08288 0.0
H936 H 0.72764 0.19573 0.12016 0.0
C937 C 0.66743 0.24156 0.08119 0.0
C938 C 0.6477 0.2029 0.09494 0.0
H939 H 0.72322 0.29567 0.07629 0.0
H940 H 0.65084 0.25606 0.07375 0.0
C941 C 0.67001 0.18529 0.10541 0.0
C942 C 0.44034 0.66069 0.08088 0.0
C943 C 0.45979 0.64119 0.09395 0.0
H944 H 0.44137 0.71622 0.07676 0.0
C945 C 0.49985 0.66376 0.10402 0.0
H946 H 0.40917 0.64391 0.07374 0.0
C947 C 0.51792 0.70503 0.10653 0.0
C948 C 0.49634 0.724 0.09823 0.0
H949 H 0.5152 0.64923 0.11462 0.0
H950 H 0.54688 0.72148 0.11878 0.0
C951 C 0.45869 0.7021 0.08284 0.0
C952 C 0.79489 0.43142 0.08074 0.0
C953 C 0.83388 0.45068 0.09375 0.0
H954 H 0.74068 0.43297 0.07653 0.0
C955 C 0.85172 0.49083 0.10358 0.0
H956 H 0.78026 0.40019 0.07377 0.0
C957 C 0.82884 0.50926 0.1059 0.0
C958 C 0.78826 0.48791 0.09767 0.0
H959 H 0.88163 0.50604 0.11415 0.0
H960 H 0.84162 0.53834 0.11798 0.0
C961 C 0.77215 0.4501 0.08254 0.0
C962 C 0.37456 0.84403 0.10467 0.0
C963 C 0.39705 0.82647 0.09459 0.0
H964 H 0.31683 0.83347 0.11918 0.0
C965 C 0.3775 0.78761 0.08128 0.0
H966 H 0.38912 0.87382 0.11547 0.0
C967 C 0.33607 0.76467 0.08301 0.0
C968 C 0.31419 0.78044 0.09839 0.0
H969 H 0.39423 0.77318 0.07414 0.0
H970 H 0.32188 0.73327 0.07676 0.0
C971 C 0.33326 0.82095 0.10692 0.0
C972 C 0.71266 0.51009 0.47355 0.0
C973 C 0.73167 0.48855 0.48184 0.0
H974 H 0.65684 0.50728 0.46535 0.0
C975 C 0.70979 0.45084 0.49714 0.0
H976 H 0.72911 0.5391 0.46137 0.0
C977 C 0.66837 0.43241 0.49902 0.0
C978 C 0.64884 0.45185 0.48595 0.0
H979 H 0.72395 0.43356 0.50322 0.0
H980 H 0.65161 0.40122 0.5061 0.0
C981 C 0.67137 0.49194 0.47597 0.0
C982 C 0.19346 0.66208 0.47574 0.0
C983 C 0.21122 0.63978 0.4858 0.0
H984 H 0.20368 0.71972 0.46129 0.0
C985 C 0.25006 0.6595 0.49915 0.0
H986 H 0.16368 0.64738 0.46492 0.0
C987 C 0.2728 0.70095 0.49746 0.0
C988 C 0.25684 0.72267 0.4821 0.0
H989 H 0.26464 0.64291 0.5063 0.0
H990 H 0.3042 0.71529 0.50373 0.0
C991 C 0.21634 0.70341 0.47354 0.0
C992 C 0.52785 0.20966 0.47328 0.0
C993 C 0.54934 0.25015 0.48183 0.0
H994 H 0.53071 0.15673 0.46479 0.0
C995 C 0.58695 0.26586 0.49729 0.0
H996 H 0.49892 0.1972 0.46097 0.0
C997 C 0.60535 0.24285 0.4991 0.0
C998 C 0.58601 0.204 0.48576 0.0
H999 H 0.60419 0.29725 0.50356 0.0
H1000 H 0.63649 0.25723 0.50633 0.0
C1001 C 0.54598 0.18651 0.4756 0.0
C1002 C 0.33658 0.57887 0.49709 0.0
C1003 C 0.31489 0.54131 0.4815 0.0
H1004 H 0.3946 0.62866 0.50617 0.0
C1005 C 0.33414 0.5201 0.47281 0.0
H1006 H 0.32224 0.5959 0.50345 0.0
C1007 C 0.37545 0.5385 0.47513 0.0
C1008 C 0.39775 0.57848 0.48544 0.0
H1009 H 0.31784 0.49122 0.46039 0.0
H1010 H 0.39015 0.52346 0.46421 0.0
C1011 C 0.37802 0.59753 0.49888 0.0
C1012 C 0.85179 0.36695 0.47506 0.0
C1013 C 0.83436 0.38951 0.48529 0.0
H1014 H 0.84105 0.30917 0.46048 0.0
C1015 C 0.79558 0.37003 0.49877 0.0
H1016 H 0.88153 0.38146 0.46413 0.0
C1017 C 0.77256 0.3286 0.49707 0.0
C1018 C 0.78819 0.30666 0.48156 0.0
H1019 H 0.78124 0.38681 0.50601 0.0
H1020 H 0.7412 0.31447 0.50345 0.0
C1021 C 0.82864 0.32565 0.47285 0.0
C1022 C 0.45768 0.76377 0.49751 0.0
C1023 C 0.49556 0.77998 0.4825 0.0
H1024 H 0.40771 0.7718 0.50624 0.0
C1025 C 0.51693 0.82062 0.47445 0.0
H1026 H 0.44054 0.73226 0.50339 0.0
C1027 C 0.49848 0.84348 0.47684 0.0
C1028 C 0.4583 0.82558 0.48656 0.0
H1029 H 0.54606 0.83347 0.46248 0.0
H1030 H 0.51373 0.87344 0.4664 0.0
C1031 C 0.43897 0.7865 0.49937 0.0
C1032 C 0.45936 0.70166 0.99718 0.0
C1033 C 0.49683 0.72363 0.98149 0.0
H1034 H 0.40985 0.64344 1.0062 0.0
C1035 C 0.51822 0.70466 0.9725 0.0
H1036 H 0.44219 0.71579 1.00377 0.0
C1037 C 0.50006 0.66335 0.97463 0.0
C1038 C 0.46013 0.64078 0.98504 0.0
H1039 H 0.54703 0.72117 0.96001 0.0
H1040 H 0.51522 0.64888 0.96351 0.0
C1041 C 0.44093 0.66023 0.9988 0.0
C1042 C 0.79505 0.43208 0.99879 0.0
C1043 C 0.83393 0.45122 0.98554 0.0
H1044 H 0.7409 0.43372 1.00327 0.0
C1045 C 0.85172 0.49129 0.97546 0.0
H1046 H 0.78044 0.4009 1.00591 0.0
C1047 C 0.82885 0.50974 0.9732 0.0
C1048 C 0.78833 0.48849 0.9817 0.0
H1049 H 0.88152 0.50638 0.96469 0.0
H1050 H 0.84155 0.53873 0.96096 0.0
C1051 C 0.77232 0.4508 0.99705 0.0
C1052 C 0.37752 0.78637 0.99938 0.0
C1053 C 0.39696 0.82549 0.98666 0.0
H1054 H 0.32203 0.73179 1.00328 0.0
C1055 C 0.37435 0.84305 0.97698 0.0
H1056 H 0.39435 0.77196 1.00623 0.0
C1057 C 0.33307 0.81983 0.97453 0.0
C1058 C 0.31415 0.77919 0.98249 0.0
H1059 H 0.38882 0.87305 0.96663 0.0
H1060 H 0.31656 0.83245 0.96258 0.0
C1061 C 0.33611 0.76329 0.99747 0.0
C1062 C 0.58696 0.32935 0.9974 0.0
C1063 C 0.54925 0.30764 0.98208 0.0
H1064 H 0.63685 0.38736 1.00626 0.0
C1065 C 0.52798 0.3269 0.97363 0.0
H1066 H 0.60403 0.31499 1.00358 0.0
C1067 C 0.54642 0.36822 0.97591 0.0
C1068 C 0.58651 0.39052 0.98593 0.0
H1069 H 0.49899 0.31059 0.96141 0.0
H1070 H 0.5313 0.38291 0.96516 0.0
C1071 C 0.60565 0.37078 0.99917 0.0
C1072 C 0.25031 0.59697 0.99899 0.0
C1073 C 0.21148 0.57764 0.9856 0.0
H1074 H 0.30474 0.59588 1.00345 0.0
C1075 C 0.19407 0.53767 0.97529 0.0
H1076 H 0.26463 0.62808 1.0063 0.0
C1077 C 0.21726 0.51959 0.9729 0.0
C1078 C 0.25774 0.5411 0.98151 0.0
H1079 H 0.1643 0.52242 0.96444 0.0
H1080 H 0.20485 0.49073 0.96049 0.0
C1081 C 0.27336 0.57862 0.99713 0.0
C1082 C 0.71118 0.20921 0.97375 0.0
C1083 C 0.73053 0.24978 0.98206 0.0
H1084 H 0.65509 0.15654 0.96544 0.0
C1085 C 0.70892 0.26593 0.9973 0.0
H1086 H 0.72741 0.19641 0.9616 0.0
C1087 C 0.66747 0.24325 0.99912 0.0
C1088 C 0.64764 0.2043 0.98603 0.0
H1089 H 0.72334 0.29738 1.00339 0.0
H1090 H 0.65096 0.25794 1.00617 0.0
C1091 C 0.66986 0.1864 0.97609 0.0
C1092 C 0.33715 0.58117 0.58257 0.0
C1093 C 0.31546 0.54322 0.59746 0.0
H1094 H 0.39515 0.63122 0.57399 0.0
C1095 C 0.33475 0.52187 0.60547 0.0
H1096 H 0.32277 0.5983 0.57672 0.0
C1097 C 0.37607 0.54037 0.60316 0.0
C1098 C 0.39835 0.58061 0.59356 0.0
H1099 H 0.31845 0.49269 0.61737 0.0
H1100 H 0.39078 0.52512 0.61358 0.0
C1101 C 0.37859 0.59993 0.58078 0.0
C1102 C 0.7937 0.37003 0.58065 0.0
C1103 C 0.83285 0.38948 0.59327 0.0
H1104 H 0.73909 0.31455 0.57689 0.0
C1105 C 0.85043 0.36687 0.60289 0.0
H1106 H 0.77926 0.38686 0.57385 0.0
C1107 C 0.82721 0.32559 0.6054 0.0
C1108 C 0.78655 0.30667 0.59755 0.0
H1109 H 0.88046 0.38135 0.61316 0.0
H1110 H 0.83986 0.30909 0.61731 0.0
C1111 C 0.77061 0.32863 0.58262 0.0
C1112 C 0.44101 0.78938 0.5814 0.0
C1113 C 0.45983 0.82797 0.59526 0.0
H1114 H 0.44285 0.73538 0.57638 0.0
C1115 C 0.49974 0.84565 0.6058 0.0
H1116 H 0.40994 0.77485 0.57391 0.0
C1117 C 0.51823 0.82282 0.60794 0.0
C1118 C 0.49719 0.78246 0.59886 0.0
H1119 H 0.5146 0.87525 0.617 0.0
H1120 H 0.54701 0.83534 0.62053 0.0
C1121 C 0.45977 0.76669 0.58304 0.0
C1122 C 0.71207 0.51077 0.60768 0.0
C1123 C 0.731 0.48935 0.59863 0.0
H1124 H 0.65634 0.50787 0.61667 0.0
C1125 C 0.709 0.45195 0.58283 0.0
H1126 H 0.72861 0.53954 0.62025 0.0
C1127 C 0.66757 0.43361 0.58116 0.0
C1128 C 0.64816 0.45281 0.59498 0.0
H1129 H 0.72309 0.43476 0.57618 0.0
H1130 H 0.65075 0.40256 0.57366 0.0
C1131 C 0.67078 0.4927 0.6055 0.0
C1132 C 0.25106 0.66063 0.58105 0.0
C1133 C 0.21204 0.64084 0.59399 0.0
H1134 H 0.30528 0.71643 0.57696 0.0
C1135 C 0.19419 0.6631 0.60393 0.0
H1136 H 0.26571 0.64406 0.57404 0.0
C1137 C 0.21708 0.70441 0.60636 0.0
C1138 C 0.25768 0.7237 0.59817 0.0
H1139 H 0.16428 0.64835 0.61447 0.0
H1140 H 0.20428 0.72066 0.6185 0.0
C1141 C 0.2738 0.70207 0.58295 0.0
C1142 C 0.58606 0.26603 0.58292 0.0
C1143 C 0.54848 0.25038 0.59844 0.0
H1144 H 0.63559 0.25738 0.57392 0.0
C1145 C 0.527 0.2099 0.60707 0.0
H1146 H 0.60329 0.29741 0.57659 0.0
C1147 C 0.54513 0.18674 0.60479 0.0
C1148 C 0.58513 0.20419 0.59457 0.0
H1149 H 0.49809 0.19747 0.61942 0.0
H1150 H 0.52987 0.15698 0.61567 0.0
C1151 C 0.60446 0.24301 0.58116 0.0
C1152 C 0.4254 0.07034 1.02185 0.0
C1153 C 0.41957 0.0984 1.00358 0.0
H1154 H 0.43706 0.0535 0.07169 0.0
C1155 C 0.40481 0.1195 1.02214 0.0
H1156 H 0.43704 0.05381 1.00834 0.0
C1157 C 0.4048 0.11932 0.05873 0.0
C1158 C 0.41958 0.09805 0.07701 0.0
H1159 H 0.4003 0.14158 1.00887 0.0
H1160 H 0.4003 0.14128 0.07223 0.0
C1161 C 0.4254 0.07016 0.05843 0.0
C1162 C 0.30236 0.39785 1.02123 0.0
C1163 C 0.33834 0.41273 1.00283 0.0
H1164 H 0.27577 0.3934 0.07116 0.0
C1165 C 0.37222 0.41882 1.02129 0.0
H1166 H 0.27578 0.39314 1.0078 0.0
C1167 C 0.37222 0.41898 0.05787 0.0
C1168 C 0.33833 0.413 0.07625 0.0
H1169 H 0.40048 0.43056 1.00791 0.0
H1170 H 0.40048 0.43082 0.07127 0.0
C1171 C 0.30235 0.398 0.05782 0.0
C1172 C 0.91877 0.29287 0.05822 0.0
C1173 C 0.9399 0.32883 0.07666 0.0
H1174 H 0.89671 0.26634 1.00826 0.0
C1175 C 0.9678 0.36269 0.05824 0.0
H1176 H 0.89681 0.2663 0.07162 0.0
C1177 C 0.96775 0.36272 1.02165 0.0
C1178 C 0.93981 0.32888 1.00323 0.0
H1179 H 0.98436 0.39093 0.07164 0.0
H1180 H 0.98428 0.39099 1.00828 0.0
C1181 C 0.91872 0.29289 1.02163 0.0
C1182 C 0.64017 0.91238 1.02215 0.0
C1183 C 0.62506 0.93326 1.00372 0.0
H1184 H 0.64502 0.8906 0.07213 0.0
C1185 C 0.61891 0.96104 1.02212 0.0
H1186 H 0.64493 0.89052 1.00877 0.0
C1187 C 0.61896 0.96109 0.0587 0.0
C1188 C 0.62515 0.93335 0.07714 0.0
H1189 H 0.607 0.97739 1.00872 0.0
H1190 H 0.60708 0.97748 0.07208 0.0
C1191 C 0.64024 0.91244 0.05874 0.0
C1192 C 0.74506 0.63323 1.02139 0.0
C1193 C 0.70909 0.61845 1.003 0.0
H1194 H 0.77161 0.63755 0.07131 0.0
C1195 C 0.67526 0.6125 1.02147 0.0
H1196 H 0.7716 0.63784 1.00795 0.0
C1197 C 0.67526 0.61232 0.05805 0.0
C1198 C 0.7091 0.61814 0.07641 0.0
H1199 H 0.64701 0.60086 1.00809 0.0
H1200 H 0.647 0.60056 0.07145 0.0
C1201 C 0.74506 0.63306 0.05798 0.0
C1202 C 0.12604 0.73575 0.05851 0.0
C1203 C 0.10497 0.69984 0.07703 0.0
H1204 H 0.14805 0.76214 1.00849 0.0
C1205 C 0.07709 0.6659 0.05869 0.0
H1206 H 0.14797 0.76238 0.07185 0.0
C1207 C 0.07714 0.66575 1.02211 0.0
C1208 C 0.10504 0.69956 1.00362 0.0
H1209 H 0.06057 0.6377 0.07216 0.0
H1210 H 0.06065 0.63744 1.0088 0.0
C1211 C 0.12608 0.73561 1.02192 0.0
C1212 C 0.96845 0.61153 0.558 0.0
C1213 C 0.94057 0.61761 0.5763 0.0
H1214 H 0.9851 0.59975 0.50813 0.0
C1215 C 0.91968 0.63265 0.55778 0.0
H1216 H 0.98481 0.59968 0.57149 0.0
C1217 C 0.91985 0.6327 0.5212 0.0
C1218 C 0.94089 0.61769 0.50289 0.0
H1219 H 0.89774 0.63735 0.57109 0.0
H1220 H 0.89803 0.63743 0.50772 0.0
C1221 C 0.96863 0.61159 0.52143 0.0
C1222 C 0.37038 0.9604 0.55862 0.0
C1223 C 0.33655 0.93255 0.5771 0.0
H1224 H 0.39868 0.97666 0.50865 0.0
C1225 C 0.30059 0.91128 0.55869 0.0
H1226 H 0.39862 0.97706 0.57201 0.0
C1227 C 0.30062 0.91104 0.5221 0.0
C1228 C 0.33659 0.93211 0.50367 0.0
H1229 H 0.27404 0.88936 0.57213 0.0
H1230 H 0.27408 0.88895 0.50877 0.0
C1231 C 0.37041 0.96017 0.52204 0.0
C1232 C 0.42655 0.36474 0.52174 0.0
C1233 C 0.42056 0.3308 0.50344 0.0
H1234 H 0.43808 0.3931 0.57163 0.0
C1235 C 0.40549 0.29485 0.52194 0.0
H1236 H 0.43844 0.39297 0.50827 0.0
C1237 C 0.40526 0.29492 0.55853 0.0
C1238 C 0.42016 0.33095 0.57687 0.0
H1239 H 0.40087 0.26824 0.50865 0.0
H1240 H 0.4005 0.26835 0.57202 0.0
C1241 C 0.42632 0.3648 0.55832 0.0
C1242 C 0.07809 0.41818 0.5579 0.0
C1243 C 0.10613 0.41244 0.57631 0.0
H1244 H 0.06125 0.42946 0.50791 0.0
C1245 C 0.12721 0.39752 0.55795 0.0
H1246 H 0.06159 0.42994 0.57127 0.0
C1247 C 0.127 0.39722 0.52136 0.0
C1248 C 0.10577 0.41191 0.5029 0.0
H1249 H 0.14927 0.39308 0.57134 0.0
H1250 H 0.14895 0.39259 0.50797 0.0
C1251 C 0.07788 0.41787 0.52132 0.0
C1252 C 0.6733 0.06957 0.52182 0.0
C1253 C 0.7073 0.09741 0.50353 0.0
H1254 H 0.64469 0.05316 0.57164 0.0
C1255 C 0.74317 0.11844 0.52211 0.0
H1256 H 0.64513 0.0531 0.50829 0.0
C1257 C 0.74293 0.11848 0.5587 0.0
C1258 C 0.70682 0.09747 0.57694 0.0
H1259 H 0.76984 0.14035 0.50881 0.0
H1260 H 0.76943 0.14041 0.57218 0.0
C1261 C 0.67305 0.06961 0.5584 0.0
C1262 C 0.6203 0.66802 0.55875 0.0
C1263 C 0.62627 0.702 0.57696 0.0
H1264 H 0.60839 0.63938 0.50896 0.0
C1265 C 0.64108 0.73784 0.55833 0.0
H1266 H 0.60863 0.63987 0.57232 0.0
C1267 C 0.64095 0.73756 0.52174 0.0
C1268 C 0.62603 0.70145 0.50354 0.0
H1269 H 0.64571 0.76449 0.57156 0.0
H1270 H 0.64549 0.76402 0.5082 0.0
C1271 C 0.62017 0.66774 0.52217 0.0
loop_
_geom_bond_atom_site_label_1
_geom_bond_atom_site_label_2
_geom_bond_distance
_geom_bond_site_symmetry_2
_ccdc_geom_bond_type
O0 Zn1 1.953 . S
O0 C16 1.225 . S
Zn1 O0 1.953 . S
Zn1 O2 1.949 . S
Zn1 O8 1.919 . S
Zn1 O13 1.924 . S
O2 Zn1 1.949 . S
O2 Zn3 1.923 . S
O2 Zn4 1.950 . S
O2 Zn5 1.945 . S
Zn3 O2 1.923 . S
Zn3 O6 1.933 . S
Zn3 O9 1.941 . S
Zn3 O10 1.965 . S
Zn4 O2 1.950 . S
Zn4 O11 1.938 . S
Zn4 O12 1.906 . S
Zn4 O22 1.953 . S
Zn5 O2 1.945 . S
Zn5 O7 1.932 . S
Zn5 O14 1.977 . S
Zn5 O15 1.910 . S
O6 Zn3 1.933 . S
O6 C17 1.226 . S
O7 Zn5 1.932 . S
O7 C17 1.307 . S
O8 Zn1 1.919 . S
O8 C19 1.253 . S
O9 Zn3 1.941 . S
O9 C19 1.283 . S
O10 Zn3 1.965 . S
O10 C18 1.303 . S
O11 Zn4 1.938 . S
O11 C18 1.247 . S
O12 Zn4 1.906 . S
O12 C20 1.304 . S
O13 Zn1 1.924 . S
O13 C21 1.311 . S
O14 Zn5 1.977 . S
O14 C20 1.272 . S
O15 Zn5 1.910 . S
O15 C21 1.231 . S
C16 O0 1.225 . S
C16 O22 1.298 . S
C17 O6 1.226 . S
C17 O7 1.307 . S
C18 O10 1.303 . S
C18 O11 1.247 . S
C19 O8 1.253 . S
C19 O9 1.283 . S
C20 O12 1.304 . S
C20 O14 1.272 . S
C21 O13 1.311 . S
C21 O15 1.231 . S
O22 Zn4 1.953 . S
O22 C16 1.298 . S
O23 Zn24 1.953 . S
O23 C39 1.225 . S
Zn24 O23 1.953 . S
Zn24 O25 1.949 . S
Zn24 O31 1.919 . S
Zn24 O36 1.924 . S
O25 Zn24 1.949 . S
O25 Zn26 1.923 . S
O25 Zn27 1.950 . S
O25 Zn28 1.945 . S
Zn26 O25 1.923 . S
Zn26 O29 1.933 . S
Zn26 O32 1.941 . S
Zn26 O33 1.965 . S
Zn27 O25 1.950 . S
Zn27 O34 1.938 . S
Zn27 O35 1.906 . S
Zn27 O45 1.953 . S
Zn28 O25 1.945 . S
Zn28 O30 1.932 . S
Zn28 O37 1.977 . S
Zn28 O38 1.910 . S
O29 Zn26 1.933 . S
O29 C40 1.226 . S
O30 Zn28 1.932 . S
O30 C40 1.307 . S
O31 Zn24 1.919 . S
O31 C42 1.253 . S
O32 Zn26 1.941 . S
O32 C42 1.283 . S
O33 Zn26 1.965 . S
O33 C41 1.303 . S
O34 Zn27 1.938 . S
O34 C41 1.247 . S
O35 Zn27 1.906 . S
O35 C43 1.304 . S
O36 Zn24 1.924 . S
O36 C44 1.311 . S
O37 Zn28 1.977 . S
O37 C43 1.272 . S
O38 Zn28 1.910 . S
O38 C44 1.231 . S
C39 O23 1.225 . S
C39 O45 1.298 . S
C40 O29 1.226 . S
C40 O30 1.307 . S
C41 O33 1.303 . S
C41 O34 1.247 . S
C42 O31 1.253 . S
C42 O32 1.283 . S
C43 O35 1.304 . S
C43 O37 1.272 . S
C44 O36 1.311 . S
C44 O38 1.231 . S
O45 Zn27 1.953 . S
O45 C39 1.298 . S
O46 Zn47 1.953 . S
O46 C62 1.225 . S
Zn47 O46 1.953 . S
Zn47 O48 1.949 . S
Zn47 O54 1.919 . S
Zn47 O59 1.924 . S
O48 Zn47 1.949 . S
O48 Zn49 1.923 . S
O48 Zn50 1.950 . S
O48 Zn51 1.945 . S
Zn49 O48 1.923 . S
Zn49 O52 1.933 . S
Zn49 O55 1.941 . S
Zn49 O56 1.965 . S
Zn50 O48 1.950 . S
Zn50 O57 1.938 . S
Zn50 O58 1.906 . S
Zn50 O68 1.953 . S
Zn51 O48 1.945 . S
Zn51 O53 1.932 . S
Zn51 O60 1.977 . S
Zn51 O61 1.910 . S
O52 Zn49 1.933 . S
O52 C63 1.226 . S
O53 Zn51 1.932 . S
O53 C63 1.307 . S
O54 Zn47 1.919 . S
O54 C65 1.253 . S
O55 Zn49 1.941 . S
O55 C65 1.283 . S
O56 Zn49 1.965 . S
O56 C64 1.303 . S
O57 Zn50 1.938 . S
O57 C64 1.247 . S
O58 Zn50 1.906 . S
O58 C66 1.304 . S
O59 Zn47 1.924 . S
O59 C67 1.311 . S
O60 Zn51 1.977 . S
O60 C66 1.272 . S
O61 Zn51 1.910 . S
O61 C67 1.231 . S
C62 O46 1.225 . S
C62 O68 1.298 . S
C63 O52 1.226 . S
C63 O53 1.307 . S
C64 O56 1.303 . S
C64 O57 1.247 . S
C65 O54 1.253 . S
C65 O55 1.283 . S
C66 O58 1.304 . S
C66 O60 1.272 . S
C67 O59 1.311 . S
C67 O61 1.231 . S
O68 Zn50 1.953 . S
O68 C62 1.298 . S
O69 Zn70 1.953 . S
O69 C85 1.225 . S
Zn70 O69 1.953 . S
Zn70 O71 1.949 . S
Zn70 O77 1.919 . S
Zn70 O82 1.924 . S
O71 Zn70 1.949 . S
O71 Zn72 1.923 . S
O71 Zn73 1.950 . S
O71 Zn74 1.945 . S
Zn72 O71 1.923 . S
Zn72 O75 1.933 . S
Zn72 O78 1.941 . S
Zn72 O79 1.965 . S
Zn73 O71 1.950 . S
Zn73 O80 1.938 . S
Zn73 O81 1.906 . S
Zn73 O91 1.953 . S
Zn74 O71 1.945 . S
Zn74 O76 1.932 . S
Zn74 O83 1.977 . S
Zn74 O84 1.910 . S
O75 Zn72 1.933 . S
O75 C86 1.226 . S
O76 Zn74 1.932 . S
O76 C86 1.307 . S
O77 Zn70 1.919 . S
O77 C88 1.253 . S
O78 Zn72 1.941 . S
O78 C88 1.283 . S
O79 Zn72 1.965 . S
O79 C87 1.303 . S
O80 Zn73 1.938 . S
O80 C87 1.247 . S
O81 Zn73 1.906 . S
O81 C89 1.304 . S
O82 Zn70 1.924 . S
O82 C90 1.311 . S
O83 Zn74 1.977 . S
O83 C89 1.272 . S
O84 Zn74 1.910 . S
O84 C90 1.231 . S
C85 O69 1.225 . S
C85 O91 1.298 . S
C86 O75 1.226 . S
C86 O76 1.307 . S
C87 O79 1.303 . S
C87 O80 1.247 . S
C88 O77 1.253 . S
C88 O78 1.283 . S
C89 O81 1.304 . S
C89 O83 1.272 . S
C90 O82 1.311 . S
C90 O84 1.231 . S
O91 Zn73 1.953 . S
O91 C85 1.298 . S
O92 Zn93 1.953 . S
O92 C108 1.225 . S
Zn93 O92 1.953 . S
Zn93 O94 1.949 . S
Zn93 O100 1.919 . S
Zn93 O105 1.924 . S
O94 Zn93 1.949 . S
O94 Zn95 1.923 . S
O94 Zn96 1.950 . S
O94 Zn97 1.945 . S
Zn95 O94 1.923 . S
Zn95 O98 1.933 . S
Zn95 O101 1.941 . S
Zn95 O102 1.965 . S
Zn96 O94 1.950 . S
Zn96 O103 1.938 . S
Zn96 O104 1.906 . S
Zn96 O114 1.953 . S
Zn97 O94 1.945 . S
Zn97 O99 1.932 . S
Zn97 O106 1.977 . S
Zn97 O107 1.910 . S
O98 Zn95 1.933 . S
O98 C109 1.226 . S
O99 Zn97 1.932 . S
O99 C109 1.307 . S
O100 Zn93 1.919 . S
O100 C111 1.253 . S
O101 Zn95 1.941 . S
O101 C111 1.283 . S
O102 Zn95 1.965 . S
O102 C110 1.303 . S
O103 Zn96 1.938 . S
O103 C110 1.247 . S
O104 Zn96 1.906 . S
O104 C112 1.304 . S
O105 Zn93 1.924 . S
O105 C113 1.311 . S
O106 Zn97 1.977 . S
O106 C112 1.272 . S
O107 Zn97 1.910 . S
O107 C113 1.231 . S
C108 O92 1.225 . S
C108 O114 1.298 . S
C109 O98 1.226 . S
C109 O99 1.307 . S
C110 O102 1.303 . S
C110 O103 1.247 . S
C111 O100 1.253 . S
C111 O101 1.283 . S
C112 O104 1.304 . S
C112 O106 1.272 . S
C113 O105 1.311 . S
C113 O107 1.231 . S
O114 Zn96 1.953 . S
O114 C108 1.298 . S
O115 Zn116 1.953 . S
O115 C131 1.225 . S
Zn116 O115 1.953 . S
Zn116 O117 1.949 . S
Zn116 O123 1.919 . S
Zn116 O128 1.924 . S
O117 Zn116 1.949 . S
O117 Zn118 1.923 . S
O117 Zn119 1.950 . S
O117 Zn120 1.945 . S
Zn118 O117 1.923 . S
Zn118 O121 1.933 . S
Zn118 O124 1.941 . S
Zn118 O125 1.965 . S
Zn119 O117 1.950 . S
Zn119 O126 1.938 . S
Zn119 O127 1.906 . S
Zn119 O137 1.953 . S
Zn120 O117 1.945 . S
Zn120 O122 1.932 . S
Zn120 O129 1.977 . S
Zn120 O130 1.910 . S
O121 Zn118 1.933 . S
O121 C132 1.226 . S
O122 Zn120 1.932 . S
O122 C132 1.307 . S
O123 Zn116 1.919 . S
O123 C134 1.253 . S
O124 Zn118 1.941 . S
O124 C134 1.283 . S
O125 Zn118 1.965 . S
O125 C133 1.303 . S
O126 Zn119 1.938 . S
O126 C133 1.247 . S
O127 Zn119 1.906 . S
O127 C135 1.304 . S
O128 Zn116 1.924 . S
O128 C136 1.311 . S
O129 Zn120 1.977 . S
O129 C135 1.272 . S
O130 Zn120 1.910 . S
O130 C136 1.231 . S
C131 O115 1.225 . S
C131 O137 1.298 . S
C132 O121 1.226 . S
C132 O122 1.307 . S
C133 O125 1.303 . S
C133 O126 1.247 . S
C134 O123 1.253 . S
C134 O124 1.283 . S
C135 O127 1.304 . S
C135 O129 1.272 . S
C136 O128 1.311 . S
C136 O130 1.231 . S
O137 Zn119 1.953 . S
O137 C131 1.298 . S
O138 Zn139 1.953 . S
O138 C154 1.225 . S
Zn139 O138 1.953 . S
Zn139 O140 1.949 . S
Zn139 O146 1.919 . S
Zn139 O151 1.924 . S
O140 Zn139 1.949 . S
O140 Zn141 1.923 . S
O140 Zn142 1.950 . S
O140 Zn143 1.945 . S
Zn141 O140 1.923 . S
Zn141 O144 1.933 . S
Zn141 O147 1.941 . S
Zn141 O148 1.965 . S
Zn142 O140 1.950 . S
Zn142 O149 1.938 . S
Zn142 O150 1.906 . S
Zn142 O160 1.953 . S
Zn143 O140 1.945 . S
Zn143 O145 1.932 . S
Zn143 O152 1.977 . S
Zn143 O153 1.910 . S
O144 Zn141 1.933 . S
O144 C155 1.226 . S
O145 Zn143 1.932 . S
O145 C155 1.307 . S
O146 Zn139 1.919 . S
O146 C157 1.253 . S
O147 Zn141 1.941 . S
O147 C157 1.283 . S
O148 Zn141 1.965 . S
O148 C156 1.303 . S
O149 Zn142 1.938 . S
O149 C156 1.247 . S
O150 Zn142 1.906 . S
O150 C158 1.304 . S
O151 Zn139 1.924 . S
O151 C159 1.311 . S
O152 Zn143 1.977 . S
O152 C158 1.272 . S
O153 Zn143 1.910 . S
O153 C159 1.231 . S
C154 O138 1.225 . S
C154 O160 1.298 . S
C155 O144 1.226 . S
C155 O145 1.307 . S
C156 O148 1.303 . S
C156 O149 1.247 . S
C157 O146 1.253 . S
C157 O147 1.283 . S
C158 O150 1.304 . S
C158 O152 1.272 . S
C159 O151 1.311 . S
C159 O153 1.231 . S
O160 Zn142 1.953 . S
O160 C154 1.298 . S
O161 Zn162 1.953 . S
O161 C177 1.225 . S
Zn162 O161 1.953 . S
Zn162 O163 1.949 . S
Zn162 O169 1.919 . S
Zn162 O174 1.924 . S
O163 Zn162 1.949 . S
O163 Zn164 1.923 . S
O163 Zn165 1.950 . S
O163 Zn166 1.945 . S
Zn164 O163 1.923 . S
Zn164 O167 1.933 . S
Zn164 O170 1.941 . S
Zn164 O171 1.965 . S
Zn165 O163 1.950 . S
Zn165 O172 1.938 . S
Zn165 O173 1.906 . S
Zn165 O183 1.953 . S
Zn166 O163 1.945 . S
Zn166 O168 1.932 . S
Zn166 O175 1.977 . S
Zn166 O176 1.910 . S
O167 Zn164 1.933 . S
O167 C178 1.226 . S
O168 Zn166 1.932 . S
O168 C178 1.307 . S
O169 Zn162 1.919 . S
O169 C180 1.253 . S
O170 Zn164 1.941 . S
O170 C180 1.283 . S
O171 Zn164 1.965 . S
O171 C179 1.303 . S
O172 Zn165 1.938 . S
O172 C179 1.247 . S
O173 Zn165 1.906 . S
O173 C181 1.304 . S
O174 Zn162 1.924 . S
O174 C182 1.311 . S
O175 Zn166 1.977 . S
O175 C181 1.272 . S
O176 Zn166 1.910 . S
O176 C182 1.231 . S
C177 O161 1.225 . S
C177 O183 1.298 . S
C178 O167 1.226 . S
C178 O168 1.307 . S
C179 O171 1.303 . S
C179 O172 1.247 . S
C180 O169 1.253 . S
C180 O170 1.283 . S
C181 O173 1.304 . S
C181 O175 1.272 . S
C182 O174 1.311 . S
C182 O176 1.231 . S
O183 Zn165 1.953 . S
O183 C177 1.298 . S
O184 Zn185 1.953 . S
O184 C200 1.225 . S
Zn185 O184 1.953 . S
Zn185 O186 1.949 . S
Zn185 O192 1.919 . S
Zn185 O197 1.924 . S
O186 Zn185 1.949 . S
O186 Zn187 1.923 . S
O186 Zn188 1.950 . S
O186 Zn189 1.945 . S
Zn187 O186 1.923 . S
Zn187 O190 1.933 . S
Zn187 O193 1.941 . S
Zn187 O194 1.965 . S
Zn188 O186 1.950 . S
Zn188 O195 1.938 . S
Zn188 O196 1.906 . S
Zn188 O206 1.953 . S
Zn189 O186 1.945 . S
Zn189 O191 1.932 . S
Zn189 O198 1.977 . S
Zn189 O199 1.910 . S
O190 Zn187 1.933 . S
O190 C201 1.226 . S
O191 Zn189 1.932 . S
O191 C201 1.307 . S
O192 Zn185 1.919 . S
O192 C203 1.253 . S
O193 Zn187 1.941 . S
O193 C203 1.283 . S
O194 Zn187 1.965 . S
O194 C202 1.303 . S
O195 Zn188 1.938 . S
O195 C202 1.247 . S
O196 Zn188 1.906 . S
O196 C204 1.304 . S
O197 Zn185 1.924 . S
O197 C205 1.311 . S
O198 Zn189 1.977 . S
O198 C204 1.272 . S
O199 Zn189 1.910 . S
O199 C205 1.231 . S
C200 O184 1.225 . S
C200 O206 1.298 . S
C201 O190 1.226 . S
C201 O191 1.307 . S
C202 O194 1.303 . S
C202 O195 1.247 . S
C203 O192 1.253 . S
C203 O193 1.283 . S
C204 O196 1.304 . S
C204 O198 1.272 . S
C205 O197 1.311 . S
C205 O199 1.231 . S
O206 Zn188 1.953 . S
O206 C200 1.298 . S
O207 Zn208 1.953 . S
O207 C223 1.225 . S
Zn208 O207 1.953 . S
Zn208 O209 1.949 . S
Zn208 O215 1.919 . S
Zn208 O220 1.924 . S
O209 Zn208 1.949 . S
O209 Zn210 1.923 . S
O209 Zn211 1.950 . S
O209 Zn212 1.945 . S
Zn210 O209 1.923 . S
Zn210 O213 1.933 . S
Zn210 O216 1.941 . S
Zn210 O217 1.965 . S
Zn211 O209 1.950 . S
Zn211 O218 1.938 . S
Zn211 O219 1.906 . S
Zn211 O229 1.953 . S
Zn212 O209 1.945 . S
Zn212 O214 1.932 . S
Zn212 O221 1.977 . S
Zn212 O222 1.910 . S
O213 Zn210 1.933 . S
O213 C224 1.226 . S
O214 Zn212 1.932 . S
O214 C224 1.307 . S
O215 Zn208 1.919 . S
O215 C226 1.253 . S
O216 Zn210 1.941 . S
O216 C226 1.283 . S
O217 Zn210 1.965 . S
O217 C225 1.303 . S
O218 Zn211 1.938 . S
O218 C225 1.247 . S
O219 Zn211 1.906 . S
O219 C227 1.304 . S
O220 Zn208 1.924 . S
O220 C228 1.311 . S
O221 Zn212 1.977 . S
O221 C227 1.272 . S
O222 Zn212 1.910 . S
O222 C228 1.231 . S
C223 O207 1.225 . S
C223 O229 1.298 . S
C224 O213 1.226 . S
C224 O214 1.307 . S
C225 O217 1.303 . S
C225 O218 1.247 . S
C226 O215 1.253 . S
C226 O216 1.283 . S
C227 O219 1.304 . S
C227 O221 1.272 . S
C228 O220 1.311 . S
C228 O222 1.231 . S
O229 Zn211 1.953 . S
O229 C223 1.298 . S
O230 Zn231 1.953 . S
O230 C246 1.225 . S
Zn231 O230 1.953 . S
Zn231 O232 1.949 . S
Zn231 O238 1.919 . S
Zn231 O243 1.924 . S
O232 Zn231 1.949 . S
O232 Zn233 1.923 . S
O232 Zn234 1.950 . S
O232 Zn235 1.945 . S
Zn233 O232 1.923 . S
Zn233 O236 1.933 . S
Zn233 O239 1.941 . S
Zn233 O240 1.965 . S
Zn234 O232 1.950 . S
Zn234 O241 1.938 . S
Zn234 O242 1.906 . S
Zn234 O252 1.953 . S
Zn235 O232 1.945 . S
Zn235 O237 1.932 . S
Zn235 O244 1.977 . S
Zn235 O245 1.910 . S
O236 Zn233 1.933 . S
O236 C247 1.226 . S
O237 Zn235 1.932 . S
O237 C247 1.307 . S
O238 Zn231 1.919 . S
O238 C249 1.253 . S
O239 Zn233 1.941 . S
O239 C249 1.283 . S
O240 Zn233 1.965 . S
O240 C248 1.303 . S
O241 Zn234 1.938 . S
O241 C248 1.247 . S
O242 Zn234 1.906 . S
O242 C250 1.304 . S
O243 Zn231 1.924 . S
O243 C251 1.311 . S
O244 Zn235 1.977 . S
O244 C250 1.272 . S
O245 Zn235 1.910 . S
O245 C251 1.231 . S
C246 O230 1.225 . S
C246 O252 1.298 . S
C247 O236 1.226 . S
C247 O237 1.307 . S
C248 O240 1.303 . S
C248 O241 1.247 . S
C249 O238 1.253 . S
C249 O239 1.283 . S
C250 O242 1.304 . S
C250 O244 1.272 . S
C251 O243 1.311 . S
C251 O245 1.231 . S
O252 Zn234 1.953 . S
O252 C246 1.298 . S
O253 Zn254 1.953 . S
O253 C269 1.225 . S
Zn254 O253 1.953 . S
Zn254 O255 1.949 . S
Zn254 O261 1.919 . S
Zn254 O266 1.924 . S
O255 Zn254 1.949 . S
O255 Zn256 1.923 . S
O255 Zn257 1.950 . S
O255 Zn258 1.945 . S
Zn256 O255 1.923 . S
Zn256 O259 1.933 . S
Zn256 O262 1.941 . S
Zn256 O263 1.965 . S
Zn257 O255 1.950 . S
Zn257 O264 1.938 . S
Zn257 O265 1.906 . S
Zn257 O275 1.953 . S
Zn258 O255 1.945 . S
Zn258 O260 1.932 . S
Zn258 O267 1.977 . S
Zn258 O268 1.910 . S
O259 Zn256 1.933 . S
O259 C270 1.226 . S
O260 Zn258 1.932 . S
O260 C270 1.307 . S
O261 Zn254 1.919 . S
O261 C272 1.253 . S
O262 Zn256 1.941 . S
O262 C272 1.283 . S
O263 Zn256 1.965 . S
O263 C271 1.303 . S
O264 Zn257 1.938 . S
O264 C271 1.247 . S
O265 Zn257 1.906 . S
O265 C273 1.304 . S
O266 Zn254 1.924 . S
O266 C274 1.311 . S
O267 Zn258 1.977 . S
O267 C273 1.272 . S
O268 Zn258 1.910 . S
O268 C274 1.231 . S
C269 O253 1.225 . S
C269 O275 1.298 . S
C270 O259 1.226 . S
C270 O260 1.307 . S
C271 O263 1.303 . S
C271 O264 1.247 . S
C272 O261 1.253 . S
C272 O262 1.283 . S
C273 O265 1.304 . S
C273 O267 1.272 . S
C274 O266 1.311 . S
C274 O268 1.231 . S
O275 Zn257 1.953 . S
O275 C269 1.298 . S
O276 Zn277 1.953 . S
O276 C292 1.225 . S
Zn277 O276 1.953 . S
Zn277 O278 1.949 . S
Zn277 O284 1.919 . S
Zn277 O289 1.924 . S
O278 Zn277 1.949 . S
O278 Zn279 1.923 . S
O278 Zn280 1.950 . S
O278 Zn281 1.945 . S
Zn279 O278 1.923 . S
Zn279 O282 1.933 . S
Zn279 O285 1.941 . S
Zn279 O286 1.965 . S
Zn280 O278 1.950 . S
Zn280 O287 1.938 . S
Zn280 O288 1.906 . S
Zn280 O298 1.953 . S
Zn281 O278 1.945 . S
Zn281 O283 1.932 . S
Zn281 O290 1.977 . S
Zn281 O291 1.910 . S
O282 Zn279 1.933 . S
O282 C293 1.226 . S
O283 Zn281 1.932 . S
O283 C293 1.307 . S
O284 Zn277 1.919 . S
O284 C295 1.253 . S
O285 Zn279 1.941 . S
O285 C295 1.283 . S
O286 Zn279 1.965 . S
O286 C294 1.303 . S
O287 Zn280 1.938 . S
O287 C294 1.247 . S
O288 Zn280 1.906 . S
O288 C296 1.304 . S
O289 Zn277 1.924 . S
O289 C297 1.311 . S
O290 Zn281 1.977 . S
O290 C296 1.272 . S
O291 Zn281 1.910 . S
O291 C297 1.231 . S
C292 O276 1.225 . S
C292 O298 1.298 . S
C293 O282 1.226 . S
C293 O283 1.307 . S
C294 O286 1.303 . S
C294 O287 1.247 . S
C295 O284 1.253 . S
C295 O285 1.283 . S
C296 O288 1.304 . S
C296 O290 1.272 . S
C297 O289 1.311 . S
C297 O291 1.231 . S
O298 Zn280 1.953 . S
O298 C292 1.298 . S
O299 Zn300 1.953 . S
O299 C315 1.225 . S
Zn300 O299 1.953 . S
Zn300 O301 1.949 . S
Zn300 O307 1.919 . S
Zn300 O312 1.924 . S
O301 Zn300 1.949 . S
O301 Zn302 1.923 . S
O301 Zn303 1.950 . S
O301 Zn304 1.945 . S
Zn302 O301 1.923 . S
Zn302 O305 1.933 . S
Zn302 O308 1.941 . S
Zn302 O309 1.965 . S
Zn303 O301 1.950 . S
Zn303 O310 1.938 . S
Zn303 O311 1.906 . S
Zn303 O321 1.953 . S
Zn304 O301 1.945 . S
Zn304 O306 1.932 . S
Zn304 O313 1.977 . S
Zn304 O314 1.910 . S
O305 Zn302 1.933 . S
O305 C316 1.226 . S
O306 Zn304 1.932 . S
O306 C316 1.307 . S
O307 Zn300 1.919 . S
O307 C318 1.253 . S
O308 Zn302 1.941 . S
O308 C318 1.283 . S
O309 Zn302 1.965 . S
O309 C317 1.303 . S
O310 Zn303 1.938 . S
O310 C317 1.247 . S
O311 Zn303 1.906 . S
O311 C319 1.304 . S
O312 Zn300 1.924 . S
O312 C320 1.311 . S
O313 Zn304 1.977 . S
O313 C319 1.272 . S
O314 Zn304 1.910 . S
O314 C320 1.231 . S
C315 O299 1.225 . S
C315 O321 1.298 . S
C316 O305 1.226 . S
C316 O306 1.307 . S
C317 O309 1.303 . S
C317 O310 1.247 . S
C318 O307 1.253 . S
C318 O308 1.283 . S
C319 O311 1.304 . S
C319 O313 1.272 . S
C320 O312 1.311 . S
C320 O314 1.231 . S
O321 Zn303 1.953 . S
O321 C315 1.298 . S
O322 Zn323 1.953 . S
O322 C338 1.225 . S
Zn323 O322 1.953 . S
Zn323 O324 1.949 . S
Zn323 O330 1.919 . S
Zn323 O335 1.924 . S
O324 Zn323 1.949 . S
O324 Zn325 1.923 . S
O324 Zn326 1.950 . S
O324 Zn327 1.945 . S
Zn325 O324 1.923 . S
Zn325 O328 1.933 . S
Zn325 O331 1.941 . S
Zn325 O332 1.965 . S
Zn326 O324 1.950 . S
Zn326 O333 1.938 . S
Zn326 O334 1.906 . S
Zn326 O344 1.953 . S
Zn327 O324 1.945 . S
Zn327 O329 1.932 . S
Zn327 O336 1.977 . S
Zn327 O337 1.910 . S
O328 Zn325 1.933 . S
O328 C339 1.226 . S
O329 Zn327 1.932 . S
O329 C339 1.307 . S
O330 Zn323 1.919 . S
O330 C341 1.253 . S
O331 Zn325 1.941 . S
O331 C341 1.283 . S
O332 Zn325 1.965 . S
O332 C340 1.303 . S
O333 Zn326 1.938 . S
O333 C340 1.247 . S
O334 Zn326 1.906 . S
O334 C342 1.304 . S
O335 Zn323 1.924 . S
O335 C343 1.311 . S
O336 Zn327 1.977 . S
O336 C342 1.272 . S
O337 Zn327 1.910 . S
O337 C343 1.231 . S
C338 O322 1.225 . S
C338 O344 1.298 . S
C339 O328 1.226 . S
C339 O329 1.307 . S
C340 O332 1.303 . S
C340 O333 1.247 . S
C341 O330 1.253 . S
C341 O331 1.283 . S
C342 O334 1.304 . S
C342 O336 1.272 . S
C343 O335 1.311 . S
C343 O337 1.231 . S
O344 Zn326 1.953 . S
O344 C338 1.298 . S
O345 Zn346 1.953 . S
O345 C361 1.225 . S
Zn346 O345 1.953 . S
Zn346 O347 1.949 . S
Zn346 O353 1.919 . S
Zn346 O358 1.924 . S
O347 Zn346 1.949 . S
O347 Zn348 1.923 . S
O347 Zn349 1.950 . S
O347 Zn350 1.945 . S
Zn348 O347 1.923 . S
Zn348 O351 1.933 . S
Zn348 O354 1.941 . S
Zn348 O355 1.965 . S
Zn349 O347 1.950 . S
Zn349 O356 1.938 . S
Zn349 O357 1.906 . S
Zn349 O367 1.953 . S
Zn350 O347 1.945 . S
Zn350 O352 1.932 . S
Zn350 O359 1.977 . S
Zn350 O360 1.910 . S
O351 Zn348 1.933 . S
O351 C362 1.226 . S
O352 Zn350 1.932 . S
O352 C362 1.307 . S
O353 Zn346 1.919 . S
O353 C364 1.253 . S
O354 Zn348 1.941 . S
O354 C364 1.283 . S
O355 Zn348 1.965 . S
O355 C363 1.303 . S
O356 Zn349 1.938 . S
O356 C363 1.247 . S
O357 Zn349 1.906 . S
O357 C365 1.304 . S
O358 Zn346 1.924 . S
O358 C366 1.311 . S
O359 Zn350 1.977 . S
O359 C365 1.272 . S
O360 Zn350 1.910 . S
O360 C366 1.231 . S
C361 O345 1.225 . S
C361 O367 1.298 . S
C362 O351 1.226 . S
C362 O352 1.307 . S
C363 O355 1.303 . S
C363 O356 1.247 . S
C364 O353 1.253 . S
C364 O354 1.283 . S
C365 O357 1.304 . S
C365 O359 1.272 . S
C366 O358 1.311 . S
C366 O360 1.231 . S
O367 Zn349 1.953 . S
O367 C361 1.298 . S
O368 Zn369 1.953 . S
O368 C384 1.225 . S
Zn369 O368 1.953 . S
Zn369 O370 1.949 . S
Zn369 O376 1.919 . S
Zn369 O381 1.924 . S
O370 Zn369 1.949 . S
O370 Zn371 1.923 . S
O370 Zn372 1.950 . S
O370 Zn373 1.945 . S
Zn371 O370 1.923 . S
Zn371 O374 1.933 . S
Zn371 O377 1.941 . S
Zn371 O378 1.965 . S
Zn372 O370 1.950 . S
Zn372 O379 1.938 . S
Zn372 O380 1.906 . S
Zn372 O390 1.953 . S
Zn373 O370 1.945 . S
Zn373 O375 1.932 . S
Zn373 O382 1.977 . S
Zn373 O383 1.910 . S
O374 Zn371 1.933 . S
O374 C385 1.226 . S
O375 Zn373 1.932 . S
O375 C385 1.307 . S
O376 Zn369 1.919 . S
O376 C387 1.253 . S
O377 Zn371 1.941 . S
O377 C387 1.283 . S
O378 Zn371 1.965 . S
O378 C386 1.303 . S
O379 Zn372 1.938 . S
O379 C386 1.247 . S
O380 Zn372 1.906 . S
O380 C388 1.304 . S
O381 Zn369 1.924 . S
O381 C389 1.311 . S
O382 Zn373 1.977 . S
O382 C388 1.272 . S
O383 Zn373 1.910 . S
O383 C389 1.231 . S
C384 O368 1.225 . S
C384 O390 1.298 . S
C385 O374 1.226 . S
C385 O375 1.307 . S
C386 O378 1.303 . S
C386 O379 1.247 . S
C387 O376 1.253 . S
C387 O377 1.283 . S
C388 O380 1.304 . S
C388 O382 1.272 . S
C389 O381 1.311 . S
C389 O383 1.231 . S
O390 Zn372 1.953 . S
O390 C384 1.298 . S
O391 Zn392 1.953 . S
O391 C407 1.225 . S
Zn392 O391 1.953 . S
Zn392 O393 1.949 . S
Zn392 O399 1.919 . S
Zn392 O404 1.924 . S
O393 Zn392 1.949 . S
O393 Zn394 1.923 . S
O393 Zn395 1.950 . S
O393 Zn396 1.945 . S
Zn394 O393 1.923 . S
Zn394 O397 1.933 . S
Zn394 O400 1.941 . S
Zn394 O401 1.965 . S
Zn395 O393 1.950 . S
Zn395 O402 1.938 . S
Zn395 O403 1.906 . S
Zn395 O413 1.953 . S
Zn396 O393 1.945 . S
Zn396 O398 1.932 . S
Zn396 O405 1.977 . S
Zn396 O406 1.910 . S
O397 Zn394 1.933 . S
O397 C408 1.226 . S
O398 Zn396 1.932 . S
O398 C408 1.307 . S
O399 Zn392 1.919 . S
O399 C410 1.253 . S
O400 Zn394 1.941 . S
O400 C410 1.283 . S
O401 Zn394 1.965 . S
O401 C409 1.303 . S
O402 Zn395 1.938 . S
O402 C409 1.247 . S
O403 Zn395 1.906 . S
O403 C411 1.304 . S
O404 Zn392 1.924 . S
O404 C412 1.311 . S
O405 Zn396 1.977 . S
O405 C411 1.272 . S
O406 Zn396 1.910 . S
O406 C412 1.231 . S
C407 O391 1.225 . S
C407 O413 1.298 . S
C408 O397 1.226 . S
C408 O398 1.307 . S
C409 O401 1.303 . S
C409 O402 1.247 . S
C410 O399 1.253 . S
C410 O400 1.283 . S
C411 O403 1.304 . S
C411 O405 1.272 . S
C412 O404 1.311 . S
C412 O406 1.231 . S
O413 Zn395 1.953 . S
O413 C407 1.298 . S
O414 Zn415 1.953 . S
O414 C430 1.225 . S
Zn415 O414 1.953 . S
Zn415 O416 1.949 . S
Zn415 O422 1.919 . S
Zn415 O427 1.924 . S
O416 Zn415 1.949 . S
O416 Zn417 1.923 . S
O416 Zn418 1.950 . S
O416 Zn419 1.945 . S
Zn417 O416 1.923 . S
Zn417 O420 1.933 . S
Zn417 O423 1.941 . S
Zn417 O424 1.965 . S
Zn418 O416 1.950 . S
Zn418 O425 1.938 . S
Zn418 O426 1.906 . S
Zn418 O436 1.953 . S
Zn419 O416 1.945 . S
Zn419 O421 1.932 . S
Zn419 O428 1.977 . S
Zn419 O429 1.910 . S
O420 Zn417 1.933 . S
O420 C431 1.226 . S
O421 Zn419 1.932 . S
O421 C431 1.307 . S
O422 Zn415 1.919 . S
O422 C433 1.253 . S
O423 Zn417 1.941 . S
O423 C433 1.283 . S
O424 Zn417 1.965 . S
O424 C432 1.303 . S
O425 Zn418 1.938 . S
O425 C432 1.247 . S
O426 Zn418 1.906 . S
O426 C434 1.304 . S
O427 Zn415 1.924 . S
O427 C435 1.311 . S
O428 Zn419 1.977 . S
O428 C434 1.272 . S
O429 Zn419 1.910 . S
O429 C435 1.231 . S
C430 O414 1.225 . S
C430 O436 1.298 . S
C431 O420 1.226 . S
C431 O421 1.307 . S
C432 O424 1.303 . S
C432 O425 1.247 . S
C433 O422 1.253 . S
C433 O423 1.283 . S
C434 O426 1.304 . S
C434 O428 1.272 . S
C435 O427 1.311 . S
C435 O429 1.231 . S
O436 Zn418 1.953 . S
O436 C430 1.298 . S
O437 Zn438 1.953 . S
O437 C453 1.225 . S
Zn438 O437 1.953 . S
Zn438 O439 1.949 . S
Zn438 O445 1.919 . S
Zn438 O450 1.924 . S
O439 Zn438 1.949 . S
O439 Zn440 1.923 . S
O439 Zn441 1.950 . S
O439 Zn442 1.945 . S
Zn440 O439 1.923 . S
Zn440 O443 1.933 . S
Zn440 O446 1.941 . S
Zn440 O447 1.965 . S
Zn441 O439 1.950 . S
Zn441 O448 1.938 . S
Zn441 O449 1.906 . S
Zn441 O459 1.953 . S
Zn442 O439 1.945 . S
Zn442 O444 1.932 . S
Zn442 O451 1.977 . S
Zn442 O452 1.910 . S
O443 Zn440 1.933 . S
O443 C454 1.226 . S
O444 Zn442 1.932 . S
O444 C454 1.307 . S
O445 Zn438 1.919 . S
O445 C456 1.253 . S
O446 Zn440 1.941 . S
O446 C456 1.283 . S
O447 Zn440 1.965 . S
O447 C455 1.303 . S
O448 Zn441 1.938 . S
O448 C455 1.247 . S
O449 Zn441 1.906 . S
O449 C457 1.304 . S
O450 Zn438 1.924 . S
O450 C458 1.311 . S
O451 Zn442 1.977 . S
O451 C457 1.272 . S
O452 Zn442 1.910 . S
O452 C458 1.231 . S
C453 O437 1.225 . S
C453 O459 1.298 . S
C454 O443 1.226 . S
C454 O444 1.307 . S
C455 O447 1.303 . S
C455 O448 1.247 . S
C456 O445 1.253 . S
C456 O446 1.283 . S
C457 O449 1.304 . S
C457 O451 1.272 . S
C458 O450 1.311 . S
C458 O452 1.231 . S
O459 Zn441 1.953 . S
O459 C453 1.298 . S
O460 Zn461 1.953 . S
O460 C476 1.225 . S
Zn461 O460 1.953 . S
Zn461 O462 1.949 . S
Zn461 O468 1.919 . S
Zn461 O473 1.924 . S
O462 Zn461 1.949 . S
O462 Zn463 1.923 . S
O462 Zn464 1.950 . S
O462 Zn465 1.945 . S
Zn463 O462 1.923 . S
Zn463 O466 1.933 . S
Zn463 O469 1.941 . S
Zn463 O470 1.965 . S
Zn464 O462 1.950 . S
Zn464 O471 1.938 . S
Zn464 O472 1.906 . S
Zn464 O482 1.953 . S
Zn465 O462 1.945 . S
Zn465 O467 1.932 . S
Zn465 O474 1.977 . S
Zn465 O475 1.910 . S
O466 Zn463 1.933 . S
O466 C477 1.226 . S
O467 Zn465 1.932 . S
O467 C477 1.307 . S
O468 Zn461 1.919 . S
O468 C479 1.253 . S
O469 Zn463 1.941 . S
O469 C479 1.283 . S
O470 Zn463 1.965 . S
O470 C478 1.303 . S
O471 Zn464 1.938 . S
O471 C478 1.247 . S
O472 Zn464 1.906 . S
O472 C480 1.304 . S
O473 Zn461 1.924 . S
O473 C481 1.311 . S
O474 Zn465 1.977 . S
O474 C480 1.272 . S
O475 Zn465 1.910 . S
O475 C481 1.231 . S
C476 O460 1.225 . S
C476 O482 1.298 . S
C477 O466 1.226 . S
C477 O467 1.307 . S
C478 O470 1.303 . S
C478 O471 1.247 . S
C479 O468 1.253 . S
C479 O469 1.283 . S
C480 O472 1.304 . S
C480 O474 1.272 . S
C481 O473 1.311 . S
C481 O475 1.231 . S
O482 Zn464 1.953 . S
O482 C476 1.298 . S
O483 Zn484 1.953 . S
O483 C499 1.225 . S
Zn484 O483 1.953 . S
Zn484 O485 1.949 . S
Zn484 O491 1.919 . S
Zn484 O496 1.924 . S
O485 Zn484 1.949 . S
O485 Zn486 1.923 . S
O485 Zn487 1.950 . S
O485 Zn488 1.945 . S
Zn486 O485 1.923 . S
Zn486 O489 1.933 . S
Zn486 O492 1.941 . S
Zn486 O493 1.965 . S
Zn487 O485 1.950 . S
Zn487 O494 1.938 . S
Zn487 O495 1.906 . S
Zn487 O505 1.953 . S
Zn488 O485 1.945 . S
Zn488 O490 1.932 . S
Zn488 O497 1.977 . S
Zn488 O498 1.910 . S
O489 Zn486 1.933 . S
O489 C500 1.226 . S
O490 Zn488 1.932 . S
O490 C500 1.307 . S
O491 Zn484 1.919 . S
O491 C502 1.253 . S
O492 Zn486 1.941 . S
O492 C502 1.283 . S
O493 Zn486 1.965 . S
O493 C501 1.303 . S
O494 Zn487 1.938 . S
O494 C501 1.247 . S
O495 Zn487 1.906 . S
O495 C503 1.304 . S
O496 Zn484 1.924 . S
O496 C504 1.311 . S
O497 Zn488 1.977 . S
O497 C503 1.272 . S
O498 Zn488 1.910 . S
O498 C504 1.231 . S
C499 O483 1.225 . S
C499 O505 1.298 . S
C500 O489 1.226 . S
C500 O490 1.307 . S
C501 O493 1.303 . S
C501 O494 1.247 . S
C502 O491 1.253 . S
C502 O492 1.283 . S
C503 O495 1.304 . S
C503 O497 1.272 . S
C504 O496 1.311 . S
C504 O498 1.231 . S
O505 Zn487 1.953 . S
O505 C499 1.298 . S
O506 Zn507 1.953 . S
O506 C522 1.225 . S
Zn507 O506 1.953 . S
Zn507 O508 1.949 . S
Zn507 O514 1.919 . S
Zn507 O519 1.924 . S
O508 Zn507 1.949 . S
O508 Zn509 1.923 . S
O508 Zn510 1.950 . S
O508 Zn511 1.945 . S
Zn509 O508 1.923 . S
Zn509 O512 1.933 . S
Zn509 O515 1.941 . S
Zn509 O516 1.965 . S
Zn510 O508 1.950 . S
Zn510 O517 1.938 . S
Zn510 O518 1.906 . S
Zn510 O528 1.953 . S
Zn511 O508 1.945 . S
Zn511 O513 1.932 . S
Zn511 O520 1.977 . S
Zn511 O521 1.910 . S
O512 Zn509 1.933 . S
O512 C523 1.226 . S
O513 Zn511 1.932 . S
O513 C523 1.307 . S
O514 Zn507 1.919 . S
O514 C525 1.253 . S
O515 Zn509 1.941 . S
O515 C525 1.283 . S
O516 Zn509 1.965 . S
O516 C524 1.303 . S
O517 Zn510 1.938 . S
O517 C524 1.247 . S
O518 Zn510 1.906 . S
O518 C526 1.304 . S
O519 Zn507 1.924 . S
O519 C527 1.311 . S
O520 Zn511 1.977 . S
O520 C526 1.272 . S
O521 Zn511 1.910 . S
O521 C527 1.231 . S
C522 O506 1.225 . S
C522 O528 1.298 . S
C523 O512 1.226 . S
C523 O513 1.307 . S
C524 O516 1.303 . S
C524 O517 1.247 . S
C525 O514 1.253 . S
C525 O515 1.283 . S
C526 O518 1.304 . S
C526 O520 1.272 . S
C527 O519 1.311 . S
C527 O521 1.231 . S
O528 Zn510 1.953 . S
O528 C522 1.298 . S
O529 Zn530 1.953 . S
O529 C545 1.225 . S
Zn530 O529 1.953 . S
Zn530 O531 1.949 . S
Zn530 O537 1.919 . S
Zn530 O542 1.924 . S
O531 Zn530 1.949 . S
O531 Zn532 1.923 . S
O531 Zn533 1.950 . S
O531 Zn534 1.945 . S
Zn532 O531 1.923 . S
Zn532 O535 1.933 . S
Zn532 O538 1.941 . S
Zn532 O539 1.965 . S
Zn533 O531 1.950 . S
Zn533 O540 1.938 . S
Zn533 O541 1.906 . S
Zn533 O551 1.953 . S
Zn534 O531 1.945 . S
Zn534 O536 1.932 . S
Zn534 O543 1.977 . S
Zn534 O544 1.910 . S
O535 Zn532 1.933 . S
O535 C546 1.226 . S
O536 Zn534 1.932 . S
O536 C546 1.307 . S
O537 Zn530 1.919 . S
O537 C548 1.253 . S
O538 Zn532 1.941 . S
O538 C548 1.283 . S
O539 Zn532 1.965 . S
O539 C547 1.303 . S
O540 Zn533 1.938 . S
O540 C547 1.247 . S
O541 Zn533 1.906 . S
O541 C549 1.304 . S
O542 Zn530 1.924 . S
O542 C550 1.311 . S
O543 Zn534 1.977 . S
O543 C549 1.272 . S
O544 Zn534 1.910 . S
O544 C550 1.231 . S
C545 O529 1.225 . S
C545 O551 1.298 . S
C546 O535 1.226 . S
C546 O536 1.307 . S
C547 O539 1.303 . S
C547 O540 1.247 . S
C548 O537 1.253 . S
C548 O538 1.283 . S
C549 O541 1.304 . S
C549 O543 1.272 . S
C550 O542 1.311 . S
C550 O544 1.231 . S
O551 Zn533 1.953 . S
O551 C545 1.298 . S
C552 C553 1.387 . S
C552 H556 0.950 . S
C552 C561 1.390 . S
C553 C552 1.387 . S
C553 C555 1.387 . S
H554 C561 0.950 . S
C555 C553 1.387 . S
C555 C557 1.390 . S
C555 H559 0.950 . S
H556 C552 0.950 . S
C557 C555 1.390 . S
C557 C558 1.387 . S
C557 H560 0.950 . S
C558 C557 1.387 . S
C558 C561 1.387 . S
H559 C555 0.950 . S
H560 C557 0.950 . S
C561 C552 1.390 . S
C561 H554 0.950 . S
C561 C558 1.387 . S
C562 C563 1.387 . S
C562 H566 0.950 . S
C562 C571 1.390 . S
C563 C562 1.387 . S
C563 C565 1.387 . S
H564 C571 0.950 . S
C565 C563 1.387 . S
C565 C567 1.390 . S
C565 H569 0.950 . S
H566 C562 0.950 . S
C567 C565 1.390 . S
C567 C568 1.387 . S
C567 H570 0.950 . S
C568 C567 1.387 . S
C568 C571 1.387 . S
H569 C565 0.950 . S
H570 C567 0.950 . S
C571 C562 1.390 . S
C571 H564 0.950 . S
C571 C568 1.387 . S
C572 C573 1.387 . S
C572 H576 0.950 . S
C572 C581 1.390 . S
C573 C572 1.387 . S
C573 C575 1.387 . S
H574 C581 0.950 . S
C575 C573 1.387 . S
C575 C577 1.390 . S
C575 H579 0.950 . S
H576 C572 0.950 . S
C577 C575 1.390 . S
C577 C578 1.387 . S
C577 H580 0.950 . S
C578 C577 1.387 . S
C578 C581 1.387 . S
H579 C575 0.950 . S
H580 C577 0.950 . S
C581 C572 1.390 . S
C581 H574 0.950 . S
C581 C578 1.387 . S
C582 C583 1.387 . S
C582 H586 0.950 . S
C582 C591 1.390 . S
C583 C582 1.387 . S
C583 C585 1.387 . S
H584 C591 0.950 . S
C585 C583 1.387 . S
C585 C587 1.390 . S
C585 H589 0.950 . S
H586 C582 0.950 . S
C587 C585 1.390 . S
C587 C588 1.387 . S
C587 H590 0.950 . S
C588 C587 1.387 . S
C588 C591 1.387 . S
H589 C585 0.950 . S
H590 C587 0.950 . S
C591 C582 1.390 . S
C591 H584 0.950 . S
C591 C588 1.387 . S
C592 C593 1.387 . S
C592 H596 0.950 . S
C592 C601 1.390 . S
C593 C592 1.387 . S
C593 C595 1.387 . S
H594 C601 0.950 . S
C595 C593 1.387 . S
C595 C597 1.390 . S
C595 H599 0.950 . S
H596 C592 0.950 . S
C597 C595 1.390 . S
C597 C598 1.387 . S
C597 H600 0.950 . S
C598 C597 1.387 . S
C598 C601 1.387 . S
H599 C595 0.950 . S
H600 C597 0.950 . S
C601 C592 1.390 . S
C601 H594 0.950 . S
C601 C598 1.387 . S
C602 C603 1.387 . S
C602 H606 0.950 . S
C602 C611 1.390 . S
C603 C602 1.387 . S
C603 C605 1.387 . S
H604 C611 0.950 . S
C605 C603 1.387 . S
C605 C607 1.390 . S
C605 H609 0.950 . S
H606 C602 0.950 . S
C607 C605 1.390 . S
C607 C608 1.387 . S
C607 H610 0.950 . S
C608 C607 1.387 . S
C608 C611 1.387 . S
H609 C605 0.950 . S
H610 C607 0.950 . S
C611 C602 1.390 . S
C611 H604 0.950 . S
C611 C608 1.387 . S
C612 C613 1.387 . S
C612 H616 0.950 . S
C612 C621 1.390 . S
C613 C612 1.387 . S
C613 C615 1.387 . S
H614 C621 0.950 . S
C615 C613 1.387 . S
C615 C617 1.390 . S
C615 H619 0.950 . S
H616 C612 0.950 . S
C617 C615 1.390 . S
C617 C618 1.387 . S
C617 H620 0.950 . S
C618 C617 1.387 . S
C618 C621 1.387 . S
H619 C615 0.950 . S
H620 C617 0.950 . S
C621 C612 1.390 . S
C621 H614 0.950 . S
C621 C618 1.387 . S
C622 C623 1.387 . S
C622 H626 0.950 . S
C622 C631 1.390 . S
C623 C622 1.387 . S
C623 C625 1.387 . S
H624 C631 0.950 . S
C625 C623 1.387 . S
C625 C627 1.390 . S
C625 H629 0.950 . S
H626 C622 0.950 . S
C627 C625 1.390 . S
C627 C628 1.387 . S
C627 H630 0.950 . S
C628 C627 1.387 . S
C628 C631 1.387 . S
H629 C625 0.950 . S
H630 C627 0.950 . S
C631 C622 1.390 . S
C631 H624 0.950 . S
C631 C628 1.387 . S
C632 C633 1.387 . S
C632 H636 0.950 . S
C632 C641 1.390 . S
C633 C632 1.387 . S
C633 C635 1.387 . S
H634 C641 0.950 . S
C635 C633 1.387 . S
C635 C637 1.390 . S
C635 H639 0.950 . S
H636 C632 0.950 . S
C637 C635 1.390 . S
C637 C638 1.387 . S
C637 H640 0.950 . S
C638 C637 1.387 . S
C638 C641 1.387 . S
H639 C635 0.950 . S
H640 C637 0.950 . S
C641 C632 1.390 . S
C641 H634 0.950 . S
C641 C638 1.387 . S
C642 C643 1.387 . S
C642 H646 0.950 . S
C642 C651 1.390 . S
C643 C642 1.387 . S
C643 C645 1.387 . S
H644 C651 0.950 . S
C645 C643 1.387 . S
C645 C647 1.390 . S
C645 H649 0.950 . S
H646 C642 0.950 . S
C647 C645 1.390 . S
C647 C648 1.387 . S
C647 H650 0.950 . S
C648 C647 1.387 . S
C648 C651 1.387 . S
H649 C645 0.950 . S
H650 C647 0.950 . S
C651 C642 1.390 . S
C651 H644 0.950 . S
C651 C648 1.387 . S
C652 C653 1.387 . S
C652 H656 0.950 . S
C652 C661 1.390 . S
C653 C652 1.387 . S
C653 C655 1.387 . S
H654 C661 0.950 . S
C655 C653 1.387 . S
C655 C657 1.390 . S
C655 H659 0.950 . S
H656 C652 0.950 . S
C657 C655 1.390 . S
C657 C658 1.387 . S
C657 H660 0.950 . S
C658 C657 1.387 . S
C658 C661 1.387 . S
H659 C655 0.950 . S
H660 C657 0.950 . S
C661 C652 1.390 . S
C661 H654 0.950 . S
C661 C658 1.387 . S
C662 C663 1.387 . S
C662 H666 0.950 . S
C662 C671 1.390 . S
C663 C662 1.387 . S
C663 C665 1.387 . S
H664 C671 0.950 . S
C665 C663 1.387 . S
C665 C667 1.390 . S
C665 H669 0.950 . S
H666 C662 0.950 . S
C667 C665 1.390 . S
C667 C668 1.387 . S
C667 H670 0.950 . S
C668 C667 1.387 . S
C668 C671 1.387 . S
H669 C665 0.950 . S
H670 C667 0.950 . S
C671 C662 1.390 . S
C671 H664 0.950 . S
C671 C668 1.387 . S
C672 C673 1.387 . S
C672 H676 0.950 . S
C672 C681 1.390 1_545 S
C673 C672 1.387 . S
C673 C675 1.387 . S
H674 C681 0.950 . S
C675 C673 1.387 . S
C675 C677 1.390 1_545 S
C675 H679 0.950 . S
H676 C672 0.950 . S
C677 C675 1.390 1_565 S
C677 C678 1.387 . S
C677 H680 0.950 . S
C678 C677 1.387 . S
C678 C681 1.387 . S
H679 C675 0.950 . S
H680 C677 0.950 . S
C681 C672 1.390 1_565 S
C681 H674 0.950 . S
C681 C678 1.387 . S
C682 C683 1.387 . S
C682 H686 0.950 . S
C682 C691 1.390 . S
C683 C682 1.387 . S
C683 C685 1.387 . S
H684 C691 0.950 . S
C685 C683 1.387 . S
C685 C687 1.390 . S
C685 H689 0.950 . S
H686 C682 0.950 . S
C687 C685 1.390 . S
C687 C688 1.387 . S
C687 H690 0.950 . S
C688 C687 1.387 . S
C688 C691 1.387 . S
H689 C685 0.950 . S
H690 C687 0.950 . S
C691 C682 1.390 . S
C691 H684 0.950 . S
C691 C688 1.387 . S
C692 C693 1.387 . S
C692 H696 0.950 . S
C692 C701 1.390 1_655 S
C693 C692 1.387 . S
C693 C695 1.387 . S
H694 C701 0.950 . S
C695 C693 1.387 . S
C695 C697 1.390 1_655 S
C695 H699 0.950 . S
H696 C692 0.950 . S
C697 C695 1.390 1_455 S
C697 C698 1.387 . S
C697 H700 0.950 . S
C698 C697 1.387 . S
C698 C701 1.387 . S
H699 C695 0.950 . S
H700 C697 0.950 . S
C701 C692 1.390 1_455 S
C701 H694 0.950 . S
C701 C698 1.387 . S
C702 C703 1.387 . S
C702 H706 0.950 . S
C702 C711 1.390 1_655 S
C703 C702 1.387 . S
C703 C705 1.387 . S
H704 C711 0.950 . S
C705 C703 1.387 . S
C705 C707 1.390 1_655 S
C705 H709 0.950 . S
H706 C702 0.950 . S
C707 C705 1.390 1_455 S
C707 C708 1.387 . S
C707 H710 0.950 . S
C708 C707 1.387 . S
C708 C711 1.387 . S
H709 C705 0.950 . S
H710 C707 0.950 . S
C711 C702 1.390 1_455 S
C711 H704 0.950 . S
C711 C708 1.387 . S
C712 C713 1.387 . S
C712 H716 0.950 . S
C712 C721 1.390 1_565 S
C713 C712 1.387 . S
C713 C715 1.387 . S
H714 C721 0.950 . S
C715 C713 1.387 . S
C715 C717 1.390 1_565 S
C715 H719 0.950 . S
H716 C712 0.950 . S
C717 C715 1.390 1_545 S
C717 C718 1.387 . S
C717 H720 0.950 . S
C718 C717 1.387 . S
C718 C721 1.387 . S
H719 C715 0.950 . S
H720 C717 0.950 . S
C721 C712 1.390 1_545 S
C721 H714 0.950 . S
C721 C718 1.387 . S
C722 C723 1.387 . S
C722 H726 0.950 . S
C722 C731 1.390 . S
C723 C722 1.387 . S
C723 C725 1.387 . S
H724 C731 0.950 . S
C725 C723 1.387 . S
C725 C727 1.390 . S
C725 H729 0.950 . S
H726 C722 0.950 . S
C727 C725 1.390 . S
C727 C728 1.387 . S
C727 H730 0.950 . S
C728 C727 1.387 . S
C728 C731 1.387 . S
H729 C725 0.950 . S
H730 C727 0.950 . S
C731 C722 1.390 . S
C731 H724 0.950 . S
C731 C728 1.387 . S
C732 C733 1.387 . S
C732 H736 0.950 . S
C732 C741 1.390 1_545 S
C733 C732 1.387 . S
C733 C735 1.387 . S
H734 C741 0.950 . S
C735 C733 1.387 . S
C735 C737 1.390 1_545 S
C735 H739 0.950 . S
H736 C732 0.950 . S
C737 C735 1.390 1_565 S
C737 C738 1.387 . S
C737 H740 0.950 . S
C738 C737 1.387 . S
C738 C741 1.387 . S
H739 C735 0.950 . S
H740 C737 0.950 . S
C741 C732 1.390 1_565 S
C741 H734 0.950 . S
C741 C738 1.387 . S
C742 C743 1.387 . S
C742 H746 0.950 . S
C742 C751 1.390 . S
C743 C742 1.387 . S
C743 C745 1.387 . S
H744 C751 0.950 . S
C745 C743 1.387 . S
C745 C747 1.390 . S
C745 H749 0.950 . S
H746 C742 0.950 . S
C747 C745 1.390 . S
C747 C748 1.387 . S
C747 H750 0.950 . S
C748 C747 1.387 . S
C748 C751 1.387 . S
H749 C745 0.950 . S
H750 C747 0.950 . S
C751 C742 1.390 . S
C751 H744 0.950 . S
C751 C748 1.387 . S
C752 C753 1.387 . S
C752 H756 0.950 . S
C752 C761 1.390 1_655 S
C753 C752 1.387 . S
C753 C755 1.387 . S
H754 C761 0.950 . S
C755 C753 1.387 . S
C755 C757 1.390 1_655 S
C755 H759 0.950 . S
H756 C752 0.950 . S
C757 C755 1.390 1_455 S
C757 C758 1.387 . S
C757 H760 0.950 . S
C758 C757 1.387 . S
C758 C761 1.387 . S
H759 C755 0.950 . S
H760 C757 0.950 . S
C761 C752 1.390 1_455 S
C761 H754 0.950 . S
C761 C758 1.387 . S
C762 C763 1.387 . S
C762 H766 0.950 . S
C762 C771 1.390 1_455 S
C763 C762 1.387 . S
C763 C765 1.387 . S
H764 C771 0.950 . S
C765 C763 1.387 . S
C765 C767 1.390 1_455 S
C765 H769 0.950 . S
H766 C762 0.950 . S
C767 C765 1.390 1_655 S
C767 C768 1.387 . S
C767 H770 0.950 . S
C768 C767 1.387 . S
C768 C771 1.387 . S
H769 C765 0.950 . S
H770 C767 0.950 . S
C771 C762 1.390 1_655 S
C771 H764 0.950 . S
C771 C768 1.387 . S
C772 C773 1.387 . S
C772 H776 0.950 . S
C772 C781 1.390 1_545 S
C773 C772 1.387 . S
C773 C775 1.387 . S
H774 C781 0.950 . S
C775 C773 1.387 . S
C775 C777 1.390 1_545 S
C775 H779 0.950 . S
H776 C772 0.950 . S
C777 C775 1.390 1_565 S
C777 C778 1.387 . S
C777 H780 0.950 . S
C778 C777 1.387 . S
C778 C781 1.387 . S
H779 C775 0.950 . S
H780 C777 0.950 . S
C781 C772 1.390 1_565 S
C781 H774 0.950 . S
C781 C778 1.387 . S
C782 C783 1.387 . S
C782 H786 0.950 . S
C782 C791 1.390 . S
C783 C782 1.387 . S
C783 C785 1.387 . S
H784 C791 0.950 . S
C785 C783 1.387 . S
C785 C787 1.390 . S
C785 H789 0.950 . S
H786 C782 0.950 . S
C787 C785 1.390 . S
C787 C788 1.387 . S
C787 H790 0.950 . S
C788 C787 1.387 . S
C788 C791 1.387 . S
H789 C785 0.950 . S
H790 C787 0.950 . S
C791 C782 1.390 . S
C791 H784 0.950 . S
C791 C788 1.387 . S
C792 C793 1.387 . S
C792 H796 0.950 . S
C792 C801 1.390 . S
C793 C792 1.387 . S
C793 C795 1.387 . S
H794 C801 0.950 . S
C795 C793 1.387 . S
C795 C797 1.390 . S
C795 H799 0.950 . S
H796 C792 0.950 . S
C797 C795 1.390 . S
C797 C798 1.387 . S
C797 H800 0.950 . S
C798 C797 1.387 . S
C798 C801 1.387 . S
H799 C795 0.950 . S
H800 C797 0.950 . S
C801 C792 1.390 . S
C801 H794 0.950 . S
C801 C798 1.387 . S
C802 C803 1.387 . S
C802 H806 0.950 . S
C802 C811 1.390 . S
C803 C802 1.387 . S
C803 C805 1.387 . S
H804 C811 0.950 . S
C805 C803 1.387 . S
C805 C807 1.390 . S
C805 H809 0.950 . S
H806 C802 0.950 . S
C807 C805 1.390 . S
C807 C808 1.387 . S
C807 H810 0.950 . S
C808 C807 1.387 . S
C808 C811 1.387 . S
H809 C805 0.950 . S
H810 C807 0.950 . S
C811 C802 1.390 . S
C811 H804 0.950 . S
C811 C808 1.387 . S
C812 C813 1.387 . S
C812 H816 0.950 . S
C812 C821 1.390 . S
C813 C812 1.387 . S
C813 C815 1.387 . S
H814 C821 0.950 . S
C815 C813 1.387 . S
C815 C817 1.390 . S
C815 H819 0.950 . S
H816 C812 0.950 . S
C817 C815 1.390 . S
C817 C818 1.387 . S
C817 H820 0.950 . S
C818 C817 1.387 . S
C818 C821 1.387 . S
H819 C815 0.950 . S
H820 C817 0.950 . S
C821 C812 1.390 . S
C821 H814 0.950 . S
C821 C818 1.387 . S
C822 C823 1.387 . S
C822 H826 0.950 . S
C822 C831 1.390 . S
C823 C822 1.387 . S
C823 C825 1.387 . S
H824 C831 0.950 . S
C825 C823 1.387 . S
C825 C827 1.390 . S
C825 H829 0.950 . S
H826 C822 0.950 . S
C827 C825 1.390 . S
C827 C828 1.387 . S
C827 H830 0.950 . S
C828 C827 1.387 . S
C828 C831 1.387 . S
H829 C825 0.950 . S
H830 C827 0.950 . S
C831 C822 1.390 . S
C831 H824 0.950 . S
C831 C828 1.387 . S
C832 C833 1.387 . S
C832 H836 0.950 . S
C832 C841 1.390 . S
C833 C832 1.387 . S
C833 C835 1.387 . S
H834 C841 0.950 . S
C835 C833 1.387 . S
C835 C837 1.390 . S
C835 H839 0.950 . S
H836 C832 0.950 . S
C837 C835 1.390 . S
C837 C838 1.387 . S
C837 H840 0.950 . S
C838 C837 1.387 . S
C838 C841 1.387 . S
H839 C835 0.950 . S
H840 C837 0.950 . S
C841 C832 1.390 . S
C841 H834 0.950 . S
C841 C838 1.387 . S
C842 C843 1.387 . S
C842 H846 0.950 . S
C842 C851 1.390 . S
C843 C842 1.387 . S
C843 C845 1.387 . S
H844 C851 0.950 . S
C845 C843 1.387 . S
C845 C847 1.390 . S
C845 H849 0.950 . S
H846 C842 0.950 . S
C847 C845 1.390 . S
C847 C848 1.387 . S
C847 H850 0.950 . S
C848 C847 1.387 . S
C848 C851 1.387 . S
H849 C845 0.950 . S
H850 C847 0.950 . S
C851 C842 1.390 . S
C851 H844 0.950 . S
C851 C848 1.387 . S
C852 C853 1.387 . S
C852 H856 0.950 . S
C852 C861 1.390 . S
C853 C852 1.387 . S
C853 C855 1.387 . S
H854 C861 0.950 . S
C855 C853 1.387 . S
C855 C857 1.390 . S
C855 H859 0.950 . S
H856 C852 0.950 . S
C857 C855 1.390 . S
C857 C858 1.387 . S
C857 H860 0.950 . S
C858 C857 1.387 . S
C858 C861 1.387 . S
H859 C855 0.950 . S
H860 C857 0.950 . S
C861 C852 1.390 . S
C861 H854 0.950 . S
C861 C858 1.387 . S
C862 C863 1.387 . S
C862 H866 0.950 . S
C862 C871 1.390 . S
C863 C862 1.387 . S
C863 C865 1.387 . S
H864 C871 0.950 . S
C865 C863 1.387 . S
C865 C867 1.390 . S
C865 H869 0.950 . S
H866 C862 0.950 . S
C867 C865 1.390 . S
C867 C868 1.387 . S
C867 H870 0.950 . S
C868 C867 1.387 . S
C868 C871 1.387 . S
H869 C865 0.950 . S
H870 C867 0.950 . S
C871 C862 1.390 . S
C871 H864 0.950 . S
C871 C868 1.387 . S
C872 C873 1.387 . S
C872 H876 0.950 . S
C872 C881 1.390 . S
C873 C872 1.387 . S
C873 C875 1.387 . S
H874 C881 0.950 . S
C875 C873 1.387 . S
C875 C877 1.390 . S
C875 H879 0.950 . S
H876 C872 0.950 . S
C877 C875 1.390 . S
C877 C878 1.387 . S
C877 H880 0.950 . S
C878 C877 1.387 . S
C878 C881 1.387 . S
H879 C875 0.950 . S
H880 C877 0.950 . S
C881 C872 1.390 . S
C881 H874 0.950 . S
C881 C878 1.387 . S
C882 C883 1.387 . S
C882 H886 0.950 . S
C882 C891 1.390 . S
C883 C882 1.387 . S
C883 C885 1.387 . S
H884 C891 0.950 . S
C885 C883 1.387 . S
C885 C887 1.390 . S
C885 H889 0.950 . S
H886 C882 0.950 . S
C887 C885 1.390 . S
C887 C888 1.387 . S
C887 H890 0.950 . S
C888 C887 1.387 . S
C888 C891 1.387 . S
H889 C885 0.950 . S
H890 C887 0.950 . S
C891 C882 1.390 . S
C891 H884 0.950 . S
C891 C888 1.387 . S
C892 C893 1.387 . S
C892 H896 0.950 . S
C892 C901 1.390 . S
C893 C892 1.387 . S
C893 C895 1.387 . S
H894 C901 0.950 . S
C895 C893 1.387 . S
C895 C897 1.390 . S
C895 H899 0.950 . S
H896 C892 0.950 . S
C897 C895 1.390 . S
C897 C898 1.387 . S
C897 H900 0.950 . S
C898 C897 1.387 . S
C898 C901 1.387 . S
H899 C895 0.950 . S
H900 C897 0.950 . S
C901 C892 1.390 . S
C901 H894 0.950 . S
C901 C898 1.387 . S
C902 C903 1.387 . S
C902 H906 0.950 . S
C902 C911 1.390 . S
C903 C902 1.387 . S
C903 C905 1.387 . S
H904 C911 0.950 . S
C905 C903 1.387 . S
C905 C907 1.390 . S
C905 H909 0.950 . S
H906 C902 0.950 . S
C907 C905 1.390 . S
C907 C908 1.387 . S
C907 H910 0.950 . S
C908 C907 1.387 . S
C908 C911 1.387 . S
H909 C905 0.950 . S
H910 C907 0.950 . S
C911 C902 1.390 . S
C911 H904 0.950 . S
C911 C908 1.387 . S
C912 C913 1.387 . S
C912 H916 0.950 . S
C912 C921 1.390 . S
C913 C912 1.387 . S
C913 C915 1.387 . S
H914 C921 0.950 . S
C915 C913 1.387 . S
C915 C917 1.390 . S
C915 H919 0.950 . S
H916 C912 0.950 . S
C917 C915 1.390 . S
C917 C918 1.387 . S
C917 H920 0.950 . S
C918 C917 1.387 . S
C918 C921 1.387 . S
H919 C915 0.950 . S
H920 C917 0.950 . S
C921 C912 1.390 . S
C921 H914 0.950 . S
C921 C918 1.387 . S
C922 C923 1.387 . S
C922 H926 0.950 . S
C922 C931 1.390 . S
C923 C922 1.387 . S
C923 C925 1.387 . S
H924 C931 0.950 . S
C925 C923 1.387 . S
C925 C927 1.390 . S
C925 H929 0.950 . S
H926 C922 0.950 . S
C927 C925 1.390 . S
C927 C928 1.387 . S
C927 H930 0.950 . S
C928 C927 1.387 . S
C928 C931 1.387 . S
H929 C925 0.950 . S
H930 C927 0.950 . S
C931 C922 1.390 . S
C931 H924 0.950 . S
C931 C928 1.387 . S
C932 C933 1.387 . S
C932 H936 0.950 . S
C932 C941 1.390 . S
C933 C932 1.387 . S
C933 C935 1.387 . S
H934 C941 0.950 . S
C935 C933 1.387 . S
C935 C937 1.390 . S
C935 H939 0.950 . S
H936 C932 0.950 . S
C937 C935 1.390 . S
C937 C938 1.387 . S
C937 H940 0.950 . S
C938 C937 1.387 . S
C938 C941 1.387 . S
H939 C935 0.950 . S
H940 C937 0.950 . S
C941 C932 1.390 . S
C941 H934 0.950 . S
C941 C938 1.387 . S
C942 C943 1.387 . S
C942 H946 0.950 . S
C942 C951 1.390 . S
C943 C942 1.387 . S
C943 C945 1.387 . S
H944 C951 0.950 . S
C945 C943 1.387 . S
C945 C947 1.390 . S
C945 H949 0.950 . S
H946 C942 0.950 . S
C947 C945 1.390 . S
C947 C948 1.387 . S
C947 H950 0.950 . S
C948 C947 1.387 . S
C948 C951 1.387 . S
H949 C945 0.950 . S
H950 C947 0.950 . S
C951 C942 1.390 . S
C951 H944 0.950 . S
C951 C948 1.387 . S
C952 C953 1.387 . S
C952 H956 0.950 . S
C952 C961 1.390 . S
C953 C952 1.387 . S
C953 C955 1.387 . S
H954 C961 0.950 . S
C955 C953 1.387 . S
C955 C957 1.390 . S
C955 H959 0.950 . S
H956 C952 0.950 . S
C957 C955 1.390 . S
C957 C958 1.387 . S
C957 H960 0.950 . S
C958 C957 1.387 . S
C958 C961 1.387 . S
H959 C955 0.950 . S
H960 C957 0.950 . S
C961 C952 1.390 . S
C961 H954 0.950 . S
C961 C958 1.387 . S
C962 C963 1.387 . S
C962 H966 0.950 . S
C962 C971 1.390 . S
C963 C962 1.387 . S
C963 C965 1.387 . S
H964 C971 0.950 . S
C965 C963 1.387 . S
C965 C967 1.390 . S
C965 H969 0.950 . S
H966 C962 0.950 . S
C967 C965 1.390 . S
C967 C968 1.387 . S
C967 H970 0.950 . S
C968 C967 1.387 . S
C968 C971 1.387 . S
H969 C965 0.950 . S
H970 C967 0.950 . S
C971 C962 1.390 . S
C971 H964 0.950 . S
C971 C968 1.387 . S
C972 C973 1.387 . S
C972 H976 0.950 . S
C972 C981 1.390 . S
C973 C972 1.387 . S
C973 C975 1.387 . S
H974 C981 0.950 . S
C975 C973 1.387 . S
C975 C977 1.390 . S
C975 H979 0.950 . S
H976 C972 0.950 . S
C977 C975 1.390 . S
C977 C978 1.387 . S
C977 H980 0.950 . S
C978 C977 1.387 . S
C978 C981 1.387 . S
H979 C975 0.950 . S
H980 C977 0.950 . S
C981 C972 1.390 . S
C981 H974 0.950 . S
C981 C978 1.387 . S
C982 C983 1.387 . S
C982 H986 0.950 . S
C982 C991 1.390 . S
C983 C982 1.387 . S
C983 C985 1.387 . S
H984 C991 0.950 . S
C985 C983 1.387 . S
C985 C987 1.390 . S
C985 H989 0.950 . S
H986 C982 0.950 . S
C987 C985 1.390 . S
C987 C988 1.387 . S
C987 H990 0.950 . S
C988 C987 1.387 . S
C988 C991 1.387 . S
H989 C985 0.950 . S
H990 C987 0.950 . S
C991 C982 1.390 . S
C991 H984 0.950 . S
C991 C988 1.387 . S
C992 C993 1.387 . S
C992 H996 0.950 . S
C992 C1001 1.390 . S
C993 C992 1.387 . S
C993 C995 1.387 . S
H994 C1001 0.950 . S
C995 C993 1.387 . S
C995 C997 1.390 . S
C995 H999 0.950 . S
H996 C992 0.950 . S
C997 C995 1.390 . S
C997 C998 1.387 . S
C997 H1000 0.950 . S
C998 C997 1.387 . S
C998 C1001 1.387 . S
H999 C995 0.950 . S
H1000 C997 0.950 . S
C1001 C992 1.390 . S
C1001 H994 0.950 . S
C1001 C998 1.387 . S
C1002 C1003 1.387 . S
C1002 H1006 0.950 . S
C1002 C1011 1.390 . S
C1003 C1002 1.387 . S
C1003 C1005 1.387 . S
H1004 C1011 0.950 . S
C1005 C1003 1.387 . S
C1005 C1007 1.390 . S
C1005 H1009 0.950 . S
H1006 C1002 0.950 . S
C1007 C1005 1.390 . S
C1007 C1008 1.387 . S
C1007 H1010 0.950 . S
C1008 C1007 1.387 . S
C1008 C1011 1.387 . S
H1009 C1005 0.950 . S
H1010 C1007 0.950 . S
C1011 C1002 1.390 . S
C1011 H1004 0.950 . S
C1011 C1008 1.387 . S
C1012 C1013 1.387 . S
C1012 H1016 0.950 . S
C1012 C1021 1.390 . S
C1013 C1012 1.387 . S
C1013 C1015 1.387 . S
H1014 C1021 0.950 . S
C1015 C1013 1.387 . S
C1015 C1017 1.390 . S
C1015 H1019 0.950 . S
H1016 C1012 0.950 . S
C1017 C1015 1.390 . S
C1017 C1018 1.387 . S
C1017 H1020 0.950 . S
C1018 C1017 1.387 . S
C1018 C1021 1.387 . S
H1019 C1015 0.950 . S
H1020 C1017 0.950 . S
C1021 C1012 1.390 . S
C1021 H1014 0.950 . S
C1021 C1018 1.387 . S
C1022 C1023 1.387 . S
C1022 H1026 0.950 . S
C1022 C1031 1.390 . S
C1023 C1022 1.387 . S
C1023 C1025 1.387 . S
H1024 C1031 0.950 . S
C1025 C1023 1.387 . S
C1025 C1027 1.390 . S
C1025 H1029 0.950 . S
H1026 C1022 0.950 . S
C1027 C1025 1.390 . S
C1027 C1028 1.387 . S
C1027 H1030 0.950 . S
C1028 C1027 1.387 . S
C1028 C1031 1.387 . S
H1029 C1025 0.950 . S
H1030 C1027 0.950 . S
C1031 C1022 1.390 . S
C1031 H1024 0.950 . S
C1031 C1028 1.387 . S
C1032 C1033 1.387 . S
C1032 H1036 0.950 . S
C1032 C1041 1.390 . S
C1033 C1032 1.387 . S
C1033 C1035 1.387 . S
H1034 C1041 0.950 . S
C1035 C1033 1.387 . S
C1035 C1037 1.390 . S
C1035 H1039 0.950 . S
H1036 C1032 0.950 . S
C1037 C1035 1.390 . S
C1037 C1038 1.387 . S
C1037 H1040 0.950 . S
C1038 C1037 1.387 . S
C1038 C1041 1.387 . S
H1039 C1035 0.950 . S
H1040 C1037 0.950 . S
C1041 C1032 1.390 . S
C1041 H1034 0.950 . S
C1041 C1038 1.387 . S
C1042 C1043 1.387 . S
C1042 H1046 0.950 . S
C1042 C1051 1.390 . S
C1043 C1042 1.387 . S
C1043 C1045 1.387 . S
H1044 C1051 0.950 . S
C1045 C1043 1.387 . S
C1045 C1047 1.390 . S
C1045 H1049 0.950 . S
H1046 C1042 0.950 . S
C1047 C1045 1.390 . S
C1047 C1048 1.387 . S
C1047 H1050 0.950 . S
C1048 C1047 1.387 . S
C1048 C1051 1.387 . S
H1049 C1045 0.950 . S
H1050 C1047 0.950 . S
C1051 C1042 1.390 . S
C1051 H1044 0.950 . S
C1051 C1048 1.387 . S
C1052 C1053 1.387 . S
C1052 H1056 0.950 . S
C1052 C1061 1.390 . S
C1053 C1052 1.387 . S
C1053 C1055 1.387 . S
H1054 C1061 0.950 . S
C1055 C1053 1.387 . S
C1055 C1057 1.390 . S
C1055 H1059 0.950 . S
H1056 C1052 0.950 . S
C1057 C1055 1.390 . S
C1057 C1058 1.387 . S
C1057 H1060 0.950 . S
C1058 C1057 1.387 . S
C1058 C1061 1.387 . S
H1059 C1055 0.950 . S
H1060 C1057 0.950 . S
C1061 C1052 1.390 . S
C1061 H1054 0.950 . S
C1061 C1058 1.387 . S
C1062 C1063 1.387 . S
C1062 H1066 0.950 . S
C1062 C1071 1.390 . S
C1063 C1062 1.387 . S
C1063 C1065 1.387 . S
H1064 C1071 0.950 . S
C1065 C1063 1.387 . S
C1065 C1067 1.390 . S
C1065 H1069 0.950 . S
H1066 C1062 0.950 . S
C1067 C1065 1.390 . S
C1067 C1068 1.387 . S
C1067 H1070 0.950 . S
C1068 C1067 1.387 . S
C1068 C1071 1.387 . S
H1069 C1065 0.950 . S
H1070 C1067 0.950 . S
C1071 C1062 1.390 . S
C1071 H1064 0.950 . S
C1071 C1068 1.387 . S
C1072 C1073 1.387 . S
C1072 H1076 0.950 . S
C1072 C1081 1.390 . S
C1073 C1072 1.387 . S
C1073 C1075 1.387 . S
H1074 C1081 0.950 . S
C1075 C1073 1.387 . S
C1075 C1077 1.390 . S
C1075 H1079 0.950 . S
H1076 C1072 0.950 . S
C1077 C1075 1.390 . S
C1077 C1078 1.387 . S
C1077 H1080 0.950 . S
C1078 C1077 1.387 . S
C1078 C1081 1.387 . S
H1079 C1075 0.950 . S
H1080 C1077 0.950 . S
C1081 C1072 1.390 . S
C1081 H1074 0.950 . S
C1081 C1078 1.387 . S
C1082 C1083 1.387 . S
C1082 H1086 0.950 . S
C1082 C1091 1.390 . S
C1083 C1082 1.387 . S
C1083 C1085 1.387 . S
H1084 C1091 0.950 . S
C1085 C1083 1.387 . S
C1085 C1087 1.390 . S
C1085 H1089 0.950 . S
H1086 C1082 0.950 . S
C1087 C1085 1.390 . S
C1087 C1088 1.387 . S
C1087 H1090 0.950 . S
C1088 C1087 1.387 . S
C1088 C1091 1.387 . S
H1089 C1085 0.950 . S
H1090 C1087 0.950 . S
C1091 C1082 1.390 . S
C1091 H1084 0.950 . S
C1091 C1088 1.387 . S
C1092 C1093 1.387 . S
C1092 H1096 0.950 . S
C1092 C1101 1.390 . S
C1093 C1092 1.387 . S
C1093 C1095 1.387 . S
H1094 C1101 0.950 . S
C1095 C1093 1.387 . S
C1095 C1097 1.390 . S
C1095 H1099 0.950 . S
H1096 C1092 0.950 . S
C1097 C1095 1.390 . S
C1097 C1098 1.387 . S
C1097 H1100 0.950 . S
C1098 C1097 1.387 . S
C1098 C1101 1.387 . S
H1099 C1095 0.950 . S
H1100 C1097 0.950 . S
C1101 C1092 1.390 . S
C1101 H1094 0.950 . S
C1101 C1098 1.387 . S
C1102 C1103 1.387 . S
C1102 H1106 0.950 . S
C1102 C1111 1.390 . S
C1103 C1102 1.387 . S
C1103 C1105 1.387 . S
H1104 C1111 0.950 . S
C1105 C1103 1.387 . S
C1105 C1107 1.390 . S
C1105 H1109 0.950 . S
H1106 C1102 0.950 . S
C1107 C1105 1.390 . S
C1107 C1108 1.387 . S
C1107 H1110 0.950 . S
C1108 C1107 1.387 . S
C1108 C1111 1.387 . S
H1109 C1105 0.950 . S
H1110 C1107 0.950 . S
C1111 C1102 1.390 . S
C1111 H1104 0.950 . S
C1111 C1108 1.387 . S
C1112 C1113 1.387 . S
C1112 H1116 0.950 . S
C1112 C1121 1.390 . S
C1113 C1112 1.387 . S
C1113 C1115 1.387 . S
H1114 C1121 0.950 . S
C1115 C1113 1.387 . S
C1115 C1117 1.390 . S
C1115 H1119 0.950 . S
H1116 C1112 0.950 . S
C1117 C1115 1.390 . S
C1117 C1118 1.387 . S
C1117 H1120 0.950 . S
C1118 C1117 1.387 . S
C1118 C1121 1.387 . S
H1119 C1115 0.950 . S
H1120 C1117 0.950 . S
C1121 C1112 1.390 . S
C1121 H1114 0.950 . S
C1121 C1118 1.387 . S
C1122 C1123 1.387 . S
C1122 H1126 0.950 . S
C1122 C1131 1.390 . S
C1123 C1122 1.387 . S
C1123 C1125 1.387 . S
H1124 C1131 0.950 . S
C1125 C1123 1.387 . S
C1125 C1127 1.390 . S
C1125 H1129 0.950 . S
H1126 C1122 0.950 . S
C1127 C1125 1.390 . S
C1127 C1128 1.387 . S
C1127 H1130 0.950 . S
C1128 C1127 1.387 . S
C1128 C1131 1.387 . S
H1129 C1125 0.950 . S
H1130 C1127 0.950 . S
C1131 C1122 1.390 . S
C1131 H1124 0.950 . S
C1131 C1128 1.387 . S
C1132 C1133 1.387 . S
C1132 H1136 0.950 . S
C1132 C1141 1.390 . S
C1133 C1132 1.387 . S
C1133 C1135 1.387 . S
H1134 C1141 0.950 . S
C1135 C1133 1.387 . S
C1135 C1137 1.390 . S
C1135 H1139 0.950 . S
H1136 C1132 0.950 . S
C1137 C1135 1.390 . S
C1137 C1138 1.387 . S
C1137 H1140 0.950 . S
C1138 C1137 1.387 . S
C1138 C1141 1.387 . S
H1139 C1135 0.950 . S
H1140 C1137 0.950 . S
C1141 C1132 1.390 . S
C1141 H1134 0.950 . S
C1141 C1138 1.387 . S
C1142 C1143 1.387 . S
C1142 H1146 0.950 . S
C1142 C1151 1.390 . S
C1143 C1142 1.387 . S
C1143 C1145 1.387 . S
H1144 C1151 0.950 . S
C1145 C1143 1.387 . S
C1145 C1147 1.390 . S
C1145 H1149 0.950 . S
H1146 C1142 0.950 . S
C1147 C1145 1.390 . S
C1147 C1148 1.387 . S
C1147 H1150 0.950 . S
C1148 C1147 1.387 . S
C1148 C1151 1.387 . S
H1149 C1145 0.950 . S
H1150 C1147 0.950 . S
C1151 C1142 1.390 . S
C1151 H1144 0.950 . S
C1151 C1148 1.387 . S
C1152 C1153 1.387 . S
C1152 H1156 0.950 . S
C1152 C1161 1.390 1_556 S
C1153 C1152 1.387 . S
C1153 C1155 1.387 . S
H1154 C1161 0.950 . S
C1155 C1153 1.387 . S
C1155 C1157 1.390 1_556 S
C1155 H1159 0.950 . S
H1156 C1152 0.950 . S
C1157 C1155 1.390 1_554 S
C1157 C1158 1.387 . S
C1157 H1160 0.950 . S
C1158 C1157 1.387 . S
C1158 C1161 1.387 . S
H1159 C1155 0.950 . S
H1160 C1157 0.950 . S
C1161 C1152 1.390 1_554 S
C1161 H1154 0.950 . S
C1161 C1158 1.387 . S
C1162 C1163 1.387 . S
C1162 H1166 0.950 . S
C1162 C1171 1.390 1_556 S
C1163 C1162 1.387 . S
C1163 C1165 1.387 . S
H1164 C1171 0.950 . S
C1165 C1163 1.387 . S
C1165 C1167 1.390 1_556 S
C1165 H1169 0.950 . S
H1166 C1162 0.950 . S
C1167 C1165 1.390 1_554 S
C1167 C1168 1.387 . S
C1167 H1170 0.950 . S
C1168 C1167 1.387 . S
C1168 C1171 1.387 . S
H1169 C1165 0.950 . S
H1170 C1167 0.950 . S
C1171 C1162 1.390 1_554 S
C1171 H1164 0.950 . S
C1171 C1168 1.387 . S
C1172 C1173 1.387 . S
C1172 H1176 0.950 . S
C1172 C1181 1.390 1_554 S
C1173 C1172 1.387 . S
C1173 C1175 1.387 . S
H1174 C1181 0.950 . S
C1175 C1173 1.387 . S
C1175 C1177 1.390 1_554 S
C1175 H1179 0.950 . S
H1176 C1172 0.950 . S
C1177 C1175 1.390 1_556 S
C1177 C1178 1.387 . S
C1177 H1180 0.950 . S
C1178 C1177 1.387 . S
C1178 C1181 1.387 . S
H1179 C1175 0.950 . S
H1180 C1177 0.950 . S
C1181 C1172 1.390 1_556 S
C1181 H1174 0.950 . S
C1181 C1178 1.387 . S
C1182 C1183 1.387 . S
C1182 H1186 0.950 . S
C1182 C1191 1.390 1_556 S
C1183 C1182 1.387 . S
C1183 C1185 1.387 . S
H1184 C1191 0.950 . S
C1185 C1183 1.387 . S
C1185 C1187 1.390 1_556 S
C1185 H1189 0.950 . S
H1186 C1182 0.950 . S
C1187 C1185 1.390 1_554 S
C1187 C1188 1.387 . S
C1187 H1190 0.950 . S
C1188 C1187 1.387 . S
C1188 C1191 1.387 . S
H1189 C1185 0.950 . S
H1190 C1187 0.950 . S
C1191 C1182 1.390 1_554 S
C1191 H1184 0.950 . S
C1191 C1188 1.387 . S
C1192 C1193 1.387 . S
C1192 H1196 0.950 . S
C1192 C1201 1.390 1_556 S
C1193 C1192 1.387 . S
C1193 C1195 1.387 . S
H1194 C1201 0.950 . S
C1195 C1193 1.387 . S
C1195 C1197 1.390 1_556 S
C1195 H1199 0.950 . S
H1196 C1192 0.950 . S
C1197 C1195 1.390 1_554 S
C1197 C1198 1.387 . S
C1197 H1200 0.950 . S
C1198 C1197 1.387 . S
C1198 C1201 1.387 . S
H1199 C1195 0.950 . S
H1200 C1197 0.950 . S
C1201 C1192 1.390 1_554 S
C1201 H1194 0.950 . S
C1201 C1198 1.387 . S
C1202 C1203 1.387 . S
C1202 H1206 0.950 . S
C1202 C1211 1.390 1_554 S
C1203 C1202 1.387 . S
C1203 C1205 1.387 . S
H1204 C1211 0.950 . S
C1205 C1203 1.387 . S
C1205 C1207 1.390 1_554 S
C1205 H1209 0.950 . S
H1206 C1202 0.950 . S
C1207 C1205 1.390 1_556 S
C1207 C1208 1.387 . S
C1207 H1210 0.950 . S
C1208 C1207 1.387 . S
C1208 C1211 1.387 . S
H1209 C1205 0.950 . S
H1210 C1207 0.950 . S
C1211 C1202 1.390 1_556 S
C1211 H1204 0.950 . S
C1211 C1208 1.387 . S
C1212 C1213 1.387 . S
C1212 H1216 0.950 . S
C1212 C1221 1.390 . S
C1213 C1212 1.387 . S
C1213 C1215 1.387 . S
H1214 C1221 0.950 . S
C1215 C1213 1.387 . S
C1215 C1217 1.390 . S
C1215 H1219 0.950 . S
H1216 C1212 0.950 . S
C1217 C1215 1.390 . S
C1217 C1218 1.387 . S
C1217 H1220 0.950 . S
C1218 C1217 1.387 . S
C1218 C1221 1.387 . S
H1219 C1215 0.950 . S
H1220 C1217 0.950 . S
C1221 C1212 1.390 . S
C1221 H1214 0.950 . S
C1221 C1218 1.387 . S
C1222 C1223 1.387 . S
C1222 H1226 0.950 . S
C1222 C1231 1.390 . S
C1223 C1222 1.387 . S
C1223 C1225 1.387 . S
H1224 C1231 0.950 . S
C1225 C1223 1.387 . S
C1225 C1227 1.390 . S
C1225 H1229 0.950 . S
H1226 C1222 0.950 . S
C1227 C1225 1.390 . S
C1227 C1228 1.387 . S
C1227 H1230 0.950 . S
C1228 C1227 1.387 . S
C1228 C1231 1.387 . S
H1229 C1225 0.950 . S
H1230 C1227 0.950 . S
C1231 C1222 1.390 . S
C1231 H1224 0.950 . S
C1231 C1228 1.387 . S
C1232 C1233 1.387 . S
C1232 H1236 0.950 . S
C1232 C1241 1.390 . S
C1233 C1232 1.387 . S
C1233 C1235 1.387 . S
H1234 C1241 0.950 . S
C1235 C1233 1.387 . S
C1235 C1237 1.390 . S
C1235 H1239 0.950 . S
H1236 C1232 0.950 . S
C1237 C1235 1.390 . S
C1237 C1238 1.387 . S
C1237 H1240 0.950 . S
C1238 C1237 1.387 . S
C1238 C1241 1.387 . S
H1239 C1235 0.950 . S
H1240 C1237 0.950 . S
C1241 C1232 1.390 . S
C1241 H1234 0.950 . S
C1241 C1238 1.387 . S
C1242 C1243 1.387 . S
C1242 H1246 0.950 . S
C1242 C1251 1.390 . S
C1243 C1242 1.387 . S
C1243 C1245 1.387 . S
H1244 C1251 0.950 . S
C1245 C1243 1.387 . S
C1245 C1247 1.390 . S
C1245 H1249 0.950 . S
H1246 C1242 0.950 . S
C1247 C1245 1.390 . S
C1247 C1248 1.387 . S
C1247 H1250 0.950 . S
C1248 C1247 1.387 . S
C1248 C1251 1.387 . S
H1249 C1245 0.950 . S
H1250 C1247 0.950 . S
C1251 C1242 1.390 . S
C1251 H1244 0.950 . S
C1251 C1248 1.387 . S
C1252 C1253 1.387 . S
C1252 H1256 0.950 . S
C1252 C1261 1.390 . S
C1253 C1252 1.387 . S
C1253 C1255 1.387 . S
H1254 C1261 0.950 . S
C1255 C1253 1.387 . S
C1255 C1257 1.390 . S
C1255 H1259 0.950 . S
H1256 C1252 0.950 . S
C1257 C1255 1.390 . S
C1257 C1258 1.387 . S
C1257 H1260 0.950 . S
C1258 C1257 1.387 . S
C1258 C1261 1.387 . S
H1259 C1255 0.950 . S
H1260 C1257 0.950 . S
C1261 C1252 1.390 . S
C1261 H1254 0.950 . S
C1261 C1258 1.387 . S
C1262 C1263 1.387 . S
C1262 H1266 0.950 . S
C1262 C1271 1.390 . S
C1263 C1262 1.387 . S
C1263 C1265 1.387 . S
H1264 C1271 0.950 . S
C1265 C1263 1.387 . S
C1265 C1267 1.390 . S
C1265 H1269 0.950 . S
H1266 C1262 0.950 . S
C1267 C1265 1.390 . S
C1267 C1268 1.387 . S
C1267 H1270 0.950 . S
C1268 C1267 1.387 . S
C1268 C1271 1.387 . S
H1269 C1265 0.950 . S
H1270 C1267 0.950 . S
C1271 C1262 1.390 . S
C1271 H1264 0.950 . S
C1271 C1268 1.387 . S
C553 C203 2.126 . S
C558 C19 2.124 . S
C563 C42 2.125 . S
C568 C226 2.125 . S
C573 C65 2.123 . S
C578 C249 2.126 . S
C583 C88 2.123 . S
C588 C272 2.124 . S
C593 C111 2.125 . S
C598 C157 2.125 . S
C603 C180 2.126 . S
C608 C134 2.123 . S
C613 C479 2.124 . S
C618 C295 2.123 . S
C623 C502 2.125 . S
C628 C318 2.125 . S
C633 C525 2.124 . S
C638 C341 2.126 . S
C643 C364 2.126 . S
C648 C548 2.124 . S
C653 C433 2.123 . S
C658 C387 2.123 . S
C663 C456 2.123 . S
C668 C410 2.126 . S
C673 C16 2.135 . S
C678 C85 2.135 . S
C683 C108 2.135 . S
C688 C39 2.135 . S
C693 C62 2.135 . S
C698 C131 2.135 . S
C703 C154 2.138 . S
C708 C223 2.138 . S
C713 C177 2.135 . S
C718 C246 2.135 . S
C723 C200 2.135 . S
C728 C269 2.135 . S
C733 C361 2.138 . S
C738 C292 2.138 . S
C743 C315 2.138 . S
C748 C384 2.138 . S
C753 C407 2.135 . S
C758 C338 2.135 . S
C763 C430 2.138 . S
C768 C499 2.138 . S
C773 C453 2.138 . S
C778 C522 2.138 . S
C783 C545 2.135 . S
C788 C476 2.135 . S
C793 C18 0.911 . S
C798 C248 0.911 . S
C803 C271 0.913 . S
C808 C41 0.917 . S
C813 C64 0.917 . S
C818 C156 0.913 . S
C823 C87 0.911 . S
C828 C179 0.911 . S
C833 C202 0.914 . S
C838 C110 0.918 . S
C843 C225 0.916 . S
C848 C133 0.919 . S
C853 C294 0.911 . S
C858 C524 0.911 . S
C863 C317 0.915 . S
C868 C547 0.912 . S
C873 C340 0.918 . S
C878 C432 0.914 . S
C883 C363 0.919 . S
C888 C455 0.919 . S
C893 C478 0.911 . S
C898 C386 0.915 . S
C903 C501 0.918 . S
C908 C409 0.914 . S
C913 C17 1.225 . S
C918 C112 1.207 . S
C923 C135 1.204 . S
C928 C40 1.223 . S
C933 C63 1.224 . S
C938 C20 1.204 . S
C943 C43 1.208 . S
C948 C86 1.226 . S
C953 C66 1.207 . S
C958 C109 1.226 . S
C963 C89 1.204 . S
C968 C132 1.223 . S
C973 C155 1.223 . S
C978 C204 1.204 . S
C983 C227 1.203 . S
C988 C178 1.223 . S
C993 C201 1.224 . S
C998 C250 1.204 . S
C1003 C224 1.226 . S
C1008 C273 1.207 . S
C1013 C158 1.203 . S
C1018 C247 1.223 . S
C1023 C270 1.225 . S
C1028 C181 1.207 . S
C1033 C293 1.223 . S
C1038 C388 1.203 . S
C1043 C411 1.203 . S
C1048 C316 1.223 . S
C1053 C296 1.204 . S
C1058 C339 1.223 . S
C1063 C362 1.223 . S
C1068 C319 1.203 . S
C1073 C342 1.204 . S
C1078 C385 1.223 . S
C1083 C408 1.225 . S
C1088 C365 1.207 . S
C1093 C431 1.224 . S
C1098 C480 1.204 . S
C1103 C503 1.203 . S
C1108 C454 1.223 . S
C1113 C526 1.204 . S
C1118 C477 1.223 . S
C1123 C500 1.224 . S
C1128 C549 1.206 . S
C1133 C434 1.205 . S
C1138 C523 1.223 . S
C1143 C546 1.224 . S
C1148 C457 1.204 . S
C1153 C366 1.481 . S
C1158 C21 1.480 . S
C1163 C389 1.481 . S
C1168 C44 1.480 . S
C1173 C67 1.480 . S
C1178 C412 1.481 . S
C1183 C297 1.480 . S
C1188 C90 1.480 . S
C1193 C320 1.479 . S
C1198 C113 1.481 . S
C1203 C136 1.482 . S
C1208 C343 1.479 . S
C1213 C504 1.481 . S
C1218 C159 1.479 . S
C1223 C527 1.482 . S
C1228 C182 1.479 . S
C1233 C205 1.479 . S
C1238 C550 1.482 . S
C1243 C435 1.481 . S
C1248 C228 1.480 . S
C1253 C251 1.480 . S
C1258 C458 1.481 . S
C1263 C481 1.481 . S
C1268 C274 1.480 . S
