# Generated by pormake.
# Topology irl, (4)-cn, num edge types: 1
# Building blocks:
#     Node 0, Type 0, BuildingBlock: NAHDIM_clean_sbu_0, # of connection points: 4
#     Node 1, Type 0, BuildingBlock: NAHDIM_clean_sbu_0, # of connection points: 4
#     Node 2, Type 0, BuildingBlock: NAHDIM_clean_sbu_0, # of connection points: 4
#     Node 3, Type 0, BuildingBlock: NAHDIM_clean_sbu_0, # of connection points: 4
#     Node 4, Type 0, BuildingBlock: NAHDIM_clean_sbu_0, # of connection points: 4
#     Node 5, Type 0, BuildingBlock: NAHDIM_clean_sbu_0, # of connection points: 4
#     Node 6, Type 0, BuildingBlock: NAHDIM_clean_sbu_0, # of connection points: 4
#     Node 7, Type 0, BuildingBlock: NAHDIM_clean_sbu_0, # of connection points: 4
#     Edge 8, Type (0, 0), BuildingBlock: ZUJKAS_clean_linker_0, # of connection points: 2
#     Edge 9, Type (0, 0), BuildingBlock: ZUJKAS_clean_linker_0, # of connection points: 2
#     Edge 10, Type (0, 0), BuildingBlock: ZUJKAS_clean_linker_0, # of connection points: 2
#     Edge 11, Type (0, 0), BuildingBlock: ZUJKAS_clean_linker_0, # of connection points: 2
#     Edge 12, Type (0, 0), BuildingBlock: ZUJKAS_clean_linker_0, # of connection points: 2
#     Edge 13, Type (0, 0), BuildingBlock: ZUJKAS_clean_linker_0, # of connection points: 2
#     Edge 14, Type (0, 0), BuildingBlock: ZUJKAS_clean_linker_0, # of connection points: 2
#     Edge 15, Type (0, 0), BuildingBlock: ZUJKAS_clean_linker_0, # of connection points: 2
#     Edge 16, Type (0, 0), BuildingBlock: ZUJKAS_clean_linker_0, # of connection points: 2
#     Edge 17, Type (0, 0), BuildingBlock: ZUJKAS_clean_linker_0, # of connection points: 2
#     Edge 18, Type (0, 0), BuildingBlock: ZUJKAS_clean_linker_0, # of connection points: 2
#     Edge 19, Type (0, 0), BuildingBlock: ZUJKAS_clean_linker_0, # of connection points: 2
#     Edge 20, Type (0, 0), BuildingBlock: ZUJKAS_clean_linker_0, # of connection points: 2
#     Edge 21, Type (0, 0), BuildingBlock: ZUJKAS_clean_linker_0, # of connection points: 2
#     Edge 22, Type (0, 0), BuildingBlock: ZUJKAS_clean_linker_0, # of connection points: 2
#     Edge 23, Type (0, 0), BuildingBlock: ZUJKAS_clean_linker_0, # of connection points: 2
# Relax obj value: 0.192
# Max RMSD: 0.181
# Mean RMSD: 0.181
data_MOF--net-irl--node1-NAHDIM_clean_sbu_0--edge1-ZUJKAS_clean_linker_0
_symmetry_space_group_name_H-M    P1
_symmetry_Int_Tables_number       1
_symmetry_cell_setting            triclinic
loop_
_symmetry_equiv_pos_as_xyz
'x, y, z'
_cell_length_a     51.964761
_cell_length_b     46.186818
_cell_length_c     34.599789
_cell_angle_alpha  89.965576
_cell_angle_beta   89.994167
_cell_angle_gamma 89.965292
loop_
_atom_site_label
_atom_site_type_symbol
_atom_site_fract_x
_atom_site_fract_y
_atom_site_fract_z
_atom_type_partial_charge
C0 C 0.1055 0.22069 0.02048 0.0
O1 O 0.08993 0.24311 0.01956 0.0
O2 O 0.04506 0.21473 0.07052 0.0
Zn3 Zn 0.0576 0.192 0.02485 0.0
O4 O 0.04355 0.20824 0.97516 0.0
C5 C 0.02763 0.14241 0.04887 0.0
O6 O 0.01352 0.16243 0.06558 0.0
O7 O 0.09597 0.19543 0.02289 0.0
C8 C 0.02518 0.19612 0.95717 0.0
O9 O 0.01443 0.17289 0.97191 0.0
C10 C 0.0309 0.23713 0.06852 0.0
O11 O 0.02319 0.24654 0.03462 0.0
O12 O 0.04765 0.14993 0.03028 0.0
C13 C 0.87498 0.76811 -0.00418 0.0
O14 O 0.88999 0.74521 -0.00458 0.0
O15 O 0.93836 0.77194 0.03445 0.0
Zn16 Zn 0.92351 0.795 -0.00944 0.0
O17 O 0.93396 0.77868 0.93916 0.0
C18 C 0.93662 0.84894 0.0274 0.0
O19 O 0.92984 0.8346 0.0586 0.0
O20 O 0.88512 0.79309 -0.00587 0.0
C21 C 0.95493 0.78605 0.92311 0.0
O22 O 0.97045 0.80397 0.94114 0.0
C23 C 0.96213 0.77305 0.04285 0.0
O24 O 0.9776 0.78856 0.02112 0.0
O25 O 0.93523 0.83646 -0.00527 0.0
C26 C 0.11135 0.78844 0.49425 0.0
O27 O 0.0953 0.76671 0.4985 0.0
O28 O 0.05214 0.80039 0.43438 0.0
Zn29 Zn 0.06398 0.81758 0.48453 0.0
O30 O 0.04854 0.79772 0.53053 0.0
C31 C 0.03211 0.86675 0.47049 0.0
O32 O 0.01766 0.84652 0.45501 0.0
O33 O 0.10237 0.81359 0.48785 0.0
C34 C 0.02535 0.78934 0.53346 0.0
O35 O 0.00957 0.79292 0.50418 0.0
C36 C 0.04607 0.77427 0.42739 0.0
O37 O 0.04712 0.75491 0.45517 0.0
O38 O 0.05358 0.85967 0.48543 0.0
C39 C 0.88057 0.22214 0.47036 0.0
O40 O 0.89113 0.21393 0.43765 0.0
O41 O 0.9485 0.23789 0.45301 0.0
Zn42 Zn 0.93273 0.21843 0.49901 0.0
O43 O 0.94792 0.23399 0.54793 0.0
C44 C 0.94444 0.16222 0.46549 0.0
O45 O 0.94297 0.17637 0.43261 0.0
O46 O 0.89464 0.22519 0.5001 0.0
C47 C 0.96922 0.22377 0.55968 0.0
O48 O 0.98133 0.20464 0.53826 0.0
C49 C 0.9407 0.26187 0.43929 0.0
O50 O 0.92174 0.27564 0.45642 0.0
O51 O 0.94017 0.17562 0.49692 0.0
C52 C 0.60118 0.72781 0.00522 0.0
O53 O 0.5853 0.7498 0.00178 0.0
O54 O 0.54112 0.71754 0.06025 0.0
Zn55 Zn 0.55377 0.69768 0.01238 0.0
O56 O 0.53869 0.71542 0.96435 0.0
C57 C 0.52689 0.64513 0.03446 0.0
O58 O 0.51299 0.66311 0.05519 0.0
O59 O 0.59203 0.70256 0.01003 0.0
C60 C 0.51976 0.70383 0.94706 0.0
O61 O 0.509 0.68066 0.96197 0.0
C62 C 0.53234 0.74321 0.06154 0.0
O63 O 0.53035 0.75832 0.0295 0.0
O64 O 0.5454 0.65501 0.01436 0.0
C65 C 0.37864 0.26369 -0.00447 0.0
O66 O 0.39436 0.2415 -0.00735 0.0
O67 O 0.44208 0.26996 0.03557 0.0
Zn68 Zn 0.42621 0.29384 -0.00654 0.0
O69 O 0.43862 0.28043 0.94156 0.0
C70 C 0.45408 0.34751 0.98322 0.0
O71 O 0.46733 0.33184 0.95856 0.0
O72 O 0.38795 0.2891 -0.00352 0.0
C73 C 0.42497 0.28564 0.91191 0.0
O74 O 0.40288 0.29912 0.9162 0.0
C75 C 0.46578 0.27224 0.04393 0.0
O76 O 0.48031 0.28992 0.02374 0.0
O77 O 0.43547 0.3359 0.0014 0.0
C78 C 0.61506 0.30477 0.5006 0.0
O79 O 0.60531 0.31044 0.53481 0.0
O80 O 0.5448 0.29525 0.4304 0.0
Zn81 Zn 0.56258 0.31259 0.47606 0.0
O82 O 0.54896 0.29482 0.52467 0.0
C83 C 0.55089 0.36958 0.44676 0.0
O84 O 0.55228 0.35622 0.41332 0.0
O85 O 0.6004 0.30499 0.47123 0.0
C86 C 0.52498 0.29651 0.53133 0.0
O87 O 0.51001 0.30892 0.50559 0.0
C88 C 0.54752 0.2689 0.42076 0.0
O89 O 0.56199 0.25184 0.44203 0.0
O90 O 0.55525 0.3554 0.47757 0.0
C91 C 0.38431 0.74165 0.49795 0.0
O92 O 0.40001 0.76394 0.49815 0.0
O93 O 0.44158 0.73418 0.43996 0.0
Zn94 Zn 0.43187 0.71322 0.4885 0.0
O95 O 0.44818 0.73069 0.53571 0.0
C96 C 0.46087 0.66381 0.46217 0.0
O97 O 0.47295 0.68387 0.44228 0.0
O98 O 0.39363 0.71636 0.49433 0.0
C99 C 0.46977 0.72184 0.54822 0.0
O100 O 0.48248 0.70222 0.52847 0.0
C101 C 0.45268 0.75859 0.43713 0.0
O102 O 0.45931 0.77268 0.46856 0.0
O103 O 0.44226 0.67115 0.48397 0.0
H104 H 0.95094 0.88505 0.9685 0.0
H105 H 0.9673 0.93455 0.97359 0.0
H106 H 0.96026 0.93055 0.09764 0.0
H107 H 0.94406 0.88096 0.09294 0.0
H108 H 0.94283 0.98317 0.00708 0.0
H109 H 0.03526 0.95708 0.07993 0.0
H110 H 0.01601 0.93003 0.05579 0.0
H111 H 0.0071 0.9426 0.10307 0.0
C112 C 0.95292 0.89464 -0.00311 0.0
C113 C 0.94626 0.87901 0.03034 0.0
C114 C 0.96225 0.92293 -0.00028 0.0
C115 C 0.9653 0.93603 0.036 0.0
C116 C 0.95847 0.92062 0.06941 0.0
H117 H 0.98457 0.1196 0.08261 0.0
H118 H 0.96961 0.06944 0.08012 0.0
C119 C 0.94908 0.89235 0.06663 0.0
C120 C 0.97508 0.96606 0.03875 0.0
H121 H 0.02452 0.00684 0.07423 0.0
C122 C 0.96069 0.98838 0.02171 0.0
C123 C -0.00146 0.97267 0.05751 0.0
C124 C 0.01529 0.94935 0.07486 0.0
C125 C 0.96897 0.01726 0.02335 0.0
C126 C 0.99209 0.02398 0.04297 0.0
C127 C 0.00667 1.00161 0.05955 0.0
C128 C 0.00167 0.05407 0.04591 0.0
C129 C 0.95314 0.04031 0.00353 0.0
C130 C 0.02504 0.06182 0.02846 0.0
C131 C 0.03372 0.09044 0.02994 0.0
C132 C 0.01922 0.11179 0.04911 0.0
C133 C -0.00386 0.10374 0.06744 0.0
C134 C 0.98748 0.07513 0.06589 0.0
H135 H 0.93944 0.03088 0.98235 0.0
H136 H 0.94184 0.05231 0.02552 0.0
H137 H 0.96572 0.05604 -0.01171 0.0
H138 H 0.03633 0.04582 0.01307 0.0
H139 H 0.05161 0.09588 0.01562 0.0
H140 H 0.05595 0.9138 0.50284 0.0
H141 H 0.04074 0.964 0.50341 0.0
H142 H 0.97361 0.93892 0.43831 0.0
H143 H 0.98838 0.88874 0.43808 0.0
H144 H 0.03037 1.00069 0.44179 0.0
H145 H 0.94269 0.98241 0.52991 0.0
H146 H 0.96814 0.95594 0.52614 0.0
H147 H 0.94474 0.95949 0.48813 0.0
C148 C 0.03791 0.91895 0.48876 0.0
C149 C 0.0233 0.89723 0.47062 0.0
C150 C 0.02926 0.94764 0.48909 0.0
C151 C 0.00585 0.95507 0.47146 0.0
C152 C 0.99144 0.93353 0.45284 0.0
H153 H 0.95449 0.12683 0.40387 0.0
H154 H 0.96945 0.07661 0.40545 0.0
C155 C 1e-05 0.90487 0.45257 0.0
C156 C -0.0033 0.98546 0.47181 0.0
H157 H 0.94647 0.02842 0.49943 0.0
C158 C 0.01208 0.00681 0.45453 0.0
C159 C 0.97298 0.9934 0.48887 0.0
C160 C 0.95627 0.97168 0.50965 0.0
C161 C 0.00416 0.03585 0.4532 0.0
C162 C 0.98 0.0436 0.469 0.0
C163 C 0.96484 0.02234 0.48693 0.0
C164 C 0.9703 0.07377 0.46787 0.0
C165 C 0.02189 0.05804 0.43544 0.0
C166 C 0.96501 0.08849 0.50242 0.0
C167 C 0.95624 0.11709 0.50163 0.0
C168 C 0.95251 0.13148 0.46622 0.0
C169 C 0.95732 0.11645 0.43162 0.0
C170 C 0.96603 0.08781 0.43246 0.0
H171 H 0.04206 0.0501 0.43403 0.0
H172 H 0.01546 0.06275 0.40551 0.0
H173 H 0.02153 0.07858 0.45209 0.0
H174 H 0.96803 0.07798 0.53005 0.0
H175 H 0.9527 0.12801 0.52882 0.0
H176 H 0.48787 0.61721 0.07228 0.0
H177 H 0.47581 0.56614 0.06726 0.0
H178 H 0.53801 0.5518 0.987 0.0
H179 H 0.55042 0.60266 -0.00784 0.0
H180 H 0.461 0.53659 0.00065 0.0
H181 H 0.54793 0.48659 0.06557 0.0
H182 H 0.54042 0.52456 0.0709 0.0
H183 H 0.55485 0.51143 0.02702 0.0
C184 C 0.49914 0.60315 0.05383 0.0
C185 C 0.52017 0.614 0.03271 0.0
C186 C 0.4922 0.57398 0.05097 0.0
C187 C 0.50623 0.55512 0.02718 0.0
C188 C 0.52725 0.56585 0.00616 0.0
H189 H 0.49325 0.37823 0.95017 0.0
H190 H 0.50497 0.42871 0.96188 0.0
C191 C 0.53423 0.59499 0.00899 0.0
C192 C 0.49818 0.52452 0.02291 0.0
H193 H 0.51919 0.45485 0.03276 0.0
C194 C 0.47361 0.51869 0.00798 0.0
C195 C 0.51471 0.50125 0.03247 0.0
C196 C 0.54086 0.50618 0.05022 0.0
C197 C 0.46537 0.49018 0.00132 0.0
C198 C 0.48204 0.46694 0.01039 0.0
C199 C 0.5065 0.47275 0.02574 0.0
C200 C 0.47466 0.43641 0.00348 0.0
C201 C 0.43923 0.4852 0.98355 0.0
C202 C 0.45386 0.42396 0.02329 0.0
C203 C 0.44707 0.39509 0.01665 0.0
C204 C 0.46106 0.37814 -0.00981 0.0
C205 C 0.48202 0.39067 0.97064 0.0
C206 C 0.48879 0.41951 0.97733 0.0
H207 H 0.43138 0.50522 0.97017 0.0
H208 H 0.44012 0.46798 0.96121 0.0
H209 H 0.42563 0.47808 0.00638 0.0
H210 H 0.443 0.43651 0.0441 0.0
H211 H 0.43093 0.38606 0.03235 0.0
H212 H 0.5457 0.4035 0.51115 0.0
H213 H 0.53015 0.45346 0.51438 0.0
H214 H 0.5223 0.45515 0.39034 0.0
H215 H 0.53763 0.40516 0.38677 0.0
H216 H 0.55008 0.50394 0.47893 0.0
H217 H 0.4506 0.47969 0.43005 0.0
H218 H 0.47254 0.45193 0.44638 0.0
H219 H 0.47548 0.46662 0.39848 0.0
C220 C 0.54072 0.41449 0.48452 0.0
C221 C 0.54277 0.40028 0.4487 0.0
C222 C 0.53184 0.44303 0.48645 0.0
C223 C 0.5247 0.45778 0.45266 0.0
C224 C 0.52726 0.44392 0.41681 0.0
H225 H 0.5008 0.64168 0.42015 0.0
H226 H 0.51617 0.59169 0.41877 0.0
C227 C 0.53617 0.41541 0.41483 0.0
C228 C 0.51469 0.48775 0.45493 0.0
H229 H 0.4619 0.52934 0.43544 0.0
C230 C 0.53079 0.50952 0.46953 0.0
C231 C 0.48939 0.49482 0.44313 0.0
C232 C 0.47086 0.47204 0.42895 0.0
C233 C 0.52243 0.53837 0.47191 0.0
C234 C 0.49743 0.5456 0.4589 0.0
C235 C 0.48114 0.52373 0.44505 0.0
C236 C 0.48784 0.57579 0.45938 0.0
C237 C 0.5403 0.5608 0.48876 0.0
C238 C 0.46637 0.58324 0.48189 0.0
C239 C 0.45743 0.6118 0.48262 0.0
C240 C 0.46973 0.63336 0.46063 0.0
C241 C 0.49096 0.62566 0.43759 0.0
C242 C 0.49988 0.59713 0.43692 0.0
H243 H 0.55589 0.55072 0.50615 0.0
H244 H 0.54937 0.57319 0.4649 0.0
H245 H 0.52959 0.57628 0.50731 0.0
H246 H 0.45673 0.56701 0.49924 0.0
H247 H 0.44101 0.61699 0.50061 0.0
H248 H -0.00456 0.28076 0.0768 0.0
H249 H 0.98021 0.30236 0.13744 0.0
H250 H 0.03243 0.24785 0.2015 0.0
H251 H 0.04779 0.22645 0.14158 0.0
H252 H 0.95681 0.27141 0.19599 0.0
H253 H 0.04313 0.32612 0.25295 0.0
H254 H 0.03989 0.31618 0.20266 0.0
H255 H 0.05056 0.28996 0.23778 0.0
C256 C 0.00394 0.27373 0.1038 0.0
C257 C 0.02275 0.25182 0.10442 0.0
C258 C -0.00474 0.28614 0.13834 0.0
C259 C 0.00556 0.27711 0.17385 0.0
C260 C 0.02472 0.25571 0.17436 0.0
H261 H 0.98223 0.24079 0.40053 0.0
H262 H -0.00336 0.25373 0.3358 0.0
C263 C 0.03327 0.24325 0.14005 0.0
C264 C -0.0055 0.28714 0.21088 0.0
H265 H 0.0127 0.30824 0.30126 0.0
C266 C 0.96872 0.28037 0.21877 0.0
C267 C 0.01008 0.29901 0.24037 0.0
C268 C 0.03738 0.30852 0.23286 0.0
C269 C 0.95886 0.28236 0.25642 0.0
C270 C 0.9752 0.29171 0.28661 0.0
C271 C 0.00029 0.30089 0.27804 0.0
C272 C 0.96811 0.2873 0.32753 0.0
C273 C 0.93177 0.27211 0.2642 0.0
C274 C 0.94771 0.30249 0.34467 0.0
C275 C 0.93933 0.29509 0.38184 0.0
C276 C 0.95125 0.27236 0.4022 0.0
C277 C 0.97249 0.25824 0.38553 0.0
C278 C 0.98084 0.26569 0.3486 0.0
H279 H 0.9225 0.26286 0.23804 0.0
H280 H 0.93177 0.25541 0.28732 0.0
H281 H 0.91991 0.29058 0.27436 0.0
H282 H 0.93783 0.31944 0.3289 0.0
H283 H 0.92299 0.30644 0.39399 0.0
H284 H 0.02852 0.7215 0.40171 0.0
H285 H 0.01269 0.70976 0.33665 0.0
H286 H 0.02838 0.7972 0.29983 0.0
H287 H 0.04389 0.80918 0.36418 0.0
H288 H 0.97732 0.77582 0.28411 0.0
H289 H 0.05526 0.70203 0.23347 0.0
H290 H 0.04077 0.69527 0.27993 0.0
H291 H 0.06002 0.72704 0.27295 0.0
C292 C 0.02873 0.73814 0.37964 0.0
C293 C 0.03739 0.76629 0.38814 0.0
C294 C 0.0198 0.73135 0.34253 0.0
C295 C 0.01954 0.7526 0.31355 0.0
C296 C 0.02845 0.78052 0.32189 0.0
H297 H 0.00981 0.77879 0.07513 0.0
H298 H 0.02233 0.76655 0.14117 0.0
C299 C 0.03731 0.78731 0.35874 0.0
C300 C 0.00903 0.74672 0.27471 0.0
H301 H 0.02364 0.71539 0.18812 0.0
C302 C 0.98711 0.76219 0.26322 0.0
C303 C 0.02206 0.72905 0.24774 0.0
C304 C 0.04592 0.71241 0.25881 0.0
C305 C 0.97853 0.76164 0.22488 0.0
C306 C 0.992 0.74465 0.1975 0.0
C307 C 0.0133 0.72818 0.20934 0.0
C308 C 0.98593 0.74666 0.15586 0.0
C309 C 0.95611 0.78066 0.21353 0.0
C310 C 0.96171 0.73839 0.14184 0.0
C311 C 0.95439 0.74559 0.10419 0.0
C312 C 0.9713 0.76099 0.07995 0.0
C313 C -0.00373 0.76716 0.09316 0.0
C314 C 0.0035 0.76007 0.13085 0.0
H315 H 0.95086 0.79622 0.23671 0.0
H316 H 0.96062 0.79308 0.18688 0.0
H317 H 0.93907 0.76691 0.20755 0.0
H318 H 0.94804 0.72761 0.1606 0.0
H319 H 0.93512 0.74021 0.09471 0.0
H320 H 0.05295 0.78167 0.59961 0.0
H321 H 0.03675 0.76902 0.6633 0.0
H322 H 0.96038 0.75866 0.61642 0.0
H323 H 0.9764 0.77211 0.55226 0.0
H324 H 0.96062 0.79398 0.6773 0.0
H325 H 0.01517 0.69573 0.71617 0.0
H326 H 0.03658 0.7237 0.7003 0.0
H327 H 0.01332 0.7089 0.66709 0.0
C328 C 0.03277 0.77624 0.60257 0.0
C329 C 0.01592 0.7781 0.57088 0.0
C330 C 0.02358 0.76867 0.63904 0.0
C331 C -0.00256 0.76238 0.64454 0.0
C332 C 0.98069 0.76319 0.61271 0.0
H333 H 0.9236 0.75617 0.87363 0.0
H334 H 0.93162 0.74529 0.80539 0.0
C335 C 0.98986 0.77091 0.57611 0.0
C336 C 0.98736 0.75869 0.68428 0.0
H337 H 0.0001 0.72516 0.77018 0.0
C338 C 0.96874 0.77841 0.69737 0.0
C339 C -0.00204 0.73835 0.71045 0.0
C340 C 0.01666 0.71529 0.69761 0.0
C341 C 0.96175 0.77965 0.73645 0.0
C342 C 0.97365 0.76062 0.76295 0.0
C343 C 0.99121 0.73986 0.74967 0.0
C344 C 0.96975 0.76397 0.80491 0.0
C345 C 0.94281 0.80237 0.74966 0.0
C346 C 0.98883 0.77745 0.82713 0.0
C347 C 0.98431 0.78387 0.86596 0.0
C348 C 0.96066 0.77672 0.88319 0.0
C349 C 0.942 0.76203 0.86117 0.0
C350 C 0.9465 0.75578 0.82224 0.0
H351 H 0.93677 0.81696 0.72577 0.0
H352 H 0.92541 0.79166 0.76157 0.0
H353 H 0.9514 0.81565 0.77309 0.0
H354 H 0.00688 0.78393 0.81406 0.0
H355 H -0.00089 0.79504 0.88216 0.0
H356 H -0.0045 0.16806 0.90427 0.0
H357 H 0.98664 0.18266 0.83787 0.0
H358 H 0.02824 0.26233 0.85602 0.0
H359 H 0.03801 0.24735 0.92233 0.0
H360 H 0.96197 0.22771 0.80633 0.0
H361 H 0.06504 0.22982 0.7632 0.0
H362 H 0.05448 0.21534 0.80891 0.0
H363 H 0.05675 0.25385 0.802 0.0
C364 C 0.00266 0.18877 0.89426 0.0
C365 C 0.01771 0.2064 0.91835 0.0
C366 C -0.00244 0.1971 0.85629 0.0
C367 C 0.00722 0.22331 0.84176 0.0
C368 C 0.02119 0.24166 0.86632 0.0
H369 H 0.95364 0.26753 0.60754 0.0
H370 H 0.96439 0.27363 0.67596 0.0
C371 C 0.02661 0.23315 0.90424 0.0
C372 C 0.00311 0.23064 0.80054 0.0
H373 H 0.03465 0.24064 0.71502 0.0
C374 C 0.97783 0.23082 0.78635 0.0
C375 C 0.02391 0.23447 0.7746 0.0
C376 C 0.05158 0.23314 0.78776 0.0
C377 C 0.97274 0.23347 0.74672 0.0
C378 C -0.00646 0.23706 0.72071 0.0
C379 C 0.01877 0.2381 0.73509 0.0
C380 C 0.98973 0.23644 0.67829 0.0
C381 C 0.94526 0.23066 0.73301 0.0
C382 C 0.00168 0.21468 0.6564 0.0
C383 C -0.00397 0.21154 0.61722 0.0
C384 C 0.97812 0.22997 0.59932 0.0
C385 C 0.96725 0.25277 0.62074 0.0
C386 C 0.97324 0.25616 0.65986 0.0
H387 H 0.93253 0.2214 0.75567 0.0
H388 H 0.93771 0.2524 0.72538 0.0
H389 H 0.94407 0.21669 0.70697 0.0
H390 H 0.01459 0.1993 0.66999 0.0
H391 H 0.00478 0.19381 0.60149 0.0
H392 H 0.51194 0.79704 0.07602 0.0
H393 H 0.49997 0.81731 0.13913 0.0
H394 H 0.52422 0.73822 0.19463 0.0
H395 H 0.53634 0.71804 0.13239 0.0
H396 H 0.46409 0.79604 0.19054 0.0
H397 H 0.55923 0.79947 0.26059 0.0
H398 H 0.55548 0.7965 0.20881 0.0
H399 H 0.55406 0.76469 0.23897 0.0
C400 C 0.51489 0.7841 0.10176 0.0
C401 C 0.52514 0.75595 0.09921 0.0
C402 C 0.50812 0.79574 0.13772 0.0
C403 C 0.5118 0.77953 0.17158 0.0
C404 C 0.52194 0.75145 0.16898 0.0
H405 H 0.43794 0.73636 0.36791 0.0
H406 H 0.45083 0.75207 0.30387 0.0
C407 C 0.52861 0.73982 0.13326 0.0
C408 C 0.50325 0.79041 0.20967 0.0
H409 H 0.52253 0.79137 0.30376 0.0
C410 C 0.47696 0.7959 0.21522 0.0
C411 C 0.52011 0.79112 0.24172 0.0
C412 C 0.54884 0.78796 0.23712 0.0
C413 C 0.46672 0.79876 0.25252 0.0
C414 C 0.48315 0.79544 0.28483 0.0
C415 C 0.50981 0.79335 0.27903 0.0
C416 C 0.47293 0.78889 0.3238 0.0
C417 C 0.4382 0.80381 0.25699 0.0
C418 C 0.48143 0.80406 0.35656 0.0
C419 C 0.47427 0.79485 0.39362 0.0
C420 C 0.45879 0.77013 0.39835 0.0
C421 C 0.44988 0.75548 0.36538 0.0
C422 C 0.45697 0.76468 0.32859 0.0
H423 H 0.43066 0.81714 0.23276 0.0
H424 H 0.42804 0.78269 0.25621 0.0
H425 H 0.43364 0.81477 0.28471 0.0
H426 H 0.49406 0.82257 0.35348 0.0
H427 H 0.48144 0.80657 0.41848 0.0
H428 H 0.51804 0.29956 0.37026 0.0
H429 H 0.50206 0.28411 0.30762 0.0
H430 H 0.53462 0.1992 0.32545 0.0
H431 H 0.55132 0.21478 0.38843 0.0
H432 H 0.54714 0.22073 0.25551 0.0
H433 H 0.44277 0.23336 0.27651 0.0
H434 H 0.45884 0.26579 0.29139 0.0
H435 H 0.465 0.2323 0.31661 0.0
C436 C 0.52156 0.27745 0.36124 0.0
C437 C 0.53598 0.2584 0.38435 0.0
C438 C 0.51218 0.26856 0.32548 0.0
C439 C 0.51668 0.24032 0.3122 0.0
C440 C 0.53072 0.221 0.33539 0.0
H441 H 0.44378 0.22853 0.08572 0.0
H442 H 0.45748 0.21035 0.14887 0.0
C443 C 0.54022 0.22994 0.37131 0.0
C444 C 0.50859 0.23236 0.27259 0.0
H445 H 0.45835 0.24108 0.21056 0.0
C446 C 0.52758 0.22441 0.24575 0.0
C447 C 0.48296 0.23627 0.25997 0.0
C448 C 0.46122 0.24206 0.28782 0.0
C449 C 0.52207 0.22308 0.20609 0.0
C450 C 0.49715 0.2307 0.19305 0.0
C451 C 0.47763 0.2358 0.2203 0.0
C452 C 0.49158 0.23716 0.1519 0.0
C453 C 0.54322 0.21438 0.1786 0.0
C454 C 0.50648 0.25779 0.13215 0.0
C455 C 0.49888 0.26793 0.09591 0.0
C456 C 0.47589 0.25814 0.07911 0.0
C457 C 0.46153 0.23661 0.09809 0.0
C458 C 0.46935 0.22616 0.13413 0.0
H459 H 0.55625 0.19827 0.19227 0.0
H460 H 0.53541 0.20502 0.15147 0.0
H461 H 0.55497 0.23368 0.17133 0.0
H462 H 0.52325 0.26734 0.14564 0.0
H463 H 0.51027 0.28464 0.08213 0.0
H464 H 0.40061 0.29407 0.8429 0.0
H465 H 0.41823 0.28678 0.77823 0.0
H466 H 0.48877 0.2543 0.82763 0.0
H467 H 0.47142 0.2618 0.89259 0.0
H468 H 0.4957 0.29897 0.77497 0.0
H469 H 0.43229 0.21425 0.71353 0.0
H470 H 0.41501 0.24396 0.73465 0.0
H471 H 0.43454 0.22109 0.76483 0.0
C472 C 0.41974 0.28498 0.84007 0.0
C473 C 0.43467 0.27863 0.87288 0.0
C474 C 0.42969 0.2806 0.80305 0.0
C475 C 0.45465 0.26963 0.79819 0.0
C476 C 0.46938 0.26258 0.83085 0.0
H477 H 0.5505 0.26919 0.59011 0.0
H478 H 0.53418 0.25845 0.65486 0.0
C479 C 0.45943 0.26691 0.8679 0.0
C480 C 0.46626 0.26842 0.75922 0.0
H481 H 0.45752 0.2415 0.66831 0.0
C482 C 0.48764 0.28607 0.75175 0.0
C483 C 0.45555 0.25166 0.72907 0.0
C484 C 0.43322 0.23145 0.73592 0.0
C485 C 0.49799 0.28839 0.71448 0.0
C486 C 0.48693 0.27213 0.68409 0.0
C487 C 0.46594 0.25389 0.69174 0.0
C488 C 0.496 0.27523 0.64381 0.0
C489 C 0.51991 0.30922 0.70765 0.0
C490 C 0.47956 0.28701 0.61576 0.0
C491 C 0.48874 0.29297 0.57867 0.0
C492 C 0.51453 0.28725 0.56908 0.0
C493 C 0.5306 0.27414 0.59673 0.0
C494 C 0.52136 0.26807 0.63376 0.0
H495 H 0.52236 0.32458 0.73208 0.0
H496 H 0.53808 0.29685 0.70438 0.0
H497 H 0.51678 0.32188 0.68075 0.0
H498 H 0.45988 0.29257 0.62298 0.0
H499 H 0.47583 0.30292 0.55798 0.0
H500 H 0.49001 0.67565 0.89438 0.0
H501 H 0.4819 0.68954 0.82753 0.0
H502 H 0.5234 0.76934 0.84517 0.0
H503 H 0.53251 0.755 0.91195 0.0
H504 H 0.458 0.73366 0.79344 0.0
H505 H 0.56189 0.73579 0.75497 0.0
H506 H 0.55051 0.72213 0.80067 0.0
H507 H 0.55267 0.76051 0.79251 0.0
C508 C 0.49726 0.69627 0.88419 0.0
C509 C 0.51219 0.71406 0.90826 0.0
C510 C 0.49259 0.70421 0.84594 0.0
C511 C 0.50253 0.73019 0.83109 0.0
C512 C 0.51619 0.74882 0.8557 0.0
H513 H 0.45298 0.76714 0.5925 0.0
H514 H 0.46252 0.77586 0.66083 0.0
C515 C 0.52121 0.74068 0.89389 0.0
C516 C 0.49922 0.73683 0.78948 0.0
H517 H 0.53245 0.74519 0.70507 0.0
C518 C 0.47424 0.73648 0.77409 0.0
C519 C 0.52051 0.7403 0.76435 0.0
C520 C 0.54792 0.73948 0.77879 0.0
C521 C 0.46996 0.73811 0.73414 0.0
C522 C 0.49127 0.74127 0.70895 0.0
C523 C 0.51617 0.74298 0.72448 0.0
C524 C 0.48839 0.73933 0.66641 0.0
C525 C 0.44281 0.73459 0.71931 0.0
C526 C 0.50111 0.71716 0.64629 0.0
C527 C 0.49618 0.71256 0.60714 0.0
C528 C 0.47821 0.72988 0.58751 0.0
C529 C 0.46665 0.75319 0.60708 0.0
C530 C 0.47194 0.75807 0.64615 0.0
H531 H 0.42969 0.7258 0.7418 0.0
H532 H 0.43524 0.75602 0.71028 0.0
H533 H 0.44229 0.7199 0.69394 0.0
H534 H 0.51402 0.70253 0.66128 0.0
H535 H 0.50546 0.69448 0.59287 0.0
H536 H 0.35271 0.21223 -0.00326 0.0
H537 H 0.30614 0.2049 0.00027 0.0
H538 H 0.29448 0.29731 0.00312 0.0
H539 H 0.34096 0.30494 -0.00071 0.0
H540 H 0.27204 0.22473 0.05919 0.0
H541 H 0.24709 0.26943 0.91482 0.0
H542 H 0.27947 0.259 0.92774 0.0
H543 H 0.26642 0.29275 0.94454 0.0
C544 C 0.34025 0.23102 -0.00205 0.0
C545 C 0.35052 0.25918 -0.00241 0.0
C546 C 0.31367 0.22677 1e-05 0.0
C547 C 0.29694 0.25057 0.00144 0.0
C548 C 0.3071 0.27869 0.00135 0.0
H549 H 0.13184 0.27178 0.01687 0.0
H550 H 0.17844 0.27858 0.01335 0.0
C551 C 0.33366 0.28297 -0.00064 0.0
C552 C 0.26886 0.24597 0.004 0.0
H553 H 0.21232 0.25837 0.95665 0.0
C554 C 0.25895 0.23193 0.03673 0.0
C555 C 0.25194 0.25551 0.97465 0.0
C556 C 0.2617 0.2698 0.93826 0.0
C557 C 0.23241 0.22762 0.04125 0.0
C558 C 0.21547 0.23714 0.01188 0.0
C559 C 0.2254 0.25114 0.97912 0.0
C560 C 0.18734 0.23282 0.01456 0.0
C561 C 0.22268 0.21353 0.0778 0.0
C562 C 0.17695 0.20482 0.01601 0.0
C563 C 0.15035 0.20084 0.01812 0.0
C564 C 0.13367 0.22483 0.0185 0.0
C565 C 0.14416 0.25285 0.01671 0.0
C566 C 0.17076 0.25679 0.01466 0.0
H567 H 0.23721 0.21436 0.10133 0.0
H568 H 0.20476 0.22415 0.08805 0.0
H569 H 0.2183 0.19044 0.0719 0.0
H570 H 0.18942 0.18603 0.01516 0.0
H571 H 0.14287 0.17897 0.01922 0.0
H572 H 0.62685 0.77913 -0.00231 0.0
H573 H 0.67342 0.78663 -0.00473 0.0
H574 H 0.68564 0.69472 0.00741 0.0
H575 H 0.63913 0.68691 0.00957 0.0
H576 H 0.71045 0.77061 0.05224 0.0
H577 H 0.72835 0.71689 0.91115 0.0
H578 H 0.69667 0.72818 0.92645 0.0
H579 H 0.7106 0.6955 0.94537 0.0
C580 C 0.63942 0.76048 -0.00031 0.0
C581 C 0.6293 0.7324 0.00366 0.0
C582 C 0.666 0.76483 -0.00166 0.0
C583 C 0.68287 0.74119 0.00065 0.0
C584 C 0.67287 0.71317 0.0049 0.0
H585 H 0.8476 0.71786 0.00132 0.0
H586 H 0.80086 0.71227 0.00354 0.0
C587 C 0.64631 0.70879 0.00631 0.0
C588 C 0.71098 0.74587 -0.00047 0.0
H589 H 0.76509 0.72983 0.94798 0.0
C590 C 0.72243 0.76187 0.02937 0.0
C591 C 0.72643 0.73438 0.96963 0.0
C592 C 0.71493 0.71798 0.93611 0.0
C593 C 0.74915 0.76611 0.0306 0.0
C594 C 0.76463 0.75447 0.0008 0.0
C595 C 0.75313 0.73865 0.97082 0.0
C596 C 0.79288 0.75818 0.0003 0.0
C597 C 0.76063 0.78235 0.06427 0.0
C598 C 0.80381 0.78586 -0.00254 0.0
C599 C 0.83052 0.78916 -0.00371 0.0
C600 C 0.84673 0.76478 -0.00236 0.0
C601 C 0.83567 0.73707 0.00029 0.0
C602 C 0.80898 0.73382 0.00152 0.0
H603 H 0.74714 0.78347 0.08914 0.0
H604 H 0.7788 0.77202 0.07404 0.0
H605 H 0.76508 0.80484 0.05515 0.0
H606 H 0.79168 0.8049 -0.0043 0.0
H607 H 0.83844 0.81078 -0.00598 0.0
H608 H 0.14984 0.82882 0.49086 0.0
H609 H 0.19631 0.82014 0.49345 0.0
H610 H 0.18276 0.72849 0.50535 0.0
H611 H 0.13634 0.73683 0.50268 0.0
H612 H 0.22522 0.7907 0.55435 0.0
H613 H 0.23245 0.73644 0.41128 0.0
H614 H 0.20522 0.75856 0.42478 0.0
H615 H 0.20827 0.72242 0.44339 0.0
C616 C 0.15674 0.80681 0.49399 0.0
C617 C 0.13942 0.78349 0.49638 0.0
C618 C 0.18326 0.80192 0.49552 0.0
C619 C 0.19285 0.77367 0.49913 0.0
C620 C 0.17566 0.7504 0.502 0.0
H621 H 0.34662 0.70034 0.50015 0.0
H622 H 0.30007 0.708 0.50299 0.0
C623 C 0.14916 0.75525 0.50062 0.0
C624 C 0.22089 0.7685 0.50006 0.0
H625 H 0.26999 0.73713 0.44979 0.0
C626 C 0.23508 0.77906 0.5315 0.0
C627 C 0.23353 0.7532 0.47023 0.0
C628 C 0.2192 0.74215 0.4353 0.0
C629 C 0.2617 0.77438 0.53415 0.0
C630 C 0.27441 0.75929 0.50413 0.0
C631 C 0.26015 0.74864 0.47278 0.0
C632 C 0.30259 0.75475 0.5042 0.0
C633 C 0.27588 0.78514 0.56939 0.0
C634 C 0.31938 0.77852 0.50373 0.0
C635 C 0.34595 0.77423 0.50223 0.0
C636 C 0.35621 0.74608 0.50079 0.0
C637 C 0.33933 0.72229 0.50127 0.0
C638 C 0.31274 0.72662 0.50288 0.0
H639 H 0.26261 0.78876 0.59411 0.0
H640 H 0.29104 0.76959 0.57842 0.0
H641 H 0.28525 0.80609 0.56249 0.0
H642 H 0.31191 0.80042 0.50385 0.0
H643 H 0.35842 0.79302 0.50166 0.0
H644 H 0.6516 0.30127 0.55731 0.0
H645 H 0.69671 0.28701 0.55021 0.0
H646 H 0.68555 0.27576 0.42763 0.0
H647 H 0.64057 0.29031 0.43428 0.0
H648 H 0.71558 0.23422 0.52111 0.0
H649 H 0.74953 0.32754 0.43348 0.0
H650 H 0.71948 0.32807 0.45967 0.0
H651 H 0.72182 0.30928 0.41434 0.0
C652 C 0.65878 0.29599 0.52879 0.0
C653 C 0.64252 0.29704 0.49634 0.0
C654 C 0.68453 0.2878 0.52481 0.0
C655 C 0.6945 0.2807 0.48834 0.0
C656 C 0.67835 0.28171 0.45591 0.0
H657 H 0.84551 0.22256 0.41128 0.0
H658 H 0.79977 0.23519 0.41504 0.0
C659 C 0.65261 0.2899 0.45983 0.0
C660 C 0.72158 0.2713 0.48444 0.0
H661 H 0.7788 0.28867 0.44194 0.0
C662 C 0.72945 0.24615 0.50391 0.0
C663 C 0.73951 0.28686 0.46178 0.0
C664 C 0.7323 0.31458 0.44136 0.0
C665 C 0.75482 0.236 0.50112 0.0
C666 C 0.7728 0.2517 0.47874 0.0
C667 C 0.76489 0.27668 0.45896 0.0
C668 C 0.80017 0.24315 0.47665 0.0
C669 C 0.76211 0.20839 0.52174 0.0
C670 C 0.81546 0.24367 0.51001 0.0
C671 C 0.84152 0.23653 0.50798 0.0
C672 C 0.85279 0.22884 0.47248 0.0
C673 C 0.83739 0.22829 0.43908 0.0
C674 C 0.81129 0.23553 0.44114 0.0
H675 H 0.74493 0.19515 0.52901 0.0
H676 H 0.77538 0.19514 0.50384 0.0
H677 H 0.77211 0.21385 0.54911 0.0
H678 H 0.80731 0.25001 0.53755 0.0
H679 H 0.85285 0.23728 0.53424 0.0
loop_
_geom_bond_atom_site_label_1
_geom_bond_atom_site_label_2
_geom_bond_distance
_geom_bond_site_symmetry_2
_ccdc_geom_bond_type
C0 O1 1.160 . S
C0 O7 1.185 1_554 S
O1 C0 1.160 . S
O2 Zn3 1.899 . S
O2 C10 1.284 . S
Zn3 O2 1.899 . S
Zn3 O4 2.032 1_554 S
Zn3 O7 2.086 1_554 S
Zn3 O12 1.977 1_554 S
O4 Zn3 2.032 1_556 S
O4 C8 1.278 . S
C5 O6 1.203 . S
C5 O12 1.267 1_554 S
O6 C5 1.203 . S
O7 C0 1.185 1_556 S
O7 Zn3 2.086 1_556 S
C8 O4 1.278 . S
C8 O9 1.211 . S
O9 C8 1.211 . S
C10 O2 1.284 . S
C10 O11 1.273 . S
O11 C10 1.273 . S
O12 Zn3 1.977 1_556 S
O12 C5 1.267 1_556 S
C13 O14 1.160 . S
C13 O20 1.185 1_554 S
O14 C13 1.160 . S
O15 Zn16 1.899 . S
O15 C23 1.284 . S
Zn16 O15 1.899 . S
Zn16 O17 2.032 1_554 S
Zn16 O20 2.086 1_554 S
Zn16 O25 1.977 1_554 S
O17 Zn16 2.032 1_556 S
O17 C21 1.278 . S
C18 O19 1.203 . S
C18 O25 1.267 1_554 S
O19 C18 1.203 . S
O20 C13 1.185 1_556 S
O20 Zn16 2.086 1_556 S
C21 O17 1.278 . S
C21 O22 1.211 . S
O22 C21 1.211 . S
C23 O15 1.284 . S
C23 O24 1.273 . S
O24 C23 1.273 . S
O25 Zn16 1.977 1_556 S
O25 C18 1.267 1_556 S
C26 O27 1.160 . S
C26 O33 1.185 . S
O27 C26 1.160 . S
O28 Zn29 1.899 . S
O28 C36 1.284 . S
Zn29 O28 1.899 . S
Zn29 O30 2.032 . S
Zn29 O33 2.086 . S
Zn29 O38 1.977 . S
O30 Zn29 2.032 . S
O30 C34 1.278 . S
C31 O32 1.203 . S
C31 O38 1.267 . S
O32 C31 1.203 . S
O33 C26 1.185 . S
O33 Zn29 2.086 . S
C34 O30 1.278 . S
C34 O35 1.211 . S
O35 C34 1.211 . S
C36 O28 1.284 . S
C36 O37 1.273 . S
O37 C36 1.273 . S
O38 Zn29 1.977 . S
O38 C31 1.267 . S
C39 O40 1.160 . S
C39 O46 1.185 . S
O40 C39 1.160 . S
O41 Zn42 1.899 . S
O41 C49 1.284 . S
Zn42 O41 1.899 . S
Zn42 O43 2.032 . S
Zn42 O46 2.086 . S
Zn42 O51 1.977 . S
O43 Zn42 2.032 . S
O43 C47 1.278 . S
C44 O45 1.203 . S
C44 O51 1.267 . S
O45 C44 1.203 . S
O46 C39 1.185 . S
O46 Zn42 2.086 . S
C47 O43 1.278 . S
C47 O48 1.211 . S
O48 C47 1.211 . S
C49 O41 1.284 . S
C49 O50 1.273 . S
O50 C49 1.273 . S
O51 Zn42 1.977 . S
O51 C44 1.267 . S
C52 O53 1.160 . S
C52 O59 1.185 1_554 S
O53 C52 1.160 . S
O54 Zn55 1.899 . S
O54 C62 1.284 . S
Zn55 O54 1.899 . S
Zn55 O56 2.032 1_554 S
Zn55 O59 2.086 1_554 S
Zn55 O64 1.977 1_554 S
O56 Zn55 2.032 1_556 S
O56 C60 1.278 . S
C57 O58 1.203 . S
C57 O64 1.267 1_554 S
O58 C57 1.203 . S
O59 C52 1.185 1_556 S
O59 Zn55 2.086 1_556 S
C60 O56 1.278 . S
C60 O61 1.211 . S
O61 C60 1.211 . S
C62 O54 1.284 . S
C62 O63 1.273 . S
O63 C62 1.273 . S
O64 Zn55 1.977 1_556 S
O64 C57 1.267 1_556 S
C65 O66 1.160 . S
C65 O72 1.185 1_554 S
O66 C65 1.160 . S
O67 Zn68 1.899 . S
O67 C75 1.284 . S
Zn68 O67 1.899 . S
Zn68 O69 2.032 1_554 S
Zn68 O72 2.086 1_554 S
Zn68 O77 1.977 1_554 S
O69 Zn68 2.032 1_556 S
O69 C73 1.278 . S
C70 O71 1.203 . S
C70 O77 1.267 1_554 S
O71 C70 1.203 . S
O72 C65 1.185 1_556 S
O72 Zn68 2.086 1_556 S
C73 O69 1.278 . S
C73 O74 1.211 . S
O74 C73 1.211 . S
C75 O67 1.284 . S
C75 O76 1.273 . S
O76 C75 1.273 . S
O77 Zn68 1.977 1_556 S
O77 C70 1.267 1_556 S
C78 O79 1.160 . S
C78 O85 1.185 . S
O79 C78 1.160 . S
O80 Zn81 1.899 . S
O80 C88 1.284 . S
Zn81 O80 1.899 . S
Zn81 O82 2.032 . S
Zn81 O85 2.086 . S
Zn81 O90 1.977 . S
O82 Zn81 2.032 . S
O82 C86 1.278 . S
C83 O84 1.203 . S
C83 O90 1.267 . S
O84 C83 1.203 . S
O85 C78 1.185 . S
O85 Zn81 2.086 . S
C86 O82 1.278 . S
C86 O87 1.211 . S
O87 C86 1.211 . S
C88 O80 1.284 . S
C88 O89 1.273 . S
O89 C88 1.273 . S
O90 Zn81 1.977 . S
O90 C83 1.267 . S
C91 O92 1.160 . S
C91 O98 1.185 . S
O92 C91 1.160 . S
O93 Zn94 1.899 . S
O93 C101 1.284 . S
Zn94 O93 1.899 . S
Zn94 O95 2.032 . S
Zn94 O98 2.086 . S
Zn94 O103 1.977 . S
O95 Zn94 2.032 . S
O95 C99 1.278 . S
C96 O97 1.203 . S
C96 O103 1.267 . S
O97 C96 1.203 . S
O98 C91 1.185 . S
O98 Zn94 2.086 . S
C99 O95 1.278 . S
C99 O100 1.211 . S
O100 C99 1.211 . S
C101 O93 1.284 . S
C101 O102 1.273 . S
O102 C101 1.273 . S
O103 Zn94 1.977 . S
O103 C96 1.267 . S
H104 C112 0.929 . S
H105 C114 0.930 . S
H106 C116 0.930 . S
H107 C119 0.929 . S
H108 C122 0.930 . S
H109 C124 0.960 . S
H110 C124 0.960 . S
H111 C124 0.960 . S
C112 H104 0.929 . S
C112 C113 1.377 1_556 S
C112 C114 1.384 . S
C113 C112 1.377 1_554 S
C113 C119 1.390 . S
C114 H105 0.930 . S
C114 C112 1.384 . S
C114 C115 1.372 1_556 S
C115 C114 1.372 1_554 S
C115 C116 1.400 . S
C115 C120 1.490 . S
C116 H106 0.930 . S
C116 C115 1.400 . S
C116 C119 1.386 . S
H117 C133 0.930 . S
H118 C134 0.931 . S
C119 H107 0.929 . S
C119 C113 1.390 . S
C119 C116 1.386 . S
C120 C115 1.490 . S
C120 C122 1.395 1_554 S
C120 C123 1.403 1_655 S
H121 C127 0.930 . S
C122 H108 0.930 . S
C122 C120 1.395 1_556 S
C122 C125 1.403 1_565 S
C123 C120 1.403 1_455 S
C123 C124 1.524 . S
C123 C127 1.400 1_565 S
C124 H109 0.960 . S
C124 H110 0.960 . S
C124 H111 0.960 . S
C124 C123 1.524 . S
C125 C122 1.403 1_545 S
C125 C126 1.405 1_655 S
C125 C129 1.495 . S
C126 C125 1.405 1_455 S
C126 C127 1.372 1_556 S
C126 C128 1.477 . S
C127 H121 0.930 . S
C127 C123 1.400 1_545 S
C127 C126 1.372 1_554 S
C128 C126 1.477 . S
C128 C130 1.381 . S
C128 C134 1.383 1_556 S
C129 C125 1.495 . S
C129 H135 0.959 . S
C129 H136 0.961 . S
C129 H137 0.960 . S
C130 C128 1.381 . S
C130 C131 1.394 . S
C130 H138 0.930 . S
C131 C130 1.394 . S
C131 C132 1.383 1_556 S
C131 H139 0.929 . S
C132 C131 1.383 1_554 S
C132 C133 1.377 . S
C133 H117 0.930 . S
C133 C132 1.377 . S
C133 C134 1.379 . S
C134 H118 0.931 . S
C134 C128 1.383 1_554 S
C134 C133 1.379 . S
H135 C129 0.959 . S
H136 C129 0.961 . S
H137 C129 0.960 . S
H138 C130 0.930 . S
H139 C131 0.929 . S
H140 C148 0.929 . S
H141 C150 0.930 . S
H142 C152 0.930 1_655 S
H143 C155 0.929 . S
H144 C158 0.930 . S
H145 C160 0.960 . S
H146 C160 0.960 . S
H147 C160 0.960 . S
C148 H140 0.929 . S
C148 C149 1.377 . S
C148 C150 1.384 . S
C149 C148 1.377 . S
C149 C155 1.390 . S
C150 H141 0.930 . S
C150 C148 1.384 . S
C150 C151 1.372 . S
C151 C150 1.372 . S
C151 C152 1.400 . S
C151 C156 1.490 . S
C152 H142 0.930 1_455 S
C152 C151 1.400 . S
C152 C155 1.386 . S
H153 C169 0.930 . S
H154 C170 0.931 . S
C155 H143 0.929 . S
C155 C149 1.390 . S
C155 C152 1.386 . S
C156 C151 1.490 . S
C156 C158 1.395 . S
C156 C159 1.403 1_455 S
H157 C163 0.930 . S
C158 H144 0.930 . S
C158 C156 1.395 . S
C158 C161 1.403 1_565 S
C159 C156 1.403 1_655 S
C159 C160 1.524 . S
C159 C163 1.400 1_565 S
C160 H145 0.960 . S
C160 H146 0.960 . S
C160 H147 0.960 . S
C160 C159 1.524 . S
C161 C158 1.403 1_545 S
C161 C162 1.392 1_455 S
C161 C165 1.495 . S
C162 C161 1.392 1_655 S
C162 C163 1.385 . S
C162 C164 1.478 . S
C163 H157 0.930 . S
C163 C159 1.400 1_545 S
C163 C162 1.385 . S
C164 C162 1.478 . S
C164 C166 1.381 . S
C164 C170 1.383 . S
C165 C161 1.495 . S
C165 H171 0.959 . S
C165 H172 0.961 . S
C165 H173 0.960 . S
C166 C164 1.381 . S
C166 C167 1.394 . S
C166 H174 0.930 1_655 S
C167 C166 1.394 . S
C167 C168 1.383 . S
C167 H175 0.929 . S
C168 C167 1.383 . S
C168 C169 1.377 . S
C169 H153 0.930 . S
C169 C168 1.377 . S
C169 C170 1.379 . S
C170 H154 0.931 . S
C170 C164 1.383 . S
C170 C169 1.379 . S
H171 C165 0.959 . S
H172 C165 0.961 . S
H173 C165 0.960 . S
H174 C166 0.930 1_455 S
H175 C167 0.929 . S
H176 C184 0.929 . S
H177 C186 0.930 . S
H178 C188 0.930 . S
H179 C191 0.929 . S
H180 C194 0.930 . S
H181 C196 0.960 . S
H182 C196 0.960 . S
H183 C196 0.960 . S
C184 H176 0.929 . S
C184 C185 1.377 . S
C184 C186 1.384 . S
C185 C184 1.377 . S
C185 C191 1.390 1_554 S
C186 H177 0.930 . S
C186 C184 1.384 . S
C186 C187 1.372 . S
C187 C186 1.372 . S
C187 C188 1.400 1_554 S
C187 C192 1.490 . S
C188 H178 0.930 . S
C188 C187 1.400 1_556 S
C188 C191 1.386 . S
H189 C205 0.930 . S
H190 C206 0.931 . S
C191 H179 0.929 . S
C191 C185 1.390 1_556 S
C191 C188 1.386 . S
C192 C187 1.490 . S
C192 C194 1.395 1_554 S
C192 C195 1.403 . S
H193 C199 0.930 . S
C194 H180 0.930 . S
C194 C192 1.395 1_556 S
C194 C197 1.403 . S
C195 C192 1.403 . S
C195 C196 1.524 . S
C195 C199 1.400 . S
C196 H181 0.960 . S
C196 H182 0.960 . S
C196 H183 0.960 . S
C196 C195 1.524 . S
C197 C194 1.403 . S
C197 C198 1.392 1_556 S
C197 C201 1.495 . S
C198 C197 1.392 1_554 S
C198 C199 1.385 . S
C198 C200 1.478 . S
C199 H193 0.930 . S
C199 C195 1.400 . S
C199 C198 1.385 . S
C200 C198 1.478 . S
C200 C202 1.381 . S
C200 C206 1.383 1_554 S
C201 C197 1.495 . S
C201 H207 0.959 . S
C201 H208 0.961 . S
C201 H209 0.960 . S
C202 C200 1.381 . S
C202 C203 1.394 . S
C202 H210 0.930 . S
C203 C202 1.394 . S
C203 C204 1.383 . S
C203 H211 0.929 . S
C204 C203 1.383 . S
C204 C205 1.377 1_554 S
C205 H189 0.930 . S
C205 C204 1.377 1_556 S
C205 C206 1.379 . S
C206 H190 0.931 . S
C206 C200 1.383 1_556 S
C206 C205 1.379 . S
H207 C201 0.959 . S
H208 C201 0.961 . S
H209 C201 0.960 . S
H210 C202 0.930 . S
H211 C203 0.929 . S
H212 C220 0.929 . S
H213 C222 0.930 . S
H214 C224 0.930 . S
H215 C227 0.929 . S
H216 C230 0.930 . S
H217 C232 0.960 . S
H218 C232 0.960 . S
H219 C232 0.960 . S
C220 H212 0.929 . S
C220 C221 1.377 . S
C220 C222 1.384 . S
C221 C220 1.377 . S
C221 C227 1.390 . S
C222 H213 0.930 . S
C222 C220 1.384 . S
C222 C223 1.372 . S
C223 C222 1.372 . S
C223 C224 1.400 . S
C223 C228 1.490 . S
C224 H214 0.930 . S
C224 C223 1.400 . S
C224 C227 1.386 . S
H225 C241 0.930 . S
H226 C242 0.931 . S
C227 H215 0.929 . S
C227 C221 1.390 . S
C227 C224 1.386 . S
C228 C223 1.490 . S
C228 C230 1.395 . S
C228 C231 1.403 . S
H229 C235 0.930 . S
C230 H216 0.930 . S
C230 C228 1.395 . S
C230 C233 1.403 . S
C231 C228 1.403 . S
C231 C232 1.524 . S
C231 C235 1.400 . S
C232 H217 0.960 . S
C232 H218 0.960 . S
C232 H219 0.960 . S
C232 C231 1.524 . S
C233 C230 1.403 . S
C233 C234 1.392 . S
C233 C237 1.495 . S
C234 C233 1.392 . S
C234 C235 1.385 . S
C234 C236 1.478 . S
C235 H229 0.930 . S
C235 C231 1.400 . S
C235 C234 1.385 . S
C236 C234 1.478 . S
C236 C238 1.381 . S
C236 C242 1.383 . S
C237 C233 1.495 . S
C237 H243 0.959 . S
C237 H244 0.961 . S
C237 H245 0.960 . S
C238 C236 1.381 . S
C238 C239 1.394 . S
C238 H246 0.930 . S
C239 C238 1.394 . S
C239 C240 1.383 . S
C239 H247 0.929 . S
C240 C239 1.383 . S
C240 C241 1.377 . S
C241 H225 0.930 . S
C241 C240 1.377 . S
C241 C242 1.379 . S
C242 H226 0.931 . S
C242 C236 1.383 . S
C242 C241 1.379 . S
H243 C237 0.959 . S
H244 C237 0.961 . S
H245 C237 0.960 . S
H246 C238 0.930 . S
H247 C239 0.929 . S
H248 C256 0.929 . S
H249 C258 0.930 . S
H250 C260 0.930 . S
H251 C263 0.929 . S
H252 C266 0.930 . S
H253 C268 0.960 . S
H254 C268 0.960 . S
H255 C268 0.960 . S
C256 H248 0.929 . S
C256 C257 1.377 . S
C256 C258 1.384 . S
C257 C256 1.377 . S
C257 C263 1.390 . S
C258 H249 0.930 . S
C258 C256 1.384 . S
C258 C259 1.372 . S
C259 C258 1.372 . S
C259 C260 1.400 . S
C259 C264 1.490 . S
C260 H250 0.930 . S
C260 C259 1.400 . S
C260 C263 1.386 . S
H261 C277 0.930 . S
H262 C278 0.931 . S
C263 H251 0.929 . S
C263 C257 1.390 . S
C263 C260 1.386 . S
C264 C259 1.490 . S
C264 C266 1.395 1_455 S
C264 C267 1.403 . S
H265 C271 0.930 . S
C266 H252 0.930 . S
C266 C264 1.395 1_655 S
C266 C269 1.403 . S
C267 C264 1.403 . S
C267 C268 1.524 . S
C267 C271 1.400 . S
C268 H253 0.960 . S
C268 H254 0.960 . S
C268 H255 0.960 . S
C268 C267 1.524 . S
C269 C266 1.403 . S
C269 C270 1.392 . S
C269 C273 1.495 . S
C270 C269 1.392 . S
C270 C271 1.385 1_655 S
C270 C272 1.478 . S
C271 H265 0.930 . S
C271 C267 1.400 . S
C271 C270 1.385 1_455 S
C272 C270 1.478 . S
C272 C274 1.381 . S
C272 C278 1.383 . S
C273 C269 1.495 . S
C273 H279 0.959 . S
C273 H280 0.961 . S
C273 H281 0.960 . S
C274 C272 1.381 . S
C274 C275 1.394 . S
C274 H282 0.930 . S
C275 C274 1.394 . S
C275 C276 1.383 . S
C275 H283 0.929 . S
C276 C275 1.383 . S
C276 C277 1.377 . S
C277 H261 0.930 . S
C277 C276 1.377 . S
C277 C278 1.379 . S
C278 H262 0.931 . S
C278 C272 1.383 . S
C278 C277 1.379 . S
H279 C273 0.959 . S
H280 C273 0.961 . S
H281 C273 0.960 . S
H282 C274 0.930 . S
H283 C275 0.929 . S
H284 C292 0.941 . S
H285 C294 0.930 . S
H286 C296 0.930 . S
H287 C299 0.929 . S
H288 C302 0.930 . S
H289 C304 0.960 . S
H290 C304 0.960 . S
H291 C304 0.960 . S
C292 H284 0.941 . S
C292 C293 1.362 1_655 S
C292 C294 1.388 . S
C293 C292 1.362 1_455 S
C293 C299 1.390 . S
C294 H285 0.930 . S
C294 C292 1.388 . S
C294 C295 1.372 1_655 S
C295 C294 1.372 1_455 S
C295 C296 1.400 . S
C295 C300 1.490 . S
C296 H286 0.930 . S
C296 C295 1.400 . S
C296 C299 1.386 . S
H297 C313 0.926 1_455 S
H298 C314 0.931 . S
C299 H287 0.929 . S
C299 C293 1.390 . S
C299 C296 1.386 . S
C300 C295 1.490 . S
C300 C302 1.395 1_455 S
C300 C303 1.403 . S
H301 C307 0.936 . S
C302 H288 0.930 . S
C302 C300 1.395 1_655 S
C302 C305 1.403 . S
C303 C300 1.403 . S
C303 C304 1.524 . S
C303 C307 1.410 . S
C304 H289 0.960 . S
C304 H290 0.960 . S
C304 H291 0.960 . S
C304 C303 1.524 . S
C305 C302 1.403 . S
C305 C306 1.392 . S
C305 C309 1.495 . S
C306 C305 1.392 . S
C306 C307 1.371 1_655 S
C306 C308 1.478 . S
C307 H301 0.936 . S
C307 C303 1.410 . S
C307 C306 1.371 1_455 S
C308 C306 1.478 . S
C308 C310 1.381 . S
C308 C314 1.383 1_655 S
C309 C305 1.495 . S
C309 H315 0.959 . S
C309 H316 0.961 . S
C309 H317 0.960 . S
C310 C308 1.381 . S
C310 C311 1.394 . S
C310 H318 0.930 . S
C311 C310 1.394 . S
C311 C312 1.383 . S
C311 H319 0.929 . S
C312 C311 1.383 . S
C312 C313 1.381 . S
C313 H297 0.926 1_655 S
C313 C312 1.381 . S
C313 C314 1.379 1_655 S
C314 H298 0.931 . S
C314 C308 1.383 1_455 S
C314 C313 1.379 1_455 S
H315 C309 0.959 . S
H316 C309 0.961 . S
H317 C309 0.960 . S
H318 C310 0.930 . S
H319 C311 0.929 . S
H320 C328 0.929 . S
H321 C330 0.930 . S
H322 C332 0.923 1_655 S
H323 C335 0.929 1_655 S
H324 C338 0.930 . S
H325 C340 0.960 . S
H326 C340 0.960 . S
H327 C340 0.960 . S
C328 H320 0.929 . S
C328 C329 1.377 . S
C328 C330 1.384 . S
C329 C328 1.377 . S
C329 C335 1.390 . S
C330 H321 0.930 . S
C330 C328 1.384 . S
C330 C331 1.372 . S
C331 C330 1.372 . S
C331 C332 1.404 . S
C331 C336 1.490 . S
C332 H322 0.923 1_455 S
C332 C331 1.404 . S
C332 C335 1.388 . S
H333 C349 0.930 . S
H334 C350 0.931 . S
C335 H323 0.929 1_455 S
C335 C329 1.390 . S
C335 C332 1.388 . S
C336 C331 1.490 . S
C336 C338 1.395 . S
C336 C339 1.403 . S
H337 C343 0.930 . S
C338 H324 0.930 . S
C338 C336 1.395 . S
C338 C341 1.403 1_455 S
C339 C336 1.403 . S
C339 C340 1.524 . S
C339 C343 1.400 1_455 S
C340 H325 0.960 . S
C340 H326 0.960 . S
C340 H327 0.960 . S
C340 C339 1.524 . S
C341 C338 1.403 1_655 S
C341 C342 1.392 . S
C341 C345 1.495 . S
C342 C341 1.392 . S
C342 C343 1.385 . S
C342 C344 1.478 . S
C343 H337 0.930 . S
C343 C339 1.400 1_655 S
C343 C342 1.385 . S
C344 C342 1.478 . S
C344 C346 1.381 1_655 S
C344 C350 1.383 . S
C345 C341 1.495 . S
C345 H351 0.959 . S
C345 H352 0.961 . S
C345 H353 0.945 1_655 S
C346 C344 1.381 1_455 S
C346 C347 1.394 1_455 S
C346 H354 0.930 . S
C347 C346 1.394 1_655 S
C347 C348 1.383 . S
C347 H355 0.929 1_655 S
C348 C347 1.383 . S
C348 C349 1.377 . S
C349 H333 0.930 . S
C349 C348 1.377 . S
C349 C350 1.379 . S
C350 H334 0.931 . S
C350 C344 1.383 . S
C350 C349 1.379 . S
H351 C345 0.959 . S
H352 C345 0.961 . S
H353 C345 0.945 1_455 S
H354 C346 0.930 . S
H355 C347 0.929 1_455 S
H356 C364 0.929 . S
H357 C366 0.930 . S
H358 C368 0.930 . S
H359 C371 0.929 . S
H360 C374 0.930 . S
H361 C376 0.960 . S
H362 C376 0.960 . S
H363 C376 0.960 . S
C364 H356 0.929 . S
C364 C365 1.377 . S
C364 C366 1.384 . S
C365 C364 1.377 . S
C365 C371 1.390 . S
C366 H357 0.930 . S
C366 C364 1.384 . S
C366 C367 1.372 . S
C367 C366 1.372 . S
C367 C368 1.400 . S
C367 C372 1.490 . S
C368 H358 0.930 . S
C368 C367 1.400 . S
C368 C371 1.386 . S
H369 C385 0.930 . S
H370 C386 0.931 . S
C371 H359 0.929 . S
C371 C365 1.390 . S
C371 C368 1.386 . S
C372 C367 1.490 . S
C372 C374 1.395 1_455 S
C372 C375 1.403 . S
H373 C379 0.930 . S
C374 H360 0.930 . S
C374 C372 1.395 1_655 S
C374 C377 1.403 . S
C375 C372 1.403 . S
C375 C376 1.524 . S
C375 C379 1.400 . S
C376 H361 0.960 . S
C376 H362 0.960 . S
C376 H363 0.960 . S
C376 C375 1.524 . S
C377 C374 1.403 . S
C377 C378 1.392 . S
C377 C381 1.495 . S
C378 C377 1.392 . S
C378 C379 1.385 1_655 S
C378 C380 1.478 . S
C379 H373 0.930 . S
C379 C375 1.400 . S
C379 C378 1.385 1_455 S
C380 C378 1.478 . S
C380 C382 1.381 . S
C380 C386 1.383 . S
C381 C377 1.495 . S
C381 H387 0.959 . S
C381 H388 0.961 . S
C381 H389 0.960 . S
C382 C380 1.381 . S
C382 C383 1.394 . S
C382 H390 0.930 . S
C383 C382 1.394 . S
C383 C384 1.383 . S
C383 H391 0.929 . S
C384 C383 1.383 . S
C384 C385 1.377 . S
C385 H369 0.930 . S
C385 C384 1.377 . S
C385 C386 1.379 . S
C386 H370 0.931 . S
C386 C380 1.383 . S
C386 C385 1.379 . S
H387 C381 0.959 . S
H388 C381 0.961 . S
H389 C381 0.960 . S
H390 C382 0.930 . S
H391 C383 0.929 . S
H392 C400 0.929 . S
H393 C402 0.930 . S
H394 C404 0.930 . S
H395 C407 0.929 . S
H396 C410 0.930 . S
H397 C412 0.960 . S
H398 C412 0.960 . S
H399 C412 0.960 . S
C400 H392 0.929 . S
C400 C401 1.377 . S
C400 C402 1.384 . S
C401 C400 1.377 . S
C401 C407 1.390 . S
C402 H393 0.930 . S
C402 C400 1.384 . S
C402 C403 1.372 . S
C403 C402 1.372 . S
C403 C404 1.400 . S
C403 C408 1.490 . S
C404 H394 0.930 . S
C404 C403 1.400 . S
C404 C407 1.386 . S
H405 C421 0.930 . S
H406 C422 0.931 . S
C407 H395 0.929 . S
C407 C401 1.390 . S
C407 C404 1.386 . S
C408 C403 1.490 . S
C408 C410 1.395 . S
C408 C411 1.403 . S
H409 C415 0.930 . S
C410 H396 0.930 . S
C410 C408 1.395 . S
C410 C413 1.403 . S
C411 C408 1.403 . S
C411 C412 1.524 . S
C411 C415 1.400 . S
C412 H397 0.960 . S
C412 H398 0.960 . S
C412 H399 0.960 . S
C412 C411 1.524 . S
C413 C410 1.403 . S
C413 C414 1.392 . S
C413 C417 1.495 . S
C414 C413 1.392 . S
C414 C415 1.385 . S
C414 C416 1.478 . S
C415 H409 0.930 . S
C415 C411 1.400 . S
C415 C414 1.385 . S
C416 C414 1.478 . S
C416 C418 1.381 . S
C416 C422 1.383 . S
C417 C413 1.495 . S
C417 H423 0.959 . S
C417 H424 0.961 . S
C417 H425 0.960 . S
C418 C416 1.381 . S
C418 C419 1.394 . S
C418 H426 0.930 . S
C419 C418 1.394 . S
C419 C420 1.383 . S
C419 H427 0.929 . S
C420 C419 1.383 . S
C420 C421 1.377 . S
C421 H405 0.930 . S
C421 C420 1.377 . S
C421 C422 1.379 . S
C422 H406 0.931 . S
C422 C416 1.383 . S
C422 C421 1.379 . S
H423 C417 0.959 . S
H424 C417 0.961 . S
H425 C417 0.960 . S
H426 C418 0.930 . S
H427 C419 0.929 . S
H428 C436 0.929 . S
H429 C438 0.930 . S
H430 C440 0.930 . S
H431 C443 0.929 . S
H432 C446 0.930 . S
H433 C448 0.960 . S
H434 C448 0.960 . S
H435 C448 0.960 . S
C436 H428 0.929 . S
C436 C437 1.377 . S
C436 C438 1.384 . S
C437 C436 1.377 . S
C437 C443 1.390 . S
C438 H429 0.930 . S
C438 C436 1.384 . S
C438 C439 1.372 . S
C439 C438 1.372 . S
C439 C440 1.400 . S
C439 C444 1.490 . S
C440 H430 0.930 . S
C440 C439 1.400 . S
C440 C443 1.386 . S
H441 C457 0.930 . S
H442 C458 0.931 . S
C443 H431 0.929 . S
C443 C437 1.390 . S
C443 C440 1.386 . S
C444 C439 1.490 . S
C444 C446 1.395 . S
C444 C447 1.403 . S
H445 C451 0.930 . S
C446 H432 0.930 . S
C446 C444 1.395 . S
C446 C449 1.403 . S
C447 C444 1.403 . S
C447 C448 1.524 . S
C447 C451 1.400 . S
C448 H433 0.960 . S
C448 H434 0.960 . S
C448 H435 0.960 . S
C448 C447 1.524 . S
C449 C446 1.403 . S
C449 C450 1.392 . S
C449 C453 1.495 . S
C450 C449 1.392 . S
C450 C451 1.385 . S
C450 C452 1.478 . S
C451 H445 0.930 . S
C451 C447 1.400 . S
C451 C450 1.385 . S
C452 C450 1.478 . S
C452 C454 1.381 . S
C452 C458 1.383 . S
C453 C449 1.495 . S
C453 H459 0.959 . S
C453 H460 0.961 . S
C453 H461 0.960 . S
C454 C452 1.381 . S
C454 C455 1.394 . S
C454 H462 0.930 . S
C455 C454 1.394 . S
C455 C456 1.383 . S
C455 H463 0.929 . S
C456 C455 1.383 . S
C456 C457 1.377 . S
C457 H441 0.930 . S
C457 C456 1.377 . S
C457 C458 1.379 . S
C458 H442 0.931 . S
C458 C452 1.383 . S
C458 C457 1.379 . S
H459 C453 0.959 . S
H460 C453 0.961 . S
H461 C453 0.960 . S
H462 C454 0.930 . S
H463 C455 0.929 . S
H464 C472 0.929 . S
H465 C474 0.930 . S
H466 C476 0.930 . S
H467 C479 0.929 . S
H468 C482 0.930 . S
H469 C484 0.960 . S
H470 C484 0.960 . S
H471 C484 0.960 . S
C472 H464 0.929 . S
C472 C473 1.377 . S
C472 C474 1.384 . S
C473 C472 1.377 . S
C473 C479 1.390 . S
C474 H465 0.930 . S
C474 C472 1.384 . S
C474 C475 1.372 . S
C475 C474 1.372 . S
C475 C476 1.400 . S
C475 C480 1.490 . S
C476 H466 0.930 . S
C476 C475 1.400 . S
C476 C479 1.386 . S
H477 C493 0.930 . S
H478 C494 0.931 . S
C479 H467 0.929 . S
C479 C473 1.390 . S
C479 C476 1.386 . S
C480 C475 1.490 . S
C480 C482 1.395 . S
C480 C483 1.403 . S
H481 C487 0.930 . S
C482 H468 0.930 . S
C482 C480 1.395 . S
C482 C485 1.403 . S
C483 C480 1.403 . S
C483 C484 1.524 . S
C483 C487 1.400 . S
C484 H469 0.960 . S
C484 H470 0.960 . S
C484 H471 0.960 . S
C484 C483 1.524 . S
C485 C482 1.403 . S
C485 C486 1.392 . S
C485 C489 1.495 . S
C486 C485 1.392 . S
C486 C487 1.385 . S
C486 C488 1.478 . S
C487 H481 0.930 . S
C487 C483 1.400 . S
C487 C486 1.385 . S
C488 C486 1.478 . S
C488 C490 1.381 . S
C488 C494 1.383 . S
C489 C485 1.495 . S
C489 H495 0.959 . S
C489 H496 0.961 . S
C489 H497 0.960 . S
C490 C488 1.381 . S
C490 C491 1.394 . S
C490 H498 0.930 . S
C491 C490 1.394 . S
C491 C492 1.383 . S
C491 H499 0.929 . S
C492 C491 1.383 . S
C492 C493 1.377 . S
C493 H477 0.930 . S
C493 C492 1.377 . S
C493 C494 1.379 . S
C494 H478 0.931 . S
C494 C488 1.383 . S
C494 C493 1.379 . S
H495 C489 0.959 . S
H496 C489 0.961 . S
H497 C489 0.960 . S
H498 C490 0.930 . S
H499 C491 0.929 . S
H500 C508 0.929 . S
H501 C510 0.930 . S
H502 C512 0.930 . S
H503 C515 0.929 . S
H504 C518 0.930 . S
H505 C520 0.960 . S
H506 C520 0.960 . S
H507 C520 0.960 . S
C508 H500 0.929 . S
C508 C509 1.377 . S
C508 C510 1.384 . S
C509 C508 1.377 . S
C509 C515 1.390 . S
C510 H501 0.930 . S
C510 C508 1.384 . S
C510 C511 1.372 . S
C511 C510 1.372 . S
C511 C512 1.400 . S
C511 C516 1.490 . S
C512 H502 0.930 . S
C512 C511 1.400 . S
C512 C515 1.386 . S
H513 C529 0.930 . S
H514 C530 0.931 . S
C515 H503 0.929 . S
C515 C509 1.390 . S
C515 C512 1.386 . S
C516 C511 1.490 . S
C516 C518 1.395 . S
C516 C519 1.403 . S
H517 C523 0.930 . S
C518 H504 0.930 . S
C518 C516 1.395 . S
C518 C521 1.403 . S
C519 C516 1.403 . S
C519 C520 1.524 . S
C519 C523 1.400 . S
C520 H505 0.960 . S
C520 H506 0.960 . S
C520 H507 0.960 . S
C520 C519 1.524 . S
C521 C518 1.403 . S
C521 C522 1.392 . S
C521 C525 1.495 . S
C522 C521 1.392 . S
C522 C523 1.385 . S
C522 C524 1.478 . S
C523 H517 0.930 . S
C523 C519 1.400 . S
C523 C522 1.385 . S
C524 C522 1.478 . S
C524 C526 1.381 . S
C524 C530 1.383 . S
C525 C521 1.495 . S
C525 H531 0.959 . S
C525 H532 0.961 . S
C525 H533 0.960 . S
C526 C524 1.381 . S
C526 C527 1.394 . S
C526 H534 0.930 . S
C527 C526 1.394 . S
C527 C528 1.383 . S
C527 H535 0.929 . S
C528 C527 1.383 . S
C528 C529 1.377 . S
C529 H513 0.930 . S
C529 C528 1.377 . S
C529 C530 1.379 . S
C530 H514 0.931 . S
C530 C524 1.383 . S
C530 C529 1.379 . S
H531 C525 0.959 . S
H532 C525 0.961 . S
H533 C525 0.960 . S
H534 C526 0.930 . S
H535 C527 0.929 . S
H536 C544 0.929 . S
H537 C546 0.930 . S
H538 C548 0.930 . S
H539 C551 0.929 . S
H540 C554 0.930 . S
H541 C556 0.960 . S
H542 C556 0.960 . S
H543 C556 0.960 . S
C544 H536 0.929 . S
C544 C545 1.377 1_554 S
C544 C546 1.384 . S
C545 C544 1.377 1_556 S
C545 C551 1.390 . S
C546 H537 0.930 . S
C546 C544 1.384 . S
C546 C547 1.372 . S
C547 C546 1.372 . S
C547 C548 1.400 1_554 S
C547 C552 1.490 . S
C548 H538 0.930 . S
C548 C547 1.400 1_556 S
C548 C551 1.386 . S
H549 C565 0.930 . S
H550 C566 0.931 . S
C551 H539 0.929 . S
C551 C545 1.390 . S
C551 C548 1.386 . S
C552 C547 1.490 . S
C552 C554 1.395 . S
C552 C555 1.403 1_554 S
H553 C559 0.930 . S
C554 H540 0.930 . S
C554 C552 1.395 . S
C554 C557 1.403 . S
C555 C552 1.403 1_556 S
C555 C556 1.524 . S
C555 C559 1.400 . S
C556 H541 0.960 . S
C556 H542 0.960 . S
C556 H543 0.960 . S
C556 C555 1.524 . S
C557 C554 1.403 . S
C557 C558 1.392 . S
C557 C561 1.495 . S
C558 C557 1.392 . S
C558 C559 1.385 1_554 S
C558 C560 1.478 . S
C559 H553 0.930 . S
C559 C555 1.400 . S
C559 C558 1.385 1_556 S
C560 C558 1.478 . S
C560 C562 1.381 . S
C560 C566 1.383 1_554 S
C561 C557 1.495 . S
C561 H567 0.959 . S
C561 H568 0.961 . S
C561 H569 0.960 . S
C562 C560 1.381 . S
C562 C563 1.394 . S
C562 H570 0.930 . S
C563 C562 1.394 . S
C563 C564 1.383 . S
C563 H571 0.929 . S
C564 C563 1.383 . S
C564 C565 1.377 1_554 S
C565 H549 0.930 . S
C565 C564 1.377 1_556 S
C565 C566 1.379 . S
C566 H550 0.931 . S
C566 C560 1.383 1_556 S
C566 C565 1.379 . S
H567 C561 0.959 . S
H568 C561 0.961 . S
H569 C561 0.960 . S
H570 C562 0.930 . S
H571 C563 0.929 . S
H572 C580 0.929 . S
H573 C582 0.930 . S
H574 C584 0.930 . S
H575 C587 0.929 . S
H576 C590 0.930 . S
H577 C592 0.960 . S
H578 C592 0.960 . S
H579 C592 0.960 . S
C580 H572 0.929 . S
C580 C581 1.374 1_554 S
C580 C582 1.384 . S
C581 C580 1.374 1_556 S
C581 C587 1.393 . S
C582 H573 0.930 . S
C582 C580 1.384 . S
C582 C583 1.380 . S
C583 C582 1.380 . S
C583 C584 1.391 1_554 S
C583 C588 1.491 . S
C584 H574 0.930 . S
C584 C583 1.391 1_556 S
C584 C587 1.386 . S
H585 C601 0.930 . S
H586 C602 0.931 . S
C587 H575 0.929 . S
C587 C581 1.393 . S
C587 C584 1.386 . S
C588 C583 1.491 . S
C588 C590 1.395 . S
C588 C591 1.403 1_554 S
H589 C595 0.930 . S
C590 H576 0.930 . S
C590 C588 1.395 . S
C590 C593 1.403 . S
C591 C588 1.403 1_556 S
C591 C592 1.524 . S
C591 C595 1.400 . S
C592 H577 0.960 . S
C592 H578 0.960 . S
C592 H579 0.960 . S
C592 C591 1.524 . S
C593 C590 1.403 . S
C593 C594 1.392 . S
C593 C597 1.495 . S
C594 C593 1.392 . S
C594 C595 1.385 1_554 S
C594 C596 1.478 . S
C595 H589 0.930 . S
C595 C591 1.400 . S
C595 C594 1.385 1_556 S
C596 C594 1.478 . S
C596 C598 1.381 . S
C596 C602 1.383 1_554 S
C597 C593 1.495 . S
C597 H603 0.959 . S
C597 H604 0.961 . S
C597 H605 0.960 . S
C598 C596 1.381 . S
C598 C599 1.394 . S
C598 H606 0.930 . S
C599 C598 1.394 . S
C599 C600 1.383 . S
C599 H607 0.929 . S
C600 C599 1.383 . S
C600 C601 1.377 1_554 S
C601 H585 0.930 . S
C601 C600 1.377 1_556 S
C601 C602 1.379 . S
C602 H586 0.931 . S
C602 C596 1.383 1_556 S
C602 C601 1.379 . S
H603 C597 0.959 . S
H604 C597 0.961 . S
H605 C597 0.960 . S
H606 C598 0.930 . S
H607 C599 0.929 . S
H608 C616 0.929 . S
H609 C618 0.930 . S
H610 C620 0.930 . S
H611 C623 0.929 . S
H612 C626 0.930 . S
H613 C628 0.960 . S
H614 C628 0.960 . S
H615 C628 0.960 . S
C616 H608 0.929 . S
C616 C617 1.377 . S
C616 C618 1.384 . S
C617 C616 1.377 . S
C617 C623 1.390 . S
C618 H609 0.930 . S
C618 C616 1.384 . S
C618 C619 1.372 . S
C619 C618 1.372 . S
C619 C620 1.400 . S
C619 C624 1.490 . S
C620 H610 0.930 . S
C620 C619 1.400 . S
C620 C623 1.386 . S
H621 C637 0.930 . S
H622 C638 0.931 . S
C623 H611 0.929 . S
C623 C617 1.390 . S
C623 C620 1.386 . S
C624 C619 1.490 . S
C624 C626 1.395 . S
C624 C627 1.403 . S
H625 C631 0.930 . S
C626 H612 0.930 . S
C626 C624 1.395 . S
C626 C629 1.403 . S
C627 C624 1.403 . S
C627 C628 1.524 . S
C627 C631 1.400 . S
C628 H613 0.960 . S
C628 H614 0.960 . S
C628 H615 0.960 . S
C628 C627 1.524 . S
C629 C626 1.403 . S
C629 C630 1.392 . S
C629 C633 1.495 . S
C630 C629 1.392 . S
C630 C631 1.385 . S
C630 C632 1.478 . S
C631 H625 0.930 . S
C631 C627 1.400 . S
C631 C630 1.385 . S
C632 C630 1.478 . S
C632 C634 1.381 . S
C632 C638 1.383 . S
C633 C629 1.495 . S
C633 H639 0.959 . S
C633 H640 0.961 . S
C633 H641 0.960 . S
C634 C632 1.381 . S
C634 C635 1.394 . S
C634 H642 0.930 . S
C635 C634 1.394 . S
C635 C636 1.383 . S
C635 H643 0.929 . S
C636 C635 1.383 . S
C636 C637 1.377 . S
C637 H621 0.930 . S
C637 C636 1.377 . S
C637 C638 1.379 . S
C638 H622 0.931 . S
C638 C632 1.383 . S
C638 C637 1.379 . S
H639 C633 0.959 . S
H640 C633 0.961 . S
H641 C633 0.960 . S
H642 C634 0.930 . S
H643 C635 0.929 . S
H644 C652 0.929 . S
H645 C654 0.930 . S
H646 C656 0.930 . S
H647 C659 0.929 . S
H648 C662 0.930 . S
H649 C664 0.960 . S
H650 C664 0.960 . S
H651 C664 0.960 . S
C652 H644 0.929 . S
C652 C653 1.377 . S
C652 C654 1.384 . S
C653 C652 1.377 . S
C653 C659 1.390 . S
C654 H645 0.930 . S
C654 C652 1.384 . S
C654 C655 1.372 . S
C655 C654 1.372 . S
C655 C656 1.400 . S
C655 C660 1.490 . S
C656 H646 0.930 . S
C656 C655 1.400 . S
C656 C659 1.386 . S
H657 C673 0.930 . S
H658 C674 0.931 . S
C659 H647 0.929 . S
C659 C653 1.390 . S
C659 C656 1.386 . S
C660 C655 1.490 . S
C660 C662 1.395 . S
C660 C663 1.403 . S
H661 C667 0.930 . S
C662 H648 0.930 . S
C662 C660 1.395 . S
C662 C665 1.403 . S
C663 C660 1.403 . S
C663 C664 1.524 . S
C663 C667 1.400 . S
C664 H649 0.960 . S
C664 H650 0.960 . S
C664 H651 0.960 . S
C664 C663 1.524 . S
C665 C662 1.403 . S
C665 C666 1.392 . S
C665 C669 1.495 . S
C666 C665 1.392 . S
C666 C667 1.385 . S
C666 C668 1.478 . S
C667 H661 0.930 . S
C667 C663 1.400 . S
C667 C666 1.385 . S
C668 C666 1.478 . S
C668 C670 1.381 . S
C668 C674 1.383 . S
C669 C665 1.495 . S
C669 H675 0.959 . S
C669 H676 0.961 . S
C669 H677 0.960 . S
C670 C668 1.381 . S
C670 C671 1.394 . S
C670 H678 0.930 . S
C671 C670 1.394 . S
C671 C672 1.383 . S
C671 H679 0.929 . S
C672 C671 1.383 . S
C672 C673 1.377 . S
C673 H657 0.930 . S
C673 C672 1.377 . S
C673 C674 1.379 . S
C674 H658 0.931 . S
C674 C668 1.383 . S
C674 C673 1.379 . S
H675 C669 0.959 . S
H676 C669 0.961 . S
H677 C669 0.960 . S
H678 C670 0.930 . S
H679 C671 0.929 . S
C113 C18 1.473 . S
C132 C5 1.461 . S
C149 C31 1.477 . S
C168 C44 1.450 . S
C185 C57 1.474 . S
C204 C70 1.495 . S
C221 C83 1.475 . S
C240 C96 1.453 . S
C257 C10 0.997 . S
C276 C49 0.996 . S
C293 C36 0.998 . S
C312 C23 0.977 . S
C329 C34 0.943 . S
C348 C21 0.884 . S
C365 C8 0.931 . S
C384 C47 0.925 . S
C401 C62 0.997 . S
C420 C101 0.996 . S
C437 C88 0.992 . S
C456 C75 1.010 . S
C473 C73 0.933 . S
C492 C86 0.914 . S
C509 C60 0.929 . S
C528 C99 0.946 . S
C545 C65 1.527 1_556 S
C564 C0 1.507 . S
C581 C52 1.527 1_556 S
C600 C13 1.507 . S
C617 C26 1.524 . S
C636 C91 1.532 . S
C653 C78 1.531 . S
C672 C39 1.530 . S
