# Generated by pormake.
# Topology crb, (4)-cn, num edge types: 1
# Building blocks:
#     Node 0, Type 0, BuildingBlock: ICAMEG_clean_sbu_1, # of connection points: 4
#     Node 1, Type 0, BuildingBlock: ICAMEG_clean_sbu_1, # of connection points: 4
#     Node 2, Type 0, BuildingBlock: ICAMEG_clean_sbu_1, # of connection points: 4
#     Node 3, Type 0, BuildingBlock: ICAMEG_clean_sbu_1, # of connection points: 4
#     Node 4, Type 0, BuildingBlock: ICAMEG_clean_sbu_1, # of connection points: 4
#     Node 5, Type 0, BuildingBlock: ICAMEG_clean_sbu_1, # of connection points: 4
#     Node 6, Type 0, BuildingBlock: ICAMEG_clean_sbu_1, # of connection points: 4
#     Node 7, Type 0, BuildingBlock: ICAMEG_clean_sbu_1, # of connection points: 4
#     Edge 8, Type (0, 0), BuildingBlock: UVAHIK_clean_linker_0, # of connection points: 2
#     Edge 9, Type (0, 0), BuildingBlock: UVAHIK_clean_linker_0, # of connection points: 2
#     Edge 10, Type (0, 0), BuildingBlock: UVAHIK_clean_linker_0, # of connection points: 2
#     Edge 11, Type (0, 0), BuildingBlock: UVAHIK_clean_linker_0, # of connection points: 2
#     Edge 12, Type (0, 0), BuildingBlock: UVAHIK_clean_linker_0, # of connection points: 2
#     Edge 13, Type (0, 0), BuildingBlock: UVAHIK_clean_linker_0, # of connection points: 2
#     Edge 14, Type (0, 0), BuildingBlock: UVAHIK_clean_linker_0, # of connection points: 2
#     Edge 15, Type (0, 0), BuildingBlock: UVAHIK_clean_linker_0, # of connection points: 2
#     Edge 16, Type (0, 0), BuildingBlock: UVAHIK_clean_linker_0, # of connection points: 2
#     Edge 17, Type (0, 0), BuildingBlock: UVAHIK_clean_linker_0, # of connection points: 2
#     Edge 18, Type (0, 0), BuildingBlock: UVAHIK_clean_linker_0, # of connection points: 2
#     Edge 19, Type (0, 0), BuildingBlock: UVAHIK_clean_linker_0, # of connection points: 2
#     Edge 20, Type (0, 0), BuildingBlock: UVAHIK_clean_linker_0, # of connection points: 2
#     Edge 21, Type (0, 0), BuildingBlock: UVAHIK_clean_linker_0, # of connection points: 2
#     Edge 22, Type (0, 0), BuildingBlock: UVAHIK_clean_linker_0, # of connection points: 2
#     Edge 23, Type (0, 0), BuildingBlock: UVAHIK_clean_linker_0, # of connection points: 2
# Relax obj value: 0.184
# Max RMSD: 0.235
# Mean RMSD: 0.234
data_MOF--net-crb--node1-ICAMEG_clean_sbu_1--edge1-UVAHIK_clean_linker_0
_symmetry_space_group_name_H-M    P1
_symmetry_Int_Tables_number       1
_symmetry_cell_setting            triclinic
loop_
_symmetry_equiv_pos_as_xyz
'x, y, z'
_cell_length_a     57.59941
_cell_length_b     57.594446
_cell_length_c     32.196752
_cell_angle_alpha  90.072461
_cell_angle_beta   89.934543
_cell_angle_gamma 90.239994
loop_
_atom_site_label
_atom_site_type_symbol
_atom_site_fract_x
_atom_site_fract_y
_atom_site_fract_z
_atom_type_partial_charge
Co0 Co 0.33611 0.3342 0.95871 0.0
Co1 Co 0.33215 0.33412 0.0659 0.0
O2 O 0.32248 0.32271 1.01088 0.0
C3 C 0.28444 0.33108 0.94063 0.0
O4 O 0.27906 0.33015 0.98017 0.0
C5 C 0.34223 0.29119 0.11308 0.0
O6 O 0.36306 0.29981 0.11962 0.0
O7 O 0.36553 0.32779 0.05268 0.0
O8 O 0.36742 0.3357 0.98463 0.0
H9 H 0.38217 0.37979 0.16461 0.0
H10 H 0.30852 0.29058 0.96084 0.0
O11 O 0.30551 0.33294 0.92912 0.0
H12 H 0.38456 0.26837 0.90312 0.0
H13 H 0.34786 0.3369 0.80359 0.0
H14 H 0.37015 0.37119 0.93826 0.0
H15 H 0.37665 0.30898 0.92237 0.0
H16 H 0.33098 0.32203 0.86877 0.0
O17 O 0.3282 0.30185 0.08912 0.0
H18 H 0.36964 0.36514 0.09618 0.0
H19 H 0.3146 0.32734 0.15278 0.0
H20 H 0.38762 0.38642 0.87381 0.0
H21 H 0.31554 0.24981 0.94145 0.0
H22 H 0.37649 0.36925 0.80585 0.0
H23 H 0.35382 0.23845 0.91243 0.0
O24 O 0.32991 0.36698 0.97541 0.0
H25 H 0.24729 0.31404 0.07567 0.0
H26 H 0.30612 0.37503 0.09909 0.0
H27 H 0.26505 0.3832 0.1144 0.0
H28 H 0.2353 0.35253 0.10293 0.0
H29 H 0.2885 0.30678 0.05986 0.0
H30 H 0.32657 0.34156 0.22179 0.0
H31 H 0.36058 0.36798 0.22804 0.0
O32 O 0.33579 0.36645 0.04434 0.0
C33 C 0.37701 0.3313 0.01932 0.0
C34 C 0.36732 0.36828 0.16229 0.0
C35 C 0.33612 0.34684 0.19439 0.0
N36 N 0.34143 0.34538 0.12042 0.0
C37 C 0.36015 0.35992 0.12363 0.0
C38 C 0.32942 0.33884 0.15521 0.0
C39 C 0.3552 0.36165 0.19787 0.0
C40 C 0.32516 0.28585 0.94795 0.0
N41 N 0.34212 0.30224 0.94261 0.0
C42 C 0.32906 0.2627 0.93715 0.0
C43 C 0.35055 0.25632 0.92092 0.0
C44 C 0.36781 0.2731 0.91573 0.0
C45 C 0.36327 0.29608 0.92688 0.0
C46 C 0.35288 0.3445 0.83301 0.0
C47 C 0.3653 0.36353 0.90883 0.0
C48 C 0.34332 0.33621 0.87004 0.0
N49 N 0.34967 0.34565 0.90736 0.0
C50 C 0.37521 0.37227 0.87243 0.0
C51 C 0.36894 0.36265 0.8343 0.0
C52 C 0.33269 0.37726 1.01024 0.0
C53 C 0.26009 0.32754 0.08086 0.0
C54 C 0.29328 0.3617 0.09339 0.0
C55 C 0.27005 0.36638 0.10243 0.0
C56 C 0.25337 0.34915 0.09607 0.0
N57 N 0.29976 0.34047 0.07843 0.0
C58 C 0.28349 0.32349 0.07217 0.0
Co59 Co 0.66665 0.33973 0.07777 0.0
Co60 Co 0.67369 0.33735 0.97179 0.0
O61 O 0.68082 0.32593 0.02791 0.0
C62 C 0.7171 0.33484 0.10188 0.0
O63 O 0.72399 0.33803 0.06345 0.0
C64 C 0.66282 0.29511 0.92327 0.0
O65 O 0.64265 0.3047 0.9154 0.0
O66 O 0.63976 0.33239 0.98212 0.0
O67 O 0.63676 0.34467 0.0479 0.0
H68 H 0.62902 0.38418 0.86755 0.0
H69 H 0.68865 0.29344 0.08206 0.0
O70 O 0.69561 0.33503 0.11102 0.0
H71 H 0.60772 0.28095 0.12716 0.0
H72 H 0.64929 0.34599 0.23086 0.0
H73 H 0.63717 0.38096 0.0929 0.0
H74 H 0.62155 0.32004 0.10801 0.0
H75 H 0.66649 0.32822 0.16834 0.0
O76 O 0.67663 0.30481 0.94913 0.0
H77 H 0.63862 0.36944 0.9373 0.0
H78 H 0.69383 0.32959 0.88693 0.0
H79 H 0.61951 0.39918 0.15458 0.0
H80 H 0.67564 0.25405 0.10146 0.0
H81 H 0.62553 0.38168 0.22419 0.0
H82 H 0.63489 0.24761 0.12412 0.0
O83 O 0.67768 0.37119 0.06086 0.0
H84 H 0.75753 0.31364 0.97276 0.0
H85 H 0.70294 0.37672 0.94024 0.0
H86 H 0.74487 0.38294 0.92967 0.0
H87 H 0.7725 0.35121 0.94575 0.0
H88 H 0.71547 0.30833 0.98368 0.0
H89 H 0.68478 0.34387 0.81667 0.0
H90 H 0.65217 0.37137 0.80662 0.0
O91 O 0.67106 0.37007 0.99229 0.0
C92 C 0.6277 0.33856 0.0135 0.0
C93 C 0.64327 0.3722 0.87153 0.0
C94 C 0.67457 0.34959 0.84297 0.0
N95 N 0.66674 0.34866 0.91626 0.0
C96 C 0.64878 0.36379 0.91096 0.0
C97 C 0.67961 0.34157 0.88286 0.0
C98 C 0.65627 0.36501 0.83736 0.0
C99 C 0.67093 0.29079 0.09211 0.0
N100 N 0.65589 0.30905 0.09393 0.0
C101 C 0.66365 0.26844 0.10296 0.0
C102 C 0.64077 0.26484 0.11564 0.0
C103 C 0.62552 0.28353 0.11732 0.0
C104 C 0.63342 0.30563 0.10625 0.0
C105 C 0.64652 0.35376 0.20069 0.0
C106 C 0.63979 0.37317 0.12304 0.0
C107 C 0.65627 0.34382 0.16517 0.0
N108 N 0.65275 0.35348 0.12693 0.0
C109 C 0.62978 0.3836 0.15788 0.0
C110 C 0.63318 0.37378 0.19692 0.0
C111 C 0.67547 0.38116 0.02571 0.0
C112 C 0.74567 0.32758 0.96555 0.0
C113 C 0.71483 0.36293 0.94784 0.0
C114 C 0.73857 0.3665 0.94152 0.0
C115 C 0.75406 0.34868 0.95048 0.0
N116 N 0.70671 0.34218 0.96263 0.0
C117 C 0.72181 0.32464 0.97148 0.0
Co118 Co 0.67706 0.67217 0.06589 0.0
Co119 Co 0.67339 0.67599 0.95919 0.0
O120 O 0.68715 0.68601 1.0126 0.0
C121 C 0.68618 0.72315 0.08763 0.0
O122 O 0.69071 0.72905 0.04911 0.0
C123 C 0.72439 0.68518 0.9378 0.0
O124 O 0.73021 0.68976 0.97635 0.0
O125 O 0.68144 0.64304 0.97131 0.0
O126 O 0.67298 0.64113 0.03906 0.0
H127 H 0.62363 0.6246 0.86941 0.0
H128 H 0.72237 0.6973 0.06049 0.0
O129 O 0.68061 0.70235 0.09674 0.0
H130 H 0.74155 0.61893 0.11062 0.0
H131 H 0.67953 0.65861 0.22048 0.0
H132 H 0.63918 0.63977 0.08963 0.0
H133 H 0.701 0.62962 0.09639 0.0
H134 H 0.69279 0.67552 0.15424 0.0
O135 O 0.70362 0.67956 0.92856 0.0
H136 H 0.64098 0.63819 0.9351 0.0
H137 H 0.67696 0.69181 0.87091 0.0
H138 H 0.62548 0.62232 0.15516 0.0
H139 H 0.76308 0.6875 0.07496 0.0
H140 H 0.6457 0.63172 0.22121 0.0
H141 H 0.77296 0.64802 0.10014 0.0
O142 O 0.64414 0.68023 0.05366 0.0
H143 H 0.68878 0.76203 0.95079 0.0
H144 H 0.63098 0.70001 0.92826 0.0
H145 H 0.62035 0.74059 0.91416 0.0
H146 H 0.64941 0.77198 0.9252 0.0
H147 H 0.69851 0.7213 0.96513 0.0
H148 H 0.66016 0.67864 0.80451 0.0
H149 H 0.6332 0.64487 0.80349 0.0
O150 O 0.64229 0.6719 0.98582 0.0
C151 C 0.67764 0.6315 1.00442 0.0
C152 C 0.63531 0.63938 0.86947 0.0
C153 C 0.65583 0.66968 0.83304 0.0
N154 N 0.65985 0.66587 0.90696 0.0
C155 C 0.64514 0.64719 0.90659 0.0
C156 C 0.66534 0.67702 0.87075 0.0
C157 C 0.6407 0.65074 0.83249 0.0
C158 C 0.72637 0.68021 0.07191 0.0
N159 N 0.70916 0.66418 0.07787 0.0
C160 C 0.74954 0.6747 0.07985 0.0
C161 C 0.75508 0.65254 0.09389 0.0
C162 C 0.73747 0.63621 0.09974 0.0
C163 C 0.71451 0.64236 0.09145 0.0
C164 C 0.67059 0.65436 0.1919 0.0
C165 C 0.64816 0.64386 0.1182 0.0
C166 C 0.67799 0.66392 0.15428 0.0
N167 N 0.66686 0.65853 0.118 0.0
C168 C 0.64028 0.63397 0.15523 0.0
C169 C 0.65162 0.63926 0.19228 0.0
C170 C 0.63264 0.67646 0.02049 0.0
C171 C 0.676 0.74851 0.94567 0.0
C172 C 0.64369 0.71351 0.93347 0.0
C173 C 0.63759 0.73649 0.92524 0.0
C174 C 0.65389 0.75408 0.9314 0.0
N175 N 0.66545 0.70812 0.9473 0.0
C176 C 0.68147 0.72532 0.95354 0.0
Co177 Co 0.33802 0.66865 0.96528 0.0
Co178 Co 0.34056 0.67252 0.07197 0.0
O179 O 0.32722 0.68233 0.01821 0.0
C180 C 0.32838 0.71938 0.94323 0.0
O181 O 0.32355 0.72524 0.98166 0.0
C182 C 0.28929 0.68058 0.09166 0.0
O183 O 0.28367 0.68361 0.05257 0.0
O184 O 0.33265 0.63947 0.05958 0.0
O185 O 0.3423 0.63775 0.99231 0.0
H186 H 0.38951 0.62163 0.16309 0.0
H187 H 0.29231 0.69275 0.96903 0.0
O188 O 0.33431 0.69869 0.93426 0.0
H189 H 0.27481 0.61386 0.91846 0.0
H190 H 0.33734 0.6548 0.81063 0.0
H191 H 0.37661 0.6371 0.9428 0.0
H192 H 0.31503 0.62549 0.93411 0.0
H193 H 0.32314 0.67148 0.87642 0.0
O194 O 0.31012 0.676 0.10188 0.0
H195 H 0.37267 0.63496 0.09696 0.0
H196 H 0.33648 0.6886 0.1601 0.0
H197 H 0.39124 0.61988 0.87775 0.0
H198 H 0.25192 0.68201 0.95311 0.0
H199 H 0.37156 0.62871 0.81103 0.0
H200 H 0.24288 0.64226 0.92772 0.0
O201 O 0.37068 0.6775 0.97859 0.0
H202 H 0.32467 0.75829 0.08025 0.0
H203 H 0.38275 0.69713 0.10359 0.0
H204 H 0.39307 0.73789 0.11785 0.0
H205 H 0.36387 0.76884 0.10639 0.0
H206 H 0.31524 0.71737 0.06578 0.0
H207 H 0.35276 0.67569 0.22692 0.0
H208 H 0.37957 0.64204 0.2287 0.0
O209 O 0.37188 0.66863 0.04618 0.0
C210 C 0.33714 0.62802 0.02663 0.0
C211 C 0.3779 0.63635 0.1627 0.0
C212 C 0.35725 0.66667 0.19854 0.0
N213 N 0.35371 0.66262 0.12456 0.0
C214 C 0.36834 0.64401 0.12533 0.0
C215 C 0.34803 0.67386 0.16059 0.0
C216 C 0.37229 0.6478 0.19951 0.0
C217 C 0.28868 0.67556 0.95751 0.0
N218 N 0.30618 0.65989 0.95225 0.0
C219 C 0.26569 0.66951 0.94876 0.0
C220 C 0.26062 0.64719 0.9346 0.0
C221 C 0.27851 0.63125 0.92945 0.0
C222 C 0.30129 0.63793 0.93854 0.0
C223 C 0.34604 0.65079 0.83951 0.0
C224 C 0.36787 0.64094 0.91394 0.0
C225 C 0.33812 0.66024 0.87687 0.0
N226 N 0.34895 0.65517 0.91352 0.0
C227 C 0.37627 0.63117 0.87718 0.0
C228 C 0.36524 0.63615 0.83976 0.0
C229 C 0.38187 0.67363 1.01201 0.0
C230 C 0.33752 0.74496 0.08552 0.0
C231 C 0.37 0.71045 0.09817 0.0
C232 C 0.37592 0.73353 0.10649 0.0
C233 C 0.35953 0.75088 0.1001 0.0
N234 N 0.34834 0.70474 0.084 0.0
C235 C 0.33223 0.72169 0.07756 0.0
Co236 Co 0.8412 0.84036 0.46015 0.0
Co237 Co 0.83781 0.84319 0.56687 0.0
O238 O 0.82765 0.82971 0.51333 0.0
C239 C 0.7902 0.83134 0.43951 0.0
O240 O 0.78443 0.82818 0.47853 0.0
C241 C 0.82974 0.79193 0.58665 0.0
O242 O 0.82687 0.78623 0.54753 0.0
O243 O 0.87067 0.8352 0.55399 0.0
O244 O 0.87229 0.84477 0.4867 0.0
H245 H 0.88961 0.89233 0.65697 0.0
H246 H 0.81655 0.79486 0.46419 0.0
O247 O 0.81102 0.83637 0.42957 0.0
H248 H 0.89512 0.77678 0.41323 0.0
H249 H 0.85456 0.83905 0.30537 0.0
H250 H 0.87283 0.87897 0.43699 0.0
H251 H 0.88404 0.81712 0.42867 0.0
H252 H 0.83802 0.82507 0.37146 0.0
O253 O 0.8342 0.81283 0.59693 0.0
H254 H 0.87579 0.87533 0.59112 0.0
H255 H 0.82212 0.83937 0.65525 0.0
H256 H 0.88991 0.89339 0.37162 0.0
H257 H 0.82673 0.75434 0.44845 0.0
H258 H 0.88079 0.87338 0.30519 0.0
H259 H 0.86632 0.74502 0.42289 0.0
O260 O 0.8326 0.87306 0.47342 0.0
H261 H 0.75202 0.8272 0.57722 0.0
H262 H 0.8137 0.88555 0.59835 0.0
H263 H 0.7731 0.89588 0.61331 0.0
H264 H 0.74189 0.86655 0.60296 0.0
H265 H 0.79278 0.81777 0.56199 0.0
H266 H 0.83549 0.85583 0.7218 0.0
H267 H 0.86942 0.8826 0.72294 0.0
O268 O 0.84184 0.87445 0.54087 0.0
C269 C 0.88207 0.83957 0.5209 0.0
C270 C 0.87477 0.88073 0.65687 0.0
C271 C 0.84442 0.86023 0.69325 0.0
N272 N 0.84808 0.85648 0.61923 0.0
C273 C 0.86683 0.87109 0.61966 0.0
C274 C 0.83697 0.85092 0.65546 0.0
C275 C 0.86345 0.87525 0.69387 0.0
C276 C 0.8337 0.79108 0.45265 0.0
N277 N 0.8496 0.80848 0.44724 0.0
C278 C 0.83942 0.76803 0.44398 0.0
C279 C 0.86164 0.76281 0.42972 0.0
C280 C 0.87781 0.78061 0.42435 0.0
C281 C 0.87146 0.80344 0.43336 0.0
C282 C 0.85869 0.84789 0.33413 0.0
C283 C 0.86886 0.87009 0.40825 0.0
C284 C 0.84932 0.8401 0.37166 0.0
N285 N 0.85454 0.85112 0.40814 0.0
C286 C 0.87855 0.87837 0.37131 0.0
C287 C 0.87341 0.86715 0.33404 0.0
C288 C 0.83665 0.88434 0.50677 0.0
C289 C 0.76546 0.84011 0.58199 0.0
C290 C 0.80026 0.87274 0.59338 0.0
C291 C 0.77728 0.87867 0.60211 0.0
C292 C 0.75978 0.8622 0.59636 0.0
N293 N 0.80573 0.85101 0.57939 0.0
C294 C 0.78864 0.83482 0.57361 0.0
Co295 Co 0.17711 0.83864 0.4637 0.0
Co296 Co 0.17397 0.83576 0.57066 0.0
O297 O 0.18719 0.82515 0.51716 0.0
C298 C 0.18492 0.78735 0.44314 0.0
O299 O 0.18974 0.78172 0.48165 0.0
C300 C 0.22499 0.82666 0.5908 0.0
O301 O 0.23062 0.82316 0.5518 0.0
O302 O 0.18252 0.86859 0.55755 0.0
O303 O 0.17408 0.86996 0.48973 0.0
H304 H 0.12582 0.88841 0.66037 0.0
H305 H 0.2218 0.81272 0.46892 0.0
O306 O 0.17962 0.80812 0.43368 0.0
H307 H 0.24271 0.89007 0.41522 0.0
H308 H 0.17882 0.85063 0.30863 0.0
H309 H 0.14004 0.87161 0.43996 0.0
H310 H 0.202 0.88032 0.43095 0.0
H311 H 0.19208 0.83409 0.37503 0.0
O312 O 0.20427 0.8319 0.6008 0.0
H313 H 0.14255 0.87418 0.59463 0.0
H314 H 0.17752 0.82038 0.65918 0.0
H315 H 0.12638 0.88872 0.37427 0.0
H316 H 0.26263 0.82154 0.45291 0.0
H317 H 0.14581 0.87824 0.30798 0.0
H318 H 0.2734 0.86051 0.42595 0.0
O319 O 0.14402 0.83136 0.47695 0.0
H320 H 0.18807 0.74974 0.58089 0.0
H321 H 0.13126 0.81229 0.60282 0.0
H322 H 0.12007 0.77188 0.61799 0.0
H323 H 0.14863 0.74023 0.60725 0.0
H324 H 0.19836 0.79032 0.56548 0.0
H325 H 0.16133 0.83418 0.72562 0.0
H326 H 0.13518 0.86836 0.72649 0.0
O327 O 0.14284 0.84005 0.54467 0.0
C328 C 0.17885 0.87985 0.5241 0.0
C329 C 0.13714 0.87346 0.66038 0.0
C330 C 0.15709 0.84304 0.69701 0.0
N331 N 0.16091 0.84639 0.62296 0.0
C332 C 0.14664 0.86529 0.62323 0.0
C333 C 0.16627 0.83535 0.65927 0.0
C334 C 0.14242 0.86222 0.69747 0.0
C335 C 0.22617 0.82958 0.4567 0.0
N336 N 0.20934 0.84587 0.45064 0.0
C337 C 0.24941 0.83455 0.44791 0.0
C338 C 0.25545 0.85642 0.43288 0.0
C339 C 0.23826 0.87301 0.4269 0.0
C340 C 0.2152 0.86741 0.43606 0.0
C341 C 0.17023 0.85536 0.33732 0.0
C342 C 0.14868 0.86705 0.41129 0.0
C343 C 0.17762 0.846 0.37503 0.0
N344 N 0.16693 0.85198 0.41144 0.0
C345 C 0.14082 0.87676 0.37417 0.0
C346 C 0.15172 0.87085 0.33698 0.0
C347 C 0.13284 0.83552 0.51033 0.0
C348 C 0.17549 0.76338 0.58585 0.0
C349 C 0.14373 0.79866 0.5977 0.0
C350 C 0.13732 0.77578 0.60655 0.0
C351 C 0.15335 0.75805 0.60056 0.0
N352 N 0.16552 0.80381 0.58342 0.0
C353 C 0.18128 0.78647 0.57737 0.0
Co354 Co 0.1717 0.17115 0.57684 0.0
Co355 Co 0.17343 0.17567 0.46999 0.0
O356 O 0.18418 0.18501 0.52561 0.0
C357 C 0.17789 0.2224 0.59759 0.0
O358 O 0.18289 0.22785 0.55907 0.0
C359 C 0.21699 0.16627 0.4241 0.0
O360 O 0.20871 0.14533 0.4172 0.0
O361 O 0.18009 0.14237 0.48279 0.0
O362 O 0.16992 0.14002 0.54984 0.0
H363 H 0.12962 0.12562 0.36867 0.0
H364 H 0.21648 0.19724 0.57678 0.0
O365 O 0.17302 0.20154 0.60749 0.0
H366 H 0.23497 0.12022 0.63408 0.0
H367 H 0.16612 0.1584 0.73143 0.0
H368 H 0.13368 0.13775 0.59453 0.0
H369 H 0.19501 0.12965 0.61312 0.0
H370 H 0.18247 0.17536 0.66745 0.0
O371 O 0.2059 0.18014 0.44784 0.0
H372 H 0.14331 0.13793 0.43785 0.0
H373 H 0.18096 0.19384 0.38378 0.0
H374 H 0.11696 0.12022 0.65774 0.0
H375 H 0.25658 0.18869 0.59792 0.0
H376 H 0.13319 0.13053 0.72681 0.0
H377 H 0.2661 0.14992 0.62678 0.0
O378 O 0.13942 0.17828 0.55892 0.0
H379 H 0.19245 0.26085 0.46329 0.0
H380 H 0.13262 0.20138 0.4359 0.0
H381 H 0.12405 0.24245 0.42153 0.0
H382 H 0.15414 0.27253 0.43503 0.0
H383 H 0.20011 0.2196 0.47803 0.0
H384 H 0.1677 0.1821 0.31403 0.0
H385 H 0.14183 0.14777 0.30614 0.0
O386 O 0.14082 0.1715 0.49032 0.0
C387 C 0.17555 0.13065 0.51544 0.0
C388 C 0.14088 0.14062 0.3717 0.0
C389 C 0.16225 0.17232 0.34104 0.0
N390 N 0.16291 0.16658 0.41491 0.0
C391 C 0.14869 0.14767 0.4108 0.0
C392 C 0.16969 0.17888 0.38062 0.0
C393 C 0.14774 0.15305 0.33663 0.0
C394 C 0.22033 0.18044 0.58976 0.0
N395 N 0.20324 0.1641 0.59418 0.0
C396 C 0.24315 0.17564 0.60148 0.0
C397 C 0.24849 0.15388 0.6176 0.0
C398 C 0.23104 0.13721 0.62168 0.0
C399 C 0.20842 0.14264 0.60964 0.0
C400 C 0.15892 0.15374 0.7015 0.0
C401 C 0.14094 0.14223 0.62445 0.0
C402 C 0.16806 0.16334 0.66515 0.0
N403 N 0.15914 0.15744 0.62721 0.0
C404 C 0.13135 0.13229 0.66014 0.0
C405 C 0.14045 0.1381 0.69889 0.0
C406 C 0.12958 0.17517 0.52384 0.0
C407 C 0.1792 0.24791 0.45727 0.0
C408 C 0.14568 0.21435 0.44248 0.0
C409 C 0.14079 0.23759 0.43397 0.0
C410 C 0.15769 0.25446 0.44148 0.0
N411 N 0.16681 0.20805 0.45805 0.0
C412 C 0.18347 0.22449 0.46539 0.0
Co413 Co 0.83896 0.17861 0.57034 0.0
Co414 Co 0.83398 0.17663 0.46376 0.0
O415 O 0.82497 0.18983 0.51809 0.0
C416 C 0.788 0.18498 0.59354 0.0
O417 O 0.78088 0.183 0.55501 0.0
C418 C 0.82673 0.22815 0.44571 0.0
O419 O 0.82239 0.23327 0.48466 0.0
O420 O 0.86741 0.18323 0.47532 0.0
O421 O 0.86943 0.17344 0.54236 0.0
H422 H 0.88228 0.12626 0.37021 0.0
H423 H 0.81506 0.22406 0.56965 0.0
O424 O 0.80948 0.18348 0.60235 0.0
H425 H 0.89529 0.24146 0.61318 0.0
H426 H 0.85521 0.17978 0.72416 0.0
H427 H 0.86937 0.13898 0.59184 0.0
H428 H 0.88316 0.20124 0.59828 0.0
H429 H 0.83809 0.19417 0.65902 0.0
O430 O 0.8316 0.20745 0.43493 0.0
H431 H 0.86993 0.14305 0.43711 0.0
H432 H 0.81787 0.18231 0.37604 0.0
H433 H 0.88699 0.12412 0.65623 0.0
H434 H 0.82633 0.26451 0.58483 0.0
H435 H 0.87995 0.14455 0.72302 0.0
H436 H 0.86674 0.27345 0.60665 0.0
O437 O 0.82929 0.1461 0.55711 0.0
H438 H 0.74861 0.19521 0.45845 0.0
H439 H 0.80789 0.13573 0.4308 0.0
H440 H 0.7668 0.12684 0.41681 0.0
H441 H 0.73679 0.15676 0.43038 0.0
H442 H 0.78978 0.20316 0.47277 0.0
H443 H 0.82983 0.16611 0.30846 0.0
H444 H 0.86219 0.13778 0.30526 0.0
O445 O 0.8368 0.14505 0.48883 0.0
C446 C 0.87901 0.17828 0.50779 0.0
C447 C 0.86812 0.13853 0.37121 0.0
C448 C 0.8387 0.16092 0.33655 0.0
N449 N 0.8431 0.16353 0.41059 0.0
C450 C 0.861 0.14806 0.40903 0.0
C451 C 0.83206 0.17009 0.37492 0.0
C452 C 0.85685 0.14502 0.33478 0.0
C453 C 0.83262 0.22776 0.57938 0.0
N454 N 0.84842 0.21026 0.58295 0.0
C455 C 0.83893 0.25073 0.58782 0.0
C456 C 0.86161 0.25574 0.60001 0.0
C457 C 0.87764 0.2378 0.60362 0.0
C458 C 0.8707 0.21505 0.5949 0.0
C459 C 0.85842 0.17072 0.69525 0.0
C460 C 0.86626 0.14802 0.62075 0.0
C461 C 0.8487 0.17874 0.65826 0.0
N462 N 0.85275 0.16746 0.62158 0.0
C463 C 0.87627 0.1395 0.65713 0.0
C464 C 0.8723 0.15097 0.69459 0.0
C465 C 0.8323 0.135 0.52319 0.0
C466 C 0.76153 0.18207 0.45216 0.0
C467 C 0.79499 0.1488 0.43711 0.0
C468 C 0.77172 0.14369 0.42894 0.0
C469 C 0.7549 0.16048 0.43652 0.0
N470 N 0.80143 0.17008 0.45223 0.0
C471 C 0.78498 0.18655 0.45992 0.0
C472 C 0.33243 0.41648 0.97542 0.0
C473 C 0.33257 0.40306 1.01189 0.0
C474 C 0.33282 0.44079 0.97763 0.0
C475 C 0.31922 0.48991 0.04668 0.0
H476 H 0.36313 0.52403 0.97866 0.0
C477 C 0.33283 0.5896 0.06397 0.0
C478 C 0.33671 0.60219 0.0272 0.0
C479 C 0.33254 0.56522 0.0634 0.0
C480 C 0.3505 0.51486 0.9975 0.0
H481 H 0.33339 0.40494 0.07935 0.0
H482 H 0.33358 0.44705 0.08292 0.0
H483 H 0.36122 0.48189 0.97346 0.0
H484 H 0.34344 0.59873 0.96099 0.0
H485 H 0.342 0.55691 0.95985 0.0
H486 H 0.30811 0.52285 0.07013 0.0
C487 C 0.33306 0.43879 0.05269 0.0
C488 C 0.34947 0.49067 0.9945 0.0
C489 C 0.33299 0.41458 0.05052 0.0
C490 C 0.34028 0.5898 0.99003 0.0
C491 C 0.33974 0.56562 0.98939 0.0
C492 C 0.32005 0.51416 0.04934 0.0
C493 C 0.33308 0.45217 0.01633 0.0
C494 C 0.33381 0.47792 0.01899 0.0
C495 C 0.336 0.55292 0.02602 0.0
C496 C 0.33564 0.527 0.02464 0.0
H497 H 0.33223 0.40824 0.94516 0.0
H498 H 0.33274 0.4507 0.94906 0.0
H499 H 0.30687 0.48052 0.06578 0.0
H500 H 0.33016 0.59854 0.0932 0.0
H501 H 0.32988 0.55604 0.09235 0.0
C502 C 0.41507 0.33068 0.98189 0.0
C503 C 0.40281 0.33058 0.01975 0.0
C504 C 0.43923 0.33065 0.98108 0.0
C505 C 0.49157 0.32063 0.04639 0.0
H506 H 0.52201 0.35453 0.9574 0.0
C507 C 0.58891 0.34371 0.0473 0.0
C508 C 0.6019 0.33818 1.01152 0.0
C509 C 0.56477 0.34207 0.04732 0.0
C510 C 0.51373 0.3448 0.98213 0.0
H511 H 0.4067 0.3306 0.0867 0.0
H512 H 0.44917 0.33152 0.08539 0.0
H513 H 0.47979 0.35378 0.96129 0.0
H514 H 0.59932 0.32748 0.94707 0.0
H515 H 0.55671 0.32526 0.94689 0.0
H516 H 0.5258 0.31257 0.06801 0.0
C517 C 0.43992 0.33089 0.05617 0.0
C518 C 0.48949 0.34427 0.98441 0.0
C519 C 0.41554 0.33049 0.05698 0.0
C520 C 0.58992 0.33173 0.97521 0.0
C521 C 0.56557 0.33047 0.97508 0.0
C522 C 0.51583 0.3215 0.04446 0.0
C523 C 0.4521 0.33112 0.01809 0.0
C524 C 0.47802 0.33207 0.01646 0.0
C525 C 0.55284 0.3353 1.0114 0.0
C526 C 0.52714 0.33356 1.01227 0.0
H527 H 0.40605 0.33087 0.95246 0.0
H528 H 0.4478 0.33021 0.95114 0.0
H529 H 0.48348 0.31074 0.0711 0.0
H530 H 0.59733 0.34914 0.07575 0.0
H531 H 0.55539 0.34631 0.07549 0.0
C532 C 0.67719 0.41778 0.9838 0.0
C533 C 0.67744 0.40685 0.02289 0.0
C534 C 0.67857 0.44191 0.98048 0.0
C535 C 0.69414 0.49523 0.03975 0.0
H536 H 0.65791 0.5257 0.95431 0.0
C537 C 0.67586 0.59322 0.04105 0.0
C538 C 0.67852 0.6057 1.00373 0.0
C539 C 0.67702 0.56907 0.04153 0.0
C540 C 0.66835 0.51741 0.97795 0.0
H541 H 0.6791 0.413 0.08928 0.0
H542 H 0.68083 0.45523 0.08359 0.0
H543 H 0.65697 0.48349 0.95998 0.0
H544 H 0.68395 0.60222 0.93733 0.0
H545 H 0.68557 0.55964 0.93818 0.0
H546 H 0.70489 0.52933 0.05842 0.0
C547 C 0.68018 0.44503 0.05535 0.0
C548 C 0.66786 0.49319 0.98125 0.0
C549 C 0.67906 0.42078 0.05867 0.0
C550 C 0.68197 0.59322 0.96665 0.0
C551 C 0.68283 0.56886 0.9671 0.0
C552 C 0.69444 0.51945 0.03669 0.0
C553 C 0.67989 0.45592 0.01616 0.0
C554 C 0.68067 0.48175 1.01233 0.0
C555 C 0.68056 0.55658 1.00467 0.0
C556 C 0.68143 0.53081 1.00594 0.0
H557 H 0.67589 0.40774 0.95545 0.0
H558 H 0.67872 0.44953 0.94977 0.0
H559 H 0.70461 0.48709 0.0635 0.0
H560 H 0.67283 0.60206 0.07024 0.0
H561 H 0.67477 0.5601 0.07084 0.0
C562 C 0.4205 0.67762 0.97531 0.0
C563 C 0.40767 0.67459 1.01209 0.0
C564 C 0.44486 0.67825 0.97635 0.0
C565 C 0.49497 0.66278 0.0446 0.0
H566 H 0.52931 0.70337 0.97062 0.0
C567 C 0.59441 0.67938 0.05872 0.0
C568 C 0.60684 0.67709 0.02131 0.0
C569 C 0.57005 0.67968 0.05856 0.0
C570 C 0.51992 0.69192 0.99142 0.0
H571 H 0.41067 0.66977 0.07886 0.0
H572 H 0.45247 0.67191 0.08077 0.0
H573 H 0.48699 0.70253 0.96751 0.0
H574 H 0.60312 0.67299 0.95445 0.0
H575 H 0.56108 0.67411 0.95437 0.0
H576 H 0.52802 0.65253 0.0689 0.0
C577 C 0.44397 0.6732 0.0509 0.0
C578 C 0.49566 0.69129 0.98945 0.0
C579 C 0.4198 0.67227 0.0498 0.0
C580 C 0.59431 0.67514 0.9839 0.0
C581 C 0.57012 0.6758 0.98372 0.0
C582 C 0.5192 0.66364 0.04691 0.0
C583 C 0.45691 0.67605 0.01424 0.0
C584 C 0.48282 0.67665 0.01592 0.0
C585 C 0.5577 0.67803 0.02096 0.0
C586 C 0.53193 0.67811 0.02019 0.0
H587 H 0.41178 0.67928 0.94569 0.0
H588 H 0.45421 0.68014 0.94736 0.0
H589 H 0.48581 0.65091 0.06494 0.0
H590 H 0.60346 0.68077 0.0881 0.0
H591 H 0.56087 0.68142 0.08776 0.0
C592 C 0.83834 0.92233 0.54461 0.0
C593 C 0.83551 0.91013 0.50697 0.0
C594 C 0.83693 0.94648 0.54588 0.0
C595 C 0.84484 0.99851 0.48335 0.0
H596 H 0.80791 0.02841 0.56876 0.0
C597 C 0.83215 0.09732 0.48446 0.0
C598 C 0.83126 0.1092 0.52267 0.0
C599 C 0.83183 0.07315 0.48289 0.0
C600 C 0.81858 0.0204 0.5451 0.0
H601 H 0.8295 0.9141 0.44087 0.0
H602 H 0.8275 0.95663 0.44307 0.0
H603 H 0.80869 0.98611 0.56423 0.0
H604 H 0.82954 0.10465 0.58943 0.0
H605 H 0.82971 0.06218 0.58682 0.0
H606 H 0.85539 0.03255 0.46487 0.0
C607 C 0.83055 0.94721 0.47163 0.0
C608 C 0.8189 0.99614 0.54234 0.0
C609 C 0.83163 0.92287 0.4704 0.0
C610 C 0.83006 0.09611 0.55945 0.0
C611 C 0.83005 0.07174 0.55789 0.0
C612 C 0.84476 0.02273 0.48639 0.0
C613 C 0.83302 0.95921 0.5095 0.0
C614 C 0.832 0.98496 0.51139 0.0
C615 C 0.83107 0.05995 0.51951 0.0
C616 C 0.83154 0.03405 0.51718 0.0
H617 H 0.84171 0.91329 0.57341 0.0
H618 H 0.8393 0.95525 0.57537 0.0
H619 H 0.85541 0.99037 0.45965 0.0
H620 H 0.83321 0.10663 0.45535 0.0
H621 H 0.8321 0.06484 0.45271 0.0
C622 C 0.09419 0.83328 0.47332 0.0
C623 C 0.10702 0.83539 0.51026 0.0
C624 C 0.06982 0.83353 0.47427 0.0
C625 C 0.02018 0.84984 0.54345 0.0
H626 H 0.98441 0.81179 0.46732 0.0
C627 C 0.92041 0.83529 0.55815 0.0
C628 C 0.90787 0.8388 0.52123 0.0
C629 C 0.94475 0.83454 0.55748 0.0
C630 C 0.99421 0.82254 0.48873 0.0
H631 H 0.10401 0.8395 0.57721 0.0
H632 H 0.0622 0.83878 0.57894 0.0
H633 H 0.02674 0.81124 0.46388 0.0
H634 H 0.91139 0.84471 0.45477 0.0
H635 H 0.95341 0.84274 0.45376 0.0
H636 H 0.98752 0.86069 0.56877 0.0
C637 C 0.0707 0.83758 0.54902 0.0
C638 C 0.01848 0.82237 0.48657 0.0
C639 C 0.09488 0.83767 0.54802 0.0
C640 C 0.92028 0.8416 0.48381 0.0
C641 C 0.94445 0.84046 0.48309 0.0
C642 C 0.99594 0.84973 0.54597 0.0
C643 C 0.05775 0.83571 0.51222 0.0
C644 C 0.03183 0.83606 0.51387 0.0
C645 C 0.95697 0.83692 0.51983 0.0
C646 C 0.98271 0.83616 0.51853 0.0
H647 H 0.10293 0.83169 0.44365 0.0
H648 H 0.06049 0.83237 0.44517 0.0
H649 H 0.02973 0.86104 0.56444 0.0
H650 H 0.91147 0.83321 0.58753 0.0
H651 H 0.95403 0.83179 0.58629 0.0
C652 C 0.17431 0.09223 0.55173 0.0
C653 C 0.17689 0.10487 0.51454 0.0
C654 C 0.17576 0.06808 0.55197 0.0
C655 C 0.16686 0.01683 0.48812 0.0
H656 H 0.20475 0.98586 0.57062 0.0
C657 C 0.178 0.91777 0.48628 0.0
C658 C 0.17972 0.90567 0.52412 0.0
C659 C 0.17852 0.94195 0.48521 0.0
C660 C 0.1938 0.99417 0.54778 0.0
H661 H 0.18251 0.10167 0.44815 0.0
H662 H 0.1845 0.0591 0.44855 0.0
H663 H 0.2044 0.0282 0.56734 0.0
H664 H 0.18298 0.90984 0.59078 0.0
H665 H 0.18308 0.95231 0.58913 0.0
H666 H 0.15552 0.98308 0.46937 0.0
C667 C 0.18166 0.06821 0.47756 0.0
C668 C 0.19375 0.01844 0.54571 0.0
C669 C 0.18059 0.09256 0.47736 0.0
C670 C 0.18181 0.91855 0.56106 0.0
C671 C 0.182 0.94292 0.56003 0.0
C672 C 0.16665 0.99259 0.49052 0.0
C673 C 0.17942 0.05578 0.51499 0.0
C674 C 0.1803 0.03002 0.51583 0.0
C675 C 0.18029 0.95495 0.52201 0.0
C676 C 0.18018 0.98088 0.52028 0.0
H677 H 0.1711 0.10092 0.58097 0.0
H678 H 0.17357 0.05897 0.58115 0.0
H679 H 0.15602 0.0253 0.46526 0.0
H680 H 0.17621 0.90863 0.45708 0.0
H681 H 0.17768 0.95041 0.45525 0.0
C682 C 0.91725 0.18098 0.46922 0.0
C683 C 0.90481 0.17782 0.50641 0.0
C684 C 0.94163 0.1803 0.4691 0.0
C685 C 0.99159 0.1607 0.5342 0.0
H686 H 0.02742 0.20259 0.4649 0.0
C687 C 0.09004 0.1766 0.55737 0.0
C688 C 0.10382 0.17562 0.52131 0.0
C689 C 0.06578 0.17671 0.55449 0.0
C690 C 0.0176 0.19071 0.48426 0.0
H691 H 0.90853 0.17142 0.57265 0.0
H692 H 0.95033 0.17127 0.5726 0.0
H693 H 0.98505 0.20281 0.46077 0.0
H694 H 0.10261 0.1738 0.45387 0.0
H695 H 0.0605 0.17453 0.44912 0.0
H696 H 0.02416 0.14908 0.5584 0.0
C697 C 0.9415 0.17364 0.54324 0.0
C698 C 0.99333 0.19072 0.48173 0.0
C699 C 0.91734 0.17403 0.5433 0.0
C700 C 0.09268 0.17484 0.48238 0.0
C701 C 0.0685 0.17529 0.47953 0.0
C702 C 0.01579 0.16093 0.53709 0.0
C703 C 0.95406 0.17658 0.5062 0.0
C704 C 0.97997 0.17583 0.50693 0.0
C705 C 0.05478 0.17613 0.51552 0.0
C706 C 0.02905 0.17599 0.51232 0.0
H707 H 0.90819 0.18378 0.44021 0.0
H708 H 0.95069 0.1824 0.43986 0.0
H709 H 0.982 0.14856 0.55336 0.0
H710 H 0.09797 0.17711 0.58785 0.0
H711 H 0.0556 0.17746 0.58277 0.0
C712 C 0.24241 0.19907 0.39943 0.0
C713 C 0.23572 0.17559 0.39693 0.0
C714 C 0.25719 0.20881 0.36954 0.0
C715 C 0.27458 0.20058 0.26035 0.0
H716 H 0.32002 0.24835 0.28571 0.0
C717 C 0.34678 0.26407 0.17356 0.0
C718 C 0.33314 0.27261 0.14078 0.0
C719 C 0.33708 0.24949 0.2038 0.0
C720 C 0.30761 0.23483 0.27805 0.0
H721 H 0.2404 0.14368 0.36205 0.0
H722 H 0.26632 0.16062 0.31028 0.0
H723 H 0.3002 0.22814 0.34218 0.0
H724 H 0.29881 0.2715 0.11313 0.0
H725 H 0.28199 0.24611 0.16568 0.0
H726 H 0.28186 0.20739 0.19622 0.0
C727 C 0.25983 0.1716 0.335 0.0
C728 C 0.29606 0.22342 0.31047 0.0
C729 C 0.24511 0.16183 0.36496 0.0
C730 C 0.30988 0.26524 0.13784 0.0
C731 C 0.30022 0.2506 0.168 0.0
C732 C 0.28606 0.21206 0.22793 0.0
C733 C 0.26562 0.19533 0.33635 0.0
C734 C 0.27921 0.20632 0.30205 0.0
C735 C 0.31354 0.243 0.20193 0.0
C736 C 0.30254 0.22952 0.23633 0.0
H737 H 0.23549 0.21023 0.42352 0.0
H738 H 0.26113 0.22718 0.37143 0.0
H739 H 0.26153 0.18769 0.25266 0.0
H740 H 0.36475 0.26933 0.17684 0.0
H741 H 0.34795 0.24365 0.22912 0.0
C742 C 0.75549 0.31941 0.12698 0.0
C743 C 0.73384 0.32951 0.13547 0.0
C744 C 0.76978 0.31194 0.15961 0.0
C745 C 0.77969 0.31733 0.27334 0.0
H746 H 0.80085 0.25373 0.26526 0.0
C747 C 0.80589 0.26295 0.41724 0.0
C748 C 0.82222 0.24513 0.41214 0.0
C749 C 0.79868 0.27614 0.38304 0.0
C750 C 0.79558 0.27169 0.26794 0.0
H751 H 0.71078 0.34086 0.18476 0.0
H752 H 0.73564 0.32813 0.24119 0.0
H753 H 0.78257 0.2719 0.20566 0.0
H754 H 0.84504 0.2283 0.3679 0.0
H755 H 0.83329 0.2518 0.30894 0.0
H756 H 0.79248 0.31708 0.33579 0.0
C757 C 0.74164 0.32586 0.20955 0.0
C758 C 0.78503 0.28209 0.23361 0.0
C759 C 0.7273 0.333 0.17712 0.0
C760 C 0.83225 0.24177 0.37277 0.0
C761 C 0.82532 0.25512 0.33882 0.0
C762 C 0.79044 0.30699 0.30763 0.0
C763 C 0.76283 0.31481 0.20127 0.0
C764 C 0.77657 0.30488 0.23611 0.0
C765 C 0.80786 0.27197 0.34309 0.0
C766 C 0.79819 0.28387 0.30566 0.0
H767 H 0.76098 0.31645 0.09523 0.0
H768 H 0.7861 0.30361 0.15227 0.0
H769 H 0.77356 0.33502 0.27611 0.0
H770 H 0.7977 0.26581 0.4471 0.0
H771 H 0.78507 0.2888 0.38764 0.0
C772 C 0.75393 0.8119 0.41251 0.0
C773 C 0.77374 0.82567 0.40544 0.0
C774 C 0.74052 0.80384 0.37905 0.0
C775 C 0.72946 0.81187 0.26573 0.0
H776 H 0.71495 0.74615 0.26842 0.0
C777 C 0.70613 0.7583 0.1181 0.0
C778 C 0.69082 0.7394 0.12253 0.0
C779 C 0.71313 0.7712 0.15297 0.0
C780 C 0.71843 0.76463 0.26726 0.0
H781 H 0.79416 0.84288 0.35777 0.0
H782 H 0.77095 0.82891 0.29989 0.0
H783 H 0.73191 0.76462 0.32916 0.0
H784 H 0.66963 0.72026 0.1666 0.0
H785 H 0.68122 0.74301 0.22674 0.0
H786 H 0.71625 0.81176 0.20348 0.0
C787 C 0.76566 0.8243 0.33111 0.0
C788 C 0.72818 0.77524 0.30226 0.0
C789 C 0.77909 0.8322 0.3644 0.0
C790 C 0.68167 0.73454 0.16212 0.0
C791 C 0.68848 0.7475 0.19675 0.0
C792 C 0.71959 0.80126 0.23069 0.0
C793 C 0.74653 0.80956 0.33785 0.0
C794 C 0.73409 0.79893 0.30184 0.0
C795 C 0.70483 0.76557 0.19295 0.0
C796 C 0.71415 0.77742 0.23082 0.0
H797 H 0.74932 0.80653 0.44369 0.0
H798 H 0.72572 0.79274 0.38537 0.0
H799 H 0.73357 0.83023 0.26447 0.0
H800 H 0.71359 0.76241 0.08809 0.0
H801 H 0.72586 0.78489 0.14878 0.0
C802 C 0.20459 0.75219 0.41274 0.0
C803 C 0.18919 0.77089 0.40846 0.0
C804 C 0.21144 0.73926 0.37785 0.0
C805 C 0.2163 0.74579 0.26354 0.0
H806 H 0.23204 0.68047 0.26632 0.0
C807 C 0.25267 0.69929 0.11835 0.0
C808 C 0.27259 0.68587 0.12555 0.0
C809 C 0.23905 0.70705 0.15173 0.0
C810 C 0.22776 0.69874 0.26506 0.0
H811 H 0.16762 0.78959 0.3647 0.0
H812 H 0.17896 0.76678 0.30453 0.0
H813 H 0.2146 0.69866 0.32739 0.0
H814 H 0.29296 0.66894 0.17333 0.0
H815 H 0.26939 0.6824 0.23105 0.0
H816 H 0.22979 0.74603 0.2016 0.0
C817 C 0.1864 0.76247 0.3344 0.0
C818 C 0.21781 0.70919 0.30014 0.0
C819 C 0.17974 0.77546 0.36906 0.0
C820 C 0.27782 0.67936 0.1666 0.0
C821 C 0.26417 0.68697 0.19981 0.0
C822 C 0.22615 0.73535 0.2285 0.0
C823 C 0.2029 0.74466 0.338 0.0
C824 C 0.21218 0.73294 0.30003 0.0
C825 C 0.24494 0.70138 0.19296 0.0
C826 C 0.2323 0.71176 0.22893 0.0
H827 H 0.21229 0.74831 0.4426 0.0
H828 H 0.22428 0.72577 0.38187 0.0
H829 H 0.21267 0.76421 0.2624 0.0
H830 H 0.24816 0.70463 0.08715 0.0
H831 H 0.22417 0.71789 0.14531 0.0
C832 C 0.26104 0.80714 0.61789 0.0
C833 C 0.24142 0.82105 0.62488 0.0
C834 C 0.27434 0.79913 0.65141 0.0
C835 C 0.28544 0.80749 0.76478 0.0
H836 H 0.29952 0.74179 0.76227 0.0
C837 C 0.30839 0.75426 0.91257 0.0
C838 C 0.3237 0.73548 0.90823 0.0
C839 C 0.30141 0.76703 0.87766 0.0
C840 C 0.29616 0.76026 0.76337 0.0
H841 H 0.22126 0.83855 0.67246 0.0
H842 H 0.24428 0.82465 0.73041 0.0
H843 H 0.28271 0.7601 0.70145 0.0
H844 H 0.34491 0.71642 0.86421 0.0
H845 H 0.33333 0.73893 0.804 0.0
H846 H 0.29859 0.80752 0.82707 0.0
C847 C 0.24951 0.8199 0.69922 0.0
C848 C 0.28649 0.77078 0.72833 0.0
C849 C 0.23618 0.82776 0.66588 0.0
C850 C 0.33286 0.73061 0.86865 0.0
C851 C 0.32606 0.74343 0.83397 0.0
C852 C 0.2952 0.79696 0.79987 0.0
C853 C 0.26843 0.80502 0.69258 0.0
C854 C 0.28075 0.79447 0.72867 0.0
C855 C 0.30973 0.76139 0.83771 0.0
C856 C 0.30049 0.77313 0.7998 0.0
H857 H 0.26555 0.80163 0.58675 0.0
H858 H 0.289 0.78794 0.64513 0.0
H859 H 0.28148 0.82584 0.76599 0.0
H860 H 0.30092 0.75838 0.94256 0.0
H861 H 0.2887 0.78064 0.88179 0.0
C862 C 0.24613 0.31454 0.91714 0.0
C863 C 0.26676 0.32662 0.90813 0.0
C864 C 0.23152 0.30706 0.88493 0.0
C865 C 0.21903 0.3138 0.77198 0.0
H866 H 0.20319 0.24844 0.77779 0.0
C867 C 0.19651 0.25841 0.62692 0.0
C868 C 0.18145 0.23936 0.63169 0.0
C869 C 0.20281 0.27197 0.66134 0.0
C870 C 0.20697 0.26684 0.7758 0.0
H871 H 0.28742 0.34172 0.85856 0.0
H872 H 0.26203 0.32884 0.8028 0.0
H873 H 0.22075 0.26738 0.83746 0.0
H874 H 0.15981 0.22065 0.67562 0.0
H875 H 0.17011 0.24463 0.73507 0.0
H876 H 0.20561 0.31312 0.70993 0.0
C877 C 0.25706 0.32506 0.83454 0.0
C878 C 0.21708 0.27771 0.81018 0.0
C879 C 0.27171 0.33231 0.86657 0.0
C880 C 0.17168 0.23506 0.67099 0.0
C881 C 0.17775 0.24872 0.70519 0.0
C882 C 0.20877 0.30294 0.73759 0.0
C883 C 0.23712 0.31178 0.84317 0.0
C884 C 0.22364 0.30121 0.80847 0.0
C885 C 0.19399 0.26688 0.70118 0.0
C886 C 0.20296 0.2792 0.73879 0.0
H887 H 0.24185 0.30985 0.94882 0.0
H888 H 0.21614 0.29706 0.89261 0.0
H889 H 0.22367 0.332 0.76982 0.0
H890 H 0.20443 0.26209 0.5971 0.0
H891 H 0.21549 0.28568 0.65701 0.0
C892 C 0.69402 0.26738 0.90093 0.0
C893 C 0.6721 0.27731 0.89425 0.0
C894 C 0.70462 0.25398 0.87 0.0
C895 C 0.69467 0.22471 0.76724 0.0
H896 H 0.76063 0.23626 0.75442 0.0
C897 C 0.74941 0.19989 0.61996 0.0
C898 C 0.77175 0.19111 0.62772 0.0
C899 C 0.73557 0.20808 0.65285 0.0
C900 C 0.74225 0.23264 0.75775 0.0
H901 H 0.64366 0.27989 0.85035 0.0
H902 H 0.66227 0.25705 0.79633 0.0
H903 H 0.73984 0.254 0.81177 0.0
H904 H 0.79629 0.18263 0.67652 0.0
H905 H 0.7724 0.1968 0.73307 0.0
H906 H 0.69727 0.20378 0.7121 0.0
C907 C 0.67122 0.25925 0.82564 0.0
C908 C 0.7303 0.24272 0.7909 0.0
C909 C 0.66052 0.27245 0.85674 0.0
C910 C 0.7794 0.18968 0.66914 0.0
C911 C 0.7657 0.19786 0.70171 0.0
C912 C 0.70667 0.21473 0.73373 0.0
C913 C 0.69371 0.25037 0.83135 0.0
C914 C 0.70635 0.23885 0.79636 0.0
C915 C 0.74387 0.20768 0.69399 0.0
C916 C 0.73064 0.21848 0.72879 0.0
H917 H 0.7034 0.27065 0.9295 0.0
H918 H 0.72168 0.24694 0.87607 0.0
H919 H 0.6763 0.22115 0.77051 0.0
H920 H 0.74298 0.20123 0.58847 0.0
H921 H 0.71881 0.21557 0.6459 0.0
C922 C 0.73597 0.68057 0.86346 0.0
C923 C 0.74064 0.68991 0.90298 0.0
C924 C 0.74879 0.68755 0.82879 0.0
C925 C 0.80183 0.71977 0.79458 0.0
H926 H 0.7647 0.7315 0.69645 0.0
C927 C 0.83099 0.78049 0.66153 0.0
C928 C 0.82451 0.77517 0.62045 0.0
C929 C 0.82351 0.7667 0.69465 0.0
C930 C 0.77546 0.72794 0.72324 0.0
H931 H 0.76322 0.71317 0.93729 0.0
H932 H 0.78546 0.72573 0.87653 0.0
H933 H 0.74675 0.714 0.75718 0.0
H934 H 0.80593 0.75047 0.58191 0.0
H935 H 0.79286 0.72624 0.63994 0.0
H936 H 0.8304 0.73446 0.76072 0.0
C937 C 0.77203 0.71273 0.87243 0.0
C938 C 0.76515 0.71787 0.75823 0.0
C939 C 0.75926 0.70556 0.90734 0.0
C940 C 0.81123 0.75505 0.61314 0.0
C941 C 0.80359 0.74129 0.64643 0.0
C942 C 0.81214 0.72994 0.75955 0.0
C943 C 0.76654 0.70426 0.8325 0.0
C944 C 0.77811 0.71382 0.79457 0.0
C945 C 0.80925 0.74723 0.68769 0.0
C946 C 0.79902 0.73439 0.72358 0.0
H947 H 0.72189 0.66827 0.85905 0.0
H948 H 0.74443 0.68016 0.79884 0.0
H949 H 0.81245 0.71662 0.82171 0.0
H950 H 0.84131 0.79579 0.66835 0.0
H951 H 0.82805 0.77196 0.72592 0.0
loop_
_geom_bond_atom_site_label_1
_geom_bond_atom_site_label_2
_geom_bond_distance
_geom_bond_site_symmetry_2
_ccdc_geom_bond_type
Co0 O2 2.143 1_556 S
Co0 O8 2.074 . S
Co0 O11 2.093 . S
Co0 O24 2.097 . S
Co0 N41 2.151 . S
Co0 N49 2.214 . S
Co1 O2 2.160 . S
Co1 O7 2.058 . S
Co1 O17 2.057 . S
Co1 O32 2.037 . S
Co1 N36 2.145 . S
Co1 N57 2.257 . S
O2 Co0 2.143 1_554 S
O2 Co1 2.160 . S
C3 O4 1.278 . S
C3 O11 1.224 . S
O4 C3 1.278 . S
C5 O6 1.245 . S
C5 O17 1.232 . S
O6 C5 1.245 . S
O7 Co1 2.058 . S
O7 C33 1.269 . S
O8 Co0 2.074 . S
O8 C33 1.257 1_556 S
H9 C34 0.930 . S
H10 C40 0.930 . S
O11 Co0 2.093 . S
O11 C3 1.224 . S
H12 C44 0.929 . S
H13 C46 0.930 . S
H14 C47 0.930 . S
H15 C45 0.929 . S
H16 C48 0.928 . S
O17 Co1 2.057 . S
O17 C5 1.232 . S
H18 C37 0.929 . S
H19 C38 0.929 . S
H20 C50 0.931 . S
H21 C42 0.929 . S
H22 C51 0.930 . S
H23 C43 0.931 . S
O24 Co0 2.097 . S
O24 C52 1.214 . S
H25 C53 0.929 . S
H26 C54 0.929 . S
H27 C55 0.930 . S
H28 C56 0.929 . S
H29 C58 0.930 . S
H30 C35 0.930 . S
H31 C39 0.930 . S
O32 Co1 2.037 . S
O32 C52 1.234 1_554 S
C33 O7 1.269 . S
C33 O8 1.257 1_554 S
C34 H9 0.930 . S
C34 C37 1.388 . S
C34 C39 1.418 . S
C35 H30 0.930 . S
C35 C38 1.404 . S
C35 C39 1.353 . S
N36 Co1 2.145 . S
N36 C37 1.397 . S
N36 C38 1.334 . S
C37 H18 0.929 . S
C37 C34 1.388 . S
C37 N36 1.397 . S
C38 H19 0.929 . S
C38 C35 1.404 . S
C38 N36 1.334 . S
C39 H31 0.930 . S
C39 C34 1.418 . S
C39 C35 1.353 . S
C40 H10 0.930 . S
C40 N41 1.330 . S
C40 C42 1.446 . S
N41 Co0 2.151 . S
N41 C40 1.330 . S
N41 C45 1.418 . S
C42 H21 0.929 . S
C42 C40 1.446 . S
C42 C43 1.332 . S
C43 H23 0.931 . S
C43 C42 1.332 . S
C43 C44 1.267 . S
C44 H12 0.929 . S
C44 C43 1.267 . S
C44 C45 1.251 . S
C45 H15 0.929 . S
C45 N41 1.418 . S
C45 C44 1.251 . S
C46 H13 0.930 . S
C46 C48 1.406 . S
C46 C51 1.261 . S
C47 H14 0.930 . S
C47 N49 1.325 . S
C47 C50 1.357 . S
C48 H16 0.928 . S
C48 C46 1.406 . S
C48 N49 1.261 . S
N49 Co0 2.214 . S
N49 C47 1.325 . S
N49 C48 1.261 . S
C50 H20 0.931 . S
C50 C47 1.357 . S
C50 C51 1.312 . S
C51 H22 0.930 . S
C51 C46 1.261 . S
C51 C50 1.312 . S
C52 O24 1.214 . S
C52 O32 1.234 1_556 S
C53 H25 0.929 . S
C53 C56 1.391 . S
C53 C58 1.391 . S
C54 H26 0.929 . S
C54 C55 1.390 . S
C54 N57 1.391 . S
C55 H27 0.930 . S
C55 C54 1.390 . S
C55 C56 1.392 . S
C56 H28 0.929 . S
C56 C53 1.391 . S
C56 C55 1.392 . S
N57 Co1 2.257 . S
N57 C54 1.391 . S
N57 C58 1.388 . S
C58 H29 0.930 . S
C58 C53 1.391 . S
C58 N57 1.388 . S
Co59 O61 2.143 . S
Co59 O67 2.074 . S
Co59 O70 2.093 . S
Co59 O83 2.097 . S
Co59 N100 2.151 . S
Co59 N108 2.214 . S
Co60 O61 2.160 1_556 S
Co60 O66 2.058 . S
Co60 O76 2.057 . S
Co60 O91 2.037 . S
Co60 N95 2.145 . S
Co60 N116 2.257 . S
O61 Co59 2.143 . S
O61 Co60 2.160 1_554 S
C62 O63 1.278 . S
C62 O70 1.224 . S
O63 C62 1.278 . S
C64 O65 1.245 . S
C64 O76 1.232 . S
O65 C64 1.245 . S
O66 Co60 2.058 . S
O66 C92 1.269 . S
O67 Co59 2.074 . S
O67 C92 1.257 1_554 S
H68 C93 0.930 . S
H69 C99 0.930 . S
O70 Co59 2.093 . S
O70 C62 1.224 . S
H71 C103 0.929 . S
H72 C105 0.930 . S
H73 C106 0.930 . S
H74 C104 0.929 . S
H75 C107 0.928 . S
O76 Co60 2.057 . S
O76 C64 1.232 . S
H77 C96 0.929 . S
H78 C97 0.929 . S
H79 C109 0.931 . S
H80 C101 0.929 . S
H81 C110 0.930 . S
H82 C102 0.931 . S
O83 Co59 2.097 . S
O83 C111 1.214 . S
H84 C112 0.929 . S
H85 C113 0.929 . S
H86 C114 0.930 . S
H87 C115 0.929 . S
H88 C117 0.930 . S
H89 C94 0.930 . S
H90 C98 0.930 . S
O91 Co60 2.037 . S
O91 C111 1.234 1_556 S
C92 O66 1.269 . S
C92 O67 1.257 1_556 S
C93 H68 0.930 . S
C93 C96 1.388 . S
C93 C98 1.418 . S
C94 H89 0.930 . S
C94 C97 1.404 . S
C94 C98 1.353 . S
N95 Co60 2.145 . S
N95 C96 1.397 . S
N95 C97 1.334 . S
C96 H77 0.929 . S
C96 C93 1.388 . S
C96 N95 1.397 . S
C97 H78 0.929 . S
C97 C94 1.404 . S
C97 N95 1.334 . S
C98 H90 0.930 . S
C98 C93 1.418 . S
C98 C94 1.353 . S
C99 H69 0.930 . S
C99 N100 1.330 . S
C99 C101 1.446 . S
N100 Co59 2.151 . S
N100 C99 1.330 . S
N100 C104 1.418 . S
C101 H80 0.929 . S
C101 C99 1.446 . S
C101 C102 1.332 . S
C102 H82 0.931 . S
C102 C101 1.332 . S
C102 C103 1.267 . S
C103 H71 0.929 . S
C103 C102 1.267 . S
C103 C104 1.251 . S
C104 H74 0.929 . S
C104 N100 1.418 . S
C104 C103 1.251 . S
C105 H72 0.930 . S
C105 C107 1.406 . S
C105 C110 1.261 . S
C106 H73 0.930 . S
C106 N108 1.325 . S
C106 C109 1.357 . S
C107 H75 0.928 . S
C107 C105 1.406 . S
C107 N108 1.261 . S
N108 Co59 2.214 . S
N108 C106 1.325 . S
N108 C107 1.261 . S
C109 H79 0.931 . S
C109 C106 1.357 . S
C109 C110 1.312 . S
C110 H81 0.930 . S
C110 C105 1.261 . S
C110 C109 1.312 . S
C111 O83 1.214 . S
C111 O91 1.234 1_554 S
C112 H84 0.929 . S
C112 C115 1.391 . S
C112 C117 1.391 . S
C113 H85 0.929 . S
C113 C114 1.390 . S
C113 N116 1.391 . S
C114 H86 0.930 . S
C114 C113 1.390 . S
C114 C115 1.392 . S
C115 H87 0.929 . S
C115 C112 1.391 . S
C115 C114 1.392 . S
N116 Co60 2.257 . S
N116 C113 1.391 . S
N116 C117 1.388 . S
C117 H88 0.930 . S
C117 C112 1.391 . S
C117 N116 1.388 . S
Co118 O120 2.143 . S
Co118 O126 2.074 . S
Co118 O129 2.093 . S
Co118 O142 2.097 . S
Co118 N159 2.151 . S
Co118 N167 2.214 . S
Co119 O120 2.160 1_556 S
Co119 O125 2.058 . S
Co119 O135 2.057 . S
Co119 O150 2.037 . S
Co119 N154 2.145 . S
Co119 N175 2.257 . S
O120 Co118 2.143 . S
O120 Co119 2.160 1_554 S
C121 O122 1.278 . S
C121 O129 1.224 . S
O122 C121 1.278 . S
C123 O124 1.245 . S
C123 O135 1.232 . S
O124 C123 1.245 . S
O125 Co119 2.058 . S
O125 C151 1.269 . S
O126 Co118 2.074 . S
O126 C151 1.257 1_554 S
H127 C152 0.930 . S
H128 C158 0.930 . S
O129 Co118 2.093 . S
O129 C121 1.224 . S
H130 C162 0.929 . S
H131 C164 0.930 . S
H132 C165 0.930 . S
H133 C163 0.929 . S
H134 C166 0.928 . S
O135 Co119 2.057 . S
O135 C123 1.232 . S
H136 C155 0.929 . S
H137 C156 0.929 . S
H138 C168 0.931 . S
H139 C160 0.929 . S
H140 C169 0.930 . S
H141 C161 0.931 . S
O142 Co118 2.097 . S
O142 C170 1.214 . S
H143 C171 0.929 . S
H144 C172 0.929 . S
H145 C173 0.930 . S
H146 C174 0.929 . S
H147 C176 0.930 . S
H148 C153 0.930 . S
H149 C157 0.930 . S
O150 Co119 2.037 . S
O150 C170 1.234 1_556 S
C151 O125 1.269 . S
C151 O126 1.257 1_556 S
C152 H127 0.930 . S
C152 C155 1.388 . S
C152 C157 1.418 . S
C153 H148 0.930 . S
C153 C156 1.404 . S
C153 C157 1.353 . S
N154 Co119 2.145 . S
N154 C155 1.397 . S
N154 C156 1.334 . S
C155 H136 0.929 . S
C155 C152 1.388 . S
C155 N154 1.397 . S
C156 H137 0.929 . S
C156 C153 1.404 . S
C156 N154 1.334 . S
C157 H149 0.930 . S
C157 C152 1.418 . S
C157 C153 1.353 . S
C158 H128 0.930 . S
C158 N159 1.330 . S
C158 C160 1.446 . S
N159 Co118 2.151 . S
N159 C158 1.330 . S
N159 C163 1.418 . S
C160 H139 0.929 . S
C160 C158 1.446 . S
C160 C161 1.332 . S
C161 H141 0.931 . S
C161 C160 1.332 . S
C161 C162 1.267 . S
C162 H130 0.929 . S
C162 C161 1.267 . S
C162 C163 1.251 . S
C163 H133 0.929 . S
C163 N159 1.418 . S
C163 C162 1.251 . S
C164 H131 0.930 . S
C164 C166 1.406 . S
C164 C169 1.261 . S
C165 H132 0.930 . S
C165 N167 1.325 . S
C165 C168 1.357 . S
C166 H134 0.928 . S
C166 C164 1.406 . S
C166 N167 1.261 . S
N167 Co118 2.214 . S
N167 C165 1.325 . S
N167 C166 1.261 . S
C168 H138 0.931 . S
C168 C165 1.357 . S
C168 C169 1.312 . S
C169 H140 0.930 . S
C169 C164 1.261 . S
C169 C168 1.312 . S
C170 O142 1.214 . S
C170 O150 1.234 1_554 S
C171 H143 0.929 . S
C171 C174 1.391 . S
C171 C176 1.391 . S
C172 H144 0.929 . S
C172 C173 1.390 . S
C172 N175 1.391 . S
C173 H145 0.930 . S
C173 C172 1.390 . S
C173 C174 1.392 . S
C174 H146 0.929 . S
C174 C171 1.391 . S
C174 C173 1.392 . S
N175 Co119 2.257 . S
N175 C172 1.391 . S
N175 C176 1.388 . S
C176 H147 0.930 . S
C176 C171 1.391 . S
C176 N175 1.388 . S
Co177 O179 2.143 1_556 S
Co177 O185 2.074 . S
Co177 O188 2.093 . S
Co177 O201 2.097 . S
Co177 N218 2.151 . S
Co177 N226 2.214 . S
Co178 O179 2.160 . S
Co178 O184 2.058 . S
Co178 O194 2.057 . S
Co178 O209 2.037 . S
Co178 N213 2.145 . S
Co178 N234 2.257 . S
O179 Co177 2.143 1_554 S
O179 Co178 2.160 . S
C180 O181 1.278 . S
C180 O188 1.224 . S
O181 C180 1.278 . S
C182 O183 1.245 . S
C182 O194 1.232 . S
O183 C182 1.245 . S
O184 Co178 2.058 . S
O184 C210 1.269 . S
O185 Co177 2.074 . S
O185 C210 1.257 1_556 S
H186 C211 0.930 . S
H187 C217 0.930 . S
O188 Co177 2.093 . S
O188 C180 1.224 . S
H189 C221 0.929 . S
H190 C223 0.930 . S
H191 C224 0.930 . S
H192 C222 0.929 . S
H193 C225 0.928 . S
O194 Co178 2.057 . S
O194 C182 1.232 . S
H195 C214 0.929 . S
H196 C215 0.929 . S
H197 C227 0.931 . S
H198 C219 0.929 . S
H199 C228 0.930 . S
H200 C220 0.931 . S
O201 Co177 2.097 . S
O201 C229 1.214 . S
H202 C230 0.929 . S
H203 C231 0.929 . S
H204 C232 0.930 . S
H205 C233 0.929 . S
H206 C235 0.930 . S
H207 C212 0.930 . S
H208 C216 0.930 . S
O209 Co178 2.037 . S
O209 C229 1.234 1_554 S
C210 O184 1.269 . S
C210 O185 1.257 1_554 S
C211 H186 0.930 . S
C211 C214 1.388 . S
C211 C216 1.418 . S
C212 H207 0.930 . S
C212 C215 1.404 . S
C212 C216 1.353 . S
N213 Co178 2.145 . S
N213 C214 1.397 . S
N213 C215 1.334 . S
C214 H195 0.929 . S
C214 C211 1.388 . S
C214 N213 1.397 . S
C215 H196 0.929 . S
C215 C212 1.404 . S
C215 N213 1.334 . S
C216 H208 0.930 . S
C216 C211 1.418 . S
C216 C212 1.353 . S
C217 H187 0.930 . S
C217 N218 1.330 . S
C217 C219 1.446 . S
N218 Co177 2.151 . S
N218 C217 1.330 . S
N218 C222 1.418 . S
C219 H198 0.929 . S
C219 C217 1.446 . S
C219 C220 1.332 . S
C220 H200 0.931 . S
C220 C219 1.332 . S
C220 C221 1.267 . S
C221 H189 0.929 . S
C221 C220 1.267 . S
C221 C222 1.251 . S
C222 H192 0.929 . S
C222 N218 1.418 . S
C222 C221 1.251 . S
C223 H190 0.930 . S
C223 C225 1.406 . S
C223 C228 1.261 . S
C224 H191 0.930 . S
C224 N226 1.325 . S
C224 C227 1.357 . S
C225 H193 0.928 . S
C225 C223 1.406 . S
C225 N226 1.261 . S
N226 Co177 2.214 . S
N226 C224 1.325 . S
N226 C225 1.261 . S
C227 H197 0.931 . S
C227 C224 1.357 . S
C227 C228 1.312 . S
C228 H199 0.930 . S
C228 C223 1.261 . S
C228 C227 1.312 . S
C229 O201 1.214 . S
C229 O209 1.234 1_556 S
C230 H202 0.929 . S
C230 C233 1.391 . S
C230 C235 1.391 . S
C231 H203 0.929 . S
C231 C232 1.390 . S
C231 N234 1.391 . S
C232 H204 0.930 . S
C232 C231 1.390 . S
C232 C233 1.392 . S
C233 H205 0.929 . S
C233 C230 1.391 . S
C233 C232 1.392 . S
N234 Co178 2.257 . S
N234 C231 1.391 . S
N234 C235 1.388 . S
C235 H206 0.930 . S
C235 C230 1.391 . S
C235 N234 1.388 . S
Co236 O238 2.143 . S
Co236 O244 2.074 . S
Co236 O247 2.093 . S
Co236 O260 2.097 . S
Co236 N277 2.151 . S
Co236 N285 2.214 . S
Co237 O238 2.160 . S
Co237 O243 2.058 . S
Co237 O253 2.057 . S
Co237 O268 2.037 . S
Co237 N272 2.145 . S
Co237 N293 2.257 . S
O238 Co236 2.143 . S
O238 Co237 2.160 . S
C239 O240 1.278 . S
C239 O247 1.224 . S
O240 C239 1.278 . S
C241 O242 1.245 . S
C241 O253 1.232 . S
O242 C241 1.245 . S
O243 Co237 2.058 . S
O243 C269 1.269 . S
O244 Co236 2.074 . S
O244 C269 1.257 . S
H245 C270 0.930 . S
H246 C276 0.930 . S
O247 Co236 2.093 . S
O247 C239 1.224 . S
H248 C280 0.929 . S
H249 C282 0.930 . S
H250 C283 0.930 . S
H251 C281 0.929 . S
H252 C284 0.928 . S
O253 Co237 2.057 . S
O253 C241 1.232 . S
H254 C273 0.929 . S
H255 C274 0.929 . S
H256 C286 0.931 . S
H257 C278 0.929 . S
H258 C287 0.930 . S
H259 C279 0.931 . S
O260 Co236 2.097 . S
O260 C288 1.214 . S
H261 C289 0.929 . S
H262 C290 0.929 . S
H263 C291 0.930 . S
H264 C292 0.929 . S
H265 C294 0.930 . S
H266 C271 0.930 . S
H267 C275 0.930 . S
O268 Co237 2.037 . S
O268 C288 1.234 . S
C269 O243 1.269 . S
C269 O244 1.257 . S
C270 H245 0.930 . S
C270 C273 1.388 . S
C270 C275 1.418 . S
C271 H266 0.930 . S
C271 C274 1.404 . S
C271 C275 1.353 . S
N272 Co237 2.145 . S
N272 C273 1.397 . S
N272 C274 1.334 . S
C273 H254 0.929 . S
C273 C270 1.388 . S
C273 N272 1.397 . S
C274 H255 0.929 . S
C274 C271 1.404 . S
C274 N272 1.334 . S
C275 H267 0.930 . S
C275 C270 1.418 . S
C275 C271 1.353 . S
C276 H246 0.930 . S
C276 N277 1.330 . S
C276 C278 1.446 . S
N277 Co236 2.151 . S
N277 C276 1.330 . S
N277 C281 1.418 . S
C278 H257 0.929 . S
C278 C276 1.446 . S
C278 C279 1.332 . S
C279 H259 0.931 . S
C279 C278 1.332 . S
C279 C280 1.267 . S
C280 H248 0.929 . S
C280 C279 1.267 . S
C280 C281 1.251 . S
C281 H251 0.929 . S
C281 N277 1.418 . S
C281 C280 1.251 . S
C282 H249 0.930 . S
C282 C284 1.406 . S
C282 C287 1.261 . S
C283 H250 0.930 . S
C283 N285 1.325 . S
C283 C286 1.357 . S
C284 H252 0.928 . S
C284 C282 1.406 . S
C284 N285 1.261 . S
N285 Co236 2.214 . S
N285 C283 1.325 . S
N285 C284 1.261 . S
C286 H256 0.931 . S
C286 C283 1.357 . S
C286 C287 1.312 . S
C287 H258 0.930 . S
C287 C282 1.261 . S
C287 C286 1.312 . S
C288 O260 1.214 . S
C288 O268 1.234 . S
C289 H261 0.929 . S
C289 C292 1.391 . S
C289 C294 1.391 . S
C290 H262 0.929 . S
C290 C291 1.390 . S
C290 N293 1.391 . S
C291 H263 0.930 . S
C291 C290 1.390 . S
C291 C292 1.392 . S
C292 H264 0.929 . S
C292 C289 1.391 . S
C292 C291 1.392 . S
N293 Co237 2.257 . S
N293 C290 1.391 . S
N293 C294 1.388 . S
C294 H265 0.930 . S
C294 C289 1.391 . S
C294 N293 1.388 . S
Co295 O297 2.143 . S
Co295 O303 2.074 . S
Co295 O306 2.093 . S
Co295 O319 2.097 . S
Co295 N336 2.151 . S
Co295 N344 2.214 . S
Co296 O297 2.160 . S
Co296 O302 2.058 . S
Co296 O312 2.057 . S
Co296 O327 2.037 . S
Co296 N331 2.145 . S
Co296 N352 2.257 . S
O297 Co295 2.143 . S
O297 Co296 2.160 . S
C298 O299 1.278 . S
C298 O306 1.224 . S
O299 C298 1.278 . S
C300 O301 1.245 . S
C300 O312 1.232 . S
O301 C300 1.245 . S
O302 Co296 2.058 . S
O302 C328 1.269 . S
O303 Co295 2.074 . S
O303 C328 1.257 . S
H304 C329 0.930 . S
H305 C335 0.930 . S
O306 Co295 2.093 . S
O306 C298 1.224 . S
H307 C339 0.929 . S
H308 C341 0.930 . S
H309 C342 0.930 . S
H310 C340 0.929 . S
H311 C343 0.928 . S
O312 Co296 2.057 . S
O312 C300 1.232 . S
H313 C332 0.929 . S
H314 C333 0.929 . S
H315 C345 0.931 . S
H316 C337 0.929 . S
H317 C346 0.930 . S
H318 C338 0.931 . S
O319 Co295 2.097 . S
O319 C347 1.214 . S
H320 C348 0.929 . S
H321 C349 0.929 . S
H322 C350 0.930 . S
H323 C351 0.929 . S
H324 C353 0.930 . S
H325 C330 0.930 . S
H326 C334 0.930 . S
O327 Co296 2.037 . S
O327 C347 1.234 . S
C328 O302 1.269 . S
C328 O303 1.257 . S
C329 H304 0.930 . S
C329 C332 1.388 . S
C329 C334 1.418 . S
C330 H325 0.930 . S
C330 C333 1.404 . S
C330 C334 1.353 . S
N331 Co296 2.145 . S
N331 C332 1.397 . S
N331 C333 1.334 . S
C332 H313 0.929 . S
C332 C329 1.388 . S
C332 N331 1.397 . S
C333 H314 0.929 . S
C333 C330 1.404 . S
C333 N331 1.334 . S
C334 H326 0.930 . S
C334 C329 1.418 . S
C334 C330 1.353 . S
C335 H305 0.930 . S
C335 N336 1.330 . S
C335 C337 1.446 . S
N336 Co295 2.151 . S
N336 C335 1.330 . S
N336 C340 1.418 . S
C337 H316 0.929 . S
C337 C335 1.446 . S
C337 C338 1.332 . S
C338 H318 0.931 . S
C338 C337 1.332 . S
C338 C339 1.267 . S
C339 H307 0.929 . S
C339 C338 1.267 . S
C339 C340 1.251 . S
C340 H310 0.929 . S
C340 N336 1.418 . S
C340 C339 1.251 . S
C341 H308 0.930 . S
C341 C343 1.406 . S
C341 C346 1.261 . S
C342 H309 0.930 . S
C342 N344 1.325 . S
C342 C345 1.357 . S
C343 H311 0.928 . S
C343 C341 1.406 . S
C343 N344 1.261 . S
N344 Co295 2.214 . S
N344 C342 1.325 . S
N344 C343 1.261 . S
C345 H315 0.931 . S
C345 C342 1.357 . S
C345 C346 1.312 . S
C346 H317 0.930 . S
C346 C341 1.261 . S
C346 C345 1.312 . S
C347 O319 1.214 . S
C347 O327 1.234 . S
C348 H320 0.929 . S
C348 C351 1.391 . S
C348 C353 1.391 . S
C349 H321 0.929 . S
C349 C350 1.390 . S
C349 N352 1.391 . S
C350 H322 0.930 . S
C350 C349 1.390 . S
C350 C351 1.392 . S
C351 H323 0.929 . S
C351 C348 1.391 . S
C351 C350 1.392 . S
N352 Co296 2.257 . S
N352 C349 1.391 . S
N352 C353 1.388 . S
C353 H324 0.930 . S
C353 C348 1.391 . S
C353 N352 1.388 . S
Co354 O356 2.143 . S
Co354 O362 2.074 . S
Co354 O365 2.093 . S
Co354 O378 2.097 . S
Co354 N395 2.151 . S
Co354 N403 2.214 . S
Co355 O356 2.160 . S
Co355 O361 2.058 . S
Co355 O371 2.057 . S
Co355 O386 2.037 . S
Co355 N390 2.145 . S
Co355 N411 2.257 . S
O356 Co354 2.143 . S
O356 Co355 2.160 . S
C357 O358 1.278 . S
C357 O365 1.224 . S
O358 C357 1.278 . S
C359 O360 1.245 . S
C359 O371 1.232 . S
O360 C359 1.245 . S
O361 Co355 2.058 . S
O361 C387 1.269 . S
O362 Co354 2.074 . S
O362 C387 1.257 . S
H363 C388 0.930 . S
H364 C394 0.930 . S
O365 Co354 2.093 . S
O365 C357 1.224 . S
H366 C398 0.929 . S
H367 C400 0.930 . S
H368 C401 0.930 . S
H369 C399 0.929 . S
H370 C402 0.928 . S
O371 Co355 2.057 . S
O371 C359 1.232 . S
H372 C391 0.929 . S
H373 C392 0.929 . S
H374 C404 0.931 . S
H375 C396 0.929 . S
H376 C405 0.930 . S
H377 C397 0.931 . S
O378 Co354 2.097 . S
O378 C406 1.214 . S
H379 C407 0.929 . S
H380 C408 0.929 . S
H381 C409 0.930 . S
H382 C410 0.929 . S
H383 C412 0.930 . S
H384 C389 0.930 . S
H385 C393 0.930 . S
O386 Co355 2.037 . S
O386 C406 1.234 . S
C387 O361 1.269 . S
C387 O362 1.257 . S
C388 H363 0.930 . S
C388 C391 1.388 . S
C388 C393 1.418 . S
C389 H384 0.930 . S
C389 C392 1.404 . S
C389 C393 1.353 . S
N390 Co355 2.145 . S
N390 C391 1.397 . S
N390 C392 1.334 . S
C391 H372 0.929 . S
C391 C388 1.388 . S
C391 N390 1.397 . S
C392 H373 0.929 . S
C392 C389 1.404 . S
C392 N390 1.334 . S
C393 H385 0.930 . S
C393 C388 1.418 . S
C393 C389 1.353 . S
C394 H364 0.930 . S
C394 N395 1.330 . S
C394 C396 1.446 . S
N395 Co354 2.151 . S
N395 C394 1.330 . S
N395 C399 1.418 . S
C396 H375 0.929 . S
C396 C394 1.446 . S
C396 C397 1.332 . S
C397 H377 0.931 . S
C397 C396 1.332 . S
C397 C398 1.267 . S
C398 H366 0.929 . S
C398 C397 1.267 . S
C398 C399 1.251 . S
C399 H369 0.929 . S
C399 N395 1.418 . S
C399 C398 1.251 . S
C400 H367 0.930 . S
C400 C402 1.406 . S
C400 C405 1.261 . S
C401 H368 0.930 . S
C401 N403 1.325 . S
C401 C404 1.357 . S
C402 H370 0.928 . S
C402 C400 1.406 . S
C402 N403 1.261 . S
N403 Co354 2.214 . S
N403 C401 1.325 . S
N403 C402 1.261 . S
C404 H374 0.931 . S
C404 C401 1.357 . S
C404 C405 1.312 . S
C405 H376 0.930 . S
C405 C400 1.261 . S
C405 C404 1.312 . S
C406 O378 1.214 . S
C406 O386 1.234 . S
C407 H379 0.929 . S
C407 C410 1.391 . S
C407 C412 1.391 . S
C408 H380 0.929 . S
C408 C409 1.390 . S
C408 N411 1.391 . S
C409 H381 0.930 . S
C409 C408 1.390 . S
C409 C410 1.392 . S
C410 H382 0.929 . S
C410 C407 1.391 . S
C410 C409 1.392 . S
N411 Co355 2.257 . S
N411 C408 1.391 . S
N411 C412 1.388 . S
C412 H383 0.930 . S
C412 C407 1.391 . S
C412 N411 1.388 . S
Co413 O415 2.143 . S
Co413 O421 2.074 . S
Co413 O424 2.093 . S
Co413 O437 2.097 . S
Co413 N454 2.151 . S
Co413 N462 2.214 . S
Co414 O415 2.160 . S
Co414 O420 2.058 . S
Co414 O430 2.057 . S
Co414 O445 2.037 . S
Co414 N449 2.145 . S
Co414 N470 2.257 . S
O415 Co413 2.143 . S
O415 Co414 2.160 . S
C416 O417 1.278 . S
C416 O424 1.224 . S
O417 C416 1.278 . S
C418 O419 1.245 . S
C418 O430 1.232 . S
O419 C418 1.245 . S
O420 Co414 2.058 . S
O420 C446 1.269 . S
O421 Co413 2.074 . S
O421 C446 1.257 . S
H422 C447 0.930 . S
H423 C453 0.930 . S
O424 Co413 2.093 . S
O424 C416 1.224 . S
H425 C457 0.929 . S
H426 C459 0.930 . S
H427 C460 0.930 . S
H428 C458 0.929 . S
H429 C461 0.928 . S
O430 Co414 2.057 . S
O430 C418 1.232 . S
H431 C450 0.929 . S
H432 C451 0.929 . S
H433 C463 0.931 . S
H434 C455 0.929 . S
H435 C464 0.930 . S
H436 C456 0.931 . S
O437 Co413 2.097 . S
O437 C465 1.214 . S
H438 C466 0.929 . S
H439 C467 0.929 . S
H440 C468 0.930 . S
H441 C469 0.929 . S
H442 C471 0.930 . S
H443 C448 0.930 . S
H444 C452 0.930 . S
O445 Co414 2.037 . S
O445 C465 1.234 . S
C446 O420 1.269 . S
C446 O421 1.257 . S
C447 H422 0.930 . S
C447 C450 1.388 . S
C447 C452 1.418 . S
C448 H443 0.930 . S
C448 C451 1.404 . S
C448 C452 1.353 . S
N449 Co414 2.145 . S
N449 C450 1.397 . S
N449 C451 1.334 . S
C450 H431 0.929 . S
C450 C447 1.388 . S
C450 N449 1.397 . S
C451 H432 0.929 . S
C451 C448 1.404 . S
C451 N449 1.334 . S
C452 H444 0.930 . S
C452 C447 1.418 . S
C452 C448 1.353 . S
C453 H423 0.930 . S
C453 N454 1.330 . S
C453 C455 1.446 . S
N454 Co413 2.151 . S
N454 C453 1.330 . S
N454 C458 1.418 . S
C455 H434 0.929 . S
C455 C453 1.446 . S
C455 C456 1.332 . S
C456 H436 0.931 . S
C456 C455 1.332 . S
C456 C457 1.267 . S
C457 H425 0.929 . S
C457 C456 1.267 . S
C457 C458 1.251 . S
C458 H428 0.929 . S
C458 N454 1.418 . S
C458 C457 1.251 . S
C459 H426 0.930 . S
C459 C461 1.406 . S
C459 C464 1.261 . S
C460 H427 0.930 . S
C460 N462 1.325 . S
C460 C463 1.357 . S
C461 H429 0.928 . S
C461 C459 1.406 . S
C461 N462 1.261 . S
N462 Co413 2.214 . S
N462 C460 1.325 . S
N462 C461 1.261 . S
C463 H433 0.931 . S
C463 C460 1.357 . S
C463 C464 1.312 . S
C464 H435 0.930 . S
C464 C459 1.261 . S
C464 C463 1.312 . S
C465 O437 1.214 . S
C465 O445 1.234 . S
C466 H438 0.929 . S
C466 C469 1.391 . S
C466 C471 1.391 . S
C467 H439 0.929 . S
C467 C468 1.390 . S
C467 N470 1.391 . S
C468 H440 0.930 . S
C468 C467 1.390 . S
C468 C469 1.392 . S
C469 H441 0.929 . S
C469 C466 1.391 . S
C469 C468 1.392 . S
N470 Co414 2.257 . S
N470 C467 1.391 . S
N470 C471 1.388 . S
C471 H442 0.930 . S
C471 C466 1.391 . S
C471 N470 1.388 . S
C472 C473 1.349 . S
C472 C474 1.327 . S
C472 H497 0.950 . S
C473 C472 1.349 . S
C473 C489 1.349 1_556 S
C474 C472 1.327 . S
C474 C493 1.429 . S
C474 H498 0.950 . S
C475 C492 1.574 . S
C475 C494 1.368 1_554 S
C475 H499 0.949 . S
H476 C480 0.949 . S
C477 C478 1.349 . S
C477 C479 1.327 . S
C477 H500 0.950 . S
C478 C477 1.349 . S
C478 C490 1.349 1_554 S
C479 C477 1.327 . S
C479 C495 1.429 . S
C479 H501 0.950 . S
C480 H476 0.949 . S
C480 C488 1.574 . S
C480 C496 1.368 1_556 S
H481 C489 0.950 . S
H482 C487 0.950 . S
H483 C488 0.949 . S
H484 C490 0.950 . S
H485 C491 0.950 . S
H486 C492 0.949 . S
C487 H482 0.950 . S
C487 C489 1.327 . S
C487 C493 1.429 1_554 S
C488 C480 1.574 . S
C488 H483 0.949 . S
C488 C494 1.368 . S
C489 C473 1.349 1_554 S
C489 H481 0.950 . S
C489 C487 1.327 . S
C490 C478 1.349 1_556 S
C490 H484 0.950 . S
C490 C491 1.327 . S
C491 H485 0.950 . S
C491 C490 1.327 . S
C491 C495 1.429 1_556 S
C492 C475 1.574 . S
C492 H486 0.949 . S
C492 C496 1.368 . S
C493 C474 1.429 . S
C493 C487 1.429 1_556 S
C493 C494 1.523 . S
C494 C475 1.368 1_556 S
C494 C488 1.368 . S
C494 C493 1.523 . S
C495 C479 1.429 . S
C495 C491 1.429 1_554 S
C495 C496 1.523 . S
C496 C480 1.368 1_554 S
C496 C492 1.368 . S
C496 C495 1.523 . S
H497 C472 0.950 . S
H498 C474 0.950 . S
H499 C475 0.949 . S
H500 C477 0.950 . S
H501 C479 0.950 . S
C502 C503 1.349 . S
C502 C504 1.327 1_554 S
C502 H527 0.950 1_554 S
C503 C502 1.349 . S
C503 C519 1.349 . S
C504 C502 1.327 1_556 S
C504 C523 1.429 1_556 S
C504 H528 0.950 . S
C505 C522 1.574 . S
C505 C524 1.368 . S
C505 H529 0.949 . S
H506 C510 0.949 . S
C507 C508 1.349 1_554 S
C507 C509 1.327 . S
C507 H530 0.950 . S
C508 C507 1.349 1_556 S
C508 C520 1.349 . S
C509 C507 1.327 . S
C509 C525 1.429 1_554 S
C509 H531 0.950 . S
C510 H506 0.949 . S
C510 C518 1.574 . S
C510 C526 1.368 . S
H511 C519 0.950 . S
H512 C517 0.950 . S
H513 C518 0.949 . S
H514 C520 0.950 . S
H515 C521 0.950 . S
H516 C522 0.949 . S
C517 H512 0.950 . S
C517 C519 1.327 . S
C517 C523 1.429 . S
C518 C510 1.574 . S
C518 H513 0.949 . S
C518 C524 1.368 1_556 S
C519 C503 1.349 . S
C519 H511 0.950 . S
C519 C517 1.327 . S
C520 C508 1.349 . S
C520 H514 0.950 . S
C520 C521 1.327 . S
C521 H515 0.950 . S
C521 C520 1.327 . S
C521 C525 1.429 . S
C522 C505 1.574 . S
C522 H516 0.949 . S
C522 C526 1.368 1_554 S
C523 C504 1.429 1_554 S
C523 C517 1.429 . S
C523 C524 1.523 . S
C524 C505 1.368 . S
C524 C518 1.368 1_554 S
C524 C523 1.523 . S
C525 C509 1.429 1_556 S
C525 C521 1.429 . S
C525 C526 1.523 . S
C526 C510 1.368 . S
C526 C522 1.368 1_556 S
C526 C525 1.523 . S
H527 C502 0.950 1_556 S
H528 C504 0.950 . S
H529 C505 0.949 . S
H530 C507 0.950 . S
H531 C509 0.950 . S
C532 C533 1.349 1_556 S
C532 C534 1.327 . S
C532 H557 0.950 . S
C533 C532 1.349 1_554 S
C533 C549 1.349 . S
C534 C532 1.327 . S
C534 C553 1.429 1_556 S
C534 H558 0.950 . S
C535 C552 1.574 . S
C535 C554 1.368 . S
C535 H559 0.949 . S
H536 C540 0.949 . S
C537 C538 1.349 1_554 S
C537 C539 1.327 . S
C537 H560 0.950 . S
C538 C537 1.349 1_556 S
C538 C550 1.349 . S
C539 C537 1.327 . S
C539 C555 1.429 1_554 S
C539 H561 0.950 . S
C540 H536 0.949 . S
C540 C548 1.574 . S
C540 C556 1.368 . S
H541 C549 0.950 . S
H542 C547 0.950 . S
H543 C548 0.949 . S
H544 C550 0.950 . S
H545 C551 0.950 . S
H546 C552 0.949 . S
C547 H542 0.950 . S
C547 C549 1.327 . S
C547 C553 1.429 . S
C548 C540 1.574 . S
C548 H543 0.949 . S
C548 C554 1.368 1_556 S
C549 C533 1.349 . S
C549 H541 0.950 . S
C549 C547 1.327 . S
C550 C538 1.349 . S
C550 H544 0.950 . S
C550 C551 1.327 . S
C551 H545 0.950 . S
C551 C550 1.327 . S
C551 C555 1.429 . S
C552 C535 1.574 . S
C552 H546 0.949 . S
C552 C556 1.368 1_554 S
C553 C534 1.429 1_554 S
C553 C547 1.429 . S
C553 C554 1.523 . S
C554 C535 1.368 . S
C554 C548 1.368 1_554 S
C554 C553 1.523 . S
C555 C539 1.429 1_556 S
C555 C551 1.429 . S
C555 C556 1.523 . S
C556 C540 1.368 . S
C556 C552 1.368 1_556 S
C556 C555 1.523 . S
H557 C532 0.950 . S
H558 C534 0.950 . S
H559 C535 0.949 . S
H560 C537 0.950 . S
H561 C539 0.950 . S
C562 C563 1.349 . S
C562 C564 1.327 . S
C562 H587 0.950 . S
C563 C562 1.349 . S
C563 C579 1.349 1_556 S
C564 C562 1.327 . S
C564 C583 1.429 . S
C564 H588 0.950 . S
C565 C582 1.574 . S
C565 C584 1.368 1_554 S
C565 H589 0.949 . S
H566 C570 0.949 . S
C567 C568 1.349 . S
C567 C569 1.327 . S
C567 H590 0.950 . S
C568 C567 1.349 . S
C568 C580 1.349 . S
C569 C567 1.327 . S
C569 C585 1.429 . S
C569 H591 0.950 . S
C570 H566 0.949 . S
C570 C578 1.574 . S
C570 C586 1.368 1_556 S
H571 C579 0.950 . S
H572 C577 0.950 . S
H573 C578 0.949 . S
H574 C580 0.950 1_556 S
H575 C581 0.950 . S
H576 C582 0.949 . S
C577 H572 0.950 . S
C577 C579 1.327 . S
C577 C583 1.429 1_554 S
C578 C570 1.574 . S
C578 H573 0.949 . S
C578 C584 1.368 . S
C579 C563 1.349 1_554 S
C579 H571 0.950 . S
C579 C577 1.327 . S
C580 C568 1.349 . S
C580 H574 0.950 1_554 S
C580 C581 1.327 1_554 S
C581 H575 0.950 . S
C581 C580 1.327 1_556 S
C581 C585 1.429 1_556 S
C582 C565 1.574 . S
C582 H576 0.949 . S
C582 C586 1.368 . S
C583 C564 1.429 . S
C583 C577 1.429 1_556 S
C583 C584 1.523 . S
C584 C565 1.368 1_556 S
C584 C578 1.368 . S
C584 C583 1.523 . S
C585 C569 1.429 . S
C585 C581 1.429 1_554 S
C585 C586 1.523 . S
C586 C570 1.368 1_554 S
C586 C582 1.368 . S
C586 C585 1.523 . S
H587 C562 0.950 . S
H588 C564 0.950 . S
H589 C565 0.949 . S
H590 C567 0.950 . S
H591 C569 0.950 . S
C592 C593 1.349 . S
C592 C594 1.327 . S
C592 H617 0.950 . S
C593 C592 1.349 . S
C593 C609 1.349 . S
C594 C592 1.327 . S
C594 C613 1.429 . S
C594 H618 0.950 . S
C595 C612 1.574 1_565 S
C595 C614 1.368 . S
C595 H619 0.949 . S
H596 C600 0.949 . S
C597 C598 1.349 . S
C597 C599 1.327 . S
C597 H620 0.950 . S
C598 C597 1.349 . S
C598 C610 1.349 . S
C599 C597 1.327 . S
C599 C615 1.429 . S
C599 H621 0.950 . S
C600 H596 0.949 . S
C600 C608 1.574 1_545 S
C600 C616 1.368 . S
H601 C609 0.950 . S
H602 C607 0.950 . S
H603 C608 0.949 . S
H604 C610 0.950 . S
H605 C611 0.950 . S
H606 C612 0.949 . S
C607 H602 0.950 . S
C607 C609 1.327 . S
C607 C613 1.429 . S
C608 C600 1.574 1_565 S
C608 H603 0.949 . S
C608 C614 1.368 . S
C609 C593 1.349 . S
C609 H601 0.950 . S
C609 C607 1.327 . S
C610 C598 1.349 . S
C610 H604 0.950 . S
C610 C611 1.327 . S
C611 H605 0.950 . S
C611 C610 1.327 . S
C611 C615 1.429 . S
C612 C595 1.574 1_545 S
C612 H606 0.949 . S
C612 C616 1.368 . S
C613 C594 1.429 . S
C613 C607 1.429 . S
C613 C614 1.523 . S
C614 C595 1.368 . S
C614 C608 1.368 . S
C614 C613 1.523 . S
C615 C599 1.429 . S
C615 C611 1.429 . S
C615 C616 1.523 . S
C616 C600 1.368 . S
C616 C612 1.368 . S
C616 C615 1.523 . S
H617 C592 0.950 . S
H618 C594 0.950 . S
H619 C595 0.949 . S
H620 C597 0.950 . S
H621 C599 0.950 . S
C622 C623 1.349 . S
C622 C624 1.327 . S
C622 H647 0.950 . S
C623 C622 1.349 . S
C623 C639 1.349 . S
C624 C622 1.327 . S
C624 C643 1.429 . S
C624 H648 0.950 . S
C625 C642 1.574 1_455 S
C625 C644 1.368 . S
C625 H649 0.949 . S
H626 C630 0.949 . S
C627 C628 1.349 . S
C627 C629 1.327 . S
C627 H650 0.950 . S
C628 C627 1.349 . S
C628 C640 1.349 . S
C629 C627 1.327 . S
C629 C645 1.429 . S
C629 H651 0.950 . S
C630 H626 0.949 . S
C630 C638 1.574 1_655 S
C630 C646 1.368 . S
H631 C639 0.950 . S
H632 C637 0.950 . S
H633 C638 0.949 . S
H634 C640 0.950 . S
H635 C641 0.950 . S
H636 C642 0.949 . S
C637 H632 0.950 . S
C637 C639 1.327 . S
C637 C643 1.429 . S
C638 C630 1.574 1_455 S
C638 H633 0.949 . S
C638 C644 1.368 . S
C639 C623 1.349 . S
C639 H631 0.950 . S
C639 C637 1.327 . S
C640 C628 1.349 . S
C640 H634 0.950 . S
C640 C641 1.327 . S
C641 H635 0.950 . S
C641 C640 1.327 . S
C641 C645 1.429 . S
C642 C625 1.574 1_655 S
C642 H636 0.949 . S
C642 C646 1.368 . S
C643 C624 1.429 . S
C643 C637 1.429 . S
C643 C644 1.523 . S
C644 C625 1.368 . S
C644 C638 1.368 . S
C644 C643 1.523 . S
C645 C629 1.429 . S
C645 C641 1.429 . S
C645 C646 1.523 . S
C646 C630 1.368 . S
C646 C642 1.368 . S
C646 C645 1.523 . S
H647 C622 0.950 . S
H648 C624 0.950 . S
H649 C625 0.949 . S
H650 C627 0.950 . S
H651 C629 0.950 . S
C652 C653 1.349 . S
C652 C654 1.327 . S
C652 H677 0.950 . S
C653 C652 1.349 . S
C653 C669 1.349 . S
C654 C652 1.327 . S
C654 C673 1.429 . S
C654 H678 0.950 . S
C655 C672 1.574 1_545 S
C655 C674 1.368 . S
C655 H679 0.949 . S
H656 C660 0.949 . S
C657 C658 1.349 . S
C657 C659 1.327 . S
C657 H680 0.950 . S
C658 C657 1.349 . S
C658 C670 1.349 . S
C659 C657 1.327 . S
C659 C675 1.429 . S
C659 H681 0.950 . S
C660 H656 0.949 . S
C660 C668 1.574 1_565 S
C660 C676 1.368 . S
H661 C669 0.950 . S
H662 C667 0.950 . S
H663 C668 0.949 . S
H664 C670 0.950 . S
H665 C671 0.950 . S
H666 C672 0.949 . S
C667 H662 0.950 . S
C667 C669 1.327 . S
C667 C673 1.429 . S
C668 C660 1.574 1_545 S
C668 H663 0.949 . S
C668 C674 1.368 . S
C669 C653 1.349 . S
C669 H661 0.950 . S
C669 C667 1.327 . S
C670 C658 1.349 . S
C670 H664 0.950 . S
C670 C671 1.327 . S
C671 H665 0.950 . S
C671 C670 1.327 . S
C671 C675 1.429 . S
C672 C655 1.574 1_565 S
C672 H666 0.949 . S
C672 C676 1.368 . S
C673 C654 1.429 . S
C673 C667 1.429 . S
C673 C674 1.523 . S
C674 C655 1.368 . S
C674 C668 1.368 . S
C674 C673 1.523 . S
C675 C659 1.429 . S
C675 C671 1.429 . S
C675 C676 1.523 . S
C676 C660 1.368 . S
C676 C672 1.368 . S
C676 C675 1.523 . S
H677 C652 0.950 . S
H678 C654 0.950 . S
H679 C655 0.949 . S
H680 C657 0.950 . S
H681 C659 0.950 . S
C682 C683 1.349 . S
C682 C684 1.327 . S
C682 H707 0.950 . S
C683 C682 1.349 . S
C683 C699 1.349 . S
C684 C682 1.327 . S
C684 C703 1.429 . S
C684 H708 0.950 . S
C685 C702 1.574 1_655 S
C685 C704 1.368 . S
C685 H709 0.949 . S
H686 C690 0.949 . S
C687 C688 1.349 . S
C687 C689 1.327 . S
C687 H710 0.950 . S
C688 C687 1.349 . S
C688 C700 1.349 . S
C689 C687 1.327 . S
C689 C705 1.429 . S
C689 H711 0.950 . S
C690 H686 0.949 . S
C690 C698 1.574 1_455 S
C690 C706 1.368 . S
H691 C699 0.950 . S
H692 C697 0.950 . S
H693 C698 0.949 . S
H694 C700 0.950 . S
H695 C701 0.950 . S
H696 C702 0.949 . S
C697 H692 0.950 . S
C697 C699 1.327 . S
C697 C703 1.429 . S
C698 C690 1.574 1_655 S
C698 H693 0.949 . S
C698 C704 1.368 . S
C699 C683 1.349 . S
C699 H691 0.950 . S
C699 C697 1.327 . S
C700 C688 1.349 . S
C700 H694 0.950 . S
C700 C701 1.327 . S
C701 H695 0.950 . S
C701 C700 1.327 . S
C701 C705 1.429 . S
C702 C685 1.574 1_455 S
C702 H696 0.949 . S
C702 C706 1.368 . S
C703 C684 1.429 . S
C703 C697 1.429 . S
C703 C704 1.523 . S
C704 C685 1.368 . S
C704 C698 1.368 . S
C704 C703 1.523 . S
C705 C689 1.429 . S
C705 C701 1.429 . S
C705 C706 1.523 . S
C706 C690 1.368 . S
C706 C702 1.368 . S
C706 C705 1.523 . S
H707 C682 0.950 . S
H708 C684 0.950 . S
H709 C685 0.949 . S
H710 C687 0.950 . S
H711 C689 0.950 . S
C712 C713 1.349 . S
C712 C714 1.327 . S
C712 H737 0.950 . S
C713 C712 1.349 . S
C713 C729 1.349 . S
C714 C712 1.327 . S
C714 C733 1.429 . S
C714 H738 0.950 . S
C715 C732 1.574 . S
C715 C734 1.368 . S
C715 H739 0.949 . S
H716 C720 0.949 . S
C717 C718 1.349 . S
C717 C719 1.327 . S
C717 H740 0.950 . S
C718 C717 1.349 . S
C718 C730 1.349 . S
C719 C717 1.327 . S
C719 C735 1.429 . S
C719 H741 0.950 . S
C720 H716 0.949 . S
C720 C728 1.574 . S
C720 C736 1.368 . S
H721 C729 0.950 . S
H722 C727 0.950 . S
H723 C728 0.949 . S
H724 C730 0.950 . S
H725 C731 0.950 . S
H726 C732 0.949 . S
C727 H722 0.950 . S
C727 C729 1.327 . S
C727 C733 1.429 . S
C728 C720 1.574 . S
C728 H723 0.949 . S
C728 C734 1.368 . S
C729 C713 1.349 . S
C729 H721 0.950 . S
C729 C727 1.327 . S
C730 C718 1.349 . S
C730 H724 0.950 . S
C730 C731 1.327 . S
C731 H725 0.950 . S
C731 C730 1.327 . S
C731 C735 1.429 . S
C732 C715 1.574 . S
C732 H726 0.949 . S
C732 C736 1.368 . S
C733 C714 1.429 . S
C733 C727 1.429 . S
C733 C734 1.523 . S
C734 C715 1.368 . S
C734 C728 1.368 . S
C734 C733 1.523 . S
C735 C719 1.429 . S
C735 C731 1.429 . S
C735 C736 1.523 . S
C736 C720 1.368 . S
C736 C732 1.368 . S
C736 C735 1.523 . S
H737 C712 0.950 . S
H738 C714 0.950 . S
H739 C715 0.949 . S
H740 C717 0.950 . S
H741 C719 0.950 . S
C742 C743 1.349 . S
C742 C744 1.327 . S
C742 H767 0.950 . S
C743 C742 1.349 . S
C743 C759 1.349 . S
C744 C742 1.327 . S
C744 C763 1.429 . S
C744 H768 0.950 . S
C745 C762 1.574 . S
C745 C764 1.368 . S
C745 H769 0.949 . S
H746 C750 0.949 . S
C747 C748 1.349 . S
C747 C749 1.327 . S
C747 H770 0.950 . S
C748 C747 1.349 . S
C748 C760 1.349 . S
C749 C747 1.327 . S
C749 C765 1.429 . S
C749 H771 0.950 . S
C750 H746 0.949 . S
C750 C758 1.574 . S
C750 C766 1.368 . S
H751 C759 0.950 . S
H752 C757 0.950 . S
H753 C758 0.949 . S
H754 C760 0.950 . S
H755 C761 0.950 . S
H756 C762 0.949 . S
C757 H752 0.950 . S
C757 C759 1.327 . S
C757 C763 1.429 . S
C758 C750 1.574 . S
C758 H753 0.949 . S
C758 C764 1.368 . S
C759 C743 1.349 . S
C759 H751 0.950 . S
C759 C757 1.327 . S
C760 C748 1.349 . S
C760 H754 0.950 . S
C760 C761 1.327 . S
C761 H755 0.950 . S
C761 C760 1.327 . S
C761 C765 1.429 . S
C762 C745 1.574 . S
C762 H756 0.949 . S
C762 C766 1.368 . S
C763 C744 1.429 . S
C763 C757 1.429 . S
C763 C764 1.523 . S
C764 C745 1.368 . S
C764 C758 1.368 . S
C764 C763 1.523 . S
C765 C749 1.429 . S
C765 C761 1.429 . S
C765 C766 1.523 . S
C766 C750 1.368 . S
C766 C762 1.368 . S
C766 C765 1.523 . S
H767 C742 0.950 . S
H768 C744 0.950 . S
H769 C745 0.949 . S
H770 C747 0.950 . S
H771 C749 0.950 . S
C772 C773 1.349 . S
C772 C774 1.327 . S
C772 H797 0.950 . S
C773 C772 1.349 . S
C773 C789 1.349 . S
C774 C772 1.327 . S
C774 C793 1.429 . S
C774 H798 0.950 . S
C775 C792 1.574 . S
C775 C794 1.368 . S
C775 H799 0.949 . S
H776 C780 0.949 . S
C777 C778 1.349 . S
C777 C779 1.327 . S
C777 H800 0.950 . S
C778 C777 1.349 . S
C778 C790 1.349 . S
C779 C777 1.327 . S
C779 C795 1.429 . S
C779 H801 0.950 . S
C780 H776 0.949 . S
C780 C788 1.574 . S
C780 C796 1.368 . S
H781 C789 0.950 . S
H782 C787 0.950 . S
H783 C788 0.949 . S
H784 C790 0.950 . S
H785 C791 0.950 . S
H786 C792 0.949 . S
C787 H782 0.950 . S
C787 C789 1.327 . S
C787 C793 1.429 . S
C788 C780 1.574 . S
C788 H783 0.949 . S
C788 C794 1.368 . S
C789 C773 1.349 . S
C789 H781 0.950 . S
C789 C787 1.327 . S
C790 C778 1.349 . S
C790 H784 0.950 . S
C790 C791 1.327 . S
C791 H785 0.950 . S
C791 C790 1.327 . S
C791 C795 1.429 . S
C792 C775 1.574 . S
C792 H786 0.949 . S
C792 C796 1.368 . S
C793 C774 1.429 . S
C793 C787 1.429 . S
C793 C794 1.523 . S
C794 C775 1.368 . S
C794 C788 1.368 . S
C794 C793 1.523 . S
C795 C779 1.429 . S
C795 C791 1.429 . S
C795 C796 1.523 . S
C796 C780 1.368 . S
C796 C792 1.368 . S
C796 C795 1.523 . S
H797 C772 0.950 . S
H798 C774 0.950 . S
H799 C775 0.949 . S
H800 C777 0.950 . S
H801 C779 0.950 . S
C802 C803 1.349 . S
C802 C804 1.327 . S
C802 H827 0.950 . S
C803 C802 1.349 . S
C803 C819 1.349 . S
C804 C802 1.327 . S
C804 C823 1.429 . S
C804 H828 0.950 . S
C805 C822 1.574 . S
C805 C824 1.368 . S
C805 H829 0.949 . S
H806 C810 0.949 . S
C807 C808 1.349 . S
C807 C809 1.327 . S
C807 H830 0.950 . S
C808 C807 1.349 . S
C808 C820 1.349 . S
C809 C807 1.327 . S
C809 C825 1.429 . S
C809 H831 0.950 . S
C810 H806 0.949 . S
C810 C818 1.574 . S
C810 C826 1.368 . S
H811 C819 0.950 . S
H812 C817 0.950 . S
H813 C818 0.949 . S
H814 C820 0.950 . S
H815 C821 0.950 . S
H816 C822 0.949 . S
C817 H812 0.950 . S
C817 C819 1.327 . S
C817 C823 1.429 . S
C818 C810 1.574 . S
C818 H813 0.949 . S
C818 C824 1.368 . S
C819 C803 1.349 . S
C819 H811 0.950 . S
C819 C817 1.327 . S
C820 C808 1.349 . S
C820 H814 0.950 . S
C820 C821 1.327 . S
C821 H815 0.950 . S
C821 C820 1.327 . S
C821 C825 1.429 . S
C822 C805 1.574 . S
C822 H816 0.949 . S
C822 C826 1.368 . S
C823 C804 1.429 . S
C823 C817 1.429 . S
C823 C824 1.523 . S
C824 C805 1.368 . S
C824 C818 1.368 . S
C824 C823 1.523 . S
C825 C809 1.429 . S
C825 C821 1.429 . S
C825 C826 1.523 . S
C826 C810 1.368 . S
C826 C822 1.368 . S
C826 C825 1.523 . S
H827 C802 0.950 . S
H828 C804 0.950 . S
H829 C805 0.949 . S
H830 C807 0.950 . S
H831 C809 0.950 . S
C832 C833 1.349 . S
C832 C834 1.327 . S
C832 H857 0.950 . S
C833 C832 1.349 . S
C833 C849 1.349 . S
C834 C832 1.327 . S
C834 C853 1.429 . S
C834 H858 0.950 . S
C835 C852 1.574 . S
C835 C854 1.368 . S
C835 H859 0.949 . S
H836 C840 0.949 . S
C837 C838 1.349 . S
C837 C839 1.327 . S
C837 H860 0.950 . S
C838 C837 1.349 . S
C838 C850 1.349 . S
C839 C837 1.327 . S
C839 C855 1.429 . S
C839 H861 0.950 . S
C840 H836 0.949 . S
C840 C848 1.574 . S
C840 C856 1.368 . S
H841 C849 0.950 . S
H842 C847 0.950 . S
H843 C848 0.949 . S
H844 C850 0.950 . S
H845 C851 0.950 . S
H846 C852 0.949 . S
C847 H842 0.950 . S
C847 C849 1.327 . S
C847 C853 1.429 . S
C848 C840 1.574 . S
C848 H843 0.949 . S
C848 C854 1.368 . S
C849 C833 1.349 . S
C849 H841 0.950 . S
C849 C847 1.327 . S
C850 C838 1.349 . S
C850 H844 0.950 . S
C850 C851 1.327 . S
C851 H845 0.950 . S
C851 C850 1.327 . S
C851 C855 1.429 . S
C852 C835 1.574 . S
C852 H846 0.949 . S
C852 C856 1.368 . S
C853 C834 1.429 . S
C853 C847 1.429 . S
C853 C854 1.523 . S
C854 C835 1.368 . S
C854 C848 1.368 . S
C854 C853 1.523 . S
C855 C839 1.429 . S
C855 C851 1.429 . S
C855 C856 1.523 . S
C856 C840 1.368 . S
C856 C852 1.368 . S
C856 C855 1.523 . S
H857 C832 0.950 . S
H858 C834 0.950 . S
H859 C835 0.949 . S
H860 C837 0.950 . S
H861 C839 0.950 . S
C862 C863 1.349 . S
C862 C864 1.327 . S
C862 H887 0.950 . S
C863 C862 1.349 . S
C863 C879 1.349 . S
C864 C862 1.327 . S
C864 C883 1.429 . S
C864 H888 0.950 . S
C865 C882 1.574 . S
C865 C884 1.368 . S
C865 H889 0.949 . S
H866 C870 0.949 . S
C867 C868 1.349 . S
C867 C869 1.327 . S
C867 H890 0.950 . S
C868 C867 1.349 . S
C868 C880 1.349 . S
C869 C867 1.327 . S
C869 C885 1.429 . S
C869 H891 0.950 . S
C870 H866 0.949 . S
C870 C878 1.574 . S
C870 C886 1.368 . S
H871 C879 0.950 . S
H872 C877 0.950 . S
H873 C878 0.949 . S
H874 C880 0.950 . S
H875 C881 0.950 . S
H876 C882 0.949 . S
C877 H872 0.950 . S
C877 C879 1.327 . S
C877 C883 1.429 . S
C878 C870 1.574 . S
C878 H873 0.949 . S
C878 C884 1.368 . S
C879 C863 1.349 . S
C879 H871 0.950 . S
C879 C877 1.327 . S
C880 C868 1.349 . S
C880 H874 0.950 . S
C880 C881 1.327 . S
C881 H875 0.950 . S
C881 C880 1.327 . S
C881 C885 1.429 . S
C882 C865 1.574 . S
C882 H876 0.949 . S
C882 C886 1.368 . S
C883 C864 1.429 . S
C883 C877 1.429 . S
C883 C884 1.523 . S
C884 C865 1.368 . S
C884 C878 1.368 . S
C884 C883 1.523 . S
C885 C869 1.429 . S
C885 C881 1.429 . S
C885 C886 1.523 . S
C886 C870 1.368 . S
C886 C882 1.368 . S
C886 C885 1.523 . S
H887 C862 0.950 . S
H888 C864 0.950 . S
H889 C865 0.949 . S
H890 C867 0.950 . S
H891 C869 0.950 . S
C892 C893 1.349 . S
C892 C894 1.327 . S
C892 H917 0.950 . S
C893 C892 1.349 . S
C893 C909 1.349 . S
C894 C892 1.327 . S
C894 C913 1.429 . S
C894 H918 0.950 . S
C895 C912 1.574 . S
C895 C914 1.368 . S
C895 H919 0.949 . S
H896 C900 0.949 . S
C897 C898 1.349 . S
C897 C899 1.327 . S
C897 H920 0.950 . S
C898 C897 1.349 . S
C898 C910 1.349 . S
C899 C897 1.327 . S
C899 C915 1.429 . S
C899 H921 0.950 . S
C900 H896 0.949 . S
C900 C908 1.574 . S
C900 C916 1.368 . S
H901 C909 0.950 . S
H902 C907 0.950 . S
H903 C908 0.949 . S
H904 C910 0.950 . S
H905 C911 0.950 . S
H906 C912 0.949 . S
C907 H902 0.950 . S
C907 C909 1.327 . S
C907 C913 1.429 . S
C908 C900 1.574 . S
C908 H903 0.949 . S
C908 C914 1.368 . S
C909 C893 1.349 . S
C909 H901 0.950 . S
C909 C907 1.327 . S
C910 C898 1.349 . S
C910 H904 0.950 . S
C910 C911 1.327 . S
C911 H905 0.950 . S
C911 C910 1.327 . S
C911 C915 1.429 . S
C912 C895 1.574 . S
C912 H906 0.949 . S
C912 C916 1.368 . S
C913 C894 1.429 . S
C913 C907 1.429 . S
C913 C914 1.523 . S
C914 C895 1.368 . S
C914 C908 1.368 . S
C914 C913 1.523 . S
C915 C899 1.429 . S
C915 C911 1.429 . S
C915 C916 1.523 . S
C916 C900 1.368 . S
C916 C912 1.368 . S
C916 C915 1.523 . S
H917 C892 0.950 . S
H918 C894 0.950 . S
H919 C895 0.949 . S
H920 C897 0.950 . S
H921 C899 0.950 . S
C922 C923 1.349 . S
C922 C924 1.327 . S
C922 H947 0.950 . S
C923 C922 1.349 . S
C923 C939 1.349 . S
C924 C922 1.327 . S
C924 C943 1.429 . S
C924 H948 0.950 . S
C925 C942 1.574 . S
C925 C944 1.368 . S
C925 H949 0.949 . S
H926 C930 0.949 . S
C927 C928 1.349 . S
C927 C929 1.327 . S
C927 H950 0.950 . S
C928 C927 1.349 . S
C928 C940 1.349 . S
C929 C927 1.327 . S
C929 C945 1.429 . S
C929 H951 0.950 . S
C930 H926 0.949 . S
C930 C938 1.574 . S
C930 C946 1.368 . S
H931 C939 0.950 . S
H932 C937 0.950 . S
H933 C938 0.949 . S
H934 C940 0.950 . S
H935 C941 0.950 . S
H936 C942 0.949 . S
C937 H932 0.950 . S
C937 C939 1.327 . S
C937 C943 1.429 . S
C938 C930 1.574 . S
C938 H933 0.949 . S
C938 C944 1.368 . S
C939 C923 1.349 . S
C939 H931 0.950 . S
C939 C937 1.327 . S
C940 C928 1.349 . S
C940 H934 0.950 . S
C940 C941 1.327 . S
C941 H935 0.950 . S
C941 C940 1.327 . S
C941 C945 1.429 . S
C942 C925 1.574 . S
C942 H936 0.949 . S
C942 C946 1.368 . S
C943 C924 1.429 . S
C943 C937 1.429 . S
C943 C944 1.523 . S
C944 C925 1.368 . S
C944 C938 1.368 . S
C944 C943 1.523 . S
C945 C929 1.429 . S
C945 C941 1.429 . S
C945 C946 1.523 . S
C946 C930 1.368 . S
C946 C942 1.368 . S
C946 C945 1.523 . S
H947 C922 0.950 . S
H948 C924 0.950 . S
H949 C925 0.949 . S
H950 C927 0.950 . S
H951 C929 0.950 . S
C473 C52 1.662 . S
C478 C210 1.664 . S
C503 C33 1.665 . S
C508 C92 1.664 . S
C533 C111 1.662 . S
C538 C151 1.665 . S
C563 C229 1.662 . S
C568 C170 1.662 . S
C593 C288 1.662 . S
C598 C465 1.662 . S
C623 C347 1.663 . S
C628 C269 1.665 . S
C653 C387 1.665 . S
C658 C328 1.664 . S
C683 C446 1.664 . S
C688 C406 1.662 . S
C713 C359 1.626 . S
C718 C5 1.626 . S
C743 C62 1.620 . S
C748 C418 1.626 . S
C773 C239 1.620 . S
C778 C121 1.620 . S
C803 C298 1.620 . S
C808 C182 1.626 . S
C833 C300 1.626 . S
C838 C180 1.620 . S
C863 C3 1.620 . S
C868 C357 1.620 . S
C893 C64 1.626 . S
C898 C416 1.620 . S
C923 C123 1.625 . S
C928 C241 1.625 . S
