# Generated by pormake.
# Topology unw, (4)-cn, num edge types: 1
# Building blocks:
#     Node 0, Type 0, BuildingBlock: GALJAG_clean_sbu_0, # of connection points: 4
#     Node 1, Type 0, BuildingBlock: GALJAG_clean_sbu_0, # of connection points: 4
#     Node 2, Type 0, BuildingBlock: GALJAG_clean_sbu_0, # of connection points: 4
#     Node 3, Type 0, BuildingBlock: GALJAG_clean_sbu_0, # of connection points: 4
#     Node 4, Type 0, BuildingBlock: GALJAG_clean_sbu_0, # of connection points: 4
#     Node 5, Type 0, BuildingBlock: GALJAG_clean_sbu_0, # of connection points: 4
#     Node 6, Type 0, BuildingBlock: GALJAG_clean_sbu_0, # of connection points: 4
#     Node 7, Type 0, BuildingBlock: GALJAG_clean_sbu_0, # of connection points: 4
#     Node 8, Type 0, BuildingBlock: GALJAG_clean_sbu_0, # of connection points: 4
#     Node 9, Type 0, BuildingBlock: GALJAG_clean_sbu_0, # of connection points: 4
#     Node 10, Type 0, BuildingBlock: GALJAG_clean_sbu_0, # of connection points: 4
#     Node 11, Type 0, BuildingBlock: GALJAG_clean_sbu_0, # of connection points: 4
#     Node 12, Type 0, BuildingBlock: GALJAG_clean_sbu_0, # of connection points: 4
#     Node 13, Type 0, BuildingBlock: GALJAG_clean_sbu_0, # of connection points: 4
#     Node 14, Type 0, BuildingBlock: GALJAG_clean_sbu_0, # of connection points: 4
#     Node 15, Type 0, BuildingBlock: GALJAG_clean_sbu_0, # of connection points: 4
#     Node 16, Type 0, BuildingBlock: GALJAG_clean_sbu_0, # of connection points: 4
#     Node 17, Type 0, BuildingBlock: GALJAG_clean_sbu_0, # of connection points: 4
#     Node 18, Type 0, BuildingBlock: GALJAG_clean_sbu_0, # of connection points: 4
#     Node 19, Type 0, BuildingBlock: GALJAG_clean_sbu_0, # of connection points: 4
#     Node 20, Type 0, BuildingBlock: GALJAG_clean_sbu_0, # of connection points: 4
#     Node 21, Type 0, BuildingBlock: GALJAG_clean_sbu_0, # of connection points: 4
#     Node 22, Type 0, BuildingBlock: GALJAG_clean_sbu_0, # of connection points: 4
#     Node 23, Type 0, BuildingBlock: GALJAG_clean_sbu_0, # of connection points: 4
#     Edge 24, Type (0, 0), BuildingBlock: TEMPAE_clean_linker_10, # of connection points: 2
#     Edge 25, Type (0, 0), BuildingBlock: TEMPAE_clean_linker_10, # of connection points: 2
#     Edge 26, Type (0, 0), BuildingBlock: TEMPAE_clean_linker_10, # of connection points: 2
#     Edge 27, Type (0, 0), BuildingBlock: TEMPAE_clean_linker_10, # of connection points: 2
#     Edge 28, Type (0, 0), BuildingBlock: TEMPAE_clean_linker_10, # of connection points: 2
#     Edge 29, Type (0, 0), BuildingBlock: TEMPAE_clean_linker_10, # of connection points: 2
#     Edge 30, Type (0, 0), BuildingBlock: TEMPAE_clean_linker_10, # of connection points: 2
#     Edge 31, Type (0, 0), BuildingBlock: TEMPAE_clean_linker_10, # of connection points: 2
#     Edge 32, Type (0, 0), BuildingBlock: TEMPAE_clean_linker_10, # of connection points: 2
#     Edge 33, Type (0, 0), BuildingBlock: TEMPAE_clean_linker_10, # of connection points: 2
#     Edge 34, Type (0, 0), BuildingBlock: TEMPAE_clean_linker_10, # of connection points: 2
#     Edge 35, Type (0, 0), BuildingBlock: TEMPAE_clean_linker_10, # of connection points: 2
#     Edge 36, Type (0, 0), BuildingBlock: TEMPAE_clean_linker_10, # of connection points: 2
#     Edge 37, Type (0, 0), BuildingBlock: TEMPAE_clean_linker_10, # of connection points: 2
#     Edge 38, Type (0, 0), BuildingBlock: TEMPAE_clean_linker_10, # of connection points: 2
#     Edge 39, Type (0, 0), BuildingBlock: TEMPAE_clean_linker_10, # of connection points: 2
#     Edge 40, Type (0, 0), BuildingBlock: TEMPAE_clean_linker_10, # of connection points: 2
#     Edge 41, Type (0, 0), BuildingBlock: TEMPAE_clean_linker_10, # of connection points: 2
#     Edge 42, Type (0, 0), BuildingBlock: TEMPAE_clean_linker_10, # of connection points: 2
#     Edge 43, Type (0, 0), BuildingBlock: TEMPAE_clean_linker_10, # of connection points: 2
#     Edge 44, Type (0, 0), BuildingBlock: TEMPAE_clean_linker_10, # of connection points: 2
#     Edge 45, Type (0, 0), BuildingBlock: TEMPAE_clean_linker_10, # of connection points: 2
#     Edge 46, Type (0, 0), BuildingBlock: TEMPAE_clean_linker_10, # of connection points: 2
#     Edge 47, Type (0, 0), BuildingBlock: TEMPAE_clean_linker_10, # of connection points: 2
#     Edge 48, Type (0, 0), BuildingBlock: TEMPAE_clean_linker_10, # of connection points: 2
#     Edge 49, Type (0, 0), BuildingBlock: TEMPAE_clean_linker_10, # of connection points: 2
#     Edge 50, Type (0, 0), BuildingBlock: TEMPAE_clean_linker_10, # of connection points: 2
#     Edge 51, Type (0, 0), BuildingBlock: TEMPAE_clean_linker_10, # of connection points: 2
#     Edge 52, Type (0, 0), BuildingBlock: TEMPAE_clean_linker_10, # of connection points: 2
#     Edge 53, Type (0, 0), BuildingBlock: TEMPAE_clean_linker_10, # of connection points: 2
#     Edge 54, Type (0, 0), BuildingBlock: TEMPAE_clean_linker_10, # of connection points: 2
#     Edge 55, Type (0, 0), BuildingBlock: TEMPAE_clean_linker_10, # of connection points: 2
#     Edge 56, Type (0, 0), BuildingBlock: TEMPAE_clean_linker_10, # of connection points: 2
#     Edge 57, Type (0, 0), BuildingBlock: TEMPAE_clean_linker_10, # of connection points: 2
#     Edge 58, Type (0, 0), BuildingBlock: TEMPAE_clean_linker_10, # of connection points: 2
#     Edge 59, Type (0, 0), BuildingBlock: TEMPAE_clean_linker_10, # of connection points: 2
#     Edge 60, Type (0, 0), BuildingBlock: TEMPAE_clean_linker_10, # of connection points: 2
#     Edge 61, Type (0, 0), BuildingBlock: TEMPAE_clean_linker_10, # of connection points: 2
#     Edge 62, Type (0, 0), BuildingBlock: TEMPAE_clean_linker_10, # of connection points: 2
#     Edge 63, Type (0, 0), BuildingBlock: TEMPAE_clean_linker_10, # of connection points: 2
#     Edge 64, Type (0, 0), BuildingBlock: TEMPAE_clean_linker_10, # of connection points: 2
#     Edge 65, Type (0, 0), BuildingBlock: TEMPAE_clean_linker_10, # of connection points: 2
#     Edge 66, Type (0, 0), BuildingBlock: TEMPAE_clean_linker_10, # of connection points: 2
#     Edge 67, Type (0, 0), BuildingBlock: TEMPAE_clean_linker_10, # of connection points: 2
#     Edge 68, Type (0, 0), BuildingBlock: TEMPAE_clean_linker_10, # of connection points: 2
#     Edge 69, Type (0, 0), BuildingBlock: TEMPAE_clean_linker_10, # of connection points: 2
#     Edge 70, Type (0, 0), BuildingBlock: TEMPAE_clean_linker_10, # of connection points: 2
#     Edge 71, Type (0, 0), BuildingBlock: TEMPAE_clean_linker_10, # of connection points: 2
# Relax obj value: 0.374
# Max RMSD: 0.256
# Mean RMSD: 0.255
data_MOF--net-unw--node1-GALJAG_clean_sbu_0--edge1-TEMPAE_clean_linker_10
_symmetry_space_group_name_H-M    P1
_symmetry_Int_Tables_number       1
_symmetry_cell_setting            triclinic
loop_
_symmetry_equiv_pos_as_xyz
'x, y, z'
_cell_length_a     47.634958
_cell_length_b     47.6186
_cell_length_c     47.600002
_cell_angle_alpha  89.980294
_cell_angle_beta   90.078408
_cell_angle_gamma 90.16114
loop_
_atom_site_label
_atom_site_type_symbol
_atom_site_fract_x
_atom_site_fract_y
_atom_site_fract_z
_atom_type_partial_charge
In0 In 0.16984 0.36243 0.24292 0.0
O1 O 0.14152 0.32555 0.23083 0.0
O2 O 0.12188 0.36197 0.24741 0.0
C3 C 0.21416 0.35207 0.20986 0.0
C4 C 0.18214 0.33897 0.29285 0.0
C5 C 0.17454 0.41758 0.23125 0.0
O6 O 0.19007 0.3423 0.20385 0.0
O7 O 0.2156 0.36576 0.23244 0.0
O8 O 0.18158 0.40712 0.25463 0.0
O9 O 0.16183 0.4008 0.21498 0.0
C10 C 0.11921 0.33664 0.23987 0.0
O11 O 0.16493 0.35903 0.29091 0.0
O12 O 0.19397 0.33229 0.27022 0.0
In13 In 0.66068 0.09114 0.21777 0.0
O14 O 0.67665 0.11277 0.17786 0.0
O15 O 0.64887 0.13493 0.20549 0.0
C16 C 0.68731 0.04148 0.22305 0.0
C17 C 0.60618 0.08521 0.20457 0.0
C18 C 0.68944 0.11493 0.25996 0.0
O19 O 0.69443 0.05935 0.20462 0.0
O20 O 0.66528 0.04759 0.23643 0.0
O21 O 0.66727 0.10098 0.26483 0.0
O22 O 0.6959 0.11733 0.23446 0.0
C23 C 0.66292 0.13507 0.18301 0.0
O24 O 0.61418 0.09393 0.22848 0.0
O25 O 0.62571 0.07649 0.18882 0.0
In26 In 0.84587 0.63118 0.19898 0.0
O27 O 0.85929 0.62791 0.24533 0.0
O28 O 0.81897 0.64388 0.23588 0.0
C29 C 0.8505 0.5804 0.17373 0.0
C30 C 0.88919 0.66838 0.19875 0.0
C31 C 0.7971 0.64541 0.17456 0.0
O32 O 0.84665 0.5831 0.19986 0.0
O33 O 0.85469 0.60325 0.16089 0.0
O34 O 0.81995 0.65764 0.16834 0.0
O35 O 0.79916 0.62633 0.19286 0.0
C36 C 0.83737 0.63966 0.25437 0.0
O37 O 0.86417 0.67537 0.19355 0.0
O38 O 0.89284 0.64217 0.20086 0.0
In39 In 0.36275 0.91212 0.26354 0.0
O40 O 0.35965 0.95744 0.2779 0.0
O41 O 0.3681 0.92636 0.30919 0.0
C42 C 0.36677 0.85675 0.25494 0.0
C43 C 0.30664 0.91036 0.26065 0.0
C44 C 0.40931 0.9199 0.23269 0.0
O45 O 0.36049 0.87428 0.23605 0.0
O46 O 0.37096 0.86704 0.27926 0.0
O47 O 0.4099 0.91267 0.25831 0.0
O48 O 0.38509 0.92603 0.22331 0.0
C49 C 0.36272 0.95191 0.30376 0.0
O50 O 0.32098 0.89947 0.28011 0.0
O51 O 0.32079 0.92276 0.24166 0.0
In52 In 0.10731 0.59989 0.77919 0.0
O53 O 0.13173 0.60176 0.73744 0.0
O54 O 0.10011 0.63228 0.7456 0.0
C55 C 0.12127 0.55046 0.80405 0.0
C56 C 0.05126 0.60303 0.77163 0.0
C57 C 0.14265 0.63628 0.80398 0.0
O58 O 0.12088 0.55332 0.77759 0.0
O59 O 0.11336 0.57187 0.81749 0.0
O60 O 0.11795 0.63282 0.81329 0.0
O61 O 0.14923 0.62077 0.78362 0.0
C62 C 0.11898 0.62368 0.72927 0.0
O63 O 0.06405 0.61746 0.79002 0.0
O64 O 0.06636 0.58493 0.75945 0.0
In65 In 0.32905 0.0962 0.74745 0.0
O66 O 0.31307 0.11785 0.70713 0.0
O67 O 0.28425 0.0954 0.73326 0.0
C68 C 0.38278 0.1107 0.7592 0.0
C69 C 0.32292 0.04074 0.73713 0.0
C70 C 0.30904 0.13254 0.78516 0.0
O71 O 0.37225 0.11464 0.73497 0.0
O72 O 0.3672 0.09717 0.77591 0.0
O73 O 0.31302 0.10698 0.79163 0.0
O74 O 0.31507 0.13913 0.76022 0.0
C75 C 0.28783 0.11022 0.71158 0.0
O76 O 0.31362 0.05233 0.75918 0.0
O77 O 0.33788 0.05656 0.7218 0.0
In78 In 0.85873 0.39852 0.77756 0.0
O79 O 0.85594 0.44534 0.78495 0.0
O80 O 0.8683 0.4197 0.81979 0.0
C81 C 0.86459 0.34329 0.77138 0.0
C82 C 0.80283 0.39293 0.78038 0.0
C83 C 0.90328 0.40282 0.74351 0.0
O84 O 0.85608 0.35954 0.75219 0.0
O85 O 0.86975 0.35473 0.79505 0.0
O86 O 0.90539 0.39806 0.76965 0.0
O87 O 0.87858 0.40843 0.73498 0.0
C88 C 0.8623 0.44412 0.8108 0.0
O89 O 0.81947 0.38555 0.79973 0.0
O90 O 0.81444 0.40424 0.7591 0.0
In91 In 0.63768 0.88371 0.75939 0.0
O92 O 0.64114 0.85712 0.71876 0.0
O93 O 0.67745 0.86455 0.74388 0.0
C94 C 0.58282 0.8885 0.77247 0.0
C95 C 0.66108 0.93402 0.74638 0.0
C96 C 0.64728 0.84678 0.80086 0.0
O97 O 0.59093 0.87871 0.74909 0.0
O98 O 0.60225 0.89848 0.78762 0.0
O99 O 0.65726 0.87149 0.80166 0.0
O100 O 0.63247 0.8413 0.77957 0.0
C101 C 0.66718 0.85293 0.72244 0.0
O102 O 0.66638 0.92105 0.76895 0.0
O103 O 0.64215 0.92279 0.73143 0.0
In104 In 0.27699 0.15858 0.43828 0.0
O105 O 0.29184 0.18362 0.47619 0.0
O106 O 0.25754 0.15536 0.48188 0.0
C107 C 0.3098 0.17535 0.39586 0.0
C108 C 0.23442 0.1923 0.42416 0.0
C109 C 0.28941 0.10384 0.43047 0.0
O110 O 0.31977 0.17224 0.42036 0.0
O111 O 0.28394 0.17055 0.39335 0.0
O112 O 0.26523 0.11362 0.42512 0.0
O113 O 0.30578 0.12093 0.44255 0.0
C114 C 0.27227 0.1751 0.49205 0.0
O115 O 0.23244 0.16586 0.42084 0.0
O116 O 0.2574 0.20081 0.43429 0.0
In117 In 0.90275 0.2254 0.34735 0.0
O118 O 0.88214 0.26626 0.33119 0.0
O119 O 0.88637 0.23086 0.30374 0.0
C120 C 0.90462 0.21548 0.40294 0.0
C121 C 0.95525 0.23739 0.33002 0.0
C122 C 0.86126 0.18787 0.34455 0.0
O123 O 0.89496 0.23834 0.39305 0.0
O124 O 0.91571 0.19936 0.38491 0.0
O125 O 0.88557 0.18222 0.33493 0.0
O126 O 0.85854 0.21205 0.35522 0.0
C127 C 0.87788 0.25572 0.30696 0.0
O128 O 0.94291 0.2147 0.32327 0.0
O129 O 0.9419 0.2528 0.34703 0.0
In130 In 0.7975 0.86108 0.37314 0.0
O131 O 0.82903 0.83514 0.34775 0.0
O132 O 0.805 0.81482 0.3797 0.0
C133 C 0.79865 0.90465 0.3364 0.0
C134 C 0.81997 0.86743 0.42501 0.0
C135 C 0.74296 0.8499 0.36195 0.0
O136 O 0.80495 0.87986 0.32947 0.0
O137 O 0.79485 0.90798 0.36246 0.0
O138 O 0.75044 0.87236 0.37393 0.0
O139 O 0.76247 0.83253 0.35856 0.0
C140 C 0.82321 0.81252 0.3606 0.0
O141 O 0.79417 0.86262 0.42097 0.0
O142 O 0.83392 0.87151 0.40281 0.0
In143 In 0.08929 0.79393 0.31346 0.0
O144 O 0.12688 0.76524 0.30706 0.0
O145 O 0.08663 0.74932 0.29627 0.0
C146 C 0.10055 0.80463 0.36884 0.0
C147 C 0.0358 0.78774 0.29408 0.0
C148 C 0.11956 0.83134 0.28295 0.0
O149 O 0.1016 0.78037 0.3583 0.0
O150 O 0.0918 0.82317 0.35207 0.0
O151 O 0.10114 0.83926 0.30032 0.0
O152 O 0.12161 0.80513 0.28055 0.0
C153 C 0.11278 0.7454 0.29643 0.0
O154 O 0.0544 0.80162 0.2813 0.0
O155 O 0.04324 0.77953 0.31822 0.0
In156 In 0.22706 0.82992 0.60402 0.0
O157 O 0.22841 0.85223 0.64659 0.0
O158 O 0.23354 0.87746 0.61015 0.0
C159 C 0.19448 0.78828 0.62437 0.0
C160 C 0.27927 0.80923 0.6135 0.0
C161 C 0.20239 0.83805 0.55301 0.0
O162 O 0.19514 0.81233 0.63576 0.0
O163 O 0.20949 0.78588 0.60271 0.0
O164 O 0.22793 0.83117 0.55552 0.0
O165 O 0.19014 0.84262 0.57605 0.0
C166 C 0.23389 0.87623 0.63669 0.0
O167 O 0.27528 0.83445 0.60653 0.0
O168 O 0.25768 0.79414 0.6115 0.0
In169 In 0.11055 0.28549 0.65853 0.0
O170 O 0.1101 0.23722 0.65333 0.0
O171 O 0.1351 0.25579 0.68549 0.0
C172 C 0.06134 0.30955 0.64527 0.0
C173 C 0.14931 0.2877 0.61752 0.0
C174 C 0.10634 0.30869 0.70939 0.0
O175 O 0.06339 0.28345 0.65033 0.0
O176 O 0.08458 0.3224 0.64343 0.0
O177 O 0.12502 0.31679 0.6921 0.0
O178 O 0.09089 0.28873 0.70109 0.0
C179 C 0.12826 0.23377 0.67252 0.0
O180 O 0.15351 0.29859 0.64146 0.0
O181 O 0.12453 0.27906 0.61341 0.0
In182 In 0.79437 0.13414 0.63313 0.0
O183 O 0.74843 0.12258 0.62593 0.0
O184 O 0.75847 0.16518 0.63435 0.0
C185 C 0.82266 0.14011 0.58352 0.0
C186 C 0.78438 0.08571 0.66183 0.0
C187 C 0.81698 0.17213 0.66873 0.0
O188 O 0.79632 0.14117 0.58545 0.0
O189 O 0.83486 0.13413 0.6063 0.0
O190 O 0.82736 0.14783 0.66597 0.0
O191 O 0.79617 0.17705 0.65308 0.0
C192 C 0.73948 0.14688 0.63138 0.0
O193 O 0.7873 0.10935 0.6733 0.0
O194 O 0.78973 0.08564 0.63577 0.0
In195 In 0.87991 0.75852 0.65238 0.0
O196 O 0.88636 0.7584 0.60495 0.0
O197 O 0.89379 0.79673 0.62671 0.0
C198 C 0.88548 0.78074 0.70462 0.0
C199 C 0.82412 0.75739 0.64339 0.0
C200 C 0.9101 0.71155 0.66254 0.0
O201 O 0.86226 0.77548 0.69321 0.0
O202 O 0.90629 0.77727 0.68866 0.0
O203 O 0.92081 0.73384 0.6529 0.0
O204 O 0.88363 0.71203 0.66447 0.0
C205 C 0.89177 0.78437 0.60325 0.0
O206 O 0.83919 0.77897 0.64037 0.0
O207 O 0.83723 0.7355 0.65092 0.0
In208 In 0.38717 0.21337 0.14646 0.0
O209 O 0.3399 0.21169 0.13815 0.0
O210 O 0.367 0.21143 0.10274 0.0
C211 C 0.37793 0.19809 0.19996 0.0
C212 C 0.38639 0.27002 0.14994 0.0
C213 C 0.43286 0.18117 0.13617 0.0
O214 O 0.36356 0.18787 0.17996 0.0
O215 O 0.39648 0.21555 0.19266 0.0
O216 O 0.43396 0.20768 0.13646 0.0
O217 O 0.40839 0.17125 0.1383 0.0
C218 C 0.34205 0.21283 0.11171 0.0
O219 O 0.38691 0.25747 0.1266 0.0
O220 O 0.39036 0.25414 0.17067 0.0
In221 In 0.36448 0.76615 0.85518 0.0
O222 O 0.34735 0.79071 0.81906 0.0
O223 O 0.37171 0.75349 0.80983 0.0
C224 C 0.36771 0.74429 0.90661 0.0
C225 C 0.41074 0.79736 0.85268 0.0
C226 C 0.3135 0.74467 0.85416 0.0
O227 O 0.3591 0.76924 0.90221 0.0
O228 O 0.377 0.73135 0.88507 0.0
O229 O 0.33529 0.73037 0.84819 0.0
O230 O 0.31755 0.77049 0.86045 0.0
C231 C 0.35761 0.77435 0.80058 0.0
O232 O 0.41101 0.77084 0.84924 0.0
O233 O 0.38711 0.80791 0.85954 0.0
In234 In 0.19455 0.32524 0.9275 0.0
O235 O 0.18828 0.30491 0.97062 0.0
O236 O 0.22451 0.3302 0.96479 0.0
C237 C 0.14478 0.31389 0.90315 0.0
C238 C 0.2258 0.28566 0.90276 0.0
C239 C 0.19125 0.37889 0.90902 0.0
O240 O 0.14636 0.32975 0.92439 0.0
O241 O 0.16755 0.30263 0.89615 0.0
O242 O 0.20942 0.36202 0.89949 0.0
O243 O 0.17731 0.36956 0.92957 0.0
C244 C 0.21153 0.31313 0.98041 0.0
O245 O 0.23326 0.3113 0.90213 0.0
O246 O 0.20304 0.28082 0.91542 0.0
In247 In 0.6087 0.23694 0.82537 0.0
O248 O 0.5609 0.24087 0.81867 0.0
O249 O 0.57658 0.2037 0.8378 0.0
C250 C 0.63169 0.28223 0.7997 0.0
C251 C 0.62188 0.1996 0.78552 0.0
C252 C 0.63461 0.24527 0.87573 0.0
O253 O 0.60922 0.28454 0.81377 0.0
O254 O 0.64107 0.25765 0.79822 0.0
O255 O 0.64368 0.22846 0.85736 0.0
O256 O 0.61108 0.25603 0.86985 0.0
C257 C 0.55567 0.21621 0.8273 0.0
O258 O 0.63254 0.19831 0.80996 0.0
O259 O 0.60486 0.21952 0.78164 0.0
In260 In 0.79792 0.67583 0.91488 0.0
O261 O 0.79981 0.71473 0.9431 0.0
O262 O 0.78438 0.67707 0.96125 0.0
C263 C 0.83713 0.69869 0.88093 0.0
C264 C 0.74956 0.69199 0.88978 0.0
C265 C 0.81196 0.62046 0.91421 0.0
O266 O 0.83667 0.70421 0.90698 0.0
O267 O 0.81855 0.68159 0.87288 0.0
O268 O 0.78786 0.62936 0.90788 0.0
O269 O 0.82844 0.63924 0.92327 0.0
C270 C 0.78831 0.70321 0.96404 0.0
O271 O 0.75017 0.68299 0.91463 0.0
O272 O 0.77272 0.6908 0.87725 0.0
In273 In 0.62098 0.80724 0.1392 0.0
O274 O 0.66607 0.81166 0.12292 0.0
O275 O 0.63421 0.80314 0.09293 0.0
C276 C 0.63551 0.83006 0.18877 0.0
C277 C 0.62627 0.75162 0.14866 0.0
C278 C 0.57143 0.83458 0.13303 0.0
O279 O 0.6479 0.8368 0.16617 0.0
O280 O 0.61606 0.81223 0.186 0.0
O281 O 0.57303 0.8084 0.13699 0.0
O282 O 0.59487 0.84647 0.12926 0.0
C283 C 0.66023 0.80535 0.09781 0.0
O284 O 0.61709 0.76098 0.12561 0.0
O285 O 0.6295 0.77005 0.16731 0.0
In286 In 0.28126 0.63863 0.13757 0.0
O287 O 0.237 0.65808 0.1357 0.0
O288 O 0.24835 0.63273 0.17075 0.0
C289 C 0.30178 0.65043 0.0856 0.0
C290 C 0.27789 0.58285 0.14735 0.0
C291 C 0.30666 0.67813 0.16955 0.0
O292 O 0.27578 0.6502 0.09099 0.0
O293 O 0.3172 0.64316 0.10594 0.0
O294 O 0.31716 0.65392 0.16657 0.0
O295 O 0.28431 0.68215 0.15597 0.0
C296 C 0.22987 0.64753 0.15909 0.0
O297 O 0.29315 0.59917 0.16178 0.0
O298 O 0.26707 0.59408 0.12586 0.0
In299 In 0.75736 0.34827 0.08654 0.0
O300 O 0.75019 0.3952 0.09368 0.0
O301 O 0.79067 0.38165 0.07991 0.0
C302 C 0.71462 0.31549 0.10133 0.0
C303 C 0.78699 0.333 0.13216 0.0
C304 C 0.74804 0.33395 0.03252 0.0
O305 O 0.71337 0.34188 0.10533 0.0
O306 O 0.73699 0.30648 0.09049 0.0
O307 O 0.76741 0.32284 0.0471 0.0
O308 O 0.73557 0.35425 0.04427 0.0
C309 C 0.7755 0.40177 0.08833 0.0
O310 O 0.79608 0.32814 0.1075 0.0
O311 O 0.76355 0.34527 0.13317 0.0
C312 C 0.26087 0.55524 0.18823 0.0
C313 C 0.26643 0.55648 0.15932 0.0
C314 C 0.24526 0.53305 0.19987 0.0
C315 C 0.23588 0.51087 0.18239 0.0
C316 C 0.24245 0.51141 0.15332 0.0
C317 C 0.25706 0.53458 0.142 0.0
C318 C 0.23796 0.5339 0.23073 0.0
C319 C 0.23386 0.48765 0.13416 0.0
C320 C 0.21862 0.44283 0.22058 0.0
C321 C 0.1892 0.44259 0.22014 0.0
C322 C 0.23398 0.46435 0.20753 0.0
C323 C 0.21958 0.487 0.19479 0.0
C324 C 0.18975 0.48716 0.1948 0.0
C325 C 0.17487 0.4645 0.20685 0.0
C326 C 0.26563 0.46257 0.207 0.0
C327 C 0.17359 0.51136 0.18233 0.0
H328 H 0.26739 0.5725 0.20161 0.0
H329 H 0.26102 0.53568 0.1196 0.0
H330 H 0.21483 0.53299 0.23336 0.0
H331 H 0.24686 0.51534 0.24161 0.0
H332 H 0.24596 0.55317 0.24122 0.0
H333 H 0.24242 0.4902 0.1126 0.0
H334 H 0.24124 0.46733 0.14284 0.0
H335 H 0.21064 0.48651 0.13279 0.0
H336 H 0.2297 0.42549 0.2303 0.0
H337 H 0.15212 0.46409 0.20623 0.0
H338 H 0.27487 0.48036 0.21889 0.0
H339 H 0.27329 0.46418 0.18505 0.0
H340 H 0.2735 0.44264 0.21621 0.0
H341 H 0.18028 0.53134 0.19236 0.0
H342 H 0.15056 0.50889 0.18505 0.0
H343 H 0.17821 0.51319 0.15958 0.0
C344 C 0.57233 0.08879 0.16446 0.0
C345 C 0.57774 0.0914 0.19336 0.0
C346 C 0.54815 0.10056 0.15227 0.0
C347 C 0.52878 0.11513 0.16941 0.0
C348 C 0.5332 0.11618 0.19885 0.0
C349 C 0.55764 0.10437 0.21045 0.0
C350 C 0.54425 0.09887 0.12084 0.0
C351 C 0.51288 0.13115 0.21797 0.0
C352 C 0.48496 0.17553 0.14093 0.0
C353 C 0.4582 0.16329 0.13919 0.0
C354 C 0.50838 0.15973 0.14947 0.0
C355 C 0.50496 0.13099 0.15656 0.0
C356 C 0.47833 0.11814 0.15323 0.0
C357 C 0.4553 0.13442 0.14454 0.0
C358 C 0.53651 0.17419 0.15234 0.0
C359 C 0.47376 0.08759 0.1604 0.0
H360 H 0.58779 0.07894 0.15102 0.0
H361 H 0.56164 0.10654 0.23277 0.0
H362 H 0.52257 0.09211 0.11559 0.0
H363 H 0.54743 0.11999 0.1115 0.0
H364 H 0.55928 0.0841 0.11092 0.0
H365 H 0.51806 0.1281 0.24053 0.0
H366 H 0.51324 0.15399 0.21333 0.0
H367 H 0.49117 0.12357 0.21418 0.0
H368 H 0.48741 0.1978 0.13687 0.0
H369 H 0.4347 0.12476 0.14331 0.0
H370 H 0.55298 0.16205 0.14129 0.0
H371 H 0.54254 0.1752 0.17484 0.0
H372 H 0.53624 0.19589 0.14377 0.0
H373 H 0.48999 0.07434 0.1503 0.0
H374 H 0.45271 0.07999 0.15375 0.0
H375 H 0.47576 0.08464 0.18344 0.0
C376 C 0.77074 0.45128 0.10594 0.0
C377 C 0.78772 0.42964 0.09555 0.0
C378 C 0.78261 0.4762 0.11664 0.0
C379 C 0.81222 0.47949 0.11728 0.0
C380 C 0.82939 0.45813 0.10587 0.0
C381 C 0.81696 0.43358 0.09504 0.0
C382 C 0.76349 0.49861 0.12819 0.0
C383 C 0.861 0.46065 0.10623 0.0
C384 C 0.8411 0.55331 0.12954 0.0
C385 C 0.84511 0.55351 0.15878 0.0
C386 C 0.83106 0.52921 0.11562 0.0
C387 C 0.82514 0.50457 0.13123 0.0
C388 C 0.8305 0.50424 0.16053 0.0
C389 C 0.84025 0.52872 0.17396 0.0
C390 C 0.82556 0.53055 0.08441 0.0
C391 C 0.82495 0.4783 0.17793 0.0
H392 H 0.74816 0.44843 0.10646 0.0
H393 H 0.8303 0.41694 0.0872 0.0
H394 H 0.7668 0.50065 0.15118 0.0
H395 H 0.76855 0.51925 0.11859 0.0
H396 H 0.74097 0.49383 0.1243 0.0
H397 H 0.87132 0.44316 0.09482 0.0
H398 H 0.86768 0.48081 0.09665 0.0
H399 H 0.86859 0.46063 0.12828 0.0
H400 H 0.84458 0.57242 0.11765 0.0
H401 H 0.84323 0.5287 0.19654 0.0
H402 H 0.80268 0.5286 0.08042 0.0
H403 H 0.83594 0.51277 0.07357 0.0
H404 H 0.83311 0.55053 0.07497 0.0
H405 H 0.80213 0.47355 0.17792 0.0
H406 H 0.83202 0.48081 0.20004 0.0
H407 H 0.8358 0.45992 0.16866 0.0
C408 C 0.54575 0.88005 0.13997 0.0
C409 C 0.54527 0.85058 0.13875 0.0
C410 C 0.52317 0.89518 0.15152 0.0
C411 C 0.49957 0.88051 0.16223 0.0
C412 C 0.49814 0.85092 0.15915 0.0
C413 C 0.52093 0.83636 0.14742 0.0
C414 C 0.52543 0.9267 0.15395 0.0
C415 C 0.47336 0.83438 0.17008 0.0
C416 C 0.45975 0.90735 0.22592 0.0
C417 C 0.43405 0.91561 0.21415 0.0
C418 C 0.4817 0.89723 0.20907 0.0
C419 C 0.47801 0.89535 0.17958 0.0
C420 C 0.45282 0.90542 0.16736 0.0
C421 C 0.43111 0.91539 0.18479 0.0
C422 C 0.50822 0.88693 0.22307 0.0
C423 C 0.44812 0.90415 0.13603 0.0
H424 H 0.56444 0.89126 0.13333 0.0
H425 H 0.5203 0.81362 0.14653 0.0
H426 H 0.50543 0.93683 0.14769 0.0
H427 H 0.52959 0.93247 0.17615 0.0
H428 H 0.54267 0.9353 0.14079 0.0
H429 H 0.47413 0.81197 0.16365 0.0
H430 H 0.47305 0.83536 0.19338 0.0
H431 H 0.45341 0.84359 0.16242 0.0
H432 H 0.46228 0.90747 0.24856 0.0
H433 H 0.4113 0.92161 0.17547 0.0
H434 H 0.52692 0.89661 0.21309 0.0
H435 H 0.50996 0.86385 0.22036 0.0
H436 H 0.50867 0.89174 0.24591 0.0
H437 H 0.46683 0.91206 0.12461 0.0
H438 H 0.42951 0.91655 0.12946 0.0
H439 H 0.44481 0.882 0.12959 0.0
C440 C 0.20149 0.41995 0.87705 0.0
C441 C 0.18276 0.40496 0.89413 0.0
C442 C 0.19251 0.44368 0.86172 0.0
C443 C 0.16389 0.4519 0.86261 0.0
C444 C 0.14485 0.43636 0.87937 0.0
C445 C 0.1546 0.41351 0.89527 0.0
C446 C 0.21365 0.46006 0.84471 0.0
C447 C 0.11402 0.44363 0.88029 0.0
C448 C 0.14136 0.52697 0.84651 0.0
C449 C 0.13208 0.52501 0.81858 0.0
C450 C 0.15252 0.50361 0.86068 0.0
C451 C 0.15386 0.47728 0.84691 0.0
C452 C 0.1444 0.4751 0.8187 0.0
C453 C 0.13396 0.49907 0.80475 0.0
C454 C 0.16285 0.50713 0.89049 0.0
C455 C 0.14463 0.44731 0.80348 0.0
H456 H 0.2232 0.41329 0.87591 0.0
H457 H 0.13985 0.4017 0.90798 0.0
H458 H 0.2075 0.46004 0.82223 0.0
H459 H 0.21402 0.48228 0.85175 0.0
H460 H 0.23518 0.45133 0.84659 0.0
H461 H 0.10172 0.42859 0.89323 0.0
H462 H 0.11122 0.46501 0.88906 0.0
H463 H 0.10521 0.44375 0.85869 0.0
H464 H 0.1403 0.54701 0.85726 0.0
H465 H 0.12681 0.4974 0.78319 0.0
H466 H 0.18477 0.49951 0.89232 0.0
H467 H 0.14981 0.4943 0.90492 0.0
H468 H 0.16211 0.52934 0.89757 0.0
H469 H 0.16587 0.43785 0.80429 0.0
H470 H 0.13816 0.44938 0.78114 0.0
H471 H 0.13007 0.43251 0.81406 0.0
C472 C 0.52911 0.17151 0.81921 0.0
C473 C 0.52914 0.20099 0.82041 0.0
C474 C 0.50581 0.15645 0.8089 0.0
C475 C 0.48144 0.17106 0.80019 0.0
C476 C 0.48096 0.20081 0.80225 0.0
C477 C 0.50494 0.21542 0.8119 0.0
C478 C 0.50761 0.12488 0.8066 0.0
C479 C 0.45518 0.21722 0.79401 0.0
C480 C 0.42909 0.13528 0.75034 0.0
C481 C 0.4091 0.12456 0.76915 0.0
C482 C 0.45291 0.1501 0.76011 0.0
C483 C 0.45642 0.15512 0.78933 0.0
C484 C 0.43615 0.14446 0.80831 0.0
C485 C 0.41307 0.12906 0.79806 0.0
C486 C 0.47435 0.16039 0.73917 0.0
C487 C 0.43853 0.1498 0.83951 0.0
H488 H 0.54785 0.16013 0.82528 0.0
H489 H 0.50482 0.23817 0.81258 0.0
H490 H 0.49085 0.1149 0.81934 0.0
H491 H 0.50422 0.11837 0.78447 0.0
H492 H 0.52823 0.11667 0.81375 0.0
H493 H 0.4576 0.24006 0.79814 0.0
H494 H 0.45072 0.21418 0.77134 0.0
H495 H 0.43666 0.20936 0.80579 0.0
H496 H 0.42613 0.13203 0.72799 0.0
H497 H 0.39755 0.12128 0.81279 0.0
H498 H 0.4954 0.1521 0.74469 0.0
H499 H 0.47572 0.18363 0.73993 0.0
H500 H 0.46918 0.15392 0.71735 0.0
H501 H 0.45821 0.14051 0.84775 0.0
H502 H 0.42057 0.14085 0.85142 0.0
H503 H 0.43955 0.17273 0.84356 0.0
C504 C 0.85005 0.58532 0.9047 0.0
C505 C 0.82135 0.59166 0.90659 0.0
C506 C 0.85928 0.56018 0.89215 0.0
C507 C 0.83933 0.54079 0.88141 0.0
C508 C 0.81033 0.54629 0.88499 0.0
C509 C 0.80171 0.57166 0.89738 0.0
C510 C 0.89037 0.55525 0.88878 0.0
C511 C 0.78829 0.52612 0.87424 0.0
C512 C 0.85611 0.49584 0.81748 0.0
C513 C 0.86003 0.46916 0.82935 0.0
C514 C 0.8505 0.51941 0.83431 0.0
C515 C 0.84847 0.51635 0.86385 0.0
C516 C 0.85344 0.48966 0.87609 0.0
C517 C 0.85926 0.4664 0.85871 0.0
C518 C 0.84572 0.54746 0.8203 0.0
C519 C 0.85146 0.48542 0.90744 0.0
H520 H 0.8654 0.60069 0.91161 0.0
H521 H 0.7795 0.57633 0.8988 0.0
H522 H 0.89592 0.53356 0.8952 0.0
H523 H 0.89616 0.55759 0.86633 0.0
H524 H 0.90309 0.57031 0.90131 0.0
H525 H 0.76684 0.53193 0.88125 0.0
H526 H 0.78861 0.52593 0.85093 0.0
H527 H 0.79286 0.50446 0.88147 0.0
H528 H 0.85678 0.49823 0.79484 0.0
H529 H 0.86214 0.44585 0.86806 0.0
H530 H 0.85943 0.56372 0.82989 0.0
H531 H 0.82366 0.55413 0.82353 0.0
H532 H 0.84992 0.54677 0.79735 0.0
H533 H 0.86436 0.5013 0.91863 0.0
H534 H 0.85843 0.46413 0.91393 0.0
H535 H 0.8294 0.48833 0.91428 0.0
C536 C 0.5491 0.88689 0.8127 0.0
C537 C 0.55431 0.88297 0.78393 0.0
C538 C 0.52472 0.8761 0.82543 0.0
C539 C 0.5048 0.86133 0.80896 0.0
C540 C 0.50898 0.85908 0.77955 0.0
C541 C 0.53375 0.86975 0.76742 0.0
C542 C 0.52128 0.87886 0.85683 0.0
C543 C 0.48805 0.84394 0.76111 0.0
C544 C 0.46184 0.80227 0.84167 0.0
C545 C 0.43551 0.81487 0.84523 0.0
C546 C 0.4847 0.81744 0.83076 0.0
C547 C 0.48113 0.84588 0.82275 0.0
C548 C 0.45482 0.85899 0.8271 0.0
C549 C 0.43237 0.84338 0.83847 0.0
C550 C 0.51249 0.80273 0.82699 0.0
C551 C 0.45004 0.88916 0.81867 0.0
H552 H 0.56489 0.89696 0.8257 0.0
H553 H 0.53757 0.86661 0.7452 0.0
H554 H 0.49988 0.8863 0.86208 0.0
H555 H 0.52396 0.85796 0.8668 0.0
H556 H 0.53686 0.89356 0.86616 0.0
H557 H 0.49264 0.84681 0.73841 0.0
H558 H 0.48845 0.82114 0.76592 0.0
H559 H 0.46647 0.85153 0.76537 0.0
H560 H 0.46444 0.78026 0.84685 0.0
H561 H 0.41201 0.85319 0.84087 0.0
H562 H 0.52951 0.81489 0.83733 0.0
H563 H 0.51765 0.80142 0.80431 0.0
H564 H 0.51231 0.78113 0.83582 0.0
H565 H 0.46635 0.90292 0.82809 0.0
H566 H 0.42904 0.89687 0.82518 0.0
H567 H 0.45184 0.89117 0.79552 0.0
C568 C 0.1988 0.27189 0.6106 0.0
C569 C 0.17257 0.2786 0.59896 0.0
C570 C 0.2187 0.25638 0.59526 0.0
C571 C 0.21258 0.24818 0.5673 0.0
C572 C 0.18696 0.25677 0.55481 0.0
C573 C 0.16711 0.27148 0.57091 0.0
C574 C 0.24572 0.24777 0.60943 0.0
C575 C 0.17985 0.24917 0.52483 0.0
C576 C 0.26859 0.22101 0.51715 0.0
C577 C 0.262 0.19225 0.51595 0.0
C578 C 0.25349 0.23941 0.5346 0.0
C579 C 0.23166 0.22873 0.55173 0.0
C580 C 0.22649 0.19939 0.55224 0.0
C581 C 0.24146 0.18156 0.53411 0.0
C582 C 0.25947 0.2705 0.533 0.0
C583 C 0.20403 0.18698 0.57083 0.0
H584 H 0.20304 0.27702 0.63239 0.0
H585 H 0.14684 0.27649 0.56186 0.0
H586 H 0.24993 0.22514 0.60592 0.0
H587 H 0.26346 0.25971 0.60019 0.0
H588 H 0.24534 0.25183 0.63241 0.0
H589 H 0.16065 0.26002 0.51728 0.0
H590 H 0.19754 0.25463 0.51068 0.0
H591 H 0.17638 0.22617 0.52321 0.0
H592 H 0.28418 0.22956 0.50292 0.0
H593 H 0.23619 0.15941 0.53325 0.0
H594 H 0.26124 0.27964 0.55435 0.0
H595 H 0.24176 0.28117 0.52227 0.0
H596 H 0.27907 0.27514 0.52124 0.0
H597 H 0.20601 0.19529 0.59252 0.0
H598 H 0.20508 0.16369 0.57155 0.0
H599 H 0.18303 0.1931 0.56285 0.0
C600 C 0.82332 0.15064 0.53192 0.0
C601 C 0.8378 0.14861 0.55752 0.0
C602 C 0.83643 0.16138 0.50769 0.0
C603 C 0.86463 0.17091 0.5091 0.0
C604 C 0.87949 0.16856 0.53483 0.0
C605 C 0.86599 0.15721 0.55863 0.0
C606 C 0.81992 0.1629 0.48063 0.0
C607 C 0.9094 0.17877 0.53741 0.0
C608 C 0.90311 0.17734 0.43917 0.0
C609 C 0.89859 0.20561 0.43204 0.0
C610 C 0.89299 0.166 0.46452 0.0
C611 C 0.87832 0.18339 0.48361 0.0
C612 C 0.87508 0.21233 0.47728 0.0
C613 C 0.88503 0.22304 0.4515 0.0
C614 C 0.89667 0.13501 0.47013 0.0
C615 C 0.86007 0.23178 0.49723 0.0
H616 H 0.80153 0.14408 0.53088 0.0
H617 H 0.87724 0.15603 0.57841 0.0
H618 H 0.81766 0.18512 0.47401 0.0
H619 H 0.83131 0.15177 0.46366 0.0
H620 H 0.79864 0.15352 0.48267 0.0
H621 H 0.91828 0.17493 0.55866 0.0
H622 H 0.92285 0.16818 0.52166 0.0
H623 H 0.91034 0.20163 0.53298 0.0
H624 H 0.91339 0.16359 0.42426 0.0
H625 H 0.88137 0.24486 0.44621 0.0
H626 H 0.87585 0.12449 0.46987 0.0
H627 H 0.9059 0.13161 0.49125 0.0
H628 H 0.91031 0.12476 0.45426 0.0
H629 H 0.8375 0.22602 0.49818 0.0
H630 H 0.86179 0.25411 0.4907 0.0
H631 H 0.86873 0.22958 0.51877 0.0
C632 C 0.86294 0.86269 0.45517 0.0
C633 C 0.83356 0.86305 0.45278 0.0
C634 C 0.87614 0.85303 0.47981 0.0
C635 C 0.85958 0.84347 0.50259 0.0
C636 C 0.82993 0.84549 0.50092 0.0
C637 C 0.81731 0.85525 0.47608 0.0
C638 C 0.90777 0.85152 0.48079 0.0
C639 C 0.81143 0.83576 0.52478 0.0
C640 C 0.88425 0.78522 0.55125 0.0
C641 C 0.88953 0.79989 0.57627 0.0
C642 C 0.87594 0.79936 0.52671 0.0
C643 C 0.8728 0.82895 0.5271 0.0
C644 C 0.87993 0.84406 0.55174 0.0
C645 C 0.88821 0.82935 0.57604 0.0
C646 C 0.86882 0.7824 0.50085 0.0
C647 C 0.87715 0.87559 0.55302 0.0
H648 H 0.87569 0.86865 0.43727 0.0
H649 H 0.79461 0.85549 0.47446 0.0
H650 H 0.91582 0.86006 0.50093 0.0
H651 H 0.91443 0.82924 0.47952 0.0
H652 H 0.91765 0.86322 0.46317 0.0
H653 H 0.78897 0.84088 0.52117 0.0
H654 H 0.81337 0.81267 0.5273 0.0
H655 H 0.81824 0.84555 0.54481 0.0
H656 H 0.88524 0.76248 0.5512 0.0
H657 H 0.89218 0.84089 0.59527 0.0
H658 H 0.87972 0.79113 0.48219 0.0
H659 H 0.84592 0.78362 0.49672 0.0
H660 H 0.87468 0.75995 0.50314 0.0
H661 H 0.88675 0.88548 0.53422 0.0
H662 H 0.88715 0.88451 0.57214 0.0
H663 H 0.85459 0.88131 0.55312 0.0
C664 C 0.11833 0.83915 0.40471 0.0
C665 C 0.11217 0.81129 0.39717 0.0
C666 C 0.13252 0.84549 0.42995 0.0
C667 C 0.14045 0.82351 0.4484 0.0
C668 C 0.13342 0.79543 0.44131 0.0
C669 C 0.1196 0.78966 0.41576 0.0
C670 C 0.13977 0.87568 0.43646 0.0
C671 C 0.14099 0.77136 0.4605 0.0
C672 C 0.20115 0.83258 0.50036 0.0
C673 C 0.18697 0.83738 0.52572 0.0
C674 C 0.18634 0.82893 0.47494 0.0
C675 C 0.15655 0.82969 0.47483 0.0
C676 C 0.14219 0.83523 0.50028 0.0
C677 C 0.15753 0.83916 0.52529 0.0
C678 C 0.20256 0.82354 0.44828 0.0
C679 C 0.11053 0.83601 0.50129 0.0
H680 H 0.11293 0.856 0.39039 0.0
H681 H 0.11498 0.76808 0.41012 0.0
H682 H 0.13132 0.88164 0.45731 0.0
H683 H 0.16292 0.8782 0.43747 0.0
H684 H 0.13139 0.89043 0.42045 0.0
H685 H 0.13287 0.75091 0.45268 0.0
H686 H 0.16414 0.76992 0.46254 0.0
H687 H 0.13242 0.77509 0.48184 0.0
H688 H 0.22385 0.83115 0.50045 0.0
H689 H 0.14632 0.84269 0.54477 0.0
H690 H 0.19606 0.83857 0.4317 0.0
H691 H 0.19782 0.80211 0.44043 0.0
H692 H 0.2256 0.82542 0.45146 0.0
H693 H 0.10235 0.85126 0.48571 0.0
H694 H 0.10253 0.84183 0.52241 0.0
H695 H 0.10193 0.81508 0.49561 0.0
C696 C 0.70557 0.96216 0.74746 0.0
C697 C 0.6786 0.95789 0.73629 0.0
C698 C 0.72395 0.98232 0.73601 0.0
C699 C 0.71498 0.99919 0.71319 0.0
C700 C 0.68742 0.99561 0.70242 0.0
C701 C 0.66973 0.97476 0.71382 0.0
C702 C 0.75322 0.98509 0.7479 0.0
C703 C 0.67669 0.01368 0.67868 0.0
C704 C 0.75306 0.06848 0.70016 0.0
C705 C 0.76943 0.06241 0.67639 0.0
C706 C 0.73531 0.0482 0.71224 0.0
C707 C 0.73432 0.02078 0.70082 0.0
C708 C 0.7515 0.0142 0.67738 0.0
C709 C 0.76854 0.0352 0.66518 0.0
C710 C 0.71692 0.05645 0.7367 0.0
C711 C 0.75151 0.98508 0.66489 0.0
H712 H 0.71276 0.94897 0.76458 0.0
H713 H 0.64896 0.97154 0.70503 0.0
H714 H 0.7689 0.98113 0.73116 0.0
H715 H 0.75676 0.00679 0.75563 0.0
H716 H 0.75709 0.97022 0.76547 0.0
H717 H 0.65438 0.00916 0.67351 0.0
H718 H 0.6787 0.03622 0.6843 0.0
H719 H 0.68956 0.01019 0.6596 0.0
H720 H 0.75315 0.08959 0.70869 0.0
H721 H 0.7809 0.03042 0.6467 0.0
H722 H 0.72132 0.04279 0.75504 0.0
H723 H 0.69451 0.05342 0.73105 0.0
H724 H 0.72008 0.07868 0.74306 0.0
H725 H 0.75607 0.96931 0.68144 0.0
H726 H 0.76723 0.98285 0.64782 0.0
H727 H 0.73043 0.98013 0.65625 0.0
C728 C 0.91547 0.66929 0.6936 0.0
C729 C 0.92757 0.68925 0.67555 0.0
C730 C 0.9323 0.65149 0.71016 0.0
C731 C 0.96193 0.65368 0.7086 0.0
C732 C 0.97419 0.67282 0.68934 0.0
C733 C 0.95689 0.69035 0.67312 0.0
C734 C 0.91835 0.63138 0.73033 0.0
C735 C 0.00568 0.67575 0.68679 0.0
C736 C 0.01081 0.63649 0.76936 0.0
C737 C 0.02377 0.61187 0.75976 0.0
C738 C 0.98925 0.64936 0.75381 0.0
C739 C 0.98039 0.63732 0.72803 0.0
C740 C 0.99173 0.61123 0.7195 0.0
C741 C 0.01326 0.59882 0.73545 0.0
C742 C 0.97747 0.67698 0.76392 0.0
C743 C 0.98264 0.59745 0.69241 0.0
H744 H 0.89284 0.66845 0.69581 0.0
H745 H 0.96641 0.70574 0.65928 0.0
H746 H 0.92809 0.61029 0.72899 0.0
H747 H 0.9213 0.63904 0.75214 0.0
H748 H 0.89547 0.62933 0.72623 0.0
H749 H 0.01189 0.69045 0.66975 0.0
H750 H 0.01453 0.68361 0.70689 0.0
H751 H 0.01533 0.655 0.68259 0.0
H752 H 0.01873 0.64674 0.78811 0.0
H753 H 0.02307 0.57976 0.72785 0.0
H754 H 0.9542 0.67668 0.76303 0.0
H755 H 0.98478 0.69415 0.74994 0.0
H756 H 0.98411 0.68192 0.78576 0.0
H757 H 0.95942 0.59738 0.69056 0.0
H758 H 0.99031 0.5755 0.69077 0.0
H759 H 0.99105 0.60958 0.67437 0.0
C760 C 0.28614 0.0031 0.73656 0.0
C761 C 0.31218 0.01316 0.72702 0.0
C762 C 0.27285 0.98004 0.72361 0.0
C763 C 0.28619 0.96612 0.70098 0.0
C764 C 0.31324 0.97518 0.69236 0.0
C765 C 0.32569 0.99883 0.70516 0.0
C766 C 0.24384 0.97154 0.73318 0.0
C767 C 0.32866 0.96046 0.66895 0.0
C768 C 0.25958 0.89351 0.67919 0.0
C769 C 0.24469 0.89955 0.65444 0.0
C770 C 0.27321 0.91486 0.69452 0.0
C771 C 0.27128 0.94312 0.68538 0.0
C772 C 0.2554 0.9494 0.66092 0.0
C773 C 0.24275 0.92751 0.64549 0.0
C774 C 0.29058 0.90699 0.71986 0.0
C775 C 0.25209 0.97927 0.65081 0.0
H776 H 0.27534 0.01427 0.75316 0.0
H777 H 0.34576 0.00651 0.69762 0.0
H778 H 0.22859 0.97507 0.71589 0.0
H779 H 0.24327 0.94883 0.73832 0.0
H780 H 0.23686 0.98358 0.75188 0.0
H781 H 0.35058 0.96815 0.6667 0.0
H782 H 0.32908 0.93748 0.67281 0.0
H783 H 0.3175 0.9639 0.64878 0.0
H784 H 0.26166 0.87186 0.68591 0.0
H785 H 0.23139 0.93225 0.62632 0.0
H786 H 0.284 0.91937 0.73844 0.0
H787 H 0.31297 0.91206 0.71583 0.0
H788 H 0.28888 0.8843 0.72504 0.0
H789 H 0.24398 0.99265 0.66805 0.0
H790 H 0.23759 0.98086 0.63259 0.0
H791 H 0.27282 0.98788 0.64457 0.0
C792 C 0.01082 0.31119 0.65972 0.0
C793 C 0.03459 0.32511 0.64922 0.0
C794 C 0.98813 0.32628 0.67102 0.0
C795 C 0.98913 0.35603 0.67175 0.0
C796 C 0.01194 0.37019 0.65891 0.0
C797 C 0.03439 0.35458 0.64783 0.0
C798 C 0.96411 0.31029 0.68419 0.0
C799 C 0.01371 0.40183 0.6588 0.0
C800 C 0.92208 0.39318 0.6951 0.0
C801 C 0.92677 0.39611 0.72408 0.0
C802 C 0.94259 0.38125 0.67746 0.0
C803 C 0.96834 0.37191 0.68909 0.0
C804 C 0.9737 0.3762 0.71808 0.0
C805 C 0.95294 0.38828 0.73513 0.0
C806 C 0.93609 0.37728 0.64668 0.0
C807 C 1.00086 0.36668 0.73145 0.0
H808 H 0.01073 0.28845 0.66092 0.0
H809 H 0.05261 0.36557 0.63971 0.0
H810 H 0.96517 0.31243 0.70738 0.0
H811 H 0.94374 0.31913 0.67725 0.0
H812 H 0.9646 0.28759 0.67884 0.0
H813 H 0.03021 0.40965 0.64426 0.0
H814 H 0.99329 0.41116 0.65266 0.0
H815 H 0.01873 0.40937 0.68029 0.0
H816 H 0.90187 0.39894 0.68638 0.0
H817 H 0.95678 0.3904 0.75748 0.0
H818 H 0.93245 0.35467 0.64237 0.0
H819 H 0.95409 0.38411 0.63356 0.0
H820 H 0.91711 0.38912 0.64013 0.0
H821 H 0.00249 0.34347 0.73013 0.0
H822 H 0.00243 0.37291 0.75389 0.0
H823 H 0.01906 0.37564 0.71999 0.0
C824 C 0.78326 0.95347 0.32402 0.0
C825 C 0.78996 0.92613 0.31542 0.0
C826 C 0.76954 0.97226 0.30577 0.0
C827 C 0.76189 0.96337 0.27837 0.0
C828 C 0.76999 0.93632 0.26908 0.0
C829 C 0.78411 0.91813 0.28761 0.0
C830 C 0.76175 1.00106 0.31644 0.0
C831 C 0.76226 0.926 0.24009 0.0
C832 C 0.69532 0.99758 0.25053 0.0
C833 C 0.70593 0.01838 0.23257 0.0
C834 C 0.71329 0.97886 0.26453 0.0
C835 C 0.74273 0.9811 0.26084 0.0
C836 C 0.75352 1.00122 0.24171 0.0
C837 C 0.73497 0.01953 0.22768 0.0
C838 C 0.70077 0.95751 0.28435 0.0
C839 C 0.78471 0.00459 0.23733 0.0
H840 H 0.78767 0.95983 0.34544 0.0
H841 H 0.78903 0.897 0.28079 0.0
H842 H 0.76776 0.01741 0.30094 0.0
H843 H 0.73866 0.00226 0.31926 0.0
H844 H 0.77198 0.00598 0.33685 0.0
H845 H 0.77039 0.90457 0.23587 0.0
H846 H 0.73909 0.92573 0.23768 0.0
H847 H 0.77069 0.94055 0.22395 0.0
H848 H 0.67293 0.99659 0.25448 0.0
H849 H 0.74339 0.03581 0.21415 0.0
H850 H 0.70658 0.96286 0.3063 0.0
H851 H 0.70931 0.93635 0.27986 0.0
H852 H 0.67751 0.95665 0.28284 0.0
H853 H 0.79428 0.0138 0.2565 0.0
H854 H 0.78958 0.01851 0.21923 0.0
H855 H 0.79474 0.9839 0.23382 0.0
C856 C 0.9383 0.68042 0.21391 0.0
C857 C 0.91093 0.68916 0.20752 0.0
C858 C 0.95773 0.6988 0.22663 0.0
C859 C 0.94958 0.72658 0.23349 0.0
C860 C 0.92227 0.73582 0.22623 0.0
C861 C 0.90336 0.71709 0.21323 0.0
C862 C 0.98673 0.68814 0.23363 0.0
C863 C 0.9127 0.76522 0.23311 0.0
C864 C 0.99099 0.75974 0.29374 0.0
C865 C 0.01063 0.77634 0.27935 0.0
C866 C 0.97021 0.74449 0.27913 0.0
C867 C 0.96927 0.74543 0.24935 0.0
C868 C 0.98826 0.76315 0.23482 0.0
C869 C 0.00852 0.77851 0.24998 0.0
C870 C 0.94997 0.72643 0.29552 0.0
C871 C 0.98826 0.76467 0.20315 0.0
H872 H 0.94431 0.65888 0.20973 0.0
H873 H 0.88218 0.72401 0.20867 0.0
H874 H 0.00291 0.70255 0.225 0.0
H875 H 0.98956 0.68761 0.25676 0.0
H876 H 0.99048 0.66672 0.22521 0.0
H877 H 0.89082 0.76921 0.2261 0.0
H878 H 0.91402 0.76878 0.25611 0.0
H879 H 0.92675 0.7808 0.22295 0.0
H880 H 0.99246 0.75785 0.31639 0.0
H881 H 0.02372 0.79109 0.23859 0.0
H882 H 0.95453 0.70394 0.29155 0.0
H883 H 0.92815 0.73039 0.28845 0.0
H884 H 0.9513 0.73032 0.31849 0.0
H885 H 0.99513 0.74421 0.19442 0.0
H886 H 0.00251 0.78135 0.19513 0.0
H887 H 0.96678 0.76868 0.19512 0.0
C888 C 0.35343 1.00144 0.31872 0.0
C889 C 0.35624 0.973 0.32586 0.0
C890 C 0.34344 0.02119 0.33826 0.0
C891 C 0.33562 0.01229 0.36558 0.0
C892 C 0.33922 0.98374 0.37319 0.0
C893 C 0.34964 0.96448 0.35331 0.0
C894 C 0.34051 0.05149 0.32934 0.0
C895 C 0.33105 0.97332 0.402 0.0
C896 C 0.32864 0.07058 0.41995 0.0
C897 C 0.29993 0.07708 0.41825 0.0
C898 C 0.34036 0.04881 0.40385 0.0
C899 C 0.32296 0.03285 0.38571 0.0
C900 C 0.29367 0.03815 0.38523 0.0
C901 C 0.28253 0.06026 0.40138 0.0
C902 C 0.37167 0.04406 0.40499 0.0
C903 C 0.27427 0.02142 0.3665 0.0
H904 H 0.35846 0.00822 0.29757 0.0
H905 H 0.35148 0.9425 0.35894 0.0
H906 H 0.31805 0.05759 0.32967 0.0
H907 H 0.35174 0.06541 0.34432 0.0
H908 H 0.34889 0.05532 0.30791 0.0
H909 H 0.33665 0.95091 0.40523 0.0
H910 H 0.34147 0.98611 0.41848 0.0
H911 H 0.30807 0.97566 0.4049 0.0
H912 H 0.34235 0.08349 0.4328 0.0
H913 H 0.26037 0.06513 0.39984 0.0
H914 H 0.38123 0.05061 0.38477 0.0
H915 H 0.37635 0.02144 0.40791 0.0
H916 H 0.38184 0.05611 0.42222 0.0
H917 H 0.27888 0.02628 0.34418 0.0
H918 H 0.25181 0.02614 0.37059 0.0
H919 H 0.27775 0.99859 0.36954 0.0
C920 C 0.09731 0.29123 0.25452 0.0
C921 C 0.09409 0.31965 0.24738 0.0
C922 C 0.07531 0.2759 0.26699 0.0
C923 C 0.04905 0.28899 0.27165 0.0
C924 C 0.04521 0.31723 0.26297 0.0
C925 C 0.06791 0.33237 0.25144 0.0
C926 C 0.08073 0.2462 0.27668 0.0
C927 C 0.01735 0.33178 0.26669 0.0
C928 C 0.9849 0.2431 0.28708 0.0
C929 C 0.98115 0.2475 0.31596 0.0
C930 C 0.00687 0.2564 0.27235 0.0
C931 C 0.02617 0.27374 0.28704 0.0
C932 C 0.02319 0.27711 0.3165 0.0
C933 C 1.00038 0.26447 0.33046 0.0
C934 C 0.00867 0.25289 0.24089 0.0
C935 C 0.04382 0.29451 0.33323 0.0
H936 H 0.11764 0.28138 0.25196 0.0
H937 H 0.06533 0.35435 0.24612 0.0
H938 H 0.0795 0.24526 0.29994 0.0
H939 H 0.06445 0.23176 0.26829 0.0
H940 H 0.10169 0.23848 0.27007 0.0
H941 H 0.01682 0.35256 0.25609 0.0
H942 H 1.00011 0.31855 0.25819 0.0
H943 H 0.01317 0.33495 0.28939 0.0
H944 H 0.96973 0.23044 0.27569 0.0
H945 H 0.99745 0.26802 0.35277 0.0
H946 H 0.02971 0.24505 0.23485 0.0
H947 H 0.00583 0.27359 0.23055 0.0
H948 H 0.99252 0.23815 0.23267 0.0
H949 H 0.06561 0.28755 0.32889 0.0
H950 H 0.03998 0.2931 0.3562 0.0
H951 H 0.04232 0.31686 0.32683 0.0
C952 C 0.75882 0.70657 0.0076 0.0
C953 C 0.77515 0.71988 0.98699 0.0
C954 C 0.74206 0.72218 0.02625 0.0
C955 C 0.74151 0.7519 0.02435 0.0
C956 C 0.75897 0.76551 0.00446 0.0
C957 C 0.77555 0.74937 0.98607 0.0
C958 C 0.72405 0.70678 0.04728 0.0
C959 C 0.75917 0.79708 1.00167 0.0
C960 C 0.67437 0.78699 0.05039 0.0
C961 C 0.682 0.79571 0.07752 0.0
C962 C 0.69376 0.77355 0.03259 0.0
C963 C 0.72151 0.76847 0.04214 0.0
C964 C 0.7296 0.77808 0.06914 0.0
C965 C 0.70983 0.79163 0.08642 0.0
C966 C 0.6842 0.7638 0.00394 0.0
C967 C 0.75891 0.77318 0.08017 0.0
H968 H 0.75823 0.68383 0.00845 0.0
H969 H 0.78795 0.75991 0.97014 0.0
H970 H 0.72812 0.71496 0.0687 0.0
H971 H 0.70155 0.71047 0.04254 0.0
H972 H 0.72794 0.68379 0.0472 0.0
H973 H 0.77568 0.80459 0.987 0.0
H974 H 0.73847 0.80427 0.9938 0.0
H975 H 0.76258 0.80704 0.02247 0.0
H976 H 0.65291 0.78984 0.04336 0.0
H977 H 0.71592 0.79801 0.10742 0.0
H978 H 0.68485 0.74053 0.00296 0.0
H979 H 0.69858 0.77188 0.98748 0.0
H980 H 0.66252 0.77078 0.99896 0.0
H981 H 0.76322 0.75031 0.08114 0.0
H982 H 0.76206 0.78225 0.10145 0.0
H983 H 0.77454 0.78257 0.06567 0.0
C984 C 0.34219 0.66718 0.05615 0.0
C985 C 0.31342 0.66115 0.05861 0.0
C986 C 0.35317 0.67998 0.03184 0.0
C987 C 0.33505 0.68666 0.00918 0.0
C988 C 0.30612 0.67982 0.01121 0.0
C989 C 0.29564 0.66735 0.03593 0.0
C990 C 0.38404 0.68713 0.03075 0.0
C991 C 0.28608 0.6862 0.98747 0.0
C992 C 0.35371 0.74507 0.95745 0.0
C993 C 0.36307 0.72989 0.93401 0.0
C994 C 0.34539 0.73133 0.98229 0.0
C995 C 0.34608 0.7016 0.98373 0.0
C996 C 0.35632 0.68621 0.96043 0.0
C997 C 0.36482 0.70052 0.93595 0.0
C998 C 0.33502 0.74863 0.00672 0.0
C999 C 0.35724 0.65453 0.96092 0.0
H1000 H 0.35608 0.66266 0.07362 0.0
H1001 H 0.2734 0.66279 0.03763 0.0
H1002 H 0.39376 0.67768 0.01183 0.0
H1003 H 0.38675 0.71022 0.02907 0.0
H1004 H 0.39554 0.67966 0.04963 0.0
H1005 H 0.26455 0.67824 0.99167 0.0
H1006 H 0.28501 0.70923 0.9841 0.0
H1007 H 0.29378 0.67668 0.96766 0.0
H1008 H 0.35221 0.76774 0.95616 0.0
H1009 H 0.37176 0.68856 0.91789 0.0
H1010 H 0.34655 0.74291 0.02615 0.0
H1011 H 0.31247 0.74411 0.01046 0.0
H1012 H 0.33753 0.77153 0.00302 0.0
H1013 H 0.36906 0.64711 0.97958 0.0
H1014 H 0.36713 0.6457 0.94175 0.0
H1015 H 0.33558 0.64605 0.96264 0.0
C1016 C 0.25025 0.31 0.01585 0.0
C1017 C 0.22557 0.29882 0.0043 0.0
C1018 C 0.26687 0.29427 0.03449 0.0
C1019 C 0.25897 0.26634 0.04139 0.0
C1020 C 0.23364 0.25521 0.03035 0.0
C1021 C 0.21707 0.27171 0.01227 0.0
C1022 C 0.2937 0.30739 0.04516 0.0
C1023 C 0.22492 0.22528 0.03623 0.0
C1024 C 0.32127 0.22174 0.06409 0.0
C1025 C 0.31827 0.22142 0.09339 0.0
C1026 C 0.30119 0.23481 0.04679 0.0
C1027 C 0.27784 0.2485 0.05909 0.0
C1028 C 0.274 0.24704 0.08857 0.0
C1029 C 0.29409 0.23326 0.10529 0.0
C1030 C 0.30574 0.23518 0.01543 0.0
C1031 C 0.24993 0.26186 0.10279 0.0
H1032 H 0.25717 0.33078 0.00955 0.0
H1033 H 0.19831 0.26267 0.00301 0.0
H1034 H 0.30188 0.29697 0.06429 0.0
H1035 H 0.30994 0.30595 0.02853 0.0
H1036 H 0.2905 0.33003 0.04973 0.0
H1037 H 0.20416 0.22006 0.0269 0.0
H1038 H 0.24084 0.21073 0.02748 0.0
H1039 H 0.22397 0.22145 0.05919 0.0
H1040 H 0.33987 0.21264 0.0547 0.0
H1041 H 0.29163 0.23325 0.12792 0.0
H1042 H 0.31222 0.25657 0.0088 0.0
H1043 H 0.28594 0.22998 0.00422 0.0
H1044 H 0.32225 0.22013 0.00883 0.0
H1045 H 0.25514 0.28451 0.10477 0.0
H1046 H 0.24596 0.2533 0.12412 0.0
H1047 H 0.23027 0.26021 0.09041 0.0
C1048 C 0.72426 0.33591 0.98542 0.0
C1049 C 0.73598 0.32008 0.00729 0.0
C1050 C 0.70912 0.32288 0.96349 0.0
C1051 C 0.7044 0.29343 0.96414 0.0
C1052 C 0.71634 0.27739 0.98621 0.0
C1053 C 0.73239 0.29082 0.00717 0.0
C1054 C 0.6977 0.34072 0.93992 0.0
C1055 C 0.71105 0.24619 0.98846 0.0
C1056 C 0.64003 0.26694 0.9237 0.0
C1057 C 0.65222 0.2551 0.89968 0.0
C1058 C 0.65677 0.27865 0.94521 0.0
C1059 C 0.68641 0.27956 0.94219 0.0
C1060 C 0.69877 0.26757 0.91794 0.0
C1061 C 0.6816 0.25511 0.89727 0.0
C1062 C 0.6427 0.29032 0.97107 0.0
C1063 C 0.7301 0.26879 0.91332 0.0
H1064 H 0.72671 0.35855 0.98562 0.0
H1065 H 0.74075 0.27857 0.02445 0.0
H1066 H 0.70388 0.33178 0.91931 0.0
H1067 H 0.67443 0.34081 0.94069 0.0
H1068 H 0.7053 0.36277 0.94109 0.0
H1069 H 0.72217 0.23663 0.00662 0.0
H1070 H 0.68821 0.24224 0.99085 0.0
H1071 H 0.71787 0.23544 0.96899 0.0
H1072 H 0.61736 0.2671 0.92564 0.0
H1073 H 0.69117 0.24645 0.87854 0.0
H1074 H 0.64608 0.31334 0.97216 0.0
H1075 H 0.65215 0.28103 0.99026 0.0
H1076 H 0.61975 0.28611 0.97124 0.0
H1077 H 0.73713 0.29103 0.91269 0.0
H1078 H 0.73649 0.2584 0.89345 0.0
H1079 H 0.74124 0.25856 0.93103 0.0
C1080 C 0.21034 0.3062 0.32153 0.0
C1081 C 0.18561 0.32161 0.31819 0.0
C1082 C 0.21265 0.28566 0.34241 0.0
C1083 C 0.18942 0.28008 0.36015 0.0
C1084 C 0.16462 0.29622 0.35748 0.0
C1085 C 0.16307 0.31702 0.33653 0.0
C1086 C 0.23974 0.26933 0.34483 0.0
C1087 C 0.1393 0.29061 0.37566 0.0
C1088 C 0.19867 0.20692 0.38871 0.0
C1089 C 0.21424 0.21285 0.41295 0.0
C1090 C 0.18723 0.22886 0.37262 0.0
C1091 C 0.1917 0.25707 0.38112 0.0
C1092 C 0.20418 0.26271 0.40748 0.0
C1093 C 0.21529 0.24047 0.42312 0.0
C1094 C 0.17326 0.22198 0.34501 0.0
C1095 C 0.20902 0.29239 0.41758 0.0
H1096 H 0.22772 0.30971 0.30724 0.0
H1097 H 0.14371 0.32857 0.33354 0.0
H1098 H 0.24805 0.27068 0.36657 0.0
H1099 H 0.2358 0.24682 0.3402 0.0
H1100 H 0.25613 0.27711 0.33016 0.0
H1101 H 0.12358 0.30773 0.37415 0.0
H1102 H 0.12915 0.27075 0.36884 0.0
H1103 H 0.14548 0.28798 0.39798 0.0
H1104 H 0.1977 0.18555 0.38091 0.0
H1105 H 0.22693 0.245 0.4422 0.0
H1106 H 0.18832 0.22575 0.32763 0.0
H1107 H 0.15481 0.23569 0.34142 0.0
H1108 H 0.16639 0.19968 0.3441 0.0
H1109 H 0.22704 0.30162 0.40602 0.0
H1110 H 0.21385 0.29309 0.44041 0.0
H1111 H 0.19042 0.30571 0.41339 0.0
C1112 C 0.83562 0.14934 0.31962 0.0
C1113 C 0.83653 0.16948 0.341 0.0
C1114 C 0.81002 0.1368 0.31185 0.0
C1115 C 0.785 0.1446 0.32594 0.0
C1116 C 0.78646 0.16259 0.3495 0.0
C1117 C 0.81222 0.17492 0.35668 0.0
C1118 C 0.80937 0.11728 0.28689 0.0
C1119 C 0.76043 0.17098 0.36545 0.0
C1120 C 0.72313 0.1504 0.27666 0.0
C1121 C 0.70889 0.12517 0.2816 0.0
C1122 C 0.74712 0.15752 0.29206 0.0
C1123 C 0.75735 0.13867 0.31268 0.0
C1124 C 0.74202 0.1139 0.31898 0.0
C1125 C 0.71775 0.10746 0.30335 0.0
C1126 C 0.76249 0.18442 0.28493 0.0
C1127 C 0.75226 0.09323 0.3407 0.0
H1128 H 0.85441 0.14495 0.3076 0.0
H1129 H 0.81297 0.19013 0.37362 0.0
H1130 H 0.79594 0.09873 0.29128 0.0
H1131 H 0.80018 0.12842 0.26858 0.0
H1132 H 0.8307 0.10995 0.28106 0.0
H1133 H 0.76564 0.18066 0.38605 0.0
H1134 H 0.74841 0.18647 0.35287 0.0
H1135 H 0.74659 0.15255 0.36903 0.0
H1136 H 0.71627 0.16393 0.25965 0.0
H1137 H 0.70701 0.08762 0.30669 0.0
H1138 H 0.78331 0.17941 0.27579 0.0
H1139 H 0.76618 0.19699 0.3042 0.0
H1140 H 0.75074 0.19754 0.26963 0.0
H1141 H 0.76954 0.08058 0.33162 0.0
H1142 H 0.73531 0.07862 0.34737 0.0
H1143 H 0.76066 0.1042 0.35948 0.0
C1144 C 0.86163 0.66168 0.29542 0.0
C1145 C 0.83664 0.65552 0.28103 0.0
C1146 C 0.86313 0.68462 0.31399 0.0
C1147 C 0.83908 0.70153 0.3181 0.0
C1148 C 0.81311 0.69335 0.30607 0.0
C1149 C 0.81217 0.67025 0.28791 0.0
C1150 C 0.89074 0.69161 0.32794 0.0
C1151 C 0.78687 0.71069 0.30993 0.0
C1152 C 0.82983 0.76138 0.36948 0.0
C1153 C 0.83349 0.78467 0.35176 0.0
C1154 C 0.83406 0.73396 0.35957 0.0
C1155 C 0.84147 0.72983 0.33114 0.0
C1156 C 0.84734 0.75338 0.31382 0.0
C1157 C 0.84349 0.78058 0.32445 0.0
C1158 C 0.82876 0.70947 0.37898 0.0
C1159 C 0.8557 0.74982 0.28343 0.0
H1160 H 0.88056 0.65012 0.29044 0.0
H1161 H 0.79272 0.66536 0.27708 0.0
H1162 H 0.89559 0.71432 0.32604 0.0
H1163 H 0.88925 0.68676 0.35068 0.0
H1164 H 0.90842 0.67939 0.31898 0.0
H1165 H 0.76791 0.70004 0.30139 0.0
H1166 H 0.78333 0.71523 0.33248 0.0
H1167 H 0.78943 0.73112 0.29896 0.0
H1168 H 0.82249 0.7645 0.3908 0.0
H1169 H 0.84646 0.79854 0.31075 0.0
H1170 H 0.84521 0.69324 0.37636 0.0
H1171 H 0.8083 0.6996 0.37368 0.0
H1172 H 0.82818 0.71607 0.40135 0.0
H1173 H 0.874 0.73557 0.28177 0.0
H1174 H 0.86108 0.77016 0.27333 0.0
H1175 H 0.83814 0.74007 0.27154 0.0
C1176 C 0.25924 0.91507 0.23727 0.0
C1177 C 0.27573 0.90696 0.2603 0.0
C1178 C 0.23031 0.90868 0.23643 0.0
C1179 C 0.21797 0.89347 0.2589 0.0
C1180 C 0.23437 0.8866 0.28273 0.0
C1181 C 0.26286 0.89361 0.28318 0.0
C1182 C 0.21342 0.91709 0.21099 0.0
C1183 C 0.2223 0.8703 0.30721 0.0
C1184 C 0.14246 0.87864 0.2777 0.0
C1185 C 0.14053 0.8503 0.26995 0.0
C1186 C 0.16649 0.89454 0.27099 0.0
C1187 C 0.18913 0.8815 0.25682 0.0
C1188 C 0.18582 0.85389 0.24631 0.0
C1189 C 0.16145 0.83873 0.25282 0.0
C1190 C 0.16873 0.92436 0.28141 0.0
C1191 C 0.20932 0.83908 0.2311 0.0
H1192 H 0.26902 0.92561 0.21961 0.0
H1193 H 0.27533 0.8876 0.30127 0.0
H1194 H 0.21216 0.89911 0.19623 0.0
H1195 H 0.19167 0.92294 0.21688 0.0
H1196 H 0.22332 0.93499 0.19974 0.0
H1197 H 0.23772 0.86745 0.3245 0.0
H1198 H 0.20367 0.88124 0.31578 0.0
H1199 H 0.21534 0.84923 0.3 0.0
H1200 H 0.12615 0.88786 0.29057 0.0
H1201 H 0.15987 0.81697 0.24629 0.0
H1202 H 0.17987 0.93778 0.26592 0.0
H1203 H 0.18098 0.92476 0.30125 0.0
H1204 H 0.14772 0.93347 0.28565 0.0
H1205 H 0.21845 0.85282 0.21466 0.0
H1206 H 0.20215 0.81922 0.22112 0.0
H1207 H 0.22629 0.834 0.24626 0.0
C1208 C 0.10952 0.65993 0.69317 0.0
C1209 C 0.1287 0.64184 0.70619 0.0
C1210 C 0.11876 0.68267 0.67687 0.0
C1211 C 0.14792 0.68772 0.67406 0.0
C1212 C 0.16737 0.66848 0.68579 0.0
C1213 C 0.15748 0.64555 0.70154 0.0
C1214 C 0.09732 0.70228 0.66425 0.0
C1215 C 0.19862 0.67329 0.68352 0.0
C1216 C 0.17553 0.73964 0.6201 0.0
C1217 C 0.17979 0.76376 0.63652 0.0
C1218 C 0.16451 0.71494 0.63185 0.0
C1219 C 0.15803 0.7142 0.66082 0.0
C1220 C 0.16172 0.73869 0.67739 0.0
C1221 C 0.17234 0.76329 0.66496 0.0
C1222 C 0.16043 0.68945 0.61341 0.0
C1223 C 0.15528 0.73864 0.70845 0.0
H1224 H 0.08723 0.65711 0.69693 0.0
H1225 H 0.17232 0.63188 0.71207 0.0
H1226 H 0.09775 0.72259 0.67567 0.0
H1227 H 0.1024 0.70674 0.64195 0.0
H1228 H 0.07569 0.69355 0.66541 0.0
H1229 H 0.21087 0.65506 0.69133 0.0
H1230 H 0.20465 0.67749 0.66141 0.0
H1231 H 0.20457 0.69205 0.69604 0.0
H1232 H 0.18121 0.73995 0.59805 0.0
H1233 H 0.17585 0.78181 0.67775 0.0
H1234 H 0.13856 0.68158 0.61521 0.0
H1235 H 0.1745 0.67233 0.6205 0.0
H1236 H 0.16491 0.69398 0.59096 0.0
H1237 H 0.13311 0.73243 0.71198 0.0
H1238 H 0.1589 0.7595 0.71828 0.0
H1239 H 0.16866 0.72294 0.71929 0.0
C1240 C 0.23682 0.10887 0.70063 0.0
C1241 C 0.26323 0.12126 0.69617 0.0
C1242 C 0.21204 0.12267 0.69284 0.0
C1243 C 0.21371 0.14954 0.68033 0.0
C1244 C 0.24037 0.16082 0.67317 0.0
C1245 C 0.26491 0.14652 0.6812 0.0
C1246 C 0.18417 0.10965 0.70057 0.0
C1247 C 0.24302 0.18919 0.6593 0.0
C1248 C 0.14949 0.18939 0.65393 0.0
C1249 C 0.14495 0.20793 0.67635 0.0
C1250 C 0.17116 0.16933 0.65518 0.0
C1251 C 0.18841 0.16786 0.67942 0.0
C1252 C 0.18253 0.18527 0.70278 0.0
C1253 C 0.16088 0.20501 0.70094 0.0
C1254 C 0.17622 0.15045 0.63027 0.0
C1255 C 0.20015 0.18426 0.72921 0.0
H1256 H 0.23541 0.08912 0.7119 0.0
H1257 H 0.28524 0.15615 0.67763 0.0
H1258 H 0.17593 0.12005 0.71971 0.0
H1259 H 0.16853 0.11271 0.68357 0.0
H1260 H 0.18612 0.08682 0.70495 0.0
H1261 H 0.26447 0.19288 0.65093 0.0
H1262 H 0.22766 0.19122 0.64188 0.0
H1263 H 0.23829 0.20586 0.67487 0.0
H1264 H 0.13734 0.19172 0.6348 0.0
H1265 H 0.15739 0.21928 0.71834 0.0
H1266 H 0.17086 0.1285 0.63597 0.0
H1267 H 0.19873 0.15075 0.6243 0.0
H1268 H 0.16338 0.15658 0.61177 0.0
H1269 H 0.20114 0.16248 0.73741 0.0
H1270 H 0.19182 0.1981 0.74602 0.0
H1271 H 0.22196 0.19096 0.72439 0.0
C1272 C 0.81304 0.21883 0.69169 0.0
C1273 C 0.82744 0.19334 0.68899 0.0
C1274 C 0.8225 0.23985 0.70996 0.0
C1275 C 0.84712 0.23541 0.72608 0.0
C1276 C 0.86128 0.20933 0.72426 0.0
C1277 C 0.85128 0.18856 0.70564 0.0
C1278 C 0.80663 0.26728 0.71119 0.0
C1279 C 0.88738 0.20371 0.74131 0.0
C1280 C 0.88029 0.30581 0.73961 0.0
C1281 C 0.86786 0.31323 0.76518 0.0
C1282 C 0.87625 0.2791 0.72801 0.0
C1283 C 0.85909 0.25942 0.74226 0.0
C1284 C 0.849 0.26583 0.76956 0.0
C1285 C 0.85352 0.29285 0.78079 0.0
C1286 C 0.88764 0.2732 0.69902 0.0
C1287 C 0.831 0.24529 0.78563 0.0
H1288 H 0.7944 0.22259 0.67915 0.0
H1289 H 0.86235 0.16879 0.70384 0.0
H1290 H 0.80101 0.27233 0.73321 0.0
H1291 H 0.82014 0.28457 0.70327 0.0
H1292 H 0.78707 0.26678 0.69846 0.0
H1293 H 0.89323 0.18114 0.74102 0.0
H1294 H 0.90513 0.21607 0.73266 0.0
H1295 H 0.88439 0.21042 0.76343 0.0
H1296 H 0.89148 0.32168 0.72764 0.0
H1297 H 0.84374 0.29871 0.80048 0.0
H1298 H 0.87013 0.27326 0.68361 0.0
H1299 H 0.89755 0.25218 0.69826 0.0
H1300 H 0.90331 0.28916 0.69238 0.0
H1301 H 0.80925 0.24593 0.77727 0.0
H1302 H 0.83028 0.25051 0.80837 0.0
H1303 H 0.83885 0.22352 0.78311 0.0
C1304 C 0.78107 0.78164 0.62756 0.0
C1305 C 0.7933 0.75994 0.6432 0.0
C1306 C 0.75448 0.79201 0.63451 0.0
C1307 C 0.74016 0.7806 0.65792 0.0
C1308 C 0.75052 0.75584 0.6708 0.0
C1309 C 0.77715 0.74571 0.66324 0.0
C1310 C 0.74388 0.81784 0.61956 0.0
C1311 C 0.73548 0.74251 0.69529 0.0
C1312 C 0.71402 0.83557 0.70861 0.0
C1313 C 0.68492 0.83504 0.70435 0.0
C1314 C 0.73188 0.81788 0.69365 0.0
C1315 C 0.72046 0.7989 0.67374 0.0
C1316 C 0.69105 0.79825 0.6691 0.0
C1317 C 0.67354 0.81655 0.68439 0.0
C1318 C 0.76311 0.81952 0.69938 0.0
C1319 C 0.67809 0.77845 0.64799 0.0
H1320 H 0.7934 0.79232 0.61163 0.0
H1321 H 0.78648 0.72873 0.6752 0.0
H1322 H 0.72075 0.81706 0.61704 0.0
H1323 H 0.7491 0.83671 0.63225 0.0
H1324 H 0.75369 0.82028 0.59854 0.0
H1325 H 0.74217 0.7204 0.69845 0.0
H1326 H 0.74043 0.75445 0.71471 0.0
H1327 H 0.7124 0.74305 0.6922 0.0
H1328 H 0.723 0.84987 0.72392 0.0
H1329 H 0.65102 0.81603 0.68112 0.0
H1330 H 0.77452 0.82503 0.67982 0.0
H1331 H 0.77097 0.79882 0.70659 0.0
H1332 H 0.76845 0.8354 0.71564 0.0
H1333 H 0.68148 0.78683 0.62652 0.0
H1334 H 0.65512 0.77603 0.6513 0.0
H1335 H 0.68805 0.75744 0.64901 0.0
C1336 C 0.31632 0.20129 0.35165 0.0
C1337 C 0.32662 0.18173 0.37095 0.0
C1338 C 0.32788 0.20347 0.32474 0.0
C1339 C 0.34971 0.185 0.31677 0.0
C1340 C 0.36093 0.16588 0.33663 0.0
C1341 C 0.34936 0.16466 0.36375 0.0
C1342 C 0.31573 0.2246 0.30442 0.0
C1343 C 0.38382 0.14551 0.32874 0.0
C1344 C 0.35168 0.173 0.23806 0.0
C1345 C 0.37266 0.19195 0.22991 0.0
C1346 C 0.34507 0.16927 0.26657 0.0
C1347 C 0.35962 0.18511 0.28722 0.0
C1348 C 0.38166 0.20329 0.27913 0.0
C1349 C 0.38798 0.20641 0.25058 0.0
C1350 C 0.3217 0.14932 0.27451 0.0
C1351 C 0.39757 0.22059 0.30049 0.0
H1352 H 0.29847 0.2142 0.35732 0.0
H1353 H 0.35673 0.14905 0.37861 0.0
H1354 H 0.33273 0.23753 0.29507 0.0
H1355 H 0.305 0.21346 0.28697 0.0
H1356 H 0.30037 0.23882 0.31465 0.0
H1357 H 0.39249 0.13444 0.34736 0.0
H1358 H 0.37521 0.12959 0.31402 0.0
H1359 H 0.40117 0.15652 0.31775 0.0
H1360 H 0.33996 0.16163 0.22216 0.0
H1361 H 0.40438 0.22099 0.24442 0.0
H1362 H 0.30356 0.16141 0.28261 0.0
H1363 H 0.32869 0.13503 0.29155 0.0
H1364 H 0.31451 0.13647 0.25639 0.0
H1365 H 0.38333 0.2365 0.30974 0.0
H1366 H 0.41585 0.23165 0.29109 0.0
H1367 H 0.40513 0.20711 0.31792 0.0
C1368 C 0.86747 0.29881 0.27823 0.0
C1369 C 0.86341 0.27019 0.28364 0.0
C1370 C 0.8562 0.31125 0.2538 0.0
C1371 C 0.84005 0.29473 0.23489 0.0
C1372 C 0.8351 0.26606 0.24101 0.0
C1373 C 0.84711 0.25412 0.26507 0.0
C1374 C 0.86216 0.3418 0.24783 0.0
C1375 C 0.81733 0.24782 0.22199 0.0
C1376 C 0.78799 0.32754 0.18425 0.0
C1377 C 0.80174 0.32463 0.15832 0.0
C1378 C 0.80063 0.31884 0.20941 0.0
C1379 C 0.82787 0.30714 0.2088 0.0
C1380 C 0.84228 0.30495 0.18282 0.0
C1381 C 0.82896 0.31357 0.15782 0.0
C1382 C 0.7843 0.32115 0.23649 0.0
C1383 C 0.87146 0.29281 0.18135 0.0
H1384 H 0.88033 0.31115 0.29244 0.0
H1385 H 0.84381 0.23198 0.26935 0.0
H1386 H 0.87385 0.34376 0.22777 0.0
H1387 H 0.84221 0.35348 0.24528 0.0
H1388 H 0.87467 0.35187 0.26479 0.0
H1389 H 0.81457 0.22622 0.2304 0.0
H1390 H 0.79629 0.25734 0.2191 0.0
H1391 H 0.8272 0.24639 0.20094 0.0
H1392 H 0.76693 0.33607 0.18488 0.0
H1393 H 0.83975 0.31144 0.13791 0.0
H1394 H 0.79693 0.33223 0.25266 0.0
H1395 H 0.77968 0.29982 0.24471 0.0
H1396 H 0.76414 0.33249 0.23369 0.0
H1397 H 0.8854 0.30339 0.19679 0.0
H1398 H 0.88081 0.29495 0.16009 0.0
H1399 H 0.87078 0.2702 0.18694 0.0
C1400 C 0.62785 0.83405 0.24041 0.0
C1401 C 0.64473 0.83952 0.21686 0.0
C1402 C 0.63802 0.83843 0.26774 0.0
C1403 C 0.66587 0.84801 0.27154 0.0
C1404 C 0.68228 0.85545 0.2478 0.0
C1405 C 0.67142 0.85126 0.22069 0.0
C1406 C 0.61956 0.831 0.29241 0.0
C1407 C 0.71204 0.86603 0.251 0.0
C1408 C 0.70039 0.87096 0.33958 0.0
C1409 C 0.71671 0.84722 0.34559 0.0
C1410 C 0.6816 0.87088 0.31676 0.0
C1411 C 0.67943 0.84664 0.29966 0.0
C1412 C 0.69361 0.82178 0.30758 0.0
C1413 C 0.71183 0.82231 0.33066 0.0
C1414 C 0.66529 0.89713 0.30997 0.0
C1415 C 0.6918 0.79537 0.29008 0.0
H1416 H 0.607 0.82531 0.23752 0.0
H1417 H 0.68445 0.85565 0.20255 0.0
H1418 H 0.62575 0.81016 0.30074 0.0
H1419 H 0.62208 0.84648 0.30963 0.0
H1420 H 0.59705 0.82998 0.28633 0.0
H1421 H 0.72119 0.87287 0.23066 0.0
H1422 H 0.71276 0.88393 0.2659 0.0
H1423 H 0.7254 0.84912 0.25983 0.0
H1424 H 0.70384 0.89019 0.35128 0.0
H1425 H 0.72414 0.80379 0.33545 0.0
H1426 H 0.64255 0.89299 0.31283 0.0
H1427 H 0.66837 0.90318 0.28768 0.0
H1428 H 0.67138 0.91507 0.32362 0.0
H1429 H 0.66959 0.78989 0.28567 0.0
H1430 H 0.70198 0.77718 0.30052 0.0
H1431 H 0.7023 0.79896 0.26958 0.0
C1432 C 0.1913 0.68107 0.16987 0.0
C1433 C 0.20423 0.65514 0.17449 0.0
C1434 C 0.1722 0.69186 0.18952 0.0
C1435 C 0.16591 0.67613 0.21403 0.0
C1436 C 0.17667 0.64868 0.21715 0.0
C1437 C 0.19583 0.63854 0.19735 0.0
C1438 C 0.16087 0.72113 0.18532 0.0
C1439 C 0.17009 0.63103 0.24268 0.0
C1440 C 0.15538 0.72156 0.27826 0.0
C1441 C 0.12607 0.72305 0.27969 0.0
C1442 C 0.16856 0.70526 0.25768 0.0
C1443 C 0.15198 0.69008 0.23814 0.0
C1444 C 0.12241 0.68988 0.24076 0.0
C1445 C 0.10976 0.7064 0.26159 0.0
C1446 C 0.20023 0.70569 0.25584 0.0
C1447 C 0.10407 0.67371 0.22052 0.0
H1448 H 0.19779 0.6939 0.1522 0.0
H1449 H 0.2056 0.61827 0.20074 0.0
H1450 H 0.13801 0.72171 0.18969 0.0
H1451 H 0.17129 0.73568 0.20031 0.0
H1452 H 0.16458 0.72897 0.16366 0.0
H1453 H 0.17574 0.60864 0.23945 0.0
H1454 H 0.18217 0.6391 0.26093 0.0
H1455 H 0.14748 0.63231 0.24807 0.0
H1456 H 0.16805 0.73433 0.29226 0.0
H1457 H 0.08705 0.70752 0.26259 0.0
H1458 H 0.20678 0.71606 0.23601 0.0
H1459 H 0.20853 0.68396 0.25546 0.0
H1460 H 0.21004 0.7171 0.27371 0.0
H1461 H 0.10398 0.68452 0.19987 0.0
H1462 H 0.08206 0.67207 0.22806 0.0
H1463 H 0.11241 0.65225 0.21711 0.0
C1464 C 0.37092 0.76957 0.74974 0.0
C1465 C 0.35215 0.77897 0.77033 0.0
C1466 C 0.36545 0.77413 0.72099 0.0
C1467 C 0.34018 0.78746 0.71277 0.0
C1468 C 0.32128 0.79707 0.73362 0.0
C1469 C 0.32772 0.79306 0.76208 0.0
C1470 C 0.38662 0.76466 0.69945 0.0
C1471 C 0.29381 0.81092 0.7259 0.0
C1472 C 0.32113 0.82093 0.64316 0.0
C1473 C 0.3027 0.80067 0.63217 0.0
C1474 C 0.3361 0.81583 0.66814 0.0
C1475 C 0.33218 0.79006 0.68255 0.0
C1476 C 0.3161 0.76848 0.66981 0.0
C1477 C 0.30191 0.77393 0.64456 0.0
C1478 C 0.35374 0.83913 0.68048 0.0
C1479 C 0.31097 0.74081 0.68447 0.0
H1480 H 0.39002 0.759 0.75611 0.0
H1481 H 0.31312 0.80028 0.77797 0.0
H1482 H 0.37757 0.74756 0.68645 0.0
H1483 H 0.39182 0.78227 0.68507 0.0
H1484 H 0.40629 0.75695 0.70931 0.0
H1485 H 0.28146 0.81715 0.74467 0.0
H1486 H 0.29775 0.82992 0.71302 0.0
H1487 H 0.2809 0.79633 0.71305 0.0
H1488 H 0.32201 0.84163 0.63369 0.0
H1489 H 0.28789 0.75806 0.6361 0.0
H1490 H 0.37258 0.83065 0.69125 0.0
H1491 H 0.34119 0.85077 0.69624 0.0
H1492 H 0.36056 0.85428 0.66407 0.0
H1493 H 0.33078 0.73217 0.69308 0.0
H1494 H 0.30142 0.72496 0.67021 0.0
H1495 H 0.29648 0.74417 0.7024 0.0
C1496 C 0.11835 0.29165 0.86489 0.0
C1497 C 0.12186 0.31487 0.88253 0.0
C1498 C 0.10851 0.29501 0.8374 0.0
C1499 C 0.10184 0.3223 0.82757 0.0
C1500 C 0.10128 0.34505 0.84672 0.0
C1501 C 0.11133 0.34104 0.87421 0.0
C1502 C 0.10898 0.26996 0.81793 0.0
C1503 C 0.09335 0.37429 0.83755 0.0
C1504 C 0.12761 0.32838 0.75298 0.0
C1505 C 0.1038 0.31948 0.73825 0.0
C1506 C 0.12659 0.33207 0.78221 0.0
C1507 C 0.10101 0.32718 0.79674 0.0
C1508 C 0.07622 0.32163 0.78136 0.0
C1509 C 0.07799 0.31738 0.75227 0.0
C1510 C 0.15347 0.33856 0.7978 0.0
C1511 C 0.04828 0.3179 0.79579 0.0
H1512 H 0.12645 0.27141 0.87147 0.0
H1513 H 0.11408 0.35907 0.88784 0.0
H1514 H 0.08924 0.26868 0.80563 0.0
H1515 H 0.12656 0.27229 0.80281 0.0
H1516 H 0.11179 0.2499 0.8295 0.0
H1517 H 0.08416 0.38629 0.85529 0.0
H1518 H 0.11251 0.38561 0.83061 0.0
H1519 H 0.07818 0.37399 0.81985 0.0
H1520 H 0.14748 0.33025 0.74206 0.0
H1521 H 0.05936 0.31113 0.74068 0.0
H1522 H 0.15987 0.31997 0.81033 0.0
H1523 H 0.15025 0.35622 0.81262 0.0
H1524 H 0.17091 0.34414 0.78334 0.0
H1525 H 0.0467 0.29624 0.80423 0.0
H1526 H 0.03054 0.32119 0.78097 0.0
H1527 H 0.04613 0.33269 0.81367 0.0
C1528 C 0.70393 0.17838 0.65222 0.0
C1529 C 0.71128 0.1514 0.64323 0.0
C1530 C 0.68365 0.18215 0.6731 0.0
C1531 C 0.67014 0.15834 0.68485 0.0
C1532 C 0.67476 0.13145 0.67313 0.0
C1533 C 0.69539 0.12827 0.65236 0.0
C1534 C 0.67914 0.2113 0.68477 0.0
C1535 C 0.66023 0.10562 0.68442 0.0
C1536 C 0.65833 0.17048 0.76218 0.0
C1537 C 0.63147 0.18226 0.76181 0.0
C1538 C 0.67044 0.16025 0.73739 0.0
C1539 C 0.65503 0.16152 0.7119 0.0
C1540 C 0.62676 0.17041 0.71218 0.0
C1541 C 0.61538 0.18103 0.73714 0.0
C1542 C 0.70062 0.1506 0.73802 0.0
C1543 C 0.60927 0.17085 0.68573 0.0
H1544 H 0.71598 0.19633 0.64497 0.0
H1545 H 0.70085 0.10731 0.64538 0.0
H1546 H 0.65642 0.21596 0.68645 0.0
H1547 H 0.68821 0.21258 0.70623 0.0
H1548 H 0.68916 0.22776 0.67158 0.0
H1549 H 0.65935 0.0887 0.66836 0.0
H1550 H 0.67216 0.0975 0.70273 0.0
H1551 H 0.63858 0.11038 0.6915 0.0
H1552 H 0.67072 0.17129 0.78129 0.0
H1553 H 0.59435 0.18971 0.73697 0.0
H1554 H 0.71399 0.16621 0.72697 0.0
H1555 H 0.70287 0.13028 0.72689 0.0
H1556 H 0.70864 0.14813 0.7598 0.0
H1557 H 0.61521 0.18934 0.67284 0.0
H1558 H 0.58649 0.17225 0.69049 0.0
H1559 H 0.61308 0.15178 0.6729 0.0
C1560 C 0.86339 0.78717 0.75124 0.0
C1561 C 0.88773 0.7822 0.73556 0.0
C1562 C 0.8613 0.77812 0.77917 0.0
C1563 C 0.88423 0.76395 0.79173 0.0
C1564 C 0.91018 0.76258 0.77728 0.0
C1565 C 0.91164 0.7717 0.7492 0.0
C1566 C 0.83328 0.78041 0.7938 0.0
C1567 C 0.93545 0.74859 0.79024 0.0
C1568 C 0.86736 0.73942 0.86592 0.0
C1569 C 0.85527 0.71314 0.86024 0.0
C1570 C 0.87925 0.7556 0.84414 0.0
C1571 C 0.87868 0.74524 0.81622 0.0
C1572 C 0.8687 0.71767 0.81101 0.0
C1573 C 0.85721 0.70201 0.83307 0.0
C1574 C 0.89057 0.78445 0.85077 0.0
C1575 C 0.86799 0.70544 0.78169 0.0
H1576 H 0.84498 0.79562 0.74084 0.0
H1577 H 0.93061 0.76795 0.73723 0.0
H1578 H 0.82302 0.75945 0.79424 0.0
H1579 H 0.83607 0.78739 0.81584 0.0
H1580 H 0.81899 0.79531 0.78296 0.0
H1581 H 0.95521 0.7556 0.78001 0.0
H1582 H 0.93674 0.75304 0.81309 0.0
H1583 H 0.93367 0.72551 0.78755 0.0
H1584 H 0.86606 0.74806 0.88694 0.0
H1585 H 0.8483 0.68149 0.82867 0.0
H1586 H 0.87403 0.80029 0.84672 0.0
H1587 H 0.90887 0.78968 0.83733 0.0
H1588 H 0.8969 0.78616 0.87318 0.0
H1589 H 0.85324 0.71766 0.76841 0.0
H1590 H 0.86119 0.6831 0.78154 0.0
H1591 H 0.88903 0.70681 0.77184 0.0
C1592 C 0.25887 0.36913 0.18939 0.0
C1593 C 0.23958 0.34716 0.19314 0.0
C1594 C 0.28565 0.36412 0.17826 0.0
C1595 C 0.29361 0.33624 0.17192 0.0
C1596 C 0.27366 0.31416 0.17463 0.0
C1597 C 0.24663 0.32001 0.18474 0.0
C1598 C 0.3057 0.38849 0.17506 0.0
C1599 C 0.28155 0.28402 0.16889 0.0
C1600 C 0.35532 0.308 0.13168 0.0
C1601 C 0.37115 0.29676 0.15386 0.0
C1602 C 0.33154 0.32451 0.13718 0.0
C1603 C 0.32329 0.32915 0.16532 0.0
C1604 C 0.34162 0.32154 0.18744 0.0
C1605 C 0.36567 0.30581 0.18137 0.0
C1606 C 0.31354 0.33423 0.11305 0.0
C1607 C 0.33405 0.32675 0.21778 0.0
H1608 H 0.25328 0.3902 0.19592 0.0
H1609 H 0.23177 0.30304 0.18805 0.0
H1610 H 0.31769 0.39124 0.19486 0.0
H1611 H 0.3209 0.38501 0.15777 0.0
H1612 H 0.29416 0.40833 0.17098 0.0
H1613 H 0.2633 0.26955 0.17057 0.0
H1614 H 0.29076 0.2821 0.14761 0.0
H1615 H 0.29778 0.27718 0.18417 0.0
H1616 H 0.35968 0.30158 0.11028 0.0
H1617 H 0.37822 0.29774 0.19858 0.0
H1618 H 0.3049 0.35544 0.11721 0.0
H1619 H 0.29555 0.31961 0.11051 0.0
H1620 H 0.32561 0.33482 0.09311 0.0
H1621 H 0.32694 0.34869 0.22076 0.0
H1622 H 0.352 0.32273 0.23215 0.0
H1623 H 0.31645 0.31269 0.22385 0.0
C1624 C 0.2828 0.70244 0.85276 0.0
C1625 C 0.28529 0.73176 0.85291 0.0
C1626 C 0.25676 0.68937 0.84857 0.0
C1627 C 0.2326 0.70605 0.8441 0.0
C1628 C 0.2347 0.73569 0.84574 0.0
C1629 C 0.2611 0.74825 0.85027 0.0
C1630 C 0.25547 0.65769 0.84725 0.0
C1631 C 0.20945 0.75415 0.841 0.0
C1632 C 0.18181 0.66924 0.79559 0.0
C1633 C 0.16261 0.65748 0.81453 0.0
C1634 C 0.2035 0.68678 0.80485 0.0
C1635 C 0.20641 0.69232 0.83392 0.0
C1636 C 0.18615 0.68174 0.85304 0.0
C1637 C 0.1642 0.66453 0.84303 0.0
C1638 C 0.22428 0.69795 0.7836 0.0
C1639 C 0.18862 0.68716 0.88416 0.0
H1640 H 0.3014 0.68959 0.85521 0.0
H1641 H 0.26296 0.77094 0.85047 0.0
H1642 H 0.23808 0.64964 0.8605 0.0
H1643 H 0.25123 0.65098 0.82532 0.0
H1644 H 0.27537 0.64781 0.85429 0.0
H1645 H 0.21358 0.77628 0.84717 0.0
H1646 H 0.20367 0.75374 0.81842 0.0
H1647 H 0.19112 0.74621 0.85301 0.0
H1648 H 0.18027 0.66413 0.77343 0.0
H1649 H 0.14929 0.65543 0.85763 0.0
H1650 H 0.24481 0.68737 0.78653 0.0
H1651 H 0.22772 0.72079 0.78671 0.0
H1652 H 0.2172 0.6944 0.76163 0.0
H1653 H 0.20637 0.6748 0.89279 0.0
H1654 H 0.16921 0.68113 0.89561 0.0
H1655 H 0.19321 0.70964 0.88826 0.0
C1656 C 0.26773 0.26667 0.8771 0.0
C1657 C 0.2409 0.26273 0.88846 0.0
C1658 C 0.28113 0.24481 0.86251 0.0
C1659 C 0.26707 0.21878 0.85885 0.0
C1660 C 0.24029 0.21458 0.8709 0.0
C1661 C 0.22767 0.23651 0.88571 0.0
C1662 C 0.30995 0.2498 0.85032 0.0
C1663 C 0.22432 0.18738 0.86702 0.0
C1664 C 0.28241 0.17615 0.79369 0.0
C1665 C 0.29793 0.15372 0.80463 0.0
C1666 C 0.27247 0.19753 0.81114 0.0
C1667 C 0.27885 0.19683 0.84017 0.0
C1668 C 0.29482 0.17435 0.85133 0.0
C1669 C 0.30389 0.15274 0.8334 0.0
C1670 C 0.25475 0.22062 0.79852 0.0
C1671 C 0.30236 0.17323 0.88212 0.0
H1672 H 0.27809 0.28684 0.8794 0.0
H1673 H 0.2069 0.23329 0.89446 0.0
H1674 H 0.32423 0.23235 0.8561 0.0
H1675 H 0.3086 0.2503 0.82706 0.0
H1676 H 0.31929 0.26991 0.85765 0.0
H1677 H 0.20437 0.18696 0.87908 0.0
H1678 H 0.21934 0.18437 0.84444 0.0
H1679 H 0.23735 0.16931 0.87373 0.0
H1680 H 0.27771 0.17679 0.77139 0.0
H1681 H 0.31622 0.13553 0.84171 0.0
H1682 H 0.26475 0.24133 0.80233 0.0
H1683 H 0.23384 0.22098 0.80874 0.0
H1684 H 0.25167 0.21795 0.77552 0.0
H1685 H 0.31318 0.19292 0.8884 0.0
H1686 H 0.31617 0.15515 0.88718 0.0
H1687 H 0.28301 0.17156 0.89496 0.0
C1688 C 0.67165 0.29993 0.77157 0.0
C1689 C 0.64875 0.30598 0.78903 0.0
C1690 C 0.6931 0.31957 0.76716 0.0
C1691 C 0.69135 0.3463 0.78002 0.0
C1692 C 0.66665 0.35372 0.79487 0.0
C1693 C 0.64564 0.33331 0.79949 0.0
C1694 C 0.719 0.31048 0.7513 0.0
C1695 C 0.66341 0.38242 0.80782 0.0
C1696 C 0.76291 0.36987 0.80487 0.0
C1697 C 0.77257 0.38568 0.78194 0.0
C1698 C 0.73578 0.35852 0.80527 0.0
C1699 C 0.71742 0.36356 0.78241 0.0
C1700 C 0.72617 0.38151 0.76028 0.0
C1701 C 0.75385 0.3921 0.7601 0.0
C1702 C 0.72763 0.3393 0.82923 0.0
C1703 C 0.70691 0.38829 0.73606 0.0
H1704 H 0.67393 0.27897 0.76298 0.0
H1705 H 0.62788 0.3382 0.81281 0.0
H1706 H 0.72501 0.32648 0.73549 0.0
H1707 H 0.73683 0.30829 0.76619 0.0
H1708 H 0.71594 0.29007 0.7404 0.0
H1709 H 0.64102 0.38733 0.81201 0.0
H1710 H 0.67492 0.38315 0.82808 0.0
H1711 H 0.67236 0.39891 0.79396 0.0
H1712 H 0.77711 0.36501 0.822 0.0
H1713 H 0.76105 0.40457 0.74246 0.0
H1714 H 0.72472 0.31759 0.82122 0.0
H1715 H 0.70743 0.34603 0.83855 0.0
H1716 H 0.74374 0.33884 0.84613 0.0
H1717 H 0.70726 0.3708 0.72069 0.0
H1718 H 0.71362 0.40775 0.72503 0.0
H1719 H 0.68494 0.39087 0.74333 0.0
C1720 C 0.72675 0.71679 0.85012 0.0
C1721 C 0.72608 0.70851 0.87834 0.0
C1722 C 0.70932 0.73825 0.84026 0.0
C1723 C 0.69075 0.75171 0.85913 0.0
C1724 C 0.68833 0.74188 0.8871 0.0
C1725 C 0.70608 0.72028 0.89641 0.0
C1726 C 0.71232 0.74786 0.81015 0.0
C1727 C 0.66854 0.75547 0.90773 0.0
C1728 C 0.67914 0.82716 0.83752 0.0
C1729 C 0.65498 0.82454 0.82097 0.0
C1730 C 0.68997 0.80387 0.85194 0.0
C1731 C 0.67606 0.77758 0.8499 0.0
C1732 C 0.65026 0.77556 0.83535 0.0
C1733 C 0.64009 0.79907 0.82088 0.0
C1734 C 0.71752 0.80686 0.86739 0.0
C1735 C 0.6345 0.7481 0.83319 0.0
H1736 H 0.74212 0.70761 0.83609 0.0
H1737 H 0.7056 0.71401 0.91831 0.0
H1738 H 0.69148 0.74873 0.79977 0.0
H1739 H 0.72133 0.76938 0.80968 0.0
H1740 H 0.72616 0.73383 0.79773 0.0
H1741 H 0.66541 0.74231 0.92676 0.0
H1742 H 0.67732 0.77601 0.91443 0.0
H1743 H 0.64783 0.75953 0.89787 0.0
H1744 H 0.69062 0.84684 0.83768 0.0
H1745 H 0.62114 0.7971 0.80837 0.0
H1746 H 0.7342 0.79567 0.85563 0.0
H1747 H 0.71614 0.79717 0.88853 0.0
H1748 H 0.72393 0.82919 0.86978 0.0
H1749 H 0.64545 0.73409 0.81817 0.0
H1750 H 0.61263 0.75114 0.82568 0.0
H1751 H 0.63395 0.73724 0.85381 0.0
C1752 C 0.64867 0.70962 0.12684 0.0
C1753 C 0.64104 0.7245 0.15107 0.0
C1754 C 0.67135 0.69079 0.12739 0.0
C1755 C 0.68655 0.68704 0.1527 0.0
C1756 C 0.67664 0.6994 0.17783 0.0
C1757 C 0.65373 0.71769 0.17675 0.0
C1758 C 0.68006 0.67629 0.10062 0.0
C1759 C 0.69211 0.69594 0.20535 0.0
C1760 C 0.74614 0.63647 0.16653 0.0
C1761 C 0.76948 0.6543 0.16372 0.0
C1762 C 0.71893 0.64607 0.16064 0.0
C1763 C 0.71503 0.67433 0.1525 0.0
C1764 C 0.73872 0.69182 0.14775 0.0
C1765 C 0.76574 0.68147 0.15321 0.0
C1766 C 0.69433 0.62646 0.16467 0.0
C1767 C 0.73545 0.72208 0.13882 0.0
H1768 H 0.63859 0.71447 0.10699 0.0
H1769 H 0.64761 0.72884 0.19563 0.0
H1770 H 0.70306 0.67781 0.09746 0.0
H1771 H 0.67473 0.65365 0.10215 0.0
H1772 H 0.66927 0.6851 0.08189 0.0
H1773 H 0.6801 0.70454 0.22338 0.0
H1774 H 0.69656 0.67348 0.2095 0.0
H1775 H 0.71257 0.7071 0.20419 0.0
H1776 H 0.74904 0.61524 0.17423 0.0
H1777 H 0.78377 0.69523 0.15089 0.0
H1778 H 0.67932 0.62843 0.14694 0.0
H1779 H 0.68295 0.63215 0.18416 0.0
H1780 H 0.70107 0.60421 0.16638 0.0
H1781 H 0.72163 0.72357 0.12011 0.0
H1782 H 0.75592 0.73213 0.13382 0.0
H1783 H 0.72534 0.73417 0.15597 0.0
C1784 C 0.35778 0.80634 0.26755 0.0
C1785 C 0.36724 0.82648 0.2483 0.0
C1786 C 0.35185 0.77871 0.25869 0.0
C1787 C 0.35565 0.77133 0.23006 0.0
C1788 C 0.36786 0.79098 0.21138 0.0
C1789 C 0.37337 0.81832 0.22071 0.0
C1790 C 0.33925 0.75826 0.27935 0.0
C1791 C 0.37261 0.78408 0.18078 0.0
C1792 C 0.34588 0.69814 0.19904 0.0
C1793 C 0.3189 0.70047 0.18746 0.0
C1794 C 0.3578 0.72049 0.21443 0.0
C1795 C 0.3423 0.74558 0.21823 0.0
C1796 C 0.31456 0.74736 0.20769 0.0
C1797 C 0.30328 0.72487 0.19245 0.0
C1798 C 0.38732 0.7177 0.22556 0.0
C1799 C 0.29713 0.7736 0.21132 0.0
H1800 H 0.35306 0.81263 0.28891 0.0
H1801 H 0.38109 0.83383 0.20589 0.0
H1802 H 0.31622 0.7571 0.27597 0.0
H1803 H 0.34785 0.73686 0.2762 0.0
H1804 H 0.34313 0.76482 0.30142 0.0
H1805 H 0.38587 0.80009 0.17015 0.0
H1806 H 0.38276 0.76328 0.17854 0.0
H1807 H 0.35207 0.78306 0.16978 0.0
H1808 H 0.35796 0.67923 0.19543 0.0
H1809 H 0.28223 0.72667 0.18394 0.0
H1810 H 0.38867 0.72555 0.24747 0.0
H1811 H 0.40174 0.73068 0.21264 0.0
H1812 H 0.39474 0.69561 0.225 0.0
H1813 H 0.29646 0.77981 0.23376 0.0
H1814 H 0.27524 0.7708 0.20371 0.0
H1815 H 0.30686 0.79118 0.19948 0.0
C1816 C 0.69208 0.29032 0.14041 0.0
C1817 C 0.69388 0.29524 0.11154 0.0
C1818 C 0.68213 0.26446 0.15056 0.0
C1819 C 0.67337 0.24351 0.13124 0.0
C1820 C 0.67227 0.24978 0.1022 0.0
C1821 C 0.68307 0.27547 0.09263 0.0
C1822 C 0.68395 0.25854 0.18167 0.0
C1823 C 0.6622 0.22844 0.08099 0.0
C1824 C 0.6898 0.16879 0.15343 0.0
C1825 C 0.66444 0.1606 0.16569 0.0
C1826 C 0.69273 0.19558 0.14144 0.0
C1827 C 0.66945 0.21412 0.14103 0.0
C1828 C 0.64323 0.20506 0.15164 0.0
C1829 C 0.64117 0.17854 0.16431 0.0
C1830 C 0.72117 0.20458 0.13063 0.0
C1831 C 0.61769 0.22372 0.15067 0.0
H1832 H 0.70117 0.30542 0.15488 0.0
H1833 H 0.68498 0.27925 0.07023 0.0
H1834 H 0.66418 0.24891 0.18936 0.0
H1835 H 0.7011 0.24331 0.18565 0.0
H1836 H 0.68825 0.27785 0.19406 0.0
H1837 H 0.65745 0.23832 0.06037 0.0
H1838 H 0.67874 0.21242 0.07773 0.0
H1839 H 0.64314 0.21743 0.08867 0.0
H1840 H 0.70779 0.15496 0.15476 0.0
H1841 H 0.62146 0.17202 0.17369 0.0
H1842 H 0.72895 0.22274 0.14305 0.0
H1843 H 0.71952 0.21152 0.10845 0.0
H1844 H 0.73692 0.18746 0.13191 0.0
H1845 H 0.62007 0.24094 0.16619 0.0
H1846 H 0.59811 0.21198 0.15559 0.0
H1847 H 0.61548 0.23352 0.12963 0.0
loop_
_geom_bond_atom_site_label_1
_geom_bond_atom_site_label_2
_geom_bond_distance
_geom_bond_site_symmetry_2
_ccdc_geom_bond_type
In0 O1 2.294 . S
In0 O2 2.326 . S
In0 O6 2.266 . S
In0 O7 2.326 . S
In0 O8 2.266 . S
In0 O9 2.326 . S
In0 O11 2.294 . S
In0 O12 2.326 . S
O1 In0 2.294 . S
O1 C10 1.240 . S
O2 In0 2.326 . S
O2 C10 1.252 . S
C3 O6 1.252 . S
C3 O7 1.260 . S
C4 O11 1.240 . S
C4 O12 1.252 . S
C5 O8 1.252 . S
C5 O9 1.260 . S
O6 In0 2.266 . S
O6 C3 1.252 . S
O7 In0 2.326 . S
O7 C3 1.260 . S
O8 In0 2.266 . S
O8 C5 1.252 . S
O9 In0 2.326 . S
O9 C5 1.260 . S
C10 O1 1.240 . S
C10 O2 1.252 . S
O11 In0 2.294 . S
O11 C4 1.240 . S
O12 In0 2.326 . S
O12 C4 1.252 . S
In13 O14 2.294 . S
In13 O15 2.326 . S
In13 O19 2.266 . S
In13 O20 2.326 . S
In13 O21 2.266 . S
In13 O22 2.326 . S
In13 O24 2.294 . S
In13 O25 2.326 . S
O14 In13 2.294 . S
O14 C23 1.240 . S
O15 In13 2.326 . S
O15 C23 1.252 . S
C16 O19 1.252 . S
C16 O20 1.260 . S
C17 O24 1.240 . S
C17 O25 1.252 . S
C18 O21 1.252 . S
C18 O22 1.260 . S
O19 In13 2.266 . S
O19 C16 1.252 . S
O20 In13 2.326 . S
O20 C16 1.260 . S
O21 In13 2.266 . S
O21 C18 1.252 . S
O22 In13 2.326 . S
O22 C18 1.260 . S
C23 O14 1.240 . S
C23 O15 1.252 . S
O24 In13 2.294 . S
O24 C17 1.240 . S
O25 In13 2.326 . S
O25 C17 1.252 . S
In26 O27 2.294 . S
In26 O28 2.326 . S
In26 O32 2.266 . S
In26 O33 2.326 . S
In26 O34 2.266 . S
In26 O35 2.326 . S
In26 O37 2.294 . S
In26 O38 2.326 . S
O27 In26 2.294 . S
O27 C36 1.240 . S
O28 In26 2.326 . S
O28 C36 1.252 . S
C29 O32 1.252 . S
C29 O33 1.260 . S
C30 O37 1.240 . S
C30 O38 1.252 . S
C31 O34 1.252 . S
C31 O35 1.260 . S
O32 In26 2.266 . S
O32 C29 1.252 . S
O33 In26 2.326 . S
O33 C29 1.260 . S
O34 In26 2.266 . S
O34 C31 1.252 . S
O35 In26 2.326 . S
O35 C31 1.260 . S
C36 O27 1.240 . S
C36 O28 1.252 . S
O37 In26 2.294 . S
O37 C30 1.240 . S
O38 In26 2.326 . S
O38 C30 1.252 . S
In39 O40 2.294 . S
In39 O41 2.326 . S
In39 O45 2.266 . S
In39 O46 2.326 . S
In39 O47 2.266 . S
In39 O48 2.326 . S
In39 O50 2.294 . S
In39 O51 2.326 . S
O40 In39 2.294 . S
O40 C49 1.240 . S
O41 In39 2.326 . S
O41 C49 1.252 . S
C42 O45 1.252 . S
C42 O46 1.260 . S
C43 O50 1.240 . S
C43 O51 1.252 . S
C44 O47 1.252 . S
C44 O48 1.260 . S
O45 In39 2.266 . S
O45 C42 1.252 . S
O46 In39 2.326 . S
O46 C42 1.260 . S
O47 In39 2.266 . S
O47 C44 1.252 . S
O48 In39 2.326 . S
O48 C44 1.260 . S
C49 O40 1.240 . S
C49 O41 1.252 . S
O50 In39 2.294 . S
O50 C43 1.240 . S
O51 In39 2.326 . S
O51 C43 1.252 . S
In52 O53 2.294 . S
In52 O54 2.326 . S
In52 O58 2.266 . S
In52 O59 2.326 . S
In52 O60 2.266 . S
In52 O61 2.326 . S
In52 O63 2.294 . S
In52 O64 2.326 . S
O53 In52 2.294 . S
O53 C62 1.240 . S
O54 In52 2.326 . S
O54 C62 1.252 . S
C55 O58 1.252 . S
C55 O59 1.260 . S
C56 O63 1.240 . S
C56 O64 1.252 . S
C57 O60 1.252 . S
C57 O61 1.260 . S
O58 In52 2.266 . S
O58 C55 1.252 . S
O59 In52 2.326 . S
O59 C55 1.260 . S
O60 In52 2.266 . S
O60 C57 1.252 . S
O61 In52 2.326 . S
O61 C57 1.260 . S
C62 O53 1.240 . S
C62 O54 1.252 . S
O63 In52 2.294 . S
O63 C56 1.240 . S
O64 In52 2.326 . S
O64 C56 1.252 . S
In65 O66 2.294 . S
In65 O67 2.326 . S
In65 O71 2.266 . S
In65 O72 2.326 . S
In65 O73 2.266 . S
In65 O74 2.326 . S
In65 O76 2.294 . S
In65 O77 2.326 . S
O66 In65 2.294 . S
O66 C75 1.240 . S
O67 In65 2.326 . S
O67 C75 1.252 . S
C68 O71 1.252 . S
C68 O72 1.260 . S
C69 O76 1.240 . S
C69 O77 1.252 . S
C70 O73 1.252 . S
C70 O74 1.260 . S
O71 In65 2.266 . S
O71 C68 1.252 . S
O72 In65 2.326 . S
O72 C68 1.260 . S
O73 In65 2.266 . S
O73 C70 1.252 . S
O74 In65 2.326 . S
O74 C70 1.260 . S
C75 O66 1.240 . S
C75 O67 1.252 . S
O76 In65 2.294 . S
O76 C69 1.240 . S
O77 In65 2.326 . S
O77 C69 1.252 . S
In78 O79 2.294 . S
In78 O80 2.326 . S
In78 O84 2.266 . S
In78 O85 2.326 . S
In78 O86 2.266 . S
In78 O87 2.326 . S
In78 O89 2.294 . S
In78 O90 2.326 . S
O79 In78 2.294 . S
O79 C88 1.240 . S
O80 In78 2.326 . S
O80 C88 1.252 . S
C81 O84 1.252 . S
C81 O85 1.260 . S
C82 O89 1.240 . S
C82 O90 1.252 . S
C83 O86 1.252 . S
C83 O87 1.260 . S
O84 In78 2.266 . S
O84 C81 1.252 . S
O85 In78 2.326 . S
O85 C81 1.260 . S
O86 In78 2.266 . S
O86 C83 1.252 . S
O87 In78 2.326 . S
O87 C83 1.260 . S
C88 O79 1.240 . S
C88 O80 1.252 . S
O89 In78 2.294 . S
O89 C82 1.240 . S
O90 In78 2.326 . S
O90 C82 1.252 . S
In91 O92 2.294 . S
In91 O93 2.326 . S
In91 O97 2.266 . S
In91 O98 2.326 . S
In91 O99 2.266 . S
In91 O100 2.326 . S
In91 O102 2.294 . S
In91 O103 2.326 . S
O92 In91 2.294 . S
O92 C101 1.240 . S
O93 In91 2.326 . S
O93 C101 1.252 . S
C94 O97 1.252 . S
C94 O98 1.260 . S
C95 O102 1.240 . S
C95 O103 1.252 . S
C96 O99 1.252 . S
C96 O100 1.260 . S
O97 In91 2.266 . S
O97 C94 1.252 . S
O98 In91 2.326 . S
O98 C94 1.260 . S
O99 In91 2.266 . S
O99 C96 1.252 . S
O100 In91 2.326 . S
O100 C96 1.260 . S
C101 O92 1.240 . S
C101 O93 1.252 . S
O102 In91 2.294 . S
O102 C95 1.240 . S
O103 In91 2.326 . S
O103 C95 1.252 . S
In104 O105 2.294 . S
In104 O106 2.326 . S
In104 O110 2.266 . S
In104 O111 2.326 . S
In104 O112 2.266 . S
In104 O113 2.326 . S
In104 O115 2.294 . S
In104 O116 2.326 . S
O105 In104 2.294 . S
O105 C114 1.240 . S
O106 In104 2.326 . S
O106 C114 1.252 . S
C107 O110 1.252 . S
C107 O111 1.260 . S
C108 O115 1.240 . S
C108 O116 1.252 . S
C109 O112 1.252 . S
C109 O113 1.260 . S
O110 In104 2.266 . S
O110 C107 1.252 . S
O111 In104 2.326 . S
O111 C107 1.260 . S
O112 In104 2.266 . S
O112 C109 1.252 . S
O113 In104 2.326 . S
O113 C109 1.260 . S
C114 O105 1.240 . S
C114 O106 1.252 . S
O115 In104 2.294 . S
O115 C108 1.240 . S
O116 In104 2.326 . S
O116 C108 1.252 . S
In117 O118 2.294 . S
In117 O119 2.326 . S
In117 O123 2.266 . S
In117 O124 2.326 . S
In117 O125 2.266 . S
In117 O126 2.326 . S
In117 O128 2.294 . S
In117 O129 2.326 . S
O118 In117 2.294 . S
O118 C127 1.240 . S
O119 In117 2.326 . S
O119 C127 1.252 . S
C120 O123 1.252 . S
C120 O124 1.260 . S
C121 O128 1.240 . S
C121 O129 1.252 . S
C122 O125 1.252 . S
C122 O126 1.260 . S
O123 In117 2.266 . S
O123 C120 1.252 . S
O124 In117 2.326 . S
O124 C120 1.260 . S
O125 In117 2.266 . S
O125 C122 1.252 . S
O126 In117 2.326 . S
O126 C122 1.260 . S
C127 O118 1.240 . S
C127 O119 1.252 . S
O128 In117 2.294 . S
O128 C121 1.240 . S
O129 In117 2.326 . S
O129 C121 1.252 . S
In130 O131 2.294 . S
In130 O132 2.326 . S
In130 O136 2.266 . S
In130 O137 2.326 . S
In130 O138 2.266 . S
In130 O139 2.326 . S
In130 O141 2.294 . S
In130 O142 2.326 . S
O131 In130 2.294 . S
O131 C140 1.240 . S
O132 In130 2.326 . S
O132 C140 1.252 . S
C133 O136 1.252 . S
C133 O137 1.260 . S
C134 O141 1.240 . S
C134 O142 1.252 . S
C135 O138 1.252 . S
C135 O139 1.260 . S
O136 In130 2.266 . S
O136 C133 1.252 . S
O137 In130 2.326 . S
O137 C133 1.260 . S
O138 In130 2.266 . S
O138 C135 1.252 . S
O139 In130 2.326 . S
O139 C135 1.260 . S
C140 O131 1.240 . S
C140 O132 1.252 . S
O141 In130 2.294 . S
O141 C134 1.240 . S
O142 In130 2.326 . S
O142 C134 1.252 . S
In143 O144 2.294 . S
In143 O145 2.326 . S
In143 O149 2.266 . S
In143 O150 2.326 . S
In143 O151 2.266 . S
In143 O152 2.326 . S
In143 O154 2.294 . S
In143 O155 2.326 . S
O144 In143 2.294 . S
O144 C153 1.240 . S
O145 In143 2.326 . S
O145 C153 1.252 . S
C146 O149 1.252 . S
C146 O150 1.260 . S
C147 O154 1.240 . S
C147 O155 1.252 . S
C148 O151 1.252 . S
C148 O152 1.260 . S
O149 In143 2.266 . S
O149 C146 1.252 . S
O150 In143 2.326 . S
O150 C146 1.260 . S
O151 In143 2.266 . S
O151 C148 1.252 . S
O152 In143 2.326 . S
O152 C148 1.260 . S
C153 O144 1.240 . S
C153 O145 1.252 . S
O154 In143 2.294 . S
O154 C147 1.240 . S
O155 In143 2.326 . S
O155 C147 1.252 . S
In156 O157 2.294 . S
In156 O158 2.326 . S
In156 O162 2.266 . S
In156 O163 2.326 . S
In156 O164 2.266 . S
In156 O165 2.326 . S
In156 O167 2.294 . S
In156 O168 2.326 . S
O157 In156 2.294 . S
O157 C166 1.240 . S
O158 In156 2.326 . S
O158 C166 1.252 . S
C159 O162 1.252 . S
C159 O163 1.260 . S
C160 O167 1.240 . S
C160 O168 1.252 . S
C161 O164 1.252 . S
C161 O165 1.260 . S
O162 In156 2.266 . S
O162 C159 1.252 . S
O163 In156 2.326 . S
O163 C159 1.260 . S
O164 In156 2.266 . S
O164 C161 1.252 . S
O165 In156 2.326 . S
O165 C161 1.260 . S
C166 O157 1.240 . S
C166 O158 1.252 . S
O167 In156 2.294 . S
O167 C160 1.240 . S
O168 In156 2.326 . S
O168 C160 1.252 . S
In169 O170 2.294 . S
In169 O171 2.326 . S
In169 O175 2.266 . S
In169 O176 2.326 . S
In169 O177 2.266 . S
In169 O178 2.326 . S
In169 O180 2.294 . S
In169 O181 2.326 . S
O170 In169 2.294 . S
O170 C179 1.240 . S
O171 In169 2.326 . S
O171 C179 1.252 . S
C172 O175 1.252 . S
C172 O176 1.260 . S
C173 O180 1.240 . S
C173 O181 1.252 . S
C174 O177 1.252 . S
C174 O178 1.260 . S
O175 In169 2.266 . S
O175 C172 1.252 . S
O176 In169 2.326 . S
O176 C172 1.260 . S
O177 In169 2.266 . S
O177 C174 1.252 . S
O178 In169 2.326 . S
O178 C174 1.260 . S
C179 O170 1.240 . S
C179 O171 1.252 . S
O180 In169 2.294 . S
O180 C173 1.240 . S
O181 In169 2.326 . S
O181 C173 1.252 . S
In182 O183 2.294 . S
In182 O184 2.326 . S
In182 O188 2.266 . S
In182 O189 2.326 . S
In182 O190 2.266 . S
In182 O191 2.326 . S
In182 O193 2.294 . S
In182 O194 2.326 . S
O183 In182 2.294 . S
O183 C192 1.240 . S
O184 In182 2.326 . S
O184 C192 1.252 . S
C185 O188 1.252 . S
C185 O189 1.260 . S
C186 O193 1.240 . S
C186 O194 1.252 . S
C187 O190 1.252 . S
C187 O191 1.260 . S
O188 In182 2.266 . S
O188 C185 1.252 . S
O189 In182 2.326 . S
O189 C185 1.260 . S
O190 In182 2.266 . S
O190 C187 1.252 . S
O191 In182 2.326 . S
O191 C187 1.260 . S
C192 O183 1.240 . S
C192 O184 1.252 . S
O193 In182 2.294 . S
O193 C186 1.240 . S
O194 In182 2.326 . S
O194 C186 1.252 . S
In195 O196 2.294 . S
In195 O197 2.326 . S
In195 O201 2.266 . S
In195 O202 2.326 . S
In195 O203 2.266 . S
In195 O204 2.326 . S
In195 O206 2.294 . S
In195 O207 2.326 . S
O196 In195 2.294 . S
O196 C205 1.240 . S
O197 In195 2.326 . S
O197 C205 1.252 . S
C198 O201 1.252 . S
C198 O202 1.260 . S
C199 O206 1.240 . S
C199 O207 1.252 . S
C200 O203 1.252 . S
C200 O204 1.260 . S
O201 In195 2.266 . S
O201 C198 1.252 . S
O202 In195 2.326 . S
O202 C198 1.260 . S
O203 In195 2.266 . S
O203 C200 1.252 . S
O204 In195 2.326 . S
O204 C200 1.260 . S
C205 O196 1.240 . S
C205 O197 1.252 . S
O206 In195 2.294 . S
O206 C199 1.240 . S
O207 In195 2.326 . S
O207 C199 1.252 . S
In208 O209 2.294 . S
In208 O210 2.326 . S
In208 O214 2.266 . S
In208 O215 2.326 . S
In208 O216 2.266 . S
In208 O217 2.326 . S
In208 O219 2.294 . S
In208 O220 2.326 . S
O209 In208 2.294 . S
O209 C218 1.240 . S
O210 In208 2.326 . S
O210 C218 1.252 . S
C211 O214 1.252 . S
C211 O215 1.260 . S
C212 O219 1.240 . S
C212 O220 1.252 . S
C213 O216 1.252 . S
C213 O217 1.260 . S
O214 In208 2.266 . S
O214 C211 1.252 . S
O215 In208 2.326 . S
O215 C211 1.260 . S
O216 In208 2.266 . S
O216 C213 1.252 . S
O217 In208 2.326 . S
O217 C213 1.260 . S
C218 O209 1.240 . S
C218 O210 1.252 . S
O219 In208 2.294 . S
O219 C212 1.240 . S
O220 In208 2.326 . S
O220 C212 1.252 . S
In221 O222 2.294 . S
In221 O223 2.326 . S
In221 O227 2.266 . S
In221 O228 2.326 . S
In221 O229 2.266 . S
In221 O230 2.326 . S
In221 O232 2.294 . S
In221 O233 2.326 . S
O222 In221 2.294 . S
O222 C231 1.240 . S
O223 In221 2.326 . S
O223 C231 1.252 . S
C224 O227 1.252 . S
C224 O228 1.260 . S
C225 O232 1.240 . S
C225 O233 1.252 . S
C226 O229 1.252 . S
C226 O230 1.260 . S
O227 In221 2.266 . S
O227 C224 1.252 . S
O228 In221 2.326 . S
O228 C224 1.260 . S
O229 In221 2.266 . S
O229 C226 1.252 . S
O230 In221 2.326 . S
O230 C226 1.260 . S
C231 O222 1.240 . S
C231 O223 1.252 . S
O232 In221 2.294 . S
O232 C225 1.240 . S
O233 In221 2.326 . S
O233 C225 1.252 . S
In234 O235 2.294 . S
In234 O236 2.326 . S
In234 O240 2.266 . S
In234 O241 2.326 . S
In234 O242 2.266 . S
In234 O243 2.326 . S
In234 O245 2.294 . S
In234 O246 2.326 . S
O235 In234 2.294 . S
O235 C244 1.240 . S
O236 In234 2.326 . S
O236 C244 1.252 . S
C237 O240 1.252 . S
C237 O241 1.260 . S
C238 O245 1.240 . S
C238 O246 1.252 . S
C239 O242 1.252 . S
C239 O243 1.260 . S
O240 In234 2.266 . S
O240 C237 1.252 . S
O241 In234 2.326 . S
O241 C237 1.260 . S
O242 In234 2.266 . S
O242 C239 1.252 . S
O243 In234 2.326 . S
O243 C239 1.260 . S
C244 O235 1.240 . S
C244 O236 1.252 . S
O245 In234 2.294 . S
O245 C238 1.240 . S
O246 In234 2.326 . S
O246 C238 1.252 . S
In247 O248 2.294 . S
In247 O249 2.326 . S
In247 O253 2.266 . S
In247 O254 2.326 . S
In247 O255 2.266 . S
In247 O256 2.326 . S
In247 O258 2.294 . S
In247 O259 2.326 . S
O248 In247 2.294 . S
O248 C257 1.240 . S
O249 In247 2.326 . S
O249 C257 1.252 . S
C250 O253 1.252 . S
C250 O254 1.260 . S
C251 O258 1.240 . S
C251 O259 1.252 . S
C252 O255 1.252 . S
C252 O256 1.260 . S
O253 In247 2.266 . S
O253 C250 1.252 . S
O254 In247 2.326 . S
O254 C250 1.260 . S
O255 In247 2.266 . S
O255 C252 1.252 . S
O256 In247 2.326 . S
O256 C252 1.260 . S
C257 O248 1.240 . S
C257 O249 1.252 . S
O258 In247 2.294 . S
O258 C251 1.240 . S
O259 In247 2.326 . S
O259 C251 1.252 . S
In260 O261 2.294 . S
In260 O262 2.326 . S
In260 O266 2.266 . S
In260 O267 2.326 . S
In260 O268 2.266 . S
In260 O269 2.326 . S
In260 O271 2.294 . S
In260 O272 2.326 . S
O261 In260 2.294 . S
O261 C270 1.240 . S
O262 In260 2.326 . S
O262 C270 1.252 . S
C263 O266 1.252 . S
C263 O267 1.260 . S
C264 O271 1.240 . S
C264 O272 1.252 . S
C265 O268 1.252 . S
C265 O269 1.260 . S
O266 In260 2.266 . S
O266 C263 1.252 . S
O267 In260 2.326 . S
O267 C263 1.260 . S
O268 In260 2.266 . S
O268 C265 1.252 . S
O269 In260 2.326 . S
O269 C265 1.260 . S
C270 O261 1.240 . S
C270 O262 1.252 . S
O271 In260 2.294 . S
O271 C264 1.240 . S
O272 In260 2.326 . S
O272 C264 1.252 . S
In273 O274 2.294 . S
In273 O275 2.326 . S
In273 O279 2.266 . S
In273 O280 2.326 . S
In273 O281 2.266 . S
In273 O282 2.326 . S
In273 O284 2.294 . S
In273 O285 2.326 . S
O274 In273 2.294 . S
O274 C283 1.240 . S
O275 In273 2.326 . S
O275 C283 1.252 . S
C276 O279 1.252 . S
C276 O280 1.260 . S
C277 O284 1.240 . S
C277 O285 1.252 . S
C278 O281 1.252 . S
C278 O282 1.260 . S
O279 In273 2.266 . S
O279 C276 1.252 . S
O280 In273 2.326 . S
O280 C276 1.260 . S
O281 In273 2.266 . S
O281 C278 1.252 . S
O282 In273 2.326 . S
O282 C278 1.260 . S
C283 O274 1.240 . S
C283 O275 1.252 . S
O284 In273 2.294 . S
O284 C277 1.240 . S
O285 In273 2.326 . S
O285 C277 1.252 . S
In286 O287 2.294 . S
In286 O288 2.326 . S
In286 O292 2.266 . S
In286 O293 2.326 . S
In286 O294 2.266 . S
In286 O295 2.326 . S
In286 O297 2.294 . S
In286 O298 2.326 . S
O287 In286 2.294 . S
O287 C296 1.240 . S
O288 In286 2.326 . S
O288 C296 1.252 . S
C289 O292 1.252 . S
C289 O293 1.260 . S
C290 O297 1.240 . S
C290 O298 1.252 . S
C291 O294 1.252 . S
C291 O295 1.260 . S
O292 In286 2.266 . S
O292 C289 1.252 . S
O293 In286 2.326 . S
O293 C289 1.260 . S
O294 In286 2.266 . S
O294 C291 1.252 . S
O295 In286 2.326 . S
O295 C291 1.260 . S
C296 O287 1.240 . S
C296 O288 1.252 . S
O297 In286 2.294 . S
O297 C290 1.240 . S
O298 In286 2.326 . S
O298 C290 1.252 . S
In299 O300 2.294 . S
In299 O301 2.326 . S
In299 O305 2.266 . S
In299 O306 2.326 . S
In299 O307 2.266 . S
In299 O308 2.326 . S
In299 O310 2.294 . S
In299 O311 2.326 . S
O300 In299 2.294 . S
O300 C309 1.240 . S
O301 In299 2.326 . S
O301 C309 1.252 . S
C302 O305 1.252 . S
C302 O306 1.260 . S
C303 O310 1.240 . S
C303 O311 1.252 . S
C304 O307 1.252 . S
C304 O308 1.260 . S
O305 In299 2.266 . S
O305 C302 1.252 . S
O306 In299 2.326 . S
O306 C302 1.260 . S
O307 In299 2.266 . S
O307 C304 1.252 . S
O308 In299 2.326 . S
O308 C304 1.260 . S
C309 O300 1.240 . S
C309 O301 1.252 . S
O310 In299 2.294 . S
O310 C303 1.240 . S
O311 In299 2.326 . S
O311 C303 1.252 . S
C312 C313 1.391 . S
C312 C314 1.394 . S
C312 H328 0.931 . S
C313 C312 1.391 . S
C313 C317 1.376 . S
C314 C312 1.394 . S
C314 C315 1.369 . S
C314 C318 1.531 . S
C315 C314 1.369 . S
C315 C316 1.410 . S
C315 C323 1.503 . S
C316 C315 1.410 . S
C316 C317 1.392 . S
C316 C319 1.511 . S
C317 C313 1.376 . S
C317 C316 1.392 . S
C317 H329 0.929 . S
C318 C314 1.531 . S
C318 H330 0.960 . S
C318 H331 0.962 . S
C318 H332 0.960 . S
C319 C316 1.511 . S
C319 H333 0.961 . S
C319 H334 0.961 . S
C319 H335 0.961 . S
C320 C321 1.370 . S
C320 C322 1.363 . S
C320 H336 0.931 . S
C321 C320 1.370 . S
C321 C325 1.408 . S
C322 C320 1.363 . S
C322 C323 1.370 . S
C322 C326 1.524 . S
C323 C315 1.503 . S
C323 C322 1.370 . S
C323 C324 1.403 . S
C324 C323 1.403 . S
C324 C325 1.404 . S
C324 C327 1.539 . S
C325 C321 1.408 . S
C325 C324 1.404 . S
C325 H337 0.930 . S
C326 C322 1.524 . S
C326 H338 0.956 . S
C326 H339 0.961 . S
C326 H340 0.961 . S
C327 C324 1.539 . S
C327 H341 0.958 . S
C327 H342 0.961 . S
C327 H343 0.960 . S
H328 C312 0.931 . S
H329 C317 0.929 . S
H330 C318 0.960 . S
H331 C318 0.962 . S
H332 C318 0.960 . S
H333 C319 0.961 . S
H334 C319 0.961 . S
H335 C319 0.961 . S
H336 C320 0.931 . S
H337 C325 0.930 . S
H338 C326 0.956 . S
H339 C326 0.961 . S
H340 C326 0.961 . S
H341 C327 0.958 . S
H342 C327 0.961 . S
H343 C327 0.960 . S
C344 C345 1.391 . S
C344 C346 1.394 . S
C344 H360 0.931 . S
C345 C344 1.391 . S
C345 C349 1.376 . S
C346 C344 1.394 . S
C346 C347 1.369 . S
C346 C350 1.531 . S
C347 C346 1.369 . S
C347 C348 1.410 . S
C347 C355 1.503 . S
C348 C347 1.410 . S
C348 C349 1.392 . S
C348 C351 1.511 . S
C349 C345 1.376 . S
C349 C348 1.392 . S
C349 H361 0.929 . S
C350 C346 1.531 . S
C350 H362 0.960 . S
C350 H363 0.962 . S
C350 H364 0.960 . S
C351 C348 1.511 . S
C351 H365 0.961 . S
C351 H366 0.961 . S
C351 H367 0.961 . S
C352 C353 1.370 . S
C352 C354 1.363 . S
C352 H368 0.931 . S
C353 C352 1.370 . S
C353 C357 1.408 . S
C354 C352 1.363 . S
C354 C355 1.370 . S
C354 C358 1.524 . S
C355 C347 1.503 . S
C355 C354 1.370 . S
C355 C356 1.403 . S
C356 C355 1.403 . S
C356 C357 1.404 . S
C356 C359 1.539 . S
C357 C353 1.408 . S
C357 C356 1.404 . S
C357 H369 0.930 . S
C358 C354 1.524 . S
C358 H370 0.956 . S
C358 H371 0.961 . S
C358 H372 0.961 . S
C359 C356 1.539 . S
C359 H373 0.958 . S
C359 H374 0.961 . S
C359 H375 0.960 . S
H360 C344 0.931 . S
H361 C349 0.929 . S
H362 C350 0.960 . S
H363 C350 0.962 . S
H364 C350 0.960 . S
H365 C351 0.961 . S
H366 C351 0.961 . S
H367 C351 0.961 . S
H368 C352 0.931 . S
H369 C357 0.930 . S
H370 C358 0.956 . S
H371 C358 0.961 . S
H372 C358 0.961 . S
H373 C359 0.958 . S
H374 C359 0.961 . S
H375 C359 0.960 . S
C376 C377 1.391 . S
C376 C378 1.394 . S
C376 H392 0.931 . S
C377 C376 1.391 . S
C377 C381 1.376 . S
C378 C376 1.394 . S
C378 C379 1.369 . S
C378 C382 1.531 . S
C379 C378 1.369 . S
C379 C380 1.410 . S
C379 C387 1.503 . S
C380 C379 1.410 . S
C380 C381 1.392 . S
C380 C383 1.511 . S
C381 C377 1.376 . S
C381 C380 1.392 . S
C381 H393 0.929 . S
C382 C378 1.531 . S
C382 H394 0.960 . S
C382 H395 0.962 . S
C382 H396 0.960 . S
C383 C380 1.511 . S
C383 H397 0.961 . S
C383 H398 0.961 . S
C383 H399 0.961 . S
C384 C385 1.370 . S
C384 C386 1.363 . S
C384 H400 0.931 . S
C385 C384 1.370 . S
C385 C389 1.408 . S
C386 C384 1.363 . S
C386 C387 1.370 . S
C386 C390 1.524 . S
C387 C379 1.503 . S
C387 C386 1.370 . S
C387 C388 1.403 . S
C388 C387 1.403 . S
C388 C389 1.404 . S
C388 C391 1.539 . S
C389 C385 1.408 . S
C389 C388 1.404 . S
C389 H401 0.930 . S
C390 C386 1.524 . S
C390 H402 0.956 . S
C390 H403 0.961 . S
C390 H404 0.961 . S
C391 C388 1.539 . S
C391 H405 0.958 . S
C391 H406 0.961 . S
C391 H407 0.960 . S
H392 C376 0.931 . S
H393 C381 0.929 . S
H394 C382 0.960 . S
H395 C382 0.962 . S
H396 C382 0.960 . S
H397 C383 0.961 . S
H398 C383 0.961 . S
H399 C383 0.961 . S
H400 C384 0.931 . S
H401 C389 0.930 . S
H402 C390 0.956 . S
H403 C390 0.961 . S
H404 C390 0.961 . S
H405 C391 0.958 . S
H406 C391 0.961 . S
H407 C391 0.960 . S
C408 C409 1.391 . S
C408 C410 1.394 . S
C408 H424 0.931 . S
C409 C408 1.391 . S
C409 C413 1.376 . S
C410 C408 1.394 . S
C410 C411 1.369 . S
C410 C414 1.531 . S
C411 C410 1.369 . S
C411 C412 1.410 . S
C411 C419 1.503 . S
C412 C411 1.410 . S
C412 C413 1.392 . S
C412 C415 1.511 . S
C413 C409 1.376 . S
C413 C412 1.392 . S
C413 H425 0.929 . S
C414 C410 1.531 . S
C414 H426 0.960 . S
C414 H427 0.962 . S
C414 H428 0.960 . S
C415 C412 1.511 . S
C415 H429 0.961 . S
C415 H430 0.961 . S
C415 H431 0.961 . S
C416 C417 1.370 . S
C416 C418 1.363 . S
C416 H432 0.931 . S
C417 C416 1.370 . S
C417 C421 1.408 . S
C418 C416 1.363 . S
C418 C419 1.370 . S
C418 C422 1.524 . S
C419 C411 1.503 . S
C419 C418 1.370 . S
C419 C420 1.403 . S
C420 C419 1.403 . S
C420 C421 1.404 . S
C420 C423 1.539 . S
C421 C417 1.408 . S
C421 C420 1.404 . S
C421 H433 0.930 . S
C422 C418 1.524 . S
C422 H434 0.956 . S
C422 H435 0.961 . S
C422 H436 0.961 . S
C423 C420 1.539 . S
C423 H437 0.958 . S
C423 H438 0.961 . S
C423 H439 0.960 . S
H424 C408 0.931 . S
H425 C413 0.929 . S
H426 C414 0.960 . S
H427 C414 0.962 . S
H428 C414 0.960 . S
H429 C415 0.961 . S
H430 C415 0.961 . S
H431 C415 0.961 . S
H432 C416 0.931 . S
H433 C421 0.930 . S
H434 C422 0.956 . S
H435 C422 0.961 . S
H436 C422 0.961 . S
H437 C423 0.958 . S
H438 C423 0.961 . S
H439 C423 0.960 . S
C440 C441 1.391 . S
C440 C442 1.394 . S
C440 H456 0.931 . S
C441 C440 1.391 . S
C441 C445 1.376 . S
C442 C440 1.394 . S
C442 C443 1.369 . S
C442 C446 1.531 . S
C443 C442 1.369 . S
C443 C444 1.410 . S
C443 C451 1.503 . S
C444 C443 1.410 . S
C444 C445 1.392 . S
C444 C447 1.511 . S
C445 C441 1.376 . S
C445 C444 1.392 . S
C445 H457 0.929 . S
C446 C442 1.531 . S
C446 H458 0.960 . S
C446 H459 0.962 . S
C446 H460 0.960 . S
C447 C444 1.511 . S
C447 H461 0.961 . S
C447 H462 0.961 . S
C447 H463 0.961 . S
C448 C449 1.370 . S
C448 C450 1.363 . S
C448 H464 0.931 . S
C449 C448 1.370 . S
C449 C453 1.408 . S
C450 C448 1.363 . S
C450 C451 1.370 . S
C450 C454 1.524 . S
C451 C443 1.503 . S
C451 C450 1.370 . S
C451 C452 1.403 . S
C452 C451 1.403 . S
C452 C453 1.404 . S
C452 C455 1.539 . S
C453 C449 1.408 . S
C453 C452 1.404 . S
C453 H465 0.930 . S
C454 C450 1.524 . S
C454 H466 0.956 . S
C454 H467 0.961 . S
C454 H468 0.961 . S
C455 C452 1.539 . S
C455 H469 0.958 . S
C455 H470 0.961 . S
C455 H471 0.960 . S
H456 C440 0.931 . S
H457 C445 0.929 . S
H458 C446 0.960 . S
H459 C446 0.962 . S
H460 C446 0.960 . S
H461 C447 0.961 . S
H462 C447 0.961 . S
H463 C447 0.961 . S
H464 C448 0.931 . S
H465 C453 0.930 . S
H466 C454 0.956 . S
H467 C454 0.961 . S
H468 C454 0.961 . S
H469 C455 0.958 . S
H470 C455 0.961 . S
H471 C455 0.960 . S
C472 C473 1.391 . S
C472 C474 1.394 . S
C472 H488 0.931 . S
C473 C472 1.391 . S
C473 C477 1.376 . S
C474 C472 1.394 . S
C474 C475 1.369 . S
C474 C478 1.531 . S
C475 C474 1.369 . S
C475 C476 1.410 . S
C475 C483 1.503 . S
C476 C475 1.410 . S
C476 C477 1.392 . S
C476 C479 1.511 . S
C477 C473 1.376 . S
C477 C476 1.392 . S
C477 H489 0.929 . S
C478 C474 1.531 . S
C478 H490 0.960 . S
C478 H491 0.962 . S
C478 H492 0.960 . S
C479 C476 1.511 . S
C479 H493 0.961 . S
C479 H494 0.961 . S
C479 H495 0.961 . S
C480 C481 1.370 . S
C480 C482 1.363 . S
C480 H496 0.931 . S
C481 C480 1.370 . S
C481 C485 1.408 . S
C482 C480 1.363 . S
C482 C483 1.370 . S
C482 C486 1.524 . S
C483 C475 1.503 . S
C483 C482 1.370 . S
C483 C484 1.403 . S
C484 C483 1.403 . S
C484 C485 1.404 . S
C484 C487 1.539 . S
C485 C481 1.408 . S
C485 C484 1.404 . S
C485 H497 0.930 . S
C486 C482 1.524 . S
C486 H498 0.956 . S
C486 H499 0.961 . S
C486 H500 0.961 . S
C487 C484 1.539 . S
C487 H501 0.958 . S
C487 H502 0.961 . S
C487 H503 0.960 . S
H488 C472 0.931 . S
H489 C477 0.929 . S
H490 C478 0.960 . S
H491 C478 0.962 . S
H492 C478 0.960 . S
H493 C479 0.961 . S
H494 C479 0.961 . S
H495 C479 0.961 . S
H496 C480 0.931 . S
H497 C485 0.930 . S
H498 C486 0.956 . S
H499 C486 0.961 . S
H500 C486 0.961 . S
H501 C487 0.958 . S
H502 C487 0.961 . S
H503 C487 0.960 . S
C504 C505 1.391 . S
C504 C506 1.394 . S
C504 H520 0.931 . S
C505 C504 1.391 . S
C505 C509 1.376 . S
C506 C504 1.394 . S
C506 C507 1.369 . S
C506 C510 1.531 . S
C507 C506 1.369 . S
C507 C508 1.410 . S
C507 C515 1.503 . S
C508 C507 1.410 . S
C508 C509 1.392 . S
C508 C511 1.511 . S
C509 C505 1.376 . S
C509 C508 1.392 . S
C509 H521 0.929 . S
C510 C506 1.531 . S
C510 H522 0.960 . S
C510 H523 0.962 . S
C510 H524 0.960 . S
C511 C508 1.511 . S
C511 H525 0.961 . S
C511 H526 0.961 . S
C511 H527 0.961 . S
C512 C513 1.370 . S
C512 C514 1.363 . S
C512 H528 0.931 . S
C513 C512 1.370 . S
C513 C517 1.408 . S
C514 C512 1.363 . S
C514 C515 1.370 . S
C514 C518 1.524 . S
C515 C507 1.503 . S
C515 C514 1.370 . S
C515 C516 1.403 . S
C516 C515 1.403 . S
C516 C517 1.404 . S
C516 C519 1.539 . S
C517 C513 1.408 . S
C517 C516 1.404 . S
C517 H529 0.930 . S
C518 C514 1.524 . S
C518 H530 0.956 . S
C518 H531 0.961 . S
C518 H532 0.961 . S
C519 C516 1.539 . S
C519 H533 0.958 . S
C519 H534 0.961 . S
C519 H535 0.960 . S
H520 C504 0.931 . S
H521 C509 0.929 . S
H522 C510 0.960 . S
H523 C510 0.962 . S
H524 C510 0.960 . S
H525 C511 0.961 . S
H526 C511 0.961 . S
H527 C511 0.961 . S
H528 C512 0.931 . S
H529 C517 0.930 . S
H530 C518 0.956 . S
H531 C518 0.961 . S
H532 C518 0.961 . S
H533 C519 0.958 . S
H534 C519 0.961 . S
H535 C519 0.960 . S
C536 C537 1.391 . S
C536 C538 1.394 . S
C536 H552 0.931 . S
C537 C536 1.391 . S
C537 C541 1.376 . S
C538 C536 1.394 . S
C538 C539 1.369 . S
C538 C542 1.531 . S
C539 C538 1.369 . S
C539 C540 1.410 . S
C539 C547 1.503 . S
C540 C539 1.410 . S
C540 C541 1.392 . S
C540 C543 1.511 . S
C541 C537 1.376 . S
C541 C540 1.392 . S
C541 H553 0.929 . S
C542 C538 1.531 . S
C542 H554 0.960 . S
C542 H555 0.962 . S
C542 H556 0.960 . S
C543 C540 1.511 . S
C543 H557 0.961 . S
C543 H558 0.961 . S
C543 H559 0.961 . S
C544 C545 1.370 . S
C544 C546 1.363 . S
C544 H560 0.931 . S
C545 C544 1.370 . S
C545 C549 1.408 . S
C546 C544 1.363 . S
C546 C547 1.370 . S
C546 C550 1.524 . S
C547 C539 1.503 . S
C547 C546 1.370 . S
C547 C548 1.403 . S
C548 C547 1.403 . S
C548 C549 1.404 . S
C548 C551 1.539 . S
C549 C545 1.408 . S
C549 C548 1.404 . S
C549 H561 0.930 . S
C550 C546 1.524 . S
C550 H562 0.956 . S
C550 H563 0.961 . S
C550 H564 0.961 . S
C551 C548 1.539 . S
C551 H565 0.958 . S
C551 H566 0.961 . S
C551 H567 0.960 . S
H552 C536 0.931 . S
H553 C541 0.929 . S
H554 C542 0.960 . S
H555 C542 0.962 . S
H556 C542 0.960 . S
H557 C543 0.961 . S
H558 C543 0.961 . S
H559 C543 0.961 . S
H560 C544 0.931 . S
H561 C549 0.930 . S
H562 C550 0.956 . S
H563 C550 0.961 . S
H564 C550 0.961 . S
H565 C551 0.958 . S
H566 C551 0.961 . S
H567 C551 0.960 . S
C568 C569 1.391 . S
C568 C570 1.394 . S
C568 H584 0.931 . S
C569 C568 1.391 . S
C569 C573 1.376 . S
C570 C568 1.394 . S
C570 C571 1.369 . S
C570 C574 1.531 . S
C571 C570 1.369 . S
C571 C572 1.410 . S
C571 C579 1.503 . S
C572 C571 1.410 . S
C572 C573 1.392 . S
C572 C575 1.511 . S
C573 C569 1.376 . S
C573 C572 1.392 . S
C573 H585 0.929 . S
C574 C570 1.531 . S
C574 H586 0.960 . S
C574 H587 0.962 . S
C574 H588 0.960 . S
C575 C572 1.511 . S
C575 H589 0.961 . S
C575 H590 0.961 . S
C575 H591 0.961 . S
C576 C577 1.370 . S
C576 C578 1.363 . S
C576 H592 0.931 . S
C577 C576 1.370 . S
C577 C581 1.408 . S
C578 C576 1.363 . S
C578 C579 1.370 . S
C578 C582 1.524 . S
C579 C571 1.503 . S
C579 C578 1.370 . S
C579 C580 1.403 . S
C580 C579 1.403 . S
C580 C581 1.404 . S
C580 C583 1.539 . S
C581 C577 1.408 . S
C581 C580 1.404 . S
C581 H593 0.930 . S
C582 C578 1.524 . S
C582 H594 0.956 . S
C582 H595 0.961 . S
C582 H596 0.961 . S
C583 C580 1.539 . S
C583 H597 0.958 . S
C583 H598 0.961 . S
C583 H599 0.960 . S
H584 C568 0.931 . S
H585 C573 0.929 . S
H586 C574 0.960 . S
H587 C574 0.962 . S
H588 C574 0.960 . S
H589 C575 0.961 . S
H590 C575 0.961 . S
H591 C575 0.961 . S
H592 C576 0.931 . S
H593 C581 0.930 . S
H594 C582 0.956 . S
H595 C582 0.961 . S
H596 C582 0.961 . S
H597 C583 0.958 . S
H598 C583 0.961 . S
H599 C583 0.960 . S
C600 C601 1.391 . S
C600 C602 1.394 . S
C600 H616 0.931 . S
C601 C600 1.391 . S
C601 C605 1.376 . S
C602 C600 1.394 . S
C602 C603 1.369 . S
C602 C606 1.531 . S
C603 C602 1.369 . S
C603 C604 1.410 . S
C603 C611 1.503 . S
C604 C603 1.410 . S
C604 C605 1.392 . S
C604 C607 1.511 . S
C605 C601 1.376 . S
C605 C604 1.392 . S
C605 H617 0.929 . S
C606 C602 1.531 . S
C606 H618 0.960 . S
C606 H619 0.962 . S
C606 H620 0.960 . S
C607 C604 1.511 . S
C607 H621 0.961 . S
C607 H622 0.961 . S
C607 H623 0.961 . S
C608 C609 1.370 . S
C608 C610 1.363 . S
C608 H624 0.931 . S
C609 C608 1.370 . S
C609 C613 1.408 . S
C610 C608 1.363 . S
C610 C611 1.370 . S
C610 C614 1.524 . S
C611 C603 1.503 . S
C611 C610 1.370 . S
C611 C612 1.403 . S
C612 C611 1.403 . S
C612 C613 1.404 . S
C612 C615 1.539 . S
C613 C609 1.408 . S
C613 C612 1.404 . S
C613 H625 0.930 . S
C614 C610 1.524 . S
C614 H626 0.956 . S
C614 H627 0.961 . S
C614 H628 0.961 . S
C615 C612 1.539 . S
C615 H629 0.958 . S
C615 H630 0.961 . S
C615 H631 0.960 . S
H616 C600 0.931 . S
H617 C605 0.929 . S
H618 C606 0.960 . S
H619 C606 0.962 . S
H620 C606 0.960 . S
H621 C607 0.961 . S
H622 C607 0.961 . S
H623 C607 0.961 . S
H624 C608 0.931 . S
H625 C613 0.930 . S
H626 C614 0.956 . S
H627 C614 0.961 . S
H628 C614 0.961 . S
H629 C615 0.958 . S
H630 C615 0.961 . S
H631 C615 0.960 . S
C632 C633 1.391 . S
C632 C634 1.394 . S
C632 H648 0.931 . S
C633 C632 1.391 . S
C633 C637 1.376 . S
C634 C632 1.394 . S
C634 C635 1.369 . S
C634 C638 1.531 . S
C635 C634 1.369 . S
C635 C636 1.410 . S
C635 C643 1.503 . S
C636 C635 1.410 . S
C636 C637 1.392 . S
C636 C639 1.511 . S
C637 C633 1.376 . S
C637 C636 1.392 . S
C637 H649 0.929 . S
C638 C634 1.531 . S
C638 H650 0.960 . S
C638 H651 0.962 . S
C638 H652 0.960 . S
C639 C636 1.511 . S
C639 H653 0.961 . S
C639 H654 0.961 . S
C639 H655 0.961 . S
C640 C641 1.370 . S
C640 C642 1.363 . S
C640 H656 0.931 . S
C641 C640 1.370 . S
C641 C645 1.408 . S
C642 C640 1.363 . S
C642 C643 1.370 . S
C642 C646 1.524 . S
C643 C635 1.503 . S
C643 C642 1.370 . S
C643 C644 1.403 . S
C644 C643 1.403 . S
C644 C645 1.404 . S
C644 C647 1.539 . S
C645 C641 1.408 . S
C645 C644 1.404 . S
C645 H657 0.930 . S
C646 C642 1.524 . S
C646 H658 0.956 . S
C646 H659 0.961 . S
C646 H660 0.961 . S
C647 C644 1.539 . S
C647 H661 0.958 . S
C647 H662 0.961 . S
C647 H663 0.960 . S
H648 C632 0.931 . S
H649 C637 0.929 . S
H650 C638 0.960 . S
H651 C638 0.962 . S
H652 C638 0.960 . S
H653 C639 0.961 . S
H654 C639 0.961 . S
H655 C639 0.961 . S
H656 C640 0.931 . S
H657 C645 0.930 . S
H658 C646 0.956 . S
H659 C646 0.961 . S
H660 C646 0.961 . S
H661 C647 0.958 . S
H662 C647 0.961 . S
H663 C647 0.960 . S
C664 C665 1.391 . S
C664 C666 1.394 . S
C664 H680 0.931 . S
C665 C664 1.391 . S
C665 C669 1.376 . S
C666 C664 1.394 . S
C666 C667 1.369 . S
C666 C670 1.531 . S
C667 C666 1.369 . S
C667 C668 1.410 . S
C667 C675 1.503 . S
C668 C667 1.410 . S
C668 C669 1.392 . S
C668 C671 1.511 . S
C669 C665 1.376 . S
C669 C668 1.392 . S
C669 H681 0.929 . S
C670 C666 1.531 . S
C670 H682 0.960 . S
C670 H683 0.962 . S
C670 H684 0.960 . S
C671 C668 1.511 . S
C671 H685 0.961 . S
C671 H686 0.961 . S
C671 H687 0.961 . S
C672 C673 1.370 . S
C672 C674 1.363 . S
C672 H688 0.931 . S
C673 C672 1.370 . S
C673 C677 1.408 . S
C674 C672 1.363 . S
C674 C675 1.370 . S
C674 C678 1.524 . S
C675 C667 1.503 . S
C675 C674 1.370 . S
C675 C676 1.403 . S
C676 C675 1.403 . S
C676 C677 1.404 . S
C676 C679 1.539 . S
C677 C673 1.408 . S
C677 C676 1.404 . S
C677 H689 0.930 . S
C678 C674 1.524 . S
C678 H690 0.956 . S
C678 H691 0.961 . S
C678 H692 0.961 . S
C679 C676 1.539 . S
C679 H693 0.958 . S
C679 H694 0.961 . S
C679 H695 0.960 . S
H680 C664 0.931 . S
H681 C669 0.929 . S
H682 C670 0.960 . S
H683 C670 0.962 . S
H684 C670 0.960 . S
H685 C671 0.961 . S
H686 C671 0.961 . S
H687 C671 0.961 . S
H688 C672 0.931 . S
H689 C677 0.930 . S
H690 C678 0.956 . S
H691 C678 0.961 . S
H692 C678 0.961 . S
H693 C679 0.958 . S
H694 C679 0.961 . S
H695 C679 0.960 . S
C696 C697 1.391 . S
C696 C698 1.394 . S
C696 H712 0.931 . S
C697 C696 1.391 . S
C697 C701 1.376 . S
C698 C696 1.394 . S
C698 C699 1.369 . S
C698 C702 1.531 . S
C699 C698 1.369 . S
C699 C700 1.410 . S
C699 C707 1.503 1_565 S
C700 C699 1.410 . S
C700 C701 1.392 . S
C700 C703 1.511 1_565 S
C701 C697 1.376 . S
C701 C700 1.392 . S
C701 H713 0.929 . S
C702 C698 1.531 . S
C702 H714 0.960 . S
C702 H715 0.962 . S
C702 H716 0.960 . S
C703 C700 1.511 1_545 S
C703 H717 0.961 . S
C703 H718 0.961 . S
C703 H719 0.961 . S
C704 C705 1.370 . S
C704 C706 1.363 . S
C704 H720 0.931 . S
C705 C704 1.370 . S
C705 C709 1.408 . S
C706 C704 1.363 . S
C706 C707 1.370 . S
C706 C710 1.524 . S
C707 C699 1.503 1_545 S
C707 C706 1.370 . S
C707 C708 1.403 . S
C708 C707 1.403 . S
C708 C709 1.404 . S
C708 C711 1.539 . S
C709 C705 1.408 . S
C709 C708 1.404 . S
C709 H721 0.930 . S
C710 C706 1.524 . S
C710 H722 0.991 . S
C710 H723 0.961 . S
C710 H724 0.961 . S
C711 C708 1.539 . S
C711 H725 0.958 1_545 S
C711 H726 0.961 . S
C711 H727 0.960 1_545 S
H712 C696 0.931 . S
H713 C701 0.929 . S
H714 C702 0.960 . S
H715 C702 0.962 . S
H716 C702 0.960 . S
H717 C703 0.961 . S
H718 C703 0.961 . S
H719 C703 0.961 . S
H720 C704 0.931 . S
H721 C709 0.930 . S
H722 C710 0.991 . S
H723 C710 0.961 . S
H724 C710 0.961 . S
H725 C711 0.958 1_565 S
H726 C711 0.961 . S
H727 C711 0.960 1_565 S
C728 C729 1.391 . S
C728 C730 1.394 . S
C728 H744 0.931 . S
C729 C728 1.391 . S
C729 C733 1.376 . S
C730 C728 1.394 . S
C730 C731 1.369 . S
C730 C734 1.531 . S
C731 C730 1.369 . S
C731 C732 1.410 . S
C731 C739 1.503 1_655 S
C732 C731 1.410 . S
C732 C733 1.392 . S
C732 C735 1.511 1_655 S
C733 C729 1.376 . S
C733 C732 1.392 . S
C733 H745 0.929 . S
C734 C730 1.531 . S
C734 H746 0.960 . S
C734 H747 0.962 . S
C734 H748 0.960 . S
C735 C732 1.511 1_455 S
C735 H749 0.961 . S
C735 H750 0.961 . S
C735 H751 0.961 . S
C736 C737 1.370 . S
C736 C738 1.363 . S
C736 H752 0.931 . S
C737 C736 1.370 . S
C737 C741 1.408 . S
C738 C736 1.363 . S
C738 C739 1.370 . S
C738 C742 1.524 1_455 S
C739 C731 1.503 1_455 S
C739 C738 1.370 . S
C739 C740 1.403 . S
C740 C739 1.403 . S
C740 C741 1.404 . S
C740 C743 1.539 . S
C741 C737 1.408 . S
C741 C740 1.404 . S
C741 H753 0.930 . S
C742 C738 1.524 1_655 S
C742 H754 0.956 . S
C742 H755 0.961 . S
C742 H756 0.961 1_655 S
C743 C740 1.539 . S
C743 H757 0.958 . S
C743 H758 0.961 . S
C743 H759 0.960 . S
H744 C728 0.931 . S
H745 C733 0.929 . S
H746 C734 0.960 . S
H747 C734 0.962 . S
H748 C734 0.960 . S
H749 C735 0.961 . S
H750 C735 0.961 . S
H751 C735 0.961 . S
H752 C736 0.931 . S
H753 C741 0.930 . S
H754 C742 0.956 . S
H755 C742 0.961 . S
H756 C742 0.961 1_455 S
H757 C743 0.958 . S
H758 C743 0.961 . S
H759 C743 0.960 . S
C760 C761 1.391 . S
C760 C762 1.394 . S
C760 H776 0.931 . S
C761 C760 1.391 . S
C761 C765 1.376 . S
C762 C760 1.394 . S
C762 C763 1.369 . S
C762 C766 1.531 . S
C763 C762 1.369 . S
C763 C764 1.410 . S
C763 C771 1.503 1_545 S
C764 C763 1.410 . S
C764 C765 1.392 . S
C764 C767 1.511 1_545 S
C765 C761 1.376 . S
C765 C764 1.392 . S
C765 H777 0.929 . S
C766 C762 1.531 . S
C766 H778 0.960 . S
C766 H779 0.962 . S
C766 H780 0.960 . S
C767 C764 1.511 1_565 S
C767 H781 0.961 . S
C767 H782 0.961 . S
C767 H783 0.961 . S
C768 C769 1.370 . S
C768 C770 1.363 . S
C768 H784 0.931 . S
C769 C768 1.370 . S
C769 C773 1.408 . S
C770 C768 1.363 . S
C770 C771 1.370 . S
C770 C774 1.524 . S
C771 C763 1.503 1_565 S
C771 C770 1.370 . S
C771 C772 1.403 . S
C772 C771 1.403 . S
C772 C773 1.404 . S
C772 C775 1.539 . S
C773 C769 1.408 . S
C773 C772 1.404 . S
C773 H785 0.930 . S
C774 C770 1.524 . S
C774 H786 0.956 1_565 S
C774 H787 0.961 . S
C774 H788 0.961 . S
C775 C772 1.539 . S
C775 H789 0.958 1_565 S
C775 H790 0.961 . S
C775 H791 0.960 1_565 S
H776 C760 0.931 . S
H777 C765 0.929 . S
H778 C766 0.960 . S
H779 C766 0.962 . S
H780 C766 0.960 . S
H781 C767 0.961 . S
H782 C767 0.961 . S
H783 C767 0.961 . S
H784 C768 0.931 . S
H785 C773 0.930 . S
H786 C774 0.956 1_545 S
H787 C774 0.961 . S
H788 C774 0.961 . S
H789 C775 0.958 1_545 S
H790 C775 0.961 . S
H791 C775 0.960 1_545 S
C792 C793 1.391 . S
C792 C794 1.394 . S
C792 H808 0.931 . S
C793 C792 1.391 . S
C793 C797 1.376 . S
C794 C792 1.394 . S
C794 C795 1.369 . S
C794 C798 1.531 1_455 S
C795 C794 1.369 . S
C795 C796 1.410 . S
C795 C803 1.503 1_455 S
C796 C795 1.410 . S
C796 C797 1.392 . S
C796 C799 1.511 . S
C797 C793 1.376 . S
C797 C796 1.392 . S
C797 H809 0.929 . S
C798 C794 1.531 1_655 S
C798 H810 0.960 . S
C798 H811 0.962 . S
C798 H812 0.960 . S
C799 C796 1.511 . S
C799 H813 0.961 . S
C799 H814 0.961 . S
C799 H815 0.961 . S
C800 C801 1.370 . S
C800 C802 1.363 . S
C800 H816 0.931 . S
C801 C800 1.370 . S
C801 C805 1.408 . S
C802 C800 1.363 . S
C802 C803 1.370 . S
C802 C806 1.524 . S
C803 C795 1.503 1_655 S
C803 C802 1.370 . S
C803 C804 1.403 . S
C804 C803 1.403 . S
C804 C805 1.404 . S
C804 C807 1.539 1_655 S
C805 C801 1.408 . S
C805 C804 1.404 . S
C805 H817 0.930 . S
C806 C802 1.524 . S
C806 H818 0.956 . S
C806 H819 0.961 . S
C806 H820 0.961 . S
C807 C804 1.539 1_455 S
C807 H821 0.958 . S
C807 H822 0.961 . S
C807 H823 0.960 . S
H808 C792 0.931 . S
H809 C797 0.929 . S
H810 C798 0.960 . S
H811 C798 0.962 . S
H812 C798 0.960 . S
H813 C799 0.961 . S
H814 C799 0.961 . S
H815 C799 0.961 . S
H816 C800 0.931 . S
H817 C805 0.930 . S
H818 C806 0.956 . S
H819 C806 0.961 . S
H820 C806 0.961 . S
H821 C807 0.958 . S
H822 C807 0.961 . S
H823 C807 0.960 . S
C824 C825 1.391 . S
C824 C826 1.394 . S
C824 H840 0.931 . S
C825 C824 1.391 . S
C825 C829 1.376 . S
C826 C824 1.394 . S
C826 C827 1.369 . S
C826 C830 1.531 1_565 S
C827 C826 1.369 . S
C827 C828 1.410 . S
C827 C835 1.503 1_565 S
C828 C827 1.410 . S
C828 C829 1.392 . S
C828 C831 1.511 . S
C829 C825 1.376 . S
C829 C828 1.392 . S
C829 H841 0.929 . S
C830 C826 1.531 1_545 S
C830 H842 0.960 . S
C830 H843 0.962 . S
C830 H844 0.960 . S
C831 C828 1.511 . S
C831 H845 0.961 . S
C831 H846 0.961 . S
C831 H847 0.961 . S
C832 C833 1.370 . S
C832 C834 1.363 . S
C832 H848 0.931 . S
C833 C832 1.370 . S
C833 C837 1.408 . S
C834 C832 1.363 . S
C834 C835 1.370 . S
C834 C838 1.524 . S
C835 C827 1.503 1_545 S
C835 C834 1.370 . S
C835 C836 1.403 . S
C836 C835 1.403 . S
C836 C837 1.404 . S
C836 C839 1.539 . S
C837 C833 1.408 . S
C837 C836 1.404 . S
C837 H849 0.930 . S
C838 C834 1.524 . S
C838 H850 0.956 . S
C838 H851 0.961 1_545 S
C838 H852 0.961 . S
C839 C836 1.539 . S
C839 H853 0.958 . S
C839 H854 0.961 . S
C839 H855 0.960 1_545 S
H840 C824 0.931 . S
H841 C829 0.929 . S
H842 C830 0.960 . S
H843 C830 0.962 . S
H844 C830 0.960 . S
H845 C831 0.961 . S
H846 C831 0.961 . S
H847 C831 0.961 . S
H848 C832 0.931 . S
H849 C837 0.930 . S
H850 C838 0.956 . S
H851 C838 0.961 1_565 S
H852 C838 0.961 . S
H853 C839 0.958 . S
H854 C839 0.961 . S
H855 C839 0.960 1_565 S
C856 C857 1.391 . S
C856 C858 1.394 . S
C856 H872 0.931 . S
C857 C856 1.391 . S
C857 C861 1.376 . S
C858 C856 1.394 . S
C858 C859 1.369 . S
C858 C862 1.531 1_655 S
C859 C858 1.369 . S
C859 C860 1.410 . S
C859 C867 1.503 1_655 S
C860 C859 1.410 . S
C860 C861 1.392 . S
C860 C863 1.511 . S
C861 C857 1.376 . S
C861 C860 1.392 . S
C861 H873 0.929 . S
C862 C858 1.531 1_455 S
C862 H874 0.960 . S
C862 H875 0.962 . S
C862 H876 0.960 . S
C863 C860 1.511 . S
C863 H877 0.961 . S
C863 H878 0.961 . S
C863 H879 0.961 . S
C864 C865 1.370 . S
C864 C866 1.363 . S
C864 H880 0.931 . S
C865 C864 1.370 . S
C865 C869 1.408 . S
C866 C864 1.363 . S
C866 C867 1.370 . S
C866 C870 1.524 1_455 S
C867 C859 1.503 1_455 S
C867 C866 1.370 . S
C867 C868 1.403 . S
C868 C867 1.403 . S
C868 C869 1.404 . S
C868 C871 1.539 . S
C869 C865 1.408 . S
C869 C868 1.404 . S
C869 H881 0.930 . S
C870 C866 1.524 1_655 S
C870 H882 0.956 . S
C870 H883 0.961 . S
C870 H884 0.961 . S
C871 C868 1.539 . S
C871 H885 0.958 . S
C871 H886 0.961 . S
C871 H887 0.960 . S
H872 C856 0.931 . S
H873 C861 0.929 . S
H874 C862 0.960 . S
H875 C862 0.962 . S
H876 C862 0.960 . S
H877 C863 0.961 . S
H878 C863 0.961 . S
H879 C863 0.961 . S
H880 C864 0.931 . S
H881 C869 0.930 . S
H882 C870 0.956 . S
H883 C870 0.961 . S
H884 C870 0.961 . S
H885 C871 0.958 . S
H886 C871 0.961 . S
H887 C871 0.960 . S
C888 C889 1.391 . S
C888 C890 1.394 . S
C888 H904 0.931 . S
C889 C888 1.391 . S
C889 C893 1.376 . S
C890 C888 1.394 . S
C890 C891 1.369 . S
C890 C894 1.531 1_565 S
C891 C890 1.369 . S
C891 C892 1.410 . S
C891 C899 1.503 1_565 S
C892 C891 1.410 . S
C892 C893 1.392 . S
C892 C895 1.511 . S
C893 C889 1.376 . S
C893 C892 1.392 . S
C893 H905 0.929 . S
C894 C890 1.531 1_545 S
C894 H906 0.960 . S
C894 H907 0.962 1_545 S
C894 H908 0.960 . S
C895 C892 1.511 . S
C895 H909 0.961 . S
C895 H910 0.961 . S
C895 H911 0.961 . S
C896 C897 1.370 . S
C896 C898 1.363 . S
C896 H912 0.931 . S
C897 C896 1.370 . S
C897 C901 1.408 . S
C898 C896 1.363 . S
C898 C899 1.370 . S
C898 C902 1.524 1_545 S
C899 C891 1.503 1_545 S
C899 C898 1.370 . S
C899 C900 1.403 . S
C900 C899 1.403 . S
C900 C901 1.404 . S
C900 C903 1.539 . S
C901 C897 1.408 . S
C901 C900 1.404 . S
C901 H913 0.930 . S
C902 C898 1.524 1_565 S
C902 H914 0.956 . S
C902 H915 0.961 . S
C902 H916 0.961 . S
C903 C900 1.539 . S
C903 H917 0.958 . S
C903 H918 0.961 . S
C903 H919 0.960 . S
H904 C888 0.931 . S
H905 C893 0.929 . S
H906 C894 0.960 . S
H907 C894 0.962 1_565 S
H908 C894 0.960 . S
H909 C895 0.961 . S
H910 C895 0.961 . S
H911 C895 0.961 . S
H912 C896 0.931 . S
H913 C901 0.930 . S
H914 C902 0.956 . S
H915 C902 0.961 . S
H916 C902 0.961 . S
H917 C903 0.958 . S
H918 C903 0.961 . S
H919 C903 0.960 . S
C920 C921 1.391 . S
C920 C922 1.394 . S
C920 H936 0.931 . S
C921 C920 1.391 . S
C921 C925 1.376 . S
C922 C920 1.394 . S
C922 C923 1.369 . S
C922 C926 1.531 . S
C923 C922 1.369 . S
C923 C924 1.410 . S
C923 C931 1.503 1_455 S
C924 C923 1.410 . S
C924 C925 1.392 . S
C924 C927 1.511 . S
C925 C921 1.376 . S
C925 C924 1.392 . S
C925 H937 0.929 . S
C926 C922 1.531 . S
C926 H938 0.960 . S
C926 H939 0.962 . S
C926 H940 0.960 . S
C927 C924 1.511 . S
C927 H941 0.961 . S
C927 H942 0.961 1_455 S
C927 H943 0.961 . S
C928 C929 1.370 . S
C928 C930 1.363 . S
C928 H944 0.931 . S
C929 C928 1.370 . S
C929 C933 1.408 . S
C930 C928 1.363 . S
C930 C931 1.370 . S
C930 C934 1.524 . S
C931 C923 1.503 1_655 S
C931 C930 1.370 . S
C931 C932 1.403 . S
C932 C931 1.403 . S
C932 C933 1.404 . S
C932 C935 1.539 1_655 S
C933 C929 1.408 . S
C933 C932 1.404 . S
C933 H945 0.930 . S
C934 C930 1.524 . S
C934 H946 0.956 . S
C934 H947 0.961 . S
C934 H948 0.961 . S
C935 C932 1.539 1_455 S
C935 H949 0.958 . S
C935 H950 0.961 . S
C935 H951 0.960 . S
H936 C920 0.931 . S
H937 C925 0.929 . S
H938 C926 0.960 . S
H939 C926 0.962 . S
H940 C926 0.960 . S
H941 C927 0.961 . S
H942 C927 0.961 1_655 S
H943 C927 0.961 . S
H944 C928 0.931 . S
H945 C933 0.930 . S
H946 C934 0.956 . S
H947 C934 0.961 . S
H948 C934 0.961 . S
H949 C935 0.958 . S
H950 C935 0.961 . S
H951 C935 0.960 . S
C952 C953 1.391 . S
C952 C954 1.394 . S
C952 H968 0.931 . S
C953 C952 1.391 . S
C953 C957 1.376 . S
C954 C952 1.394 . S
C954 C955 1.369 . S
C954 C958 1.531 . S
C955 C954 1.369 . S
C955 C956 1.410 . S
C955 C963 1.503 1_556 S
C956 C955 1.410 . S
C956 C957 1.392 . S
C956 C959 1.511 . S
C957 C953 1.376 . S
C957 C956 1.392 . S
C957 H969 0.929 . S
C958 C954 1.531 . S
C958 H970 0.960 1_556 S
C958 H971 0.962 . S
C958 H972 0.960 . S
C959 C956 1.511 . S
C959 H973 0.961 . S
C959 H974 0.949 1_556 S
C959 H975 0.961 1_556 S
C960 C961 1.370 . S
C960 C962 1.363 . S
C960 H976 0.931 . S
C961 C960 1.370 . S
C961 C965 1.408 . S
C962 C960 1.363 . S
C962 C963 1.370 . S
C962 C966 1.524 1_554 S
C963 C955 1.503 1_554 S
C963 C962 1.370 . S
C963 C964 1.403 . S
C964 C963 1.403 . S
C964 C965 1.404 . S
C964 C967 1.539 . S
C965 C961 1.408 . S
C965 C964 1.404 . S
C965 H977 0.930 . S
C966 C962 1.524 1_556 S
C966 H978 0.956 . S
C966 H979 0.961 . S
C966 H980 0.961 . S
C967 C964 1.539 . S
C967 H981 0.958 . S
C967 H982 0.961 . S
C967 H983 0.960 . S
H968 C952 0.931 . S
H969 C957 0.929 . S
H970 C958 0.960 1_554 S
H971 C958 0.962 . S
H972 C958 0.960 . S
H973 C959 0.961 . S
H974 C959 0.949 1_554 S
H975 C959 0.961 1_554 S
H976 C960 0.931 . S
H977 C965 0.930 . S
H978 C966 0.956 . S
H979 C966 0.961 . S
H980 C966 0.961 . S
H981 C967 0.958 . S
H982 C967 0.961 . S
H983 C967 0.960 . S
C984 C985 1.391 . S
C984 C986 1.394 . S
C984 H1000 0.931 . S
C985 C984 1.391 . S
C985 C989 1.376 . S
C986 C984 1.394 . S
C986 C987 1.369 . S
C986 C990 1.531 . S
C987 C986 1.369 . S
C987 C988 1.410 . S
C987 C995 1.503 1_554 S
C988 C987 1.410 . S
C988 C989 1.392 . S
C988 C991 1.511 1_554 S
C989 C985 1.376 . S
C989 C988 1.392 . S
C989 H1001 0.929 . S
C990 C986 1.531 . S
C990 H1002 0.960 . S
C990 H1003 0.962 . S
C990 H1004 0.960 . S
C991 C988 1.511 1_556 S
C991 H1005 0.961 . S
C991 H1006 0.961 . S
C991 H1007 0.961 . S
C992 C993 1.370 . S
C992 C994 1.363 . S
C992 H1008 0.931 . S
C993 C992 1.370 . S
C993 C997 1.408 . S
C994 C992 1.363 . S
C994 C995 1.370 . S
C994 C998 1.524 1_556 S
C995 C987 1.503 1_556 S
C995 C994 1.370 . S
C995 C996 1.403 . S
C996 C995 1.403 . S
C996 C997 1.404 . S
C996 C999 1.539 . S
C997 C993 1.408 . S
C997 C996 1.404 . S
C997 H1009 0.930 . S
C998 C994 1.524 1_554 S
C998 H1010 0.956 . S
C998 H1011 0.961 . S
C998 H1012 0.961 . S
C999 C996 1.539 . S
C999 H1013 0.958 . S
C999 H1014 0.961 . S
C999 H1015 0.960 . S
H1000 C984 0.931 . S
H1001 C989 0.929 . S
H1002 C990 0.960 . S
H1003 C990 0.962 . S
H1004 C990 0.960 . S
H1005 C991 0.961 . S
H1006 C991 0.961 . S
H1007 C991 0.961 . S
H1008 C992 0.931 . S
H1009 C997 0.930 . S
H1010 C998 0.956 . S
H1011 C998 0.961 . S
H1012 C998 0.961 . S
H1013 C999 0.958 . S
H1014 C999 0.961 . S
H1015 C999 0.960 . S
C1016 C1017 1.391 . S
C1016 C1018 1.394 . S
C1016 H1032 0.931 . S
C1017 C1016 1.391 . S
C1017 C1021 1.376 . S
C1018 C1016 1.394 . S
C1018 C1019 1.369 . S
C1018 C1022 1.531 1_556 S
C1019 C1018 1.369 . S
C1019 C1020 1.410 . S
C1019 C1027 1.503 1_556 S
C1020 C1019 1.410 . S
C1020 C1021 1.392 . S
C1020 C1023 1.511 . S
C1021 C1017 1.376 . S
C1021 C1020 1.392 . S
C1021 H1033 0.929 . S
C1022 C1018 1.531 1_554 S
C1022 H1034 0.960 . S
C1022 H1035 0.962 . S
C1022 H1036 0.960 . S
C1023 C1020 1.511 . S
C1023 H1037 0.961 . S
C1023 H1038 0.961 . S
C1023 H1039 0.961 . S
C1024 C1025 1.370 . S
C1024 C1026 1.363 . S
C1024 H1040 0.931 . S
C1025 C1024 1.370 . S
C1025 C1029 1.408 . S
C1026 C1024 1.363 . S
C1026 C1027 1.370 . S
C1026 C1030 1.524 1_554 S
C1027 C1019 1.503 1_554 S
C1027 C1026 1.370 . S
C1027 C1028 1.403 . S
C1028 C1027 1.403 . S
C1028 C1029 1.404 . S
C1028 C1031 1.539 . S
C1029 C1025 1.408 . S
C1029 C1028 1.404 . S
C1029 H1041 0.930 . S
C1030 C1026 1.524 1_556 S
C1030 H1042 0.956 . S
C1030 H1043 0.961 . S
C1030 H1044 0.961 . S
C1031 C1028 1.539 . S
C1031 H1045 0.958 . S
C1031 H1046 0.961 . S
C1031 H1047 0.960 . S
H1032 C1016 0.931 . S
H1033 C1021 0.929 . S
H1034 C1022 0.960 . S
H1035 C1022 0.962 . S
H1036 C1022 0.960 . S
H1037 C1023 0.961 . S
H1038 C1023 0.961 . S
H1039 C1023 0.961 . S
H1040 C1024 0.931 . S
H1041 C1029 0.930 . S
H1042 C1030 0.956 . S
H1043 C1030 0.961 . S
H1044 C1030 0.961 . S
H1045 C1031 0.958 . S
H1046 C1031 0.961 . S
H1047 C1031 0.960 . S
C1048 C1049 1.391 . S
C1048 C1050 1.394 . S
C1048 H1064 0.931 . S
C1049 C1048 1.391 . S
C1049 C1053 1.376 . S
C1050 C1048 1.394 . S
C1050 C1051 1.369 . S
C1050 C1054 1.531 1_554 S
C1051 C1050 1.369 . S
C1051 C1052 1.410 . S
C1051 C1059 1.503 1_554 S
C1052 C1051 1.410 . S
C1052 C1053 1.392 . S
C1052 C1055 1.511 . S
C1053 C1049 1.376 . S
C1053 C1052 1.392 . S
C1053 H1065 0.929 . S
C1054 C1050 1.531 1_556 S
C1054 H1066 0.960 . S
C1054 H1067 0.962 1_556 S
C1054 H1068 0.960 . S
C1055 C1052 1.511 . S
C1055 H1069 0.961 . S
C1055 H1070 0.961 . S
C1055 H1071 0.953 1_554 S
C1056 C1057 1.370 . S
C1056 C1058 1.363 . S
C1056 H1072 0.931 . S
C1057 C1056 1.370 . S
C1057 C1061 1.408 . S
C1058 C1056 1.363 . S
C1058 C1059 1.370 . S
C1058 C1062 1.524 1_556 S
C1059 C1051 1.503 1_556 S
C1059 C1058 1.370 . S
C1059 C1060 1.403 . S
C1060 C1059 1.403 . S
C1060 C1061 1.404 . S
C1060 C1063 1.539 . S
C1061 C1057 1.408 . S
C1061 C1060 1.404 . S
C1061 H1073 0.930 . S
C1062 C1058 1.524 1_554 S
C1062 H1074 0.956 . S
C1062 H1075 0.961 . S
C1062 H1076 0.961 . S
C1063 C1060 1.539 . S
C1063 H1077 0.958 . S
C1063 H1078 0.961 . S
C1063 H1079 0.960 . S
H1064 C1048 0.931 . S
H1065 C1053 0.929 . S
H1066 C1054 0.960 . S
H1067 C1054 0.962 1_554 S
H1068 C1054 0.960 . S
H1069 C1055 0.961 . S
H1070 C1055 0.961 . S
H1071 C1055 0.953 1_556 S
H1072 C1056 0.931 . S
H1073 C1061 0.930 . S
H1074 C1062 0.956 . S
H1075 C1062 0.961 . S
H1076 C1062 0.961 . S
H1077 C1063 0.958 . S
H1078 C1063 0.961 . S
H1079 C1063 0.960 . S
C1080 C1081 1.391 . S
C1080 C1082 1.394 . S
C1080 H1096 0.931 . S
C1081 C1080 1.391 . S
C1081 C1085 1.376 . S
C1082 C1080 1.394 . S
C1082 C1083 1.369 . S
C1082 C1086 1.531 . S
C1083 C1082 1.369 . S
C1083 C1084 1.410 . S
C1083 C1091 1.503 . S
C1084 C1083 1.410 . S
C1084 C1085 1.392 . S
C1084 C1087 1.511 . S
C1085 C1081 1.376 . S
C1085 C1084 1.392 . S
C1085 H1097 0.929 . S
C1086 C1082 1.531 . S
C1086 H1098 0.960 . S
C1086 H1099 0.962 . S
C1086 H1100 0.960 . S
C1087 C1084 1.511 . S
C1087 H1101 0.961 . S
C1087 H1102 0.961 . S
C1087 H1103 0.961 . S
C1088 C1089 1.370 . S
C1088 C1090 1.363 . S
C1088 H1104 0.931 . S
C1089 C1088 1.370 . S
C1089 C1093 1.408 . S
C1090 C1088 1.363 . S
C1090 C1091 1.370 . S
C1090 C1094 1.524 . S
C1091 C1083 1.503 . S
C1091 C1090 1.370 . S
C1091 C1092 1.403 . S
C1092 C1091 1.403 . S
C1092 C1093 1.404 . S
C1092 C1095 1.539 . S
C1093 C1089 1.408 . S
C1093 C1092 1.404 . S
C1093 H1105 0.930 . S
C1094 C1090 1.524 . S
C1094 H1106 0.956 . S
C1094 H1107 0.961 . S
C1094 H1108 0.961 . S
C1095 C1092 1.539 . S
C1095 H1109 0.958 . S
C1095 H1110 0.961 . S
C1095 H1111 0.960 . S
H1096 C1080 0.931 . S
H1097 C1085 0.929 . S
H1098 C1086 0.960 . S
H1099 C1086 0.962 . S
H1100 C1086 0.960 . S
H1101 C1087 0.961 . S
H1102 C1087 0.961 . S
H1103 C1087 0.961 . S
H1104 C1088 0.931 . S
H1105 C1093 0.930 . S
H1106 C1094 0.956 . S
H1107 C1094 0.961 . S
H1108 C1094 0.961 . S
H1109 C1095 0.958 . S
H1110 C1095 0.961 . S
H1111 C1095 0.960 . S
C1112 C1113 1.391 . S
C1112 C1114 1.394 . S
C1112 H1128 0.931 . S
C1113 C1112 1.391 . S
C1113 C1117 1.376 . S
C1114 C1112 1.394 . S
C1114 C1115 1.369 . S
C1114 C1118 1.531 . S
C1115 C1114 1.369 . S
C1115 C1116 1.410 . S
C1115 C1123 1.503 . S
C1116 C1115 1.410 . S
C1116 C1117 1.392 . S
C1116 C1119 1.511 . S
C1117 C1113 1.376 . S
C1117 C1116 1.392 . S
C1117 H1129 0.929 . S
C1118 C1114 1.531 . S
C1118 H1130 0.960 . S
C1118 H1131 0.962 . S
C1118 H1132 0.960 . S
C1119 C1116 1.511 . S
C1119 H1133 0.961 . S
C1119 H1134 0.961 . S
C1119 H1135 0.961 . S
C1120 C1121 1.370 . S
C1120 C1122 1.363 . S
C1120 H1136 0.931 . S
C1121 C1120 1.370 . S
C1121 C1125 1.408 . S
C1122 C1120 1.363 . S
C1122 C1123 1.370 . S
C1122 C1126 1.524 . S
C1123 C1115 1.503 . S
C1123 C1122 1.370 . S
C1123 C1124 1.403 . S
C1124 C1123 1.403 . S
C1124 C1125 1.404 . S
C1124 C1127 1.539 . S
C1125 C1121 1.408 . S
C1125 C1124 1.404 . S
C1125 H1137 0.930 . S
C1126 C1122 1.524 . S
C1126 H1138 0.956 . S
C1126 H1139 0.961 . S
C1126 H1140 0.961 . S
C1127 C1124 1.539 . S
C1127 H1141 0.958 . S
C1127 H1142 0.961 . S
C1127 H1143 0.960 . S
H1128 C1112 0.931 . S
H1129 C1117 0.929 . S
H1130 C1118 0.960 . S
H1131 C1118 0.962 . S
H1132 C1118 0.960 . S
H1133 C1119 0.961 . S
H1134 C1119 0.961 . S
H1135 C1119 0.961 . S
H1136 C1120 0.931 . S
H1137 C1125 0.930 . S
H1138 C1126 0.956 . S
H1139 C1126 0.961 . S
H1140 C1126 0.961 . S
H1141 C1127 0.958 . S
H1142 C1127 0.961 . S
H1143 C1127 0.960 . S
C1144 C1145 1.391 . S
C1144 C1146 1.394 . S
C1144 H1160 0.931 . S
C1145 C1144 1.391 . S
C1145 C1149 1.376 . S
C1146 C1144 1.394 . S
C1146 C1147 1.369 . S
C1146 C1150 1.531 . S
C1147 C1146 1.369 . S
C1147 C1148 1.410 . S
C1147 C1155 1.503 . S
C1148 C1147 1.410 . S
C1148 C1149 1.392 . S
C1148 C1151 1.511 . S
C1149 C1145 1.376 . S
C1149 C1148 1.392 . S
C1149 H1161 0.929 . S
C1150 C1146 1.531 . S
C1150 H1162 0.960 . S
C1150 H1163 0.962 . S
C1150 H1164 0.960 . S
C1151 C1148 1.511 . S
C1151 H1165 0.961 . S
C1151 H1166 0.961 . S
C1151 H1167 0.961 . S
C1152 C1153 1.370 . S
C1152 C1154 1.363 . S
C1152 H1168 0.931 . S
C1153 C1152 1.370 . S
C1153 C1157 1.408 . S
C1154 C1152 1.363 . S
C1154 C1155 1.370 . S
C1154 C1158 1.524 . S
C1155 C1147 1.503 . S
C1155 C1154 1.370 . S
C1155 C1156 1.403 . S
C1156 C1155 1.403 . S
C1156 C1157 1.404 . S
C1156 C1159 1.539 . S
C1157 C1153 1.408 . S
C1157 C1156 1.404 . S
C1157 H1169 0.930 . S
C1158 C1154 1.524 . S
C1158 H1170 0.956 . S
C1158 H1171 0.961 . S
C1158 H1172 0.961 . S
C1159 C1156 1.539 . S
C1159 H1173 0.958 . S
C1159 H1174 0.961 . S
C1159 H1175 0.960 . S
H1160 C1144 0.931 . S
H1161 C1149 0.929 . S
H1162 C1150 0.960 . S
H1163 C1150 0.962 . S
H1164 C1150 0.960 . S
H1165 C1151 0.961 . S
H1166 C1151 0.961 . S
H1167 C1151 0.961 . S
H1168 C1152 0.931 . S
H1169 C1157 0.930 . S
H1170 C1158 0.956 . S
H1171 C1158 0.961 . S
H1172 C1158 0.961 . S
H1173 C1159 0.958 . S
H1174 C1159 0.961 . S
H1175 C1159 0.960 . S
C1176 C1177 1.391 . S
C1176 C1178 1.394 . S
C1176 H1192 0.931 . S
C1177 C1176 1.391 . S
C1177 C1181 1.376 . S
C1178 C1176 1.394 . S
C1178 C1179 1.369 . S
C1178 C1182 1.531 . S
C1179 C1178 1.369 . S
C1179 C1180 1.410 . S
C1179 C1187 1.503 . S
C1180 C1179 1.410 . S
C1180 C1181 1.392 . S
C1180 C1183 1.511 . S
C1181 C1177 1.376 . S
C1181 C1180 1.392 . S
C1181 H1193 0.929 . S
C1182 C1178 1.531 . S
C1182 H1194 0.960 . S
C1182 H1195 0.962 . S
C1182 H1196 0.960 . S
C1183 C1180 1.511 . S
C1183 H1197 0.961 . S
C1183 H1198 0.961 . S
C1183 H1199 0.961 . S
C1184 C1185 1.370 . S
C1184 C1186 1.363 . S
C1184 H1200 0.931 . S
C1185 C1184 1.370 . S
C1185 C1189 1.408 . S
C1186 C1184 1.363 . S
C1186 C1187 1.370 . S
C1186 C1190 1.524 . S
C1187 C1179 1.503 . S
C1187 C1186 1.370 . S
C1187 C1188 1.403 . S
C1188 C1187 1.403 . S
C1188 C1189 1.404 . S
C1188 C1191 1.539 . S
C1189 C1185 1.408 . S
C1189 C1188 1.404 . S
C1189 H1201 0.930 . S
C1190 C1186 1.524 . S
C1190 H1202 0.956 . S
C1190 H1203 0.961 . S
C1190 H1204 0.961 . S
C1191 C1188 1.539 . S
C1191 H1205 0.958 . S
C1191 H1206 0.961 . S
C1191 H1207 0.960 . S
H1192 C1176 0.931 . S
H1193 C1181 0.929 . S
H1194 C1182 0.960 . S
H1195 C1182 0.962 . S
H1196 C1182 0.960 . S
H1197 C1183 0.961 . S
H1198 C1183 0.961 . S
H1199 C1183 0.961 . S
H1200 C1184 0.931 . S
H1201 C1189 0.930 . S
H1202 C1190 0.956 . S
H1203 C1190 0.961 . S
H1204 C1190 0.961 . S
H1205 C1191 0.958 . S
H1206 C1191 0.961 . S
H1207 C1191 0.960 . S
C1208 C1209 1.391 . S
C1208 C1210 1.394 . S
C1208 H1224 0.931 . S
C1209 C1208 1.391 . S
C1209 C1213 1.376 . S
C1210 C1208 1.394 . S
C1210 C1211 1.369 . S
C1210 C1214 1.531 . S
C1211 C1210 1.369 . S
C1211 C1212 1.410 . S
C1211 C1219 1.503 . S
C1212 C1211 1.410 . S
C1212 C1213 1.392 . S
C1212 C1215 1.511 . S
C1213 C1209 1.376 . S
C1213 C1212 1.392 . S
C1213 H1225 0.929 . S
C1214 C1210 1.531 . S
C1214 H1226 0.960 . S
C1214 H1227 0.962 . S
C1214 H1228 0.960 . S
C1215 C1212 1.511 . S
C1215 H1229 0.961 . S
C1215 H1230 0.961 . S
C1215 H1231 0.961 . S
C1216 C1217 1.370 . S
C1216 C1218 1.363 . S
C1216 H1232 0.931 . S
C1217 C1216 1.370 . S
C1217 C1221 1.408 . S
C1218 C1216 1.363 . S
C1218 C1219 1.370 . S
C1218 C1222 1.524 . S
C1219 C1211 1.503 . S
C1219 C1218 1.370 . S
C1219 C1220 1.403 . S
C1220 C1219 1.403 . S
C1220 C1221 1.404 . S
C1220 C1223 1.539 . S
C1221 C1217 1.408 . S
C1221 C1220 1.404 . S
C1221 H1233 0.930 . S
C1222 C1218 1.524 . S
C1222 H1234 0.956 . S
C1222 H1235 0.961 . S
C1222 H1236 0.961 . S
C1223 C1220 1.539 . S
C1223 H1237 0.958 . S
C1223 H1238 0.961 . S
C1223 H1239 0.960 . S
H1224 C1208 0.931 . S
H1225 C1213 0.929 . S
H1226 C1214 0.960 . S
H1227 C1214 0.962 . S
H1228 C1214 0.960 . S
H1229 C1215 0.961 . S
H1230 C1215 0.961 . S
H1231 C1215 0.961 . S
H1232 C1216 0.931 . S
H1233 C1221 0.930 . S
H1234 C1222 0.956 . S
H1235 C1222 0.961 . S
H1236 C1222 0.961 . S
H1237 C1223 0.958 . S
H1238 C1223 0.961 . S
H1239 C1223 0.960 . S
C1240 C1241 1.391 . S
C1240 C1242 1.394 . S
C1240 H1256 0.931 . S
C1241 C1240 1.391 . S
C1241 C1245 1.376 . S
C1242 C1240 1.394 . S
C1242 C1243 1.369 . S
C1242 C1246 1.531 . S
C1243 C1242 1.369 . S
C1243 C1244 1.410 . S
C1243 C1251 1.503 . S
C1244 C1243 1.410 . S
C1244 C1245 1.392 . S
C1244 C1247 1.511 . S
C1245 C1241 1.376 . S
C1245 C1244 1.392 . S
C1245 H1257 0.929 . S
C1246 C1242 1.531 . S
C1246 H1258 0.960 . S
C1246 H1259 0.962 . S
C1246 H1260 0.960 . S
C1247 C1244 1.511 . S
C1247 H1261 0.961 . S
C1247 H1262 0.961 . S
C1247 H1263 0.961 . S
C1248 C1249 1.370 . S
C1248 C1250 1.363 . S
C1248 H1264 0.931 . S
C1249 C1248 1.370 . S
C1249 C1253 1.408 . S
C1250 C1248 1.363 . S
C1250 C1251 1.370 . S
C1250 C1254 1.524 . S
C1251 C1243 1.503 . S
C1251 C1250 1.370 . S
C1251 C1252 1.403 . S
C1252 C1251 1.403 . S
C1252 C1253 1.404 . S
C1252 C1255 1.539 . S
C1253 C1249 1.408 . S
C1253 C1252 1.404 . S
C1253 H1265 0.930 . S
C1254 C1250 1.524 . S
C1254 H1266 0.956 . S
C1254 H1267 0.961 . S
C1254 H1268 0.961 . S
C1255 C1252 1.539 . S
C1255 H1269 0.958 . S
C1255 H1270 0.961 . S
C1255 H1271 0.960 . S
H1256 C1240 0.931 . S
H1257 C1245 0.929 . S
H1258 C1246 0.960 . S
H1259 C1246 0.962 . S
H1260 C1246 0.960 . S
H1261 C1247 0.961 . S
H1262 C1247 0.961 . S
H1263 C1247 0.961 . S
H1264 C1248 0.931 . S
H1265 C1253 0.930 . S
H1266 C1254 0.956 . S
H1267 C1254 0.961 . S
H1268 C1254 0.961 . S
H1269 C1255 0.958 . S
H1270 C1255 0.961 . S
H1271 C1255 0.960 . S
C1272 C1273 1.391 . S
C1272 C1274 1.394 . S
C1272 H1288 0.931 . S
C1273 C1272 1.391 . S
C1273 C1277 1.376 . S
C1274 C1272 1.394 . S
C1274 C1275 1.369 . S
C1274 C1278 1.531 . S
C1275 C1274 1.369 . S
C1275 C1276 1.410 . S
C1275 C1283 1.503 . S
C1276 C1275 1.410 . S
C1276 C1277 1.392 . S
C1276 C1279 1.511 . S
C1277 C1273 1.376 . S
C1277 C1276 1.392 . S
C1277 H1289 0.929 . S
C1278 C1274 1.531 . S
C1278 H1290 0.960 . S
C1278 H1291 0.962 . S
C1278 H1292 0.960 . S
C1279 C1276 1.511 . S
C1279 H1293 0.961 . S
C1279 H1294 0.961 . S
C1279 H1295 0.961 . S
C1280 C1281 1.370 . S
C1280 C1282 1.363 . S
C1280 H1296 0.931 . S
C1281 C1280 1.370 . S
C1281 C1285 1.408 . S
C1282 C1280 1.363 . S
C1282 C1283 1.370 . S
C1282 C1286 1.524 . S
C1283 C1275 1.503 . S
C1283 C1282 1.370 . S
C1283 C1284 1.403 . S
C1284 C1283 1.403 . S
C1284 C1285 1.404 . S
C1284 C1287 1.539 . S
C1285 C1281 1.408 . S
C1285 C1284 1.404 . S
C1285 H1297 0.930 . S
C1286 C1282 1.524 . S
C1286 H1298 0.956 . S
C1286 H1299 0.961 . S
C1286 H1300 0.961 . S
C1287 C1284 1.539 . S
C1287 H1301 0.958 . S
C1287 H1302 0.961 . S
C1287 H1303 0.960 . S
H1288 C1272 0.931 . S
H1289 C1277 0.929 . S
H1290 C1278 0.960 . S
H1291 C1278 0.962 . S
H1292 C1278 0.960 . S
H1293 C1279 0.961 . S
H1294 C1279 0.961 . S
H1295 C1279 0.961 . S
H1296 C1280 0.931 . S
H1297 C1285 0.930 . S
H1298 C1286 0.956 . S
H1299 C1286 0.961 . S
H1300 C1286 0.961 . S
H1301 C1287 0.958 . S
H1302 C1287 0.961 . S
H1303 C1287 0.960 . S
C1304 C1305 1.391 . S
C1304 C1306 1.394 . S
C1304 H1320 0.931 . S
C1305 C1304 1.391 . S
C1305 C1309 1.376 . S
C1306 C1304 1.394 . S
C1306 C1307 1.369 . S
C1306 C1310 1.531 . S
C1307 C1306 1.369 . S
C1307 C1308 1.410 . S
C1307 C1315 1.503 . S
C1308 C1307 1.410 . S
C1308 C1309 1.392 . S
C1308 C1311 1.511 . S
C1309 C1305 1.376 . S
C1309 C1308 1.392 . S
C1309 H1321 0.929 . S
C1310 C1306 1.531 . S
C1310 H1322 0.960 . S
C1310 H1323 0.962 . S
C1310 H1324 0.960 . S
C1311 C1308 1.511 . S
C1311 H1325 0.961 . S
C1311 H1326 0.961 . S
C1311 H1327 0.961 . S
C1312 C1313 1.370 . S
C1312 C1314 1.363 . S
C1312 H1328 0.931 . S
C1313 C1312 1.370 . S
C1313 C1317 1.408 . S
C1314 C1312 1.363 . S
C1314 C1315 1.370 . S
C1314 C1318 1.524 . S
C1315 C1307 1.503 . S
C1315 C1314 1.370 . S
C1315 C1316 1.403 . S
C1316 C1315 1.403 . S
C1316 C1317 1.404 . S
C1316 C1319 1.539 . S
C1317 C1313 1.408 . S
C1317 C1316 1.404 . S
C1317 H1329 0.930 . S
C1318 C1314 1.524 . S
C1318 H1330 0.956 . S
C1318 H1331 0.961 . S
C1318 H1332 0.961 . S
C1319 C1316 1.539 . S
C1319 H1333 0.958 . S
C1319 H1334 0.961 . S
C1319 H1335 0.960 . S
H1320 C1304 0.931 . S
H1321 C1309 0.929 . S
H1322 C1310 0.960 . S
H1323 C1310 0.962 . S
H1324 C1310 0.960 . S
H1325 C1311 0.961 . S
H1326 C1311 0.961 . S
H1327 C1311 0.961 . S
H1328 C1312 0.931 . S
H1329 C1317 0.930 . S
H1330 C1318 0.956 . S
H1331 C1318 0.961 . S
H1332 C1318 0.961 . S
H1333 C1319 0.958 . S
H1334 C1319 0.961 . S
H1335 C1319 0.960 . S
C1336 C1337 1.391 . S
C1336 C1338 1.394 . S
C1336 H1352 0.931 . S
C1337 C1336 1.391 . S
C1337 C1341 1.376 . S
C1338 C1336 1.394 . S
C1338 C1339 1.369 . S
C1338 C1342 1.531 . S
C1339 C1338 1.369 . S
C1339 C1340 1.410 . S
C1339 C1347 1.503 . S
C1340 C1339 1.410 . S
C1340 C1341 1.392 . S
C1340 C1343 1.511 . S
C1341 C1337 1.376 . S
C1341 C1340 1.392 . S
C1341 H1353 0.929 . S
C1342 C1338 1.531 . S
C1342 H1354 0.960 . S
C1342 H1355 0.962 . S
C1342 H1356 0.960 . S
C1343 C1340 1.511 . S
C1343 H1357 0.961 . S
C1343 H1358 0.961 . S
C1343 H1359 0.961 . S
C1344 C1345 1.370 . S
C1344 C1346 1.363 . S
C1344 H1360 0.931 . S
C1345 C1344 1.370 . S
C1345 C1349 1.408 . S
C1346 C1344 1.363 . S
C1346 C1347 1.370 . S
C1346 C1350 1.524 . S
C1347 C1339 1.503 . S
C1347 C1346 1.370 . S
C1347 C1348 1.403 . S
C1348 C1347 1.403 . S
C1348 C1349 1.404 . S
C1348 C1351 1.539 . S
C1349 C1345 1.408 . S
C1349 C1348 1.404 . S
C1349 H1361 0.930 . S
C1350 C1346 1.524 . S
C1350 H1362 0.956 . S
C1350 H1363 0.961 . S
C1350 H1364 0.961 . S
C1351 C1348 1.539 . S
C1351 H1365 0.958 . S
C1351 H1366 0.961 . S
C1351 H1367 0.960 . S
H1352 C1336 0.931 . S
H1353 C1341 0.929 . S
H1354 C1342 0.960 . S
H1355 C1342 0.962 . S
H1356 C1342 0.960 . S
H1357 C1343 0.961 . S
H1358 C1343 0.961 . S
H1359 C1343 0.961 . S
H1360 C1344 0.931 . S
H1361 C1349 0.930 . S
H1362 C1350 0.956 . S
H1363 C1350 0.961 . S
H1364 C1350 0.961 . S
H1365 C1351 0.958 . S
H1366 C1351 0.961 . S
H1367 C1351 0.960 . S
C1368 C1369 1.391 . S
C1368 C1370 1.394 . S
C1368 H1384 0.931 . S
C1369 C1368 1.391 . S
C1369 C1373 1.376 . S
C1370 C1368 1.394 . S
C1370 C1371 1.369 . S
C1370 C1374 1.531 . S
C1371 C1370 1.369 . S
C1371 C1372 1.410 . S
C1371 C1379 1.503 . S
C1372 C1371 1.410 . S
C1372 C1373 1.392 . S
C1372 C1375 1.511 . S
C1373 C1369 1.376 . S
C1373 C1372 1.392 . S
C1373 H1385 0.929 . S
C1374 C1370 1.531 . S
C1374 H1386 0.960 . S
C1374 H1387 0.962 . S
C1374 H1388 0.960 . S
C1375 C1372 1.511 . S
C1375 H1389 0.961 . S
C1375 H1390 0.961 . S
C1375 H1391 0.961 . S
C1376 C1377 1.370 . S
C1376 C1378 1.363 . S
C1376 H1392 0.931 . S
C1377 C1376 1.370 . S
C1377 C1381 1.408 . S
C1378 C1376 1.363 . S
C1378 C1379 1.370 . S
C1378 C1382 1.524 . S
C1379 C1371 1.503 . S
C1379 C1378 1.370 . S
C1379 C1380 1.403 . S
C1380 C1379 1.403 . S
C1380 C1381 1.404 . S
C1380 C1383 1.539 . S
C1381 C1377 1.408 . S
C1381 C1380 1.404 . S
C1381 H1393 0.930 . S
C1382 C1378 1.524 . S
C1382 H1394 0.956 . S
C1382 H1395 0.961 . S
C1382 H1396 0.961 . S
C1383 C1380 1.539 . S
C1383 H1397 0.958 . S
C1383 H1398 0.961 . S
C1383 H1399 0.960 . S
H1384 C1368 0.931 . S
H1385 C1373 0.929 . S
H1386 C1374 0.960 . S
H1387 C1374 0.962 . S
H1388 C1374 0.960 . S
H1389 C1375 0.961 . S
H1390 C1375 0.961 . S
H1391 C1375 0.961 . S
H1392 C1376 0.931 . S
H1393 C1381 0.930 . S
H1394 C1382 0.956 . S
H1395 C1382 0.961 . S
H1396 C1382 0.961 . S
H1397 C1383 0.958 . S
H1398 C1383 0.961 . S
H1399 C1383 0.960 . S
C1400 C1401 1.391 . S
C1400 C1402 1.394 . S
C1400 H1416 0.931 . S
C1401 C1400 1.391 . S
C1401 C1405 1.376 . S
C1402 C1400 1.394 . S
C1402 C1403 1.369 . S
C1402 C1406 1.531 . S
C1403 C1402 1.369 . S
C1403 C1404 1.410 . S
C1403 C1411 1.503 . S
C1404 C1403 1.410 . S
C1404 C1405 1.392 . S
C1404 C1407 1.511 . S
C1405 C1401 1.376 . S
C1405 C1404 1.392 . S
C1405 H1417 0.929 . S
C1406 C1402 1.531 . S
C1406 H1418 0.960 . S
C1406 H1419 0.962 . S
C1406 H1420 0.960 . S
C1407 C1404 1.511 . S
C1407 H1421 0.961 . S
C1407 H1422 0.961 . S
C1407 H1423 0.961 . S
C1408 C1409 1.370 . S
C1408 C1410 1.363 . S
C1408 H1424 0.931 . S
C1409 C1408 1.370 . S
C1409 C1413 1.408 . S
C1410 C1408 1.363 . S
C1410 C1411 1.370 . S
C1410 C1414 1.524 . S
C1411 C1403 1.503 . S
C1411 C1410 1.370 . S
C1411 C1412 1.403 . S
C1412 C1411 1.403 . S
C1412 C1413 1.404 . S
C1412 C1415 1.539 . S
C1413 C1409 1.408 . S
C1413 C1412 1.404 . S
C1413 H1425 0.930 . S
C1414 C1410 1.524 . S
C1414 H1426 0.956 . S
C1414 H1427 0.961 . S
C1414 H1428 0.961 . S
C1415 C1412 1.539 . S
C1415 H1429 0.958 . S
C1415 H1430 0.961 . S
C1415 H1431 0.960 . S
H1416 C1400 0.931 . S
H1417 C1405 0.929 . S
H1418 C1406 0.960 . S
H1419 C1406 0.962 . S
H1420 C1406 0.960 . S
H1421 C1407 0.961 . S
H1422 C1407 0.961 . S
H1423 C1407 0.961 . S
H1424 C1408 0.931 . S
H1425 C1413 0.930 . S
H1426 C1414 0.956 . S
H1427 C1414 0.961 . S
H1428 C1414 0.961 . S
H1429 C1415 0.958 . S
H1430 C1415 0.961 . S
H1431 C1415 0.960 . S
C1432 C1433 1.391 . S
C1432 C1434 1.394 . S
C1432 H1448 0.931 . S
C1433 C1432 1.391 . S
C1433 C1437 1.376 . S
C1434 C1432 1.394 . S
C1434 C1435 1.369 . S
C1434 C1438 1.531 . S
C1435 C1434 1.369 . S
C1435 C1436 1.410 . S
C1435 C1443 1.503 . S
C1436 C1435 1.410 . S
C1436 C1437 1.392 . S
C1436 C1439 1.511 . S
C1437 C1433 1.376 . S
C1437 C1436 1.392 . S
C1437 H1449 0.929 . S
C1438 C1434 1.531 . S
C1438 H1450 0.960 . S
C1438 H1451 0.962 . S
C1438 H1452 0.960 . S
C1439 C1436 1.511 . S
C1439 H1453 0.961 . S
C1439 H1454 0.961 . S
C1439 H1455 0.961 . S
C1440 C1441 1.370 . S
C1440 C1442 1.363 . S
C1440 H1456 0.931 . S
C1441 C1440 1.370 . S
C1441 C1445 1.408 . S
C1442 C1440 1.363 . S
C1442 C1443 1.370 . S
C1442 C1446 1.524 . S
C1443 C1435 1.503 . S
C1443 C1442 1.370 . S
C1443 C1444 1.403 . S
C1444 C1443 1.403 . S
C1444 C1445 1.404 . S
C1444 C1447 1.539 . S
C1445 C1441 1.408 . S
C1445 C1444 1.404 . S
C1445 H1457 0.930 . S
C1446 C1442 1.524 . S
C1446 H1458 0.956 . S
C1446 H1459 0.961 . S
C1446 H1460 0.961 . S
C1447 C1444 1.539 . S
C1447 H1461 0.958 . S
C1447 H1462 0.961 . S
C1447 H1463 0.960 . S
H1448 C1432 0.931 . S
H1449 C1437 0.929 . S
H1450 C1438 0.960 . S
H1451 C1438 0.962 . S
H1452 C1438 0.960 . S
H1453 C1439 0.961 . S
H1454 C1439 0.961 . S
H1455 C1439 0.961 . S
H1456 C1440 0.931 . S
H1457 C1445 0.930 . S
H1458 C1446 0.956 . S
H1459 C1446 0.961 . S
H1460 C1446 0.961 . S
H1461 C1447 0.958 . S
H1462 C1447 0.961 . S
H1463 C1447 0.960 . S
C1464 C1465 1.391 . S
C1464 C1466 1.394 . S
C1464 H1480 0.931 . S
C1465 C1464 1.391 . S
C1465 C1469 1.376 . S
C1466 C1464 1.394 . S
C1466 C1467 1.369 . S
C1466 C1470 1.531 . S
C1467 C1466 1.369 . S
C1467 C1468 1.410 . S
C1467 C1475 1.503 . S
C1468 C1467 1.410 . S
C1468 C1469 1.392 . S
C1468 C1471 1.511 . S
C1469 C1465 1.376 . S
C1469 C1468 1.392 . S
C1469 H1481 0.929 . S
C1470 C1466 1.531 . S
C1470 H1482 0.960 . S
C1470 H1483 0.962 . S
C1470 H1484 0.960 . S
C1471 C1468 1.511 . S
C1471 H1485 0.961 . S
C1471 H1486 0.961 . S
C1471 H1487 0.961 . S
C1472 C1473 1.370 . S
C1472 C1474 1.363 . S
C1472 H1488 0.931 . S
C1473 C1472 1.370 . S
C1473 C1477 1.408 . S
C1474 C1472 1.363 . S
C1474 C1475 1.370 . S
C1474 C1478 1.524 . S
C1475 C1467 1.503 . S
C1475 C1474 1.370 . S
C1475 C1476 1.403 . S
C1476 C1475 1.403 . S
C1476 C1477 1.404 . S
C1476 C1479 1.539 . S
C1477 C1473 1.408 . S
C1477 C1476 1.404 . S
C1477 H1489 0.930 . S
C1478 C1474 1.524 . S
C1478 H1490 0.956 . S
C1478 H1491 0.961 . S
C1478 H1492 0.961 . S
C1479 C1476 1.539 . S
C1479 H1493 0.958 . S
C1479 H1494 0.961 . S
C1479 H1495 0.960 . S
H1480 C1464 0.931 . S
H1481 C1469 0.929 . S
H1482 C1470 0.960 . S
H1483 C1470 0.962 . S
H1484 C1470 0.960 . S
H1485 C1471 0.961 . S
H1486 C1471 0.961 . S
H1487 C1471 0.961 . S
H1488 C1472 0.931 . S
H1489 C1477 0.930 . S
H1490 C1478 0.956 . S
H1491 C1478 0.961 . S
H1492 C1478 0.961 . S
H1493 C1479 0.958 . S
H1494 C1479 0.961 . S
H1495 C1479 0.960 . S
C1496 C1497 1.391 . S
C1496 C1498 1.394 . S
C1496 H1512 0.931 . S
C1497 C1496 1.391 . S
C1497 C1501 1.376 . S
C1498 C1496 1.394 . S
C1498 C1499 1.369 . S
C1498 C1502 1.531 . S
C1499 C1498 1.369 . S
C1499 C1500 1.410 . S
C1499 C1507 1.503 . S
C1500 C1499 1.410 . S
C1500 C1501 1.392 . S
C1500 C1503 1.511 . S
C1501 C1497 1.376 . S
C1501 C1500 1.392 . S
C1501 H1513 0.929 . S
C1502 C1498 1.531 . S
C1502 H1514 0.960 . S
C1502 H1515 0.962 . S
C1502 H1516 0.960 . S
C1503 C1500 1.511 . S
C1503 H1517 0.961 . S
C1503 H1518 0.961 . S
C1503 H1519 0.961 . S
C1504 C1505 1.370 . S
C1504 C1506 1.363 . S
C1504 H1520 0.931 . S
C1505 C1504 1.370 . S
C1505 C1509 1.408 . S
C1506 C1504 1.363 . S
C1506 C1507 1.370 . S
C1506 C1510 1.524 . S
C1507 C1499 1.503 . S
C1507 C1506 1.370 . S
C1507 C1508 1.403 . S
C1508 C1507 1.403 . S
C1508 C1509 1.404 . S
C1508 C1511 1.539 . S
C1509 C1505 1.408 . S
C1509 C1508 1.404 . S
C1509 H1521 0.930 . S
C1510 C1506 1.524 . S
C1510 H1522 0.956 . S
C1510 H1523 0.961 . S
C1510 H1524 0.961 . S
C1511 C1508 1.539 . S
C1511 H1525 0.958 . S
C1511 H1526 0.961 . S
C1511 H1527 0.960 . S
H1512 C1496 0.931 . S
H1513 C1501 0.929 . S
H1514 C1502 0.960 . S
H1515 C1502 0.962 . S
H1516 C1502 0.960 . S
H1517 C1503 0.961 . S
H1518 C1503 0.961 . S
H1519 C1503 0.961 . S
H1520 C1504 0.931 . S
H1521 C1509 0.930 . S
H1522 C1510 0.956 . S
H1523 C1510 0.961 . S
H1524 C1510 0.961 . S
H1525 C1511 0.958 . S
H1526 C1511 0.961 . S
H1527 C1511 0.960 . S
C1528 C1529 1.391 . S
C1528 C1530 1.394 . S
C1528 H1544 0.931 . S
C1529 C1528 1.391 . S
C1529 C1533 1.376 . S
C1530 C1528 1.394 . S
C1530 C1531 1.369 . S
C1530 C1534 1.531 . S
C1531 C1530 1.369 . S
C1531 C1532 1.410 . S
C1531 C1539 1.503 . S
C1532 C1531 1.410 . S
C1532 C1533 1.392 . S
C1532 C1535 1.511 . S
C1533 C1529 1.376 . S
C1533 C1532 1.392 . S
C1533 H1545 0.929 . S
C1534 C1530 1.531 . S
C1534 H1546 0.960 . S
C1534 H1547 0.962 . S
C1534 H1548 0.960 . S
C1535 C1532 1.511 . S
C1535 H1549 0.961 . S
C1535 H1550 0.961 . S
C1535 H1551 0.961 . S
C1536 C1537 1.370 . S
C1536 C1538 1.363 . S
C1536 H1552 0.931 . S
C1537 C1536 1.370 . S
C1537 C1541 1.408 . S
C1538 C1536 1.363 . S
C1538 C1539 1.370 . S
C1538 C1542 1.524 . S
C1539 C1531 1.503 . S
C1539 C1538 1.370 . S
C1539 C1540 1.403 . S
C1540 C1539 1.403 . S
C1540 C1541 1.404 . S
C1540 C1543 1.539 . S
C1541 C1537 1.408 . S
C1541 C1540 1.404 . S
C1541 H1553 0.930 . S
C1542 C1538 1.524 . S
C1542 H1554 0.956 . S
C1542 H1555 0.961 . S
C1542 H1556 0.961 . S
C1543 C1540 1.539 . S
C1543 H1557 0.958 . S
C1543 H1558 0.961 . S
C1543 H1559 0.960 . S
H1544 C1528 0.931 . S
H1545 C1533 0.929 . S
H1546 C1534 0.960 . S
H1547 C1534 0.962 . S
H1548 C1534 0.960 . S
H1549 C1535 0.961 . S
H1550 C1535 0.961 . S
H1551 C1535 0.961 . S
H1552 C1536 0.931 . S
H1553 C1541 0.930 . S
H1554 C1542 0.956 . S
H1555 C1542 0.961 . S
H1556 C1542 0.961 . S
H1557 C1543 0.958 . S
H1558 C1543 0.961 . S
H1559 C1543 0.960 . S
C1560 C1561 1.391 . S
C1560 C1562 1.394 . S
C1560 H1576 0.931 . S
C1561 C1560 1.391 . S
C1561 C1565 1.376 . S
C1562 C1560 1.394 . S
C1562 C1563 1.369 . S
C1562 C1566 1.531 . S
C1563 C1562 1.369 . S
C1563 C1564 1.410 . S
C1563 C1571 1.503 . S
C1564 C1563 1.410 . S
C1564 C1565 1.392 . S
C1564 C1567 1.511 . S
C1565 C1561 1.376 . S
C1565 C1564 1.392 . S
C1565 H1577 0.929 . S
C1566 C1562 1.531 . S
C1566 H1578 0.960 . S
C1566 H1579 0.962 . S
C1566 H1580 0.960 . S
C1567 C1564 1.511 . S
C1567 H1581 0.961 . S
C1567 H1582 0.961 . S
C1567 H1583 0.961 . S
C1568 C1569 1.370 . S
C1568 C1570 1.363 . S
C1568 H1584 0.931 . S
C1569 C1568 1.370 . S
C1569 C1573 1.408 . S
C1570 C1568 1.363 . S
C1570 C1571 1.370 . S
C1570 C1574 1.524 . S
C1571 C1563 1.503 . S
C1571 C1570 1.370 . S
C1571 C1572 1.403 . S
C1572 C1571 1.403 . S
C1572 C1573 1.404 . S
C1572 C1575 1.539 . S
C1573 C1569 1.408 . S
C1573 C1572 1.404 . S
C1573 H1585 0.930 . S
C1574 C1570 1.524 . S
C1574 H1586 0.956 . S
C1574 H1587 0.961 . S
C1574 H1588 0.961 . S
C1575 C1572 1.539 . S
C1575 H1589 0.958 . S
C1575 H1590 0.961 . S
C1575 H1591 0.960 . S
H1576 C1560 0.931 . S
H1577 C1565 0.929 . S
H1578 C1566 0.960 . S
H1579 C1566 0.962 . S
H1580 C1566 0.960 . S
H1581 C1567 0.961 . S
H1582 C1567 0.961 . S
H1583 C1567 0.961 . S
H1584 C1568 0.931 . S
H1585 C1573 0.930 . S
H1586 C1574 0.956 . S
H1587 C1574 0.961 . S
H1588 C1574 0.961 . S
H1589 C1575 0.958 . S
H1590 C1575 0.961 . S
H1591 C1575 0.960 . S
C1592 C1593 1.391 . S
C1592 C1594 1.394 . S
C1592 H1608 0.931 . S
C1593 C1592 1.391 . S
C1593 C1597 1.376 . S
C1594 C1592 1.394 . S
C1594 C1595 1.369 . S
C1594 C1598 1.531 . S
C1595 C1594 1.369 . S
C1595 C1596 1.410 . S
C1595 C1603 1.503 . S
C1596 C1595 1.410 . S
C1596 C1597 1.392 . S
C1596 C1599 1.511 . S
C1597 C1593 1.376 . S
C1597 C1596 1.392 . S
C1597 H1609 0.929 . S
C1598 C1594 1.531 . S
C1598 H1610 0.960 . S
C1598 H1611 0.962 . S
C1598 H1612 0.960 . S
C1599 C1596 1.511 . S
C1599 H1613 0.961 . S
C1599 H1614 0.961 . S
C1599 H1615 0.961 . S
C1600 C1601 1.370 . S
C1600 C1602 1.363 . S
C1600 H1616 0.931 . S
C1601 C1600 1.370 . S
C1601 C1605 1.408 . S
C1602 C1600 1.363 . S
C1602 C1603 1.370 . S
C1602 C1606 1.524 . S
C1603 C1595 1.503 . S
C1603 C1602 1.370 . S
C1603 C1604 1.403 . S
C1604 C1603 1.403 . S
C1604 C1605 1.404 . S
C1604 C1607 1.539 . S
C1605 C1601 1.408 . S
C1605 C1604 1.404 . S
C1605 H1617 0.930 . S
C1606 C1602 1.524 . S
C1606 H1618 0.956 . S
C1606 H1619 0.961 . S
C1606 H1620 0.961 . S
C1607 C1604 1.539 . S
C1607 H1621 0.958 . S
C1607 H1622 0.961 . S
C1607 H1623 0.960 . S
H1608 C1592 0.931 . S
H1609 C1597 0.929 . S
H1610 C1598 0.960 . S
H1611 C1598 0.962 . S
H1612 C1598 0.960 . S
H1613 C1599 0.961 . S
H1614 C1599 0.961 . S
H1615 C1599 0.961 . S
H1616 C1600 0.931 . S
H1617 C1605 0.930 . S
H1618 C1606 0.956 . S
H1619 C1606 0.961 . S
H1620 C1606 0.961 . S
H1621 C1607 0.958 . S
H1622 C1607 0.961 . S
H1623 C1607 0.960 . S
C1624 C1625 1.391 . S
C1624 C1626 1.394 . S
C1624 H1640 0.931 . S
C1625 C1624 1.391 . S
C1625 C1629 1.376 . S
C1626 C1624 1.394 . S
C1626 C1627 1.369 . S
C1626 C1630 1.531 . S
C1627 C1626 1.369 . S
C1627 C1628 1.410 . S
C1627 C1635 1.503 . S
C1628 C1627 1.410 . S
C1628 C1629 1.392 . S
C1628 C1631 1.511 . S
C1629 C1625 1.376 . S
C1629 C1628 1.392 . S
C1629 H1641 0.929 . S
C1630 C1626 1.531 . S
C1630 H1642 0.960 . S
C1630 H1643 0.962 . S
C1630 H1644 0.960 . S
C1631 C1628 1.511 . S
C1631 H1645 0.961 . S
C1631 H1646 0.961 . S
C1631 H1647 0.961 . S
C1632 C1633 1.370 . S
C1632 C1634 1.363 . S
C1632 H1648 0.931 . S
C1633 C1632 1.370 . S
C1633 C1637 1.408 . S
C1634 C1632 1.363 . S
C1634 C1635 1.370 . S
C1634 C1638 1.524 . S
C1635 C1627 1.503 . S
C1635 C1634 1.370 . S
C1635 C1636 1.403 . S
C1636 C1635 1.403 . S
C1636 C1637 1.404 . S
C1636 C1639 1.539 . S
C1637 C1633 1.408 . S
C1637 C1636 1.404 . S
C1637 H1649 0.930 . S
C1638 C1634 1.524 . S
C1638 H1650 0.956 . S
C1638 H1651 0.961 . S
C1638 H1652 0.961 . S
C1639 C1636 1.539 . S
C1639 H1653 0.958 . S
C1639 H1654 0.961 . S
C1639 H1655 0.960 . S
H1640 C1624 0.931 . S
H1641 C1629 0.929 . S
H1642 C1630 0.960 . S
H1643 C1630 0.962 . S
H1644 C1630 0.960 . S
H1645 C1631 0.961 . S
H1646 C1631 0.961 . S
H1647 C1631 0.961 . S
H1648 C1632 0.931 . S
H1649 C1637 0.930 . S
H1650 C1638 0.956 . S
H1651 C1638 0.961 . S
H1652 C1638 0.961 . S
H1653 C1639 0.958 . S
H1654 C1639 0.961 . S
H1655 C1639 0.960 . S
C1656 C1657 1.391 . S
C1656 C1658 1.394 . S
C1656 H1672 0.931 . S
C1657 C1656 1.391 . S
C1657 C1661 1.376 . S
C1658 C1656 1.394 . S
C1658 C1659 1.369 . S
C1658 C1662 1.531 . S
C1659 C1658 1.369 . S
C1659 C1660 1.410 . S
C1659 C1667 1.503 . S
C1660 C1659 1.410 . S
C1660 C1661 1.392 . S
C1660 C1663 1.511 . S
C1661 C1657 1.376 . S
C1661 C1660 1.392 . S
C1661 H1673 0.929 . S
C1662 C1658 1.531 . S
C1662 H1674 0.960 . S
C1662 H1675 0.962 . S
C1662 H1676 0.960 . S
C1663 C1660 1.511 . S
C1663 H1677 0.961 . S
C1663 H1678 0.961 . S
C1663 H1679 0.961 . S
C1664 C1665 1.370 . S
C1664 C1666 1.363 . S
C1664 H1680 0.931 . S
C1665 C1664 1.370 . S
C1665 C1669 1.408 . S
C1666 C1664 1.363 . S
C1666 C1667 1.370 . S
C1666 C1670 1.524 . S
C1667 C1659 1.503 . S
C1667 C1666 1.370 . S
C1667 C1668 1.403 . S
C1668 C1667 1.403 . S
C1668 C1669 1.404 . S
C1668 C1671 1.539 . S
C1669 C1665 1.408 . S
C1669 C1668 1.404 . S
C1669 H1681 0.930 . S
C1670 C1666 1.524 . S
C1670 H1682 0.956 . S
C1670 H1683 0.961 . S
C1670 H1684 0.961 . S
C1671 C1668 1.539 . S
C1671 H1685 0.958 . S
C1671 H1686 0.961 . S
C1671 H1687 0.960 . S
H1672 C1656 0.931 . S
H1673 C1661 0.929 . S
H1674 C1662 0.960 . S
H1675 C1662 0.962 . S
H1676 C1662 0.960 . S
H1677 C1663 0.961 . S
H1678 C1663 0.961 . S
H1679 C1663 0.961 . S
H1680 C1664 0.931 . S
H1681 C1669 0.930 . S
H1682 C1670 0.956 . S
H1683 C1670 0.961 . S
H1684 C1670 0.961 . S
H1685 C1671 0.958 . S
H1686 C1671 0.961 . S
H1687 C1671 0.960 . S
C1688 C1689 1.391 . S
C1688 C1690 1.394 . S
C1688 H1704 0.931 . S
C1689 C1688 1.391 . S
C1689 C1693 1.376 . S
C1690 C1688 1.394 . S
C1690 C1691 1.369 . S
C1690 C1694 1.531 . S
C1691 C1690 1.369 . S
C1691 C1692 1.410 . S
C1691 C1699 1.503 . S
C1692 C1691 1.410 . S
C1692 C1693 1.392 . S
C1692 C1695 1.511 . S
C1693 C1689 1.376 . S
C1693 C1692 1.392 . S
C1693 H1705 0.929 . S
C1694 C1690 1.531 . S
C1694 H1706 0.960 . S
C1694 H1707 0.962 . S
C1694 H1708 0.960 . S
C1695 C1692 1.511 . S
C1695 H1709 0.961 . S
C1695 H1710 0.961 . S
C1695 H1711 0.961 . S
C1696 C1697 1.370 . S
C1696 C1698 1.363 . S
C1696 H1712 0.931 . S
C1697 C1696 1.370 . S
C1697 C1701 1.408 . S
C1698 C1696 1.363 . S
C1698 C1699 1.370 . S
C1698 C1702 1.524 . S
C1699 C1691 1.503 . S
C1699 C1698 1.370 . S
C1699 C1700 1.403 . S
C1700 C1699 1.403 . S
C1700 C1701 1.404 . S
C1700 C1703 1.539 . S
C1701 C1697 1.408 . S
C1701 C1700 1.404 . S
C1701 H1713 0.930 . S
C1702 C1698 1.524 . S
C1702 H1714 0.956 . S
C1702 H1715 0.961 . S
C1702 H1716 0.961 . S
C1703 C1700 1.539 . S
C1703 H1717 0.958 . S
C1703 H1718 0.961 . S
C1703 H1719 0.960 . S
H1704 C1688 0.931 . S
H1705 C1693 0.929 . S
H1706 C1694 0.960 . S
H1707 C1694 0.962 . S
H1708 C1694 0.960 . S
H1709 C1695 0.961 . S
H1710 C1695 0.961 . S
H1711 C1695 0.961 . S
H1712 C1696 0.931 . S
H1713 C1701 0.930 . S
H1714 C1702 0.956 . S
H1715 C1702 0.961 . S
H1716 C1702 0.961 . S
H1717 C1703 0.958 . S
H1718 C1703 0.961 . S
H1719 C1703 0.960 . S
C1720 C1721 1.391 . S
C1720 C1722 1.394 . S
C1720 H1736 0.931 . S
C1721 C1720 1.391 . S
C1721 C1725 1.376 . S
C1722 C1720 1.394 . S
C1722 C1723 1.369 . S
C1722 C1726 1.531 . S
C1723 C1722 1.369 . S
C1723 C1724 1.410 . S
C1723 C1731 1.503 . S
C1724 C1723 1.410 . S
C1724 C1725 1.392 . S
C1724 C1727 1.511 . S
C1725 C1721 1.376 . S
C1725 C1724 1.392 . S
C1725 H1737 0.929 . S
C1726 C1722 1.531 . S
C1726 H1738 0.960 . S
C1726 H1739 0.962 . S
C1726 H1740 0.960 . S
C1727 C1724 1.511 . S
C1727 H1741 0.961 . S
C1727 H1742 0.961 . S
C1727 H1743 0.961 . S
C1728 C1729 1.370 . S
C1728 C1730 1.363 . S
C1728 H1744 0.931 . S
C1729 C1728 1.370 . S
C1729 C1733 1.408 . S
C1730 C1728 1.363 . S
C1730 C1731 1.370 . S
C1730 C1734 1.524 . S
C1731 C1723 1.503 . S
C1731 C1730 1.370 . S
C1731 C1732 1.403 . S
C1732 C1731 1.403 . S
C1732 C1733 1.404 . S
C1732 C1735 1.539 . S
C1733 C1729 1.408 . S
C1733 C1732 1.404 . S
C1733 H1745 0.930 . S
C1734 C1730 1.524 . S
C1734 H1746 0.956 . S
C1734 H1747 0.961 . S
C1734 H1748 0.961 . S
C1735 C1732 1.539 . S
C1735 H1749 0.958 . S
C1735 H1750 0.961 . S
C1735 H1751 0.960 . S
H1736 C1720 0.931 . S
H1737 C1725 0.929 . S
H1738 C1726 0.960 . S
H1739 C1726 0.962 . S
H1740 C1726 0.960 . S
H1741 C1727 0.961 . S
H1742 C1727 0.961 . S
H1743 C1727 0.961 . S
H1744 C1728 0.931 . S
H1745 C1733 0.930 . S
H1746 C1734 0.956 . S
H1747 C1734 0.961 . S
H1748 C1734 0.961 . S
H1749 C1735 0.958 . S
H1750 C1735 0.961 . S
H1751 C1735 0.960 . S
C1752 C1753 1.391 . S
C1752 C1754 1.394 . S
C1752 H1768 0.931 . S
C1753 C1752 1.391 . S
C1753 C1757 1.376 . S
C1754 C1752 1.394 . S
C1754 C1755 1.369 . S
C1754 C1758 1.531 . S
C1755 C1754 1.369 . S
C1755 C1756 1.410 . S
C1755 C1763 1.503 . S
C1756 C1755 1.410 . S
C1756 C1757 1.392 . S
C1756 C1759 1.511 . S
C1757 C1753 1.376 . S
C1757 C1756 1.392 . S
C1757 H1769 0.929 . S
C1758 C1754 1.531 . S
C1758 H1770 0.960 . S
C1758 H1771 0.962 . S
C1758 H1772 0.960 . S
C1759 C1756 1.511 . S
C1759 H1773 0.961 . S
C1759 H1774 0.961 . S
C1759 H1775 0.961 . S
C1760 C1761 1.370 . S
C1760 C1762 1.363 . S
C1760 H1776 0.931 . S
C1761 C1760 1.370 . S
C1761 C1765 1.408 . S
C1762 C1760 1.363 . S
C1762 C1763 1.370 . S
C1762 C1766 1.524 . S
C1763 C1755 1.503 . S
C1763 C1762 1.370 . S
C1763 C1764 1.403 . S
C1764 C1763 1.403 . S
C1764 C1765 1.404 . S
C1764 C1767 1.539 . S
C1765 C1761 1.408 . S
C1765 C1764 1.404 . S
C1765 H1777 0.930 . S
C1766 C1762 1.524 . S
C1766 H1778 0.956 . S
C1766 H1779 0.961 . S
C1766 H1780 0.961 . S
C1767 C1764 1.539 . S
C1767 H1781 0.958 . S
C1767 H1782 0.961 . S
C1767 H1783 0.960 . S
H1768 C1752 0.931 . S
H1769 C1757 0.929 . S
H1770 C1758 0.960 . S
H1771 C1758 0.962 . S
H1772 C1758 0.960 . S
H1773 C1759 0.961 . S
H1774 C1759 0.961 . S
H1775 C1759 0.961 . S
H1776 C1760 0.931 . S
H1777 C1765 0.930 . S
H1778 C1766 0.956 . S
H1779 C1766 0.961 . S
H1780 C1766 0.961 . S
H1781 C1767 0.958 . S
H1782 C1767 0.961 . S
H1783 C1767 0.960 . S
C1784 C1785 1.391 . S
C1784 C1786 1.394 . S
C1784 H1800 0.931 . S
C1785 C1784 1.391 . S
C1785 C1789 1.376 . S
C1786 C1784 1.394 . S
C1786 C1787 1.369 . S
C1786 C1790 1.531 . S
C1787 C1786 1.369 . S
C1787 C1788 1.410 . S
C1787 C1795 1.503 . S
C1788 C1787 1.410 . S
C1788 C1789 1.392 . S
C1788 C1791 1.511 . S
C1789 C1785 1.376 . S
C1789 C1788 1.392 . S
C1789 H1801 0.929 . S
C1790 C1786 1.531 . S
C1790 H1802 0.960 . S
C1790 H1803 0.962 . S
C1790 H1804 0.960 . S
C1791 C1788 1.511 . S
C1791 H1805 0.961 . S
C1791 H1806 0.961 . S
C1791 H1807 0.961 . S
C1792 C1793 1.370 . S
C1792 C1794 1.363 . S
C1792 H1808 0.931 . S
C1793 C1792 1.370 . S
C1793 C1797 1.408 . S
C1794 C1792 1.363 . S
C1794 C1795 1.370 . S
C1794 C1798 1.524 . S
C1795 C1787 1.503 . S
C1795 C1794 1.370 . S
C1795 C1796 1.403 . S
C1796 C1795 1.403 . S
C1796 C1797 1.404 . S
C1796 C1799 1.539 . S
C1797 C1793 1.408 . S
C1797 C1796 1.404 . S
C1797 H1809 0.930 . S
C1798 C1794 1.524 . S
C1798 H1810 0.956 . S
C1798 H1811 0.961 . S
C1798 H1812 0.961 . S
C1799 C1796 1.539 . S
C1799 H1813 0.958 . S
C1799 H1814 0.961 . S
C1799 H1815 0.960 . S
H1800 C1784 0.931 . S
H1801 C1789 0.929 . S
H1802 C1790 0.960 . S
H1803 C1790 0.962 . S
H1804 C1790 0.960 . S
H1805 C1791 0.961 . S
H1806 C1791 0.961 . S
H1807 C1791 0.961 . S
H1808 C1792 0.931 . S
H1809 C1797 0.930 . S
H1810 C1798 0.956 . S
H1811 C1798 0.961 . S
H1812 C1798 0.961 . S
H1813 C1799 0.958 . S
H1814 C1799 0.961 . S
H1815 C1799 0.960 . S
C1816 C1817 1.391 . S
C1816 C1818 1.394 . S
C1816 H1832 0.931 . S
C1817 C1816 1.391 . S
C1817 C1821 1.376 . S
C1818 C1816 1.394 . S
C1818 C1819 1.369 . S
C1818 C1822 1.531 . S
C1819 C1818 1.369 . S
C1819 C1820 1.410 . S
C1819 C1827 1.503 . S
C1820 C1819 1.410 . S
C1820 C1821 1.392 . S
C1820 C1823 1.511 . S
C1821 C1817 1.376 . S
C1821 C1820 1.392 . S
C1821 H1833 0.929 . S
C1822 C1818 1.531 . S
C1822 H1834 0.960 . S
C1822 H1835 0.962 . S
C1822 H1836 0.960 . S
C1823 C1820 1.511 . S
C1823 H1837 0.961 . S
C1823 H1838 0.961 . S
C1823 H1839 0.961 . S
C1824 C1825 1.370 . S
C1824 C1826 1.363 . S
C1824 H1840 0.931 . S
C1825 C1824 1.370 . S
C1825 C1829 1.408 . S
C1826 C1824 1.363 . S
C1826 C1827 1.370 . S
C1826 C1830 1.524 . S
C1827 C1819 1.503 . S
C1827 C1826 1.370 . S
C1827 C1828 1.403 . S
C1828 C1827 1.403 . S
C1828 C1829 1.404 . S
C1828 C1831 1.539 . S
C1829 C1825 1.408 . S
C1829 C1828 1.404 . S
C1829 H1841 0.930 . S
C1830 C1826 1.524 . S
C1830 H1842 0.956 . S
C1830 H1843 0.961 . S
C1830 H1844 0.961 . S
C1831 C1828 1.539 . S
C1831 H1845 0.958 . S
C1831 H1846 0.961 . S
C1831 H1847 0.960 . S
H1832 C1816 0.931 . S
H1833 C1821 0.929 . S
H1834 C1822 0.960 . S
H1835 C1822 0.962 . S
H1836 C1822 0.960 . S
H1837 C1823 0.961 . S
H1838 C1823 0.961 . S
H1839 C1823 0.961 . S
H1840 C1824 0.931 . S
H1841 C1829 0.930 . S
H1842 C1830 0.956 . S
H1843 C1830 0.961 . S
H1844 C1830 0.961 . S
H1845 C1831 0.958 . S
H1846 C1831 0.961 . S
H1847 C1831 0.960 . S
C313 C290 1.569 . S
C321 C5 1.602 . S
C345 C17 1.598 . S
C353 C213 1.586 . S
C377 C309 1.552 . S
C385 C29 1.608 . S
C409 C278 1.614 . S
C417 C44 1.584 . S
C441 C239 1.578 . S
C449 C55 1.602 . S
C473 C257 1.587 . S
C481 C68 1.593 . S
C505 C265 1.616 . S
C513 C88 1.573 . S
C537 C94 1.582 . S
C545 C225 1.592 . S
C569 C173 1.587 . S
C577 C114 1.589 . S
C601 C185 1.562 . S
C609 C120 1.606 . S
C633 C134 1.617 . S
C641 C205 1.577 . S
C665 C146 1.595 . S
C673 C161 1.593 . S
C697 C95 1.574 . S
C705 C186 1.589 . S
C729 C200 1.605 . S
C737 C56 1.583 . S
C761 C69 1.575 . S
C769 C166 1.586 . S
C793 C172 1.575 . S
C801 C83 1.608 . S
C825 C133 1.594 . S
C833 C16 1.601 . S
C857 C30 1.595 . S
C865 C147 1.579 . S
C889 C49 1.615 . S
C897 C109 1.586 . S
C921 C10 1.552 . S
C929 C121 1.598 . S
C953 C270 1.612 . S
C961 C283 1.572 . S
C985 C289 1.612 . S
C993 C224 1.585 . S
C1017 C244 1.609 . S
C1025 C218 1.574 . S
C1049 C304 1.621 . S
C1057 C252 1.586 . S
C1081 C4 0.887 . S
C1089 C108 0.841 . S
C1113 C122 0.930 . S
C1121 C18 0.886 . S
C1145 C36 0.844 . S
C1153 C140 0.881 . S
C1177 C43 0.873 . S
C1185 C148 0.845 . S
C1209 C62 0.820 . S
C1217 C159 0.873 . S
C1241 C75 0.834 . S
C1249 C179 0.842 . S
C1273 C187 0.865 . S
C1281 C81 0.855 . S
C1305 C199 0.861 . S
C1313 C101 0.880 . S
C1337 C107 0.903 . S
C1345 C211 0.857 . S
C1369 C127 0.811 . S
C1377 C303 0.857 . S
C1401 C276 0.835 . S
C1409 C135 0.858 . S
C1433 C296 0.900 . S
C1441 C153 0.850 . S
C1465 C231 0.830 . S
C1473 C160 0.846 . S
C1497 C237 0.912 . S
C1505 C174 0.862 . S
C1529 C192 0.873 . S
C1537 C251 0.842 . S
C1561 C198 0.925 . S
C1569 C263 0.884 . S
C1593 C3 0.870 . S
C1601 C212 0.843 . S
C1625 C226 0.848 . S
C1633 C57 0.899 . S
C1657 C238 0.893 . S
C1665 C70 0.885 . S
C1689 C250 0.865 . S
C1697 C82 0.855 . S
C1721 C264 0.895 . S
C1729 C96 0.845 . S
C1753 C277 0.893 . S
C1761 C31 0.885 . S
C1785 C42 0.904 . S
C1793 C291 0.864 . S
C1817 C302 0.889 . S
C1825 C23 0.857 . S
