# Generated by pormake.
# Topology ukc, (4)-cn, num edge types: 1
# Building blocks:
#     Node 0, Type 0, BuildingBlock: QUQFOY_clean_sbu_3, # of connection points: 4
#     Node 1, Type 0, BuildingBlock: QUQFOY_clean_sbu_3, # of connection points: 4
#     Node 2, Type 0, BuildingBlock: QUQFOY_clean_sbu_3, # of connection points: 4
#     Node 3, Type 0, BuildingBlock: QUQFOY_clean_sbu_3, # of connection points: 4
#     Node 4, Type 0, BuildingBlock: QUQFOY_clean_sbu_3, # of connection points: 4
#     Node 5, Type 0, BuildingBlock: QUQFOY_clean_sbu_3, # of connection points: 4
#     Node 6, Type 0, BuildingBlock: QUQFOY_clean_sbu_3, # of connection points: 4
#     Node 7, Type 0, BuildingBlock: QUQFOY_clean_sbu_3, # of connection points: 4
#     Node 8, Type 0, BuildingBlock: QUQFOY_clean_sbu_3, # of connection points: 4
#     Node 9, Type 0, BuildingBlock: QUQFOY_clean_sbu_3, # of connection points: 4
#     Node 10, Type 0, BuildingBlock: QUQFOY_clean_sbu_3, # of connection points: 4
#     Node 11, Type 0, BuildingBlock: QUQFOY_clean_sbu_3, # of connection points: 4
#     Node 12, Type 0, BuildingBlock: QUQFOY_clean_sbu_3, # of connection points: 4
#     Node 13, Type 0, BuildingBlock: QUQFOY_clean_sbu_3, # of connection points: 4
#     Node 14, Type 0, BuildingBlock: QUQFOY_clean_sbu_3, # of connection points: 4
#     Node 15, Type 0, BuildingBlock: QUQFOY_clean_sbu_3, # of connection points: 4
#     Node 16, Type 0, BuildingBlock: QUQFOY_clean_sbu_3, # of connection points: 4
#     Node 17, Type 0, BuildingBlock: QUQFOY_clean_sbu_3, # of connection points: 4
#     Node 18, Type 0, BuildingBlock: QUQFOY_clean_sbu_3, # of connection points: 4
#     Node 19, Type 0, BuildingBlock: QUQFOY_clean_sbu_3, # of connection points: 4
#     Node 20, Type 0, BuildingBlock: QUQFOY_clean_sbu_3, # of connection points: 4
#     Node 21, Type 0, BuildingBlock: QUQFOY_clean_sbu_3, # of connection points: 4
#     Node 22, Type 0, BuildingBlock: QUQFOY_clean_sbu_3, # of connection points: 4
#     Node 23, Type 0, BuildingBlock: QUQFOY_clean_sbu_3, # of connection points: 4
#     Node 24, Type 0, BuildingBlock: QUQFOY_clean_sbu_3, # of connection points: 4
#     Node 25, Type 0, BuildingBlock: QUQFOY_clean_sbu_3, # of connection points: 4
#     Node 26, Type 0, BuildingBlock: QUQFOY_clean_sbu_3, # of connection points: 4
#     Node 27, Type 0, BuildingBlock: QUQFOY_clean_sbu_3, # of connection points: 4
#     Node 28, Type 0, BuildingBlock: QUQFOY_clean_sbu_3, # of connection points: 4
#     Node 29, Type 0, BuildingBlock: QUQFOY_clean_sbu_3, # of connection points: 4
#     Node 30, Type 0, BuildingBlock: QUQFOY_clean_sbu_3, # of connection points: 4
#     Node 31, Type 0, BuildingBlock: QUQFOY_clean_sbu_3, # of connection points: 4
#     Edge 32, Type (0, 0), BuildingBlock: XIVTED_clean_linker_0, # of connection points: 2
#     Edge 33, Type (0, 0), BuildingBlock: XIVTED_clean_linker_0, # of connection points: 2
#     Edge 34, Type (0, 0), BuildingBlock: XIVTED_clean_linker_0, # of connection points: 2
#     Edge 35, Type (0, 0), BuildingBlock: XIVTED_clean_linker_0, # of connection points: 2
#     Edge 36, Type (0, 0), BuildingBlock: XIVTED_clean_linker_0, # of connection points: 2
#     Edge 37, Type (0, 0), BuildingBlock: XIVTED_clean_linker_0, # of connection points: 2
#     Edge 38, Type (0, 0), BuildingBlock: XIVTED_clean_linker_0, # of connection points: 2
#     Edge 39, Type (0, 0), BuildingBlock: XIVTED_clean_linker_0, # of connection points: 2
#     Edge 40, Type (0, 0), BuildingBlock: XIVTED_clean_linker_0, # of connection points: 2
#     Edge 41, Type (0, 0), BuildingBlock: XIVTED_clean_linker_0, # of connection points: 2
#     Edge 42, Type (0, 0), BuildingBlock: XIVTED_clean_linker_0, # of connection points: 2
#     Edge 43, Type (0, 0), BuildingBlock: XIVTED_clean_linker_0, # of connection points: 2
#     Edge 44, Type (0, 0), BuildingBlock: XIVTED_clean_linker_0, # of connection points: 2
#     Edge 45, Type (0, 0), BuildingBlock: XIVTED_clean_linker_0, # of connection points: 2
#     Edge 46, Type (0, 0), BuildingBlock: XIVTED_clean_linker_0, # of connection points: 2
#     Edge 47, Type (0, 0), BuildingBlock: XIVTED_clean_linker_0, # of connection points: 2
#     Edge 48, Type (0, 0), BuildingBlock: XIVTED_clean_linker_0, # of connection points: 2
#     Edge 49, Type (0, 0), BuildingBlock: XIVTED_clean_linker_0, # of connection points: 2
#     Edge 50, Type (0, 0), BuildingBlock: XIVTED_clean_linker_0, # of connection points: 2
#     Edge 51, Type (0, 0), BuildingBlock: XIVTED_clean_linker_0, # of connection points: 2
#     Edge 52, Type (0, 0), BuildingBlock: XIVTED_clean_linker_0, # of connection points: 2
#     Edge 53, Type (0, 0), BuildingBlock: XIVTED_clean_linker_0, # of connection points: 2
#     Edge 54, Type (0, 0), BuildingBlock: XIVTED_clean_linker_0, # of connection points: 2
#     Edge 55, Type (0, 0), BuildingBlock: XIVTED_clean_linker_0, # of connection points: 2
#     Edge 56, Type (0, 0), BuildingBlock: XIVTED_clean_linker_0, # of connection points: 2
#     Edge 57, Type (0, 0), BuildingBlock: XIVTED_clean_linker_0, # of connection points: 2
#     Edge 58, Type (0, 0), BuildingBlock: XIVTED_clean_linker_0, # of connection points: 2
#     Edge 59, Type (0, 0), BuildingBlock: XIVTED_clean_linker_0, # of connection points: 2
#     Edge 60, Type (0, 0), BuildingBlock: XIVTED_clean_linker_0, # of connection points: 2
#     Edge 61, Type (0, 0), BuildingBlock: XIVTED_clean_linker_0, # of connection points: 2
#     Edge 62, Type (0, 0), BuildingBlock: XIVTED_clean_linker_0, # of connection points: 2
#     Edge 63, Type (0, 0), BuildingBlock: XIVTED_clean_linker_0, # of connection points: 2
#     Edge 64, Type (0, 0), BuildingBlock: XIVTED_clean_linker_0, # of connection points: 2
#     Edge 65, Type (0, 0), BuildingBlock: XIVTED_clean_linker_0, # of connection points: 2
#     Edge 66, Type (0, 0), BuildingBlock: XIVTED_clean_linker_0, # of connection points: 2
#     Edge 67, Type (0, 0), BuildingBlock: XIVTED_clean_linker_0, # of connection points: 2
#     Edge 68, Type (0, 0), BuildingBlock: XIVTED_clean_linker_0, # of connection points: 2
#     Edge 69, Type (0, 0), BuildingBlock: XIVTED_clean_linker_0, # of connection points: 2
#     Edge 70, Type (0, 0), BuildingBlock: XIVTED_clean_linker_0, # of connection points: 2
#     Edge 71, Type (0, 0), BuildingBlock: XIVTED_clean_linker_0, # of connection points: 2
#     Edge 72, Type (0, 0), BuildingBlock: XIVTED_clean_linker_0, # of connection points: 2
#     Edge 73, Type (0, 0), BuildingBlock: XIVTED_clean_linker_0, # of connection points: 2
#     Edge 74, Type (0, 0), BuildingBlock: XIVTED_clean_linker_0, # of connection points: 2
#     Edge 75, Type (0, 0), BuildingBlock: XIVTED_clean_linker_0, # of connection points: 2
#     Edge 76, Type (0, 0), BuildingBlock: XIVTED_clean_linker_0, # of connection points: 2
#     Edge 77, Type (0, 0), BuildingBlock: XIVTED_clean_linker_0, # of connection points: 2
#     Edge 78, Type (0, 0), BuildingBlock: XIVTED_clean_linker_0, # of connection points: 2
#     Edge 79, Type (0, 0), BuildingBlock: XIVTED_clean_linker_0, # of connection points: 2
#     Edge 80, Type (0, 0), BuildingBlock: XIVTED_clean_linker_0, # of connection points: 2
#     Edge 81, Type (0, 0), BuildingBlock: XIVTED_clean_linker_0, # of connection points: 2
#     Edge 82, Type (0, 0), BuildingBlock: XIVTED_clean_linker_0, # of connection points: 2
#     Edge 83, Type (0, 0), BuildingBlock: XIVTED_clean_linker_0, # of connection points: 2
#     Edge 84, Type (0, 0), BuildingBlock: XIVTED_clean_linker_0, # of connection points: 2
#     Edge 85, Type (0, 0), BuildingBlock: XIVTED_clean_linker_0, # of connection points: 2
#     Edge 86, Type (0, 0), BuildingBlock: XIVTED_clean_linker_0, # of connection points: 2
#     Edge 87, Type (0, 0), BuildingBlock: XIVTED_clean_linker_0, # of connection points: 2
#     Edge 88, Type (0, 0), BuildingBlock: XIVTED_clean_linker_0, # of connection points: 2
#     Edge 89, Type (0, 0), BuildingBlock: XIVTED_clean_linker_0, # of connection points: 2
#     Edge 90, Type (0, 0), BuildingBlock: XIVTED_clean_linker_0, # of connection points: 2
#     Edge 91, Type (0, 0), BuildingBlock: XIVTED_clean_linker_0, # of connection points: 2
#     Edge 92, Type (0, 0), BuildingBlock: XIVTED_clean_linker_0, # of connection points: 2
#     Edge 93, Type (0, 0), BuildingBlock: XIVTED_clean_linker_0, # of connection points: 2
#     Edge 94, Type (0, 0), BuildingBlock: XIVTED_clean_linker_0, # of connection points: 2
#     Edge 95, Type (0, 0), BuildingBlock: XIVTED_clean_linker_0, # of connection points: 2
# Relax obj value: 0.042
# Max RMSD: 0.063
# Mean RMSD: 0.063
data_MOF--net-ukc--node1-QUQFOY_clean_sbu_3--edge1-XIVTED_clean_linker_0
_symmetry_space_group_name_H-M    P1
_symmetry_Int_Tables_number       1
_symmetry_cell_setting            triclinic
loop_
_symmetry_equiv_pos_as_xyz
'x, y, z'
_cell_length_a     46.323572
_cell_length_b     46.178205
_cell_length_c     90.249243
_cell_angle_alpha  89.840233
_cell_angle_beta   90.026066
_cell_angle_gamma 89.971804
loop_
_atom_site_label
_atom_site_type_symbol
_atom_site_fract_x
_atom_site_fract_y
_atom_site_fract_z
_atom_type_partial_charge
C0 C 0.08571 0.39865 0.06522 0.0
O1 O 0.06036 0.40909 0.06463 0.0
Cd2 Cd 0.0321 0.40672 0.04257 0.0
O3 O 0.09684 0.38625 0.05401 0.0
Cd4 Cd 0.0863 0.37468 0.0281 0.0
C5 C 0.0293 0.33312 0.03769 0.0
O6 O 0.06708 0.42234 0.02468 0.0
O7 O 0.06358 0.39465 0.00562 0.0
O8 O 0.13835 0.37813 0.02726 0.0
C9 C 0.06036 0.41958 0.01121 0.0
O10 O 0.01551 0.35625 0.04065 0.0
C11 C 0.14142 0.36028 0.01673 0.0
O12 O 0.05551 0.33407 0.03359 0.0
O13 O 0.11874 0.34873 0.01152 0.0
C14 C 0.82365 0.84537 0.3151 0.0
O15 O 0.81425 0.81954 0.3156 0.0
Cd16 Cd 0.81934 0.7864 0.29549 0.0
O17 O 0.83652 0.85498 0.30363 0.0
Cd18 Cd 0.85074 0.84097 0.27842 0.0
C19 C 0.89353 0.78731 0.29168 0.0
O20 O 0.80583 0.81684 0.27529 0.0
O21 O 0.83457 0.8126 0.25674 0.0
O22 O 0.84428 0.89246 0.27471 0.0
C23 C 0.81024 0.80696 0.26247 0.0
O24 O 0.87084 0.77309 0.295 0.0
C25 C 0.86401 0.89488 0.26504 0.0
O26 O 0.89186 0.81272 0.28627 0.0
O27 O 0.87757 0.87205 0.26145 0.0
C28 C 0.39163 0.59007 0.55811 0.0
O29 O 0.41633 0.57843 0.55666 0.0
Cd30 Cd 0.44088 0.57538 0.53341 0.0
O31 O 0.37819 0.60029 0.54696 0.0
Cd32 Cd 0.38201 0.60538 0.52003 0.0
C33 C 0.44098 0.64799 0.52393 0.0
O34 O 0.40389 0.55909 0.51718 0.0
O35 O 0.40281 0.58483 0.49727 0.0
O36 O 0.33175 0.59242 0.51923 0.0
C37 C 0.40936 0.56108 0.50351 0.0
O38 O 0.45499 0.62532 0.52762 0.0
C39 C 0.32397 0.61336 0.51102 0.0
O40 O 0.41399 0.64692 0.52132 0.0
O41 O 0.34335 0.63132 0.50714 0.0
C42 C 0.64214 0.15487 0.81035 0.0
O43 O 0.65199 0.18033 0.80864 0.0
Cd44 Cd 0.66353 0.20146 0.78519 0.0
O45 O 0.63607 0.13888 0.79933 0.0
Cd46 Cd 0.63568 0.1432 0.77232 0.0
C47 C 0.5943 0.2043 0.77338 0.0
O48 O 0.68424 0.16135 0.77198 0.0
O49 O 0.66351 0.15876 0.7507 0.0
O50 O 0.63657 0.09054 0.77238 0.0
C51 C 0.68614 0.16403 0.75809 0.0
O52 O 0.61642 0.21914 0.77685 0.0
C53 C 0.61933 0.0883 0.76148 0.0
O54 O 0.59603 0.17701 0.77191 0.0
O55 O 0.60955 0.11156 0.7559 0.0
C56 C 0.09187 0.57133 0.40661 0.0
O57 O 0.0657 0.56348 0.40541 0.0
Cd58 Cd 0.0306 0.57059 0.42446 0.0
O59 O 0.10087 0.58352 0.41836 0.0
Cd60 Cd 0.08295 0.59735 0.44286 0.0
C61 C 0.03363 0.64423 0.42907 0.0
O62 O 0.05482 0.55433 0.44624 0.0
O63 O 0.04861 0.58721 0.46289 0.0
O64 O 0.12725 0.58041 0.45388 0.0
C65 C 0.04341 0.56176 0.45837 0.0
O66 O 0.01872 0.62234 0.42521 0.0
C67 C 0.13415 0.60442 0.45968 0.0
O68 O 0.05847 0.64107 0.43486 0.0
O69 O 0.11725 0.62568 0.45752 0.0
C70 C 0.64502 0.83525 0.66275 0.0
O71 O 0.65683 0.81057 0.66421 0.0
Cd72 Cd 0.66164 0.78599 0.6874 0.0
O73 O 0.6352 0.84881 0.67393 0.0
Cd74 Cd 0.63162 0.84296 0.70086 0.0
C75 C 0.59017 0.78315 0.69678 0.0
O76 O 0.67966 0.82368 0.70305 0.0
O77 O 0.65476 0.82365 0.72315 0.0
O78 O 0.6349 0.89537 0.70156 0.0
C79 C 0.67863 0.81871 0.71681 0.0
O80 O 0.61267 0.76889 0.69324 0.0
C81 C 0.61656 0.89809 0.71193 0.0
O82 O 0.59154 0.81015 0.69931 0.0
O83 O 0.60497 0.87517 0.71691 0.0
C84 C 0.39359 0.39856 0.91929 0.0
O85 O 0.41835 0.41035 0.91996 0.0
Cd86 Cd 0.44556 0.41689 0.94222 0.0
O87 O 0.38093 0.38944 0.93093 0.0
Cd88 Cd 0.38781 0.38705 0.95788 0.0
C89 C 0.44798 0.3456 0.95337 0.0
O90 O 0.40875 0.4341 0.95838 0.0
O91 O 0.40778 0.41266 0.97949 0.0
O92 O 0.33558 0.39031 0.95895 0.0
C93 C 0.4148 0.4348 0.972 0.0
O94 O 0.46183 0.3677 0.94875 0.0
C95 C 0.33311 0.37177 0.9693 0.0
O96 O 0.42133 0.34729 0.95662 0.0
O97 O 0.35614 0.3605 0.97431 0.0
C98 C 0.8298 0.1386 0.16527 0.0
O99 O 0.82017 0.16437 0.16539 0.0
Cd100 Cd 0.82349 0.19494 0.18656 0.0
O101 O 0.84236 0.1279 0.17659 0.0
Cd102 Cd 0.85562 0.1398 0.20224 0.0
C103 C 0.89736 0.19613 0.19145 0.0
O104 O 0.80934 0.1613 0.2053 0.0
O105 O 0.83668 0.1649 0.22443 0.0
O106 O 0.8511 0.08769 0.20419 0.0
C107 C 0.81231 0.16956 0.21851 0.0
O108 O 0.87434 0.20989 0.18821 0.0
C109 C 0.86948 0.08497 0.21452 0.0
O110 O 0.89635 0.17007 0.19601 0.0
O111 O 0.88165 0.10785 0.21914 0.0
C112 C 0.89107 0.58149 0.9105 0.0
O113 O 0.91692 0.57289 0.90881 0.0
Cd114 Cd 0.95422 0.57905 0.92679 0.0
O115 O 0.88318 0.59406 0.92236 0.0
Cd116 Cd 0.90241 0.60747 0.94674 0.0
C117 C 0.95199 0.65306 0.93192 0.0
O118 O 0.93029 0.5645 0.94876 0.0
O119 O 0.93749 0.59507 0.96639 0.0
O120 O 0.85851 0.59003 0.95776 0.0
C121 C 0.9428 0.57046 0.9608 0.0
O122 O 0.96581 0.63083 0.9275 0.0
C123 C 0.85154 0.61366 0.96392 0.0
O124 O 0.92776 0.65056 0.93845 0.0
O125 O 0.86833 0.63512 0.96204 0.0
C126 C 0.15994 0.13785 0.66138 0.0
O127 O 0.17115 0.16294 0.66191 0.0
Cd128 Cd 0.16727 0.19383 0.68305 0.0
O129 O 0.14654 0.12741 0.67247 0.0
Cd130 Cd 0.13385 0.13792 0.69821 0.0
C131 C 0.0929 0.19429 0.68657 0.0
O132 O 0.17799 0.16209 0.70303 0.0
O133 O 0.14681 0.16532 0.72065 0.0
O134 O 0.14779 0.08886 0.70305 0.0
C135 C 0.17184 0.17122 0.71582 0.0
O136 O 0.11623 0.20793 0.68381 0.0
C137 C 0.12515 0.08178 0.71008 0.0
O138 O 0.09329 0.16817 0.69115 0.0
O139 O 0.10573 0.10104 0.71152 0.0
C140 C 0.59824 0.41637 0.40844 0.0
O141 O 0.57236 0.42546 0.40801 0.0
Cd142 Cd 0.53843 0.42018 0.42773 0.0
O143 O 0.60814 0.40375 0.41994 0.0
Cd144 Cd 0.59384 0.39038 0.44526 0.0
C145 C 0.54131 0.34583 0.43247 0.0
O146 O 0.56655 0.43323 0.44856 0.0
O147 O 0.56205 0.40249 0.46637 0.0
O148 O 0.64048 0.40664 0.45339 0.0
C149 C 0.55559 0.42704 0.46096 0.0
O150 O 0.52692 0.36834 0.42889 0.0
C151 C 0.6473 0.38349 0.46014 0.0
O152 O 0.5667 0.34785 0.4378 0.0
O153 O 0.62919 0.36283 0.45982 0.0
C154 C 0.33417 0.85235 0.16565 0.0
O155 O 0.32304 0.82722 0.16614 0.0
Cd156 Cd 0.32405 0.79723 0.18766 0.0
O157 O 0.34658 0.86315 0.17695 0.0
Cd158 Cd 0.35691 0.85185 0.20303 0.0
C159 C 0.39768 0.79437 0.19313 0.0
O160 O 0.31011 0.83122 0.20615 0.0
O161 O 0.3378 0.82674 0.22512 0.0
O162 O 0.35259 0.90386 0.20537 0.0
C163 C 0.31322 0.82266 0.21934 0.0
O164 O 0.37447 0.78098 0.1899 0.0
C165 C 0.37148 0.90605 0.2155 0.0
O166 O 0.39709 0.82057 0.1974 0.0
O167 O 0.38387 0.88294 0.21974 0.0
C168 C 0.88376 0.41272 0.56885 0.0
O169 O 0.90951 0.42209 0.56841 0.0
Cd170 Cd 0.93972 0.41704 0.54714 0.0
O171 O 0.87275 0.39981 0.55777 0.0
Cd172 Cd 0.88474 0.38659 0.53222 0.0
C173 C 0.94008 0.34309 0.54228 0.0
O174 O 0.90874 0.43155 0.5274 0.0
O175 O 0.91258 0.39979 0.51005 0.0
O176 O 0.83647 0.40144 0.52618 0.0
C177 C 0.9173 0.42536 0.51451 0.0
O178 O 0.95402 0.36611 0.5453 0.0
C179 C 0.82965 0.37882 0.51908 0.0
O180 O 0.91379 0.34425 0.5382 0.0
O181 O 0.84844 0.35881 0.51837 0.0
C182 C 0.31874 0.14057 0.31844 0.0
O183 O 0.30906 0.16632 0.31862 0.0
Cd184 Cd 0.31418 0.19911 0.29825 0.0
O185 O 0.33204 0.13084 0.30716 0.0
Cd186 Cd 0.34671 0.14512 0.28206 0.0
C187 C 0.38826 0.19961 0.29517 0.0
O188 O 0.30149 0.16852 0.27801 0.0
O189 O 0.33171 0.17332 0.26011 0.0
O190 O 0.34165 0.09361 0.27785 0.0
C191 C 0.30678 0.17838 0.26524 0.0
O192 O 0.36533 0.21383 0.298 0.0
C193 C 0.36224 0.09209 0.26861 0.0
O194 O 0.38701 0.17394 0.29018 0.0
O195 O 0.37559 0.11534 0.26556 0.0
C196 C 0.59906 0.58143 0.0632 0.0
O197 O 0.57417 0.57009 0.06209 0.0
Cd198 Cd 0.54582 0.57139 0.04007 0.0
O199 O 0.61107 0.59368 0.05214 0.0
Cd200 Cd 0.6042 0.60344 0.02554 0.0
C201 C 0.54676 0.64573 0.03412 0.0
O202 O 0.58063 0.55894 0.02204 0.0
O203 O 0.57892 0.5865 0.00285 0.0
O204 O 0.65391 0.58963 0.02288 0.0
C205 C 0.57228 0.56255 0.00886 0.0
O206 O 0.53284 0.62272 0.03733 0.0
C207 C 0.66144 0.61153 0.0153 0.0
O208 O 0.57317 0.64475 0.03023 0.0
O209 O 0.64209 0.63029 0.01245 0.0
C210 C 0.1602 0.84933 0.81648 0.0
O211 O 0.16903 0.82337 0.81767 0.0
Cd212 Cd 0.16216 0.7875 0.79894 0.0
O213 O 0.14709 0.85787 0.80487 0.0
Cd214 Cd 0.13235 0.84073 0.78034 0.0
C215 C 0.08802 0.78977 0.79486 0.0
O216 O 0.17501 0.81289 0.77704 0.0
O217 O 0.14315 0.80722 0.75987 0.0
O218 O 0.14965 0.88591 0.77074 0.0
C219 C 0.16804 0.80128 0.76491 0.0
O220 O 0.11057 0.7758 0.79868 0.0
C221 C 0.12634 0.89337 0.76442 0.0
O222 O 0.08987 0.81463 0.78878 0.0
O223 O 0.10498 0.87624 0.7656 0.0
C224 C 0.58845 0.89471 0.56119 0.0
O225 O 0.56408 0.90684 0.55937 0.0
Cd226 Cd 0.54165 0.91187 0.53566 0.0
O227 O 0.60272 0.88518 0.55018 0.0
Cd228 Cd 0.6007 0.8825 0.52309 0.0
C229 C 0.54128 0.84005 0.52519 0.0
O230 O 0.57991 0.92955 0.52051 0.0
O231 O 0.58147 0.90481 0.50034 0.0
O232 O 0.65127 0.89473 0.52315 0.0
C233 C 0.57543 0.92849 0.50672 0.0
O234 O 0.52715 0.8626 0.52889 0.0
C235 C 0.65908 0.8743 0.51468 0.0
O236 O 0.56844 0.84111 0.52313 0.0
O237 O 0.6396 0.85693 0.51031 0.0
C238 C 0.33683 0.33556 0.81912 0.0
O239 O 0.32867 0.30936 0.81822 0.0
Cd240 Cd 0.32622 0.28254 0.79559 0.0
O241 O 0.34432 0.34963 0.80761 0.0
Cd242 Cd 0.34799 0.34198 0.78087 0.0
C243 C 0.39657 0.28785 0.78412 0.0
O244 O 0.30374 0.31503 0.77855 0.0
O245 O 0.33087 0.316 0.75912 0.0
O246 O 0.33071 0.39024 0.77525 0.0
C247 C 0.30718 0.30862 0.76505 0.0
O248 O 0.37599 0.27147 0.78831 0.0
C249 C 0.35307 0.39767 0.76805 0.0
O250 O 0.39238 0.31466 0.78173 0.0
O251 O 0.37343 0.37936 0.76719 0.0
C252 C 0.8773 0.07028 0.06825 0.0
O253 O 0.90319 0.06123 0.06847 0.0
Cd254 Cd 0.9362 0.06524 0.0483 0.0
O255 O 0.86678 0.08202 0.05666 0.0
Cd256 Cd 0.8821 0.09276 0.03119 0.0
C257 C 0.93408 0.13885 0.04246 0.0
O258 O 0.90904 0.04886 0.02761 0.0
O259 O 0.91479 0.08166 0.01079 0.0
O260 O 0.83663 0.07665 0.02115 0.0
C261 C 0.91963 0.05604 0.01523 0.0
O262 O 0.94882 0.11668 0.04616 0.0
C263 C 0.83072 0.10035 0.01468 0.0
O264 O 0.90845 0.13623 0.03758 0.0
O265 O 0.8484 0.1211 0.0163 0.0
C266 C 0.15994 0.63939 0.31443 0.0
O267 O 0.16944 0.66514 0.31535 0.0
Cd268 Cd 0.16456 0.69961 0.29573 0.0
O269 O 0.14706 0.63069 0.30279 0.0
Cd270 Cd 0.13303 0.64656 0.27783 0.0
C271 C 0.09043 0.69954 0.29169 0.0
O272 O 0.17826 0.67032 0.27519 0.0
O273 O 0.14978 0.676 0.2566 0.0
O274 O 0.13885 0.59523 0.2737 0.0
C275 C 0.17413 0.68093 0.26247 0.0
O276 O 0.11315 0.71344 0.29527 0.0
C277 C 0.11963 0.59361 0.26372 0.0
O278 O 0.09203 0.67448 0.28594 0.0
O279 O 0.10662 0.61681 0.26016 0.0
C280 C 0.57424 0.09408 0.90958 0.0
O281 O 0.54825 0.08678 0.91205 0.0
Cd282 Cd 0.52876 0.07845 0.93619 0.0
O283 O 0.59177 0.09903 0.92013 0.0
Cd284 Cd 0.59099 0.10055 0.94719 0.0
C285 C 0.53503 0.1479 0.94845 0.0
O286 O 0.56671 0.055 0.94955 0.0
O287 O 0.57177 0.07865 0.96991 0.0
O288 O 0.64114 0.08568 0.948 0.0
C289 C 0.56369 0.05569 0.96345 0.0
O290 O 0.51828 0.12689 0.9454 0.0
C291 C 0.64927 0.10659 0.95609 0.0
O292 O 0.56226 0.14445 0.94874 0.0
O293 O 0.63033 0.12516 0.95967 0.0
C294 C 0.15461 0.34874 0.1634 0.0
O295 O 0.16599 0.32375 0.16425 0.0
Cd296 Cd 0.16453 0.29483 0.18621 0.0
O297 O 0.14204 0.35999 0.17453 0.0
Cd298 Cd 0.13152 0.35043 0.20068 0.0
C299 C 0.09075 0.29263 0.1912 0.0
O300 O 0.17794 0.32922 0.20463 0.0
O301 O 0.14921 0.3262 0.22326 0.0
O302 O 0.13669 0.40246 0.20262 0.0
C303 C 0.17396 0.32127 0.21786 0.0
O304 O 0.11395 0.27891 0.18831 0.0
C305 C 0.11684 0.40541 0.21219 0.0
O306 O 0.09139 0.31903 0.19514 0.0
O307 O 0.10364 0.38271 0.21634 0.0
C308 C 0.88844 0.91365 0.40842 0.0
O309 O 0.91435 0.9223 0.40719 0.0
Cd310 Cd 0.95006 0.91656 0.42606 0.0
O311 O 0.87971 0.90144 0.42027 0.0
Cd312 Cd 0.89806 0.88879 0.44498 0.0
C313 C 0.94798 0.84281 0.43095 0.0
O314 O 0.92542 0.93228 0.44772 0.0
O315 O 0.93275 0.90034 0.46478 0.0
O316 O 0.85346 0.90478 0.45606 0.0
C317 C 0.93746 0.92563 0.45981 0.0
O318 O 0.96244 0.8649 0.42688 0.0
C319 C 0.84736 0.88073 0.46211 0.0
O320 O 0.92334 0.84561 0.437 0.0
O321 O 0.86482 0.85991 0.46005 0.0
C322 C 0.3347 0.64425 0.65958 0.0
O323 O 0.32466 0.66975 0.66068 0.0
Cd324 Cd 0.32224 0.6961 0.68338 0.0
O325 O 0.34365 0.63058 0.67096 0.0
Cd326 Cd 0.34731 0.63772 0.69775 0.0
C327 C 0.3938 0.69313 0.69335 0.0
O328 O 0.30188 0.66234 0.70042 0.0
O329 O 0.32964 0.66301 0.71963 0.0
O330 O 0.3313 0.58872 0.7021 0.0
C331 C 0.30531 0.66881 0.71391 0.0
O332 O 0.37225 0.70856 0.68948 0.0
C333 C 0.35283 0.58161 0.71002 0.0
O334 O 0.39086 0.66628 0.69612 0.0
O335 O 0.37244 0.60048 0.71183 0.0
C336 C 0.38842 0.07933 0.41208 0.0
O337 O 0.41424 0.07033 0.41088 0.0
Cd338 Cd 0.45058 0.07647 0.4294 0.0
O339 O 0.37994 0.09218 0.42376 0.0
Cd340 Cd 0.39713 0.10609 0.44848 0.0
C341 C 0.44788 0.15083 0.43394 0.0
O342 O 0.42527 0.06361 0.45121 0.0
O343 O 0.43116 0.09449 0.4688 0.0
O344 O 0.35236 0.08887 0.4586 0.0
C345 C 0.4374 0.07003 0.46329 0.0
O346 O 0.46183 0.12838 0.42991 0.0
C347 C 0.34492 0.11261 0.46452 0.0
O348 O 0.42328 0.14871 0.44015 0.0
O349 O 0.36194 0.13399 0.46296 0.0
C350 C 0.653 0.63959 0.1633 0.0
O351 O 0.6642 0.66461 0.16433 0.0
Cd352 Cd 0.66358 0.69278 0.18642 0.0
O353 O 0.64065 0.62775 0.17438 0.0
Cd354 Cd 0.63047 0.63684 0.20068 0.0
C355 C 0.59006 0.69556 0.19194 0.0
O356 O 0.67726 0.65722 0.20429 0.0
O357 O 0.64951 0.66006 0.22328 0.0
O358 O 0.63443 0.58458 0.20269 0.0
C359 C 0.67409 0.66474 0.21762 0.0
O360 O 0.6133 0.7092 0.18902 0.0
C361 C 0.61464 0.58213 0.21234 0.0
O362 O 0.5906 0.66897 0.19562 0.0
O363 O 0.60207 0.60517 0.21646 0.0
C364 C 0.10326 0.91992 0.90971 0.0
O365 O 0.07742 0.92906 0.90915 0.0
Cd366 Cd 0.0435 0.92247 0.92883 0.0
O367 O 0.11262 0.9067 0.92114 0.0
Cd368 Cd 0.0966 0.89222 0.94591 0.0
C369 C 0.04465 0.84829 0.9323 0.0
O370 O 0.07008 0.93574 0.95034 0.0
O371 O 0.06398 0.90218 0.96671 0.0
O372 O 0.14253 0.90764 0.95541 0.0
C373 C 0.05906 0.92795 0.96252 0.0
O374 O 0.03033 0.87103 0.9291 0.0
C375 C 0.14902 0.88375 0.96153 0.0
O376 O 0.07 0.84999 0.93767 0.0
O377 O 0.13113 0.86308 0.96018 0.0
C378 C 0.82857 0.35264 0.66478 0.0
O379 O 0.81971 0.32667 0.66379 0.0
Cd380 Cd 0.8275 0.28979 0.6819 0.0
O381 O 0.84218 0.36134 0.6762 0.0
Cd382 Cd 0.85789 0.34495 0.70087 0.0
C383 C 0.90213 0.29472 0.6856 0.0
O384 O 0.81741 0.31498 0.70387 0.0
O385 O 0.84851 0.31059 0.72148 0.0
O386 O 0.83876 0.38908 0.71064 0.0
C387 C 0.82476 0.30266 0.71578 0.0
O388 O 0.8796 0.28071 0.68179 0.0
C389 C 0.86197 0.39769 0.71664 0.0
O390 O 0.90032 0.31928 0.69196 0.0
O391 O 0.88412 0.38163 0.71524 0.0
C392 C 0.39368 0.90525 0.06663 0.0
O393 O 0.4194 0.91472 0.06602 0.0
Cd394 Cd 0.44937 0.91156 0.04457 0.0
O395 O 0.38188 0.89351 0.05541 0.0
Cd396 Cd 0.39101 0.88249 0.02926 0.0
C397 C 0.44611 0.8376 0.03824 0.0
O398 O 0.41718 0.92594 0.02558 0.0
O399 O 0.4179 0.89723 0.00684 0.0
O400 O 0.34265 0.89911 0.02483 0.0
C401 C 0.4255 0.92114 0.0125 0.0
O402 O 0.46065 0.86004 0.04168 0.0
C403 C 0.33458 0.8772 0.01747 0.0
O404 O 0.41982 0.83957 0.03421 0.0
O405 O 0.35289 0.85698 0.0157 0.0
C406 C 0.82094 0.64173 0.81756 0.0
O407 O 0.81148 0.66757 0.81756 0.0
Cd408 Cd 0.81829 0.70074 0.79749 0.0
O409 O 0.83468 0.63172 0.80647 0.0
Cd410 Cd 0.85065 0.64377 0.78126 0.0
C411 C 0.893 0.6979 0.79447 0.0
O412 O 0.80835 0.67054 0.77703 0.0
O413 O 0.83853 0.67294 0.75896 0.0
O414 O 0.83558 0.59553 0.77529 0.0
C415 C 0.81443 0.68049 0.76439 0.0
O416 O 0.8701 0.7121 0.79745 0.0
C417 C 0.85866 0.58816 0.76874 0.0
O418 O 0.8918 0.67229 0.78929 0.0
O419 O 0.87869 0.60693 0.76799 0.0
C420 C 0.0967 0.08449 0.56342 0.0
O421 O 0.07165 0.07337 0.56292 0.0
Cd422 Cd 0.04181 0.07684 0.54137 0.0
O423 O 0.10719 0.09762 0.55224 0.0
Cd424 Cd 0.09708 0.10975 0.52635 0.0
C425 C 0.04043 0.15125 0.53682 0.0
O426 O 0.07455 0.06426 0.5221 0.0
O427 O 0.07139 0.09415 0.5038 0.0
O428 O 0.14655 0.09618 0.52302 0.0
C429 C 0.06642 0.06907 0.50897 0.0
O430 O 0.02717 0.12781 0.53989 0.0
C431 C 0.15383 0.11801 0.51534 0.0
O432 O 0.06652 0.1509 0.53237 0.0
O433 O 0.13447 0.13692 0.51279 0.0
C434 C 0.65475 0.34768 0.31412 0.0
O435 O 0.66407 0.32186 0.31514 0.0
Cd436 Cd 0.65889 0.28714 0.29584 0.0
O437 O 0.64178 0.35641 0.30249 0.0
Cd438 Cd 0.62743 0.3399 0.27766 0.0
C439 C 0.58472 0.28759 0.29216 0.0
O440 O 0.6728 0.31623 0.2752 0.0
O441 O 0.64434 0.30998 0.25668 0.0
O442 O 0.63301 0.3912 0.27316 0.0
C443 C 0.66879 0.30546 0.26255 0.0
O444 O 0.60745 0.27373 0.29581 0.0
C445 C 0.61416 0.39253 0.26298 0.0
O446 O 0.5863 0.31243 0.2861 0.0
O447 O 0.60139 0.3692 0.25951 0.0
H448 H 0.96163 0.51978 0.94905 0.0
H449 H 0.05067 0.47441 0.02102 0.0
H450 H 0.97098 0.57468 0.98741 0.0
H451 H 0.03938 0.41928 0.98289 0.0
H452 H 0.02533 0.51315 0.00803 0.0
H453 H -0.00621 0.48456 0.96044 0.0
C454 C 0.97055 0.52446 0.95988 0.0
C455 C 0.96345 0.55003 0.96739 0.0
C456 C 0.02853 0.49265 0.00247 0.0
C457 C 0.00024 0.50975 0.9805 0.0
C458 C 0.04297 0.47051 0.00987 0.0
C459 C 0.04682 0.44353 0.00305 0.0
C460 C 0.01782 0.4877 0.98817 0.0
C461 C 0.03665 0.43971 -0.01143 0.0
C462 C 0.98896 0.50434 0.96636 0.0
C463 C 0.97582 0.55513 0.9813 0.0
N464 N 0.02241 0.46154 0.98163 0.0
N465 N -0.00648 0.535 0.98748 0.0
H466 H 0.72705 0.67998 0.20713 0.0
H467 H 0.75865 0.78915 0.2736 0.0
H468 H 0.67011 0.69165 0.24451 0.0
H469 H 0.81602 0.77732 0.2364 0.0
H470 H 0.72634 0.75287 0.26327 0.0
H471 H 0.76079 0.71424 0.21811 0.0
C472 C 0.72176 0.68961 0.21772 0.0
C473 C 0.69569 0.68315 0.2249 0.0
C474 C 0.74597 0.75819 0.25734 0.0
C475 C 0.73406 0.7225 0.23745 0.0
C476 C 0.76439 0.77897 0.26321 0.0
C477 C 0.79003 0.78621 0.25582 0.0
C478 C 0.75324 0.74455 0.24399 0.0
C479 C 0.79643 0.77237 0.24242 0.0
C480 C 0.74099 0.70922 0.22396 0.0
C481 C 0.68995 0.69612 0.2386 0.0
N482 N 0.77811 0.75212 0.23693 0.0
N483 N 0.70895 0.71535 0.24441 0.0
H484 H 0.52531 0.41873 0.48672 0.0
H485 H 0.43179 0.5629 0.4755 0.0
H486 H 0.53421 0.47709 0.44952 0.0
H487 H 0.42824 0.50983 0.51494 0.0
H488 H 0.46596 0.52869 0.46469 0.0
H489 H 0.48679 0.44961 0.49647 0.0
C490 C 0.51919 0.43804 0.48064 0.0
C491 C 0.53297 0.44547 0.46735 0.0
C492 C 0.45758 0.52446 0.47568 0.0
C493 C 0.48903 0.48059 0.4783 0.0
C494 C 0.43801 0.54391 0.48182 0.0
C495 C 0.42745 0.53929 0.49617 0.0
C496 C 0.46658 0.50028 0.48398 0.0
C497 C 0.43608 0.5143 0.50387 0.0
C498 C 0.4972 0.45559 0.48617 0.0
C499 C 0.52421 0.47062 0.45985 0.0
N500 N 0.45533 0.49579 0.49771 0.0
N501 N 0.50279 0.48728 0.46544 0.0
H502 H 0.78322 0.2729 0.70118 0.0
H503 H 0.73531 0.18256 0.77179 0.0
H504 H 0.82954 0.27527 0.74269 0.0
H505 H 0.69457 0.17647 0.72886 0.0
H506 H 0.77385 0.2115 0.76075 0.0
H507 H 0.75426 0.23312 0.71052 0.0
C508 C 0.78733 0.26497 0.71229 0.0
C509 C 0.80846 0.27764 0.7213 0.0
C510 C 0.75668 0.2035 0.75372 0.0
C511 C 0.77525 0.23208 0.7321 0.0
C512 C 0.73469 0.187 0.76 0.0
C513 C 0.71147 0.17766 0.75125 0.0
C514 C 0.75525 0.21075 0.73863 0.0
C515 C 0.71185 0.18367 0.73604 0.0
C516 C 0.77087 0.24211 0.71759 0.0
C517 C 0.81321 0.2662 0.73548 0.0
N518 N 0.73323 0.20017 0.73024 0.0
N519 N 0.7964 0.24421 0.74055 0.0
H520 H 0.93082 0.48072 0.52203 0.0
H521 H 0.02706 0.50764 0.45002 0.0
H522 H 0.94237 0.41742 0.48739 0.0
H523 H 0.01518 0.57114 0.48454 0.0
H524 H -0.00502 0.4748 0.46324 0.0
H525 H 0.96046 0.5147 0.50807 0.0
C526 C 0.93955 0.47401 0.51145 0.0
C527 C 0.93428 0.4462 0.50585 0.0
C528 C -0.00067 0.49592 0.46792 0.0
C529 C 0.96822 0.48494 0.48986 0.0
C530 C 0.01765 0.51468 0.46039 0.0
C531 C 0.02379 0.5421 0.46624 0.0
C532 C 0.9871 0.50463 0.4814 0.0
C533 C 0.01101 0.55015 0.47967 0.0
C534 C 0.95647 0.49342 0.50349 0.0
C535 C 0.94601 0.43865 0.4921 0.0
N536 N -0.00674 0.53142 0.48684 0.0
N537 N 0.96256 0.45794 0.48457 0.0
H538 H 0.72954 0.79989 0.70498 0.0
H539 H 0.76725 0.70585 0.77647 0.0
H540 H 0.6806 0.80149 0.74569 0.0
H541 H 0.82052 0.70667 0.7372 0.0
H542 H 0.73702 0.74318 0.76562 0.0
H543 H 0.76523 0.76868 0.71697 0.0
C544 C 0.72648 0.79392 0.71649 0.0
C545 C 0.70193 0.80292 0.72433 0.0
C546 C 0.75535 0.73534 0.75935 0.0
C547 C 0.74244 0.76723 0.73801 0.0
C548 C 0.77257 0.71389 0.76552 0.0
C549 C 0.79629 0.70303 0.75765 0.0
C550 C 0.76169 0.74591 0.74515 0.0
C551 C 0.80231 0.71441 0.74358 0.0
C552 C 0.74683 0.77609 0.7233 0.0
C553 C 0.69907 0.79477 0.73921 0.0
N554 N 0.78495 0.73521 0.73771 0.0
N555 N 0.71899 0.77715 0.74553 0.0
H556 H 0.43617 0.48236 0.95775 0.0
H557 H 0.55315 0.51201 0.02061 0.0
H558 H 0.44032 0.4358 -0.00074 0.0
H559 H 0.54098 0.56924 0.98318 0.0
H560 H 0.5133 0.48243 0.01196 0.0
H561 H 0.47488 0.51409 0.96633 0.0
C562 C 0.44501 0.47904 0.96873 0.0
C563 C 0.43522 0.45632 0.97779 0.0
C564 C 0.51929 0.50143 0.0056 0.0
C565 C 0.4796 0.49219 0.98754 0.0
C566 C 0.54218 0.51826 0.01048 0.0
C567 C 0.55026 0.5432 0.00262 0.0
C568 C 0.50437 0.50948 -0.00728 0.0
C569 C 0.53538 0.55017 -0.01044 0.0
C570 C 0.46714 0.49708 0.97359 0.0
C571 C 0.44732 0.45298 -0.00809 0.0
N572 N 0.513 0.53338 0.98501 0.0
N573 N 0.46907 0.4706 -0.0037 0.0
H574 H 0.75919 0.18298 0.20766 0.0
H575 H 0.72095 0.29018 0.27401 0.0
H576 H 0.81504 0.19732 0.24525 0.0
H577 H 0.66485 0.27524 0.23657 0.0
H578 H 0.7554 0.25576 0.2638 0.0
H579 H 0.72378 0.21567 0.21845 0.0
C580 C 0.76393 0.19291 0.21824 0.0
C581 C 0.79013 0.1876 0.22556 0.0
C582 C 0.73557 0.25999 0.25781 0.0
C583 C 0.74977 0.22514 0.23792 0.0
C584 C 0.71592 0.27969 0.2636 0.0
C585 C 0.69003 0.28553 0.2561 0.0
C586 C 0.7293 0.24604 0.24441 0.0
C587 C 0.68459 0.27134 0.24269 0.0
C588 C 0.74372 0.21161 0.22438 0.0
C589 C 0.79512 0.20092 0.23925 0.0
N590 N 0.70411 0.25219 0.23726 0.0
N591 N 0.77512 0.21924 0.24497 0.0
H592 H 0.31129 0.28679 0.73705 0.0
H593 H 0.16381 0.19741 0.74272 0.0
H594 H 0.25601 0.2879 0.77557 0.0
H595 H 0.22398 0.19075 0.70634 0.0
H596 H 0.19613 0.23222 0.75463 0.0
H597 H 0.27781 0.25355 0.72504 0.0
C598 C 0.29203 0.28013 0.74295 0.0
C599 C 0.28644 0.28994 0.75733 0.0
C600 C 0.20223 0.22307 0.74405 0.0
C601 C 0.24816 0.2519 0.74373 0.0
C602 C 0.18385 0.2032 0.73728 0.0
C603 C 0.19129 0.19124 0.72355 0.0
C604 C 0.22808 0.23097 0.73699 0.0
C605 C 0.21743 0.19946 0.71694 0.0
C606 C 0.27297 0.2611 0.73611 0.0
C607 C 0.26116 0.28072 0.76447 0.0
N608 N 0.23486 0.21886 0.72372 0.0
N609 N 0.24294 0.26211 0.7576 0.0
H610 H 0.22604 0.69704 0.27386 0.0
H611 H 0.26014 0.80877 0.20856 0.0
H612 H 0.16915 0.71186 0.23667 0.0
H613 H 0.31675 0.79403 0.24586 0.0
H614 H 0.22578 0.77453 0.2191 0.0
H615 H 0.25922 0.73302 0.2639 0.0
C616 C 0.22059 0.70781 0.26355 0.0
C617 C 0.19482 0.70152 0.25606 0.0
C618 C 0.24564 0.77886 0.22502 0.0
C619 C 0.23262 0.74282 0.24466 0.0
C620 C 0.26524 0.79846 0.21903 0.0
C621 C 0.29138 0.80407 0.22633 0.0
C622 C 0.25227 0.76476 0.23837 0.0
C623 C 0.29686 0.79023 0.23987 0.0
C624 C 0.23951 0.72842 0.2579 0.0
C625 C 0.18882 0.71609 0.24277 0.0
N626 N 0.27749 0.77105 0.24543 0.0
N627 N 0.20761 0.73614 0.23749 0.0
H628 H 0.25395 0.19539 0.2751 0.0
H629 H 0.22706 0.305 0.20794 0.0
H630 H 0.31432 0.20792 0.2392 0.0
H631 H 0.16827 0.29416 0.24466 0.0
H632 H 0.25975 0.27013 0.2194 0.0
H633 H 0.22221 0.23143 0.26398 0.0
C634 C 0.26046 0.20565 0.26482 0.0
C635 C 0.2868 0.19874 0.25805 0.0
C636 C 0.23977 0.27546 0.22498 0.0
C637 C 0.25067 0.24012 0.24533 0.0
C638 C 0.22114 0.29542 0.21848 0.0
C639 C 0.19488 0.30232 0.22535 0.0
C640 C 0.23203 0.2623 0.23843 0.0
C641 C 0.18829 0.28936 0.23899 0.0
C642 C 0.24237 0.2263 0.25851 0.0
C643 C 0.29417 0.21266 0.24476 0.0
N644 N 0.20672 0.26982 0.24506 0.0
N645 N 0.27617 0.23279 0.23883 0.0
H646 H 0.21931 0.78117 0.77532 0.0
H647 H 0.25232 0.68551 0.70389 0.0
H648 H 0.16034 0.77331 0.73847 0.0
H649 H 0.30858 0.69052 0.74197 0.0
H650 H 0.21742 0.71611 0.71668 0.0
H651 H 0.2515 0.7467 0.76348 0.0
C652 C 0.21313 0.77215 0.76472 0.0
C653 C 0.18721 0.78016 0.7578 0.0
C654 C 0.23732 0.71039 0.72226 0.0
C655 C 0.22398 0.74067 0.7442 0.0
C656 C 0.25725 0.69295 0.71498 0.0
C657 C 0.28343 0.6857 0.72187 0.0
C658 C 0.24372 0.72069 0.7365 0.0
C659 C 0.2887 0.69575 0.73625 0.0
C660 C 0.2315 0.7524 0.75798 0.0
C661 C 0.18019 0.76771 0.74413 0.0
N662 N 0.26904 0.7129 0.74306 0.0
N663 N 0.19859 0.7486 0.73772 0.0
H664 H 0.55572 0.92942 0.47816 0.0
H665 H 0.46762 0.07689 0.48917 0.0
H666 H 0.55829 0.98013 0.51827 0.0
H667 H 0.45889 0.02069 0.45126 0.0
H668 H 0.50495 0.04454 0.49903 0.0
H669 H 0.52463 0.96609 0.46689 0.0
C670 C 0.54994 0.9484 0.48454 0.0
C671 C 0.55926 0.95164 0.4992 0.0
C672 C 0.49489 0.0394 0.48853 0.0
C673 C 0.52367 0.99347 0.48648 0.0
C674 C 0.4736 0.0578 0.48293 0.0
C675 C 0.46006 0.0513 0.46947 0.0
C676 C 0.5026 0.01448 0.48055 0.0
C677 C 0.46864 0.0264 0.46176 0.0
C678 C 0.53215 0.96927 0.47813 0.0
C679 C 0.55132 0.97669 0.50696 0.0
N680 N 0.48932 0.00886 0.46743 0.0
N681 N 0.53377 -0.00341 0.50053 0.0
H682 H 0.04337 0.98276 0.95492 0.0
H683 H 0.93541 0.00131 0.02312 0.0
H684 H 0.02907 0.91654 0.988 0.0
H685 H 0.94898 0.0667 -0.01047 0.0
H686 H 0.96959 0.96984 0.01043 0.0
H687 H 0.00904 0.0139 0.96762 0.0
C688 C 0.03303 0.97479 0.96489 0.0
C689 C 0.03899 0.94703 0.97043 0.0
C690 C 0.96507 0.99105 0.00582 0.0
C691 C -0.00035 0.98253 0.98499 0.0
C692 C 0.94555 0.009 0.01305 0.0
C693 C 0.93946 0.03664 0.00737 0.0
C694 C 0.97857 0.00083 -0.00716 0.0
C695 C 0.95314 0.04552 -0.00571 0.0
C696 C 0.0134 0.99258 0.97212 0.0
C697 C 0.02503 0.93781 0.98337 0.0
N698 N 0.97213 0.02765 0.98746 0.0
N699 N 0.00592 0.95556 -0.00977 0.0
H700 H 0.54248 0.00552 0.95196 0.0
H701 H 0.44943 0.96987 0.02398 0.0
H702 H 0.54602 0.05542 -0.00768 0.0
H703 H 0.45007 0.91574 0.98503 0.0
H704 H 0.48562 0.00085 0.0126 0.0
H705 H 0.51011 0.97126 0.96411 0.0
C706 C 0.53661 0.00913 0.96343 0.0
C707 C 0.54667 0.03345 0.97113 0.0
C708 C 0.47793 0.98219 0.00653 0.0
C709 C 0.50957 -0.00547 0.98502 0.0
C710 C 0.45715 0.96455 0.01299 0.0
C711 C 0.44671 0.94027 0.00539 0.0
C712 C 0.48825 0.9756 -0.00767 0.0
C713 C 0.45754 0.93432 -0.00877 0.0
C714 C 0.51812 0.98959 0.97034 0.0
C715 C 0.53859 0.03702 0.98597 0.0
N716 N 0.47774 0.95196 0.98512 0.0
N717 N 0.52029 0.01785 -0.00759 0.0
H718 H 0.04129 0.07439 0.48163 0.0
H719 H 0.96757 0.9178 0.48563 0.0
H720 H 0.05268 0.01462 0.51806 0.0
H721 H 0.95333 0.9791 0.45014 0.0
H722 H 0.00083 0.95213 0.49717 0.0
H723 H 0.01099 0.03857 0.46919 0.0
C724 C 0.0375 0.0537 0.48697 0.0
C725 C 0.04932 0.04747 0.5009 0.0
C726 C 0.99045 0.95802 0.48684 0.0
C727 C 0.01478 0.00655 0.48684 0.0
C728 C 0.97148 0.93846 0.48028 0.0
C729 C 0.95768 0.9457 0.46696 0.0
C730 C -0.00445 0.98492 0.48001 0.0
C731 C 0.96349 0.9727 0.46045 0.0
C732 C 0.02021 0.03328 0.47989 0.0
C733 C 0.04385 0.02033 0.50734 0.0
N734 N 0.98197 0.99136 0.46705 0.0
N735 N 0.02688 0.00089 0.50027 0.0
H736 H 0.90739 0.19145 0.03919 0.0
H737 H 0.0548 0.27986 0.03768 0.0
H738 H 0.99074 0.1526 0.04737 0.0
H739 H 0.97157 0.32144 0.04132 0.0
H740 H 0.03137 0.23288 0.04004 0.0
H741 H 0.93016 0.23917 0.03898 0.0
C742 C 0.93045 0.19294 0.04101 0.0
C743 C 0.94722 0.16796 0.04323 0.0
C744 C 0.01822 0.25227 0.04039 0.0
C745 C 0.97336 0.22247 0.0429 0.0
C746 C 0.03156 0.27913 0.03896 0.0
C747 C 0.0151 0.30464 0.03924 0.0
C748 C 0.98813 0.2508 0.04195 0.0
C749 C 0.98509 0.30232 0.04104 0.0
C750 C 0.9434 0.2202 0.04092 0.0
C751 C 0.97697 0.17124 0.0456 0.0
N752 N 0.97252 0.27581 0.04223 0.0
N753 N 0.98912 0.19798 0.04526 0.0
H754 H 0.07741 0.75635 0.29751 0.0
H755 H 0.90661 0.73036 0.29721 0.0
H756 H 0.03795 0.67271 0.29076 0.0
H757 H 0.94602 0.81425 0.29093 0.0
H758 H 0.95476 0.70886 0.29916 0.0
H759 H 0.02925 0.77787 0.29942 0.0
C760 C 0.05866 0.74249 0.29655 0.0
C761 C 0.06169 0.71274 0.29383 0.0
C762 C 0.9528 0.73199 0.29742 0.0
C763 C 0.00669 0.73716 0.29606 0.0
C764 C 0.92535 0.74428 0.29635 0.0
C765 C 0.9223 0.7741 0.29377 0.0
C766 C 0.97731 0.74969 0.29604 0.0
C767 C 0.94735 0.79111 0.29277 0.0
C768 C 0.03121 0.75479 0.29759 0.0
C769 C 0.03663 0.69579 0.2927 0.0
N770 N 0.97381 0.77865 0.29388 0.0
N771 N 0.01018 0.70825 0.29379 0.0
H772 H 0.49919 0.65804 0.52543 0.0
H773 H 0.48297 0.83009 0.52571 0.0
H774 H 0.41742 0.702 0.52043 0.0
H775 H 0.56491 0.78617 0.52156 0.0
H776 H 0.45849 0.78335 0.52448 0.0
H777 H 0.52366 0.70483 0.52476 0.0
C778 C 0.48637 0.67751 0.52416 0.0
C779 C 0.45618 0.67608 0.52303 0.0
C780 C 0.48182 0.78396 0.52376 0.0
C781 C 0.48408 0.72972 0.5223 0.0
C782 C 0.49583 0.81065 0.52449 0.0
C783 C 0.52606 0.81207 0.52378 0.0
C784 C 0.49816 0.75848 0.52244 0.0
C785 C 0.54157 0.78613 0.52215 0.0
C786 C 0.50037 0.70422 0.52374 0.0
C787 C 0.44072 0.70204 0.52134 0.0
N788 N 0.52744 0.7604 0.52162 0.0
N789 N 0.45484 0.72781 0.52111 0.0
H790 H 0.58078 0.26198 0.77633 0.0
H791 H 0.41218 0.23073 0.78318 0.0
H792 H 0.5423 0.17811 0.76873 0.0
H793 H 0.44712 0.31715 0.77948 0.0
H794 H 0.46035 0.21108 0.77886 0.0
H795 H 0.53236 0.28297 0.77795 0.0
C796 C 0.56221 0.24804 0.77483 0.0
C797 C 0.56563 0.2182 0.77251 0.0
C798 C 0.45745 0.23435 0.77894 0.0
C799 C 0.51033 0.24197 0.77454 0.0
C800 C 0.42998 0.24557 0.78149 0.0
C801 C 0.42563 0.27562 0.78172 0.0
C802 C 0.48079 0.25328 0.77675 0.0
C803 C 0.44949 0.29383 0.77938 0.0
C804 C 0.5346 0.26003 0.77579 0.0
C805 C 0.54077 0.20119 0.77062 0.0
N806 N 0.4761 0.28237 0.77706 0.0
N807 N 0.5142 0.21327 0.77183 0.0
H808 H 0.9196 0.791 0.43256 0.0
H809 H 0.06236 0.69586 0.43063 0.0
H810 H 0.00396 0.82782 0.42486 0.0
H811 H 0.97745 0.6597 0.42383 0.0
H812 H 0.04151 0.74441 0.42952 0.0
H813 H 0.94045 0.74261 0.43044 0.0
C814 C 0.9425 0.78891 0.43038 0.0
C815 C 0.96011 0.81349 0.42896 0.0
C816 C 0.02749 0.72585 0.42815 0.0
C817 C 0.98408 0.75817 0.42661 0.0
C818 C 0.03935 0.69813 0.42883 0.0
C819 C 0.02158 0.67368 0.4274 0.0
C820 C -0.00239 0.72916 0.42624 0.0
C821 C 0.99194 0.67793 0.42499 0.0
C822 C 0.95435 0.76128 0.42911 0.0
C823 C 0.9896 0.80947 0.42603 0.0
N824 N 0.98083 0.70515 0.42464 0.0
N825 N 0.00072 0.78231 0.42509 0.0
H826 H 0.57788 0.72514 0.69406 0.0
H827 H 0.40751 0.75072 0.69246 0.0
H828 H 0.53753 0.80849 0.70066 0.0
H829 H 0.44589 0.66584 0.6968 0.0
H830 H 0.4555 0.7722 0.69405 0.0
H831 H 0.52998 0.70272 0.69383 0.0
C832 C 0.55901 0.7387 0.69552 0.0
C833 C 0.56173 0.76874 0.69734 0.0
C834 C 0.45341 0.74887 0.69471 0.0
C835 C 0.50704 0.74332 0.69698 0.0
C836 C 0.42602 0.73659 0.69375 0.0
C837 C 0.42268 0.70644 0.69449 0.0
C838 C 0.47768 0.73088 0.69628 0.0
C839 C 0.44746 0.68921 0.69621 0.0
C840 C 0.53171 0.72589 0.69541 0.0
C841 C 0.53653 0.78525 0.69922 0.0
N842 N 0.47396 0.70168 0.69698 0.0
N843 N 0.51027 0.77234 0.69889 0.0
H844 H 0.4784 0.16217 0.95282 0.0
H845 H 0.50508 0.33249 0.94834 0.0
H846 H 0.56355 0.1998 0.94984 0.0
H847 H 0.42369 0.29367 0.96069 0.0
H848 H 0.52725 0.28434 0.94868 0.0
H849 H 0.45809 0.21055 0.95553 0.0
C850 C 0.49285 0.1806 0.9528 0.0
C851 C 0.5227 0.17694 0.95103 0.0
C852 C 0.50459 0.28647 0.95142 0.0
C853 C 0.49957 0.23246 0.95405 0.0
C854 C 0.49192 0.31392 0.95121 0.0
C855 C 0.46244 0.31713 0.9544 0.0
C856 C 0.48758 0.26212 0.95473 0.0
C857 C 0.44646 0.2923 0.95809 0.0
C858 C 0.48125 0.20824 0.95439 0.0
C859 C 0.5404 0.20163 0.95117 0.0
N860 N 0.45919 0.26587 0.95804 0.0
N861 N 0.52853 0.2284 0.95253 0.0
H862 H 0.08011 0.23456 0.18775 0.0
H863 H 0.90843 0.25368 0.18649 0.0
H864 H 0.03708 0.31714 0.19196 0.0
H865 H 0.95092 0.17143 0.19333 0.0
H866 H 0.95568 0.27712 0.18527 0.0
H867 H 0.03295 0.21084 0.18662 0.0
C868 C 0.06078 0.24771 0.18838 0.0
C869 C 0.06255 0.27786 0.19005 0.0
C870 C 0.95461 0.25393 0.18701 0.0
C871 C 0.00863 0.2509 0.1887 0.0
C872 C 0.92766 0.24052 0.18767 0.0
C873 C 0.9257 0.21057 0.19011 0.0
C874 C 0.97976 0.23723 0.18869 0.0
C875 C 0.95138 0.19461 0.19154 0.0
C876 C 0.03389 0.23415 0.18777 0.0
C877 C 0.03677 0.29381 0.19079 0.0
N878 N 0.97735 0.20815 0.19082 0.0
N879 N 0.01089 0.28014 0.19011 0.0
H880 H 0.92534 0.70567 0.93476 0.0
H881 H 0.07137 0.79546 0.93234 0.0
H882 H 0.00781 0.66666 0.92482 0.0
H883 H 0.98758 0.83555 0.92779 0.0
H884 H 0.04856 0.74793 0.93052 0.0
H885 H 0.94772 0.75348 0.93314 0.0
C886 C 0.94812 0.70715 0.93217 0.0
C887 C 0.96478 0.68212 0.93 0.0
C888 C 0.03521 0.76714 0.9298 0.0
C889 C 0.9905 0.73672 0.92825 0.0
C890 C 0.04819 0.79428 0.93089 0.0
C891 C 0.03133 0.81951 0.93029 0.0
C892 C 0.00511 0.7652 0.9283 0.0
C893 C 0.00141 0.81666 0.92831 0.0
C894 C 0.96084 0.73445 0.9312 0.0
C895 C -0.00584 0.68537 0.92658 0.0
N896 N 0.9892 0.78997 0.92753 0.0
N897 N 0.00616 0.71217 0.92596 0.0
H898 H 0.95541 0.31986 0.68879 0.0
H899 H 0.03918 0.16993 0.68551 0.0
H900 H 0.91414 0.23892 0.67765 0.0
H901 H 0.08286 0.25242 0.68323 0.0
H902 H -0.00702 0.19497 0.68334 0.0
H903 H 0.00236 0.29583 0.68731 0.0
C904 C 0.95621 0.29711 0.68593 0.0
C905 C 0.93078 0.28133 0.68345 0.0
C906 C 0.01268 0.20758 0.68321 0.0
C907 C 0.98434 0.25372 0.68188 0.0
C908 C 0.03906 0.19331 0.68452 0.0
C909 C 0.06491 0.20913 0.68464 0.0
C910 C 0.01209 0.23791 0.68221 0.0
C911 C 0.06345 0.23938 0.6832 0.0
C912 C 0.98302 0.28344 0.68506 0.0
C913 C 0.93315 0.25194 0.67969 0.0
N914 N 0.03744 0.25283 0.68218 0.0
N915 N 0.95944 0.23902 0.67918 0.0
H916 H 0.56793 0.29293 0.43353 0.0
H917 H 0.42141 0.20368 0.43599 0.0
H918 H 0.48432 0.33291 0.42792 0.0
H919 H 0.50408 0.1639 0.42736 0.0
H920 H 0.44407 0.25131 0.43407 0.0
H921 H 0.54502 0.24535 0.4323 0.0
C922 C 0.54477 0.29171 0.43198 0.0
C923 C 0.52799 0.31694 0.4309 0.0
C924 C 0.45719 0.23215 0.43248 0.0
C925 C 0.50167 0.26259 0.42959 0.0
C926 C 0.4443 0.20495 0.43363 0.0
C927 C 0.46091 0.17976 0.43191 0.0
C928 C 0.48697 0.23416 0.4298 0.0
C929 C 0.49045 0.18273 0.42877 0.0
C930 C 0.53173 0.26455 0.43123 0.0
C931 C 0.49809 0.31404 0.42881 0.0
N932 N 0.50259 0.20945 0.42796 0.0
N933 N 0.48584 0.28734 0.42836 0.0
H934 H 0.40796 0.73655 0.18862 0.0
H935 H 0.57982 0.75378 0.18878 0.0
H936 H 0.45153 0.81828 0.19492 0.0
H937 H 0.53621 0.67155 0.19316 0.0
H938 H 0.53286 0.77799 0.1881 0.0
H939 H 0.45492 0.71248 0.18735 0.0
C940 C 0.42737 0.74944 0.18969 0.0
C941 C 0.4258 0.77944 0.19196 0.0
C942 C 0.53363 0.75464 0.1892 0.0
C943 C 0.47952 0.75209 0.19047 0.0
C944 C 0.56041 0.74081 0.18955 0.0
C945 C 0.56196 0.71062 0.19111 0.0
C946 C 0.50825 0.73813 0.1903 0.0
C947 C 0.53607 0.6949 0.19205 0.0
C948 C 0.45415 0.73569 0.189 0.0
C949 C 0.45169 0.79507 0.19326 0.0
N950 N 0.51029 0.70884 0.19162 0.0
N951 N 0.47747 0.7812 0.19249 0.0
H952 H -0.00214 0.33271 0.54594 0.0
H953 H 0.98278 0.16052 0.54167 0.0
H954 H 0.91631 0.28893 0.53999 0.0
H955 H 0.06357 0.2058 0.53588 0.0
H956 H 0.95819 0.20708 0.54413 0.0
H957 H 0.02235 0.28588 0.54551 0.0
C958 C 0.98506 0.31326 0.54464 0.0
C959 C 0.95497 0.31478 0.54292 0.0
C960 C 0.98129 0.20679 0.54233 0.0
C961 C 0.98293 0.26113 0.54241 0.0
C962 C -0.00462 0.18023 0.54095 0.0
C963 C 0.02529 0.17925 0.5385 0.0
C964 C -0.00274 0.23255 0.54139 0.0
C965 C 0.04047 0.20551 0.53767 0.0
C966 C -0.00091 0.28655 0.54433 0.0
C967 C 0.93955 0.28882 0.54126 0.0
N968 N 0.02628 0.23109 0.53913 0.0
N969 N 0.95371 0.26306 0.54104 0.0
H970 H 0.40092 0.25717 0.29899 0.0
H971 H 0.57182 0.23153 0.29978 0.0
H972 H 0.44078 0.17284 0.29584 0.0
H973 H 0.53213 0.31427 0.29049 0.0
H974 H 0.52377 0.21032 0.30268 0.0
H975 H 0.44899 0.27907 0.30027 0.0
C976 C 0.41974 0.24325 0.29871 0.0
C977 C 0.41685 0.21317 0.29716 0.0
C978 C 0.52564 0.23315 0.30007 0.0
C979 C 0.47174 0.23802 0.29864 0.0
C980 C 0.55304 0.24528 0.29844 0.0
C981 C 0.55599 0.27465 0.29474 0.0
C982 C 0.50107 0.25058 0.29811 0.0
C983 C 0.53088 0.29145 0.29318 0.0
C984 C 0.44714 0.25576 0.29938 0.0
C985 C 0.44199 0.19617 0.29686 0.0
N986 N 0.50447 0.27916 0.29484 0.0
N987 N 0.46837 0.20883 0.29754 0.0
H988 H 0.42098 0.78417 0.03535 0.0
H989 H 0.57111 0.69965 0.03277 0.0
H990 H 0.50361 0.8257 0.0416 0.0
H991 H 0.48898 0.65644 0.0377 0.0
H992 H 0.54649 0.74625 0.03441 0.0
H993 H 0.44531 0.73722 0.03478 0.0
C994 C 0.44421 0.78343 0.03664 0.0
C995 C 0.46028 0.80893 0.03849 0.0
C996 C 0.53387 0.72656 0.03518 0.0
C997 C 0.48822 0.75532 0.03775 0.0
C998 C 0.54789 0.69994 0.03418 0.0
C999 C 0.53208 0.67408 0.03508 0.0
C1000 C 0.50378 0.72739 0.03695 0.0
C1001 C 0.50204 0.67582 0.03697 0.0
C1002 C 0.45807 0.75662 0.03634 0.0
C1003 C 0.49033 0.80663 0.04016 0.0
N1004 N 0.48884 0.70204 0.03778 0.0
N1005 N 0.50334 0.78031 0.03966 0.0
H1006 H 0.90462 0.75528 0.79924 0.0
H1007 H 0.07568 0.73339 0.80182 0.0
H1008 H 0.9462 0.6721 0.79441 0.0
H1009 H 0.03498 0.81563 0.79252 0.0
H1010 H 0.028 0.71103 0.8035 0.0
H1011 H 0.95212 0.77804 0.80113 0.0
C1012 C 0.92371 0.74176 0.79869 0.0
C1013 C 0.92145 0.71175 0.79656 0.0
C1014 C 0.02955 0.73399 0.80116 0.0
C1015 C 0.97574 0.73767 0.79876 0.0
C1016 C 0.05673 0.74681 0.80026 0.0
C1017 C 0.05933 0.7764 0.79692 0.0
C1018 C 0.00478 0.75093 0.79886 0.0
C1019 C 0.034 0.7927 0.79499 0.0
C1020 C 0.95079 0.7548 0.79972 0.0
C1021 C 0.94693 0.69534 0.79593 0.0
N1022 N 0.00776 0.77973 0.79597 0.0
N1023 N 0.97303 0.70852 0.79701 0.0
H1024 H 0.2802 0.37821 0.95644 0.0
H1025 H 0.19375 0.36541 0.03015 0.0
H1026 H 0.32192 0.34878 -0.00347 0.0
H1027 H 0.15369 0.34371 0.98846 0.0
H1028 H 0.24115 0.3624 0.01826 0.0
H1029 H 0.23317 0.369 0.96795 0.0
C1030 C 0.27941 0.36965 0.96762 0.0
C1031 C 0.30483 0.36442 0.97562 0.0
C1032 C 0.22198 0.35786 0.01179 0.0
C1033 C 0.25149 0.35424 -0.0112 0.0
C1034 C 0.19502 0.35969 0.01853 0.0
C1035 C 0.16994 0.35495 0.01021 0.0
C1036 C 0.22368 0.35206 -0.00343 0.0
C1037 C 0.17262 0.34748 -0.00478 0.0
C1038 C 0.25267 0.36423 0.97412 0.0
C1039 C 0.30275 0.35313 -0.00998 0.0
N1040 N 0.19908 0.3468 -0.01122 0.0
N1041 N 0.27646 0.34885 -0.00373 0.0
H1042 H 0.86317 0.03178 0.20198 0.0
H1043 H 0.85587 0.94842 0.27677 0.0
H1044 H 0.88797 0.07398 0.24265 0.0
H1045 H 0.88619 0.90489 0.23749 0.0
H1046 H 0.86324 -0.00493 0.26436 0.0
H1047 H 0.86754 0.98476 0.21445 0.0
C1048 C 0.8698 0.03107 0.21349 0.0
C1049 C 0.87507 0.05664 0.22137 0.0
C1050 C 0.8686 0.97528 0.25856 0.0
C1051 C 0.87954 0.00336 0.23564 0.0
C1052 C 0.86423 0.94875 0.26556 0.0
C1053 C 0.87031 0.92293 0.25807 0.0
C1054 C 0.87832 0.97584 0.24385 0.0
C1055 C 0.88128 0.92442 0.24361 0.0
C1056 C 0.87242 0.00433 0.22055 0.0
C1057 C 0.88374 0.05468 0.23622 0.0
N1058 N 0.88448 0.95052 0.23683 0.0
N1059 N 0.88519 0.02843 0.243 0.0
H1060 H 0.16506 0.56094 0.47232 0.0
H1061 H 0.2992 0.65701 0.49466 0.0
H1062 H 0.16325 0.65391 0.46728 0.0
H1063 H 0.281 0.57386 0.51457 0.0
H1064 H 0.25094 0.65667 0.48343 0.0
H1065 H 0.20962 0.5651 0.48649 0.0
C1066 C 0.17407 0.58226 0.47422 0.0
C1067 C 0.16059 0.60713 0.46859 0.0
C1068 C 0.25749 0.63872 0.49041 0.0
C1069 C 0.21163 0.61203 0.48473 0.0
C1070 C 0.28497 0.63886 0.49678 0.0
C1071 C 0.29415 0.61531 0.50544 0.0
C1072 C 0.23944 0.61467 0.49256 0.0
C1073 C 0.27488 0.59239 0.5079 0.0
C1074 C 0.1994 0.58463 0.48238 0.0
C1075 C 0.17305 0.63423 0.47146 0.0
N1076 N 0.24856 0.59249 0.50135 0.0
N1077 N 0.19814 0.63598 0.47923 0.0
H1078 H 0.62415 0.03482 0.77425 0.0
H1079 H 0.62353 0.95139 0.69938 0.0
H1080 H 0.59951 0.07785 0.73364 0.0
H1081 H 0.59644 0.90889 0.7397 0.0
H1082 H 0.61819 -0.00171 0.7117 0.0
H1083 H 0.61739 0.98799 0.762 0.0
C1084 C 0.61706 0.03436 0.76282 0.0
C1085 C 0.61255 0.06009 0.75488 0.0
C1086 C 0.61303 0.97867 0.71775 0.0
C1087 C 0.60528 0.00704 0.74086 0.0
C1088 C 0.6162 0.952 0.71077 0.0
C1089 C 0.61055 0.92639 0.7186 0.0
C1090 C 0.60493 0.97953 0.73272 0.0
C1091 C 0.60098 0.92824 0.73331 0.0
C1092 C 0.61308 0.00774 0.75588 0.0
C1093 C 0.60324 0.05843 0.74012 0.0
N1094 N 0.59895 0.95442 0.74002 0.0
N1095 N 0.60039 0.03229 0.73348 0.0
H1096 H 0.70472 0.57206 0.0178 0.0
H1097 H 0.82165 0.66243 0.97215 0.0
H1098 H 0.68572 0.65669 -0.00022 0.0
H1099 H 0.82138 0.56924 0.97603 0.0
H1100 H 0.77619 0.66403 0.98623 0.0
H1101 H 0.75259 0.57444 0.00677 0.0
C1102 C 0.71069 0.59126 0.0116 0.0
C1103 C 0.69111 0.61409 0.00956 0.0
C1104 C 0.78626 0.64332 0.98401 0.0
C1105 C 0.74593 0.6169 -0.0031 0.0
C1106 C 0.81214 0.64239 0.97605 0.0
C1107 C 0.82508 0.61565 0.97288 0.0
C1108 C 0.77376 0.61736 -0.01102 0.0
C1109 C 0.81196 0.59029 0.97813 0.0
C1110 C 0.73799 0.59255 0.00527 0.0
C1111 C 0.70011 0.63851 0.0015 0.0
N1112 N 0.78706 0.59179 0.98595 0.0
N1113 N 0.72694 0.63926 -0.00462 0.0
H1114 H 0.17127 0.92616 0.75505 0.0
H1115 H 0.07866 0.05794 0.72467 0.0
H1116 H 0.07815 0.92225 0.75436 0.0
H1117 H 0.16616 0.03985 0.71102 0.0
H1118 H 0.07728 0.01075 0.73735 0.0
H1119 H 0.16937 0.97106 0.74099 0.0
C1120 C 0.15037 0.9348 0.75194 0.0
C1121 C 0.12481 0.9205 0.75586 0.0
C1122 C 0.09661 0.01715 0.73144 0.0
C1123 C 0.1225 0.97203 0.73976 0.0
C1124 C 0.09745 0.044 0.72426 0.0
C1125 C 0.12263 0.05286 0.71688 0.0
C1126 C 0.12127 -0.00054 0.73137 0.0
C1127 C 0.14634 0.03399 0.71662 0.0
C1128 C 0.14931 0.96037 0.74384 0.0
C1129 C 0.09834 0.93264 0.75149 0.0
N1130 N 0.14515 0.00833 0.72388 0.0
N1131 N 0.09782 0.95794 0.74372 0.0
H1132 H 0.80522 0.33175 0.50526 0.0
H1133 H 0.68407 0.42736 0.4667 0.0
H1134 H 0.79105 0.42223 0.51482 0.0
H1135 H 0.67252 0.33524 0.47253 0.0
H1136 H 0.72808 0.42479 0.48137 0.0
H1137 H 0.76026 0.33142 0.49073 0.0
C1138 C 0.79259 0.35143 0.50438 0.0
C1139 C 0.80185 0.37708 0.51121 0.0
C1140 C 0.71592 0.40512 0.47946 0.0
C1141 C 0.75114 0.37691 0.49455 0.0
C1142 C 0.69088 0.40653 0.47102 0.0
C1143 C 0.67458 0.38148 0.46846 0.0
C1144 C 0.72498 0.37843 0.48527 0.0
C1145 C 0.68445 0.35507 0.47433 0.0
C1146 C 0.76703 0.3512 0.49613 0.0
C1147 C 0.78474 0.40198 0.50975 0.0
N1148 N 0.70918 0.35418 0.48246 0.0
N1149 N 0.76038 0.40132 0.50147 0.0
H1150 H 0.35452 0.03763 0.27944 0.0
H1151 H 0.36489 0.96 0.20372 0.0
H1152 H 0.38634 0.08442 0.24136 0.0
H1153 H 0.3904 0.91518 0.24366 0.0
H1154 H 0.36884 0.00616 0.21693 0.0
H1155 H 0.3634 0.99201 0.26641 0.0
C1156 C 0.36355 0.03822 0.26838 0.0
C1157 C 0.36958 0.06465 0.26138 0.0
C1158 C 0.37402 0.98621 0.22269 0.0
C1159 C 0.37929 0.01297 0.24646 0.0
C1160 C 0.37164 0.95997 0.21522 0.0
C1161 C 0.37718 0.93392 0.22269 0.0
C1162 C 0.38114 0.98615 0.23779 0.0
C1163 C 0.38597 0.9349 0.23754 0.0
C1164 C 0.36878 0.01229 0.26102 0.0
C1165 C 0.38143 0.06439 0.24709 0.0
N1166 N 0.38712 0.96064 0.24474 0.0
N1167 N 0.38543 0.03886 0.23994 0.0
H1168 H 0.81947 0.83065 0.47002 0.0
H1169 H 0.70228 0.91334 0.51887 0.0
H1170 H 0.8161 0.92354 0.47498 0.0
H1171 H 0.68394 0.8312 0.49813 0.0
H1172 H 0.75004 0.913 0.50754 0.0
H1173 H 0.77491 0.82667 0.48469 0.0
C1174 C 0.80945 0.85013 0.47427 0.0
C1175 C 0.82126 0.87748 0.47123 0.0
C1176 C 0.73562 0.89495 0.50557 0.0
C1177 C 0.77102 0.87304 0.48807 0.0
C1178 C 0.70842 0.89504 0.51207 0.0
C1179 C 0.68902 0.8724 0.50929 0.0
C1180 C 0.7436 0.87195 0.49633 0.0
C1181 C 0.69819 0.8492 0.50044 0.0
C1182 C 0.78411 0.84784 0.48258 0.0
C1183 C 0.80753 0.90207 0.47696 0.0
N1184 N 0.72489 0.84961 0.49419 0.0
N1185 N 0.78317 0.89925 0.48514 0.0
H1186 H 0.30899 0.543 0.71342 0.0
H1187 H 0.40068 0.42413 0.7563 0.0
H1188 H 0.39886 0.55648 0.72409 0.0
H1189 H 0.30862 0.43423 0.76175 0.0
H1190 H 0.40161 0.46894 0.74166 0.0
H1191 H 0.30974 0.49826 0.72786 0.0
C1192 C 0.32896 0.53639 0.71869 0.0
C1193 C 0.3539 0.55345 0.71762 0.0
C1194 C 0.3813 0.46135 0.74616 0.0
C1195 C 0.35483 0.50246 0.73414 0.0
C1196 C 0.38073 0.43587 0.75448 0.0
C1197 C 0.35452 0.42556 0.76022 0.0
C1198 C 0.35541 0.47615 0.74338 0.0
C1199 C 0.32929 0.44151 0.75757 0.0
C1200 C 0.3293 0.511 0.72701 0.0
C1201 C 0.37916 0.54395 0.72471 0.0
N1202 N 0.33031 0.46592 0.74921 0.0
N1203 N 0.37902 0.51895 0.73268 0.0
H1204 H 0.80532 0.14998 0.00426 0.0
H1205 H 0.6905 0.06452 0.95515 0.0
H1206 H 0.79834 0.05677 0.00323 0.0
H1207 H 0.67478 0.15121 0.97106 0.0
H1208 H 0.73667 0.0643 0.96823 0.0
H1209 H 0.76292 0.15329 0.988 0.0
C1210 C 0.79487 0.13027 0.0006 0.0
C1211 C 0.8051 0.10307 0.00516 0.0
C1212 C 0.72318 0.08344 0.96874 0.0
C1213 C 0.75735 0.1067 0.98647 0.0
C1214 C 0.69695 0.08366 0.96122 0.0
C1215 C 0.67871 0.10781 0.96218 0.0
C1216 C 0.73129 0.10763 0.97714 0.0
C1217 C 0.68814 0.13206 0.97017 0.0
C1218 C 0.77079 0.13218 -0.00864 0.0
C1219 C 0.79094 0.07817 9e-05 0.0
N1220 N 0.71382 0.13132 0.97743 0.0
N1221 N 0.76782 0.08059 -0.00903 0.0
H1222 H 0.12498 0.53955 0.27533 0.0
H1223 H 0.12637 0.45877 0.20019 0.0
H1224 H 0.10037 0.5852 0.23549 0.0
H1225 H 0.09398 0.41614 0.23941 0.0
H1226 H 0.12105 0.50557 0.21266 0.0
H1227 H 0.11804 0.49355 0.26237 0.0
C1228 C 0.11794 0.53981 0.26388 0.0
C1229 C 0.11335 0.56602 0.25639 0.0
C1230 C 0.1147 0.48596 0.21841 0.0
C1231 C 0.10589 0.51387 0.24156 0.0
C1232 C 0.11786 0.45934 0.21136 0.0
C1233 C 0.11075 0.43371 0.21886 0.0
C1234 C 0.10517 0.48668 0.23315 0.0
C1235 C 0.09969 0.4355 0.23328 0.0
C1236 C 0.11381 0.51366 0.25656 0.0
C1237 C 0.10408 0.56533 0.2416 0.0
N1238 N 0.09775 0.46158 0.2401 0.0
N1239 N 0.10114 0.53957 0.23454 0.0
H1240 H 0.17814 0.16293 0.49956 0.0
H1241 H 0.31283 0.06832 0.47537 0.0
H1242 H 0.19624 0.07757 0.5169 0.0
H1243 H 0.31521 0.16163 0.47259 0.0
H1244 H 0.26732 0.07136 0.4887 0.0
H1245 H 0.22616 0.16334 0.48794 0.0
C1246 C 0.19225 0.14442 0.501 0.0
C1247 C 0.18316 0.1201 0.50911 0.0
C1248 C 0.27783 0.09122 0.48526 0.0
C1249 C 0.23754 0.12035 0.49583 0.0
C1250 C 0.30375 0.08949 0.47759 0.0
C1251 C 0.31775 0.11477 0.47288 0.0
C1252 C 0.26552 0.11841 0.48809 0.0
C1253 C 0.30506 0.14165 0.4761 0.0
C1254 C 0.21958 0.14471 0.49442 0.0
C1255 C 0.20227 0.09673 0.51069 0.0
N1256 N 0.27942 0.1428 0.48343 0.0
N1257 N 0.2284 0.09734 0.504 0.0
H1258 H 0.59624 0.40029 0.23443 0.0
H1259 H 0.59069 0.57215 0.23942 0.0
H1260 H 0.61841 0.44683 0.27423 0.0
H1261 H 0.62347 0.52838 0.20072 0.0
H1262 H 0.58489 0.52509 0.25172 0.0
H1263 H 0.59065 0.44678 0.22137 0.0
C1264 C 0.59948 0.4203 0.24044 0.0
C1265 C 0.60805 0.41994 0.25534 0.0
C1266 C 0.59297 0.5259 0.24046 0.0
C1267 C 0.60116 0.47255 0.24069 0.0
C1268 C 0.59618 0.5526 0.23344 0.0
C1269 C 0.60786 0.55401 0.21913 0.0
C1270 C 0.60089 0.50058 0.23297 0.0
C1271 C 0.6147 0.52812 0.21184 0.0
C1272 C 0.59638 0.44664 0.23301 0.0
C1273 C 0.61208 0.44632 0.26268 0.0
N1274 N 0.61114 0.50234 0.21886 0.0
N1275 N 0.60855 0.47166 0.25528 0.0
H1276 H 0.17523 0.83392 0.97144 0.0
H1277 H 0.29467 0.9203 0.0169 0.0
H1278 H 0.1834 0.92706 0.97147 0.0
H1279 H 0.30884 0.83233 0.00249 0.0
H1280 H 0.24852 0.92048 0.00403 0.0
H1281 H 0.21982 0.83059 0.98616 0.0
C1282 C 0.18637 0.8536 0.97455 0.0
C1283 C 0.17575 0.8808 0.97021 0.0
C1284 C 0.26168 0.9011 0.00371 0.0
C1285 C 0.22605 0.87715 0.98708 0.0
C1286 C 0.28798 0.90091 0.01111 0.0
C1287 C 0.30571 0.87633 0.01065 0.0
C1288 C 0.25288 0.87647 -0.00413 0.0
C1289 C 0.29586 0.85179 0.00301 0.0
C1290 C 0.21173 0.85168 0.98289 0.0
C1291 C 0.19093 0.90565 0.97451 0.0
N1292 N 0.27001 0.85247 -0.00414 0.0
N1293 N 0.21522 0.90322 0.98276 0.0
H1294 H 0.81599 0.42897 0.72601 0.0
H1295 H 0.90603 0.5638 0.75524 0.0
H1296 H 0.9092 0.42864 0.72614 0.0
H1297 H 0.81717 0.54684 0.76682 0.0
H1298 H 0.90828 0.51626 0.74312 0.0
H1299 H 0.81645 0.47455 0.73937 0.0
C1300 C 0.83661 0.43852 0.72886 0.0
C1301 C 0.86261 0.42506 0.72495 0.0
C1302 C 0.88841 0.52299 0.74842 0.0
C1303 C 0.86329 0.4774 0.74026 0.0
C1304 C 0.88709 0.55006 0.75528 0.0
C1305 C 0.86133 0.5593 0.76196 0.0
C1306 C 0.86371 0.50538 0.74813 0.0
C1307 C 0.83745 0.54067 0.76177 0.0
C1308 C 0.83685 0.46451 0.73655 0.0
C1309 C 0.88868 0.43836 0.72899 0.0
N1310 N 0.83918 0.51473 0.75488 0.0
N1311 N 0.88839 0.46402 0.73637 0.0
H1312 H 0.0713 0.42644 0.09094 0.0
H1313 H 0.18094 0.33334 0.13742 0.0
H1314 H 0.13765 0.3732 0.07125 0.0
H1315 H 0.12547 0.39848 0.15659 0.0
H1316 H 0.17107 0.35339 0.11293 0.0
H1317 H 0.09579 0.42227 0.11477 0.0
C1318 C 0.09117 0.41412 0.09159 0.0
C1319 C 0.10206 0.39954 0.07919 0.0
C1320 C 0.16144 0.36362 0.12252 0.0
C1321 C 0.1301 0.39458 0.10639 0.0
C1322 C 0.16703 0.35213 0.1365 0.0
C1323 C 0.15336 0.36376 0.149 0.0
C1324 C 0.14175 0.38659 0.12105 0.0
C1325 C 0.136 0.38844 0.14721 0.0
C1326 C 0.10524 0.41186 0.10518 0.0
C1327 C 0.12817 0.38435 0.0806 0.0
N1328 N 0.13022 0.39869 0.13344 0.0
N1329 N 0.14105 0.38185 0.09403 0.0
H1330 H 0.89675 0.94292 0.38238 0.0
H1331 H 0.79648 0.83359 0.3414 0.0
H1332 H 0.83634 0.88675 0.40484 0.0
H1333 H 0.84679 0.89924 0.31907 0.0
H1334 H 0.80215 0.86003 0.36454 0.0
H1335 H 0.87049 0.93534 0.35933 0.0
C1336 C 0.87765 0.92939 0.38251 0.0
C1337 C 0.86926 0.91466 0.39541 0.0
C1338 C 0.81149 0.86897 0.35453 0.0
C1339 C 0.83938 0.90556 0.36907 0.0
C1340 C 0.80834 0.8538 0.34131 0.0
C1341 C 0.822 0.86373 0.3284 0.0
C1342 C 0.82879 0.89394 0.35484 0.0
C1343 C 0.83652 0.89038 0.32885 0.0
C1344 C 0.86259 0.92512 0.36935 0.0
C1345 C 0.84396 0.89798 0.39505 0.0
N1346 N 0.84007 0.90425 0.34194 0.0
N1347 N 0.8303 0.8933 0.38199 0.0
H1348 H 0.36434 0.59508 0.65236 0.0
H1349 H 0.34194 0.61835 0.56554 0.0
H1350 H 0.31213 0.66322 0.6333 0.0
H1351 H 0.41161 0.56806 0.58441 0.0
H1352 H 0.3231 0.62657 0.59038 0.0
H1353 H 0.37385 0.57674 0.62749 0.0
C1354 C 0.35458 0.60598 0.64296 0.0
C1355 C 0.33778 0.631 0.64486 0.0
C1356 C 0.34238 0.61355 0.58905 0.0
C1357 C 0.34857 0.61011 0.61649 0.0
C1358 C 0.35317 0.60882 0.57489 0.0
C1359 C 0.37868 0.59288 0.57293 0.0
C1360 C 0.35714 0.60219 0.60132 0.0
C1361 C 0.39211 0.58082 0.58544 0.0
C1362 C 0.36009 0.59553 0.62879 0.0
C1363 C 0.32555 0.64413 0.63232 0.0
N1364 N 0.38127 0.58592 0.59915 0.0
N1365 N 0.33137 0.63363 0.61863 0.0
H1366 H 0.64887 0.10035 0.82142 0.0
H1367 H 0.54319 0.11801 0.8872 0.0
H1368 H 0.61852 0.18587 0.83269 0.0
H1369 H 0.62701 0.08259 0.89771 0.0
H1370 H 0.5614 0.13205 0.86266 0.0
H1371 H 0.63267 0.08287 0.84588 0.0
C1372 C 0.63898 0.11537 0.8291 0.0
C1373 C 0.63508 0.14453 0.82523 0.0
C1374 C 0.57555 0.12088 0.87035 0.0
C1375 C 0.61588 0.12467 0.85249 0.0
C1376 C 0.56522 0.11272 0.88421 0.0
C1377 C 0.58377 0.09928 0.89437 0.0
C1378 C 0.60421 0.11472 0.86661 0.0
C1379 C 0.61222 0.0931 0.89011 0.0
C1380 C 0.62983 0.10544 0.84291 0.0
C1381 C 0.62211 0.16329 0.83541 0.0
N1382 N 0.62166 0.10076 0.87642 0.0
N1383 N 0.61247 0.15291 0.84856 0.0
H1384 H 0.18783 0.64872 0.34076 0.0
H1385 H 0.08224 0.54327 0.38039 0.0
H1386 H 0.13555 0.58587 0.31769 0.0
H1387 H 0.14575 0.59465 0.40348 0.0
H1388 H 0.10948 0.54971 0.35754 0.0
H1389 H 0.18136 0.62122 0.36359 0.0
C1390 C 0.17538 0.62888 0.34044 0.0
C1391 C 0.16135 0.62012 0.32744 0.0
C1392 C 0.11782 0.55909 0.36766 0.0
C1393 C 0.1536 0.58874 0.35352 0.0
C1394 C 0.1022 0.55548 0.38071 0.0
C1395 C 0.11121 0.56933 0.39371 0.0
C1396 C 0.14224 0.57712 0.36761 0.0
C1397 C 0.13759 0.58425 0.39359 0.0
C1398 C 0.17178 0.61309 0.35348 0.0
C1399 C 0.14611 0.59386 0.32757 0.0
N1400 N 0.15183 0.58837 0.38064 0.0
N1401 N 0.14206 0.57945 0.3405 0.0
H1402 H 0.66855 0.81652 0.63669 0.0
H1403 H 0.56708 0.91597 0.58728 0.0
H1404 H 0.61289 0.88251 0.65493 0.0
H1405 H 0.63627 0.86399 0.56935 0.0
H1406 H 0.58469 0.90542 0.61222 0.0
H1407 H 0.65835 0.835 0.6119 0.0
C1408 C 0.65435 0.83502 0.63549 0.0
C1409 C 0.64127 0.84777 0.64786 0.0
C1410 C 0.59617 0.89658 0.60281 0.0
C1411 C 0.62938 0.86889 0.61956 0.0
C1412 C 0.58607 0.9025 0.58858 0.0
C1413 C 0.60002 0.89054 0.57624 0.0
C1414 C 0.62017 0.87834 0.60468 0.0
C1415 C 0.62469 0.87348 0.57856 0.0
C1416 C 0.6486 0.84562 0.62134 0.0
C1417 C 0.62328 0.87188 0.64568 0.0
N1418 N 0.6338 0.86763 0.59252 0.0
N1419 N 0.61759 0.88146 0.63176 0.0
H1420 H 0.36145 0.38774 0.82568 0.0
H1421 H 0.3461 0.36567 0.913 0.0
H1422 H 0.31791 0.31493 0.84587 0.0
H1423 H 0.40974 0.4212 0.89251 0.0
H1424 H 0.32673 0.35456 0.88851 0.0
H1425 H 0.37017 0.40773 0.85027 0.0
C1426 C 0.35344 0.3761 0.83526 0.0
C1427 C 0.33935 0.34937 0.83375 0.0
C1428 C 0.34476 0.36938 0.88942 0.0
C1429 C 0.34923 0.37217 0.86184 0.0
C1430 C 0.35582 0.37578 0.90337 0.0
C1431 C 0.37987 0.39404 0.90476 0.0
C1432 C 0.35775 0.38147 0.87681 0.0
C1433 C 0.39144 0.40667 0.89193 0.0
C1434 C 0.35848 0.38752 0.84928 0.0
C1435 C 0.32924 0.33538 0.84655 0.0
N1436 N 0.38038 0.39998 0.87845 0.0
N1437 N 0.33458 0.34686 0.86009 0.0
H1438 H 0.85106 0.08419 0.16043 0.0
H1439 H 0.82622 0.09806 0.07375 0.0
H1440 H 0.80315 0.15307 0.1392 0.0
H1441 H 0.89014 0.04292 0.09433 0.0
H1442 H 0.80521 0.10714 0.09809 0.0
H1443 H 0.85306 0.05867 0.13683 0.0
C1444 C 0.84065 0.09381 0.15085 0.0
C1445 C 0.82764 0.12121 0.15166 0.0
C1446 C 0.82348 0.0926 0.09721 0.0
C1447 C 0.8298 0.09205 0.12472 0.0
C1448 C 0.83547 0.08734 0.08333 0.0
C1449 C 0.86053 0.07044 0.0821 0.0
C1450 C 0.83669 0.08085 0.10987 0.0
C1451 C 0.87128 0.05673 0.09484 0.0
C1452 C 0.84174 0.07916 0.13741 0.0
C1453 C 0.81401 0.13231 0.13898 0.0
N1454 N 0.8596 0.06266 0.10826 0.0
N1455 N 0.81583 0.11788 0.12595 0.0
H1456 H 0.7942 0.65544 0.84371 0.0
H1457 H 0.89665 0.54937 0.88526 0.0
H1458 H 0.84226 0.58726 0.82223 0.0
H1459 H 0.83886 0.60847 0.90743 0.0
H1460 H 0.8679 0.55423 0.8628 0.0
H1461 H 0.80042 0.63052 0.86732 0.0
C1462 C 0.80562 0.63497 0.84391 0.0
C1463 C 0.81871 0.62397 0.83109 0.0
C1464 C 0.86112 0.56571 0.87265 0.0
C1465 C 0.82615 0.59554 0.85806 0.0
C1466 C 0.87764 0.56303 0.88546 0.0
C1467 C 0.87069 0.57935 0.89804 0.0
C1468 C 0.83794 0.58534 0.87236 0.0
C1469 C 0.8454 0.59606 0.89784 0.0
C1470 C 0.80909 0.62067 0.8574 0.0
C1471 C 0.83258 0.597 0.83192 0.0
N1472 N 0.83031 0.59921 0.88506 0.0
N1473 N 0.83654 0.58403 0.84526 0.0
H1474 H 0.14948 0.10874 0.56877 0.0
H1475 H 0.13402 0.08591 0.65562 0.0
H1476 H 0.08219 0.05838 0.58968 0.0
H1477 H 0.18567 0.15282 0.63512 0.0
H1478 H 0.12609 0.06447 0.63131 0.0
H1479 H 0.17333 0.11355 0.59271 0.0
C1480 C 0.13988 0.09837 0.57835 0.0
C1481 C 0.11337 0.0838 0.57732 0.0
C1482 C 0.13955 0.08356 0.63219 0.0
C1483 C 0.14064 0.08919 0.60467 0.0
C1484 C 0.14412 0.09584 0.64605 0.0
C1485 C 0.15984 0.1217 0.64733 0.0
C1486 C 0.15078 0.09725 0.61956 0.0
C1487 C 0.17285 0.13326 0.63459 0.0
C1488 C 0.15357 0.10109 0.592 0.0
C1489 C 0.10227 0.07034 0.59004 0.0
N1490 N 0.16763 0.12119 0.62118 0.0
N1491 N 0.11578 0.07372 0.60326 0.0
H1492 H 0.65211 0.39349 0.40418 0.0
H1493 H 0.63121 0.40168 0.3173 0.0
H1494 H 0.58522 0.44226 0.38195 0.0
H1495 H 0.68333 0.33816 0.34022 0.0
H1496 H 0.62712 0.42906 0.34028 0.0
H1497 H 0.67608 0.38639 0.38042 0.0
C1498 C 0.64273 0.4032 0.39436 0.0
C1499 C 0.61608 0.41761 0.39495 0.0
C1500 C 0.63991 0.40942 0.34019 0.0
C1501 C 0.64335 0.40948 0.36781 0.0
C1502 C 0.64223 0.39373 0.32709 0.0
C1503 C 0.65683 0.36709 0.327 0.0
C1504 C 0.65221 0.39831 0.35323 0.0
C1505 C 0.67117 0.35818 0.33991 0.0
C1506 C 0.65646 0.39914 0.38081 0.0
C1507 C 0.60531 0.43028 0.38193 0.0
N1508 N 0.66806 0.37351 0.3526 0.0
N1509 N 0.6187 0.42542 0.36882 0.0
H1510 H 0.34065 0.88218 0.07279 0.0
H1511 H 0.36221 0.90306 0.15944 0.0
H1512 H 0.41038 0.93064 0.09263 0.0
H1513 H 0.30725 0.8382 0.13967 0.0
H1514 H 0.36954 0.92451 0.135 0.0
H1515 H 0.3183 0.87748 0.09713 0.0
C1516 C 0.35108 0.89218 0.08222 0.0
C1517 C 0.37784 0.90614 0.08076 0.0
C1518 C 0.35552 0.90586 0.13607 0.0
C1519 C 0.35234 0.90084 0.10856 0.0
C1520 C 0.35132 0.89358 0.15 0.0
C1521 C 0.33474 0.86831 0.15151 0.0
C1522 C 0.34305 0.89276 0.12361 0.0
C1523 C 0.32076 0.85727 0.13895 0.0
C1524 C 0.33827 0.8895 0.0961 0.0
C1525 C 0.39008 0.91911 0.09331 0.0
N1526 N 0.32558 0.86934 0.12547 0.0
N1527 N 0.37742 0.91578 0.10675 0.0
H1528 H 0.85364 0.40571 0.66062 0.0
H1529 H 0.82926 0.39251 0.57423 0.0
H1530 H 0.79717 0.34384 0.63953 0.0
H1531 H 0.89972 0.43853 0.59488 0.0
H1532 H 0.80566 0.38868 0.5983 0.0
H1533 H 0.858 0.43151 0.6371 0.0
C1534 C 0.84165 0.39789 0.65113 0.0
C1535 C 0.82587 0.37199 0.65186 0.0
C1536 C 0.82603 0.40009 0.59749 0.0
C1537 C 0.83085 0.40133 0.62503 0.0
C1538 C 0.83958 0.40221 0.58378 0.0
C1539 C 0.86699 0.41497 0.58266 0.0
C1540 C 0.84007 0.41066 0.61014 0.0
C1541 C 0.87898 0.42779 0.59532 0.0
C1542 C 0.84416 0.41264 0.63772 0.0
C1543 C 0.8103 0.36323 0.63932 0.0
N1544 N 0.86568 0.42482 0.60862 0.0
N1545 N 0.81365 0.37757 0.62632 0.0
H1546 H 0.29169 0.15315 0.34465 0.0
H1547 H 0.39617 0.04872 0.38647 0.0
H1548 H 0.34234 0.08703 0.32304 0.0
H1549 H 0.33587 0.10544 0.40853 0.0
H1550 H 0.36852 0.05408 0.36366 0.0
H1551 H 0.29869 0.12821 0.36821 0.0
C1552 C 0.30387 0.13312 0.34481 0.0
C1553 C 0.31733 0.1227 0.33197 0.0
C1554 C 0.36098 0.06492 0.37356 0.0
C1555 C 0.32567 0.09425 0.35888 0.0
C1556 C 0.37685 0.06194 0.38658 0.0
C1557 C 0.36884 0.07744 0.39926 0.0
C1558 C 0.33732 0.08396 0.37319 0.0
C1559 C 0.34323 0.09366 0.39889 0.0
C1560 C 0.3078 0.11881 0.35827 0.0
C1561 C 0.33225 0.09629 0.33276 0.0
N1562 N 0.32873 0.09706 0.38594 0.0
N1563 N 0.33659 0.08331 0.34606 0.0
H1564 H 0.68079 0.65551 0.1378 0.0
H1565 H 0.58266 0.55413 0.0888 0.0
H1566 H 0.62444 0.58988 0.15595 0.0
H1567 H 0.64822 0.61062 0.07076 0.0
H1568 H 0.60262 0.56173 0.11346 0.0
H1569 H 0.67433 0.63449 0.11329 0.0
C1570 C 0.6673 0.63649 0.13666 0.0
C1571 C 0.6526 0.62481 0.14887 0.0
C1572 C 0.61291 0.57213 0.10409 0.0
C1573 C 0.64499 0.60078 0.12087 0.0
C1574 C 0.60146 0.56787 0.09 0.0
C1575 C 0.61339 0.5823 0.07776 0.0
C1576 C 0.6362 0.59124 0.10594 0.0
C1577 C 0.63804 0.59943 0.07992 0.0
C1578 C 0.6637 0.62442 0.12266 0.0
C1579 C 0.63582 0.59987 0.14679 0.0
N1580 N 0.64834 0.60382 0.0938 0.0
N1581 N 0.63208 0.58895 0.133 0.0
H1582 H 0.13835 0.90414 0.81906 0.0
H1583 H 0.15754 0.89773 0.90599 0.0
H1584 H 0.18842 0.84001 0.84273 0.0
H1585 H 0.09099 0.94582 0.8831 0.0
H1586 H 0.18218 0.89041 0.88244 0.0
H1587 H 0.13467 0.93239 0.84177 0.0
C1588 C 0.14903 0.89623 0.82895 0.0
C1589 C 0.16286 0.86918 0.82916 0.0
C1590 C 0.16251 0.9031 0.88264 0.0
C1591 C 0.15873 0.90142 0.85507 0.0
C1592 C 0.14839 0.90729 0.89607 0.0
C1593 C 0.1216 0.92149 0.8964 0.0
C1594 C 0.14967 0.91311 0.86951 0.0
C1595 C 0.11117 0.93399 0.88327 0.0
C1596 C 0.14695 0.91243 0.84189 0.0
C1597 C 0.17683 0.86036 0.84219 0.0
N1598 N 0.12494 0.92898 0.87028 0.0
N1599 N 0.17395 0.8762 0.85473 0.0
loop_
_geom_bond_atom_site_label_1
_geom_bond_atom_site_label_2
_geom_bond_distance
_geom_bond_site_symmetry_2
_ccdc_geom_bond_type
C0 O1 1.306 . S
C0 O3 1.160 . S
O1 C0 1.306 . S
O1 Cd2 2.228 . S
Cd2 O1 2.228 . S
Cd2 O6 2.273 . S
Cd2 O10 2.277 . S
O3 C0 1.160 . S
O3 Cd4 2.203 . S
Cd4 O3 2.203 . S
Cd4 O6 2.411 . S
Cd4 O7 2.333 . S
Cd4 O8 2.352 . S
Cd4 O12 2.277 . S
Cd4 O13 2.356 . S
C5 O10 1.209 . S
C5 O12 1.226 . S
O6 Cd2 2.273 . S
O6 Cd4 2.411 . S
O6 C9 1.320 . S
O7 Cd4 2.333 . S
O7 C9 1.214 . S
O8 Cd4 2.352 . S
O8 C11 1.258 . S
C9 O6 1.320 . S
C9 O7 1.214 . S
O10 Cd2 2.277 . S
O10 C5 1.209 . S
C11 O8 1.258 . S
C11 O13 1.282 . S
O12 Cd4 2.277 . S
O12 C5 1.226 . S
O13 Cd4 2.356 . S
O13 C11 1.282 . S
C14 O15 1.306 . S
C14 O17 1.160 . S
O15 C14 1.306 . S
O15 Cd16 2.228 . S
Cd16 O15 2.228 . S
Cd16 O20 2.273 . S
Cd16 O24 2.277 . S
O17 C14 1.160 . S
O17 Cd18 2.203 . S
Cd18 O17 2.203 . S
Cd18 O20 2.411 . S
Cd18 O21 2.333 . S
Cd18 O22 2.352 . S
Cd18 O26 2.277 . S
Cd18 O27 2.356 . S
C19 O24 1.209 . S
C19 O26 1.226 . S
O20 Cd16 2.273 . S
O20 Cd18 2.411 . S
O20 C23 1.320 . S
O21 Cd18 2.333 . S
O21 C23 1.214 . S
O22 Cd18 2.352 . S
O22 C25 1.258 . S
C23 O20 1.320 . S
C23 O21 1.214 . S
O24 Cd16 2.277 . S
O24 C19 1.209 . S
C25 O22 1.258 . S
C25 O27 1.282 . S
O26 Cd18 2.277 . S
O26 C19 1.226 . S
O27 Cd18 2.356 . S
O27 C25 1.282 . S
C28 O29 1.306 . S
C28 O31 1.160 . S
O29 C28 1.306 . S
O29 Cd30 2.228 . S
Cd30 O29 2.228 . S
Cd30 O34 2.273 . S
Cd30 O38 2.277 . S
O31 C28 1.160 . S
O31 Cd32 2.203 . S
Cd32 O31 2.203 . S
Cd32 O34 2.411 . S
Cd32 O35 2.333 . S
Cd32 O36 2.352 . S
Cd32 O40 2.277 . S
Cd32 O41 2.356 . S
C33 O38 1.209 . S
C33 O40 1.226 . S
O34 Cd30 2.273 . S
O34 Cd32 2.411 . S
O34 C37 1.320 . S
O35 Cd32 2.333 . S
O35 C37 1.214 . S
O36 Cd32 2.352 . S
O36 C39 1.258 . S
C37 O34 1.320 . S
C37 O35 1.214 . S
O38 Cd30 2.277 . S
O38 C33 1.209 . S
C39 O36 1.258 . S
C39 O41 1.282 . S
O40 Cd32 2.277 . S
O40 C33 1.226 . S
O41 Cd32 2.356 . S
O41 C39 1.282 . S
C42 O43 1.306 . S
C42 O45 1.160 . S
O43 C42 1.306 . S
O43 Cd44 2.228 . S
Cd44 O43 2.228 . S
Cd44 O48 2.273 . S
Cd44 O52 2.277 . S
O45 C42 1.160 . S
O45 Cd46 2.203 . S
Cd46 O45 2.203 . S
Cd46 O48 2.411 . S
Cd46 O49 2.333 . S
Cd46 O50 2.352 . S
Cd46 O54 2.277 . S
Cd46 O55 2.356 . S
C47 O52 1.209 . S
C47 O54 1.226 . S
O48 Cd44 2.273 . S
O48 Cd46 2.411 . S
O48 C51 1.320 . S
O49 Cd46 2.333 . S
O49 C51 1.214 . S
O50 Cd46 2.352 . S
O50 C53 1.258 . S
C51 O48 1.320 . S
C51 O49 1.214 . S
O52 Cd44 2.277 . S
O52 C47 1.209 . S
C53 O50 1.258 . S
C53 O55 1.282 . S
O54 Cd46 2.277 . S
O54 C47 1.226 . S
O55 Cd46 2.356 . S
O55 C53 1.282 . S
C56 O57 1.306 . S
C56 O59 1.160 . S
O57 C56 1.306 . S
O57 Cd58 2.228 . S
Cd58 O57 2.228 . S
Cd58 O62 2.273 . S
Cd58 O66 2.277 . S
O59 C56 1.160 . S
O59 Cd60 2.203 . S
Cd60 O59 2.203 . S
Cd60 O62 2.411 . S
Cd60 O63 2.333 . S
Cd60 O64 2.352 . S
Cd60 O68 2.277 . S
Cd60 O69 2.356 . S
C61 O66 1.209 . S
C61 O68 1.226 . S
O62 Cd58 2.273 . S
O62 Cd60 2.411 . S
O62 C65 1.320 . S
O63 Cd60 2.333 . S
O63 C65 1.214 . S
O64 Cd60 2.352 . S
O64 C67 1.258 . S
C65 O62 1.320 . S
C65 O63 1.214 . S
O66 Cd58 2.277 . S
O66 C61 1.209 . S
C67 O64 1.258 . S
C67 O69 1.282 . S
O68 Cd60 2.277 . S
O68 C61 1.226 . S
O69 Cd60 2.356 . S
O69 C67 1.282 . S
C70 O71 1.306 . S
C70 O73 1.160 . S
O71 C70 1.306 . S
O71 Cd72 2.228 . S
Cd72 O71 2.228 . S
Cd72 O76 2.273 . S
Cd72 O80 2.277 . S
O73 C70 1.160 . S
O73 Cd74 2.203 . S
Cd74 O73 2.203 . S
Cd74 O76 2.411 . S
Cd74 O77 2.333 . S
Cd74 O78 2.352 . S
Cd74 O82 2.277 . S
Cd74 O83 2.356 . S
C75 O80 1.209 . S
C75 O82 1.226 . S
O76 Cd72 2.273 . S
O76 Cd74 2.411 . S
O76 C79 1.320 . S
O77 Cd74 2.333 . S
O77 C79 1.214 . S
O78 Cd74 2.352 . S
O78 C81 1.258 . S
C79 O76 1.320 . S
C79 O77 1.214 . S
O80 Cd72 2.277 . S
O80 C75 1.209 . S
C81 O78 1.258 . S
C81 O83 1.282 . S
O82 Cd74 2.277 . S
O82 C75 1.226 . S
O83 Cd74 2.356 . S
O83 C81 1.282 . S
C84 O85 1.306 . S
C84 O87 1.160 . S
O85 C84 1.306 . S
O85 Cd86 2.228 . S
Cd86 O85 2.228 . S
Cd86 O90 2.273 . S
Cd86 O94 2.277 . S
O87 C84 1.160 . S
O87 Cd88 2.203 . S
Cd88 O87 2.203 . S
Cd88 O90 2.411 . S
Cd88 O91 2.333 . S
Cd88 O92 2.352 . S
Cd88 O96 2.277 . S
Cd88 O97 2.356 . S
C89 O94 1.209 . S
C89 O96 1.226 . S
O90 Cd86 2.273 . S
O90 Cd88 2.411 . S
O90 C93 1.320 . S
O91 Cd88 2.333 . S
O91 C93 1.214 . S
O92 Cd88 2.352 . S
O92 C95 1.258 . S
C93 O90 1.320 . S
C93 O91 1.214 . S
O94 Cd86 2.277 . S
O94 C89 1.209 . S
C95 O92 1.258 . S
C95 O97 1.282 . S
O96 Cd88 2.277 . S
O96 C89 1.226 . S
O97 Cd88 2.356 . S
O97 C95 1.282 . S
C98 O99 1.306 . S
C98 O101 1.160 . S
O99 C98 1.306 . S
O99 Cd100 2.228 . S
Cd100 O99 2.228 . S
Cd100 O104 2.273 . S
Cd100 O108 2.277 . S
O101 C98 1.160 . S
O101 Cd102 2.203 . S
Cd102 O101 2.203 . S
Cd102 O104 2.411 . S
Cd102 O105 2.333 . S
Cd102 O106 2.352 . S
Cd102 O110 2.277 . S
Cd102 O111 2.356 . S
C103 O108 1.209 . S
C103 O110 1.226 . S
O104 Cd100 2.273 . S
O104 Cd102 2.411 . S
O104 C107 1.320 . S
O105 Cd102 2.333 . S
O105 C107 1.214 . S
O106 Cd102 2.352 . S
O106 C109 1.258 . S
C107 O104 1.320 . S
C107 O105 1.214 . S
O108 Cd100 2.277 . S
O108 C103 1.209 . S
C109 O106 1.258 . S
C109 O111 1.282 . S
O110 Cd102 2.277 . S
O110 C103 1.226 . S
O111 Cd102 2.356 . S
O111 C109 1.282 . S
C112 O113 1.306 . S
C112 O115 1.160 . S
O113 C112 1.306 . S
O113 Cd114 2.228 . S
Cd114 O113 2.228 . S
Cd114 O118 2.273 . S
Cd114 O122 2.277 . S
O115 C112 1.160 . S
O115 Cd116 2.203 . S
Cd116 O115 2.203 . S
Cd116 O118 2.411 . S
Cd116 O119 2.333 . S
Cd116 O120 2.352 . S
Cd116 O124 2.277 . S
Cd116 O125 2.356 . S
C117 O122 1.209 . S
C117 O124 1.226 . S
O118 Cd114 2.273 . S
O118 Cd116 2.411 . S
O118 C121 1.320 . S
O119 Cd116 2.333 . S
O119 C121 1.214 . S
O120 Cd116 2.352 . S
O120 C123 1.258 . S
C121 O118 1.320 . S
C121 O119 1.214 . S
O122 Cd114 2.277 . S
O122 C117 1.209 . S
C123 O120 1.258 . S
C123 O125 1.282 . S
O124 Cd116 2.277 . S
O124 C117 1.226 . S
O125 Cd116 2.356 . S
O125 C123 1.282 . S
C126 O127 1.306 . S
C126 O129 1.160 . S
O127 C126 1.306 . S
O127 Cd128 2.228 . S
Cd128 O127 2.228 . S
Cd128 O132 2.273 . S
Cd128 O136 2.277 . S
O129 C126 1.160 . S
O129 Cd130 2.203 . S
Cd130 O129 2.203 . S
Cd130 O132 2.411 . S
Cd130 O133 2.333 . S
Cd130 O134 2.352 . S
Cd130 O138 2.277 . S
Cd130 O139 2.356 . S
C131 O136 1.209 . S
C131 O138 1.226 . S
O132 Cd128 2.273 . S
O132 Cd130 2.411 . S
O132 C135 1.320 . S
O133 Cd130 2.333 . S
O133 C135 1.214 . S
O134 Cd130 2.352 . S
O134 C137 1.258 . S
C135 O132 1.320 . S
C135 O133 1.214 . S
O136 Cd128 2.277 . S
O136 C131 1.209 . S
C137 O134 1.258 . S
C137 O139 1.282 . S
O138 Cd130 2.277 . S
O138 C131 1.226 . S
O139 Cd130 2.356 . S
O139 C137 1.282 . S
C140 O141 1.306 . S
C140 O143 1.160 . S
O141 C140 1.306 . S
O141 Cd142 2.228 . S
Cd142 O141 2.228 . S
Cd142 O146 2.273 . S
Cd142 O150 2.277 . S
O143 C140 1.160 . S
O143 Cd144 2.203 . S
Cd144 O143 2.203 . S
Cd144 O146 2.411 . S
Cd144 O147 2.333 . S
Cd144 O148 2.352 . S
Cd144 O152 2.277 . S
Cd144 O153 2.356 . S
C145 O150 1.209 . S
C145 O152 1.226 . S
O146 Cd142 2.273 . S
O146 Cd144 2.411 . S
O146 C149 1.320 . S
O147 Cd144 2.333 . S
O147 C149 1.214 . S
O148 Cd144 2.352 . S
O148 C151 1.258 . S
C149 O146 1.320 . S
C149 O147 1.214 . S
O150 Cd142 2.277 . S
O150 C145 1.209 . S
C151 O148 1.258 . S
C151 O153 1.282 . S
O152 Cd144 2.277 . S
O152 C145 1.226 . S
O153 Cd144 2.356 . S
O153 C151 1.282 . S
C154 O155 1.306 . S
C154 O157 1.160 . S
O155 C154 1.306 . S
O155 Cd156 2.228 . S
Cd156 O155 2.228 . S
Cd156 O160 2.273 . S
Cd156 O164 2.277 . S
O157 C154 1.160 . S
O157 Cd158 2.203 . S
Cd158 O157 2.203 . S
Cd158 O160 2.411 . S
Cd158 O161 2.333 . S
Cd158 O162 2.352 . S
Cd158 O166 2.277 . S
Cd158 O167 2.356 . S
C159 O164 1.209 . S
C159 O166 1.226 . S
O160 Cd156 2.273 . S
O160 Cd158 2.411 . S
O160 C163 1.320 . S
O161 Cd158 2.333 . S
O161 C163 1.214 . S
O162 Cd158 2.352 . S
O162 C165 1.258 . S
C163 O160 1.320 . S
C163 O161 1.214 . S
O164 Cd156 2.277 . S
O164 C159 1.209 . S
C165 O162 1.258 . S
C165 O167 1.282 . S
O166 Cd158 2.277 . S
O166 C159 1.226 . S
O167 Cd158 2.356 . S
O167 C165 1.282 . S
C168 O169 1.306 . S
C168 O171 1.160 . S
O169 C168 1.306 . S
O169 Cd170 2.228 . S
Cd170 O169 2.228 . S
Cd170 O174 2.273 . S
Cd170 O178 2.277 . S
O171 C168 1.160 . S
O171 Cd172 2.203 . S
Cd172 O171 2.203 . S
Cd172 O174 2.411 . S
Cd172 O175 2.333 . S
Cd172 O176 2.352 . S
Cd172 O180 2.277 . S
Cd172 O181 2.356 . S
C173 O178 1.209 . S
C173 O180 1.226 . S
O174 Cd170 2.273 . S
O174 Cd172 2.411 . S
O174 C177 1.320 . S
O175 Cd172 2.333 . S
O175 C177 1.214 . S
O176 Cd172 2.352 . S
O176 C179 1.258 . S
C177 O174 1.320 . S
C177 O175 1.214 . S
O178 Cd170 2.277 . S
O178 C173 1.209 . S
C179 O176 1.258 . S
C179 O181 1.282 . S
O180 Cd172 2.277 . S
O180 C173 1.226 . S
O181 Cd172 2.356 . S
O181 C179 1.282 . S
C182 O183 1.306 . S
C182 O185 1.160 . S
O183 C182 1.306 . S
O183 Cd184 2.228 . S
Cd184 O183 2.228 . S
Cd184 O188 2.273 . S
Cd184 O192 2.277 . S
O185 C182 1.160 . S
O185 Cd186 2.203 . S
Cd186 O185 2.203 . S
Cd186 O188 2.411 . S
Cd186 O189 2.333 . S
Cd186 O190 2.352 . S
Cd186 O194 2.277 . S
Cd186 O195 2.356 . S
C187 O192 1.209 . S
C187 O194 1.226 . S
O188 Cd184 2.273 . S
O188 Cd186 2.411 . S
O188 C191 1.320 . S
O189 Cd186 2.333 . S
O189 C191 1.214 . S
O190 Cd186 2.352 . S
O190 C193 1.258 . S
C191 O188 1.320 . S
C191 O189 1.214 . S
O192 Cd184 2.277 . S
O192 C187 1.209 . S
C193 O190 1.258 . S
C193 O195 1.282 . S
O194 Cd186 2.277 . S
O194 C187 1.226 . S
O195 Cd186 2.356 . S
O195 C193 1.282 . S
C196 O197 1.306 . S
C196 O199 1.160 . S
O197 C196 1.306 . S
O197 Cd198 2.228 . S
Cd198 O197 2.228 . S
Cd198 O202 2.273 . S
Cd198 O206 2.277 . S
O199 C196 1.160 . S
O199 Cd200 2.203 . S
Cd200 O199 2.203 . S
Cd200 O202 2.411 . S
Cd200 O203 2.333 . S
Cd200 O204 2.352 . S
Cd200 O208 2.277 . S
Cd200 O209 2.356 . S
C201 O206 1.209 . S
C201 O208 1.226 . S
O202 Cd198 2.273 . S
O202 Cd200 2.411 . S
O202 C205 1.320 . S
O203 Cd200 2.333 . S
O203 C205 1.214 . S
O204 Cd200 2.352 . S
O204 C207 1.258 . S
C205 O202 1.320 . S
C205 O203 1.214 . S
O206 Cd198 2.277 . S
O206 C201 1.209 . S
C207 O204 1.258 . S
C207 O209 1.282 . S
O208 Cd200 2.277 . S
O208 C201 1.226 . S
O209 Cd200 2.356 . S
O209 C207 1.282 . S
C210 O211 1.306 . S
C210 O213 1.160 . S
O211 C210 1.306 . S
O211 Cd212 2.228 . S
Cd212 O211 2.228 . S
Cd212 O216 2.273 . S
Cd212 O220 2.277 . S
O213 C210 1.160 . S
O213 Cd214 2.203 . S
Cd214 O213 2.203 . S
Cd214 O216 2.411 . S
Cd214 O217 2.333 . S
Cd214 O218 2.352 . S
Cd214 O222 2.277 . S
Cd214 O223 2.356 . S
C215 O220 1.209 . S
C215 O222 1.226 . S
O216 Cd212 2.273 . S
O216 Cd214 2.411 . S
O216 C219 1.320 . S
O217 Cd214 2.333 . S
O217 C219 1.214 . S
O218 Cd214 2.352 . S
O218 C221 1.258 . S
C219 O216 1.320 . S
C219 O217 1.214 . S
O220 Cd212 2.277 . S
O220 C215 1.209 . S
C221 O218 1.258 . S
C221 O223 1.282 . S
O222 Cd214 2.277 . S
O222 C215 1.226 . S
O223 Cd214 2.356 . S
O223 C221 1.282 . S
C224 O225 1.306 . S
C224 O227 1.160 . S
O225 C224 1.306 . S
O225 Cd226 2.228 . S
Cd226 O225 2.228 . S
Cd226 O230 2.273 . S
Cd226 O234 2.277 . S
O227 C224 1.160 . S
O227 Cd228 2.203 . S
Cd228 O227 2.203 . S
Cd228 O230 2.411 . S
Cd228 O231 2.333 . S
Cd228 O232 2.352 . S
Cd228 O236 2.277 . S
Cd228 O237 2.356 . S
C229 O234 1.209 . S
C229 O236 1.226 . S
O230 Cd226 2.273 . S
O230 Cd228 2.411 . S
O230 C233 1.320 . S
O231 Cd228 2.333 . S
O231 C233 1.214 . S
O232 Cd228 2.352 . S
O232 C235 1.258 . S
C233 O230 1.320 . S
C233 O231 1.214 . S
O234 Cd226 2.277 . S
O234 C229 1.209 . S
C235 O232 1.258 . S
C235 O237 1.282 . S
O236 Cd228 2.277 . S
O236 C229 1.226 . S
O237 Cd228 2.356 . S
O237 C235 1.282 . S
C238 O239 1.306 . S
C238 O241 1.160 . S
O239 C238 1.306 . S
O239 Cd240 2.228 . S
Cd240 O239 2.228 . S
Cd240 O244 2.273 . S
Cd240 O248 2.277 . S
O241 C238 1.160 . S
O241 Cd242 2.203 . S
Cd242 O241 2.203 . S
Cd242 O244 2.411 . S
Cd242 O245 2.333 . S
Cd242 O246 2.352 . S
Cd242 O250 2.277 . S
Cd242 O251 2.356 . S
C243 O248 1.209 . S
C243 O250 1.226 . S
O244 Cd240 2.273 . S
O244 Cd242 2.411 . S
O244 C247 1.320 . S
O245 Cd242 2.333 . S
O245 C247 1.214 . S
O246 Cd242 2.352 . S
O246 C249 1.258 . S
C247 O244 1.320 . S
C247 O245 1.214 . S
O248 Cd240 2.277 . S
O248 C243 1.209 . S
C249 O246 1.258 . S
C249 O251 1.282 . S
O250 Cd242 2.277 . S
O250 C243 1.226 . S
O251 Cd242 2.356 . S
O251 C249 1.282 . S
C252 O253 1.306 . S
C252 O255 1.160 . S
O253 C252 1.306 . S
O253 Cd254 2.228 . S
Cd254 O253 2.228 . S
Cd254 O258 2.273 . S
Cd254 O262 2.277 . S
O255 C252 1.160 . S
O255 Cd256 2.203 . S
Cd256 O255 2.203 . S
Cd256 O258 2.411 . S
Cd256 O259 2.333 . S
Cd256 O260 2.352 . S
Cd256 O264 2.277 . S
Cd256 O265 2.356 . S
C257 O262 1.209 . S
C257 O264 1.226 . S
O258 Cd254 2.273 . S
O258 Cd256 2.411 . S
O258 C261 1.320 . S
O259 Cd256 2.333 . S
O259 C261 1.214 . S
O260 Cd256 2.352 . S
O260 C263 1.258 . S
C261 O258 1.320 . S
C261 O259 1.214 . S
O262 Cd254 2.277 . S
O262 C257 1.209 . S
C263 O260 1.258 . S
C263 O265 1.282 . S
O264 Cd256 2.277 . S
O264 C257 1.226 . S
O265 Cd256 2.356 . S
O265 C263 1.282 . S
C266 O267 1.306 . S
C266 O269 1.160 . S
O267 C266 1.306 . S
O267 Cd268 2.228 . S
Cd268 O267 2.228 . S
Cd268 O272 2.273 . S
Cd268 O276 2.277 . S
O269 C266 1.160 . S
O269 Cd270 2.203 . S
Cd270 O269 2.203 . S
Cd270 O272 2.411 . S
Cd270 O273 2.333 . S
Cd270 O274 2.352 . S
Cd270 O278 2.277 . S
Cd270 O279 2.356 . S
C271 O276 1.209 . S
C271 O278 1.226 . S
O272 Cd268 2.273 . S
O272 Cd270 2.411 . S
O272 C275 1.320 . S
O273 Cd270 2.333 . S
O273 C275 1.214 . S
O274 Cd270 2.352 . S
O274 C277 1.258 . S
C275 O272 1.320 . S
C275 O273 1.214 . S
O276 Cd268 2.277 . S
O276 C271 1.209 . S
C277 O274 1.258 . S
C277 O279 1.282 . S
O278 Cd270 2.277 . S
O278 C271 1.226 . S
O279 Cd270 2.356 . S
O279 C277 1.282 . S
C280 O281 1.306 . S
C280 O283 1.160 . S
O281 C280 1.306 . S
O281 Cd282 2.228 . S
Cd282 O281 2.228 . S
Cd282 O286 2.273 . S
Cd282 O290 2.277 . S
O283 C280 1.160 . S
O283 Cd284 2.203 . S
Cd284 O283 2.203 . S
Cd284 O286 2.411 . S
Cd284 O287 2.333 . S
Cd284 O288 2.352 . S
Cd284 O292 2.277 . S
Cd284 O293 2.356 . S
C285 O290 1.209 . S
C285 O292 1.226 . S
O286 Cd282 2.273 . S
O286 Cd284 2.411 . S
O286 C289 1.320 . S
O287 Cd284 2.333 . S
O287 C289 1.214 . S
O288 Cd284 2.352 . S
O288 C291 1.258 . S
C289 O286 1.320 . S
C289 O287 1.214 . S
O290 Cd282 2.277 . S
O290 C285 1.209 . S
C291 O288 1.258 . S
C291 O293 1.282 . S
O292 Cd284 2.277 . S
O292 C285 1.226 . S
O293 Cd284 2.356 . S
O293 C291 1.282 . S
C294 O295 1.306 . S
C294 O297 1.160 . S
O295 C294 1.306 . S
O295 Cd296 2.228 . S
Cd296 O295 2.228 . S
Cd296 O300 2.273 . S
Cd296 O304 2.277 . S
O297 C294 1.160 . S
O297 Cd298 2.203 . S
Cd298 O297 2.203 . S
Cd298 O300 2.411 . S
Cd298 O301 2.333 . S
Cd298 O302 2.352 . S
Cd298 O306 2.277 . S
Cd298 O307 2.356 . S
C299 O304 1.209 . S
C299 O306 1.226 . S
O300 Cd296 2.273 . S
O300 Cd298 2.411 . S
O300 C303 1.320 . S
O301 Cd298 2.333 . S
O301 C303 1.214 . S
O302 Cd298 2.352 . S
O302 C305 1.258 . S
C303 O300 1.320 . S
C303 O301 1.214 . S
O304 Cd296 2.277 . S
O304 C299 1.209 . S
C305 O302 1.258 . S
C305 O307 1.282 . S
O306 Cd298 2.277 . S
O306 C299 1.226 . S
O307 Cd298 2.356 . S
O307 C305 1.282 . S
C308 O309 1.306 . S
C308 O311 1.160 . S
O309 C308 1.306 . S
O309 Cd310 2.228 . S
Cd310 O309 2.228 . S
Cd310 O314 2.273 . S
Cd310 O318 2.277 . S
O311 C308 1.160 . S
O311 Cd312 2.203 . S
Cd312 O311 2.203 . S
Cd312 O314 2.411 . S
Cd312 O315 2.333 . S
Cd312 O316 2.352 . S
Cd312 O320 2.277 . S
Cd312 O321 2.356 . S
C313 O318 1.209 . S
C313 O320 1.226 . S
O314 Cd310 2.273 . S
O314 Cd312 2.411 . S
O314 C317 1.320 . S
O315 Cd312 2.333 . S
O315 C317 1.214 . S
O316 Cd312 2.352 . S
O316 C319 1.258 . S
C317 O314 1.320 . S
C317 O315 1.214 . S
O318 Cd310 2.277 . S
O318 C313 1.209 . S
C319 O316 1.258 . S
C319 O321 1.282 . S
O320 Cd312 2.277 . S
O320 C313 1.226 . S
O321 Cd312 2.356 . S
O321 C319 1.282 . S
C322 O323 1.306 . S
C322 O325 1.160 . S
O323 C322 1.306 . S
O323 Cd324 2.228 . S
Cd324 O323 2.228 . S
Cd324 O328 2.273 . S
Cd324 O332 2.277 . S
O325 C322 1.160 . S
O325 Cd326 2.203 . S
Cd326 O325 2.203 . S
Cd326 O328 2.411 . S
Cd326 O329 2.333 . S
Cd326 O330 2.352 . S
Cd326 O334 2.277 . S
Cd326 O335 2.356 . S
C327 O332 1.209 . S
C327 O334 1.226 . S
O328 Cd324 2.273 . S
O328 Cd326 2.411 . S
O328 C331 1.320 . S
O329 Cd326 2.333 . S
O329 C331 1.214 . S
O330 Cd326 2.352 . S
O330 C333 1.258 . S
C331 O328 1.320 . S
C331 O329 1.214 . S
O332 Cd324 2.277 . S
O332 C327 1.209 . S
C333 O330 1.258 . S
C333 O335 1.282 . S
O334 Cd326 2.277 . S
O334 C327 1.226 . S
O335 Cd326 2.356 . S
O335 C333 1.282 . S
C336 O337 1.306 . S
C336 O339 1.160 . S
O337 C336 1.306 . S
O337 Cd338 2.228 . S
Cd338 O337 2.228 . S
Cd338 O342 2.273 . S
Cd338 O346 2.277 . S
O339 C336 1.160 . S
O339 Cd340 2.203 . S
Cd340 O339 2.203 . S
Cd340 O342 2.411 . S
Cd340 O343 2.333 . S
Cd340 O344 2.352 . S
Cd340 O348 2.277 . S
Cd340 O349 2.356 . S
C341 O346 1.209 . S
C341 O348 1.226 . S
O342 Cd338 2.273 . S
O342 Cd340 2.411 . S
O342 C345 1.320 . S
O343 Cd340 2.333 . S
O343 C345 1.214 . S
O344 Cd340 2.352 . S
O344 C347 1.258 . S
C345 O342 1.320 . S
C345 O343 1.214 . S
O346 Cd338 2.277 . S
O346 C341 1.209 . S
C347 O344 1.258 . S
C347 O349 1.282 . S
O348 Cd340 2.277 . S
O348 C341 1.226 . S
O349 Cd340 2.356 . S
O349 C347 1.282 . S
C350 O351 1.306 . S
C350 O353 1.160 . S
O351 C350 1.306 . S
O351 Cd352 2.228 . S
Cd352 O351 2.228 . S
Cd352 O356 2.273 . S
Cd352 O360 2.277 . S
O353 C350 1.160 . S
O353 Cd354 2.203 . S
Cd354 O353 2.203 . S
Cd354 O356 2.411 . S
Cd354 O357 2.333 . S
Cd354 O358 2.352 . S
Cd354 O362 2.277 . S
Cd354 O363 2.356 . S
C355 O360 1.209 . S
C355 O362 1.226 . S
O356 Cd352 2.273 . S
O356 Cd354 2.411 . S
O356 C359 1.320 . S
O357 Cd354 2.333 . S
O357 C359 1.214 . S
O358 Cd354 2.352 . S
O358 C361 1.258 . S
C359 O356 1.320 . S
C359 O357 1.214 . S
O360 Cd352 2.277 . S
O360 C355 1.209 . S
C361 O358 1.258 . S
C361 O363 1.282 . S
O362 Cd354 2.277 . S
O362 C355 1.226 . S
O363 Cd354 2.356 . S
O363 C361 1.282 . S
C364 O365 1.306 . S
C364 O367 1.160 . S
O365 C364 1.306 . S
O365 Cd366 2.228 . S
Cd366 O365 2.228 . S
Cd366 O370 2.273 . S
Cd366 O374 2.277 . S
O367 C364 1.160 . S
O367 Cd368 2.203 . S
Cd368 O367 2.203 . S
Cd368 O370 2.411 . S
Cd368 O371 2.333 . S
Cd368 O372 2.352 . S
Cd368 O376 2.277 . S
Cd368 O377 2.356 . S
C369 O374 1.209 . S
C369 O376 1.226 . S
O370 Cd366 2.273 . S
O370 Cd368 2.411 . S
O370 C373 1.320 . S
O371 Cd368 2.333 . S
O371 C373 1.214 . S
O372 Cd368 2.352 . S
O372 C375 1.258 . S
C373 O370 1.320 . S
C373 O371 1.214 . S
O374 Cd366 2.277 . S
O374 C369 1.209 . S
C375 O372 1.258 . S
C375 O377 1.282 . S
O376 Cd368 2.277 . S
O376 C369 1.226 . S
O377 Cd368 2.356 . S
O377 C375 1.282 . S
C378 O379 1.306 . S
C378 O381 1.160 . S
O379 C378 1.306 . S
O379 Cd380 2.228 . S
Cd380 O379 2.228 . S
Cd380 O384 2.273 . S
Cd380 O388 2.277 . S
O381 C378 1.160 . S
O381 Cd382 2.203 . S
Cd382 O381 2.203 . S
Cd382 O384 2.411 . S
Cd382 O385 2.333 . S
Cd382 O386 2.352 . S
Cd382 O390 2.277 . S
Cd382 O391 2.356 . S
C383 O388 1.209 . S
C383 O390 1.226 . S
O384 Cd380 2.273 . S
O384 Cd382 2.411 . S
O384 C387 1.320 . S
O385 Cd382 2.333 . S
O385 C387 1.214 . S
O386 Cd382 2.352 . S
O386 C389 1.258 . S
C387 O384 1.320 . S
C387 O385 1.214 . S
O388 Cd380 2.277 . S
O388 C383 1.209 . S
C389 O386 1.258 . S
C389 O391 1.282 . S
O390 Cd382 2.277 . S
O390 C383 1.226 . S
O391 Cd382 2.356 . S
O391 C389 1.282 . S
C392 O393 1.306 . S
C392 O395 1.160 . S
O393 C392 1.306 . S
O393 Cd394 2.228 . S
Cd394 O393 2.228 . S
Cd394 O398 2.273 . S
Cd394 O402 2.277 . S
O395 C392 1.160 . S
O395 Cd396 2.203 . S
Cd396 O395 2.203 . S
Cd396 O398 2.411 . S
Cd396 O399 2.333 . S
Cd396 O400 2.352 . S
Cd396 O404 2.277 . S
Cd396 O405 2.356 . S
C397 O402 1.209 . S
C397 O404 1.226 . S
O398 Cd394 2.273 . S
O398 Cd396 2.411 . S
O398 C401 1.320 . S
O399 Cd396 2.333 . S
O399 C401 1.214 . S
O400 Cd396 2.352 . S
O400 C403 1.258 . S
C401 O398 1.320 . S
C401 O399 1.214 . S
O402 Cd394 2.277 . S
O402 C397 1.209 . S
C403 O400 1.258 . S
C403 O405 1.282 . S
O404 Cd396 2.277 . S
O404 C397 1.226 . S
O405 Cd396 2.356 . S
O405 C403 1.282 . S
C406 O407 1.306 . S
C406 O409 1.160 . S
O407 C406 1.306 . S
O407 Cd408 2.228 . S
Cd408 O407 2.228 . S
Cd408 O412 2.273 . S
Cd408 O416 2.277 . S
O409 C406 1.160 . S
O409 Cd410 2.203 . S
Cd410 O409 2.203 . S
Cd410 O412 2.411 . S
Cd410 O413 2.333 . S
Cd410 O414 2.352 . S
Cd410 O418 2.277 . S
Cd410 O419 2.356 . S
C411 O416 1.209 . S
C411 O418 1.226 . S
O412 Cd408 2.273 . S
O412 Cd410 2.411 . S
O412 C415 1.320 . S
O413 Cd410 2.333 . S
O413 C415 1.214 . S
O414 Cd410 2.352 . S
O414 C417 1.258 . S
C415 O412 1.320 . S
C415 O413 1.214 . S
O416 Cd408 2.277 . S
O416 C411 1.209 . S
C417 O414 1.258 . S
C417 O419 1.282 . S
O418 Cd410 2.277 . S
O418 C411 1.226 . S
O419 Cd410 2.356 . S
O419 C417 1.282 . S
C420 O421 1.306 . S
C420 O423 1.160 . S
O421 C420 1.306 . S
O421 Cd422 2.228 . S
Cd422 O421 2.228 . S
Cd422 O426 2.273 . S
Cd422 O430 2.277 . S
O423 C420 1.160 . S
O423 Cd424 2.203 . S
Cd424 O423 2.203 . S
Cd424 O426 2.411 . S
Cd424 O427 2.333 . S
Cd424 O428 2.352 . S
Cd424 O432 2.277 . S
Cd424 O433 2.356 . S
C425 O430 1.209 . S
C425 O432 1.226 . S
O426 Cd422 2.273 . S
O426 Cd424 2.411 . S
O426 C429 1.320 . S
O427 Cd424 2.333 . S
O427 C429 1.214 . S
O428 Cd424 2.352 . S
O428 C431 1.258 . S
C429 O426 1.320 . S
C429 O427 1.214 . S
O430 Cd422 2.277 . S
O430 C425 1.209 . S
C431 O428 1.258 . S
C431 O433 1.282 . S
O432 Cd424 2.277 . S
O432 C425 1.226 . S
O433 Cd424 2.356 . S
O433 C431 1.282 . S
C434 O435 1.306 . S
C434 O437 1.160 . S
O435 C434 1.306 . S
O435 Cd436 2.228 . S
Cd436 O435 2.228 . S
Cd436 O440 2.273 . S
Cd436 O444 2.277 . S
O437 C434 1.160 . S
O437 Cd438 2.203 . S
Cd438 O437 2.203 . S
Cd438 O440 2.411 . S
Cd438 O441 2.333 . S
Cd438 O442 2.352 . S
Cd438 O446 2.277 . S
Cd438 O447 2.356 . S
C439 O444 1.209 . S
C439 O446 1.226 . S
O440 Cd436 2.273 . S
O440 Cd438 2.411 . S
O440 C443 1.320 . S
O441 Cd438 2.333 . S
O441 C443 1.214 . S
O442 Cd438 2.352 . S
O442 C445 1.258 . S
C443 O440 1.320 . S
C443 O441 1.214 . S
O444 Cd436 2.277 . S
O444 C439 1.209 . S
C445 O442 1.258 . S
C445 O447 1.282 . S
O446 Cd438 2.277 . S
O446 C439 1.226 . S
O447 Cd438 2.356 . S
O447 C445 1.282 . S
H448 C454 0.930 . S
H449 C458 0.930 . S
H450 C463 0.929 1_554 S
H451 C461 0.929 1_556 S
H452 C456 0.929 1_655 S
H453 C462 0.929 1_455 S
C454 H448 0.930 . S
C454 C455 1.367 . S
C454 C462 1.378 . S
C455 C454 1.367 . S
C455 C463 1.433 . S
C456 H452 0.929 1_455 S
C456 C458 1.378 . S
C456 C460 1.350 . S
C457 C460 1.463 1_656 S
C457 C462 1.350 . S
C457 N465 1.427 1_556 S
C458 H449 0.930 . S
C458 C456 1.378 . S
C458 C459 1.367 . S
C459 C458 1.367 . S
C459 C461 1.433 . S
C460 C456 1.350 . S
C460 C457 1.463 1_454 S
C460 N464 1.427 1_554 S
C461 H451 0.929 1_554 S
C461 C459 1.433 . S
C461 N464 1.384 1_554 S
C462 H453 0.929 1_655 S
C462 C454 1.378 . S
C462 C457 1.350 . S
C463 H450 0.929 1_556 S
C463 C455 1.433 . S
C463 N465 1.384 1_556 S
N464 C460 1.427 1_556 S
N464 C461 1.384 1_556 S
N465 C457 1.427 1_554 S
N465 C463 1.384 1_554 S
H466 C472 0.930 . S
H467 C476 0.930 . S
H468 C481 0.929 . S
H469 C479 0.929 . S
H470 C474 0.929 . S
H471 C480 0.929 . S
C472 H466 0.930 . S
C472 C473 1.367 . S
C472 C480 1.378 . S
C473 C472 1.367 . S
C473 C481 1.433 . S
C474 H470 0.929 . S
C474 C476 1.378 . S
C474 C478 1.350 . S
C475 C478 1.463 . S
C475 C480 1.350 . S
C475 N483 1.427 . S
C476 H467 0.930 . S
C476 C474 1.378 . S
C476 C477 1.367 . S
C477 C476 1.367 . S
C477 C479 1.433 . S
C478 C474 1.350 . S
C478 C475 1.463 . S
C478 N482 1.427 . S
C479 H469 0.929 . S
C479 C477 1.433 . S
C479 N482 1.384 . S
C480 H471 0.929 . S
C480 C472 1.378 . S
C480 C475 1.350 . S
C481 H468 0.929 . S
C481 C473 1.433 . S
C481 N483 1.384 . S
N482 C478 1.427 . S
N482 C479 1.384 . S
N483 C475 1.427 . S
N483 C481 1.384 . S
H484 C490 0.930 . S
H485 C494 0.930 . S
H486 C499 0.929 . S
H487 C497 0.929 . S
H488 C492 0.929 . S
H489 C498 0.929 . S
C490 H484 0.930 . S
C490 C491 1.367 . S
C490 C498 1.378 . S
C491 C490 1.367 . S
C491 C499 1.433 . S
C492 H488 0.929 . S
C492 C494 1.378 . S
C492 C496 1.350 . S
C493 C496 1.463 . S
C493 C498 1.350 . S
C493 N501 1.427 . S
C494 H485 0.930 . S
C494 C492 1.378 . S
C494 C495 1.367 . S
C495 C494 1.367 . S
C495 C497 1.433 . S
C496 C492 1.350 . S
C496 C493 1.463 . S
C496 N500 1.427 . S
C497 H487 0.929 . S
C497 C495 1.433 . S
C497 N500 1.384 . S
C498 H489 0.929 . S
C498 C490 1.378 . S
C498 C493 1.350 . S
C499 H486 0.929 . S
C499 C491 1.433 . S
C499 N501 1.384 . S
N500 C496 1.427 . S
N500 C497 1.384 . S
N501 C493 1.427 . S
N501 C499 1.384 . S
H502 C508 0.930 . S
H503 C512 0.930 . S
H504 C517 0.929 . S
H505 C515 0.929 . S
H506 C510 0.929 . S
H507 C516 0.929 . S
C508 H502 0.930 . S
C508 C509 1.367 . S
C508 C516 1.378 . S
C509 C508 1.367 . S
C509 C517 1.433 . S
C510 H506 0.929 . S
C510 C512 1.378 . S
C510 C514 1.350 . S
C511 C514 1.463 . S
C511 C516 1.350 . S
C511 N519 1.427 . S
C512 H503 0.930 . S
C512 C510 1.378 . S
C512 C513 1.367 . S
C513 C512 1.367 . S
C513 C515 1.433 . S
C514 C510 1.350 . S
C514 C511 1.463 . S
C514 N518 1.427 . S
C515 H505 0.929 . S
C515 C513 1.433 . S
C515 N518 1.384 . S
C516 H507 0.929 . S
C516 C508 1.378 . S
C516 C511 1.350 . S
C517 H504 0.929 . S
C517 C509 1.433 . S
C517 N519 1.384 . S
N518 C514 1.427 . S
N518 C515 1.384 . S
N519 C511 1.427 . S
N519 C517 1.384 . S
H520 C526 0.930 . S
H521 C530 0.930 . S
H522 C535 0.929 . S
H523 C533 0.929 . S
H524 C528 0.929 . S
H525 C534 0.929 . S
C526 H520 0.930 . S
C526 C527 1.367 . S
C526 C534 1.378 . S
C527 C526 1.367 . S
C527 C535 1.433 . S
C528 H524 0.929 . S
C528 C530 1.378 . S
C528 C532 1.350 . S
C529 C532 1.463 1_655 S
C529 C534 1.350 . S
C529 N537 1.427 . S
C530 H521 0.930 . S
C530 C528 1.378 . S
C530 C531 1.367 . S
C531 C530 1.367 . S
C531 C533 1.433 . S
C532 C528 1.350 . S
C532 C529 1.463 1_455 S
C532 N536 1.427 . S
C533 H523 0.929 . S
C533 C531 1.433 . S
C533 N536 1.384 . S
C534 H525 0.929 . S
C534 C526 1.378 . S
C534 C529 1.350 . S
C535 H522 0.929 . S
C535 C527 1.433 . S
C535 N537 1.384 . S
N536 C532 1.427 . S
N536 C533 1.384 . S
N537 C529 1.427 . S
N537 C535 1.384 . S
H538 C544 0.930 . S
H539 C548 0.930 . S
H540 C553 0.929 . S
H541 C551 0.929 . S
H542 C546 0.929 . S
H543 C552 0.929 . S
C544 H538 0.930 . S
C544 C545 1.367 . S
C544 C552 1.378 . S
C545 C544 1.367 . S
C545 C553 1.433 . S
C546 H542 0.929 . S
C546 C548 1.378 . S
C546 C550 1.350 . S
C547 C550 1.463 . S
C547 C552 1.350 . S
C547 N555 1.427 . S
C548 H539 0.930 . S
C548 C546 1.378 . S
C548 C549 1.367 . S
C549 C548 1.367 . S
C549 C551 1.433 . S
C550 C546 1.350 . S
C550 C547 1.463 . S
C550 N554 1.427 . S
C551 H541 0.929 . S
C551 C549 1.433 . S
C551 N554 1.384 . S
C552 H543 0.929 . S
C552 C544 1.378 . S
C552 C547 1.350 . S
C553 H540 0.929 . S
C553 C545 1.433 . S
C553 N555 1.384 . S
N554 C550 1.427 . S
N554 C551 1.384 . S
N555 C547 1.427 . S
N555 C553 1.384 . S
H556 C562 0.930 . S
H557 C566 0.930 . S
H558 C571 0.929 . S
H559 C569 0.929 . S
H560 C564 0.929 1_556 S
H561 C570 0.929 1_554 S
C562 H556 0.930 . S
C562 C563 1.367 . S
C562 C570 1.378 . S
C563 C562 1.367 . S
C563 C571 1.433 . S
C564 H560 0.929 1_554 S
C564 C566 1.378 . S
C564 C568 1.350 . S
C565 C568 1.463 1_556 S
C565 C570 1.350 . S
C565 N573 1.427 . S
C566 H557 0.930 . S
C566 C564 1.378 . S
C566 C567 1.367 . S
C567 C566 1.367 . S
C567 C569 1.433 . S
C568 C564 1.350 . S
C568 C565 1.463 1_554 S
C568 N572 1.427 . S
C569 H559 0.929 . S
C569 C567 1.433 . S
C569 N572 1.384 . S
C570 H561 0.929 1_556 S
C570 C562 1.378 . S
C570 C565 1.350 . S
C571 H558 0.929 . S
C571 C563 1.433 . S
C571 N573 1.384 . S
N572 C568 1.427 . S
N572 C569 1.384 . S
N573 C565 1.427 . S
N573 C571 1.384 . S
H574 C580 0.930 . S
H575 C584 0.930 . S
H576 C589 0.929 . S
H577 C587 0.929 . S
H578 C582 0.929 . S
H579 C588 0.929 . S
C580 H574 0.930 . S
C580 C581 1.367 . S
C580 C588 1.378 . S
C581 C580 1.367 . S
C581 C589 1.433 . S
C582 H578 0.929 . S
C582 C584 1.378 . S
C582 C586 1.350 . S
C583 C586 1.463 . S
C583 C588 1.350 . S
C583 N591 1.427 . S
C584 H575 0.930 . S
C584 C582 1.378 . S
C584 C585 1.367 . S
C585 C584 1.367 . S
C585 C587 1.433 . S
C586 C582 1.350 . S
C586 C583 1.463 . S
C586 N590 1.427 . S
C587 H577 0.929 . S
C587 C585 1.433 . S
C587 N590 1.384 . S
C588 H579 0.929 . S
C588 C580 1.378 . S
C588 C583 1.350 . S
C589 H576 0.929 . S
C589 C581 1.433 . S
C589 N591 1.384 . S
N590 C586 1.427 . S
N590 C587 1.384 . S
N591 C583 1.427 . S
N591 C589 1.384 . S
H592 C598 0.930 . S
H593 C602 0.930 . S
H594 C607 0.929 . S
H595 C605 0.929 . S
H596 C600 0.929 . S
H597 C606 0.929 . S
C598 H592 0.930 . S
C598 C599 1.367 . S
C598 C606 1.378 . S
C599 C598 1.367 . S
C599 C607 1.433 . S
C600 H596 0.929 . S
C600 C602 1.378 . S
C600 C604 1.350 . S
C601 C604 1.463 . S
C601 C606 1.350 . S
C601 N609 1.427 . S
C602 H593 0.930 . S
C602 C600 1.378 . S
C602 C603 1.367 . S
C603 C602 1.367 . S
C603 C605 1.433 . S
C604 C600 1.350 . S
C604 C601 1.463 . S
C604 N608 1.427 . S
C605 H595 0.929 . S
C605 C603 1.433 . S
C605 N608 1.384 . S
C606 H597 0.929 . S
C606 C598 1.378 . S
C606 C601 1.350 . S
C607 H594 0.929 . S
C607 C599 1.433 . S
C607 N609 1.384 . S
N608 C604 1.427 . S
N608 C605 1.384 . S
N609 C601 1.427 . S
N609 C607 1.384 . S
H610 C616 0.930 . S
H611 C620 0.930 . S
H612 C625 0.929 . S
H613 C623 0.929 . S
H614 C618 0.929 . S
H615 C624 0.929 . S
C616 H610 0.930 . S
C616 C617 1.367 . S
C616 C624 1.378 . S
C617 C616 1.367 . S
C617 C625 1.433 . S
C618 H614 0.929 . S
C618 C620 1.378 . S
C618 C622 1.350 . S
C619 C622 1.463 . S
C619 C624 1.350 . S
C619 N627 1.427 . S
C620 H611 0.930 . S
C620 C618 1.378 . S
C620 C621 1.367 . S
C621 C620 1.367 . S
C621 C623 1.433 . S
C622 C618 1.350 . S
C622 C619 1.463 . S
C622 N626 1.427 . S
C623 H613 0.929 . S
C623 C621 1.433 . S
C623 N626 1.384 . S
C624 H615 0.929 . S
C624 C616 1.378 . S
C624 C619 1.350 . S
C625 H612 0.929 . S
C625 C617 1.433 . S
C625 N627 1.384 . S
N626 C622 1.427 . S
N626 C623 1.384 . S
N627 C619 1.427 . S
N627 C625 1.384 . S
H628 C634 0.930 . S
H629 C638 0.930 . S
H630 C643 0.929 . S
H631 C641 0.929 . S
H632 C636 0.929 . S
H633 C642 0.929 . S
C634 H628 0.930 . S
C634 C635 1.367 . S
C634 C642 1.378 . S
C635 C634 1.367 . S
C635 C643 1.433 . S
C636 H632 0.929 . S
C636 C638 1.378 . S
C636 C640 1.350 . S
C637 C640 1.463 . S
C637 C642 1.350 . S
C637 N645 1.427 . S
C638 H629 0.930 . S
C638 C636 1.378 . S
C638 C639 1.367 . S
C639 C638 1.367 . S
C639 C641 1.433 . S
C640 C636 1.350 . S
C640 C637 1.463 . S
C640 N644 1.427 . S
C641 H631 0.929 . S
C641 C639 1.433 . S
C641 N644 1.384 . S
C642 H633 0.929 . S
C642 C634 1.378 . S
C642 C637 1.350 . S
C643 H630 0.929 . S
C643 C635 1.433 . S
C643 N645 1.384 . S
N644 C640 1.427 . S
N644 C641 1.384 . S
N645 C637 1.427 . S
N645 C643 1.384 . S
H646 C652 0.930 . S
H647 C656 0.930 . S
H648 C661 0.929 . S
H649 C659 0.929 . S
H650 C654 0.929 . S
H651 C660 0.929 . S
C652 H646 0.930 . S
C652 C653 1.367 . S
C652 C660 1.378 . S
C653 C652 1.367 . S
C653 C661 1.433 . S
C654 H650 0.929 . S
C654 C656 1.378 . S
C654 C658 1.350 . S
C655 C658 1.463 . S
C655 C660 1.350 . S
C655 N663 1.427 . S
C656 H647 0.930 . S
C656 C654 1.378 . S
C656 C657 1.367 . S
C657 C656 1.367 . S
C657 C659 1.433 . S
C658 C654 1.350 . S
C658 C655 1.463 . S
C658 N662 1.427 . S
C659 H649 0.929 . S
C659 C657 1.433 . S
C659 N662 1.384 . S
C660 H651 0.929 . S
C660 C652 1.378 . S
C660 C655 1.350 . S
C661 H648 0.929 . S
C661 C653 1.433 . S
C661 N663 1.384 . S
N662 C658 1.427 . S
N662 C659 1.384 . S
N663 C655 1.427 . S
N663 C661 1.384 . S
H664 C670 0.930 . S
H665 C674 0.930 . S
H666 C679 0.929 . S
H667 C677 0.929 . S
H668 C672 0.929 . S
H669 C678 0.929 . S
C670 H664 0.930 . S
C670 C671 1.367 . S
C670 C678 1.378 . S
C671 C670 1.367 . S
C671 C679 1.433 . S
C672 H668 0.929 . S
C672 C674 1.378 . S
C672 C676 1.350 . S
C673 C676 1.463 1_565 S
C673 C678 1.350 . S
C673 N681 1.427 . S
C674 H665 0.930 . S
C674 C672 1.378 . S
C674 C675 1.367 . S
C675 C674 1.367 . S
C675 C677 1.433 . S
C676 C672 1.350 . S
C676 C673 1.463 1_545 S
C676 N680 1.427 . S
C677 H667 0.929 . S
C677 C675 1.433 . S
C677 N680 1.384 . S
C678 H669 0.929 . S
C678 C670 1.378 . S
C678 C673 1.350 . S
C679 H666 0.929 . S
C679 C671 1.433 . S
C679 N681 1.384 . S
N680 C676 1.427 . S
N680 C677 1.384 . S
N681 C673 1.427 . S
N681 C679 1.384 . S
H682 C688 0.930 . S
H683 C692 0.930 . S
H684 C697 0.929 1_554 S
H685 C695 0.929 1_556 S
H686 C690 0.929 1_465 S
H687 C696 0.929 1_645 S
C688 H682 0.930 . S
C688 C689 1.367 . S
C688 C696 1.378 . S
C689 C688 1.367 . S
C689 C697 1.433 . S
C690 H686 0.929 1_645 S
C690 C692 1.378 . S
C690 C694 1.350 . S
C691 C694 1.463 1_466 S
C691 C696 1.350 . S
C691 N699 1.427 1_556 S
C692 H683 0.930 . S
C692 C690 1.378 . S
C692 C693 1.367 . S
C693 C692 1.367 . S
C693 C695 1.433 . S
C694 C690 1.350 . S
C694 C691 1.463 1_644 S
C694 N698 1.427 1_554 S
C695 H685 0.929 1_554 S
C695 C693 1.433 . S
C695 N698 1.384 1_554 S
C696 H687 0.929 1_465 S
C696 C688 1.378 . S
C696 C691 1.350 . S
C697 H684 0.929 1_556 S
C697 C689 1.433 . S
C697 N699 1.384 1_556 S
N698 C694 1.427 1_556 S
N698 C695 1.384 1_556 S
N699 C691 1.427 1_554 S
N699 C697 1.384 1_554 S
H700 C706 0.930 . S
H701 C710 0.930 . S
H702 C715 0.929 1_554 S
H703 C713 0.929 1_556 S
H704 C708 0.929 1_545 S
H705 C714 0.929 1_565 S
C706 H700 0.930 . S
C706 C707 1.367 . S
C706 C714 1.378 . S
C707 C706 1.367 . S
C707 C715 1.433 . S
C708 H704 0.929 1_565 S
C708 C710 1.378 . S
C708 C712 1.350 . S
C709 C712 1.463 1_546 S
C709 C714 1.350 . S
C709 N717 1.427 1_556 S
C710 H701 0.930 . S
C710 C708 1.378 . S
C710 C711 1.367 . S
C711 C710 1.367 . S
C711 C713 1.433 . S
C712 C708 1.350 . S
C712 C709 1.463 1_564 S
C712 N716 1.427 1_554 S
C713 H703 0.929 1_554 S
C713 C711 1.433 . S
C713 N716 1.384 1_554 S
C714 H705 0.929 1_545 S
C714 C706 1.378 . S
C714 C709 1.350 . S
C715 H702 0.929 1_556 S
C715 C707 1.433 . S
C715 N717 1.384 1_556 S
N716 C712 1.427 1_556 S
N716 C713 1.384 1_556 S
N717 C709 1.427 1_554 S
N717 C715 1.384 1_554 S
H718 C724 0.930 . S
H719 C728 0.930 . S
H720 C733 0.929 . S
H721 C731 0.929 . S
H722 C726 0.929 . S
H723 C732 0.929 . S
C724 H718 0.930 . S
C724 C725 1.367 . S
C724 C732 1.378 . S
C725 C724 1.367 . S
C725 C733 1.433 . S
C726 H722 0.929 . S
C726 C728 1.378 . S
C726 C730 1.350 . S
C727 C730 1.463 1_445 S
C727 C732 1.350 . S
C727 N735 1.427 . S
C728 H719 0.930 . S
C728 C726 1.378 . S
C728 C729 1.367 . S
C729 C728 1.367 . S
C729 C731 1.433 . S
C730 C726 1.350 . S
C730 C727 1.463 1_665 S
C730 N734 1.427 . S
C731 H721 0.929 . S
C731 C729 1.433 . S
C731 N734 1.384 . S
C732 H723 0.929 . S
C732 C724 1.378 . S
C732 C727 1.350 . S
C733 H720 0.929 . S
C733 C725 1.433 . S
C733 N735 1.384 . S
N734 C730 1.427 . S
N734 C731 1.384 . S
N735 C727 1.427 . S
N735 C733 1.384 . S
H736 C742 0.930 . S
H737 C746 0.930 . S
H738 C751 0.931 . S
H739 C749 0.931 . S
H740 C744 0.929 . S
H741 C750 0.929 . S
C742 H736 0.930 . S
C742 C743 1.367 . S
C742 C750 1.378 . S
C743 C742 1.367 . S
C743 C751 1.433 . S
C744 H740 0.929 . S
C744 C746 1.378 . S
C744 C748 1.350 . S
C745 C748 1.463 1_655 S
C745 C750 1.350 . S
C745 N753 1.427 1_655 S
C746 H737 0.930 . S
C746 C744 1.378 . S
C746 C747 1.367 . S
C747 C746 1.367 . S
C747 C749 1.433 . S
C748 C744 1.350 . S
C748 C745 1.463 1_455 S
C748 N752 1.427 1_455 S
C749 H739 0.931 . S
C749 C747 1.433 . S
C749 N752 1.384 1_455 S
C750 H741 0.929 . S
C750 C742 1.378 . S
C750 C745 1.350 . S
C751 H738 0.931 . S
C751 C743 1.433 . S
C751 N753 1.384 1_655 S
N752 C748 1.427 1_655 S
N752 C749 1.384 1_655 S
N753 C745 1.427 1_455 S
N753 C751 1.384 1_455 S
H754 C760 0.930 . S
H755 C764 0.930 . S
H756 C769 0.929 . S
H757 C767 0.929 . S
H758 C762 0.929 . S
H759 C768 0.929 . S
C760 H754 0.930 . S
C760 C761 1.367 . S
C760 C768 1.378 . S
C761 C760 1.367 . S
C761 C769 1.433 . S
C762 H758 0.929 . S
C762 C764 1.378 . S
C762 C766 1.350 . S
C763 C766 1.463 1_455 S
C763 C768 1.350 . S
C763 N771 1.427 . S
C764 H755 0.930 . S
C764 C762 1.378 . S
C764 C765 1.367 . S
C765 C764 1.367 . S
C765 C767 1.433 . S
C766 C762 1.350 . S
C766 C763 1.463 1_655 S
C766 N770 1.427 . S
C767 H757 0.929 . S
C767 C765 1.433 . S
C767 N770 1.384 . S
C768 H759 0.929 . S
C768 C760 1.378 . S
C768 C763 1.350 . S
C769 H756 0.929 . S
C769 C761 1.433 . S
C769 N771 1.384 . S
N770 C766 1.427 . S
N770 C767 1.384 . S
N771 C763 1.427 . S
N771 C769 1.384 . S
H772 C778 0.930 . S
H773 C782 0.930 . S
H774 C787 0.929 . S
H775 C785 0.929 . S
H776 C780 0.929 . S
H777 C786 0.929 . S
C778 H772 0.930 . S
C778 C779 1.367 . S
C778 C786 1.378 . S
C779 C778 1.367 . S
C779 C787 1.433 . S
C780 H776 0.929 . S
C780 C782 1.378 . S
C780 C784 1.350 . S
C781 C784 1.463 . S
C781 C786 1.350 . S
C781 N789 1.427 . S
C782 H773 0.930 . S
C782 C780 1.378 . S
C782 C783 1.367 . S
C783 C782 1.367 . S
C783 C785 1.433 . S
C784 C780 1.350 . S
C784 C781 1.463 . S
C784 N788 1.427 . S
C785 H775 0.929 . S
C785 C783 1.433 . S
C785 N788 1.384 . S
C786 H777 0.929 . S
C786 C778 1.378 . S
C786 C781 1.350 . S
C787 H774 0.929 . S
C787 C779 1.433 . S
C787 N789 1.384 . S
N788 C784 1.427 . S
N788 C785 1.384 . S
N789 C781 1.427 . S
N789 C787 1.384 . S
H790 C796 0.930 . S
H791 C800 0.930 . S
H792 C805 0.929 . S
H793 C803 0.929 . S
H794 C798 0.929 . S
H795 C804 0.929 . S
C796 H790 0.930 . S
C796 C797 1.367 . S
C796 C804 1.378 . S
C797 C796 1.367 . S
C797 C805 1.433 . S
C798 H794 0.929 . S
C798 C800 1.378 . S
C798 C802 1.350 . S
C799 C802 1.463 . S
C799 C804 1.350 . S
C799 N807 1.427 . S
C800 H791 0.930 . S
C800 C798 1.378 . S
C800 C801 1.367 . S
C801 C800 1.367 . S
C801 C803 1.433 . S
C802 C798 1.350 . S
C802 C799 1.463 . S
C802 N806 1.427 . S
C803 H793 0.929 . S
C803 C801 1.433 . S
C803 N806 1.384 . S
C804 H795 0.929 . S
C804 C796 1.378 . S
C804 C799 1.350 . S
C805 H792 0.929 . S
C805 C797 1.433 . S
C805 N807 1.384 . S
N806 C802 1.427 . S
N806 C803 1.384 . S
N807 C799 1.427 . S
N807 C805 1.384 . S
H808 C814 0.930 . S
H809 C818 0.930 . S
H810 C823 0.921 1_455 S
H811 C821 0.921 1_655 S
H812 C816 0.929 . S
H813 C822 0.929 . S
C814 H808 0.930 . S
C814 C815 1.367 . S
C814 C822 1.378 . S
C815 C814 1.367 . S
C815 C823 1.433 . S
C816 H812 0.929 . S
C816 C818 1.378 . S
C816 C820 1.350 . S
C817 C820 1.463 1_655 S
C817 C822 1.350 . S
C817 N825 1.427 1_655 S
C818 H809 0.930 . S
C818 C816 1.378 . S
C818 C819 1.367 . S
C819 C818 1.367 . S
C819 C821 1.433 . S
C820 C816 1.350 . S
C820 C817 1.463 1_455 S
C820 N824 1.427 1_455 S
C821 H811 0.921 1_455 S
C821 C819 1.433 . S
C821 N824 1.384 1_455 S
C822 H813 0.929 . S
C822 C814 1.378 . S
C822 C817 1.350 . S
C823 H810 0.921 1_655 S
C823 C815 1.433 . S
C823 N825 1.384 1_655 S
N824 C820 1.427 1_655 S
N824 C821 1.384 1_655 S
N825 C817 1.427 1_455 S
N825 C823 1.384 1_455 S
H826 C832 0.930 . S
H827 C836 0.930 . S
H828 C841 0.929 . S
H829 C839 0.929 . S
H830 C834 0.929 . S
H831 C840 0.929 . S
C832 H826 0.930 . S
C832 C833 1.367 . S
C832 C840 1.378 . S
C833 C832 1.367 . S
C833 C841 1.433 . S
C834 H830 0.929 . S
C834 C836 1.378 . S
C834 C838 1.350 . S
C835 C838 1.463 . S
C835 C840 1.350 . S
C835 N843 1.427 . S
C836 H827 0.930 . S
C836 C834 1.378 . S
C836 C837 1.367 . S
C837 C836 1.367 . S
C837 C839 1.433 . S
C838 C834 1.350 . S
C838 C835 1.463 . S
C838 N842 1.427 . S
C839 H829 0.929 . S
C839 C837 1.433 . S
C839 N842 1.384 . S
C840 H831 0.929 . S
C840 C832 1.378 . S
C840 C835 1.350 . S
C841 H828 0.929 . S
C841 C833 1.433 . S
C841 N843 1.384 . S
N842 C838 1.427 . S
N842 C839 1.384 . S
N843 C835 1.427 . S
N843 C841 1.384 . S
H844 C850 0.930 . S
H845 C854 0.930 . S
H846 C859 0.929 . S
H847 C857 0.929 . S
H848 C852 0.929 . S
H849 C858 0.929 . S
C850 H844 0.930 . S
C850 C851 1.367 . S
C850 C858 1.378 . S
C851 C850 1.367 . S
C851 C859 1.433 . S
C852 H848 0.929 . S
C852 C854 1.378 . S
C852 C856 1.350 . S
C853 C856 1.463 . S
C853 C858 1.350 . S
C853 N861 1.427 . S
C854 H845 0.930 . S
C854 C852 1.378 . S
C854 C855 1.367 . S
C855 C854 1.367 . S
C855 C857 1.433 . S
C856 C852 1.350 . S
C856 C853 1.463 . S
C856 N860 1.427 . S
C857 H847 0.929 . S
C857 C855 1.433 . S
C857 N860 1.384 . S
C858 H849 0.929 . S
C858 C850 1.378 . S
C858 C853 1.350 . S
C859 H846 0.929 . S
C859 C851 1.433 . S
C859 N861 1.384 . S
N860 C856 1.427 . S
N860 C857 1.384 . S
N861 C853 1.427 . S
N861 C859 1.384 . S
H862 C868 0.930 . S
H863 C872 0.930 . S
H864 C877 0.929 . S
H865 C875 0.929 . S
H866 C870 0.929 . S
H867 C876 0.929 . S
C868 H862 0.930 . S
C868 C869 1.367 . S
C868 C876 1.378 . S
C869 C868 1.367 . S
C869 C877 1.433 . S
C870 H866 0.929 . S
C870 C872 1.378 . S
C870 C874 1.350 . S
C871 C874 1.463 1_455 S
C871 C876 1.350 . S
C871 N879 1.427 . S
C872 H863 0.930 . S
C872 C870 1.378 . S
C872 C873 1.367 . S
C873 C872 1.367 . S
C873 C875 1.433 . S
C874 C870 1.350 . S
C874 C871 1.463 1_655 S
C874 N878 1.427 . S
C875 H865 0.929 . S
C875 C873 1.433 . S
C875 N878 1.384 . S
C876 H867 0.929 . S
C876 C868 1.378 . S
C876 C871 1.350 . S
C877 H864 0.929 . S
C877 C869 1.433 . S
C877 N879 1.384 . S
N878 C874 1.427 . S
N878 C875 1.384 . S
N879 C871 1.427 . S
N879 C877 1.384 . S
H880 C886 0.930 . S
H881 C890 0.930 . S
H882 C895 0.929 . S
H883 C893 0.929 . S
H884 C888 0.929 . S
H885 C894 0.929 . S
C886 H880 0.930 . S
C886 C887 1.367 . S
C886 C894 1.378 . S
C887 C886 1.367 . S
C887 C895 1.433 . S
C888 H884 0.929 . S
C888 C890 1.378 . S
C888 C892 1.350 . S
C889 C892 1.463 1_655 S
C889 C894 1.350 . S
C889 N897 1.427 . S
C890 H881 0.930 . S
C890 C888 1.378 . S
C890 C891 1.367 . S
C891 C890 1.367 . S
C891 C893 1.433 . S
C892 C888 1.350 . S
C892 C889 1.463 1_455 S
C892 N896 1.427 . S
C893 H883 0.929 . S
C893 C891 1.433 . S
C893 N896 1.384 . S
C894 H885 0.929 . S
C894 C886 1.378 . S
C894 C889 1.350 . S
C895 H882 0.929 . S
C895 C887 1.433 . S
C895 N897 1.384 . S
N896 C892 1.427 . S
N896 C893 1.384 . S
N897 C889 1.427 . S
N897 C895 1.384 . S
H898 C904 0.930 . S
H899 C908 0.930 . S
H900 C913 0.929 . S
H901 C911 0.929 . S
H902 C906 0.929 . S
H903 C912 0.929 . S
C904 H898 0.930 . S
C904 C905 1.367 . S
C904 C912 1.378 . S
C905 C904 1.367 . S
C905 C913 1.433 . S
C906 H902 0.929 . S
C906 C908 1.378 . S
C906 C910 1.350 . S
C907 C910 1.463 1_655 S
C907 C912 1.350 . S
C907 N915 1.427 . S
C908 H899 0.930 . S
C908 C906 1.378 . S
C908 C909 1.367 . S
C909 C908 1.367 . S
C909 C911 1.433 . S
C910 C906 1.350 . S
C910 C907 1.463 1_455 S
C910 N914 1.427 . S
C911 H901 0.929 . S
C911 C909 1.433 . S
C911 N914 1.384 . S
C912 H903 0.929 . S
C912 C904 1.378 . S
C912 C907 1.350 . S
C913 H900 0.929 . S
C913 C905 1.433 . S
C913 N915 1.384 . S
N914 C910 1.427 . S
N914 C911 1.384 . S
N915 C907 1.427 . S
N915 C913 1.384 . S
H916 C922 0.930 . S
H917 C926 0.930 . S
H918 C931 0.929 . S
H919 C929 0.929 . S
H920 C924 0.929 . S
H921 C930 0.929 . S
C922 H916 0.930 . S
C922 C923 1.367 . S
C922 C930 1.378 . S
C923 C922 1.367 . S
C923 C931 1.433 . S
C924 H920 0.929 . S
C924 C926 1.378 . S
C924 C928 1.350 . S
C925 C928 1.463 . S
C925 C930 1.350 . S
C925 N933 1.427 . S
C926 H917 0.930 . S
C926 C924 1.378 . S
C926 C927 1.367 . S
C927 C926 1.367 . S
C927 C929 1.433 . S
C928 C924 1.350 . S
C928 C925 1.463 . S
C928 N932 1.427 . S
C929 H919 0.929 . S
C929 C927 1.433 . S
C929 N932 1.384 . S
C930 H921 0.929 . S
C930 C922 1.378 . S
C930 C925 1.350 . S
C931 H918 0.929 . S
C931 C923 1.433 . S
C931 N933 1.384 . S
N932 C928 1.427 . S
N932 C929 1.384 . S
N933 C925 1.427 . S
N933 C931 1.384 . S
H934 C940 0.930 . S
H935 C944 0.930 . S
H936 C949 0.929 . S
H937 C947 0.929 . S
H938 C942 0.929 . S
H939 C948 0.929 . S
C940 H934 0.930 . S
C940 C941 1.367 . S
C940 C948 1.378 . S
C941 C940 1.367 . S
C941 C949 1.433 . S
C942 H938 0.929 . S
C942 C944 1.378 . S
C942 C946 1.350 . S
C943 C946 1.463 . S
C943 C948 1.350 . S
C943 N951 1.427 . S
C944 H935 0.930 . S
C944 C942 1.378 . S
C944 C945 1.367 . S
C945 C944 1.367 . S
C945 C947 1.433 . S
C946 C942 1.350 . S
C946 C943 1.463 . S
C946 N950 1.427 . S
C947 H937 0.929 . S
C947 C945 1.433 . S
C947 N950 1.384 . S
C948 H939 0.929 . S
C948 C940 1.378 . S
C948 C943 1.350 . S
C949 H936 0.929 . S
C949 C941 1.433 . S
C949 N951 1.384 . S
N950 C946 1.427 . S
N950 C947 1.384 . S
N951 C943 1.427 . S
N951 C949 1.384 . S
H952 C958 0.930 . S
H953 C962 0.930 . S
H954 C967 0.929 . S
H955 C965 0.929 . S
H956 C960 0.929 1_655 S
H957 C966 0.929 1_455 S
C958 H952 0.930 . S
C958 C959 1.367 . S
C958 C966 1.378 . S
C959 C958 1.367 . S
C959 C967 1.433 . S
C960 H956 0.929 1_455 S
C960 C962 1.378 . S
C960 C964 1.350 . S
C961 C964 1.463 1_655 S
C961 C966 1.350 . S
C961 N969 1.427 . S
C962 H953 0.930 . S
C962 C960 1.378 . S
C962 C963 1.367 . S
C963 C962 1.367 . S
C963 C965 1.433 . S
C964 C960 1.350 . S
C964 C961 1.463 1_455 S
C964 N968 1.427 . S
C965 H955 0.929 . S
C965 C963 1.433 . S
C965 N968 1.384 . S
C966 H957 0.929 1_655 S
C966 C958 1.378 . S
C966 C961 1.350 . S
C967 H954 0.929 . S
C967 C959 1.433 . S
C967 N969 1.384 . S
N968 C964 1.427 . S
N968 C965 1.384 . S
N969 C961 1.427 . S
N969 C967 1.384 . S
H970 C976 0.930 . S
H971 C980 0.930 . S
H972 C985 0.929 . S
H973 C983 0.929 . S
H974 C978 0.929 . S
H975 C984 0.929 . S
C976 H970 0.930 . S
C976 C977 1.367 . S
C976 C984 1.378 . S
C977 C976 1.367 . S
C977 C985 1.433 . S
C978 H974 0.929 . S
C978 C980 1.378 . S
C978 C982 1.350 . S
C979 C982 1.463 . S
C979 C984 1.350 . S
C979 N987 1.427 . S
C980 H971 0.930 . S
C980 C978 1.378 . S
C980 C981 1.367 . S
C981 C980 1.367 . S
C981 C983 1.433 . S
C982 C978 1.350 . S
C982 C979 1.463 . S
C982 N986 1.427 . S
C983 H973 0.929 . S
C983 C981 1.433 . S
C983 N986 1.384 . S
C984 H975 0.929 . S
C984 C976 1.378 . S
C984 C979 1.350 . S
C985 H972 0.929 . S
C985 C977 1.433 . S
C985 N987 1.384 . S
N986 C982 1.427 . S
N986 C983 1.384 . S
N987 C979 1.427 . S
N987 C985 1.384 . S
H988 C994 0.930 . S
H989 C998 0.930 . S
H990 C1003 0.929 . S
H991 C1001 0.929 . S
H992 C996 0.929 . S
H993 C1002 0.929 . S
C994 H988 0.930 . S
C994 C995 1.367 . S
C994 C1002 1.378 . S
C995 C994 1.367 . S
C995 C1003 1.433 . S
C996 H992 0.929 . S
C996 C998 1.378 . S
C996 C1000 1.350 . S
C997 C1000 1.463 . S
C997 C1002 1.350 . S
C997 N1005 1.427 . S
C998 H989 0.930 . S
C998 C996 1.378 . S
C998 C999 1.367 . S
C999 C998 1.367 . S
C999 C1001 1.433 . S
C1000 C996 1.350 . S
C1000 C997 1.463 . S
C1000 N1004 1.427 . S
C1001 H991 0.929 . S
C1001 C999 1.433 . S
C1001 N1004 1.384 . S
C1002 H993 0.929 . S
C1002 C994 1.378 . S
C1002 C997 1.350 . S
C1003 H990 0.929 . S
C1003 C995 1.433 . S
C1003 N1005 1.384 . S
N1004 C1000 1.427 . S
N1004 C1001 1.384 . S
N1005 C997 1.427 . S
N1005 C1003 1.384 . S
H1006 C1012 0.930 . S
H1007 C1016 0.930 . S
H1008 C1021 0.929 . S
H1009 C1019 0.929 . S
H1010 C1014 0.929 . S
H1011 C1020 0.929 . S
C1012 H1006 0.930 . S
C1012 C1013 1.367 . S
C1012 C1020 1.378 . S
C1013 C1012 1.367 . S
C1013 C1021 1.433 . S
C1014 H1010 0.929 . S
C1014 C1016 1.378 . S
C1014 C1018 1.350 . S
C1015 C1018 1.463 1_655 S
C1015 C1020 1.350 . S
C1015 N1023 1.427 . S
C1016 H1007 0.930 . S
C1016 C1014 1.378 . S
C1016 C1017 1.367 . S
C1017 C1016 1.367 . S
C1017 C1019 1.433 . S
C1018 C1014 1.350 . S
C1018 C1015 1.463 1_455 S
C1018 N1022 1.427 . S
C1019 H1009 0.929 . S
C1019 C1017 1.433 . S
C1019 N1022 1.384 . S
C1020 H1011 0.929 . S
C1020 C1012 1.378 . S
C1020 C1015 1.350 . S
C1021 H1008 0.929 . S
C1021 C1013 1.433 . S
C1021 N1023 1.384 . S
N1022 C1018 1.427 . S
N1022 C1019 1.384 . S
N1023 C1015 1.427 . S
N1023 C1021 1.384 . S
H1024 C1030 0.930 . S
H1025 C1034 0.930 . S
H1026 C1039 0.910 1_554 S
H1027 C1037 0.910 1_556 S
H1028 C1032 0.929 . S
H1029 C1038 0.929 . S
C1030 H1024 0.930 . S
C1030 C1031 1.367 . S
C1030 C1038 1.378 . S
C1031 C1030 1.367 . S
C1031 C1039 1.433 . S
C1032 H1028 0.929 . S
C1032 C1034 1.378 . S
C1032 C1036 1.350 . S
C1033 C1036 1.463 1_556 S
C1033 C1038 1.350 . S
C1033 N1041 1.427 1_556 S
C1034 H1025 0.930 . S
C1034 C1032 1.378 . S
C1034 C1035 1.367 . S
C1035 C1034 1.367 . S
C1035 C1037 1.433 . S
C1036 C1032 1.350 . S
C1036 C1033 1.463 1_554 S
C1036 N1040 1.427 1_554 S
C1037 H1027 0.910 1_554 S
C1037 C1035 1.433 . S
C1037 N1040 1.384 1_554 S
C1038 H1029 0.929 . S
C1038 C1030 1.378 . S
C1038 C1033 1.350 . S
C1039 H1026 0.910 1_556 S
C1039 C1031 1.433 . S
C1039 N1041 1.384 1_556 S
N1040 C1036 1.427 1_556 S
N1040 C1037 1.384 1_556 S
N1041 C1033 1.427 1_554 S
N1041 C1039 1.384 1_554 S
H1042 C1048 0.930 . S
H1043 C1052 0.930 . S
H1044 C1057 0.929 . S
H1045 C1055 0.929 . S
H1046 C1050 0.929 1_545 S
H1047 C1056 0.929 1_565 S
C1048 H1042 0.930 . S
C1048 C1049 1.367 . S
C1048 C1056 1.378 . S
C1049 C1048 1.367 . S
C1049 C1057 1.433 . S
C1050 H1046 0.929 1_565 S
C1050 C1052 1.378 . S
C1050 C1054 1.350 . S
C1051 C1054 1.463 1_545 S
C1051 C1056 1.350 . S
C1051 N1059 1.427 . S
C1052 H1043 0.930 . S
C1052 C1050 1.378 . S
C1052 C1053 1.367 . S
C1053 C1052 1.367 . S
C1053 C1055 1.433 . S
C1054 C1050 1.350 . S
C1054 C1051 1.463 1_565 S
C1054 N1058 1.427 . S
C1055 H1045 0.929 . S
C1055 C1053 1.433 . S
C1055 N1058 1.384 . S
C1056 H1047 0.929 1_545 S
C1056 C1048 1.378 . S
C1056 C1051 1.350 . S
C1057 H1044 0.929 . S
C1057 C1049 1.433 . S
C1057 N1059 1.384 . S
N1058 C1054 1.427 . S
N1058 C1055 1.384 . S
N1059 C1051 1.427 . S
N1059 C1057 1.384 . S
H1060 C1066 0.930 . S
H1061 C1070 0.930 . S
H1062 C1075 0.929 . S
H1063 C1073 0.929 . S
H1064 C1068 0.929 . S
H1065 C1074 0.929 . S
C1066 H1060 0.930 . S
C1066 C1067 1.367 . S
C1066 C1074 1.378 . S
C1067 C1066 1.367 . S
C1067 C1075 1.433 . S
C1068 H1064 0.929 . S
C1068 C1070 1.378 . S
C1068 C1072 1.350 . S
C1069 C1072 1.463 . S
C1069 C1074 1.350 . S
C1069 N1077 1.427 . S
C1070 H1061 0.930 . S
C1070 C1068 1.378 . S
C1070 C1071 1.367 . S
C1071 C1070 1.367 . S
C1071 C1073 1.433 . S
C1072 C1068 1.350 . S
C1072 C1069 1.463 . S
C1072 N1076 1.427 . S
C1073 H1063 0.929 . S
C1073 C1071 1.433 . S
C1073 N1076 1.384 . S
C1074 H1065 0.929 . S
C1074 C1066 1.378 . S
C1074 C1069 1.350 . S
C1075 H1062 0.929 . S
C1075 C1067 1.433 . S
C1075 N1077 1.384 . S
N1076 C1072 1.427 . S
N1076 C1073 1.384 . S
N1077 C1069 1.427 . S
N1077 C1075 1.384 . S
H1078 C1084 0.930 . S
H1079 C1088 0.930 . S
H1080 C1093 0.929 . S
H1081 C1091 0.929 . S
H1082 C1086 0.927 1_545 S
H1083 C1092 0.927 1_565 S
C1084 H1078 0.930 . S
C1084 C1085 1.367 . S
C1084 C1092 1.378 . S
C1085 C1084 1.367 . S
C1085 C1093 1.433 . S
C1086 H1082 0.927 1_565 S
C1086 C1088 1.378 . S
C1086 C1090 1.350 . S
C1087 C1090 1.463 1_545 S
C1087 C1092 1.350 . S
C1087 N1095 1.427 . S
C1088 H1079 0.930 . S
C1088 C1086 1.378 . S
C1088 C1089 1.367 . S
C1089 C1088 1.367 . S
C1089 C1091 1.433 . S
C1090 C1086 1.350 . S
C1090 C1087 1.463 1_565 S
C1090 N1094 1.427 . S
C1091 H1081 0.929 . S
C1091 C1089 1.433 . S
C1091 N1094 1.384 . S
C1092 H1083 0.927 1_545 S
C1092 C1084 1.378 . S
C1092 C1087 1.350 . S
C1093 H1080 0.929 . S
C1093 C1085 1.433 . S
C1093 N1095 1.384 . S
N1094 C1090 1.427 . S
N1094 C1091 1.384 . S
N1095 C1087 1.427 . S
N1095 C1093 1.384 . S
H1096 C1102 0.930 . S
H1097 C1106 0.930 . S
H1098 C1111 0.929 . S
H1099 C1109 0.929 . S
H1100 C1104 0.976 . S
H1101 C1110 0.976 . S
C1102 H1096 0.930 . S
C1102 C1103 1.367 . S
C1102 C1110 1.350 1_554 S
C1103 C1102 1.367 . S
C1103 C1111 1.433 . S
C1104 H1100 0.976 . S
C1104 C1106 1.350 1_554 S
C1104 C1108 1.333 1_554 S
C1105 C1108 1.463 1_554 S
C1105 C1110 1.333 1_554 S
C1105 N1113 1.427 . S
C1106 H1097 0.930 . S
C1106 C1104 1.350 1_556 S
C1106 C1107 1.367 . S
C1107 C1106 1.367 . S
C1107 C1109 1.433 . S
C1108 C1104 1.333 1_556 S
C1108 C1105 1.463 1_556 S
C1108 N1112 1.427 . S
C1109 H1099 0.929 . S
C1109 C1107 1.433 . S
C1109 N1112 1.384 . S
C1110 H1101 0.976 . S
C1110 C1102 1.350 1_556 S
C1110 C1105 1.333 1_556 S
C1111 H1098 0.929 . S
C1111 C1103 1.433 . S
C1111 N1113 1.384 . S
N1112 C1108 1.427 . S
N1112 C1109 1.384 . S
N1113 C1105 1.427 . S
N1113 C1111 1.384 . S
H1114 C1120 0.930 . S
H1115 C1124 0.930 . S
H1116 C1129 0.929 . S
H1117 C1127 0.929 . S
H1118 C1122 0.929 . S
H1119 C1128 0.929 . S
C1120 H1114 0.930 . S
C1120 C1121 1.367 . S
C1120 C1128 1.378 . S
C1121 C1120 1.367 . S
C1121 C1129 1.433 . S
C1122 H1118 0.929 . S
C1122 C1124 1.378 . S
C1122 C1126 1.350 . S
C1123 C1126 1.463 1_565 S
C1123 C1128 1.350 . S
C1123 N1131 1.427 . S
C1124 H1115 0.930 . S
C1124 C1122 1.378 . S
C1124 C1125 1.367 . S
C1125 C1124 1.367 . S
C1125 C1127 1.433 . S
C1126 C1122 1.350 . S
C1126 C1123 1.463 1_545 S
C1126 N1130 1.427 . S
C1127 H1117 0.929 . S
C1127 C1125 1.433 . S
C1127 N1130 1.384 . S
C1128 H1119 0.929 . S
C1128 C1120 1.378 . S
C1128 C1123 1.350 . S
C1129 H1116 0.929 . S
C1129 C1121 1.433 . S
C1129 N1131 1.384 . S
N1130 C1126 1.427 . S
N1130 C1127 1.384 . S
N1131 C1123 1.427 . S
N1131 C1129 1.384 . S
H1132 C1138 0.930 . S
H1133 C1142 0.930 . S
H1134 C1147 0.929 . S
H1135 C1145 0.929 . S
H1136 C1140 0.929 . S
H1137 C1146 0.929 . S
C1138 H1132 0.930 . S
C1138 C1139 1.367 . S
C1138 C1146 1.378 . S
C1139 C1138 1.367 . S
C1139 C1147 1.433 . S
C1140 H1136 0.929 . S
C1140 C1142 1.378 . S
C1140 C1144 1.350 . S
C1141 C1144 1.463 . S
C1141 C1146 1.350 . S
C1141 N1149 1.427 . S
C1142 H1133 0.930 . S
C1142 C1140 1.378 . S
C1142 C1143 1.367 . S
C1143 C1142 1.367 . S
C1143 C1145 1.433 . S
C1144 C1140 1.350 . S
C1144 C1141 1.463 . S
C1144 N1148 1.427 . S
C1145 H1135 0.929 . S
C1145 C1143 1.433 . S
C1145 N1148 1.384 . S
C1146 H1137 0.929 . S
C1146 C1138 1.378 . S
C1146 C1141 1.350 . S
C1147 H1134 0.929 . S
C1147 C1139 1.433 . S
C1147 N1149 1.384 . S
N1148 C1144 1.427 . S
N1148 C1145 1.384 . S
N1149 C1141 1.427 . S
N1149 C1147 1.384 . S
H1150 C1156 0.930 . S
H1151 C1160 0.930 . S
H1152 C1165 0.929 . S
H1153 C1163 0.929 . S
H1154 C1158 0.897 1_545 S
H1155 C1164 0.897 1_565 S
C1156 H1150 0.930 . S
C1156 C1157 1.367 . S
C1156 C1164 1.378 . S
C1157 C1156 1.367 . S
C1157 C1165 1.433 . S
C1158 H1154 0.897 1_565 S
C1158 C1160 1.378 . S
C1158 C1162 1.350 . S
C1159 C1162 1.463 1_545 S
C1159 C1164 1.350 . S
C1159 N1167 1.427 . S
C1160 H1151 0.930 . S
C1160 C1158 1.378 . S
C1160 C1161 1.367 . S
C1161 C1160 1.367 . S
C1161 C1163 1.433 . S
C1162 C1158 1.350 . S
C1162 C1159 1.463 1_565 S
C1162 N1166 1.427 . S
C1163 H1153 0.929 . S
C1163 C1161 1.433 . S
C1163 N1166 1.384 . S
C1164 H1155 0.897 1_545 S
C1164 C1156 1.378 . S
C1164 C1159 1.350 . S
C1165 H1152 0.929 . S
C1165 C1157 1.433 . S
C1165 N1167 1.384 . S
N1166 C1162 1.427 . S
N1166 C1163 1.384 . S
N1167 C1159 1.427 . S
N1167 C1165 1.384 . S
H1168 C1174 0.930 . S
H1169 C1178 0.930 . S
H1170 C1183 0.929 . S
H1171 C1181 0.929 . S
H1172 C1176 0.929 . S
H1173 C1182 0.929 . S
C1174 H1168 0.930 . S
C1174 C1175 1.367 . S
C1174 C1182 1.378 . S
C1175 C1174 1.367 . S
C1175 C1183 1.433 . S
C1176 H1172 0.929 . S
C1176 C1178 1.378 . S
C1176 C1180 1.350 . S
C1177 C1180 1.463 . S
C1177 C1182 1.350 . S
C1177 N1185 1.427 . S
C1178 H1169 0.930 . S
C1178 C1176 1.378 . S
C1178 C1179 1.367 . S
C1179 C1178 1.367 . S
C1179 C1181 1.433 . S
C1180 C1176 1.350 . S
C1180 C1177 1.463 . S
C1180 N1184 1.427 . S
C1181 H1171 0.929 . S
C1181 C1179 1.433 . S
C1181 N1184 1.384 . S
C1182 H1173 0.929 . S
C1182 C1174 1.378 . S
C1182 C1177 1.350 . S
C1183 H1170 0.929 . S
C1183 C1175 1.433 . S
C1183 N1185 1.384 . S
N1184 C1180 1.427 . S
N1184 C1181 1.384 . S
N1185 C1177 1.427 . S
N1185 C1183 1.384 . S
H1186 C1192 0.930 . S
H1187 C1196 0.930 . S
H1188 C1201 0.929 . S
H1189 C1199 0.929 . S
H1190 C1194 0.929 . S
H1191 C1200 0.929 . S
C1192 H1186 0.930 . S
C1192 C1193 1.367 . S
C1192 C1200 1.378 . S
C1193 C1192 1.367 . S
C1193 C1201 1.433 . S
C1194 H1190 0.929 . S
C1194 C1196 1.378 . S
C1194 C1198 1.350 . S
C1195 C1198 1.463 . S
C1195 C1200 1.350 . S
C1195 N1203 1.427 . S
C1196 H1187 0.930 . S
C1196 C1194 1.378 . S
C1196 C1197 1.367 . S
C1197 C1196 1.367 . S
C1197 C1199 1.433 . S
C1198 C1194 1.350 . S
C1198 C1195 1.463 . S
C1198 N1202 1.427 . S
C1199 H1189 0.929 . S
C1199 C1197 1.433 . S
C1199 N1202 1.384 . S
C1200 H1191 0.929 . S
C1200 C1192 1.378 . S
C1200 C1195 1.350 . S
C1201 H1188 0.929 . S
C1201 C1193 1.433 . S
C1201 N1203 1.384 . S
N1202 C1198 1.427 . S
N1202 C1199 1.384 . S
N1203 C1195 1.427 . S
N1203 C1201 1.384 . S
H1204 C1210 0.930 . S
H1205 C1214 0.930 . S
H1206 C1219 0.929 . S
H1207 C1217 0.929 . S
H1208 C1212 0.987 . S
H1209 C1218 0.987 . S
C1210 H1204 0.930 . S
C1210 C1211 1.367 . S
C1210 C1218 1.343 1_554 S
C1211 C1210 1.367 . S
C1211 C1219 1.433 . S
C1212 H1208 0.987 . S
C1212 C1214 1.343 1_554 S
C1212 C1216 1.329 1_554 S
C1213 C1216 1.463 1_554 S
C1213 C1218 1.329 1_554 S
C1213 N1221 1.427 . S
C1214 H1205 0.930 . S
C1214 C1212 1.343 1_556 S
C1214 C1215 1.367 . S
C1215 C1214 1.367 . S
C1215 C1217 1.433 . S
C1216 C1212 1.329 1_556 S
C1216 C1213 1.463 1_556 S
C1216 N1220 1.427 . S
C1217 H1207 0.929 . S
C1217 C1215 1.433 . S
C1217 N1220 1.384 . S
C1218 H1209 0.987 . S
C1218 C1210 1.343 1_556 S
C1218 C1213 1.329 1_556 S
C1219 H1206 0.929 . S
C1219 C1211 1.433 . S
C1219 N1221 1.384 . S
N1220 C1216 1.427 . S
N1220 C1217 1.384 . S
N1221 C1213 1.427 . S
N1221 C1219 1.384 . S
H1222 C1228 0.930 . S
H1223 C1232 0.930 . S
H1224 C1237 0.929 . S
H1225 C1235 0.929 . S
H1226 C1230 0.929 . S
H1227 C1236 0.929 . S
C1228 H1222 0.930 . S
C1228 C1229 1.367 . S
C1228 C1236 1.378 . S
C1229 C1228 1.367 . S
C1229 C1237 1.433 . S
C1230 H1226 0.929 . S
C1230 C1232 1.378 . S
C1230 C1234 1.350 . S
C1231 C1234 1.463 . S
C1231 C1236 1.350 . S
C1231 N1239 1.427 . S
C1232 H1223 0.930 . S
C1232 C1230 1.378 . S
C1232 C1233 1.367 . S
C1233 C1232 1.367 . S
C1233 C1235 1.433 . S
C1234 C1230 1.350 . S
C1234 C1231 1.463 . S
C1234 N1238 1.427 . S
C1235 H1225 0.929 . S
C1235 C1233 1.433 . S
C1235 N1238 1.384 . S
C1236 H1227 0.929 . S
C1236 C1228 1.378 . S
C1236 C1231 1.350 . S
C1237 H1224 0.929 . S
C1237 C1229 1.433 . S
C1237 N1239 1.384 . S
N1238 C1234 1.427 . S
N1238 C1235 1.384 . S
N1239 C1231 1.427 . S
N1239 C1237 1.384 . S
H1240 C1246 0.930 . S
H1241 C1250 0.930 . S
H1242 C1255 0.929 . S
H1243 C1253 0.929 . S
H1244 C1248 0.929 . S
H1245 C1254 0.929 . S
C1246 H1240 0.930 . S
C1246 C1247 1.367 . S
C1246 C1254 1.378 . S
C1247 C1246 1.367 . S
C1247 C1255 1.433 . S
C1248 H1244 0.929 . S
C1248 C1250 1.378 . S
C1248 C1252 1.350 . S
C1249 C1252 1.463 . S
C1249 C1254 1.350 . S
C1249 N1257 1.427 . S
C1250 H1241 0.930 . S
C1250 C1248 1.378 . S
C1250 C1251 1.367 . S
C1251 C1250 1.367 . S
C1251 C1253 1.433 . S
C1252 C1248 1.350 . S
C1252 C1249 1.463 . S
C1252 N1256 1.427 . S
C1253 H1243 0.929 . S
C1253 C1251 1.433 . S
C1253 N1256 1.384 . S
C1254 H1245 0.929 . S
C1254 C1246 1.378 . S
C1254 C1249 1.350 . S
C1255 H1242 0.929 . S
C1255 C1247 1.433 . S
C1255 N1257 1.384 . S
N1256 C1252 1.427 . S
N1256 C1253 1.384 . S
N1257 C1249 1.427 . S
N1257 C1255 1.384 . S
H1258 C1264 0.930 . S
H1259 C1268 0.930 . S
H1260 C1273 0.929 . S
H1261 C1271 0.929 . S
H1262 C1266 0.929 . S
H1263 C1272 0.929 . S
C1264 H1258 0.930 . S
C1264 C1265 1.367 . S
C1264 C1272 1.378 . S
C1265 C1264 1.367 . S
C1265 C1273 1.433 . S
C1266 H1262 0.929 . S
C1266 C1268 1.378 . S
C1266 C1270 1.350 . S
C1267 C1270 1.463 . S
C1267 C1272 1.350 . S
C1267 N1275 1.427 . S
C1268 H1259 0.930 . S
C1268 C1266 1.378 . S
C1268 C1269 1.367 . S
C1269 C1268 1.367 . S
C1269 C1271 1.433 . S
C1270 C1266 1.350 . S
C1270 C1267 1.463 . S
C1270 N1274 1.427 . S
C1271 H1261 0.929 . S
C1271 C1269 1.433 . S
C1271 N1274 1.384 . S
C1272 H1263 0.929 . S
C1272 C1264 1.378 . S
C1272 C1267 1.350 . S
C1273 H1260 0.929 . S
C1273 C1265 1.433 . S
C1273 N1275 1.384 . S
N1274 C1270 1.427 . S
N1274 C1271 1.384 . S
N1275 C1267 1.427 . S
N1275 C1273 1.384 . S
H1276 C1282 0.930 . S
H1277 C1286 0.930 . S
H1278 C1291 0.929 . S
H1279 C1289 0.929 . S
H1280 C1284 0.929 1_556 S
H1281 C1290 0.929 1_554 S
C1282 H1276 0.930 . S
C1282 C1283 1.367 . S
C1282 C1290 1.378 . S
C1283 C1282 1.367 . S
C1283 C1291 1.433 . S
C1284 H1280 0.929 1_554 S
C1284 C1286 1.378 . S
C1284 C1288 1.350 . S
C1285 C1288 1.463 1_556 S
C1285 C1290 1.350 . S
C1285 N1293 1.427 . S
C1286 H1277 0.930 . S
C1286 C1284 1.378 . S
C1286 C1287 1.367 . S
C1287 C1286 1.367 . S
C1287 C1289 1.433 . S
C1288 C1284 1.350 . S
C1288 C1285 1.463 1_554 S
C1288 N1292 1.427 . S
C1289 H1279 0.929 . S
C1289 C1287 1.433 . S
C1289 N1292 1.384 . S
C1290 H1281 0.929 1_556 S
C1290 C1282 1.378 . S
C1290 C1285 1.350 . S
C1291 H1278 0.929 . S
C1291 C1283 1.433 . S
C1291 N1293 1.384 . S
N1292 C1288 1.427 . S
N1292 C1289 1.384 . S
N1293 C1285 1.427 . S
N1293 C1291 1.384 . S
H1294 C1300 0.930 . S
H1295 C1304 0.930 . S
H1296 C1309 0.929 . S
H1297 C1307 0.929 . S
H1298 C1302 0.929 . S
H1299 C1308 0.929 . S
C1300 H1294 0.930 . S
C1300 C1301 1.367 . S
C1300 C1308 1.378 . S
C1301 C1300 1.367 . S
C1301 C1309 1.433 . S
C1302 H1298 0.929 . S
C1302 C1304 1.378 . S
C1302 C1306 1.350 . S
C1303 C1306 1.463 . S
C1303 C1308 1.350 . S
C1303 N1311 1.427 . S
C1304 H1295 0.930 . S
C1304 C1302 1.378 . S
C1304 C1305 1.367 . S
C1305 C1304 1.367 . S
C1305 C1307 1.433 . S
C1306 C1302 1.350 . S
C1306 C1303 1.463 . S
C1306 N1310 1.427 . S
C1307 H1297 0.929 . S
C1307 C1305 1.433 . S
C1307 N1310 1.384 . S
C1308 H1299 0.929 . S
C1308 C1300 1.378 . S
C1308 C1303 1.350 . S
C1309 H1296 0.929 . S
C1309 C1301 1.433 . S
C1309 N1311 1.384 . S
N1310 C1306 1.427 . S
N1310 C1307 1.384 . S
N1311 C1303 1.427 . S
N1311 C1309 1.384 . S
H1312 C1318 0.930 . S
H1313 C1322 0.930 . S
H1314 C1327 0.929 . S
H1315 C1325 0.929 . S
H1316 C1320 0.929 . S
H1317 C1326 0.929 . S
C1318 H1312 0.930 . S
C1318 C1319 1.367 . S
C1318 C1326 1.378 . S
C1319 C1318 1.367 . S
C1319 C1327 1.433 . S
C1320 H1316 0.929 . S
C1320 C1322 1.378 . S
C1320 C1324 1.350 . S
C1321 C1324 1.463 . S
C1321 C1326 1.350 . S
C1321 N1329 1.427 . S
C1322 H1313 0.930 . S
C1322 C1320 1.378 . S
C1322 C1323 1.367 . S
C1323 C1322 1.367 . S
C1323 C1325 1.433 . S
C1324 C1320 1.350 . S
C1324 C1321 1.463 . S
C1324 N1328 1.427 . S
C1325 H1315 0.929 . S
C1325 C1323 1.433 . S
C1325 N1328 1.384 . S
C1326 H1317 0.929 . S
C1326 C1318 1.378 . S
C1326 C1321 1.350 . S
C1327 H1314 0.929 . S
C1327 C1319 1.433 . S
C1327 N1329 1.384 . S
N1328 C1324 1.427 . S
N1328 C1325 1.384 . S
N1329 C1321 1.427 . S
N1329 C1327 1.384 . S
H1330 C1336 0.930 . S
H1331 C1340 0.930 . S
H1332 C1345 0.929 . S
H1333 C1343 0.929 . S
H1334 C1338 0.929 . S
H1335 C1344 0.929 . S
C1336 H1330 0.930 . S
C1336 C1337 1.367 . S
C1336 C1344 1.378 . S
C1337 C1336 1.367 . S
C1337 C1345 1.433 . S
C1338 H1334 0.929 . S
C1338 C1340 1.378 . S
C1338 C1342 1.350 . S
C1339 C1342 1.463 . S
C1339 C1344 1.350 . S
C1339 N1347 1.427 . S
C1340 H1331 0.930 . S
C1340 C1338 1.378 . S
C1340 C1341 1.367 . S
C1341 C1340 1.367 . S
C1341 C1343 1.433 . S
C1342 C1338 1.350 . S
C1342 C1339 1.463 . S
C1342 N1346 1.427 . S
C1343 H1333 0.929 . S
C1343 C1341 1.433 . S
C1343 N1346 1.384 . S
C1344 H1335 0.929 . S
C1344 C1336 1.378 . S
C1344 C1339 1.350 . S
C1345 H1332 0.929 . S
C1345 C1337 1.433 . S
C1345 N1347 1.384 . S
N1346 C1342 1.427 . S
N1346 C1343 1.384 . S
N1347 C1339 1.427 . S
N1347 C1345 1.384 . S
H1348 C1354 0.930 . S
H1349 C1358 0.930 . S
H1350 C1363 0.929 . S
H1351 C1361 0.929 . S
H1352 C1356 0.929 . S
H1353 C1362 0.929 . S
C1354 H1348 0.930 . S
C1354 C1355 1.367 . S
C1354 C1362 1.378 . S
C1355 C1354 1.367 . S
C1355 C1363 1.433 . S
C1356 H1352 0.929 . S
C1356 C1358 1.378 . S
C1356 C1360 1.350 . S
C1357 C1360 1.463 . S
C1357 C1362 1.350 . S
C1357 N1365 1.427 . S
C1358 H1349 0.930 . S
C1358 C1356 1.378 . S
C1358 C1359 1.367 . S
C1359 C1358 1.367 . S
C1359 C1361 1.433 . S
C1360 C1356 1.350 . S
C1360 C1357 1.463 . S
C1360 N1364 1.427 . S
C1361 H1351 0.929 . S
C1361 C1359 1.433 . S
C1361 N1364 1.384 . S
C1362 H1353 0.929 . S
C1362 C1354 1.378 . S
C1362 C1357 1.350 . S
C1363 H1350 0.929 . S
C1363 C1355 1.433 . S
C1363 N1365 1.384 . S
N1364 C1360 1.427 . S
N1364 C1361 1.384 . S
N1365 C1357 1.427 . S
N1365 C1363 1.384 . S
H1366 C1372 0.930 . S
H1367 C1376 0.930 . S
H1368 C1381 0.929 . S
H1369 C1379 0.929 . S
H1370 C1374 0.929 . S
H1371 C1380 0.929 . S
C1372 H1366 0.930 . S
C1372 C1373 1.367 . S
C1372 C1380 1.378 . S
C1373 C1372 1.367 . S
C1373 C1381 1.433 . S
C1374 H1370 0.929 . S
C1374 C1376 1.378 . S
C1374 C1378 1.350 . S
C1375 C1378 1.463 . S
C1375 C1380 1.350 . S
C1375 N1383 1.427 . S
C1376 H1367 0.930 . S
C1376 C1374 1.378 . S
C1376 C1377 1.367 . S
C1377 C1376 1.367 . S
C1377 C1379 1.433 . S
C1378 C1374 1.350 . S
C1378 C1375 1.463 . S
C1378 N1382 1.427 . S
C1379 H1369 0.929 . S
C1379 C1377 1.433 . S
C1379 N1382 1.384 . S
C1380 H1371 0.929 . S
C1380 C1372 1.378 . S
C1380 C1375 1.350 . S
C1381 H1368 0.929 . S
C1381 C1373 1.433 . S
C1381 N1383 1.384 . S
N1382 C1378 1.427 . S
N1382 C1379 1.384 . S
N1383 C1375 1.427 . S
N1383 C1381 1.384 . S
H1384 C1390 0.930 . S
H1385 C1394 0.930 . S
H1386 C1399 0.929 . S
H1387 C1397 0.929 . S
H1388 C1392 0.929 . S
H1389 C1398 0.929 . S
C1390 H1384 0.930 . S
C1390 C1391 1.367 . S
C1390 C1398 1.378 . S
C1391 C1390 1.367 . S
C1391 C1399 1.433 . S
C1392 H1388 0.929 . S
C1392 C1394 1.378 . S
C1392 C1396 1.350 . S
C1393 C1396 1.463 . S
C1393 C1398 1.350 . S
C1393 N1401 1.427 . S
C1394 H1385 0.930 . S
C1394 C1392 1.378 . S
C1394 C1395 1.367 . S
C1395 C1394 1.367 . S
C1395 C1397 1.433 . S
C1396 C1392 1.350 . S
C1396 C1393 1.463 . S
C1396 N1400 1.427 . S
C1397 H1387 0.929 . S
C1397 C1395 1.433 . S
C1397 N1400 1.384 . S
C1398 H1389 0.929 . S
C1398 C1390 1.378 . S
C1398 C1393 1.350 . S
C1399 H1386 0.929 . S
C1399 C1391 1.433 . S
C1399 N1401 1.384 . S
N1400 C1396 1.427 . S
N1400 C1397 1.384 . S
N1401 C1393 1.427 . S
N1401 C1399 1.384 . S
H1402 C1408 0.930 . S
H1403 C1412 0.930 . S
H1404 C1417 0.929 . S
H1405 C1415 0.929 . S
H1406 C1410 0.929 . S
H1407 C1416 0.929 . S
C1408 H1402 0.930 . S
C1408 C1409 1.367 . S
C1408 C1416 1.378 . S
C1409 C1408 1.367 . S
C1409 C1417 1.433 . S
C1410 H1406 0.929 . S
C1410 C1412 1.378 . S
C1410 C1414 1.350 . S
C1411 C1414 1.463 . S
C1411 C1416 1.350 . S
C1411 N1419 1.427 . S
C1412 H1403 0.930 . S
C1412 C1410 1.378 . S
C1412 C1413 1.367 . S
C1413 C1412 1.367 . S
C1413 C1415 1.433 . S
C1414 C1410 1.350 . S
C1414 C1411 1.463 . S
C1414 N1418 1.427 . S
C1415 H1405 0.929 . S
C1415 C1413 1.433 . S
C1415 N1418 1.384 . S
C1416 H1407 0.929 . S
C1416 C1408 1.378 . S
C1416 C1411 1.350 . S
C1417 H1404 0.929 . S
C1417 C1409 1.433 . S
C1417 N1419 1.384 . S
N1418 C1414 1.427 . S
N1418 C1415 1.384 . S
N1419 C1411 1.427 . S
N1419 C1417 1.384 . S
H1420 C1426 0.930 . S
H1421 C1430 0.930 . S
H1422 C1435 0.929 . S
H1423 C1433 0.929 . S
H1424 C1428 0.929 . S
H1425 C1434 0.929 . S
C1426 H1420 0.930 . S
C1426 C1427 1.367 . S
C1426 C1434 1.378 . S
C1427 C1426 1.367 . S
C1427 C1435 1.433 . S
C1428 H1424 0.929 . S
C1428 C1430 1.378 . S
C1428 C1432 1.350 . S
C1429 C1432 1.463 . S
C1429 C1434 1.350 . S
C1429 N1437 1.427 . S
C1430 H1421 0.930 . S
C1430 C1428 1.378 . S
C1430 C1431 1.367 . S
C1431 C1430 1.367 . S
C1431 C1433 1.433 . S
C1432 C1428 1.350 . S
C1432 C1429 1.463 . S
C1432 N1436 1.427 . S
C1433 H1423 0.929 . S
C1433 C1431 1.433 . S
C1433 N1436 1.384 . S
C1434 H1425 0.929 . S
C1434 C1426 1.378 . S
C1434 C1429 1.350 . S
C1435 H1422 0.929 . S
C1435 C1427 1.433 . S
C1435 N1437 1.384 . S
N1436 C1432 1.427 . S
N1436 C1433 1.384 . S
N1437 C1429 1.427 . S
N1437 C1435 1.384 . S
H1438 C1444 0.930 . S
H1439 C1448 0.930 . S
H1440 C1453 0.929 . S
H1441 C1451 0.929 . S
H1442 C1446 0.929 . S
H1443 C1452 0.929 . S
C1444 H1438 0.930 . S
C1444 C1445 1.367 . S
C1444 C1452 1.378 . S
C1445 C1444 1.367 . S
C1445 C1453 1.433 . S
C1446 H1442 0.929 . S
C1446 C1448 1.378 . S
C1446 C1450 1.350 . S
C1447 C1450 1.463 . S
C1447 C1452 1.350 . S
C1447 N1455 1.427 . S
C1448 H1439 0.930 . S
C1448 C1446 1.378 . S
C1448 C1449 1.367 . S
C1449 C1448 1.367 . S
C1449 C1451 1.433 . S
C1450 C1446 1.350 . S
C1450 C1447 1.463 . S
C1450 N1454 1.427 . S
C1451 H1441 0.929 . S
C1451 C1449 1.433 . S
C1451 N1454 1.384 . S
C1452 H1443 0.929 . S
C1452 C1444 1.378 . S
C1452 C1447 1.350 . S
C1453 H1440 0.929 . S
C1453 C1445 1.433 . S
C1453 N1455 1.384 . S
N1454 C1450 1.427 . S
N1454 C1451 1.384 . S
N1455 C1447 1.427 . S
N1455 C1453 1.384 . S
H1456 C1462 0.930 . S
H1457 C1466 0.930 . S
H1458 C1471 0.929 . S
H1459 C1469 0.929 . S
H1460 C1464 0.929 . S
H1461 C1470 0.929 . S
C1462 H1456 0.930 . S
C1462 C1463 1.367 . S
C1462 C1470 1.378 . S
C1463 C1462 1.367 . S
C1463 C1471 1.433 . S
C1464 H1460 0.929 . S
C1464 C1466 1.378 . S
C1464 C1468 1.350 . S
C1465 C1468 1.463 . S
C1465 C1470 1.350 . S
C1465 N1473 1.427 . S
C1466 H1457 0.930 . S
C1466 C1464 1.378 . S
C1466 C1467 1.367 . S
C1467 C1466 1.367 . S
C1467 C1469 1.433 . S
C1468 C1464 1.350 . S
C1468 C1465 1.463 . S
C1468 N1472 1.427 . S
C1469 H1459 0.929 . S
C1469 C1467 1.433 . S
C1469 N1472 1.384 . S
C1470 H1461 0.929 . S
C1470 C1462 1.378 . S
C1470 C1465 1.350 . S
C1471 H1458 0.929 . S
C1471 C1463 1.433 . S
C1471 N1473 1.384 . S
N1472 C1468 1.427 . S
N1472 C1469 1.384 . S
N1473 C1465 1.427 . S
N1473 C1471 1.384 . S
H1474 C1480 0.930 . S
H1475 C1484 0.930 . S
H1476 C1489 0.929 . S
H1477 C1487 0.929 . S
H1478 C1482 0.929 . S
H1479 C1488 0.929 . S
C1480 H1474 0.930 . S
C1480 C1481 1.367 . S
C1480 C1488 1.378 . S
C1481 C1480 1.367 . S
C1481 C1489 1.433 . S
C1482 H1478 0.929 . S
C1482 C1484 1.378 . S
C1482 C1486 1.350 . S
C1483 C1486 1.463 . S
C1483 C1488 1.350 . S
C1483 N1491 1.427 . S
C1484 H1475 0.930 . S
C1484 C1482 1.378 . S
C1484 C1485 1.367 . S
C1485 C1484 1.367 . S
C1485 C1487 1.433 . S
C1486 C1482 1.350 . S
C1486 C1483 1.463 . S
C1486 N1490 1.427 . S
C1487 H1477 0.929 . S
C1487 C1485 1.433 . S
C1487 N1490 1.384 . S
C1488 H1479 0.929 . S
C1488 C1480 1.378 . S
C1488 C1483 1.350 . S
C1489 H1476 0.929 . S
C1489 C1481 1.433 . S
C1489 N1491 1.384 . S
N1490 C1486 1.427 . S
N1490 C1487 1.384 . S
N1491 C1483 1.427 . S
N1491 C1489 1.384 . S
H1492 C1498 0.930 . S
H1493 C1502 0.930 . S
H1494 C1507 0.929 . S
H1495 C1505 0.929 . S
H1496 C1500 0.929 . S
H1497 C1506 0.929 . S
C1498 H1492 0.930 . S
C1498 C1499 1.367 . S
C1498 C1506 1.378 . S
C1499 C1498 1.367 . S
C1499 C1507 1.433 . S
C1500 H1496 0.929 . S
C1500 C1502 1.378 . S
C1500 C1504 1.350 . S
C1501 C1504 1.463 . S
C1501 C1506 1.350 . S
C1501 N1509 1.427 . S
C1502 H1493 0.930 . S
C1502 C1500 1.378 . S
C1502 C1503 1.367 . S
C1503 C1502 1.367 . S
C1503 C1505 1.433 . S
C1504 C1500 1.350 . S
C1504 C1501 1.463 . S
C1504 N1508 1.427 . S
C1505 H1495 0.929 . S
C1505 C1503 1.433 . S
C1505 N1508 1.384 . S
C1506 H1497 0.929 . S
C1506 C1498 1.378 . S
C1506 C1501 1.350 . S
C1507 H1494 0.929 . S
C1507 C1499 1.433 . S
C1507 N1509 1.384 . S
N1508 C1504 1.427 . S
N1508 C1505 1.384 . S
N1509 C1501 1.427 . S
N1509 C1507 1.384 . S
H1510 C1516 0.930 . S
H1511 C1520 0.930 . S
H1512 C1525 0.929 . S
H1513 C1523 0.929 . S
H1514 C1518 0.929 . S
H1515 C1524 0.929 . S
C1516 H1510 0.930 . S
C1516 C1517 1.367 . S
C1516 C1524 1.378 . S
C1517 C1516 1.367 . S
C1517 C1525 1.433 . S
C1518 H1514 0.929 . S
C1518 C1520 1.378 . S
C1518 C1522 1.350 . S
C1519 C1522 1.463 . S
C1519 C1524 1.350 . S
C1519 N1527 1.427 . S
C1520 H1511 0.930 . S
C1520 C1518 1.378 . S
C1520 C1521 1.367 . S
C1521 C1520 1.367 . S
C1521 C1523 1.433 . S
C1522 C1518 1.350 . S
C1522 C1519 1.463 . S
C1522 N1526 1.427 . S
C1523 H1513 0.929 . S
C1523 C1521 1.433 . S
C1523 N1526 1.384 . S
C1524 H1515 0.929 . S
C1524 C1516 1.378 . S
C1524 C1519 1.350 . S
C1525 H1512 0.929 . S
C1525 C1517 1.433 . S
C1525 N1527 1.384 . S
N1526 C1522 1.427 . S
N1526 C1523 1.384 . S
N1527 C1519 1.427 . S
N1527 C1525 1.384 . S
H1528 C1534 0.930 . S
H1529 C1538 0.930 . S
H1530 C1543 0.929 . S
H1531 C1541 0.929 . S
H1532 C1536 0.929 . S
H1533 C1542 0.929 . S
C1534 H1528 0.930 . S
C1534 C1535 1.367 . S
C1534 C1542 1.378 . S
C1535 C1534 1.367 . S
C1535 C1543 1.433 . S
C1536 H1532 0.929 . S
C1536 C1538 1.378 . S
C1536 C1540 1.350 . S
C1537 C1540 1.463 . S
C1537 C1542 1.350 . S
C1537 N1545 1.427 . S
C1538 H1529 0.930 . S
C1538 C1536 1.378 . S
C1538 C1539 1.367 . S
C1539 C1538 1.367 . S
C1539 C1541 1.433 . S
C1540 C1536 1.350 . S
C1540 C1537 1.463 . S
C1540 N1544 1.427 . S
C1541 H1531 0.929 . S
C1541 C1539 1.433 . S
C1541 N1544 1.384 . S
C1542 H1533 0.929 . S
C1542 C1534 1.378 . S
C1542 C1537 1.350 . S
C1543 H1530 0.929 . S
C1543 C1535 1.433 . S
C1543 N1545 1.384 . S
N1544 C1540 1.427 . S
N1544 C1541 1.384 . S
N1545 C1537 1.427 . S
N1545 C1543 1.384 . S
H1546 C1552 0.930 . S
H1547 C1556 0.930 . S
H1548 C1561 0.929 . S
H1549 C1559 0.929 . S
H1550 C1554 0.929 . S
H1551 C1560 0.929 . S
C1552 H1546 0.930 . S
C1552 C1553 1.367 . S
C1552 C1560 1.378 . S
C1553 C1552 1.367 . S
C1553 C1561 1.433 . S
C1554 H1550 0.929 . S
C1554 C1556 1.378 . S
C1554 C1558 1.350 . S
C1555 C1558 1.463 . S
C1555 C1560 1.350 . S
C1555 N1563 1.427 . S
C1556 H1547 0.930 . S
C1556 C1554 1.378 . S
C1556 C1557 1.367 . S
C1557 C1556 1.367 . S
C1557 C1559 1.433 . S
C1558 C1554 1.350 . S
C1558 C1555 1.463 . S
C1558 N1562 1.427 . S
C1559 H1549 0.929 . S
C1559 C1557 1.433 . S
C1559 N1562 1.384 . S
C1560 H1551 0.929 . S
C1560 C1552 1.378 . S
C1560 C1555 1.350 . S
C1561 H1548 0.929 . S
C1561 C1553 1.433 . S
C1561 N1563 1.384 . S
N1562 C1558 1.427 . S
N1562 C1559 1.384 . S
N1563 C1555 1.427 . S
N1563 C1561 1.384 . S
H1564 C1570 0.930 . S
H1565 C1574 0.930 . S
H1566 C1579 0.929 . S
H1567 C1577 0.929 . S
H1568 C1572 0.929 . S
H1569 C1578 0.929 . S
C1570 H1564 0.930 . S
C1570 C1571 1.367 . S
C1570 C1578 1.378 . S
C1571 C1570 1.367 . S
C1571 C1579 1.433 . S
C1572 H1568 0.929 . S
C1572 C1574 1.378 . S
C1572 C1576 1.350 . S
C1573 C1576 1.463 . S
C1573 C1578 1.350 . S
C1573 N1581 1.427 . S
C1574 H1565 0.930 . S
C1574 C1572 1.378 . S
C1574 C1575 1.367 . S
C1575 C1574 1.367 . S
C1575 C1577 1.433 . S
C1576 C1572 1.350 . S
C1576 C1573 1.463 . S
C1576 N1580 1.427 . S
C1577 H1567 0.929 . S
C1577 C1575 1.433 . S
C1577 N1580 1.384 . S
C1578 H1569 0.929 . S
C1578 C1570 1.378 . S
C1578 C1573 1.350 . S
C1579 H1566 0.929 . S
C1579 C1571 1.433 . S
C1579 N1581 1.384 . S
N1580 C1576 1.427 . S
N1580 C1577 1.384 . S
N1581 C1573 1.427 . S
N1581 C1579 1.384 . S
H1582 C1588 0.930 . S
H1583 C1592 0.930 . S
H1584 C1597 0.929 . S
H1585 C1595 0.929 . S
H1586 C1590 0.929 . S
H1587 C1596 0.929 . S
C1588 H1582 0.930 . S
C1588 C1589 1.367 . S
C1588 C1596 1.378 . S
C1589 C1588 1.367 . S
C1589 C1597 1.433 . S
C1590 H1586 0.929 . S
C1590 C1592 1.378 . S
C1590 C1594 1.350 . S
C1591 C1594 1.463 . S
C1591 C1596 1.350 . S
C1591 N1599 1.427 . S
C1592 H1583 0.930 . S
C1592 C1590 1.378 . S
C1592 C1593 1.367 . S
C1593 C1592 1.367 . S
C1593 C1595 1.433 . S
C1594 C1590 1.350 . S
C1594 C1591 1.463 . S
C1594 N1598 1.427 . S
C1595 H1585 0.929 . S
C1595 C1593 1.433 . S
C1595 N1598 1.384 . S
C1596 H1587 0.929 . S
C1596 C1588 1.378 . S
C1596 C1591 1.350 . S
C1597 H1584 0.929 . S
C1597 C1589 1.433 . S
C1597 N1599 1.384 . S
N1598 C1594 1.427 . S
N1598 C1595 1.384 . S
N1599 C1591 1.427 . S
N1599 C1597 1.384 . S
C455 C121 1.571 . S
C459 C9 1.571 . S
C473 C359 1.571 . S
C477 C23 1.571 . S
C491 C149 1.568 . S
C495 C37 1.568 . S
C509 C387 1.570 . S
C513 C51 1.570 . S
C527 C177 1.571 . S
C531 C65 1.571 . S
C545 C79 1.571 . S
C549 C415 1.571 . S
C563 C93 1.569 . S
C567 C205 1.569 . S
C581 C107 1.570 . S
C585 C443 1.570 . S
C599 C247 1.568 . S
C603 C135 1.568 . S
C617 C275 1.570 . S
C621 C163 1.570 . S
C635 C191 1.571 . S
C639 C303 1.571 . S
C653 C219 1.571 . S
C657 C331 1.571 . S
C671 C233 1.569 . S
C675 C345 1.569 . S
C689 C373 1.571 . S
C693 C261 1.571 . S
C707 C289 1.571 . S
C711 C401 1.571 . S
C725 C429 1.567 . S
C729 C317 1.567 . S
C743 C257 1.612 . S
C747 C5 1.611 . S
C761 C271 1.615 . S
C765 C19 1.615 . S
C779 C33 1.615 . S
C783 C229 1.615 . S
C797 C47 1.615 . S
C801 C243 1.615 . S
C815 C313 1.611 . S
C819 C61 1.612 . S
C833 C75 1.614 . S
C837 C327 1.615 . S
C851 C285 1.615 . S
C855 C89 1.615 . S
C869 C299 1.615 . S
C873 C103 1.614 . S
C887 C117 1.612 . S
C891 C369 1.613 . S
C905 C383 1.612 . S
C909 C131 1.613 . S
C923 C145 1.612 . S
C927 C341 1.611 . S
C941 C159 1.615 . S
C945 C355 1.615 . S
C959 C173 1.614 . S
C963 C425 1.613 . S
C977 C187 1.614 . S
C981 C439 1.613 . S
C995 C397 1.611 . S
C999 C201 1.611 . S
C1013 C411 1.615 . S
C1017 C215 1.614 . S
C1031 C95 1.469 . S
C1035 C11 1.471 . S
C1049 C109 1.471 . S
C1053 C25 1.468 . S
C1067 C67 1.471 . S
C1071 C39 1.465 . S
C1085 C53 1.468 . S
C1089 C81 1.471 . S
C1103 C207 1.468 . S
C1107 C123 1.465 . S
C1121 C221 1.470 . S
C1125 C137 1.465 . S
C1139 C179 1.465 . S
C1143 C151 1.470 . S
C1157 C193 1.471 . S
C1161 C165 1.468 . S
C1175 C319 1.465 . S
C1179 C235 1.471 . S
C1193 C333 1.469 . S
C1197 C249 1.464 . S
C1211 C263 1.465 . S
C1215 C291 1.469 . S
C1229 C277 1.469 . S
C1233 C305 1.471 . S
C1247 C431 1.465 . S
C1251 C347 1.471 . S
C1265 C445 1.465 . S
C1269 C361 1.466 . S
C1283 C375 1.465 . S
C1287 C403 1.470 . S
C1301 C389 1.472 . S
C1305 C417 1.468 . S
C1319 C0 1.407 . S
C1323 C294 1.405 . S
C1337 C308 1.405 . S
C1341 C14 1.406 . S
C1355 C322 1.411 . S
C1359 C28 1.404 . S
C1373 C42 1.411 . S
C1377 C280 1.404 . S
C1391 C266 1.405 . S
C1395 C56 1.406 . S
C1409 C70 1.403 . S
C1413 C224 1.410 . S
C1427 C238 1.411 . S
C1431 C84 1.404 . S
C1445 C98 1.405 . S
C1449 C252 1.411 . S
C1463 C406 1.405 . S
C1467 C112 1.406 . S
C1481 C420 1.405 . S
C1485 C126 1.411 . S
C1499 C140 1.410 . S
C1503 C434 1.408 . S
C1517 C392 1.406 . S
C1521 C154 1.411 . S
C1535 C378 1.409 . S
C1539 C168 1.410 . S
C1553 C182 1.405 . S
C1557 C336 1.407 . S
C1571 C350 1.403 . S
C1575 C196 1.410 . S
C1589 C210 1.410 . S
C1593 C364 1.408 . S
