# Generated by pormake.
# Topology sxb, (6)-cn, num edge types: 1
# Building blocks:
#     Node 0, Type 0, BuildingBlock: HISSIN_clean_sbu_0, # of connection points: 6
#     Node 1, Type 0, BuildingBlock: HISSIN_clean_sbu_0, # of connection points: 6
#     Node 2, Type 0, BuildingBlock: HISSIN_clean_sbu_0, # of connection points: 6
#     Node 3, Type 0, BuildingBlock: HISSIN_clean_sbu_0, # of connection points: 6
#     Edge 4, Type (0, 0), BuildingBlock: FUNLAD_clean_linker_1, # of connection points: 2
#     Edge 5, Type (0, 0), BuildingBlock: FUNLAD_clean_linker_1, # of connection points: 2
#     Edge 6, Type (0, 0), BuildingBlock: FUNLAD_clean_linker_1, # of connection points: 2
#     Edge 7, Type (0, 0), BuildingBlock: FUNLAD_clean_linker_1, # of connection points: 2
#     Edge 8, Type (0, 0), BuildingBlock: FUNLAD_clean_linker_1, # of connection points: 2
#     Edge 9, Type (0, 0), BuildingBlock: FUNLAD_clean_linker_1, # of connection points: 2
#     Edge 10, Type (0, 0), BuildingBlock: FUNLAD_clean_linker_1, # of connection points: 2
#     Edge 11, Type (0, 0), BuildingBlock: FUNLAD_clean_linker_1, # of connection points: 2
#     Edge 12, Type (0, 0), BuildingBlock: FUNLAD_clean_linker_1, # of connection points: 2
#     Edge 13, Type (0, 0), BuildingBlock: FUNLAD_clean_linker_1, # of connection points: 2
#     Edge 14, Type (0, 0), BuildingBlock: FUNLAD_clean_linker_1, # of connection points: 2
#     Edge 15, Type (0, 0), BuildingBlock: FUNLAD_clean_linker_1, # of connection points: 2
# Relax obj value: 0.389
# Max RMSD: 0.118
# Mean RMSD: 0.089
data_MOF--net-sxb--node1-HISSIN_clean_sbu_0--edge1-FUNLAD_clean_linker_1
_symmetry_space_group_name_H-M    P1
_symmetry_Int_Tables_number       1
_symmetry_cell_setting            triclinic
loop_
_symmetry_equiv_pos_as_xyz
'x, y, z'
_cell_length_a     18.00964
_cell_length_b     37.401795
_cell_length_c     32.292812
_cell_angle_alpha  96.963351
_cell_angle_beta   95.507779
_cell_angle_gamma 68.836567
loop_
_atom_site_label
_atom_site_type_symbol
_atom_site_fract_x
_atom_site_fract_y
_atom_site_fract_z
_atom_type_partial_charge
Eu0 Eu 1.02964 1.03617 0.97744 0.0
Eu1 Eu 0.19501 0.0471 -0.01601 0.0
C2 C 0.11424 1.0435 0.06902 0.0
C3 C 0.80968 0.06702 0.98066 0.0
C4 C 0.80107 0.08199 0.02274 0.0
C5 C 0.68053 0.1145 0.96251 0.0
C6 C 0.73209 0.11225 0.03464 0.0
C7 C 0.74932 0.08389 0.95059 0.0
C8 C 0.67045 0.12797 0.00476 0.0
C9 C 0.88444 1.03678 0.96728 0.0
O10 O 0.23287 0.97997 0.97936 0.0
O11 O 0.115 0.9706 0.98228 0.0
C12 C 0.19462 0.95566 0.98099 0.0
O13 O 1.0792 1.01641 0.91337 0.0
O14 O 0.27659 0.0748 0.01362 0.0
O15 O 0.31588 1.02973 0.96312 0.0
O16 O 0.1533 0.0544 0.91579 0.0
C17 C 0.11505 1.03385 0.89404 0.0
O18 O 0.98968 0.1047 0.97794 0.0
O19 O 0.11097 0.1116 -0.01213 0.0
O20 O 0.17914 1.03865 0.05037 0.0
O21 O 0.91934 0.04594 0.93884 0.0
O22 O 0.935 1.01925 -0.0034 0.0
O23 O 1.04641 0.04791 0.04758 0.0
C24 C 0.40696 1.02933 0.02168 0.0
C25 C 0.45719 0.99147 0.00966 0.0
C26 C 0.48583 1.02743 0.08739 0.0
C27 C 0.52218 0.97217 0.03591 0.0
C28 C 0.42136 0.04681 0.06115 0.0
C29 C 0.53866 0.99064 0.07419 0.0
C30 C 0.33756 0.05008 -0.00557 0.0
C31 C 1.03206 0.128 -0.01657 0.0
H32 H 0.84748 0.0704 0.04654 0.0
H33 H 0.63346 0.12629 0.93907 0.0
H34 H 0.72578 0.12268 0.06737 0.0
H35 H 0.75544 0.07336 0.91786 0.0
H36 H 0.44732 0.97696 0.97968 0.0
H37 H 0.49683 1.04195 0.11716 0.0
H38 H 0.56238 0.94382 0.02518 0.0
H39 H 0.38339 0.07574 0.0716 0.0
Eu40 Eu 0.11311 1.01341 0.47631 0.0
Eu41 Eu 1.02773 0.10238 0.48297 0.0
C42 C 1.07905 0.05932 0.56899 0.0
C43 C 0.13431 0.90846 0.47126 0.0
C44 C 1.07916 0.91568 0.50188 0.0
C45 C 0.11648 0.84772 0.44829 0.0
C46 C 1.04209 0.88929 0.5053 0.0
C47 C 0.15398 0.87403 0.44509 0.0
C48 C 1.05837 0.85571 0.47769 0.0
C49 C 0.16483 0.9383 0.46344 0.0
O50 O 0.16738 0.09224 0.48025 0.0
O51 O 0.23246 1.02767 0.48093 0.0
C52 C 0.2374 0.06239 0.48074 0.0
O53 O 0.11844 1.03266 0.41266 0.0
O54 O 0.97948 0.15984 0.51617 0.0
O55 O 0.99201 0.15383 0.44964 0.0
O56 O 1.00018 0.08108 0.41703 0.0
C57 C 1.05591 0.05686 0.3941 0.0
O58 O 0.97301 1.02335 0.4781 0.0
O59 O 0.90912 0.08855 0.48461 0.0
O60 O 1.04332 0.09127 0.55104 0.0
O61 O 0.12241 0.96118 0.43577 0.0
O62 O 0.1869 0.95697 0.49615 0.0
O63 O 0.1113 1.02614 0.54697 0.0
C64 C 1.02971 0.20176 0.48981 0.0
C65 C 0.10793 0.18705 0.47651 0.0
C66 C 1.05236 0.25975 0.52082 0.0
C67 C 0.15858 0.20775 0.4864 0.0
C68 C 1.00175 0.23846 0.51165 0.0
C69 C 0.13177 0.24393 0.50929 0.0
C70 C 0.98101 0.17714 0.48377 0.0
C71 C 0.90357 0.05365 0.48136 0.0
H72 H 1.0627 0.94232 0.52214 0.0
H73 H 0.13208 0.82159 0.4273 0.0
H74 H 0.99785 0.89602 0.52832 0.0
H75 H 0.19644 0.86808 0.42127 0.0
H76 H 0.13055 0.15924 0.45884 0.0
H77 H 1.03038 0.28795 0.53793 0.0
H78 H 0.21877 0.19549 0.4759 0.0
H79 H 0.94158 0.25028 0.52216 0.0
Eu80 Eu 0.49527 0.53302 0.96893 0.0
Eu81 Eu 0.65832 0.54572 -0.00501 0.0
C82 C 0.54802 0.54248 0.06734 0.0
C83 C 0.30111 0.53825 0.9075 0.0
C84 C 0.25916 0.57813 0.90773 0.0
C85 C 0.22015 0.52744 0.8462 0.0
C86 C 0.19612 0.59235 0.87824 0.0
C87 C 0.28252 0.5132 0.8758 0.0
C88 C 0.1741 0.56689 0.84847 0.0
C89 C 0.36452 0.52201 0.93958 0.0
O90 O 0.70239 0.47717 -0.00702 0.0
O91 O 0.58462 0.46943 0.97048 0.0
C92 C 0.66196 0.45349 0.98132 0.0
O93 O 0.53108 0.54894 0.91048 0.0
O94 O 0.76156 0.53883 0.03867 0.0
O95 O 0.74966 0.5683 -0.01672 0.0
O96 O 0.66434 0.52641 0.92573 0.0
C97 C 0.60394 0.53696 0.89831 0.0
O98 O 0.45106 0.60009 0.97838 0.0
O99 O 0.56916 0.61073 -0.01153 0.0
O100 O 0.60188 0.5553 0.05695 0.0
O101 O 0.43449 0.50184 0.92565 0.0
O102 O 0.36865 0.54414 0.97362 0.0
O103 O 0.5055 0.52886 0.03885 0.0
C104 C 0.87791 0.52663 0.00442 0.0
C105 C 0.89174 0.50459 0.96561 0.0
C106 C 1.01645 0.49455 0.02697 0.0
C107 C 0.96759 0.47822 0.95736 0.0
C108 C 0.94056 0.52128 0.03513 0.0
C109 C 1.03069 0.4734 -0.01222 0.0
C110 C 0.79692 0.55229 0.0144 0.0
C111 C 0.48925 0.625 -0.01654 0.0
H112 H 0.27333 0.59818 0.93138 0.0
H113 H 0.2049 0.5074 0.82296 0.0
H114 H 0.1613 0.62288 0.88041 0.0
H115 H 0.31493 0.48244 0.8746 0.0
H116 H 0.84376 0.5074 0.94184 0.0
H117 H 1.06443 0.491 0.05087 0.0
H118 H 0.97689 0.46144 0.92728 0.0
H119 H 0.93053 0.53746 0.06554 0.0
Eu120 Eu 0.62617 0.50649 0.48488 0.0
Eu121 Eu 0.539 0.59479 0.48407 0.0
C122 C 0.57112 0.55723 0.5722 0.0
C123 C 0.65083 0.40457 0.50192 0.0
C124 C 0.61845 0.4129 0.54142 0.0
C125 C 0.61302 0.34804 0.48999 0.0
C126 C 0.58279 0.38911 0.55486 0.0
C127 C 0.6495 0.37153 0.47679 0.0
C128 C 0.57739 0.3573 0.52865 0.0
C129 C 0.67927 0.43171 0.4849 0.0
O130 O 0.679 0.58565 0.48575 0.0
O131 O 0.7445 0.52097 0.48516 0.0
C132 C 0.74914 0.5558 0.48562 0.0
O133 O 0.64266 0.51759 0.41965 0.0
O134 O 0.52764 0.65186 0.51404 0.0
O135 O 0.46688 0.64635 0.45382 0.0
O136 O 0.53576 0.5729 0.41549 0.0
C137 C 0.59128 0.54353 0.39732 0.0
O138 O 0.48547 0.51613 0.48234 0.0
O139 O 0.42053 0.58113 0.48592 0.0
O140 O 0.52552 0.58536 0.55049 0.0
O141 O 0.6342 0.44996 0.45445 0.0
O142 O 0.70448 0.45428 0.5119 0.0
O143 O 0.62229 0.52609 0.55396 0.0
C144 C 0.53074 0.69202 0.46485 0.0
C145 C 0.57814 0.67696 0.43026 0.0
C146 C 0.58186 0.74435 0.47691 0.0
C147 C 0.62813 0.69509 0.41959 0.0
C148 C 0.53134 0.72635 0.48739 0.0
C149 C 0.63283 0.72802 0.4438 0.0
C150 C 0.49098 0.66905 0.4812 0.0
C151 C 0.41554 0.54625 0.48399 0.0
H152 H 0.6183 0.43844 0.56131 0.0
H153 H 0.61129 0.32309 0.4696 0.0
H154 H 0.55596 0.39662 0.58483 0.0
H155 H 0.6743 0.36462 0.44631 0.0
H156 H 0.57943 0.65019 0.41263 0.0
H157 H 0.58223 0.77047 0.49535 0.0
H158 H 0.66628 0.68219 0.39375 0.0
H159 H 0.4954 0.73829 0.51422 0.0
H160 H 0.37163 0.67423 0.98088 0.0
C161 C 0.43493 0.66955 -0.01657 0.0
H162 H 0.515 0.69951 -0.01437 0.0
H163 H 0.32652 0.86362 0.91954 0.0
H164 H 0.42673 0.83256 0.86932 0.0
H165 H 0.51028 0.76412 0.87033 0.0
H166 H 0.49409 0.72556 0.92121 0.0
C167 C 0.45211 0.7036 -0.0151 0.0
C168 C 0.39179 0.74758 -0.0169 0.0
C169 C 0.40037 0.77213 0.95403 0.0
C170 C 0.35146 0.81337 0.9539 0.0
C171 C 0.36239 0.83379 0.9224 0.0
C172 C 0.41942 0.81613 0.89302 0.0
C173 C 0.46651 0.77751 0.89357 0.0
C174 C 0.45699 0.75571 0.92328 0.0
H175 H 0.31205 0.90632 0.98242 0.0
C176 C 0.2488 0.91114 0.98173 0.0
H177 H 0.16887 0.88161 0.98274 0.0
H178 H 0.35579 0.71673 0.04625 0.0
H179 H 0.25625 0.74784 0.09687 0.0
H180 H 0.17405 0.81653 0.09663 0.0
H181 H 0.19061 0.85525 0.04608 0.0
C182 C 0.23167 0.87726 0.98205 0.0
C183 C 0.29183 0.83318 -0.01642 0.0
C184 C 0.2834 0.80862 0.01271 0.0
C185 C 0.33199 0.76733 0.01266 0.0
C186 C 0.3206 0.74674 0.04385 0.0
C187 C 0.26387 0.76438 0.07338 0.0
C188 C 0.2175 0.80314 0.07324 0.0
C189 C 0.22722 0.82503 0.04369 0.0
H190 H 0.65371 0.39429 0.972 0.0
C191 C 0.69846 0.40753 0.97989 0.0
H192 H 0.82131 0.39403 -0.00393 0.0
H193 H 0.97134 0.22478 0.05292 0.0
H194 H 0.99448 0.26495 0.11344 0.0
H195 H 0.93438 0.33555 0.11638 0.0
H196 H 0.84959 0.36705 0.05911 0.0
C197 C 0.77641 0.38108 -0.01303 0.0
C198 C 0.80846 0.3346 -0.01457 0.0
C199 C 0.86062 0.31435 0.01857 0.0
C200 C 0.89748 0.27203 0.01672 0.0
C201 C 0.94455 0.25556 0.05183 0.0
C202 C 0.95788 0.27837 0.08701 0.0
C203 C 0.92396 0.3182 0.08867 0.0
C204 C 0.87576 0.33599 0.05525 0.0
H205 H 1.04084 0.18713 -0.00868 0.0
C206 C 0.99563 0.17398 -0.01464 0.0
H207 H 0.87166 0.18777 0.97246 0.0
H208 H 0.72473 0.35664 0.91317 0.0
H209 H 0.70097 0.31639 0.85294 0.0
H210 H 0.75937 0.24578 0.85057 0.0
H211 H 0.8434 0.21435 0.90815 0.0
C212 C 0.91724 0.20053 0.98008 0.0
C213 C 0.88557 0.24695 0.98134 0.0
C214 C 0.83332 0.26717 0.94825 0.0
C215 C 0.79685 0.3095 0.94996 0.0
C216 C 0.75057 0.32589 0.91461 0.0
C217 C 0.73703 0.30302 0.87954 0.0
C218 C 0.77004 0.26318 0.87819 0.0
C219 C 0.81781 0.24545 0.91173 0.0
H220 H 0.16598 0.29539 0.51305 0.0
C221 C 0.18652 0.26543 0.51965 0.0
H222 H 0.28111 0.21801 0.54142 0.0
H223 H 0.5556 0.25868 0.47674 0.0
H224 H 0.57526 0.19486 0.44219 0.0
H225 H 0.47871 0.16308 0.44806 0.0
H226 H 0.36313 0.19445 0.48888 0.0
C227 C 0.26201 0.24775 0.53418 0.0
C228 C 0.32366 0.26551 0.53409 0.0
C229 C 0.39022 0.24681 0.5092 0.0
C230 C 0.4445 0.26556 0.50472 0.0
C231 C 0.51146 0.24606 0.48041 0.0
C232 C 0.52362 0.20939 0.46048 0.0
C233 C 0.46932 0.19149 0.46381 0.0
C234 C 0.40315 0.20989 0.4876 0.0
H235 H 0.53178 0.33088 0.57365 0.0
C236 C 0.5304 0.33545 0.54092 0.0
H237 H 0.47722 0.33004 0.4805 0.0
H238 H 0.21476 0.30458 0.59232 0.0
H239 H 0.1951 0.36833 0.62717 0.0
H240 H 0.28071 0.40385 0.6138 0.0
H241 H 0.38669 0.37591 0.56585 0.0
C242 C 0.48041 0.32465 0.51306 0.0
C243 C 0.43091 0.3033 0.52404 0.0
C244 C 0.3665 0.32128 0.55051 0.0
C245 C 0.31438 0.30172 0.55658 0.0
C246 C 0.25356 0.31905 0.5851 0.0
C247 C 0.24204 0.35547 0.60554 0.0
C248 C 0.29037 0.37543 0.59805 0.0
C249 C 0.35158 0.35883 0.57068 0.0
H250 H 0.98102 0.83327 0.50766 0.0
C251 C 1.01028 0.83106 0.479 0.0
H252 H 1.01433 0.81045 0.41488 0.0
H253 H 0.84344 0.70765 0.50067 0.0
H254 H 0.9767 0.67311 0.52896 0.0
H255 H 1.08912 0.69361 0.51926 0.0
H256 H 1.06883 0.74891 0.48115 0.0
C257 C 0.9918 0.81073 0.44496 0.0
C258 C 0.9276 0.79481 0.446 0.0
C259 C 0.94051 0.76256 0.46832 0.0
C260 C 0.87576 0.75074 0.47379 0.0
C261 C 0.89031 0.71821 0.49601 0.0
C262 C 0.96655 0.69806 0.51234 0.0
C263 C 1.02987 0.70959 0.50685 0.0
C264 C 1.01738 0.74143 0.48509 0.0
H265 H 0.71495 0.73809 0.40356 0.0
C266 C 0.69411 0.74345 0.43504 0.0
H267 H 0.71589 0.76275 0.49771 0.0
H268 H 0.88522 0.85494 0.39719 0.0
H269 H 0.75314 0.88819 0.36687 0.0
H270 H 0.63925 0.86979 0.37913 0.0
H271 H 0.65727 0.81716 0.4206 0.0
C272 C 0.73029 0.76029 0.46535 0.0
C273 C 0.7984 0.77122 0.45686 0.0
C274 C 0.78615 0.80256 0.43308 0.0
C275 C 0.85127 0.81395 0.42707 0.0
C276 C 0.83777 0.8452 0.40301 0.0
C277 C 0.76215 0.86469 0.38556 0.0
C278 C 0.69812 0.85419 0.39229 0.0
C279 C 0.70949 0.82369 0.41594 0.0
H280 H 0.63509 0.94517 0.10627 0.0
C281 C 0.61719 0.97414 0.09687 0.0
H282 H 0.72613 0.97968 0.12021 0.0
H283 H 0.55976 0.16348 0.12254 0.0
H284 H 0.59716 0.15574 0.19612 0.0
H285 H 0.65831 0.09103 0.22094 0.0
H286 H 0.68403 1.03359 0.17218 0.0
C287 C 0.66954 0.99285 0.1032 0.0
C288 C 0.65145 1.03137 0.08777 0.0
C289 C 0.63648 0.06452 0.11663 0.0
C290 C 0.60001 0.10182 0.10238 0.0
C291 C 0.58684 0.13449 0.13174 0.0
C292 C 0.60785 0.13044 0.17405 0.0
C293 C 0.64225 0.09399 0.18803 0.0
C294 C 0.65642 0.06129 0.1598 0.0
H295 H 0.56589 0.1824 0.00532 0.0
C296 C 0.59167 0.15473 0.01815 0.0
H297 H 0.49185 0.1655 0.05304 0.0
H298 H 0.69468 0.97498 0.0233 0.0
H299 H 0.64999 0.9818 0.95001 0.0
H300 H 0.56298 0.04496 0.92727 0.0
H301 H 0.52532 0.10199 0.97701 0.0
C302 C 0.5488 0.14465 0.04356 0.0
C303 C 0.5774 0.10575 0.05942 0.0
C304 C 0.59145 0.07239 0.03081 0.0
C305 C 0.6347 1.03557 0.0445 0.0
C306 C 0.65791 1.0033 0.01448 0.0
C307 C 0.63281 1.00687 0.97252 0.0
C308 C 0.584 1.04242 0.9597 0.0
C309 C 0.56318 0.0749 -0.01156 0.0
H310 H 0.30989 0.10039 0.47609 0.0
C311 C 0.32037 0.07049 0.47986 0.0
H312 H 0.41256 1.01661 0.4851 0.0
H313 H 0.74635 1.00858 0.42797 0.0
H314 H 0.71756 0.95736 0.38506 0.0
H315 H 0.58752 0.9498 0.38511 0.0
H316 H 0.48335 0.99412 0.42718 0.0
C317 C 0.40314 0.04657 0.48232 0.0
C318 C 0.4866 0.05494 0.48039 0.0
C319 C 0.55263 1.02879 0.45653 0.0
C320 C 0.63221 1.03261 0.45713 0.0
C321 C 0.68886 1.00643 0.43041 0.0
C322 C 0.6727 0.97694 0.4052 0.0
C323 C 0.59924 0.97277 0.40518 0.0
C324 C 0.53997 0.99833 0.42999 0.0
H325 H 0.83016 1.01587 0.48499 0.0
C326 C 0.82026 0.04591 0.48242 0.0
H327 H 0.72914 0.10034 0.47898 0.0
H328 H 0.3924 0.10992 0.5333 0.0
H329 H 0.42081 0.16168 0.57569 0.0
H330 H 0.5516 0.16849 0.57644 0.0
H331 H 0.65657 0.12344 0.53546 0.0
C332 C 0.73773 0.07035 0.48091 0.0
C333 C 0.65365 0.0624 0.48241 0.0
C334 C 0.58744 0.08869 0.50612 0.0
C335 C 0.50771 0.08499 0.50536 0.0
C336 C 0.45041 0.11169 0.53141 0.0
C337 C 0.46634 0.14141 0.55633 0.0
C338 C 0.54016 0.14526 0.55674 0.0
C339 C 0.59991 0.11929 0.53249 0.0
H340 H 0.14422 0.42575 -3e-05 0.0
C341 C 0.11228 0.44713 0.97844 0.0
H342 H 0.20924 0.42912 0.94012 0.0
H343 H 1.00928 0.61139 0.90085 0.0
H344 H 1.04691 0.62813 0.97306 0.0
H345 H 0.12195 0.57731 0.01911 0.0
H346 H 0.15655 0.50981 -0.00601 0.0
C347 C 0.1501 0.45 0.9457 0.0
C348 C 0.11467 0.48078 0.91667 0.0
C349 C 0.09937 0.51998 0.93139 0.0
C350 C 1.06141 0.54918 0.90415 0.0
C351 C 1.04104 0.58821 0.92017 0.0
C352 C 1.06212 0.59813 0.96141 0.0
C353 C 0.10413 0.56952 -0.01265 0.0
C354 C 0.12299 0.53087 0.97264 0.0
H355 H 1.0843 0.60307 0.80419 0.0
C356 C 0.09594 0.58053 0.82477 0.0
H357 H 0.98086 0.57795 0.81221 0.0
H358 H 0.13065 0.40896 0.87905 0.0
H359 H 0.09618 0.39302 0.80635 0.0
H360 H 1.03938 0.44374 0.75801 0.0
H361 H 1.01568 0.5109 0.78231 0.0
C362 C 1.03706 0.56754 0.83042 0.0
C363 C 1.04756 0.53905 0.86118 0.0
C364 C 1.0599 0.5002 0.84674 0.0
C365 C 0.09352 0.47097 0.87453 0.0
C366 C 0.10586 0.43229 0.8592 0.0
C367 C 1.08633 0.42276 0.81756 0.0
C368 C 1.05435 0.45132 0.79033 0.0
C369 C 1.04131 0.48966 0.80458 0.0
H370 H 0.34015 0.50818 0.47459 0.0
C371 C 0.33183 0.5384 0.48194 0.0
H372 H 0.24348 0.59317 0.49405 0.0
H373 H 0.88938 0.60141 0.44122 0.0
H374 H 0.90561 0.65217 0.40781 0.0
H375 H 1.03649 0.6588 0.40819 0.0
H376 H 0.1533 0.61471 0.44161 0.0
C377 C 0.25045 0.56305 0.48735 0.0
C378 C 0.16553 0.5552 0.48467 0.0
C379 C 1.09244 0.58092 0.46533 0.0
C380 C 1.01274 0.57734 0.4655 0.0
C381 C 0.94795 0.60331 0.44373 0.0
C382 C 0.95675 0.6324 0.42385 0.0
C383 C 1.03064 0.63612 0.42404 0.0
C384 C 0.09741 0.61074 0.44397 0.0
H385 H 0.82329 0.59442 0.49506 0.0
C386 C 0.83241 0.5641 0.48786 0.0
H387 H 0.9218 0.50963 0.47617 0.0
H388 H 0.27442 0.50258 0.52987 0.0
H389 H 0.25817 0.4524 0.56399 0.0
H390 H 0.12738 0.44555 0.56373 0.0
H391 H 1.01066 0.48915 0.52962 0.0
C392 C 0.91411 0.53984 0.48274 0.0
C393 C 0.99864 0.54811 0.48568 0.0
C394 C 1.07165 0.52258 0.50528 0.0
C395 C 0.15129 0.52617 0.50509 0.0
C396 C 0.21594 0.50055 0.52726 0.0
C397 C 0.2071 0.47172 0.54754 0.0
C398 C 0.1333 0.46791 0.54736 0.0
C399 C 1.0666 0.49302 0.52708 0.0
H400 H 0.99346 0.07997 0.33539 0.0
C401 C 1.0473 0.05869 0.34787 0.0
H402 H 0.15525 1.014 0.33274 0.0
H403 H 1.05787 0.97783 0.1432 0.0
H404 H 1.05836 0.92143 0.17333 0.0
H405 H 1.07281 0.91832 0.24966 0.0
H406 H 1.08716 0.97153 0.29646 0.0
C407 C 0.10223 1.03623 0.32101 0.0
C408 C 1.09052 1.03914 0.27442 0.0
C409 C 1.08166 1.00795 0.24717 0.0
C410 C 1.07231 1.00994 0.20292 0.0
C411 C 1.06429 0.97809 0.17688 0.0
C412 C 1.06461 0.94548 0.19376 0.0
C413 C 1.07285 0.94371 0.23674 0.0
C414 C 1.08123 0.97446 0.26326 0.0
H415 H 0.17743 1.0421 0.13138 0.0
C416 C 0.12041 1.04374 0.11551 0.0
H417 H 1.00449 0.04495 0.12335 0.0
H418 H 0.11368 0.10277 0.31618 0.0
H419 H 0.10945 0.15981 0.28616 0.0
H420 H 1.08551 0.16472 0.21023 0.0
H421 H 1.06697 0.11232 0.1637 0.0
C422 C 1.06083 0.045 0.13872 0.0
C423 C 1.07189 1.04309 0.18544 0.0
C424 C 1.08016 0.07444 0.21268 0.0
C425 C 1.09077 0.07222 0.25693 0.0
C426 C 0.10254 0.10335 0.28274 0.0
C427 C 0.10075 0.13623 0.26587 0.0
C428 C 1.08753 0.13894 0.22309 0.0
C429 C 1.07733 0.10854 0.19669 0.0
H430 H 1.08305 1.00968 0.83186 0.0
C431 C 0.11079 1.02955 0.84733 0.0
H432 H 0.16562 0.06899 0.83841 0.0
H433 H 0.26621 1.01103 0.6536 0.0
H434 H 0.39441 0.9941 0.69221 0.0
H435 H 0.40324 0.99954 0.76924 0.0
H436 H 0.28392 1.02218 0.80826 0.0
C437 C 0.13628 0.04962 0.82344 0.0
C438 C 0.12976 0.04471 0.77618 0.0
C439 C 0.19996 1.03094 0.75342 0.0
C440 C 0.19487 1.02711 0.7087 0.0
C441 C 0.26636 1.01392 0.68734 0.0
C442 C 0.34046 1.00419 0.70913 0.0
C443 C 0.34543 1.00731 0.7525 0.0
C444 C 0.27633 1.02047 0.77453 0.0
H445 H 1.05557 0.09066 0.63177 0.0
C446 C 1.08208 0.06214 0.61567 0.0
H447 H 0.14448 1.00342 0.62345 0.0
H448 H 0.98237 0.07674 0.80845 0.0
H449 H 0.8545 0.09094 0.76995 0.0
H450 H 0.8462 0.07879 0.69319 0.0
H451 H 0.96571 0.05324 0.65433 0.0
C452 C 0.11538 1.03195 0.63891 0.0
C453 C 0.11954 1.03673 0.68618 0.0
C454 C 1.04924 0.04994 0.70892 0.0
C455 C 1.05424 0.05489 0.75367 0.0
C456 C 0.98258 0.07061 0.77488 0.0
C457 C 0.90858 0.07919 0.75311 0.0
C458 C 0.90389 0.07251 0.70987 0.0
C459 C 0.97309 0.05807 0.6879 0.0
H460 H 0.65079 0.51696 0.33852 0.0
C461 C 0.59819 0.53927 0.35115 0.0
H462 H 0.49076 0.58414 0.33712 0.0
H463 H 0.56236 0.62185 0.1647 0.0
H464 H 0.55186 0.68037 0.20896 0.0
H465 H 0.54332 0.68347 0.28513 0.0
H466 H 0.54428 0.62826 0.31754 0.0
C467 C 0.54272 0.56132 0.32456 0.0
C468 C 0.5525 0.55801 0.27815 0.0
C469 C 0.55334 0.59032 0.25941 0.0
C470 C 0.56056 0.58818 0.21538 0.0
C471 C 0.55904 0.62142 0.1979 0.0
C472 C 0.55269 0.65533 0.22293 0.0
C473 C 0.54768 0.65711 0.26581 0.0
C474 C 0.54799 0.62515 0.28398 0.0
H475 H 0.48251 0.53734 0.11992 0.0
C476 C 0.53389 0.54355 0.11242 0.0
H477 H 0.63372 0.5578 0.13635 0.0
H478 H 0.54046 0.49239 0.30142 0.0
H479 H 0.55871 0.43269 0.25798 0.0
H480 H 0.58641 0.42668 0.18365 0.0
H481 H 0.59367 0.48066 0.15199 0.0
C482 C 0.58302 0.55105 0.14391 0.0
C483 C 0.5688 0.55343 0.18968 0.0
C484 C 0.56899 0.52089 0.20849 0.0
C485 C 0.55824 0.52358 0.25229 0.0
C486 C 0.55276 0.49144 0.26912 0.0
C487 C 0.56247 0.45703 0.24442 0.0
C488 C 0.57767 0.45371 0.20252 0.0
C489 C 0.58104 0.48511 0.18463 0.0
H490 H 0.52007 0.58755 0.63201 0.0
C491 C 0.56335 0.5612 0.61828 0.0
H492 H 0.6478 0.50662 0.62981 0.0
H493 H 0.61767 0.59902 0.82154 0.0
H494 H 0.67487 0.6403 0.7943 0.0
H495 H 0.69851 0.63407 0.71937 0.0
H496 H 0.66382 0.58697 0.67101 0.0
C497 C 0.60642 0.53363 0.64339 0.0
C498 C 0.59458 0.53712 0.68947 0.0
C499 C 0.61741 0.56402 0.7178 0.0
C500 C 0.60666 0.56658 0.76154 0.0
C501 C 0.62684 0.59491 0.78845 0.0
C502 C 0.65941 0.61895 0.77318 0.0
C503 C 0.67251 0.61552 0.73096 0.0
C504 C 0.65192 0.58846 0.70348 0.0
H505 H 0.6807 0.52551 0.84484 0.0
C506 C 0.61912 0.53525 0.85336 0.0
H507 H 0.49847 0.5533 0.83112 0.0
H508 H 0.54546 0.48195 0.64476 0.0
H509 H 0.49267 0.4391 0.67231 0.0
H510 H 0.47744 0.44235 0.74791 0.0
H511 H 0.51495 0.48846 0.79653 0.0
C512 C 0.56006 0.54487 0.82305 0.0
C513 C 0.57533 0.54142 0.77741 0.0
C514 C 0.55365 0.51417 0.74912 0.0
C515 C 0.56331 0.512 0.70537 0.0
C516 C 0.54036 0.48462 0.6782 0.0
C517 C 0.50974 0.45987 0.69358 0.0
C518 C 0.50107 0.46174 0.73614 0.0
C519 C 0.52265 0.48846 0.76371 0.0
loop_
_geom_bond_atom_site_label_1
_geom_bond_atom_site_label_2
_geom_bond_distance
_geom_bond_site_symmetry_2
_ccdc_geom_bond_type
Eu0 C9 2.828 . S
Eu0 O11 2.392 1_655 S
Eu0 O13 2.418 . S
Eu0 O18 2.373 1_565 S
Eu0 O21 2.488 . S
Eu0 O22 2.471 1_556 S
Eu0 O23 2.349 1_556 S
Eu1 O10 2.373 1_545 S
Eu1 O14 2.488 . S
Eu1 O15 2.471 1_554 S
Eu1 O16 2.349 1_554 S
Eu1 O19 2.392 1_455 S
Eu1 O20 2.418 . S
Eu1 C30 2.828 . S
C2 O20 1.244 . S
C2 O23 1.265 1_445 S
C3 C4 1.379 1_556 S
C3 C7 1.378 . S
C3 C9 1.505 1_545 S
C4 C3 1.379 1_554 S
C4 C6 1.369 . S
C4 H32 0.930 . S
C5 C7 1.384 . S
C5 C8 1.382 1_556 S
C5 H33 0.930 . S
C6 C4 1.369 . S
C6 C8 1.392 . S
C6 H34 0.930 . S
C7 C3 1.378 . S
C7 C5 1.384 . S
C7 H35 0.925 1_545 S
C8 C5 1.382 1_554 S
C8 C6 1.392 . S
C9 Eu0 2.828 . S
C9 C3 1.505 1_565 S
C9 O21 1.249 . S
C9 O22 1.244 1_556 S
O10 Eu1 2.373 1_565 S
O10 C12 1.258 . S
O11 Eu0 2.392 1_455 S
O11 C12 1.241 1_556 S
C12 O10 1.258 . S
C12 O11 1.241 1_554 S
O13 Eu0 2.418 . S
O13 C17 1.244 . S
O14 Eu1 2.488 . S
O14 C30 1.249 . S
O15 Eu1 2.471 1_556 S
O15 C30 1.244 1_556 S
O16 Eu1 2.349 1_556 S
O16 C17 1.265 1_445 S
C17 O13 1.244 . S
C17 O16 1.265 1_665 S
O18 Eu0 2.373 1_545 S
O18 C31 1.258 1_556 S
O19 Eu1 2.392 1_655 S
O19 C31 1.242 . S
O20 Eu1 2.418 . S
O20 C2 1.244 . S
O21 Eu0 2.488 . S
O21 C9 1.249 . S
O22 Eu0 2.471 1_554 S
O22 C9 1.244 1_554 S
O23 Eu0 2.349 1_554 S
O23 C2 1.265 1_665 S
C24 C25 1.379 1_554 S
C24 C28 1.376 . S
C24 C30 1.505 1_565 S
C25 C24 1.379 1_556 S
C25 C27 1.369 . S
C25 H36 0.930 . S
C26 C28 1.384 . S
C26 C29 1.382 1_554 S
C26 H37 0.930 . S
C27 C25 1.369 . S
C27 C29 1.392 . S
C27 H38 0.930 . S
C28 C24 1.376 . S
C28 C26 1.384 . S
C28 H39 0.928 1_565 S
C29 C26 1.382 1_556 S
C29 C27 1.392 . S
C30 Eu1 2.828 . S
C30 O14 1.249 . S
C30 O15 1.244 1_554 S
C30 C24 1.505 1_545 S
C31 O18 1.258 1_554 S
C31 O19 1.242 . S
H32 C4 0.930 . S
H33 C5 0.930 . S
H34 C6 0.930 . S
H35 C7 0.925 1_565 S
H36 C25 0.930 . S
H37 C26 0.930 . S
H38 C27 0.930 . S
H39 C28 0.928 1_545 S
Eu40 C49 2.828 1_455 S
Eu40 O51 2.392 . S
Eu40 O53 2.417 1_455 S
Eu40 O58 2.373 1_455 S
Eu40 O61 2.488 1_455 S
Eu40 O62 2.471 1_455 S
Eu40 O63 2.349 . S
Eu41 O50 2.373 1_655 S
Eu41 O54 2.488 1_655 S
Eu41 O55 2.471 1_655 S
Eu41 O56 2.349 . S
Eu41 O59 2.392 . S
Eu41 O60 2.418 1_655 S
Eu41 C70 2.828 1_655 S
C42 O60 1.244 . S
C42 O63 1.265 1_545 S
C43 C44 1.379 . S
C43 C47 1.373 . S
C43 C49 1.505 . S
C44 C43 1.379 . S
C44 C46 1.369 . S
C44 H72 0.930 . S
C45 C47 1.383 . S
C45 C48 1.382 . S
C45 H73 0.930 . S
C46 C44 1.369 . S
C46 C48 1.392 . S
C46 H74 0.930 . S
C47 C43 1.373 . S
C47 C45 1.383 . S
C47 H75 0.931 . S
C48 C45 1.382 . S
C48 C46 1.392 . S
C49 Eu40 2.828 1_655 S
C49 C43 1.505 . S
C49 O61 1.249 . S
C49 O62 1.244 . S
O50 Eu41 2.373 1_455 S
O50 C52 1.258 1_545 S
O51 Eu40 2.392 . S
O51 C52 1.242 . S
C52 O50 1.258 1_565 S
C52 O51 1.242 . S
O53 Eu40 2.417 1_655 S
O53 C57 1.240 . S
O54 Eu41 2.488 1_455 S
O54 C70 1.249 . S
O55 Eu41 2.471 1_455 S
O55 C70 1.244 . S
O56 Eu41 2.349 . S
O56 C57 1.265 1_545 S
C57 O53 1.240 . S
C57 O56 1.265 1_565 S
O58 Eu40 2.373 1_655 S
O58 C71 1.258 1_565 S
O59 Eu41 2.392 . S
O59 C71 1.242 . S
O60 Eu41 2.418 1_455 S
O60 C42 1.244 . S
O61 Eu40 2.488 1_655 S
O61 C49 1.249 . S
O62 Eu40 2.471 1_655 S
O62 C49 1.244 . S
O63 Eu40 2.349 . S
O63 C42 1.265 1_565 S
C64 C65 1.379 . S
C64 C68 1.373 . S
C64 C70 1.505 . S
C65 C64 1.379 . S
C65 C67 1.369 . S
C65 H76 0.930 . S
C66 C68 1.383 . S
C66 C69 1.382 . S
C66 H77 0.930 . S
C67 C65 1.369 . S
C67 C69 1.392 . S
C67 H78 0.930 . S
C68 C64 1.373 . S
C68 C66 1.383 . S
C68 H79 0.931 . S
C69 C66 1.382 . S
C69 C67 1.392 . S
C70 Eu41 2.828 1_455 S
C70 O54 1.249 . S
C70 O55 1.244 . S
C70 C64 1.505 . S
C71 O58 1.258 1_545 S
C71 O59 1.242 . S
H72 C44 0.930 . S
H73 C45 0.930 . S
H74 C46 0.930 . S
H75 C47 0.931 . S
H76 C65 0.930 . S
H77 C66 0.930 . S
H78 C67 0.930 . S
H79 C68 0.931 . S
Eu80 C89 2.828 . S
Eu80 O91 2.392 . S
Eu80 O93 2.418 . S
Eu80 O98 2.373 . S
Eu80 O101 2.488 . S
Eu80 O102 2.471 1_556 S
Eu80 O103 2.349 1_556 S
Eu81 O90 2.373 . S
Eu81 O94 2.488 . S
Eu81 O95 2.471 1_554 S
Eu81 O96 2.349 1_554 S
Eu81 O99 2.392 . S
Eu81 O100 2.418 . S
Eu81 C110 2.828 . S
C82 O100 1.244 . S
C82 O103 1.265 . S
C83 C84 1.379 1_556 S
C83 C87 1.373 . S
C83 C89 1.505 . S
C84 C83 1.379 1_554 S
C84 C86 1.369 . S
C84 H112 0.930 . S
C85 C87 1.383 . S
C85 C88 1.382 1_556 S
C85 H113 0.930 . S
C86 C84 1.369 . S
C86 C88 1.392 . S
C86 H114 0.930 . S
C87 C83 1.373 . S
C87 C85 1.383 . S
C87 H115 0.931 . S
C88 C85 1.382 1_554 S
C88 C86 1.392 . S
C89 Eu80 2.828 . S
C89 C83 1.505 . S
C89 O101 1.249 . S
C89 O102 1.244 1_556 S
O90 Eu81 2.373 . S
O90 C92 1.258 . S
O91 Eu80 2.392 . S
O91 C92 1.241 1_556 S
C92 O90 1.258 . S
C92 O91 1.241 1_554 S
O93 Eu80 2.418 . S
O93 C97 1.244 . S
O94 Eu81 2.488 . S
O94 C110 1.249 . S
O95 Eu81 2.471 1_556 S
O95 C110 1.244 1_556 S
O96 Eu81 2.349 1_556 S
O96 C97 1.265 . S
C97 O93 1.244 . S
C97 O96 1.265 . S
O98 Eu80 2.373 . S
O98 C111 1.258 1_556 S
O99 Eu81 2.392 . S
O99 C111 1.242 . S
O100 Eu81 2.418 . S
O100 C82 1.244 . S
O101 Eu80 2.488 . S
O101 C89 1.249 . S
O102 Eu80 2.471 1_554 S
O102 C89 1.244 1_554 S
O103 Eu80 2.349 1_554 S
O103 C82 1.265 . S
C104 C105 1.379 1_554 S
C104 C108 1.373 . S
C104 C110 1.505 . S
C105 C104 1.379 1_556 S
C105 C107 1.369 . S
C105 H116 0.930 . S
C106 C108 1.383 . S
C106 C109 1.382 1_554 S
C106 H117 0.930 . S
C107 C105 1.369 . S
C107 C109 1.392 . S
C107 H118 0.930 . S
C108 C104 1.373 . S
C108 C106 1.383 . S
C108 H119 0.931 . S
C109 C106 1.382 1_556 S
C109 C107 1.392 . S
C110 Eu81 2.828 . S
C110 O94 1.249 . S
C110 O95 1.244 1_554 S
C110 C104 1.505 . S
C111 O98 1.258 1_554 S
C111 O99 1.242 . S
H112 C84 0.930 . S
H113 C85 0.930 . S
H114 C86 0.930 . S
H115 C87 0.931 . S
H116 C105 0.930 . S
H117 C106 0.930 . S
H118 C107 0.930 . S
H119 C108 0.931 . S
Eu120 C129 2.828 . S
Eu120 O131 2.392 . S
Eu120 O133 2.418 . S
Eu120 O138 2.373 . S
Eu120 O141 2.488 . S
Eu120 O142 2.471 . S
Eu120 O143 2.349 . S
Eu121 O130 2.373 . S
Eu121 O134 2.488 . S
Eu121 O135 2.471 . S
Eu121 O136 2.349 . S
Eu121 O139 2.392 . S
Eu121 O140 2.418 . S
Eu121 C150 2.828 . S
C122 O140 1.244 . S
C122 O143 1.265 . S
C123 C124 1.379 . S
C123 C127 1.373 . S
C123 C129 1.505 . S
C124 C123 1.379 . S
C124 C126 1.369 . S
C124 H152 0.930 . S
C125 C127 1.383 . S
C125 C128 1.382 . S
C125 H153 0.930 . S
C126 C124 1.369 . S
C126 C128 1.392 . S
C126 H154 0.930 . S
C127 C123 1.373 . S
C127 C125 1.383 . S
C127 H155 0.931 . S
C128 C125 1.382 . S
C128 C126 1.392 . S
C129 Eu120 2.828 . S
C129 C123 1.505 . S
C129 O141 1.249 . S
C129 O142 1.244 . S
O130 Eu121 2.373 . S
O130 C132 1.258 . S
O131 Eu120 2.392 . S
O131 C132 1.242 . S
C132 O130 1.258 . S
C132 O131 1.242 . S
O133 Eu120 2.418 . S
O133 C137 1.244 . S
O134 Eu121 2.488 . S
O134 C150 1.249 . S
O135 Eu121 2.471 . S
O135 C150 1.244 . S
O136 Eu121 2.349 . S
O136 C137 1.265 . S
C137 O133 1.244 . S
C137 O136 1.265 . S
O138 Eu120 2.373 . S
O138 C151 1.258 . S
O139 Eu121 2.392 . S
O139 C151 1.242 . S
O140 Eu121 2.418 . S
O140 C122 1.244 . S
O141 Eu120 2.488 . S
O141 C129 1.249 . S
O142 Eu120 2.471 . S
O142 C129 1.244 . S
O143 Eu120 2.349 . S
O143 C122 1.265 . S
C144 C145 1.379 . S
C144 C148 1.373 . S
C144 C150 1.505 . S
C145 C144 1.379 . S
C145 C147 1.369 . S
C145 H156 0.930 . S
C146 C148 1.383 . S
C146 C149 1.382 . S
C146 H157 0.930 . S
C147 C145 1.369 . S
C147 C149 1.392 . S
C147 H158 0.930 . S
C148 C144 1.373 . S
C148 C146 1.383 . S
C148 H159 0.931 . S
C149 C146 1.382 . S
C149 C147 1.392 . S
C150 Eu121 2.828 . S
C150 O134 1.249 . S
C150 O135 1.244 . S
C150 C144 1.505 . S
C151 O138 1.258 . S
C151 O139 1.242 . S
H152 C124 0.930 . S
H153 C125 0.930 . S
H154 C126 0.930 . S
H155 C127 0.931 . S
H156 C145 0.930 . S
H157 C146 0.930 . S
H158 C147 0.930 . S
H159 C148 0.931 . S
H160 C161 0.951 . S
C161 H160 0.951 . S
C161 C167 1.264 1_554 S
H162 C167 0.950 . S
H163 C171 0.949 . S
H164 C172 0.950 . S
H165 C173 0.951 . S
H166 C174 0.951 . S
C167 C161 1.264 1_556 S
C167 H162 0.950 . S
C167 C168 1.478 . S
C168 C167 1.478 . S
C168 C169 1.414 . S
C168 C185 1.377 1_556 S
C169 C168 1.414 . S
C169 C170 1.438 . S
C169 C174 1.429 . S
C170 C169 1.438 . S
C170 C171 1.428 . S
C170 C183 1.372 1_556 S
C171 H163 0.949 . S
C171 C170 1.428 . S
C171 C172 1.345 . S
C172 H164 0.950 . S
C172 C171 1.345 . S
C172 C173 1.424 . S
C173 H165 0.951 . S
C173 C172 1.424 . S
C173 C174 1.347 . S
C174 H166 0.951 . S
C174 C169 1.429 . S
C174 C173 1.347 . S
H175 C176 0.951 1_556 S
C176 H175 0.951 1_554 S
C176 C182 1.264 . S
H177 C182 0.950 . S
H178 C186 0.949 . S
H179 C187 0.950 . S
H180 C188 0.951 . S
H181 C189 0.951 . S
C182 C176 1.264 . S
C182 H177 0.950 . S
C182 C183 1.478 . S
C183 C170 1.372 1_554 S
C183 C182 1.478 . S
C183 C184 1.419 . S
C184 C183 1.419 . S
C184 C185 1.438 . S
C184 C189 1.429 . S
C185 C168 1.377 1_554 S
C185 C184 1.438 . S
C185 C186 1.428 . S
C186 H178 0.949 . S
C186 C185 1.428 . S
C186 C187 1.345 . S
C187 H179 0.950 . S
C187 C186 1.345 . S
C187 C188 1.424 . S
C188 H180 0.951 . S
C188 C187 1.424 . S
C188 C189 1.347 . S
C189 H181 0.951 . S
C189 C184 1.429 . S
C189 C188 1.347 . S
H190 C191 0.951 . S
C191 H190 0.951 . S
C191 C197 1.265 1_556 S
H192 C197 0.950 . S
H193 C201 0.949 . S
H194 C202 0.950 . S
H195 C203 0.951 . S
H196 C204 0.951 . S
C197 C191 1.265 1_554 S
C197 H192 0.950 . S
C197 C198 1.478 . S
C198 C197 1.478 . S
C198 C199 1.397 . S
C198 C215 1.394 1_554 S
C199 C198 1.397 . S
C199 C200 1.438 . S
C199 C204 1.429 . S
C200 C199 1.438 . S
C200 C201 1.428 . S
C200 C213 1.394 1_554 S
C201 H193 0.949 . S
C201 C200 1.428 . S
C201 C202 1.345 . S
C202 H194 0.950 . S
C202 C201 1.345 . S
C202 C203 1.424 . S
C203 H195 0.951 . S
C203 C202 1.424 . S
C203 C204 1.347 . S
C204 H196 0.951 . S
C204 C199 1.429 . S
C204 C203 1.347 . S
H205 C206 0.951 . S
C206 H205 0.951 . S
C206 C212 1.265 1_554 S
H207 C212 0.950 . S
H208 C216 0.949 . S
H209 C217 0.950 . S
H210 C218 0.951 . S
H211 C219 0.951 . S
C212 C206 1.265 1_556 S
C212 H207 0.950 . S
C212 C213 1.478 . S
C213 C200 1.394 1_556 S
C213 C212 1.478 . S
C213 C214 1.397 . S
C214 C213 1.397 . S
C214 C215 1.438 . S
C214 C219 1.429 . S
C215 C198 1.394 1_556 S
C215 C214 1.438 . S
C215 C216 1.428 . S
C216 H208 0.949 . S
C216 C215 1.428 . S
C216 C217 1.345 . S
C217 H209 0.950 . S
C217 C216 1.345 . S
C217 C218 1.424 . S
C218 H210 0.951 . S
C218 C217 1.424 . S
C218 C219 1.347 . S
C219 H211 0.951 . S
C219 C214 1.429 . S
C219 C218 1.347 . S
H220 C221 0.951 . S
C221 H220 0.951 . S
C221 C227 1.265 . S
H222 C227 0.950 . S
H223 C231 0.949 . S
H224 C232 0.950 . S
H225 C233 0.951 . S
H226 C234 0.951 . S
C227 C221 1.265 . S
C227 H222 0.950 . S
C227 C228 1.478 . S
C228 C227 1.478 . S
C228 C229 1.397 . S
C228 C245 1.394 . S
C229 C228 1.397 . S
C229 C230 1.438 . S
C229 C234 1.429 . S
C230 C229 1.438 . S
C230 C231 1.428 . S
C230 C243 1.394 . S
C231 H223 0.949 . S
C231 C230 1.428 . S
C231 C232 1.345 . S
C232 H224 0.950 . S
C232 C231 1.345 . S
C232 C233 1.424 . S
C233 H225 0.951 . S
C233 C232 1.424 . S
C233 C234 1.347 . S
C234 H226 0.951 . S
C234 C229 1.429 . S
C234 C233 1.347 . S
H235 C236 0.951 . S
C236 H235 0.951 . S
C236 C242 1.265 . S
H237 C242 0.950 . S
H238 C246 0.949 . S
H239 C247 0.950 . S
H240 C248 0.951 . S
H241 C249 0.951 . S
C242 C236 1.265 . S
C242 H237 0.950 . S
C242 C243 1.478 . S
C243 C230 1.394 . S
C243 C242 1.478 . S
C243 C244 1.397 . S
C244 C243 1.397 . S
C244 C245 1.438 . S
C244 C249 1.429 . S
C245 C228 1.394 . S
C245 C244 1.438 . S
C245 C246 1.428 . S
C246 H238 0.949 . S
C246 C245 1.428 . S
C246 C247 1.345 . S
C247 H239 0.950 . S
C247 C246 1.345 . S
C247 C248 1.424 . S
C248 H240 0.951 . S
C248 C247 1.424 . S
C248 C249 1.347 . S
C249 H241 0.951 . S
C249 C244 1.429 . S
C249 C248 1.347 . S
H250 C251 0.951 . S
C251 H250 0.951 . S
C251 C257 1.265 . S
H252 C257 0.950 . S
H253 C261 0.949 . S
H254 C262 0.950 . S
H255 C263 0.951 . S
H256 C264 0.951 . S
C257 C251 1.265 . S
C257 H252 0.950 . S
C257 C258 1.478 . S
C258 C257 1.478 . S
C258 C259 1.397 . S
C258 C275 1.394 . S
C259 C258 1.397 . S
C259 C260 1.438 . S
C259 C264 1.429 . S
C260 C259 1.438 . S
C260 C261 1.428 . S
C260 C273 1.394 . S
C261 H253 0.949 . S
C261 C260 1.428 . S
C261 C262 1.345 . S
C262 H254 0.950 . S
C262 C261 1.345 . S
C262 C263 1.424 . S
C263 H255 0.951 . S
C263 C262 1.424 . S
C263 C264 1.347 . S
C264 H256 0.951 . S
C264 C259 1.429 . S
C264 C263 1.347 . S
H265 C266 0.951 . S
C266 H265 0.951 . S
C266 C272 1.265 . S
H267 C272 0.950 . S
H268 C276 0.949 . S
H269 C277 0.950 . S
H270 C278 0.951 . S
H271 C279 0.951 . S
C272 C266 1.265 . S
C272 H267 0.950 . S
C272 C273 1.478 . S
C273 C260 1.394 . S
C273 C272 1.478 . S
C273 C274 1.397 . S
C274 C273 1.397 . S
C274 C275 1.438 . S
C274 C279 1.429 . S
C275 C258 1.394 . S
C275 C274 1.438 . S
C275 C276 1.428 . S
C276 H268 0.949 . S
C276 C275 1.428 . S
C276 C277 1.345 . S
C277 H269 0.950 . S
C277 C276 1.345 . S
C277 C278 1.424 . S
C278 H270 0.951 . S
C278 C277 1.424 . S
C278 C279 1.347 . S
C279 H271 0.951 . S
C279 C274 1.429 . S
C279 C278 1.347 . S
H280 C281 0.951 . S
C281 H280 0.951 . S
C281 C287 1.265 . S
H282 C287 0.950 1_554 S
H283 C291 0.949 . S
H284 C292 0.950 . S
H285 C293 0.951 . S
H286 C294 0.951 . S
C287 C281 1.265 . S
C287 H282 0.950 1_556 S
C287 C288 1.478 . S
C288 C287 1.478 . S
C288 C289 1.409 1_556 S
C288 C305 1.394 . S
C289 C288 1.409 1_554 S
C289 C290 1.418 1_565 S
C289 C294 1.437 . S
C290 C289 1.418 1_545 S
C290 C291 1.428 . S
C290 C303 1.394 . S
C291 H283 0.949 . S
C291 C290 1.428 . S
C291 C292 1.345 . S
C292 H284 0.950 . S
C292 C291 1.345 . S
C292 C293 1.424 . S
C293 H285 0.951 . S
C293 C292 1.424 . S
C293 C294 1.347 1_545 S
C294 H286 0.951 . S
C294 C289 1.437 . S
C294 C293 1.347 1_565 S
H295 C296 0.951 . S
C296 H295 0.951 . S
C296 C302 1.265 . S
H297 C302 0.950 1_556 S
H298 C306 0.949 . S
H299 C307 0.950 . S
H300 C308 0.951 . S
H301 C309 0.951 . S
C302 C296 1.265 . S
C302 H297 0.950 1_554 S
C302 C303 1.478 . S
C303 C290 1.394 . S
C303 C302 1.478 . S
C303 C304 1.397 1_554 S
C304 C303 1.397 1_556 S
C304 C305 1.438 1_545 S
C304 C309 1.429 . S
C305 C288 1.394 . S
C305 C304 1.438 1_565 S
C305 C306 1.428 . S
C306 H298 0.949 . S
C306 C305 1.428 . S
C306 C307 1.345 . S
C307 H299 0.950 . S
C307 C306 1.345 . S
C307 C308 1.424 . S
C308 H300 0.951 . S
C308 C307 1.424 . S
C308 C309 1.347 1_565 S
C309 H301 0.951 . S
C309 C304 1.429 . S
C309 C308 1.347 1_545 S
H310 C311 0.968 . S
C311 H310 0.968 . S
C311 C317 1.260 1_545 S
H312 C317 0.950 . S
H313 C321 0.949 . S
H314 C322 0.950 . S
H315 C323 0.951 . S
H316 C324 0.951 . S
C317 C311 1.260 1_565 S
C317 H312 0.950 . S
C317 C318 1.478 . S
C318 C317 1.478 . S
C318 C319 1.397 . S
C318 C335 1.394 1_565 S
C319 C318 1.397 . S
C319 C320 1.438 . S
C319 C324 1.429 . S
C320 C319 1.438 . S
C320 C321 1.428 . S
C320 C333 1.394 1_565 S
C321 H313 0.949 . S
C321 C320 1.428 . S
C321 C322 1.345 . S
C322 H314 0.950 . S
C322 C321 1.345 . S
C322 C323 1.424 . S
C323 H315 0.951 . S
C323 C322 1.424 . S
C323 C324 1.347 . S
C324 H316 0.951 . S
C324 C319 1.429 . S
C324 C323 1.347 . S
H325 C326 0.961 . S
C326 H325 0.961 . S
C326 C332 1.262 1_565 S
H327 C332 0.950 . S
H328 C336 0.949 . S
H329 C337 0.950 . S
H330 C338 0.951 . S
H331 C339 0.951 . S
C332 C326 1.262 1_545 S
C332 H327 0.950 . S
C332 C333 1.478 . S
C333 C320 1.394 1_545 S
C333 C332 1.478 . S
C333 C334 1.397 . S
C334 C333 1.397 . S
C334 C335 1.438 . S
C334 C339 1.429 . S
C335 C318 1.394 1_545 S
C335 C334 1.438 . S
C335 C336 1.428 . S
C336 H328 0.949 . S
C336 C335 1.428 . S
C336 C337 1.345 . S
C337 H329 0.950 . S
C337 C336 1.345 . S
C337 C338 1.424 . S
C338 H330 0.951 . S
C338 C337 1.424 . S
C338 C339 1.347 . S
C339 H331 0.951 . S
C339 C334 1.429 . S
C339 C338 1.347 . S
H340 C341 0.951 . S
C341 H340 0.951 . S
C341 C347 1.265 . S
H342 C347 0.950 . S
H343 C351 0.949 . S
H344 C352 0.950 1_455 S
H345 C353 0.951 . S
H346 C354 0.951 . S
C347 C341 1.265 . S
C347 H342 0.950 . S
C347 C348 1.478 . S
C348 C347 1.478 . S
C348 C349 1.397 1_556 S
C348 C365 1.394 . S
C349 C348 1.397 1_554 S
C349 C350 1.438 1_655 S
C349 C354 1.429 . S
C350 C349 1.438 1_455 S
C350 C351 1.428 . S
C350 C363 1.394 . S
C351 H343 0.949 . S
C351 C350 1.428 . S
C351 C352 1.345 1_455 S
C352 H344 0.950 1_655 S
C352 C351 1.345 1_655 S
C352 C353 1.424 . S
C353 H345 0.951 . S
C353 C352 1.424 . S
C353 C354 1.347 . S
C354 H346 0.951 . S
C354 C349 1.429 . S
C354 C353 1.347 . S
H355 C356 0.951 . S
C356 H355 0.951 . S
C356 C362 1.265 . S
H357 C362 0.950 . S
H358 C366 0.949 . S
H359 C367 0.950 1_655 S
H360 C368 0.951 . S
H361 C369 0.951 . S
C362 C356 1.265 . S
C362 H357 0.950 . S
C362 C363 1.478 . S
C363 C350 1.394 . S
C363 C362 1.478 . S
C363 C364 1.397 1_554 S
C364 C363 1.397 1_556 S
C364 C365 1.438 1_455 S
C364 C369 1.429 . S
C365 C348 1.394 . S
C365 C364 1.438 1_655 S
C365 C366 1.428 . S
C366 H358 0.949 . S
C366 C365 1.428 . S
C366 C367 1.345 1_655 S
C367 H359 0.950 1_455 S
C367 C366 1.345 1_455 S
C367 C368 1.424 . S
C368 H360 0.951 . S
C368 C367 1.424 . S
C368 C369 1.347 . S
C369 H361 0.951 . S
C369 C364 1.429 . S
C369 C368 1.347 . S
H370 C371 0.951 . S
C371 H370 0.951 . S
C371 C377 1.265 . S
H372 C377 0.950 . S
H373 C381 0.949 . S
H374 C382 0.950 . S
H375 C383 0.951 . S
H376 C384 0.951 . S
C377 C371 1.265 . S
C377 H372 0.950 . S
C377 C378 1.478 . S
C378 C377 1.478 . S
C378 C379 1.397 . S
C378 C395 1.394 . S
C379 C378 1.397 . S
C379 C380 1.438 1_455 S
C379 C384 1.429 . S
C380 C379 1.438 1_655 S
C380 C381 1.428 . S
C380 C393 1.394 . S
C381 H373 0.949 . S
C381 C380 1.428 . S
C381 C382 1.345 . S
C382 H374 0.950 . S
C382 C381 1.345 . S
C382 C383 1.424 1_655 S
C383 H375 0.951 . S
C383 C382 1.424 1_455 S
C383 C384 1.347 . S
C384 H376 0.951 . S
C384 C379 1.429 . S
C384 C383 1.347 . S
H385 C386 0.951 . S
C386 H385 0.951 . S
C386 C392 1.265 . S
H387 C392 0.950 . S
H388 C396 0.949 . S
H389 C397 0.950 . S
H390 C398 0.951 . S
H391 C399 0.951 . S
C392 C386 1.265 . S
C392 H387 0.950 . S
C392 C393 1.478 . S
C393 C380 1.394 . S
C393 C392 1.478 . S
C393 C394 1.397 . S
C394 C393 1.397 . S
C394 C395 1.438 1_655 S
C394 C399 1.429 . S
C395 C378 1.394 . S
C395 C394 1.438 1_455 S
C395 C396 1.428 . S
C396 H388 0.949 . S
C396 C395 1.428 . S
C396 C397 1.345 . S
C397 H389 0.950 . S
C397 C396 1.345 . S
C397 C398 1.424 1_455 S
C398 H390 0.951 . S
C398 C397 1.424 1_655 S
C398 C399 1.347 . S
C399 H391 0.951 . S
C399 C394 1.429 . S
C399 C398 1.347 . S
H400 C401 0.951 . S
C401 H400 0.951 . S
C401 C407 1.265 1_645 S
H402 C407 0.950 . S
H403 C411 0.949 . S
H404 C412 0.950 . S
H405 C413 0.951 . S
H406 C414 0.951 . S
C407 C401 1.265 1_465 S
C407 H402 0.950 . S
C407 C408 1.482 . S
C408 C407 1.482 . S
C408 C409 1.418 . S
C408 C425 1.370 1_465 S
C409 C408 1.418 . S
C409 C410 1.438 . S
C409 C414 1.429 . S
C410 C409 1.438 . S
C410 C411 1.428 . S
C410 C423 1.394 1_465 S
C411 H403 0.949 . S
C411 C410 1.428 . S
C411 C412 1.345 . S
C412 H404 0.950 . S
C412 C411 1.345 . S
C412 C413 1.424 . S
C413 H405 0.951 . S
C413 C412 1.424 . S
C413 C414 1.347 . S
C414 H406 0.951 . S
C414 C409 1.429 . S
C414 C413 1.347 . S
H415 C416 0.952 . S
C416 H415 0.952 . S
C416 C422 1.266 1_465 S
H417 C422 0.950 . S
H418 C426 0.949 . S
H419 C427 0.950 . S
H420 C428 0.951 . S
H421 C429 0.951 . S
C422 C416 1.266 1_645 S
C422 H417 0.950 . S
C422 C423 1.478 . S
C423 C410 1.394 1_645 S
C423 C422 1.478 . S
C423 C424 1.397 . S
C424 C423 1.397 . S
C424 C425 1.438 . S
C424 C429 1.429 . S
C425 C408 1.370 1_645 S
C425 C424 1.438 . S
C425 C426 1.428 . S
C426 H418 0.949 . S
C426 C425 1.428 . S
C426 C427 1.345 . S
C427 H419 0.950 . S
C427 C426 1.345 . S
C427 C428 1.424 . S
C428 H420 0.951 . S
C428 C427 1.424 . S
C428 C429 1.347 . S
C429 H421 0.951 . S
C429 C424 1.429 . S
C429 C428 1.347 . S
H430 C431 0.953 . S
C431 H430 0.953 . S
C431 C437 1.267 1_645 S
H432 C437 0.950 . S
H433 C441 0.949 . S
H434 C442 0.950 . S
H435 C443 0.951 . S
H436 C444 0.951 . S
C437 C431 1.267 1_465 S
C437 H432 0.950 . S
C437 C438 1.478 . S
C438 C437 1.478 . S
C438 C439 1.397 . S
C438 C455 1.394 1_465 S
C439 C438 1.397 . S
C439 C440 1.438 . S
C439 C444 1.429 . S
C440 C439 1.438 . S
C440 C441 1.428 . S
C440 C453 1.394 1_465 S
C441 H433 0.949 . S
C441 C440 1.428 . S
C441 C442 1.345 . S
C442 H434 0.950 . S
C442 C441 1.345 . S
C442 C443 1.424 . S
C443 H435 0.951 . S
C443 C442 1.424 . S
C443 C444 1.347 . S
C444 H436 0.951 . S
C444 C439 1.429 . S
C444 C443 1.347 . S
H445 C446 0.951 . S
C446 H445 0.951 . S
C446 C452 1.265 1_465 S
H447 C452 0.950 . S
H448 C456 0.949 . S
H449 C457 0.950 . S
H450 C458 0.951 . S
H451 C459 0.951 . S
C452 C446 1.265 1_645 S
C452 H447 0.950 . S
C452 C453 1.478 . S
C453 C440 1.394 1_645 S
C453 C452 1.478 . S
C453 C454 1.397 . S
C454 C453 1.397 . S
C454 C455 1.438 . S
C454 C459 1.429 . S
C455 C438 1.394 1_645 S
C455 C454 1.438 . S
C455 C456 1.428 . S
C456 H448 0.949 . S
C456 C455 1.428 . S
C456 C457 1.345 . S
C457 H449 0.950 . S
C457 C456 1.345 . S
C457 C458 1.424 . S
C458 H450 0.951 . S
C458 C457 1.424 . S
C458 C459 1.347 . S
C459 H451 0.951 . S
C459 C454 1.429 . S
C459 C458 1.347 . S
H460 C461 0.951 . S
C461 H460 0.951 . S
C461 C467 1.265 . S
H462 C467 0.950 . S
H463 C471 0.949 . S
H464 C472 0.950 . S
H465 C473 0.951 . S
H466 C474 0.951 . S
C467 C461 1.265 . S
C467 H462 0.950 . S
C467 C468 1.478 . S
C468 C467 1.478 . S
C468 C469 1.397 . S
C468 C485 1.394 . S
C469 C468 1.397 . S
C469 C470 1.438 . S
C469 C474 1.429 . S
C470 C469 1.438 . S
C470 C471 1.428 . S
C470 C483 1.394 . S
C471 H463 0.949 . S
C471 C470 1.428 . S
C471 C472 1.345 . S
C472 H464 0.950 . S
C472 C471 1.345 . S
C472 C473 1.424 . S
C473 H465 0.951 . S
C473 C472 1.424 . S
C473 C474 1.347 . S
C474 H466 0.951 . S
C474 C469 1.429 . S
C474 C473 1.347 . S
H475 C476 0.951 . S
C476 H475 0.951 . S
C476 C482 1.265 . S
H477 C482 0.950 . S
H478 C486 0.949 . S
H479 C487 0.950 . S
H480 C488 0.951 . S
H481 C489 0.951 . S
C482 C476 1.265 . S
C482 H477 0.950 . S
C482 C483 1.478 . S
C483 C470 1.394 . S
C483 C482 1.478 . S
C483 C484 1.397 . S
C484 C483 1.397 . S
C484 C485 1.438 . S
C484 C489 1.429 . S
C485 C468 1.394 . S
C485 C484 1.438 . S
C485 C486 1.428 . S
C486 H478 0.949 . S
C486 C485 1.428 . S
C486 C487 1.345 . S
C487 H479 0.950 . S
C487 C486 1.345 . S
C487 C488 1.424 . S
C488 H480 0.951 . S
C488 C487 1.424 . S
C488 C489 1.347 . S
C489 H481 0.951 . S
C489 C484 1.429 . S
C489 C488 1.347 . S
H490 C491 0.951 . S
C491 H490 0.951 . S
C491 C497 1.265 . S
H492 C497 0.950 . S
H493 C501 0.949 . S
H494 C502 0.950 . S
H495 C503 0.951 . S
H496 C504 0.951 . S
C497 C491 1.265 . S
C497 H492 0.950 . S
C497 C498 1.478 . S
C498 C497 1.478 . S
C498 C499 1.397 . S
C498 C515 1.394 . S
C499 C498 1.397 . S
C499 C500 1.438 . S
C499 C504 1.429 . S
C500 C499 1.438 . S
C500 C501 1.428 . S
C500 C513 1.394 . S
C501 H493 0.949 . S
C501 C500 1.428 . S
C501 C502 1.345 . S
C502 H494 0.950 . S
C502 C501 1.345 . S
C502 C503 1.424 . S
C503 H495 0.951 . S
C503 C502 1.424 . S
C503 C504 1.347 . S
C504 H496 0.951 . S
C504 C499 1.429 . S
C504 C503 1.347 . S
H505 C506 0.951 . S
C506 H505 0.951 . S
C506 C512 1.265 . S
H507 C512 0.950 . S
H508 C516 0.949 . S
H509 C517 0.950 . S
H510 C518 0.951 . S
H511 C519 0.951 . S
C512 C506 1.265 . S
C512 H507 0.950 . S
C512 C513 1.478 . S
C513 C500 1.394 . S
C513 C512 1.478 . S
C513 C514 1.397 . S
C514 C513 1.397 . S
C514 C515 1.438 . S
C514 C519 1.429 . S
C515 C498 1.394 . S
C515 C514 1.438 . S
C515 C516 1.428 . S
C516 H508 0.949 . S
C516 C515 1.428 . S
C516 C517 1.345 . S
C517 H509 0.950 . S
C517 C516 1.345 . S
C517 C518 1.424 . S
C518 H510 0.951 . S
C518 C517 1.424 . S
C518 C519 1.347 . S
C519 H511 0.951 . S
C519 C514 1.429 . S
C519 C518 1.347 . S
C161 C111 3.557 . S
C176 C12 3.557 . S
C191 C92 3.538 1_556 S
C206 C31 3.539 . S
C221 C69 0.236 . S
C236 C128 0.236 . S
C251 C48 0.301 . S
C266 C149 0.302 . S
C281 C29 1.165 . S
C296 C8 1.165 . S
C311 C52 4.790 1_545 S
C326 C71 4.792 1_565 S
C341 C109 1.165 . S
C356 C88 1.165 . S
C371 C151 4.797 . S
C386 C132 4.797 . S
C401 C57 1.462 1_545 S
C416 C2 1.416 1_565 S
C431 C17 1.414 1_545 S
C446 C42 1.464 1_565 S
C461 C137 1.434 . S
C476 C82 1.478 . S
C491 C122 1.451 . S
C506 C97 1.490 . S
