# Generated by pormake.
# Topology unv, (4)-cn, num edge types: 1
# Building blocks:
#     Node 0, Type 0, BuildingBlock: GALJAG_clean_sbu_0, # of connection points: 4
#     Node 1, Type 0, BuildingBlock: GALJAG_clean_sbu_0, # of connection points: 4
#     Node 2, Type 0, BuildingBlock: GALJAG_clean_sbu_0, # of connection points: 4
#     Node 3, Type 0, BuildingBlock: GALJAG_clean_sbu_0, # of connection points: 4
#     Node 4, Type 0, BuildingBlock: GALJAG_clean_sbu_0, # of connection points: 4
#     Node 5, Type 0, BuildingBlock: GALJAG_clean_sbu_0, # of connection points: 4
#     Node 6, Type 0, BuildingBlock: GALJAG_clean_sbu_0, # of connection points: 4
#     Node 7, Type 0, BuildingBlock: GALJAG_clean_sbu_0, # of connection points: 4
#     Node 8, Type 0, BuildingBlock: GALJAG_clean_sbu_0, # of connection points: 4
#     Node 9, Type 0, BuildingBlock: GALJAG_clean_sbu_0, # of connection points: 4
#     Node 10, Type 0, BuildingBlock: GALJAG_clean_sbu_0, # of connection points: 4
#     Node 11, Type 0, BuildingBlock: GALJAG_clean_sbu_0, # of connection points: 4
#     Node 12, Type 0, BuildingBlock: GALJAG_clean_sbu_0, # of connection points: 4
#     Node 13, Type 0, BuildingBlock: GALJAG_clean_sbu_0, # of connection points: 4
#     Node 14, Type 0, BuildingBlock: GALJAG_clean_sbu_0, # of connection points: 4
#     Node 15, Type 0, BuildingBlock: GALJAG_clean_sbu_0, # of connection points: 4
#     Node 16, Type 0, BuildingBlock: GALJAG_clean_sbu_0, # of connection points: 4
#     Node 17, Type 0, BuildingBlock: GALJAG_clean_sbu_0, # of connection points: 4
#     Node 18, Type 0, BuildingBlock: GALJAG_clean_sbu_0, # of connection points: 4
#     Node 19, Type 0, BuildingBlock: GALJAG_clean_sbu_0, # of connection points: 4
#     Node 20, Type 0, BuildingBlock: GALJAG_clean_sbu_0, # of connection points: 4
#     Node 21, Type 0, BuildingBlock: GALJAG_clean_sbu_0, # of connection points: 4
#     Node 22, Type 0, BuildingBlock: GALJAG_clean_sbu_0, # of connection points: 4
#     Node 23, Type 0, BuildingBlock: GALJAG_clean_sbu_0, # of connection points: 4
#     Edge 24, Type (0, 0), BuildingBlock: TEMPAE_clean_linker_10, # of connection points: 2
#     Edge 25, Type (0, 0), BuildingBlock: TEMPAE_clean_linker_10, # of connection points: 2
#     Edge 26, Type (0, 0), BuildingBlock: TEMPAE_clean_linker_10, # of connection points: 2
#     Edge 27, Type (0, 0), BuildingBlock: TEMPAE_clean_linker_10, # of connection points: 2
#     Edge 28, Type (0, 0), BuildingBlock: TEMPAE_clean_linker_10, # of connection points: 2
#     Edge 29, Type (0, 0), BuildingBlock: TEMPAE_clean_linker_10, # of connection points: 2
#     Edge 30, Type (0, 0), BuildingBlock: TEMPAE_clean_linker_10, # of connection points: 2
#     Edge 31, Type (0, 0), BuildingBlock: TEMPAE_clean_linker_10, # of connection points: 2
#     Edge 32, Type (0, 0), BuildingBlock: TEMPAE_clean_linker_10, # of connection points: 2
#     Edge 33, Type (0, 0), BuildingBlock: TEMPAE_clean_linker_10, # of connection points: 2
#     Edge 34, Type (0, 0), BuildingBlock: TEMPAE_clean_linker_10, # of connection points: 2
#     Edge 35, Type (0, 0), BuildingBlock: TEMPAE_clean_linker_10, # of connection points: 2
#     Edge 36, Type (0, 0), BuildingBlock: TEMPAE_clean_linker_10, # of connection points: 2
#     Edge 37, Type (0, 0), BuildingBlock: TEMPAE_clean_linker_10, # of connection points: 2
#     Edge 38, Type (0, 0), BuildingBlock: TEMPAE_clean_linker_10, # of connection points: 2
#     Edge 39, Type (0, 0), BuildingBlock: TEMPAE_clean_linker_10, # of connection points: 2
#     Edge 40, Type (0, 0), BuildingBlock: TEMPAE_clean_linker_10, # of connection points: 2
#     Edge 41, Type (0, 0), BuildingBlock: TEMPAE_clean_linker_10, # of connection points: 2
#     Edge 42, Type (0, 0), BuildingBlock: TEMPAE_clean_linker_10, # of connection points: 2
#     Edge 43, Type (0, 0), BuildingBlock: TEMPAE_clean_linker_10, # of connection points: 2
#     Edge 44, Type (0, 0), BuildingBlock: TEMPAE_clean_linker_10, # of connection points: 2
#     Edge 45, Type (0, 0), BuildingBlock: TEMPAE_clean_linker_10, # of connection points: 2
#     Edge 46, Type (0, 0), BuildingBlock: TEMPAE_clean_linker_10, # of connection points: 2
#     Edge 47, Type (0, 0), BuildingBlock: TEMPAE_clean_linker_10, # of connection points: 2
#     Edge 48, Type (0, 0), BuildingBlock: TEMPAE_clean_linker_10, # of connection points: 2
#     Edge 49, Type (0, 0), BuildingBlock: TEMPAE_clean_linker_10, # of connection points: 2
#     Edge 50, Type (0, 0), BuildingBlock: TEMPAE_clean_linker_10, # of connection points: 2
#     Edge 51, Type (0, 0), BuildingBlock: TEMPAE_clean_linker_10, # of connection points: 2
#     Edge 52, Type (0, 0), BuildingBlock: TEMPAE_clean_linker_10, # of connection points: 2
#     Edge 53, Type (0, 0), BuildingBlock: TEMPAE_clean_linker_10, # of connection points: 2
#     Edge 54, Type (0, 0), BuildingBlock: TEMPAE_clean_linker_10, # of connection points: 2
#     Edge 55, Type (0, 0), BuildingBlock: TEMPAE_clean_linker_10, # of connection points: 2
#     Edge 56, Type (0, 0), BuildingBlock: TEMPAE_clean_linker_10, # of connection points: 2
#     Edge 57, Type (0, 0), BuildingBlock: TEMPAE_clean_linker_10, # of connection points: 2
#     Edge 58, Type (0, 0), BuildingBlock: TEMPAE_clean_linker_10, # of connection points: 2
#     Edge 59, Type (0, 0), BuildingBlock: TEMPAE_clean_linker_10, # of connection points: 2
#     Edge 60, Type (0, 0), BuildingBlock: TEMPAE_clean_linker_10, # of connection points: 2
#     Edge 61, Type (0, 0), BuildingBlock: TEMPAE_clean_linker_10, # of connection points: 2
#     Edge 62, Type (0, 0), BuildingBlock: TEMPAE_clean_linker_10, # of connection points: 2
#     Edge 63, Type (0, 0), BuildingBlock: TEMPAE_clean_linker_10, # of connection points: 2
#     Edge 64, Type (0, 0), BuildingBlock: TEMPAE_clean_linker_10, # of connection points: 2
#     Edge 65, Type (0, 0), BuildingBlock: TEMPAE_clean_linker_10, # of connection points: 2
#     Edge 66, Type (0, 0), BuildingBlock: TEMPAE_clean_linker_10, # of connection points: 2
#     Edge 67, Type (0, 0), BuildingBlock: TEMPAE_clean_linker_10, # of connection points: 2
#     Edge 68, Type (0, 0), BuildingBlock: TEMPAE_clean_linker_10, # of connection points: 2
#     Edge 69, Type (0, 0), BuildingBlock: TEMPAE_clean_linker_10, # of connection points: 2
#     Edge 70, Type (0, 0), BuildingBlock: TEMPAE_clean_linker_10, # of connection points: 2
#     Edge 71, Type (0, 0), BuildingBlock: TEMPAE_clean_linker_10, # of connection points: 2
# Relax obj value: 0.404
# Max RMSD: 0.239
# Mean RMSD: 0.210
data_MOF--net-unv--node1-GALJAG_clean_sbu_0--edge1-TEMPAE_clean_linker_10
_symmetry_space_group_name_H-M    P1
_symmetry_Int_Tables_number       1
_symmetry_cell_setting            triclinic
loop_
_symmetry_equiv_pos_as_xyz
'x, y, z'
_cell_length_a     48.998076
_cell_length_b     49.026135
_cell_length_c     48.997151
_cell_angle_alpha  90.028469
_cell_angle_beta   90.024054
_cell_angle_gamma 90.004333
loop_
_atom_site_label
_atom_site_type_symbol
_atom_site_fract_x
_atom_site_fract_y
_atom_site_fract_z
_atom_type_partial_charge
In0 In 0.03526 0.09459 0.36245 0.0
O1 O 0.06931 0.08074 0.33389 0.0
O2 O 0.02907 0.08352 0.31793 0.0
C3 C 0.0755 0.09467 0.4001 0.0
C4 C 0.01069 0.14328 0.35577 0.0
C5 C 0.00101 0.05618 0.38233 0.0
O6 O 0.0691 0.07407 0.38612 0.0
O7 O 0.06225 0.11601 0.39436 0.0
O8 O 0.00815 0.05696 0.35765 0.0
O9 O 0.0104 0.07528 0.39676 0.0
C10 C 0.05363 0.077 0.31379 0.0
O11 O -7e-05 0.12382 0.36866 0.0
O12 O 0.03408 0.13829 0.3462 0.0
In13 In 0.91993 0.38399 0.37921 0.0
O14 O 0.95058 0.34993 0.38064 0.0
O15 O 0.91361 0.34211 0.35912 0.0
C16 C 0.96174 0.41653 0.39454 0.0
C17 C 0.90217 0.41542 0.33774 0.0
C18 C 0.88378 0.37658 0.42015 0.0
O19 O 0.96103 0.40471 0.37174 0.0
O20 O 0.9417 0.41149 0.40981 0.0
O21 O 0.87746 0.38841 0.39817 0.0
O22 O 0.90775 0.36734 0.42077 0.0
C23 C 0.93652 0.3332 0.36709 0.0
O24 O 0.89766 0.42093 0.36245 0.0
O25 O 0.91412 0.39292 0.33378 0.0
In26 In 0.03442 0.89554 0.14147 0.0
O27 O 0.01018 0.85599 0.14255 0.0
O28 O 0.0472 0.85754 0.16511 0.0
C29 C 0.99193 0.92886 0.13026 0.0
C30 C 0.05642 0.92867 0.17941 0.0
C31 C 0.06283 0.88847 0.095 0.0
O32 O 0.99076 0.9114 0.14915 0.0
O33 O 0.01393 0.92878 0.11703 0.0
O34 O 0.07436 0.89273 0.11769 0.0
O35 O 0.03719 0.88632 0.09621 0.0
C36 C 0.0267 0.8437 0.15799 0.0
O37 O 0.0649 0.92794 0.15514 0.0
O38 O 0.03767 0.91188 0.18476 0.0
In39 In 0.97645 0.595 0.17515 0.0
O40 O 0.93859 0.57289 0.19072 0.0
O41 O 0.97202 0.57728 0.21793 0.0
C42 C 0.95072 0.60742 0.12816 0.0
C43 C 0.99575 0.64498 0.18772 0.0
C44 C 0.01126 0.5543 0.16304 0.0
O45 O 0.93945 0.61075 0.15111 0.0
O46 O 0.97478 0.59842 0.12918 0.0
O47 O 0.01758 0.5729 0.17978 0.0
O48 O 0.98772 0.55643 0.15289 0.0
C49 C 0.94852 0.56755 0.21385 0.0
O50 O 0.00883 0.62808 0.17343 0.0
O51 O 0.97328 0.63625 0.19673 0.0
In52 In 0.37892 0.03665 0.08957 0.0
O53 O 0.3536 0.01011 0.11801 0.0
O54 O 0.38063 0.03879 0.13605 0.0
C55 C 0.38743 0.99351 0.05626 0.0
C56 C 0.34074 0.06746 0.06475 0.0
C57 C 0.4259 0.06525 0.08969 0.0
O58 O 0.40102 0.99735 0.07776 0.0
O59 O 0.36896 0.01087 0.05212 0.0
O60 O 0.40302 0.07648 0.09362 0.0
O61 O 0.42495 0.0397 0.08694 0.0
C62 C 0.36323 0.02017 0.1396 0.0
O63 O 0.36485 0.06535 0.05599 0.0
O64 O 0.33619 0.05488 0.08677 0.0
In65 In 0.60668 0.45745 0.09048 0.0
O66 O 0.62406 0.44563 0.04902 0.0
O67 O 0.65152 0.46073 0.07898 0.0
C68 C 0.56971 0.41694 0.08754 0.0
C69 C 0.6218 0.45809 0.14319 0.0
C70 C 0.58543 0.50392 0.06976 0.0
O71 O 0.59318 0.415 0.07709 0.0
O72 O 0.56565 0.4386 0.10084 0.0
O73 O 0.57293 0.4815 0.07 0.0
O74 O 0.60857 0.50332 0.08099 0.0
C75 C 0.64821 0.45229 0.05488 0.0
O76 O 0.60546 0.47524 0.13314 0.0
O77 O 0.63032 0.44025 0.12669 0.0
In78 In 0.34929 0.94668 0.38194 0.0
O79 O 0.3371 0.9745 0.34726 0.0
O80 O 0.33935 0.93196 0.33884 0.0
C81 C 0.36641 0.98538 0.41713 0.0
C82 C 0.30496 0.92919 0.40961 0.0
C83 C 0.39704 0.92059 0.37492 0.0
O84 O 0.35474 0.9913 0.39497 0.0
O85 O 0.36944 0.96023 0.4213 0.0
O86 O 0.37593 0.90859 0.38368 0.0
O87 O 0.39366 0.9454 0.36888 0.0
C88 C 0.33497 0.9557 0.32984 0.0
O89 O 0.32648 0.91519 0.40799 0.0
O90 O 0.30536 0.95085 0.39583 0.0
In91 In 0.65379 0.50305 0.39099 0.0
O92 O 0.68269 0.53616 0.40631 0.0
O93 O 0.69599 0.49498 0.40836 0.0
C94 C 0.61029 0.53552 0.38215 0.0
C95 C 0.66298 0.48427 0.34023 0.0
C96 C 0.635 0.47334 0.43327 0.0
O97 O 0.63307 0.54477 0.38991 0.0
O98 O 0.60985 0.51013 0.37804 0.0
O99 O 0.64788 0.46257 0.41372 0.0
O100 O 0.63182 0.49875 0.43134 0.0
C101 C 0.70098 0.51964 0.41374 0.0
O102 O 0.65088 0.4705 0.35825 0.0
O103 O 0.6713 0.50734 0.34807 0.0
In104 In 0.08737 0.36491 0.03656 0.0
O105 O 0.07231 0.33 0.06349 0.0
O106 O 0.0599 0.33074 0.02188 0.0
C107 C 0.09965 0.39892 0.07816 0.0
C108 C 0.13545 0.35054 0.01382 0.0
C109 C 0.04934 0.39438 0.00976 0.0
O110 O 0.08719 0.37668 0.08164 0.0
O111 O 0.1072 0.40316 0.05393 0.0
O112 O 0.06751 0.38094 0.99739 0.0
O113 O 0.05041 0.3928 0.0354 0.0
C114 C 0.05846 0.31898 0.04473 0.0
O115 O 0.12241 0.37157 0.00692 0.0
O116 O 0.12436 0.33666 0.03241 0.0
In117 In 0.0989 0.60055 0.49875 0.0
O118 O 0.05906 0.62177 0.48827 0.0
O119 O 0.09058 0.64557 0.50636 0.0
C120 C 0.08469 0.56345 0.46091 0.0
C121 C 0.15123 0.61344 0.4882 0.0
C122 C 0.08273 0.57952 0.54725 0.0
O123 O 0.07518 0.58739 0.46111 0.0
O124 O 0.1024 0.55873 0.47902 0.0
O125 O 0.08865 0.60435 0.54435 0.0
O126 O 0.08678 0.56528 0.52629 0.0
C127 C 0.06656 0.64479 0.49705 0.0
O128 O 0.14414 0.60078 0.50944 0.0
O129 O 0.13197 0.61943 0.47228 0.0
In130 In 0.91515 0.85467 0.51694 0.0
O131 O 0.87155 0.8559 0.53318 0.0
O132 O 0.8791 0.83355 0.49684 0.0
C133 C 0.93412 0.88005 0.56216 0.0
C134 C 0.94296 0.80797 0.50996 0.0
C135 C 0.92883 0.8915 0.47853 0.0
O136 O 0.9221 0.89241 0.54313 0.0
O137 O 0.93504 0.85453 0.55922 0.0
O138 O 0.94616 0.87655 0.49032 0.0
O139 O 0.9044 0.88728 0.48552 0.0
C140 C 0.86187 0.84153 0.51413 0.0
O141 O 0.94212 0.8264 0.492 0.0
O142 O 0.92941 0.81297 0.5313 0.0
In143 In 0.40114 0.63605 0.48719 0.0
O144 O 0.36536 0.6321 0.45786 0.0
O145 O 0.36051 0.65753 0.49268 0.0
C146 C 0.44142 0.61657 0.45515 0.0
C147 C 0.42755 0.6809 0.50437 0.0
C148 C 0.39015 0.59463 0.52145 0.0
O149 O 0.43912 0.6111 0.48014 0.0
O150 O 0.42299 0.63196 0.44576 0.0
O151 O 0.39608 0.61827 0.52987 0.0
O152 O 0.38903 0.59227 0.49583 0.0
C153 C 0.34976 0.64721 0.47169 0.0
O154 O 0.42453 0.66008 0.51918 0.0
O155 O 0.41631 0.67946 0.48122 0.0
In156 In 0.49335 0.60308 0.86773 0.0
O157 O 0.47455 0.64556 0.8666 0.0
O158 O 0.51175 0.63898 0.84524 0.0
C159 C 0.44948 0.57251 0.88104 0.0
C160 C 0.51034 0.57042 0.82712 0.0
C161 C 0.52408 0.60663 0.91298 0.0
O162 O 0.47207 0.57125 0.89317 0.0
O163 O 0.44827 0.59042 0.86257 0.0
O164 O 0.53294 0.59692 0.8908 0.0
O165 O 0.4999 0.61551 0.91202 0.0
C166 C 0.4934 0.65558 0.85218 0.0
O167 O 0.52147 0.57058 0.85033 0.0
O168 O 0.49124 0.58743 0.82413 0.0
In169 In 0.51709 0.91127 0.85372 0.0
O170 O 0.5358 0.86899 0.8591 0.0
O171 O 0.50124 0.873 0.8332 0.0
C172 C 0.56357 0.93542 0.87116 0.0
C173 C 0.50062 0.93774 0.80859 0.0
C174 C 0.48073 0.92144 0.8936 0.0
O175 O 0.54636 0.92494 0.88708 0.0
O176 O 0.55838 0.93191 0.84621 0.0
O177 O 0.48647 0.89745 0.8862 0.0
O178 O 0.49285 0.93997 0.8805 0.0
C179 C 0.5187 0.85737 0.84374 0.0
O180 O 0.48689 0.93756 0.83035 0.0
O181 O 0.52244 0.9241 0.80943 0.0
In182 In 0.50638 0.40211 0.63641 0.0
O183 O 0.47885 0.36519 0.63234 0.0
O184 O 0.51593 0.36051 0.65446 0.0
C185 C 0.47204 0.44036 0.61707 0.0
C186 C 0.51839 0.4268 0.68389 0.0
C187 C 0.54132 0.39634 0.59445 0.0
O188 O 0.46336 0.41942 0.6293 0.0
O189 O 0.4976 0.44175 0.61488 0.0
O190 O 0.54928 0.40235 0.61825 0.0
O191 O 0.51597 0.39244 0.59223 0.0
C192 C 0.49454 0.34946 0.64534 0.0
O193 O 0.53502 0.42573 0.66427 0.0
O194 O 0.49615 0.41445 0.67989 0.0
In195 In 0.48351 0.0948 0.60594 0.0
O196 O 0.50258 0.13691 0.60314 0.0
O197 O 0.46719 0.1321 0.62789 0.0
C198 C 0.52451 0.06406 0.58615 0.0
C199 C 0.47686 0.06621 0.65219 0.0
C200 C 0.4474 0.09507 0.56469 0.0
O201 O 0.49965 0.05913 0.58197 0.0
O202 O 0.52915 0.08513 0.60024 0.0
O203 O 0.44101 0.08765 0.58855 0.0
O204 O 0.4716 0.10352 0.56213 0.0
C205 C 0.48537 0.1479 0.61885 0.0
O206 O 0.46051 0.06423 0.63238 0.0
O207 O 0.49595 0.08314 0.64888 0.0
In208 In 0.8535 0.51789 0.61246 0.0
O209 O 0.84839 0.53974 0.57182 0.0
O210 O 0.81256 0.53044 0.59428 0.0
C211 C 0.90463 0.53699 0.61665 0.0
C212 C 0.83581 0.52798 0.6634 0.0
C213 C 0.8561 0.46747 0.59019 0.0
O214 O 0.88641 0.54871 0.60265 0.0
O215 O 0.89687 0.5158 0.62913 0.0
O216 O 0.83437 0.47671 0.60042 0.0
O217 O 0.87649 0.48281 0.59309 0.0
C218 C 0.8227 0.53996 0.57261 0.0
O219 O 0.83894 0.50406 0.65436 0.0
O220 O 0.8408 0.54668 0.64648 0.0
In221 In 0.15632 0.98389 0.60404 0.0
O222 O 0.17438 0.00885 0.63902 0.0
O223 O 0.16794 0.96649 0.6454 0.0
C224 C 0.14596 0.02885 0.57347 0.0
C225 C 0.18923 0.95427 0.57132 0.0
C226 C 0.10815 0.95869 0.61118 0.0
O227 O 0.1278 0.01603 0.58628 0.0
O228 O 0.16973 0.01978 0.57703 0.0
O229 O 0.12699 0.94908 0.59646 0.0
O230 O 0.11375 0.98099 0.62285 0.0
C231 C 0.17553 0.98897 0.65529 0.0
O232 O 0.16358 0.95326 0.57003 0.0
O233 O 0.19847 0.96967 0.58983 0.0
In234 In 0.84646 0.52594 0.91908 0.0
O235 O 0.83013 0.5511 0.88308 0.0
O236 O 0.85883 0.51976 0.87495 0.0
C237 C 0.85304 0.56115 0.96089 0.0
C238 C 0.79859 0.50124 0.92956 0.0
C239 C 0.89224 0.49711 0.92789 0.0
O240 O 0.85954 0.56755 0.93676 0.0
O241 O 0.84266 0.5378 0.96329 0.0
O242 O 0.86898 0.48608 0.92623 0.0
O243 O 0.89245 0.52265 0.9244 0.0
C244 C 0.84373 0.5382 0.86547 0.0
O245 O 0.82075 0.48822 0.9278 0.0
O246 O 0.80054 0.52648 0.92493 0.0
In247 In 0.15077 0.03329 0.90673 0.0
O248 O 0.17433 0.06921 0.92545 0.0
O249 O 0.19415 0.03087 0.92219 0.0
C250 C 0.10111 0.05639 0.90481 0.0
C251 C 0.16577 0.02715 0.85431 0.0
C252 C 0.13695 0.99362 0.94225 0.0
O253 O 0.12168 0.06842 0.91472 0.0
O254 O 0.10586 0.03302 0.895 0.0
O255 O 0.14255 0.98839 0.91764 0.0
O256 O 0.13855 0.01846 0.94861 0.0
C257 C 0.19546 0.05526 0.93015 0.0
O258 O 0.16997 0.00902 0.87205 0.0
O259 O 0.15413 0.04838 0.86298 0.0
In260 In 0.60904 0.85745 0.49401 0.0
O261 O 0.64915 0.8545 0.47079 0.0
O262 O 0.64578 0.83379 0.50884 0.0
C263 C 0.57411 0.87422 0.45492 0.0
C264 C 0.57738 0.81625 0.51123 0.0
C265 C 0.61847 0.90243 0.52386 0.0
O266 O 0.59267 0.85705 0.44984 0.0
O267 O 0.57414 0.88321 0.47897 0.0
O268 O 0.60874 0.88085 0.5341 0.0
O269 O 0.62423 0.90087 0.4988 0.0
C270 C 0.66061 0.83998 0.48874 0.0
O271 O 0.57916 0.83849 0.5241 0.0
O272 O 0.59244 0.81449 0.49041 0.0
In273 In 0.60822 0.16861 0.94371 0.0
O274 O 0.58759 0.18956 0.90747 0.0
O275 O 0.58799 0.21035 0.94542 0.0
C276 C 0.61706 0.11946 0.92075 0.0
C277 C 0.65937 0.18642 0.95289 0.0
C278 C 0.57249 0.15179 0.98214 0.0
O279 O 0.60398 0.13821 0.90889 0.0
O280 O 0.62632 0.12572 0.94395 0.0
O281 O 0.59523 0.16217 0.98833 0.0
O282 O 0.56806 0.14998 0.9569 0.0
C283 C 0.57983 0.21 0.92102 0.0
O284 O 0.64167 0.18454 0.97148 0.0
O285 O 0.65085 0.18056 0.92928 0.0
In286 In 0.37761 0.34981 0.93541 0.0
O287 O 0.4107 0.3408 0.9042 0.0
O288 O 0.39175 0.30699 0.92336 0.0
C289 C 0.36524 0.39744 0.91103 0.0
C290 C 0.32757 0.33308 0.95059 0.0
C291 C 0.4135 0.35924 0.97619 0.0
O292 O 0.37318 0.37685 0.8977 0.0
O293 O 0.3626 0.39355 0.93634 0.0
O294 O 0.40014 0.33735 0.97447 0.0
O295 O 0.40829 0.3764 0.95779 0.0
C296 C 0.41019 0.31533 0.90742 0.0
O297 O 0.34521 0.342 0.96703 0.0
O298 O 0.3354 0.33166 0.92604 0.0
In299 In 0.8962 0.12371 0.02985 0.0
O300 O 0.86915 0.1579 0.0131 0.0
O301 O 0.8507 0.11966 0.02111 0.0
C302 C 0.9246 0.1027 0.98737 0.0
C303 C 0.93112 0.16075 0.05052 0.0
C304 C 0.88868 0.08587 0.0691 0.0
O305 O 0.91161 0.12482 0.98545 0.0
O306 O 0.9221 0.09095 0.01003 0.0
O307 O 0.89853 0.10914 0.07416 0.0
O308 O 0.88116 0.08255 0.04471 0.0
C309 C 0.8477 0.14377 0.01275 0.0
O310 O 0.90564 0.16251 0.05427 0.0
O311 O 0.93866 0.14008 0.03723 0.0
C312 C 0.11184 0.0537 0.54541 0.0
C313 C 0.13922 0.04917 0.55226 0.0
C314 C 0.10482 0.06716 0.52121 0.0
C315 C 0.12573 0.07673 0.50371 0.0
C316 C 0.15332 0.07496 0.51209 0.0
C317 C 0.15981 0.0609 0.53622 0.0
C318 C 0.07509 0.0686 0.51312 0.0
C319 C 0.17613 0.08586 0.49453 0.0
C320 C 0.10543 0.06706 0.43016 0.0
C321 C 0.09377 0.09241 0.42398 0.0
C322 C 0.11771 0.06232 0.4555 0.0
C323 C 0.11874 0.08361 0.47501 0.0
C324 C 0.10943 0.11001 0.4679 0.0
C325 C 0.09677 0.11407 0.44245 0.0
C326 C 0.12744 0.03382 0.46215 0.0
C327 C 0.11107 0.13346 0.48777 0.0
H328 H 0.09583 0.04493 0.5579 0.0
H329 H 0.18103 0.05777 0.54163 0.0
H330 H 0.06972 0.08946 0.50626 0.0
H331 H 0.07132 0.05453 0.49576 0.0
H332 H 0.06129 0.06281 0.53014 0.0
H333 H 0.19509 0.08906 0.50655 0.0
H334 H 0.18066 0.07102 0.47804 0.0
H335 H 0.17022 0.10541 0.48477 0.0
H336 H 0.10348 0.05032 0.41583 0.0
H337 H 0.08802 0.1338 0.43765 0.0
H338 H 0.11425 0.02489 0.47825 0.0
H339 H 0.14858 0.03435 0.47019 0.0
H340 H 0.12695 0.02012 0.44409 0.0
H341 H 0.09402 0.13196 0.50258 0.0
H342 H 0.10946 0.15344 0.47719 0.0
H343 H 0.13045 0.13288 0.49948 0.0
C344 C 0.8521 0.40319 0.44917 0.0
C345 C 0.8677 0.37957 0.44538 0.0
C346 C 0.84492 0.41182 0.4755 0.0
C347 C 0.85281 0.39587 0.4983 0.0
C348 C 0.86467 0.3699 0.49408 0.0
C349 C 0.8726 0.36228 0.46762 0.0
C350 C 0.83204 0.43958 0.479 0.0
C351 C 0.87155 0.35145 0.51772 0.0
C352 C 0.88006 0.43973 0.5554 0.0
C353 C 0.85664 0.44406 0.57119 0.0
C354 C 0.87935 0.42286 0.53239 0.0
C355 C 0.85482 0.40915 0.52552 0.0
C356 C 0.83193 0.41115 0.54305 0.0
C357 C 0.83296 0.429 0.56552 0.0
C358 C 0.90429 0.4216 0.51423 0.0
C359 C 0.80581 0.39591 0.53733 0.0
H360 H 0.84814 0.41651 0.43196 0.0
H361 H 0.88425 0.34371 0.46464 0.0
H362 H 0.81435 0.43838 0.49304 0.0
H363 H 0.84711 0.4538 0.48819 0.0
H364 H 0.82504 0.44831 0.45928 0.0
H365 H 0.8738 0.32992 0.51099 0.0
H366 H 0.89113 0.35801 0.527 0.0
H367 H 0.85555 0.35256 0.53373 0.0
H368 H 0.8985 0.45114 0.55979 0.0
H369 H 0.81483 0.43208 0.57782 0.0
H370 H 0.89929 0.42994 0.49376 0.0
H371 H 0.91087 0.40016 0.51141 0.0
H372 H 0.92175 0.43335 0.52267 0.0
H373 H 0.7922 0.40884 0.52469 0.0
H374 H 0.79483 0.39123 0.55661 0.0
H375 H 0.80961 0.37657 0.52618 0.0
C376 C 0.06204 0.89441 0.04459 0.0
C377 C 0.07721 0.89185 0.06873 0.0
C378 C 0.07377 0.90565 0.02105 0.0
C379 C 0.10138 0.91411 0.02167 0.0
C380 C 0.11762 0.90831 0.04487 0.0
C381 C 0.10527 0.89738 0.06827 0.0
C382 C 0.05567 0.91144 0.99679 0.0
C383 C 0.14732 0.91636 0.04608 0.0
C384 C 0.13201 0.94487 0.95717 0.0
C385 C 0.12836 0.97279 0.96221 0.0
C386 C 0.1238 0.9253 0.9765 0.0
C387 C 0.11127 0.934 0.00105 0.0
C388 C 0.10747 0.9622 0.00605 0.0
C389 C 0.11626 0.98119 0.98669 0.0
C390 C 0.12854 0.89544 0.97075 0.0
C391 C 0.09384 0.97241 0.03179 0.0
H392 H 0.04038 0.88988 0.04471 0.0
H393 H 0.11719 0.89507 0.08678 0.0
H394 H 0.05001 0.93337 0.99683 0.0
H395 H 0.06647 0.9072 0.97737 0.0
H396 H 0.0366 0.89919 0.99737 0.0
H397 H 0.15831 0.90539 0.0626 0.0
H398 H 0.15764 0.91218 0.02637 0.0
H399 H 0.14888 0.93858 0.0501 0.0
H400 H 0.14149 0.93836 0.93827 0.0
H401 H 0.11327 0.00276 0.99061 0.0
H402 H 0.10878 0.8844 0.97036 0.0
H403 H 0.14098 0.88629 0.98731 0.0
H404 H 0.13911 0.89207 0.95098 0.0
H405 H 0.07305 0.96359 0.03355 0.0
H406 H 0.0921 0.995 0.03229 0.0
H407 H 0.10562 0.96576 0.04995 0.0
C408 C 0.91105 0.62414 0.1005 0.0
C409 C 0.93604 0.61032 0.10203 0.0
C410 C 0.89543 0.62349 0.07643 0.0
C411 C 0.90465 0.60782 0.05397 0.0
C412 C 0.93065 0.59523 0.05498 0.0
C413 C 0.94618 0.597 0.07887 0.0
C414 C 0.86841 0.63822 0.07568 0.0
C415 C 0.94115 0.57791 0.0317 0.0
C416 C 0.85676 0.56588 0.01109 0.0
C417 C 0.86084 0.57723 0.98516 0.0
C418 C 0.86933 0.57699 0.03416 0.0
C419 C 0.88582 0.60052 0.03136 0.0
C420 C 0.88754 0.61384 0.00577 0.0
C421 C 0.8753 0.60178 0.98276 0.0
C422 C 0.86708 0.56191 0.06097 0.0
C423 C 0.90387 0.63968 0.00227 0.0
H424 H 0.90336 0.63481 0.11829 0.0
H425 H 0.96556 0.58639 0.07994 0.0
H426 H 0.86458 0.64711 0.05521 0.0
H427 H 0.85171 0.62361 0.08008 0.0
H428 H 0.86754 0.65475 0.09118 0.0
H429 H 0.96241 0.57081 0.03515 0.0
H430 H 0.92786 0.55973 0.02918 0.0
H431 H 0.94052 0.5895 0.0123 0.0
H432 H 0.84528 0.54708 0.01315 0.0
H433 H 0.8782 0.61085 0.9628 0.0
H434 H 0.86115 0.57606 0.07758 0.0
H435 H 0.88724 0.55311 0.06641 0.0
H436 H 0.85192 0.54507 0.06013 0.0
H437 H 0.90146 0.65327 0.02024 0.0
H438 H 0.89766 0.65095 0.98361 0.0
H439 H 0.92583 0.63454 0.00041 0.0
C440 C 0.47511 0.06674 0.07739 0.0
C441 C 0.45105 0.08078 0.08391 0.0
C442 C 0.49723 0.08029 0.06538 0.0
C443 C 0.49521 0.10856 0.05991 0.0
C444 C 0.47209 0.12331 0.069 0.0
C445 C 0.45017 0.1092 0.08089 0.0
C446 C 0.52156 0.06379 0.05613 0.0
C447 C 0.46936 0.15354 0.0639 0.0
C448 C 0.55791 0.14377 0.03057 0.0
C449 C 0.55256 0.142 0.0025 0.0
C450 C 0.53915 0.13359 0.04975 0.0
C451 C 0.51468 0.12131 0.0405 0.0
C452 C 0.50905 0.11995 0.01218 0.0
C453 C 0.52803 0.13034 0.99358 0.0
C454 C 0.54571 0.13548 0.07978 0.0
C455 C 0.48321 0.10697 0.00142 0.0
H456 H 0.47602 0.0448 0.07997 0.0
H457 H 0.4317 0.12019 0.08611 0.0
H458 H 0.52074 0.06123 0.03364 0.0
H459 H 0.54088 0.07448 0.06109 0.0
H460 H 0.52196 0.04322 0.06563 0.0
H461 H 0.45298 0.16278 0.07656 0.0
H462 H 0.48885 0.16423 0.06821 0.0
H463 H 0.46432 0.15702 0.0421 0.0
H464 H 0.57684 0.15285 0.03753 0.0
H465 H 0.52374 0.12899 0.97191 0.0
H466 H 0.54862 0.11471 0.08826 0.0
H467 H 0.52845 0.14493 0.09099 0.0
H468 H 0.56448 0.14758 0.08372 0.0
H469 H 0.48249 0.08516 0.00746 0.0
H470 H 0.48165 0.1082 0.97883 0.0
H471 H 0.46508 0.11709 0.01043 0.0
C472 C 0.55039 0.3805 0.05786 0.0
C473 C 0.54698 0.39886 0.07953 0.0
C474 C 0.5277 0.3694 0.04439 0.0
C475 C 0.50112 0.37672 0.05306 0.0
C476 C 0.4977 0.3926 0.07693 0.0
C477 C 0.52073 0.40359 0.08988 0.0
C478 C 0.53224 0.35237 0.01911 0.0
C479 C 0.46971 0.4004 0.08715 0.0
C480 C 0.45009 0.38807 0.99624 0.0
C481 C 0.43471 0.36401 0.99704 0.0
C482 C 0.47151 0.39244 0.01461 0.0
C483 C 0.47761 0.37233 0.03444 0.0
C484 C 0.46175 0.34824 0.03583 0.0
C485 C 0.44049 0.3443 0.01697 0.0
C486 C 0.48796 0.41845 0.01241 0.0
C487 C 0.46754 0.32653 0.05686 0.0
H488 H 0.57066 0.3766 0.0499 0.0
H489 H 0.51801 0.41751 0.10686 0.0
H490 H 0.51804 0.33477 0.01856 0.0
H491 H 0.52815 0.365 0.00076 0.0
H492 H 0.55352 0.34465 0.01784 0.0
H493 H 0.47038 0.40802 0.1085 0.0
H494 H 0.46125 0.41679 0.07402 0.0
H495 H 0.45551 0.3828 0.0861 0.0
H496 H 0.44571 0.40335 0.98088 0.0
H497 H 0.4286 0.32565 0.01764 0.0
H498 H 0.50966 0.4135 0.00821 0.0
H499 H 0.48726 0.42976 0.032 0.0
H500 H 0.48039 0.43208 0.99596 0.0
H501 H 0.48791 0.31743 0.05303 0.0
H502 H 0.45206 0.30997 0.05655 0.0
H503 H 0.46808 0.33563 0.07759 0.0
C504 C 0.54817 0.86691 0.41128 0.0
C505 C 0.55198 0.88131 0.43572 0.0
C506 C 0.5247 0.87116 0.39526 0.0
C507 C 0.50465 0.88997 0.40418 0.0
C508 C 0.50917 0.90546 0.42816 0.0
C509 C 0.5328 0.90104 0.44349 0.0
C510 C 0.52083 0.85467 0.36954 0.0
C511 C 0.48839 0.92584 0.43844 0.0
C512 C 0.4469 0.92199 0.36486 0.0
C513 C 0.42449 0.90823 0.3761 0.0
C514 C 0.47368 0.91424 0.37141 0.0
C515 C 0.47797 0.89258 0.38999 0.0
C516 C 0.45547 0.87693 0.39917 0.0
C517 C 0.42893 0.88486 0.39194 0.0
C518 C 0.49717 0.9309 0.36051 0.0
C519 C 0.45915 0.85364 0.41898 0.0
H520 H 0.56297 0.85164 0.4052 0.0
H521 H 0.53574 0.9124 0.46226 0.0
H522 H 0.50569 0.83828 0.37333 0.0
H523 H 0.51278 0.86761 0.3528 0.0
H524 H 0.54019 0.84504 0.36272 0.0
H525 H 0.49544 0.93676 0.45702 0.0
H526 H 0.48387 0.94116 0.42241 0.0
H527 H 0.469 0.91521 0.44332 0.0
H528 H 0.44355 0.93984 0.35223 0.0
H529 H 0.41165 0.87403 0.40051 0.0
H530 H 0.5147 0.91761 0.35517 0.0
H531 H 0.50414 0.94537 0.37648 0.0
H532 H 0.49117 0.94286 0.34221 0.0
H533 H 0.47617 0.84022 0.41249 0.0
H534 H 0.44034 0.84113 0.42095 0.0
H535 H 0.46439 0.86193 0.4394 0.0
C536 C 0.46927 0.61513 0.41213 0.0
C537 C 0.46454 0.60614 0.43888 0.0
C538 C 0.49221 0.60601 0.39745 0.0
C539 C 0.51062 0.58755 0.40991 0.0
C540 C 0.50555 0.5781 0.43673 0.0
C541 C 0.48262 0.58752 0.45084 0.0
C542 C 0.497 0.61643 0.36888 0.0
C543 C 0.52456 0.55825 0.45077 0.0
C544 C 0.56009 0.54001 0.37528 0.0
C545 C 0.58506 0.552 0.38249 0.0
C546 C 0.5353 0.5528 0.38163 0.0
C547 C 0.5356 0.57807 0.39559 0.0
C548 C 0.56074 0.59151 0.40037 0.0
C549 C 0.58524 0.5783 0.3937 0.0
C550 C 0.50894 0.53795 0.37583 0.0
C551 C 0.56193 0.61857 0.41504 0.0
H552 H 0.45533 0.62957 0.40286 0.0
H553 H 0.479 0.5804 0.47147 0.0
H554 H 0.51603 0.62867 0.36834 0.0
H555 H 0.49979 0.5991 0.35458 0.0
H556 H 0.47988 0.62931 0.36148 0.0
H557 H 0.51743 0.55267 0.47156 0.0
H558 H 0.52643 0.53932 0.43851 0.0
H559 H 0.54525 0.56729 0.45251 0.0
H560 H 0.55985 0.51981 0.36627 0.0
H561 H 0.6045 0.58777 0.39908 0.0
H562 H 0.49304 0.55225 0.36842 0.0
H563 H 0.5013 0.52857 0.39497 0.0
H564 H 0.51173 0.52151 0.36047 0.0
H565 H 0.54606 0.63267 0.40721 0.0
H566 H 0.58223 0.62845 0.4129 0.0
H567 H 0.5579 0.61531 0.43709 0.0
C568 C 0.10762 0.44726 0.09149 0.0
C569 C 0.09927 0.4209 0.09878 0.0
C570 C 0.0991 0.46999 0.10663 0.0
C571 C 0.08201 0.46608 0.12958 0.0
C572 C 0.07689 0.43933 0.13918 0.0
C573 C 0.08557 0.41696 0.12358 0.0
C574 C 0.10539 0.49814 0.09589 0.0
C575 C 0.05929 0.43426 0.16392 0.0
C576 C 0.05498 0.52797 0.16819 0.0
C577 C 0.02978 0.53188 0.15517 0.0
C578 C 0.07238 0.50652 0.16032 0.0
C579 C 0.06431 0.48885 0.13891 0.0
C580 C 0.03889 0.49287 0.12573 0.0
C581 C 0.02197 0.51423 0.13409 0.0
C582 C 0.09921 0.50265 0.17493 0.0
C583 C 0.02949 0.47466 0.10262 0.0
H584 H 0.11864 0.45041 0.07256 0.0
H585 H 0.07946 0.39657 0.12958 0.0
H586 H 0.08752 0.50582 0.08428 0.0
H587 H 0.10937 0.51263 0.11281 0.0
H588 H 0.12332 0.49798 0.082 0.0
H589 H 0.06233 0.41338 0.17217 0.0
H590 H 0.06366 0.44931 0.18025 0.0
H591 H 0.0375 0.43648 0.15814 0.0
H592 H 0.06103 0.54157 0.18456 0.0
H593 H 0.00256 0.5172 0.12389 0.0
H594 H 0.11626 0.50216 0.16005 0.0
H595 H 0.09921 0.48276 0.18571 0.0
H596 H 0.10319 0.51907 0.19006 0.0
H597 H 0.0445 0.47528 0.08567 0.0
H598 H 0.00924 0.48075 0.09445 0.0
H599 H 0.02815 0.45322 0.10973 0.0
C600 C 0.00408 0.44272 0.38353 0.0
C601 C 0.98342 0.43598 0.40214 0.0
C602 C 0.02366 0.46264 0.3899 0.0
C603 C 0.0224 0.47605 0.41544 0.0
C604 C 0.00196 0.46883 0.43454 0.0
C605 C 0.98271 0.44886 0.42765 0.0
C606 C 0.04523 0.46979 0.36911 0.0
C607 C -2e-05 0.48266 0.46204 0.0
C608 C 0.081 0.51444 0.44785 0.0
C609 C 0.0725 0.54151 0.44427 0.0
C610 C 0.06584 0.49277 0.4369 0.0
C611 C 0.04169 0.49842 0.42211 0.0
C612 C 0.03426 0.52578 0.41662 0.0
C613 C 0.04982 0.54704 0.42775 0.0
C614 C 0.07457 0.46386 0.44292 0.0
C615 C 0.00871 0.53262 0.40078 0.0
H616 H 0.00467 0.4328 0.36376 0.0
H617 H 0.96679 0.44368 0.4421 0.0
H618 H 0.04237 0.49115 0.36221 0.0
H619 H 0.06583 0.46846 0.37842 0.0
H620 H 0.04451 0.4562 0.35097 0.0
H621 H 0.98336 0.47408 0.47484 0.0
H622 H 0.01955 0.48053 0.47325 0.0
H623 H 0.99619 0.50479 0.45923 0.0
H624 H 0.09862 0.51006 0.46049 0.0
H625 H 0.04325 0.56795 0.42481 0.0
H626 H 0.07335 0.45109 0.42426 0.0
H627 H 0.06057 0.45483 0.45825 0.0
H628 H 0.0957 0.46288 0.45108 0.0
H629 H 0.00764 0.52046 0.38172 0.0
H630 H 0.00763 0.55462 0.39544 0.0
H631 H 0.99052 0.52738 0.4132 0.0
C632 C 0.91725 0.93231 0.45027 0.0
C633 C 0.93685 0.91397 0.46018 0.0
C634 C 0.92506 0.95556 0.4355 0.0
C635 C 0.95309 0.96047 0.43058 0.0
C636 C 0.97285 0.94142 0.43958 0.0
C637 C 0.96448 0.91839 0.45428 0.0
C638 C 0.90344 0.9754 0.42613 0.0
C639 C 0.00295 0.9459 0.43464 0.0
C640 C 0.97781 0.01108 0.37754 0.0
C641 C 0.98543 0.03321 0.394 0.0
C642 C 0.96616 0.98759 0.38901 0.0
C643 C 0.9621 0.98629 0.41758 0.0
C644 C 0.9686 0.00909 0.4341 0.0
C645 C 0.98019 0.0323 0.42209 0.0
C646 C 0.95937 0.96372 0.37076 0.0
C647 C 0.96451 0.0085 0.46465 0.0
H648 H 0.89586 0.92896 0.45479 0.0
H649 H 0.9797 0.90423 0.46185 0.0
H650 H 0.90566 0.99489 0.43743 0.0
H651 H 0.90602 0.98004 0.40413 0.0
H652 H 0.88247 0.96746 0.4295 0.0
H653 H 0.01552 0.92833 0.4415 0.0
H654 H 0.00683 0.9494 0.41262 0.0
H655 H 0.00982 0.9644 0.44575 0.0
H656 H 0.9818 0.01171 0.35579 0.0
H657 H 0.986 0.0494 0.43489 0.0
H658 H 0.93828 0.95649 0.37472 0.0
H659 H 0.97336 0.94651 0.3753 0.0
H660 H 0.96127 0.96892 0.34877 0.0
H661 H 0.94329 0.0024 0.46961 0.0
H662 H 0.96873 0.02858 0.4743 0.0
H663 H 0.97831 0.99309 0.47387 0.0
C664 C 0.39608 0.57351 0.56735 0.0
C665 C 0.38972 0.57065 0.53961 0.0
C666 C 0.40325 0.55073 0.58309 0.0
C667 C 0.40418 0.52468 0.57063 0.0
C668 C 0.39452 0.52135 0.54361 0.0
C669 C 0.38733 0.54445 0.52839 0.0
C670 C 0.41288 0.55506 0.61203 0.0
C671 C 0.39492 0.49392 0.52961 0.0
C672 C 0.46551 0.48182 0.58896 0.0
C673 C 0.45411 0.46163 0.60562 0.0
C674 C 0.44935 0.50232 0.57755 0.0
C675 C 0.42099 0.50283 0.58312 0.0
C676 C 0.40926 0.48258 0.60003 0.0
C677 C 0.42601 0.46204 0.61105 0.0
C678 C 0.46271 0.52337 0.55937 0.0
C679 C 0.37916 0.48272 0.60654 0.0
H680 H 0.39752 0.59372 0.57625 0.0
H681 H 0.38196 0.54209 0.50705 0.0
H682 H 0.40596 0.53824 0.62548 0.0
H683 H 0.43553 0.55529 0.6124 0.0
H684 H 0.40545 0.57474 0.62047 0.0
H685 H 0.38175 0.49371 0.51115 0.0
H686 H 0.41613 0.48914 0.52325 0.0
H687 H 0.38811 0.47753 0.54363 0.0
H688 H 0.48721 0.48152 0.58461 0.0
H689 H 0.41718 0.44646 0.62402 0.0
H690 H 0.45964 0.54407 0.56798 0.0
H691 H 0.45317 0.52304 0.53884 0.0
H692 H 0.48498 0.51986 0.55697 0.0
H693 H 0.37378 0.50182 0.61743 0.0
H694 H 0.37309 0.46509 0.61941 0.0
H695 H 0.36703 0.48229 0.58742 0.0
C696 C 0.55177 0.52443 0.03807 0.0
C697 C 0.57546 0.52739 0.05379 0.0
C698 C 0.54486 0.54369 0.0182 0.0
C699 C 0.56178 0.56681 0.01438 0.0
C700 C 0.5842 0.5713 0.03205 0.0
C701 C 0.59102 0.55129 0.05142 0.0
C702 C 0.52073 0.53803 -0.00019 0.0
C703 C 0.60206 0.59622 0.02937 0.0
C704 C 0.56117 0.5852 0.93998 0.0
C705 C 0.53876 0.60289 0.93899 0.0
C706 C 0.57075 0.57517 0.96495 0.0
C707 C 0.55793 0.58356 0.98946 0.0
C708 C 0.53768 0.60412 0.98872 0.0
C709 C 0.52802 0.61333 0.96338 0.0
C710 C 0.5925 0.55332 0.96477 0.0
C711 C 0.52451 0.61458 0.01451 0.0
H712 H 0.53951 0.50613 0.04003 0.0
H713 H 0.6092 0.55381 0.06378 0.0
H714 H 0.50683 0.55585 -0.00068 0.0
H715 H 0.52797 0.53444 0.97864 0.0
H716 H 0.50887 0.51989 0.00646 0.0
H717 H 0.61309 0.6006 0.0487 0.0
H718 H 0.61749 0.59268 0.01319 0.0
H719 H 0.58993 0.61442 0.02354 0.0
H720 H 0.56977 0.57734 0.92117 0.0
H721 H 0.51099 0.62744 0.96269 0.0
H722 H 0.5832 0.53343 0.97034 0.0
H723 H 0.60851 0.55789 0.98008 0.0
H724 H 0.60232 0.55117 0.94445 0.0
H725 H 0.50858 0.59999 0.02126 0.0
H726 H 0.51466 0.63472 0.01121 0.0
H727 H 0.53971 0.61645 0.0312 0.0
C728 C 0.38003 0.97068 0.01142 0.0
C729 C 0.3956 0.97357 0.03526 0.0
C730 C 0.39063 0.9571 0.98858 0.0
C731 C 0.41749 0.94655 0.98963 0.0
C732 C 0.4322 0.94711 0.01451 0.0
C733 C 0.42097 0.96053 0.03714 0.0
C734 C 0.37408 0.95635 0.9626 0.0
C735 C 0.4609 0.93609 0.01649 0.0
C736 C 0.44869 0.90687 0.93069 0.0
C737 C 0.46278 0.92763 0.91695 0.0
C738 C 0.4331 0.9127 0.95404 0.0
C739 C 0.432 0.9398 0.96392 0.0
C740 C 0.44579 0.96087 0.94976 0.0
C741 C 0.46085 0.95453 0.92637 0.0
C742 C 0.41833 0.88984 0.96844 0.0
C743 C 0.44527 0.99006 0.95971 0.0
H744 H 0.36023 0.98045 0.01001 0.0
H745 H 0.43299 0.96255 0.05561 0.0
H746 H 0.38181 0.97214 0.94834 0.0
H747 H 0.37608 0.93629 0.95233 0.0
H748 H 0.35212 0.96044 0.96649 0.0
H749 H 0.46781 0.93421 0.03801 0.0
H750 H 0.46244 0.91584 0.00654 0.0
H751 H 0.47504 0.95009 0.00568 0.0
H752 H 0.45012 0.88604 0.92339 0.0
H753 H 0.47173 0.97065 0.91584 0.0
H754 H 0.39669 0.89547 0.97201 0.0
H755 H 0.42777 0.88627 0.9887 0.0
H756 H 0.41899 0.87049 0.95665 0.0
H757 H 0.42392 0.99744 0.96104 0.0
H758 H 0.45686 0.00402 0.94612 0.0
H759 H 0.45419 0.99127 0.9805 0.0
C760 C 0.58636 0.40685 0.57311 0.0
C761 C 0.55926 0.39816 0.57034 0.0
C762 C 0.60166 0.41454 0.55016 0.0
C763 C 0.5894 0.4136 0.524 0.0
C764 C 0.56295 0.40243 0.52091 0.0
C765 C 0.5482 0.39476 0.54416 0.0
C766 C 0.62998 0.42594 0.55422 0.0
C767 C 0.54917 0.40101 0.49337 0.0
C768 C 0.60706 0.47083 0.47542 0.0
C769 C 0.62402 0.45772 0.45652 0.0
C770 C 0.59588 0.45663 0.49749 0.0
C771 C 0.602 0.42861 0.50092 0.0
C772 C 0.61938 0.41525 0.48209 0.0
C773 C 0.63012 0.42999 0.45995 0.0
C774 C 0.57724 0.47161 0.51698 0.0
C775 C 0.62645 0.38547 0.48529 0.0
H776 H 0.5951 0.40924 0.5933 0.0
H777 H 0.52733 0.38777 0.54189 0.0
H778 H 0.64413 0.41817 0.53835 0.0
H779 H 0.62931 0.44849 0.55232 0.0
H780 H 0.63833 0.42077 0.57466 0.0
H781 H 0.53066 0.38792 0.49381 0.0
H782 H 0.543 0.42184 0.48702 0.0
H783 H 0.56336 0.39302 0.47766 0.0
H784 H 0.60223 0.49225 0.47282 0.0
H785 H 0.64331 0.41983 0.44539 0.0
H786 H 0.58553 0.47052 0.53802 0.0
H787 H 0.55683 0.4618 0.51721 0.0
H788 H 0.57464 0.49342 0.51142 0.0
H789 H 0.63556 0.38181 0.50569 0.0
H790 H 0.64099 0.37834 0.46942 0.0
H791 H 0.60764 0.37293 0.48401 0.0
C792 C 0.44113 0.09085 0.51448 0.0
C793 C 0.43005 0.08907 0.54081 0.0
C794 C 0.42812 0.07841 0.49225 0.0
C795 C 0.40335 0.06421 0.4965 0.0
C796 C 0.39059 0.06505 0.52241 0.0
C797 C 0.40421 0.07738 0.54437 0.0
C798 C 0.44243 0.078 0.46496 0.0
C799 C 0.36387 0.05064 0.52761 0.0
C800 C 0.36665 0.03303 0.43557 0.0
C801 C 0.37592 0.006 0.43684 0.0
C802 C 0.3752 0.05237 0.45496 0.0
C803 C 0.3937 0.04444 0.47568 0.0
C804 C 0.40337 0.01724 0.47673 0.0
C805 C 0.39418 -0.00167 0.45742 0.0
C806 C 0.36425 0.0811 0.4535 0.0
C807 C 0.42347 0.00803 0.49826 0.0
H808 H 0.46102 0.10008 0.51156 0.0
H809 H 0.39541 0.07626 0.56464 0.0
H810 H 0.45195 0.05769 0.46185 0.0
H811 H 0.42775 0.0813 0.44806 0.0
H812 H 0.45869 0.09374 0.46372 0.0
H813 H 0.35425 0.05748 0.54697 0.0
H814 H 0.34936 0.05415 0.51058 0.0
H815 H 0.36753 0.02835 0.52898 0.0
H816 H 0.35241 0.03893 0.4197 0.0
H817 H 0.4015 0.97748 0.45835 0.0
H818 H 0.38132 0.09586 0.45187 0.0
H819 H 0.353 0.08599 0.47253 0.0
H820 H 0.35032 0.08409 0.43585 0.0
H821 H 0.44217 0.02076 0.49737 0.0
H822 H 0.42944 0.98631 0.49576 0.0
H823 H 0.41445 0.01066 0.51885 0.0
C824 C 0.05333 0.54384 0.5677 0.0
C825 C 0.06565 0.56954 0.56995 0.0
C826 C 0.02978 0.53761 0.58262 0.0
C827 C 0.01885 0.55735 0.60065 0.0
C828 C 0.03378 0.58144 0.60621 0.0
C829 C 0.05695 0.58747 0.59049 0.0
C830 C 0.01473 0.51148 0.5763 0.0
C831 C 0.02364 0.60217 0.62656 0.0
C832 C 0.94225 0.56248 0.59446 0.0
C833 C 0.93348 0.54548 0.61563 0.0
C834 C 0.97003 0.56743 0.5902 0.0
C835 C 0.98952 0.55568 0.60808 0.0
C836 C 0.98065 0.54022 0.6308 0.0
C837 C 0.95266 0.53488 0.63404 0.0
C838 C 0.97852 0.58384 0.56549 0.0
C839 C 0.00058 0.52821 0.65095 0.0
H840 H 0.06032 0.52964 0.55223 0.0
H841 H 0.06679 0.60716 0.59274 0.0
H842 H 0.00795 0.50139 0.59536 0.0
H843 H 0.99624 0.51622 0.56409 0.0
H844 H 0.02752 0.49691 0.56453 0.0
H845 H 0.04031 0.61593 0.6334 0.0
H846 H 0.0075 0.61483 0.61698 0.0
H847 H 0.0146 0.59197 0.64465 0.0
H848 H 0.92747 0.57074 0.58021 0.0
H849 H 0.94588 0.52191 0.65063 0.0
H850 H 0.99089 0.57093 0.55158 0.0
H851 H 0.9914 0.60134 0.57178 0.0
H852 H 0.96075 0.59184 0.55389 0.0
H853 H 0.00734 0.50791 0.64358 0.0
H854 H 0.99092 0.52532 0.67126 0.0
H855 H 0.01892 0.54127 0.65338 0.0
C856 C 0.95793 0.92205 0.57739 0.0
C857 C 0.95168 0.89452 0.5819 0.0
C858 C 0.98122 0.93382 0.58905 0.0
C859 C 0.99814 0.91779 0.60611 0.0
C860 C 0.98953 0.8914 0.61402 0.0
C861 C 0.96649 0.87986 0.6015 0.0
C862 C 0.98952 0.96213 0.58021 0.0
C863 C 0.00626 0.87426 0.63335 0.0
C864 C 0.07329 0.92747 0.592 0.0
C865 C 0.08084 0.94613 0.61226 0.0
C866 C 0.04658 0.91758 0.59038 0.0
C867 C 0.02706 0.92597 0.61001 0.0
C868 C 0.03498 0.94354 0.63155 0.0
C869 C 0.06176 0.95384 0.63214 0.0
C870 C 0.03899 0.89914 0.56682 0.0
C871 C 0.01511 0.95228 0.65337 0.0
H872 H 0.9463 0.93362 0.56255 0.0
H873 H 0.96139 0.85871 0.60548 0.0
H874 H 0.99663 0.97429 0.5979 0.0
H875 H 0.00673 0.96063 0.56556 0.0
H876 H 0.9725 0.9732 0.57013 0.0
H877 H 0.99397 0.85745 0.6423 0.0
H878 H 0.02367 0.86511 0.62213 0.0
H879 H 0.01473 0.88694 0.65011 0.0
H880 H 0.08799 0.92151 0.57658 0.0
H881 H 0.06765 0.96814 0.64797 0.0
H882 H 0.02278 0.90886 0.55433 0.0
H883 H 0.03074 0.87956 0.57459 0.0
H884 H 0.05665 0.8946 0.55334 0.0
H885 H 0.00298 0.96984 0.64586 0.0
H886 H 0.02588 0.95881 0.67223 0.0
H887 H 0.0007 0.93561 0.65858 0.0
C888 C 0.02622 0.41013 0.96702 0.0
C889 C 0.02802 0.41026 0.99558 0.0
C890 C 0.00535 0.42445 0.95356 0.0
C891 C 0.98594 0.43916 0.96909 0.0
C892 C 0.98801 0.43975 0.9979 0.0
C893 C 0.00902 0.42527 0.01078 0.0
C894 C 0.00382 0.42351 0.9228 0.0
C895 C 0.96775 0.45528 0.01519 0.0
C896 C 0.94209 0.49504 0.93837 0.0
C897 C 0.91697 0.48164 0.93546 0.0
C898 C 0.96511 0.48116 0.94826 0.0
C899 C 0.96284 0.4533 0.95548 0.0
C900 C 0.93779 0.43943 0.95157 0.0
C901 C 0.91515 0.45378 0.94156 0.0
C902 C 0.99151 0.49659 0.95203 0.0
C903 C 0.93458 0.40973 0.95907 0.0
H904 H 0.04092 0.39859 0.9552 0.0
H905 H 0.01041 0.42554 0.03288 0.0
H906 H 0.98447 0.41364 0.91639 0.0
H907 H 0.00373 0.44451 0.91438 0.0
H908 H 0.02114 0.41209 0.91368 0.0
H909 H 0.97275 0.45436 0.03729 0.0
H910 H 0.96715 0.47699 0.00885 0.0
H911 H 0.94697 0.4468 0.01213 0.0
H912 H 0.94361 0.51657 0.93361 0.0
H913 H 0.89578 0.44332 0.9393 0.0
H914 H 0.00866 0.48531 0.94247 0.0
H915 H 0.99615 0.49844 0.97412 0.0
H916 H 0.99062 0.5174 0.94311 0.0
H917 H 0.95075 0.39734 0.94919 0.0
H918 H 0.91436 0.40146 0.95299 0.0
H919 H 0.93693 0.40726 0.98146 0.0
C920 C 0.06809 0.08816 0.92662 0.0
C921 C 0.07311 0.067 0.90808 0.0
C922 C 0.04139 0.09482 0.93436 0.0
C923 C 0.01919 0.08031 0.92284 0.0
C924 C 0.02405 0.06069 0.90221 0.0
C925 C 0.05104 0.05401 0.89529 0.0
C926 C 0.03714 0.11577 0.95658 0.0
C927 C 0.00089 0.04544 0.88881 0.0
C928 C 0.96174 0.07132 0.97327 0.0
C929 C 0.94505 0.09371 0.96714 0.0
C930 C 0.98516 0.0658 0.95791 0.0
C931 C 0.99177 0.08279 0.93551 0.0
C932 C 0.97367 0.10391 0.92769 0.0
C933 C 0.95056 0.10932 0.94381 0.0
C934 C 0.00393 0.04311 0.96706 0.0
C935 C 0.97959 0.12188 0.90342 0.0
H936 H 0.08509 0.09833 0.93649 0.0
H937 H 0.05485 0.03783 0.88068 0.0
H938 H 0.02146 0.13084 0.95036 0.0
H939 H 0.02962 0.1055 0.97531 0.0
H940 H 0.05624 0.12688 0.96169 0.0
H941 H 0.00749 0.03524 0.86967 0.0
H942 H 0.99313 0.02959 0.90297 0.0
H943 H 0.9837 0.05941 0.88412 0.0
H944 H 0.95747 0.05905 0.99117 0.0
H945 H 0.9376 0.12654 0.93888 0.0
H946 H 0.02346 0.05192 0.97443 0.0
H947 H 0.00878 0.0294 0.94973 0.0
H948 H 0.99493 0.0307 0.98376 0.0
H949 H 0.99564 0.13687 0.90891 0.0
H950 H 0.96118 0.13331 0.89675 0.0
H951 H 0.98733 0.10964 0.88601 0.0
C952 C 0.57224 0.04559 0.58782 0.0
C953 C 0.54589 0.04517 0.57666 0.0
C954 C 0.59123 0.02508 0.58126 0.0
C955 C 0.58344 0.00383 0.56327 0.0
C956 C 0.55732 0.00429 0.55087 0.0
C957 C 0.53893 0.02494 0.55773 0.0
C958 C 0.61896 0.02548 0.59462 0.0
C959 C 0.54821 0.98224 0.53127 0.0
C960 C 0.62533 0.95279 0.52469 0.0
C961 C 0.61782 0.92881 0.53837 0.0
C962 C 0.61724 0.97837 0.53461 0.0
C963 C 0.60117 0.97976 0.55855 0.0
C964 C 0.59684 0.95593 0.57429 0.0
C965 C 0.60528 0.93064 0.56398 0.0
C966 C 0.62308 0.00343 0.51775 0.0
C967 C 0.58029 0.95663 0.60025 0.0
H968 H 0.57766 0.06126 0.60247 0.0
H969 H 0.51867 0.02475 0.54881 0.0
H970 H 0.61894 0.01131 0.61226 0.0
H971 H 0.63508 0.01859 0.58029 0.0
H972 H 0.62426 0.04616 0.60224 0.0
H973 H 0.52765 0.98631 0.52261 0.0
H974 H 0.56292 0.9804 0.51417 0.0
H975 H 0.54762 0.96229 0.54195 0.0
H976 H 0.63557 0.95151 0.50512 0.0
H977 H 0.5999 0.91217 0.5749 0.0
H978 H 0.62741 0.02128 0.53099 0.0
H979 H 0.60489 0.00838 0.50519 0.0
H980 H 0.64065 0.00018 0.50379 0.0
H981 H 0.58617 0.97433 0.61306 0.0
H982 H 0.58284 0.93767 0.61239 0.0
H983 H 0.55834 0.95887 0.59506 0.0
C984 C 0.59756 0.08237 0.8924 0.0
C985 C 0.61808 0.09136 0.91011 0.0
C986 C 0.59501 0.05471 0.88579 0.0
C987 C 0.61406 0.03571 0.89643 0.0
C988 C 0.63621 0.04506 0.91246 0.0
C989 C 0.63763 0.07278 0.91963 0.0
C990 C 0.57076 0.04563 0.86899 0.0
C991 C 0.65763 0.02573 0.92319 0.0
C992 C 0.57989 0.96772 0.9065 0.0
C993 C 0.58341 0.95602 0.88064 0.0
C994 C 0.59183 0.99287 0.91293 0.0
C995 C 0.60842 0.00609 0.89331 0.0
C996 C 0.61505 0.9925 0.86869 0.0
C997 C 0.60204 0.96774 0.86239 0.0
C998 C 0.58406 0.00665 0.9394 0.0
C999 C 0.63393 0.00521 0.84799 0.0
H1000 H 0.58239 0.09672 0.88508 0.0
H1001 H 0.6537 0.07979 0.93314 0.0
H1002 H 0.57767 0.03392 0.85092 0.0
H1003 H 0.55762 0.03194 0.88135 0.0
H1004 H 0.55818 0.06308 0.86184 0.0
H1005 H 0.67691 0.03663 0.92804 0.0
H1006 H 0.65016 0.01603 0.94222 0.0
H1007 H 0.66206 0.00929 0.90826 0.0
H1008 H 0.56566 0.95863 0.9208 0.0
H1009 H 0.60515 0.95853 0.84251 0.0
H1010 H 0.57062 0.02434 0.93499 0.0
H1011 H 0.60243 0.01452 0.94998 0.0
H1012 H 0.57308 0.99266 0.95344 0.0
H1013 H 0.62264 0.02077 0.83605 0.0
H1014 H 0.64206 0.98975 0.83353 0.0
H1015 H 0.65129 0.01558 0.85822 0.0
C1016 C 0.40488 0.55019 0.86903 0.0
C1017 C 0.42815 0.55173 0.88565 0.0
C1018 C 0.38725 0.52757 0.87053 0.0
C1019 C 0.39353 0.50591 0.88861 0.0
C1020 C 0.41616 0.50823 0.90647 0.0
C1021 C 0.43294 0.53122 0.90496 0.0
C1022 C 0.36283 0.52635 0.85181 0.0
C1023 C 0.42374 0.48567 0.92611 0.0
C1024 C 0.35241 0.44652 0.91383 0.0
C1025 C 0.36487 0.42518 0.89943 0.0
C1026 C 0.35868 0.47379 0.90786 0.0
C1027 C 0.3785 0.4796 0.88769 0.0
C1028 C 0.38856 0.45826 0.87097 0.0
C1029 C 0.38135 0.43122 0.87688 0.0
C1030 C 0.34637 0.49611 0.92511 0.0
C1031 C 0.40962 0.46355 0.84912 0.0
H1032 H 0.40102 0.56607 0.85414 0.0
H1033 H 0.45075 0.5324 0.91805 0.0
H1034 H 0.36833 0.51488 0.83309 0.0
H1035 H 0.34541 0.51573 0.86162 0.0
H1036 H 0.3562 0.5471 0.84557 0.0
H1037 H 0.44179 0.49091 0.9388 0.0
H1038 H 0.4064 0.48118 0.93994 0.0
H1039 H 0.42836 0.46672 0.9146 0.0
H1040 H 0.33921 0.44189 0.93097 0.0
H1041 H 0.39084 0.41475 0.86555 0.0
H1042 H 0.3423 0.51458 0.91268 0.0
H1043 H 0.36092 0.50185 0.94149 0.0
H1044 H 0.32704 0.48937 0.93486 0.0
H1045 H 0.4037 0.48133 0.83647 0.0
H1046 H 0.41249 0.44562 0.83555 0.0
H1047 H 0.42949 0.46839 0.85888 0.0
C1048 C 0.9099 0.06445 0.11001 0.0
C1049 C 0.89205 0.06244 0.08774 0.0
C1050 C 0.92093 0.04092 0.12202 0.0
C1051 C 0.91368 0.01497 0.11156 0.0
C1052 C 0.89268 0.01289 0.09184 0.0
C1053 C 0.88216 0.03673 0.08004 0.0
C1054 C 0.94289 0.04404 0.1434 0.0
C1055 C 0.88376 0.9856 0.08072 0.0
C1056 C 0.97344 0.96704 0.10272 0.0
C1057 C 0.97035 0.94918 0.1248 0.0
C1058 C 0.95482 0.98813 0.09811 0.0
C1059 C 0.93234 0.99147 0.11597 0.0
C1060 C 0.92852 0.97298 0.13785 0.0
C1061 C 0.94771 0.95203 0.14209 0.0
C1062 C 0.95966 0.00726 0.07437 0.0
C1063 C 0.90476 0.97578 0.15721 0.0
H1064 H 0.91736 0.0843 0.11632 0.0
H1065 H 0.86794 0.03508 0.06315 0.0
H1066 H 0.94074 0.02835 0.15954 0.0
H1067 H 0.96317 0.04121 0.13371 0.0
H1068 H 0.94241 0.06456 0.15303 0.0
H1069 H 0.86362 0.98696 0.07037 0.0
H1070 H 0.899 0.97836 0.06561 0.0
H1071 H 0.88252 0.97016 0.09721 0.0
H1072 H 0.99084 0.96488 0.08922 0.0
H1073 H 0.9453 0.93828 0.15924 0.0
H1074 H 0.96241 0.0284 0.08198 0.0
H1075 H 0.94169 0.00725 0.06059 0.0
H1076 H 0.97796 0.00158 0.06226 0.0
H1077 H 0.90847 0.99322 0.17116 0.0
H1078 H 0.90185 0.95714 0.16976 0.0
H1079 H 0.8856 0.98007 0.14592 0.0
C1080 C 0.97478 0.17637 0.36969 0.0
C1081 C 0.99732 0.17011 0.35325 0.0
C1082 C 0.96317 0.20248 0.36937 0.0
C1083 C 0.97411 0.22263 0.35183 0.0
C1084 C 0.99595 0.21598 0.33412 0.0
C1085 C 0.0075 0.18981 0.33523 0.0
C1086 C 0.94019 0.20889 0.38889 0.0
C1087 C 0.00783 0.23683 0.31482 0.0
C1088 C 0.93296 0.2879 0.34351 0.0
C1089 C 0.94619 0.30514 0.36211 0.0
C1090 C 0.94222 0.26108 0.33931 0.0
C1091 C 0.96484 0.25133 0.35445 0.0
C1092 C 0.97828 0.26877 0.37313 0.0
C1093 C 0.96892 0.2955 0.37655 0.0
C1094 C 0.92773 0.24312 0.31891 0.0
C1095 C 0.00223 0.25906 0.38997 0.0
H1096 H 0.96682 0.16115 0.38362 0.0
H1097 H 0.02476 0.18491 0.32228 0.0
H1098 H 0.94739 0.22372 0.40443 0.0
H1099 H 0.92291 0.21851 0.37788 0.0
H1100 H 0.93259 0.19042 0.39958 0.0
H1101 H 0.02228 0.22752 0.30004 0.0
H1102 H 0.99133 0.24724 0.30332 0.0
H1103 H 0.01888 0.25267 0.32664 0.0
H1104 H 0.91547 0.29539 0.33222 0.0
H1105 H 0.97917 0.30873 0.39103 0.0
H1106 H 0.91839 0.22545 0.32951 0.0
H1107 H 0.94257 0.23486 0.30393 0.0
H1108 H 0.91146 0.25423 0.3077 0.0
H1109 H 0.99597 0.24149 0.4028 0.0
H1110 H 0.01045 0.27528 0.40351 0.0
H1111 H 0.01888 0.25191 0.37641 0.0
C1112 C 0.98889 0.69212 0.20588 0.0
C1113 C 0.00415 0.67379 0.19011 0.0
C1114 C 0.99387 0.72029 0.2045 0.0
C1115 C 0.01426 0.73021 0.18661 0.0
C1116 C 0.03079 0.71164 0.17192 0.0
C1117 C 0.02566 0.68361 0.17402 0.0
C1118 C 0.97625 0.73947 0.22093 0.0
C1119 C 0.05261 0.7214 0.15246 0.0
C1120 C 0.00344 0.79887 0.15293 0.0
C1121 C 0.02268 0.81512 0.16644 0.0
C1122 C 0.00023 0.77129 0.15967 0.0
C1123 C 0.01633 0.75985 0.18077 0.0
C1124 C 0.03519 0.77639 0.1951 0.0
C1125 C 0.03834 0.80383 0.18756 0.0
C1126 C 0.98013 0.75422 0.14367 0.0
C1127 C 0.05229 0.76498 0.21804 0.0
H1128 H 0.97236 0.68458 0.21848 0.0
H1129 H 0.03756 0.6695 0.16183 0.0
H1130 H 0.98895 0.75526 0.23103 0.0
H1131 H 0.96182 0.75015 0.20713 0.0
H1132 H 0.96424 0.72854 0.23674 0.0
H1133 H 0.06526 0.70437 0.14449 0.0
H1134 H 0.04289 0.73192 0.13492 0.0
H1135 H 0.0662 0.73636 0.16264 0.0
H1136 H 0.99133 0.80754 0.13657 0.0
H1137 H 0.05309 0.81645 0.19818 0.0
H1138 H 0.96511 0.74473 0.15767 0.0
H1139 H 0.99106 0.73744 0.13309 0.0
H1140 H 0.96888 0.76636 0.12818 0.0
H1141 H 0.03906 0.75476 0.23329 0.0
H1142 H 0.06443 0.78102 0.22851 0.0
H1143 H 0.06651 0.74935 0.20994 0.0
C1144 C 0.33138 0.99518 0.17039 0.0
C1145 C 0.35547 0.01017 0.16683 0.0
C1146 C 0.32415 0.98498 0.19615 0.0
C1147 C 0.34182 0.98939 0.21855 0.0
C1148 C 0.36624 0.00445 0.21497 0.0
C1149 C 0.3726 0.01495 0.18918 0.0
C1150 C 0.29767 0.96959 0.19941 0.0
C1151 C 0.38583 0.0092 0.23832 0.0
C1152 C 0.32068 0.98691 0.29258 0.0
C1153 C 0.33152 0.96174 0.30065 0.0
C1154 C 0.32199 0.99532 0.2653 0.0
C1155 C 0.33507 0.9784 0.24591 0.0
C1156 C 0.34452 0.95222 0.25366 0.0
C1157 C 0.34234 0.94406 0.281 0.0
C1158 C 0.31101 0.02306 0.25764 0.0
C1159 C 0.35889 0.93375 0.23362 0.0
H1160 H 0.31806 0.9916 0.15308 0.0
H1161 H 0.39133 0.02638 0.18637 0.0
H1162 H 0.3018 0.94852 0.20652 0.0
H1163 H 0.28485 0.97957 0.21518 0.0
H1164 H 0.28589 0.96852 0.18006 0.0
H1165 H 0.4043 0.02066 0.2319 0.0
H1166 H 0.37554 0.02081 0.25481 0.0
H1167 H 0.39234 0.98937 0.24709 0.0
H1168 H 0.31209 0.00049 0.3078 0.0
H1169 H 0.35084 0.92463 0.28728 0.0
H1170 H 0.29898 0.02185 0.23849 0.0
H1171 H 0.32826 0.03725 0.25396 0.0
H1172 H 0.29792 0.03182 0.27395 0.0
H1173 H 0.34701 0.93197 0.21443 0.0
H1174 H 0.36224 0.91298 0.24205 0.0
H1175 H 0.37902 0.94266 0.22831 0.0
C1176 C 0.65303 0.44404 0.18097 0.0
C1177 C 0.63062 0.45933 0.1719 0.0
C1178 C 0.66198 0.44585 0.20813 0.0
C1179 C 0.64789 0.46304 0.22654 0.0
C1180 C 0.6251 0.47832 0.21748 0.0
C1181 C 0.61687 0.47641 0.1902 0.0
C1182 C 0.68656 0.42958 0.21707 0.0
C1183 C 0.60933 0.49665 0.23662 0.0
C1184 C 0.64835 0.45312 0.30293 0.0
C1185 C 0.66374 0.47568 0.31141 0.0
C1186 C 0.64439 0.44767 0.27515 0.0
C1187 C 0.65644 0.46504 0.2555 0.0
C1188 C 0.67383 0.4865 0.26396 0.0
C1189 C 0.67714 0.4917 0.29191 0.0
C1190 C 0.62558 0.42468 0.26693 0.0
C1191 C 0.68742 0.50512 0.24354 0.0
H1192 H 0.6638 0.43094 0.16675 0.0
H1193 H 0.5995 0.48821 0.18323 0.0
H1194 H 0.70249 0.44349 0.22517 0.0
H1195 H 0.68084 0.41552 0.23385 0.0
H1196 H 0.69545 0.41742 0.20012 0.0
H1197 H 0.59186 0.50684 0.22637 0.0
H1198 H 0.60139 0.4846 0.25407 0.0
H1199 H 0.623 0.51258 0.24509 0.0
H1200 H 0.63803 0.44061 0.31797 0.0
H1201 H 0.68925 0.50902 0.29843 0.0
H1202 H 0.63486 0.41224 0.25046 0.0
H1203 H 0.60627 0.43331 0.25881 0.0
H1204 H 0.62058 0.41111 0.28438 0.0
H1205 H 0.6968 0.49312 0.22679 0.0
H1206 H 0.70342 0.51801 0.25315 0.0
H1207 H 0.67189 0.51873 0.23427 0.0
C1208 C 0.27914 0.31998 0.94053 0.0
C1209 C 0.29917 0.32807 0.95929 0.0
C1210 C 0.25147 0.31927 0.94807 0.0
C1211 C 0.24383 0.32727 0.97477 0.0
C1212 C 0.26417 0.33397 0.99415 0.0
C1213 C 0.29159 0.33405 0.98622 0.0
C1214 C 0.23035 0.31136 0.92707 0.0
C1215 C 0.2569 0.34287 0.02278 0.0
C1216 C 0.17665 0.36319 0.98707 0.0
C1217 C 0.16212 0.3435 0.00181 0.0
C1218 C 0.20292 0.35774 0.97725 0.0
C1219 C 0.21471 0.33177 0.98182 0.0
C1220 C 0.19957 0.31133 0.99548 0.0
C1221 C 0.17351 0.31755 0.00563 0.0
C1222 C 0.21856 0.38026 0.96315 0.0
C1223 C 0.21125 0.28322 0.00014 0.0
H1224 H 0.28494 0.31515 0.91974 0.0
H1225 H 0.307 0.34018 0.00088 0.0
H1226 H 0.21515 0.29718 0.93603 0.0
H1227 H 0.21919 0.32983 0.92026 0.0
H1228 H 0.23972 0.30156 0.9089 0.0
H1229 H 0.27521 0.34553 0.03589 0.0
H1230 H 0.24574 0.36256 0.02197 0.0
H1231 H 0.24319 0.32775 0.03252 0.0
H1232 H 0.16787 0.38326 0.98406 0.0
H1233 H 0.16215 0.30219 0.01677 0.0
H1234 H 0.22605 0.37319 0.943 0.0
H1235 H 0.2367 0.38583 0.97554 0.0
H1236 H 0.20598 0.39885 0.96006 0.0
H1237 H 0.22007 0.27505 0.98095 0.0
H1238 H 0.19564 0.26868 0.00779 0.0
H1239 H 0.22801 0.28438 0.01533 0.0
C1240 C 0.20083 0.60985 0.4983 0.0
C1241 C 0.17977 0.62087 0.48248 0.0
C1242 C 0.22808 0.61668 0.49318 0.0
C1243 C 0.23432 0.63527 0.47196 0.0
C1244 C 0.21313 0.64658 0.45597 0.0
C1245 C 0.18603 0.63909 0.46133 0.0
C1246 C 0.25021 0.60398 0.51051 0.0
C1247 C 0.21907 0.66671 0.43344 0.0
C1248 C 0.30396 0.66633 0.48228 0.0
C1249 C 0.32018 0.64873 0.46666 0.0
C1250 C 0.27549 0.66368 0.48244 0.0
C1251 C 0.26317 0.64272 0.46686 0.0
C1252 C 0.27929 0.62643 0.44929 0.0
C1253 C 0.30769 0.62977 0.44926 0.0
C1254 C 0.25889 0.68182 0.501 0.0
C1255 C 0.26688 0.60384 0.43239 0.0
H1256 H 0.19602 0.59569 0.5146 0.0
H1257 H 0.16971 0.64773 0.44914 0.0
H1258 H 0.26497 0.59296 0.49734 0.0
H1259 H 0.26168 0.62014 0.52146 0.0
H1260 H 0.24192 0.58945 0.5258 0.0
H1261 H 0.20024 0.67358 0.42284 0.0
H1262 H 0.22964 0.68484 0.44194 0.0
H1263 H 0.23298 0.65742 0.41819 0.0
H1264 H 0.31358 0.68121 0.49554 0.0
H1265 H 0.32019 0.61618 0.43708 0.0
H1266 H 0.2522 0.66997 0.51909 0.0
H1267 H 0.24027 0.68919 0.49042 0.0
H1268 H 0.27078 0.69972 0.50822 0.0
H1269 H 0.26071 0.58685 0.44602 0.0
H1270 H 0.28144 0.59575 0.41701 0.0
H1271 H 0.24828 0.61106 0.42172 0.0
C1272 C 0.70087 0.81487 0.50682 0.0
C1273 C 0.68998 0.83373 0.48829 0.0
C1274 C 0.72916 0.81209 0.50996 0.0
C1275 C 0.74678 0.82895 0.49455 0.0
C1276 C 0.7359 0.84685 0.47465 0.0
C1277 C 0.70754 0.84885 0.47159 0.0
C1278 C 0.74008 0.79232 0.53089 0.0
C1279 C 0.75408 0.86528 0.45795 0.0
C1280 C 0.81356 0.8513 0.52621 0.0
C1281 C 0.83247 0.83624 0.51101 0.0
C1282 C 0.78552 0.84864 0.5214 0.0
C1283 C 0.77625 0.83014 0.50121 0.0
C1284 C 0.7952 0.81397 0.48666 0.0
C1285 C 0.82319 0.81739 0.49157 0.0
C1286 C 0.76588 0.86639 0.53721 0.0
C1287 C 0.78598 0.79366 0.4654 0.0
H1288 H 0.68728 0.80298 0.51958 0.0
H1289 H 0.69913 0.86346 0.45727 0.0
H1290 H 0.75726 0.78032 0.52231 0.0
H1291 H 0.74807 0.8038 0.54871 0.0
H1292 H 0.7241 0.778 0.5382 0.0
H1293 H 0.74261 0.87624 0.44176 0.0
H1294 H 0.76378 0.88061 0.47153 0.0
H1295 H 0.7707 0.85338 0.44826 0.0
H1296 H 0.82072 0.86592 0.54121 0.0
H1297 H 0.83782 0.80559 0.47991 0.0
H1298 H 0.75052 0.85355 0.54776 0.0
H1299 H 0.75468 0.87996 0.52295 0.0
H1300 H 0.77638 0.87924 0.55267 0.0
H1301 H 0.76998 0.7801 0.47392 0.0
H1302 H 0.80308 0.78088 0.45779 0.0
H1303 H 0.77682 0.80461 0.44783 0.0
C1304 C 0.53233 0.81048 0.85765 0.0
C1305 C 0.51742 0.82757 0.8403 0.0
C1306 C 0.52862 0.78216 0.85693 0.0
C1307 C 0.5098 0.77078 0.83817 0.0
C1308 C 0.49575 0.78784 0.81964 0.0
C1309 C 0.4996 0.81613 0.82105 0.0
C1310 C 0.54389 0.76454 0.87709 0.0
C1311 C 0.47589 0.77634 0.79905 0.0
C1312 C 0.5154 0.69445 0.828 0.0
C1313 C 0.49533 0.6849 0.84601 0.0
C1314 C 0.51961 0.72247 0.82431 0.0
C1315 C 0.50359 0.74123 0.83927 0.0
C1316 C 0.4826 0.73169 0.85667 0.0
C1317 C 0.4786 0.70356 0.8597 0.0
C1318 C 0.54185 0.73197 0.80522 0.0
C1319 C 0.46517 0.75115 0.87303 0.0
H1320 H 0.5461 0.81931 0.87257 0.0
H1321 H 0.48817 0.82933 0.80747 0.0
H1322 H 0.52919 0.75466 0.8912 0.0
H1323 H 0.55497 0.74805 0.86626 0.0
H1324 H 0.55879 0.77643 0.88938 0.0
H1325 H 0.46874 0.79204 0.78434 0.0
H1326 H 0.48544 0.75938 0.78751 0.0
H1327 H 0.45786 0.76787 0.8098 0.0
H1328 H 0.52825 0.68001 0.81724 0.0
H1329 H 0.46309 0.69621 0.87365 0.0
H1330 H 0.55852 0.74158 0.81716 0.0
H1331 H 0.53385 0.74764 0.79099 0.0
H1332 H 0.55059 0.71492 0.79309 0.0
H1333 H 0.47817 0.76248 0.88773 0.0
H1334 H 0.44885 0.74047 0.88459 0.0
H1335 H 0.45554 0.76641 0.85938 0.0
C1336 C 0.50717 0.30331 0.66246 0.0
C1337 C 0.4898 0.31986 0.64693 0.0
C1338 C 0.50532 0.27482 0.661 0.0
C1339 C 0.4859 0.26281 0.64333 0.0
C1340 C 0.46738 0.27944 0.6287 0.0
C1341 C 0.46945 0.30784 0.63083 0.0
C1342 C 0.52506 0.25765 0.67727 0.0
C1343 C 0.44649 0.26732 0.60953 0.0
C1344 C 0.50319 0.19478 0.61129 0.0
C1345 C 0.48617 0.17707 0.62585 0.0
C1346 C 0.50346 0.22275 0.61702 0.0
C1347 C 0.48658 0.23308 0.63807 0.0
C1348 C 0.46982 0.21519 0.65328 0.0
C1349 C 0.46967 0.18734 0.64683 0.0
C1350 C 0.5214 0.24131 0.60018 0.0
C1351 C 0.45189 0.22552 0.67612 0.0
H1352 H 0.5228 0.3126 0.67508 0.0
H1353 H 0.45595 0.32061 0.61882 0.0
H1354 H 0.51408 0.24106 0.68806 0.0
H1355 H 0.53994 0.24791 0.66326 0.0
H1356 H 0.53653 0.26992 0.6925 0.0
H1357 H 0.43219 0.28293 0.60142 0.0
H1358 H 0.45706 0.25751 0.59206 0.0
H1359 H 0.43449 0.25128 0.62002 0.0
H1360 H 0.51593 0.18685 0.59503 0.0
H1361 H 0.45662 0.1736 0.65824 0.0
H1362 H 0.53567 0.25263 0.61364 0.0
H1363 H 0.50864 0.25663 0.58946 0.0
H1364 H 0.53352 0.22995 0.58475 0.0
H1365 H 0.4643 0.23707 0.69114 0.0
H1366 H 0.44119 0.20871 0.68691 0.0
H1367 H 0.43639 0.23978 0.66784 0.0
C1368 C 0.81666 0.55303 0.82495 0.0
C1369 C 0.8409 0.54257 0.83591 0.0
C1370 C 0.81251 0.55361 0.79658 0.0
C1371 C 0.83335 0.54401 0.77903 0.0
C1372 C 0.85843 0.53485 0.79009 0.0
C1373 C 0.86177 0.53396 0.81843 0.0
C1374 C 0.7854 0.56316 0.7855 0.0
C1375 C 0.88141 0.52503 0.77203 0.0
C1376 C 0.82118 0.51277 0.70963 0.0
C1377 C 0.83025 0.53364 0.6924 0.0
C1378 C 0.82004 0.51665 0.73795 0.0
C1379 C 0.82874 0.54182 0.7492 0.0
C1380 C 0.83634 0.5635 0.73174 0.0
C1381 C 0.83678 0.55921 0.70346 0.0
C1382 C 0.81121 0.49324 0.75591 0.0
C1383 C 0.84604 0.5905 0.74297 0.0
H1384 H 0.80045 0.55951 0.83854 0.0
H1385 H 0.8806 0.52605 0.82695 0.0
H1386 H 0.78846 0.57825 0.76892 0.0
H1387 H 0.77429 0.54556 0.77659 0.0
H1388 H 0.77242 0.57249 0.80158 0.0
H1389 H 0.90033 0.52072 0.78376 0.0
H1390 H 0.87514 0.50609 0.76133 0.0
H1391 H 0.88611 0.54051 0.7562 0.0
H1392 H 0.81588 0.49307 0.70107 0.0
H1393 H 0.84383 0.5754 0.69015 0.0
H1394 H 0.79656 0.50038 0.77162 0.0
H1395 H 0.82923 0.48482 0.76673 0.0
H1396 H 0.80156 0.47654 0.74398 0.0
H1397 H 0.83211 0.59793 0.75918 0.0
H1398 H 0.84759 0.60634 0.72684 0.0
H1399 H 0.86649 0.5878 0.75234 0.0
C1400 C 0.16891 0.9748 0.70336 0.0
C1401 C 0.18115 0.99248 0.68457 0.0
C1402 C 0.16974 0.98038 0.73137 0.0
C1403 C 0.18396 0.0037 0.74077 0.0
C1404 C 0.19814 0.02046 0.722 0.0
C1405 C 0.19612 0.01493 0.69396 0.0
C1406 C 0.15375 0.9624 0.75064 0.0
C1407 C 0.21437 0.04488 0.73141 0.0
C1408 C 0.15608 0.03551 0.80535 0.0
C1409 C 0.17226 0.02309 0.82532 0.0
C1410 C 0.16009 0.02979 0.77765 0.0
C1411 C 0.18144 0.01195 0.76978 0.0
C1412 C 0.19881 0.00054 0.78984 0.0
C1413 C 0.19365 0.00583 0.81751 0.0
C1414 C 0.14065 0.04178 0.75693 0.0
C1415 C 0.22237 0.98226 0.78212 0.0
H1416 H 0.15716 0.95753 0.69606 0.0
H1417 H 0.20574 0.02849 0.67938 0.0
H1418 H 0.16695 0.95525 0.76756 0.0
H1419 H 0.13684 0.97433 0.75985 0.0
H1420 H 0.14493 0.94431 0.7402 0.0
H1421 H 0.22765 0.05306 0.71496 0.0
H1422 H 0.20025 0.06129 0.738 0.0
H1423 H 0.22727 0.03948 0.74922 0.0
H1424 H 0.13944 0.04875 0.81149 0.0
H1425 H 0.20632 0.99645 0.83304 0.0
H1426 H 0.12967 0.02512 0.7462 0.0
H1427 H 0.1521 0.05345 0.7413 0.0
H1428 H 0.12534 0.05554 0.76643 0.0
H1429 H 0.21449 0.9626 0.77414 0.0
H1430 H 0.23594 0.97794 0.79976 0.0
H1431 H 0.23463 0.99178 0.76563 0.0
C1432 C 0.79845 0.13713 0.00228 0.0
C1433 C 0.82121 0.15437 0.00309 0.0
C1434 C 0.77314 0.14659 0.99299 0.0
C1435 C 0.77051 0.17404 0.98437 0.0
C1436 C 0.79339 0.19162 0.98517 0.0
C1437 C 0.81856 0.18155 0.99451 0.0
C1438 C 0.7492 0.12716 0.99242 0.0
C1439 C 0.79126 0.22101 0.97624 0.0
C1440 C 0.7084 0.18349 0.93965 0.0
C1441 C 0.68859 0.1901 0.95919 0.0
C1442 C 0.73584 0.18027 0.94715 0.0
C1443 C 0.74353 0.18397 0.97476 0.0
C1444 C 0.72406 0.19325 0.99396 0.0
C1445 C 0.69675 0.19612 0.98595 0.0
C1446 C 0.75603 0.17049 0.92603 0.0
C1447 C 0.73153 0.19783 0.02351 0.0
H1448 H 0.80041 0.11611 0.00886 0.0
H1449 H 0.83615 0.19495 0.99512 0.0
H1450 H 0.73254 0.13505 0.00556 0.0
H1451 H 0.74103 0.12556 0.97135 0.0
H1452 H 0.75477 0.10639 -0.00043 0.0
H1453 H 0.81099 0.23202 0.97812 0.0
H1454 H 0.78438 0.22205 0.95469 0.0
H1455 H 0.77573 0.23176 0.98872 0.0
H1456 H 0.70221 0.17893 0.91889 0.0
H1457 H 0.68152 0.20151 0.00107 0.0
H1458 H 0.7606 0.14861 0.92962 0.0
H1459 H 0.77553 0.18186 0.9277 0.0
H1460 H 0.74802 0.17275 0.90494 0.0
H1461 H 0.73452 0.17783 0.03367 0.0
H1462 H 0.71538 0.20916 0.03467 0.0
H1463 H 0.75098 0.20929 0.0252 0.0
C1464 C 0.07989 0.97265 0.18997 0.0
C1465 C 0.06482 0.95002 0.1989 0.0
C1466 C 0.08358 0.99543 0.20695 0.0
C1467 C 0.07198 0.99538 0.23338 0.0
C1468 C 0.05849 0.97176 0.24313 0.0
C1469 C 0.05502 0.94938 0.22572 0.0
C1470 C 0.09825 0.02015 0.19593 0.0
C1471 C 0.04613 0.97076 0.27136 0.0
C1472 C 0.0862 0.04615 0.28975 0.0
C1473 C 0.06191 0.06129 0.2895 0.0
C1474 C 0.09095 0.02581 0.27015 0.0
C1475 C 0.07098 0.02074 0.24991 0.0
C1476 C 0.04775 0.03782 0.24803 0.0
C1477 C 0.04346 0.05787 0.26793 0.0
C1478 C 0.11612 0.00824 0.27262 0.0
C1479 C 0.02618 0.03338 0.22644 0.0
H1480 H 0.08755 0.9732 0.16923 0.0
H1481 H 0.04356 0.93182 0.23276 0.0
H1482 H 0.0831 0.03618 0.19084 0.0
H1483 H 0.1123 0.02877 0.21145 0.0
H1484 H 0.11008 0.01531 0.1772 0.0
H1485 H 0.03857 0.95007 0.27668 0.0
H1486 H 0.06135 0.9771 0.28688 0.0
H1487 H 0.02876 0.98523 0.27255 0.0
H1488 H 0.10059 0.0488 0.30635 0.0
H1489 H 0.0248 0.06975 0.26751 0.0
H1490 H 0.12512 0.00409 0.25226 0.0
H1491 H 0.11045 0.98833 0.28175 0.0
H1492 H 0.13188 0.01788 0.28578 0.0
H1493 H 0.03569 0.03109 0.20603 0.0
H1494 H 0.01127 0.05043 0.22564 0.0
H1495 H 0.0149 0.01426 0.23089 0.0
C1496 C 0.88697 0.46143 0.32231 0.0
C1497 C 0.89912 0.43625 0.31617 0.0
C1498 C 0.88997 0.48385 0.30478 0.0
C1499 C 0.90567 0.48099 0.28072 0.0
C1500 C 0.91593 0.45501 0.27329 0.0
C1501 C 0.91241 0.43288 0.29108 0.0
C1502 C 0.87822 0.51106 0.31314 0.0
C1503 C 0.93267 0.45107 0.24772 0.0
C1504 C 0.91035 0.53608 0.22641 0.0
C1505 C 0.93539 0.54834 0.23301 0.0
C1506 C 0.8997 0.51482 0.2424 0.0
C1507 C 0.91458 0.50556 0.26535 0.0
C1508 C 0.93921 0.51876 0.27281 0.0
C1509 C 0.94926 0.54005 0.25659 0.0
C1510 C 0.87321 0.50151 0.23404 0.0
C1511 C 0.95566 0.50955 0.29722 0.0
H1512 H 0.87647 0.46409 0.3416 0.0
H1513 H 0.92178 0.41345 0.2862 0.0
H1514 H 0.89488 0.52441 0.32071 0.0
H1515 H 0.86865 0.52144 0.29545 0.0
H1516 H 0.86278 0.50891 0.3296 0.0
H1517 H 0.93637 0.42917 0.24322 0.0
H1518 H 0.92234 0.46048 0.22992 0.0
H1519 H 0.95269 0.46136 0.2502 0.0
H1520 H 0.89952 0.54245 0.2082 0.0
H1521 H 0.96859 0.54946 0.26181 0.0
H1522 H 0.85945 0.49933 0.25188 0.0
H1523 H 0.87736 0.48072 0.22613 0.0
H1524 H 0.86245 0.51328 0.21792 0.0
H1525 H 0.94273 0.50951 0.31581 0.0
H1526 H 0.97367 0.52279 0.301 0.0
H1527 H 0.9629 0.48835 0.29396 0.0
C1528 C 0.21803 0.09116 0.95882 0.0
C1529 C 0.2186 0.06526 0.94665 0.0
C1530 C 0.2381 0.09888 0.97784 0.0
C1531 C 0.2588 0.08005 0.98499 0.0
C1532 C 0.26023 0.05449 0.97157 0.0
C1533 C 0.24022 0.04752 0.95246 0.0
C1534 C 0.23628 0.12654 0.99122 0.0
C1535 C 0.28204 0.03378 0.97849 0.0
C1536 C 0.32477 0.09113 0.02266 0.0
C1537 C 0.31863 0.07867 0.04768 0.0
C1538 C 0.30449 0.09483 0.00279 0.0
C1539 C 0.27771 0.08544 0.00805 0.0
C1540 C 0.27083 0.07578 0.03441 0.0
C1541 C 0.29141 0.07267 0.05402 0.0
C1542 C 0.3124 0.10614 0.97528 0.0
C1543 C 0.24245 0.06573 0.04093 0.0
H1544 H 0.20138 0.105 0.95427 0.0
H1545 H 0.24088 0.02756 0.94295 0.0
H1546 H 0.22724 0.12433 0.01185 0.0
H1547 H 0.25682 0.13574 0.9937 0.0
H1548 H 0.22325 0.14075 0.97929 0.0
H1549 H 0.28083 0.01529 0.96542 0.0
H1550 H 0.3026 0.04292 0.97608 0.0
H1551 H 0.27993 0.02741 0.00012 0.0
H1552 H 0.34575 0.09625 0.01784 0.0
H1553 H 0.28651 0.06332 0.07346 0.0
H1554 H 0.29603 0.1194 0.96697 0.0
H1555 H 0.31543 0.08905 0.96073 0.0
H1556 H 0.33168 0.11802 0.97637 0.0
H1557 H 0.22685 0.08029 0.03343 0.0
H1558 H 0.23944 0.06267 0.0632 0.0
H1559 H 0.23892 0.04595 0.03046 0.0
C1560 C 0.6958 0.46363 0.04135 0.0
C1561 C 0.67021 0.45301 0.03436 0.0
C1562 C 0.7158 0.46798 0.02142 0.0
C1563 C 0.71008 0.46136 0.99386 0.0
C1564 C 0.6848 0.44928 0.98688 0.0
C1565 C 0.66507 0.44532 0.00726 0.0
C1566 C 0.74255 0.48092 0.02968 0.0
C1567 C 0.67814 0.4417 0.95777 0.0
C1568 C 0.75055 0.5054 0.94541 0.0
C1569 C 0.77345 0.48896 0.94065 0.0
C1570 C 0.72873 0.4959 0.96122 0.0
C1571 C 0.72986 0.46928 0.97237 0.0
C1572 C 0.75183 0.4518 0.96565 0.0
C1573 C 0.77347 0.46189 0.94986 0.0
C1574 C 0.70556 0.51513 0.96778 0.0
C1575 C 0.75349 0.42315 0.97679 0.0
H1576 H 0.69989 0.46953 0.06229 0.0
H1577 H 0.64531 0.43702 0.00179 0.0
H1578 H 0.75991 0.46837 0.02239 0.0
H1579 H 0.74442 0.50131 0.02005 0.0
H1580 H 0.74436 0.4834 0.05215 0.0
H1581 H 0.65925 0.42924 0.95632 0.0
H1582 H 0.67523 0.46052 0.94555 0.0
H1583 H 0.69524 0.43018 0.94844 0.0
H1584 H 0.75035 0.52627 0.93813 0.0
H1585 H 0.79107 0.44903 0.94606 0.0
H1586 H 0.70676 0.5212 0.98958 0.0
H1587 H 0.6856 0.50492 0.96467 0.0
H1588 H 0.70617 0.53389 0.95509 0.0
H1589 H 0.75875 0.42395 -0.0012 0.0
H1590 H 0.76925 0.41082 0.96612 0.0
H1591 H 0.73351 0.41266 0.97494 0.0
C1592 C 0.28658 0.90298 0.44935 0.0
C1593 C 0.28358 0.92401 0.43019 0.0
C1594 C 0.27003 0.90201 0.47275 0.0
C1595 C 0.25038 0.92273 0.47707 0.0
C1596 C 0.24586 0.94268 0.45667 0.0
C1597 C 0.26239 0.94294 0.43339 0.0
C1598 C 0.27491 0.87998 0.49368 0.0
C1599 C 0.22505 0.96513 0.46041 0.0
C1600 C 0.19532 0.92357 0.53117 0.0
C1601 C 0.20667 0.9416 0.5503 0.0
C1602 C 0.21017 0.91535 0.5081 0.0
C1603 C 0.23674 0.92582 0.50396 0.0
C1604 C 0.24896 0.94248 0.52421 0.0
C1605 C 0.2338 0.95002 0.54728 0.0
C1606 C 0.19671 0.89701 0.48733 0.0
C1607 C 0.27726 0.95413 0.52053 0.0
H1608 H 0.30284 0.88819 0.4469 0.0
H1609 H 0.25984 0.95913 0.41853 0.0
H1610 H 0.28642 0.88863 0.51117 0.0
H1611 H 0.25529 0.87202 0.5017 0.0
H1612 H 0.28688 0.86274 0.48512 0.0
H1613 H 0.22259 0.97776 0.44175 0.0
H1614 H 0.2049 0.95642 0.46591 0.0
H1615 H 0.23148 0.97864 0.47743 0.0
H1616 H 0.1744 0.91678 0.53359 0.0
H1617 H 0.24267 0.96389 0.56206 0.0
H1618 H 0.21125 0.88136 0.47981 0.0
H1619 H 0.19015 0.90933 0.46951 0.0
H1620 H 0.17847 0.88658 0.49585 0.0
H1621 H 0.29192 0.93776 0.51513 0.0
H1622 H 0.2847 0.96466 0.53918 0.0
H1623 H 0.27712 0.969 0.50346 0.0
C1624 C 0.81859 0.55257 0.52344 0.0
C1625 C 0.80598 0.54611 0.54832 0.0
C1626 C 0.80363 0.55276 0.49901 0.0
C1627 C 0.77552 0.54621 0.4996 0.0
C1628 C 0.76234 0.54166 0.52492 0.0
C1629 C 0.77775 0.54175 0.54901 0.0
C1630 C 0.8183 0.55809 0.47246 0.0
C1631 C 0.73234 0.5347 0.52641 0.0
C1632 C 0.72636 0.55482 0.44055 0.0
C1633 C 0.72398 0.5278 0.43141 0.0
C1634 C 0.74452 0.56163 0.46164 0.0
C1635 C 0.76042 0.54088 0.47387 0.0
C1636 C 0.75955 0.514 0.46331 0.0
C1637 C 0.74138 0.50781 0.44212 0.0
C1638 C 0.74531 0.59061 0.47202 0.0
C1639 C 0.77634 0.4913 0.47568 0.0
H1640 H 0.84042 0.55607 0.52281 0.0
H1641 H 0.7679 0.53685 0.5682 0.0
H1642 H 0.82126 0.53853 0.46145 0.0
H1643 H 0.80606 0.57163 0.45908 0.0
H1644 H 0.83865 0.56752 0.47581 0.0
H1645 H 0.72472 0.53416 0.54776 0.0
H1646 H 0.72013 0.54976 0.51475 0.0
H1647 H 0.72882 0.51439 0.51702 0.0
H1648 H 0.71304 0.57039 0.43221 0.0
H1649 H 0.73975 0.48693 0.435 0.0
H1650 H 0.76666 0.59732 0.47543 0.0
H1651 H 0.73458 0.59177 0.49193 0.0
H1652 H 0.73529 0.60501 0.45767 0.0
H1653 H 0.7981 0.49739 0.47705 0.0
H1654 H 0.77494 0.4721 0.46371 0.0
H1655 H 0.76915 0.48715 0.49675 0.0
C1656 C 0.02532 0.28453 0.02766 0.0
C1657 C 0.04086 0.29498 0.04927 0.0
C1658 C 0.00767 0.26243 0.03158 0.0
C1659 C 0.00552 0.25043 0.05777 0.0
C1660 C 0.0212 0.26081 0.0797 0.0
C1661 C 0.03873 0.28303 0.07519 0.0
C1662 C 0.99132 0.25191 0.00762 0.0
C1663 C 0.01944 0.24844 0.10785 0.0
C1664 C 0.94114 0.20841 0.06566 0.0
C1665 C 0.95053 0.18256 0.05789 0.0
C1666 C 0.95923 0.23056 0.06756 0.0
C1667 C 0.98724 0.22658 0.06163 0.0
C1668 C 0.99707 0.20007 0.05586 0.0
C1669 C 0.97857 0.17838 0.05401 0.0
C1670 C 0.94802 0.25853 0.07392 0.0
C1671 C 0.02682 0.19494 0.04961 0.0
H1672 H 0.02683 0.29374 0.00762 0.0
H1673 H 0.05065 0.29114 0.09199 0.0
H1674 H 0.99654 0.23024 0.00365 0.0
H1675 H 0.9692 0.25277 0.01237 0.0
H1676 H 0.99509 0.26379 0.98869 0.0
H1677 H 0.03279 0.25908 0.12279 0.0
H1678 H 0.99809 0.24927 0.11533 0.0
H1679 H 0.0254 0.22663 0.10706 0.0
H1680 H 0.91948 0.2117 0.06874 0.0
H1681 H 0.98596 0.15834 0.04826 0.0
H1682 H 0.94815 0.27111 0.0551 0.0
H1683 H 0.961 0.26904 0.0892 0.0
H1684 H 0.92677 0.2576 0.08176 0.0
H1685 H 0.0319 0.20382 0.02941 0.0
H1686 H 0.03173 0.17282 0.04912 0.0
H1687 H 0.04006 0.20499 0.06498 0.0
C1688 C 0.02145 0.66638 0.48762 0.0
C1689 C 0.04823 0.66863 0.49741 0.0
C1690 C 0.00346 0.68858 0.48879 0.0
C1691 C 0.01256 0.71357 0.50004 0.0
C1692 C 0.03966 0.71604 0.50972 0.0
C1693 C 0.05721 0.69351 0.50829 0.0
C1694 C 0.97468 0.68524 0.47826 0.0
C1695 C 0.05004 0.7424 0.52187 0.0
C1696 C 0.97509 0.77905 0.48312 0.0
C1697 C 0.95957 0.78309 0.5068 0.0
C1698 C 0.99214 0.75625 0.48045 0.0
C1699 C 0.99364 0.7371 0.502 0.0
C1700 C 0.97762 0.7408 0.52574 0.0
C1701 C 0.96075 0.76379 0.52786 0.0
C1702 C 0.00891 0.7529 0.45481 0.0
C1703 C 0.9787 0.72075 0.54911 0.0
H1704 H 0.01442 0.64713 0.47922 0.0
H1705 H 0.07788 0.69531 0.51591 0.0
H1706 H 0.95991 0.68884 0.49503 0.0
H1707 H 0.97047 0.70062 0.4622 0.0
H1708 H 0.97099 0.6646 0.46967 0.0
H1709 H 0.0718 0.74105 0.52811 0.0
H1710 H 0.04784 0.75921 0.50688 0.0
H1711 H 0.03767 0.74791 0.54001 0.0
H1712 H 0.97422 0.79393 0.46678 0.0
H1713 H 0.94876 0.76685 0.5462 0.0
H1714 H 0.00467 0.7328 0.44531 0.0
H1715 H 0.03096 0.75339 0.45997 0.0
H1716 H 0.00469 0.76914 0.43958 0.0
H1717 H 0.97376 0.69994 0.54172 0.0
H1718 H 0.96429 0.72614 0.56576 0.0
H1719 H -0.00034 0.72005 0.55766 0.0
C1720 C 0.53466 0.80168 0.53475 0.0
C1721 C 0.5567 0.7954 0.51762 0.0
C1722 C 0.51239 0.78384 0.53709 0.0
C1723 C 0.51243 0.75916 0.5221 0.0
C1724 C 0.53548 0.75196 0.50623 0.0
C1725 C 0.5573 0.77026 0.50408 0.0
C1726 C 0.48817 0.79217 0.5542 0.0
C1727 C 0.53646 0.7256 0.49027 0.0
C1728 C 0.46343 0.70081 0.53445 0.0
C1729 C 0.44589 0.70349 0.51199 0.0
C1730 C 0.4844 0.71973 0.53904 0.0
C1731 C 0.48763 0.74187 0.52083 0.0
C1732 C 0.46871 0.74575 0.49933 0.0
C1733 C 0.4481 0.7264 0.49508 0.0
C1734 C 0.50417 0.71495 0.56218 0.0
C1735 C 0.47126 0.76939 0.47972 0.0
H1736 H 0.53413 0.82116 0.54521 0.0
H1737 H 0.57441 0.76529 0.49096 0.0
H1738 H 0.47088 0.79755 0.5406 0.0
H1739 H 0.48136 0.77503 0.5673 0.0
H1740 H 0.49279 0.81004 0.56736 0.0
H1741 H 0.5568 0.72196 0.48095 0.0
H1742 H 0.53142 0.70809 0.50369 0.0
H1743 H 0.52099 0.72615 0.47373 0.0
H1744 H 0.46175 0.68312 0.54761 0.0
H1745 H 0.43442 0.72864 0.47783 0.0
H1746 H 0.50802 0.73414 0.57355 0.0
H1747 H 0.52401 0.70797 0.55378 0.0
H1748 H 0.49663 0.69926 0.5767 0.0
H1749 H 0.47372 0.78883 0.49106 0.0
H1750 H 0.45324 0.77117 0.46606 0.0
H1751 H 0.48971 0.76662 0.4669 0.0
C1752 C 0.53406 0.52786 0.81244 0.0
C1753 C 0.51718 0.55007 0.80607 0.0
C1754 C 0.53788 0.50654 0.79374 0.0
C1755 C 0.52466 0.50766 0.7681 0.0
C1756 C 0.50865 0.53067 0.76111 0.0
C1757 C 0.50502 0.55157 0.78025 0.0
C1758 C 0.55502 0.48227 0.80188 0.0
C1759 C 0.49446 0.53272 0.73381 0.0
C1760 C 0.54444 0.46308 0.7082 0.0
C1761 C 0.5229 0.44426 0.70796 0.0
C1762 C 0.54614 0.48314 0.72854 0.0
C1763 C 0.52592 0.48414 0.74912 0.0
C1764 C 0.50522 0.46401 0.75 0.0
C1765 C 0.5039 0.44434 0.7293 0.0
C1766 C 0.56849 0.50428 0.72696 0.0
C1767 C 0.48351 0.46421 0.77188 0.0
H1768 H 0.54345 0.52662 0.83243 0.0
H1769 H 0.49205 0.56877 0.77524 0.0
H1770 H 0.54174 0.46408 0.80414 0.0
H1771 H 0.57021 0.47754 0.78578 0.0
H1772 H 0.56596 0.48569 0.82146 0.0
H1773 H 0.48436 0.55279 0.73085 0.0
H1774 H 0.50929 0.52953 0.71701 0.0
H1775 H 0.47876 0.51649 0.73213 0.0
H1776 H 0.5592 0.46306 0.69172 0.0
H1777 H 0.48732 0.42969 0.72926 0.0
H1778 H 0.57831 0.50704 0.74718 0.0
H1779 H 0.55956 0.52421 0.72101 0.0
H1780 H 0.58442 0.49874 0.71181 0.0
H1781 H 0.49296 0.46591 0.79239 0.0
H1782 H 0.47062 0.44557 0.77132 0.0
H1783 H 0.47011 0.48224 0.76909 0.0
C1784 C 0.47138 0.97317 0.7868 0.0
C1785 C 0.49283 0.95435 0.78479 0.0
C1786 C 0.46563 0.99118 0.76535 0.0
C1787 C 0.4816 0.9901 0.74133 0.0
C1788 C 0.50247 0.9703 0.73872 0.0
C1789 C 0.50792 0.95271 0.76058 0.0
C1790 C 0.44334 0.01215 0.76887 0.0
C1791 C 0.51974 0.96838 0.71326 0.0
C1792 C 0.45882 0.02514 0.67622 0.0
C1793 C 0.47548 0.04839 0.67633 0.0
C1794 C 0.45998 0.00624 0.69768 0.0
C1795 C 0.47802 0.01096 0.71974 0.0
C1796 C 0.49393 0.03504 0.72052 0.0
C1797 C 0.49255 0.05342 0.6987 0.0
C1798 C 0.44284 0.98069 0.69616 0.0
C1799 C 0.51317 0.04093 0.7439 0.0
H1800 H 0.45967 0.97448 0.80552 0.0
H1801 H 0.52442 0.93807 0.75892 0.0
H1802 H 0.45249 0.03283 0.76975 0.0
H1803 H 0.42925 0.01176 0.75115 0.0
H1804 H 0.43132 0.00879 0.7878 0.0
H1805 H 0.53361 0.95046 0.71361 0.0
H1806 H 0.50655 0.967 0.69491 0.0
H1807 H 0.53229 0.9871 0.71117 0.0
H1808 H 0.44566 0.02117 0.65888 0.0
H1809 H 0.50535 0.07146 0.69889 0.0
H1810 H 0.43111 0.97793 0.71532 0.0
H1811 H 0.45633 0.96266 0.69388 0.0
H1812 H 0.42834 0.9811 0.67873 0.0
H1813 H 0.50217 0.03957 0.76363 0.0
H1814 H 0.52265 0.06145 0.74229 0.0
H1815 H 0.52967 0.02543 0.74428 0.0
C1816 C 0.45481 0.30919 0.88371 0.0
C1817 C 0.43304 0.29782 0.89844 0.0
C1818 C 0.47979 0.29537 0.88134 0.0
C1819 C 0.48299 0.2697 0.89411 0.0
C1820 C 0.46025 0.25704 0.90671 0.0
C1821 C 0.43548 0.27125 0.90864 0.0
C1822 C 0.50334 0.3093 0.86723 0.0
C1823 C 0.46272 0.22953 0.92034 0.0
C1824 C 0.54495 0.22385 0.88643 0.0
C1825 C 0.5587 0.22905 0.91102 0.0
C1826 C 0.521 0.2381 0.87967 0.0
C1827 C 0.51066 0.25787 0.898 0.0
C1828 C 0.52563 0.26458 0.92183 0.0
C1829 C 0.54949 0.2501 0.92801 0.0
C1830 C 0.50586 0.23068 0.85389 0.0
C1831 C 0.51548 0.28578 0.9418 0.0
H1832 H 0.45298 0.32966 0.87556 0.0
H1833 H 0.41868 0.26229 0.9199 0.0
H1834 H 0.51747 0.31773 0.8828 0.0
H1835 H 0.51507 0.29459 0.85464 0.0
H1836 H 0.49634 0.32632 0.854 0.0
H1837 H 0.44254 0.22113 0.92633 0.0
H1838 H 0.47295 0.21475 0.90659 0.0
H1839 H 0.47549 0.23148 0.93896 0.0
H1840 H 0.552 0.20761 0.87317 0.0
H1841 H 0.56013 0.25431 0.94696 0.0
H1842 H 0.49847 0.24924 0.84326 0.0
H1843 H 0.48773 0.2182 0.85916 0.0
H1844 H 0.51882 0.21874 0.83962 0.0
H1845 H 0.51078 0.30512 0.93104 0.0
H1846 H 0.53056 0.2901 0.95818 0.0
H1847 H 0.4963 0.27856 0.95144 0.0
loop_
_geom_bond_atom_site_label_1
_geom_bond_atom_site_label_2
_geom_bond_distance
_geom_bond_site_symmetry_2
_ccdc_geom_bond_type
In0 O1 2.294 . S
In0 O2 2.326 1_455 S
In0 O6 2.266 . S
In0 O7 2.325 . S
In0 O8 2.266 1_455 S
In0 O9 2.326 1_455 S
In0 O11 2.294 1_455 S
In0 O12 2.326 . S
O1 In0 2.294 . S
O1 C10 1.240 1_455 S
O2 In0 2.326 1_655 S
O2 C10 1.252 . S
C3 O6 1.252 . S
C3 O7 1.260 . S
C4 O11 1.240 . S
C4 O12 1.252 1_655 S
C5 O8 1.252 . S
C5 O9 1.260 . S
O6 In0 2.266 . S
O6 C3 1.252 . S
O7 In0 2.325 . S
O7 C3 1.260 . S
O8 In0 2.266 1_655 S
O8 C5 1.252 . S
O9 In0 2.326 1_655 S
O9 C5 1.260 . S
C10 O1 1.240 1_655 S
C10 O2 1.252 . S
O11 In0 2.294 1_655 S
O11 C4 1.240 . S
O12 In0 2.326 . S
O12 C4 1.252 1_455 S
In13 O14 2.294 1_655 S
In13 O15 2.326 . S
In13 O19 2.266 1_655 S
In13 O20 2.326 1_655 S
In13 O21 2.266 . S
In13 O22 2.325 . S
In13 O24 2.294 . S
In13 O25 2.326 1_655 S
O14 In13 2.294 1_455 S
O14 C23 1.240 . S
O15 In13 2.326 . S
O15 C23 1.252 1_655 S
C16 O19 1.252 . S
C16 O20 1.260 . S
C17 O24 1.227 1_455 S
C17 O25 1.265 . S
C18 O21 1.252 . S
C18 O22 1.260 . S
O19 In13 2.266 1_455 S
O19 C16 1.252 . S
O20 In13 2.326 1_455 S
O20 C16 1.260 . S
O21 In13 2.266 . S
O21 C18 1.252 . S
O22 In13 2.325 . S
O22 C18 1.260 . S
C23 O14 1.240 . S
C23 O15 1.252 1_455 S
O24 In13 2.294 . S
O24 C17 1.227 1_655 S
O25 In13 2.326 1_455 S
O25 C17 1.265 . S
In26 O27 2.294 1_455 S
In26 O28 2.326 . S
In26 O32 2.266 1_455 S
In26 O33 2.326 1_455 S
In26 O34 2.266 . S
In26 O35 2.325 . S
In26 O37 2.294 . S
In26 O38 2.326 1_455 S
O27 In26 2.294 1_655 S
O27 C36 1.240 . S
O28 In26 2.326 . S
O28 C36 1.252 1_455 S
C29 O32 1.252 . S
C29 O33 1.260 . S
C30 O37 1.255 . S
C30 O38 1.237 1_455 S
C31 O34 1.252 . S
C31 O35 1.260 . S
O32 In26 2.266 1_655 S
O32 C29 1.252 . S
O33 In26 2.326 1_655 S
O33 C29 1.260 . S
O34 In26 2.266 . S
O34 C31 1.252 . S
O35 In26 2.325 . S
O35 C31 1.260 . S
C36 O27 1.240 . S
C36 O28 1.252 1_655 S
O37 In26 2.294 . S
O37 C30 1.255 . S
O38 In26 2.326 1_655 S
O38 C30 1.237 1_655 S
In39 O40 2.294 . S
In39 O41 2.326 1_655 S
In39 O45 2.266 . S
In39 O46 2.325 . S
In39 O47 2.266 1_655 S
In39 O48 2.326 1_655 S
In39 O50 2.294 1_655 S
In39 O51 2.326 . S
O40 In39 2.294 . S
O40 C49 1.240 . S
O41 In39 2.326 1_455 S
O41 C49 1.252 1_455 S
C42 O45 1.252 . S
C42 O46 1.260 . S
C43 O50 1.240 . S
C43 O51 1.252 1_455 S
C44 O47 1.252 . S
C44 O48 1.260 . S
O45 In39 2.266 . S
O45 C42 1.252 . S
O46 In39 2.325 . S
O46 C42 1.260 . S
O47 In39 2.266 1_455 S
O47 C44 1.252 . S
O48 In39 2.326 1_455 S
O48 C44 1.260 . S
C49 O40 1.240 . S
C49 O41 1.252 1_655 S
O50 In39 2.294 1_455 S
O50 C43 1.240 . S
O51 In39 2.326 . S
O51 C43 1.252 1_655 S
In52 O53 2.294 1_545 S
In52 O54 2.326 . S
In52 O58 2.266 1_545 S
In52 O59 2.326 1_545 S
In52 O60 2.266 . S
In52 O61 2.325 . S
In52 O63 2.294 . S
In52 O64 2.326 1_545 S
O53 In52 2.294 1_565 S
O53 C62 1.240 . S
O54 In52 2.326 . S
O54 C62 1.252 1_545 S
C55 O58 1.252 . S
C55 O59 1.260 . S
C56 O63 1.240 1_565 S
C56 O64 1.252 . S
C57 O60 1.252 . S
C57 O61 1.260 . S
O58 In52 2.266 1_565 S
O58 C55 1.252 . S
O59 In52 2.326 1_565 S
O59 C55 1.260 . S
O60 In52 2.266 . S
O60 C57 1.252 . S
O61 In52 2.325 . S
O61 C57 1.260 . S
C62 O53 1.240 . S
C62 O54 1.252 1_565 S
O63 In52 2.294 . S
O63 C56 1.240 1_545 S
O64 In52 2.326 1_565 S
O64 C56 1.252 . S
In65 O66 2.294 . S
In65 O67 2.326 . S
In65 O71 2.266 . S
In65 O72 2.326 . S
In65 O73 2.266 . S
In65 O74 2.326 . S
In65 O76 2.294 . S
In65 O77 2.326 . S
O66 In65 2.294 . S
O66 C75 1.240 . S
O67 In65 2.326 . S
O67 C75 1.252 . S
C68 O71 1.252 . S
C68 O72 1.260 . S
C69 O76 1.240 . S
C69 O77 1.252 . S
C70 O73 1.252 . S
C70 O74 1.260 . S
O71 In65 2.266 . S
O71 C68 1.252 . S
O72 In65 2.326 . S
O72 C68 1.260 . S
O73 In65 2.266 . S
O73 C70 1.252 . S
O74 In65 2.326 . S
O74 C70 1.260 . S
C75 O66 1.240 . S
C75 O67 1.252 . S
O76 In65 2.294 . S
O76 C69 1.240 . S
O77 In65 2.326 . S
O77 C69 1.252 . S
In78 O79 2.294 1_565 S
In78 O80 2.326 . S
In78 O84 2.266 1_565 S
In78 O85 2.326 1_565 S
In78 O86 2.266 . S
In78 O87 2.325 . S
In78 O89 2.294 . S
In78 O90 2.326 1_565 S
O79 In78 2.294 1_545 S
O79 C88 1.240 . S
O80 In78 2.326 . S
O80 C88 1.252 1_565 S
C81 O84 1.252 . S
C81 O85 1.260 . S
C82 O89 1.227 1_545 S
C82 O90 1.265 . S
C83 O86 1.252 . S
C83 O87 1.260 . S
O84 In78 2.266 1_545 S
O84 C81 1.252 . S
O85 In78 2.326 1_545 S
O85 C81 1.260 . S
O86 In78 2.266 . S
O86 C83 1.252 . S
O87 In78 2.325 . S
O87 C83 1.260 . S
C88 O79 1.240 . S
C88 O80 1.252 1_545 S
O89 In78 2.294 . S
O89 C82 1.227 1_565 S
O90 In78 2.326 1_545 S
O90 C82 1.265 . S
In91 O92 2.294 . S
In91 O93 2.326 . S
In91 O97 2.266 . S
In91 O98 2.326 . S
In91 O99 2.266 . S
In91 O100 2.326 . S
In91 O102 2.294 . S
In91 O103 2.326 . S
O92 In91 2.294 . S
O92 C101 1.240 . S
O93 In91 2.326 . S
O93 C101 1.252 . S
C94 O97 1.252 . S
C94 O98 1.260 . S
C95 O102 1.240 . S
C95 O103 1.252 . S
C96 O99 1.252 . S
C96 O100 1.260 . S
O97 In91 2.266 . S
O97 C94 1.252 . S
O98 In91 2.326 . S
O98 C94 1.260 . S
O99 In91 2.266 . S
O99 C96 1.252 . S
O100 In91 2.326 . S
O100 C96 1.260 . S
C101 O92 1.240 . S
C101 O93 1.252 . S
O102 In91 2.294 . S
O102 C95 1.240 . S
O103 In91 2.326 . S
O103 C95 1.252 . S
In104 O105 2.294 . S
In104 O106 2.326 1_554 S
In104 O110 2.266 . S
In104 O111 2.325 . S
In104 O112 2.266 1_554 S
In104 O113 2.326 1_554 S
In104 O115 2.294 1_554 S
In104 O116 2.326 . S
O105 In104 2.294 . S
O105 C114 1.240 1_554 S
O106 In104 2.326 1_556 S
O106 C114 1.252 . S
C107 O110 1.252 . S
C107 O111 1.260 . S
C108 O115 1.240 . S
C108 O116 1.252 1_556 S
C109 O112 1.252 . S
C109 O113 1.260 . S
O110 In104 2.266 . S
O110 C107 1.252 . S
O111 In104 2.325 . S
O111 C107 1.260 . S
O112 In104 2.266 1_556 S
O112 C109 1.252 . S
O113 In104 2.326 1_556 S
O113 C109 1.260 . S
C114 O105 1.240 1_556 S
C114 O106 1.252 . S
O115 In104 2.294 1_556 S
O115 C108 1.240 . S
O116 In104 2.326 . S
O116 C108 1.252 1_554 S
In117 O118 2.294 . S
In117 O119 2.326 . S
In117 O123 2.266 . S
In117 O124 2.326 . S
In117 O125 2.266 . S
In117 O126 2.326 . S
In117 O128 2.294 . S
In117 O129 2.326 . S
O118 In117 2.294 . S
O118 C127 1.240 . S
O119 In117 2.326 . S
O119 C127 1.252 . S
C120 O123 1.252 . S
C120 O124 1.260 . S
C121 O128 1.240 . S
C121 O129 1.252 . S
C122 O125 1.252 . S
C122 O126 1.260 . S
O123 In117 2.266 . S
O123 C120 1.252 . S
O124 In117 2.326 . S
O124 C120 1.260 . S
O125 In117 2.266 . S
O125 C122 1.252 . S
O126 In117 2.326 . S
O126 C122 1.260 . S
C127 O118 1.240 . S
C127 O119 1.252 . S
O128 In117 2.294 . S
O128 C121 1.240 . S
O129 In117 2.326 . S
O129 C121 1.252 . S
In130 O131 2.294 . S
In130 O132 2.326 . S
In130 O136 2.266 . S
In130 O137 2.326 . S
In130 O138 2.266 . S
In130 O139 2.326 . S
In130 O141 2.294 . S
In130 O142 2.326 . S
O131 In130 2.294 . S
O131 C140 1.240 . S
O132 In130 2.326 . S
O132 C140 1.252 . S
C133 O136 1.252 . S
C133 O137 1.260 . S
C134 O141 1.240 . S
C134 O142 1.252 . S
C135 O138 1.252 . S
C135 O139 1.260 . S
O136 In130 2.266 . S
O136 C133 1.252 . S
O137 In130 2.326 . S
O137 C133 1.260 . S
O138 In130 2.266 . S
O138 C135 1.252 . S
O139 In130 2.326 . S
O139 C135 1.260 . S
C140 O131 1.240 . S
C140 O132 1.252 . S
O141 In130 2.294 . S
O141 C134 1.240 . S
O142 In130 2.326 . S
O142 C134 1.252 . S
In143 O144 2.294 . S
In143 O145 2.326 . S
In143 O149 2.266 . S
In143 O150 2.326 . S
In143 O151 2.266 . S
In143 O152 2.326 . S
In143 O154 2.294 . S
In143 O155 2.326 . S
O144 In143 2.294 . S
O144 C153 1.240 . S
O145 In143 2.326 . S
O145 C153 1.252 . S
C146 O149 1.252 . S
C146 O150 1.260 . S
C147 O154 1.240 . S
C147 O155 1.252 . S
C148 O151 1.252 . S
C148 O152 1.260 . S
O149 In143 2.266 . S
O149 C146 1.252 . S
O150 In143 2.326 . S
O150 C146 1.260 . S
O151 In143 2.266 . S
O151 C148 1.252 . S
O152 In143 2.326 . S
O152 C148 1.260 . S
C153 O144 1.240 . S
C153 O145 1.252 . S
O154 In143 2.294 . S
O154 C147 1.240 . S
O155 In143 2.326 . S
O155 C147 1.252 . S
In156 O157 2.294 . S
In156 O158 2.326 . S
In156 O162 2.266 . S
In156 O163 2.326 . S
In156 O164 2.266 . S
In156 O165 2.326 . S
In156 O167 2.294 . S
In156 O168 2.326 . S
O157 In156 2.294 . S
O157 C166 1.240 . S
O158 In156 2.326 . S
O158 C166 1.252 . S
C159 O162 1.252 . S
C159 O163 1.260 . S
C160 O167 1.240 . S
C160 O168 1.252 . S
C161 O164 1.252 . S
C161 O165 1.260 . S
O162 In156 2.266 . S
O162 C159 1.252 . S
O163 In156 2.326 . S
O163 C159 1.260 . S
O164 In156 2.266 . S
O164 C161 1.252 . S
O165 In156 2.326 . S
O165 C161 1.260 . S
C166 O157 1.240 . S
C166 O158 1.252 . S
O167 In156 2.294 . S
O167 C160 1.240 . S
O168 In156 2.326 . S
O168 C160 1.252 . S
In169 O170 2.294 . S
In169 O171 2.326 . S
In169 O175 2.266 . S
In169 O176 2.326 . S
In169 O177 2.266 . S
In169 O178 2.326 . S
In169 O180 2.294 . S
In169 O181 2.326 . S
O170 In169 2.294 . S
O170 C179 1.240 . S
O171 In169 2.326 . S
O171 C179 1.252 . S
C172 O175 1.252 . S
C172 O176 1.260 . S
C173 O180 1.240 . S
C173 O181 1.252 . S
C174 O177 1.252 . S
C174 O178 1.260 . S
O175 In169 2.266 . S
O175 C172 1.252 . S
O176 In169 2.326 . S
O176 C172 1.260 . S
O177 In169 2.266 . S
O177 C174 1.252 . S
O178 In169 2.326 . S
O178 C174 1.260 . S
C179 O170 1.240 . S
C179 O171 1.252 . S
O180 In169 2.294 . S
O180 C173 1.240 . S
O181 In169 2.326 . S
O181 C173 1.252 . S
In182 O183 2.294 . S
In182 O184 2.326 . S
In182 O188 2.266 . S
In182 O189 2.326 . S
In182 O190 2.266 . S
In182 O191 2.326 . S
In182 O193 2.294 . S
In182 O194 2.326 . S
O183 In182 2.294 . S
O183 C192 1.240 . S
O184 In182 2.326 . S
O184 C192 1.252 . S
C185 O188 1.252 . S
C185 O189 1.260 . S
C186 O193 1.240 . S
C186 O194 1.252 . S
C187 O190 1.252 . S
C187 O191 1.260 . S
O188 In182 2.266 . S
O188 C185 1.252 . S
O189 In182 2.326 . S
O189 C185 1.260 . S
O190 In182 2.266 . S
O190 C187 1.252 . S
O191 In182 2.326 . S
O191 C187 1.260 . S
C192 O183 1.240 . S
C192 O184 1.252 . S
O193 In182 2.294 . S
O193 C186 1.240 . S
O194 In182 2.326 . S
O194 C186 1.252 . S
In195 O196 2.294 . S
In195 O197 2.326 . S
In195 O201 2.266 . S
In195 O202 2.326 . S
In195 O203 2.266 . S
In195 O204 2.326 . S
In195 O206 2.294 . S
In195 O207 2.326 . S
O196 In195 2.294 . S
O196 C205 1.240 . S
O197 In195 2.326 . S
O197 C205 1.252 . S
C198 O201 1.252 . S
C198 O202 1.260 . S
C199 O206 1.240 . S
C199 O207 1.252 . S
C200 O203 1.252 . S
C200 O204 1.260 . S
O201 In195 2.266 . S
O201 C198 1.252 . S
O202 In195 2.326 . S
O202 C198 1.260 . S
O203 In195 2.266 . S
O203 C200 1.252 . S
O204 In195 2.326 . S
O204 C200 1.260 . S
C205 O196 1.240 . S
C205 O197 1.252 . S
O206 In195 2.294 . S
O206 C199 1.240 . S
O207 In195 2.326 . S
O207 C199 1.252 . S
In208 O209 2.294 . S
In208 O210 2.326 . S
In208 O214 2.266 . S
In208 O215 2.326 . S
In208 O216 2.266 . S
In208 O217 2.326 . S
In208 O219 2.294 . S
In208 O220 2.326 . S
O209 In208 2.294 . S
O209 C218 1.240 . S
O210 In208 2.326 . S
O210 C218 1.252 . S
C211 O214 1.252 . S
C211 O215 1.260 . S
C212 O219 1.240 . S
C212 O220 1.252 . S
C213 O216 1.252 . S
C213 O217 1.260 . S
O214 In208 2.266 . S
O214 C211 1.252 . S
O215 In208 2.326 . S
O215 C211 1.260 . S
O216 In208 2.266 . S
O216 C213 1.252 . S
O217 In208 2.326 . S
O217 C213 1.260 . S
C218 O209 1.240 . S
C218 O210 1.252 . S
O219 In208 2.294 . S
O219 C212 1.240 . S
O220 In208 2.326 . S
O220 C212 1.252 . S
In221 O222 2.294 1_565 S
In221 O223 2.326 . S
In221 O227 2.266 1_565 S
In221 O228 2.326 1_565 S
In221 O229 2.266 . S
In221 O230 2.325 . S
In221 O232 2.294 . S
In221 O233 2.326 1_565 S
O222 In221 2.294 1_545 S
O222 C231 1.240 . S
O223 In221 2.326 . S
O223 C231 1.252 1_565 S
C224 O227 1.252 . S
C224 O228 1.260 . S
C225 O232 1.240 . S
C225 O233 1.252 1_565 S
C226 O229 1.252 . S
C226 O230 1.260 . S
O227 In221 2.266 1_545 S
O227 C224 1.252 . S
O228 In221 2.326 1_545 S
O228 C224 1.260 . S
O229 In221 2.266 . S
O229 C226 1.252 . S
O230 In221 2.325 . S
O230 C226 1.260 . S
C231 O222 1.240 . S
C231 O223 1.252 1_545 S
O232 In221 2.294 . S
O232 C225 1.240 . S
O233 In221 2.326 1_545 S
O233 C225 1.252 1_545 S
In234 O235 2.294 . S
In234 O236 2.326 . S
In234 O240 2.266 . S
In234 O241 2.326 . S
In234 O242 2.266 . S
In234 O243 2.326 . S
In234 O245 2.294 . S
In234 O246 2.326 . S
O235 In234 2.294 . S
O235 C244 1.240 . S
O236 In234 2.326 . S
O236 C244 1.252 . S
C237 O240 1.252 . S
C237 O241 1.260 . S
C238 O245 1.240 . S
C238 O246 1.252 . S
C239 O242 1.252 . S
C239 O243 1.260 . S
O240 In234 2.266 . S
O240 C237 1.252 . S
O241 In234 2.326 . S
O241 C237 1.260 . S
O242 In234 2.266 . S
O242 C239 1.252 . S
O243 In234 2.326 . S
O243 C239 1.260 . S
C244 O235 1.240 . S
C244 O236 1.252 . S
O245 In234 2.294 . S
O245 C238 1.240 . S
O246 In234 2.326 . S
O246 C238 1.252 . S
In247 O248 2.294 . S
In247 O249 2.326 1_545 S
In247 O253 2.266 . S
In247 O254 2.325 . S
In247 O255 2.266 1_545 S
In247 O256 2.326 1_545 S
In247 O258 2.294 1_545 S
In247 O259 2.326 . S
O248 In247 2.294 . S
O248 C257 1.255 . S
O249 In247 2.326 1_565 S
O249 C257 1.237 1_565 S
C250 O253 1.252 . S
C250 O254 1.260 . S
C251 O258 1.240 . S
C251 O259 1.252 1_565 S
C252 O255 1.252 . S
C252 O256 1.260 . S
O253 In247 2.266 . S
O253 C250 1.252 . S
O254 In247 2.325 . S
O254 C250 1.260 . S
O255 In247 2.266 1_565 S
O255 C252 1.252 . S
O256 In247 2.326 1_565 S
O256 C252 1.260 . S
C257 O248 1.255 . S
C257 O249 1.237 1_545 S
O258 In247 2.294 1_565 S
O258 C251 1.240 . S
O259 In247 2.326 . S
O259 C251 1.252 1_545 S
In260 O261 2.294 . S
In260 O262 2.326 . S
In260 O266 2.266 . S
In260 O267 2.326 . S
In260 O268 2.266 . S
In260 O269 2.326 . S
In260 O271 2.294 . S
In260 O272 2.326 . S
O261 In260 2.294 . S
O261 C270 1.240 . S
O262 In260 2.326 . S
O262 C270 1.252 . S
C263 O266 1.252 . S
C263 O267 1.260 . S
C264 O271 1.240 . S
C264 O272 1.252 . S
C265 O268 1.252 . S
C265 O269 1.260 . S
O266 In260 2.266 . S
O266 C263 1.252 . S
O267 In260 2.326 . S
O267 C263 1.260 . S
O268 In260 2.266 . S
O268 C265 1.252 . S
O269 In260 2.326 . S
O269 C265 1.260 . S
C270 O261 1.240 . S
C270 O262 1.252 . S
O271 In260 2.294 . S
O271 C264 1.240 . S
O272 In260 2.326 . S
O272 C264 1.252 . S
In273 O274 2.294 . S
In273 O275 2.326 1_556 S
In273 O279 2.266 . S
In273 O280 2.325 . S
In273 O281 2.266 1_556 S
In273 O282 2.326 1_556 S
In273 O284 2.294 1_556 S
In273 O285 2.326 . S
O274 In273 2.294 . S
O274 C283 1.240 . S
O275 In273 2.326 1_554 S
O275 C283 1.252 1_554 S
C276 O279 1.252 . S
C276 O280 1.260 . S
C277 O284 1.240 . S
C277 O285 1.252 1_554 S
C278 O281 1.252 . S
C278 O282 1.260 . S
O279 In273 2.266 . S
O279 C276 1.252 . S
O280 In273 2.325 . S
O280 C276 1.260 . S
O281 In273 2.266 1_554 S
O281 C278 1.252 . S
O282 In273 2.326 1_554 S
O282 C278 1.260 . S
C283 O274 1.240 . S
C283 O275 1.252 1_556 S
O284 In273 2.294 1_554 S
O284 C277 1.240 . S
O285 In273 2.326 . S
O285 C277 1.252 1_556 S
In286 O287 2.294 . S
In286 O288 2.326 1_556 S
In286 O292 2.266 . S
In286 O293 2.325 . S
In286 O294 2.266 1_556 S
In286 O295 2.326 1_556 S
In286 O297 2.294 1_556 S
In286 O298 2.326 . S
O287 In286 2.294 . S
O287 C296 1.227 1_556 S
O288 In286 2.326 1_554 S
O288 C296 1.265 . S
C289 O292 1.252 . S
C289 O293 1.260 . S
C290 O297 1.240 . S
C290 O298 1.252 1_554 S
C291 O294 1.252 . S
C291 O295 1.260 . S
O292 In286 2.266 . S
O292 C289 1.252 . S
O293 In286 2.325 . S
O293 C289 1.260 . S
O294 In286 2.266 1_554 S
O294 C291 1.252 . S
O295 In286 2.326 1_554 S
O295 C291 1.260 . S
C296 O287 1.227 1_554 S
C296 O288 1.265 . S
O297 In286 2.294 1_554 S
O297 C290 1.240 . S
O298 In286 2.326 . S
O298 C290 1.252 1_556 S
In299 O300 2.294 1_554 S
In299 O301 2.326 . S
In299 O305 2.266 1_554 S
In299 O306 2.326 1_554 S
In299 O307 2.266 . S
In299 O308 2.325 . S
In299 O310 2.294 . S
In299 O311 2.326 1_554 S
O300 In299 2.294 1_556 S
O300 C309 1.240 . S
O301 In299 2.326 . S
O301 C309 1.252 1_554 S
C302 O305 1.252 . S
C302 O306 1.260 . S
C303 O310 1.255 . S
C303 O311 1.237 1_554 S
C304 O307 1.252 . S
C304 O308 1.260 . S
O305 In299 2.266 1_556 S
O305 C302 1.252 . S
O306 In299 2.326 1_556 S
O306 C302 1.260 . S
O307 In299 2.266 . S
O307 C304 1.252 . S
O308 In299 2.325 . S
O308 C304 1.260 . S
C309 O300 1.240 . S
C309 O301 1.252 1_556 S
O310 In299 2.294 . S
O310 C303 1.255 . S
O311 In299 2.326 1_556 S
O311 C303 1.237 1_556 S
C312 C313 1.391 . S
C312 C314 1.394 . S
C312 H328 0.931 . S
C313 C312 1.391 . S
C313 C317 1.376 . S
C314 C312 1.394 . S
C314 C315 1.369 . S
C314 C318 1.531 . S
C315 C314 1.369 . S
C315 C316 1.410 . S
C315 C323 1.503 . S
C316 C315 1.410 . S
C316 C317 1.392 . S
C316 C319 1.511 . S
C317 C313 1.376 . S
C317 C316 1.392 . S
C317 H329 0.929 . S
C318 C314 1.531 . S
C318 H330 0.960 . S
C318 H331 0.962 . S
C318 H332 0.960 . S
C319 C316 1.511 . S
C319 H333 0.961 . S
C319 H334 0.961 . S
C319 H335 0.961 . S
C320 C321 1.370 . S
C320 C322 1.363 . S
C320 H336 0.931 . S
C321 C320 1.370 . S
C321 C325 1.408 . S
C322 C320 1.363 . S
C322 C323 1.370 . S
C322 C326 1.524 . S
C323 C315 1.503 . S
C323 C322 1.370 . S
C323 C324 1.403 . S
C324 C323 1.403 . S
C324 C325 1.404 . S
C324 C327 1.539 . S
C325 C321 1.408 . S
C325 C324 1.404 . S
C325 H337 0.930 . S
C326 C322 1.524 . S
C326 H338 0.956 . S
C326 H339 0.961 . S
C326 H340 0.961 . S
C327 C324 1.539 . S
C327 H341 0.958 . S
C327 H342 0.961 . S
C327 H343 0.960 . S
H328 C312 0.931 . S
H329 C317 0.929 . S
H330 C318 0.960 . S
H331 C318 0.962 . S
H332 C318 0.960 . S
H333 C319 0.961 . S
H334 C319 0.961 . S
H335 C319 0.961 . S
H336 C320 0.931 . S
H337 C325 0.930 . S
H338 C326 0.956 . S
H339 C326 0.961 . S
H340 C326 0.961 . S
H341 C327 0.958 . S
H342 C327 0.961 . S
H343 C327 0.960 . S
C344 C345 1.391 . S
C344 C346 1.394 . S
C344 H360 0.931 . S
C345 C344 1.391 . S
C345 C349 1.376 . S
C346 C344 1.394 . S
C346 C347 1.369 . S
C346 C350 1.531 . S
C347 C346 1.369 . S
C347 C348 1.410 . S
C347 C355 1.503 . S
C348 C347 1.410 . S
C348 C349 1.392 . S
C348 C351 1.511 . S
C349 C345 1.376 . S
C349 C348 1.392 . S
C349 H361 0.929 . S
C350 C346 1.531 . S
C350 H362 0.960 . S
C350 H363 0.962 . S
C350 H364 0.960 . S
C351 C348 1.511 . S
C351 H365 0.961 . S
C351 H366 0.961 . S
C351 H367 0.961 . S
C352 C353 1.370 . S
C352 C354 1.363 . S
C352 H368 0.931 . S
C353 C352 1.370 . S
C353 C357 1.408 . S
C354 C352 1.363 . S
C354 C355 1.370 . S
C354 C358 1.524 . S
C355 C347 1.503 . S
C355 C354 1.370 . S
C355 C356 1.403 . S
C356 C355 1.403 . S
C356 C357 1.404 . S
C356 C359 1.539 . S
C357 C353 1.408 . S
C357 C356 1.404 . S
C357 H369 0.930 . S
C358 C354 1.524 . S
C358 H370 0.956 . S
C358 H371 0.961 . S
C358 H372 0.961 . S
C359 C356 1.539 . S
C359 H373 0.958 . S
C359 H374 0.961 . S
C359 H375 0.960 . S
H360 C344 0.931 . S
H361 C349 0.929 . S
H362 C350 0.960 . S
H363 C350 0.962 . S
H364 C350 0.960 . S
H365 C351 0.961 . S
H366 C351 0.961 . S
H367 C351 0.961 . S
H368 C352 0.931 . S
H369 C357 0.930 . S
H370 C358 0.956 . S
H371 C358 0.961 . S
H372 C358 0.961 . S
H373 C359 0.958 . S
H374 C359 0.961 . S
H375 C359 0.960 . S
C376 C377 1.391 . S
C376 C378 1.394 . S
C376 H392 0.931 . S
C377 C376 1.391 . S
C377 C381 1.376 . S
C378 C376 1.394 . S
C378 C379 1.369 . S
C378 C382 1.531 . S
C379 C378 1.369 . S
C379 C380 1.410 . S
C379 C387 1.503 . S
C380 C379 1.410 . S
C380 C381 1.392 . S
C380 C383 1.511 . S
C381 C377 1.376 . S
C381 C380 1.392 . S
C381 H393 0.929 . S
C382 C378 1.531 . S
C382 H394 0.960 . S
C382 H395 0.962 . S
C382 H396 0.960 . S
C383 C380 1.511 . S
C383 H397 0.961 . S
C383 H398 0.961 . S
C383 H399 0.961 . S
C384 C385 1.370 . S
C384 C386 1.363 . S
C384 H400 0.931 . S
C385 C384 1.370 . S
C385 C389 1.408 . S
C386 C384 1.363 . S
C386 C387 1.370 1_556 S
C386 C390 1.524 1_556 S
C387 C379 1.503 . S
C387 C386 1.370 1_554 S
C387 C388 1.403 . S
C388 C387 1.403 . S
C388 C389 1.404 1_554 S
C388 C391 1.539 1_565 S
C389 C385 1.408 . S
C389 C388 1.404 1_556 S
C389 H401 0.930 1_565 S
C390 C386 1.524 1_554 S
C390 H402 0.956 . S
C390 H403 0.961 . S
C390 H404 0.961 1_554 S
C391 C388 1.539 1_545 S
C391 H405 0.958 . S
C391 H406 0.961 . S
C391 H407 0.960 1_545 S
H392 C376 0.931 . S
H393 C381 0.929 . S
H394 C382 0.960 . S
H395 C382 0.962 . S
H396 C382 0.960 . S
H397 C383 0.961 . S
H398 C383 0.961 . S
H399 C383 0.961 . S
H400 C384 0.931 . S
H401 C389 0.930 1_545 S
H402 C390 0.956 . S
H403 C390 0.961 . S
H404 C390 0.961 1_556 S
H405 C391 0.958 . S
H406 C391 0.961 . S
H407 C391 0.960 1_565 S
C408 C409 1.391 . S
C408 C410 1.394 . S
C408 H424 0.931 . S
C409 C408 1.391 . S
C409 C413 1.376 . S
C410 C408 1.394 . S
C410 C411 1.369 . S
C410 C414 1.531 . S
C411 C410 1.369 . S
C411 C412 1.410 . S
C411 C419 1.503 . S
C412 C411 1.410 . S
C412 C413 1.392 . S
C412 C415 1.511 . S
C413 C409 1.376 . S
C413 C412 1.392 . S
C413 H425 0.929 . S
C414 C410 1.531 . S
C414 H426 0.960 . S
C414 H427 0.962 . S
C414 H428 0.960 . S
C415 C412 1.511 . S
C415 H429 0.961 . S
C415 H430 0.961 . S
C415 H431 0.961 . S
C416 C417 1.370 . S
C416 C418 1.363 1_556 S
C416 H432 0.931 . S
C417 C416 1.370 . S
C417 C421 1.408 . S
C418 C416 1.363 1_554 S
C418 C419 1.370 . S
C418 C422 1.524 . S
C419 C411 1.503 . S
C419 C418 1.370 . S
C419 C420 1.403 1_554 S
C420 C419 1.403 1_556 S
C420 C421 1.404 . S
C420 C423 1.539 . S
C421 C417 1.408 . S
C421 C420 1.404 . S
C421 H433 0.930 . S
C422 C418 1.524 . S
C422 H434 0.956 . S
C422 H435 0.961 . S
C422 H436 0.961 . S
C423 C420 1.539 . S
C423 H437 0.958 . S
C423 H438 0.961 . S
C423 H439 0.960 1_556 S
H424 C408 0.931 . S
H425 C413 0.929 . S
H426 C414 0.960 . S
H427 C414 0.962 . S
H428 C414 0.960 . S
H429 C415 0.961 . S
H430 C415 0.961 . S
H431 C415 0.961 . S
H432 C416 0.931 . S
H433 C421 0.930 . S
H434 C422 0.956 . S
H435 C422 0.961 . S
H436 C422 0.961 . S
H437 C423 0.958 . S
H438 C423 0.961 . S
H439 C423 0.960 1_554 S
C440 C441 1.391 . S
C440 C442 1.394 . S
C440 H456 0.931 . S
C441 C440 1.391 . S
C441 C445 1.376 . S
C442 C440 1.394 . S
C442 C443 1.369 . S
C442 C446 1.531 . S
C443 C442 1.369 . S
C443 C444 1.410 . S
C443 C451 1.503 . S
C444 C443 1.410 . S
C444 C445 1.392 . S
C444 C447 1.511 . S
C445 C441 1.376 . S
C445 C444 1.392 . S
C445 H457 0.929 . S
C446 C442 1.531 . S
C446 H458 0.960 . S
C446 H459 0.962 . S
C446 H460 0.960 . S
C447 C444 1.511 . S
C447 H461 0.961 . S
C447 H462 0.961 . S
C447 H463 0.961 . S
C448 C449 1.370 . S
C448 C450 1.363 . S
C448 H464 0.931 . S
C449 C448 1.370 . S
C449 C453 1.408 . S
C450 C448 1.363 . S
C450 C451 1.370 . S
C450 C454 1.524 . S
C451 C443 1.503 . S
C451 C450 1.370 . S
C451 C452 1.403 . S
C452 C451 1.403 . S
C452 C453 1.404 . S
C452 C455 1.539 . S
C453 C449 1.408 . S
C453 C452 1.404 . S
C453 H465 0.930 . S
C454 C450 1.524 . S
C454 H466 0.956 . S
C454 H467 0.961 . S
C454 H468 0.961 . S
C455 C452 1.539 . S
C455 H469 0.958 1_554 S
C455 H470 0.961 . S
C455 H471 0.960 . S
H456 C440 0.931 . S
H457 C445 0.929 . S
H458 C446 0.960 . S
H459 C446 0.962 . S
H460 C446 0.960 . S
H461 C447 0.961 . S
H462 C447 0.961 . S
H463 C447 0.961 . S
H464 C448 0.931 . S
H465 C453 0.930 . S
H466 C454 0.956 . S
H467 C454 0.961 . S
H468 C454 0.961 . S
H469 C455 0.958 1_556 S
H470 C455 0.961 . S
H471 C455 0.960 . S
C472 C473 1.391 . S
C472 C474 1.394 . S
C472 H488 0.931 . S
C473 C472 1.391 . S
C473 C477 1.376 . S
C474 C472 1.394 . S
C474 C475 1.369 . S
C474 C478 1.531 . S
C475 C474 1.369 . S
C475 C476 1.410 . S
C475 C483 1.503 . S
C476 C475 1.410 . S
C476 C477 1.392 . S
C476 C479 1.511 . S
C477 C473 1.376 . S
C477 C476 1.392 . S
C477 H489 0.929 . S
C478 C474 1.531 . S
C478 H490 0.960 . S
C478 H491 0.962 . S
C478 H492 0.960 . S
C479 C476 1.511 . S
C479 H493 0.961 . S
C479 H494 0.961 . S
C479 H495 0.961 . S
C480 C481 1.370 . S
C480 C482 1.363 . S
C480 H496 0.931 . S
C481 C480 1.370 . S
C481 C485 1.408 . S
C482 C480 1.363 . S
C482 C483 1.370 . S
C482 C486 1.524 . S
C483 C475 1.503 . S
C483 C482 1.370 . S
C483 C484 1.403 . S
C484 C483 1.403 . S
C484 C485 1.404 . S
C484 C487 1.539 . S
C485 C481 1.408 . S
C485 C484 1.404 . S
C485 H497 0.930 . S
C486 C482 1.524 . S
C486 H498 0.956 . S
C486 H499 0.961 . S
C486 H500 0.961 1_554 S
C487 C484 1.539 . S
C487 H501 0.958 . S
C487 H502 0.961 . S
C487 H503 0.960 . S
H488 C472 0.931 . S
H489 C477 0.929 . S
H490 C478 0.960 . S
H491 C478 0.962 . S
H492 C478 0.960 . S
H493 C479 0.961 . S
H494 C479 0.961 . S
H495 C479 0.961 . S
H496 C480 0.931 . S
H497 C485 0.930 . S
H498 C486 0.956 . S
H499 C486 0.961 . S
H500 C486 0.961 1_556 S
H501 C487 0.958 . S
H502 C487 0.961 . S
H503 C487 0.960 . S
C504 C505 1.391 . S
C504 C506 1.394 . S
C504 H520 0.931 . S
C505 C504 1.391 . S
C505 C509 1.376 . S
C506 C504 1.394 . S
C506 C507 1.369 . S
C506 C510 1.531 . S
C507 C506 1.369 . S
C507 C508 1.410 . S
C507 C515 1.503 . S
C508 C507 1.410 . S
C508 C509 1.392 . S
C508 C511 1.511 . S
C509 C505 1.376 . S
C509 C508 1.392 . S
C509 H521 0.929 . S
C510 C506 1.531 . S
C510 H522 0.960 . S
C510 H523 0.962 . S
C510 H524 0.960 . S
C511 C508 1.511 . S
C511 H525 0.961 . S
C511 H526 0.961 . S
C511 H527 0.961 . S
C512 C513 1.370 . S
C512 C514 1.363 . S
C512 H528 0.931 . S
C513 C512 1.370 . S
C513 C517 1.408 . S
C514 C512 1.363 . S
C514 C515 1.370 . S
C514 C518 1.524 . S
C515 C507 1.503 . S
C515 C514 1.370 . S
C515 C516 1.403 . S
C516 C515 1.403 . S
C516 C517 1.404 . S
C516 C519 1.539 . S
C517 C513 1.408 . S
C517 C516 1.404 . S
C517 H529 0.930 . S
C518 C514 1.524 . S
C518 H530 0.956 . S
C518 H531 0.961 . S
C518 H532 0.961 . S
C519 C516 1.539 . S
C519 H533 0.958 . S
C519 H534 0.961 . S
C519 H535 0.960 . S
H520 C504 0.931 . S
H521 C509 0.929 . S
H522 C510 0.960 . S
H523 C510 0.962 . S
H524 C510 0.960 . S
H525 C511 0.961 . S
H526 C511 0.961 . S
H527 C511 0.961 . S
H528 C512 0.931 . S
H529 C517 0.930 . S
H530 C518 0.956 . S
H531 C518 0.961 . S
H532 C518 0.961 . S
H533 C519 0.958 . S
H534 C519 0.961 . S
H535 C519 0.960 . S
C536 C537 1.391 . S
C536 C538 1.394 . S
C536 H552 0.931 . S
C537 C536 1.391 . S
C537 C541 1.376 . S
C538 C536 1.394 . S
C538 C539 1.369 . S
C538 C542 1.531 . S
C539 C538 1.369 . S
C539 C540 1.410 . S
C539 C547 1.503 . S
C540 C539 1.410 . S
C540 C541 1.392 . S
C540 C543 1.511 . S
C541 C537 1.376 . S
C541 C540 1.392 . S
C541 H553 0.929 . S
C542 C538 1.531 . S
C542 H554 0.960 . S
C542 H555 0.962 . S
C542 H556 0.960 . S
C543 C540 1.511 . S
C543 H557 0.961 . S
C543 H558 0.961 . S
C543 H559 0.961 . S
C544 C545 1.370 . S
C544 C546 1.363 . S
C544 H560 0.931 . S
C545 C544 1.370 . S
C545 C549 1.408 . S
C546 C544 1.363 . S
C546 C547 1.370 . S
C546 C550 1.524 . S
C547 C539 1.503 . S
C547 C546 1.370 . S
C547 C548 1.403 . S
C548 C547 1.403 . S
C548 C549 1.404 . S
C548 C551 1.539 . S
C549 C545 1.408 . S
C549 C548 1.404 . S
C549 H561 0.930 . S
C550 C546 1.524 . S
C550 H562 0.956 . S
C550 H563 0.961 . S
C550 H564 0.961 . S
C551 C548 1.539 . S
C551 H565 0.958 . S
C551 H566 0.961 . S
C551 H567 0.960 . S
H552 C536 0.931 . S
H553 C541 0.929 . S
H554 C542 0.960 . S
H555 C542 0.962 . S
H556 C542 0.960 . S
H557 C543 0.961 . S
H558 C543 0.961 . S
H559 C543 0.961 . S
H560 C544 0.931 . S
H561 C549 0.930 . S
H562 C550 0.956 . S
H563 C550 0.961 . S
H564 C550 0.961 . S
H565 C551 0.958 . S
H566 C551 0.961 . S
H567 C551 0.960 . S
C568 C569 1.391 . S
C568 C570 1.394 . S
C568 H584 0.931 . S
C569 C568 1.391 . S
C569 C573 1.376 . S
C570 C568 1.394 . S
C570 C571 1.369 . S
C570 C574 1.531 . S
C571 C570 1.369 . S
C571 C572 1.410 . S
C571 C579 1.503 . S
C572 C571 1.410 . S
C572 C573 1.392 . S
C572 C575 1.511 . S
C573 C569 1.376 . S
C573 C572 1.392 . S
C573 H585 0.929 . S
C574 C570 1.531 . S
C574 H586 0.960 . S
C574 H587 0.962 . S
C574 H588 0.960 . S
C575 C572 1.511 . S
C575 H589 0.961 . S
C575 H590 0.961 . S
C575 H591 0.961 . S
C576 C577 1.370 . S
C576 C578 1.363 . S
C576 H592 0.931 . S
C577 C576 1.370 . S
C577 C581 1.408 . S
C578 C576 1.363 . S
C578 C579 1.370 . S
C578 C582 1.524 . S
C579 C571 1.503 . S
C579 C578 1.370 . S
C579 C580 1.403 . S
C580 C579 1.403 . S
C580 C581 1.404 . S
C580 C583 1.539 1_455 S
C581 C577 1.408 . S
C581 C580 1.404 . S
C581 H593 0.930 1_455 S
C582 C578 1.524 . S
C582 H594 0.956 . S
C582 H595 0.961 . S
C582 H596 0.961 . S
C583 C580 1.539 1_655 S
C583 H597 0.958 . S
C583 H598 0.961 . S
C583 H599 0.960 1_655 S
H584 C568 0.931 . S
H585 C573 0.929 . S
H586 C574 0.960 . S
H587 C574 0.962 . S
H588 C574 0.960 . S
H589 C575 0.961 . S
H590 C575 0.961 . S
H591 C575 0.961 . S
H592 C576 0.931 . S
H593 C581 0.930 1_655 S
H594 C582 0.956 . S
H595 C582 0.961 . S
H596 C582 0.961 . S
H597 C583 0.958 . S
H598 C583 0.961 . S
H599 C583 0.960 1_455 S
C600 C601 1.391 . S
C600 C602 1.394 . S
C600 H616 0.931 . S
C601 C600 1.391 . S
C601 C605 1.376 . S
C602 C600 1.394 . S
C602 C603 1.369 . S
C602 C606 1.531 . S
C603 C602 1.369 . S
C603 C604 1.410 . S
C603 C611 1.503 . S
C604 C603 1.410 . S
C604 C605 1.392 . S
C604 C607 1.511 . S
C605 C601 1.376 . S
C605 C604 1.392 . S
C605 H617 0.926 . S
C606 C602 1.531 . S
C606 H618 0.960 . S
C606 H619 0.962 . S
C606 H620 0.960 . S
C607 C604 1.511 . S
C607 H621 0.961 1_455 S
C607 H622 0.961 . S
C607 H623 0.961 1_455 S
C608 C609 1.370 . S
C608 C610 1.363 . S
C608 H624 0.931 . S
C609 C608 1.370 . S
C609 C613 1.408 . S
C610 C608 1.363 . S
C610 C611 1.370 . S
C610 C614 1.524 . S
C611 C603 1.503 . S
C611 C610 1.370 . S
C611 C612 1.403 . S
C612 C611 1.403 . S
C612 C613 1.404 . S
C612 C615 1.539 . S
C613 C609 1.408 . S
C613 C612 1.404 . S
C613 H625 0.930 . S
C614 C610 1.524 . S
C614 H626 0.956 . S
C614 H627 0.961 . S
C614 H628 0.961 . S
C615 C612 1.539 . S
C615 H629 0.958 . S
C615 H630 0.961 . S
C615 H631 0.960 . S
H616 C600 0.931 . S
H617 C605 0.926 . S
H618 C606 0.960 . S
H619 C606 0.962 . S
H620 C606 0.960 . S
H621 C607 0.961 1_655 S
H622 C607 0.961 . S
H623 C607 0.961 1_655 S
H624 C608 0.931 . S
H625 C613 0.930 . S
H626 C614 0.956 . S
H627 C614 0.961 . S
H628 C614 0.961 . S
H629 C615 0.958 . S
H630 C615 0.961 . S
H631 C615 0.960 . S
C632 C633 1.391 . S
C632 C634 1.394 . S
C632 H648 0.931 . S
C633 C632 1.391 . S
C633 C637 1.376 . S
C634 C632 1.394 . S
C634 C635 1.369 . S
C634 C638 1.531 . S
C635 C634 1.369 . S
C635 C636 1.410 . S
C635 C643 1.503 . S
C636 C635 1.410 . S
C636 C637 1.392 . S
C636 C639 1.511 . S
C637 C633 1.376 . S
C637 C636 1.392 . S
C637 H649 0.929 . S
C638 C634 1.531 . S
C638 H650 0.960 . S
C638 H651 0.962 . S
C638 H652 0.960 . S
C639 C636 1.511 . S
C639 H653 0.961 . S
C639 H654 0.961 . S
C639 H655 0.961 . S
C640 C641 1.370 . S
C640 C642 1.363 . S
C640 H656 0.931 . S
C641 C640 1.370 . S
C641 C645 1.408 . S
C642 C640 1.363 . S
C642 C643 1.370 1_545 S
C642 C646 1.524 1_545 S
C643 C635 1.503 . S
C643 C642 1.370 1_565 S
C643 C644 1.403 . S
C644 C643 1.403 . S
C644 C645 1.404 1_565 S
C644 C647 1.521 1_655 S
C645 C641 1.408 . S
C645 C644 1.404 1_545 S
C645 H657 0.897 1_655 S
C646 C642 1.524 1_565 S
C646 H658 0.956 . S
C646 H659 0.961 . S
C646 H660 0.961 1_565 S
C647 C644 1.521 1_455 S
C647 H661 0.972 . S
C647 H662 0.976 . S
C647 H663 0.949 1_455 S
H648 C632 0.931 . S
H649 C637 0.929 . S
H650 C638 0.960 . S
H651 C638 0.962 . S
H652 C638 0.960 . S
H653 C639 0.961 . S
H654 C639 0.961 . S
H655 C639 0.961 . S
H656 C640 0.931 . S
H657 C645 0.897 1_455 S
H658 C646 0.956 . S
H659 C646 0.961 . S
H660 C646 0.961 1_545 S
H661 C647 0.972 . S
H662 C647 0.976 . S
H663 C647 0.949 1_655 S
C664 C665 1.391 . S
C664 C666 1.394 . S
C664 H680 0.931 . S
C665 C664 1.391 . S
C665 C669 1.376 . S
C666 C664 1.394 . S
C666 C667 1.369 . S
C666 C670 1.531 . S
C667 C666 1.369 . S
C667 C668 1.410 . S
C667 C675 1.503 . S
C668 C667 1.410 . S
C668 C669 1.392 . S
C668 C671 1.511 . S
C669 C665 1.376 . S
C669 C668 1.392 . S
C669 H681 0.929 . S
C670 C666 1.531 . S
C670 H682 0.960 . S
C670 H683 0.962 . S
C670 H684 0.960 . S
C671 C668 1.511 . S
C671 H685 0.961 . S
C671 H686 0.961 . S
C671 H687 0.961 . S
C672 C673 1.370 . S
C672 C674 1.363 . S
C672 H688 0.931 . S
C673 C672 1.370 . S
C673 C677 1.408 . S
C674 C672 1.363 . S
C674 C675 1.370 . S
C674 C678 1.524 . S
C675 C667 1.503 . S
C675 C674 1.370 . S
C675 C676 1.403 . S
C676 C675 1.403 . S
C676 C677 1.404 . S
C676 C679 1.539 . S
C677 C673 1.408 . S
C677 C676 1.404 . S
C677 H689 0.930 . S
C678 C674 1.524 . S
C678 H690 0.956 . S
C678 H691 0.961 . S
C678 H692 0.961 . S
C679 C676 1.539 . S
C679 H693 0.958 . S
C679 H694 0.961 . S
C679 H695 0.960 . S
H680 C664 0.931 . S
H681 C669 0.929 . S
H682 C670 0.960 . S
H683 C670 0.962 . S
H684 C670 0.960 . S
H685 C671 0.961 . S
H686 C671 0.961 . S
H687 C671 0.961 . S
H688 C672 0.931 . S
H689 C677 0.930 . S
H690 C678 0.956 . S
H691 C678 0.961 . S
H692 C678 0.961 . S
H693 C679 0.958 . S
H694 C679 0.961 . S
H695 C679 0.960 . S
C696 C697 1.391 . S
C696 C698 1.394 . S
C696 H712 0.931 . S
C697 C696 1.391 . S
C697 C701 1.376 . S
C698 C696 1.394 . S
C698 C699 1.369 1_554 S
C698 C702 1.531 . S
C699 C698 1.369 1_556 S
C699 C700 1.410 . S
C699 C707 1.503 . S
C700 C699 1.410 . S
C700 C701 1.392 1_556 S
C700 C703 1.511 . S
C701 C697 1.376 . S
C701 C700 1.392 1_554 S
C701 H713 0.929 . S
C702 C698 1.531 . S
C702 H714 0.960 1_554 S
C702 H715 0.962 . S
C702 H716 0.960 . S
C703 C700 1.511 . S
C703 H717 0.961 . S
C703 H718 0.961 . S
C703 H719 0.961 . S
C704 C705 1.370 . S
C704 C706 1.363 . S
C704 H720 0.931 . S
C705 C704 1.370 . S
C705 C709 1.408 . S
C706 C704 1.363 . S
C706 C707 1.370 . S
C706 C710 1.524 . S
C707 C699 1.503 . S
C707 C706 1.370 . S
C707 C708 1.403 . S
C708 C707 1.403 . S
C708 C709 1.404 . S
C708 C711 1.539 . S
C709 C705 1.408 . S
C709 C708 1.404 . S
C709 H721 0.930 . S
C710 C706 1.524 . S
C710 H722 0.956 . S
C710 H723 0.961 . S
C710 H724 0.961 . S
C711 C708 1.539 . S
C711 H725 0.958 . S
C711 H726 0.961 . S
C711 H727 0.960 . S
H712 C696 0.931 . S
H713 C701 0.929 . S
H714 C702 0.960 1_556 S
H715 C702 0.962 . S
H716 C702 0.960 . S
H717 C703 0.961 . S
H718 C703 0.961 . S
H719 C703 0.961 . S
H720 C704 0.931 . S
H721 C709 0.930 . S
H722 C710 0.956 . S
H723 C710 0.961 . S
H724 C710 0.961 . S
H725 C711 0.958 . S
H726 C711 0.961 . S
H727 C711 0.960 . S
C728 C729 1.391 . S
C728 C730 1.394 1_554 S
C728 H744 0.931 . S
C729 C728 1.391 . S
C729 C733 1.376 . S
C730 C728 1.394 1_556 S
C730 C731 1.369 . S
C730 C734 1.531 . S
C731 C730 1.369 . S
C731 C732 1.410 1_556 S
C731 C739 1.503 . S
C732 C731 1.410 1_554 S
C732 C733 1.392 . S
C732 C735 1.511 . S
C733 C729 1.376 . S
C733 C732 1.392 . S
C733 H745 0.929 . S
C734 C730 1.531 . S
C734 H746 0.960 . S
C734 H747 0.962 . S
C734 H748 0.960 . S
C735 C732 1.511 . S
C735 H749 0.961 . S
C735 H750 0.932 1_554 S
C735 H751 0.961 . S
C736 C737 1.370 . S
C736 C738 1.363 . S
C736 H752 0.931 . S
C737 C736 1.370 . S
C737 C741 1.408 . S
C738 C736 1.363 . S
C738 C739 1.370 . S
C738 C742 1.524 . S
C739 C731 1.503 . S
C739 C738 1.370 . S
C739 C740 1.403 . S
C740 C739 1.403 . S
C740 C741 1.404 . S
C740 C743 1.539 . S
C741 C737 1.408 . S
C741 C740 1.404 . S
C741 H753 0.930 . S
C742 C738 1.524 . S
C742 H754 0.956 . S
C742 H755 0.961 . S
C742 H756 0.961 . S
C743 C740 1.539 . S
C743 H757 0.958 1_565 S
C743 H758 0.961 . S
C743 H759 0.960 . S
H744 C728 0.931 . S
H745 C733 0.929 . S
H746 C734 0.960 . S
H747 C734 0.962 . S
H748 C734 0.960 . S
H749 C735 0.961 . S
H750 C735 0.932 1_556 S
H751 C735 0.961 . S
H752 C736 0.931 . S
H753 C741 0.930 . S
H754 C742 0.956 . S
H755 C742 0.961 . S
H756 C742 0.961 . S
H757 C743 0.958 1_545 S
H758 C743 0.961 . S
H759 C743 0.960 . S
C760 C761 1.391 . S
C760 C762 1.394 . S
C760 H776 0.931 . S
C761 C760 1.391 . S
C761 C765 1.376 . S
C762 C760 1.394 . S
C762 C763 1.369 . S
C762 C766 1.531 . S
C763 C762 1.369 . S
C763 C764 1.410 . S
C763 C771 1.503 . S
C764 C763 1.410 . S
C764 C765 1.392 . S
C764 C767 1.511 . S
C765 C761 1.376 . S
C765 C764 1.392 . S
C765 H777 0.929 . S
C766 C762 1.531 . S
C766 H778 0.960 . S
C766 H779 0.962 . S
C766 H780 0.960 . S
C767 C764 1.511 . S
C767 H781 0.961 . S
C767 H782 0.961 . S
C767 H783 0.961 . S
C768 C769 1.370 . S
C768 C770 1.363 . S
C768 H784 0.931 . S
C769 C768 1.370 . S
C769 C773 1.408 . S
C770 C768 1.363 . S
C770 C771 1.370 . S
C770 C774 1.524 . S
C771 C763 1.503 . S
C771 C770 1.370 . S
C771 C772 1.403 . S
C772 C771 1.403 . S
C772 C773 1.404 . S
C772 C775 1.539 . S
C773 C769 1.408 . S
C773 C772 1.404 . S
C773 H785 0.930 . S
C774 C770 1.524 . S
C774 H786 0.956 . S
C774 H787 0.961 . S
C774 H788 0.961 . S
C775 C772 1.539 . S
C775 H789 0.958 . S
C775 H790 0.961 . S
C775 H791 0.960 . S
H776 C760 0.931 . S
H777 C765 0.929 . S
H778 C766 0.960 . S
H779 C766 0.962 . S
H780 C766 0.960 . S
H781 C767 0.961 . S
H782 C767 0.961 . S
H783 C767 0.961 . S
H784 C768 0.931 . S
H785 C773 0.930 . S
H786 C774 0.956 . S
H787 C774 0.961 . S
H788 C774 0.961 . S
H789 C775 0.958 . S
H790 C775 0.961 . S
H791 C775 0.960 . S
C792 C793 1.391 . S
C792 C794 1.394 . S
C792 H808 0.931 . S
C793 C792 1.391 . S
C793 C797 1.376 . S
C794 C792 1.394 . S
C794 C795 1.369 . S
C794 C798 1.531 . S
C795 C794 1.369 . S
C795 C796 1.410 . S
C795 C803 1.503 . S
C796 C795 1.410 . S
C796 C797 1.392 . S
C796 C799 1.511 . S
C797 C793 1.376 . S
C797 C796 1.392 . S
C797 H809 0.929 . S
C798 C794 1.531 . S
C798 H810 0.960 . S
C798 H811 0.962 . S
C798 H812 0.960 . S
C799 C796 1.511 . S
C799 H813 0.961 . S
C799 H814 0.961 . S
C799 H815 0.961 . S
C800 C801 1.370 . S
C800 C802 1.363 . S
C800 H816 0.931 . S
C801 C800 1.370 . S
C801 C805 1.408 . S
C802 C800 1.363 . S
C802 C803 1.370 . S
C802 C806 1.524 . S
C803 C795 1.503 . S
C803 C802 1.370 . S
C803 C804 1.403 . S
C804 C803 1.403 . S
C804 C805 1.404 . S
C804 C807 1.539 . S
C805 C801 1.408 . S
C805 C804 1.404 . S
C805 H817 0.930 . S
C806 C802 1.524 . S
C806 H818 0.956 . S
C806 H819 0.961 . S
C806 H820 0.961 . S
C807 C804 1.539 . S
C807 H821 0.958 . S
C807 H822 0.961 1_545 S
C807 H823 0.960 . S
H808 C792 0.931 . S
H809 C797 0.929 . S
H810 C798 0.960 . S
H811 C798 0.962 . S
H812 C798 0.960 . S
H813 C799 0.961 . S
H814 C799 0.961 . S
H815 C799 0.961 . S
H816 C800 0.931 . S
H817 C805 0.930 . S
H818 C806 0.956 . S
H819 C806 0.961 . S
H820 C806 0.961 . S
H821 C807 0.958 . S
H822 C807 0.961 1_565 S
H823 C807 0.960 . S
C824 C825 1.391 . S
C824 C826 1.394 . S
C824 H840 0.931 . S
C825 C824 1.391 . S
C825 C829 1.376 . S
C826 C824 1.394 . S
C826 C827 1.369 1_455 S
C826 C830 1.531 . S
C827 C826 1.369 1_655 S
C827 C828 1.410 . S
C827 C835 1.503 . S
C828 C827 1.410 . S
C828 C829 1.392 1_655 S
C828 C831 1.511 . S
C829 C825 1.376 . S
C829 C828 1.392 1_455 S
C829 H841 0.929 . S
C830 C826 1.531 . S
C830 H842 0.960 1_455 S
C830 H843 0.962 . S
C830 H844 0.960 . S
C831 C828 1.511 . S
C831 H845 0.961 . S
C831 H846 0.961 . S
C831 H847 0.961 . S
C832 C833 1.370 . S
C832 C834 1.363 . S
C832 H848 0.931 . S
C833 C832 1.370 . S
C833 C837 1.408 . S
C834 C832 1.363 . S
C834 C835 1.370 . S
C834 C838 1.524 . S
C835 C827 1.503 . S
C835 C834 1.370 . S
C835 C836 1.403 . S
C836 C835 1.403 . S
C836 C837 1.404 . S
C836 C839 1.539 . S
C837 C833 1.408 . S
C837 C836 1.404 . S
C837 H849 0.930 . S
C838 C834 1.524 . S
C838 H850 0.956 . S
C838 H851 0.961 . S
C838 H852 0.961 . S
C839 C836 1.539 . S
C839 H853 0.958 . S
C839 H854 0.961 . S
C839 H855 0.960 . S
H840 C824 0.931 . S
H841 C829 0.929 . S
H842 C830 0.960 1_655 S
H843 C830 0.962 . S
H844 C830 0.960 . S
H845 C831 0.961 . S
H846 C831 0.961 . S
H847 C831 0.961 . S
H848 C832 0.931 . S
H849 C837 0.930 . S
H850 C838 0.956 . S
H851 C838 0.961 . S
H852 C838 0.961 . S
H853 C839 0.958 . S
H854 C839 0.961 . S
H855 C839 0.960 . S
C856 C857 1.391 . S
C856 C858 1.394 . S
C856 H872 0.931 . S
C857 C856 1.391 . S
C857 C861 1.376 . S
C858 C856 1.394 . S
C858 C859 1.369 1_655 S
C858 C862 1.531 . S
C859 C858 1.369 1_455 S
C859 C860 1.410 . S
C859 C867 1.503 . S
C860 C859 1.410 . S
C860 C861 1.392 1_455 S
C860 C863 1.511 . S
C861 C857 1.376 . S
C861 C860 1.392 1_655 S
C861 H873 0.929 . S
C862 C858 1.531 . S
C862 H874 0.960 1_655 S
C862 H875 0.962 . S
C862 H876 0.960 . S
C863 C860 1.511 . S
C863 H877 0.961 . S
C863 H878 0.961 . S
C863 H879 0.961 . S
C864 C865 1.370 . S
C864 C866 1.363 . S
C864 H880 0.931 . S
C865 C864 1.370 . S
C865 C869 1.408 . S
C866 C864 1.363 . S
C866 C867 1.370 . S
C866 C870 1.524 . S
C867 C859 1.503 . S
C867 C866 1.370 . S
C867 C868 1.403 . S
C868 C867 1.403 . S
C868 C869 1.404 . S
C868 C871 1.539 . S
C869 C865 1.408 . S
C869 C868 1.404 . S
C869 H881 0.930 . S
C870 C866 1.524 . S
C870 H882 0.956 . S
C870 H883 0.961 . S
C870 H884 0.961 . S
C871 C868 1.539 . S
C871 H885 0.958 . S
C871 H886 0.961 . S
C871 H887 0.960 . S
H872 C856 0.931 . S
H873 C861 0.929 . S
H874 C862 0.960 1_455 S
H875 C862 0.962 . S
H876 C862 0.960 . S
H877 C863 0.961 . S
H878 C863 0.961 . S
H879 C863 0.961 . S
H880 C864 0.931 . S
H881 C869 0.930 . S
H882 C870 0.956 . S
H883 C870 0.961 . S
H884 C870 0.961 . S
H885 C871 0.958 . S
H886 C871 0.961 . S
H887 C871 0.960 . S
C888 C889 1.391 . S
C888 C890 1.394 . S
C888 H904 0.931 . S
C889 C888 1.391 . S
C889 C893 1.376 . S
C890 C888 1.394 . S
C890 C891 1.369 1_455 S
C890 C894 1.531 . S
C891 C890 1.369 1_655 S
C891 C892 1.410 . S
C891 C899 1.503 . S
C892 C891 1.410 . S
C892 C893 1.392 1_655 S
C892 C895 1.511 . S
C893 C889 1.376 . S
C893 C892 1.392 1_455 S
C893 H905 0.929 . S
C894 C890 1.531 . S
C894 H906 0.960 1_455 S
C894 H907 0.962 . S
C894 H908 0.960 . S
C895 C892 1.511 . S
C895 H909 0.961 1_556 S
C895 H910 0.961 . S
C895 H911 0.961 . S
C896 C897 1.370 . S
C896 C898 1.363 . S
C896 H912 0.931 . S
C897 C896 1.370 . S
C897 C901 1.408 . S
C898 C896 1.363 . S
C898 C899 1.370 . S
C898 C902 1.524 . S
C899 C891 1.503 . S
C899 C898 1.370 . S
C899 C900 1.403 . S
C900 C899 1.403 . S
C900 C901 1.404 . S
C900 C903 1.539 . S
C901 C897 1.408 . S
C901 C900 1.404 . S
C901 H913 0.930 . S
C902 C898 1.524 . S
C902 H914 0.956 . S
C902 H915 0.961 . S
C902 H916 0.961 . S
C903 C900 1.539 . S
C903 H917 0.958 . S
C903 H918 0.961 . S
C903 H919 0.960 . S
H904 C888 0.931 . S
H905 C893 0.929 . S
H906 C894 0.960 1_655 S
H907 C894 0.962 . S
H908 C894 0.960 . S
H909 C895 0.961 1_554 S
H910 C895 0.961 . S
H911 C895 0.961 . S
H912 C896 0.931 . S
H913 C901 0.930 . S
H914 C902 0.956 . S
H915 C902 0.961 . S
H916 C902 0.961 . S
H917 C903 0.958 . S
H918 C903 0.961 . S
H919 C903 0.960 . S
C920 C921 1.391 . S
C920 C922 1.394 . S
C920 H936 0.931 . S
C921 C920 1.391 . S
C921 C925 1.376 . S
C922 C920 1.394 . S
C922 C923 1.369 . S
C922 C926 1.531 . S
C923 C922 1.369 . S
C923 C924 1.410 . S
C923 C931 1.503 . S
C924 C923 1.410 . S
C924 C925 1.392 . S
C924 C927 1.511 . S
C925 C921 1.376 . S
C925 C924 1.392 . S
C925 H937 0.929 . S
C926 C922 1.531 . S
C926 H938 0.960 . S
C926 H939 0.962 . S
C926 H940 0.960 . S
C927 C924 1.511 . S
C927 H941 0.961 . S
C927 H942 0.961 . S
C927 H943 0.961 . S
C928 C929 1.370 . S
C928 C930 1.363 . S
C928 H944 0.931 . S
C929 C928 1.370 . S
C929 C933 1.408 . S
C930 C928 1.363 . S
C930 C931 1.370 1_655 S
C930 C934 1.524 1_655 S
C931 C923 1.503 . S
C931 C930 1.370 1_455 S
C931 C932 1.403 . S
C932 C931 1.403 . S
C932 C933 1.404 1_455 S
C932 C935 1.539 . S
C933 C929 1.408 . S
C933 C932 1.404 1_655 S
C933 H945 0.930 . S
C934 C930 1.524 1_455 S
C934 H946 0.956 . S
C934 H947 0.961 . S
C934 H948 0.961 1_455 S
C935 C932 1.539 . S
C935 H949 0.958 . S
C935 H950 0.961 . S
C935 H951 0.960 . S
H936 C920 0.931 . S
H937 C925 0.929 . S
H938 C926 0.960 . S
H939 C926 0.962 . S
H940 C926 0.960 . S
H941 C927 0.961 . S
H942 C927 0.961 . S
H943 C927 0.961 . S
H944 C928 0.931 . S
H945 C933 0.930 . S
H946 C934 0.956 . S
H947 C934 0.961 . S
H948 C934 0.961 1_655 S
H949 C935 0.958 . S
H950 C935 0.961 . S
H951 C935 0.960 . S
C952 C953 1.391 . S
C952 C954 1.394 1_545 S
C952 H968 0.931 . S
C953 C952 1.391 . S
C953 C957 1.376 . S
C954 C952 1.394 1_565 S
C954 C955 1.369 . S
C954 C958 1.531 . S
C955 C954 1.369 . S
C955 C956 1.410 1_565 S
C955 C963 1.503 . S
C956 C955 1.410 1_545 S
C956 C957 1.392 . S
C956 C959 1.511 . S
C957 C953 1.376 . S
C957 C956 1.392 . S
C957 H969 0.929 . S
C958 C954 1.531 . S
C958 H970 0.960 . S
C958 H971 0.962 . S
C958 H972 0.960 . S
C959 C956 1.511 . S
C959 H973 0.961 . S
C959 H974 0.961 1_545 S
C959 H975 0.961 . S
C960 C961 1.370 . S
C960 C962 1.363 . S
C960 H976 0.931 . S
C961 C960 1.370 . S
C961 C965 1.408 . S
C962 C960 1.363 . S
C962 C963 1.370 . S
C962 C966 1.524 . S
C963 C955 1.503 . S
C963 C962 1.370 . S
C963 C964 1.403 . S
C964 C963 1.403 . S
C964 C965 1.404 . S
C964 C967 1.539 . S
C965 C961 1.408 . S
C965 C964 1.404 . S
C965 H977 0.930 . S
C966 C962 1.524 . S
C966 H978 0.956 . S
C966 H979 0.961 . S
C966 H980 0.961 . S
C967 C964 1.539 . S
C967 H981 0.958 . S
C967 H982 0.961 . S
C967 H983 0.960 . S
H968 C952 0.931 . S
H969 C957 0.929 . S
H970 C958 0.960 . S
H971 C958 0.962 . S
H972 C958 0.960 . S
H973 C959 0.961 . S
H974 C959 0.961 1_565 S
H975 C959 0.961 . S
H976 C960 0.931 . S
H977 C965 0.930 . S
H978 C966 0.956 . S
H979 C966 0.961 . S
H980 C966 0.961 . S
H981 C967 0.958 . S
H982 C967 0.961 . S
H983 C967 0.960 . S
C984 C985 1.391 . S
C984 C986 1.394 . S
C984 H1000 0.931 . S
C985 C984 1.391 . S
C985 C989 1.376 . S
C986 C984 1.394 . S
C986 C987 1.369 . S
C986 C990 1.531 . S
C987 C986 1.369 . S
C987 C988 1.410 . S
C987 C995 1.503 . S
C988 C987 1.410 . S
C988 C989 1.392 . S
C988 C991 1.511 . S
C989 C985 1.376 . S
C989 C988 1.392 . S
C989 H1001 0.929 . S
C990 C986 1.531 . S
C990 H1002 0.960 . S
C990 H1003 0.962 . S
C990 H1004 0.960 . S
C991 C988 1.511 . S
C991 H1005 0.961 . S
C991 H1006 0.961 . S
C991 H1007 0.961 . S
C992 C993 1.370 . S
C992 C994 1.363 . S
C992 H1008 0.931 . S
C993 C992 1.370 . S
C993 C997 1.408 . S
C994 C992 1.363 . S
C994 C995 1.370 1_565 S
C994 C998 1.524 . S
C995 C987 1.503 . S
C995 C994 1.370 1_545 S
C995 C996 1.403 . S
C996 C995 1.403 . S
C996 C997 1.404 1_545 S
C996 C999 1.539 . S
C997 C993 1.408 . S
C997 C996 1.404 1_565 S
C997 H1009 0.930 . S
C998 C994 1.524 . S
C998 H1010 0.956 1_565 S
C998 H1011 0.961 1_565 S
C998 H1012 0.961 . S
C999 C996 1.539 . S
C999 H1013 0.958 . S
C999 H1014 0.961 . S
C999 H1015 0.960 . S
H1000 C984 0.931 . S
H1001 C989 0.929 . S
H1002 C990 0.960 . S
H1003 C990 0.962 . S
H1004 C990 0.960 . S
H1005 C991 0.961 . S
H1006 C991 0.961 . S
H1007 C991 0.961 . S
H1008 C992 0.931 . S
H1009 C997 0.930 . S
H1010 C998 0.956 1_545 S
H1011 C998 0.961 1_545 S
H1012 C998 0.961 . S
H1013 C999 0.958 . S
H1014 C999 0.961 . S
H1015 C999 0.960 . S
C1016 C1017 1.391 . S
C1016 C1018 1.394 . S
C1016 H1032 0.931 . S
C1017 C1016 1.391 . S
C1017 C1021 1.376 . S
C1018 C1016 1.394 . S
C1018 C1019 1.369 . S
C1018 C1022 1.531 . S
C1019 C1018 1.369 . S
C1019 C1020 1.410 . S
C1019 C1027 1.503 . S
C1020 C1019 1.410 . S
C1020 C1021 1.392 . S
C1020 C1023 1.511 . S
C1021 C1017 1.376 . S
C1021 C1020 1.392 . S
C1021 H1033 0.929 . S
C1022 C1018 1.531 . S
C1022 H1034 0.960 . S
C1022 H1035 0.962 . S
C1022 H1036 0.960 . S
C1023 C1020 1.511 . S
C1023 H1037 0.961 . S
C1023 H1038 0.961 . S
C1023 H1039 0.961 . S
C1024 C1025 1.370 . S
C1024 C1026 1.363 . S
C1024 H1040 0.931 . S
C1025 C1024 1.370 . S
C1025 C1029 1.408 . S
C1026 C1024 1.363 . S
C1026 C1027 1.370 . S
C1026 C1030 1.524 . S
C1027 C1019 1.503 . S
C1027 C1026 1.370 . S
C1027 C1028 1.403 . S
C1028 C1027 1.403 . S
C1028 C1029 1.404 . S
C1028 C1031 1.539 . S
C1029 C1025 1.408 . S
C1029 C1028 1.404 . S
C1029 H1041 0.930 . S
C1030 C1026 1.524 . S
C1030 H1042 0.956 . S
C1030 H1043 0.961 . S
C1030 H1044 0.961 . S
C1031 C1028 1.539 . S
C1031 H1045 0.958 . S
C1031 H1046 0.961 . S
C1031 H1047 0.960 . S
H1032 C1016 0.931 . S
H1033 C1021 0.929 . S
H1034 C1022 0.960 . S
H1035 C1022 0.962 . S
H1036 C1022 0.960 . S
H1037 C1023 0.961 . S
H1038 C1023 0.961 . S
H1039 C1023 0.961 . S
H1040 C1024 0.931 . S
H1041 C1029 0.930 . S
H1042 C1030 0.956 . S
H1043 C1030 0.961 . S
H1044 C1030 0.961 . S
H1045 C1031 0.958 . S
H1046 C1031 0.961 . S
H1047 C1031 0.960 . S
C1048 C1049 1.391 . S
C1048 C1050 1.394 . S
C1048 H1064 0.931 . S
C1049 C1048 1.391 . S
C1049 C1053 1.376 . S
C1050 C1048 1.394 . S
C1050 C1051 1.369 . S
C1050 C1054 1.531 . S
C1051 C1050 1.369 . S
C1051 C1052 1.410 . S
C1051 C1059 1.503 . S
C1052 C1051 1.410 . S
C1052 C1053 1.392 . S
C1052 C1055 1.511 . S
C1053 C1049 1.376 . S
C1053 C1052 1.392 . S
C1053 H1065 0.929 . S
C1054 C1050 1.531 . S
C1054 H1066 0.960 . S
C1054 H1067 0.962 . S
C1054 H1068 0.960 . S
C1055 C1052 1.511 . S
C1055 H1069 0.961 . S
C1055 H1070 0.961 1_545 S
C1055 H1071 0.961 . S
C1056 C1057 1.370 . S
C1056 C1058 1.363 1_565 S
C1056 H1072 0.931 . S
C1057 C1056 1.370 . S
C1057 C1061 1.408 . S
C1058 C1056 1.363 1_545 S
C1058 C1059 1.370 . S
C1058 C1062 1.524 . S
C1059 C1051 1.503 . S
C1059 C1058 1.370 . S
C1059 C1060 1.403 1_545 S
C1060 C1059 1.403 1_565 S
C1060 C1061 1.404 . S
C1060 C1063 1.539 1_565 S
C1061 C1057 1.408 . S
C1061 C1060 1.404 . S
C1061 H1073 0.930 . S
C1062 C1058 1.524 . S
C1062 H1074 0.956 . S
C1062 H1075 0.961 . S
C1062 H1076 0.961 1_655 S
C1063 C1060 1.539 1_545 S
C1063 H1077 0.958 . S
C1063 H1078 0.961 1_545 S
C1063 H1079 0.960 . S
H1064 C1048 0.931 . S
H1065 C1053 0.929 . S
H1066 C1054 0.960 . S
H1067 C1054 0.962 . S
H1068 C1054 0.960 . S
H1069 C1055 0.961 . S
H1070 C1055 0.961 1_565 S
H1071 C1055 0.961 . S
H1072 C1056 0.931 . S
H1073 C1061 0.930 . S
H1074 C1062 0.956 . S
H1075 C1062 0.961 . S
H1076 C1062 0.961 1_455 S
H1077 C1063 0.958 . S
H1078 C1063 0.961 1_565 S
H1079 C1063 0.960 . S
C1080 C1081 1.391 1_455 S
C1080 C1082 1.394 . S
C1080 H1096 0.931 . S
C1081 C1080 1.391 1_655 S
C1081 C1085 1.376 . S
C1082 C1080 1.394 . S
C1082 C1083 1.369 . S
C1082 C1086 1.531 . S
C1083 C1082 1.369 . S
C1083 C1084 1.410 . S
C1083 C1091 1.503 . S
C1084 C1083 1.410 . S
C1084 C1085 1.392 1_455 S
C1084 C1087 1.511 . S
C1085 C1081 1.376 . S
C1085 C1084 1.392 1_655 S
C1085 H1097 0.929 . S
C1086 C1082 1.531 . S
C1086 H1098 0.960 . S
C1086 H1099 0.962 1_455 S
C1086 H1100 0.960 . S
C1087 C1084 1.511 . S
C1087 H1101 0.961 1_455 S
C1087 H1102 0.961 1_455 S
C1087 H1103 0.961 . S
C1088 C1089 1.370 1_655 S
C1088 C1090 1.363 . S
C1088 H1104 0.931 . S
C1089 C1088 1.370 1_455 S
C1089 C1093 1.408 . S
C1090 C1088 1.363 . S
C1090 C1091 1.370 1_655 S
C1090 C1094 1.524 . S
C1091 C1083 1.503 . S
C1091 C1090 1.370 1_455 S
C1091 C1092 1.403 . S
C1092 C1091 1.403 . S
C1092 C1093 1.404 . S
C1092 C1095 1.539 . S
C1093 C1089 1.408 . S
C1093 C1092 1.404 . S
C1093 H1105 0.930 . S
C1094 C1090 1.524 . S
C1094 H1106 0.956 . S
C1094 H1107 0.961 . S
C1094 H1108 0.961 . S
C1095 C1092 1.539 . S
C1095 H1109 0.958 . S
C1095 H1110 0.961 . S
C1095 H1111 0.960 . S
H1096 C1080 0.931 . S
H1097 C1085 0.929 . S
H1098 C1086 0.960 . S
H1099 C1086 0.962 1_655 S
H1100 C1086 0.960 . S
H1101 C1087 0.961 1_655 S
H1102 C1087 0.961 1_655 S
H1103 C1087 0.961 . S
H1104 C1088 0.931 . S
H1105 C1093 0.930 . S
H1106 C1094 0.956 . S
H1107 C1094 0.961 . S
H1108 C1094 0.961 . S
H1109 C1095 0.958 . S
H1110 C1095 0.961 . S
H1111 C1095 0.960 . S
C1112 C1113 1.391 1_655 S
C1112 C1114 1.394 . S
C1112 H1128 0.931 . S
C1113 C1112 1.391 1_455 S
C1113 C1117 1.376 . S
C1114 C1112 1.394 . S
C1114 C1115 1.369 1_655 S
C1114 C1118 1.531 . S
C1115 C1114 1.369 1_455 S
C1115 C1116 1.410 . S
C1115 C1123 1.502 1_455 S
C1116 C1115 1.410 . S
C1116 C1117 1.392 . S
C1116 C1119 1.511 . S
C1117 C1113 1.376 . S
C1117 C1116 1.392 . S
C1117 H1129 0.929 . S
C1118 C1114 1.531 . S
C1118 H1130 0.960 . S
C1118 H1131 0.962 . S
C1118 H1132 0.960 . S
C1119 C1116 1.511 . S
C1119 H1133 0.961 . S
C1119 H1134 0.961 . S
C1119 H1135 0.961 . S
C1120 C1121 1.370 . S
C1120 C1122 1.363 . S
C1120 H1136 0.931 . S
C1121 C1120 1.370 . S
C1121 C1125 1.408 . S
C1122 C1120 1.363 . S
C1122 C1123 1.372 . S
C1122 C1126 1.524 . S
C1123 C1115 1.502 1_655 S
C1123 C1122 1.372 . S
C1123 C1124 1.402 1_655 S
C1124 C1123 1.402 1_455 S
C1124 C1125 1.403 1_455 S
C1124 C1127 1.541 . S
C1125 C1121 1.408 . S
C1125 C1124 1.403 1_655 S
C1125 H1137 0.932 . S
C1126 C1122 1.524 . S
C1126 H1138 0.956 . S
C1126 H1139 0.961 1_655 S
C1126 H1140 0.961 . S
C1127 C1124 1.541 . S
C1127 H1141 0.958 1_455 S
C1127 H1142 0.961 . S
C1127 H1143 0.960 . S
H1128 C1112 0.931 . S
H1129 C1117 0.929 . S
H1130 C1118 0.960 . S
H1131 C1118 0.962 . S
H1132 C1118 0.960 . S
H1133 C1119 0.961 . S
H1134 C1119 0.961 . S
H1135 C1119 0.961 . S
H1136 C1120 0.931 . S
H1137 C1125 0.932 . S
H1138 C1126 0.956 . S
H1139 C1126 0.961 1_455 S
H1140 C1126 0.961 . S
H1141 C1127 0.958 1_655 S
H1142 C1127 0.961 . S
H1143 C1127 0.960 . S
C1144 C1145 1.391 . S
C1144 C1146 1.394 . S
C1144 H1160 0.931 . S
C1145 C1144 1.391 . S
C1145 C1149 1.376 1_565 S
C1146 C1144 1.394 . S
C1146 C1147 1.369 . S
C1146 C1150 1.531 . S
C1147 C1146 1.369 . S
C1147 C1148 1.410 1_565 S
C1147 C1155 1.503 . S
C1148 C1147 1.410 1_545 S
C1148 C1149 1.392 . S
C1148 C1151 1.511 . S
C1149 C1145 1.376 1_545 S
C1149 C1148 1.392 . S
C1149 H1161 0.929 . S
C1150 C1146 1.531 . S
C1150 H1162 0.960 . S
C1150 H1163 0.962 . S
C1150 H1164 0.960 . S
C1151 C1148 1.511 . S
C1151 H1165 0.961 . S
C1151 H1166 0.961 . S
C1151 H1167 0.961 . S
C1152 C1153 1.370 . S
C1152 C1154 1.363 . S
C1152 H1168 0.931 . S
C1153 C1152 1.370 . S
C1153 C1157 1.408 1_545 S
C1154 C1152 1.363 . S
C1154 C1155 1.370 1_545 S
C1154 C1158 1.524 . S
C1155 C1147 1.503 . S
C1155 C1154 1.370 1_565 S
C1155 C1156 1.403 . S
C1156 C1155 1.403 . S
C1156 C1157 1.404 . S
C1156 C1159 1.539 . S
C1157 C1153 1.408 1_565 S
C1157 C1156 1.404 . S
C1157 H1169 0.930 . S
C1158 C1154 1.524 . S
C1158 H1170 0.956 . S
C1158 H1171 0.961 . S
C1158 H1172 0.961 . S
C1159 C1156 1.539 . S
C1159 H1173 0.958 . S
C1159 H1174 0.961 . S
C1159 H1175 0.960 . S
H1160 C1144 0.931 . S
H1161 C1149 0.929 . S
H1162 C1150 0.960 . S
H1163 C1150 0.962 . S
H1164 C1150 0.960 . S
H1165 C1151 0.961 . S
H1166 C1151 0.961 . S
H1167 C1151 0.961 . S
H1168 C1152 0.931 . S
H1169 C1157 0.930 . S
H1170 C1158 0.956 . S
H1171 C1158 0.961 . S
H1172 C1158 0.961 . S
H1173 C1159 0.958 . S
H1174 C1159 0.961 . S
H1175 C1159 0.960 . S
C1176 C1177 1.391 . S
C1176 C1178 1.394 . S
C1176 H1192 0.931 . S
C1177 C1176 1.391 . S
C1177 C1181 1.376 . S
C1178 C1176 1.394 . S
C1178 C1179 1.369 . S
C1178 C1182 1.531 . S
C1179 C1178 1.369 . S
C1179 C1180 1.410 . S
C1179 C1187 1.503 . S
C1180 C1179 1.410 . S
C1180 C1181 1.392 . S
C1180 C1183 1.511 . S
C1181 C1177 1.376 . S
C1181 C1180 1.392 . S
C1181 H1193 0.929 . S
C1182 C1178 1.531 . S
C1182 H1194 0.960 . S
C1182 H1195 0.962 . S
C1182 H1196 0.960 . S
C1183 C1180 1.511 . S
C1183 H1197 0.961 . S
C1183 H1198 0.961 . S
C1183 H1199 0.961 . S
C1184 C1185 1.370 . S
C1184 C1186 1.363 . S
C1184 H1200 0.931 . S
C1185 C1184 1.370 . S
C1185 C1189 1.408 . S
C1186 C1184 1.363 . S
C1186 C1187 1.370 . S
C1186 C1190 1.524 . S
C1187 C1179 1.503 . S
C1187 C1186 1.370 . S
C1187 C1188 1.403 . S
C1188 C1187 1.403 . S
C1188 C1189 1.404 . S
C1188 C1191 1.539 . S
C1189 C1185 1.408 . S
C1189 C1188 1.404 . S
C1189 H1201 0.930 . S
C1190 C1186 1.524 . S
C1190 H1202 0.956 . S
C1190 H1203 0.961 . S
C1190 H1204 0.961 . S
C1191 C1188 1.539 . S
C1191 H1205 0.958 . S
C1191 H1206 0.961 . S
C1191 H1207 0.960 . S
H1192 C1176 0.931 . S
H1193 C1181 0.929 . S
H1194 C1182 0.960 . S
H1195 C1182 0.962 . S
H1196 C1182 0.960 . S
H1197 C1183 0.961 . S
H1198 C1183 0.961 . S
H1199 C1183 0.961 . S
H1200 C1184 0.931 . S
H1201 C1189 0.930 . S
H1202 C1190 0.956 . S
H1203 C1190 0.961 . S
H1204 C1190 0.961 . S
H1205 C1191 0.958 . S
H1206 C1191 0.961 . S
H1207 C1191 0.960 . S
C1208 C1209 1.391 1_556 S
C1208 C1210 1.394 . S
C1208 H1224 0.931 . S
C1209 C1208 1.391 1_554 S
C1209 C1213 1.376 . S
C1210 C1208 1.394 . S
C1210 C1211 1.343 1_556 S
C1210 C1214 1.531 . S
C1211 C1210 1.343 1_554 S
C1211 C1212 1.439 . S
C1211 C1219 1.502 1_554 S
C1212 C1211 1.439 . S
C1212 C1213 1.392 . S
C1212 C1215 1.511 . S
C1213 C1209 1.376 . S
C1213 C1212 1.392 . S
C1213 H1225 0.929 . S
C1214 C1210 1.531 . S
C1214 H1226 0.960 . S
C1214 H1227 0.962 . S
C1214 H1228 0.960 . S
C1215 C1212 1.511 . S
C1215 H1229 0.961 . S
C1215 H1230 0.961 . S
C1215 H1231 0.961 . S
C1216 C1217 1.370 . S
C1216 C1218 1.363 1_556 S
C1216 H1232 0.931 . S
C1217 C1216 1.370 . S
C1217 C1221 1.408 . S
C1218 C1216 1.363 1_554 S
C1218 C1219 1.371 1_554 S
C1218 C1222 1.524 . S
C1219 C1211 1.502 1_556 S
C1219 C1218 1.371 1_556 S
C1219 C1220 1.403 . S
C1220 C1219 1.403 . S
C1220 C1221 1.404 . S
C1220 C1223 1.539 . S
C1221 C1217 1.408 . S
C1221 C1220 1.404 . S
C1221 H1233 0.930 . S
C1222 C1218 1.524 . S
C1222 H1234 0.956 1_554 S
C1222 H1235 0.961 . S
C1222 H1236 0.961 . S
C1223 C1220 1.539 . S
C1223 H1237 0.958 . S
C1223 H1238 0.961 1_556 S
C1223 H1239 0.960 1_556 S
H1224 C1208 0.931 . S
H1225 C1213 0.929 . S
H1226 C1214 0.960 . S
H1227 C1214 0.962 . S
H1228 C1214 0.960 . S
H1229 C1215 0.961 . S
H1230 C1215 0.961 . S
H1231 C1215 0.961 . S
H1232 C1216 0.931 . S
H1233 C1221 0.930 . S
H1234 C1222 0.956 1_556 S
H1235 C1222 0.961 . S
H1236 C1222 0.961 . S
H1237 C1223 0.958 . S
H1238 C1223 0.961 1_554 S
H1239 C1223 0.960 1_554 S
C1240 C1241 1.391 . S
C1240 C1242 1.394 . S
C1240 H1256 0.931 . S
C1241 C1240 1.391 . S
C1241 C1245 1.376 . S
C1242 C1240 1.394 . S
C1242 C1243 1.369 . S
C1242 C1246 1.531 . S
C1243 C1242 1.369 . S
C1243 C1244 1.410 . S
C1243 C1251 1.503 . S
C1244 C1243 1.410 . S
C1244 C1245 1.392 . S
C1244 C1247 1.511 . S
C1245 C1241 1.376 . S
C1245 C1244 1.392 . S
C1245 H1257 0.929 . S
C1246 C1242 1.531 . S
C1246 H1258 0.960 . S
C1246 H1259 0.962 . S
C1246 H1260 0.960 . S
C1247 C1244 1.511 . S
C1247 H1261 0.961 . S
C1247 H1262 0.961 . S
C1247 H1263 0.961 . S
C1248 C1249 1.370 . S
C1248 C1250 1.363 . S
C1248 H1264 0.931 . S
C1249 C1248 1.370 . S
C1249 C1253 1.408 . S
C1250 C1248 1.363 . S
C1250 C1251 1.370 . S
C1250 C1254 1.524 . S
C1251 C1243 1.503 . S
C1251 C1250 1.370 . S
C1251 C1252 1.403 . S
C1252 C1251 1.403 . S
C1252 C1253 1.404 . S
C1252 C1255 1.539 . S
C1253 C1249 1.408 . S
C1253 C1252 1.404 . S
C1253 H1265 0.930 . S
C1254 C1250 1.524 . S
C1254 H1266 0.956 . S
C1254 H1267 0.961 . S
C1254 H1268 0.961 . S
C1255 C1252 1.539 . S
C1255 H1269 0.958 . S
C1255 H1270 0.961 . S
C1255 H1271 0.960 . S
H1256 C1240 0.931 . S
H1257 C1245 0.929 . S
H1258 C1246 0.960 . S
H1259 C1246 0.962 . S
H1260 C1246 0.960 . S
H1261 C1247 0.961 . S
H1262 C1247 0.961 . S
H1263 C1247 0.961 . S
H1264 C1248 0.931 . S
H1265 C1253 0.930 . S
H1266 C1254 0.956 . S
H1267 C1254 0.961 . S
H1268 C1254 0.961 . S
H1269 C1255 0.958 . S
H1270 C1255 0.961 . S
H1271 C1255 0.960 . S
C1272 C1273 1.391 . S
C1272 C1274 1.394 . S
C1272 H1288 0.931 . S
C1273 C1272 1.391 . S
C1273 C1277 1.376 . S
C1274 C1272 1.394 . S
C1274 C1275 1.369 . S
C1274 C1278 1.531 . S
C1275 C1274 1.369 . S
C1275 C1276 1.410 . S
C1275 C1283 1.503 . S
C1276 C1275 1.410 . S
C1276 C1277 1.392 . S
C1276 C1279 1.511 . S
C1277 C1273 1.376 . S
C1277 C1276 1.392 . S
C1277 H1289 0.929 . S
C1278 C1274 1.531 . S
C1278 H1290 0.960 . S
C1278 H1291 0.962 . S
C1278 H1292 0.960 . S
C1279 C1276 1.511 . S
C1279 H1293 0.961 . S
C1279 H1294 0.961 . S
C1279 H1295 0.961 . S
C1280 C1281 1.370 . S
C1280 C1282 1.363 . S
C1280 H1296 0.931 . S
C1281 C1280 1.370 . S
C1281 C1285 1.408 . S
C1282 C1280 1.363 . S
C1282 C1283 1.370 . S
C1282 C1286 1.524 . S
C1283 C1275 1.503 . S
C1283 C1282 1.370 . S
C1283 C1284 1.403 . S
C1284 C1283 1.403 . S
C1284 C1285 1.404 . S
C1284 C1287 1.539 . S
C1285 C1281 1.408 . S
C1285 C1284 1.404 . S
C1285 H1297 0.930 . S
C1286 C1282 1.524 . S
C1286 H1298 0.956 . S
C1286 H1299 0.961 . S
C1286 H1300 0.961 . S
C1287 C1284 1.539 . S
C1287 H1301 0.958 . S
C1287 H1302 0.961 . S
C1287 H1303 0.960 . S
H1288 C1272 0.931 . S
H1289 C1277 0.929 . S
H1290 C1278 0.960 . S
H1291 C1278 0.962 . S
H1292 C1278 0.960 . S
H1293 C1279 0.961 . S
H1294 C1279 0.961 . S
H1295 C1279 0.961 . S
H1296 C1280 0.931 . S
H1297 C1285 0.930 . S
H1298 C1286 0.956 . S
H1299 C1286 0.961 . S
H1300 C1286 0.961 . S
H1301 C1287 0.958 . S
H1302 C1287 0.961 . S
H1303 C1287 0.960 . S
C1304 C1305 1.391 . S
C1304 C1306 1.394 . S
C1304 H1320 0.931 . S
C1305 C1304 1.391 . S
C1305 C1309 1.376 . S
C1306 C1304 1.394 . S
C1306 C1307 1.369 . S
C1306 C1310 1.531 . S
C1307 C1306 1.369 . S
C1307 C1308 1.410 . S
C1307 C1315 1.503 . S
C1308 C1307 1.410 . S
C1308 C1309 1.392 . S
C1308 C1311 1.511 . S
C1309 C1305 1.376 . S
C1309 C1308 1.392 . S
C1309 H1321 0.929 . S
C1310 C1306 1.531 . S
C1310 H1322 0.960 . S
C1310 H1323 0.962 . S
C1310 H1324 0.960 . S
C1311 C1308 1.511 . S
C1311 H1325 0.961 . S
C1311 H1326 0.961 . S
C1311 H1327 0.961 . S
C1312 C1313 1.370 . S
C1312 C1314 1.363 . S
C1312 H1328 0.931 . S
C1313 C1312 1.370 . S
C1313 C1317 1.408 . S
C1314 C1312 1.363 . S
C1314 C1315 1.370 . S
C1314 C1318 1.524 . S
C1315 C1307 1.503 . S
C1315 C1314 1.370 . S
C1315 C1316 1.403 . S
C1316 C1315 1.403 . S
C1316 C1317 1.404 . S
C1316 C1319 1.539 . S
C1317 C1313 1.408 . S
C1317 C1316 1.404 . S
C1317 H1329 0.930 . S
C1318 C1314 1.524 . S
C1318 H1330 0.956 . S
C1318 H1331 0.961 . S
C1318 H1332 0.961 . S
C1319 C1316 1.539 . S
C1319 H1333 0.958 . S
C1319 H1334 0.961 . S
C1319 H1335 0.960 . S
H1320 C1304 0.931 . S
H1321 C1309 0.929 . S
H1322 C1310 0.960 . S
H1323 C1310 0.962 . S
H1324 C1310 0.960 . S
H1325 C1311 0.961 . S
H1326 C1311 0.961 . S
H1327 C1311 0.961 . S
H1328 C1312 0.931 . S
H1329 C1317 0.930 . S
H1330 C1318 0.956 . S
H1331 C1318 0.961 . S
H1332 C1318 0.961 . S
H1333 C1319 0.958 . S
H1334 C1319 0.961 . S
H1335 C1319 0.960 . S
C1336 C1337 1.391 . S
C1336 C1338 1.394 . S
C1336 H1352 0.931 . S
C1337 C1336 1.391 . S
C1337 C1341 1.376 . S
C1338 C1336 1.394 . S
C1338 C1339 1.369 . S
C1338 C1342 1.531 . S
C1339 C1338 1.369 . S
C1339 C1340 1.410 . S
C1339 C1347 1.503 . S
C1340 C1339 1.410 . S
C1340 C1341 1.392 . S
C1340 C1343 1.511 . S
C1341 C1337 1.376 . S
C1341 C1340 1.392 . S
C1341 H1353 0.929 . S
C1342 C1338 1.531 . S
C1342 H1354 0.960 . S
C1342 H1355 0.962 . S
C1342 H1356 0.960 . S
C1343 C1340 1.511 . S
C1343 H1357 0.961 . S
C1343 H1358 0.961 . S
C1343 H1359 0.961 . S
C1344 C1345 1.370 . S
C1344 C1346 1.363 . S
C1344 H1360 0.931 . S
C1345 C1344 1.370 . S
C1345 C1349 1.408 . S
C1346 C1344 1.363 . S
C1346 C1347 1.370 . S
C1346 C1350 1.524 . S
C1347 C1339 1.503 . S
C1347 C1346 1.370 . S
C1347 C1348 1.403 . S
C1348 C1347 1.403 . S
C1348 C1349 1.404 . S
C1348 C1351 1.539 . S
C1349 C1345 1.408 . S
C1349 C1348 1.404 . S
C1349 H1361 0.930 . S
C1350 C1346 1.524 . S
C1350 H1362 0.956 . S
C1350 H1363 0.961 . S
C1350 H1364 0.961 . S
C1351 C1348 1.539 . S
C1351 H1365 0.958 . S
C1351 H1366 0.961 . S
C1351 H1367 0.960 . S
H1352 C1336 0.931 . S
H1353 C1341 0.929 . S
H1354 C1342 0.960 . S
H1355 C1342 0.962 . S
H1356 C1342 0.960 . S
H1357 C1343 0.961 . S
H1358 C1343 0.961 . S
H1359 C1343 0.961 . S
H1360 C1344 0.931 . S
H1361 C1349 0.930 . S
H1362 C1350 0.956 . S
H1363 C1350 0.961 . S
H1364 C1350 0.961 . S
H1365 C1351 0.958 . S
H1366 C1351 0.961 . S
H1367 C1351 0.960 . S
C1368 C1369 1.391 . S
C1368 C1370 1.394 . S
C1368 H1384 0.931 . S
C1369 C1368 1.391 . S
C1369 C1373 1.376 . S
C1370 C1368 1.394 . S
C1370 C1371 1.369 . S
C1370 C1374 1.531 . S
C1371 C1370 1.369 . S
C1371 C1372 1.410 . S
C1371 C1379 1.503 . S
C1372 C1371 1.410 . S
C1372 C1373 1.392 . S
C1372 C1375 1.511 . S
C1373 C1369 1.376 . S
C1373 C1372 1.392 . S
C1373 H1385 0.929 . S
C1374 C1370 1.531 . S
C1374 H1386 0.960 . S
C1374 H1387 0.962 . S
C1374 H1388 0.960 . S
C1375 C1372 1.511 . S
C1375 H1389 0.961 . S
C1375 H1390 0.961 . S
C1375 H1391 0.961 . S
C1376 C1377 1.370 . S
C1376 C1378 1.363 . S
C1376 H1392 0.931 . S
C1377 C1376 1.370 . S
C1377 C1381 1.408 . S
C1378 C1376 1.363 . S
C1378 C1379 1.370 . S
C1378 C1382 1.524 . S
C1379 C1371 1.503 . S
C1379 C1378 1.370 . S
C1379 C1380 1.403 . S
C1380 C1379 1.403 . S
C1380 C1381 1.404 . S
C1380 C1383 1.539 . S
C1381 C1377 1.408 . S
C1381 C1380 1.404 . S
C1381 H1393 0.930 . S
C1382 C1378 1.524 . S
C1382 H1394 0.956 . S
C1382 H1395 0.961 . S
C1382 H1396 0.961 . S
C1383 C1380 1.539 . S
C1383 H1397 0.958 . S
C1383 H1398 0.961 . S
C1383 H1399 0.960 . S
H1384 C1368 0.931 . S
H1385 C1373 0.929 . S
H1386 C1374 0.960 . S
H1387 C1374 0.962 . S
H1388 C1374 0.960 . S
H1389 C1375 0.961 . S
H1390 C1375 0.961 . S
H1391 C1375 0.961 . S
H1392 C1376 0.931 . S
H1393 C1381 0.930 . S
H1394 C1382 0.956 . S
H1395 C1382 0.961 . S
H1396 C1382 0.961 . S
H1397 C1383 0.958 . S
H1398 C1383 0.961 . S
H1399 C1383 0.960 . S
C1400 C1401 1.391 1_565 S
C1400 C1402 1.394 . S
C1400 H1416 0.931 . S
C1401 C1400 1.391 1_545 S
C1401 C1405 1.376 . S
C1402 C1400 1.394 . S
C1402 C1403 1.369 . S
C1402 C1406 1.531 . S
C1403 C1402 1.369 . S
C1403 C1404 1.410 1_565 S
C1403 C1411 1.503 . S
C1404 C1403 1.410 1_545 S
C1404 C1405 1.392 . S
C1404 C1407 1.511 . S
C1405 C1401 1.376 . S
C1405 C1404 1.392 . S
C1405 H1417 0.929 . S
C1406 C1402 1.531 . S
C1406 H1418 0.960 . S
C1406 H1419 0.962 . S
C1406 H1420 0.960 . S
C1407 C1404 1.511 . S
C1407 H1421 0.961 . S
C1407 H1422 0.961 . S
C1407 H1423 0.961 1_545 S
C1408 C1409 1.370 1_545 S
C1408 C1410 1.363 . S
C1408 H1424 0.931 . S
C1409 C1408 1.370 1_565 S
C1409 C1413 1.408 . S
C1410 C1408 1.363 . S
C1410 C1411 1.370 1_545 S
C1410 C1414 1.524 . S
C1411 C1403 1.503 . S
C1411 C1410 1.370 1_565 S
C1411 C1412 1.403 . S
C1412 C1411 1.403 . S
C1412 C1413 1.404 . S
C1412 C1415 1.539 . S
C1413 C1409 1.408 . S
C1413 C1412 1.404 . S
C1413 H1425 0.930 . S
C1414 C1410 1.524 . S
C1414 H1426 0.956 . S
C1414 H1427 0.961 . S
C1414 H1428 0.961 . S
C1415 C1412 1.539 . S
C1415 H1429 0.958 . S
C1415 H1430 0.961 . S
C1415 H1431 0.960 . S
H1416 C1400 0.931 . S
H1417 C1405 0.929 . S
H1418 C1406 0.960 . S
H1419 C1406 0.962 . S
H1420 C1406 0.960 . S
H1421 C1407 0.961 . S
H1422 C1407 0.961 . S
H1423 C1407 0.961 1_565 S
H1424 C1408 0.931 . S
H1425 C1413 0.930 . S
H1426 C1414 0.956 . S
H1427 C1414 0.961 . S
H1428 C1414 0.961 . S
H1429 C1415 0.958 . S
H1430 C1415 0.961 . S
H1431 C1415 0.960 . S
C1432 C1433 1.391 1_554 S
C1432 C1434 1.394 . S
C1432 H1448 0.931 . S
C1433 C1432 1.391 1_556 S
C1433 C1437 1.376 . S
C1434 C1432 1.394 . S
C1434 C1435 1.369 . S
C1434 C1438 1.531 . S
C1435 C1434 1.369 . S
C1435 C1436 1.410 1_554 S
C1435 C1443 1.503 . S
C1436 C1435 1.410 1_556 S
C1436 C1437 1.392 . S
C1436 C1439 1.511 . S
C1437 C1433 1.376 . S
C1437 C1436 1.392 . S
C1437 H1449 0.929 . S
C1438 C1434 1.531 . S
C1438 H1450 0.960 . S
C1438 H1451 0.962 . S
C1438 H1452 0.960 . S
C1439 C1436 1.511 . S
C1439 H1453 0.961 . S
C1439 H1454 0.961 . S
C1439 H1455 0.961 . S
C1440 C1441 1.370 1_556 S
C1440 C1442 1.363 . S
C1440 H1456 0.931 . S
C1441 C1440 1.370 1_554 S
C1441 C1445 1.408 . S
C1442 C1440 1.363 . S
C1442 C1443 1.370 1_556 S
C1442 C1446 1.524 . S
C1443 C1435 1.503 . S
C1443 C1442 1.370 1_554 S
C1443 C1444 1.403 . S
C1444 C1443 1.403 . S
C1444 C1445 1.404 . S
C1444 C1447 1.539 . S
C1445 C1441 1.408 . S
C1445 C1444 1.404 . S
C1445 H1457 0.930 . S
C1446 C1442 1.524 . S
C1446 H1458 0.956 . S
C1446 H1459 0.961 . S
C1446 H1460 0.961 . S
C1447 C1444 1.539 . S
C1447 H1461 0.958 . S
C1447 H1462 0.961 . S
C1447 H1463 0.960 . S
H1448 C1432 0.931 . S
H1449 C1437 0.929 . S
H1450 C1438 0.960 . S
H1451 C1438 0.962 . S
H1452 C1438 0.960 . S
H1453 C1439 0.961 . S
H1454 C1439 0.961 . S
H1455 C1439 0.961 . S
H1456 C1440 0.931 . S
H1457 C1445 0.930 . S
H1458 C1446 0.956 . S
H1459 C1446 0.961 . S
H1460 C1446 0.961 . S
H1461 C1447 0.958 . S
H1462 C1447 0.961 . S
H1463 C1447 0.960 . S
C1464 C1465 1.391 1_455 S
C1464 C1466 1.394 . S
C1464 H1480 0.931 . S
C1465 C1464 1.391 1_655 S
C1465 C1469 1.376 . S
C1466 C1464 1.394 . S
C1466 C1467 1.369 1_455 S
C1466 C1470 1.531 1_565 S
C1467 C1466 1.369 1_655 S
C1467 C1468 1.410 . S
C1467 C1475 1.503 1_565 S
C1468 C1467 1.410 . S
C1468 C1469 1.392 . S
C1468 C1471 1.511 . S
C1469 C1465 1.376 . S
C1469 C1468 1.392 . S
C1469 H1481 0.929 . S
C1470 C1466 1.531 1_545 S
C1470 H1482 0.960 . S
C1470 H1483 0.962 . S
C1470 H1484 0.960 . S
C1471 C1468 1.511 . S
C1471 H1485 0.961 . S
C1471 H1486 0.961 . S
C1471 H1487 0.961 . S
C1472 C1473 1.370 1_455 S
C1472 C1474 1.363 . S
C1472 H1488 0.931 . S
C1473 C1472 1.370 1_655 S
C1473 C1477 1.408 . S
C1474 C1472 1.363 . S
C1474 C1475 1.370 1_455 S
C1474 C1478 1.524 1_545 S
C1475 C1467 1.503 1_545 S
C1475 C1474 1.370 1_655 S
C1475 C1476 1.403 . S
C1476 C1475 1.403 . S
C1476 C1477 1.404 . S
C1476 C1479 1.539 . S
C1477 C1473 1.408 . S
C1477 C1476 1.404 . S
C1477 H1489 0.930 . S
C1478 C1474 1.524 1_565 S
C1478 H1490 0.956 . S
C1478 H1491 0.961 . S
C1478 H1492 0.961 . S
C1479 C1476 1.539 . S
C1479 H1493 0.958 . S
C1479 H1494 0.961 . S
C1479 H1495 0.960 . S
H1480 C1464 0.931 . S
H1481 C1469 0.929 . S
H1482 C1470 0.960 . S
H1483 C1470 0.962 . S
H1484 C1470 0.960 . S
H1485 C1471 0.961 . S
H1486 C1471 0.961 . S
H1487 C1471 0.961 . S
H1488 C1472 0.931 . S
H1489 C1477 0.930 . S
H1490 C1478 0.956 . S
H1491 C1478 0.961 . S
H1492 C1478 0.961 . S
H1493 C1479 0.958 . S
H1494 C1479 0.961 . S
H1495 C1479 0.960 . S
C1496 C1497 1.391 1_655 S
C1496 C1498 1.394 . S
C1496 H1512 0.931 . S
C1497 C1496 1.391 1_455 S
C1497 C1501 1.376 . S
C1498 C1496 1.394 . S
C1498 C1499 1.369 1_655 S
C1498 C1502 1.531 . S
C1499 C1498 1.369 1_455 S
C1499 C1500 1.410 . S
C1499 C1507 1.503 . S
C1500 C1499 1.410 . S
C1500 C1501 1.392 . S
C1500 C1503 1.511 . S
C1501 C1497 1.376 . S
C1501 C1500 1.392 . S
C1501 H1513 0.929 . S
C1502 C1498 1.531 . S
C1502 H1514 0.960 . S
C1502 H1515 0.962 . S
C1502 H1516 0.960 . S
C1503 C1500 1.511 . S
C1503 H1517 0.961 . S
C1503 H1518 0.961 . S
C1503 H1519 0.961 . S
C1504 C1505 1.383 . S
C1504 C1506 1.363 . S
C1504 H1520 0.931 . S
C1505 C1504 1.383 . S
C1505 C1509 1.395 1_655 S
C1506 C1504 1.363 . S
C1506 C1507 1.370 1_655 S
C1506 C1510 1.524 . S
C1507 C1499 1.503 . S
C1507 C1506 1.370 1_455 S
C1507 C1508 1.403 . S
C1508 C1507 1.403 . S
C1508 C1509 1.404 . S
C1508 C1511 1.539 . S
C1509 C1505 1.395 1_455 S
C1509 C1508 1.404 . S
C1509 H1521 0.930 . S
C1510 C1506 1.524 . S
C1510 H1522 0.956 . S
C1510 H1523 0.961 . S
C1510 H1524 0.961 . S
C1511 C1508 1.539 . S
C1511 H1525 0.958 . S
C1511 H1526 0.961 . S
C1511 H1527 0.960 . S
H1512 C1496 0.931 . S
H1513 C1501 0.929 . S
H1514 C1502 0.960 . S
H1515 C1502 0.962 . S
H1516 C1502 0.960 . S
H1517 C1503 0.961 . S
H1518 C1503 0.961 . S
H1519 C1503 0.961 . S
H1520 C1504 0.931 . S
H1521 C1509 0.930 . S
H1522 C1510 0.956 . S
H1523 C1510 0.961 . S
H1524 C1510 0.961 . S
H1525 C1511 0.958 . S
H1526 C1511 0.961 . S
H1527 C1511 0.960 . S
C1528 C1529 1.391 . S
C1528 C1530 1.394 . S
C1528 H1544 0.931 . S
C1529 C1528 1.391 . S
C1529 C1533 1.376 1_545 S
C1530 C1528 1.394 . S
C1530 C1531 1.369 . S
C1530 C1534 1.531 . S
C1531 C1530 1.369 . S
C1531 C1532 1.410 1_545 S
C1531 C1539 1.505 1_556 S
C1532 C1531 1.410 1_565 S
C1532 C1533 1.392 . S
C1532 C1535 1.534 . S
C1533 C1529 1.376 1_565 S
C1533 C1532 1.392 . S
C1533 H1545 0.929 . S
C1534 C1530 1.531 . S
C1534 H1546 0.960 1_556 S
C1534 H1547 0.962 . S
C1534 H1548 0.960 . S
C1535 C1532 1.534 . S
C1535 H1549 0.987 . S
C1535 H1550 0.944 1_556 S
C1535 H1551 0.931 1_556 S
C1536 C1537 1.370 . S
C1536 C1538 1.363 . S
C1536 H1552 0.931 . S
C1537 C1536 1.370 . S
C1537 C1541 1.408 1_565 S
C1538 C1536 1.363 . S
C1538 C1539 1.364 1_565 S
C1538 C1542 1.524 1_554 S
C1539 C1531 1.505 1_554 S
C1539 C1538 1.364 1_545 S
C1539 C1540 1.409 . S
C1540 C1539 1.409 . S
C1540 C1541 1.404 . S
C1540 C1543 1.539 . S
C1541 C1537 1.408 1_545 S
C1541 C1540 1.404 . S
C1541 H1553 0.930 . S
C1542 C1538 1.524 1_556 S
C1542 H1554 0.956 1_565 S
C1542 H1555 0.961 . S
C1542 H1556 0.961 . S
C1543 C1540 1.539 . S
C1543 H1557 0.958 . S
C1543 H1558 0.961 . S
C1543 H1559 0.960 . S
H1544 C1528 0.931 . S
H1545 C1533 0.929 . S
H1546 C1534 0.960 1_554 S
H1547 C1534 0.962 . S
H1548 C1534 0.960 . S
H1549 C1535 0.987 . S
H1550 C1535 0.944 1_554 S
H1551 C1535 0.931 1_554 S
H1552 C1536 0.931 . S
H1553 C1541 0.930 . S
H1554 C1542 0.956 1_545 S
H1555 C1542 0.961 . S
H1556 C1542 0.961 . S
H1557 C1543 0.958 . S
H1558 C1543 0.961 . S
H1559 C1543 0.960 . S
C1560 C1561 1.391 . S
C1560 C1562 1.394 . S
C1560 H1576 0.931 . S
C1561 C1560 1.391 . S
C1561 C1565 1.376 . S
C1562 C1560 1.394 . S
C1562 C1563 1.369 . S
C1562 C1566 1.531 . S
C1563 C1562 1.369 . S
C1563 C1564 1.410 . S
C1563 C1571 1.503 1_554 S
C1564 C1563 1.410 . S
C1564 C1565 1.392 . S
C1564 C1567 1.511 1_554 S
C1565 C1561 1.376 . S
C1565 C1564 1.392 . S
C1565 H1577 0.929 . S
C1566 C1562 1.531 . S
C1566 H1578 0.960 . S
C1566 H1579 0.962 . S
C1566 H1580 0.960 . S
C1567 C1564 1.511 1_556 S
C1567 H1581 0.961 . S
C1567 H1582 0.961 . S
C1567 H1583 0.961 . S
C1568 C1569 1.370 . S
C1568 C1570 1.363 . S
C1568 H1584 0.931 . S
C1569 C1568 1.370 . S
C1569 C1573 1.408 . S
C1570 C1568 1.363 . S
C1570 C1571 1.370 . S
C1570 C1574 1.524 . S
C1571 C1563 1.503 1_556 S
C1571 C1570 1.370 . S
C1571 C1572 1.403 . S
C1572 C1571 1.403 . S
C1572 C1573 1.404 . S
C1572 C1575 1.539 1_556 S
C1573 C1569 1.408 . S
C1573 C1572 1.404 . S
C1573 H1585 0.930 . S
C1574 C1570 1.524 . S
C1574 H1586 0.956 . S
C1574 H1587 0.961 . S
C1574 H1588 0.961 . S
C1575 C1572 1.539 1_554 S
C1575 H1589 0.958 . S
C1575 H1590 0.961 . S
C1575 H1591 0.960 . S
H1576 C1560 0.931 . S
H1577 C1565 0.929 . S
H1578 C1566 0.960 . S
H1579 C1566 0.962 . S
H1580 C1566 0.960 . S
H1581 C1567 0.961 . S
H1582 C1567 0.961 . S
H1583 C1567 0.961 . S
H1584 C1568 0.931 . S
H1585 C1573 0.930 . S
H1586 C1574 0.956 . S
H1587 C1574 0.961 . S
H1588 C1574 0.961 . S
H1589 C1575 0.958 . S
H1590 C1575 0.961 . S
H1591 C1575 0.960 . S
C1592 C1593 1.391 . S
C1592 C1594 1.394 . S
C1592 H1608 0.931 . S
C1593 C1592 1.391 . S
C1593 C1597 1.376 1_565 S
C1594 C1592 1.394 . S
C1594 C1595 1.369 . S
C1594 C1598 1.531 . S
C1595 C1594 1.369 . S
C1595 C1596 1.410 1_565 S
C1595 C1603 1.503 . S
C1596 C1595 1.410 1_545 S
C1596 C1597 1.392 . S
C1596 C1599 1.511 . S
C1597 C1593 1.376 1_545 S
C1597 C1596 1.392 . S
C1597 H1609 0.929 . S
C1598 C1594 1.531 . S
C1598 H1610 0.960 . S
C1598 H1611 0.962 . S
C1598 H1612 0.960 . S
C1599 C1596 1.511 . S
C1599 H1613 0.961 . S
C1599 H1614 0.961 . S
C1599 H1615 0.961 . S
C1600 C1601 1.370 1_545 S
C1600 C1602 1.363 . S
C1600 H1616 0.931 . S
C1601 C1600 1.370 1_565 S
C1601 C1605 1.408 . S
C1602 C1600 1.363 . S
C1602 C1603 1.370 1_545 S
C1602 C1606 1.524 . S
C1603 C1595 1.503 . S
C1603 C1602 1.370 1_565 S
C1603 C1604 1.403 . S
C1604 C1603 1.403 . S
C1604 C1605 1.404 . S
C1604 C1607 1.539 . S
C1605 C1601 1.408 . S
C1605 C1604 1.404 . S
C1605 H1617 0.930 . S
C1606 C1602 1.524 . S
C1606 H1618 0.956 . S
C1606 H1619 0.961 . S
C1606 H1620 0.961 . S
C1607 C1604 1.539 . S
C1607 H1621 0.958 . S
C1607 H1622 0.961 . S
C1607 H1623 0.960 . S
H1608 C1592 0.931 . S
H1609 C1597 0.929 . S
H1610 C1598 0.960 . S
H1611 C1598 0.962 . S
H1612 C1598 0.960 . S
H1613 C1599 0.961 . S
H1614 C1599 0.961 . S
H1615 C1599 0.961 . S
H1616 C1600 0.931 . S
H1617 C1605 0.930 . S
H1618 C1606 0.956 . S
H1619 C1606 0.961 . S
H1620 C1606 0.961 . S
H1621 C1607 0.958 . S
H1622 C1607 0.961 . S
H1623 C1607 0.960 . S
C1624 C1625 1.391 . S
C1624 C1626 1.394 . S
C1624 H1640 0.931 . S
C1625 C1624 1.391 . S
C1625 C1629 1.376 . S
C1626 C1624 1.394 . S
C1626 C1627 1.369 . S
C1626 C1630 1.531 . S
C1627 C1626 1.369 . S
C1627 C1628 1.410 . S
C1627 C1635 1.503 . S
C1628 C1627 1.410 . S
C1628 C1629 1.392 . S
C1628 C1631 1.511 . S
C1629 C1625 1.376 . S
C1629 C1628 1.392 . S
C1629 H1641 0.929 . S
C1630 C1626 1.531 . S
C1630 H1642 0.960 . S
C1630 H1643 0.962 . S
C1630 H1644 0.960 . S
C1631 C1628 1.511 . S
C1631 H1645 0.961 . S
C1631 H1646 0.961 . S
C1631 H1647 0.961 . S
C1632 C1633 1.370 . S
C1632 C1634 1.363 . S
C1632 H1648 0.931 . S
C1633 C1632 1.370 . S
C1633 C1637 1.408 . S
C1634 C1632 1.363 . S
C1634 C1635 1.370 . S
C1634 C1638 1.524 . S
C1635 C1627 1.503 . S
C1635 C1634 1.370 . S
C1635 C1636 1.403 . S
C1636 C1635 1.403 . S
C1636 C1637 1.404 . S
C1636 C1639 1.539 . S
C1637 C1633 1.408 . S
C1637 C1636 1.404 . S
C1637 H1649 0.930 . S
C1638 C1634 1.524 . S
C1638 H1650 0.956 . S
C1638 H1651 0.961 . S
C1638 H1652 0.961 . S
C1639 C1636 1.539 . S
C1639 H1653 0.958 . S
C1639 H1654 0.961 . S
C1639 H1655 0.960 . S
H1640 C1624 0.931 . S
H1641 C1629 0.929 . S
H1642 C1630 0.960 . S
H1643 C1630 0.962 . S
H1644 C1630 0.960 . S
H1645 C1631 0.961 . S
H1646 C1631 0.961 . S
H1647 C1631 0.961 . S
H1648 C1632 0.931 . S
H1649 C1637 0.930 . S
H1650 C1638 0.956 . S
H1651 C1638 0.961 . S
H1652 C1638 0.961 . S
H1653 C1639 0.958 . S
H1654 C1639 0.961 . S
H1655 C1639 0.960 . S
C1656 C1657 1.391 . S
C1656 C1658 1.394 . S
C1656 H1672 0.931 . S
C1657 C1656 1.391 . S
C1657 C1661 1.376 1_556 S
C1658 C1656 1.394 . S
C1658 C1659 1.369 . S
C1658 C1662 1.531 1_455 S
C1659 C1658 1.369 . S
C1659 C1660 1.410 1_556 S
C1659 C1667 1.503 1_455 S
C1660 C1659 1.410 1_554 S
C1660 C1661 1.392 . S
C1660 C1663 1.511 . S
C1661 C1657 1.376 1_554 S
C1661 C1660 1.392 . S
C1661 H1673 0.929 . S
C1662 C1658 1.531 1_655 S
C1662 H1674 0.960 . S
C1662 H1675 0.962 . S
C1662 H1676 0.960 . S
C1663 C1660 1.511 . S
C1663 H1677 0.961 . S
C1663 H1678 0.961 . S
C1663 H1679 0.961 1_554 S
C1664 C1665 1.359 1_554 S
C1664 C1666 1.363 . S
C1664 H1680 0.931 . S
C1665 C1664 1.359 1_556 S
C1665 C1669 1.421 . S
C1666 C1664 1.363 . S
C1666 C1667 1.370 1_554 S
C1666 C1670 1.524 . S
C1667 C1659 1.503 1_655 S
C1667 C1666 1.370 1_556 S
C1667 C1668 1.403 . S
C1668 C1667 1.403 . S
C1668 C1669 1.404 . S
C1668 C1671 1.555 . S
C1669 C1665 1.421 . S
C1669 C1668 1.404 . S
C1669 H1681 0.930 . S
C1670 C1666 1.524 . S
C1670 H1682 0.956 . S
C1670 H1683 0.961 . S
C1670 H1684 0.961 . S
C1671 C1668 1.555 . S
C1671 H1685 0.968 . S
C1671 H1686 0.962 . S
C1671 H1687 0.934 1_655 S
H1672 C1656 0.931 . S
H1673 C1661 0.929 . S
H1674 C1662 0.960 . S
H1675 C1662 0.962 . S
H1676 C1662 0.960 . S
H1677 C1663 0.961 . S
H1678 C1663 0.961 . S
H1679 C1663 0.961 1_556 S
H1680 C1664 0.931 . S
H1681 C1669 0.930 . S
H1682 C1670 0.956 . S
H1683 C1670 0.961 . S
H1684 C1670 0.961 . S
H1685 C1671 0.968 . S
H1686 C1671 0.962 . S
H1687 C1671 0.934 1_455 S
C1688 C1689 1.391 . S
C1688 C1690 1.394 . S
C1688 H1704 0.931 . S
C1689 C1688 1.391 . S
C1689 C1693 1.376 . S
C1690 C1688 1.394 . S
C1690 C1691 1.369 . S
C1690 C1694 1.531 1_455 S
C1691 C1690 1.369 . S
C1691 C1692 1.410 . S
C1691 C1699 1.503 1_455 S
C1692 C1691 1.410 . S
C1692 C1693 1.392 . S
C1692 C1695 1.511 . S
C1693 C1689 1.376 . S
C1693 C1692 1.392 . S
C1693 H1705 0.929 . S
C1694 C1690 1.531 1_655 S
C1694 H1706 0.960 . S
C1694 H1707 0.962 . S
C1694 H1708 0.960 . S
C1695 C1692 1.511 . S
C1695 H1709 0.961 . S
C1695 H1710 0.961 . S
C1695 H1711 0.961 . S
C1696 C1697 1.370 . S
C1696 C1698 1.363 . S
C1696 H1712 0.931 . S
C1697 C1696 1.370 . S
C1697 C1701 1.408 . S
C1698 C1696 1.363 . S
C1698 C1699 1.370 . S
C1698 C1702 1.524 . S
C1699 C1691 1.503 1_655 S
C1699 C1698 1.370 . S
C1699 C1700 1.403 . S
C1700 C1699 1.403 . S
C1700 C1701 1.404 . S
C1700 C1703 1.539 . S
C1701 C1697 1.408 . S
C1701 C1700 1.404 . S
C1701 H1713 0.930 . S
C1702 C1698 1.524 . S
C1702 H1714 0.956 . S
C1702 H1715 0.961 1_655 S
C1702 H1716 0.961 . S
C1703 C1700 1.539 . S
C1703 H1717 0.958 . S
C1703 H1718 0.961 . S
C1703 H1719 0.949 1_655 S
H1704 C1688 0.931 . S
H1705 C1693 0.929 . S
H1706 C1694 0.960 . S
H1707 C1694 0.962 . S
H1708 C1694 0.960 . S
H1709 C1695 0.961 . S
H1710 C1695 0.961 . S
H1711 C1695 0.961 . S
H1712 C1696 0.931 . S
H1713 C1701 0.930 . S
H1714 C1702 0.956 . S
H1715 C1702 0.961 1_455 S
H1716 C1702 0.961 . S
H1717 C1703 0.958 . S
H1718 C1703 0.961 . S
H1719 C1703 0.949 1_455 S
C1720 C1721 1.391 . S
C1720 C1722 1.394 . S
C1720 H1736 0.931 . S
C1721 C1720 1.391 . S
C1721 C1725 1.376 . S
C1722 C1720 1.394 . S
C1722 C1723 1.369 . S
C1722 C1726 1.531 . S
C1723 C1722 1.369 . S
C1723 C1724 1.410 . S
C1723 C1731 1.503 . S
C1724 C1723 1.410 . S
C1724 C1725 1.392 . S
C1724 C1727 1.511 . S
C1725 C1721 1.376 . S
C1725 C1724 1.392 . S
C1725 H1737 0.929 . S
C1726 C1722 1.531 . S
C1726 H1738 0.960 . S
C1726 H1739 0.962 . S
C1726 H1740 0.960 . S
C1727 C1724 1.511 . S
C1727 H1741 0.961 . S
C1727 H1742 0.961 . S
C1727 H1743 0.961 . S
C1728 C1729 1.370 . S
C1728 C1730 1.363 . S
C1728 H1744 0.931 . S
C1729 C1728 1.370 . S
C1729 C1733 1.408 . S
C1730 C1728 1.363 . S
C1730 C1731 1.370 . S
C1730 C1734 1.524 . S
C1731 C1723 1.503 . S
C1731 C1730 1.370 . S
C1731 C1732 1.403 . S
C1732 C1731 1.403 . S
C1732 C1733 1.404 . S
C1732 C1735 1.539 . S
C1733 C1729 1.408 . S
C1733 C1732 1.404 . S
C1733 H1745 0.930 . S
C1734 C1730 1.524 . S
C1734 H1746 0.956 . S
C1734 H1747 0.961 . S
C1734 H1748 0.961 . S
C1735 C1732 1.539 . S
C1735 H1749 0.958 . S
C1735 H1750 0.961 . S
C1735 H1751 0.960 . S
H1736 C1720 0.931 . S
H1737 C1725 0.929 . S
H1738 C1726 0.960 . S
H1739 C1726 0.962 . S
H1740 C1726 0.960 . S
H1741 C1727 0.961 . S
H1742 C1727 0.961 . S
H1743 C1727 0.961 . S
H1744 C1728 0.931 . S
H1745 C1733 0.930 . S
H1746 C1734 0.956 . S
H1747 C1734 0.961 . S
H1748 C1734 0.961 . S
H1749 C1735 0.958 . S
H1750 C1735 0.961 . S
H1751 C1735 0.960 . S
C1752 C1753 1.391 . S
C1752 C1754 1.394 . S
C1752 H1768 0.931 . S
C1753 C1752 1.391 . S
C1753 C1757 1.376 . S
C1754 C1752 1.394 . S
C1754 C1755 1.369 . S
C1754 C1758 1.531 . S
C1755 C1754 1.369 . S
C1755 C1756 1.410 . S
C1755 C1763 1.503 . S
C1756 C1755 1.410 . S
C1756 C1757 1.392 . S
C1756 C1759 1.511 . S
C1757 C1753 1.376 . S
C1757 C1756 1.392 . S
C1757 H1769 0.929 . S
C1758 C1754 1.531 . S
C1758 H1770 0.960 . S
C1758 H1771 0.962 . S
C1758 H1772 0.960 . S
C1759 C1756 1.511 . S
C1759 H1773 0.961 . S
C1759 H1774 0.961 . S
C1759 H1775 0.961 . S
C1760 C1761 1.370 . S
C1760 C1762 1.363 . S
C1760 H1776 0.931 . S
C1761 C1760 1.370 . S
C1761 C1765 1.408 . S
C1762 C1760 1.363 . S
C1762 C1763 1.370 . S
C1762 C1766 1.524 . S
C1763 C1755 1.503 . S
C1763 C1762 1.370 . S
C1763 C1764 1.403 . S
C1764 C1763 1.403 . S
C1764 C1765 1.404 . S
C1764 C1767 1.539 . S
C1765 C1761 1.408 . S
C1765 C1764 1.404 . S
C1765 H1777 0.930 . S
C1766 C1762 1.524 . S
C1766 H1778 0.956 . S
C1766 H1779 0.961 . S
C1766 H1780 0.961 . S
C1767 C1764 1.539 . S
C1767 H1781 0.958 . S
C1767 H1782 0.961 . S
C1767 H1783 0.960 . S
H1768 C1752 0.931 . S
H1769 C1757 0.929 . S
H1770 C1758 0.960 . S
H1771 C1758 0.962 . S
H1772 C1758 0.960 . S
H1773 C1759 0.961 . S
H1774 C1759 0.961 . S
H1775 C1759 0.961 . S
H1776 C1760 0.931 . S
H1777 C1765 0.930 . S
H1778 C1766 0.956 . S
H1779 C1766 0.961 . S
H1780 C1766 0.961 . S
H1781 C1767 0.958 . S
H1782 C1767 0.961 . S
H1783 C1767 0.960 . S
C1784 C1785 1.391 . S
C1784 C1786 1.394 . S
C1784 H1800 0.931 . S
C1785 C1784 1.391 . S
C1785 C1789 1.376 . S
C1786 C1784 1.394 . S
C1786 C1787 1.369 . S
C1786 C1790 1.531 1_565 S
C1787 C1786 1.369 . S
C1787 C1788 1.410 . S
C1787 C1795 1.503 1_565 S
C1788 C1787 1.410 . S
C1788 C1789 1.392 . S
C1788 C1791 1.511 . S
C1789 C1785 1.376 . S
C1789 C1788 1.392 . S
C1789 H1801 0.929 . S
C1790 C1786 1.531 1_545 S
C1790 H1802 0.960 . S
C1790 H1803 0.962 . S
C1790 H1804 0.960 . S
C1791 C1788 1.511 . S
C1791 H1805 0.961 . S
C1791 H1806 0.961 . S
C1791 H1807 0.961 . S
C1792 C1793 1.370 . S
C1792 C1794 1.363 . S
C1792 H1808 0.931 . S
C1793 C1792 1.370 . S
C1793 C1797 1.408 . S
C1794 C1792 1.363 . S
C1794 C1795 1.370 . S
C1794 C1798 1.524 1_545 S
C1795 C1787 1.503 1_545 S
C1795 C1794 1.370 . S
C1795 C1796 1.403 . S
C1796 C1795 1.403 . S
C1796 C1797 1.404 . S
C1796 C1799 1.539 . S
C1797 C1793 1.408 . S
C1797 C1796 1.404 . S
C1797 H1809 0.930 . S
C1798 C1794 1.524 1_565 S
C1798 H1810 0.956 . S
C1798 H1811 0.961 . S
C1798 H1812 0.961 . S
C1799 C1796 1.539 . S
C1799 H1813 0.958 . S
C1799 H1814 0.961 . S
C1799 H1815 0.960 . S
H1800 C1784 0.931 . S
H1801 C1789 0.929 . S
H1802 C1790 0.960 . S
H1803 C1790 0.962 . S
H1804 C1790 0.960 . S
H1805 C1791 0.961 . S
H1806 C1791 0.961 . S
H1807 C1791 0.961 . S
H1808 C1792 0.931 . S
H1809 C1797 0.930 . S
H1810 C1798 0.956 . S
H1811 C1798 0.961 . S
H1812 C1798 0.961 . S
H1813 C1799 0.958 . S
H1814 C1799 0.961 . S
H1815 C1799 0.960 . S
C1816 C1817 1.391 . S
C1816 C1818 1.394 . S
C1816 H1832 0.931 . S
C1817 C1816 1.391 . S
C1817 C1821 1.376 1_554 S
C1818 C1816 1.394 . S
C1818 C1819 1.369 . S
C1818 C1822 1.531 . S
C1819 C1818 1.369 . S
C1819 C1820 1.412 . S
C1819 C1827 1.503 . S
C1820 C1819 1.412 . S
C1820 C1821 1.392 1_554 S
C1820 C1823 1.510 1_554 S
C1821 C1817 1.376 1_556 S
C1821 C1820 1.392 1_556 S
C1821 H1833 0.929 . S
C1822 C1818 1.531 . S
C1822 H1834 0.960 . S
C1822 H1835 0.962 . S
C1822 H1836 0.960 . S
C1823 C1820 1.510 1_556 S
C1823 H1837 0.961 . S
C1823 H1838 0.961 . S
C1823 H1839 0.961 1_556 S
C1824 C1825 1.383 . S
C1824 C1826 1.363 . S
C1824 H1840 0.931 . S
C1825 C1824 1.383 . S
C1825 C1829 1.394 1_556 S
C1826 C1824 1.363 . S
C1826 C1827 1.370 1_556 S
C1826 C1830 1.524 . S
C1827 C1819 1.503 . S
C1827 C1826 1.370 1_554 S
C1827 C1828 1.403 . S
C1828 C1827 1.403 . S
C1828 C1829 1.404 . S
C1828 C1831 1.539 . S
C1829 C1825 1.394 1_554 S
C1829 C1828 1.404 . S
C1829 H1841 0.930 . S
C1830 C1826 1.524 . S
C1830 H1842 0.956 . S
C1830 H1843 0.961 . S
C1830 H1844 0.961 . S
C1831 C1828 1.539 . S
C1831 H1845 0.958 . S
C1831 H1846 0.961 . S
C1831 H1847 0.960 . S
H1832 C1816 0.931 . S
H1833 C1821 0.929 . S
H1834 C1822 0.960 . S
H1835 C1822 0.962 . S
H1836 C1822 0.960 . S
H1837 C1823 0.961 . S
H1838 C1823 0.961 . S
H1839 C1823 0.961 1_554 S
H1840 C1824 0.931 . S
H1841 C1829 0.930 . S
H1842 C1830 0.956 . S
H1843 C1830 0.961 . S
H1844 C1830 0.961 . S
H1845 C1831 0.958 . S
H1846 C1831 0.961 . S
H1847 C1831 0.960 . S
C313 C224 0.550 . S
C321 C3 0.501 . S
C345 C18 0.571 . S
C353 C213 0.559 . S
C377 C31 0.645 . S
C385 C252 0.641 . S
C409 C42 0.678 . S
C417 C237 0.729 . S
C441 C57 0.496 . S
C449 C278 0.470 . S
C473 C68 0.623 . S
C481 C291 0.641 . S
C505 C263 0.599 . S
C513 C83 0.537 . S
C537 C146 0.672 . S
C545 C94 0.659 . S
C569 C107 0.444 . S
C577 C44 0.467 . S
C601 C16 0.599 . S
C609 C120 0.618 . S
C633 C135 0.786 . S
C641 C5 0.777 . S
C665 C148 0.674 . S
C673 C185 0.675 . S
C697 C70 0.878 . S
C705 C161 0.833 . S
C729 C55 0.757 . S
C737 C174 0.784 . S
C761 C187 0.649 . S
C769 C96 0.699 . S
C793 C200 0.584 . S
C801 C81 0.604 . S
C825 C122 0.875 . S
C833 C211 0.834 . S
C857 C133 0.771 . S
C865 C226 0.702 . S
C889 C109 0.806 . S
C897 C239 0.803 . S
C921 C250 0.701 . S
C929 C302 0.670 . S
C953 C198 0.755 . S
C961 C265 0.830 . S
C985 C276 0.735 . S
C993 C172 0.704 . S
C1017 C159 0.561 . S
C1025 C289 0.537 . S
C1049 C304 0.692 . S
C1057 C29 0.681 . S
C1081 C4 1.991 . S
C1089 C23 1.996 . S
C1113 C43 1.919 . S
C1121 C36 1.924 . S
C1145 C62 2.000 . S
C1153 C88 1.986 . S
C1177 C69 2.177 . S
C1185 C95 2.176 . S
C1209 C290 1.997 . S
C1217 C108 2.004 . S
C1241 C121 2.163 . S
C1249 C153 2.174 . S
C1273 C270 2.097 . S
C1281 C140 2.105 . S
C1305 C179 2.083 . S
C1313 C166 2.094 . S
C1337 C192 2.176 . S
C1345 C205 2.186 . S
C1369 C244 2.104 . S
C1377 C212 2.084 . S
C1401 C231 1.904 . S
C1409 C251 1.927 . S
C1433 C309 1.918 . S
C1441 C277 1.918 . S
C1465 C30 1.302 1_655 S
C1473 C10 1.336 . S
C1497 C17 1.540 . S
C1505 C49 1.579 . S
C1529 C257 1.285 . S
C1537 C56 1.346 . S
C1561 C75 1.504 . S
C1569 C238 1.473 . S
C1593 C82 1.543 1_565 S
C1601 C225 1.580 . S
C1625 C218 1.691 . S
C1633 C101 1.738 . S
C1657 C114 1.345 . S
C1665 C303 1.317 1_556 S
C1689 C127 1.481 . S
C1697 C134 1.482 . S
C1721 C264 1.716 . S
C1729 C147 1.727 . S
C1753 C160 1.697 . S
C1761 C186 1.735 . S
C1785 C173 1.454 . S
C1793 C199 1.494 . S
C1817 C296 1.578 . S
C1825 C283 1.562 . S
