# Generated by pormake.
# Topology rkf, (6)-cn, num edge types: 1
# Building blocks:
#     Node 0, Type 0, BuildingBlock: INOVEN_clean_sbu_0, # of connection points: 6
#     Node 1, Type 0, BuildingBlock: INOVEN_clean_sbu_0, # of connection points: 6
#     Node 2, Type 0, BuildingBlock: INOVEN_clean_sbu_0, # of connection points: 6
#     Node 3, Type 0, BuildingBlock: INOVEN_clean_sbu_0, # of connection points: 6
#     Node 4, Type 0, BuildingBlock: INOVEN_clean_sbu_0, # of connection points: 6
#     Node 5, Type 0, BuildingBlock: INOVEN_clean_sbu_0, # of connection points: 6
#     Edge 6, Type (0, 0), BuildingBlock: MIFKUJ_clean_linker_0, # of connection points: 2
#     Edge 7, Type (0, 0), BuildingBlock: MIFKUJ_clean_linker_0, # of connection points: 2
#     Edge 8, Type (0, 0), BuildingBlock: MIFKUJ_clean_linker_0, # of connection points: 2
#     Edge 9, Type (0, 0), BuildingBlock: MIFKUJ_clean_linker_0, # of connection points: 2
#     Edge 10, Type (0, 0), BuildingBlock: MIFKUJ_clean_linker_0, # of connection points: 2
#     Edge 11, Type (0, 0), BuildingBlock: MIFKUJ_clean_linker_0, # of connection points: 2
#     Edge 12, Type (0, 0), BuildingBlock: MIFKUJ_clean_linker_0, # of connection points: 2
#     Edge 13, Type (0, 0), BuildingBlock: MIFKUJ_clean_linker_0, # of connection points: 2
#     Edge 14, Type (0, 0), BuildingBlock: MIFKUJ_clean_linker_0, # of connection points: 2
#     Edge 15, Type (0, 0), BuildingBlock: MIFKUJ_clean_linker_0, # of connection points: 2
#     Edge 16, Type (0, 0), BuildingBlock: MIFKUJ_clean_linker_0, # of connection points: 2
#     Edge 17, Type (0, 0), BuildingBlock: MIFKUJ_clean_linker_0, # of connection points: 2
#     Edge 18, Type (0, 0), BuildingBlock: MIFKUJ_clean_linker_0, # of connection points: 2
#     Edge 19, Type (0, 0), BuildingBlock: MIFKUJ_clean_linker_0, # of connection points: 2
#     Edge 20, Type (0, 0), BuildingBlock: MIFKUJ_clean_linker_0, # of connection points: 2
#     Edge 21, Type (0, 0), BuildingBlock: MIFKUJ_clean_linker_0, # of connection points: 2
#     Edge 22, Type (0, 0), BuildingBlock: MIFKUJ_clean_linker_0, # of connection points: 2
#     Edge 23, Type (0, 0), BuildingBlock: MIFKUJ_clean_linker_0, # of connection points: 2
# Relax obj value: 0.516
# Max RMSD: 0.252
# Mean RMSD: 0.252
data_MOF--net-rkf--node1-INOVEN_clean_sbu_0--edge1-MIFKUJ_clean_linker_0
_symmetry_space_group_name_H-M    P1
_symmetry_Int_Tables_number       1
_symmetry_cell_setting            triclinic
loop_
_symmetry_equiv_pos_as_xyz
'x, y, z'
_cell_length_a     31.64673
_cell_length_b     31.669436
_cell_length_c     60.24247
_cell_angle_alpha  90.334412
_cell_angle_beta   89.296773
_cell_angle_gamma 120.24476
loop_
_atom_site_label
_atom_site_type_symbol
_atom_site_fract_x
_atom_site_fract_y
_atom_site_fract_z
_atom_type_partial_charge
Gd0 Gd 0.23883 0.06 0.10433 0.0
Gd1 Gd 0.31685 0.1588 0.09317 0.0
C2 C 0.28127 0.14098 0.14537 0.0
C3 C 0.19392 0.97188 0.11958 0.0
C4 C 0.20306 0.94948 0.13868 0.0
C5 C 0.17369 0.89928 0.14266 0.0
C6 C 0.24235 0.97822 0.15272 0.0
C7 C 0.22076 0.90729 0.17561 0.0
C8 C 0.25098 0.95733 0.17113 0.0
C9 C 0.18256 0.8782 0.16102 0.0
C10 C 0.20433 0.11764 0.08966 0.0
C11 C 0.25756 0.07878 1.05138 0.0
C12 C 0.3764 0.24693 1.07962 0.0
C13 C 0.38439 0.27883 1.06073 0.0
C14 C 0.40926 0.32945 1.0641 0.0
C15 C 0.36423 0.25955 1.03997 0.0
C16 C 0.39086 0.34153 1.0265 0.0
C17 C 0.36734 0.29071 1.02297 0.0
C18 C 0.41259 0.36066 1.04709 0.0
C19 C 0.35078 0.10265 0.11034 0.0
O20 O 0.25754 0.0939 0.13968 0.0
O21 O 0.30458 0.17427 0.12955 0.0
O22 O 0.18005 0.0036 0.12415 0.0
O23 O 0.22778 0.987 0.10413 0.0
O24 O 0.1823 0.07065 0.08676 0.0
O25 O 0.24086 0.1306 0.10177 0.0
O26 O 0.29064 0.12431 1.05759 0.0
O27 O 0.23369 0.04547 1.06697 0.0
O28 O 0.38422 0.21056 1.07642 0.0
O29 O 0.33683 0.2347 0.09128 0.0
O30 O 0.36579 0.14743 0.11589 0.0
O31 O 0.31747 0.08923 0.09603 0.0
H32 H 0.14359 0.87662 0.13177 0.0
H33 H 0.26605 0.01688 0.14956 0.0
H34 H 0.28073 0.9804 0.18211 0.0
H35 H 0.15841 0.83964 0.16432 0.0
H36 H 0.42497 0.34474 1.0801 0.0
H37 H 0.34486 0.22047 1.03713 0.0
H38 H 0.34965 0.27483 1.00737 0.0
H39 H 0.43137 0.39966 1.05017 0.0
Gd40 Gd 0.2929 0.29901 0.4362 0.0
Gd41 Gd 0.21433 0.31929 0.42381 0.0
C42 C 0.22266 0.30414 0.47688 0.0
C43 C 0.37634 0.31083 0.44832 0.0
C44 C 0.40652 0.31871 0.46777 0.0
C45 C 0.38711 0.3132 0.48926 0.0
C46 C 0.45486 0.32943 0.46467 0.0
C47 C 0.46292 0.32404 0.50442 0.0
C48 C 0.48295 0.33209 0.48288 0.0
C49 C 0.41513 0.31584 0.50748 0.0
C50 C 0.20954 0.21717 0.4274 0.0
C51 C 0.26793 0.29152 0.38274 0.0
C52 C 0.14022 0.32515 0.41023 0.0
C53 C 0.12624 0.34821 0.39284 0.0
C54 C 0.11632 0.38537 0.39872 0.0
C55 C 0.11909 0.33135 0.37084 0.0
C56 C 0.08943 0.38644 0.36124 0.0
C57 C 0.10084 0.35026 0.35521 0.0
C58 C 0.09831 0.40447 0.38306 0.0
C59 C 0.30447 0.39996 0.42895 0.0
O60 O 0.26582 0.30831 0.47143 0.0
O61 O 0.19318 0.30092 0.46061 0.0
O62 O 0.33659 0.26805 0.44676 0.0
O63 O 0.36985 0.34692 0.44269 0.0
O64 O 0.25258 0.22239 0.42449 0.0
O65 O 0.21191 0.25389 0.43724 0.0
O66 O 0.2342 0.303 0.38878 0.0
O67 O 0.29796 0.2913 0.39808 0.0
O68 O 0.17091 0.35441 0.42506 0.0
O69 O 0.14815 0.28981 0.40445 0.0
O70 O 0.2643 0.39722 0.43574 0.0
O71 O 0.29469 0.36081 0.41935 0.0
H72 H 0.3498 0.30504 0.49186 0.0
H73 H 0.47035 0.33413 0.44811 0.0
H74 H 0.5197 0.3388 0.48005 0.0
H75 H 0.39832 0.30868 0.52383 0.0
H76 H 0.12131 0.39883 0.41562 0.0
H77 H 0.12613 0.30254 0.36582 0.0
H78 H 0.09361 0.33487 0.33865 0.0
H79 H 0.09034 0.4326 0.38817 0.0
Gd80 Gd 0.08041 0.28297 0.76879 0.0
Gd81 Gd 0.97983 0.25623 0.75987 0.0
C82 C 0.00361 0.24312 0.81172 0.0
C83 C 0.17026 0.33012 0.78134 0.0
C84 C 0.19662 0.36236 0.79988 0.0
C85 C 0.17322 0.35754 0.82038 0.0
C86 C 0.24493 0.40023 0.79666 0.0
C87 C 0.24751 0.42638 0.83486 0.0
C88 C 0.27028 0.43206 0.81403 0.0
C89 C 0.1985 0.38917 0.83776 0.0
C90 C 0.02563 0.19004 0.75383 0.0
C91 C 0.05851 0.27987 0.71634 0.0
C92 C 0.89008 0.21911 0.74724 0.0
C93 C 0.85818 0.17982 0.73207 0.0
C94 C 0.87556 0.17472 0.71129 0.0
C95 C 0.81268 0.1426 0.74001 0.0
C96 C 0.80603 0.09262 0.70825 0.0
C97 C 0.78649 0.09924 0.72806 0.0
C98 C 0.84989 0.13111 0.69957 0.0
C99 C 0.03295 0.34838 0.7758 0.0
O100 O 0.05011 0.26788 0.80494 0.0
O101 O 0.96876 0.23086 0.79666 0.0
O102 O 0.14055 0.28388 0.78601 0.0
O103 O 0.15166 0.34801 0.7676 0.0
O104 O 0.07208 0.21751 0.74995 0.0
O105 O 0.01138 0.21127 0.76698 0.0
O106 O 0.01241 0.26329 0.72348 0.0
O107 O 0.09313 0.29339 0.73137 0.0
O108 O 0.92623 0.25895 0.7386 0.0
O109 O 0.90321 0.20397 0.76447 0.0
O110 O -0.01171 0.31782 0.78137 0.0
O111 O 0.0474 0.32892 0.7615 0.0
H112 H 0.13567 0.32896 0.82309 0.0
H113 H 0.26313 0.40494 0.78074 0.0
H114 H 0.30791 0.46052 0.81131 0.0
H115 H 0.18019 0.38315 0.85372 0.0
H116 H 0.91021 0.20323 0.70466 0.0
H117 H 0.79874 0.14602 0.75603 0.0
H118 H 0.75245 0.07002 0.73485 0.0
H119 H 0.86497 0.12686 0.68402 0.0
Gd120 Gd 0.87736 0.11866 0.10579 0.0
Gd121 Gd 0.83819 0.01359 0.09475 0.0
C122 C 0.86154 0.04182 0.14731 0.0
C123 C 0.88523 0.20034 0.11852 0.0
C124 C 0.87457 0.22068 0.13822 0.0
C125 C 0.89688 0.27145 0.1404 0.0
C126 C 0.84433 0.1902 0.15531 0.0
C127 C 0.86236 0.26165 0.17757 0.0
C128 C 0.83812 0.21056 0.17484 0.0
C129 C 0.89085 0.29184 0.15992 0.0
C130 C 0.94698 0.1008 0.09055 0.0
C131 C 0.87325 0.09262 1.05249 0.0
C132 C 0.81134 0.92497 0.08316 0.0
C133 C 0.81335 0.89236 1.06642 0.0
C134 C 0.77184 0.84614 1.06351 0.0
C135 C 0.85645 0.90484 1.05454 0.0
C136 C 0.81692 0.82402 1.03776 0.0
C137 C 0.8582 0.87082 1.0403 0.0
C138 C 0.7735 0.81221 1.04922 0.0
C139 C 0.76997 0.03764 0.10744 0.0
O140 O 0.86641 0.0848 0.14141 0.0
O141 O 0.85478 0.00956 0.13151 0.0
O142 O 0.92032 0.19023 0.12057 0.0
O143 O 0.84729 0.16653 0.1079 0.0
O144 O 0.94939 0.14286 0.08935 0.0
O145 O 0.91132 0.07263 0.10299 0.0
O146 O 0.86153 0.0478 1.05933 0.0
O147 O 0.87702 0.12554 1.06752 0.0
O148 O 0.7861 0.94609 1.07852 0.0
O149 O 0.85132 0.95304 0.09418 0.0
O150 O 0.77039 -0.00077 0.11425 0.0
O151 O 0.80557 0.06121 0.09442 0.0
H152 H 0.92035 0.29537 0.1273 0.0
H153 H 0.82667 0.15081 0.15379 0.0
H154 H 0.81558 0.18636 0.18806 0.0
H155 H 0.91066 0.33126 0.16159 0.0
H156 H 0.73834 0.83593 1.07267 0.0
H157 H 0.88876 0.94045 1.05649 0.0
H158 H 0.89166 0.88117 1.03115 0.0
H159 H 0.74122 0.77642 1.04749 0.0
Gd160 Gd 0.8593 0.91637 0.43965 0.0
Gd161 Gd 0.89501 0.84867 0.42847 0.0
C162 C 0.90871 0.88425 0.48055 0.0
C163 C 0.80406 0.94587 0.45673 0.0
C164 C 0.77952 0.93284 0.47857 0.0
C165 C 0.80676 0.9385 0.4977 0.0
C166 C 0.72813 0.90673 0.47994 0.0
C167 C 0.73195 0.8887 0.51872 0.0
C168 C 0.70444 0.88499 0.49996 0.0
C169 C 0.78323 0.91664 0.51752 0.0
C170 C 0.9498 0.96171 0.42178 0.0
C171 C 0.86653 0.89985 0.38654 0.0
C172 C 0.9333 0.79726 0.41544 0.0
C173 C 0.96328 0.7926 0.39812 0.0
C174 C -0.01719 0.76236 0.40207 0.0
C175 C 0.97324 0.81807 0.37804 0.0
C176 C 0.02257 0.78289 0.36589 0.0
C177 C 0.00292 0.81341 0.36203 0.0
C178 C 0.01219 0.75743 0.38607 0.0
C179 C 0.80119 0.80287 0.44436 0.0
O180 O 0.88254 0.90487 0.4748 0.0
O181 O 0.9206 0.86209 0.4649 0.0
O182 O 0.85196 0.97287 0.45665 0.0
O183 O 0.78792 0.90918 0.44285 0.0
O184 O 0.91963 0.9782 0.42041 0.0
O185 O 0.93279 0.92653 0.43536 0.0
O186 O 0.88835 0.87492 0.3929 0.0
O187 O 0.84833 0.91668 0.40202 0.0
O188 O 0.88939 0.78734 0.40994 0.0
O189 O 0.95558 0.83529 0.42841 0.0
O190 O 0.83399 0.79204 0.44969 0.0
O191 O 0.8201 0.83792 0.43075 0.0
H192 H 0.84637 0.95824 0.49725 0.0
H193 H 0.70643 0.90143 0.46531 0.0
H194 H 0.66484 0.86424 0.50063 0.0
H195 H 0.80534 0.92152 0.53196 0.0
H196 H 0.97524 0.74246 0.41756 0.0
H197 H 0.95834 0.84161 0.37483 0.0
H198 H 0.01094 0.8341 0.34677 0.0
H199 H 0.0263 0.73327 0.3894 0.0
Gd200 Gd 0.05581 0.8838 0.76992 0.0
Gd201 Gd 0.1617 0.93511 0.75746 0.0
C202 C 0.13688 0.93452 0.81052 0.0
C203 C 0.97026 0.81858 0.7842 0.0
C204 C 0.95128 0.78482 0.80305 0.0
C205 C 0.98012 0.79308 0.82181 0.0
C206 C 0.90434 0.74354 0.80219 0.0
C207 C 0.91361 0.72116 0.83961 0.0
C208 C 0.88555 0.71189 0.82037 0.0
C209 C 0.96143 0.76169 0.83996 0.0
C210 C 0.09347 0.97886 0.75947 0.0
C211 C 0.07764 0.90023 0.71658 0.0
C212 C 0.25117 0.9893 0.74402 0.0
C213 C 0.28128 0.01904 0.72521 0.0
C214 C 0.31414 0.00727 0.71505 0.0
C215 C 0.28027 0.06076 0.71823 0.0
C216 C 0.34444 0.07828 0.6911 0.0
C217 C 0.31144 0.09 0.70126 0.0
C218 C 0.34546 0.03661 0.69812 0.0
C219 C 0.12562 0.84214 0.77147 0.0
O220 O 0.09152 0.90036 0.80495 0.0
O221 O 0.17004 0.95709 0.79447 0.0
O222 O -0.00985 0.86521 0.78888 0.0
O223 O -0.00443 0.80933 0.76967 0.0
O224 O 0.04838 0.94562 0.75568 0.0
O225 O 0.1144 0.96065 0.76992 0.0
O226 O 0.12489 0.92351 0.7224 0.0
O227 O 0.04345 0.87936 0.73231 0.0
O228 O 0.22636 0.94191 0.74121 0.0
O229 O 0.22722 0.00589 0.75547 0.0
O230 O 0.16801 0.87826 0.77682 0.0
O231 O 0.10451 0.85676 0.75854 0.0
H232 H 0.01665 0.82442 0.82267 0.0
H233 H 0.88196 0.73627 0.78762 0.0
H234 H 0.84876 0.68081 0.81956 0.0
H235 H -0.01624 0.77062 0.85464 0.0
H236 H 0.3159 0.97556 0.72036 0.0
H237 H 0.25605 0.07137 0.72605 0.0
H238 H 0.31028 0.12223 0.69632 0.0
H239 H 0.37012 0.02643 0.69038 0.0
H240 H 0.95395 0.01726 0.08685 0.0
H241 H -0.01114 -0.00477 1.0562 0.0
H242 H 0.0143 0.12609 1.02132 0.0
H243 H -0.01645 0.14807 1.0521 0.0
H244 H 0.03139 0.09588 0.99184 0.0
H245 H 0.11542 0.0135 1.05718 0.0
H246 H 0.08867 0.93227 1.07266 0.0
H247 H 0.96273 0.86977 1.03083 0.0
H248 H -0.01235 0.95103 1.01559 0.0
H249 H 0.12332 0.12532 0.08504 0.0
H250 H 0.09587 0.13263 1.0487 0.0
H251 H 0.23806 0.17575 1.02108 0.0
H252 H 0.26917 0.18463 1.05905 0.0
H253 H 0.14805 0.05816 1.02557 0.0
H254 H 0.07558 0.12463 0.95755 0.0
H255 H 0.10439 0.19416 0.93203 0.0
H256 H 0.21055 0.28814 0.97949 0.0
H257 H 0.18193 0.22047 1.00564 0.0
C258 C 0.96766 0.04101 1.07248 0.0
C259 C 0.96708 0.08489 1.07218 0.0
C260 C -0.01224 0.02833 1.05446 0.0
C261 C 0.00644 0.05859 1.03537 0.0
C262 C 0.00143 0.10055 1.03497 0.0
C263 C -0.016 0.11415 1.05317 0.0
C264 C 0.03962 0.05442 1.01813 0.0
C265 C 0.057 0.08922 1.00074 0.0
C266 C 0.07158 0.03698 1.02401 0.0
C267 C 0.05436 0.98856 1.03459 0.0
C268 C 0.08217 0.98259 1.05107 0.0
C269 C 0.06698 0.93646 1.06004 0.0
C270 C 0.02401 0.89578 1.0527 0.0
C271 C -0.00415 0.9013 1.03658 0.0
C272 C 0.01053 0.94743 1.02776 0.0
C273 C 0.14986 0.14087 1.07161 0.0
C274 C 0.19734 0.14939 1.0742 0.0
C275 C 0.13406 0.14446 1.05058 0.0
C276 C 0.16352 0.14976 1.03186 0.0
C277 C 0.21367 0.16875 1.0351 0.0
C278 C 0.23098 0.17177 1.05668 0.0
C279 C 0.13891 0.11617 1.01302 0.0
C280 C 0.12192 0.06757 1.01936 0.0
C281 C 0.10746 0.12384 0.99939 0.0
C282 C 0.12603 0.16638 0.98391 0.0
C283 C 0.10477 0.16009 0.96281 0.0
C284 C 0.12121 0.19943 0.94812 0.0
C285 C 0.15934 0.24548 0.95413 0.0
C286 C 0.18109 0.25232 0.97484 0.0
C287 C 0.16473 0.21317 0.98965 0.0
H288 H 0.17214 0.27585 0.94274 0.0
H289 H 0.01246 0.86 1.05954 0.0
H290 H 0.95485 0.00311 0.38198 0.0
H291 H -0.00204 0.00295 0.34923 0.0
H292 H 0.05887 0.92764 0.38501 0.0
H293 H 0.0123 0.92587 0.41779 0.0
H294 H 0.12507 0.96179 0.35868 0.0
H295 H 0.00615 0.93765 0.31669 0.0
H296 H 0.96368 0.92604 0.28146 0.0
H297 H 0.05339 0.07863 0.2666 0.0
H298 H 0.09772 0.0917 0.30133 0.0
H299 H 0.16525 0.22449 0.38972 0.0
H300 H 0.14701 0.16678 0.35986 0.0
H301 H 0.13289 0.05924 0.40782 0.0
H302 H 0.16167 0.1211 0.43673 0.0
H303 H 0.10121 0.0989 0.33922 0.0
H304 H 0.1581 0.97505 0.39426 0.0
H305 H 0.23009 -0.00844 0.41596 0.0
H306 H 0.30879 0.13801 0.39048 0.0
H307 H 0.23774 0.12243 0.36826 0.0
C308 C 0.97762 0.98665 0.38292 0.0
C309 C 0.98113 0.96554 0.40266 0.0
C310 C 0.00227 0.98587 0.36383 0.0
C311 C 0.03484 0.96758 0.36423 0.0
C312 C 0.03579 0.94367 0.38385 0.0
C313 C 0.00955 0.94304 0.40285 0.0
C314 C 0.07509 0.98389 0.34684 0.0
C315 C 0.11945 -0.00771 0.35574 0.0
C316 C 0.08176 0.02361 0.33364 0.0
C317 C 0.05495 0.01602 0.31236 0.0
C318 C 0.01722 0.96908 0.30609 0.0
C319 C -0.00726 0.96212 0.28603 0.0
C320 C 0.00552 0.0016 0.2719 0.0
C321 C 0.04324 0.0481 0.27766 0.0
C322 C 0.06802 0.05534 0.29765 0.0
C323 C 0.15905 0.18894 0.39386 0.0
C324 C 0.16811 0.17852 0.41529 0.0
C325 C 0.14819 0.15541 0.37664 0.0
C326 C 0.14256 0.1094 0.38105 0.0
C327 C 0.14151 0.09583 0.4034 0.0
C328 C 0.15564 0.13052 0.42026 0.0
C329 C 0.13578 0.07436 0.36294 0.0
C330 C 0.10731 0.06966 0.34417 0.0
C331 C 0.14915 0.03802 0.36591 0.0
C332 C 0.1923 0.04728 0.3793 0.0
C333 C 0.19086 0.01059 0.39293 0.0
C334 C 0.23156 0.0199 0.40546 0.0
C335 C 0.27402 0.06574 0.40456 0.0
C336 C 0.27587 0.10248 0.39117 0.0
C337 C 0.23531 0.09343 0.37862 0.0
H338 H 0.30547 0.07284 0.41429 0.0
H339 H -0.01375 -0.00387 0.25647 0.0
H340 H 0.07927 0.05565 0.76389 0.0
H341 H 0.09536 0.11514 0.73487 0.0
H342 H 0.17256 0.05948 0.69643 0.0
H343 H 0.16581 0.00784 0.72771 0.0
H344 H 0.07378 0.02275 0.68348 0.0
H345 H 0.11477 0.2201 0.71357 0.0
H346 H 0.18548 0.29281 0.72904 0.0
H347 H 0.28119 0.24408 0.70408 0.0
H348 H 0.2111 0.17031 0.68899 0.0
H349 H 0.0154 0.10011 0.75722 0.0
H350 H 0.00854 0.05208 0.72467 0.0
H351 H 0.96756 0.13938 0.68573 0.0
H352 H 0.96396 0.17968 0.71965 0.0
H353 H 0.06935 0.17618 0.68478 0.0
H354 H 0.952 0.03058 0.65292 0.0
H355 H 0.87416 0.95177 0.65121 0.0
H356 H 0.92208 0.8944 0.70313 0.0
H357 H 0.00037 0.97194 0.70495 0.0
C358 C 0.10248 0.05848 0.74993 0.0
C359 C 0.11862 0.02507 0.74725 0.0
C360 C 0.11162 0.09231 0.73325 0.0
C361 C 0.1324 0.08936 0.71293 0.0
C362 C 0.15536 0.06151 0.71175 0.0
C363 C 0.14993 0.03071 0.72937 0.0
C364 C 0.11265 0.09884 0.69273 0.0
C365 C 0.0732 0.05671 0.68346 0.0
C366 C 0.11406 0.1439 0.69081 0.0
C367 C 0.15704 0.18976 0.69933 0.0
C368 C 0.15073 0.22494 0.71094 0.0
C369 C 0.19087 0.26632 0.71992 0.0
C370 C 0.23788 0.27346 0.71727 0.0
C371 C 0.24478 0.23883 0.70593 0.0
C372 C 0.2047 0.19706 0.69722 0.0
C373 C 0.00086 0.10626 0.74216 0.0
C374 C -0.00571 0.14652 0.74039 0.0
C375 C -0.00304 0.07881 0.7233 0.0
C376 C -0.0082 0.09509 0.70229 0.0
C377 C 0.97391 0.12748 0.70153 0.0
C378 C 0.9737 0.15198 0.72088 0.0
C379 C 0.02638 0.09763 0.68474 0.0
C380 C 0.07074 0.14271 0.68449 0.0
C381 C 0.02843 0.05491 0.6804 0.0
C382 C -0.01749 0.00699 0.67872 0.0
C383 C 0.94613 0.00095 0.66378 0.0
C384 C 0.90199 0.95651 0.66278 0.0
C385 C 0.89342 0.91813 0.67689 0.0
C386 C 0.92903 0.92399 0.69202 0.0
C387 C 0.97355 0.96802 0.69287 0.0
H388 H 0.85907 0.88393 0.67618 0.0
H389 H 0.2689 0.30561 0.72417 0.0
H390 H 0.40557 0.33888 0.98193 0.0
H391 H 0.39151 0.38416 0.95304 0.0
H392 H 0.35965 0.46249 1.00297 0.0
H393 H 0.37231 0.41639 1.0321 0.0
H394 H 0.28511 0.38735 0.96112 0.0
H395 H 0.43533 0.57812 0.96663 0.0
H396 H 0.52156 0.62789 0.97812 0.0
H397 H 0.55106 0.51803 0.95295 0.0
H398 H 0.46522 0.46806 0.94116 0.0
H399 H 0.21981 0.46672 0.86836 0.0
H400 H 0.25582 0.48774 0.90537 0.0
H401 H 0.37493 0.46887 0.88239 0.0
H402 H 0.33932 0.4477 0.8457 0.0
H403 H 0.40293 0.53291 0.91744 0.0
H404 H 0.26772 0.36973 0.8967 0.0
H405 H 0.18378 0.31329 0.88394 0.0
H406 H 0.12551 0.35727 0.93826 0.0
H407 H 0.20921 0.41433 0.95121 0.0
C408 C 0.39614 0.36613 0.98678 0.0
C409 C 0.38968 0.37386 1.00923 0.0
C410 C 0.38863 0.39223 0.97032 0.0
C411 C 0.37517 0.42681 0.97606 0.0
C412 C 0.37078 0.43635 0.9984 0.0
C413 C 0.37813 0.41009 1.01494 0.0
C414 C 0.35914 0.4473 0.9585 0.0
C415 C 0.31037 0.41997 0.95189 0.0
C416 C 0.39241 0.48939 0.94655 0.0
C417 C 0.44399 0.51931 0.95328 0.0
C418 C 0.46034 0.56473 0.96357 0.0
C419 C 0.5091 0.59295 0.97011 0.0
C420 C 0.54175 0.57607 0.96634 0.0
C421 C 0.52574 0.53101 0.95595 0.0
C422 C 0.47705 0.50271 0.94936 0.0
C423 C 0.25455 0.46872 0.87106 0.0
C424 C 0.27606 0.45422 0.85437 0.0
C425 C 0.27524 0.48111 0.89212 0.0
C426 C 0.31732 0.47866 0.89666 0.0
C427 C 0.34233 0.47086 0.87922 0.0
C428 C 0.3218 0.45861 0.8582 0.0
C429 C 0.32889 0.47222 0.9196 0.0
C430 C 0.37683 0.50182 0.92726 0.0
C431 C 0.29492 0.43135 0.93236 0.0
C432 C 0.24464 0.39683 0.92469 0.0
C433 C 0.23698 0.36756 0.90583 0.0
C434 C 0.18947 0.33543 0.89858 0.0
C435 C 0.14933 0.33184 0.91024 0.0
C436 C 0.15663 0.36021 0.92922 0.0
C437 C 0.20408 0.39246 0.93651 0.0
H438 H 0.11257 0.30692 0.90463 0.0
H439 H 0.57947 0.59793 0.97143 0.0
H440 H 0.10761 0.40377 0.31676 0.0
H441 H 0.05481 0.40997 0.28965 0.0
H442 H 0.96219 0.41174 0.34243 0.0
H443 H 0.01344 0.40252 0.36965 0.0
H444 H 0.90962 0.34414 0.31612 0.0
H445 H 0.02123 0.50802 0.3045 0.0
H446 H 0.1008 0.5836 0.29985 0.0
H447 H 0.12339 0.53169 0.23742 0.0
H448 H 0.04524 0.45479 0.24208 0.0
H449 H 0.85793 0.3445 0.18699 0.0
H450 H 0.8762 0.38781 0.22262 0.0
H451 H 0.88982 0.27204 0.25285 0.0
H452 H 0.87169 0.22912 0.21778 0.0
H453 H 0.95911 0.42478 0.24253 0.0
H454 H 0.86968 0.25845 0.30443 0.0
H455 H 0.78999 0.18322 0.30944 0.0
H456 H 0.72015 0.24592 0.27229 0.0
H457 H 0.79931 0.32193 0.26731 0.0
C458 C 0.07643 0.40623 0.32263 0.0
C459 C 0.06422 0.40166 0.34532 0.0
C460 C 0.04664 0.4107 0.30711 0.0
C461 C 0.00448 0.4116 0.31396 0.0
C462 C -0.00548 0.4112 0.33675 0.0
C463 C 0.02407 0.40619 0.3523 0.0
C464 C 0.96699 0.40347 0.29729 0.0
C465 C 0.92012 0.36244 0.30016 0.0
C466 C 0.97968 0.42878 0.27679 0.0
C467 C 0.02688 0.47539 0.27364 0.0
C468 C 0.04322 0.51245 0.28982 0.0
C469 C 0.08819 0.55557 0.2872 0.0
C470 C 0.11691 0.56261 0.26828 0.0
C471 C 0.10096 0.52631 0.25202 0.0
C472 C 0.0563 0.48284 0.25467 0.0
C473 C 0.86374 0.3279 0.20142 0.0
C474 C 0.86347 0.28342 0.19956 0.0
C475 C 0.87396 0.35256 0.22175 0.0
C476 C 0.88379 0.33298 0.24051 0.0
C477 C 0.88092 0.28734 0.23885 0.0
C478 C 0.87061 0.26273 0.21868 0.0
C479 C 0.90463 0.36249 0.26086 0.0
C480 C 0.94802 0.40778 0.25875 0.0
C481 C 0.88859 0.34156 0.28216 0.0
C482 C 0.84058 0.29614 0.28556 0.0
C483 C 0.8373 0.25653 0.29754 0.0
C484 C 0.7922 0.21362 0.3003 0.0
C485 C 0.75003 0.2098 0.2912 0.0
C486 C 0.75285 0.24891 0.27932 0.0
C487 C 0.79786 0.29192 0.2765 0.0
H488 H 0.71516 0.17653 0.29334 0.0
H489 H 0.1516 0.59614 0.26625 0.0
H490 H 0.84597 0.03685 0.69812 0.0
H491 H 0.81273 0.96684 0.67291 0.0
H492 H 0.68012 0.97294 0.66712 0.0
H493 H 0.71282 0.04225 0.69295 0.0
H494 H 0.66393 0.87843 0.66079 0.0
H495 H 0.77246 0.04282 0.63733 0.0
H496 H 0.84784 0.12325 0.63713 0.0
H497 H 0.93075 0.05681 0.61571 0.0
H498 H 0.85601 0.97567 0.61639 0.0
H499 H 0.65857 0.89474 0.53987 0.0
H500 H 0.645 0.88829 0.57999 0.0
H501 H 0.74106 0.82958 0.58634 0.0
H502 H 0.75374 0.83466 0.54618 0.0
H503 H 0.7741 0.93869 0.59488 0.0
H504 H 0.65772 0.77337 0.61403 0.0
H505 H 0.57843 0.69662 0.61243 0.0
H506 H 0.50528 0.77124 0.6365 0.0
H507 H 0.58407 0.84868 0.63792 0.0
C508 C 0.80916 0.02219 0.69194 0.0
C509 C 0.78217 0.04522 0.69686 0.0
C510 C 0.79012 0.98212 0.67774 0.0
C511 C 0.74453 0.96561 0.66786 0.0
C512 C 0.71541 0.98531 0.6746 0.0
C513 C 0.73421 0.02505 0.68913 0.0
C514 C 0.73222 0.93605 0.64746 0.0
C515 C 0.68793 0.89136 0.64635 0.0
C516 C 0.76372 0.95348 0.62864 0.0
C517 C 0.80874 0.00268 0.6278 0.0
C518 C 0.80685 0.04509 0.63304 0.0
C519 C 0.8495 0.09092 0.63275 0.0
C520 C 0.89419 0.09508 0.62671 0.0
C521 C 0.8962 0.05347 0.62068 0.0
C522 C 0.85371 0.00751 0.6211 0.0
C523 C 0.67432 0.87761 0.54965 0.0
C524 C 0.70849 0.86675 0.54019 0.0
C525 C 0.66627 0.8736 0.57257 0.0
C526 C 0.69256 0.85905 0.58601 0.0
C527 C 0.72034 0.84068 0.57616 0.0
C528 C 0.72806 0.84426 0.55328 0.0
C529 C 0.70625 0.8807 0.60825 0.0
C530 C 0.75073 0.92485 0.60953 0.0
C531 C 0.67431 0.86343 0.62676 0.0
C532 C 0.62683 0.81698 0.62589 0.0
C533 C 0.62469 0.77358 0.61876 0.0
C534 C 0.57983 0.72989 0.61794 0.0
C535 C 0.53683 0.72907 0.62431 0.0
C536 C 0.53862 0.77193 0.63156 0.0
C537 C 0.58339 0.81573 0.6324 0.0
H538 H 0.50213 0.69522 0.62367 0.0
H539 H 0.92718 0.1306 0.62649 0.0
H540 H 0.75215 0.76951 1.00567 0.0
H541 H 0.76194 0.71897 0.9776 0.0
H542 H 0.89633 0.74705 1.00817 0.0
H543 H 0.88618 0.79719 1.03648 0.0
H544 H 0.90856 0.77673 0.96575 0.0
H545 H 0.80009 0.63008 1.0048 0.0
H546 H 0.72477 0.57266 1.02514 0.0
H547 H 0.63921 0.55747 0.96772 0.0
H548 H 0.71386 0.61533 0.94711 0.0
H549 H 0.95595 0.69083 0.87031 0.0
H550 H 0.93148 0.67419 0.90936 0.0
H551 H 0.79715 0.67172 0.89496 0.0
H552 H 0.82185 0.68987 0.85619 0.0
H553 H 0.79101 0.61522 0.9336 0.0
H554 H 0.88376 0.77552 0.90143 0.0
H555 H 0.95057 0.84131 0.87958 0.0
H556 H 0.05634 0.83963 0.92297 0.0
H557 H -0.01008 0.77279 0.94483 0.0
C558 C 0.78303 0.76375 1.00673 0.0
C559 C 0.81909 0.78804 1.02284 0.0
C560 C 0.78841 0.73458 0.99081 0.0
C561 C 0.82973 0.72905 0.9909 0.0
C562 C 0.86414 0.75079 1.00787 0.0
C563 C 0.85874 0.77993 1.02378 0.0
C564 C 0.84132 0.70872 0.97117 0.0
C565 C 0.88375 0.74061 0.95917 0.0
C566 C 0.80775 0.66249 0.96215 0.0
C567 C 0.76269 0.62723 0.97442 0.0
C568 C 0.7652 0.61474 0.99654 0.0
C569 C 0.72259 0.58206 1.00812 0.0
C570 C 0.67722 0.56147 0.99774 0.0
C571 C 0.67437 0.57342 0.97574 0.0
C572 C 0.71685 0.60608 0.96408 0.0
C573 C 0.92046 0.6851 0.87533 0.0
C574 C 0.89164 0.69342 0.86037 0.0
C575 C 0.90631 0.67504 0.89758 0.0
C576 C 0.86307 0.67283 0.90501 0.0
C577 C 0.83071 0.67337 0.88949 0.0
C578 C 0.84503 0.68391 0.86727 0.0
C579 C 0.85801 0.68335 0.92846 0.0
C580 C 0.81679 0.6502 0.94085 0.0
C581 C 0.89174 0.72919 0.93772 0.0
C582 C 0.93199 0.76848 0.92444 0.0
C583 C 0.92129 0.7886 0.90609 0.0
C584 C 0.95903 0.82617 0.89377 0.0
C585 C 0.00762 0.8445 0.89985 0.0
C586 C 0.01863 0.8252 0.91824 0.0
C587 C 0.98095 0.78737 0.93057 0.0
H588 H 0.03661 0.87386 0.89035 0.0
H589 H 0.64427 0.5362 1.00673 0.0
H590 H 0.00843 0.77308 0.32126 0.0
H591 H 0.0628 0.77121 0.29295 0.0
H592 H 0.16067 0.77666 0.34367 0.0
H593 H 0.10707 0.78074 0.3722 0.0
H594 H 0.21023 0.84123 0.31439 0.0
H595 H 0.10271 0.67635 0.30985 0.0
H596 H 0.02511 0.59788 0.30977 0.0
H597 H -0.01283 0.6346 0.24755 0.0
H598 H 0.06339 0.71422 0.24763 0.0
H599 H 0.22397 0.82334 0.18238 0.0
H600 H 0.21948 0.78477 0.21827 0.0
H601 H 0.21862 0.90539 0.25177 0.0
H602 H 0.22566 0.94443 0.21648 0.0
H603 H 0.14941 0.74891 0.24411 0.0
H604 H 0.24713 0.92436 0.30125 0.0
H605 H 0.32634 0.00109 0.30198 0.0
H606 H 0.39005 0.93693 0.26033 0.0
H607 H 0.31136 0.8594 0.25958 0.0
C608 C 0.04142 0.77373 0.32641 0.0
C609 C 0.05373 0.77758 0.34891 0.0
C610 C 0.07209 0.77169 0.31024 0.0
C611 C 0.11543 0.77283 0.3162 0.0
C612 C 0.12715 0.77517 0.33872 0.0
C613 C 0.09646 0.77741 0.35497 0.0
C614 C 0.15093 0.77863 0.29856 0.0
C615 C 0.19748 0.82061 0.2991 0.0
C616 C 0.13558 0.74972 0.27911 0.0
C617 C 0.08931 0.70152 0.27872 0.0
C618 C 0.07774 0.668 0.2962 0.0
C619 C 0.03382 0.62329 0.29619 0.0
C620 C 0.00137 0.61114 0.27861 0.0
C621 C 0.01251 0.64394 0.26111 0.0
C622 C 0.0561 0.68898 0.26115 0.0
C623 C 0.22432 0.84201 0.19756 0.0
C624 C 0.2253 0.88682 0.19678 0.0
C625 C 0.22189 0.82011 0.21801 0.0
C626 C 0.21964 0.84242 0.23789 0.0
C627 C 0.2224 0.8881 0.23692 0.0
C628 C 0.22586 0.91031 0.21664 0.0
C629 C 0.2054 0.81524 0.25923 0.0
C630 C 0.16322 0.76864 0.25954 0.0
C631 C 0.22532 0.8393 0.27959 0.0
C632 C 0.2732 0.88572 0.28047 0.0
C633 C 0.27812 0.92623 0.29248 0.0
C634 C 0.32293 0.97002 0.29282 0.0
C635 C 0.36323 0.97386 0.28124 0.0
C636 C 0.3588 0.9339 0.26929 0.0
C637 C 0.31406 0.89002 0.26888 0.0
H638 H 0.39788 0.00782 0.28149 0.0
H639 H 0.96756 0.57634 0.27857 0.0
H640 H 0.32012 0.11538 0.65617 0.0
H641 H 0.37253 0.1636 0.62533 0.0
H642 H 0.49412 0.15775 0.65353 0.0
H643 H 0.44184 0.10999 0.68494 0.0
H644 H 0.51698 0.25272 0.63614 0.0
H645 H 0.44749 0.08708 0.61267 0.0
H646 H 0.38056 0.00174 0.60881 0.0
H647 H 0.30034 0.04914 0.56915 0.0
H648 H 0.36654 0.13481 0.57297 0.0
H649 H 0.51215 0.27392 0.50456 0.0
H650 H 0.53247 0.24269 0.53714 0.0
H651 H 0.48877 0.32469 0.57951 0.0
H652 H 0.47005 0.35736 0.54699 0.0
H653 H 0.45719 0.18419 0.56124 0.0
H654 H 0.52775 0.33522 0.63072 0.0
H655 H 0.59338 0.42083 0.63517 0.0
H656 H 0.67557 0.4036 0.58226 0.0
H657 H 0.61084 0.31763 0.57768 0.0
C658 C 0.35815 0.12489 0.65601 0.0
C659 C 0.37692 0.10886 0.67288 0.0
C660 C 0.38794 0.15214 0.63834 0.0
C661 C 0.43689 0.16362 0.63715 0.0
C662 C 0.45632 0.14895 0.65422 0.0
C663 C 0.42638 0.12145 0.67196 0.0
C664 C 0.4664 0.18953 0.61743 0.0
C665 C 0.50477 0.23786 0.61967 0.0
C666 C 0.45135 0.16906 0.59611 0.0
C667 C 0.41209 0.11739 0.59308 0.0
C668 C 0.41557 0.07931 0.60314 0.0
C669 C 0.37774 0.03088 0.60097 0.0
C670 C 0.33625 0.02003 0.58872 0.0
C671 C 0.33257 0.05758 0.57857 0.0
C672 C 0.37032 0.10608 0.58067 0.0
C673 C 0.50917 0.28724 0.52076 0.0
C674 C 0.48847 0.31725 0.52329 0.0
C675 C 0.52075 0.26924 0.53939 0.0
C676 C 0.51176 0.28096 0.56075 0.0
C677 C 0.4965 0.31542 0.56321 0.0
C678 C 0.48509 0.33356 0.5446 0.0
C679 C 0.50587 0.24901 0.57976 0.0
C680 C 0.47143 0.19908 0.5775 0.0
C681 C 0.52491 0.26813 0.60095 0.0
C682 C 0.56426 0.31981 0.60384 0.0
C683 C 0.55998 0.34947 0.62015 0.0
C684 C 0.59701 0.39816 0.62266 0.0
C685 C 0.6386 0.41765 0.609 0.0
C686 C 0.64329 0.38848 0.59281 0.0
C687 C 0.60638 0.33978 0.59022 0.0
H688 H 0.66721 0.45535 0.61098 0.0
H689 H 0.30694 0.98252 0.58711 0.0
H690 H 0.41457 0.1201 0.1434 0.0
H691 H 0.48167 0.10294 0.14367 0.0
H692 H 0.43253 0.02643 0.0814 0.0
H693 H 0.36415 0.04245 0.08144 0.0
H694 H 0.46953 0.98351 0.10612 0.0
H695 H 0.52373 0.1467 0.08298 0.0
H696 H 0.53407 0.22913 0.08541 0.0
H697 H 0.61456 0.2559 0.14576 0.0
H698 H 0.60404 0.17329 0.14387 0.0
H699 H 0.75274 0.10191 0.08467 0.0
H700 H 0.67834 0.10751 0.08522 0.0
H701 H 0.61507 -0.00599 0.13491 0.0
H702 H 0.68886 0.98732 0.13384 0.0
H703 H 0.63354 0.13144 0.11362 0.0
H704 H 0.49182 0.92711 0.13031 0.0
H705 H 0.48172 0.84587 0.12279 0.0
H706 H 0.57797 0.90363 1.06624 0.0
H707 H 0.58812 0.98502 1.07324 0.0
C708 C 0.41739 0.09862 0.13002 0.0
C709 C 0.3843 0.08292 0.11234 0.0
C710 C 0.45604 0.08914 0.13009 0.0
C711 C 0.46318 0.06455 0.11225 0.0
C712 C 0.42815 0.04581 0.09529 0.0
C713 C 0.38894 0.05484 0.09534 0.0
C714 C 0.50883 0.06151 0.1107 0.0
C715 C 0.50536 0.01583 0.10783 0.0
C716 C 0.55593 0.10377 0.11227 0.0
C717 C 0.56271 0.15364 0.11338 0.0
C718 C 0.54336 0.17005 0.09685 0.0
C719 C 0.54927 0.21681 0.09812 0.0
C720 C 0.57486 0.2477 0.11576 0.0
C721 C 0.59469 0.23191 0.13213 0.0
C722 C 0.58879 0.18513 0.13095 0.0
C723 C 0.72302 0.07828 0.09577 0.0
C724 C 0.72656 0.04394 0.10911 0.0
C725 C 0.6804 0.0815 0.09609 0.0
C726 C 0.64037 0.0506 0.10981 0.0
C727 C 0.64469 0.01746 0.12374 0.0
C728 C 0.68712 0.01391 0.12326 0.0
C729 C 0.59438 0.05322 0.10957 0.0
C730 C 0.59778 0.09897 0.11203 0.0
C731 C 0.5474 0.01119 0.10695 0.0
C732 C 0.5411 0.96226 0.10246 0.0
C733 C 0.51068 0.92242 0.11623 0.0
C734 C 0.50497 0.87636 0.11206 0.0
C735 C 0.52932 0.86964 0.09409 0.0
C736 C 0.55928 0.90893 1.0802 0.0
C737 C 0.56507 0.95504 0.08427 0.0
H738 H 0.52488 0.83396 0.09091 0.0
H739 H 0.5794 0.28389 0.11672 0.0
H740 H 0.33034 0.48708 0.44932 0.0
H741 H 0.41268 0.55891 0.45278 0.0
H742 H 0.47311 0.48364 0.41642 0.0
H743 H 0.39083 0.41281 0.41195 0.0
H744 H 0.51949 0.53118 0.4606 0.0
H745 H 0.46905 0.56227 0.38938 0.0
H746 H 0.41305 0.57362 0.36533 0.0
H747 H 0.43143 0.69367 0.40582 0.0
H748 H 0.48702 0.68253 0.43031 0.0
H749 H 0.76372 0.70539 0.43946 0.0
H750 H 0.67842 0.64118 0.43773 0.0
H751 H 0.63363 0.74813 0.4478 0.0
H752 H 0.72005 0.8134 0.44806 0.0
H753 H 0.57516 0.68684 0.42019 0.0
H754 H 0.62714 0.66342 0.49016 0.0
H755 H 0.67957 0.65369 0.51715 0.0
H756 H 0.65383 0.52216 0.48439 0.0
H757 H 0.60181 0.53146 0.45699 0.0
C758 C 0.36115 0.48595 0.44196 0.0
C759 C 0.35412 0.44387 0.43068 0.0
C760 C 0.40816 0.527 0.44397 0.0
C761 C 0.44909 0.52652 0.43499 0.0
C762 C 0.44211 0.48467 0.42363 0.0
C763 C 0.39507 0.4441 0.4212 0.0
C764 C 0.49932 0.56936 0.43757 0.0
C765 C 0.53196 0.56512 0.45163 0.0
C766 C 0.51481 0.61431 0.42663 0.0
C767 C 0.48171 0.62119 0.41182 0.0
C768 C 0.46077 0.59077 0.39328 0.0
C769 C 0.42919 0.59723 0.37954 0.0
C770 C 0.41856 0.63424 0.38408 0.0
C771 C 0.43962 0.66496 0.40234 0.0
C772 C 0.47119 0.65861 0.41615 0.0
C773 C 0.73576 0.71532 0.44143 0.0
C774 C 0.74866 0.76449 0.44412 0.0
C775 C 0.68672 0.67836 0.4406 0.0
C776 C 0.64892 0.6891 0.4433 0.0
C777 C 0.66178 0.73847 0.44581 0.0
C778 C 0.7112 0.77585 0.44603 0.0
C779 C 0.59642 0.6487 0.44298 0.0
C780 C 0.56305 0.65327 0.42939 0.0
C781 C 0.5798 0.60433 0.45486 0.0
C782 C 0.61085 0.59837 0.4714 0.0
C783 C 0.6329 0.63259 0.48862 0.0
C784 C 0.66254 0.62713 0.504 0.0
C785 C 0.67011 0.5874 0.50245 0.0
C786 C 0.64797 0.55295 0.48555 0.0
C787 C 0.61835 0.55826 0.4701 0.0
H788 H 0.69307 0.58324 0.51438 0.0
H789 H 0.3941 0.63919 0.37342 0.0
H790 H 0.09217 0.422 0.74683 0.0
H791 H 0.10939 0.50665 0.74769 0.0
H792 H 0.03303 0.4789 0.81057 0.0
H793 H 0.0142 0.394 0.80923 0.0
H794 H 0.00355 0.524 0.78626 0.0
H795 H 0.16155 0.55167 0.80474 0.0
H796 H 0.23618 0.54605 0.80054 0.0
H797 H 0.26803 0.62127 0.73808 0.0
H798 H 0.19314 0.62667 0.74175 0.0
H799 H 0.17001 0.80825 0.79833 0.0
H800 H 0.15544 0.72508 0.80107 0.0
H801 H 0.0392 0.67647 0.75348 0.0
H802 H 0.05315 0.75995 0.75104 0.0
H803 H 0.16584 0.6704 0.7718 0.0
H804 H 0.95438 0.55743 0.76326 0.0
H805 H 0.88264 0.56526 0.77301 0.0
H806 H 0.96271 0.6637 0.82596 0.0
H807 H 0.0346 0.65598 0.81672 0.0
C808 C 0.08002 0.43434 0.76101 0.0
C809 C 0.05196 0.40153 0.77797 0.0
C810 C 0.08975 0.48277 0.76152 0.0
C811 C 0.07251 0.4995 0.77923 0.0
C812 C 0.04636 0.46704 0.79661 0.0
C813 C 0.03603 0.41864 0.79593 0.0
C814 C 0.07983 0.54999 0.77932 0.0
C815 C 0.03911 0.55593 0.78309 0.0
C816 C 0.12627 0.59209 0.77565 0.0
C817 C 0.17147 0.58915 0.77342 0.0
C818 C 0.18428 0.5667 0.79003 0.0
C819 C 0.22665 0.5636 0.78776 0.0
C820 C 0.25676 0.5832 0.76903 0.0
C821 C 0.24463 0.60605 0.75257 0.0
C822 C 0.20224 0.60917 0.75474 0.0
C823 C 0.14098 0.77975 0.78861 0.0
C824 C 0.11279 0.79062 0.77442 0.0
C825 C 0.13288 0.73222 0.7901 0.0
C826 C 0.09634 0.69433 0.77746 0.0
C827 C 0.06734 0.70489 0.76358 0.0
C828 C 0.0753 0.75259 0.76218 0.0
C829 C 0.08955 0.64421 0.77854 0.0
C830 C 0.13031 0.63838 0.77493 0.0
C831 C 0.04353 0.60242 0.78318 0.0
C832 C 5e-05 0.60649 0.78912 0.0
C833 C 0.95658 0.58057 0.77704 0.0
C834 C 0.91591 0.58505 0.78247 0.0
C835 C 0.91817 0.61512 0.80003 0.0
C836 C 0.96104 0.64062 0.81229 0.0
C837 C 0.00178 0.63623 0.80694 0.0
H838 H 0.88667 0.61856 0.80419 0.0
H839 H 0.28955 0.58076 0.7673 0.0
H840 H 0.32336 0.2347 0.16413 0.0
H841 H 0.32187 0.25936 0.20268 0.0
H842 H 0.23581 0.10814 0.22181 0.0
H843 H 0.23816 0.08346 0.1833 0.0
H844 H 0.28985 0.14765 0.25478 0.0
H845 H 0.31067 0.33745 0.23891 0.0
H846 H 0.2886 0.37909 0.21074 0.0
H847 H 0.17069 0.24073 0.18888 0.0
H848 H 0.19168 0.19834 0.21709 0.0
H849 H 0.33194 0.26528 0.3624 0.0
H850 H 0.33469 0.24048 0.32405 0.0
H851 H 0.21046 0.25535 0.30838 0.0
H852 H 0.20874 0.28165 0.34658 0.0
H853 H 0.25848 0.28192 0.27354 0.0
H854 H 0.20688 0.11876 0.30536 0.0
H855 H 0.21013 0.0582 0.32972 0.0
H856 H 0.36526 0.12716 0.31927 0.0
H857 H 0.36242 0.18635 0.29364 0.0
C858 C 0.30397 0.20635 0.17642 0.0
C859 C 0.2808 0.15661 0.16982 0.0
C860 C 0.30273 0.22072 0.19885 0.0
C861 C 0.27793 0.18626 0.21612 0.0
C862 C 0.25537 0.1365 0.20954 0.0
C863 C 0.2566 0.12212 0.1871 0.0
C864 C 0.27586 0.20161 0.24066 0.0
C865 C 0.28328 0.17739 0.25856 0.0
C866 C 0.26609 0.23958 0.24687 0.0
C867 C 0.25315 0.26475 0.22993 0.0
C868 C 0.27998 0.31595 0.22812 0.0
C869 C 0.26766 0.33967 0.21215 0.0
C870 C 0.22838 0.31256 0.19798 0.0
C871 C 0.20123 0.26168 0.19981 0.0
C872 C 0.21336 0.23779 0.21576 0.0
C873 C 0.30507 0.2635 0.3509 0.0
C874 C 0.27038 0.27645 0.35833 0.0
C875 C 0.30616 0.24826 0.32858 0.0
C876 C 0.27225 0.2444 0.31228 0.0
C877 C 0.23765 0.25749 0.31978 0.0
C878 C 0.23664 0.27285 0.34207 0.0
C879 C 0.27357 0.22866 0.28769 0.0
C880 C 0.26573 0.25266 0.26974 0.0
C881 C 0.28177 0.18972 0.28139 0.0
C882 C 0.28464 0.15753 0.29811 0.0
C883 C 0.24175 0.12136 0.30853 0.0
C884 C 0.24344 0.08704 0.32239 0.0
C885 C 0.28796 0.08941 0.32646 0.0
C886 C 0.33086 0.12561 0.31628 0.0
C887 C 0.32917 0.15921 0.30189 0.0
H888 H 0.28912 0.06292 0.33732 0.0
H889 H 0.21892 0.331 0.18562 0.0
H890 H 0.13221 0.28551 0.49369 0.0
H891 H 0.10382 0.28147 0.53194 0.0
H892 H 0.24537 0.31551 0.5556 0.0
H893 H 0.27324 0.31761 0.5171 0.0
H894 H 0.18942 0.25884 0.58415 0.0
H895 H 0.18452 0.39702 0.55605 0.0
H896 H 0.1615 0.44286 0.53073 0.0
H897 H 0.00954 0.34411 0.54513 0.0
H898 H 0.03164 0.29732 0.57035 0.0
H899 H 0.15064 0.31562 0.69677 0.0
H900 H 0.17522 0.31625 0.6581 0.0
H901 H 0.02541 0.25294 0.63815 0.0
H902 H 0.00014 0.24961 0.67741 0.0
H903 H 0.08365 0.32489 0.60778 0.0
H904 H 0.08914 0.1765 0.62509 0.0
H905 H 0.11259 0.11998 0.64102 0.0
H906 H 0.26199 0.23638 0.64498 0.0
H907 H 0.2394 0.29325 0.62826 0.0
C908 C 0.15778 0.29235 0.50689 0.0
C909 C 0.20569 0.30209 0.50146 0.0
C910 C 0.14134 0.29057 0.52927 0.0
C911 C 0.17196 0.29932 0.54782 0.0
C912 C 0.21984 0.30864 0.54237 0.0
C913 C 0.2362 0.30998 0.51993 0.0
C914 C 0.15407 0.29709 0.57246 0.0
C915 C 0.1672 0.27457 0.58906 0.0
C916 C 0.12315 0.31543 0.58003 0.0
C917 C 0.10972 0.3434 0.56491 0.0
C918 C 0.14618 0.3849 0.5537 0.0
C919 C 0.1333 0.41107 0.53939 0.0
C920 C 0.08409 0.39632 0.53628 0.0
C921 C 0.04765 0.35544 0.54753 0.0
C922 C 0.06032 0.32911 0.56185 0.0
C923 C 0.12225 0.30072 0.68443 0.0
C924 C 0.07276 0.28187 0.69122 0.0
C925 C 0.13672 0.30124 0.66181 0.0
C926 C 0.10287 0.28429 0.64417 0.0
C927 C 0.05332 0.2664 0.65075 0.0
C928 C 0.03861 0.26463 0.6736 0.0
C929 C 0.11964 0.28706 0.61934 0.0
C930 C 0.10632 0.30975 0.60278 0.0
C931 C 0.15064 0.26921 0.61168 0.0
C932 C 0.16247 0.23912 0.62591 0.0
C933 C 0.12675 0.19022 0.62986 0.0
C934 C 0.1401 0.15794 0.63859 0.0
C935 C 0.18889 0.17451 0.64386 0.0
C936 C 0.22428 0.22361 0.64079 0.0
C937 C 0.21127 0.25583 0.63163 0.0
H938 H 0.19938 0.14947 0.65042 0.0
H939 H 0.07419 0.41664 0.52518 0.0
H940 H 0.91329 0.20322 0.8343 0.0
H941 H 0.89286 0.17986 0.87334 0.0
H942 H 0.04297 0.22286 0.88575 0.0
H943 H 0.0638 0.24869 0.8469 0.0
H944 H 0.01852 0.2403 0.92163 0.0
H945 H 0.81104 0.10426 0.91155 0.0
H946 H 0.75443 0.04602 0.88392 0.0
H947 H 0.87184 0.03309 0.85468 0.0
H948 H 0.929 0.09082 0.88228 0.0
H949 H 0.90865 0.18394 1.03202 0.0
H950 H 0.93104 0.20824 0.99308 0.0
H951 H 0.891 0.06057 0.97629 0.0
H952 H 0.86857 0.0362 1.0153 0.0
H953 H 0.86346 0.09154 0.94274 0.0
H954 H 0.01212 0.16243 0.98083 0.0
H955 H 0.07511 0.21217 1.00822 0.0
H956 H 0.08772 0.34284 0.98082 0.0
H957 H 0.0231 0.29383 0.95392 0.0
C958 C 0.94228 0.20784 0.8452 0.0
C959 C -0.00945 0.2281 0.83657 0.0
C960 C 0.93028 0.19365 0.86797 0.0
C961 C 0.96549 0.19756 0.88359 0.0
C962 C 0.01395 0.21851 0.87496 0.0
C963 C 0.02609 0.23339 0.85224 0.0
C964 C 0.95226 0.18058 0.90846 0.0
C965 C -0.0158 0.20792 0.92598 0.0
C966 C 0.90847 0.1372 0.91536 0.0
C967 C 0.87435 0.10226 0.89882 0.0
C968 C 0.82471 0.08887 0.89926 0.0
C969 C 0.79255 0.05598 0.8836 0.0
C970 C 0.80957 0.03601 0.8675 0.0
C971 C 0.85875 0.04873 0.86709 0.0
C972 C 0.89105 0.08156 0.88273 0.0
C973 C 0.90422 0.15621 1.02017 0.0
C974 C 0.88595 0.1075 1.02761 0.0
C975 C 0.91761 0.17046 0.9975 0.0
C976 C 0.91362 0.13695 0.98073 0.0
C977 C 0.89487 0.08813 0.98813 0.0
C978 C 0.88183 0.07394 1.01085 0.0
C979 C 0.92863 0.15247 0.95591 0.0
C980 C 0.89732 0.12448 0.93841 0.0
C981 C 0.97365 0.19453 0.94905 0.0
C982 C 0.01203 0.22422 0.9655 0.0
C983 C 0.02763 0.20169 0.98086 0.0
C984 C 0.06369 0.22977 0.9963 0.0
C985 C 0.08542 0.2806 0.99624 0.0
C986 C 0.07079 0.30343 0.98087 0.0
C987 C 0.03424 0.27547 0.96558 0.0
H988 H 0.11367 0.3023 1.00808 0.0
H989 H 0.78462 0.01059 0.85538 0.0
H990 H 0.87348 0.96712 0.16483 0.0
H991 H 0.87754 0.94553 0.20326 0.0
H992 H 0.85663 0.06294 0.22599 0.0
H993 H 0.85545 0.08638 0.18719 0.0
H994 H 0.90815 0.05895 0.25571 0.0
H995 H 0.76375 0.92091 0.22726 0.0
H996 H 0.71427 0.85276 0.20175 0.0
H997 H 0.80361 0.78958 0.21531 0.0
H998 H 0.85397 0.85767 0.24072 0.0
H999 H 0.84014 0.96397 0.36816 0.0
H1000 H 0.84124 0.98806 0.32947 0.0
H1001 H 0.89279 0.89163 0.30857 0.0
H1002 H 0.89266 0.8681 0.3475 0.0
H1003 H 0.82744 0.88516 0.27836 0.0
H1004 H 0.96256 0.02051 0.31247 0.0
H1005 H 0.00858 0.08894 0.3381 0.0
H1006 H 0.92949 0.15765 0.31563 0.0
H1007 H 0.88274 0.08932 0.28986 0.0
C1008 C 0.86958 0.98865 0.17786 0.0
C1009 C 0.86373 0.02876 0.17205 0.0
C1010 C 0.87134 0.97564 0.20038 0.0
C1011 C 0.86585 0.00088 0.21878 0.0
C1012 C 0.86076 0.0416 0.21295 0.0
C1013 C 0.85989 0.05521 0.19032 0.0
C1014 C 0.8658 0.9853 0.24355 0.0
C1015 C 0.88952 0.02076 0.26047 0.0
C1016 C 0.84301 0.93553 0.25092 0.0
C1017 C 0.81291 0.89462 0.23569 0.0
C1018 C 0.773 0.89262 0.22469 0.0
C1019 C 0.74479 0.854 0.21026 0.0
C1020 C 0.75588 0.81695 0.20686 0.0
C1021 C 0.79513 0.81836 0.21793 0.0
C1022 C 0.82349 0.85692 0.23235 0.0
C1023 C 0.85175 0.9475 0.35548 0.0
C1024 C 0.86598 0.91332 0.36176 0.0
C1025 C 0.85268 0.96183 0.33294 0.0
C1026 C 0.86765 0.94272 0.31512 0.0
C1027 C 0.88116 0.90791 0.32132 0.0
C1028 C 0.88096 0.8941 0.34396 0.0
C1029 C 0.86902 0.95875 0.29047 0.0
C1030 C 0.84578 0.92336 0.2736 0.0
C1031 C 0.89144 0.00861 0.28331 0.0
C1032 C 0.91899 0.04947 0.29915 0.0
C1033 C 0.95483 0.05004 0.31296 0.0
C1034 C 0.98109 0.08888 0.32755 0.0
C1035 C 0.97196 0.12764 0.32851 0.0
C1036 C 0.93656 0.1276 0.31486 0.0
C1037 C 0.91022 0.0888 0.30022 0.0
H1038 H -0.00767 0.15773 0.33981 0.0
H1039 H 0.734 0.78708 0.19569 0.0
H1040 H 0.93776 0.82502 0.50234 0.0
H1041 H 0.96465 0.8281 0.54082 0.0
H1042 H 0.94812 0.95264 0.5537 0.0
H1043 H 0.91912 0.94839 0.51547 0.0
H1044 H 0.04336 0.96143 0.57149 0.0
H1045 H 0.86918 0.85786 0.57714 0.0
H1046 H 0.78899 0.78772 0.56714 0.0
H1047 H 0.83961 0.68884 0.58319 0.0
H1048 H 0.9204 0.75848 0.59301 0.0
H1049 H 0.13323 0.92645 0.67667 0.0
H1050 H 0.10683 0.92229 0.63819 0.0
H1051 H 0.95894 0.86807 0.66107 0.0
H1052 H -0.01512 0.86877 0.6993 0.0
H1053 H 0.94521 0.82797 0.62484 0.0
H1054 H 0.12662 0.9679 0.58314 0.0
H1055 H 0.20726 0.03635 0.59388 0.0
H1056 H 0.14244 0.06374 0.65102 0.0
H1057 H 0.06083 -0.00193 0.63975 0.0
C1058 C 0.93952 0.85318 0.51322 0.0
C1059 C 0.92565 0.88636 0.50498 0.0
C1060 C 0.95522 0.85496 0.5356 0.0
C1061 C 0.95942 0.89089 0.55102 0.0
C1062 C 0.94608 0.92444 0.54276 0.0
C1063 C 0.92904 0.92181 0.52055 0.0
C1064 C 0.97668 0.89274 0.57543 0.0
C1065 C 0.02169 0.93198 0.58302 0.0
C1066 C 0.94947 0.85528 0.59139 0.0
C1067 C 0.901 0.81339 0.58558 0.0
C1068 C 0.86337 0.82118 0.57834 0.0
C1069 C 0.81777 0.78153 0.57275 0.0
C1070 C 0.80925 0.73388 0.57446 0.0
C1071 C 0.84629 0.72578 0.58184 0.0
C1072 C 0.89198 0.76533 0.58744 0.0
C1073 C 0.09496 0.91351 0.67369 0.0
C1074 C 0.06182 0.89838 0.69197 0.0
C1075 C 0.07952 0.91166 0.65122 0.0
C1076 C 0.03022 0.89638 0.64556 0.0
C1077 C -0.00283 0.8806 0.66391 0.0
C1078 C 0.01238 0.8813 0.68626 0.0
C1079 C 0.01283 0.89643 0.62113 0.0
C1080 C 0.9674 0.85754 0.61346 0.0
C1081 C 0.03986 0.93436 0.60509 0.0
C1082 C 0.08767 0.97751 0.61076 0.0
C1083 C 0.12937 0.98926 0.59773 0.0
C1084 C 0.17523 0.0278 0.60385 0.0
C1085 C 0.17991 0.05465 0.62306 0.0
C1086 C 0.13861 0.04354 0.63596 0.0
C1087 C 0.09248 0.00596 0.6296 0.0
H1088 H 0.21554 0.08392 0.62801 0.0
H1089 H 0.77393 0.70322 0.57012 0.0
H1090 H 0.20663 0.024 0.82846 0.0
H1091 H 0.22673 0.04878 0.86724 0.0
H1092 H 0.12225 0.90244 0.88826 0.0
H1093 H 0.09871 0.87911 0.84945 0.0
H1094 H 0.11506 0.94954 0.91779 0.0
H1095 H 0.26732 0.97353 0.88982 0.0
H1096 H 0.33968 0.00586 0.86508 0.0
H1097 H 0.37883 0.15262 0.88272 0.0
H1098 H 0.30638 0.12116 0.90738 0.0
H1099 H 0.19198 0.98825 1.03264 0.0
H1100 H 0.17199 0.96432 0.99386 0.0
H1101 H 0.2729 0.1121 0.9734 0.0
H1102 H 0.29395 0.13577 1.01242 0.0
H1103 H 0.28277 0.0641 0.94348 0.0
H1104 H 0.11369 0.03254 0.9629 0.0
H1105 H 0.02934 -0.00797 0.9779 0.0
H1106 H 0.02173 0.85288 0.97482 0.0
H1107 H 0.10535 0.89239 0.95903 0.0
C1108 C 0.18762 -0.00317 0.84127 0.0
C1109 C 0.15067 0.94913 0.83512 0.0
C1110 C 0.19978 0.01108 0.86391 0.0
C1111 C 0.17715 0.97795 0.88187 0.0
C1112 C 0.14057 0.93001 0.87557 0.0
C1113 C 0.12717 0.91623 0.85296 0.0
C1114 C 0.18972 -0.00705 0.90682 0.0
C1115 C 0.15221 0.97406 0.92314 0.0
C1116 C 0.23766 0.02595 0.91503 0.0
C1117 C 0.28118 0.04499 0.90026 0.0
C1118 C 0.29121 0.0127 0.88831 0.0
C1119 C 0.33225 0.03087 0.87432 0.0
C1120 C 0.36375 0.08127 0.87228 0.0
C1121 C 0.35435 0.1136 0.88428 0.0
C1122 C 0.31333 0.09562 0.89829 0.0
C1123 C 0.21025 0.01608 1.02003 0.0
C1124 C 0.24529 0.06442 1.02651 0.0
C1125 C 0.19796 0.00223 0.99733 0.0
C1126 C 0.21965 0.03584 0.9795 0.0
C1127 C 0.25478 0.08426 0.98602 0.0
C1128 C 0.26709 0.09815 1.00876 0.0
C1129 C 0.20788 0.02064 0.95448 0.0
C1130 C 0.24568 0.03954 0.93811 0.0
C1131 C 0.16029 0.98685 0.94619 0.0
C1132 C 0.11597 0.96548 0.96029 0.0
C1133 C 0.09448 -0.00647 0.96601 0.0
C1134 C 0.04654 0.97062 0.97429 0.0
C1135 C 0.02022 0.91991 0.97726 0.0
C1136 C 0.04214 0.89211 0.97248 0.0
C1137 C 0.0897 0.91469 0.96382 0.0
H1138 H -0.01726 0.90204 0.9832 0.0
H1139 H 0.3955 0.09526 0.86144 0.0
loop_
_geom_bond_atom_site_label_1
_geom_bond_atom_site_label_2
_geom_bond_distance
_geom_bond_site_symmetry_2
_ccdc_geom_bond_type
Gd0 C3 2.818 . S
Gd0 O20 2.377 . S
Gd0 O22 2.448 . S
Gd0 O23 2.506 . S
Gd0 O24 2.435 . S
Gd0 O25 2.717 . S
Gd0 O27 2.395 1_554 S
Gd0 O31 2.327 . S
Gd1 C12 2.770 1_554 S
Gd1 O21 2.446 . S
Gd1 O25 2.339 . S
Gd1 O26 2.347 1_554 S
Gd1 O28 2.405 1_554 S
Gd1 O29 2.463 1_554 S
Gd1 O30 2.440 . S
Gd1 O31 2.742 . S
C2 O20 1.240 . S
C2 O21 1.240 . S
C3 Gd0 2.818 . S
C3 C4 1.510 . S
C3 O22 1.249 . S
C3 O23 1.252 . S
C4 C3 1.510 . S
C4 C5 1.404 . S
C4 C6 1.352 . S
C5 C4 1.404 . S
C5 C9 1.389 . S
C5 H32 0.930 . S
C6 C4 1.352 . S
C6 C8 1.374 . S
C6 H33 0.931 . S
C7 C8 1.359 . S
C7 C9 1.364 . S
C8 C6 1.374 . S
C8 C7 1.359 . S
C8 H34 0.931 . S
C9 C5 1.389 . S
C9 C7 1.364 . S
C9 H35 0.931 . S
C10 O24 1.256 . S
C10 O25 1.257 . S
C11 O26 1.240 . S
C11 O27 1.240 . S
C12 Gd1 2.770 1_556 S
C12 C13 1.510 . S
C12 O28 1.249 . S
C12 O29 1.252 . S
C13 C12 1.510 . S
C13 C14 1.404 . S
C13 C15 1.352 . S
C14 C13 1.404 . S
C14 C18 1.389 . S
C14 H36 0.930 . S
C15 C13 1.352 . S
C15 C17 1.374 . S
C15 H37 0.931 . S
C16 C17 1.359 . S
C16 C18 1.364 . S
C17 C15 1.374 . S
C17 C16 1.359 . S
C17 H38 0.931 . S
C18 C14 1.389 . S
C18 C16 1.364 . S
C18 H39 0.931 . S
C19 O30 1.256 . S
C19 O31 1.257 . S
O20 Gd0 2.377 . S
O20 C2 1.240 . S
O21 Gd1 2.446 . S
O21 C2 1.240 . S
O22 Gd0 2.448 . S
O22 C3 1.249 . S
O23 Gd0 2.506 . S
O23 C3 1.252 . S
O24 Gd0 2.435 . S
O24 C10 1.256 . S
O25 Gd0 2.717 . S
O25 Gd1 2.339 . S
O25 C10 1.257 . S
O26 Gd1 2.347 1_556 S
O26 C11 1.240 . S
O27 Gd0 2.395 1_556 S
O27 C11 1.240 . S
O28 Gd1 2.405 1_556 S
O28 C12 1.249 . S
O29 Gd1 2.463 1_556 S
O29 C12 1.252 . S
O30 Gd1 2.440 . S
O30 C19 1.256 . S
O31 Gd0 2.327 . S
O31 Gd1 2.742 . S
O31 C19 1.257 . S
H32 C5 0.930 . S
H33 C6 0.931 . S
H34 C8 0.931 . S
H35 C9 0.931 . S
H36 C14 0.930 . S
H37 C15 0.931 . S
H38 C17 0.931 . S
H39 C18 0.931 . S
Gd40 C43 2.818 . S
Gd40 O60 2.377 . S
Gd40 O62 2.448 . S
Gd40 O63 2.506 . S
Gd40 O64 2.435 . S
Gd40 O65 2.717 . S
Gd40 O67 2.395 . S
Gd40 O71 2.327 . S
Gd41 C52 2.818 . S
Gd41 O61 2.395 . S
Gd41 O65 2.327 . S
Gd41 O66 2.377 . S
Gd41 O68 2.448 . S
Gd41 O69 2.506 . S
Gd41 O70 2.435 . S
Gd41 O71 2.717 . S
C42 O60 1.240 . S
C42 O61 1.240 . S
C43 Gd40 2.818 . S
C43 C44 1.510 . S
C43 O62 1.249 . S
C43 O63 1.252 . S
C44 C43 1.510 . S
C44 C45 1.404 . S
C44 C46 1.352 . S
C45 C44 1.404 . S
C45 C49 1.389 . S
C45 H72 0.930 . S
C46 C44 1.352 . S
C46 C48 1.374 . S
C46 H73 0.931 . S
C47 C48 1.359 . S
C47 C49 1.364 . S
C48 C46 1.374 . S
C48 C47 1.359 . S
C48 H74 0.931 . S
C49 C45 1.389 . S
C49 C47 1.364 . S
C49 H75 0.931 . S
C50 O64 1.256 . S
C50 O65 1.257 . S
C51 O66 1.240 . S
C51 O67 1.240 . S
C52 Gd41 2.818 . S
C52 C53 1.510 . S
C52 O68 1.249 . S
C52 O69 1.252 . S
C53 C52 1.510 . S
C53 C54 1.404 . S
C53 C55 1.352 . S
C54 C53 1.404 . S
C54 C58 1.389 . S
C54 H76 0.930 . S
C55 C53 1.352 . S
C55 C57 1.374 . S
C55 H77 0.931 . S
C56 C57 1.359 . S
C56 C58 1.364 . S
C57 C55 1.374 . S
C57 C56 1.359 . S
C57 H78 0.931 . S
C58 C54 1.389 . S
C58 C56 1.364 . S
C58 H79 0.931 . S
C59 O70 1.256 . S
C59 O71 1.257 . S
O60 Gd40 2.377 . S
O60 C42 1.240 . S
O61 Gd41 2.395 . S
O61 C42 1.240 . S
O62 Gd40 2.448 . S
O62 C43 1.249 . S
O63 Gd40 2.506 . S
O63 C43 1.252 . S
O64 Gd40 2.435 . S
O64 C50 1.256 . S
O65 Gd40 2.717 . S
O65 Gd41 2.327 . S
O65 C50 1.257 . S
O66 Gd41 2.377 . S
O66 C51 1.240 . S
O67 Gd40 2.395 . S
O67 C51 1.240 . S
O68 Gd41 2.448 . S
O68 C52 1.249 . S
O69 Gd41 2.506 . S
O69 C52 1.252 . S
O70 Gd41 2.435 . S
O70 C59 1.256 . S
O71 Gd40 2.327 . S
O71 Gd41 2.717 . S
O71 C59 1.257 . S
H72 C45 0.930 . S
H73 C46 0.931 . S
H74 C48 0.931 . S
H75 C49 0.931 . S
H76 C54 0.930 . S
H77 C55 0.931 . S
H78 C57 0.931 . S
H79 C58 0.931 . S
Gd80 C83 2.818 . S
Gd80 O100 2.377 1_455 S
Gd80 O102 2.448 . S
Gd80 O103 2.506 . S
Gd80 O104 2.435 . S
Gd80 O105 2.717 1_455 S
Gd80 O107 2.395 . S
Gd80 O111 2.327 . S
Gd81 C92 2.818 . S
Gd81 O101 2.395 . S
Gd81 O105 2.327 . S
Gd81 O106 2.377 1_655 S
Gd81 O108 2.448 . S
Gd81 O109 2.506 . S
Gd81 O110 2.435 . S
Gd81 O111 2.717 1_655 S
C82 O100 1.240 . S
C82 O101 1.240 . S
C83 Gd80 2.818 . S
C83 C84 1.510 . S
C83 O102 1.249 . S
C83 O103 1.252 . S
C84 C83 1.510 . S
C84 C85 1.404 . S
C84 C86 1.352 . S
C85 C84 1.404 . S
C85 C89 1.389 . S
C85 H112 0.930 . S
C86 C84 1.352 . S
C86 C88 1.374 . S
C86 H113 0.931 . S
C87 C88 1.359 . S
C87 C89 1.364 . S
C88 C86 1.374 . S
C88 C87 1.359 . S
C88 H114 0.931 . S
C89 C85 1.389 . S
C89 C87 1.364 . S
C89 H115 0.931 . S
C90 O104 1.256 . S
C90 O105 1.257 1_455 S
C91 O106 1.240 . S
C91 O107 1.240 . S
C92 Gd81 2.818 . S
C92 C93 1.510 . S
C92 O108 1.249 . S
C92 O109 1.252 . S
C93 C92 1.510 . S
C93 C94 1.404 . S
C93 C95 1.352 . S
C94 C93 1.404 . S
C94 C98 1.389 . S
C94 H116 0.930 . S
C95 C93 1.352 . S
C95 C97 1.374 . S
C95 H117 0.931 . S
C96 C97 1.359 . S
C96 C98 1.364 . S
C97 C95 1.374 . S
C97 C96 1.359 . S
C97 H118 0.931 . S
C98 C94 1.389 . S
C98 C96 1.364 . S
C98 H119 0.931 . S
C99 O110 1.256 . S
C99 O111 1.257 1_655 S
O100 Gd80 2.377 1_655 S
O100 C82 1.240 . S
O101 Gd81 2.395 . S
O101 C82 1.240 . S
O102 Gd80 2.448 . S
O102 C83 1.249 . S
O103 Gd80 2.506 . S
O103 C83 1.252 . S
O104 Gd80 2.435 . S
O104 C90 1.256 . S
O105 Gd80 2.717 1_655 S
O105 Gd81 2.327 . S
O105 C90 1.257 1_655 S
O106 Gd81 2.377 1_455 S
O106 C91 1.240 . S
O107 Gd80 2.395 . S
O107 C91 1.240 . S
O108 Gd81 2.448 . S
O108 C92 1.249 . S
O109 Gd81 2.506 . S
O109 C92 1.252 . S
O110 Gd81 2.435 . S
O110 C99 1.256 . S
O111 Gd80 2.327 . S
O111 Gd81 2.717 1_455 S
O111 C99 1.257 1_455 S
H112 C85 0.930 . S
H113 C86 0.931 . S
H114 C88 0.931 . S
H115 C89 0.931 . S
H116 C94 0.930 . S
H117 C95 0.931 . S
H118 C97 0.931 . S
H119 C98 0.931 . S
Gd120 C123 2.818 . S
Gd120 O140 2.397 . S
Gd120 O142 2.448 . S
Gd120 O143 2.506 . S
Gd120 O144 2.435 . S
Gd120 O145 2.715 1_545 S
Gd120 O147 2.395 1_554 S
Gd120 O151 2.327 . S
Gd121 C132 2.770 1_554 S
Gd121 O141 2.447 . S
Gd121 O145 2.340 . S
Gd121 O146 2.346 1_564 S
Gd121 O148 2.405 1_554 S
Gd121 O149 2.463 1_554 S
Gd121 O150 2.440 . S
Gd121 O151 2.743 1_565 S
C122 O140 1.223 1_565 S
C122 O141 1.240 . S
C123 Gd120 2.818 . S
C123 C124 1.510 . S
C123 O142 1.249 . S
C123 O143 1.252 . S
C124 C123 1.510 . S
C124 C125 1.404 . S
C124 C126 1.352 . S
C125 C124 1.404 . S
C125 C129 1.389 . S
C125 H152 0.930 . S
C126 C124 1.352 . S
C126 C128 1.374 . S
C126 H153 0.931 . S
C127 C128 1.359 . S
C127 C129 1.364 . S
C128 C126 1.374 . S
C128 C127 1.359 . S
C128 H154 0.931 . S
C129 C125 1.389 . S
C129 C127 1.364 . S
C129 H155 0.931 . S
C130 O144 1.256 . S
C130 O145 1.257 1_545 S
C131 O146 1.240 . S
C131 O147 1.240 . S
C132 Gd121 2.770 1_556 S
C132 C133 1.510 . S
C132 O148 1.249 . S
C132 O149 1.252 . S
C133 C132 1.510 . S
C133 C134 1.404 . S
C133 C135 1.352 . S
C134 C133 1.404 . S
C134 C138 1.389 . S
C134 H156 0.930 . S
C135 C133 1.352 . S
C135 C137 1.374 . S
C135 H157 0.931 . S
C136 C137 1.359 . S
C136 C138 1.364 . S
C137 C135 1.374 . S
C137 C136 1.359 . S
C137 H158 0.931 . S
C138 C134 1.389 . S
C138 C136 1.364 . S
C138 H159 0.931 . S
C139 O150 1.256 . S
C139 O151 1.257 1_565 S
O140 Gd120 2.397 . S
O140 C122 1.223 1_545 S
O141 Gd121 2.447 . S
O141 C122 1.240 . S
O142 Gd120 2.448 . S
O142 C123 1.249 . S
O143 Gd120 2.506 . S
O143 C123 1.252 . S
O144 Gd120 2.435 . S
O144 C130 1.256 . S
O145 Gd120 2.715 1_565 S
O145 Gd121 2.340 . S
O145 C130 1.257 1_565 S
O146 Gd121 2.346 1_546 S
O146 C131 1.240 . S
O147 Gd120 2.395 1_556 S
O147 C131 1.240 . S
O148 Gd121 2.405 1_556 S
O148 C132 1.249 . S
O149 Gd121 2.463 1_556 S
O149 C132 1.252 . S
O150 Gd121 2.440 . S
O150 C139 1.256 . S
O151 Gd120 2.327 . S
O151 Gd121 2.743 1_545 S
O151 C139 1.257 1_545 S
H152 C125 0.930 . S
H153 C126 0.931 . S
H154 C128 0.931 . S
H155 C129 0.931 . S
H156 C134 0.930 . S
H157 C135 0.931 . S
H158 C137 0.931 . S
H159 C138 0.931 . S
Gd160 C163 2.818 . S
Gd160 O180 2.377 . S
Gd160 O182 2.448 . S
Gd160 O183 2.506 . S
Gd160 O184 2.435 . S
Gd160 O185 2.717 . S
Gd160 O187 2.395 . S
Gd160 O191 2.327 . S
Gd161 C172 2.818 . S
Gd161 O181 2.395 . S
Gd161 O185 2.327 . S
Gd161 O186 2.377 . S
Gd161 O188 2.448 . S
Gd161 O189 2.506 . S
Gd161 O190 2.435 . S
Gd161 O191 2.717 . S
C162 O180 1.240 . S
C162 O181 1.240 . S
C163 Gd160 2.818 . S
C163 C164 1.510 . S
C163 O182 1.249 . S
C163 O183 1.252 . S
C164 C163 1.510 . S
C164 C165 1.404 . S
C164 C166 1.352 . S
C165 C164 1.404 . S
C165 C169 1.389 . S
C165 H192 0.930 . S
C166 C164 1.352 . S
C166 C168 1.374 . S
C166 H193 0.931 . S
C167 C168 1.359 . S
C167 C169 1.364 . S
C168 C166 1.374 . S
C168 C167 1.359 . S
C168 H194 0.931 . S
C169 C165 1.389 . S
C169 C167 1.364 . S
C169 H195 0.931 . S
C170 O184 1.256 . S
C170 O185 1.257 . S
C171 O186 1.240 . S
C171 O187 1.240 . S
C172 Gd161 2.818 . S
C172 C173 1.510 . S
C172 O188 1.249 . S
C172 O189 1.252 . S
C173 C172 1.510 . S
C173 C174 1.404 . S
C173 C175 1.352 1_655 S
C174 C173 1.404 . S
C174 C178 1.389 . S
C174 H196 0.930 . S
C175 C173 1.352 1_455 S
C175 C177 1.374 . S
C175 H197 0.931 . S
C176 C177 1.359 . S
C176 C178 1.364 1_455 S
C177 C175 1.374 . S
C177 C176 1.359 . S
C177 H198 0.931 . S
C178 C174 1.389 . S
C178 C176 1.364 1_655 S
C178 H199 0.931 . S
C179 O190 1.256 . S
C179 O191 1.257 . S
O180 Gd160 2.377 . S
O180 C162 1.240 . S
O181 Gd161 2.395 . S
O181 C162 1.240 . S
O182 Gd160 2.448 . S
O182 C163 1.249 . S
O183 Gd160 2.506 . S
O183 C163 1.252 . S
O184 Gd160 2.435 . S
O184 C170 1.256 . S
O185 Gd160 2.717 . S
O185 Gd161 2.327 . S
O185 C170 1.257 . S
O186 Gd161 2.377 . S
O186 C171 1.240 . S
O187 Gd160 2.395 . S
O187 C171 1.240 . S
O188 Gd161 2.448 . S
O188 C172 1.249 . S
O189 Gd161 2.506 . S
O189 C172 1.252 . S
O190 Gd161 2.435 . S
O190 C179 1.256 . S
O191 Gd160 2.327 . S
O191 Gd161 2.717 . S
O191 C179 1.257 . S
H192 C165 0.930 . S
H193 C166 0.931 . S
H194 C168 0.931 . S
H195 C169 0.931 . S
H196 C174 0.930 . S
H197 C175 0.931 . S
H198 C177 0.931 . S
H199 C178 0.931 . S
Gd200 C203 2.818 . S
Gd200 O220 2.377 . S
Gd200 O222 2.448 . S
Gd200 O223 2.506 . S
Gd200 O224 2.435 . S
Gd200 O225 2.717 . S
Gd200 O227 2.395 . S
Gd200 O231 2.327 . S
Gd201 C212 2.818 . S
Gd201 O221 2.395 . S
Gd201 O225 2.327 . S
Gd201 O226 2.377 . S
Gd201 O228 2.448 . S
Gd201 O229 2.501 1_565 S
Gd201 O230 2.435 . S
Gd201 O231 2.717 . S
C202 O220 1.240 . S
C202 O221 1.240 . S
C203 Gd200 2.818 . S
C203 C204 1.510 . S
C203 O222 1.249 . S
C203 O223 1.252 . S
C204 C203 1.510 . S
C204 C205 1.404 . S
C204 C206 1.352 . S
C205 C204 1.404 . S
C205 C209 1.389 . S
C205 H232 0.930 . S
C206 C204 1.352 . S
C206 C208 1.374 . S
C206 H233 0.931 . S
C207 C208 1.359 . S
C207 C209 1.364 . S
C208 C206 1.374 . S
C208 C207 1.359 . S
C208 H234 0.931 . S
C209 C205 1.389 . S
C209 C207 1.364 . S
C209 H235 0.931 . S
C210 O224 1.256 . S
C210 O225 1.257 . S
C211 O226 1.240 . S
C211 O227 1.240 . S
C212 Gd201 2.818 . S
C212 C213 1.510 . S
C212 O228 1.249 . S
C212 O229 1.245 1_565 S
C213 C212 1.510 . S
C213 C214 1.404 . S
C213 C215 1.352 1_565 S
C214 C213 1.404 . S
C214 C218 1.389 . S
C214 H236 0.930 . S
C215 C213 1.352 1_545 S
C215 C217 1.374 . S
C215 H237 0.931 . S
C216 C217 1.359 . S
C216 C218 1.364 1_545 S
C217 C215 1.374 . S
C217 C216 1.359 . S
C217 H238 0.931 . S
C218 C214 1.389 . S
C218 C216 1.364 1_565 S
C218 H239 0.931 . S
C219 O230 1.256 . S
C219 O231 1.257 . S
O220 Gd200 2.377 . S
O220 C202 1.240 . S
O221 Gd201 2.395 . S
O221 C202 1.240 . S
O222 Gd200 2.448 . S
O222 C203 1.249 . S
O223 Gd200 2.506 . S
O223 C203 1.252 . S
O224 Gd200 2.435 . S
O224 C210 1.256 . S
O225 Gd200 2.717 . S
O225 Gd201 2.327 . S
O225 C210 1.257 . S
O226 Gd201 2.377 . S
O226 C211 1.240 . S
O227 Gd200 2.395 . S
O227 C211 1.240 . S
O228 Gd201 2.448 . S
O228 C212 1.249 . S
O229 Gd201 2.501 1_545 S
O229 C212 1.245 1_545 S
O230 Gd201 2.435 . S
O230 C219 1.256 . S
O231 Gd200 2.327 . S
O231 Gd201 2.717 . S
O231 C219 1.257 . S
H232 C205 0.930 . S
H233 C206 0.931 . S
H234 C208 0.931 . S
H235 C209 0.931 . S
H236 C214 0.930 . S
H237 C215 0.931 . S
H238 C217 0.931 . S
H239 C218 0.931 . S
H240 C258 0.951 . S
H241 C260 0.951 . S
H242 C262 0.950 . S
H243 C263 0.950 . S
H244 C265 0.971 . S
H245 C268 0.950 . S
H246 C269 0.950 . S
H247 C271 0.950 . S
H248 C272 0.950 . S
H249 C273 0.951 . S
H250 C275 0.951 . S
H251 C277 0.950 . S
H252 C278 0.950 . S
H253 C280 0.950 . S
H254 C283 0.950 . S
H255 C284 0.950 . S
H256 C286 0.950 . S
H257 C287 0.950 . S
C258 H240 0.951 . S
C258 C259 1.366 . S
C258 C260 1.388 . S
C259 C258 1.366 . S
C259 C263 1.385 1_565 S
C260 H241 0.951 . S
C260 C258 1.388 . S
C260 C261 1.366 1_565 S
C261 C260 1.366 1_545 S
C261 C262 1.414 . S
C261 C264 1.499 1_655 S
C262 H242 0.950 . S
C262 C261 1.414 . S
C262 C263 1.374 . S
C263 H243 0.950 . S
C263 C259 1.385 1_545 S
C263 C262 1.374 . S
C264 C261 1.499 1_455 S
C264 C265 1.351 1_554 S
C264 C266 1.389 . S
C265 H244 0.971 . S
C265 C264 1.351 1_556 S
C265 C281 1.379 . S
C266 C264 1.389 . S
C266 C267 1.524 . S
C266 C280 1.377 . S
C267 C266 1.524 . S
C267 C268 1.397 . S
C267 C272 1.363 1_545 S
C268 H245 0.950 . S
C268 C267 1.397 . S
C268 C269 1.334 1_445 S
C269 H246 0.950 . S
C269 C268 1.334 1_665 S
C269 C270 1.287 1_655 S
C270 C269 1.287 1_455 S
C270 C271 1.524 . S
C270 H289 0.913 1_455 S
C271 H247 0.950 . S
C271 C270 1.524 . S
C271 C272 1.415 . S
C272 H248 0.950 . S
C272 C267 1.363 1_565 S
C272 C271 1.415 . S
C273 H249 0.951 . S
C273 C274 1.366 . S
C273 C275 1.388 . S
C274 C273 1.366 . S
C274 C278 1.385 . S
C275 H250 0.951 . S
C275 C273 1.388 . S
C275 C276 1.366 . S
C276 C275 1.366 . S
C276 C277 1.414 . S
C276 C279 1.499 . S
C277 H251 0.950 . S
C277 C276 1.414 . S
C277 C278 1.374 . S
C278 H252 0.950 . S
C278 C274 1.385 . S
C278 C277 1.374 . S
C279 C276 1.499 . S
C279 C280 1.373 . S
C279 C281 1.389 1_554 S
C280 H253 0.950 . S
C280 C266 1.377 . S
C280 C279 1.373 . S
C281 C265 1.379 . S
C281 C279 1.389 1_556 S
C281 C282 1.524 . S
C282 C281 1.524 . S
C282 C283 1.397 . S
C282 C287 1.363 . S
C283 H254 0.950 . S
C283 C282 1.397 . S
C283 C284 1.334 . S
C284 H255 0.950 . S
C284 C283 1.334 . S
C284 C285 1.287 . S
C285 C284 1.287 . S
C285 C286 1.524 . S
C285 H288 0.999 . S
C286 H256 0.950 . S
C286 C285 1.524 . S
C286 C287 1.415 . S
C287 H257 0.950 . S
C287 C282 1.363 . S
C287 C286 1.415 . S
H288 C285 0.999 . S
H289 C270 0.913 1_655 S
H290 C308 0.951 . S
H291 C310 0.951 . S
H292 C312 0.950 . S
H293 C313 0.950 . S
H294 C315 0.950 . S
H295 C318 0.950 . S
H296 C319 0.950 . S
H297 C321 0.950 . S
H298 C322 0.960 . S
H299 C323 0.951 . S
H300 C325 0.951 . S
H301 C327 0.950 . S
H302 C328 0.950 . S
H303 C330 0.950 . S
H304 C333 0.950 . S
H305 C334 0.950 . S
H306 C336 0.950 . S
H307 C337 0.950 . S
C308 H290 0.951 . S
C308 C309 1.366 . S
C308 C310 1.388 . S
C309 C308 1.366 . S
C309 C313 1.385 1_655 S
C310 H291 0.951 . S
C310 C308 1.388 . S
C310 C311 1.366 1_655 S
C311 C310 1.366 1_455 S
C311 C312 1.414 . S
C311 C314 1.499 1_565 S
C312 H292 0.950 . S
C312 C311 1.414 . S
C312 C313 1.374 . S
C313 H293 0.950 . S
C313 C309 1.385 1_455 S
C313 C312 1.374 . S
C314 C311 1.499 1_545 S
C314 C315 1.373 . S
C314 C316 1.389 . S
C315 H294 0.950 . S
C315 C314 1.373 . S
C315 C331 1.377 . S
C316 C314 1.389 . S
C316 C317 1.524 . S
C316 C330 1.377 . S
C317 C316 1.524 . S
C317 C318 1.397 . S
C317 C322 1.363 . S
C318 H295 0.950 . S
C318 C317 1.397 . S
C318 C319 1.334 1_545 S
C319 H296 0.950 . S
C319 C318 1.334 1_565 S
C319 C320 1.287 1_565 S
C320 C319 1.287 1_545 S
C320 C321 1.524 1_455 S
C320 H339 0.913 1_445 S
C321 H297 0.950 . S
C321 C320 1.524 1_655 S
C321 C322 1.415 1_655 S
C322 H298 0.960 . S
C322 C317 1.363 . S
C322 C321 1.415 1_455 S
C323 H299 0.951 . S
C323 C324 1.366 . S
C323 C325 1.388 . S
C324 C323 1.366 . S
C324 C328 1.385 . S
C325 H300 0.951 . S
C325 C323 1.388 . S
C325 C326 1.366 . S
C326 C325 1.366 . S
C326 C327 1.414 . S
C326 C329 1.499 . S
C327 H301 0.950 . S
C327 C326 1.414 . S
C327 C328 1.374 . S
C328 H302 0.950 . S
C328 C324 1.385 . S
C328 C327 1.374 . S
C329 C326 1.499 . S
C329 C330 1.373 . S
C329 C331 1.389 . S
C330 H303 0.950 . S
C330 C316 1.377 . S
C330 C329 1.373 . S
C331 C315 1.377 . S
C331 C329 1.389 . S
C331 C332 1.524 . S
C332 C331 1.524 . S
C332 C333 1.397 . S
C332 C337 1.363 . S
C333 H304 0.950 . S
C333 C332 1.397 . S
C333 C334 1.334 . S
C334 H305 0.950 . S
C334 C333 1.334 . S
C334 C335 1.287 . S
C335 C334 1.287 . S
C335 C336 1.524 . S
C335 H338 0.999 . S
C336 H306 0.950 . S
C336 C335 1.524 . S
C336 C337 1.415 . S
C337 H307 0.950 . S
C337 C332 1.363 . S
C337 C336 1.415 . S
H338 C335 0.999 . S
H339 C320 0.913 1_665 S
H340 C358 0.951 . S
H341 C360 0.951 . S
H342 C362 0.950 . S
H343 C363 0.950 . S
H344 C365 0.950 . S
H345 C368 0.950 . S
H346 C369 0.950 . S
H347 C371 0.950 . S
H348 C372 0.950 . S
H349 C373 0.951 . S
H350 C375 0.951 . S
H351 C377 0.950 . S
H352 C378 0.950 . S
H353 C380 0.950 . S
H354 C383 0.950 . S
H355 C384 0.950 . S
H356 C386 0.950 . S
H357 C387 0.950 1_565 S
C358 H340 0.951 . S
C358 C359 1.366 1_545 S
C358 C360 1.388 . S
C359 C358 1.366 1_565 S
C359 C363 1.385 . S
C360 H341 0.951 . S
C360 C358 1.388 . S
C360 C361 1.366 . S
C361 C360 1.366 . S
C361 C362 1.414 1_545 S
C361 C364 1.499 . S
C362 H342 0.950 . S
C362 C361 1.414 1_565 S
C362 C363 1.374 . S
C363 H343 0.950 . S
C363 C359 1.385 . S
C363 C362 1.374 . S
C364 C361 1.499 . S
C364 C365 1.373 . S
C364 C366 1.389 . S
C365 H344 0.950 . S
C365 C364 1.373 . S
C365 C381 1.377 . S
C366 C364 1.389 . S
C366 C367 1.524 . S
C366 C380 1.377 . S
C367 C366 1.524 . S
C367 C368 1.397 . S
C367 C372 1.363 . S
C368 H345 0.950 . S
C368 C367 1.397 . S
C368 C369 1.334 . S
C369 H346 0.950 . S
C369 C368 1.334 . S
C369 C370 1.287 . S
C370 C369 1.287 . S
C370 C371 1.524 . S
C370 H389 0.913 . S
C371 H347 0.950 . S
C371 C370 1.524 . S
C371 C372 1.415 . S
C372 H348 0.950 . S
C372 C367 1.363 . S
C372 C371 1.415 . S
C373 H349 0.951 . S
C373 C374 1.366 . S
C373 C375 1.388 . S
C374 C373 1.366 . S
C374 C378 1.385 1_655 S
C375 H350 0.951 . S
C375 C373 1.388 . S
C375 C376 1.366 1_655 S
C376 C375 1.366 1_455 S
C376 C377 1.414 . S
C376 C379 1.499 . S
C377 H351 0.950 . S
C377 C376 1.414 . S
C377 C378 1.374 . S
C378 H352 0.950 . S
C378 C374 1.385 1_455 S
C378 C377 1.374 . S
C379 C376 1.499 . S
C379 C380 1.373 . S
C379 C381 1.389 . S
C380 H353 0.950 . S
C380 C366 1.377 . S
C380 C379 1.373 . S
C381 C365 1.377 . S
C381 C379 1.389 . S
C381 C382 1.524 . S
C382 C381 1.524 . S
C382 C383 1.397 . S
C382 C387 1.363 1_455 S
C383 H354 0.950 . S
C383 C382 1.397 . S
C383 C384 1.334 1_455 S
C384 H355 0.950 . S
C384 C383 1.334 1_655 S
C384 C385 1.287 . S
C385 C384 1.287 . S
C385 C386 1.524 1_545 S
C385 H388 0.999 . S
C386 H356 0.950 . S
C386 C385 1.524 1_565 S
C386 C387 1.415 1_565 S
C387 H357 0.950 1_545 S
C387 C382 1.363 1_655 S
C387 C386 1.415 1_545 S
H388 C385 0.999 . S
H389 C370 0.913 . S
H390 C408 0.951 . S
H391 C410 0.951 . S
H392 C412 0.950 . S
H393 C413 0.950 . S
H394 C415 0.950 . S
H395 C418 0.950 . S
H396 C419 0.950 . S
H397 C421 0.950 . S
H398 C422 0.950 . S
H399 C423 0.951 . S
H400 C425 0.951 . S
H401 C427 0.950 . S
H402 C428 0.950 . S
H403 C430 0.950 . S
H404 C433 0.950 . S
H405 C434 0.950 . S
H406 C436 0.950 . S
H407 C437 0.950 . S
C408 H390 0.951 . S
C408 C409 1.366 . S
C408 C410 1.388 . S
C409 C408 1.366 . S
C409 C413 1.385 . S
C410 H391 0.951 . S
C410 C408 1.388 . S
C410 C411 1.366 . S
C411 C410 1.366 . S
C411 C412 1.414 . S
C411 C414 1.499 . S
C412 H392 0.950 . S
C412 C411 1.414 . S
C412 C413 1.374 . S
C413 H393 0.950 . S
C413 C409 1.385 . S
C413 C412 1.374 . S
C414 C411 1.499 . S
C414 C415 1.373 . S
C414 C416 1.389 . S
C415 H394 0.950 . S
C415 C414 1.373 . S
C415 C431 1.377 . S
C416 C414 1.389 . S
C416 C417 1.524 . S
C416 C430 1.377 . S
C417 C416 1.524 . S
C417 C418 1.397 . S
C417 C422 1.363 . S
C418 H395 0.950 . S
C418 C417 1.397 . S
C418 C419 1.334 . S
C419 H396 0.950 . S
C419 C418 1.334 . S
C419 C420 1.287 . S
C420 C419 1.287 . S
C420 C421 1.524 . S
C420 H439 0.913 . S
C421 H397 0.950 . S
C421 C420 1.524 . S
C421 C422 1.415 . S
C422 H398 0.950 . S
C422 C417 1.363 . S
C422 C421 1.415 . S
C423 H399 0.951 . S
C423 C424 1.366 . S
C423 C425 1.388 . S
C424 C423 1.366 . S
C424 C428 1.385 . S
C425 H400 0.951 . S
C425 C423 1.388 . S
C425 C426 1.366 . S
C426 C425 1.366 . S
C426 C427 1.414 . S
C426 C429 1.499 . S
C427 H401 0.950 . S
C427 C426 1.414 . S
C427 C428 1.374 . S
C428 H402 0.950 . S
C428 C424 1.385 . S
C428 C427 1.374 . S
C429 C426 1.499 . S
C429 C430 1.373 . S
C429 C431 1.389 . S
C430 H403 0.950 . S
C430 C416 1.377 . S
C430 C429 1.373 . S
C431 C415 1.377 . S
C431 C429 1.389 . S
C431 C432 1.524 . S
C432 C431 1.524 . S
C432 C433 1.397 . S
C432 C437 1.363 . S
C433 H404 0.950 . S
C433 C432 1.397 . S
C433 C434 1.334 . S
C434 H405 0.950 . S
C434 C433 1.334 . S
C434 C435 1.287 . S
C435 C434 1.287 . S
C435 C436 1.524 . S
C435 H438 0.999 . S
C436 H406 0.950 . S
C436 C435 1.524 . S
C436 C437 1.415 . S
C437 H407 0.950 . S
C437 C432 1.363 . S
C437 C436 1.415 . S
H438 C435 0.999 . S
H439 C420 0.913 . S
H440 C458 0.951 . S
H441 C460 0.951 . S
H442 C462 0.950 . S
H443 C463 0.950 . S
H444 C465 0.950 . S
H445 C468 0.950 . S
H446 C469 0.950 . S
H447 C471 0.950 . S
H448 C472 0.950 . S
H449 C473 0.951 . S
H450 C475 0.951 . S
H451 C477 0.950 . S
H452 C478 0.950 . S
H453 C480 0.950 . S
H454 C483 0.950 . S
H455 C484 0.950 . S
H456 C486 0.950 . S
H457 C487 0.950 . S
C458 H440 0.951 . S
C458 C459 1.366 . S
C458 C460 1.388 . S
C459 C458 1.366 . S
C459 C463 1.385 . S
C460 H441 0.951 . S
C460 C458 1.388 . S
C460 C461 1.366 . S
C461 C460 1.366 . S
C461 C462 1.414 . S
C461 C464 1.499 . S
C462 H442 0.950 . S
C462 C461 1.414 . S
C462 C463 1.374 . S
C463 H443 0.950 . S
C463 C459 1.385 . S
C463 C462 1.374 . S
C464 C461 1.499 . S
C464 C465 1.373 . S
C464 C466 1.389 . S
C465 H444 0.950 . S
C465 C464 1.373 . S
C465 C481 1.377 1_455 S
C466 C464 1.389 . S
C466 C467 1.524 . S
C466 C480 1.377 . S
C467 C466 1.524 . S
C467 C468 1.397 . S
C467 C472 1.363 . S
C468 H445 0.950 . S
C468 C467 1.397 . S
C468 C469 1.334 . S
C469 H446 0.950 . S
C469 C468 1.334 . S
C469 C470 1.287 . S
C470 C469 1.287 . S
C470 C471 1.524 . S
C470 H489 0.913 . S
C471 H447 0.950 . S
C471 C470 1.524 . S
C471 C472 1.415 . S
C472 H448 0.950 . S
C472 C467 1.363 . S
C472 C471 1.415 . S
C473 H449 0.951 . S
C473 C474 1.366 . S
C473 C475 1.388 . S
C474 C473 1.366 . S
C474 C478 1.385 . S
C475 H450 0.951 . S
C475 C473 1.388 . S
C475 C476 1.366 . S
C476 C475 1.366 . S
C476 C477 1.414 . S
C476 C479 1.499 . S
C477 H451 0.950 . S
C477 C476 1.414 . S
C477 C478 1.374 . S
C478 H452 0.950 . S
C478 C474 1.385 . S
C478 C477 1.374 . S
C479 C476 1.499 . S
C479 C480 1.373 1_655 S
C479 C481 1.389 . S
C480 H453 0.950 . S
C480 C466 1.377 . S
C480 C479 1.373 1_455 S
C481 C465 1.377 1_655 S
C481 C479 1.389 . S
C481 C482 1.524 . S
C482 C481 1.524 . S
C482 C483 1.397 . S
C482 C487 1.363 . S
C483 H454 0.950 . S
C483 C482 1.397 . S
C483 C484 1.334 . S
C484 H455 0.950 . S
C484 C483 1.334 . S
C484 C485 1.287 . S
C485 C484 1.287 . S
C485 C486 1.524 . S
C485 H488 0.999 . S
C486 H456 0.950 . S
C486 C485 1.524 . S
C486 C487 1.415 . S
C487 H457 0.950 . S
C487 C482 1.363 . S
C487 C486 1.415 . S
H488 C485 0.999 . S
H489 C470 0.913 . S
H490 C508 0.951 . S
H491 C510 0.951 . S
H492 C512 0.950 . S
H493 C513 0.950 . S
H494 C515 0.950 . S
H495 C518 0.950 . S
H496 C519 0.950 . S
H497 C521 0.950 . S
H498 C522 0.950 . S
H499 C523 0.951 . S
H500 C525 0.951 . S
H501 C527 0.950 . S
H502 C528 0.950 . S
H503 C530 0.950 . S
H504 C533 0.950 . S
H505 C534 0.950 . S
H506 C536 0.950 . S
H507 C537 0.950 . S
C508 H490 0.951 . S
C508 C509 1.366 . S
C508 C510 1.388 . S
C509 C508 1.366 . S
C509 C513 1.385 . S
C510 H491 0.951 . S
C510 C508 1.388 . S
C510 C511 1.366 . S
C511 C510 1.366 . S
C511 C512 1.414 . S
C511 C514 1.499 . S
C512 H492 0.950 . S
C512 C511 1.414 . S
C512 C513 1.374 . S
C513 H493 0.950 . S
C513 C509 1.385 . S
C513 C512 1.374 . S
C514 C511 1.499 . S
C514 C515 1.373 . S
C514 C516 1.389 . S
C515 H494 0.950 . S
C515 C514 1.373 . S
C515 C531 1.377 1_545 S
C516 C514 1.389 . S
C516 C517 1.524 . S
C516 C530 1.377 . S
C517 C516 1.524 . S
C517 C518 1.397 . S
C517 C522 1.363 . S
C518 H495 0.950 . S
C518 C517 1.397 . S
C518 C519 1.334 . S
C519 H496 0.950 . S
C519 C518 1.334 . S
C519 C520 1.287 1_655 S
C520 C519 1.287 1_455 S
C520 C521 1.524 . S
C520 H539 0.913 . S
C521 H497 0.950 . S
C521 C520 1.524 . S
C521 C522 1.415 1_455 S
C522 H498 0.950 . S
C522 C517 1.363 . S
C522 C521 1.415 1_655 S
C523 H499 0.951 . S
C523 C524 1.366 . S
C523 C525 1.388 . S
C524 C523 1.366 . S
C524 C528 1.385 . S
C525 H500 0.951 . S
C525 C523 1.388 . S
C525 C526 1.366 . S
C526 C525 1.366 . S
C526 C527 1.414 . S
C526 C529 1.499 . S
C527 H501 0.950 . S
C527 C526 1.414 . S
C527 C528 1.374 . S
C528 H502 0.950 . S
C528 C524 1.385 . S
C528 C527 1.374 . S
C529 C526 1.499 . S
C529 C530 1.373 1_565 S
C529 C531 1.389 . S
C530 H503 0.950 . S
C530 C516 1.377 . S
C530 C529 1.373 1_545 S
C531 C515 1.377 1_565 S
C531 C529 1.389 . S
C531 C532 1.524 . S
C532 C531 1.524 . S
C532 C533 1.397 . S
C532 C537 1.363 . S
C533 H504 0.950 . S
C533 C532 1.397 . S
C533 C534 1.334 . S
C534 H505 0.950 . S
C534 C533 1.334 . S
C534 C535 1.287 . S
C535 C534 1.287 . S
C535 C536 1.524 . S
C535 H538 0.999 . S
C536 H506 0.950 . S
C536 C535 1.524 . S
C536 C537 1.415 . S
C537 H507 0.950 . S
C537 C532 1.363 . S
C537 C536 1.415 . S
H538 C535 0.999 . S
H539 C520 0.913 . S
H540 C558 0.951 . S
H541 C560 0.951 . S
H542 C562 0.950 . S
H543 C563 0.950 . S
H544 C565 0.950 . S
H545 C568 0.950 . S
H546 C569 0.950 . S
H547 C571 0.950 . S
H548 C572 0.950 . S
H549 C573 0.951 . S
H550 C575 0.951 . S
H551 C577 0.950 . S
H552 C578 0.950 . S
H553 C580 0.950 . S
H554 C583 0.950 . S
H555 C584 0.950 . S
H556 C586 0.950 . S
H557 C587 0.950 . S
C558 H540 0.951 . S
C558 C559 1.366 . S
C558 C560 1.388 . S
C559 C558 1.366 . S
C559 C563 1.385 . S
C560 H541 0.951 . S
C560 C558 1.388 . S
C560 C561 1.366 . S
C561 C560 1.366 . S
C561 C562 1.414 . S
C561 C564 1.499 . S
C562 H542 0.950 . S
C562 C561 1.414 . S
C562 C563 1.374 . S
C563 H543 0.950 . S
C563 C559 1.385 . S
C563 C562 1.374 . S
C564 C561 1.499 . S
C564 C565 1.373 . S
C564 C566 1.389 . S
C565 H544 0.950 . S
C565 C564 1.373 . S
C565 C581 1.377 . S
C566 C564 1.389 . S
C566 C567 1.524 . S
C566 C580 1.377 . S
C567 C566 1.524 . S
C567 C568 1.397 . S
C567 C572 1.363 . S
C568 H545 0.950 . S
C568 C567 1.397 . S
C568 C569 1.334 . S
C569 H546 0.950 . S
C569 C568 1.334 . S
C569 C570 1.287 . S
C570 C569 1.287 . S
C570 C571 1.524 . S
C570 H589 0.913 . S
C571 H547 0.950 . S
C571 C570 1.524 . S
C571 C572 1.415 . S
C572 H548 0.950 . S
C572 C567 1.363 . S
C572 C571 1.415 . S
C573 H549 0.951 . S
C573 C574 1.366 . S
C573 C575 1.388 . S
C574 C573 1.366 . S
C574 C578 1.385 1_455 S
C575 H550 0.951 . S
C575 C573 1.388 . S
C575 C576 1.366 1_455 S
C576 C575 1.366 1_655 S
C576 C577 1.414 . S
C576 C579 1.499 . S
C577 H551 0.950 . S
C577 C576 1.414 . S
C577 C578 1.374 . S
C578 H552 0.950 . S
C578 C574 1.385 1_655 S
C578 C577 1.374 . S
C579 C576 1.499 . S
C579 C580 1.373 . S
C579 C581 1.389 . S
C580 H553 0.950 . S
C580 C566 1.377 . S
C580 C579 1.373 . S
C581 C565 1.377 . S
C581 C579 1.389 . S
C581 C582 1.524 . S
C582 C581 1.524 . S
C582 C583 1.397 . S
C582 C587 1.363 1_655 S
C583 H554 0.950 . S
C583 C582 1.397 . S
C583 C584 1.334 1_655 S
C584 H555 0.950 . S
C584 C583 1.334 1_455 S
C584 C585 1.287 1_565 S
C585 C584 1.287 1_545 S
C585 C586 1.524 . S
C585 H588 0.999 . S
C586 H556 0.950 . S
C586 C585 1.524 . S
C586 C587 1.415 1_545 S
C587 H557 0.950 . S
C587 C582 1.363 1_455 S
C587 C586 1.415 1_565 S
H588 C585 0.999 . S
H589 C570 0.913 . S
H590 C608 0.951 1_655 S
H591 C610 0.951 . S
H592 C612 0.950 . S
H593 C613 0.950 . S
H594 C615 0.950 . S
H595 C618 0.950 . S
H596 C619 0.950 . S
H597 C621 0.950 . S
H598 C622 0.950 . S
H599 C623 0.951 . S
H600 C625 0.951 . S
H601 C627 0.950 . S
H602 C628 0.950 . S
H603 C630 0.950 . S
H604 C633 0.950 . S
H605 C634 0.950 . S
H606 C636 0.950 . S
H607 C637 0.950 . S
C608 H590 0.951 1_455 S
C608 C609 1.366 . S
C608 C610 1.388 . S
C609 C608 1.366 . S
C609 C613 1.385 . S
C610 H591 0.951 . S
C610 C608 1.388 . S
C610 C611 1.366 . S
C611 C610 1.366 . S
C611 C612 1.414 . S
C611 C614 1.499 . S
C612 H592 0.950 . S
C612 C611 1.414 . S
C612 C613 1.374 . S
C613 H593 0.950 . S
C613 C609 1.385 . S
C613 C612 1.374 . S
C614 C611 1.499 . S
C614 C615 1.373 . S
C614 C616 1.389 . S
C615 H594 0.950 . S
C615 C614 1.373 . S
C615 C631 1.377 . S
C616 C614 1.389 . S
C616 C617 1.524 . S
C616 C630 1.377 . S
C617 C616 1.524 . S
C617 C618 1.397 . S
C617 C622 1.363 . S
C618 H595 0.950 . S
C618 C617 1.397 . S
C618 C619 1.334 . S
C619 H596 0.950 . S
C619 C618 1.334 . S
C619 C620 1.287 . S
C620 C619 1.287 . S
C620 C621 1.524 . S
C620 H639 0.913 . S
C621 H597 0.950 . S
C621 C620 1.524 . S
C621 C622 1.415 . S
C622 H598 0.950 . S
C622 C617 1.363 . S
C622 C621 1.415 . S
C623 H599 0.951 . S
C623 C624 1.366 . S
C623 C625 1.388 1_545 S
C624 C623 1.366 . S
C624 C628 1.385 . S
C625 H600 0.951 . S
C625 C623 1.388 1_565 S
C625 C626 1.366 . S
C626 C625 1.366 . S
C626 C627 1.414 . S
C626 C629 1.499 . S
C627 H601 0.950 . S
C627 C626 1.414 . S
C627 C628 1.374 1_565 S
C628 H602 0.950 . S
C628 C624 1.385 . S
C628 C627 1.374 1_545 S
C629 C626 1.499 . S
C629 C630 1.373 . S
C629 C631 1.389 . S
C630 H603 0.950 . S
C630 C616 1.377 . S
C630 C629 1.373 . S
C631 C615 1.377 . S
C631 C629 1.389 . S
C631 C632 1.524 . S
C632 C631 1.524 . S
C632 C633 1.397 1_565 S
C632 C637 1.363 . S
C633 H604 0.950 . S
C633 C632 1.397 1_545 S
C633 C634 1.334 . S
C634 H605 0.950 . S
C634 C633 1.334 . S
C634 C635 1.287 . S
C635 C634 1.287 . S
C635 C636 1.524 . S
C635 H638 0.999 . S
C636 H606 0.950 . S
C636 C635 1.524 . S
C636 C637 1.415 1_545 S
C637 H607 0.950 . S
C637 C632 1.363 . S
C637 C636 1.415 1_565 S
H638 C635 0.999 . S
H639 C620 0.913 . S
H640 C658 0.951 . S
H641 C660 0.951 . S
H642 C662 0.950 . S
H643 C663 0.950 . S
H644 C665 0.950 . S
H645 C668 0.950 . S
H646 C669 0.950 . S
H647 C671 0.950 . S
H648 C672 0.950 . S
H649 C673 0.951 . S
H650 C675 0.951 . S
H651 C677 0.950 . S
H652 C678 0.950 . S
H653 C680 0.950 . S
H654 C683 0.950 . S
H655 C684 0.950 . S
H656 C686 0.950 . S
H657 C687 0.950 . S
C658 H640 0.951 . S
C658 C659 1.366 . S
C658 C660 1.388 . S
C659 C658 1.366 . S
C659 C663 1.385 . S
C660 H641 0.951 . S
C660 C658 1.388 . S
C660 C661 1.366 . S
C661 C660 1.366 . S
C661 C662 1.414 . S
C661 C664 1.499 . S
C662 H642 0.950 . S
C662 C661 1.414 . S
C662 C663 1.374 . S
C663 H643 0.950 . S
C663 C659 1.385 . S
C663 C662 1.374 . S
C664 C661 1.499 . S
C664 C665 1.373 . S
C664 C666 1.389 . S
C665 H644 0.950 . S
C665 C664 1.373 . S
C665 C681 1.377 . S
C666 C664 1.389 . S
C666 C667 1.524 . S
C666 C680 1.377 . S
C667 C666 1.524 . S
C667 C668 1.397 . S
C667 C672 1.363 . S
C668 H645 0.950 . S
C668 C667 1.397 . S
C668 C669 1.334 1_545 S
C669 H646 0.950 . S
C669 C668 1.334 1_565 S
C669 C670 1.287 . S
C670 C669 1.287 . S
C670 C671 1.524 1_565 S
C670 H689 0.913 . S
C671 H647 0.950 . S
C671 C670 1.524 1_545 S
C671 C672 1.415 . S
C672 H648 0.950 . S
C672 C667 1.363 . S
C672 C671 1.415 . S
C673 H649 0.951 . S
C673 C674 1.366 . S
C673 C675 1.388 . S
C674 C673 1.366 . S
C674 C678 1.385 . S
C675 H650 0.951 . S
C675 C673 1.388 . S
C675 C676 1.366 . S
C676 C675 1.366 . S
C676 C677 1.414 . S
C676 C679 1.499 . S
C677 H651 0.950 . S
C677 C676 1.414 . S
C677 C678 1.374 . S
C678 H652 0.950 . S
C678 C674 1.385 . S
C678 C677 1.374 . S
C679 C676 1.499 . S
C679 C680 1.373 . S
C679 C681 1.389 . S
C680 H653 0.950 . S
C680 C666 1.377 . S
C680 C679 1.373 . S
C681 C665 1.377 . S
C681 C679 1.389 . S
C681 C682 1.524 . S
C682 C681 1.524 . S
C682 C683 1.397 . S
C682 C687 1.363 . S
C683 H654 0.950 . S
C683 C682 1.397 . S
C683 C684 1.334 . S
C684 H655 0.950 . S
C684 C683 1.334 . S
C684 C685 1.287 . S
C685 C684 1.287 . S
C685 C686 1.524 . S
C685 H688 0.999 . S
C686 H656 0.950 . S
C686 C685 1.524 . S
C686 C687 1.415 . S
C687 H657 0.950 . S
C687 C682 1.363 . S
C687 C686 1.415 . S
H688 C685 0.999 . S
H689 C670 0.913 . S
H690 C708 0.951 . S
H691 C710 0.951 . S
H692 C712 0.950 1_556 S
H693 C713 0.950 1_556 S
H694 C715 0.950 . S
H695 C718 0.950 1_556 S
H696 C719 0.936 1_556 S
H697 C721 0.950 . S
H698 C722 0.950 . S
H699 C723 0.951 1_556 S
H700 C725 0.951 1_556 S
H701 C727 0.950 . S
H702 C728 0.950 . S
H703 C730 0.950 . S
H704 C733 0.950 . S
H705 C734 0.950 . S
H706 C736 0.950 1_556 S
H707 C737 0.950 1_556 S
C708 H690 0.951 . S
C708 C709 1.366 . S
C708 C710 1.388 . S
C709 C708 1.366 . S
C709 C713 1.385 . S
C710 H691 0.951 . S
C710 C708 1.388 . S
C710 C711 1.366 . S
C711 C710 1.366 . S
C711 C712 1.414 . S
C711 C714 1.499 . S
C712 H692 0.950 1_554 S
C712 C711 1.414 . S
C712 C713 1.374 . S
C713 H693 0.950 1_554 S
C713 C709 1.385 . S
C713 C712 1.374 . S
C714 C711 1.499 . S
C714 C715 1.373 . S
C714 C716 1.389 . S
C715 H694 0.950 . S
C715 C714 1.373 . S
C715 C731 1.377 . S
C716 C714 1.389 . S
C716 C717 1.524 . S
C716 C730 1.377 . S
C717 C716 1.524 . S
C717 C718 1.397 . S
C717 C722 1.363 . S
C718 H695 0.950 1_554 S
C718 C717 1.397 . S
C718 C719 1.336 . S
C719 H696 0.936 1_554 S
C719 C718 1.336 . S
C719 C720 1.299 . S
C720 C719 1.299 . S
C720 C721 1.524 . S
C720 H739 0.913 . S
C721 H697 0.950 . S
C721 C720 1.524 . S
C721 C722 1.415 . S
C722 H698 0.950 . S
C722 C717 1.363 . S
C722 C721 1.415 . S
C723 H699 0.951 1_554 S
C723 C724 1.362 . S
C723 C725 1.388 1_565 S
C724 C723 1.362 . S
C724 C728 1.368 1_565 S
C725 H700 0.951 1_554 S
C725 C723 1.388 1_545 S
C725 C726 1.366 . S
C726 C725 1.366 . S
C726 C727 1.414 . S
C726 C729 1.499 . S
C727 H701 0.950 . S
C727 C726 1.414 . S
C727 C728 1.374 . S
C728 H702 0.950 . S
C728 C724 1.368 1_545 S
C728 C727 1.374 . S
C729 C726 1.499 . S
C729 C730 1.373 . S
C729 C731 1.389 . S
C730 H703 0.950 . S
C730 C716 1.377 . S
C730 C729 1.373 . S
C731 C715 1.377 . S
C731 C729 1.389 . S
C731 C732 1.524 1_545 S
C732 C731 1.524 1_565 S
C732 C733 1.397 . S
C732 C737 1.363 . S
C733 H704 0.950 . S
C733 C732 1.397 . S
C733 C734 1.334 . S
C734 H705 0.950 . S
C734 C733 1.334 . S
C734 C735 1.287 . S
C735 C734 1.287 . S
C735 C736 1.524 . S
C735 H738 0.999 . S
C736 H706 0.950 1_554 S
C736 C735 1.524 . S
C736 C737 1.415 . S
C737 H707 0.950 1_554 S
C737 C732 1.363 . S
C737 C736 1.415 . S
H738 C735 0.999 . S
H739 C720 0.913 . S
H740 C758 0.951 . S
H741 C760 0.951 . S
H742 C762 0.950 . S
H743 C763 0.950 . S
H744 C765 0.950 . S
H745 C768 0.950 . S
H746 C769 0.950 . S
H747 C771 0.950 . S
H748 C772 0.950 . S
H749 C773 0.951 . S
H750 C775 0.951 . S
H751 C777 0.950 . S
H752 C778 0.950 . S
H753 C780 0.950 . S
H754 C783 0.950 . S
H755 C784 0.950 . S
H756 C786 0.950 . S
H757 C787 0.950 . S
C758 H740 0.951 . S
C758 C759 1.366 . S
C758 C760 1.388 . S
C759 C758 1.366 . S
C759 C763 1.385 . S
C760 H741 0.951 . S
C760 C758 1.388 . S
C760 C761 1.366 . S
C761 C760 1.366 . S
C761 C762 1.414 . S
C761 C764 1.499 . S
C762 H742 0.950 . S
C762 C761 1.414 . S
C762 C763 1.374 . S
C763 H743 0.950 . S
C763 C759 1.385 . S
C763 C762 1.374 . S
C764 C761 1.499 . S
C764 C765 1.373 . S
C764 C766 1.389 . S
C765 H744 0.950 . S
C765 C764 1.373 . S
C765 C781 1.377 . S
C766 C764 1.389 . S
C766 C767 1.524 . S
C766 C780 1.377 . S
C767 C766 1.524 . S
C767 C768 1.397 . S
C767 C772 1.363 . S
C768 H745 0.950 . S
C768 C767 1.397 . S
C768 C769 1.334 . S
C769 H746 0.950 . S
C769 C768 1.334 . S
C769 C770 1.287 . S
C770 C769 1.287 . S
C770 C771 1.524 . S
C770 H789 0.913 . S
C771 H747 0.950 . S
C771 C770 1.524 . S
C771 C772 1.415 . S
C772 H748 0.950 . S
C772 C767 1.363 . S
C772 C771 1.415 . S
C773 H749 0.951 . S
C773 C774 1.366 . S
C773 C775 1.388 . S
C774 C773 1.366 . S
C774 C778 1.385 . S
C775 H750 0.951 . S
C775 C773 1.388 . S
C775 C776 1.366 . S
C776 C775 1.366 . S
C776 C777 1.414 . S
C776 C779 1.499 . S
C777 H751 0.950 . S
C777 C776 1.414 . S
C777 C778 1.374 . S
C778 H752 0.950 . S
C778 C774 1.385 . S
C778 C777 1.374 . S
C779 C776 1.499 . S
C779 C780 1.373 . S
C779 C781 1.389 . S
C780 H753 0.950 . S
C780 C766 1.377 . S
C780 C779 1.373 . S
C781 C765 1.377 . S
C781 C779 1.389 . S
C781 C782 1.524 . S
C782 C781 1.524 . S
C782 C783 1.397 . S
C782 C787 1.363 . S
C783 H754 0.950 . S
C783 C782 1.397 . S
C783 C784 1.334 . S
C784 H755 0.950 . S
C784 C783 1.334 . S
C784 C785 1.287 . S
C785 C784 1.287 . S
C785 C786 1.524 . S
C785 H788 0.999 . S
C786 H756 0.950 . S
C786 C785 1.524 . S
C786 C787 1.415 . S
C787 H757 0.950 . S
C787 C782 1.363 . S
C787 C786 1.415 . S
H788 C785 0.999 . S
H789 C770 0.913 . S
H790 C808 0.951 1_655 S
H791 C810 0.951 . S
H792 C812 0.950 . S
H793 C813 0.950 . S
H794 C815 0.950 . S
H795 C818 0.950 . S
H796 C819 0.950 . S
H797 C821 0.950 . S
H798 C822 0.950 . S
H799 C823 0.951 . S
H800 C825 0.951 . S
H801 C827 0.950 . S
H802 C828 0.950 . S
H803 C830 0.950 . S
H804 C833 0.950 . S
H805 C834 0.950 1_655 S
H806 C836 0.950 . S
H807 C837 0.950 . S
C808 H790 0.951 1_455 S
C808 C809 1.366 1_455 S
C808 C810 1.388 . S
C809 C808 1.366 1_655 S
C809 C813 1.385 1_655 S
C810 H791 0.951 . S
C810 C808 1.388 . S
C810 C811 1.366 . S
C811 C810 1.366 . S
C811 C812 1.414 . S
C811 C814 1.499 . S
C812 H792 0.950 . S
C812 C811 1.414 . S
C812 C813 1.374 . S
C813 H793 0.950 . S
C813 C809 1.385 1_455 S
C813 C812 1.374 . S
C814 C811 1.499 . S
C814 C815 1.373 . S
C814 C816 1.389 . S
C815 H794 0.950 . S
C815 C814 1.373 . S
C815 C831 1.377 . S
C816 C814 1.389 . S
C816 C817 1.524 . S
C816 C830 1.377 . S
C817 C816 1.524 . S
C817 C818 1.397 . S
C817 C822 1.363 . S
C818 H795 0.950 . S
C818 C817 1.397 . S
C818 C819 1.334 . S
C819 H796 0.950 . S
C819 C818 1.334 . S
C819 C820 1.287 . S
C820 C819 1.287 . S
C820 C821 1.524 . S
C820 H839 0.913 . S
C821 H797 0.950 . S
C821 C820 1.524 . S
C821 C822 1.415 . S
C822 H798 0.950 . S
C822 C817 1.363 . S
C822 C821 1.415 . S
C823 H799 0.951 . S
C823 C824 1.366 . S
C823 C825 1.388 . S
C824 C823 1.366 . S
C824 C828 1.385 . S
C825 H800 0.951 . S
C825 C823 1.388 . S
C825 C826 1.366 . S
C826 C825 1.366 . S
C826 C827 1.414 . S
C826 C829 1.499 . S
C827 H801 0.950 . S
C827 C826 1.414 . S
C827 C828 1.374 . S
C828 H802 0.950 . S
C828 C824 1.385 . S
C828 C827 1.374 . S
C829 C826 1.499 . S
C829 C830 1.373 . S
C829 C831 1.389 . S
C830 H803 0.950 . S
C830 C816 1.377 . S
C830 C829 1.373 . S
C831 C815 1.377 . S
C831 C829 1.389 . S
C831 C832 1.524 . S
C832 C831 1.524 . S
C832 C833 1.397 . S
C832 C837 1.363 . S
C833 H804 0.950 . S
C833 C832 1.397 . S
C833 C834 1.334 . S
C834 H805 0.950 1_455 S
C834 C833 1.334 . S
C834 C835 1.286 1_455 S
C835 C834 1.286 1_655 S
C835 C836 1.516 1_655 S
C835 H838 1.009 . S
C836 H806 0.950 . S
C836 C835 1.516 1_455 S
C836 C837 1.415 . S
C837 H807 0.950 . S
C837 C832 1.363 . S
C837 C836 1.415 . S
H838 C835 1.009 . S
H839 C820 0.913 . S
H840 C858 0.951 . S
H841 C860 0.951 . S
H842 C862 0.950 . S
H843 C863 0.950 . S
H844 C865 0.950 . S
H845 C868 0.950 . S
H846 C869 0.950 . S
H847 C871 0.950 . S
H848 C872 0.950 . S
H849 C873 0.951 . S
H850 C875 0.951 . S
H851 C877 0.950 . S
H852 C878 0.950 . S
H853 C880 0.950 . S
H854 C883 0.950 . S
H855 C884 0.950 . S
H856 C886 0.950 . S
H857 C887 0.950 . S
C858 H840 0.951 . S
C858 C859 1.366 . S
C858 C860 1.388 . S
C859 C858 1.366 . S
C859 C863 1.385 . S
C860 H841 0.951 . S
C860 C858 1.388 . S
C860 C861 1.366 . S
C861 C860 1.366 . S
C861 C862 1.414 . S
C861 C864 1.499 . S
C862 H842 0.950 . S
C862 C861 1.414 . S
C862 C863 1.374 . S
C863 H843 0.950 . S
C863 C859 1.385 . S
C863 C862 1.374 . S
C864 C861 1.499 . S
C864 C865 1.373 . S
C864 C866 1.389 . S
C865 H844 0.950 . S
C865 C864 1.373 . S
C865 C881 1.377 . S
C866 C864 1.389 . S
C866 C867 1.524 . S
C866 C880 1.377 . S
C867 C866 1.524 . S
C867 C868 1.397 . S
C867 C872 1.363 . S
C868 H845 0.950 . S
C868 C867 1.397 . S
C868 C869 1.334 . S
C869 H846 0.950 . S
C869 C868 1.334 . S
C869 C870 1.287 . S
C870 C869 1.287 . S
C870 C871 1.524 . S
C870 H889 0.913 . S
C871 H847 0.950 . S
C871 C870 1.524 . S
C871 C872 1.415 . S
C872 H848 0.950 . S
C872 C867 1.363 . S
C872 C871 1.415 . S
C873 H849 0.951 . S
C873 C874 1.366 . S
C873 C875 1.388 . S
C874 C873 1.366 . S
C874 C878 1.385 . S
C875 H850 0.951 . S
C875 C873 1.388 . S
C875 C876 1.366 . S
C876 C875 1.366 . S
C876 C877 1.414 . S
C876 C879 1.499 . S
C877 H851 0.950 . S
C877 C876 1.414 . S
C877 C878 1.374 . S
C878 H852 0.950 . S
C878 C874 1.385 . S
C878 C877 1.374 . S
C879 C876 1.499 . S
C879 C880 1.373 . S
C879 C881 1.389 . S
C880 H853 0.950 . S
C880 C866 1.377 . S
C880 C879 1.373 . S
C881 C865 1.377 . S
C881 C879 1.389 . S
C881 C882 1.524 . S
C882 C881 1.524 . S
C882 C883 1.397 . S
C882 C887 1.363 . S
C883 H854 0.950 . S
C883 C882 1.397 . S
C883 C884 1.334 . S
C884 H855 0.950 . S
C884 C883 1.334 . S
C884 C885 1.287 . S
C885 C884 1.287 . S
C885 C886 1.524 . S
C885 H888 0.999 . S
C886 H856 0.950 . S
C886 C885 1.524 . S
C886 C887 1.415 . S
C887 H857 0.950 . S
C887 C882 1.363 . S
C887 C886 1.415 . S
H888 C885 0.999 . S
H889 C870 0.913 . S
H890 C908 0.951 . S
H891 C910 0.951 . S
H892 C912 0.950 . S
H893 C913 0.950 . S
H894 C915 0.950 . S
H895 C918 0.950 . S
H896 C919 0.950 . S
H897 C921 0.950 1_655 S
H898 C922 0.950 . S
H899 C923 0.951 . S
H900 C925 0.951 . S
H901 C927 0.950 . S
H902 C928 0.950 . S
H903 C930 0.950 . S
H904 C933 0.950 . S
H905 C934 0.950 . S
H906 C936 0.950 . S
H907 C937 0.950 . S
C908 H890 0.951 . S
C908 C909 1.366 . S
C908 C910 1.388 . S
C909 C908 1.366 . S
C909 C913 1.385 . S
C910 H891 0.951 . S
C910 C908 1.388 . S
C910 C911 1.366 . S
C911 C910 1.366 . S
C911 C912 1.414 . S
C911 C914 1.499 . S
C912 H892 0.950 . S
C912 C911 1.414 . S
C912 C913 1.374 . S
C913 H893 0.950 . S
C913 C909 1.385 . S
C913 C912 1.374 . S
C914 C911 1.499 . S
C914 C915 1.373 . S
C914 C916 1.389 . S
C915 H894 0.950 . S
C915 C914 1.373 . S
C915 C931 1.377 . S
C916 C914 1.389 . S
C916 C917 1.524 . S
C916 C930 1.377 . S
C917 C916 1.524 . S
C917 C918 1.397 . S
C917 C922 1.363 . S
C918 H895 0.950 . S
C918 C917 1.397 . S
C918 C919 1.334 . S
C919 H896 0.950 . S
C919 C918 1.334 . S
C919 C920 1.287 . S
C920 C919 1.287 . S
C920 C921 1.524 . S
C920 H939 0.913 . S
C921 H897 0.950 1_455 S
C921 C920 1.524 . S
C921 C922 1.415 . S
C922 H898 0.950 . S
C922 C917 1.363 . S
C922 C921 1.415 . S
C923 H899 0.951 . S
C923 C924 1.366 . S
C923 C925 1.388 . S
C924 C923 1.366 . S
C924 C928 1.385 . S
C925 H900 0.951 . S
C925 C923 1.388 . S
C925 C926 1.366 . S
C926 C925 1.366 . S
C926 C927 1.414 . S
C926 C929 1.499 . S
C927 H901 0.950 . S
C927 C926 1.414 . S
C927 C928 1.374 . S
C928 H902 0.950 . S
C928 C924 1.385 . S
C928 C927 1.374 . S
C929 C926 1.499 . S
C929 C930 1.373 . S
C929 C931 1.389 . S
C930 H903 0.950 . S
C930 C916 1.377 . S
C930 C929 1.373 . S
C931 C915 1.377 . S
C931 C929 1.389 . S
C931 C932 1.524 . S
C932 C931 1.524 . S
C932 C933 1.397 . S
C932 C937 1.363 . S
C933 H904 0.950 . S
C933 C932 1.397 . S
C933 C934 1.334 . S
C934 H905 0.950 . S
C934 C933 1.334 . S
C934 C935 1.287 . S
C935 C934 1.287 . S
C935 C936 1.524 . S
C935 H938 0.999 . S
C936 H906 0.950 . S
C936 C935 1.524 . S
C936 C937 1.415 . S
C937 H907 0.950 . S
C937 C932 1.363 . S
C937 C936 1.415 . S
H938 C935 0.999 . S
H939 C920 0.913 . S
H940 C958 0.951 . S
H941 C960 0.951 . S
H942 C962 0.950 . S
H943 C963 0.950 . S
H944 C965 0.950 . S
H945 C968 0.950 . S
H946 C969 0.950 . S
H947 C971 0.950 . S
H948 C972 0.950 . S
H949 C973 0.951 . S
H950 C975 0.951 . S
H951 C977 0.950 . S
H952 C978 0.950 . S
H953 C980 0.950 . S
H954 C983 0.950 . S
H955 C984 0.950 . S
H956 C986 0.950 . S
H957 C987 0.950 . S
C958 H940 0.951 . S
C958 C959 1.366 . S
C958 C960 1.388 . S
C959 C958 1.366 . S
C959 C963 1.385 . S
C960 H941 0.951 . S
C960 C958 1.388 . S
C960 C961 1.366 . S
C961 C960 1.366 . S
C961 C962 1.414 . S
C961 C964 1.499 . S
C962 H942 0.950 . S
C962 C961 1.414 . S
C962 C963 1.374 . S
C963 H943 0.950 . S
C963 C959 1.385 . S
C963 C962 1.374 . S
C964 C961 1.499 . S
C964 C965 1.373 . S
C964 C966 1.389 . S
C965 H944 0.950 . S
C965 C964 1.373 . S
C965 C981 1.377 . S
C966 C964 1.389 . S
C966 C967 1.524 . S
C966 C980 1.377 . S
C967 C966 1.524 . S
C967 C968 1.397 . S
C967 C972 1.363 . S
C968 H945 0.950 . S
C968 C967 1.397 . S
C968 C969 1.334 . S
C969 H946 0.950 . S
C969 C968 1.334 . S
C969 C970 1.287 . S
C970 C969 1.287 . S
C970 C971 1.524 . S
C970 H989 0.913 . S
C971 H947 0.950 . S
C971 C970 1.524 . S
C971 C972 1.415 . S
C972 H948 0.950 . S
C972 C967 1.363 . S
C972 C971 1.415 . S
C973 H949 0.951 . S
C973 C974 1.366 . S
C973 C975 1.388 . S
C974 C973 1.366 . S
C974 C978 1.385 . S
C975 H950 0.951 . S
C975 C973 1.388 . S
C975 C976 1.366 . S
C976 C975 1.366 . S
C976 C977 1.414 . S
C976 C979 1.499 . S
C977 H951 0.950 . S
C977 C976 1.414 . S
C977 C978 1.374 . S
C978 H952 0.950 . S
C978 C974 1.385 . S
C978 C977 1.374 . S
C979 C976 1.499 . S
C979 C980 1.373 . S
C979 C981 1.389 . S
C980 H953 0.950 . S
C980 C966 1.377 . S
C980 C979 1.373 . S
C981 C965 1.377 . S
C981 C979 1.389 . S
C981 C982 1.524 . S
C982 C981 1.524 . S
C982 C983 1.397 . S
C982 C987 1.363 1_655 S
C983 H954 0.950 . S
C983 C982 1.397 . S
C983 C984 1.334 1_655 S
C984 H955 0.950 . S
C984 C983 1.334 1_455 S
C984 C985 1.287 . S
C985 C984 1.287 . S
C985 C986 1.524 . S
C985 H988 0.999 . S
C986 H956 0.950 . S
C986 C985 1.524 . S
C986 C987 1.415 . S
C987 H957 0.950 . S
C987 C982 1.363 1_455 S
C987 C986 1.415 . S
H988 C985 0.999 . S
H989 C970 0.913 . S
H990 C1008 0.951 . S
H991 C1010 0.951 . S
H992 C1012 0.950 . S
H993 C1013 0.950 . S
H994 C1015 0.950 . S
H995 C1018 0.950 . S
H996 C1019 0.950 . S
H997 C1021 0.950 . S
H998 C1022 0.950 . S
H999 C1023 0.951 . S
H1000 C1025 0.951 . S
H1001 C1027 0.950 . S
H1002 C1028 0.950 . S
H1003 C1030 0.950 . S
H1004 C1033 0.950 . S
H1005 C1034 0.950 1_455 S
H1006 C1036 0.950 . S
H1007 C1037 0.950 . S
C1008 H990 0.951 . S
C1008 C1009 1.366 . S
C1008 C1010 1.388 . S
C1009 C1008 1.366 . S
C1009 C1013 1.385 . S
C1010 H991 0.951 . S
C1010 C1008 1.388 . S
C1010 C1011 1.366 . S
C1011 C1010 1.366 . S
C1011 C1012 1.414 . S
C1011 C1014 1.499 . S
C1012 H992 0.950 . S
C1012 C1011 1.414 . S
C1012 C1013 1.374 . S
C1013 H993 0.950 . S
C1013 C1009 1.385 . S
C1013 C1012 1.374 . S
C1014 C1011 1.499 . S
C1014 C1015 1.373 . S
C1014 C1016 1.389 . S
C1015 H994 0.950 . S
C1015 C1014 1.373 . S
C1015 C1031 1.377 . S
C1016 C1014 1.389 . S
C1016 C1017 1.524 . S
C1016 C1030 1.377 . S
C1017 C1016 1.524 . S
C1017 C1018 1.397 . S
C1017 C1022 1.363 . S
C1018 H995 0.950 . S
C1018 C1017 1.397 . S
C1018 C1019 1.334 . S
C1019 H996 0.950 . S
C1019 C1018 1.334 . S
C1019 C1020 1.287 . S
C1020 C1019 1.287 . S
C1020 C1021 1.524 . S
C1020 H1039 0.913 . S
C1021 H997 0.950 . S
C1021 C1020 1.524 . S
C1021 C1022 1.415 . S
C1022 H998 0.950 . S
C1022 C1017 1.363 . S
C1022 C1021 1.415 . S
C1023 H999 0.951 . S
C1023 C1024 1.366 . S
C1023 C1025 1.388 . S
C1024 C1023 1.366 . S
C1024 C1028 1.385 . S
C1025 H1000 0.951 . S
C1025 C1023 1.388 . S
C1025 C1026 1.366 . S
C1026 C1025 1.366 . S
C1026 C1027 1.414 . S
C1026 C1029 1.499 . S
C1027 H1001 0.950 . S
C1027 C1026 1.414 . S
C1027 C1028 1.374 . S
C1028 H1002 0.950 . S
C1028 C1024 1.385 . S
C1028 C1027 1.374 . S
C1029 C1026 1.499 . S
C1029 C1030 1.373 . S
C1029 C1031 1.389 . S
C1030 H1003 0.950 . S
C1030 C1016 1.377 . S
C1030 C1029 1.373 . S
C1031 C1015 1.377 . S
C1031 C1029 1.389 . S
C1031 C1032 1.524 . S
C1032 C1031 1.524 . S
C1032 C1033 1.397 . S
C1032 C1037 1.363 1_565 S
C1033 H1004 0.950 . S
C1033 C1032 1.397 . S
C1033 C1034 1.334 1_565 S
C1034 H1005 0.950 1_655 S
C1034 C1033 1.334 1_545 S
C1034 C1035 1.287 . S
C1035 C1034 1.287 . S
C1035 C1036 1.524 . S
C1035 H1038 0.999 1_655 S
C1036 H1006 0.950 . S
C1036 C1035 1.524 . S
C1036 C1037 1.415 . S
C1037 H1007 0.950 . S
C1037 C1032 1.363 1_545 S
C1037 C1036 1.415 . S
H1038 C1035 0.999 1_455 S
H1039 C1020 0.913 . S
H1040 C1058 0.951 . S
H1041 C1060 0.957 . S
H1042 C1062 0.950 1_455 S
H1043 C1063 0.950 . S
H1044 C1065 0.950 . S
H1045 C1068 0.950 . S
H1046 C1069 0.950 . S
H1047 C1071 0.950 . S
H1048 C1072 0.950 . S
H1049 C1073 0.951 . S
H1050 C1075 0.951 . S
H1051 C1077 0.950 . S
H1052 C1078 0.950 . S
H1053 C1080 0.950 1_655 S
H1054 C1083 0.950 . S
H1055 C1084 0.950 . S
H1056 C1086 0.950 . S
H1057 C1087 0.950 . S
C1058 H1040 0.951 . S
C1058 C1059 1.366 . S
C1058 C1060 1.385 1_655 S
C1059 C1058 1.366 . S
C1059 C1063 1.385 . S
C1060 H1041 0.957 . S
C1060 C1058 1.385 1_455 S
C1060 C1061 1.362 . S
C1061 C1060 1.362 . S
C1061 C1062 1.414 1_455 S
C1061 C1064 1.499 . S
C1062 H1042 0.950 1_655 S
C1062 C1061 1.414 1_655 S
C1062 C1063 1.374 . S
C1063 H1043 0.950 . S
C1063 C1059 1.385 . S
C1063 C1062 1.374 . S
C1064 C1061 1.499 . S
C1064 C1065 1.373 . S
C1064 C1066 1.389 1_455 S
C1065 H1044 0.950 . S
C1065 C1064 1.373 . S
C1065 C1081 1.377 . S
C1066 C1064 1.389 1_655 S
C1066 C1067 1.524 . S
C1066 C1080 1.377 1_655 S
C1067 C1066 1.524 . S
C1067 C1068 1.397 . S
C1067 C1072 1.363 . S
C1068 H1045 0.950 . S
C1068 C1067 1.397 . S
C1068 C1069 1.334 . S
C1069 H1046 0.950 . S
C1069 C1068 1.334 . S
C1069 C1070 1.287 . S
C1070 C1069 1.287 . S
C1070 C1071 1.524 . S
C1070 H1089 0.913 . S
C1071 H1047 0.950 . S
C1071 C1070 1.524 . S
C1071 C1072 1.415 . S
C1072 H1048 0.950 . S
C1072 C1067 1.363 . S
C1072 C1071 1.415 . S
C1073 H1049 0.951 . S
C1073 C1074 1.366 . S
C1073 C1075 1.388 . S
C1074 C1073 1.366 . S
C1074 C1078 1.385 . S
C1075 H1050 0.951 . S
C1075 C1073 1.388 . S
C1075 C1076 1.366 . S
C1076 C1075 1.366 . S
C1076 C1077 1.414 . S
C1076 C1079 1.499 . S
C1077 H1051 0.950 . S
C1077 C1076 1.414 . S
C1077 C1078 1.374 . S
C1078 H1052 0.950 . S
C1078 C1074 1.385 . S
C1078 C1077 1.374 . S
C1079 C1076 1.499 . S
C1079 C1080 1.373 . S
C1079 C1081 1.389 . S
C1080 H1053 0.950 1_455 S
C1080 C1066 1.377 1_455 S
C1080 C1079 1.373 . S
C1081 C1065 1.377 . S
C1081 C1079 1.389 . S
C1081 C1082 1.524 . S
C1082 C1081 1.524 . S
C1082 C1083 1.397 . S
C1082 C1087 1.363 . S
C1083 H1054 0.950 . S
C1083 C1082 1.397 . S
C1083 C1084 1.334 . S
C1084 H1055 0.950 . S
C1084 C1083 1.334 . S
C1084 C1085 1.287 1_565 S
C1085 C1084 1.287 1_545 S
C1085 C1086 1.524 . S
C1085 H1088 0.999 . S
C1086 H1056 0.950 . S
C1086 C1085 1.524 . S
C1086 C1087 1.415 1_545 S
C1087 H1057 0.950 . S
C1087 C1082 1.363 . S
C1087 C1086 1.415 1_565 S
H1088 C1085 0.999 . S
H1089 C1070 0.913 . S
H1090 C1108 0.951 . S
H1091 C1110 0.951 . S
H1092 C1112 0.950 . S
H1093 C1113 0.950 . S
H1094 C1115 0.950 . S
H1095 C1118 0.950 . S
H1096 C1119 0.950 . S
H1097 C1121 0.950 . S
H1098 C1122 0.950 . S
H1099 C1123 0.951 . S
H1100 C1125 0.951 . S
H1101 C1127 0.950 . S
H1102 C1128 0.950 . S
H1103 C1130 0.950 . S
H1104 C1133 0.950 . S
H1105 C1134 0.950 . S
H1106 C1136 0.950 . S
H1107 C1137 0.950 1_565 S
C1108 H1090 0.951 . S
C1108 C1109 1.366 1_545 S
C1108 C1110 1.388 . S
C1109 C1108 1.366 1_565 S
C1109 C1113 1.385 . S
C1110 H1091 0.951 . S
C1110 C1108 1.388 . S
C1110 C1111 1.366 . S
C1111 C1110 1.366 . S
C1111 C1112 1.414 1_545 S
C1111 C1114 1.499 . S
C1112 H1092 0.950 . S
C1112 C1111 1.414 1_565 S
C1112 C1113 1.374 . S
C1113 H1093 0.950 . S
C1113 C1109 1.385 . S
C1113 C1112 1.374 . S
C1114 C1111 1.499 . S
C1114 C1115 1.373 . S
C1114 C1116 1.389 . S
C1115 H1094 0.950 . S
C1115 C1114 1.373 . S
C1115 C1131 1.377 . S
C1116 C1114 1.389 . S
C1116 C1117 1.524 . S
C1116 C1130 1.377 . S
C1117 C1116 1.524 . S
C1117 C1118 1.397 1_545 S
C1117 C1122 1.363 . S
C1118 H1095 0.950 . S
C1118 C1117 1.397 1_565 S
C1118 C1119 1.334 . S
C1119 H1096 0.950 . S
C1119 C1118 1.334 . S
C1119 C1120 1.287 . S
C1120 C1119 1.287 . S
C1120 C1121 1.524 1_565 S
C1120 H1139 0.913 . S
C1121 H1097 0.950 . S
C1121 C1120 1.524 1_545 S
C1121 C1122 1.415 . S
C1122 H1098 0.950 . S
C1122 C1117 1.363 . S
C1122 C1121 1.415 . S
C1123 H1099 0.951 . S
C1123 C1124 1.366 . S
C1123 C1125 1.388 . S
C1124 C1123 1.366 . S
C1124 C1128 1.385 . S
C1125 H1100 0.951 . S
C1125 C1123 1.388 . S
C1125 C1126 1.366 . S
C1126 C1125 1.366 . S
C1126 C1127 1.414 . S
C1126 C1129 1.499 . S
C1127 H1101 0.950 . S
C1127 C1126 1.414 . S
C1127 C1128 1.374 . S
C1128 H1102 0.950 . S
C1128 C1124 1.385 . S
C1128 C1127 1.374 . S
C1129 C1126 1.499 . S
C1129 C1130 1.373 . S
C1129 C1131 1.389 . S
C1130 H1103 0.950 . S
C1130 C1116 1.377 . S
C1130 C1129 1.373 . S
C1131 C1115 1.377 . S
C1131 C1129 1.389 . S
C1131 C1132 1.524 . S
C1132 C1131 1.524 . S
C1132 C1133 1.397 . S
C1132 C1137 1.363 . S
C1133 H1104 0.950 . S
C1133 C1132 1.397 . S
C1133 C1134 1.334 . S
C1134 H1105 0.950 . S
C1134 C1133 1.334 . S
C1134 C1135 1.287 . S
C1135 C1134 1.287 . S
C1135 C1136 1.524 . S
C1135 H1138 0.999 . S
C1136 H1106 0.950 . S
C1136 C1135 1.524 . S
C1136 C1137 1.415 . S
C1137 H1107 0.950 1_545 S
C1137 C1132 1.363 . S
C1137 C1136 1.415 . S
H1138 C1135 0.999 . S
H1139 C1120 0.913 . S
C259 C130 1.111 1_565 S
C274 C10 1.110 . S
C309 C170 1.109 . S
C324 C50 1.110 . S
C359 C210 1.109 . S
C374 C90 1.109 1_655 S
C409 C16 0.594 . S
C424 C87 0.537 . S
C459 C56 0.593 . S
C474 C127 0.535 . S
C509 C96 0.595 . S
C524 C167 0.535 . S
C559 C136 0.595 . S
C574 C207 0.538 . S
C609 C176 0.593 . S
C624 C7 0.535 . S
C659 C216 0.595 . S
C674 C47 0.535 . S
C709 C19 1.116 . S
C724 C139 1.134 . S
C759 C59 1.119 . S
C774 C179 1.118 . S
C809 C99 1.117 . S
C824 C219 1.117 . S
C859 C2 3.890 . S
C874 C51 3.938 . S
C909 C42 3.889 . S
C924 C91 3.938 . S
C959 C82 3.890 . S
C974 C131 3.938 . S
C1009 C122 3.890 . S
C1024 C171 3.938 . S
C1059 C162 3.890 . S
C1074 C211 3.938 . S
C1109 C202 3.890 . S
C1124 C11 3.938 . S
