# Generated by pormake.
# Topology qtz-e, (6)-cn, num edge types: 1
# Building blocks:
#     Node 0, Type 0, BuildingBlock: BETDEL_clean_sbu_0, # of connection points: 6
#     Node 1, Type 0, BuildingBlock: BETDEL_clean_sbu_0, # of connection points: 6
#     Node 2, Type 0, BuildingBlock: BETDEL_clean_sbu_0, # of connection points: 6
#     Node 3, Type 0, BuildingBlock: BETDEL_clean_sbu_0, # of connection points: 6
#     Node 4, Type 0, BuildingBlock: BETDEL_clean_sbu_0, # of connection points: 6
#     Node 5, Type 0, BuildingBlock: BETDEL_clean_sbu_0, # of connection points: 6
#     Edge 6, Type (0, 0), BuildingBlock: TEMPAE_clean_linker_10, # of connection points: 2
#     Edge 7, Type (0, 0), BuildingBlock: TEMPAE_clean_linker_10, # of connection points: 2
#     Edge 8, Type (0, 0), BuildingBlock: TEMPAE_clean_linker_10, # of connection points: 2
#     Edge 9, Type (0, 0), BuildingBlock: TEMPAE_clean_linker_10, # of connection points: 2
#     Edge 10, Type (0, 0), BuildingBlock: TEMPAE_clean_linker_10, # of connection points: 2
#     Edge 11, Type (0, 0), BuildingBlock: TEMPAE_clean_linker_10, # of connection points: 2
#     Edge 12, Type (0, 0), BuildingBlock: TEMPAE_clean_linker_10, # of connection points: 2
#     Edge 13, Type (0, 0), BuildingBlock: TEMPAE_clean_linker_10, # of connection points: 2
#     Edge 14, Type (0, 0), BuildingBlock: TEMPAE_clean_linker_10, # of connection points: 2
#     Edge 15, Type (0, 0), BuildingBlock: TEMPAE_clean_linker_10, # of connection points: 2
#     Edge 16, Type (0, 0), BuildingBlock: TEMPAE_clean_linker_10, # of connection points: 2
#     Edge 17, Type (0, 0), BuildingBlock: TEMPAE_clean_linker_10, # of connection points: 2
#     Edge 18, Type (0, 0), BuildingBlock: TEMPAE_clean_linker_10, # of connection points: 2
#     Edge 19, Type (0, 0), BuildingBlock: TEMPAE_clean_linker_10, # of connection points: 2
#     Edge 20, Type (0, 0), BuildingBlock: TEMPAE_clean_linker_10, # of connection points: 2
#     Edge 21, Type (0, 0), BuildingBlock: TEMPAE_clean_linker_10, # of connection points: 2
#     Edge 22, Type (0, 0), BuildingBlock: TEMPAE_clean_linker_10, # of connection points: 2
#     Edge 23, Type (0, 0), BuildingBlock: TEMPAE_clean_linker_10, # of connection points: 2
# Relax obj value: 0.210
# Max RMSD: 0.208
# Mean RMSD: 0.208
data_MOF--net-qtz-e--node1-BETDEL_clean_sbu_0--edge1-TEMPAE_clean_linker_10
_symmetry_space_group_name_H-M    P1
_symmetry_Int_Tables_number       1
_symmetry_cell_setting            triclinic
loop_
_symmetry_equiv_pos_as_xyz
'x, y, z'
_cell_length_a     25.571438
_cell_length_b     25.339713
_cell_length_c     39.35019
_cell_angle_alpha  89.93513
_cell_angle_beta   90.035333
_cell_angle_gamma 120.21772
loop_
_atom_site_label
_atom_site_type_symbol
_atom_site_fract_x
_atom_site_fract_y
_atom_site_fract_z
_atom_type_partial_charge
Dy0 Dy 0.16185 0.44712 0.05558 0.0
C1 C 0.17895 0.25923 0.98613 0.0
C2 C 0.14393 0.52735 0.09327 0.0
Dy3 Dy 0.15917 0.33742 0.0246 0.0
O4 O 0.19374 0.53965 0.07806 0.0
O5 O 0.10219 0.47186 0.08586 0.0
O6 O 0.26039 0.4947 0.06018 0.0
O7 O 0.21186 0.399 0.0666 0.0
C8 C 0.26388 0.4462 0.06515 0.0
C9 C 0.0619 0.34898 1.01457 0.0
O10 O 0.1292 0.29705 0.07592 0.0
O11 O 0.10449 0.36991 0.09179 0.0
O12 O 0.12894 0.26042 0.98749 0.0
O13 O 0.21791 0.29946 1.00708 0.0
O14 O 0.0567 0.29666 1.02194 0.0
O15 O 0.11598 0.3894 1.0133 0.0
O16 O 0.18257 0.47936 1.00157 0.0
O17 O 0.22011 0.41534 0.9896 0.0
C18 C 0.10257 0.31709 0.09687 0.0
C19 C 0.21514 0.46373 0.98222 0.0
Dy20 Dy 0.71679 0.18915 0.37858 0.0
C21 C 0.85543 0.11175 0.30079 0.0
C22 C 0.63332 0.19259 0.42042 0.0
Dy23 Dy 0.77819 0.12551 0.34278 0.0
O24 O 0.67758 0.24023 0.40562 0.0
O25 O 0.63394 0.14373 0.41132 0.0
O26 O 0.79783 0.27984 0.37288 0.0
O27 O 0.80794 0.2026 0.37827 0.0
C28 C 0.83531 0.25921 0.37178 0.0
C29 C 0.65738 0.06399 0.34728 0.0
O30 O 0.78524 0.09505 0.39444 0.0
O31 O 0.73516 0.13957 0.42095 0.0
O32 O 0.79672 0.08073 0.29879 0.0
O33 O 0.87141 0.14756 0.32707 0.0
O34 O 0.68833 0.03591 0.34861 0.0
O35 O 0.69191 0.11927 0.34171 0.0
O36 O 0.70699 0.21133 0.32446 0.0
O37 O 0.7808 0.19181 0.30386 0.0
C38 C 0.76223 0.10634 0.42169 0.0
C39 C 0.74401 0.21402 0.29989 0.0
Dy40 Dy 0.5074 0.75879 0.72505 0.0
C41 C 0.71744 0.92016 0.65103 0.0
C42 C 0.41279 0.68542 0.76649 0.0
Dy43 Dy 0.63297 0.82949 0.69125 0.0
O44 O 0.43945 0.74446 0.76501 0.0
O45 O 0.43626 0.66562 0.74408 0.0
O46 O 0.5011 0.8421 0.72115 0.0
O47 O 0.58578 0.8504 0.73062 0.0
C48 C 0.55851 0.87957 0.72571 0.0
C49 C 0.57688 0.708 0.68877 0.0
O50 O 0.66569 0.83291 0.74393 0.0
O51 O 0.57249 0.75366 0.7624 0.0
O52 O 0.71193 0.86646 0.65485 0.0
O53 O 0.67993 0.92476 0.67129 0.0
O54 O 0.63579 0.74093 0.69044 0.0
O55 O 0.55456 0.74155 0.686 0.0
O56 O 0.47333 0.75671 0.67227 0.0
O57 O 0.56831 0.82771 0.65141 0.0
C58 C 0.63148 0.7918 0.76702 0.0
C59 C 0.50867 0.79365 0.64779 0.0
Dy60 Dy 0.74285 0.50832 0.05391 0.0
C61 C 0.79096 0.72912 0.98564 0.0
C62 C 0.74358 0.40883 0.07895 0.0
Dy63 Dy 0.78258 0.63676 0.02559 0.0
O64 O 0.69474 0.41039 0.07115 0.0
O65 O 0.79127 0.4601 0.0705 0.0
O66 O 0.69473 0.52204 0.09651 0.0
O67 O 0.69984 0.56407 0.04996 0.0
C68 C 0.68194 0.5587 0.08041 0.0
C69 C 0.85701 0.59179 1.01762 0.0
O70 O 0.80572 0.66085 0.07987 0.0
O71 O 0.81592 0.57608 0.08902 0.0
O72 O 0.82496 0.70485 0.98357 0.0
O73 O 0.75464 0.70564 1.0115 0.0
O74 O 0.87762 0.64851 0.02609 0.0
O75 O 0.80119 0.56539 1.01474 0.0
O76 O 0.69648 0.47846 1.003 0.0
O77 O 0.71853 0.57563 0.98553 0.0
C78 C 0.82298 0.62938 0.09902 0.0
C79 C 0.69296 0.51591 0.98047 0.0
Dy80 Dy 0.20818 0.76449 0.39654 0.0
C81 C 0.01176 0.76652 0.32869 0.0
C82 C 0.31325 0.78205 0.42429 0.0
Dy83 Dy 0.10318 0.77609 0.36923 0.0
O84 O 0.26881 0.72946 0.41425 0.0
O85 O 0.30192 0.82508 0.41621 0.0
O86 O 0.1482 0.70414 0.43734 0.0
O87 O 0.11156 0.69934 0.38953 0.0
C88 C 0.10004 0.67581 0.41887 0.0
C89 C 0.21377 0.87467 0.36445 0.0
O90 O 0.09483 0.79178 0.42419 0.0
O91 O 0.19667 0.82688 0.43239 0.0
O92 O 0.06697 0.81161 0.32914 0.0
O93 O 0.00503 0.72778 0.35247 0.0
O94 O 0.16728 0.87901 0.37357 0.0
O95 O 0.19871 0.82044 0.35918 0.0
O96 O 0.20576 0.72657 0.34434 0.0
O97 O 0.12004 0.72891 0.32629 0.0
C98 C 0.14463 0.82094 0.44269 0.0
C99 C 0.1637 0.71616 0.32111 0.0
Dy100 Dy 0.43805 0.25542 0.71232 0.0
C101 C 0.23309 0.04338 0.65975 0.0
C102 C 0.51986 0.35534 0.74839 0.0
Dy103 Dy 0.32061 0.14755 0.6903 0.0
O104 O 0.5295 0.3135 0.73611 0.0
O105 O 0.46731 0.34525 0.73816 0.0
O106 O 0.48124 0.19944 0.71223 0.0
O107 O 0.39015 0.15848 0.72715 0.0
C108 C 0.43395 0.14964 0.72224 0.0
C109 C 0.33179 0.25731 0.6812 0.0
O110 O 0.29661 0.14239 0.74512 0.0
O111 O 0.37264 0.24201 0.75445 0.0
O112 O 0.23198 0.09376 0.66293 0.0
O113 O 0.28118 0.04924 0.67456 0.0
O114 O 0.2823 0.2112 0.69277 0.0
O115 O 0.37042 0.24217 0.67563 0.0
O116 O 0.46287 0.2604 0.65758 0.0
O117 O 0.38497 0.16149 0.64696 0.0
C118 C 0.32281 0.19195 0.7643 0.0
C119 C 0.43611 0.21134 0.63782 0.0
C120 C 0.18371 0.64988 0.28181 0.0
C121 C 0.16524 0.69271 0.28692 0.0
C122 C 0.17908 0.6241 0.24943 0.0
C123 C 0.15657 0.6426 0.22162 0.0
C124 C 0.13971 0.68724 0.2266 0.0
C125 C 0.14388 0.71137 0.25914 0.0
C126 C 0.1972 0.57631 0.24506 0.0
C127 C 0.11751 0.70986 0.19754 0.0
C128 C 0.19515 0.61608 0.13235 0.0
C129 C 0.14245 0.56212 0.12302 0.0
C130 C 0.20006 0.64315 0.16417 0.0
C131 C 0.15093 0.61573 0.18718 0.0
C132 C 0.09635 0.563 0.17716 0.0
C133 C 0.09277 0.53674 0.14514 0.0
C134 C 0.25874 0.69974 0.17364 0.0
C135 C 0.04251 0.53316 0.20073 0.0
H136 H 0.19981 0.63512 0.30325 0.0
H137 H 0.13028 0.74518 0.26285 0.0
H138 H 0.15781 0.533 0.23608 0.0
H139 H 0.23301 0.59118 0.22541 0.0
H140 H 0.21418 0.56718 0.26907 0.0
H141 H 0.10143 0.74099 0.2062 0.0
H142 H 0.1547 0.73481 0.17902 0.0
H143 H 0.08019 0.67087 0.18383 0.0
H144 H 0.23378 0.63575 0.11536 0.0
H145 H 0.05205 0.49485 0.13808 0.0
H146 H 0.27989 0.6895 0.19537 0.0
H147 H 0.25007 0.73648 0.18191 0.0
H148 H 0.2915 0.71714 0.15223 0.0
H149 H 0.05472 0.51702 0.22401 0.0
H150 H 0.00277 0.4937 0.18871 0.0
H151 H 0.02937 0.56683 0.20879 0.0
C152 C 0.4243 0.18208 0.57653 0.0
C153 C 0.46231 0.21192 0.60425 0.0
C154 C 0.44827 0.1803 0.54469 0.0
C155 C 0.51169 0.20695 0.54087 0.0
C156 C 0.55022 0.23696 0.56892 0.0
C157 C 0.52508 0.24012 0.60009 0.0
C158 C 0.40569 0.14964 0.51524 0.0
C159 C 0.61786 0.26383 0.56636 0.0
C160 C 0.57063 0.1454 0.4719 0.0
C161 C 0.5963 0.19418 0.4488 0.0
C162 C 0.54249 0.14871 0.50178 0.0
C163 C 0.53778 0.20119 0.5081 0.0
C164 C 0.56056 0.24911 0.48383 0.0
C165 C 0.59067 0.24557 0.45473 0.0
C166 C 0.52038 0.0972 0.52727 0.0
C167 C 0.55414 0.3046 0.48892 0.0
H168 H 0.37568 0.16056 0.57967 0.0
H169 H 0.55442 0.26261 0.62163 0.0
H170 H 0.42031 0.18069 0.49294 0.0
H171 H 0.4068 0.10812 0.50757 0.0
H172 H 0.35824 0.13616 0.52159 0.0
H173 H 0.64141 0.28492 0.59059 0.0
H174 H 0.62809 0.2276 0.55922 0.0
H175 H 0.63663 0.29907 0.54612 0.0
H176 H 0.57514 0.10565 0.46746 0.0
H177 H 0.61026 0.28317 0.4368 0.0
H178 H 0.47115 0.07707 0.53166 0.0
H179 H 0.54341 0.11505 0.55202 0.0
H180 H 0.52881 0.06031 0.51882 0.0
H181 H 0.50645 0.29045 0.49496 0.0
H182 H 0.56836 0.33456 0.46612 0.0
H183 H 0.58222 0.3316 0.51078 0.0
C184 C 0.2065 0.51124 0.92866 0.0
C185 C 0.24044 0.49533 0.94982 0.0
C186 C 0.22843 0.53725 0.89655 0.0
C187 C 0.28663 0.5498 0.88612 0.0
C188 C 0.32122 0.53422 0.90769 0.0
C189 C 0.29708 0.50598 0.93902 0.0
C190 C 0.18933 0.55108 0.87375 0.0
C191 C 0.38432 0.54877 0.89811 0.0
C192 C 0.34241 0.58555 0.79466 0.0
C193 C 0.37375 0.64949 0.79504 0.0
C194 C 0.31117 0.55206 0.8237 0.0
C195 C 0.31346 0.58356 0.85396 0.0
C196 C 0.34444 0.64816 0.85413 0.0
C197 C 0.37318 0.68022 0.82449 0.0
C198 C 0.27711 0.48317 0.82223 0.0
C199 C 0.35003 0.68363 0.88611 0.0
H200 H 0.16207 0.5017 0.93683 0.0
H201 H 0.32304 0.49329 0.95546 0.0
H202 H 0.2107 0.60111 0.87 0.0
H203 H 0.18518 0.53034 0.84834 0.0
H204 H 0.14326 0.5337 0.88439 0.0
H205 H 0.40557 0.53466 0.91806 0.0
H206 H 0.38315 0.52542 0.87408 0.0
H207 H 0.41345 0.5986 0.8937 0.0
H208 H 0.34303 0.56182 0.77188 0.0
H209 H 0.39798 0.72973 0.82497 0.0
H210 H 0.23133 0.46451 0.83346 0.0
H211 H 0.30136 0.46518 0.83734 0.0
H212 H 0.27243 0.46602 0.79579 0.0
H213 H 0.30457 0.67073 0.89604 0.0
H214 H 0.37567 0.7338 0.88189 0.0
H215 H 0.37347 0.67225 0.90608 0.0
C216 C 0.7248 0.28157 0.26153 0.0
C217 C 0.74195 0.23756 0.26584 0.0
C218 C 0.72541 0.30529 0.22911 0.0
C219 C 0.74188 0.28305 0.20037 0.0
C220 C 0.75783 0.23752 0.20458 0.0
C221 C 0.75832 0.21587 0.23728 0.0
C222 C 0.70982 0.35514 0.2257 0.0
C223 C 0.77467 0.21188 0.1746 0.0
C224 C 0.69228 0.31608 0.11582 0.0
C225 C 0.74544 0.36821 0.10519 0.0
C226 C 0.69123 0.28566 0.14593 0.0
C227 C 0.74424 0.30895 0.16609 0.0
C228 C 0.79885 0.35951 0.15437 0.0
C229 C 0.79881 0.38822 0.12394 0.0
C230 C 0.63271 0.2305 0.15702 0.0
C231 C 0.85635 0.38625 0.17511 0.0
H232 H 0.71249 0.2986 0.28357 0.0
H233 H 0.77106 0.18129 0.24041 0.0
H234 H 0.74859 0.39648 0.2144 0.0
H235 H 0.67074 0.3403 0.2083 0.0
H236 H 0.69847 0.36772 0.25052 0.0
H237 H 0.78285 0.17433 0.18205 0.0
H238 H 0.73809 0.19436 0.15528 0.0
H239 H 0.81623 0.24844 0.1623 0.0
H240 H 0.65094 0.30071 0.10143 0.0
H241 H 0.83988 0.42908 0.1161 0.0
H242 H 0.61474 0.24222 0.17965 0.0
H243 H 0.6406 0.19281 0.16445 0.0
H244 H 0.5978 0.21391 0.13672 0.0
H245 H 0.85081 0.40754 0.19844 0.0
H246 H 0.89611 0.42154 0.1608 0.0
H247 H 0.86596 0.35009 0.18328 0.0
C248 C 0.42133 0.77237 0.60954 0.0
C249 C 0.4832 0.79389 0.61395 0.0
C250 C 0.3978 0.7726 0.57722 0.0
C251 C 0.43687 0.79356 0.54861 0.0
C252 C 0.49923 0.81487 0.55294 0.0
C253 C 0.52169 0.81535 0.58552 0.0
C254 C 0.33117 0.75074 0.5737 0.0
C255 C 0.54222 0.83653 0.5231 0.0
C256 C 0.35983 0.73851 0.46275 0.0
C257 C 0.35545 0.78878 0.45188 0.0
C258 C 0.38848 0.74029 0.49359 0.0
C259 C 0.41247 0.79333 0.51416 0.0
C260 C 0.41097 0.84535 0.50236 0.0
C261 C 0.38273 0.8425 0.47129 0.0
C262 C 0.39059 0.68445 0.50488 0.0
C263 C 0.43597 0.90284 0.52343 0.0
H264 H 0.39145 0.75602 0.63137 0.0
H265 H 0.56957 0.83163 0.58854 0.0
H266 H 0.32496 0.78742 0.56248 0.0
H267 H 0.30977 0.71114 0.55617 0.0
H268 H 0.30709 0.73701 0.59847 0.0
H269 H 0.58922 0.8505 0.53077 0.0
H270 H 0.52695 0.79967 0.50388 0.0
H271 H 0.5424 0.87589 0.51062 0.0
H272 H 0.33852 0.69682 0.44791 0.0
H273 H 0.3788 0.88128 0.46325 0.0
H274 H 0.36125 0.66413 0.52749 0.0
H275 H 0.43731 0.69718 0.51243 0.0
H276 H 0.37509 0.64917 0.48466 0.0
H277 H 0.40925 0.8931 0.54718 0.0
H278 H 0.43455 0.94044 0.50969 0.0
H279 H 0.48345 0.91874 0.53088 0.0
C280 C 0.62361 0.4315 0.94051 0.0
C281 C 0.66508 0.4933 0.94657 0.0
C282 C 0.59907 0.41128 0.90781 0.0
C283 C 0.61764 0.45367 0.88053 0.0
C284 C 0.65963 0.51594 0.88657 0.0
C285 C 0.68221 0.53502 0.91945 0.0
C286 C 0.55365 0.34456 0.90236 0.0
C287 C 0.68179 0.56236 0.85812 0.0
C288 C 0.60346 0.39272 0.79069 0.0
C289 C 0.55046 0.39046 0.77929 0.0
C290 C 0.62616 0.41384 0.82343 0.0
C291 C 0.59491 0.43294 0.84536 0.0
C292 C 0.54265 0.43304 0.83346 0.0
C293 C 0.52108 0.41182 0.80053 0.0
C294 C 0.68254 0.4139 0.83494 0.0
C295 C 0.50821 0.45334 0.85593 0.0
H296 H 0.6101 0.39912 0.96129 0.0
H297 H 0.71478 0.58289 0.92363 0.0
H298 H 0.51137 0.33947 0.89136 0.0
H299 H 0.5718 0.32476 0.88389 0.0
H300 H 0.54235 0.31782 0.92633 0.0
H301 H 0.71576 0.60886 0.86694 0.0
H302 H 0.70261 0.5487 0.83778 0.0
H303 H 0.64313 0.56415 0.84659 0.0
H304 H 0.62592 0.37566 0.77446 0.0
H305 H 0.47943 0.40908 0.79208 0.0
H306 H 0.67157 0.38211 0.85669 0.0
H307 H 0.71687 0.46008 0.8439 0.0
H308 H 0.70281 0.39994 0.81438 0.0
H309 H 0.4909 0.42329 0.8786 0.0
H310 H 0.46932 0.4521 0.84255 0.0
H311 H 0.53873 0.50051 0.86515 0.0
C312 C 0.343 0.41783 0.07064 0.0
C313 C 0.31761 0.45227 0.08161 0.0
C314 C 0.40342 0.4369 0.07846 0.0
C315 C 0.43794 0.49147 0.09732 0.0
C316 C 0.41001 0.52207 0.1116 0.0
C317 C 0.34977 0.50178 0.10362 0.0
C318 C 0.43182 0.40221 0.0638 0.0
C319 C 0.44516 0.58004 0.13199 0.0
C320 C 0.59608 0.52916 0.11946 0.0
C321 C 0.62676 0.55918 0.08963 0.0
C322 C 0.53461 0.50912 0.12335 0.0
C323 C 0.50439 0.52145 0.09728 0.0
C324 C 0.53715 0.5588 0.06931 0.0
C325 C 0.59834 0.5771 0.06572 0.0
C326 C 0.5012 0.46972 0.15357 0.0
C327 C 0.50653 0.57503 0.04173 0.0
H328 H 0.31761 0.37947 0.0537 0.0
H329 H 0.3292 0.52769 0.1125 0.0
H330 H 0.46172 0.42844 0.04227 0.0
H331 H 0.4602 0.39653 0.08315 0.0
H332 H 0.39723 0.35642 0.05433 0.0
H333 H 0.41471 0.59098 0.14667 0.0
H334 H 0.47694 0.57671 0.14984 0.0
H335 H 0.47241 0.6186 0.11442 0.0
H336 H 0.61853 0.51629 0.13835 0.0
H337 H 0.62248 0.60121 0.04295 0.0
H338 H 0.4771 0.42108 0.14568 0.0
H339 H 0.4668 0.4803 0.16327 0.0
H340 H 0.53258 0.47529 0.17461 0.0
H341 H 0.47592 0.53349 0.02692 0.0
H342 H 0.53966 0.60994 0.02396 0.0
H343 H 0.4785 0.5926 0.05301 0.0
C344 C 0.00583 0.57623 0.41113 0.0
C345 C 0.06597 0.60918 0.42165 0.0
C346 C -0.02302 0.51268 0.4075 0.0
C347 C 0.01029 0.48245 0.41319 0.0
C348 C 0.0705 0.51545 0.42491 0.0
C349 C 0.09744 0.57848 0.42941 0.0
C350 C 0.91182 0.47837 0.39592 0.0
C351 C 0.10817 0.48546 0.43006 0.0
C352 C 0.90597 0.31337 0.4175 0.0
C353 C 0.8969 0.30065 0.38272 0.0
C354 C 0.94819 0.37206 0.42864 0.0
C355 C -0.01719 0.41729 0.40421 0.0
C356 C -0.01886 0.40103 0.36964 0.0
C357 C 0.93696 0.34263 0.35912 0.0
C358 C 0.94875 0.38755 0.46571 0.0
C359 C 0.02006 0.4474 0.34316 0.0
H360 H -0.01789 0.60034 0.40478 0.0
H361 H 0.1447 0.60424 0.43676 0.0
H362 H 0.90942 0.46218 0.36947 0.0
H363 H 0.885 0.43759 0.41216 0.0
H364 H 0.89055 0.50728 0.39665 0.0
H365 H 0.1488 0.51403 0.44589 0.0
H366 H 0.08152 0.43992 0.44213 0.0
H367 H 0.12361 0.47869 0.40494 0.0
H368 H 0.87418 0.28046 0.43556 0.0
H369 H 0.92937 0.33232 0.3322 0.0
H370 H 0.92101 0.40958 0.46919 0.0
H371 H -0.00475 0.42018 0.47455 0.0
H372 H 0.92949 0.34606 0.48197 0.0
H373 H 0.00041 0.47648 0.33673 0.0
H374 H 0.0227 0.42504 0.31946 0.0
H375 H 0.06654 0.47764 0.35293 0.0
C376 C 0.49095 0.13398 0.76726 0.0
C377 C 0.44417 0.10841 0.74321 0.0
C378 C 0.51914 0.10199 0.77815 0.0
C379 C 0.4993 0.04345 0.7646 0.0
C380 C 0.44557 0.01396 0.74477 0.0
C381 C 0.41873 0.04742 0.73392 0.0
C382 C 0.57485 0.13435 0.80016 0.0
C383 C 0.42132 0.95013 0.73112 0.0
C384 C 0.59262 -0.01185 0.72343 0.0
C385 C 0.57536 0.9363 0.74311 0.0
C386 C 0.57658 0.03093 0.73355 0.0
C387 C 0.54103 0.01932 0.76329 0.0
C388 C 0.53343 0.97294 0.78607 0.0
C389 C 0.55157 0.93185 0.77572 0.0
C390 C 0.58871 0.08237 0.70953 0.0
C391 C 0.49759 0.96025 0.81848 0.0
H392 H 0.50963 0.18129 0.77481 0.0
H393 H 0.38211 0.028 0.71556 0.0
H394 H 0.58256 0.10183 0.81519 0.0
H395 H 0.61497 0.1612 0.78371 0.0
H396 H 0.57137 0.1667 0.81777 0.0
H397 H 0.45086 0.95113 0.71017 0.0
H398 H 0.4212 0.91935 0.75122 0.0
H399 H 0.3746 0.93071 0.72105 0.0
H400 H 0.61142 -0.00877 0.6983 0.0
H401 H 0.53871 0.89131 0.79089 0.0
H402 H 0.60127 0.12486 0.72378 0.0
H403 H 0.54708 0.06997 0.69475 0.0
H404 H 0.62556 0.09161 0.69132 0.0
H405 H 0.51291 0.93891 0.83778 0.0
H406 H 0.44913 0.92775 0.81306 0.0
H407 H 0.50126 0.00241 0.82926 0.0
C408 C 0.56053 0.60377 0.7015 0.0
C409 C 0.53838 0.64143 0.6909 0.0
C410 C 0.52147 0.54028 0.70364 0.0
C411 C 0.45946 0.51484 0.69498 0.0
C412 C 0.43694 0.5532 0.68525 0.0
C413 C 0.47677 0.61585 0.68306 0.0
C414 C 0.54647 0.50032 0.71463 0.0
C415 C 0.37142 0.52797 0.67545 0.0
C416 C 0.38414 0.35832 0.65572 0.0
C417 C 0.34957 0.32156 0.68274 0.0
C418 C 0.41914 0.42147 0.65935 0.0
C419 C 0.42007 0.44817 0.69105 0.0
C420 C 0.38281 0.41147 0.71806 0.0
C421 C 0.34723 0.34802 0.71344 0.0
C422 C 0.45735 0.45919 0.62972 0.0
C423 C 0.38273 0.43882 0.75212 0.0
H424 H 0.60797 0.62377 0.70799 0.0
H425 H 0.45942 0.64487 0.67471 0.0
H426 H 0.52135 0.47363 0.73726 0.0
H427 H 0.53983 0.4673 0.69423 0.0
H428 H 0.5954 0.52714 0.72099 0.0
H429 H 0.35995 0.56452 0.67209 0.0
H430 H 0.36205 0.50239 0.65122 0.0
H431 H 0.34099 0.49553 0.69501 0.0
H432 H 0.38638 0.3371 0.63224 0.0
H433 H 0.32143 0.3189 0.73449 0.0
H434 H 0.506 0.48144 0.63652 0.0
H435 H 0.44726 0.49593 0.62369 0.0
H436 H 0.44962 0.43128 0.60651 0.0
H437 H 0.42936 0.46389 0.76254 0.0
H438 H 0.35288 0.40363 0.77085 0.0
H439 H 0.36733 0.4724 0.74912 0.0
C440 C 0.02233 0.40635 0.98645 0.0
C441 C 0.01514 0.36536 1.0123 0.0
C442 C -0.00341 0.44324 0.9891 0.0
C443 C 0.96171 0.4379 1.0181 0.0
C444 C 0.95084 0.39351 0.04335 0.0
C445 C -0.0217 0.35768 0.04025 0.0
C446 C 0.00934 0.49002 0.96164 0.0
C447 C 0.91252 0.3858 0.07413 0.0
C448 C 0.94275 0.57518 0.03403 0.0
C449 C 0.88815 0.55654 1.01711 0.0
C450 C -0.03331 0.53591 0.03577 0.0
C451 C 0.93454 0.47718 1.02056 0.0
C452 C 0.87916 0.45842 1.00387 0.0
C453 C 0.85736 0.49872 1.00181 0.0
C454 C 0.02628 0.55712 0.05357 0.0
C455 C 0.84325 0.39608 0.98765 0.0
H456 H 0.05217 0.41285 0.96526 0.0
H457 H -0.02533 0.32727 0.06069 0.0
H458 H -0.03368 0.48186 0.95009 0.0
H459 H 0.03197 0.53651 0.97283 0.0
H460 H 0.03867 0.48897 0.94113 0.0
H461 H 0.90595 0.34716 0.0905 0.0
H462 H 0.93422 0.42824 0.0895 0.0
H463 H 0.86754 0.37784 0.06607 0.0
H464 H -0.03408 0.61951 0.04624 0.0
H465 H 0.81495 0.48418 0.98866 0.0
H466 H 0.05947 0.55664 0.0356 0.0
H467 H 0.02014 0.52531 0.07459 0.0
H468 H 0.04548 0.60388 0.06417 0.0
H469 H 0.86855 0.3928 0.96564 0.0
H470 H 0.79814 0.38655 0.97863 0.0
H471 H 0.83663 0.35997 1.00602 0.0
C472 C 0.30789 0.92446 0.33278 0.0
C473 C 0.27705 0.92258 0.36246 0.0
C474 C 0.37064 0.95059 0.33269 0.0
C475 C 0.40311 0.9749 0.36324 0.0
C476 C 0.37261 0.97679 0.39288 0.0
C477 C 0.30938 0.95076 0.39204 0.0
C478 C 0.40162 0.94871 0.30038 0.0
C479 C 0.40625 0.00358 0.4257 0.0
C480 C 0.55383 0.97955 0.36401 0.0
C481 C 0.59232 0.03929 0.35295 0.0
C482 C 0.49197 0.95848 0.36919 0.0
C483 C 0.46905 -0.00153 0.36342 0.0
C484 C 0.50838 0.05926 0.35332 0.0
C485 C 0.56914 0.07851 0.34773 0.0
C486 C 0.45089 0.89336 0.38025 0.0
C487 C 0.48596 0.10336 0.34688 0.0
H488 H 0.28225 0.90144 0.31016 0.0
H489 H 0.28499 0.948 0.41506 0.0
H490 H 0.43868 -0.00481 0.29371 0.0
H491 H 0.42219 0.91966 0.30425 0.0
H492 H 0.36986 0.93028 0.27854 0.0
H493 H 0.43479 -0.0165 0.43223 0.0
H494 H 0.43706 0.05347 0.42263 0.0
H495 H 0.37512 -0.00411 0.44725 0.0
H496 H 0.57183 0.94946 0.36832 0.0
H497 H 0.5986 0.12487 0.33913 0.0
H498 H 0.41577 0.86839 0.36063 0.0
H499 H 0.42731 0.89295 0.40391 0.0
H500 H 0.4759 0.86871 0.3849 0.0
H501 H 0.45717 0.0892 0.32377 0.0
H502 H 0.52369 0.15093 0.34314 0.0
H503 H 0.45771 0.10286 0.36838 0.0
C504 C 0.26708 0.13954 0.81758 0.0
C505 C 0.29763 0.1927 0.7979 0.0
C506 C 0.24661 0.14155 0.85047 0.0
C507 C 0.25537 0.19765 0.86335 0.0
C508 C 0.28541 0.25119 0.84323 0.0
C509 C 0.30692 0.24817 0.811 0.0
C510 C 0.21646 0.08404 0.87161 0.0
C511 C 0.29446 0.31173 0.85555 0.0
C512 C 0.15404 0.20564 0.93062 0.0
C513 C 0.19409 0.23063 0.95808 0.0
C514 C 0.17231 0.19137 0.9001 0.0
C515 C 0.23161 0.20083 0.89732 0.0
C516 C 0.27039 0.22089 0.92602 0.0
C517 C 0.2514 0.23633 0.95603 0.0
C518 C 0.12996 0.17141 0.86997 0.0
C519 C 0.33332 0.22984 0.92435 0.0
H520 H 0.26069 0.09681 0.80764 0.0
H521 H 0.33054 0.28937 0.79582 0.0
H522 H 0.24141 0.0915 0.89586 0.0
H523 H 0.16969 0.0724 0.87819 0.0
H524 H 0.21457 0.04451 0.85826 0.0
H525 H 0.31681 0.34847 0.83622 0.0
H526 H 0.25016 0.30708 0.86222 0.0
H527 H 0.32265 0.3261 0.87887 0.0
H528 H 0.10966 0.20121 0.9321 0.0
H529 H 0.28238 0.25547 0.97728 0.0
H530 H 0.12744 0.13094 0.85756 0.0
H531 H 0.14759 0.20871 0.85086 0.0
H532 H 0.08349 0.16017 0.87723 0.0
H533 H 0.33272 0.19068 0.91137 0.0
H534 H 0.35345 0.23509 0.95003 0.0
H535 H 0.36306 0.27151 0.90938 0.0
C536 C 0.8714 0.10119 0.23938 0.0
C537 C 0.896 0.12261 0.2717 0.0
C538 C 0.90679 0.12554 0.21004 0.0
C539 C -0.03178 0.17188 0.21327 0.0
C540 C -0.00544 0.18928 0.24597 0.0
C541 C 0.95801 0.16447 0.27485 0.0
C542 C 0.87695 0.10569 0.17566 0.0
C543 C 0.06001 0.23807 0.25053 0.0
C544 C 0.07066 0.22693 0.1355 0.0
C545 C 0.06845 0.27943 0.12656 0.0
C546 C 0.03807 0.1911 0.16358 0.0
C547 C 0.00229 0.20806 0.183 0.0
C548 C -0.0006 0.26062 0.17386 0.0
C549 C 0.03262 0.2957 0.14588 0.0
C550 C 0.04203 0.13528 0.17254 0.0
C551 C 0.96127 0.28004 0.19371 0.0
H552 H 0.82339 0.06891 0.23682 0.0
H553 H -0.02283 0.18104 0.29983 0.0
H554 H 0.87006 0.14221 0.16484 0.0
H555 H 0.90616 0.0983 0.15777 0.0
H556 H 0.83223 0.06308 0.17726 0.0
H557 H 0.07573 0.23988 0.27705 0.0
H558 H 0.08953 0.23019 0.23315 0.0
H559 H 0.06553 0.28326 0.24408 0.0
H560 H 0.09811 0.21394 0.12069 0.0
H561 H 0.03012 0.33583 0.13905 0.0
H562 H -0.00382 0.09415 0.17243 0.0
H563 H 0.06042 0.13995 0.19861 0.0
H564 H 0.07125 0.12782 0.15462 0.0
H565 H 0.91342 0.24249 0.19422 0.0
H566 H 0.9629 0.32131 0.18281 0.0
H567 H -0.02279 0.28989 0.22043 0.0
C568 C 0.69206 0.96291 0.60184 0.0
C569 C 0.73511 0.95359 0.61859 0.0
C570 C 0.7029 -0.01159 0.56931 0.0
C571 C 0.75948 0.00771 0.55361 0.0
C572 C 0.80403 1e-05 0.5708 0.0
C573 C 0.79066 0.97144 0.60293 0.0
C574 C 0.65326 -0.0061 0.55167 0.0
C575 C 0.86561 0.02216 0.55535 0.0
C576 C 0.75603 0.02273 0.45787 0.0
C577 C 0.76861 0.08302 0.45475 0.0
C578 C 0.75585 -0.00186 0.4899 0.0
C579 C 0.77076 0.03559 0.51917 0.0
C580 C 0.78771 0.09783 0.51564 0.0
C581 C 0.78519 0.12048 0.48351 0.0
C582 C 0.73534 0.93105 0.49264 0.0
C583 C 0.80592 0.13984 0.54598 0.0
H584 H 0.64851 0.94795 0.6137 0.0
H585 H 0.82363 0.96369 0.61589 0.0
H586 H 0.6663 0.04268 0.54982 0.0
H587 H 0.64649 0.97569 0.52541 0.0
H588 H 0.60942 0.9691 0.56541 0.0
H589 H 0.89628 0.01593 0.57278 0.0
H590 H 0.86117 -0.00286 0.53143 0.0
H591 H 0.88679 0.0713 0.54875 0.0
H592 H 0.7431 -0.00611 0.43551 0.0
H593 H 0.79586 0.16749 0.48089 0.0
H594 H 0.69122 0.90711 0.50603 0.0
H595 H 0.76794 0.92418 0.50783 0.0
H596 H 0.72999 0.90946 0.46735 0.0
H597 H 0.76521 0.12902 0.56119 0.0
H598 H 0.82819 0.18862 0.53829 0.0
H599 H 0.8372 0.13326 0.56266 0.0
C600 C 0.70945 0.84252 0.81257 0.0
C601 C 0.65862 0.79003 0.7999 0.0
C602 C 0.734 0.84204 0.84446 0.0
C603 C 0.7082 0.7873 0.86361 0.0
C604 C 0.65676 0.73418 0.8509 0.0
C605 C 0.63213 0.73649 0.81943 0.0
C606 C 0.78727 0.90015 0.85775 0.0
C607 C 0.62738 0.67475 0.87045 0.0
C608 C 0.80492 0.7575 0.92466 0.0
C609 C 0.77955 0.75808 0.95615 0.0
C610 C 0.78353 0.76912 0.89443 0.0
C611 C 0.73717 0.78403 0.89577 0.0
C612 C 0.71501 0.78987 0.92773 0.0
C613 C 0.73583 0.77584 0.95762 0.0
C614 C 0.80714 0.76052 0.86093 0.0
C615 C 0.66693 0.80752 0.93031 0.0
H616 H 0.72934 0.88439 0.79787 0.0
H617 H 0.59254 0.69593 0.80987 0.0
H618 H 0.77708 0.91025 0.88355 0.0
H619 H 0.82741 0.8945 0.86004 0.0
H620 H 0.7991 0.93992 0.84099 0.0
H621 H 0.596 0.63545 0.85433 0.0
H622 H 0.66186 0.66529 0.88131 0.0
H623 H 0.60106 0.67795 0.89193 0.0
H624 H 0.83852 0.74347 0.92333 0.0
H625 H 0.716 0.7762 0.9819 0.0
H626 H 0.82426 0.80217 0.84507 0.0
H627 H 0.76972 0.72246 0.84666 0.0
H628 H 0.84411 0.75003 0.86429 0.0
H629 H 0.67623 0.84503 0.91233 0.0
H630 H 0.66371 0.82217 0.95645 0.0
H631 H 0.62237 0.76776 0.9235 0.0
C632 C 0.91747 0.69719 0.29589 0.0
C633 C -0.02724 0.75206 0.29834 0.0
C634 C 0.88722 0.67773 0.26449 0.0
C635 C 0.91397 0.71319 0.23489 0.0
C636 C -0.0316 0.76991 0.23767 0.0
C637 C -0.00354 0.78908 0.26942 0.0
C638 C 0.82827 0.61788 0.26275 0.0
C639 C -0.0004 0.80826 0.20671 0.0
C640 C 0.88413 0.63305 0.14948 0.0
C641 C 0.84728 0.65183 0.13342 0.0
C642 C 0.90554 0.65208 0.18265 0.0
C643 C 0.88825 0.68941 0.20057 0.0
C644 C 0.84972 0.70717 0.18477 0.0
C645 C 0.8304 0.68889 0.1512 0.0
C646 C 0.94673 0.6322 0.19842 0.0
C647 C 0.82869 0.7452 0.20341 0.0
H648 H 0.89911 0.66835 0.31814 0.0
H649 H 0.0394 0.83143 0.27107 0.0
H650 H 0.79506 0.62232 0.24663 0.0
H651 H 0.83614 0.58268 0.25105 0.0
H652 H 0.80828 0.60155 0.28836 0.0
H653 H 0.03992 0.85275 0.21342 0.0
H654 H 0.01431 0.78297 0.18991 0.0
H655 H -0.03205 0.81719 0.19189 0.0
H656 H 0.89684 0.60394 0.13594 0.0
H657 H 0.80078 0.70239 0.13916 0.0
H658 H 0.92211 0.59834 0.21877 0.0
H659 H -0.01341 0.67159 0.21029 0.0
H660 H 0.9628 0.61096 0.17954 0.0
H661 H 0.80783 0.7233 0.22802 0.0
H662 H 0.79528 0.75138 0.18846 0.0
H663 H 0.86793 0.79088 0.2092 0.0
C664 C 0.2055 0.94576 0.63025 0.0
C665 C 0.19727 -0.00401 0.63433 0.0
C666 C 0.18452 0.90932 0.60096 0.0
C667 C 0.15586 0.92447 0.57501 0.0
C668 C 0.14267 0.97175 0.5805 0.0
C669 C 0.16308 0.00663 0.61033 0.0
C670 C 0.19799 0.85819 0.59648 0.0
C671 C 0.11283 -0.01011 0.55342 0.0
C672 C 0.1972 0.90154 0.48615 0.0
C673 C 0.14427 0.84935 0.47533 0.0
C674 C 0.20061 0.92722 0.51809 0.0
C675 C 0.15024 0.899 0.54029 0.0
C676 C 0.09622 0.84661 0.5294 0.0
C677 C 0.09361 0.82273 0.49674 0.0
C678 C 0.25873 -0.01595 0.52825 0.0
C679 C 0.04218 0.81456 0.55265 0.0
H680 H 0.23155 0.93717 0.64891 0.0
H681 H 0.15648 0.0454 0.61345 0.0
H682 H 0.1586 0.81742 0.58522 0.0
H683 H 0.23673 0.87308 0.57881 0.0
H684 H 0.20986 0.84496 0.62097 0.0
H685 H 0.09662 0.01998 0.56365 0.0
H686 H 0.14602 0.0149 0.5329 0.0
H687 H 0.07405 0.94909 0.54182 0.0
H688 H 0.23639 0.92234 0.46962 0.0
H689 H 0.0529 0.78189 0.48852 0.0
H690 H 0.27964 0.97374 0.55006 0.0
H691 H 0.24919 0.02023 0.5365 0.0
H692 H 0.29217 0.00235 0.50717 0.0
H693 H 0.05371 0.79443 0.57442 0.0
H694 H 0.00205 0.77753 0.53945 0.0
H695 H 0.03002 0.84752 0.56324 0.0
loop_
_geom_bond_atom_site_label_1
_geom_bond_atom_site_label_2
_geom_bond_distance
_geom_bond_site_symmetry_2
_ccdc_geom_bond_type
Dy0 O4 2.398 . S
Dy0 O5 2.491 . S
Dy0 O6 2.403 . S
Dy0 O7 2.664 . S
Dy0 O11 2.326 . S
Dy0 O15 2.310 . S
Dy0 O16 2.351 1_554 S
C1 O12 1.185 . S
C1 O13 1.355 . S
C2 O4 1.185 . S
C2 O5 1.355 . S
Dy3 O7 2.310 1_556 S
Dy3 O10 2.351 1_556 S
Dy3 O12 2.398 . S
Dy3 O13 2.491 . S
Dy3 O14 2.403 . S
Dy3 O15 2.664 1_556 S
Dy3 O17 2.326 . S
O4 Dy0 2.398 . S
O4 C2 1.185 . S
O5 Dy0 2.491 . S
O5 C2 1.355 . S
O6 Dy0 2.403 . S
O6 C8 1.254 . S
O7 Dy0 2.664 . S
O7 Dy3 2.310 1_554 S
O7 C8 1.268 . S
C8 O6 1.254 . S
C8 O7 1.268 . S
C9 O14 1.254 1_554 S
C9 O15 1.268 . S
O10 Dy3 2.351 1_554 S
O10 C18 1.249 . S
O11 Dy0 2.326 . S
O11 C18 1.267 . S
O12 C1 1.185 . S
O12 Dy3 2.398 . S
O13 C1 1.355 . S
O13 Dy3 2.491 . S
O14 Dy3 2.403 . S
O14 C9 1.254 1_556 S
O15 Dy0 2.310 . S
O15 Dy3 2.664 1_554 S
O15 C9 1.268 . S
O16 Dy0 2.351 1_556 S
O16 C19 1.249 . S
O17 Dy3 2.326 . S
O17 C19 1.267 . S
C18 O10 1.249 . S
C18 O11 1.267 . S
C19 O16 1.249 . S
C19 O17 1.267 . S
Dy20 O24 2.398 . S
Dy20 O25 2.491 . S
Dy20 O26 2.403 . S
Dy20 O27 2.664 . S
Dy20 O31 2.326 . S
Dy20 O35 2.310 . S
Dy20 O36 2.351 . S
C21 O32 1.185 . S
C21 O33 1.355 . S
C22 O24 1.185 . S
C22 O25 1.355 . S
Dy23 O27 2.310 . S
Dy23 O30 2.351 . S
Dy23 O32 2.398 . S
Dy23 O33 2.491 . S
Dy23 O34 2.403 . S
Dy23 O35 2.664 . S
Dy23 O37 2.326 . S
O24 Dy20 2.398 . S
O24 C22 1.185 . S
O25 Dy20 2.491 . S
O25 C22 1.355 . S
O26 Dy20 2.403 . S
O26 C28 1.254 . S
O27 Dy20 2.664 . S
O27 Dy23 2.310 . S
O27 C28 1.268 . S
C28 O26 1.254 . S
C28 O27 1.268 . S
C29 O34 1.254 . S
C29 O35 1.268 . S
O30 Dy23 2.351 . S
O30 C38 1.249 . S
O31 Dy20 2.326 . S
O31 C38 1.267 . S
O32 C21 1.185 . S
O32 Dy23 2.398 . S
O33 C21 1.355 . S
O33 Dy23 2.491 . S
O34 Dy23 2.403 . S
O34 C29 1.254 . S
O35 Dy20 2.310 . S
O35 Dy23 2.664 . S
O35 C29 1.268 . S
O36 Dy20 2.351 . S
O36 C39 1.249 . S
O37 Dy23 2.326 . S
O37 C39 1.267 . S
C38 O30 1.249 . S
C38 O31 1.267 . S
C39 O36 1.249 . S
C39 O37 1.267 . S
Dy40 O44 2.398 . S
Dy40 O45 2.491 . S
Dy40 O46 2.403 . S
Dy40 O47 2.664 . S
Dy40 O51 2.326 . S
Dy40 O55 2.310 . S
Dy40 O56 2.351 . S
C41 O52 1.185 . S
C41 O53 1.355 . S
C42 O44 1.185 . S
C42 O45 1.355 . S
Dy43 O47 2.310 . S
Dy43 O50 2.351 . S
Dy43 O52 2.398 . S
Dy43 O53 2.491 . S
Dy43 O54 2.403 . S
Dy43 O55 2.664 . S
Dy43 O57 2.326 . S
O44 Dy40 2.398 . S
O44 C42 1.185 . S
O45 Dy40 2.491 . S
O45 C42 1.355 . S
O46 Dy40 2.403 . S
O46 C48 1.254 . S
O47 Dy40 2.664 . S
O47 Dy43 2.310 . S
O47 C48 1.268 . S
C48 O46 1.254 . S
C48 O47 1.268 . S
C49 O54 1.254 . S
C49 O55 1.268 . S
O50 Dy43 2.351 . S
O50 C58 1.249 . S
O51 Dy40 2.326 . S
O51 C58 1.267 . S
O52 C41 1.185 . S
O52 Dy43 2.398 . S
O53 C41 1.355 . S
O53 Dy43 2.491 . S
O54 Dy43 2.403 . S
O54 C49 1.254 . S
O55 Dy40 2.310 . S
O55 Dy43 2.664 . S
O55 C49 1.268 . S
O56 Dy40 2.351 . S
O56 C59 1.249 . S
O57 Dy43 2.326 . S
O57 C59 1.267 . S
C58 O50 1.249 . S
C58 O51 1.267 . S
C59 O56 1.249 . S
C59 O57 1.267 . S
Dy60 O64 2.398 . S
Dy60 O65 2.491 . S
Dy60 O66 2.403 . S
Dy60 O67 2.664 . S
Dy60 O71 2.326 . S
Dy60 O75 2.310 . S
Dy60 O76 2.351 1_554 S
C61 O72 1.185 . S
C61 O73 1.355 . S
C62 O64 1.185 . S
C62 O65 1.355 . S
Dy63 O67 2.310 1_556 S
Dy63 O70 2.351 1_556 S
Dy63 O72 2.398 . S
Dy63 O73 2.491 . S
Dy63 O74 2.403 . S
Dy63 O75 2.664 1_556 S
Dy63 O77 2.326 . S
O64 Dy60 2.398 . S
O64 C62 1.185 . S
O65 Dy60 2.491 . S
O65 C62 1.355 . S
O66 Dy60 2.403 . S
O66 C68 1.254 . S
O67 Dy60 2.664 . S
O67 Dy63 2.310 1_554 S
O67 C68 1.268 . S
C68 O66 1.254 . S
C68 O67 1.268 . S
C69 O74 1.254 1_554 S
C69 O75 1.268 . S
O70 Dy63 2.351 1_554 S
O70 C78 1.249 . S
O71 Dy60 2.326 . S
O71 C78 1.267 . S
O72 C61 1.185 . S
O72 Dy63 2.398 . S
O73 C61 1.355 . S
O73 Dy63 2.491 . S
O74 Dy63 2.403 . S
O74 C69 1.254 1_556 S
O75 Dy60 2.310 . S
O75 Dy63 2.664 1_554 S
O75 C69 1.268 . S
O76 Dy60 2.351 1_556 S
O76 C79 1.249 . S
O77 Dy63 2.326 . S
O77 C79 1.267 . S
C78 O70 1.249 . S
C78 O71 1.267 . S
C79 O76 1.249 . S
C79 O77 1.267 . S
Dy80 O84 2.398 . S
Dy80 O85 2.491 . S
Dy80 O86 2.403 . S
Dy80 O87 2.664 . S
Dy80 O91 2.326 . S
Dy80 O95 2.310 . S
Dy80 O96 2.351 . S
C81 O92 1.185 . S
C81 O93 1.355 . S
C82 O84 1.185 . S
C82 O85 1.355 . S
Dy83 O87 2.310 . S
Dy83 O90 2.351 . S
Dy83 O92 2.398 . S
Dy83 O93 2.491 . S
Dy83 O94 2.403 . S
Dy83 O95 2.664 . S
Dy83 O97 2.326 . S
O84 Dy80 2.398 . S
O84 C82 1.185 . S
O85 Dy80 2.491 . S
O85 C82 1.355 . S
O86 Dy80 2.403 . S
O86 C88 1.254 . S
O87 Dy80 2.664 . S
O87 Dy83 2.310 . S
O87 C88 1.268 . S
C88 O86 1.254 . S
C88 O87 1.268 . S
C89 O94 1.254 . S
C89 O95 1.268 . S
O90 Dy83 2.351 . S
O90 C98 1.249 . S
O91 Dy80 2.326 . S
O91 C98 1.267 . S
O92 C81 1.185 . S
O92 Dy83 2.398 . S
O93 C81 1.355 . S
O93 Dy83 2.491 . S
O94 Dy83 2.403 . S
O94 C89 1.254 . S
O95 Dy80 2.310 . S
O95 Dy83 2.664 . S
O95 C89 1.268 . S
O96 Dy80 2.351 . S
O96 C99 1.249 . S
O97 Dy83 2.326 . S
O97 C99 1.267 . S
C98 O90 1.249 . S
C98 O91 1.267 . S
C99 O96 1.249 . S
C99 O97 1.267 . S
Dy100 O104 2.398 . S
Dy100 O105 2.491 . S
Dy100 O106 2.403 . S
Dy100 O107 2.664 . S
Dy100 O111 2.326 . S
Dy100 O115 2.310 . S
Dy100 O116 2.351 . S
C101 O112 1.185 . S
C101 O113 1.355 . S
C102 O104 1.185 . S
C102 O105 1.355 . S
Dy103 O107 2.310 . S
Dy103 O110 2.351 . S
Dy103 O112 2.398 . S
Dy103 O113 2.491 . S
Dy103 O114 2.403 . S
Dy103 O115 2.664 . S
Dy103 O117 2.326 . S
O104 Dy100 2.398 . S
O104 C102 1.185 . S
O105 Dy100 2.491 . S
O105 C102 1.355 . S
O106 Dy100 2.403 . S
O106 C108 1.254 . S
O107 Dy100 2.664 . S
O107 Dy103 2.310 . S
O107 C108 1.268 . S
C108 O106 1.254 . S
C108 O107 1.268 . S
C109 O114 1.254 . S
C109 O115 1.268 . S
O110 Dy103 2.351 . S
O110 C118 1.249 . S
O111 Dy100 2.326 . S
O111 C118 1.267 . S
O112 C101 1.185 . S
O112 Dy103 2.398 . S
O113 C101 1.355 . S
O113 Dy103 2.491 . S
O114 Dy103 2.403 . S
O114 C109 1.254 . S
O115 Dy100 2.310 . S
O115 Dy103 2.664 . S
O115 C109 1.268 . S
O116 Dy100 2.351 . S
O116 C119 1.249 . S
O117 Dy103 2.326 . S
O117 C119 1.267 . S
C118 O110 1.249 . S
C118 O111 1.267 . S
C119 O116 1.249 . S
C119 O117 1.267 . S
C120 C121 1.391 . S
C120 C122 1.394 . S
C120 H136 0.931 . S
C121 C120 1.391 . S
C121 C125 1.376 . S
C122 C120 1.394 . S
C122 C123 1.369 . S
C122 C126 1.531 . S
C123 C122 1.369 . S
C123 C124 1.410 . S
C123 C131 1.503 . S
C124 C123 1.410 . S
C124 C125 1.392 . S
C124 C127 1.511 . S
C125 C121 1.376 . S
C125 C124 1.392 . S
C125 H137 0.929 . S
C126 C122 1.531 . S
C126 H138 0.960 . S
C126 H139 0.962 . S
C126 H140 0.960 . S
C127 C124 1.511 . S
C127 H141 0.961 . S
C127 H142 0.961 . S
C127 H143 0.961 . S
C128 C129 1.370 . S
C128 C130 1.363 . S
C128 H144 0.931 . S
C129 C128 1.370 . S
C129 C133 1.408 . S
C130 C128 1.363 . S
C130 C131 1.370 . S
C130 C134 1.524 . S
C131 C123 1.503 . S
C131 C130 1.370 . S
C131 C132 1.403 . S
C132 C131 1.403 . S
C132 C133 1.404 . S
C132 C135 1.539 . S
C133 C129 1.408 . S
C133 C132 1.404 . S
C133 H145 0.930 . S
C134 C130 1.524 . S
C134 H146 0.956 . S
C134 H147 0.961 . S
C134 H148 0.961 . S
C135 C132 1.539 . S
C135 H149 0.958 . S
C135 H150 0.961 . S
C135 H151 0.960 . S
H136 C120 0.931 . S
H137 C125 0.929 . S
H138 C126 0.960 . S
H139 C126 0.962 . S
H140 C126 0.960 . S
H141 C127 0.961 . S
H142 C127 0.961 . S
H143 C127 0.961 . S
H144 C128 0.931 . S
H145 C133 0.930 . S
H146 C134 0.956 . S
H147 C134 0.961 . S
H148 C134 0.961 . S
H149 C135 0.958 . S
H150 C135 0.961 . S
H151 C135 0.960 . S
C152 C153 1.391 . S
C152 C154 1.394 . S
C152 H168 0.931 . S
C153 C152 1.391 . S
C153 C157 1.376 . S
C154 C152 1.394 . S
C154 C155 1.369 . S
C154 C158 1.531 . S
C155 C154 1.369 . S
C155 C156 1.410 . S
C155 C163 1.503 . S
C156 C155 1.410 . S
C156 C157 1.392 . S
C156 C159 1.511 . S
C157 C153 1.376 . S
C157 C156 1.392 . S
C157 H169 0.929 . S
C158 C154 1.531 . S
C158 H170 0.960 . S
C158 H171 0.962 . S
C158 H172 0.960 . S
C159 C156 1.511 . S
C159 H173 0.961 . S
C159 H174 0.961 . S
C159 H175 0.961 . S
C160 C161 1.370 . S
C160 C162 1.363 . S
C160 H176 0.931 . S
C161 C160 1.370 . S
C161 C165 1.408 . S
C162 C160 1.363 . S
C162 C163 1.370 . S
C162 C166 1.524 . S
C163 C155 1.503 . S
C163 C162 1.370 . S
C163 C164 1.403 . S
C164 C163 1.403 . S
C164 C165 1.404 . S
C164 C167 1.539 . S
C165 C161 1.408 . S
C165 C164 1.404 . S
C165 H177 0.930 . S
C166 C162 1.524 . S
C166 H178 0.956 . S
C166 H179 0.961 . S
C166 H180 0.961 . S
C167 C164 1.539 . S
C167 H181 0.958 . S
C167 H182 0.961 . S
C167 H183 0.960 . S
H168 C152 0.931 . S
H169 C157 0.929 . S
H170 C158 0.960 . S
H171 C158 0.962 . S
H172 C158 0.960 . S
H173 C159 0.961 . S
H174 C159 0.961 . S
H175 C159 0.961 . S
H176 C160 0.931 . S
H177 C165 0.930 . S
H178 C166 0.956 . S
H179 C166 0.961 . S
H180 C166 0.961 . S
H181 C167 0.958 . S
H182 C167 0.961 . S
H183 C167 0.960 . S
C184 C185 1.391 . S
C184 C186 1.394 . S
C184 H200 0.931 . S
C185 C184 1.391 . S
C185 C189 1.376 . S
C186 C184 1.394 . S
C186 C187 1.369 . S
C186 C190 1.531 . S
C187 C186 1.369 . S
C187 C188 1.410 . S
C187 C195 1.503 . S
C188 C187 1.410 . S
C188 C189 1.392 . S
C188 C191 1.511 . S
C189 C185 1.376 . S
C189 C188 1.392 . S
C189 H201 0.929 . S
C190 C186 1.531 . S
C190 H202 0.960 . S
C190 H203 0.962 . S
C190 H204 0.960 . S
C191 C188 1.511 . S
C191 H205 0.961 . S
C191 H206 0.961 . S
C191 H207 0.961 . S
C192 C193 1.370 . S
C192 C194 1.363 . S
C192 H208 0.931 . S
C193 C192 1.370 . S
C193 C197 1.408 . S
C194 C192 1.363 . S
C194 C195 1.370 . S
C194 C198 1.524 . S
C195 C187 1.503 . S
C195 C194 1.370 . S
C195 C196 1.403 . S
C196 C195 1.403 . S
C196 C197 1.404 . S
C196 C199 1.539 . S
C197 C193 1.408 . S
C197 C196 1.404 . S
C197 H209 0.930 . S
C198 C194 1.524 . S
C198 H210 0.956 . S
C198 H211 0.961 . S
C198 H212 0.961 . S
C199 C196 1.539 . S
C199 H213 0.958 . S
C199 H214 0.961 . S
C199 H215 0.960 . S
H200 C184 0.931 . S
H201 C189 0.929 . S
H202 C190 0.960 . S
H203 C190 0.962 . S
H204 C190 0.960 . S
H205 C191 0.961 . S
H206 C191 0.961 . S
H207 C191 0.961 . S
H208 C192 0.931 . S
H209 C197 0.930 . S
H210 C198 0.956 . S
H211 C198 0.961 . S
H212 C198 0.961 . S
H213 C199 0.958 . S
H214 C199 0.961 . S
H215 C199 0.960 . S
C216 C217 1.391 . S
C216 C218 1.394 . S
C216 H232 0.931 . S
C217 C216 1.391 . S
C217 C221 1.376 . S
C218 C216 1.394 . S
C218 C219 1.369 . S
C218 C222 1.531 . S
C219 C218 1.369 . S
C219 C220 1.410 . S
C219 C227 1.503 . S
C220 C219 1.410 . S
C220 C221 1.392 . S
C220 C223 1.511 . S
C221 C217 1.376 . S
C221 C220 1.392 . S
C221 H233 0.929 . S
C222 C218 1.531 . S
C222 H234 0.960 . S
C222 H235 0.962 . S
C222 H236 0.960 . S
C223 C220 1.511 . S
C223 H237 0.961 . S
C223 H238 0.961 . S
C223 H239 0.961 . S
C224 C225 1.370 . S
C224 C226 1.363 . S
C224 H240 0.931 . S
C225 C224 1.370 . S
C225 C229 1.408 . S
C226 C224 1.363 . S
C226 C227 1.370 . S
C226 C230 1.524 . S
C227 C219 1.503 . S
C227 C226 1.370 . S
C227 C228 1.403 . S
C228 C227 1.403 . S
C228 C229 1.404 . S
C228 C231 1.539 . S
C229 C225 1.408 . S
C229 C228 1.404 . S
C229 H241 0.930 . S
C230 C226 1.524 . S
C230 H242 0.956 . S
C230 H243 0.961 . S
C230 H244 0.961 . S
C231 C228 1.539 . S
C231 H245 0.958 . S
C231 H246 0.961 . S
C231 H247 0.960 . S
H232 C216 0.931 . S
H233 C221 0.929 . S
H234 C222 0.960 . S
H235 C222 0.962 . S
H236 C222 0.960 . S
H237 C223 0.961 . S
H238 C223 0.961 . S
H239 C223 0.961 . S
H240 C224 0.931 . S
H241 C229 0.930 . S
H242 C230 0.956 . S
H243 C230 0.961 . S
H244 C230 0.961 . S
H245 C231 0.958 . S
H246 C231 0.961 . S
H247 C231 0.960 . S
C248 C249 1.391 . S
C248 C250 1.394 . S
C248 H264 0.931 . S
C249 C248 1.391 . S
C249 C253 1.376 . S
C250 C248 1.394 . S
C250 C251 1.369 . S
C250 C254 1.531 . S
C251 C250 1.369 . S
C251 C252 1.410 . S
C251 C259 1.503 . S
C252 C251 1.410 . S
C252 C253 1.392 . S
C252 C255 1.511 . S
C253 C249 1.376 . S
C253 C252 1.392 . S
C253 H265 0.929 . S
C254 C250 1.531 . S
C254 H266 0.960 . S
C254 H267 0.962 . S
C254 H268 0.960 . S
C255 C252 1.511 . S
C255 H269 0.961 . S
C255 H270 0.961 . S
C255 H271 0.961 . S
C256 C257 1.370 . S
C256 C258 1.363 . S
C256 H272 0.931 . S
C257 C256 1.370 . S
C257 C261 1.408 . S
C258 C256 1.363 . S
C258 C259 1.370 . S
C258 C262 1.524 . S
C259 C251 1.503 . S
C259 C258 1.370 . S
C259 C260 1.403 . S
C260 C259 1.403 . S
C260 C261 1.404 . S
C260 C263 1.539 . S
C261 C257 1.408 . S
C261 C260 1.404 . S
C261 H273 0.930 . S
C262 C258 1.524 . S
C262 H274 0.956 . S
C262 H275 0.961 . S
C262 H276 0.961 . S
C263 C260 1.539 . S
C263 H277 0.958 . S
C263 H278 0.961 . S
C263 H279 0.960 . S
H264 C248 0.931 . S
H265 C253 0.929 . S
H266 C254 0.960 . S
H267 C254 0.962 . S
H268 C254 0.960 . S
H269 C255 0.961 . S
H270 C255 0.961 . S
H271 C255 0.961 . S
H272 C256 0.931 . S
H273 C261 0.930 . S
H274 C262 0.956 . S
H275 C262 0.961 . S
H276 C262 0.961 . S
H277 C263 0.958 . S
H278 C263 0.961 . S
H279 C263 0.960 . S
C280 C281 1.391 . S
C280 C282 1.394 . S
C280 H296 0.931 . S
C281 C280 1.391 . S
C281 C285 1.376 . S
C282 C280 1.394 . S
C282 C283 1.369 . S
C282 C286 1.531 . S
C283 C282 1.369 . S
C283 C284 1.410 . S
C283 C291 1.503 . S
C284 C283 1.410 . S
C284 C285 1.392 . S
C284 C287 1.511 . S
C285 C281 1.376 . S
C285 C284 1.392 . S
C285 H297 0.929 . S
C286 C282 1.531 . S
C286 H298 0.960 . S
C286 H299 0.962 . S
C286 H300 0.960 . S
C287 C284 1.511 . S
C287 H301 0.961 . S
C287 H302 0.961 . S
C287 H303 0.961 . S
C288 C289 1.370 . S
C288 C290 1.363 . S
C288 H304 0.931 . S
C289 C288 1.370 . S
C289 C293 1.408 . S
C290 C288 1.363 . S
C290 C291 1.370 . S
C290 C294 1.524 . S
C291 C283 1.503 . S
C291 C290 1.370 . S
C291 C292 1.403 . S
C292 C291 1.403 . S
C292 C293 1.404 . S
C292 C295 1.539 . S
C293 C289 1.408 . S
C293 C292 1.404 . S
C293 H305 0.930 . S
C294 C290 1.524 . S
C294 H306 0.956 . S
C294 H307 0.961 . S
C294 H308 0.961 . S
C295 C292 1.539 . S
C295 H309 0.958 . S
C295 H310 0.961 . S
C295 H311 0.960 . S
H296 C280 0.931 . S
H297 C285 0.929 . S
H298 C286 0.960 . S
H299 C286 0.962 . S
H300 C286 0.960 . S
H301 C287 0.961 . S
H302 C287 0.961 . S
H303 C287 0.961 . S
H304 C288 0.931 . S
H305 C293 0.930 . S
H306 C294 0.956 . S
H307 C294 0.961 . S
H308 C294 0.961 . S
H309 C295 0.958 . S
H310 C295 0.961 . S
H311 C295 0.960 . S
C312 C313 1.391 . S
C312 C314 1.394 . S
C312 H328 0.931 1_554 S
C313 C312 1.391 . S
C313 C317 1.376 . S
C314 C312 1.394 . S
C314 C315 1.369 . S
C314 C318 1.531 1_554 S
C315 C314 1.369 . S
C315 C316 1.410 . S
C315 C323 1.503 . S
C316 C315 1.410 . S
C316 C317 1.392 . S
C316 C319 1.511 . S
C317 C313 1.376 . S
C317 C316 1.392 . S
C317 H329 0.929 . S
C318 C314 1.531 1_556 S
C318 H330 0.960 . S
C318 H331 0.962 . S
C318 H332 0.960 . S
C319 C316 1.511 . S
C319 H333 0.961 . S
C319 H334 0.961 . S
C319 H335 0.961 . S
C320 C321 1.370 . S
C320 C322 1.363 . S
C320 H336 0.931 . S
C321 C320 1.370 . S
C321 C325 1.408 . S
C322 C320 1.363 . S
C322 C323 1.370 . S
C322 C326 1.524 . S
C323 C315 1.503 . S
C323 C322 1.370 . S
C323 C324 1.403 . S
C324 C323 1.403 . S
C324 C325 1.404 . S
C324 C327 1.539 . S
C325 C321 1.408 . S
C325 C324 1.404 . S
C325 H337 0.930 . S
C326 C322 1.524 . S
C326 H338 0.956 . S
C326 H339 0.961 . S
C326 H340 0.961 . S
C327 C324 1.539 . S
C327 H341 0.958 1_554 S
C327 H342 0.961 . S
C327 H343 0.960 . S
H328 C312 0.931 1_556 S
H329 C317 0.929 . S
H330 C318 0.960 . S
H331 C318 0.962 . S
H332 C318 0.960 . S
H333 C319 0.961 . S
H334 C319 0.961 . S
H335 C319 0.961 . S
H336 C320 0.931 . S
H337 C325 0.930 . S
H338 C326 0.956 . S
H339 C326 0.961 . S
H340 C326 0.961 . S
H341 C327 0.958 1_556 S
H342 C327 0.961 . S
H343 C327 0.960 . S
C344 C345 1.391 . S
C344 C346 1.394 1_455 S
C344 H360 0.931 1_455 S
C345 C344 1.391 . S
C345 C349 1.376 . S
C346 C344 1.394 1_655 S
C346 C347 1.369 1_655 S
C346 C350 1.531 . S
C347 C346 1.369 1_455 S
C347 C348 1.410 . S
C347 C355 1.503 1_455 S
C348 C347 1.410 . S
C348 C349 1.392 . S
C348 C351 1.511 . S
C349 C345 1.376 . S
C349 C348 1.392 . S
C349 H361 0.929 . S
C350 C346 1.531 . S
C350 H362 0.960 . S
C350 H363 0.962 . S
C350 H364 0.960 . S
C351 C348 1.511 . S
C351 H365 0.961 . S
C351 H366 0.961 . S
C351 H367 0.961 . S
C352 C353 1.370 . S
C352 C354 1.363 . S
C352 H368 0.931 . S
C353 C352 1.370 . S
C353 C357 1.408 . S
C354 C352 1.363 . S
C354 C355 1.370 . S
C354 C358 1.524 . S
C355 C347 1.503 1_655 S
C355 C354 1.370 . S
C355 C356 1.403 . S
C356 C355 1.403 . S
C356 C357 1.404 . S
C356 C359 1.539 1_655 S
C357 C353 1.408 . S
C357 C356 1.404 . S
C357 H369 0.930 . S
C358 C354 1.524 . S
C358 H370 0.956 . S
C358 H371 0.961 . S
C358 H372 0.961 . S
C359 C356 1.539 1_455 S
C359 H373 0.958 . S
C359 H374 0.961 . S
C359 H375 0.960 . S
H360 C344 0.931 1_655 S
H361 C349 0.929 . S
H362 C350 0.960 . S
H363 C350 0.962 . S
H364 C350 0.960 . S
H365 C351 0.961 . S
H366 C351 0.961 . S
H367 C351 0.961 . S
H368 C352 0.931 . S
H369 C357 0.930 . S
H370 C358 0.956 . S
H371 C358 0.961 . S
H372 C358 0.961 . S
H373 C359 0.958 . S
H374 C359 0.961 . S
H375 C359 0.960 . S
C376 C377 1.391 . S
C376 C378 1.394 . S
C376 H392 0.931 . S
C377 C376 1.391 . S
C377 C381 1.376 . S
C378 C376 1.394 . S
C378 C379 1.369 . S
C378 C382 1.531 . S
C379 C378 1.369 . S
C379 C380 1.410 1_545 S
C379 C387 1.503 1_545 S
C380 C379 1.410 1_565 S
C380 C381 1.392 1_565 S
C380 C383 1.511 . S
C381 C377 1.376 . S
C381 C380 1.392 1_545 S
C381 H393 0.929 . S
C382 C378 1.531 . S
C382 H394 0.960 . S
C382 H395 0.962 . S
C382 H396 0.960 . S
C383 C380 1.511 . S
C383 H397 0.961 . S
C383 H398 0.961 . S
C383 H399 0.961 . S
C384 C385 1.370 . S
C384 C386 1.363 1_565 S
C384 H400 0.932 . S
C385 C384 1.370 . S
C385 C389 1.408 . S
C386 C384 1.363 1_545 S
C386 C387 1.370 1_545 S
C386 C390 1.524 . S
C387 C379 1.503 1_565 S
C387 C386 1.370 1_565 S
C387 C388 1.403 . S
C388 C387 1.403 . S
C388 C389 1.404 . S
C388 C391 1.539 . S
C389 C385 1.408 . S
C389 C388 1.404 . S
C389 H401 0.930 . S
C390 C386 1.524 . S
C390 H402 0.956 . S
C390 H403 0.961 . S
C390 H404 0.961 . S
C391 C388 1.539 . S
C391 H405 0.958 . S
C391 H406 0.961 . S
C391 H407 0.960 . S
H392 C376 0.931 . S
H393 C381 0.929 . S
H394 C382 0.960 . S
H395 C382 0.962 . S
H396 C382 0.960 . S
H397 C383 0.961 . S
H398 C383 0.961 . S
H399 C383 0.961 . S
H400 C384 0.932 . S
H401 C389 0.930 . S
H402 C390 0.956 . S
H403 C390 0.961 . S
H404 C390 0.961 . S
H405 C391 0.958 . S
H406 C391 0.961 . S
H407 C391 0.960 . S
C408 C409 1.391 . S
C408 C410 1.394 . S
C408 H424 0.931 . S
C409 C408 1.391 . S
C409 C413 1.376 . S
C410 C408 1.394 . S
C410 C411 1.369 . S
C410 C414 1.531 . S
C411 C410 1.369 . S
C411 C412 1.410 . S
C411 C419 1.503 . S
C412 C411 1.410 . S
C412 C413 1.392 . S
C412 C415 1.511 . S
C413 C409 1.376 . S
C413 C412 1.392 . S
C413 H425 0.929 . S
C414 C410 1.531 . S
C414 H426 0.960 . S
C414 H427 0.962 . S
C414 H428 0.960 . S
C415 C412 1.511 . S
C415 H429 0.961 . S
C415 H430 0.961 . S
C415 H431 0.961 . S
C416 C417 1.370 . S
C416 C418 1.363 . S
C416 H432 0.931 . S
C417 C416 1.370 . S
C417 C421 1.408 . S
C418 C416 1.363 . S
C418 C419 1.370 . S
C418 C422 1.524 . S
C419 C411 1.503 . S
C419 C418 1.370 . S
C419 C420 1.403 . S
C420 C419 1.403 . S
C420 C421 1.404 . S
C420 C423 1.539 . S
C421 C417 1.408 . S
C421 C420 1.404 . S
C421 H433 0.930 . S
C422 C418 1.524 . S
C422 H434 0.956 . S
C422 H435 0.961 . S
C422 H436 0.961 . S
C423 C420 1.539 . S
C423 H437 0.958 . S
C423 H438 0.961 . S
C423 H439 0.960 . S
H424 C408 0.931 . S
H425 C413 0.929 . S
H426 C414 0.960 . S
H427 C414 0.962 . S
H428 C414 0.960 . S
H429 C415 0.961 . S
H430 C415 0.961 . S
H431 C415 0.961 . S
H432 C416 0.931 . S
H433 C421 0.930 . S
H434 C422 0.956 . S
H435 C422 0.961 . S
H436 C422 0.961 . S
H437 C423 0.958 . S
H438 C423 0.961 . S
H439 C423 0.960 . S
C440 C441 1.391 1_556 S
C440 C442 1.394 . S
C440 H456 0.931 . S
C441 C440 1.391 1_554 S
C441 C445 1.376 . S
C442 C440 1.394 . S
C442 C443 1.367 . S
C442 C446 1.531 . S
C443 C442 1.367 . S
C443 C444 1.412 1_556 S
C443 C451 1.503 1_456 S
C444 C443 1.412 1_554 S
C444 C445 1.392 . S
C444 C447 1.511 1_455 S
C445 C441 1.376 . S
C445 C444 1.392 . S
C445 H457 0.929 . S
C446 C442 1.531 . S
C446 H458 0.960 1_455 S
C446 H459 0.962 . S
C446 H460 0.960 . S
C447 C444 1.511 1_655 S
C447 H461 0.961 1_655 S
C447 H462 0.961 . S
C447 H463 0.961 . S
C448 C449 1.370 . S
C448 C450 1.363 1_655 S
C448 H464 0.931 1_655 S
C449 C448 1.370 . S
C449 C453 1.408 1_554 S
C450 C448 1.363 1_455 S
C450 C451 1.375 1_455 S
C450 C454 1.524 . S
C451 C443 1.503 1_654 S
C451 C450 1.375 1_655 S
C451 C452 1.398 1_554 S
C452 C451 1.398 1_556 S
C452 C453 1.404 . S
C452 C455 1.539 . S
C453 C449 1.408 1_556 S
C453 C452 1.404 . S
C453 H465 0.930 . S
C454 C450 1.524 . S
C454 H466 0.956 1_554 S
C454 H467 0.961 . S
C454 H468 0.961 . S
C455 C452 1.539 . S
C455 H469 0.958 . S
C455 H470 0.961 . S
C455 H471 0.960 . S
H456 C440 0.931 . S
H457 C445 0.929 . S
H458 C446 0.960 1_655 S
H459 C446 0.962 . S
H460 C446 0.960 . S
H461 C447 0.961 1_455 S
H462 C447 0.961 . S
H463 C447 0.961 . S
H464 C448 0.931 1_455 S
H465 C453 0.930 . S
H466 C454 0.956 1_556 S
H467 C454 0.961 . S
H468 C454 0.961 . S
H469 C455 0.958 . S
H470 C455 0.961 . S
H471 C455 0.960 . S
C472 C473 1.391 . S
C472 C474 1.394 . S
C472 H488 0.931 . S
C473 C472 1.391 . S
C473 C477 1.376 . S
C474 C472 1.394 . S
C474 C475 1.369 . S
C474 C478 1.531 1_565 S
C475 C474 1.369 . S
C475 C476 1.410 . S
C475 C483 1.503 1_565 S
C476 C475 1.410 . S
C476 C477 1.392 . S
C476 C479 1.511 . S
C477 C473 1.376 . S
C477 C476 1.392 . S
C477 H489 0.929 . S
C478 C474 1.531 1_545 S
C478 H490 0.960 . S
C478 H491 0.962 . S
C478 H492 0.960 . S
C479 C476 1.511 . S
C479 H493 0.961 . S
C479 H494 0.961 . S
C479 H495 0.959 1_565 S
C480 C481 1.370 . S
C480 C482 1.363 1_545 S
C480 H496 0.931 1_545 S
C481 C480 1.370 . S
C481 C485 1.408 . S
C482 C480 1.363 1_565 S
C482 C483 1.370 1_565 S
C482 C486 1.524 . S
C483 C475 1.503 1_545 S
C483 C482 1.370 1_545 S
C483 C484 1.403 . S
C484 C483 1.403 . S
C484 C485 1.404 . S
C484 C487 1.539 . S
C485 C481 1.408 . S
C485 C484 1.404 . S
C485 H497 0.930 . S
C486 C482 1.524 . S
C486 H498 0.956 . S
C486 H499 0.961 . S
C486 H500 0.961 . S
C487 C484 1.539 . S
C487 H501 0.958 . S
C487 H502 0.961 . S
C487 H503 0.960 . S
H488 C472 0.931 . S
H489 C477 0.929 . S
H490 C478 0.960 . S
H491 C478 0.962 . S
H492 C478 0.960 . S
H493 C479 0.961 . S
H494 C479 0.961 . S
H495 C479 0.959 1_545 S
H496 C480 0.931 1_565 S
H497 C485 0.930 . S
H498 C486 0.956 . S
H499 C486 0.961 . S
H500 C486 0.961 . S
H501 C487 0.958 . S
H502 C487 0.961 . S
H503 C487 0.960 . S
C504 C505 1.391 . S
C504 C506 1.394 . S
C504 H520 0.931 . S
C505 C504 1.391 . S
C505 C509 1.376 . S
C506 C504 1.394 . S
C506 C507 1.369 . S
C506 C510 1.531 . S
C507 C506 1.369 . S
C507 C508 1.410 . S
C507 C515 1.503 . S
C508 C507 1.410 . S
C508 C509 1.392 . S
C508 C511 1.511 . S
C509 C505 1.376 . S
C509 C508 1.392 . S
C509 H521 0.929 . S
C510 C506 1.531 . S
C510 H522 0.960 . S
C510 H523 0.962 . S
C510 H524 0.960 . S
C511 C508 1.511 . S
C511 H525 0.961 . S
C511 H526 0.961 . S
C511 H527 0.961 . S
C512 C513 1.370 . S
C512 C514 1.363 . S
C512 H528 0.931 . S
C513 C512 1.370 . S
C513 C517 1.408 . S
C514 C512 1.363 . S
C514 C515 1.370 . S
C514 C518 1.524 . S
C515 C507 1.503 . S
C515 C514 1.370 . S
C515 C516 1.403 . S
C516 C515 1.403 . S
C516 C517 1.404 . S
C516 C519 1.539 . S
C517 C513 1.408 . S
C517 C516 1.404 . S
C517 H529 0.930 . S
C518 C514 1.524 . S
C518 H530 0.956 . S
C518 H531 0.961 . S
C518 H532 0.961 . S
C519 C516 1.539 . S
C519 H533 0.958 . S
C519 H534 0.961 . S
C519 H535 0.960 . S
H520 C504 0.931 . S
H521 C509 0.929 . S
H522 C510 0.960 . S
H523 C510 0.962 . S
H524 C510 0.960 . S
H525 C511 0.961 . S
H526 C511 0.961 . S
H527 C511 0.961 . S
H528 C512 0.931 . S
H529 C517 0.930 . S
H530 C518 0.956 . S
H531 C518 0.961 . S
H532 C518 0.961 . S
H533 C519 0.958 . S
H534 C519 0.961 . S
H535 C519 0.960 . S
C536 C537 1.391 . S
C536 C538 1.394 . S
C536 H552 0.931 . S
C537 C536 1.391 . S
C537 C541 1.376 . S
C538 C536 1.394 . S
C538 C539 1.369 1_655 S
C538 C542 1.531 . S
C539 C538 1.369 1_455 S
C539 C540 1.410 . S
C539 C547 1.503 . S
C540 C539 1.410 . S
C540 C541 1.392 1_455 S
C540 C543 1.511 . S
C541 C537 1.376 . S
C541 C540 1.392 1_655 S
C541 H553 0.929 . S
C542 C538 1.531 . S
C542 H554 0.960 1_655 S
C542 H555 0.962 . S
C542 H556 0.960 . S
C543 C540 1.511 . S
C543 H557 0.961 . S
C543 H558 0.961 . S
C543 H559 0.961 . S
C544 C545 1.370 . S
C544 C546 1.363 . S
C544 H560 0.931 . S
C545 C544 1.370 . S
C545 C549 1.408 . S
C546 C544 1.363 . S
C546 C547 1.370 . S
C546 C550 1.524 1_455 S
C547 C539 1.503 . S
C547 C546 1.370 . S
C547 C548 1.403 . S
C548 C547 1.403 . S
C548 C549 1.404 . S
C548 C551 1.539 . S
C549 C545 1.408 . S
C549 C548 1.404 . S
C549 H561 0.930 . S
C550 C546 1.524 1_655 S
C550 H562 0.956 . S
C550 H563 0.961 . S
C550 H564 0.961 . S
C551 C548 1.539 . S
C551 H565 0.958 . S
C551 H566 0.961 . S
C551 H567 0.960 . S
H552 C536 0.931 . S
H553 C541 0.929 . S
H554 C542 0.960 1_455 S
H555 C542 0.962 . S
H556 C542 0.960 . S
H557 C543 0.961 . S
H558 C543 0.961 . S
H559 C543 0.961 . S
H560 C544 0.931 . S
H561 C549 0.930 . S
H562 C550 0.956 . S
H563 C550 0.961 . S
H564 C550 0.961 . S
H565 C551 0.958 . S
H566 C551 0.961 . S
H567 C551 0.960 . S
C568 C569 1.391 . S
C568 C570 1.394 . S
C568 H584 0.931 . S
C569 C568 1.391 . S
C569 C573 1.376 . S
C570 C568 1.394 . S
C570 C571 1.369 1_565 S
C570 C574 1.531 . S
C571 C570 1.369 1_545 S
C571 C572 1.410 . S
C571 C579 1.503 . S
C572 C571 1.410 . S
C572 C573 1.392 1_545 S
C572 C575 1.511 . S
C573 C569 1.376 . S
C573 C572 1.392 1_565 S
C573 H585 0.929 . S
C574 C570 1.531 . S
C574 H586 0.960 . S
C574 H587 0.962 . S
C574 H588 0.960 . S
C575 C572 1.511 . S
C575 H589 0.961 . S
C575 H590 0.961 . S
C575 H591 0.961 . S
C576 C577 1.370 . S
C576 C578 1.363 . S
C576 H592 0.931 . S
C577 C576 1.370 . S
C577 C581 1.408 . S
C578 C576 1.363 . S
C578 C579 1.370 . S
C578 C582 1.524 1_545 S
C579 C571 1.503 . S
C579 C578 1.370 . S
C579 C580 1.403 . S
C580 C579 1.403 . S
C580 C581 1.404 . S
C580 C583 1.539 . S
C581 C577 1.408 . S
C581 C580 1.404 . S
C581 H593 0.930 . S
C582 C578 1.524 1_565 S
C582 H594 0.956 . S
C582 H595 0.961 . S
C582 H596 0.961 . S
C583 C580 1.539 . S
C583 H597 0.958 . S
C583 H598 0.961 . S
C583 H599 0.960 . S
H584 C568 0.931 . S
H585 C573 0.929 . S
H586 C574 0.960 . S
H587 C574 0.962 . S
H588 C574 0.960 . S
H589 C575 0.961 . S
H590 C575 0.961 . S
H591 C575 0.961 . S
H592 C576 0.931 . S
H593 C581 0.930 . S
H594 C582 0.956 . S
H595 C582 0.961 . S
H596 C582 0.961 . S
H597 C583 0.958 . S
H598 C583 0.961 . S
H599 C583 0.960 . S
C600 C601 1.391 . S
C600 C602 1.394 . S
C600 H616 0.931 . S
C601 C600 1.391 . S
C601 C605 1.376 . S
C602 C600 1.394 . S
C602 C603 1.369 . S
C602 C606 1.531 . S
C603 C602 1.369 . S
C603 C604 1.410 . S
C603 C611 1.503 . S
C604 C603 1.410 . S
C604 C605 1.392 . S
C604 C607 1.511 . S
C605 C601 1.376 . S
C605 C604 1.392 . S
C605 H617 0.929 . S
C606 C602 1.531 . S
C606 H618 0.960 . S
C606 H619 0.962 . S
C606 H620 0.960 . S
C607 C604 1.511 . S
C607 H621 0.961 . S
C607 H622 0.961 . S
C607 H623 0.961 . S
C608 C609 1.370 . S
C608 C610 1.363 . S
C608 H624 0.931 . S
C609 C608 1.370 . S
C609 C613 1.408 . S
C610 C608 1.363 . S
C610 C611 1.370 . S
C610 C614 1.524 . S
C611 C603 1.503 . S
C611 C610 1.370 . S
C611 C612 1.403 . S
C612 C611 1.403 . S
C612 C613 1.404 . S
C612 C615 1.539 . S
C613 C609 1.408 . S
C613 C612 1.404 . S
C613 H625 0.930 . S
C614 C610 1.524 . S
C614 H626 0.956 . S
C614 H627 0.961 . S
C614 H628 0.961 . S
C615 C612 1.539 . S
C615 H629 0.958 . S
C615 H630 0.961 . S
C615 H631 0.960 . S
H616 C600 0.931 . S
H617 C605 0.929 . S
H618 C606 0.960 . S
H619 C606 0.962 . S
H620 C606 0.960 . S
H621 C607 0.961 . S
H622 C607 0.961 . S
H623 C607 0.961 . S
H624 C608 0.931 . S
H625 C613 0.930 . S
H626 C614 0.956 . S
H627 C614 0.961 . S
H628 C614 0.961 . S
H629 C615 0.958 . S
H630 C615 0.961 . S
H631 C615 0.960 . S
C632 C633 1.391 . S
C632 C634 1.394 1_455 S
C632 H648 0.931 1_455 S
C633 C632 1.391 . S
C633 C637 1.376 . S
C634 C632 1.394 1_655 S
C634 C635 1.369 . S
C634 C638 1.531 . S
C635 C634 1.369 . S
C635 C636 1.410 1_655 S
C635 C643 1.503 . S
C636 C635 1.410 1_455 S
C636 C637 1.392 . S
C636 C639 1.511 . S
C637 C633 1.376 . S
C637 C636 1.392 . S
C637 H649 0.929 . S
C638 C634 1.531 . S
C638 H650 0.960 . S
C638 H651 0.962 . S
C638 H652 0.960 . S
C639 C636 1.511 . S
C639 H653 0.961 . S
C639 H654 0.961 . S
C639 H655 0.961 . S
C640 C641 1.370 . S
C640 C642 1.363 . S
C640 H656 0.931 . S
C641 C640 1.370 . S
C641 C645 1.408 . S
C642 C640 1.363 . S
C642 C643 1.370 . S
C642 C646 1.524 . S
C643 C635 1.503 . S
C643 C642 1.370 . S
C643 C644 1.403 . S
C644 C643 1.403 . S
C644 C645 1.404 . S
C644 C647 1.539 . S
C645 C641 1.408 . S
C645 C644 1.404 . S
C645 H657 0.930 . S
C646 C642 1.524 . S
C646 H658 0.956 . S
C646 H659 0.961 1_655 S
C646 H660 0.961 . S
C647 C644 1.539 . S
C647 H661 0.958 . S
C647 H662 0.961 . S
C647 H663 0.960 . S
H648 C632 0.931 1_655 S
H649 C637 0.929 . S
H650 C638 0.960 . S
H651 C638 0.962 . S
H652 C638 0.960 . S
H653 C639 0.961 . S
H654 C639 0.961 . S
H655 C639 0.961 . S
H656 C640 0.931 . S
H657 C645 0.930 . S
H658 C646 0.956 . S
H659 C646 0.961 1_455 S
H660 C646 0.961 . S
H661 C647 0.958 . S
H662 C647 0.961 . S
H663 C647 0.960 . S
C664 C665 1.391 . S
C664 C666 1.394 . S
C664 H680 0.931 . S
C665 C664 1.391 . S
C665 C669 1.376 . S
C666 C664 1.394 . S
C666 C667 1.369 1_545 S
C666 C670 1.531 1_545 S
C667 C666 1.369 1_565 S
C667 C668 1.407 1_565 S
C667 C675 1.503 . S
C668 C667 1.407 1_545 S
C668 C669 1.395 . S
C668 C671 1.511 1_545 S
C669 C665 1.376 . S
C669 C668 1.395 . S
C669 H681 0.929 . S
C670 C666 1.531 1_565 S
C670 H682 0.960 . S
C670 H683 0.962 1_565 S
C670 H684 0.962 1_565 S
C671 C668 1.511 1_565 S
C671 H685 0.961 . S
C671 H686 0.961 . S
C671 H687 0.961 . S
C672 C673 1.370 . S
C672 C674 1.363 . S
C672 H688 0.931 . S
C673 C672 1.370 . S
C673 C677 1.408 . S
C674 C672 1.363 . S
C674 C675 1.370 . S
C674 C678 1.524 1_565 S
C675 C667 1.503 . S
C675 C674 1.370 . S
C675 C676 1.403 . S
C676 C675 1.403 . S
C676 C677 1.404 . S
C676 C679 1.539 . S
C677 C673 1.408 . S
C677 C676 1.404 . S
C677 H689 0.930 . S
C678 C674 1.524 1_545 S
C678 H690 0.956 . S
C678 H691 0.961 . S
C678 H692 0.961 . S
C679 C676 1.539 . S
C679 H693 0.958 . S
C679 H694 0.961 . S
C679 H695 0.960 . S
H680 C664 0.931 . S
H681 C669 0.929 . S
H682 C670 0.960 . S
H683 C670 0.962 1_545 S
H684 C670 0.962 1_545 S
H685 C671 0.961 . S
H686 C671 0.961 . S
H687 C671 0.961 . S
H688 C672 0.931 . S
H689 C677 0.930 . S
H690 C678 0.956 . S
H691 C678 0.961 . S
H692 C678 0.961 . S
H693 C679 0.958 . S
H694 C679 0.961 . S
H695 C679 0.960 . S
C121 C99 1.249 . S
C129 C2 1.237 . S
C153 C119 1.230 . S
C161 C22 1.223 . S
C185 C19 1.240 . S
C193 C42 1.239 . S
C217 C39 1.248 . S
C225 C62 1.239 . S
C249 C59 1.248 . S
C257 C82 1.234 . S
C281 C79 1.248 . S
C289 C102 1.238 . S
C313 C8 0.639 . S
C321 C68 0.777 . S
C345 C88 0.695 . S
C353 C28 0.762 . S
C377 C108 0.818 . S
C385 C48 0.697 . S
C409 C49 0.719 . S
C417 C109 0.733 . S
C441 C9 0.742 . S
C449 C69 0.720 . S
C473 C89 0.742 . S
C481 C29 0.721 . S
C505 C118 1.290 . S
C513 C1 1.281 . S
C537 C21 1.268 . S
C545 C18 1.290 . S
C569 C41 1.268 . S
C577 C38 1.289 . S
C601 C58 1.285 . S
C609 C61 1.280 . S
C633 C81 1.283 . S
C641 C78 1.293 . S
C665 C101 1.268 . S
C673 C98 1.291 . S
