# Generated by pormake.
# Topology etb, (3)-cn, num edge types: 1
# Building blocks:
#     Node 0, Type 0, BuildingBlock: WUSLED_clean_sbu_0, # of connection points: 3
#     Node 1, Type 0, BuildingBlock: WUSLED_clean_sbu_0, # of connection points: 3
#     Node 2, Type 0, BuildingBlock: WUSLED_clean_sbu_0, # of connection points: 3
#     Node 3, Type 0, BuildingBlock: WUSLED_clean_sbu_0, # of connection points: 3
#     Node 4, Type 0, BuildingBlock: WUSLED_clean_sbu_0, # of connection points: 3
#     Node 5, Type 0, BuildingBlock: WUSLED_clean_sbu_0, # of connection points: 3
#     Node 6, Type 0, BuildingBlock: WUSLED_clean_sbu_0, # of connection points: 3
#     Node 7, Type 0, BuildingBlock: WUSLED_clean_sbu_0, # of connection points: 3
#     Node 8, Type 0, BuildingBlock: WUSLED_clean_sbu_0, # of connection points: 3
#     Node 9, Type 0, BuildingBlock: WUSLED_clean_sbu_0, # of connection points: 3
#     Node 10, Type 0, BuildingBlock: WUSLED_clean_sbu_0, # of connection points: 3
#     Node 11, Type 0, BuildingBlock: WUSLED_clean_sbu_0, # of connection points: 3
#     Node 12, Type 0, BuildingBlock: WUSLED_clean_sbu_0, # of connection points: 3
#     Node 13, Type 0, BuildingBlock: WUSLED_clean_sbu_0, # of connection points: 3
#     Node 14, Type 0, BuildingBlock: WUSLED_clean_sbu_0, # of connection points: 3
#     Node 15, Type 0, BuildingBlock: WUSLED_clean_sbu_0, # of connection points: 3
#     Node 16, Type 0, BuildingBlock: WUSLED_clean_sbu_0, # of connection points: 3
#     Node 17, Type 0, BuildingBlock: WUSLED_clean_sbu_0, # of connection points: 3
#     Edge 18, Type (0, 0), BuildingBlock: OJICUG_clean_linker_0, # of connection points: 2
#     Edge 19, Type (0, 0), BuildingBlock: OJICUG_clean_linker_0, # of connection points: 2
#     Edge 20, Type (0, 0), BuildingBlock: OJICUG_clean_linker_0, # of connection points: 2
#     Edge 21, Type (0, 0), BuildingBlock: OJICUG_clean_linker_0, # of connection points: 2
#     Edge 22, Type (0, 0), BuildingBlock: OJICUG_clean_linker_0, # of connection points: 2
#     Edge 23, Type (0, 0), BuildingBlock: OJICUG_clean_linker_0, # of connection points: 2
#     Edge 24, Type (0, 0), BuildingBlock: OJICUG_clean_linker_0, # of connection points: 2
#     Edge 25, Type (0, 0), BuildingBlock: OJICUG_clean_linker_0, # of connection points: 2
#     Edge 26, Type (0, 0), BuildingBlock: OJICUG_clean_linker_0, # of connection points: 2
#     Edge 27, Type (0, 0), BuildingBlock: OJICUG_clean_linker_0, # of connection points: 2
#     Edge 28, Type (0, 0), BuildingBlock: OJICUG_clean_linker_0, # of connection points: 2
#     Edge 29, Type (0, 0), BuildingBlock: OJICUG_clean_linker_0, # of connection points: 2
#     Edge 30, Type (0, 0), BuildingBlock: OJICUG_clean_linker_0, # of connection points: 2
#     Edge 31, Type (0, 0), BuildingBlock: OJICUG_clean_linker_0, # of connection points: 2
#     Edge 32, Type (0, 0), BuildingBlock: OJICUG_clean_linker_0, # of connection points: 2
#     Edge 33, Type (0, 0), BuildingBlock: OJICUG_clean_linker_0, # of connection points: 2
#     Edge 34, Type (0, 0), BuildingBlock: OJICUG_clean_linker_0, # of connection points: 2
#     Edge 35, Type (0, 0), BuildingBlock: OJICUG_clean_linker_0, # of connection points: 2
#     Edge 36, Type (0, 0), BuildingBlock: OJICUG_clean_linker_0, # of connection points: 2
#     Edge 37, Type (0, 0), BuildingBlock: OJICUG_clean_linker_0, # of connection points: 2
#     Edge 38, Type (0, 0), BuildingBlock: OJICUG_clean_linker_0, # of connection points: 2
#     Edge 39, Type (0, 0), BuildingBlock: OJICUG_clean_linker_0, # of connection points: 2
#     Edge 40, Type (0, 0), BuildingBlock: OJICUG_clean_linker_0, # of connection points: 2
#     Edge 41, Type (0, 0), BuildingBlock: OJICUG_clean_linker_0, # of connection points: 2
#     Edge 42, Type (0, 0), BuildingBlock: OJICUG_clean_linker_0, # of connection points: 2
#     Edge 43, Type (0, 0), BuildingBlock: OJICUG_clean_linker_0, # of connection points: 2
#     Edge 44, Type (0, 0), BuildingBlock: OJICUG_clean_linker_0, # of connection points: 2
# Relax obj value: 0.000
# Max RMSD: 0.008
# Mean RMSD: 0.005
data_MOF--net-etb--node1-WUSLED_clean_sbu_0--edge1-OJICUG_clean_linker_0
_symmetry_space_group_name_H-M    P1
_symmetry_Int_Tables_number       1
_symmetry_cell_setting            triclinic
loop_
_symmetry_equiv_pos_as_xyz
'x, y, z'
_cell_length_a     96.860196
_cell_length_b     96.51993
_cell_length_c     45.479503
_cell_angle_alpha  90.267799
_cell_angle_beta   89.552436
_cell_angle_gamma 117.87544
loop_
_atom_site_label
_atom_site_type_symbol
_atom_site_fract_x
_atom_site_fract_y
_atom_site_fract_z
_atom_type_partial_charge
C0 C 0.46403 1.01135 0.1171 0.0
C1 C 0.45137 0.9961 0.11741 0.0
C2 C 0.44081 1.0019 0.16208 0.0
C3 C 0.4399 0.99146 0.13954 0.0
C4 C 0.45334 0.01722 0.16147 0.0
C5 C 0.46481 0.02185 0.13938 0.0
U6 U 0.4853 0.02696 0.04198 0.0
O7 O 0.51025 0.04267 0.03336 0.0
O8 O 0.49931 0.01873 1.01585 0.0
C9 C 0.51239 0.03179 1.01962 0.0
C10 C 0.47718 0.01581 0.09569 0.0
C11 C 0.52664 0.03037 0.02716 0.0
C12 C 0.54172 0.01598 0.02417 0.0
C13 C 0.52769 0.01665 1.02035 0.0
C14 C 0.55403 0.04268 0.04195 0.0
C15 C 0.55517 0.02906 0.03466 0.0
C16 C 0.54 0.04335 0.03815 0.0
C17 C 0.46495 0.03946 0.98131 0.0
C18 C 0.46352 0.05994 0.95215 0.0
C19 C 0.45756 0.03507 0.92954 0.0
C20 C 0.46056 0.02978 0.95622 0.0
C21 C 0.45879 0.05015 0.9272 0.0
C22 C 0.46649 0.05464 0.97883 0.0
C23 C 0.46621 0.03337 1.01067 0.0
O24 O 0.47464 1.00688 0.07231 0.0
O25 O 0.48562 0.03082 0.08984 0.0
O26 O 0.4765 0.04339 0.02902 0.0
O27 O 0.46547 0.01941 1.01164 0.0
H28 H 0.45045 0.9876 0.10088 0.0
H29 H 0.43036 0.97963 0.13905 0.0
H30 H 0.45461 0.02553 0.17865 0.0
H31 H 0.47454 0.03358 0.14024 0.0
H32 H 0.54216 1.00535 1.01792 0.0
H33 H 0.51777 1.00652 1.01129 0.0
H34 H 0.56404 0.05293 0.05044 0.0
H35 H 0.53974 0.0542 0.04324 0.0
H36 H 0.46482 0.07169 0.95118 0.0
H37 H 0.45374 0.02709 0.91101 0.0
H38 H 0.459 0.01793 0.95733 0.0
H39 H 0.46966 0.06234 0.99776 0.0
C40 C 0.06829 0.40797 0.9599 0.0
C41 C 0.06179 0.39224 0.96886 0.0
C42 C 0.05819 0.38353 0.91755 0.0
C43 C 0.05677 0.38015 0.9479 0.0
C44 C 0.06501 0.39934 0.90881 0.0
C45 C 0.06996 0.41138 0.92973 0.0
U46 U 0.08382 0.42849 0.03501 0.0
O47 O 0.0995 0.45343 0.04408 0.0
O48 O 0.07562 0.44236 0.06175 0.0
C49 C 0.08868 0.45548 0.05817 0.0
C50 C 0.07278 0.42098 0.98127 0.0
C51 C 0.08726 0.46986 0.05143 0.0
C52 C 0.07522 0.48661 0.06241 0.0
C53 C 0.07559 0.47234 0.06538 0.0
C54 C 0.09808 0.49629 0.03102 0.0
C55 C 0.0866 0.4989 0.04556 0.0
C56 C 0.09843 0.48199 0.03395 0.0
C57 C 0.09612 0.40756 0.09496 0.0
C58 C 0.1177 0.40968 0.12542 0.0
C59 C 0.09127 0.39629 0.14432 0.0
C60 C 0.08576 0.39937 0.11801 0.0
C61 C 0.1073 0.4012 0.14826 0.0
C62 C 0.11218 0.41276 0.09912 0.0
C63 C 0.09006 0.40901 0.06571 0.0
O64 O 0.06388 0.41815 1.00479 0.0
O65 O 0.08775 0.42915 0.98702 0.0
O66 O 0.10003 0.4194 0.04728 0.0
O67 O 0.07619 0.40835 0.06509 0.0
H68 H 0.06044 0.38929 0.99202 0.0
H69 H 0.05178 0.36815 0.95549 0.0
H70 H 0.06613 0.40242 0.88574 0.0
H71 H 0.07488 0.42342 0.9223 0.0
H72 H 0.06633 0.4882 0.07431 0.0
H73 H 0.06698 0.46338 0.07944 0.0
H74 H 0.10692 0.50538 1.01756 0.0
H75 H 0.1077 0.48061 0.02307 0.0
H76 H 0.13008 0.41346 0.12739 0.0
H77 H 0.08292 0.3899 0.16148 0.0
H78 H 0.0733 0.39499 0.1155 0.0
H79 H 0.12051 0.41883 0.08171 0.0
C80 C 0.68707 0.64521 0.1168 0.0
C81 C 0.69229 0.66109 0.10998 0.0
C82 C 0.70062 0.66869 0.1608 0.0
C83 C 0.69899 0.67269 0.13172 0.0
C84 C 0.69573 0.65281 0.16726 0.0
C85 C 0.68902 0.64125 0.14557 0.0
U86 U 0.68191 0.6245 0.04108 0.0
O87 O 0.6726 0.59932 0.03155 0.0
O88 O 0.66054 0.612 1.01469 0.0
C89 C 0.66023 0.59832 1.01792 0.0
C90 C 0.67865 0.63247 0.09516 0.0
C91 C 0.64482 0.58467 0.02497 0.0
C92 C 0.61703 0.56939 1.01403 0.0
C93 C 0.63133 0.58299 1.01055 0.0
C94 C 0.62923 0.55881 0.04686 0.0
C95 C 0.6158 0.55698 0.03191 0.0
C96 C 0.64355 0.57244 0.04342 0.0
C97 C 0.71465 0.6442 0.98114 0.0
C98 C 0.73487 0.6424 0.95139 0.0
C99 C 0.72086 0.65541 0.93174 0.0
C100 C 0.71206 0.65222 0.9578 0.0
C101 C 0.73257 0.65077 0.92832 0.0
C102 C 0.72609 0.63923 0.97745 0.0
C103 C 0.70704 0.64286 1.01037 0.0
O104 O 0.67283 0.63595 0.07199 0.0
O105 O 0.68492 0.62331 0.08893 0.0
O106 O 0.70635 0.6319 0.02828 0.0
O107 O 0.69434 0.64458 1.01128 0.0
H108 H 0.69094 0.66455 0.08801 0.0
H109 H 0.70245 0.68474 0.12589 0.0
H110 H 0.69704 0.64926 0.18918 0.0
H111 H 0.68509 0.6291 0.15145 0.0
H112 H 0.60706 0.56838 1.00179 0.0
H113 H 0.63194 0.59203 0.99578 0.0
H114 H 0.62874 0.54962 0.06109 0.0
H115 H 0.65369 0.57322 0.05472 0.0
H116 H 0.74391 0.63883 0.94984 0.0
H117 H 0.7186 0.66171 0.91437 0.0
H118 H 0.70352 0.65644 0.95993 0.0
H119 H 0.72866 0.63331 0.99511 0.0
C120 C 0.70496 0.04576 0.9599 0.0
C121 C 0.72059 0.05176 0.96871 0.0
C122 C 0.72931 0.05577 0.91734 0.0
C123 C 0.73264 0.05675 0.94765 0.0
C124 C 0.7136 0.04949 0.90874 0.0
C125 C 0.7016 0.04458 0.92977 0.0
U126 U 0.68443 0.02977 0.03502 0.0
O127 O 0.67041 0.03768 0.06195 0.0
O128 O 0.65955 1.01385 0.04392 0.0
C129 C 0.65737 0.0246 0.05807 0.0
C130 C 0.692 0.0412 0.9814 0.0
C131 C 0.64306 0.02598 0.05087 0.0
C132 C 0.62797 0.04037 0.05409 0.0
C133 C 0.64202 0.0397 0.05774 0.0
C134 C 0.61563 1.01365 0.03638 0.0
C135 C 0.61451 0.02728 0.04369 0.0
C136 C 0.62967 1.01299 0.04002 0.0
C137 C 0.70528 0.01691 0.09421 0.0
C138 C 0.703 0.99486 0.12376 0.0
C139 C 0.71722 0.02122 0.14281 0.0
C140 C 0.71395 0.02707 0.11707 0.0
C141 C 0.71204 1.00505 0.14629 0.0
C142 C 0.69971 1.0007 0.09807 0.0
C143 C 0.7038 0.02331 0.0653 0.0
O144 O 0.68384 0.02614 0.987 0.0
O145 O 0.69483 0.04999 1.00504 0.0
O146 O 0.70437 0.03719 0.06523 0.0
O147 O 0.69354 1.01347 0.04667 0.0
H148 H 0.72349 0.05273 0.99184 0.0
H149 H 0.74456 0.06132 0.95512 0.0
H150 H 0.71056 0.04874 0.88571 0.0
H151 H 0.68964 0.04004 0.92245 0.0
H152 H 0.62756 0.051 0.06036 0.0
H153 H 0.65196 0.04985 0.0667 0.0
H154 H 0.6056 1.0034 0.02796 0.0
H155 H 0.62993 1.00214 0.03488 0.0
H156 H 0.69862 0.98233 0.12578 0.0
H157 H 0.72436 0.02946 0.15947 0.0
H158 H 0.71867 0.03964 0.11469 0.0
H159 H 0.69316 0.9925 0.08089 0.0
C160 C 0.07183 0.63471 0.96506 0.0
C161 C 0.08279 0.6443 0.94392 0.0
C162 C 0.06291 0.64867 0.91895 0.0
C163 C 0.07841 0.65122 0.92128 0.0
C164 C 0.05201 0.63931 0.94041 0.0
C165 C 0.0564 0.63239 0.96307 0.0
U166 U 0.08705 0.6286 0.04063 0.0
O167 O 0.07843 0.60705 0.0672 0.0
O168 O 0.10234 0.61796 0.04965 0.0
C169 C 0.09131 0.60584 0.06346 0.0
C170 C 0.07603 0.62584 0.9869 0.0
C171 C 0.08948 0.59001 0.05602 0.0
C172 C 0.07669 0.56184 0.06557 0.0
C173 C 0.07757 0.57664 0.06956 0.0
C174 C 0.09951 0.57331 0.03405 0.0
C175 C 0.08777 0.55997 0.0481 0.0
C176 C 0.10037 0.58812 0.03799 0.0
C177 C 0.09986 0.66171 0.10009 0.0
C178 C 0.1211 0.67403 0.13533 0.0
C179 C 0.09722 0.67579 0.14268 0.0
C180 C 0.09104 0.66695 0.11709 0.0
C181 C 0.11245 0.67971 0.1519 0.0
C182 C 0.1149 0.66514 0.10974 0.0
C183 C 0.09374 0.65422 0.07112 0.0
O184 O 0.09094 0.63121 0.99273 0.0
O185 O 0.06708 0.62052 1.01039 0.0
O186 O 0.07978 0.64199 0.07092 0.0
O187 O 0.10359 0.65283 0.0528 0.0
H188 H 0.0947 0.64612 0.94434 0.0
H189 H 0.08709 0.65813 0.90497 0.0
H190 H 0.04002 0.63721 0.93959 0.0
H191 H 0.04757 0.62492 0.97867 0.0
H192 H 0.06762 0.55193 0.07711 0.0
H193 H 0.06916 0.57769 0.084 0.0
H194 H 0.10814 0.57233 1.02015 0.0
H195 H 0.1098 0.59813 0.02739 0.0
H196 H 0.13277 0.6766 0.14194 0.0
H197 H 0.09025 0.68008 0.15456 0.0
H198 H 0.0795 0.66464 0.11004 0.0
H199 H 0.12204 0.66131 0.09717 0.0
C200 C 0.46921 0.42779 0.11852 0.0
C201 C 0.45333 0.42163 0.11132 0.0
C202 C 0.44576 0.41466 0.16277 0.0
C203 C 0.44175 0.41514 0.13319 0.0
C204 C 0.46167 0.42048 0.16965 0.0
C205 C 0.47322 0.42698 0.14782 0.0
U206 U 0.48956 0.43253 0.04241 0.0
O207 O 0.50214 0.45392 1.01573 0.0
O208 O 0.5146 0.44163 0.03245 0.0
C209 C 0.51571 0.45409 1.01876 0.0
C210 C 0.48187 0.436 0.0966 0.0
C211 C 0.52942 0.46948 0.02561 0.0
C212 C 0.54486 0.49735 1.0144 0.0
C213 C 0.53123 0.48306 1.01107 0.0
C214 C 0.55522 0.48492 0.04726 0.0
C215 C 0.55717 0.49845 0.03221 0.0
C216 C 0.54155 0.47063 0.04398 0.0
C217 C 0.46959 0.39983 0.98283 0.0
C218 C 0.46267 0.39716 0.93082 0.0
C219 C 0.46714 0.37725 0.95448 0.0
C220 C 0.47031 0.38564 0.98096 0.0
C221 C 0.46303 0.38275 0.92911 0.0
C222 C 0.46587 0.40557 0.95732 0.0
C223 C 0.47101 0.4074 1.01206 0.0
O224 O 0.49078 0.42947 0.09026 0.0
O225 O 0.47844 0.44188 0.07344 0.0
O226 O 0.46942 0.42021 1.01313 0.0
O227 O 0.48195 0.40794 0.02966 0.0
H228 H 0.44987 0.4221 0.08891 0.0
H229 H 0.42966 0.41092 0.12702 0.0
H230 H 0.46524 0.42007 0.19199 0.0
H231 H 0.48537 0.43163 0.15397 0.0
H232 H 0.54597 0.50739 1.00209 0.0
H233 H 0.52226 0.48255 0.99636 0.0
H234 H 0.56432 0.48533 0.06145 0.0
H235 H 0.54067 0.46041 0.05537 0.0
H236 H 0.45937 0.40171 0.91192 0.0
H237 H 0.46779 0.36635 0.95401 0.0
H238 H 0.47297 0.3808 1.00025 0.0
H239 H 0.46499 0.41635 0.95795 0.0
C240 C 0.14531 0.3746 0.29702 0.0
C241 C 0.14649 0.3897 0.29615 0.0
C242 C 0.13137 0.38339 0.25076 0.0
C243 C 0.13957 0.39401 0.2734 0.0
C244 C 0.12997 0.36821 0.25195 0.0
C245 C 0.1369 0.36391 0.27466 0.0
U246 U 0.15145 0.35967 0.37299 0.0
O247 O 0.16217 0.34442 0.38225 0.0
O248 O 0.17286 0.36843 0.39948 0.0
C249 C 0.17416 0.35554 0.39597 0.0
C250 C 0.15418 0.37054 0.31903 0.0
C251 C 0.18992 0.35727 0.38856 0.0
C252 C 0.20663 0.34499 0.37963 0.0
C253 C 0.19175 0.34385 0.38327 0.0
C254 C 0.21831 0.37307 0.38611 0.0
C255 C 0.22015 0.35959 0.38141 0.0
C256 C 0.2034 0.37193 0.3897 0.0
C257 C 0.11845 0.34651 0.43277 0.0
C258 C 0.09698 0.32632 0.46103 0.0
C259 C 0.11498 0.35043 0.48487 0.0
C260 C 0.12329 0.35578 0.45837 0.0
C261 C 0.10156 0.33571 0.4865 0.0
C262 C 0.10527 0.33168 0.43455 0.0
C263 C 0.12582 0.35271 0.40359 0.0
O264 O 0.15942 0.3796 0.34234 0.0
O265 O 0.14889 0.3556 0.32516 0.0
O266 O 0.12731 0.34281 0.38552 0.0
O267 O 0.13788 0.3668 0.40281 0.0
H268 H 0.15303 0.39834 0.31272 0.0
H269 H 0.14076 0.40574 0.27345 0.0
H270 H 0.12398 0.35978 0.23473 0.0
H271 H 0.136 0.3523 0.27423 0.0
H272 H 0.20753 0.33432 0.3765 0.0
H273 H 0.18166 0.33235 0.38279 0.0
H274 H 0.22841 0.38454 0.38729 0.0
H275 H 0.2025 0.38253 0.39401 0.0
H276 H 0.08688 0.31483 0.46143 0.0
H277 H 0.11879 0.3581 0.50384 0.0
H278 H 0.13325 0.36736 0.45783 0.0
H279 H 0.10112 0.32431 0.4152 0.0
C280 C 0.73419 0.74071 0.29605 0.0
C281 C 0.74491 0.7393 0.27675 0.0
C282 C 0.72387 0.71659 0.25277 0.0
C283 C 0.73982 0.72738 0.25546 0.0
C284 C 0.7132 0.71793 0.27228 0.0
C285 C 0.71828 0.72984 0.29351 0.0
U286 U 0.75101 0.76257 0.36989 0.0
O287 O 0.76676 0.78763 0.37778 0.0
O288 O 0.7431 0.77671 0.39653 0.0
C289 C 0.7561 0.7898 0.39223 0.0
C290 C 0.73921 0.7542 0.31681 0.0
C291 C 0.75455 0.80409 0.38532 0.0
C292 C 0.74273 0.82098 0.39686 0.0
C293 C 0.74317 0.80675 0.4 0.0
C294 C 0.76493 0.83025 0.36383 0.0
C295 C 0.75376 0.83304 0.37909 0.0
C296 C 0.76535 0.81598 0.36694 0.0
C297 C 0.76355 0.74213 0.43037 0.0
C298 C 0.78419 0.74112 0.45936 0.0
C299 C 0.75922 0.73444 0.48208 0.0
C300 C 0.75385 0.73739 0.45547 0.0
C301 C 0.7744 0.73606 0.48433 0.0
C302 C 0.77882 0.74405 0.43275 0.0
C303 C 0.75739 0.74336 0.4011 0.0
O304 O 0.73063 0.75198 0.34061 0.0
O305 O 0.75426 0.76251 0.32185 0.0
O306 O 0.76732 0.7536 0.38242 0.0
O307 O 0.74353 0.74271 0.40048 0.0
H308 H 0.75723 0.74755 0.27773 0.0
H309 H 0.74842 0.72665 0.24107 0.0
H310 H 0.70081 0.71005 0.27063 0.0
H311 H 0.70964 0.73074 0.30754 0.0
H312 H 0.7341 0.82272 0.40933 0.0
H313 H 0.73486 0.79798 0.41475 0.0
H314 H 0.77349 0.83916 0.34966 0.0
H315 H 0.77439 0.81446 0.35548 0.0
H316 H 0.79601 0.74271 0.46027 0.0
H317 H 0.75123 0.73035 0.50062 0.0
H318 H 0.74194 0.73552 0.45444 0.0
H319 H 0.78654 0.74748 0.4138 0.0
C320 C 0.35279 0.97934 0.4498 0.0
C321 C 0.36206 0.97804 0.47219 0.0
C322 C 0.36668 1.0032 0.49317 0.0
C323 C 0.36896 0.98982 0.49349 0.0
C324 C 0.35754 1.00457 0.47056 0.0
C325 C 0.35066 0.9928 0.44925 0.0
U326 U 0.34715 0.95714 0.37551 0.0
O327 O 0.33795 0.9318 0.36757 0.0
O328 O 0.32568 0.94404 0.34977 0.0
C329 C 0.32545 0.93046 0.35396 0.0
C330 C 0.34423 0.96607 0.42904 0.0
C331 C 0.31016 0.91685 0.36204 0.0
C332 C 0.28162 0.90359 0.36062 0.0
C333 C 0.29598 0.91702 0.3562 0.0
C334 C 0.29516 0.88946 0.37708 0.0
C335 C 0.28098 0.88954 0.3708 0.0
C336 C 0.30953 0.90289 0.37267 0.0
C337 C 0.37962 0.97636 0.31472 0.0
C338 C 0.39996 0.97458 0.28531 0.0
C339 C 0.3859 0.98744 0.26522 0.0
C340 C 0.37704 0.98428 0.2912 0.0
C341 C 0.39768 0.98288 0.26209 0.0
C342 C 0.39111 0.97143 0.31129 0.0
C343 C 0.37202 0.97521 0.3439 0.0
O344 O 0.33808 0.96895 0.40565 0.0
O345 O 0.35047 0.95682 0.42337 0.0
O346 O 0.37155 0.96454 0.36235 0.0
O347 O 0.35923 0.97676 0.3446 0.0
H348 H 0.36379 0.96776 0.47359 0.0
H349 H 0.37605 0.98839 0.51029 0.0
H350 H 0.35529 1.01454 0.46977 0.0
H351 H 0.34337 0.99412 0.43271 0.0
H352 H 0.27101 0.90409 0.35511 0.0
H353 H 0.29596 0.92742 0.34744 0.0
H354 H 0.29519 0.87897 0.3853 0.0
H355 H 0.32017 0.90222 0.37702 0.0
H356 H 0.40904 0.97106 0.28397 0.0
H357 H 0.38365 0.99367 0.24772 0.0
H358 H 0.36846 0.98847 0.29313 0.0
H359 H 0.39367 0.9656 0.3291 0.0
C360 C 0.37364 0.38165 0.29803 0.0
C361 C 0.37592 0.37079 0.28058 0.0
C362 C 0.3978 0.39197 0.2548 0.0
C363 C 0.38785 0.37588 0.2593 0.0
C364 C 0.39561 0.4028 0.2725 0.0
C365 C 0.38367 0.39771 0.2937 0.0
U366 U 0.35153 0.36424 0.37156 0.0
O367 O 0.33697 0.37156 0.39819 0.0
O368 O 0.32655 0.34801 0.37887 0.0
C369 C 0.32408 0.35845 0.39347 0.0
C370 C 0.36013 0.37655 0.31874 0.0
C371 C 0.30969 0.35965 0.38622 0.0
C372 C 0.28152 0.3465 0.37799 0.0
C373 C 0.29563 0.34592 0.38115 0.0
C374 C 0.29517 0.37461 0.38441 0.0
C375 C 0.28103 0.36082 0.38003 0.0
C376 C 0.30931 0.37404 0.38752 0.0
C377 C 0.37184 0.35093 0.43119 0.0
C378 C 0.36958 0.32867 0.46 0.0
C379 C 0.38326 0.35482 0.4802 0.0
C380 C 0.38015 0.36088 0.45457 0.0
C381 C 0.37829 0.33866 0.48305 0.0
C382 C 0.36645 0.33471 0.43441 0.0
C383 C 0.37062 0.35762 0.40242 0.0
O384 O 0.35176 0.36141 0.3235 0.0
O385 O 0.36228 0.38498 0.34271 0.0
O386 O 0.37101 0.37143 0.40278 0.0
O387 O 0.36068 0.34796 0.38316 0.0
H388 H 0.36834 0.35832 0.283 0.0
H389 H 0.38926 0.36718 0.24636 0.0
H390 H 0.40284 0.41528 0.26943 0.0
H391 H 0.38208 0.40641 0.30633 0.0
H392 H 0.2709 0.33559 0.37508 0.0
H393 H 0.29544 0.33461 0.38055 0.0
H394 H 0.29532 0.38589 0.38576 0.0
H395 H 0.31985 0.38486 0.39165 0.0
H396 H 0.36536 0.31614 0.46153 0.0
H397 H 0.39014 0.36292 0.49727 0.0
H398 H 0.38473 0.37345 0.45269 0.0
H399 H 0.36018 0.32668 0.41681 0.0
C400 C 0.74085 0.96858 0.29457 0.0
C401 C 0.7288 0.97272 0.29826 0.0
C402 C 0.73187 0.98173 0.24728 0.0
C403 C 0.7244 0.97926 0.27491 0.0
C404 C 0.7442 0.97798 0.24401 0.0
C405 C 0.74858 0.97146 0.26728 0.0
U406 U 0.75486 0.96289 0.37183 0.0
O407 O 0.74571 0.94138 0.39867 0.0
O408 O 0.76984 0.95209 0.38229 0.0
C409 C 0.75856 0.94004 0.39579 0.0
C410 C 0.74462 0.95995 0.31749 0.0
C411 C 0.75669 0.92417 0.38867 0.0
C412 C 0.74423 0.89614 0.39946 0.0
C413 C 0.74516 0.91097 0.40329 0.0
C414 C 0.76624 0.90725 0.36595 0.0
C415 C 0.75489 0.89409 0.38106 0.0
C416 C 0.76714 0.92209 0.36971 0.0
C417 C 0.76755 0.99606 0.43102 0.0
C418 C 0.76353 0.99899 0.48331 0.0
C419 C 0.78719 0.01786 0.45924 0.0
C420 C 0.78205 1.00964 0.43271 0.0
C421 C 0.77792 1.0128 0.48486 0.0
C422 C 0.7584 0.99074 0.45674 0.0
C423 C 0.76161 0.98869 0.40183 0.0
O424 O 0.75945 0.96535 0.32404 0.0
O425 O 0.73535 0.95492 0.34062 0.0
O426 O 0.74754 0.97663 0.40087 0.0
O427 O 0.77161 0.98712 0.38419 0.0
H428 H 0.72251 0.97058 0.31892 0.0
H429 H 0.71478 0.98189 0.27823 0.0
H430 H 0.75043 0.97996 0.2233 0.0
H431 H 0.75784 0.96832 0.26371 0.0
H432 H 0.73548 0.88638 0.41181 0.0
H433 H 0.73709 0.9122 0.41839 0.0
H434 H 0.77453 0.90612 0.35133 0.0
H435 H 0.77625 0.93197 0.35821 0.0
H436 H 0.75596 0.9948 0.5024 0.0
H437 H 0.79843 0.02828 0.45957 0.0
H438 H 0.78931 1.01414 0.41326 0.0
H439 H 0.74708 0.98044 0.45627 0.0
C440 C 0.15273 0.74668 0.29418 0.0
C441 C 0.14256 0.73097 0.30124 0.0
C442 C 0.13934 0.72392 0.24903 0.0
C443 C 0.13593 0.71971 0.27888 0.0
C444 C 0.14936 0.73975 0.24223 0.0
C445 C 0.15596 0.75095 0.26452 0.0
U446 U 0.15551 0.76556 0.371 0.0
O447 O 0.17612 0.77788 0.39932 0.0
O448 O 0.16419 0.79053 0.38185 0.0
C449 C 0.17639 0.79155 0.39613 0.0
C450 C 0.16046 0.75884 0.317 0.0
C451 C 0.1918 0.80535 0.38946 0.0
C452 C 0.22031 0.81858 0.39208 0.0
C453 C 0.20589 0.80511 0.3958 0.0
C454 C 0.20698 0.83289 0.37549 0.0
C455 C 0.22108 0.83272 0.38212 0.0
C456 C 0.19256 0.81943 0.3792 0.0
C457 C 0.12047 0.74393 0.42597 0.0
C458 C 0.11847 0.74524 0.47934 0.0
C459 C 0.09506 0.73187 0.45025 0.0
C460 C 0.10414 0.73556 0.42463 0.0
C461 C 0.10206 0.73645 0.47803 0.0
C462 C 0.12761 0.7489 0.45353 0.0
C463 C 0.12947 0.74634 0.3983 0.0
O464 O 0.15394 0.76779 0.32304 0.0
O465 O 0.16541 0.75467 0.34054 0.0
O466 O 0.14238 0.74505 0.39942 0.0
O467 O 0.13063 0.75774 0.38108 0.0
H468 H 0.13987 0.72739 0.324 0.0
H469 H 0.12836 0.70764 0.28501 0.0
H470 H 0.15203 0.74355 0.21959 0.0
H471 H 0.1637 0.76301 0.25854 0.0
H472 H 0.23086 0.818 0.39784 0.0
H473 H 0.2058 0.7946 0.40427 0.0
H474 H 0.20705 0.84346 0.36743 0.0
H475 H 0.18198 0.82016 0.37446 0.0
H476 H 0.12427 0.74893 0.50035 0.0
H477 H 0.08247 0.72538 0.44825 0.0
H478 H 0.09837 0.73162 0.40364 0.0
H479 H 0.14021 0.75537 0.45514 0.0
C480 C 0.79863 0.67909 0.78291 0.0
C481 C 0.78589 0.66388 0.78314 0.0
C482 C 0.77544 0.66969 0.82794 0.0
C483 C 0.77444 0.65927 0.8053 0.0
C484 C 0.78804 0.68497 0.8274 0.0
C485 C 0.79949 0.68958 0.80529 0.0
U486 U 0.8199 0.69466 0.70778 0.0
O487 O 0.84484 0.71037 0.69917 0.0
O488 O 0.83393 0.68641 0.68172 0.0
C489 C 0.847 0.69948 0.68553 0.0
C490 C 0.81176 0.68351 0.76149 0.0
C491 C 0.86122 0.69803 0.69323 0.0
C492 C 0.87684 0.68429 0.68799 0.0
C493 C 0.86282 0.68493 0.68386 0.0
C494 C 0.88805 0.70979 0.71116 0.0
C495 C 0.88974 0.6968 0.70137 0.0
C496 C 0.87402 0.71042 0.70707 0.0
C497 C 0.79955 0.70724 0.64721 0.0
C498 C 0.79307 0.70323 0.59501 0.0
C499 C 0.79709 0.72732 0.61861 0.0
C500 C 0.80011 0.72203 0.64524 0.0
C501 C 0.79327 0.7179 0.59319 0.0
C502 C 0.79612 0.69796 0.62166 0.0
C503 C 0.80082 0.70109 0.6765 0.0
O504 O 0.8092 0.67458 0.73811 0.0
O505 O 0.82022 0.69852 0.75563 0.0
O506 O 0.81111 0.7111 0.69487 0.0
O507 O 0.80009 0.68714 0.67737 0.0
H508 H 0.7849 0.6554 0.76653 0.0
H509 H 0.76484 0.64747 0.80476 0.0
H510 H 0.78938 0.69327 0.84466 0.0
H511 H 0.80927 0.70127 0.8062 0.0
H512 H 0.87773 0.67419 0.67976 0.0
H513 H 0.85335 0.67531 0.67258 0.0
H514 H 0.89762 0.71956 0.72189 0.0
H515 H 0.87334 0.7208 0.71423 0.0
H516 H 0.78999 0.69554 0.57608 0.0
H517 H 0.7976 0.73876 0.61806 0.0
H518 H 0.80254 0.72941 0.66454 0.0
H519 H 0.79536 0.68641 0.62236 0.0
C520 C 0.40142 0.07463 0.62938 0.0
C521 C 0.38887 0.05967 0.63489 0.0
C522 C 0.39125 0.05088 0.58545 0.0
C523 C 0.38387 0.04796 0.61322 0.0
C524 C 0.40403 0.06575 0.58029 0.0
C525 C 0.40899 0.07746 0.60192 0.0
U526 U 0.41719 0.09563 0.70426 0.0
O527 O 0.43276 0.12063 0.71304 0.0
O528 O 0.40894 0.10944 0.73106 0.0
C529 C 0.42193 0.12259 0.7273 0.0
C530 C 0.40596 0.08776 0.65072 0.0
C531 C 0.42036 0.13689 0.72062 0.0
C532 C 0.40886 0.15393 0.73316 0.0
C533 C 0.40933 0.13971 0.73621 0.0
C534 C 0.43031 0.16284 0.69843 0.0
C535 C 0.4195 0.16581 0.71458 0.0
C536 C 0.43076 0.14859 0.70144 0.0
C537 C 0.42973 0.07495 0.76425 0.0
C538 C 0.42563 0.06815 0.81639 0.0
C539 C 0.44988 0.07281 0.79284 0.0
C540 C 0.44459 0.07583 0.76623 0.0
C541 C 0.4404 0.0687 0.81823 0.0
C542 C 0.42035 0.07119 0.78976 0.0
C543 C 0.42363 0.07631 0.73502 0.0
O544 O 0.39714 0.08519 0.67429 0.0
O545 O 0.42095 0.0961 0.65624 0.0
O546 O 0.4336 0.08676 0.71668 0.0
O547 O 0.4097 0.07553 0.73429 0.0
H548 H 0.38267 0.05708 0.6557 0.0
H549 H 0.37389 0.03676 0.61797 0.0
H550 H 0.4102 0.0684 0.55944 0.0
H551 H 0.41862 0.08887 0.59694 0.0
H552 H 0.40051 0.15581 0.74631 0.0
H553 H 0.40133 0.13109 0.75154 0.0
H554 H 0.43857 0.17161 0.68363 0.0
H555 H 0.43951 0.14692 0.68923 0.0
H556 H 0.41788 0.06482 0.83529 0.0
H557 H 0.4614 0.07359 0.79341 0.0
H558 H 0.45204 0.07851 0.74695 0.0
H559 H 0.40874 0.07019 0.78907 0.0
C560 C 1.01996 0.31044 0.78494 0.0
C561 C 0.02826 0.32629 0.77673 0.0
C562 C 0.03367 0.3342 0.82834 0.0
C563 C 0.03503 0.33804 0.79819 0.0
C564 C 0.02565 0.31826 0.83628 0.0
C565 C 1.01887 0.30657 0.81485 0.0
U566 U 1.01502 0.29024 0.70884 0.0
O567 O 1.00572 0.26512 0.69875 0.0
O568 O 0.99367 0.27789 0.68236 0.0
C569 C 0.99335 0.2642 0.68523 0.0
C570 C 1.01165 0.29781 0.76318 0.0
C571 C 0.97794 0.25051 0.69212 0.0
C572 C 0.95014 0.23532 0.68119 0.0
C573 C 0.96445 0.24893 0.67786 0.0
C574 C 0.96235 0.22452 0.7135 0.0
C575 C 0.94891 0.2228 0.69872 0.0
C576 C 0.97668 0.23816 0.71022 0.0
C577 C 0.04758 0.31022 0.64886 0.0
C578 C 0.0507 0.31807 0.59723 0.0
C579 C 0.06957 0.31175 0.61981 0.0
C580 C 0.06122 0.30859 0.64639 0.0
C581 C 0.06457 0.31677 0.59493 0.0
C582 C 0.04234 0.31488 0.62383 0.0
C583 C 0.04011 0.30879 0.67824 0.0
O584 O 1.00588 0.30145 0.74014 0.0
O585 O 1.01807 0.28882 0.75663 0.0
O586 O 0.03947 0.2977 0.69575 0.0
O587 O 0.02744 0.31054 0.67959 0.0
H588 H 0.02928 0.32962 0.75379 0.0
H589 H 0.04097 0.35015 0.79117 0.0
H590 H 0.02457 0.31478 0.85913 0.0
H591 H 1.01256 0.29443 0.82173 0.0
H592 H 0.94016 0.2344 0.66909 0.0
H593 H 0.96505 0.25807 0.66336 0.0
H594 H 0.96186 0.21524 0.72747 0.0
H595 H 0.98682 0.23886 0.72138 0.0
H596 H 0.04656 0.32209 0.57874 0.0
H597 H 0.08004 0.31038 0.61887 0.0
H598 H 0.0657 0.30521 0.6653 0.0
H599 H 0.03201 0.31649 0.62492 0.0
C600 C 0.03774 0.71078 0.62566 0.0
C601 C 0.05381 0.71928 0.63166 0.0
C602 C 0.06012 0.71871 0.57957 0.0
C603 C 0.06488 0.72323 0.60882 0.0
C604 C 0.04401 0.71012 0.57388 0.0
C605 C 0.03301 0.70623 0.5966 0.0
U606 U 1.01858 0.69681 0.70301 0.0
O607 O 1.00517 0.70567 0.72948 0.0
O608 O 0.99379 0.68145 0.71341 0.0
C609 C 0.99197 0.69262 0.72669 0.0
C610 C 0.02554 0.70711 0.64859 0.0
C611 C 0.97772 0.69409 0.7194 0.0
C612 C 0.96215 0.70785 0.72521 0.0
C613 C 0.97617 0.70717 0.72907 0.0
C614 C 0.95084 0.68243 0.70172 0.0
C615 C 0.9492 0.69541 0.7118 0.0
C616 C 0.96487 0.68176 0.70553 0.0
C617 C 0.03917 0.68398 0.76259 0.0
C618 C 0.04911 0.68861 0.81286 0.0
C619 C 0.03808 0.66248 0.79236 0.0
C620 C 0.03512 0.66805 0.766 0.0
C621 C 0.04531 0.67271 0.81607 0.0
C622 C 0.04613 0.69417 0.78647 0.0
C623 C 0.03779 0.69012 0.73332 0.0
O624 O 1.01704 0.69223 0.65527 0.0
O625 O 0.02918 0.71641 0.67163 0.0
O626 O 0.0388 0.70419 0.73247 0.0
O627 O 0.0272 0.68018 0.71529 0.0
H628 H 0.0578 0.72296 0.6539 0.0
H629 H 0.07717 0.72974 0.6141 0.0
H630 H 0.03983 0.70666 0.55167 0.0
H631 H 1.0207 0.6998 0.59134 0.0
H632 H 0.9613 0.71795 0.73363 0.0
H633 H 0.98568 0.71674 0.74036 0.0
H634 H 0.94123 0.67271 0.69095 0.0
H635 H 0.9655 0.6714 0.69811 0.0
H636 H 0.05452 0.69682 0.83069 0.0
H637 H 0.0352 0.65023 0.79374 0.0
H638 H 0.03004 0.6599 0.74794 0.0
H639 H 0.04961 0.70656 0.7846 0.0
C640 C 0.40679 0.30154 0.63079 0.0
C641 C 0.39454 0.30541 0.6344 0.0
C642 C 0.39783 0.31483 0.58368 0.0
C643 C 0.39015 0.31201 0.61114 0.0
C644 C 0.41035 0.31135 0.5805 0.0
C645 C 0.41471 0.30476 0.60368 0.0
U646 U 0.42089 0.29577 0.70787 0.0
O647 O 0.41172 0.27426 0.73472 0.0
O648 O 0.43582 0.2849 0.7182 0.0
C649 C 0.42454 0.27288 0.73176 0.0
C650 C 0.41057 0.29286 0.6536 0.0
C651 C 0.4226 0.25699 0.72464 0.0
C652 C 0.41041 0.22905 0.73612 0.0
C653 C 0.4114 0.2439 0.74002 0.0
C654 C 0.43171 0.23993 0.70102 0.0
C655 C 0.42069 0.22687 0.71687 0.0
C656 C 0.43266 0.25479 0.70485 0.0
C657 C 0.43366 0.3289 0.76718 0.0
C658 C 0.45399 0.34986 0.79591 0.0
C659 C 0.42917 0.33285 0.81877 0.0
C660 C 0.42395 0.32456 0.79228 0.0
C661 C 0.4442 0.34575 0.82089 0.0
C662 C 0.44877 0.34159 0.76944 0.0
C663 C 0.42771 0.32157 0.73794 0.0
O664 O 0.42541 0.29824 0.66006 0.0
O665 O 0.40134 0.28782 0.67677 0.0
O666 O 0.41362 0.30953 0.73697 0.0
O667 O 0.43768 0.31997 0.72024 0.0
H668 H 0.38809 0.303 0.65491 0.0
H669 H 0.38039 0.31442 0.61439 0.0
H670 H 0.41674 0.3136 0.55992 0.0
H671 H 0.42412 0.30183 0.60016 0.0
H672 H 0.40193 0.21938 0.74905 0.0
H673 H 0.40364 0.24523 0.75575 0.0
H674 H 0.4397 0.23869 0.68574 0.0
H675 H 0.4415 0.26459 0.69273 0.0
H676 H 0.4657 0.35956 0.79671 0.0
H677 H 0.42119 0.32943 0.83733 0.0
H678 H 0.41215 0.31501 0.79134 0.0
H679 H 0.45648 0.34538 0.75047 0.0
C680 C 0.80228 0.09342 0.78416 0.0
C681 C 0.78646 0.08563 0.77611 0.0
C682 C 0.77852 0.07987 0.82773 0.0
C683 C 0.77471 0.07894 0.79765 0.0
C684 C 0.79442 0.08737 0.83549 0.0
C685 C 0.80612 0.09407 0.81399 0.0
U686 U 0.82257 0.09842 0.70799 0.0
O687 O 0.83517 0.11994 0.68165 0.0
O688 O 0.8476 0.10752 0.69793 0.0
C689 C 0.84873 0.12006 0.68452 0.0
C690 C 0.81495 0.1017 0.76236 0.0
C691 C 0.86246 0.13541 0.69153 0.0
C692 C 0.87791 0.16332 0.68081 0.0
C693 C 0.86426 0.14907 0.67735 0.0
C694 C 0.88829 0.1507 0.71312 0.0
C695 C 0.89024 0.16432 0.69842 0.0
C696 C 0.87461 0.13643 0.7097 0.0
C697 C 0.80256 0.06614 0.64772 0.0
C698 C 0.80159 0.0445 0.61816 0.0
C699 C 0.79434 0.06296 0.5964 0.0
C700 C 0.79745 0.07121 0.62307 0.0
C701 C 0.79615 0.04935 0.59365 0.0
C702 C 0.80469 0.05274 0.64481 0.0
C703 C 0.80396 0.07349 0.6772 0.0
O704 O 0.82377 0.0951 0.75576 0.0
O705 O 0.8115 0.10767 0.73937 0.0
O706 O 0.8024 0.0863 0.67868 0.0
O707 O 0.81488 0.07389 0.69472 0.0
H708 H 0.78315 0.08496 0.75324 0.0
H709 H 0.76264 0.07341 0.79076 0.0
H710 H 0.79787 0.08809 0.85827 0.0
H711 H 0.81823 0.09998 0.82075 0.0
H712 H 0.87901 0.17345 0.66877 0.0
H713 H 0.85527 0.14865 0.66279 0.0
H714 H 0.89742 0.15101 0.72715 0.0
H715 H 0.87373 0.12615 0.72081 0.0
H716 H 0.80336 0.03424 0.61686 0.0
H717 H 0.78998 0.06696 0.57823 0.0
H718 H 0.79543 0.08132 0.62452 0.0
H719 H 0.8084 0.04838 0.66343 0.0
C720 C 0.5851 1.01459 0.04887 0.0
C721 C 0.59929 0.02772 0.04122 0.0
H722 H 0.56025 1.00475 0.05336 0.0
C723 C 0.5988 0.04132 0.03156 0.0
H724 H 0.58499 1.00399 0.05692 0.0
C725 C 0.58457 0.04176 0.02957 0.0
C726 C 0.57038 0.02863 0.0372 0.0
H727 H 0.60942 0.0516 0.02506 0.0
H728 H 0.58469 0.05236 1.02151 0.0
C729 C 0.57087 0.01503 0.04688 0.0
C730 C 0.07295 0.51573 0.04328 0.0
C731 C 0.0869 0.51456 0.04439 0.0
H732 H 0.06226 0.5308 0.04298 0.0
C733 C 0.10114 0.52851 0.04556 0.0
H734 H 0.06177 0.50529 0.04189 0.0
C735 C 0.10142 0.54317 0.04618 0.0
C736 C 0.08747 0.54434 0.04566 0.0
H737 H 0.11211 0.52813 0.04694 0.0
H738 H 0.1126 0.55358 0.04801 0.0
C739 C 0.07324 0.5304 0.04391 0.0
C740 C 0.58666 0.51335 0.03403 0.0
C741 C 0.57217 0.51347 0.03397 0.0
H742 H 0.6116 0.52678 0.03306 0.0
C743 C 0.5722 0.52807 0.03445 0.0
H744 H 0.58717 0.50239 0.03318 0.0
C745 C 0.58627 0.54212 0.03438 0.0
C746 C 0.60076 0.54201 0.03383 0.0
H747 H 0.56131 0.52867 0.03492 0.0
H748 H 0.58578 0.5531 0.0348 0.0
C749 C 0.60073 0.5274 0.03396 0.0
C750 C 0.25379 0.35128 0.35991 0.0
C751 C 0.26575 0.36121 0.37898 0.0
H752 H 0.23029 0.34319 0.34522 0.0
C753 C 0.26275 0.37107 0.39797 0.0
H754 H 0.25571 0.34371 0.34463 0.0
C755 C 0.24813 0.37077 0.39831 0.0
C756 C 0.23606 0.3606 0.37967 0.0
H757 H 0.27153 0.37869 0.41332 0.0
H758 H 0.24615 0.37818 0.41391 0.0
C759 C 0.23917 0.35098 0.36025 0.0
C760 C 0.74032 0.86448 0.37812 0.0
C761 C 0.75457 0.87844 0.37872 0.0
H762 H 0.72884 0.83937 0.37712 0.0
C763 C 0.76854 0.8773 0.37818 0.0
H764 H 0.72932 0.86487 0.37803 0.0
C765 C 0.76826 0.86265 0.37768 0.0
C766 C 0.75401 0.84868 0.37769 0.0
H767 H 0.77974 0.88774 0.37909 0.0
H768 H 0.77927 0.8623 0.37826 0.0
C769 C 0.74004 0.84983 0.3776 0.0
C770 C 0.25229 0.87566 0.38451 0.0
C771 C 0.26566 0.87496 0.37404 0.0
H772 H 0.22798 0.86308 0.3957 0.0
C773 C 0.2642 0.86019 0.36626 0.0
H774 H 0.25295 0.88674 0.39115 0.0
C775 C 0.24983 0.84657 0.36884 0.0
C776 C 0.23645 0.84728 0.37925 0.0
H777 H 0.27413 0.85915 0.3576 0.0
H778 H 0.24916 0.83549 0.36216 0.0
C779 C 0.23791 0.86204 0.38709 0.0
C780 C 0.91969 0.68215 0.71369 0.0
C781 C 0.93397 0.69578 0.70903 0.0
H782 H 0.89473 0.67181 0.71553 0.0
C783 C 0.93354 0.70976 0.70206 0.0
H784 H 0.91952 0.67122 0.71964 0.0
C785 C 0.91927 0.7101 0.69973 0.0
C786 C 0.90499 0.69647 0.70435 0.0
H787 H 0.94424 0.72044 0.6979 0.0
H788 H 0.91944 0.72103 0.69375 0.0
C789 C 0.90543 0.68249 0.71138 0.0
C790 C 0.40606 0.19726 0.71477 0.0
C791 C 0.42032 0.21121 0.71437 0.0
H792 H 0.39457 0.17214 0.7145 0.0
C793 C 0.43427 0.21006 0.71273 0.0
H794 H 0.39507 0.19764 0.71553 0.0
C795 C 0.43398 0.1954 0.71216 0.0
C796 C 0.41974 0.18144 0.7132 0.0
H797 H 0.44549 0.22051 0.71284 0.0
H798 H 0.44499 0.19504 0.71187 0.0
C799 C 0.40578 0.18259 0.71418 0.0
C800 C 0.93381 0.19321 0.70018 0.0
C801 C 0.93386 0.20782 0.70047 0.0
H802 H 0.92022 0.16821 0.69894 0.0
C803 C 0.91939 0.20796 0.70129 0.0
H804 H 0.94467 0.19258 0.69906 0.0
C805 C 0.9053 0.19392 0.70121 0.0
C806 C 0.90525 0.17931 0.70032 0.0
H807 H 0.91892 0.21894 0.70202 0.0
H808 H 0.89443 0.19453 0.7019 0.0
C809 C 0.91973 0.17917 0.70011 0.0
C810 C 0.41344 1.0023 0.22259 0.0
C811 C 0.40805 0.9874 0.23543 0.0
H812 H 0.42773 0.01847 0.18945 0.0
C813 C 0.41313 0.97712 0.22321 0.0
H814 H 0.40996 1.01063 0.23151 0.0
C815 C 0.42349 0.9817 0.1992 0.0
C816 C 0.42911 0.99671 0.18671 0.0
H817 H 0.40913 0.9655 0.23226 0.0
H818 H 0.42739 0.97358 0.19089 0.0
C819 C 0.42382 1.00689 0.19862 0.0
C820 C 0.13316 0.40325 0.21286 0.0
C821 C 0.12481 0.38825 0.22544 0.0
H822 H 0.1342 0.41916 0.17915 0.0
C823 C 0.11039 0.37777 0.21297 0.0
H824 H 0.14438 0.4116 0.22158 0.0
C825 C 0.10462 0.38206 0.18838 0.0
C826 C 0.1131 0.39696 0.17547 0.0
H827 H 0.10352 0.36619 0.22219 0.0
H828 H 0.09365 0.37351 0.17906 0.0
C829 C 0.1274 0.40753 0.18823 0.0
C830 C 0.72484 0.70745 0.2009 0.0
C831 C 0.71829 0.7042 0.22939 0.0
H832 H 0.72461 0.69893 0.15719 0.0
C833 C 0.70608 0.68908 0.23514 0.0
H834 H 0.73414 0.71898 0.19548 0.0
C835 C 0.70048 0.67763 0.21305 0.0
C836 C 0.70692 0.6809 0.18449 0.0
H837 H 0.70084 0.68604 0.25683 0.0
H838 H 0.69087 0.66625 0.21831 0.0
C839 C 0.71923 0.69598 0.17877 0.0
C840 C 0.06042 0.37215 0.86859 0.0
C841 C 0.05221 0.37068 0.89508 0.0
H842 H 0.06126 0.36185 0.82719 0.0
C843 C 0.03799 0.357 0.89954 0.0
H844 H 0.07152 0.3824 0.86451 0.0
C845 C 0.03207 0.34522 0.87805 0.0
C846 C 0.0402 0.34672 0.85145 0.0
H847 H 0.03119 0.35554 0.91937 0.0
H848 H 1.02089 0.33507 0.88207 0.0
C849 C 0.05451 0.36034 0.84711 0.0
C850 C 0.75859 0.67475 0.86471 0.0
C851 C 0.76377 0.66453 0.85263 0.0
H852 H 0.74489 0.67855 0.89785 0.0
C853 C 0.75809 0.64948 0.86501 0.0
H854 H 0.76255 0.68636 0.85562 0.0
C855 C 0.7478 0.64493 0.88911 0.0
C856 C 0.74284 0.65526 0.90153 0.0
H857 H 0.7619 0.64132 0.85656 0.0
H858 H 0.74375 0.63329 0.89808 0.0
C859 C 0.74828 0.67019 0.88878 0.0
C860 C 0.44649 0.0643 0.89985 0.0
C861 C 0.45461 0.05542 0.89924 0.0
H862 H 0.43587 0.07562 0.87515 0.0
C863 C 0.45832 0.05129 0.87169 0.0
H864 H 0.44324 0.06757 0.92057 0.0
C865 C 0.45389 0.05574 0.84556 0.0
C866 C 0.44562 0.06447 0.84617 0.0
H867 H 0.4647 0.0446 0.87025 0.0
H868 H 0.4567 0.05202 0.82486 0.0
C869 C 0.44207 0.06876 0.87372 0.0
C870 C 0.75216 0.05939 0.84643 0.0
C871 C 0.76603 0.07343 0.85095 0.0
H872 H 0.72994 0.04268 0.86378 0.0
C873 C 0.7678 0.0814 0.87781 0.0
H874 H 0.75044 0.05277 0.82629 0.0
C875 C 0.75605 0.07557 0.8994 0.0
C876 C 0.74213 0.06163 0.89476 0.0
H877 H 0.77815 0.09238 0.88199 0.0
H878 H 0.75772 0.08225 0.91946 0.0
C879 C 0.74039 0.05358 0.86801 0.0
C880 C 0.06373 0.676 0.85771 0.0
C881 C 0.04942 0.66691 0.84344 0.0
H882 H 0.07911 0.67755 0.89266 0.0
C883 C 0.03936 0.65201 0.85496 0.0
H884 H 0.07188 0.68745 0.84938 0.0
C885 C 0.04359 0.64625 0.87966 0.0
C886 C 0.05804 0.6552 0.89358 0.0
H887 H 0.02817 0.64472 0.84483 0.0
H888 H 0.03568 0.63457 0.88737 0.0
C889 C 0.06798 0.67023 0.88239 0.0
C890 C 0.46288 0.38052 0.87363 0.0
C891 C 0.45863 0.37325 0.90135 0.0
H892 H 0.46162 0.37772 0.82683 0.0
C893 C 0.44982 0.35679 0.90231 0.0
H894 H 0.46978 0.39312 0.87191 0.0
C895 C 0.44529 0.34791 0.87638 0.0
C896 C 0.44943 0.35519 0.84865 0.0
H897 H 0.44613 0.35074 0.92315 0.0
H898 H 0.43858 0.33528 0.87811 0.0
C899 C 0.45835 0.37163 0.84769 0.0
C900 C 0.11703 0.70004 0.22624 0.0
C901 C 0.13259 0.71201 0.22495 0.0
H902 H 0.09853 0.68042 0.20462 0.0
C903 C 0.14162 0.71276 0.2 0.0
H904 H 0.10967 0.69911 0.24497 0.0
C905 C 0.13519 0.70212 0.17674 0.0
C906 C 0.11953 0.69038 0.17769 0.0
H907 H 0.15371 0.72164 0.19833 0.0
H908 H 0.14243 0.7034 0.15764 0.0
C909 C 0.11058 0.6894 0.20291 0.0
C910 C 0.40739 0.39004 0.20378 0.0
C911 C 0.41021 0.39749 0.23142 0.0
H912 H 0.41627 0.38944 0.16072 0.0
C913 C 0.4249 0.41048 0.23631 0.0
H914 H 0.39617 0.38012 0.19903 0.0
C915 C 0.43638 0.41593 0.2142 0.0
C916 C 0.43353 0.40857 0.18648 0.0
H917 H 0.4276 0.41644 0.25735 0.0
H918 H 0.44742 0.42613 0.21875 0.0
C919 C 0.41887 0.39552 0.18163 0.0
C920 C 0.71727 1.0051 0.20081 0.0
C921 C 0.71673 0.99891 0.17248 0.0
H922 H 0.72249 1.00467 0.24648 0.0
C923 C 0.72108 0.98697 0.16917 0.0
H924 H 0.7139 1.01422 0.20428 0.0
C925 C 0.7259 0.98144 0.19335 0.0
C926 C 0.72655 0.98767 0.22165 0.0
H927 H 0.72102 0.98203 0.14771 0.0
H928 H 0.72903 0.97215 0.18983 0.0
C929 C 0.72207 0.99952 0.22509 0.0
C930 C 0.07567 0.32227 0.51343 0.0
C931 C 0.09211 0.33041 0.5143 0.0
H932 H 0.05418 0.31143 0.53777 0.0
C933 C 0.09938 0.33372 0.54197 0.0
H934 H 0.0696 0.31965 0.49263 0.0
C935 C 0.09049 0.32917 0.56796 0.0
C936 C 0.07405 0.32116 0.5671 0.0
H937 H 0.11199 0.33982 0.54362 0.0
H938 H 0.09655 0.33223 0.58878 0.0
C939 C 0.06678 0.31771 0.53942 0.0
C940 C 0.77994 0.73105 0.56593 0.0
C941 C 0.78896 0.72308 0.56527 0.0
H942 H 0.76851 0.74156 0.54132 0.0
C943 C 0.79347 0.71978 0.5377 0.0
H944 H 0.77606 0.73364 0.58664 0.0
C945 C 0.78894 0.72416 0.51159 0.0
C946 C 0.77976 0.73196 0.51225 0.0
H947 H 0.80054 0.71382 0.53623 0.0
H948 H 0.79238 0.7211 0.49085 0.0
C949 C 0.77542 0.73543 0.53983 0.0
C950 C 0.37925 0.03145 0.51004 0.0
C951 C 0.37343 0.01546 0.5167 0.0
H952 H 0.38918 0.05501 0.52615 0.0
C953 C 0.37382 1.01125 0.54619 0.0
H954 H 0.37932 0.0352 0.48761 0.0
C955 C 0.37971 0.02268 0.56834 0.0
C956 C 0.38538 0.03867 0.56171 0.0
H957 H 0.3693 0.99907 0.55233 0.0
H958 H 0.37986 0.01896 0.59071 0.0
C959 C 0.38511 0.04287 0.53218 0.0
C960 C 0.78003 1.0147 0.54033 0.0
C961 C 0.78298 0.02214 0.51275 0.0
H962 H 0.78166 0.01728 0.58715 0.0
C963 C 0.79058 0.03865 0.51207 0.0
H964 H 0.77436 1.00204 0.54182 0.0
C965 C 0.79498 0.04743 0.53814 0.0
C966 C 0.79191 0.03999 0.56572 0.0
H967 H 0.7929 0.04485 0.49136 0.0
H968 H 0.80085 0.0601 0.53661 0.0
C969 C 0.78442 0.02348 0.5664 0.0
C970 C 0.0793 0.71663 0.50741 0.0
C971 C 0.09213 0.73172 0.50525 0.0
H972 H 0.05951 0.70064 0.53249 0.0
C973 C 0.09495 0.74222 0.52876 0.0
H974 H 0.07696 0.70808 0.49011 0.0
C975 C 0.08485 0.73793 0.55324 0.0
C976 C 0.07169 0.72301 0.55483 0.0
H977 H 0.10467 0.75395 0.52782 0.0
H978 H 0.08705 0.7465 0.57043 0.0
C979 C 0.06927 0.71235 0.53178 0.0
C980 C 0.38747 0.32061 0.50556 0.0
C981 C 0.38285 0.33234 0.50915 0.0
H982 H 0.39558 0.30584 0.52592 0.0
C983 C 0.38306 0.3382 0.53766 0.0
H984 H 0.38768 0.31593 0.48397 0.0
C985 C 0.3878 0.3325 0.56184 0.0
C986 C 0.39256 0.32087 0.55814 0.0
H987 H 0.37948 0.34715 0.54134 0.0
H988 H 0.38796 0.33741 0.58338 0.0
C989 C 0.39223 0.31496 0.52966 0.0
loop_
_geom_bond_atom_site_label_1
_geom_bond_atom_site_label_2
_geom_bond_distance
_geom_bond_site_symmetry_2
_ccdc_geom_bond_type
C0 C1 1.264 . S
C0 C5 1.479 1_545 S
C0 C10 1.465 . S
C1 C0 1.264 . S
C1 C3 1.339 1_545 S
C1 H28 0.931 . S
C2 C3 1.395 . S
C2 C4 1.320 . S
C3 C1 1.339 1_565 S
C3 C2 1.395 . S
C3 H29 0.929 . S
C4 C2 1.320 . S
C4 C5 1.405 . S
C4 H30 0.930 . S
C5 C0 1.479 1_565 S
C5 C4 1.405 . S
C5 H31 0.931 . S
U6 O7 2.454 . S
U6 O8 2.458 . S
U6 C9 2.984 . S
U6 C10 2.847 . S
U6 C23 2.882 1_554 S
U6 O24 2.441 . S
U6 O25 2.420 . S
U6 O26 2.455 1_554 S
U6 O27 2.449 . S
O7 U6 2.454 . S
O7 C9 1.353 . S
O8 U6 2.458 . S
O8 C9 1.286 . S
C9 U6 2.984 . S
C9 O7 1.353 . S
C9 O8 1.286 . S
C9 C11 1.363 . S
C10 C0 1.465 . S
C10 U6 2.847 . S
C10 O24 1.249 . S
C10 O25 1.202 . S
C11 C9 1.363 . S
C11 C13 1.408 . S
C11 C16 1.342 1_554 S
C12 C13 1.310 . S
C12 C15 1.461 . S
C12 H32 0.932 . S
C13 C11 1.408 . S
C13 C12 1.310 . S
C13 H33 0.930 . S
C14 C15 1.474 1_556 S
C14 C16 1.285 . S
C14 H34 0.929 . S
C15 C12 1.461 . S
C15 C14 1.474 1_554 S
C16 C11 1.342 1_556 S
C16 C14 1.285 . S
C16 H35 0.930 . S
C17 C20 1.424 . S
C17 C22 1.245 . S
C17 C23 1.428 . S
C18 C21 1.260 . S
C18 C22 1.477 . S
C18 H36 0.932 . S
C19 C20 1.384 . S
C19 C21 1.479 . S
C19 H37 0.929 . S
C20 C17 1.424 . S
C20 C19 1.384 . S
C20 H38 0.928 . S
C21 C18 1.260 . S
C21 C19 1.479 . S
C22 C17 1.245 . S
C22 C18 1.477 . S
C22 H39 0.932 . S
C23 U6 2.882 1_556 S
C23 C17 1.428 . S
C23 O26 1.301 . S
C23 O27 1.282 1_556 S
O24 U6 2.441 . S
O24 C10 1.249 . S
O25 U6 2.420 . S
O25 C10 1.202 . S
O26 U6 2.455 1_556 S
O26 C23 1.301 . S
O27 U6 2.449 . S
O27 C23 1.282 1_554 S
H28 C1 0.931 . S
H29 C3 0.929 . S
H30 C4 0.930 . S
H31 C5 0.931 . S
H32 C12 0.932 . S
H33 C13 0.930 . S
H34 C14 0.929 . S
H35 C16 0.930 . S
H36 C18 0.932 . S
H37 C19 0.929 . S
H38 C20 0.928 . S
H39 C22 0.932 . S
C40 C41 1.264 . S
C40 C45 1.479 . S
C40 C50 1.465 . S
C41 C40 1.264 . S
C41 C43 1.339 . S
C41 H68 0.931 . S
C42 C43 1.395 . S
C42 C44 1.320 . S
C43 C41 1.339 . S
C43 C42 1.395 . S
C43 H69 0.929 . S
C44 C42 1.320 . S
C44 C45 1.405 . S
C44 H70 0.930 . S
C45 C40 1.479 . S
C45 C44 1.405 . S
C45 H71 0.931 . S
U46 O47 2.454 1_554 S
U46 O48 2.458 . S
U46 C49 2.984 . S
U46 C50 2.847 1_554 S
U46 C63 2.882 . S
U46 O64 2.441 1_554 S
U46 O65 2.420 1_554 S
U46 O66 2.455 . S
U46 O67 2.449 . S
O47 U46 2.454 1_556 S
O47 C49 1.353 1_556 S
O48 U46 2.458 . S
O48 C49 1.286 . S
C49 U46 2.984 . S
C49 O47 1.353 1_554 S
C49 O48 1.286 . S
C49 C51 1.363 . S
C50 C40 1.465 . S
C50 U46 2.847 1_556 S
C50 O64 1.249 . S
C50 O65 1.202 . S
C51 C49 1.363 . S
C51 C53 1.408 1_554 S
C51 C56 1.342 . S
C52 C53 1.310 . S
C52 C55 1.461 1_556 S
C52 H72 0.932 . S
C53 C51 1.408 1_556 S
C53 C52 1.310 . S
C53 H73 0.930 . S
C54 C55 1.474 . S
C54 C56 1.285 . S
C54 H74 0.929 . S
C55 C52 1.461 1_554 S
C55 C54 1.474 . S
C56 C51 1.342 . S
C56 C54 1.285 . S
C56 H75 0.930 . S
C57 C60 1.424 . S
C57 C62 1.245 . S
C57 C63 1.428 . S
C58 C61 1.260 . S
C58 C62 1.477 . S
C58 H76 0.932 . S
C59 C60 1.384 . S
C59 C61 1.479 . S
C59 H77 0.929 . S
C60 C57 1.424 . S
C60 C59 1.384 . S
C60 H78 0.928 . S
C61 C58 1.260 . S
C61 C59 1.479 . S
C62 C57 1.245 . S
C62 C58 1.477 . S
C62 H79 0.932 . S
C63 U46 2.882 . S
C63 C57 1.428 . S
C63 O66 1.301 . S
C63 O67 1.282 . S
O64 U46 2.441 1_556 S
O64 C50 1.249 . S
O65 U46 2.420 1_556 S
O65 C50 1.202 . S
O66 U46 2.455 . S
O66 C63 1.301 . S
O67 U46 2.449 . S
O67 C63 1.282 . S
H68 C41 0.931 . S
H69 C43 0.929 . S
H70 C44 0.930 . S
H71 C45 0.931 . S
H72 C52 0.932 . S
H73 C53 0.930 . S
H74 C54 0.929 . S
H75 C56 0.930 . S
H76 C58 0.932 . S
H77 C59 0.929 . S
H78 C60 0.928 . S
H79 C62 0.932 . S
C80 C81 1.264 . S
C80 C85 1.479 . S
C80 C90 1.465 . S
C81 C80 1.264 . S
C81 C83 1.339 . S
C81 H108 0.931 . S
C82 C83 1.395 . S
C82 C84 1.320 . S
C83 C81 1.339 . S
C83 C82 1.395 . S
C83 H109 0.929 . S
C84 C82 1.320 . S
C84 C85 1.405 . S
C84 H110 0.930 . S
C85 C80 1.479 . S
C85 C84 1.405 . S
C85 H111 0.931 . S
U86 O87 2.454 . S
U86 O88 2.458 1_554 S
U86 C89 2.984 . S
U86 C90 2.847 . S
U86 C103 2.882 1_554 S
U86 O104 2.441 . S
U86 O105 2.420 . S
U86 O106 2.455 1_554 S
U86 O107 2.449 1_554 S
O87 U86 2.454 . S
O87 C89 1.353 . S
O88 U86 2.458 1_556 S
O88 C89 1.286 1_556 S
C89 U86 2.984 . S
C89 O87 1.353 . S
C89 O88 1.286 1_554 S
C89 C91 1.363 . S
C90 C80 1.465 . S
C90 U86 2.847 . S
C90 O104 1.249 . S
C90 O105 1.202 . S
C91 C89 1.363 . S
C91 C93 1.408 . S
C91 C96 1.342 1_554 S
C92 C93 1.310 . S
C92 C95 1.461 . S
C92 H112 0.932 . S
C93 C91 1.408 . S
C93 C92 1.310 . S
C93 H113 0.930 . S
C94 C95 1.474 1_556 S
C94 C96 1.285 . S
C94 H114 0.929 . S
C95 C92 1.461 . S
C95 C94 1.474 1_554 S
C96 C91 1.342 1_556 S
C96 C94 1.285 . S
C96 H115 0.930 . S
C97 C100 1.424 . S
C97 C102 1.245 . S
C97 C103 1.428 . S
C98 C101 1.260 . S
C98 C102 1.477 . S
C98 H116 0.932 . S
C99 C100 1.384 . S
C99 C101 1.479 . S
C99 H117 0.929 . S
C100 C97 1.424 . S
C100 C99 1.384 . S
C100 H118 0.928 . S
C101 C98 1.260 . S
C101 C99 1.479 . S
C102 C97 1.245 . S
C102 C98 1.477 . S
C102 H119 0.932 . S
C103 U86 2.882 1_556 S
C103 C97 1.428 . S
C103 O106 1.301 . S
C103 O107 1.282 . S
O104 U86 2.441 . S
O104 C90 1.249 . S
O105 U86 2.420 . S
O105 C90 1.202 . S
O106 U86 2.455 1_556 S
O106 C103 1.301 . S
O107 U86 2.449 1_556 S
O107 C103 1.282 . S
H108 C81 0.931 . S
H109 C83 0.929 . S
H110 C84 0.930 . S
H111 C85 0.931 . S
H112 C92 0.932 . S
H113 C93 0.930 . S
H114 C94 0.929 . S
H115 C96 0.930 . S
H116 C98 0.932 . S
H117 C99 0.929 . S
H118 C100 0.928 . S
H119 C102 0.932 . S
C120 C121 1.264 . S
C120 C125 1.479 . S
C120 C130 1.465 . S
C121 C120 1.264 . S
C121 C123 1.339 . S
C121 H148 0.931 . S
C122 C123 1.395 . S
C122 C124 1.320 . S
C123 C121 1.339 . S
C123 C122 1.395 . S
C123 H149 0.929 . S
C124 C122 1.320 . S
C124 C125 1.405 . S
C124 H150 0.930 . S
C125 C120 1.479 . S
C125 C124 1.405 . S
C125 H151 0.931 . S
U126 O127 2.454 1_554 S
U126 O128 2.458 . S
U126 C129 2.984 . S
U126 C130 2.847 1_554 S
U126 C143 2.882 . S
U126 O144 2.441 1_554 S
U126 O145 2.420 1_554 S
U126 O146 2.455 . S
U126 O147 2.449 . S
O127 U126 2.454 1_556 S
O127 C129 1.353 1_556 S
O128 U126 2.458 . S
O128 C129 1.286 . S
C129 U126 2.984 . S
C129 O127 1.353 1_554 S
C129 O128 1.286 . S
C129 C131 1.363 . S
C130 C120 1.465 . S
C130 U126 2.847 1_556 S
C130 O144 1.249 . S
C130 O145 1.202 . S
C131 C129 1.363 . S
C131 C133 1.408 1_554 S
C131 C136 1.342 . S
C132 C133 1.310 . S
C132 C135 1.461 1_556 S
C132 H152 0.932 . S
C133 C131 1.408 1_556 S
C133 C132 1.310 . S
C133 H153 0.930 . S
C134 C135 1.474 . S
C134 C136 1.285 . S
C134 H154 0.929 . S
C135 C132 1.461 1_554 S
C135 C134 1.474 . S
C136 C131 1.342 . S
C136 C134 1.285 . S
C136 H155 0.930 . S
C137 C140 1.424 . S
C137 C142 1.245 . S
C137 C143 1.428 . S
C138 C141 1.289 . S
C138 C142 1.449 1_565 S
C138 H156 0.933 . S
C139 C140 1.384 . S
C139 C141 1.479 1_545 S
C139 H157 0.929 . S
C140 C137 1.424 . S
C140 C139 1.384 . S
C140 H158 0.928 . S
C141 C138 1.289 . S
C141 C139 1.479 1_565 S
C142 C137 1.245 . S
C142 C138 1.449 1_545 S
C142 H159 0.932 . S
C143 U126 2.882 . S
C143 C137 1.428 . S
C143 O146 1.301 . S
C143 O147 1.282 . S
O144 U126 2.441 1_556 S
O144 C130 1.249 . S
O145 U126 2.420 1_556 S
O145 C130 1.202 . S
O146 U126 2.455 . S
O146 C143 1.301 . S
O147 U126 2.449 . S
O147 C143 1.282 . S
H148 C121 0.931 . S
H149 C123 0.929 . S
H150 C124 0.930 . S
H151 C125 0.931 . S
H152 C132 0.932 . S
H153 C133 0.930 . S
H154 C134 0.929 . S
H155 C136 0.930 . S
H156 C138 0.933 . S
H157 C139 0.929 . S
H158 C140 0.928 . S
H159 C142 0.932 . S
C160 C161 1.264 . S
C160 C165 1.479 . S
C160 C170 1.465 . S
C161 C160 1.264 . S
C161 C163 1.339 . S
C161 H188 0.931 . S
C162 C163 1.395 . S
C162 C164 1.320 . S
C163 C161 1.339 . S
C163 C162 1.395 . S
C163 H189 0.929 . S
C164 C162 1.320 . S
C164 C165 1.405 . S
C164 H190 0.930 . S
C165 C160 1.479 . S
C165 C164 1.405 . S
C165 H191 0.931 . S
U166 O167 2.454 1_554 S
U166 O168 2.458 . S
U166 C169 2.984 . S
U166 C170 2.847 1_554 S
U166 C183 2.882 . S
U166 O184 2.441 1_554 S
U166 O185 2.420 1_554 S
U166 O186 2.455 . S
U166 O187 2.449 . S
O167 U166 2.454 1_556 S
O167 C169 1.353 1_556 S
O168 U166 2.458 . S
O168 C169 1.286 . S
C169 U166 2.984 . S
C169 O167 1.353 1_554 S
C169 O168 1.286 . S
C169 C171 1.363 . S
C170 C160 1.465 . S
C170 U166 2.847 1_556 S
C170 O184 1.249 . S
C170 O185 1.202 . S
C171 C169 1.363 . S
C171 C173 1.408 1_554 S
C171 C176 1.342 . S
C172 C173 1.310 . S
C172 C175 1.461 1_556 S
C172 H192 0.932 . S
C173 C171 1.408 1_556 S
C173 C172 1.310 . S
C173 H193 0.930 . S
C174 C175 1.474 . S
C174 C176 1.285 . S
C174 H194 0.929 . S
C175 C172 1.461 1_554 S
C175 C174 1.474 . S
C176 C171 1.342 . S
C176 C174 1.285 . S
C176 H195 0.930 . S
C177 C180 1.424 . S
C177 C182 1.245 . S
C177 C183 1.428 . S
C178 C181 1.260 . S
C178 C182 1.477 . S
C178 H196 0.932 . S
C179 C180 1.384 . S
C179 C181 1.479 . S
C179 H197 0.929 . S
C180 C177 1.424 . S
C180 C179 1.384 . S
C180 H198 0.928 . S
C181 C178 1.260 . S
C181 C179 1.479 . S
C182 C177 1.245 . S
C182 C178 1.477 . S
C182 H199 0.932 . S
C183 U166 2.882 . S
C183 C177 1.428 . S
C183 O186 1.301 . S
C183 O187 1.282 . S
O184 U166 2.441 1_556 S
O184 C170 1.249 . S
O185 U166 2.420 1_556 S
O185 C170 1.202 . S
O186 U166 2.455 . S
O186 C183 1.301 . S
O187 U166 2.449 . S
O187 C183 1.282 . S
H188 C161 0.931 . S
H189 C163 0.929 . S
H190 C164 0.930 . S
H191 C165 0.931 . S
H192 C172 0.932 . S
H193 C173 0.930 . S
H194 C174 0.929 . S
H195 C176 0.930 . S
H196 C178 0.932 . S
H197 C179 0.929 . S
H198 C180 0.928 . S
H199 C182 0.932 . S
C200 C201 1.264 . S
C200 C205 1.479 . S
C200 C210 1.465 . S
C201 C200 1.264 . S
C201 C203 1.339 . S
C201 H228 0.931 . S
C202 C203 1.395 . S
C202 C204 1.320 . S
C203 C201 1.339 . S
C203 C202 1.395 . S
C203 H229 0.929 . S
C204 C202 1.320 . S
C204 C205 1.405 . S
C204 H230 0.930 . S
C205 C200 1.479 . S
C205 C204 1.405 . S
C205 H231 0.931 . S
U206 O207 2.454 . S
U206 O208 2.458 1_554 S
U206 C209 2.984 . S
U206 C210 2.847 . S
U206 C223 2.882 1_554 S
U206 O224 2.441 . S
U206 O225 2.420 . S
U206 O226 2.455 1_554 S
U206 O227 2.449 1_554 S
O207 U206 2.454 . S
O207 C209 1.353 . S
O208 U206 2.458 1_556 S
O208 C209 1.286 1_556 S
C209 U206 2.984 . S
C209 O207 1.353 . S
C209 O208 1.286 1_554 S
C209 C211 1.363 . S
C210 C200 1.465 . S
C210 U206 2.847 . S
C210 O224 1.249 . S
C210 O225 1.202 . S
C211 C209 1.363 . S
C211 C213 1.408 . S
C211 C216 1.342 1_554 S
C212 C213 1.310 . S
C212 C215 1.461 . S
C212 H232 0.932 . S
C213 C211 1.408 . S
C213 C212 1.310 . S
C213 H233 0.930 . S
C214 C215 1.474 1_556 S
C214 C216 1.285 . S
C214 H234 0.929 . S
C215 C212 1.461 . S
C215 C214 1.474 1_554 S
C216 C211 1.342 1_556 S
C216 C214 1.285 . S
C216 H235 0.930 . S
C217 C220 1.424 . S
C217 C222 1.245 . S
C217 C223 1.428 . S
C218 C221 1.260 . S
C218 C222 1.477 . S
C218 H236 0.932 . S
C219 C220 1.384 . S
C219 C221 1.479 . S
C219 H237 0.929 . S
C220 C217 1.424 . S
C220 C219 1.384 . S
C220 H238 0.928 . S
C221 C218 1.260 . S
C221 C219 1.479 . S
C222 C217 1.245 . S
C222 C218 1.477 . S
C222 H239 0.932 . S
C223 U206 2.882 1_556 S
C223 C217 1.428 . S
C223 O226 1.301 . S
C223 O227 1.282 . S
O224 U206 2.441 . S
O224 C210 1.249 . S
O225 U206 2.420 . S
O225 C210 1.202 . S
O226 U206 2.455 1_556 S
O226 C223 1.301 . S
O227 U206 2.449 1_556 S
O227 C223 1.282 . S
H228 C201 0.931 . S
H229 C203 0.929 . S
H230 C204 0.930 . S
H231 C205 0.931 . S
H232 C212 0.932 . S
H233 C213 0.930 . S
H234 C214 0.929 . S
H235 C216 0.930 . S
H236 C218 0.932 . S
H237 C219 0.929 . S
H238 C220 0.928 . S
H239 C222 0.932 . S
C240 C241 1.264 . S
C240 C245 1.479 . S
C240 C250 1.465 . S
C241 C240 1.264 . S
C241 C243 1.339 . S
C241 H268 0.931 . S
C242 C243 1.395 . S
C242 C244 1.320 . S
C243 C241 1.339 . S
C243 C242 1.395 . S
C243 H269 0.929 . S
C244 C242 1.320 . S
C244 C245 1.405 . S
C244 H270 0.930 . S
C245 C240 1.479 . S
C245 C244 1.405 . S
C245 H271 0.931 . S
U246 O247 2.454 . S
U246 O248 2.458 . S
U246 C249 2.984 . S
U246 C250 2.847 . S
U246 C263 2.882 . S
U246 O264 2.441 . S
U246 O265 2.420 . S
U246 O266 2.455 . S
U246 O267 2.449 . S
O247 U246 2.454 . S
O247 C249 1.353 . S
O248 U246 2.458 . S
O248 C249 1.286 . S
C249 U246 2.984 . S
C249 O247 1.353 . S
C249 O248 1.286 . S
C249 C251 1.363 . S
C250 C240 1.465 . S
C250 U246 2.847 . S
C250 O264 1.249 . S
C250 O265 1.202 . S
C251 C249 1.363 . S
C251 C253 1.408 . S
C251 C256 1.342 . S
C252 C253 1.310 . S
C252 C255 1.461 . S
C252 H272 0.932 . S
C253 C251 1.408 . S
C253 C252 1.310 . S
C253 H273 0.930 . S
C254 C255 1.474 . S
C254 C256 1.285 . S
C254 H274 0.929 . S
C255 C252 1.461 . S
C255 C254 1.474 . S
C256 C251 1.342 . S
C256 C254 1.285 . S
C256 H275 0.930 . S
C257 C260 1.424 . S
C257 C262 1.245 . S
C257 C263 1.428 . S
C258 C261 1.260 . S
C258 C262 1.477 . S
C258 H276 0.932 . S
C259 C260 1.384 . S
C259 C261 1.479 . S
C259 H277 0.929 . S
C260 C257 1.424 . S
C260 C259 1.384 . S
C260 H278 0.928 . S
C261 C258 1.260 . S
C261 C259 1.479 . S
C262 C257 1.245 . S
C262 C258 1.477 . S
C262 H279 0.932 . S
C263 U246 2.882 . S
C263 C257 1.428 . S
C263 O266 1.301 . S
C263 O267 1.282 . S
O264 U246 2.441 . S
O264 C250 1.249 . S
O265 U246 2.420 . S
O265 C250 1.202 . S
O266 U246 2.455 . S
O266 C263 1.301 . S
O267 U246 2.449 . S
O267 C263 1.282 . S
H268 C241 0.931 . S
H269 C243 0.929 . S
H270 C244 0.930 . S
H271 C245 0.931 . S
H272 C252 0.932 . S
H273 C253 0.930 . S
H274 C254 0.929 . S
H275 C256 0.930 . S
H276 C258 0.932 . S
H277 C259 0.929 . S
H278 C260 0.928 . S
H279 C262 0.932 . S
C280 C281 1.264 . S
C280 C285 1.479 . S
C280 C290 1.465 . S
C281 C280 1.264 . S
C281 C283 1.339 . S
C281 H308 0.931 . S
C282 C283 1.395 . S
C282 C284 1.320 . S
C283 C281 1.339 . S
C283 C282 1.395 . S
C283 H309 0.929 . S
C284 C282 1.320 . S
C284 C285 1.405 . S
C284 H310 0.930 . S
C285 C280 1.479 . S
C285 C284 1.405 . S
C285 H311 0.931 . S
U286 O287 2.454 . S
U286 O288 2.458 . S
U286 C289 2.984 . S
U286 C290 2.847 . S
U286 C303 2.882 . S
U286 O304 2.441 . S
U286 O305 2.420 . S
U286 O306 2.455 . S
U286 O307 2.449 . S
O287 U286 2.454 . S
O287 C289 1.353 . S
O288 U286 2.458 . S
O288 C289 1.286 . S
C289 U286 2.984 . S
C289 O287 1.353 . S
C289 O288 1.286 . S
C289 C291 1.363 . S
C290 C280 1.465 . S
C290 U286 2.847 . S
C290 O304 1.249 . S
C290 O305 1.202 . S
C291 C289 1.363 . S
C291 C293 1.408 . S
C291 C296 1.342 . S
C292 C293 1.310 . S
C292 C295 1.461 . S
C292 H312 0.932 . S
C293 C291 1.408 . S
C293 C292 1.310 . S
C293 H313 0.930 . S
C294 C295 1.474 . S
C294 C296 1.285 . S
C294 H314 0.929 . S
C295 C292 1.461 . S
C295 C294 1.474 . S
C296 C291 1.342 . S
C296 C294 1.285 . S
C296 H315 0.930 . S
C297 C300 1.424 . S
C297 C302 1.245 . S
C297 C303 1.428 . S
C298 C301 1.260 . S
C298 C302 1.477 . S
C298 H316 0.932 . S
C299 C300 1.384 . S
C299 C301 1.479 . S
C299 H317 0.929 . S
C300 C297 1.424 . S
C300 C299 1.384 . S
C300 H318 0.928 . S
C301 C298 1.260 . S
C301 C299 1.479 . S
C302 C297 1.245 . S
C302 C298 1.477 . S
C302 H319 0.932 . S
C303 U286 2.882 . S
C303 C297 1.428 . S
C303 O306 1.301 . S
C303 O307 1.282 . S
O304 U286 2.441 . S
O304 C290 1.249 . S
O305 U286 2.420 . S
O305 C290 1.202 . S
O306 U286 2.455 . S
O306 C303 1.301 . S
O307 U286 2.449 . S
O307 C303 1.282 . S
H308 C281 0.931 . S
H309 C283 0.929 . S
H310 C284 0.930 . S
H311 C285 0.931 . S
H312 C292 0.932 . S
H313 C293 0.930 . S
H314 C294 0.929 . S
H315 C296 0.930 . S
H316 C298 0.932 . S
H317 C299 0.929 . S
H318 C300 0.928 . S
H319 C302 0.932 . S
C320 C321 1.264 . S
C320 C325 1.479 . S
C320 C330 1.465 . S
C321 C320 1.264 . S
C321 C323 1.339 . S
C321 H348 0.931 . S
C322 C323 1.395 . S
C322 C324 1.320 . S
C323 C321 1.339 . S
C323 C322 1.395 . S
C323 H349 0.929 . S
C324 C322 1.320 . S
C324 C325 1.405 . S
C324 H350 0.930 . S
C325 C320 1.479 . S
C325 C324 1.405 . S
C325 H351 0.931 . S
U326 O327 2.454 . S
U326 O328 2.458 . S
U326 C329 2.984 . S
U326 C330 2.847 . S
U326 C343 2.882 . S
U326 O344 2.441 . S
U326 O345 2.420 . S
U326 O346 2.455 . S
U326 O347 2.449 . S
O327 U326 2.454 . S
O327 C329 1.353 . S
O328 U326 2.458 . S
O328 C329 1.286 . S
C329 U326 2.984 . S
C329 O327 1.353 . S
C329 O328 1.286 . S
C329 C331 1.363 . S
C330 C320 1.465 . S
C330 U326 2.847 . S
C330 O344 1.249 . S
C330 O345 1.202 . S
C331 C329 1.363 . S
C331 C333 1.408 . S
C331 C336 1.342 . S
C332 C333 1.310 . S
C332 C335 1.461 . S
C332 H352 0.932 . S
C333 C331 1.408 . S
C333 C332 1.310 . S
C333 H353 0.930 . S
C334 C335 1.474 . S
C334 C336 1.285 . S
C334 H354 0.929 . S
C335 C332 1.461 . S
C335 C334 1.474 . S
C336 C331 1.342 . S
C336 C334 1.285 . S
C336 H355 0.930 . S
C337 C340 1.424 . S
C337 C342 1.245 . S
C337 C343 1.428 . S
C338 C341 1.260 . S
C338 C342 1.477 . S
C338 H356 0.932 . S
C339 C340 1.384 . S
C339 C341 1.479 . S
C339 H357 0.929 . S
C340 C337 1.424 . S
C340 C339 1.384 . S
C340 H358 0.928 . S
C341 C338 1.260 . S
C341 C339 1.479 . S
C342 C337 1.245 . S
C342 C338 1.477 . S
C342 H359 0.932 . S
C343 U326 2.882 . S
C343 C337 1.428 . S
C343 O346 1.301 . S
C343 O347 1.282 . S
O344 U326 2.441 . S
O344 C330 1.249 . S
O345 U326 2.420 . S
O345 C330 1.202 . S
O346 U326 2.455 . S
O346 C343 1.301 . S
O347 U326 2.449 . S
O347 C343 1.282 . S
H348 C321 0.931 . S
H349 C323 0.929 . S
H350 C324 0.930 . S
H351 C325 0.931 . S
H352 C332 0.932 . S
H353 C333 0.930 . S
H354 C334 0.929 . S
H355 C336 0.930 . S
H356 C338 0.932 . S
H357 C339 0.929 . S
H358 C340 0.928 . S
H359 C342 0.932 . S
C360 C361 1.264 . S
C360 C365 1.479 . S
C360 C370 1.465 . S
C361 C360 1.264 . S
C361 C363 1.339 . S
C361 H388 0.931 . S
C362 C363 1.395 . S
C362 C364 1.320 . S
C363 C361 1.339 . S
C363 C362 1.395 . S
C363 H389 0.929 . S
C364 C362 1.320 . S
C364 C365 1.405 . S
C364 H390 0.930 . S
C365 C360 1.479 . S
C365 C364 1.405 . S
C365 H391 0.931 . S
U366 O367 2.454 . S
U366 O368 2.458 . S
U366 C369 2.984 . S
U366 C370 2.847 . S
U366 C383 2.882 . S
U366 O384 2.441 . S
U366 O385 2.420 . S
U366 O386 2.455 . S
U366 O387 2.449 . S
O367 U366 2.454 . S
O367 C369 1.353 . S
O368 U366 2.458 . S
O368 C369 1.286 . S
C369 U366 2.984 . S
C369 O367 1.353 . S
C369 O368 1.286 . S
C369 C371 1.363 . S
C370 C360 1.465 . S
C370 U366 2.847 . S
C370 O384 1.249 . S
C370 O385 1.202 . S
C371 C369 1.363 . S
C371 C373 1.408 . S
C371 C376 1.342 . S
C372 C373 1.310 . S
C372 C375 1.461 . S
C372 H392 0.932 . S
C373 C371 1.408 . S
C373 C372 1.310 . S
C373 H393 0.930 . S
C374 C375 1.474 . S
C374 C376 1.285 . S
C374 H394 0.929 . S
C375 C372 1.461 . S
C375 C374 1.474 . S
C376 C371 1.342 . S
C376 C374 1.285 . S
C376 H395 0.930 . S
C377 C380 1.424 . S
C377 C382 1.245 . S
C377 C383 1.428 . S
C378 C381 1.260 . S
C378 C382 1.477 . S
C378 H396 0.932 . S
C379 C380 1.384 . S
C379 C381 1.479 . S
C379 H397 0.929 . S
C380 C377 1.424 . S
C380 C379 1.384 . S
C380 H398 0.928 . S
C381 C378 1.260 . S
C381 C379 1.479 . S
C382 C377 1.245 . S
C382 C378 1.477 . S
C382 H399 0.932 . S
C383 U366 2.882 . S
C383 C377 1.428 . S
C383 O386 1.301 . S
C383 O387 1.282 . S
O384 U366 2.441 . S
O384 C370 1.249 . S
O385 U366 2.420 . S
O385 C370 1.202 . S
O386 U366 2.455 . S
O386 C383 1.301 . S
O387 U366 2.449 . S
O387 C383 1.282 . S
H388 C361 0.931 . S
H389 C363 0.929 . S
H390 C364 0.930 . S
H391 C365 0.931 . S
H392 C372 0.932 . S
H393 C373 0.930 . S
H394 C374 0.929 . S
H395 C376 0.930 . S
H396 C378 0.932 . S
H397 C379 0.929 . S
H398 C380 0.928 . S
H399 C382 0.932 . S
C400 C401 1.264 . S
C400 C405 1.479 . S
C400 C410 1.465 . S
C401 C400 1.264 . S
C401 C403 1.339 . S
C401 H428 0.931 . S
C402 C403 1.395 . S
C402 C404 1.320 . S
C403 C401 1.339 . S
C403 C402 1.395 . S
C403 H429 0.929 . S
C404 C402 1.320 . S
C404 C405 1.405 . S
C404 H430 0.930 . S
C405 C400 1.479 . S
C405 C404 1.405 . S
C405 H431 0.931 . S
U406 O407 2.454 . S
U406 O408 2.458 . S
U406 C409 2.984 . S
U406 C410 2.847 . S
U406 C423 2.882 . S
U406 O424 2.441 . S
U406 O425 2.420 . S
U406 O426 2.455 . S
U406 O427 2.449 . S
O407 U406 2.454 . S
O407 C409 1.353 . S
O408 U406 2.458 . S
O408 C409 1.286 . S
C409 U406 2.984 . S
C409 O407 1.353 . S
C409 O408 1.286 . S
C409 C411 1.363 . S
C410 C400 1.465 . S
C410 U406 2.847 . S
C410 O424 1.249 . S
C410 O425 1.202 . S
C411 C409 1.363 . S
C411 C413 1.408 . S
C411 C416 1.342 . S
C412 C413 1.310 . S
C412 C415 1.461 . S
C412 H432 0.932 . S
C413 C411 1.408 . S
C413 C412 1.310 . S
C413 H433 0.930 . S
C414 C415 1.474 . S
C414 C416 1.285 . S
C414 H434 0.929 . S
C415 C412 1.461 . S
C415 C414 1.474 . S
C416 C411 1.342 . S
C416 C414 1.285 . S
C416 H435 0.930 . S
C417 C420 1.424 . S
C417 C422 1.245 . S
C417 C423 1.428 . S
C418 C421 1.260 . S
C418 C422 1.477 . S
C418 H436 0.932 . S
C419 C420 1.351 1_545 S
C419 C421 1.453 1_545 S
C419 H437 0.988 . S
C420 C417 1.424 . S
C420 C419 1.351 1_565 S
C420 H438 0.928 . S
C421 C418 1.260 . S
C421 C419 1.453 1_565 S
C422 C417 1.245 . S
C422 C418 1.477 . S
C422 H439 0.932 . S
C423 U406 2.882 . S
C423 C417 1.428 . S
C423 O426 1.301 . S
C423 O427 1.282 . S
O424 U406 2.441 . S
O424 C410 1.249 . S
O425 U406 2.420 . S
O425 C410 1.202 . S
O426 U406 2.455 . S
O426 C423 1.301 . S
O427 U406 2.449 . S
O427 C423 1.282 . S
H428 C401 0.931 . S
H429 C403 0.929 . S
H430 C404 0.930 . S
H431 C405 0.931 . S
H432 C412 0.932 . S
H433 C413 0.930 . S
H434 C414 0.929 . S
H435 C416 0.930 . S
H436 C418 0.932 . S
H437 C419 0.988 . S
H438 C420 0.928 . S
H439 C422 0.932 . S
C440 C441 1.264 . S
C440 C445 1.479 . S
C440 C450 1.465 . S
C441 C440 1.264 . S
C441 C443 1.339 . S
C441 H468 0.931 . S
C442 C443 1.395 . S
C442 C444 1.320 . S
C443 C441 1.339 . S
C443 C442 1.395 . S
C443 H469 0.929 . S
C444 C442 1.320 . S
C444 C445 1.405 . S
C444 H470 0.930 . S
C445 C440 1.479 . S
C445 C444 1.405 . S
C445 H471 0.931 . S
U446 O447 2.454 . S
U446 O448 2.458 . S
U446 C449 2.984 . S
U446 C450 2.847 . S
U446 C463 2.882 . S
U446 O464 2.441 . S
U446 O465 2.420 . S
U446 O466 2.455 . S
U446 O467 2.449 . S
O447 U446 2.454 . S
O447 C449 1.353 . S
O448 U446 2.458 . S
O448 C449 1.286 . S
C449 U446 2.984 . S
C449 O447 1.353 . S
C449 O448 1.286 . S
C449 C451 1.363 . S
C450 C440 1.465 . S
C450 U446 2.847 . S
C450 O464 1.249 . S
C450 O465 1.202 . S
C451 C449 1.363 . S
C451 C453 1.408 . S
C451 C456 1.342 . S
C452 C453 1.310 . S
C452 C455 1.461 . S
C452 H472 0.932 . S
C453 C451 1.408 . S
C453 C452 1.310 . S
C453 H473 0.930 . S
C454 C455 1.474 . S
C454 C456 1.285 . S
C454 H474 0.929 . S
C455 C452 1.461 . S
C455 C454 1.474 . S
C456 C451 1.342 . S
C456 C454 1.285 . S
C456 H475 0.930 . S
C457 C460 1.424 . S
C457 C462 1.245 . S
C457 C463 1.428 . S
C458 C461 1.260 . S
C458 C462 1.477 . S
C458 H476 0.932 . S
C459 C460 1.384 . S
C459 C461 1.479 . S
C459 H477 0.929 . S
C460 C457 1.424 . S
C460 C459 1.384 . S
C460 H478 0.928 . S
C461 C458 1.260 . S
C461 C459 1.479 . S
C462 C457 1.245 . S
C462 C458 1.477 . S
C462 H479 0.932 . S
C463 U446 2.882 . S
C463 C457 1.428 . S
C463 O466 1.301 . S
C463 O467 1.282 . S
O464 U446 2.441 . S
O464 C450 1.249 . S
O465 U446 2.420 . S
O465 C450 1.202 . S
O466 U446 2.455 . S
O466 C463 1.301 . S
O467 U446 2.449 . S
O467 C463 1.282 . S
H468 C441 0.931 . S
H469 C443 0.929 . S
H470 C444 0.930 . S
H471 C445 0.931 . S
H472 C452 0.932 . S
H473 C453 0.930 . S
H474 C454 0.929 . S
H475 C456 0.930 . S
H476 C458 0.932 . S
H477 C459 0.929 . S
H478 C460 0.928 . S
H479 C462 0.932 . S
C480 C481 1.264 . S
C480 C485 1.479 . S
C480 C490 1.465 . S
C481 C480 1.264 . S
C481 C483 1.339 . S
C481 H508 0.931 . S
C482 C483 1.395 . S
C482 C484 1.320 . S
C483 C481 1.339 . S
C483 C482 1.395 . S
C483 H509 0.929 . S
C484 C482 1.320 . S
C484 C485 1.405 . S
C484 H510 0.930 . S
C485 C480 1.479 . S
C485 C484 1.405 . S
C485 H511 0.931 . S
U486 O487 2.454 . S
U486 O488 2.458 . S
U486 C489 2.984 . S
U486 C490 2.847 . S
U486 C503 2.882 . S
U486 O504 2.441 . S
U486 O505 2.420 . S
U486 O506 2.455 . S
U486 O507 2.449 . S
O487 U486 2.454 . S
O487 C489 1.353 . S
O488 U486 2.458 . S
O488 C489 1.286 . S
C489 U486 2.984 . S
C489 O487 1.353 . S
C489 O488 1.286 . S
C489 C491 1.363 . S
C490 C480 1.465 . S
C490 U486 2.847 . S
C490 O504 1.249 . S
C490 O505 1.202 . S
C491 C489 1.363 . S
C491 C493 1.408 . S
C491 C496 1.342 . S
C492 C493 1.310 . S
C492 C495 1.461 . S
C492 H512 0.932 . S
C493 C491 1.408 . S
C493 C492 1.310 . S
C493 H513 0.930 . S
C494 C495 1.474 . S
C494 C496 1.285 . S
C494 H514 0.929 . S
C495 C492 1.461 . S
C495 C494 1.474 . S
C496 C491 1.342 . S
C496 C494 1.285 . S
C496 H515 0.930 . S
C497 C500 1.424 . S
C497 C502 1.245 . S
C497 C503 1.428 . S
C498 C501 1.260 . S
C498 C502 1.477 . S
C498 H516 0.932 . S
C499 C500 1.384 . S
C499 C501 1.479 . S
C499 H517 0.929 . S
C500 C497 1.424 . S
C500 C499 1.384 . S
C500 H518 0.928 . S
C501 C498 1.260 . S
C501 C499 1.479 . S
C502 C497 1.245 . S
C502 C498 1.477 . S
C502 H519 0.932 . S
C503 U486 2.882 . S
C503 C497 1.428 . S
C503 O506 1.301 . S
C503 O507 1.282 . S
O504 U486 2.441 . S
O504 C490 1.249 . S
O505 U486 2.420 . S
O505 C490 1.202 . S
O506 U486 2.455 . S
O506 C503 1.301 . S
O507 U486 2.449 . S
O507 C503 1.282 . S
H508 C481 0.931 . S
H509 C483 0.929 . S
H510 C484 0.930 . S
H511 C485 0.931 . S
H512 C492 0.932 . S
H513 C493 0.930 . S
H514 C494 0.929 . S
H515 C496 0.930 . S
H516 C498 0.932 . S
H517 C499 0.929 . S
H518 C500 0.928 . S
H519 C502 0.932 . S
C520 C521 1.264 . S
C520 C525 1.479 . S
C520 C530 1.465 . S
C521 C520 1.264 . S
C521 C523 1.339 . S
C521 H548 0.931 . S
C522 C523 1.395 . S
C522 C524 1.320 . S
C523 C521 1.339 . S
C523 C522 1.395 . S
C523 H549 0.929 . S
C524 C522 1.320 . S
C524 C525 1.405 . S
C524 H550 0.930 . S
C525 C520 1.479 . S
C525 C524 1.405 . S
C525 H551 0.931 . S
U526 O527 2.454 . S
U526 O528 2.458 . S
U526 C529 2.984 . S
U526 C530 2.847 . S
U526 C543 2.882 . S
U526 O544 2.441 . S
U526 O545 2.420 . S
U526 O546 2.455 . S
U526 O547 2.449 . S
O527 U526 2.454 . S
O527 C529 1.353 . S
O528 U526 2.458 . S
O528 C529 1.286 . S
C529 U526 2.984 . S
C529 O527 1.353 . S
C529 O528 1.286 . S
C529 C531 1.363 . S
C530 C520 1.465 . S
C530 U526 2.847 . S
C530 O544 1.249 . S
C530 O545 1.202 . S
C531 C529 1.363 . S
C531 C533 1.408 . S
C531 C536 1.342 . S
C532 C533 1.310 . S
C532 C535 1.461 . S
C532 H552 0.932 . S
C533 C531 1.408 . S
C533 C532 1.310 . S
C533 H553 0.930 . S
C534 C535 1.474 . S
C534 C536 1.285 . S
C534 H554 0.929 . S
C535 C532 1.461 . S
C535 C534 1.474 . S
C536 C531 1.342 . S
C536 C534 1.285 . S
C536 H555 0.930 . S
C537 C540 1.424 . S
C537 C542 1.245 . S
C537 C543 1.428 . S
C538 C541 1.260 . S
C538 C542 1.477 . S
C538 H556 0.932 . S
C539 C540 1.384 . S
C539 C541 1.479 . S
C539 H557 0.929 . S
C540 C537 1.424 . S
C540 C539 1.384 . S
C540 H558 0.928 . S
C541 C538 1.260 . S
C541 C539 1.479 . S
C542 C537 1.245 . S
C542 C538 1.477 . S
C542 H559 0.932 . S
C543 U526 2.882 . S
C543 C537 1.428 . S
C543 O546 1.301 . S
C543 O547 1.282 . S
O544 U526 2.441 . S
O544 C530 1.249 . S
O545 U526 2.420 . S
O545 C530 1.202 . S
O546 U526 2.455 . S
O546 C543 1.301 . S
O547 U526 2.449 . S
O547 C543 1.282 . S
H548 C521 0.931 . S
H549 C523 0.929 . S
H550 C524 0.930 . S
H551 C525 0.931 . S
H552 C532 0.932 . S
H553 C533 0.930 . S
H554 C534 0.929 . S
H555 C536 0.930 . S
H556 C538 0.932 . S
H557 C539 0.929 . S
H558 C540 0.928 . S
H559 C542 0.932 . S
C560 C561 1.264 . S
C560 C565 1.479 . S
C560 C570 1.465 . S
C561 C560 1.264 . S
C561 C563 1.339 . S
C561 H588 0.931 . S
C562 C563 1.395 . S
C562 C564 1.320 . S
C563 C561 1.339 . S
C563 C562 1.395 . S
C563 H589 0.929 . S
C564 C562 1.320 . S
C564 C565 1.405 . S
C564 H590 0.930 1_455 S
C565 C560 1.479 . S
C565 C564 1.405 . S
C565 H591 0.931 1_455 S
U566 O567 2.454 . S
U566 O568 2.458 . S
U566 C569 2.984 . S
U566 C570 2.847 1_655 S
U566 C583 2.882 1_655 S
U566 O584 2.441 . S
U566 O585 2.420 1_655 S
U566 O586 2.455 1_655 S
U566 O587 2.449 1_655 S
O567 U566 2.454 . S
O567 C569 1.353 . S
O568 U566 2.458 . S
O568 C569 1.286 . S
C569 U566 2.984 . S
C569 O567 1.353 . S
C569 O568 1.286 . S
C569 C571 1.363 . S
C570 C560 1.465 . S
C570 U566 2.847 1_455 S
C570 O584 1.249 1_455 S
C570 O585 1.202 . S
C571 C569 1.363 . S
C571 C573 1.408 . S
C571 C576 1.342 . S
C572 C573 1.310 . S
C572 C575 1.461 . S
C572 H592 0.932 . S
C573 C571 1.408 . S
C573 C572 1.310 . S
C573 H593 0.930 . S
C574 C575 1.474 . S
C574 C576 1.285 . S
C574 H594 0.929 . S
C575 C572 1.461 . S
C575 C574 1.474 . S
C576 C571 1.342 . S
C576 C574 1.285 . S
C576 H595 0.930 . S
C577 C580 1.424 . S
C577 C582 1.245 . S
C577 C583 1.428 . S
C578 C581 1.260 . S
C578 C582 1.477 . S
C578 H596 0.932 . S
C579 C580 1.384 . S
C579 C581 1.479 . S
C579 H597 0.929 . S
C580 C577 1.424 . S
C580 C579 1.384 . S
C580 H598 0.928 . S
C581 C578 1.260 . S
C581 C579 1.479 . S
C582 C577 1.245 . S
C582 C578 1.477 . S
C582 H599 0.932 . S
C583 U566 2.882 1_455 S
C583 C577 1.428 . S
C583 O586 1.301 . S
C583 O587 1.282 . S
O584 U566 2.441 . S
O584 C570 1.249 1_655 S
O585 U566 2.420 1_455 S
O585 C570 1.202 . S
O586 U566 2.455 1_455 S
O586 C583 1.301 . S
O587 U566 2.449 1_455 S
O587 C583 1.282 . S
H588 C561 0.931 . S
H589 C563 0.929 . S
H590 C564 0.930 1_655 S
H591 C565 0.931 1_655 S
H592 C572 0.932 . S
H593 C573 0.930 . S
H594 C574 0.929 . S
H595 C576 0.930 . S
H596 C578 0.932 . S
H597 C579 0.929 . S
H598 C580 0.928 . S
H599 C582 0.932 . S
C600 C601 1.264 . S
C600 C605 1.479 . S
C600 C610 1.465 . S
C601 C600 1.264 . S
C601 C603 1.339 . S
C601 H628 0.931 . S
C602 C603 1.395 . S
C602 C604 1.320 . S
C603 C601 1.339 . S
C603 C602 1.395 . S
C603 H629 0.929 . S
C604 C602 1.320 . S
C604 C605 1.405 . S
C604 H630 0.930 . S
C605 C600 1.479 . S
C605 C604 1.405 . S
C605 H631 0.931 . S
U606 O607 2.454 1_455 S
U606 O608 2.458 1_455 S
U606 C609 2.984 1_455 S
U606 C610 2.847 . S
U606 C623 2.882 . S
U606 O624 2.441 . S
U606 O625 2.420 . S
U606 O626 2.456 1_455 S
U606 O627 2.449 . S
O607 U606 2.454 1_655 S
O607 C609 1.353 . S
O608 U606 2.458 1_655 S
O608 C609 1.286 . S
C609 U606 2.984 1_655 S
C609 O607 1.353 . S
C609 O608 1.286 . S
C609 C611 1.363 . S
C610 C600 1.465 . S
C610 U606 2.847 . S
C610 O624 1.249 . S
C610 O625 1.202 . S
C611 C609 1.363 . S
C611 C613 1.408 . S
C611 C616 1.342 . S
C612 C613 1.310 . S
C612 C615 1.461 . S
C612 H632 0.932 . S
C613 C611 1.408 . S
C613 C612 1.310 . S
C613 H633 0.930 . S
C614 C615 1.474 . S
C614 C616 1.285 . S
C614 H634 0.929 . S
C615 C612 1.461 . S
C615 C614 1.474 . S
C616 C611 1.342 . S
C616 C614 1.285 . S
C616 H635 0.930 . S
C617 C620 1.424 . S
C617 C622 1.245 . S
C617 C623 1.428 . S
C618 C621 1.260 . S
C618 C622 1.477 . S
C618 H636 0.932 . S
C619 C620 1.384 . S
C619 C621 1.479 . S
C619 H637 0.929 . S
C620 C617 1.424 . S
C620 C619 1.384 . S
C620 H638 0.928 . S
C621 C618 1.260 . S
C621 C619 1.479 . S
C622 C617 1.245 . S
C622 C618 1.477 . S
C622 H639 0.932 1_455 S
C623 U606 2.882 . S
C623 C617 1.428 . S
C623 O626 1.282 1_455 S
C623 O627 1.282 . S
O624 U606 2.441 . S
O624 C610 1.249 . S
O625 U606 2.420 . S
O625 C610 1.202 . S
O626 U606 2.456 1_655 S
O626 C623 1.282 1_655 S
O627 U606 2.449 . S
O627 C623 1.282 . S
H628 C601 0.931 . S
H629 C603 0.929 . S
H630 C604 0.930 . S
H631 C605 0.931 . S
H632 C612 0.932 . S
H633 C613 0.930 . S
H634 C614 0.929 . S
H635 C616 0.930 . S
H636 C618 0.932 . S
H637 C619 0.929 . S
H638 C620 0.928 . S
H639 C622 0.932 1_655 S
C640 C641 1.264 . S
C640 C645 1.479 . S
C640 C650 1.465 . S
C641 C640 1.264 . S
C641 C643 1.339 . S
C641 H668 0.931 . S
C642 C643 1.395 . S
C642 C644 1.320 . S
C643 C641 1.339 . S
C643 C642 1.395 . S
C643 H669 0.929 . S
C644 C642 1.320 . S
C644 C645 1.405 . S
C644 H670 0.930 . S
C645 C640 1.479 . S
C645 C644 1.405 . S
C645 H671 0.931 . S
U646 O647 2.454 . S
U646 O648 2.458 . S
U646 C649 2.984 . S
U646 C650 2.847 . S
U646 C663 2.882 . S
U646 O664 2.441 . S
U646 O665 2.420 . S
U646 O666 2.455 . S
U646 O667 2.449 . S
O647 U646 2.454 . S
O647 C649 1.353 . S
O648 U646 2.458 . S
O648 C649 1.286 . S
C649 U646 2.984 . S
C649 O647 1.353 . S
C649 O648 1.286 . S
C649 C651 1.363 . S
C650 C640 1.465 . S
C650 U646 2.847 . S
C650 O664 1.249 . S
C650 O665 1.202 . S
C651 C649 1.363 . S
C651 C653 1.408 . S
C651 C656 1.342 . S
C652 C653 1.310 . S
C652 C655 1.461 . S
C652 H672 0.932 . S
C653 C651 1.408 . S
C653 C652 1.310 . S
C653 H673 0.930 . S
C654 C655 1.474 . S
C654 C656 1.285 . S
C654 H674 0.929 . S
C655 C652 1.461 . S
C655 C654 1.474 . S
C656 C651 1.342 . S
C656 C654 1.285 . S
C656 H675 0.930 . S
C657 C660 1.424 . S
C657 C662 1.245 . S
C657 C663 1.428 . S
C658 C661 1.260 . S
C658 C662 1.477 . S
C658 H676 0.932 . S
C659 C660 1.384 . S
C659 C661 1.479 . S
C659 H677 0.929 . S
C660 C657 1.424 . S
C660 C659 1.384 . S
C660 H678 0.928 . S
C661 C658 1.260 . S
C661 C659 1.479 . S
C662 C657 1.245 . S
C662 C658 1.477 . S
C662 H679 0.932 . S
C663 U646 2.882 . S
C663 C657 1.428 . S
C663 O666 1.301 . S
C663 O667 1.282 . S
O664 U646 2.441 . S
O664 C650 1.249 . S
O665 U646 2.420 . S
O665 C650 1.202 . S
O666 U646 2.455 . S
O666 C663 1.301 . S
O667 U646 2.449 . S
O667 C663 1.282 . S
H668 C641 0.931 . S
H669 C643 0.929 . S
H670 C644 0.930 . S
H671 C645 0.931 . S
H672 C652 0.932 . S
H673 C653 0.930 . S
H674 C654 0.929 . S
H675 C656 0.930 . S
H676 C658 0.932 . S
H677 C659 0.929 . S
H678 C660 0.928 . S
H679 C662 0.932 . S
C680 C681 1.264 . S
C680 C685 1.479 . S
C680 C690 1.465 . S
C681 C680 1.264 . S
C681 C683 1.339 . S
C681 H708 0.931 . S
C682 C683 1.395 . S
C682 C684 1.320 . S
C683 C681 1.339 . S
C683 C682 1.395 . S
C683 H709 0.929 . S
C684 C682 1.320 . S
C684 C685 1.405 . S
C684 H710 0.930 . S
C685 C680 1.479 . S
C685 C684 1.405 . S
C685 H711 0.931 . S
U686 O687 2.454 . S
U686 O688 2.458 . S
U686 C689 2.984 . S
U686 C690 2.847 . S
U686 C703 2.882 . S
U686 O704 2.441 . S
U686 O705 2.420 . S
U686 O706 2.455 . S
U686 O707 2.449 . S
O687 U686 2.454 . S
O687 C689 1.353 . S
O688 U686 2.458 . S
O688 C689 1.286 . S
C689 U686 2.984 . S
C689 O687 1.353 . S
C689 O688 1.286 . S
C689 C691 1.363 . S
C690 C680 1.465 . S
C690 U686 2.847 . S
C690 O704 1.249 . S
C690 O705 1.202 . S
C691 C689 1.363 . S
C691 C693 1.408 . S
C691 C696 1.342 . S
C692 C693 1.310 . S
C692 C695 1.461 . S
C692 H712 0.932 . S
C693 C691 1.408 . S
C693 C692 1.310 . S
C693 H713 0.930 . S
C694 C695 1.474 . S
C694 C696 1.285 . S
C694 H714 0.929 . S
C695 C692 1.461 . S
C695 C694 1.474 . S
C696 C691 1.342 . S
C696 C694 1.285 . S
C696 H715 0.930 . S
C697 C700 1.424 . S
C697 C702 1.245 . S
C697 C703 1.428 . S
C698 C701 1.260 . S
C698 C702 1.477 . S
C698 H716 0.932 . S
C699 C700 1.384 . S
C699 C701 1.479 . S
C699 H717 0.929 . S
C700 C697 1.424 . S
C700 C699 1.384 . S
C700 H718 0.928 . S
C701 C698 1.260 . S
C701 C699 1.479 . S
C702 C697 1.245 . S
C702 C698 1.477 . S
C702 H719 0.932 . S
C703 U686 2.882 . S
C703 C697 1.428 . S
C703 O706 1.301 . S
C703 O707 1.282 . S
O704 U686 2.441 . S
O704 C690 1.249 . S
O705 U686 2.420 . S
O705 C690 1.202 . S
O706 U686 2.455 . S
O706 C703 1.301 . S
O707 U686 2.449 . S
O707 C703 1.282 . S
H708 C681 0.931 . S
H709 C683 0.929 . S
H710 C684 0.930 . S
H711 C685 0.931 . S
H712 C692 0.932 . S
H713 C693 0.930 . S
H714 C694 0.929 . S
H715 C696 0.930 . S
H716 C698 0.932 . S
H717 C699 0.929 . S
H718 C700 0.928 . S
H719 C702 0.932 . S
C720 C721 1.387 . S
C720 H724 0.950 . S
C720 C729 1.390 . S
C721 C720 1.387 . S
C721 C723 1.387 1_554 S
H722 C729 0.950 . S
C723 C721 1.387 1_556 S
C723 C725 1.390 . S
C723 H727 0.950 . S
H724 C720 0.950 . S
C725 C723 1.390 . S
C725 C726 1.387 1_556 S
C725 H728 0.950 . S
C726 C725 1.387 1_554 S
C726 C729 1.387 . S
H727 C723 0.950 . S
H728 C725 0.950 . S
C729 C720 1.390 . S
C729 H722 0.950 . S
C729 C726 1.387 . S
C730 C731 1.387 1_556 S
C730 H734 0.950 . S
C730 C739 1.390 . S
C731 C730 1.387 1_554 S
C731 C733 1.387 . S
H732 C739 0.950 . S
C733 C731 1.387 . S
C733 C735 1.390 . S
C733 H737 0.950 . S
H734 C730 0.950 . S
C735 C733 1.390 . S
C735 C736 1.387 . S
C735 H738 0.950 . S
C736 C735 1.387 . S
C736 C739 1.387 1_554 S
H737 C733 0.950 . S
H738 C735 0.950 . S
C739 C730 1.390 . S
C739 H732 0.950 . S
C739 C736 1.387 1_556 S
C740 C741 1.387 1_556 S
C740 H744 0.950 . S
C740 C749 1.390 . S
C741 C740 1.387 1_554 S
C741 C743 1.387 . S
H742 C749 0.950 . S
C743 C741 1.387 . S
C743 C745 1.390 . S
C743 H747 0.950 . S
H744 C740 0.950 . S
C745 C743 1.390 . S
C745 C746 1.387 . S
C745 H748 0.950 . S
C746 C745 1.387 . S
C746 C749 1.387 1_554 S
H747 C743 0.950 . S
H748 C745 0.950 . S
C749 C740 1.390 . S
C749 H742 0.950 . S
C749 C746 1.387 1_556 S
C750 C751 1.387 . S
C750 H754 0.950 . S
C750 C759 1.390 . S
C751 C750 1.387 . S
C751 C753 1.387 . S
H752 C759 0.950 . S
C753 C751 1.387 . S
C753 C755 1.390 . S
C753 H757 0.950 . S
H754 C750 0.950 . S
C755 C753 1.390 . S
C755 C756 1.387 . S
C755 H758 0.950 . S
C756 C755 1.387 . S
C756 C759 1.387 . S
H757 C753 0.950 . S
H758 C755 0.950 . S
C759 C750 1.390 . S
C759 H752 0.950 . S
C759 C756 1.387 . S
C760 C761 1.387 . S
C760 H764 0.950 . S
C760 C769 1.390 . S
C761 C760 1.387 . S
C761 C763 1.387 . S
H762 C769 0.950 . S
C763 C761 1.387 . S
C763 C765 1.390 . S
C763 H767 0.950 . S
H764 C760 0.950 . S
C765 C763 1.390 . S
C765 C766 1.387 . S
C765 H768 0.950 . S
C766 C765 1.387 . S
C766 C769 1.387 . S
H767 C763 0.950 . S
H768 C765 0.950 . S
C769 C760 1.390 . S
C769 H762 0.950 . S
C769 C766 1.387 . S
C770 C771 1.387 . S
C770 H774 0.950 . S
C770 C779 1.390 . S
C771 C770 1.387 . S
C771 C773 1.387 . S
H772 C779 0.950 . S
C773 C771 1.387 . S
C773 C775 1.390 . S
C773 H777 0.950 . S
H774 C770 0.950 . S
C775 C773 1.390 . S
C775 C776 1.387 . S
C775 H778 0.950 . S
C776 C775 1.387 . S
C776 C779 1.387 . S
H777 C773 0.950 . S
H778 C775 0.950 . S
C779 C770 1.390 . S
C779 H772 0.950 . S
C779 C776 1.387 . S
C780 C781 1.387 . S
C780 H784 0.950 . S
C780 C789 1.390 . S
C781 C780 1.387 . S
C781 C783 1.387 . S
H782 C789 0.950 . S
C783 C781 1.387 . S
C783 C785 1.390 . S
C783 H787 0.950 . S
H784 C780 0.950 . S
C785 C783 1.390 . S
C785 C786 1.387 . S
C785 H788 0.950 . S
C786 C785 1.387 . S
C786 C789 1.387 . S
H787 C783 0.950 . S
H788 C785 0.950 . S
C789 C780 1.390 . S
C789 H782 0.950 . S
C789 C786 1.387 . S
C790 C791 1.387 . S
C790 H794 0.950 . S
C790 C799 1.390 . S
C791 C790 1.387 . S
C791 C793 1.387 . S
H792 C799 0.950 . S
C793 C791 1.387 . S
C793 C795 1.390 . S
C793 H797 0.950 . S
H794 C790 0.950 . S
C795 C793 1.390 . S
C795 C796 1.387 . S
C795 H798 0.950 . S
C796 C795 1.387 . S
C796 C799 1.387 . S
H797 C793 0.950 . S
H798 C795 0.950 . S
C799 C790 1.390 . S
C799 H792 0.950 . S
C799 C796 1.387 . S
C800 C801 1.387 . S
C800 H804 0.950 . S
C800 C809 1.390 . S
C801 C800 1.387 . S
C801 C803 1.387 . S
H802 C809 0.950 . S
C803 C801 1.387 . S
C803 C805 1.390 . S
C803 H807 0.950 . S
H804 C800 0.950 . S
C805 C803 1.390 . S
C805 C806 1.387 . S
C805 H808 0.950 . S
C806 C805 1.387 . S
C806 C809 1.387 . S
H807 C803 0.950 . S
H808 C805 0.950 . S
C809 C800 1.390 . S
C809 H802 0.950 . S
C809 C806 1.387 . S
C810 C811 1.387 . S
C810 H814 0.950 . S
C810 C819 1.390 . S
C811 C810 1.387 . S
C811 C813 1.387 . S
H812 C819 0.950 . S
C813 C811 1.387 . S
C813 C815 1.390 . S
C813 H817 0.950 . S
H814 C810 0.950 . S
C815 C813 1.390 . S
C815 C816 1.387 . S
C815 H818 0.950 . S
C816 C815 1.387 . S
C816 C819 1.387 . S
H817 C813 0.950 . S
H818 C815 0.950 . S
C819 C810 1.390 . S
C819 H812 0.950 . S
C819 C816 1.387 . S
C820 C821 1.387 . S
C820 H824 0.950 . S
C820 C829 1.390 . S
C821 C820 1.387 . S
C821 C823 1.387 . S
H822 C829 0.950 . S
C823 C821 1.387 . S
C823 C825 1.390 . S
C823 H827 0.950 . S
H824 C820 0.950 . S
C825 C823 1.390 . S
C825 C826 1.387 . S
C825 H828 0.950 . S
C826 C825 1.387 . S
C826 C829 1.387 . S
H827 C823 0.950 . S
H828 C825 0.950 . S
C829 C820 1.390 . S
C829 H822 0.950 . S
C829 C826 1.387 . S
C830 C831 1.387 . S
C830 H834 0.950 . S
C830 C839 1.390 . S
C831 C830 1.387 . S
C831 C833 1.387 . S
H832 C839 0.950 . S
C833 C831 1.387 . S
C833 C835 1.390 . S
C833 H837 0.950 . S
H834 C830 0.950 . S
C835 C833 1.390 . S
C835 C836 1.387 . S
C835 H838 0.950 . S
C836 C835 1.387 . S
C836 C839 1.387 . S
H837 C833 0.950 . S
H838 C835 0.950 . S
C839 C830 1.390 . S
C839 H832 0.950 . S
C839 C836 1.387 . S
C840 C841 1.387 . S
C840 H844 0.950 . S
C840 C849 1.390 . S
C841 C840 1.387 . S
C841 C843 1.387 . S
H842 C849 0.950 . S
C843 C841 1.387 . S
C843 C845 1.390 . S
C843 H847 0.950 . S
H844 C840 0.950 . S
C845 C843 1.390 . S
C845 C846 1.387 . S
C845 H848 0.950 . S
C846 C845 1.387 . S
C846 C849 1.387 . S
H847 C843 0.950 . S
H848 C845 0.950 . S
C849 C840 1.390 . S
C849 H842 0.950 . S
C849 C846 1.387 . S
C850 C851 1.387 . S
C850 H854 0.950 . S
C850 C859 1.390 . S
C851 C850 1.387 . S
C851 C853 1.387 . S
H852 C859 0.950 . S
C853 C851 1.387 . S
C853 C855 1.390 . S
C853 H857 0.950 . S
H854 C850 0.950 . S
C855 C853 1.390 . S
C855 C856 1.387 . S
C855 H858 0.950 . S
C856 C855 1.387 . S
C856 C859 1.387 . S
H857 C853 0.950 . S
H858 C855 0.950 . S
C859 C850 1.390 . S
C859 H852 0.950 . S
C859 C856 1.387 . S
C860 C861 1.387 . S
C860 H864 0.950 . S
C860 C869 1.390 . S
C861 C860 1.387 . S
C861 C863 1.387 . S
H862 C869 0.950 . S
C863 C861 1.387 . S
C863 C865 1.390 . S
C863 H867 0.950 . S
H864 C860 0.950 . S
C865 C863 1.390 . S
C865 C866 1.387 . S
C865 H868 0.950 . S
C866 C865 1.387 . S
C866 C869 1.387 . S
H867 C863 0.950 . S
H868 C865 0.950 . S
C869 C860 1.390 . S
C869 H862 0.950 . S
C869 C866 1.387 . S
C870 C871 1.387 . S
C870 H874 0.950 . S
C870 C879 1.390 . S
C871 C870 1.387 . S
C871 C873 1.387 . S
H872 C879 0.950 . S
C873 C871 1.387 . S
C873 C875 1.390 . S
C873 H877 0.950 . S
H874 C870 0.950 . S
C875 C873 1.390 . S
C875 C876 1.387 . S
C875 H878 0.950 . S
C876 C875 1.387 . S
C876 C879 1.387 . S
H877 C873 0.950 . S
H878 C875 0.950 . S
C879 C870 1.390 . S
C879 H872 0.950 . S
C879 C876 1.387 . S
C880 C881 1.387 . S
C880 H884 0.950 . S
C880 C889 1.390 . S
C881 C880 1.387 . S
C881 C883 1.387 . S
H882 C889 0.950 . S
C883 C881 1.387 . S
C883 C885 1.390 . S
C883 H887 0.950 . S
H884 C880 0.950 . S
C885 C883 1.390 . S
C885 C886 1.387 . S
C885 H888 0.950 . S
C886 C885 1.387 . S
C886 C889 1.387 . S
H887 C883 0.950 . S
H888 C885 0.950 . S
C889 C880 1.390 . S
C889 H882 0.950 . S
C889 C886 1.387 . S
C890 C891 1.387 . S
C890 H894 0.950 . S
C890 C899 1.390 . S
C891 C890 1.387 . S
C891 C893 1.387 . S
H892 C899 0.950 . S
C893 C891 1.387 . S
C893 C895 1.390 . S
C893 H897 0.950 . S
H894 C890 0.950 . S
C895 C893 1.390 . S
C895 C896 1.387 . S
C895 H898 0.950 . S
C896 C895 1.387 . S
C896 C899 1.387 . S
H897 C893 0.950 . S
H898 C895 0.950 . S
C899 C890 1.390 . S
C899 H892 0.950 . S
C899 C896 1.387 . S
C900 C901 1.387 . S
C900 H904 0.950 . S
C900 C909 1.390 . S
C901 C900 1.387 . S
C901 C903 1.387 . S
H902 C909 0.950 . S
C903 C901 1.387 . S
C903 C905 1.390 . S
C903 H907 0.950 . S
H904 C900 0.950 . S
C905 C903 1.390 . S
C905 C906 1.387 . S
C905 H908 0.950 . S
C906 C905 1.387 . S
C906 C909 1.387 . S
H907 C903 0.950 . S
H908 C905 0.950 . S
C909 C900 1.390 . S
C909 H902 0.950 . S
C909 C906 1.387 . S
C910 C911 1.387 . S
C910 H914 0.950 . S
C910 C919 1.390 . S
C911 C910 1.387 . S
C911 C913 1.387 . S
H912 C919 0.950 . S
C913 C911 1.387 . S
C913 C915 1.390 . S
C913 H917 0.950 . S
H914 C910 0.950 . S
C915 C913 1.390 . S
C915 C916 1.387 . S
C915 H918 0.950 . S
C916 C915 1.387 . S
C916 C919 1.387 . S
H917 C913 0.950 . S
H918 C915 0.950 . S
C919 C910 1.390 . S
C919 H912 0.950 . S
C919 C916 1.387 . S
C920 C921 1.387 1_545 S
C920 H924 0.950 . S
C920 C929 1.390 1_545 S
C921 C920 1.387 1_565 S
C921 C923 1.387 . S
H922 C929 0.950 1_545 S
C923 C921 1.387 . S
C923 C925 1.390 . S
C923 H927 0.950 . S
H924 C920 0.950 . S
C925 C923 1.390 . S
C925 C926 1.387 . S
C925 H928 0.950 . S
C926 C925 1.387 . S
C926 C929 1.387 . S
H927 C923 0.950 . S
H928 C925 0.950 . S
C929 C920 1.390 1_565 S
C929 H922 0.950 1_565 S
C929 C926 1.387 . S
C930 C931 1.387 . S
C930 H934 0.950 . S
C930 C939 1.390 . S
C931 C930 1.387 . S
C931 C933 1.387 . S
H932 C939 0.950 . S
C933 C931 1.387 . S
C933 C935 1.390 . S
C933 H937 0.950 . S
H934 C930 0.950 . S
C935 C933 1.390 . S
C935 C936 1.387 . S
C935 H938 0.950 . S
C936 C935 1.387 . S
C936 C939 1.387 . S
H937 C933 0.950 . S
H938 C935 0.950 . S
C939 C930 1.390 . S
C939 H932 0.950 . S
C939 C936 1.387 . S
C940 C941 1.387 . S
C940 H944 0.950 . S
C940 C949 1.390 . S
C941 C940 1.387 . S
C941 C943 1.387 . S
H942 C949 0.950 . S
C943 C941 1.387 . S
C943 C945 1.390 . S
C943 H947 0.950 . S
H944 C940 0.950 . S
C945 C943 1.390 . S
C945 C946 1.387 . S
C945 H948 0.950 . S
C946 C945 1.387 . S
C946 C949 1.387 . S
H947 C943 0.950 . S
H948 C945 0.950 . S
C949 C940 1.390 . S
C949 H942 0.950 . S
C949 C946 1.387 . S
C950 C951 1.387 1_545 S
C950 H954 0.950 . S
C950 C959 1.390 . S
C951 C950 1.387 1_565 S
C951 C953 1.383 . S
H952 C959 0.950 . S
C953 C951 1.383 . S
C953 C955 1.382 1_565 S
C953 H957 0.962 . S
H954 C950 0.950 . S
C955 C953 1.382 1_545 S
C955 C956 1.387 . S
C955 H958 0.950 . S
C956 C955 1.387 . S
C956 C959 1.387 . S
H957 C953 0.962 . S
H958 C955 0.950 . S
C959 C950 1.390 . S
C959 H952 0.950 . S
C959 C956 1.387 . S
C960 C961 1.387 . S
C960 H964 0.950 . S
C960 C969 1.390 . S
C961 C960 1.387 . S
C961 C963 1.387 . S
H962 C969 0.950 . S
C963 C961 1.387 . S
C963 C965 1.390 . S
C963 H967 0.950 . S
H964 C960 0.950 . S
C965 C963 1.390 . S
C965 C966 1.387 . S
C965 H968 0.950 . S
C966 C965 1.387 . S
C966 C969 1.387 . S
H967 C963 0.950 . S
H968 C965 0.950 . S
C969 C960 1.390 . S
C969 H962 0.950 . S
C969 C966 1.387 . S
C970 C971 1.387 . S
C970 H974 0.950 . S
C970 C979 1.390 . S
C971 C970 1.387 . S
C971 C973 1.387 . S
H972 C979 0.950 . S
C973 C971 1.387 . S
C973 C975 1.390 . S
C973 H977 0.950 . S
H974 C970 0.950 . S
C975 C973 1.390 . S
C975 C976 1.387 . S
C975 H978 0.950 . S
C976 C975 1.387 . S
C976 C979 1.387 . S
H977 C973 0.950 . S
H978 C975 0.950 . S
C979 C970 1.390 . S
C979 H972 0.950 . S
C979 C976 1.387 . S
C980 C981 1.387 . S
C980 H984 0.950 . S
C980 C989 1.390 . S
C981 C980 1.387 . S
C981 C983 1.387 . S
H982 C989 0.950 . S
C983 C981 1.387 . S
C983 C985 1.390 . S
C983 H987 0.950 . S
H984 C980 0.950 . S
C985 C983 1.390 . S
C985 C986 1.387 . S
C985 H988 0.950 . S
C986 C985 1.387 . S
C986 C989 1.387 . S
H987 C983 0.950 . S
H988 C985 0.950 . S
C989 C980 1.390 . S
C989 H982 0.950 . S
C989 C986 1.387 . S
C721 C135 1.498 . S
C726 C15 1.498 . S
C731 C55 1.505 . S
C736 C175 1.506 . S
C741 C215 1.499 . S
C746 C95 1.499 . S
C751 C375 1.512 . S
C756 C255 1.513 . S
C761 C415 1.508 . S
C766 C295 1.509 . S
C771 C335 1.502 . S
C776 C455 1.502 . S
C781 C615 1.519 . S
C786 C495 1.517 . S
C791 C655 1.512 . S
C796 C535 1.511 . S
C801 C575 1.509 . S
C806 C695 1.509 . S
C811 C341 1.495 . S
C816 C2 1.487 . S
C821 C242 1.498 . S
C826 C61 1.487 . S
C831 C282 1.493 . S
C836 C82 1.496 . S
C841 C42 1.495 . S
C846 C562 1.506 . S
C851 C482 1.481 . S
C856 C101 1.489 . S
C861 C21 1.489 . S
C866 C541 1.481 . S
C871 C682 1.490 . S
C876 C122 1.495 . S
C881 C621 1.504 . S
C886 C162 1.495 . S
C891 C221 1.480 . S
C896 C661 1.481 . S
C901 C442 1.481 . S
C906 C181 1.481 . S
C911 C362 1.513 . S
C916 C202 1.495 . S
C921 C141 1.500 . S
C926 C402 1.491 . S
C931 C261 1.487 . S
C936 C581 1.488 . S
C941 C501 1.482 . S
C946 C301 1.488 . S
C951 C322 1.503 . S
C956 C522 1.493 . S
C961 C421 1.475 1_545 S
C966 C701 1.490 . S
C971 C461 1.500 . S
C976 C602 1.503 . S
C981 C381 1.500 . S
C986 C642 1.492 . S
