# Generated by pormake.
# Topology vme, (6)-cn, num edge types: 1
# Building blocks:
#     Node 0, Type 0, BuildingBlock: OJICUG_clean_sbu_0, # of connection points: 6
#     Node 1, Type 0, BuildingBlock: OJICUG_clean_sbu_0, # of connection points: 6
#     Node 2, Type 0, BuildingBlock: OJICUG_clean_sbu_0, # of connection points: 6
#     Node 3, Type 0, BuildingBlock: OJICUG_clean_sbu_0, # of connection points: 6
#     Edge 4, Type (0, 0), BuildingBlock: MIFKUJ_clean_linker_0, # of connection points: 2
#     Edge 5, Type (0, 0), BuildingBlock: MIFKUJ_clean_linker_0, # of connection points: 2
#     Edge 6, Type (0, 0), BuildingBlock: MIFKUJ_clean_linker_0, # of connection points: 2
#     Edge 7, Type (0, 0), BuildingBlock: MIFKUJ_clean_linker_0, # of connection points: 2
#     Edge 8, Type (0, 0), BuildingBlock: MIFKUJ_clean_linker_0, # of connection points: 2
#     Edge 9, Type (0, 0), BuildingBlock: MIFKUJ_clean_linker_0, # of connection points: 2
#     Edge 10, Type (0, 0), BuildingBlock: MIFKUJ_clean_linker_0, # of connection points: 2
#     Edge 11, Type (0, 0), BuildingBlock: MIFKUJ_clean_linker_0, # of connection points: 2
#     Edge 12, Type (0, 0), BuildingBlock: MIFKUJ_clean_linker_0, # of connection points: 2
#     Edge 13, Type (0, 0), BuildingBlock: MIFKUJ_clean_linker_0, # of connection points: 2
#     Edge 14, Type (0, 0), BuildingBlock: MIFKUJ_clean_linker_0, # of connection points: 2
#     Edge 15, Type (0, 0), BuildingBlock: MIFKUJ_clean_linker_0, # of connection points: 2
# Relax obj value: 0.276
# Max RMSD: 0.267
# Mean RMSD: 0.267
data_MOF--net-vme--node1-OJICUG_clean_sbu_0--edge1-MIFKUJ_clean_linker_0
_symmetry_space_group_name_H-M    P1
_symmetry_Int_Tables_number       1
_symmetry_cell_setting            triclinic
loop_
_symmetry_equiv_pos_as_xyz
'x, y, z'
_cell_length_a     34.679582
_cell_length_b     33.242604
_cell_length_c     37.42533
_cell_angle_alpha  89.999307
_cell_angle_beta   121.23163
_cell_angle_gamma 90.062961
loop_
_atom_site_label
_atom_site_type_symbol
_atom_site_fract_x
_atom_site_fract_y
_atom_site_fract_z
_atom_type_partial_charge
Sc0 Sc 0.20864 0.32578 0.39575 0.0
Sc1 Sc 0.10273 0.36481 0.32235 0.0
Sc2 Sc 0.18158 0.42534 0.40534 0.0
O3 O 0.16433 0.37223 0.37437 0.0
C4 C 0.2123 0.35833 0.47691 0.0
C5 C 0.11432 0.28057 0.36338 0.0
C6 C 0.07818 0.42154 0.37659 0.0
C7 C 0.17003 0.31983 0.29993 0.0
C8 C 0.27615 0.40048 0.41908 0.0
C9 C 0.13088 0.45207 0.30913 0.0
O10 O 0.21371 0.32987 0.4549 0.0
O11 O 0.09013 0.31119 0.34587 0.0
O12 O 0.11846 0.43289 0.40054 0.0
O13 O 0.20402 0.32008 0.33692 0.0
O14 O 0.24681 0.42629 0.41344 0.0
O15 O 0.10994 0.4189 0.29538 0.0
O16 O 0.26843 0.36287 0.41657 0.0
O17 O 0.13074 0.33115 0.29076 0.0
O18 O 0.15771 0.45916 0.34798 0.0
O19 O 0.15669 0.28006 0.37828 0.0
O20 O 0.20496 0.39505 0.46505 0.0
O21 O 0.06645 0.39682 0.34675 0.0
Sc22 Sc 0.78965 0.91759 0.07661 0.0
Sc23 Sc 0.87811 0.86506 0.15986 0.0
Sc24 Sc 0.77559 0.81482 0.09051 0.0
O25 O 0.81438 0.86578 0.10923 0.0
C26 C 0.70525 0.88352 0.07836 0.0
C27 C 0.84604 0.95133 0.17021 0.0
C28 C 0.82432 0.80953 0.18957 0.0
C29 C 0.88906 0.91768 0.09403 0.0
C30 C 0.75267 0.85159 0.00367 0.0
C31 C 0.87299 0.78072 0.11707 0.0
O32 O 0.72894 0.91192 0.07709 0.0
O33 O 0.86983 0.9199 0.18505 0.0
O34 O 0.79278 0.80087 0.15279 0.0
O35 O 0.8478 0.92717 0.07316 0.0
O36 O 0.75534 0.82219 0.02636 0.0
O37 O 0.89384 0.81049 0.14038 0.0
O38 O 0.76268 0.88745 0.01717 0.0
O39 O 0.90631 0.89672 0.12735 0.0
O40 O 0.83023 0.7773 0.09737 0.0
O41 O 0.81615 0.95521 0.1317 0.0
O42 O 0.71623 0.84655 0.08133 0.0
O43 O 0.85704 0.83283 0.19746 0.0
Sc44 Sc 0.80131 0.57206 0.57695 0.0
Sc45 Sc 0.87544 0.62851 0.66475 0.0
Sc46 Sc 0.76862 0.66597 0.5942 0.0
O47 O 0.81504 0.62195 0.61194 0.0
C48 C 0.76305 0.64406 0.50991 0.0
C49 C 0.90283 0.58148 0.60632 0.0
C50 C 0.8617 0.71497 0.62988 0.0
C51 C 0.85486 0.53855 0.67163 0.0
C52 C 0.70709 0.58652 0.56755 0.0
C53 C 0.80714 0.66717 0.6893 0.0
O54 O 0.77079 0.60668 0.51882 0.0
O55 O 0.91335 0.59785 0.64097 0.0
O56 O 0.81945 0.71372 0.6162 0.0
O57 O 0.83332 0.53324 0.63203 0.0
O58 O 0.71152 0.62466 0.57 0.0
O59 O 0.84686 0.65988 0.69698 0.0
O60 O 0.73862 0.56313 0.57335 0.0
O61 O 0.86721 0.57305 0.68848 0.0
O62 O 0.77248 0.6644 0.65293 0.0
O63 O 0.86255 0.57521 0.57738 0.0
O64 O 0.76324 0.66982 0.53506 0.0
O65 O 0.88657 0.68398 0.6431 0.0
Sc66 Sc 0.2406 0.17474 0.91668 0.0
Sc67 Sc 0.13092 0.1413 0.84346 0.0
Sc68 Sc 0.20375 0.07972 0.92623 0.0
O69 O 0.19198 0.1319 0.89499 0.0
C70 C 0.29444 0.09176 0.92939 0.0
C71 C 0.19916 0.18243 0.81975 0.0
C72 C 0.14079 0.05026 0.83087 0.0
C73 C 0.15103 0.22596 0.88746 0.0
C74 C 0.25214 0.14302 0.00065 0.0
C75 C 0.1072 0.10058 0.90704 0.0
O76 O 0.29336 0.13003 0.9323 0.0
O77 O 0.16021 0.1701 0.81069 0.0
O78 O 0.16405 0.04409 0.87011 0.0
O79 O 0.19366 0.22409 0.90385 0.0
O80 O 0.24276 0.10701 0.98743 0.0
O81 O 0.09439 0.1149 0.87095 0.0
O82 O 0.25021 0.172 0.97778 0.0
O83 O 0.12471 0.19721 0.86714 0.0
O84 O 0.14713 0.08899 0.93221 0.0
O85 O 0.23322 0.18231 0.85674 0.0
O86 O 0.26179 0.06906 0.92239 0.0
O87 O 0.13123 0.08536 0.81539 0.0
H88 H 0.88093 0.9517 0.25442 0.0
H89 H 0.91853 0.00799 0.30225 0.0
H90 H 0.88246 0.08557 0.19689 0.0
H91 H 0.84285 0.0301 0.14926 0.0
H92 H 0.98888 0.04147 0.31645 0.0
H93 H 0.88674 0.18158 0.21659 0.0
H94 H 0.80724 0.20182 0.17171 0.0
H95 H 0.7679 0.11501 0.23186 0.0
H96 H 0.84722 0.09462 0.27755 0.0
H97 H 0.12815 0.2052 0.34407 0.0
H98 H 0.07781 0.14751 0.32646 0.0
H99 H -0.00316 0.2144 0.36287 0.0
H100 H 0.0457 0.27295 0.37788 0.0
H101 H 0.94391 0.18499 0.29409 0.0
H102 H 0.06021 0.12584 0.41674 0.0
H103 H 0.13724 0.10494 0.47005 0.0
H104 H 0.1433 0.02893 0.38033 0.0
H105 H 0.06654 0.04979 0.32628 0.0
C106 C 0.87972 0.98119 0.24155 0.0
C107 C 0.85897 0.98658 0.19815 0.0
C108 C 0.90148 0.01329 0.26889 0.0
C109 C 0.90355 0.05121 0.2534 0.0
C110 C 0.88062 0.05704 0.20987 0.0
C111 C 0.85797 0.02519 0.18251 0.0
C112 C 0.93403 0.08311 0.28217 0.0
C113 C 0.97883 0.07282 0.31192 0.0
C114 C 0.92083 0.12396 0.27757 0.0
C115 C 0.87301 0.13642 0.2504 0.0
C116 C 0.8612 0.16697 0.22047 0.0
C117 C 0.81613 0.17843 0.19482 0.0
C118 C 0.78254 0.15966 0.19887 0.0
C119 C 0.79394 0.12944 0.22866 0.0
C120 C 0.83896 0.11789 0.25441 0.0
C121 C 0.10032 0.2071 0.34938 0.0
C122 C 0.09066 0.24336 0.36224 0.0
C123 C 0.07153 0.17405 0.33945 0.0
C124 C 0.03342 0.1763 0.34351 0.0
C125 C 0.02569 0.21185 0.35913 0.0
C126 C 0.05375 0.24521 0.36796 0.0
C127 C -0.0008 0.14346 0.32699 0.0
C128 C 0.95373 0.15359 0.29944 0.0
C129 C 0.01137 0.10237 0.33499 0.0
C130 C 0.05761 0.08956 0.36737 0.0
C131 C 0.07805 0.10486 0.40828 0.0
C132 C 0.12168 0.09299 0.43866 0.0
C133 C 0.14517 0.06566 0.42857 0.0
C134 C 0.12505 0.05009 0.3881 0.0
C135 C 0.08144 0.06187 0.3576 0.0
H136 H 0.17894 0.05652 0.45213 0.0
H137 H 0.74766 0.16856 0.17897 0.0
H138 H 0.06412 0.45205 0.22693 0.0
H139 H 0.03137 0.50991 0.18201 0.0
H140 H 0.13636 0.58564 0.27578 0.0
H141 H 0.16834 0.52764 0.3223 0.0
H142 H 0.06109 0.61481 0.25695 0.0
H143 H 0.11817 0.57049 0.17296 0.0
H144 H 0.13582 0.52327 0.13265 0.0
H145 H 0.99454 0.50319 0.04701 0.0
H146 H 0.97597 0.54981 0.08714 0.0
H147 H 0.96058 0.78487 0.13813 0.0
H148 H 0.0123 0.7287 0.15564 0.0
H149 H 0.90172 0.64525 0.11269 0.0
H150 H 0.84926 0.70154 0.09552 0.0
H151 H 0.98739 0.62548 0.10282 0.0
H152 H 0.93598 0.65821 0.20044 0.0
H153 H 0.91972 0.7077 0.24005 0.0
H154 H 0.05593 0.75125 0.2997 0.0
H155 H 0.07267 0.70244 0.25979 0.0
C156 C 0.08111 0.48074 0.23785 0.0
C157 C 0.11842 0.48529 0.2787 0.0
C158 C 0.06245 0.51394 0.21171 0.0
C159 C 0.08133 0.5523 0.22531 0.0
C160 C 0.12102 0.55635 0.26466 0.0
C161 C 0.13932 0.52316 0.29124 0.0
C162 C 0.05541 0.58835 0.20167 0.0
C163 C 0.04609 0.61739 0.2234 0.0
C164 C 0.03473 0.59162 0.15764 0.0
C165 C 0.04569 0.56356 0.13326 0.0
C166 C 0.09084 0.5558 0.14571 0.0
C167 C 0.10101 0.52916 0.12285 0.0
C168 C 0.06633 0.5102 0.08733 0.0
C169 C 0.02138 0.5179 0.07454 0.0
C170 C 0.01101 0.5445 0.09729 0.0
C171 C 0.94689 0.75464 0.13129 0.0
C172 C 0.90098 0.74753 0.11652 0.0
C173 C 0.97652 0.72264 0.14095 0.0
C174 C 0.96074 0.68307 0.13574 0.0
C175 C 0.91429 0.67577 0.11666 0.0
C176 C 0.88444 0.70792 0.10709 0.0
C177 C 0.99326 0.65057 0.15835 0.0
C178 C 0.00346 0.62265 0.13645 0.0
C179 C 0.0152 0.64825 0.2023 0.0
C180 C 0.0054 0.67706 0.22682 0.0
C181 C 0.96231 0.67859 0.22173 0.0
C182 C 0.95303 0.70646 0.24426 0.0
C183 C 0.98674 0.73267 0.2723 0.0
C184 C 0.02983 0.73098 0.27792 0.0
C185 C 0.03923 0.70323 0.25536 0.0
H186 H 0.97952 0.75421 0.28975 0.0
H187 H 0.07427 0.48958 0.06968 0.0
H188 H 0.08873 0.05079 0.7453 0.0
H189 H 0.03821 0.9975 0.70054 0.0
H190 H 0.08974 0.91843 0.80694 0.0
H191 H 0.14012 0.97151 0.85212 0.0
H192 H 0.04491 0.91991 0.67996 0.0
H193 H -0.00041 0.87197 0.80317 0.0
H194 H -0.00317 0.90164 0.86226 0.0
H195 H 0.98013 0.01926 0.80879 0.0
H196 H 0.98209 0.99029 0.74913 0.0
H197 H 0.94707 0.72785 0.6465 0.0
H198 H 0.9895 0.79034 0.6681 0.0
H199 H 0.87114 0.8539 0.64724 0.0
H200 H 0.82833 0.79079 0.62641 0.0
H201 H 0.93976 0.8693 0.72236 0.0
H202 H 0.91743 0.87181 0.58614 0.0
H203 H 0.91552 0.84466 0.52392 0.0
H204 H 0.05834 0.8241 0.59631 0.0
H205 H 0.06106 0.85055 0.65914 0.0
C206 C 0.09006 0.02182 0.75914 0.0
C207 C 0.11805 0.0157 0.80251 0.0
C208 C 0.06112 0.99139 0.73343 0.0
C209 C 0.05954 0.95442 0.75063 0.0
C210 C 0.0899 0.94709 0.79324 0.0
C211 C 0.1189 0.97743 0.81898 0.0
C212 C 0.02405 0.92461 0.72487 0.0
C213 C 0.02182 0.90881 0.68908 0.0
C214 C 0.993 0.91124 0.73614 0.0
C215 C 0.99148 0.92895 0.77186 0.0
C216 C 0.9952 0.90415 0.80396 0.0
C217 C 0.9938 0.92086 0.83758 0.0
C218 C 0.98855 0.96234 0.8394 0.0
C219 C 0.98449 0.98718 0.80751 0.0
C220 C 0.98578 0.97063 0.77379 0.0
C221 C 0.92967 0.75517 0.64576 0.0
C222 C 0.88436 0.7542 0.63517 0.0
C223 C 0.954 0.79104 0.65784 0.0
C224 C 0.93351 0.82689 0.65915 0.0
C225 C 0.88761 0.82653 0.64645 0.0
C226 C 0.86313 0.79049 0.63436 0.0
C227 C 0.96151 0.86339 0.67811 0.0
C228 C 0.96242 0.88057 0.7128 0.0
C229 C 0.99072 0.87846 0.66534 0.0
C230 C 0.98939 0.86301 0.62746 0.0
C231 C 0.94841 0.86129 0.58887 0.0
C232 C 0.94718 0.84604 0.55347 0.0
C233 C 0.98677 0.83261 0.55618 0.0
C234 C 0.0277 0.83453 0.59426 0.0
C235 C 0.02911 0.84971 0.62977 0.0
H236 H 0.98575 0.82074 0.52878 0.0
H237 H 0.98748 0.97521 0.86544 0.0
H238 H 0.85451 0.45921 0.65076 0.0
H239 H 0.90224 0.40583 0.69785 0.0
H240 H 0.94852 0.48612 0.80301 0.0
H241 H 0.89961 0.53858 0.75685 0.0
H242 H 0.9885 0.40731 0.7385 0.0
H243 H 0.99273 0.43701 0.89399 0.0
H244 H 0.94047 0.45646 0.91714 0.0
H245 H 0.8287 0.41056 0.80289 0.0
H246 H 0.88033 0.39034 0.77929 0.0
H247 H 0.1781 0.30344 0.88635 0.0
H248 H 0.12846 0.3625 0.86303 0.0
H249 H 0.02372 0.29172 0.86246 0.0
H250 H 0.07302 0.23358 0.88634 0.0
H251 H 0.01367 0.36639 0.87651 0.0
H252 H 0.03702 0.29328 0.77778 0.0
H253 H 0.08332 0.26545 0.75116 0.0
H254 H 0.12634 0.38453 0.74311 0.0
H255 H 0.08088 0.41299 0.77043 0.0
C256 C 0.87357 0.46502 0.68406 0.0
C257 C 0.87362 0.5034 0.69987 0.0
C258 C 0.90121 0.43459 0.71094 0.0
C259 C 0.92933 0.44201 0.75398 0.0
C260 C 0.92686 0.47935 0.77008 0.0
C261 C 0.8989 0.50951 0.74343 0.0
C262 C 0.96464 0.41263 0.78131 0.0
C263 C 0.99377 0.39832 0.76859 0.0
C264 C 0.97173 0.40079 0.82064 0.0
C265 C 0.94041 0.41254 0.83471 0.0
C266 C 0.95703 0.43093 0.87387 0.0
C267 C 0.92751 0.44212 0.88706 0.0
C268 C 0.88128 0.43487 0.86144 0.0
C269 C 0.8645 0.41631 0.82263 0.0
C270 C 0.89387 0.40504 0.8093 0.0
C271 C 0.14524 0.30112 0.88303 0.0
C272 C 0.129 0.26386 0.88733 0.0
C273 C 0.11678 0.33472 0.86941 0.0
C274 C 0.07192 0.33108 0.85978 0.0
C275 C 0.05796 0.29521 0.86928 0.0
C276 C 0.08621 0.2619 0.88286 0.0
C277 C 0.03727 0.36131 0.83362 0.0
C278 C 0.0084 0.3758 0.84654 0.0
C279 C 0.0293 0.37218 0.79375 0.0
C280 C 0.05599 0.35521 0.7766 0.0
C281 C 0.05654 0.31349 0.77054 0.0
C282 C 0.08264 0.29761 0.75535 0.0
C283 C 0.10786 0.32319 0.74556 0.0
C284 C 0.10688 0.36474 0.75081 0.0
C285 C 0.08099 0.38076 0.76617 0.0
H286 H 0.12808 0.31083 0.73384 0.0
H287 H 0.85848 0.44357 0.8717 0.0
H288 H 0.96559 0.62001 0.59515 0.0
H289 H 0.00149 0.59045 0.55935 0.0
H290 H 0.94887 0.47383 0.56314 0.0
H291 H 0.91467 0.50299 0.59993 0.0
H292 H 0.02291 0.46406 0.56037 0.0
H293 H 0.88574 0.53829 0.48611 0.0
H294 H 0.84118 0.59872 0.47792 0.0
H295 H 0.9262 0.66887 0.44979 0.0
H296 H 0.97291 0.60889 0.45995 0.0
H297 H 0.01208 0.38283 0.38302 0.0
H298 H 0.97536 0.40987 0.41922 0.0
H299 H 0.03581 0.52583 0.42805 0.0
H300 H 0.07125 0.49935 0.39139 0.0
H301 H 0.95493 0.53349 0.42322 0.0
H302 H 0.09292 0.45142 0.50059 0.0
H303 H 0.1307 0.38666 0.50718 0.0
H304 H 0.03151 0.32541 0.52308 0.0
H305 H 0.99272 0.38978 0.51588 0.0
C306 C 0.96393 0.58778 0.59028 0.0
C307 C 0.93743 0.56365 0.59995 0.0
C308 C 0.984 0.57092 0.56953 0.0
C309 C 0.97665 0.53013 0.55747 0.0
C310 C 0.95479 0.50533 0.57181 0.0
C311 C 0.93521 0.52202 0.5928 0.0
C312 C 0.98372 0.51494 0.52398 0.0
C313 C 0.00803 0.47924 0.53043 0.0
C314 C 0.96326 0.53405 0.48439 0.0
C315 C 0.93313 0.56927 0.47434 0.0
C316 C 0.89494 0.56658 0.47813 0.0
C317 C 0.8694 0.60078 0.47331 0.0
C318 C 0.88088 0.63765 0.46343 0.0
C319 C 0.91756 0.64028 0.4577 0.0
C320 C 0.94372 0.6062 0.46318 0.0
C321 C 0.01567 0.41448 0.39105 0.0
C322 C 0.04487 0.43896 0.38515 0.0
C323 C 0.99506 0.42984 0.41196 0.0
C324 C 0.004 0.46956 0.42734 0.0
C325 C 0.02877 0.49507 0.41684 0.0
C326 C 0.04914 0.47986 0.39602 0.0
C327 C 0.99472 0.48306 0.45988 0.0
C328 C 0.96992 0.51843 0.45323 0.0
C329 C 0.01382 0.4631 0.49889 0.0
C330 C 0.0397 0.42528 0.50729 0.0
C331 C 0.07926 0.42413 0.50557 0.0
C332 C 0.1007 0.38747 0.50918 0.0
C333 C 0.08315 0.35188 0.515 0.0
C334 C 0.04479 0.35298 0.5182 0.0
C335 C 0.02312 0.38953 0.51444 0.0
H336 H 0.0994 0.32345 0.51739 0.0
H337 H 0.86155 0.66416 0.46059 0.0
H338 H 0.86102 0.92292 0.01261 0.0
H339 H 0.89865 0.95476 0.98068 0.0
H340 H 0.01528 0.97721 0.10275 0.0
H341 H 0.97724 0.94427 0.13537 0.0
H342 H 0.97878 0.04599 0.0509 0.0
H343 H 0.02159 0.91129 0.03984 0.0
H344 H 0.00939 0.83942 0.021 0.0
H345 H 0.92303 0.87035 0.89166 0.0
H346 H 0.93355 0.94238 0.90977 0.0
H347 H 0.12445 0.11166 0.98513 0.0
H348 H 0.08084 0.08607 0.01414 0.0
H349 H 0.97454 0.05048 0.89075 0.0
H350 H 0.01903 0.07591 0.86144 0.0
H351 H 0.00377 0.9887 0.94218 0.0
H352 H 0.95389 0.11928 0.94823 0.0
H353 H 0.95619 0.19199 0.96217 0.0
H354 H 0.04583 0.17087 0.09333 0.0
H355 H 0.04446 0.09803 0.08017 0.0
C356 C 0.89514 0.93361 0.03276 0.0
C357 C 0.91628 0.93108 0.07646 0.0
C358 C 0.91661 0.9518 0.0144 0.0
C359 C 0.95973 0.96812 0.03933 0.0
C360 C 0.98195 0.9645 0.08308 0.0
C361 C 0.96046 0.94557 0.10163 0.0
C362 C 0.97901 0.9921 0.01914 0.0
C363 C 0.98529 0.03344 0.02776 0.0
C364 C 0.98465 0.97585 0.9872 0.0
C365 C 0.97802 0.93236 0.9763 0.0
C366 C -0.0005 0.90282 0.00744 0.0
C367 C 0.99289 0.862 0.99687 0.0
C368 C 0.96522 0.85031 0.95518 0.0
C369 C 0.94418 0.87942 0.92396 0.0
C370 C 0.95046 0.92025 0.93438 0.0
C371 C 0.09118 0.09941 0.96398 0.0
C372 C 0.07518 0.09516 0.92117 0.0
C373 C 0.06611 0.08505 0.98058 0.0
C374 C 0.02444 0.06634 0.95465 0.0
C375 C 0.00667 0.06493 0.91125 0.0
C376 C 0.03185 0.07958 0.8945 0.0
C377 C 0.00385 0.04276 0.97402 0.0
C378 C -0.0027 0.00143 0.96527 0.0
C379 C -0.00306 0.05917 0.00514 0.0
C380 C -0.00069 0.10315 0.01314 0.0
C381 C 0.97446 0.13015 0.98001 0.0
C382 C 0.97539 0.17138 0.9878 0.0
C383 C 0.00106 0.18603 0.02862 0.0
C384 C 0.02584 0.15946 0.06174 0.0
C385 C 0.02498 0.11819 0.05413 0.0
H386 H 0.00187 0.21797 0.03458 0.0
H387 H 0.96023 0.81871 0.94705 0.0
H388 H 0.21941 0.10142 0.04205 0.0
H389 H 0.21085 0.12694 0.09884 0.0
H390 H 0.28714 0.23281 0.10766 0.0
H391 H 0.29515 0.20801 0.05022 0.0
H392 H 0.29622 0.18592 0.19073 0.0
H393 H 0.19595 0.26246 0.05693 0.0
H394 H 0.14363 0.25859 0.98052 0.0
H395 H 0.06392 0.17087 0.99786 0.0
H396 H 0.116 0.17404 0.07436 0.0
H397 H 0.24283 0.33079 0.29233 0.0
H398 H 0.25933 0.2974 0.2437 0.0
H399 H 0.13077 0.23647 0.18659 0.0
H400 H 0.11316 0.27178 0.23402 0.0
H401 H 0.14731 0.2534 0.12902 0.0
H402 H 0.23296 0.19003 0.26149 0.0
H403 H 0.28471 0.18539 0.33776 0.0
H404 H 0.39188 0.23501 0.32585 0.0
H405 H 0.34059 0.24048 0.24954 0.0
C406 C 0.23584 0.12942 0.05707 0.0
C407 C 0.25784 0.15283 0.04159 0.0
C408 C 0.23078 0.14396 0.08941 0.0
C409 C 0.24835 0.18166 0.10717 0.0
C410 C 0.27363 0.20351 0.09434 0.0
C411 C 0.27809 0.18934 0.06153 0.0
C412 C 0.23451 0.20098 0.13421 0.0
C413 C 0.26395 0.20105 0.17751 0.0
C414 C 0.19178 0.21924 0.11672 0.0
C415 C 0.15949 0.2187 0.07112 0.0
C416 C 0.16709 0.24251 0.04435 0.0
C417 C 0.13757 0.24036 0.00108 0.0
C418 C 0.10034 0.21457 0.98439 0.0
C419 C 0.09255 0.19097 0.01091 0.0
C420 C 0.12197 0.19298 0.05416 0.0
C421 C 0.21784 0.3107 0.26897 0.0
C422 C 0.17687 0.30359 0.267 0.0
C423 C 0.22744 0.29133 0.24145 0.0
C424 C 0.19697 0.26334 0.21236 0.0
C425 C 0.15502 0.25764 0.20901 0.0
C426 C 0.1449 0.27786 0.23599 0.0
C427 C 0.20955 0.23959 0.18628 0.0
C428 C 0.17969 0.23839 0.14282 0.0
C429 C 0.2517 0.21948 0.20395 0.0
C430 C 0.28281 0.21596 0.24982 0.0
C431 C 0.26749 0.20018 0.27516 0.0
C432 C 0.29675 0.19738 0.3184 0.0
C433 C 0.34153 0.20997 0.33665 0.0
C434 C 0.35717 0.2253 0.31168 0.0
C435 C 0.32804 0.22821 0.26842 0.0
H436 H 0.36413 0.20779 0.37013 0.0
H437 H 0.07754 0.21274 0.95095 0.0
H438 H 0.84675 0.84225 0.26511 0.0
H439 H 0.83508 0.81185 0.31849 0.0
H440 H 0.78768 0.70271 0.24548 0.0
H441 H 0.79702 0.73379 0.19141 0.0
H442 H 0.734 0.71866 0.26957 0.0
H443 H 0.89405 0.71156 0.34036 0.0
H444 H 0.97201 0.7355 0.36914 0.0
H445 H 0.95668 0.8178 0.44936 0.0
H446 H 0.87841 0.79471 0.42069 0.0
H447 H 0.75089 0.60173 0.4413 0.0
H448 H 0.75826 0.62824 0.38385 0.0
H449 H 0.77581 0.74794 0.43443 0.0
H450 H 0.7684 0.72223 0.49127 0.0
H451 H 0.84485 0.72431 0.42178 0.0
H452 H 0.68214 0.72658 0.34746 0.0
H453 H 0.60665 0.69679 0.31941 0.0
H454 H 0.63242 0.61322 0.24674 0.0
H455 H 0.70836 0.64217 0.27484 0.0
C456 C 0.83435 0.81165 0.26087 0.0
C457 C 0.82252 0.79041 0.22419 0.0
C458 C 0.82782 0.79418 0.29138 0.0
C459 C 0.81072 0.75477 0.28622 0.0
C460 C 0.80051 0.7332 0.25012 0.0
C461 C 0.80601 0.75093 0.21931 0.0
C462 C 0.80131 0.7366 0.31724 0.0
C463 C 0.75872 0.71913 0.30281 0.0
C464 C 0.83311 0.73759 0.36071 0.0
C465 C 0.88016 0.75171 0.378 0.0
C466 C 0.90717 0.735 0.36389 0.0
C467 C 0.95146 0.74835 0.38026 0.0
C468 C 0.96926 0.77819 0.41102 0.0
C469 C 0.94284 0.79468 0.42554 0.0
C470 C 0.89852 0.78146 0.40925 0.0
C471 C 0.75538 0.63379 0.43967 0.0
C472 C 0.75945 0.65969 0.47116 0.0
C473 C 0.75955 0.64888 0.40684 0.0
C474 C 0.76791 0.69001 0.40519 0.0
C475 C 0.76968 0.71608 0.43534 0.0
C476 C 0.76515 0.70121 0.46775 0.0
C477 C 0.77809 0.70581 0.374 0.0
C478 C 0.82064 0.7231 0.38847 0.0
C479 C 0.74681 0.70353 0.33063 0.0
C480 C 0.7011 0.68625 0.3136 0.0
C481 C 0.67186 0.70162 0.32579 0.0
C482 C 0.62896 0.68493 0.30982 0.0
C483 C 0.61479 0.65305 0.28141 0.0
C484 C 0.64346 0.63787 0.26881 0.0
C485 C 0.68642 0.65443 0.28472 0.0
H486 H 0.58157 0.64018 0.26908 0.0
H487 H 0.00356 0.7885 0.42366 0.0
H488 H 0.80814 0.87342 0.97723 0.0
H489 H 0.81277 0.84404 0.92023 0.0
H490 H 0.68986 0.77773 0.88118 0.0
H491 H 0.68795 0.80479 0.94125 0.0
H492 H 0.74453 0.72965 0.88209 0.0
H493 H 0.70399 0.86213 0.82282 0.0
H494 H 0.70927 0.93611 0.82227 0.0
H495 H 0.84508 0.9272 0.84852 0.0
H496 H 0.84069 0.85318 0.84952 0.0
H497 H 0.73056 0.66532 0.6928 0.0
H498 H 0.71765 0.69806 0.74417 0.0
H499 H 0.85583 0.73859 0.81222 0.0
H500 H 0.86928 0.70553 0.76113 0.0
H501 H 0.78963 0.80004 0.79251 0.0
H502 H 0.8292 0.66763 0.85356 0.0
H503 H 0.82291 0.59372 0.85316 0.0
H504 H 0.68488 0.60374 0.82034 0.0
H505 H 0.69017 0.67776 0.81996 0.0
C506 C 0.78132 0.85371 0.9556 0.0
C507 C 0.74729 0.84192 0.96304 0.0
C508 C 0.78385 0.83686 0.9228 0.0
C509 C 0.75117 0.8091 0.89553 0.0
C510 C 0.71553 0.79906 0.90165 0.0
C511 C 0.71406 0.81481 0.93559 0.0
C512 C 0.75696 0.78755 0.86373 0.0
C513 C 0.75331 0.74534 0.86187 0.0
C514 C 0.76984 0.80758 0.83802 0.0
C515 C 0.77211 0.85211 0.83651 0.0
C516 C 0.73502 0.87595 0.82861 0.0
C517 C 0.73785 0.9179 0.82819 0.0
C518 C 0.77751 0.93635 0.83543 0.0
C519 C 0.81438 0.91289 0.84292 0.0
C520 C 0.8117 0.87095 0.84331 0.0
C521 C 0.75839 0.68078 0.71898 0.0
C522 C 0.80095 0.68289 0.72293 0.0
C523 C 0.75093 0.69941 0.74827 0.0
C524 C 0.78577 0.72075 0.78181 0.0
C525 C 0.82855 0.72226 0.78641 0.0
C526 C 0.83624 0.70313 0.75741 0.0
C527 C 0.77694 0.74274 0.81116 0.0
C528 C 0.78016 0.7848 0.81249 0.0
C529 C 0.76311 0.72273 0.83594 0.0
C530 C 0.75995 0.67823 0.8363 0.0
C531 C 0.79738 0.65407 0.84589 0.0
C532 C 0.79403 0.61216 0.84588 0.0
C533 C 0.75348 0.59404 0.83662 0.0
C534 C 0.71625 0.61782 0.82745 0.0
C535 C 0.71942 0.65975 0.82738 0.0
H536 H 0.75095 0.56159 0.83664 0.0
H537 H 0.77965 0.96882 0.83518 0.0
H538 H 0.14311 0.17596 0.73468 0.0
H539 H 0.15163 0.20925 0.68069 0.0
H540 H 0.27508 0.26468 0.77589 0.0
H541 H 0.2674 0.23127 0.82994 0.0
H542 H 0.21132 0.3185 0.71093 0.0
H543 H 0.28775 0.19258 0.72914 0.0
H544 H 0.29503 0.11871 0.7336 0.0
H545 H 0.18239 0.10788 0.60801 0.0
H546 H 0.17399 0.1817 0.60302 0.0
H547 H 0.25886 0.39273 0.55545 0.0
H548 H 0.26336 0.36669 0.61905 0.0
H549 H 0.16894 0.27256 0.54608 0.0
H550 H 0.16695 0.29679 0.48404 0.0
H551 H 0.23022 0.23986 0.60847 0.0
H552 H 0.13842 0.36033 0.60105 0.0
H553 H 0.12432 0.43366 0.59598 0.0
H554 H 0.25966 0.45374 0.69772 0.0
H555 H 0.27416 0.38055 0.70332 0.0
C556 C 0.1722 0.19501 0.74411 0.0
C557 C 0.20473 0.20066 0.7866 0.0
C558 C 0.17699 0.21402 0.71329 0.0
C559 C 0.21401 0.23933 0.72448 0.0
C560 C 0.2463 0.24528 0.76674 0.0
C561 C 0.24195 0.22586 0.79752 0.0
C562 C 0.21916 0.25941 0.69197 0.0
C563 C 0.21592 0.30145 0.68868 0.0
C564 C 0.22486 0.23706 0.66299 0.0
C565 C 0.23 0.19266 0.66586 0.0
C566 C 0.26428 0.17444 0.70261 0.0
C567 C 0.26866 0.13257 0.7052 0.0
C568 C 0.23912 0.10861 0.67115 0.0
C569 C 0.20521 0.12647 0.63438 0.0
C570 C 0.20066 0.16833 0.63164 0.0
C571 C 0.239 0.36667 0.55333 0.0
C572 C 0.21311 0.34636 0.51518 0.0
C573 C 0.24114 0.35199 0.58953 0.0
C574 C 0.21622 0.31764 0.58761 0.0
C575 C 0.18907 0.29866 0.54886 0.0
C576 C 0.18785 0.31257 0.51329 0.0
C577 C 0.21984 0.2992 0.62555 0.0
C578 C 0.22551 0.25723 0.63045 0.0
C579 C 0.21568 0.32157 0.65559 0.0
C580 C 0.20756 0.36536 0.65181 0.0
C581 C 0.16523 0.38059 0.62172 0.0
C582 C 0.15712 0.422 0.61895 0.0
C583 C 0.19124 0.44836 0.64616 0.0
C584 C 0.23336 0.43332 0.67649 0.0
C585 C 0.24147 0.3919 0.67956 0.0
H586 H 0.18493 0.48041 0.64395 0.0
H587 H 0.24257 0.0762 0.67322 0.0
H588 H 0.35688 0.35947 0.4542 0.0
H589 H 0.43176 0.38835 0.47847 0.0
H590 H 0.37157 0.50515 0.43416 0.0
H591 H 0.29737 0.4768 0.40944 0.0
H592 H 0.43589 0.49262 0.41684 0.0
H593 H 0.41917 0.47916 0.53659 0.0
H594 H 0.40549 0.44215 0.5861 0.0
H595 H 0.52003 0.36686 0.62009 0.0
H596 H 0.53401 0.40312 0.57031 0.0
H597 H 0.62368 0.62244 0.53189 0.0
H598 H 0.55092 0.58895 0.50664 0.0
H599 H 0.61879 0.475 0.55072 0.0
H600 H 0.69119 0.50796 0.57626 0.0
H601 H 0.55224 0.48333 0.56766 0.0
H602 H 0.5705 0.4992 0.44949 0.0
H603 H 0.58404 0.5371 0.40037 0.0
H604 H 0.46626 0.60871 0.36362 0.0
H605 H 0.45237 0.57159 0.41299 0.0
C606 C 0.35964 0.39116 0.44917 0.0
C607 C 0.3212 0.41587 0.43033 0.0
C608 C 0.40241 0.40767 0.46324 0.0
C609 C 0.40725 0.44905 0.45862 0.0
C610 C 0.3687 0.47322 0.43817 0.0
C611 C 0.32625 0.4569 0.42427 0.0
C612 C 0.45228 0.46802 0.47637 0.0
C613 C 0.46121 0.49082 0.44987 0.0
C614 C 0.48555 0.46522 0.51935 0.0
C615 C 0.47731 0.44353 0.5494 0.0
C616 C 0.44122 0.45451 0.55439 0.0
C617 C 0.43345 0.4337 0.58253 0.0
C618 C 0.46179 0.40209 0.60613 0.0
C619 C 0.49805 0.3913 0.60172 0.0
C620 C 0.50592 0.41197 0.57357 0.0
C621 C 0.62311 0.59036 0.53665 0.0
C622 C 0.66321 0.56786 0.55572 0.0
C623 C 0.58154 0.57123 0.522 0.0
C624 C 0.57948 0.52939 0.52631 0.0
C625 C 0.61958 0.50725 0.54693 0.0
C626 C 0.66096 0.52621 0.56134 0.0
C627 C 0.53563 0.5082 0.50818 0.0
C628 C 0.52698 0.48498 0.5346 0.0
C629 C 0.50254 0.5107 0.46514 0.0
C630 C 0.51066 0.53289 0.43524 0.0
C631 C 0.54768 0.52324 0.43117 0.0
C632 C 0.55539 0.54454 0.40325 0.0
C633 C 0.5261 0.57536 0.37897 0.0
C634 C 0.48896 0.58487 0.38249 0.0
C635 C 0.48114 0.56369 0.41042 0.0
H636 H 0.53212 0.59182 0.35737 0.0
H637 H 0.45572 0.38603 0.62791 0.0
H638 H 0.30276 0.01622 0.90649 0.0
H639 H 0.3719 0.97769 0.93226 0.0
H640 H 0.45048 0.08191 -0.0008 0.0
H641 H 0.38102 0.12106 0.9733 0.0
H642 H 0.48923 0.03752 0.96323 0.0
H643 H 0.42729 0.0143 0.05003 0.0
H644 H 0.36792 0.99649 0.06485 0.0
H645 H 0.35699 0.8788 0.01308 0.0
H646 H 0.41585 0.89615 0.99734 0.0
H647 H 0.68892 0.94973 0.10996 0.0
H648 H 0.61555 0.98025 0.08569 0.0
H649 H 0.54977 0.87596 0.00945 0.0
H650 H 0.62376 0.84493 0.03386 0.0
H651 H 0.50332 0.91762 0.04851 0.0
H652 H 0.56659 0.94205 0.96214 0.0
H653 H 0.62808 0.96046 0.95045 0.0
H654 H 0.6376 0.07702 0.00392 0.0
H655 H 0.57667 0.059 0.01664 0.0
C656 C 0.33474 0.03123 0.92621 0.0
C657 C 0.33645 0.07155 0.93842 0.0
C658 C 0.37418 0.00908 0.94098 0.0
C659 C 0.41607 0.02672 0.96841 0.0
C660 C 0.41828 0.06774 0.97829 0.0
C661 C 0.37866 0.09009 0.96338 0.0
C662 C 0.45715 0.00163 0.98842 0.0
C663 C 0.49245 0.01156 0.98216 0.0
C664 C 0.46088 0.96728 0.01248 0.0
C665 C 0.42563 0.95668 0.02209 0.0
C666 C 0.41196 0.98474 0.04147 0.0
C667 C 0.37844 0.97471 0.0501 0.0
C668 C 0.35861 0.93657 0.0398 0.0
C669 C 0.37234 0.90835 0.02097 0.0
C670 C 0.40579 0.91826 0.01221 0.0
C671 C 0.65879 0.93272 0.08903 0.0
C672 C 0.66181 0.89529 0.07322 0.0
C673 C 0.61699 0.95019 0.07523 0.0
C674 C 0.57757 0.93063 0.04523 0.0
C675 C 0.58007 0.89144 0.03256 0.0
C676 C 0.62219 0.87374 0.04657 0.0
C677 C 0.53517 0.95365 0.02329 0.0
C678 C 0.49977 0.9434 0.02926 0.0
C679 C 0.53133 0.9878 -0.00095 0.0
C680 C 0.56736 -0.00097 0.99069 0.0
C681 C 0.58203 0.97149 0.9717 0.0
C682 C 0.61676 0.98187 0.96485 0.0
C683 C 0.63681 0.01985 0.97652 0.0
C684 C 0.62207 0.04759 0.99494 0.0
C685 C 0.58742 0.03732 0.00195 0.0
H686 H 0.6637 0.02783 0.9712 0.0
H687 H 0.33268 0.92885 0.04652 0.0
loop_
_geom_bond_atom_site_label_1
_geom_bond_atom_site_label_2
_geom_bond_distance
_geom_bond_site_symmetry_2
_ccdc_geom_bond_type
Sc0 O3 2.025 . S
Sc0 O10 2.105 . S
Sc0 O13 2.105 . S
Sc0 O16 2.105 . S
Sc0 O19 2.105 . S
Sc1 O3 2.025 . S
Sc1 O11 2.105 . S
Sc1 O15 2.105 . S
Sc1 O17 2.105 . S
Sc1 O21 2.105 . S
Sc2 O3 2.025 . S
Sc2 O12 2.105 . S
Sc2 O14 2.105 . S
Sc2 O18 2.105 . S
Sc2 O20 2.105 . S
O3 Sc0 2.025 . S
O3 Sc1 2.025 . S
O3 Sc2 2.025 . S
C4 O10 1.268 . S
C4 O20 1.268 . S
C5 O11 1.268 . S
C5 O19 1.268 . S
C6 O12 1.268 . S
C6 O21 1.268 . S
C7 O13 1.268 . S
C7 O17 1.268 . S
C8 O14 1.268 . S
C8 O16 1.268 . S
C9 O15 1.268 . S
C9 O18 1.268 . S
O10 Sc0 2.105 . S
O10 C4 1.268 . S
O11 Sc1 2.105 . S
O11 C5 1.268 . S
O12 Sc2 2.105 . S
O12 C6 1.268 . S
O13 Sc0 2.105 . S
O13 C7 1.268 . S
O14 Sc2 2.105 . S
O14 C8 1.268 . S
O15 Sc1 2.105 . S
O15 C9 1.268 . S
O16 Sc0 2.105 . S
O16 C8 1.268 . S
O17 Sc1 2.105 . S
O17 C7 1.268 . S
O18 Sc2 2.105 . S
O18 C9 1.268 . S
O19 Sc0 2.105 . S
O19 C5 1.268 . S
O20 Sc2 2.105 . S
O20 C4 1.268 . S
O21 Sc1 2.105 . S
O21 C6 1.268 . S
Sc22 O25 2.025 . S
Sc22 O32 2.105 . S
Sc22 O35 2.105 . S
Sc22 O38 2.105 . S
Sc22 O41 2.105 . S
Sc23 O25 2.025 . S
Sc23 O33 2.105 . S
Sc23 O37 2.105 . S
Sc23 O39 2.105 . S
Sc23 O43 2.105 . S
Sc24 O25 2.025 . S
Sc24 O34 2.105 . S
Sc24 O36 2.105 . S
Sc24 O40 2.105 . S
Sc24 O42 2.105 . S
O25 Sc22 2.025 . S
O25 Sc23 2.025 . S
O25 Sc24 2.025 . S
C26 O32 1.268 . S
C26 O42 1.268 . S
C27 O33 1.268 . S
C27 O41 1.268 . S
C28 O34 1.268 . S
C28 O43 1.268 . S
C29 O35 1.268 . S
C29 O39 1.268 . S
C30 O36 1.268 . S
C30 O38 1.268 . S
C31 O37 1.268 . S
C31 O40 1.268 . S
O32 Sc22 2.105 . S
O32 C26 1.268 . S
O33 Sc23 2.105 . S
O33 C27 1.268 . S
O34 Sc24 2.105 . S
O34 C28 1.268 . S
O35 Sc22 2.105 . S
O35 C29 1.268 . S
O36 Sc24 2.105 . S
O36 C30 1.268 . S
O37 Sc23 2.105 . S
O37 C31 1.268 . S
O38 Sc22 2.105 . S
O38 C30 1.268 . S
O39 Sc23 2.105 . S
O39 C29 1.268 . S
O40 Sc24 2.105 . S
O40 C31 1.268 . S
O41 Sc22 2.105 . S
O41 C27 1.268 . S
O42 Sc24 2.105 . S
O42 C26 1.268 . S
O43 Sc23 2.105 . S
O43 C28 1.268 . S
Sc44 O47 2.025 . S
Sc44 O54 2.105 . S
Sc44 O57 2.105 . S
Sc44 O60 2.105 . S
Sc44 O63 2.105 . S
Sc45 O47 2.025 . S
Sc45 O55 2.105 . S
Sc45 O59 2.105 . S
Sc45 O61 2.105 . S
Sc45 O65 2.105 . S
Sc46 O47 2.025 . S
Sc46 O56 2.105 . S
Sc46 O58 2.105 . S
Sc46 O62 2.105 . S
Sc46 O64 2.105 . S
O47 Sc44 2.025 . S
O47 Sc45 2.025 . S
O47 Sc46 2.025 . S
C48 O54 1.268 . S
C48 O64 1.268 . S
C49 O55 1.268 . S
C49 O63 1.268 . S
C50 O56 1.268 . S
C50 O65 1.268 . S
C51 O57 1.268 . S
C51 O61 1.268 . S
C52 O58 1.268 . S
C52 O60 1.268 . S
C53 O59 1.268 . S
C53 O62 1.268 . S
O54 Sc44 2.105 . S
O54 C48 1.268 . S
O55 Sc45 2.105 . S
O55 C49 1.268 . S
O56 Sc46 2.105 . S
O56 C50 1.268 . S
O57 Sc44 2.105 . S
O57 C51 1.268 . S
O58 Sc46 2.105 . S
O58 C52 1.268 . S
O59 Sc45 2.105 . S
O59 C53 1.268 . S
O60 Sc44 2.105 . S
O60 C52 1.268 . S
O61 Sc45 2.105 . S
O61 C51 1.268 . S
O62 Sc46 2.105 . S
O62 C53 1.268 . S
O63 Sc44 2.105 . S
O63 C49 1.268 . S
O64 Sc46 2.105 . S
O64 C48 1.268 . S
O65 Sc45 2.105 . S
O65 C50 1.268 . S
Sc66 O69 2.025 . S
Sc66 O76 2.105 . S
Sc66 O79 2.105 . S
Sc66 O82 2.105 . S
Sc66 O85 2.105 . S
Sc67 O69 2.025 . S
Sc67 O77 2.105 . S
Sc67 O81 2.105 . S
Sc67 O83 2.105 . S
Sc67 O87 2.105 . S
Sc68 O69 2.025 . S
Sc68 O78 2.105 . S
Sc68 O80 2.105 . S
Sc68 O84 2.105 . S
Sc68 O86 2.105 . S
O69 Sc66 2.025 . S
O69 Sc67 2.025 . S
O69 Sc68 2.025 . S
C70 O76 1.268 . S
C70 O86 1.268 . S
C71 O77 1.268 . S
C71 O85 1.268 . S
C72 O78 1.268 . S
C72 O87 1.268 . S
C73 O79 1.268 . S
C73 O83 1.268 . S
C74 O80 1.268 . S
C74 O82 1.268 . S
C75 O81 1.268 . S
C75 O84 1.268 . S
O76 Sc66 2.105 . S
O76 C70 1.268 . S
O77 Sc67 2.105 . S
O77 C71 1.268 . S
O78 Sc68 2.105 . S
O78 C72 1.268 . S
O79 Sc66 2.105 . S
O79 C73 1.268 . S
O80 Sc68 2.105 . S
O80 C74 1.268 . S
O81 Sc67 2.105 . S
O81 C75 1.268 . S
O82 Sc66 2.105 . S
O82 C74 1.268 . S
O83 Sc67 2.105 . S
O83 C73 1.268 . S
O84 Sc68 2.105 . S
O84 C75 1.268 . S
O85 Sc66 2.105 . S
O85 C71 1.268 . S
O86 Sc68 2.105 . S
O86 C70 1.268 . S
O87 Sc67 2.105 . S
O87 C72 1.268 . S
H88 C106 0.951 . S
H89 C108 0.951 . S
H90 C110 0.950 . S
H91 C111 0.950 . S
H92 C113 0.950 1_455 S
H93 C116 0.950 . S
H94 C117 0.950 . S
H95 C119 0.950 . S
H96 C120 0.950 . S
H97 C121 0.951 . S
H98 C123 0.951 . S
H99 C125 0.950 . S
H100 C126 0.950 . S
H101 C128 0.950 . S
H102 C131 0.950 . S
H103 C132 0.950 . S
H104 C134 0.950 . S
H105 C135 0.950 . S
C106 H88 0.951 . S
C106 C107 1.366 . S
C106 C108 1.388 . S
C107 C106 1.366 . S
C107 C111 1.385 . S
C108 H89 0.951 . S
C108 C106 1.388 . S
C108 C109 1.366 . S
C109 C108 1.366 . S
C109 C110 1.414 . S
C109 C112 1.499 . S
C110 H90 0.950 . S
C110 C109 1.414 . S
C110 C111 1.374 . S
C111 H91 0.950 . S
C111 C107 1.385 . S
C111 C110 1.374 . S
C112 C109 1.499 . S
C112 C113 1.373 . S
C112 C114 1.389 . S
C113 H92 0.950 1_655 S
C113 C112 1.373 . S
C113 C129 1.377 1_655 S
C114 C112 1.389 . S
C114 C115 1.524 . S
C114 C128 1.377 . S
C115 C114 1.524 . S
C115 C116 1.397 . S
C115 C120 1.363 . S
C116 H93 0.950 . S
C116 C115 1.397 . S
C116 C117 1.334 . S
C117 H94 0.950 . S
C117 C116 1.334 . S
C117 C118 1.287 . S
C118 C117 1.287 . S
C118 C119 1.524 . S
C118 H137 0.913 . S
C119 H95 0.950 . S
C119 C118 1.524 . S
C119 C120 1.415 . S
C120 H96 0.950 . S
C120 C115 1.363 . S
C120 C119 1.415 . S
C121 H97 0.951 . S
C121 C122 1.366 . S
C121 C123 1.388 . S
C122 C121 1.366 . S
C122 C126 1.385 . S
C123 H98 0.951 . S
C123 C121 1.388 . S
C123 C124 1.366 . S
C124 C123 1.366 . S
C124 C125 1.414 . S
C124 C127 1.499 . S
C125 H99 0.950 . S
C125 C124 1.414 . S
C125 C126 1.374 . S
C126 H100 0.950 . S
C126 C122 1.385 . S
C126 C125 1.374 . S
C127 C124 1.499 . S
C127 C128 1.373 1_455 S
C127 C129 1.389 . S
C128 H101 0.950 . S
C128 C114 1.377 . S
C128 C127 1.373 1_655 S
C129 C113 1.377 1_455 S
C129 C127 1.389 . S
C129 C130 1.524 . S
C130 C129 1.524 . S
C130 C131 1.397 . S
C130 C135 1.363 . S
C131 H102 0.950 . S
C131 C130 1.397 . S
C131 C132 1.334 . S
C132 H103 0.950 . S
C132 C131 1.334 . S
C132 C133 1.287 . S
C133 C132 1.287 . S
C133 C134 1.524 . S
C133 H136 0.999 . S
C134 H104 0.950 . S
C134 C133 1.524 . S
C134 C135 1.415 . S
C135 H105 0.950 . S
C135 C130 1.363 . S
C135 C134 1.415 . S
H136 C133 0.999 . S
H137 C118 0.913 . S
H138 C156 0.951 . S
H139 C158 0.951 . S
H140 C160 0.950 . S
H141 C161 0.950 . S
H142 C163 0.950 . S
H143 C166 0.950 . S
H144 C167 0.950 . S
H145 C169 0.950 . S
H146 C170 0.950 . S
H147 C171 0.951 . S
H148 C173 0.951 1_455 S
H149 C175 0.950 . S
H150 C176 0.950 . S
H151 C178 0.950 . S
H152 C181 0.950 1_655 S
H153 C182 0.950 1_655 S
H154 C184 0.950 . S
H155 C185 0.950 . S
C156 H138 0.951 . S
C156 C157 1.366 . S
C156 C158 1.388 . S
C157 C156 1.366 . S
C157 C161 1.385 . S
C158 H139 0.951 . S
C158 C156 1.388 . S
C158 C159 1.366 . S
C159 C158 1.366 . S
C159 C160 1.414 . S
C159 C162 1.499 . S
C160 H140 0.950 . S
C160 C159 1.414 . S
C160 C161 1.374 . S
C161 H141 0.950 . S
C161 C157 1.385 . S
C161 C160 1.374 . S
C162 C159 1.499 . S
C162 C163 1.373 . S
C162 C164 1.389 . S
C163 H142 0.950 . S
C163 C162 1.373 . S
C163 C179 1.377 . S
C164 C162 1.389 . S
C164 C165 1.524 . S
C164 C178 1.377 1_455 S
C165 C164 1.524 . S
C165 C166 1.397 . S
C165 C170 1.363 1_455 S
C166 H143 0.950 . S
C166 C165 1.397 . S
C166 C167 1.334 . S
C167 H144 0.950 . S
C167 C166 1.334 . S
C167 C168 1.287 1_455 S
C168 C167 1.287 1_655 S
C168 C169 1.524 . S
C168 H187 0.913 . S
C169 H145 0.950 . S
C169 C168 1.524 . S
C169 C170 1.415 . S
C170 H146 0.950 . S
C170 C165 1.363 1_655 S
C170 C169 1.415 . S
C171 H147 0.951 . S
C171 C172 1.366 . S
C171 C173 1.388 . S
C172 C171 1.366 . S
C172 C176 1.385 . S
C173 H148 0.951 1_655 S
C173 C171 1.388 . S
C173 C174 1.366 . S
C174 C173 1.366 . S
C174 C175 1.414 . S
C174 C177 1.499 . S
C175 H149 0.950 . S
C175 C174 1.414 . S
C175 C176 1.374 . S
C176 H150 0.950 . S
C176 C172 1.385 . S
C176 C175 1.374 . S
C177 C174 1.499 . S
C177 C178 1.373 . S
C177 C179 1.389 1_655 S
C178 H151 0.950 . S
C178 C164 1.377 1_655 S
C178 C177 1.373 . S
C179 C163 1.377 . S
C179 C177 1.389 1_455 S
C179 C180 1.524 . S
C180 C179 1.524 . S
C180 C181 1.397 . S
C180 C185 1.363 . S
C181 H152 0.950 1_455 S
C181 C180 1.397 . S
C181 C182 1.334 . S
C182 H153 0.950 1_455 S
C182 C181 1.334 . S
C182 C183 1.287 . S
C183 C182 1.287 . S
C183 C184 1.524 . S
C183 H186 0.999 . S
C184 H154 0.950 . S
C184 C183 1.524 . S
C184 C185 1.415 . S
C185 H155 0.950 . S
C185 C180 1.363 . S
C185 C184 1.415 . S
H186 C183 0.999 . S
H187 C168 0.913 . S
H188 C206 0.951 1_545 S
H189 C208 0.951 . S
H190 C210 0.950 . S
H191 C211 0.950 . S
H192 C213 0.950 . S
H193 C216 0.950 . S
H194 C217 0.950 . S
H195 C219 0.950 . S
H196 C220 0.950 . S
H197 C221 0.951 . S
H198 C223 0.951 1_455 S
H199 C225 0.950 . S
H200 C226 0.950 . S
H201 C228 0.950 . S
H202 C231 0.950 . S
H203 C232 0.950 . S
H204 C234 0.950 . S
H205 C235 0.950 . S
C206 H188 0.951 1_565 S
C206 C207 1.366 . S
C206 C208 1.388 . S
C207 C206 1.366 . S
C207 C211 1.385 . S
C208 H189 0.951 . S
C208 C206 1.388 . S
C208 C209 1.366 . S
C209 C208 1.366 . S
C209 C210 1.414 . S
C209 C212 1.499 . S
C210 H190 0.950 . S
C210 C209 1.414 . S
C210 C211 1.374 . S
C211 H191 0.950 . S
C211 C207 1.385 . S
C211 C210 1.374 . S
C212 C209 1.499 . S
C212 C213 1.373 . S
C212 C214 1.389 . S
C213 H192 0.950 . S
C213 C212 1.373 . S
C213 C229 1.377 . S
C214 C212 1.389 . S
C214 C215 1.524 . S
C214 C228 1.377 1_455 S
C215 C214 1.524 . S
C215 C216 1.397 . S
C215 C220 1.363 1_455 S
C216 H193 0.950 . S
C216 C215 1.397 . S
C216 C217 1.334 . S
C217 H194 0.950 . S
C217 C216 1.334 . S
C217 C218 1.287 . S
C218 C217 1.287 . S
C218 C219 1.524 1_455 S
C218 H237 0.913 . S
C219 H195 0.950 . S
C219 C218 1.524 1_655 S
C219 C220 1.415 . S
C220 H196 0.950 . S
C220 C215 1.363 1_655 S
C220 C219 1.415 . S
C221 H197 0.951 . S
C221 C222 1.366 . S
C221 C223 1.388 . S
C222 C221 1.366 . S
C222 C226 1.385 . S
C223 H198 0.951 1_655 S
C223 C221 1.388 . S
C223 C224 1.366 . S
C224 C223 1.366 . S
C224 C225 1.414 . S
C224 C227 1.499 . S
C225 H199 0.950 . S
C225 C224 1.414 . S
C225 C226 1.374 . S
C226 H200 0.950 . S
C226 C222 1.385 . S
C226 C225 1.374 . S
C227 C224 1.499 . S
C227 C228 1.373 . S
C227 C229 1.389 1_655 S
C228 H201 0.950 . S
C228 C214 1.377 1_655 S
C228 C227 1.373 . S
C229 C213 1.377 . S
C229 C227 1.389 1_455 S
C229 C230 1.524 . S
C230 C229 1.524 . S
C230 C231 1.397 1_455 S
C230 C235 1.363 . S
C231 H202 0.950 . S
C231 C230 1.397 1_655 S
C231 C232 1.334 . S
C232 H203 0.950 . S
C232 C231 1.334 . S
C232 C233 1.287 . S
C233 C232 1.287 . S
C233 C234 1.524 1_655 S
C233 H236 0.999 . S
C234 H204 0.950 . S
C234 C233 1.524 1_455 S
C234 C235 1.415 . S
C235 H205 0.950 . S
C235 C230 1.363 . S
C235 C234 1.415 . S
H236 C233 0.999 . S
H237 C218 0.913 . S
H238 C256 0.951 . S
H239 C258 0.951 . S
H240 C260 0.950 . S
H241 C261 0.950 . S
H242 C263 0.950 1_455 S
H243 C266 0.950 . S
H244 C267 0.950 . S
H245 C269 0.950 . S
H246 C270 0.950 . S
H247 C271 0.951 . S
H248 C273 0.951 . S
H249 C275 0.950 1_655 S
H250 C276 0.950 . S
H251 C278 0.950 . S
H252 C281 0.950 . S
H253 C282 0.950 . S
H254 C284 0.950 . S
H255 C285 0.950 . S
C256 H238 0.951 . S
C256 C257 1.366 . S
C256 C258 1.388 . S
C257 C256 1.366 . S
C257 C261 1.385 . S
C258 H239 0.951 . S
C258 C256 1.388 . S
C258 C259 1.366 . S
C259 C258 1.366 . S
C259 C260 1.414 . S
C259 C262 1.499 . S
C260 H240 0.950 . S
C260 C259 1.414 . S
C260 C261 1.374 . S
C261 H241 0.950 . S
C261 C257 1.385 . S
C261 C260 1.374 . S
C262 C259 1.499 . S
C262 C263 1.373 . S
C262 C264 1.389 . S
C263 H242 0.950 1_655 S
C263 C262 1.373 . S
C263 C279 1.377 1_655 S
C264 C262 1.389 . S
C264 C265 1.524 . S
C264 C278 1.377 . S
C265 C264 1.524 . S
C265 C266 1.397 . S
C265 C270 1.363 . S
C266 H243 0.950 . S
C266 C265 1.397 . S
C266 C267 1.334 . S
C267 H244 0.950 . S
C267 C266 1.334 . S
C267 C268 1.287 . S
C268 C267 1.287 . S
C268 C269 1.524 . S
C268 H287 0.913 . S
C269 H245 0.950 . S
C269 C268 1.524 . S
C269 C270 1.415 . S
C270 H246 0.950 . S
C270 C265 1.363 . S
C270 C269 1.415 . S
C271 H247 0.951 . S
C271 C272 1.366 . S
C271 C273 1.388 . S
C272 C271 1.366 . S
C272 C276 1.385 . S
C273 H248 0.951 . S
C273 C271 1.388 . S
C273 C274 1.366 . S
C274 C273 1.366 . S
C274 C275 1.414 . S
C274 C277 1.499 . S
C275 H249 0.950 1_455 S
C275 C274 1.414 . S
C275 C276 1.374 . S
C276 H250 0.950 . S
C276 C272 1.385 . S
C276 C275 1.374 . S
C277 C274 1.499 . S
C277 C278 1.373 1_455 S
C277 C279 1.389 . S
C278 H251 0.950 . S
C278 C264 1.377 . S
C278 C277 1.373 1_655 S
C279 C263 1.377 1_455 S
C279 C277 1.389 . S
C279 C280 1.524 . S
C280 C279 1.524 . S
C280 C281 1.397 . S
C280 C285 1.363 . S
C281 H252 0.950 . S
C281 C280 1.397 . S
C281 C282 1.334 . S
C282 H253 0.950 . S
C282 C281 1.334 . S
C282 C283 1.287 . S
C283 C282 1.287 . S
C283 C284 1.524 . S
C283 H286 0.999 . S
C284 H254 0.950 . S
C284 C283 1.524 . S
C284 C285 1.415 . S
C285 H255 0.950 . S
C285 C280 1.363 . S
C285 C284 1.415 . S
H286 C283 0.999 . S
H287 C268 0.913 . S
H288 C306 0.951 . S
H289 C308 0.951 . S
H290 C310 0.950 . S
H291 C311 0.950 . S
H292 C313 0.950 . S
H293 C316 0.950 . S
H294 C317 0.950 . S
H295 C319 0.950 . S
H296 C320 0.950 1_455 S
H297 C321 0.951 . S
H298 C323 0.951 . S
H299 C325 0.950 . S
H300 C326 0.950 . S
H301 C328 0.950 . S
H302 C331 0.950 . S
H303 C332 0.950 . S
H304 C334 0.950 . S
H305 C335 0.950 1_655 S
C306 H288 0.951 . S
C306 C307 1.366 . S
C306 C308 1.388 . S
C307 C306 1.366 . S
C307 C311 1.385 . S
C308 H289 0.951 . S
C308 C306 1.388 . S
C308 C309 1.366 . S
C309 C308 1.366 . S
C309 C310 1.414 . S
C309 C312 1.499 . S
C310 H290 0.950 . S
C310 C309 1.414 . S
C310 C311 1.374 . S
C311 H291 0.950 . S
C311 C307 1.385 . S
C311 C310 1.374 . S
C312 C309 1.499 . S
C312 C313 1.373 . S
C312 C314 1.389 . S
C313 H292 0.950 . S
C313 C312 1.373 . S
C313 C329 1.377 1_655 S
C314 C312 1.389 . S
C314 C315 1.524 . S
C314 C328 1.377 1_655 S
C315 C314 1.524 . S
C315 C316 1.397 . S
C315 C320 1.363 . S
C316 H293 0.950 . S
C316 C315 1.397 . S
C316 C317 1.334 . S
C317 H294 0.950 . S
C317 C316 1.334 . S
C317 C318 1.287 . S
C318 C317 1.287 . S
C318 C319 1.524 . S
C318 H337 0.913 . S
C319 H295 0.950 . S
C319 C318 1.524 . S
C319 C320 1.415 . S
C320 H296 0.950 1_655 S
C320 C315 1.363 . S
C320 C319 1.415 . S
C321 H297 0.951 . S
C321 C322 1.366 . S
C321 C323 1.388 . S
C322 C321 1.366 . S
C322 C326 1.385 . S
C323 H298 0.951 . S
C323 C321 1.388 . S
C323 C324 1.366 . S
C324 C323 1.366 . S
C324 C325 1.414 . S
C324 C327 1.499 . S
C325 H299 0.950 . S
C325 C324 1.414 . S
C325 C326 1.374 . S
C326 H300 0.950 . S
C326 C322 1.385 . S
C326 C325 1.374 . S
C327 C324 1.499 . S
C327 C328 1.373 . S
C327 C329 1.389 . S
C328 H301 0.950 . S
C328 C314 1.377 1_455 S
C328 C327 1.373 . S
C329 C313 1.377 1_455 S
C329 C327 1.389 . S
C329 C330 1.524 . S
C330 C329 1.524 . S
C330 C331 1.397 . S
C330 C335 1.363 . S
C331 H302 0.950 . S
C331 C330 1.397 . S
C331 C332 1.334 . S
C332 H303 0.950 . S
C332 C331 1.334 . S
C332 C333 1.287 . S
C333 C332 1.287 . S
C333 C334 1.524 . S
C333 H336 0.999 . S
C334 H304 0.950 . S
C334 C333 1.524 . S
C334 C335 1.415 . S
C335 H305 0.950 1_455 S
C335 C330 1.363 . S
C335 C334 1.415 . S
H336 C333 0.999 . S
H337 C318 0.913 . S
H338 C356 0.951 . S
H339 C358 0.951 1_556 S
H340 C360 0.950 1_455 S
H341 C361 0.950 . S
H342 C363 0.950 . S
H343 C366 0.950 1_454 S
H344 C367 0.950 1_554 S
H345 C369 0.950 . S
H346 C370 0.950 . S
H347 C371 0.951 . S
H348 C373 0.951 1_554 S
H349 C375 0.950 1_655 S
H350 C376 0.950 . S
H351 C378 0.950 . S
H352 C381 0.950 1_656 S
H353 C382 0.950 1_556 S
H354 C384 0.950 . S
H355 C385 0.950 . S
C356 H338 0.951 . S
C356 C357 1.366 . S
C356 C358 1.388 . S
C357 C356 1.366 . S
C357 C361 1.385 . S
C358 H339 0.951 1_554 S
C358 C356 1.388 . S
C358 C359 1.366 . S
C359 C358 1.366 . S
C359 C360 1.414 . S
C359 C362 1.499 . S
C360 H340 0.950 1_655 S
C360 C359 1.414 . S
C360 C361 1.374 . S
C361 H341 0.950 . S
C361 C357 1.385 . S
C361 C360 1.374 . S
C362 C359 1.499 . S
C362 C363 1.373 1_665 S
C362 C364 1.389 1_554 S
C363 H342 0.950 . S
C363 C362 1.373 1_445 S
C363 C379 1.377 . S
C364 C362 1.389 1_556 S
C364 C365 1.524 . S
C364 C378 1.377 . S
C365 C364 1.524 . S
C365 C366 1.397 . S
C365 C370 1.363 . S
C366 H343 0.950 1_656 S
C366 C365 1.397 . S
C366 C367 1.334 . S
C367 H344 0.950 1_556 S
C367 C366 1.334 . S
C367 C368 1.287 . S
C368 C367 1.287 . S
C368 C369 1.524 . S
C368 H387 0.913 . S
C369 H345 0.950 . S
C369 C368 1.524 . S
C369 C370 1.415 . S
C370 H346 0.950 . S
C370 C365 1.363 . S
C370 C369 1.415 . S
C371 H347 0.951 . S
C371 C372 1.366 . S
C371 C373 1.388 . S
C372 C371 1.366 . S
C372 C376 1.385 . S
C373 H348 0.951 1_556 S
C373 C371 1.388 . S
C373 C374 1.366 . S
C374 C373 1.366 . S
C374 C375 1.414 . S
C374 C377 1.499 . S
C375 H349 0.950 1_455 S
C375 C374 1.414 . S
C375 C376 1.374 . S
C376 H350 0.950 . S
C376 C372 1.385 . S
C376 C375 1.374 . S
C377 C374 1.499 . S
C377 C378 1.373 1_445 S
C377 C379 1.389 1_556 S
C378 H351 0.950 . S
C378 C364 1.377 . S
C378 C377 1.373 1_665 S
C379 C363 1.377 . S
C379 C377 1.389 1_554 S
C379 C380 1.524 . S
C380 C379 1.524 . S
C380 C381 1.397 . S
C380 C385 1.363 . S
C381 H352 0.950 1_454 S
C381 C380 1.397 . S
C381 C382 1.334 . S
C382 H353 0.950 1_554 S
C382 C381 1.334 . S
C382 C383 1.287 . S
C383 C382 1.287 . S
C383 C384 1.524 . S
C383 H386 0.999 . S
C384 H354 0.950 . S
C384 C383 1.524 . S
C384 C385 1.415 . S
C385 H355 0.950 . S
C385 C380 1.363 . S
C385 C384 1.415 . S
H386 C383 0.999 . S
H387 C368 0.913 . S
H388 C406 0.951 . S
H389 C408 0.951 . S
H390 C410 0.950 . S
H391 C411 0.950 . S
H392 C413 0.950 . S
H393 C416 0.950 . S
H394 C417 0.950 1_556 S
H395 C419 0.950 1_556 S
H396 C420 0.950 . S
H397 C421 0.951 . S
H398 C423 0.951 . S
H399 C425 0.950 . S
H400 C426 0.950 . S
H401 C428 0.950 . S
H402 C431 0.950 . S
H403 C432 0.950 . S
H404 C434 0.950 . S
H405 C435 0.950 . S
C406 H388 0.951 . S
C406 C407 1.366 . S
C406 C408 1.388 . S
C407 C406 1.366 . S
C407 C411 1.385 . S
C408 H389 0.951 . S
C408 C406 1.388 . S
C408 C409 1.366 . S
C409 C408 1.366 . S
C409 C410 1.414 . S
C409 C412 1.499 . S
C410 H390 0.950 . S
C410 C409 1.414 . S
C410 C411 1.374 . S
C411 H391 0.950 . S
C411 C407 1.385 . S
C411 C410 1.374 . S
C412 C409 1.499 . S
C412 C413 1.373 . S
C412 C414 1.389 . S
C413 H392 0.950 . S
C413 C412 1.373 . S
C413 C429 1.377 . S
C414 C412 1.389 . S
C414 C415 1.524 . S
C414 C428 1.377 . S
C415 C414 1.524 . S
C415 C416 1.397 . S
C415 C420 1.363 . S
C416 H393 0.950 . S
C416 C415 1.397 . S
C416 C417 1.334 . S
C417 H394 0.950 1_554 S
C417 C416 1.334 . S
C417 C418 1.287 1_554 S
C418 C417 1.287 1_556 S
C418 C419 1.524 1_556 S
C418 H437 0.913 . S
C419 H395 0.950 1_554 S
C419 C418 1.524 1_554 S
C419 C420 1.415 . S
C420 H396 0.950 . S
C420 C415 1.363 . S
C420 C419 1.415 . S
C421 H397 0.951 . S
C421 C422 1.366 . S
C421 C423 1.388 . S
C422 C421 1.366 . S
C422 C426 1.385 . S
C423 H398 0.951 . S
C423 C421 1.388 . S
C423 C424 1.366 . S
C424 C423 1.366 . S
C424 C425 1.414 . S
C424 C427 1.499 . S
C425 H399 0.950 . S
C425 C424 1.414 . S
C425 C426 1.374 . S
C426 H400 0.950 . S
C426 C422 1.385 . S
C426 C425 1.374 . S
C427 C424 1.499 . S
C427 C428 1.373 . S
C427 C429 1.389 . S
C428 H401 0.950 . S
C428 C414 1.377 . S
C428 C427 1.373 . S
C429 C413 1.377 . S
C429 C427 1.389 . S
C429 C430 1.524 . S
C430 C429 1.524 . S
C430 C431 1.397 . S
C430 C435 1.363 . S
C431 H402 0.950 . S
C431 C430 1.397 . S
C431 C432 1.334 . S
C432 H403 0.950 . S
C432 C431 1.334 . S
C432 C433 1.287 . S
C433 C432 1.287 . S
C433 C434 1.524 . S
C433 H436 0.999 . S
C434 H404 0.950 . S
C434 C433 1.524 . S
C434 C435 1.415 . S
C435 H405 0.950 . S
C435 C430 1.363 . S
C435 C434 1.415 . S
H436 C433 0.999 . S
H437 C418 0.913 . S
H438 C456 0.951 . S
H439 C458 0.951 . S
H440 C460 0.950 . S
H441 C461 0.950 . S
H442 C463 0.950 . S
H443 C466 0.950 . S
H444 C467 0.950 . S
H445 C469 0.950 . S
H446 C470 0.950 . S
H447 C471 0.951 . S
H448 C473 0.951 . S
H449 C475 0.950 . S
H450 C476 0.950 . S
H451 C478 0.950 . S
H452 C481 0.950 . S
H453 C482 0.950 . S
H454 C484 0.950 . S
H455 C485 0.950 . S
C456 H438 0.951 . S
C456 C457 1.366 . S
C456 C458 1.388 . S
C457 C456 1.366 . S
C457 C461 1.385 . S
C458 H439 0.951 . S
C458 C456 1.388 . S
C458 C459 1.366 . S
C459 C458 1.366 . S
C459 C460 1.414 . S
C459 C462 1.499 . S
C460 H440 0.950 . S
C460 C459 1.414 . S
C460 C461 1.374 . S
C461 H441 0.950 . S
C461 C457 1.385 . S
C461 C460 1.374 . S
C462 C459 1.499 . S
C462 C463 1.373 . S
C462 C464 1.389 . S
C463 H442 0.950 . S
C463 C462 1.373 . S
C463 C479 1.377 . S
C464 C462 1.389 . S
C464 C465 1.524 . S
C464 C478 1.377 . S
C465 C464 1.524 . S
C465 C466 1.397 . S
C465 C470 1.363 . S
C466 H443 0.950 . S
C466 C465 1.397 . S
C466 C467 1.334 . S
C467 H444 0.950 . S
C467 C466 1.334 . S
C467 C468 1.287 . S
C468 C467 1.287 . S
C468 C469 1.524 . S
C468 H487 0.913 . S
C469 H445 0.950 . S
C469 C468 1.524 . S
C469 C470 1.415 . S
C470 H446 0.950 . S
C470 C465 1.363 . S
C470 C469 1.415 . S
C471 H447 0.951 . S
C471 C472 1.366 . S
C471 C473 1.388 . S
C472 C471 1.366 . S
C472 C476 1.385 . S
C473 H448 0.951 . S
C473 C471 1.388 . S
C473 C474 1.366 . S
C474 C473 1.366 . S
C474 C475 1.414 . S
C474 C477 1.499 . S
C475 H449 0.950 . S
C475 C474 1.414 . S
C475 C476 1.374 . S
C476 H450 0.950 . S
C476 C472 1.385 . S
C476 C475 1.374 . S
C477 C474 1.499 . S
C477 C478 1.373 . S
C477 C479 1.389 . S
C478 H451 0.950 . S
C478 C464 1.377 . S
C478 C477 1.373 . S
C479 C463 1.377 . S
C479 C477 1.389 . S
C479 C480 1.524 . S
C480 C479 1.524 . S
C480 C481 1.397 . S
C480 C485 1.363 . S
C481 H452 0.950 . S
C481 C480 1.397 . S
C481 C482 1.334 . S
C482 H453 0.950 . S
C482 C481 1.334 . S
C482 C483 1.287 . S
C483 C482 1.287 . S
C483 C484 1.524 . S
C483 H486 0.999 . S
C484 H454 0.950 . S
C484 C483 1.524 . S
C484 C485 1.415 . S
C485 H455 0.950 . S
C485 C480 1.363 . S
C485 C484 1.415 . S
H486 C483 0.999 . S
H487 C468 0.913 . S
H488 C506 0.960 . S
H489 C508 0.951 . S
H490 C510 0.950 . S
H491 C511 0.950 . S
H492 C513 0.950 . S
H493 C516 0.950 . S
H494 C517 0.950 . S
H495 C519 0.950 . S
H496 C520 0.950 . S
H497 C521 0.951 . S
H498 C523 0.951 . S
H499 C525 0.950 . S
H500 C526 0.950 . S
H501 C528 0.950 . S
H502 C531 0.950 . S
H503 C532 0.950 . S
H504 C534 0.950 . S
H505 C535 0.950 . S
C506 H488 0.960 . S
C506 C507 1.366 . S
C506 C508 1.388 . S
C507 C506 1.366 . S
C507 C511 1.385 . S
C508 H489 0.951 . S
C508 C506 1.388 . S
C508 C509 1.366 . S
C509 C508 1.366 . S
C509 C510 1.414 . S
C509 C512 1.499 . S
C510 H490 0.950 . S
C510 C509 1.414 . S
C510 C511 1.374 . S
C511 H491 0.950 . S
C511 C507 1.385 . S
C511 C510 1.374 . S
C512 C509 1.499 . S
C512 C513 1.373 . S
C512 C514 1.389 . S
C513 H492 0.950 . S
C513 C512 1.373 . S
C513 C529 1.377 . S
C514 C512 1.389 . S
C514 C515 1.524 . S
C514 C528 1.377 . S
C515 C514 1.524 . S
C515 C516 1.397 . S
C515 C520 1.363 . S
C516 H493 0.950 . S
C516 C515 1.397 . S
C516 C517 1.334 . S
C517 H494 0.950 . S
C517 C516 1.334 . S
C517 C518 1.287 . S
C518 C517 1.287 . S
C518 C519 1.524 . S
C518 H537 0.913 . S
C519 H495 0.950 . S
C519 C518 1.524 . S
C519 C520 1.415 . S
C520 H496 0.950 . S
C520 C515 1.363 . S
C520 C519 1.415 . S
C521 H497 0.951 . S
C521 C522 1.366 . S
C521 C523 1.388 . S
C522 C521 1.366 . S
C522 C526 1.385 . S
C523 H498 0.951 . S
C523 C521 1.388 . S
C523 C524 1.366 . S
C524 C523 1.366 . S
C524 C525 1.414 . S
C524 C527 1.499 . S
C525 H499 0.950 . S
C525 C524 1.414 . S
C525 C526 1.374 . S
C526 H500 0.950 . S
C526 C522 1.385 . S
C526 C525 1.374 . S
C527 C524 1.499 . S
C527 C528 1.373 . S
C527 C529 1.389 . S
C528 H501 0.950 . S
C528 C514 1.377 . S
C528 C527 1.373 . S
C529 C513 1.377 . S
C529 C527 1.389 . S
C529 C530 1.524 . S
C530 C529 1.524 . S
C530 C531 1.397 . S
C530 C535 1.363 . S
C531 H502 0.950 . S
C531 C530 1.397 . S
C531 C532 1.334 . S
C532 H503 0.950 . S
C532 C531 1.334 . S
C532 C533 1.287 . S
C533 C532 1.287 . S
C533 C534 1.524 . S
C533 H536 0.999 . S
C534 H504 0.950 . S
C534 C533 1.524 . S
C534 C535 1.415 . S
C535 H505 0.950 . S
C535 C530 1.363 . S
C535 C534 1.415 . S
H536 C533 0.999 . S
H537 C518 0.913 . S
H538 C556 0.951 . S
H539 C558 0.951 . S
H540 C560 0.950 . S
H541 C561 0.950 . S
H542 C563 0.950 . S
H543 C566 0.950 . S
H544 C567 0.950 . S
H545 C569 0.950 . S
H546 C570 0.950 . S
H547 C571 0.951 . S
H548 C573 0.951 . S
H549 C575 0.950 . S
H550 C576 0.950 . S
H551 C578 0.950 . S
H552 C581 0.950 . S
H553 C582 0.950 . S
H554 C584 0.950 . S
H555 C585 0.950 . S
C556 H538 0.951 . S
C556 C557 1.366 . S
C556 C558 1.388 . S
C557 C556 1.366 . S
C557 C561 1.385 . S
C558 H539 0.951 . S
C558 C556 1.388 . S
C558 C559 1.366 . S
C559 C558 1.366 . S
C559 C560 1.414 . S
C559 C562 1.499 . S
C560 H540 0.950 . S
C560 C559 1.414 . S
C560 C561 1.374 . S
C561 H541 0.950 . S
C561 C557 1.385 . S
C561 C560 1.374 . S
C562 C559 1.499 . S
C562 C563 1.373 . S
C562 C564 1.389 . S
C563 H542 0.950 . S
C563 C562 1.373 . S
C563 C579 1.377 . S
C564 C562 1.389 . S
C564 C565 1.524 . S
C564 C578 1.377 . S
C565 C564 1.524 . S
C565 C566 1.397 . S
C565 C570 1.363 . S
C566 H543 0.950 . S
C566 C565 1.397 . S
C566 C567 1.334 . S
C567 H544 0.950 . S
C567 C566 1.334 . S
C567 C568 1.287 . S
C568 C567 1.287 . S
C568 C569 1.524 . S
C568 H587 0.913 . S
C569 H545 0.950 . S
C569 C568 1.524 . S
C569 C570 1.415 . S
C570 H546 0.950 . S
C570 C565 1.363 . S
C570 C569 1.415 . S
C571 H547 0.951 . S
C571 C572 1.366 . S
C571 C573 1.388 . S
C572 C571 1.366 . S
C572 C576 1.385 . S
C573 H548 0.951 . S
C573 C571 1.388 . S
C573 C574 1.366 . S
C574 C573 1.366 . S
C574 C575 1.414 . S
C574 C577 1.499 . S
C575 H549 0.950 . S
C575 C574 1.414 . S
C575 C576 1.374 . S
C576 H550 0.950 . S
C576 C572 1.385 . S
C576 C575 1.374 . S
C577 C574 1.499 . S
C577 C578 1.373 . S
C577 C579 1.389 . S
C578 H551 0.950 . S
C578 C564 1.377 . S
C578 C577 1.373 . S
C579 C563 1.377 . S
C579 C577 1.389 . S
C579 C580 1.524 . S
C580 C579 1.524 . S
C580 C581 1.397 . S
C580 C585 1.363 . S
C581 H552 0.950 . S
C581 C580 1.397 . S
C581 C582 1.334 . S
C582 H553 0.950 . S
C582 C581 1.334 . S
C582 C583 1.287 . S
C583 C582 1.287 . S
C583 C584 1.524 . S
C583 H586 0.999 . S
C584 H554 0.950 . S
C584 C583 1.524 . S
C584 C585 1.415 . S
C585 H555 0.950 . S
C585 C580 1.363 . S
C585 C584 1.415 . S
H586 C583 0.999 . S
H587 C568 0.913 . S
H588 C606 0.951 . S
H589 C608 0.951 . S
H590 C610 0.950 . S
H591 C611 0.950 . S
H592 C613 0.950 . S
H593 C616 0.950 . S
H594 C617 0.950 . S
H595 C619 0.950 . S
H596 C620 0.950 . S
H597 C621 0.951 . S
H598 C623 0.951 . S
H599 C625 0.950 . S
H600 C626 0.950 . S
H601 C628 0.950 . S
H602 C631 0.950 . S
H603 C632 0.950 . S
H604 C634 0.950 . S
H605 C635 0.950 . S
C606 H588 0.951 . S
C606 C607 1.366 . S
C606 C608 1.388 . S
C607 C606 1.366 . S
C607 C611 1.385 . S
C608 H589 0.951 . S
C608 C606 1.388 . S
C608 C609 1.366 . S
C609 C608 1.366 . S
C609 C610 1.414 . S
C609 C612 1.499 . S
C610 H590 0.950 . S
C610 C609 1.414 . S
C610 C611 1.374 . S
C611 H591 0.950 . S
C611 C607 1.385 . S
C611 C610 1.374 . S
C612 C609 1.499 . S
C612 C613 1.373 . S
C612 C614 1.389 . S
C613 H592 0.950 . S
C613 C612 1.373 . S
C613 C629 1.377 . S
C614 C612 1.389 . S
C614 C615 1.524 . S
C614 C628 1.377 . S
C615 C614 1.524 . S
C615 C616 1.397 . S
C615 C620 1.363 . S
C616 H593 0.950 . S
C616 C615 1.397 . S
C616 C617 1.334 . S
C617 H594 0.950 . S
C617 C616 1.334 . S
C617 C618 1.287 . S
C618 C617 1.287 . S
C618 C619 1.524 . S
C618 H637 0.913 . S
C619 H595 0.950 . S
C619 C618 1.524 . S
C619 C620 1.415 . S
C620 H596 0.950 . S
C620 C615 1.363 . S
C620 C619 1.415 . S
C621 H597 0.951 . S
C621 C622 1.366 . S
C621 C623 1.388 . S
C622 C621 1.366 . S
C622 C626 1.385 . S
C623 H598 0.951 . S
C623 C621 1.388 . S
C623 C624 1.366 . S
C624 C623 1.366 . S
C624 C625 1.414 . S
C624 C627 1.499 . S
C625 H599 0.950 . S
C625 C624 1.414 . S
C625 C626 1.374 . S
C626 H600 0.950 . S
C626 C622 1.385 . S
C626 C625 1.374 . S
C627 C624 1.499 . S
C627 C628 1.373 . S
C627 C629 1.389 . S
C628 H601 0.950 . S
C628 C614 1.377 . S
C628 C627 1.373 . S
C629 C613 1.377 . S
C629 C627 1.389 . S
C629 C630 1.524 . S
C630 C629 1.524 . S
C630 C631 1.397 . S
C630 C635 1.363 . S
C631 H602 0.950 . S
C631 C630 1.397 . S
C631 C632 1.334 . S
C632 H603 0.950 . S
C632 C631 1.334 . S
C632 C633 1.287 . S
C633 C632 1.287 . S
C633 C634 1.524 . S
C633 H636 0.999 . S
C634 H604 0.950 . S
C634 C633 1.524 . S
C634 C635 1.415 . S
C635 H605 0.950 . S
C635 C630 1.363 . S
C635 C634 1.415 . S
H636 C633 0.999 . S
H637 C618 0.913 . S
H638 C656 0.951 . S
H639 C658 0.951 1_565 S
H640 C660 0.950 . S
H641 C661 0.950 . S
H642 C663 0.950 . S
H643 C666 0.950 . S
H644 C667 0.950 . S
H645 C669 0.950 . S
H646 C670 0.950 . S
H647 C671 0.951 . S
H648 C673 0.951 1_545 S
H649 C675 0.950 . S
H650 C676 0.950 . S
H651 C678 0.950 . S
H652 C681 0.950 . S
H653 C682 0.950 . S
H654 C684 0.950 . S
H655 C685 0.950 . S
C656 H638 0.951 . S
C656 C657 1.366 . S
C656 C658 1.388 . S
C657 C656 1.366 . S
C657 C661 1.385 . S
C658 H639 0.951 1_545 S
C658 C656 1.388 . S
C658 C659 1.366 . S
C659 C658 1.366 . S
C659 C660 1.414 . S
C659 C662 1.499 . S
C660 H640 0.950 . S
C660 C659 1.414 . S
C660 C661 1.374 . S
C661 H641 0.950 . S
C661 C657 1.385 . S
C661 C660 1.374 . S
C662 C659 1.499 . S
C662 C663 1.373 . S
C662 C664 1.389 1_546 S
C663 H642 0.950 . S
C663 C662 1.373 . S
C663 C679 1.377 . S
C664 C662 1.389 1_564 S
C664 C665 1.524 . S
C664 C678 1.377 . S
C665 C664 1.524 . S
C665 C666 1.397 1_565 S
C665 C670 1.363 . S
C666 H643 0.950 . S
C666 C665 1.397 1_545 S
C666 C667 1.334 . S
C667 H644 0.950 . S
C667 C666 1.334 . S
C667 C668 1.287 1_545 S
C668 C667 1.287 1_565 S
C668 C669 1.524 . S
C668 H687 0.913 . S
C669 H645 0.950 . S
C669 C668 1.524 . S
C669 C670 1.415 . S
C670 H646 0.950 . S
C670 C665 1.363 . S
C670 C669 1.415 . S
C671 H647 0.951 . S
C671 C672 1.366 . S
C671 C673 1.388 . S
C672 C671 1.366 . S
C672 C676 1.385 . S
C673 H648 0.951 1_565 S
C673 C671 1.388 . S
C673 C674 1.366 . S
C674 C673 1.366 . S
C674 C675 1.414 . S
C674 C677 1.499 . S
C675 H649 0.950 . S
C675 C674 1.414 . S
C675 C676 1.374 . S
C676 H650 0.950 . S
C676 C672 1.385 . S
C676 C675 1.374 . S
C677 C674 1.499 . S
C677 C678 1.373 . S
C677 C679 1.389 1_564 S
C678 H651 0.950 . S
C678 C664 1.377 . S
C678 C677 1.373 . S
C679 C663 1.377 . S
C679 C677 1.389 1_546 S
C679 C680 1.524 . S
C680 C679 1.524 . S
C680 C681 1.397 1_545 S
C680 C685 1.363 . S
C681 H652 0.950 . S
C681 C680 1.397 1_565 S
C681 C682 1.334 . S
C682 H653 0.950 . S
C682 C681 1.334 . S
C682 C683 1.287 1_565 S
C683 C682 1.287 1_545 S
C683 C684 1.524 . S
C683 H686 0.999 . S
C684 H654 0.950 . S
C684 C683 1.524 . S
C684 C685 1.415 . S
C685 H655 0.950 . S
C685 C680 1.363 . S
C685 C684 1.415 . S
H686 C683 0.999 . S
H687 C668 0.913 . S
C107 C27 1.259 1_545 S
C122 C5 1.300 . S
C157 C9 1.260 . S
C172 C31 1.301 . S
C207 C72 1.260 1_565 S
C222 C50 1.300 . S
C257 C51 1.259 . S
C272 C73 1.301 . S
C307 C49 0.894 . S
C322 C6 0.894 . S
C357 C29 0.893 . S
C372 C75 0.893 . S
C407 C74 1.571 1_554 S
C422 C7 1.504 . S
C457 C28 1.503 . S
C472 C48 1.571 . S
C507 C30 1.571 1_556 S
C522 C53 1.503 . S
C557 C71 1.503 . S
C572 C4 1.571 . S
C607 C8 1.540 . S
C622 C52 1.540 . S
C657 C70 1.540 . S
C672 C26 1.540 . S
