# Generated by pormake.
# Topology sml, (6)-cn, num edge types: 1
# Building blocks:
#     Node 0, Type 0, BuildingBlock: BETDIP_clean_sbu_0, # of connection points: 6
#     Node 1, Type 0, BuildingBlock: BETDIP_clean_sbu_0, # of connection points: 6
#     Node 2, Type 0, BuildingBlock: BETDIP_clean_sbu_0, # of connection points: 6
#     Node 3, Type 0, BuildingBlock: BETDIP_clean_sbu_0, # of connection points: 6
#     Node 4, Type 0, BuildingBlock: BETDIP_clean_sbu_0, # of connection points: 6
#     Node 5, Type 0, BuildingBlock: BETDIP_clean_sbu_0, # of connection points: 6
#     Edge 6, Type (0, 0), BuildingBlock: OJICUG_clean_linker_0, # of connection points: 2
#     Edge 7, Type (0, 0), BuildingBlock: OJICUG_clean_linker_0, # of connection points: 2
#     Edge 8, Type (0, 0), BuildingBlock: OJICUG_clean_linker_0, # of connection points: 2
#     Edge 9, Type (0, 0), BuildingBlock: OJICUG_clean_linker_0, # of connection points: 2
#     Edge 10, Type (0, 0), BuildingBlock: OJICUG_clean_linker_0, # of connection points: 2
#     Edge 11, Type (0, 0), BuildingBlock: OJICUG_clean_linker_0, # of connection points: 2
#     Edge 12, Type (0, 0), BuildingBlock: OJICUG_clean_linker_0, # of connection points: 2
#     Edge 13, Type (0, 0), BuildingBlock: OJICUG_clean_linker_0, # of connection points: 2
#     Edge 14, Type (0, 0), BuildingBlock: OJICUG_clean_linker_0, # of connection points: 2
#     Edge 15, Type (0, 0), BuildingBlock: OJICUG_clean_linker_0, # of connection points: 2
#     Edge 16, Type (0, 0), BuildingBlock: OJICUG_clean_linker_0, # of connection points: 2
#     Edge 17, Type (0, 0), BuildingBlock: OJICUG_clean_linker_0, # of connection points: 2
#     Edge 18, Type (0, 0), BuildingBlock: OJICUG_clean_linker_0, # of connection points: 2
#     Edge 19, Type (0, 0), BuildingBlock: OJICUG_clean_linker_0, # of connection points: 2
#     Edge 20, Type (0, 0), BuildingBlock: OJICUG_clean_linker_0, # of connection points: 2
#     Edge 21, Type (0, 0), BuildingBlock: OJICUG_clean_linker_0, # of connection points: 2
#     Edge 22, Type (0, 0), BuildingBlock: OJICUG_clean_linker_0, # of connection points: 2
#     Edge 23, Type (0, 0), BuildingBlock: OJICUG_clean_linker_0, # of connection points: 2
# Relax obj value: 0.323
# Max RMSD: 0.299
# Mean RMSD: 0.299
data_MOF--net-sml--node1-BETDIP_clean_sbu_0--edge1-OJICUG_clean_linker_0
_symmetry_space_group_name_H-M    P1
_symmetry_Int_Tables_number       1
_symmetry_cell_setting            triclinic
loop_
_symmetry_equiv_pos_as_xyz
'x, y, z'
_cell_length_a     21.659044
_cell_length_b     21.714621
_cell_length_c     20.150905
_cell_angle_alpha  89.950146
_cell_angle_beta   90.172579
_cell_angle_gamma 120.09937
loop_
_atom_site_label
_atom_site_type_symbol
_atom_site_fract_x
_atom_site_fract_y
_atom_site_fract_z
_atom_type_partial_charge
Tb0 Tb 0.16099 0.4374 0.98949 0.0
Tb1 Tb 0.23519 0.39163 0.09347 0.0
C2 C 0.13637 0.4781 0.88097 0.0
C3 C 0.1483 0.46717 0.81028 0.0
C4 C 0.2065 0.52078 0.77512 0.0
C5 C 0.21918 0.50994 0.70915 0.0
C6 C 0.1738 0.44524 0.6765 0.0
C7 C 0.115 0.39207 0.71152 0.0
C8 C 0.10229 0.40294 0.77735 0.0
C9 C 0.07623 0.34312 0.07541 0.0
C10 C 0.21328 0.32554 0.95368 0.0
C11 C 0.26244 0.35294 0.20179 0.0
C12 C 0.25226 0.36621 0.27231 0.0
C13 C 0.19677 0.31249 0.30988 0.0
C14 C 0.18454 0.32546 0.37527 0.0
C15 C 0.22799 0.39233 0.40506 0.0
C16 C 0.28436 0.44567 0.36787 0.0
C17 C 0.29631 0.43284 0.30236 0.0
C18 C 0.31834 0.48751 1.00764 0.0
C19 C 0.18674 0.50723 0.12759 0.0
O20 O 0.19352 0.51733 0.91701 0.0
O21 O 0.08847 0.42206 0.91341 0.0
O22 O 0.13177 0.34698 0.05126 0.0
O23 O 0.06186 0.38741 0.04546 0.0
O24 O 0.19313 0.37126 0.93477 0.0
O25 O 0.22582 0.31749 1.01658 0.0
O26 O 0.2043 0.3131 0.16718 0.0
O27 O 0.30986 0.40772 0.16768 0.0
O28 O 0.26338 0.48232 0.03402 0.0
O29 O 0.33206 0.44056 0.03295 0.0
O30 O 0.20868 0.46305 0.14726 0.0
O31 O 0.17011 0.51202 0.06531 0.0
H32 H 0.24256 0.57114 0.79873 0.0
H33 H 0.26428 0.55263 0.68358 0.0
H34 H 0.07927 0.34127 0.68853 0.0
H35 H 0.05668 0.36046 0.80256 0.0
H36 H 0.16215 0.2605 0.28841 0.0
H37 H 0.14125 0.28283 0.40268 0.0
H38 H 0.31847 0.49799 0.38891 0.0
H39 H 0.33965 0.47563 0.27514 0.0
Tb40 Tb 0.72126 0.16623 0.32632 0.0
Tb41 Tb 0.84148 0.23986 0.4307 0.0
C42 C 0.65668 0.14193 0.21733 0.0
C43 C 0.6807 0.15518 0.14698 0.0
C44 C 0.70357 0.22172 0.11698 0.0
C45 C 0.72842 0.23447 0.05147 0.0
C46 C 0.73111 0.18104 1.01411 0.0
C47 C 0.70724 0.1142 0.04398 0.0
C48 C 0.68207 0.10137 0.10932 0.0
C49 C 0.72986 0.0815 0.4127 0.0
C50 C 0.88568 0.21789 0.29102 0.0
C51 C 0.90877 0.26655 0.53857 0.0
C52 C 0.88742 0.25648 0.60972 0.0
C53 C 0.87313 0.19398 0.64349 0.0
C54 C 0.84912 0.18255 0.70921 0.0
C55 C 0.83999 0.23389 0.74336 0.0
C56 C 0.85664 0.29751 0.71043 0.0
C57 C 0.88001 0.30865 0.64444 0.0
C58 C 0.8285 0.3228 0.34467 0.0
C59 C 0.67724 0.19387 0.46356 0.0
O60 O 0.67283 0.19794 0.25411 0.0
O61 O 0.66575 0.0944 0.24934 0.0
O62 O 0.78202 0.13667 0.3886 0.0
O63 O 0.67117 0.06748 0.38256 0.0
O64 O 0.81989 0.19868 0.27199 0.0
O65 O 0.90631 0.23031 0.35392 0.0
O66 O 0.88972 0.20869 0.50363 0.0
O67 O 0.90023 0.31373 0.50536 0.0
O68 O 0.779 0.26792 0.3711 0.0
O69 O 0.88956 0.33666 0.36971 0.0
O70 O 0.74313 0.21452 0.4841 0.0
O71 O 0.65623 0.17718 0.40119 0.0
H72 H 0.7026 0.26426 0.14413 0.0
H73 H 0.74494 0.28616 1.02998 0.0
H74 H 0.7091 0.07186 1.01736 0.0
H75 H 0.66443 0.04932 0.1306 0.0
H76 H 0.87952 0.15324 0.61882 0.0
H77 H 0.83796 0.13349 0.73344 0.0
H78 H 0.84997 0.33807 0.73514 0.0
H79 H 0.89132 0.35784 0.6204 0.0
Tb80 Tb 0.55202 0.72447 0.66096 0.0
Tb81 Tb 0.59617 0.84373 0.76528 0.0
C82 C 0.51287 0.65987 0.5521 0.0
C83 C 0.52261 0.68363 0.48169 0.0
C84 C 0.47749 0.70502 0.45194 0.0
C85 C 0.4886 0.72958 0.38632 0.0
C86 C 0.54506 0.73335 0.34863 0.0
C87 C 0.5895 0.71097 0.37824 0.0
C88 C 0.5782 0.68615 0.4437 0.0
C89 C 0.64508 0.73388 0.74856 0.0
C90 C 0.66418 0.88891 0.62639 0.0
C91 C 0.63512 0.91093 0.87306 0.0
C92 C 0.62385 0.88964 0.94422 0.0
C93 C 0.6722 0.87534 0.97805 0.0
C94 C 0.65957 0.85125 0.04374 0.0
C95 C 0.5989 0.84198 0.0778 0.0
C96 C 0.55185 0.85875 0.04486 0.0
C97 C 0.56414 0.88224 0.97888 0.0
C98 C 0.50123 0.83051 0.67746 0.0
C99 C 0.47917 0.67929 0.79773 0.0
O100 O 0.47176 0.67423 0.58894 0.0
O101 O 0.57049 0.67092 0.58392 0.0
O102 O 0.64158 0.78558 0.7242 0.0
O103 O 0.6012 0.6753 0.71805 0.0
O104 O 0.61803 0.8233 0.6069 0.0
O105 O 0.67159 0.90898 0.68934 0.0
O106 O 0.67511 0.89306 0.83858 0.0
O107 O 0.57893 0.90112 0.83948 0.0
O108 O 0.50649 0.7812 0.70442 0.0
O109 O 0.54777 0.89138 0.70305 0.0
O110 O 0.52344 0.74519 0.81837 0.0
O111 O 0.47579 0.65858 0.73546 0.0
H112 H 0.43363 0.7031 0.47935 0.0
H113 H 0.45239 0.74501 0.36501 0.0
H114 H 0.63401 0.71374 0.3513 0.0
H115 H 0.61372 0.66968 0.46481 0.0
H116 H 0.71947 0.88176 0.95345 0.0
H117 H 0.6976 0.8401 0.06799 0.0
H118 H 0.5045 0.85206 0.06954 0.0
H119 H 0.5262 0.89363 0.95478 0.0
Tb120 Tb 0.81509 0.54866 0.99677 0.0
Tb121 Tb 0.74026 0.59278 0.10085 0.0
C122 C 0.83761 0.50746 0.88788 0.0
C123 C 0.82226 0.5168 0.81777 0.0
C124 C 0.76655 0.45987 0.78284 0.0
C125 C 0.7499 0.46904 0.71763 0.0
C126 C 0.78858 0.53544 0.68582 0.0
C127 C 0.84497 0.59197 0.7205 0.0
C128 C 0.86173 0.58277 0.78548 0.0
C129 C 0.89934 0.64036 0.0849 0.0
C130 C 0.76702 0.6642 0.96332 0.0
C131 C 0.70943 0.6286 0.20866 0.0
C132 C 0.71587 0.61332 0.27946 0.0
C133 C 0.76503 0.66801 0.32094 0.0
C134 C 0.77362 0.65418 0.38715 0.0
C135 C 0.7328 0.58528 0.41389 0.0
C136 C 0.68285 0.53069 0.37249 0.0
C137 C 0.67452 0.54448 0.30612 0.0
C138 C 0.65839 0.49952 1.01198 0.0
C139 C 0.78859 0.47683 0.13382 0.0
O140 O 0.78204 0.46782 0.92522 0.0
O141 O 0.88583 0.56447 0.91923 0.0
O142 O 0.84436 0.63776 0.06047 0.0
O143 O 0.91391 0.5969 0.05367 0.0
O144 O 0.78524 0.61741 0.9433 0.0
O145 O 0.75382 0.67069 1.02629 0.0
O146 O 0.76945 0.66855 0.17698 0.0
O147 O 0.66304 0.57518 0.17233 0.0
O148 O 0.71235 0.50353 0.0396 0.0
O149 O 0.64508 0.54668 0.03719 0.0
O150 O 0.76646 0.5206 0.15417 0.0
O151 O 0.80561 0.4732 0.07157 0.0
H152 H 0.73525 0.40834 0.80625 0.0
H153 H 0.70584 0.42448 0.69258 0.0
H154 H 0.87672 0.64346 0.69719 0.0
H155 H 0.9053 0.62778 0.81048 0.0
H156 H 0.79766 0.7215 0.30186 0.0
H157 H 0.81344 0.6974 0.417 0.0
H158 H 0.6497 0.47723 0.39141 0.0
H159 H 0.63588 0.50095 0.27576 0.0
Tb160 Tb 0.26067 0.81422 0.32762 0.0
Tb161 Tb 0.14412 0.7417 0.43339 0.0
C162 C 0.32474 0.83464 0.21897 0.0
C163 C 0.30022 0.81403 0.15002 0.0
C164 C 0.23069 0.75863 0.13633 0.0
C165 C 0.20591 0.74271 0.07091 0.0
C166 C 0.25033 0.7819 1.01777 0.0
C167 C 0.3208 0.83592 1.03175 0.0
C168 C 0.34539 0.8519 0.09728 0.0
C169 C 0.25796 0.90189 0.41466 0.0
C170 C 0.09596 0.76587 0.29655 0.0
C171 C 0.07738 0.70637 0.54187 0.0
C172 C 0.10023 0.71662 0.61219 0.0
C173 C 0.17151 0.76402 0.62956 0.0
C174 C 0.19369 0.77267 0.69559 0.0
C175 C 0.1452 0.73382 0.74621 0.0
C176 C 0.07382 0.68534 0.72894 0.0
C177 C 0.05152 0.67698 0.6624 0.0
C178 C 0.15333 0.65849 0.34471 0.0
C179 C 0.30963 0.7919 0.46416 0.0
O180 O 0.31214 0.78238 0.25948 0.0
O181 O 0.30983 0.88065 0.24569 0.0
O182 O 0.20351 0.84657 0.3927 0.0
O183 O 0.31415 0.91396 0.38132 0.0
O184 O 0.16064 0.78335 0.27569 0.0
O185 O 0.0776 0.75389 0.35989 0.0
O186 O 0.091 0.76377 0.50864 0.0
O187 O 0.09288 0.66478 0.50763 0.0
O188 O 0.20384 0.71235 0.37161 0.0
O189 O 0.09328 0.64636 0.3701 0.0
O190 O 0.24435 0.77165 0.48515 0.0
O191 O 0.32898 0.80674 0.40151 0.0
H192 H 0.19497 0.72862 0.17628 0.0
H193 H 0.15125 0.70124 0.06221 0.0
H194 H 0.35692 0.86627 0.99202 0.0
H195 H 0.39937 0.89455 0.1068 0.0
H196 H 0.21064 0.7946 0.59244 0.0
H197 H 0.24929 0.80944 0.70694 0.0
H198 H 0.03512 0.65474 0.76689 0.0
H199 H -0.00365 0.63954 0.65017 0.0
Tb200 Tb 0.43873 0.27422 0.65397 0.0
Tb201 Tb 0.38969 0.15371 0.75741 0.0
C202 C 0.48088 0.33996 0.54589 0.0
C203 C 0.47096 0.31776 0.47492 0.0
C204 C 0.52101 0.3053 0.44225 0.0
C205 C 0.51048 0.28257 0.37596 0.0
C206 C 0.4497 0.2719 0.34048 0.0
C207 C 0.40034 0.28553 0.37301 0.0
C208 C 0.41096 0.30841 0.43911 0.0
C209 C 0.3434 0.26506 0.7386 0.0
C210 C 0.32616 0.11017 0.61652 0.0
C211 C 0.34921 0.0887 0.86588 0.0
C212 C 0.36365 0.11281 0.93633 0.0
C213 C 0.3137 0.12248 0.97246 0.0
C214 C 0.32841 0.14855 0.0376 0.0
C215 C 0.39311 0.16475 0.06873 0.0
C216 C 0.44247 0.15365 0.0331 0.0
C217 C 0.42799 0.1281 0.96777 0.0
C218 C 0.48642 0.16554 0.67319 0.0
C219 C 0.50837 0.31716 0.79242 0.0
O220 O 0.51978 0.32228 0.58257 0.0
O221 O 0.42408 0.33106 0.57743 0.0
O222 O 0.34689 0.21338 0.71432 0.0
O223 O 0.38916 0.32387 0.70975 0.0
O224 O 0.37353 0.17591 0.59845 0.0
O225 O 0.31566 0.08972 0.67948 0.0
O226 O 0.31076 0.10841 0.83103 0.0
O227 O 0.40307 0.0938 0.83181 0.0
O228 O 0.48172 0.21564 0.69921 0.0
O229 O 0.43835 0.10499 0.69798 0.0
O230 O 0.4629 0.25117 0.81163 0.0
O231 O 0.51379 0.3389 0.73027 0.0
H232 H 0.56832 0.31282 0.46797 0.0
H233 H 0.55038 0.27394 0.35239 0.0
H234 H 0.35251 0.27728 0.34786 0.0
H235 H 0.37153 0.31805 0.4623 0.0
H236 H 0.26339 0.11067 0.95006 0.0
H237 H 0.28872 0.15546 0.06382 0.0
H238 H 0.49304 0.16604 0.05526 0.0
H239 H 0.46775 0.12113 0.94176 0.0
C240 C 0.2466 0.28253 0.78128 0.0
C241 C 0.29747 0.26216 0.79333 0.0
H242 H 0.17737 0.31546 0.82291 0.0
C243 C 0.31283 0.25259 0.859 0.0
H244 H 0.23483 0.29127 0.73098 0.0
C245 C 0.28045 0.26697 0.91215 0.0
C246 C 0.23287 0.29195 0.90013 0.0
H247 H 0.35359 0.23922 0.86962 0.0
H248 H 0.29685 0.26374 0.96225 0.0
C249 C 0.21398 0.29654 0.83409 0.0
C250 C 0.05885 0.3119 0.19579 0.0
C251 C 0.03322 0.2974 0.13025 0.0
H252 H 0.03214 0.29687 0.29922 0.0
C253 C 0.96118 0.2485 0.11855 0.0
H254 H 0.11372 0.3512 0.20612 0.0
C255 C 0.91444 0.2173 0.17154 0.0
C256 C 0.93861 0.23579 0.23746 0.0
H257 H 0.94017 0.23743 0.06837 0.0
H258 H 0.85838 0.18232 0.16052 0.0
C259 C 0.0119 0.28102 0.24919 0.0
C260 C 0.71007 0.96648 0.45468 0.0
C261 C 0.73237 0.03798 0.46706 0.0
H262 H 0.67402 0.86355 0.49575 0.0
C263 C 0.74255 0.06263 0.53277 0.0
H264 H 0.70085 0.94628 0.40428 0.0
C265 C 0.72642 0.01519 0.58572 0.0
C266 C 0.69928 0.94239 0.57332 0.0
H267 H 0.7575 0.11713 0.54342 0.0
H268 H 0.73003 0.0346 0.63589 0.0
C269 C 0.69448 0.91923 0.50724 0.0
C270 C 0.67433 0.74513 0.86913 0.0
C271 C 0.69067 0.73666 0.80364 0.0
H272 H 0.68693 0.72981 0.97236 0.0
C273 C 0.74101 0.71561 0.79199 0.0
H274 H 0.63414 0.75942 0.87916 0.0
C275 C 0.77151 0.69902 0.84498 0.0
C276 C 0.75078 0.70145 0.91066 0.0
H277 H 0.75356 0.70787 0.74175 0.0
H278 H 0.80755 0.67944 0.83404 0.0
C279 C 0.70442 0.72788 0.92249 0.0
C280 C 0.06339 0.76737 0.17826 0.0
C281 C 0.04128 0.74865 0.24449 0.0
H282 H 0.03476 0.74687 0.07555 0.0
C283 C 0.96831 0.70343 0.25758 0.0
H284 H 0.11904 0.80267 0.16628 0.0
C285 C 0.91974 0.67249 0.20502 0.0
C286 C 0.94361 0.68667 0.13905 0.0
H287 H 0.94961 0.68759 0.30791 0.0
H288 H 0.86502 0.63331 0.21616 0.0
C289 C 0.0152 0.73587 0.12611 0.0
C290 C 0.24702 0.98433 0.57582 0.0
C291 C 0.29387 0.05679 0.56253 0.0
H292 H 0.19663 0.87802 0.53771 0.0
C293 C 0.31806 0.07736 0.49698 0.0
H294 H 0.22729 0.96659 0.62557 0.0
C295 C 0.30168 0.02644 0.44777 0.0
C296 C 0.25896 0.95391 0.46211 0.0
H297 H 0.35382 0.13261 0.48425 0.0
H298 H 0.3254 0.04372 0.3991 0.0
C299 C 0.22915 0.93339 0.52556 0.0
C300 C 0.25804 0.4583 0.58399 0.0
C301 C 0.18785 0.43282 0.60652 0.0
H302 H 0.32569 0.46489 0.50361 0.0
C303 C 0.13111 0.39445 0.56181 0.0
H304 H 0.30309 0.48705 0.6171 0.0
C305 C 0.14412 0.38137 0.49675 0.0
C306 C 0.21425 0.40652 0.47441 0.0
H307 H 0.07643 0.3751 0.57677 0.0
H308 H 0.09913 0.35232 0.46362 0.0
C309 C 0.27105 0.44544 0.51882 0.0
C310 C 0.8163 0.26179 0.92611 0.0
C311 C 0.75882 0.1949 0.94451 0.0
H312 H 0.88724 0.32636 0.84885 0.0
C313 C 0.72842 0.14115 0.89586 0.0
H314 H 0.84207 0.30417 0.96226 0.0
C315 C 0.75492 0.15376 0.83097 0.0
C316 C 0.81225 0.2206 0.81269 0.0
H317 H 0.68333 0.08937 0.90754 0.0
H318 H 0.72966 0.11136 0.79474 0.0
C319 C 0.84245 0.27454 0.86103 0.0
C320 C 0.54747 0.8175 0.26058 0.0
C321 C 0.55785 0.7607 0.27893 0.0
H322 H 0.55276 0.88799 0.18332 0.0
C323 C 0.58128 0.7307 0.23017 0.0
H324 H 0.53065 0.84284 0.29683 0.0
C325 C 0.59457 0.7571 0.16524 0.0
C326 C 0.58442 0.81397 0.14705 0.0
H327 H 0.58862 0.68609 0.24185 0.0
H328 H 0.61189 0.73221 0.12895 0.0
C329 C 0.56035 0.84361 0.19545 0.0
C330 C 0.75418 0.49448 0.56739 0.0
C331 C 0.77061 0.5462 0.61683 0.0
H332 H 0.73069 0.46648 0.46481 0.0
C333 C 0.77132 0.60933 0.59954 0.0
H334 H 0.75362 0.44545 0.57883 0.0
C335 C 0.7577 0.62125 0.53428 0.0
C336 C 0.74332 0.57054 0.48427 0.0
H337 H 0.78221 0.64964 0.63662 0.0
H338 H 0.75828 0.67033 0.52311 0.0
C339 C 0.74088 0.50656 0.50192 0.0
C340 C 0.21502 0.81463 0.8402 0.0
C341 C 0.16979 0.74523 0.81649 0.0
H342 H 0.27475 0.88052 0.92188 0.0
C343 C 0.15039 0.68753 0.85972 0.0
H344 H 0.23005 0.8603 0.8085 0.0
C345 C 0.17659 0.69912 0.92495 0.0
C346 C 0.22251 0.76867 0.94838 0.0
H347 H 0.11631 0.6334 0.84267 0.0
H348 H 0.16184 0.65352 0.95665 0.0
C349 C 0.24093 0.8262 0.90521 0.0
C350 C 0.406 0.27084 0.22384 0.0
C351 C 0.43714 0.24589 0.27025 0.0
H352 H 0.36843 0.26558 0.12436 0.0
C353 C 0.45476 0.19477 0.24923 0.0
H354 H 0.39291 0.31114 0.23758 0.0
C355 C 0.44106 0.16894 0.18396 0.0
C356 C 0.40901 0.1932 0.13796 0.0
H357 H 0.47773 0.17336 0.2836 0.0
H358 H 0.45416 0.12871 0.16995 0.0
C359 C 0.39196 0.24472 0.15873 0.0
C360 C 0.23287 0.58205 0.22835 0.0
C361 C 0.18005 0.55123 0.1791 0.0
H362 H 0.26572 0.64111 0.31916 0.0
C363 C 0.11816 0.5564 0.18395 0.0
H364 H 0.28074 0.5781 0.22578 0.0
C365 C 0.10844 0.59032 0.23869 0.0
C366 C 0.16156 0.62116 0.2878 0.0
H367 H 0.07634 0.53198 0.14689 0.0
H368 H 0.06001 0.59315 0.24227 0.0
C369 C 0.22414 0.61762 0.28177 0.0
C370 C 0.55732 0.12898 0.51637 0.0
C371 C 0.62594 0.18899 0.5136 0.0
H372 H 0.45944 0.07359 0.57105 0.0
C373 C 0.64746 0.24213 0.56226 0.0
H374 H 0.54006 0.08716 0.47954 0.0
C375 C 0.60112 0.23519 0.61338 0.0
C376 C 0.53361 0.17393 0.61769 0.0
H377 H 0.70027 0.28886 0.5609 0.0
H378 H 0.61875 0.27673 0.65056 0.0
C379 C 0.51174 0.12095 0.5688 0.0
C380 C 0.38896 0.514 0.90344 0.0
C381 C 0.35671 0.53481 0.952 0.0
H382 H 0.4516 0.54338 0.81438 0.0
C383 C 0.36146 0.60146 0.9473 0.0
H384 H 0.38527 0.4624 0.90602 0.0
C385 C 0.40037 0.64798 0.89609 0.0
C386 C 0.43306 0.62754 0.8477 0.0
H387 H 0.33673 0.61831 0.98425 0.0
H388 H 0.4053 0.70016 0.89447 0.0
C389 C 0.42609 0.55977 0.85091 0.0
C390 C 0.75627 0.36582 0.28696 0.0
C391 C 0.81822 0.36068 0.28947 0.0
H392 H 0.69889 0.40781 0.23539 0.0
C393 C 0.86887 0.3906 0.23857 0.0
H394 H 0.71647 0.34275 0.32575 0.0
C395 C 0.8576 0.42559 0.18565 0.0
C396 C 0.79666 0.43273 0.18439 0.0
H397 H 0.91667 0.38643 0.23947 0.0
H398 H 0.89761 0.44925 0.14714 0.0
C399 C 0.74613 0.40263 0.23536 0.0
C400 C 0.43008 0.86042 0.51669 0.0
C401 C 0.36198 0.7995 0.51456 0.0
H402 H 0.52761 0.9192 0.57208 0.0
C403 C 0.34101 0.74851 0.56516 0.0
H404 H 0.44679 0.90073 0.47844 0.0
C405 C 0.38725 0.75831 0.61746 0.0
C406 C 0.45419 0.82035 0.62108 0.0
H407 H 0.28852 0.70129 0.5645 0.0
H408 H 0.36995 0.71825 0.65604 0.0
C409 C 0.47567 0.87132 0.57035 0.0
C410 C 0.61677 0.38784 0.94856 0.0
C411 C 0.62264 0.45489 0.95395 0.0
H412 H 0.57526 0.29134 0.8926 0.0
C413 C 0.59499 0.47882 0.90343 0.0
H414 H 0.63802 0.36862 0.98697 0.0
C415 C 0.56116 0.43557 0.84829 0.0
C416 C 0.55301 0.36735 0.84428 0.0
H417 H 0.59971 0.53084 0.90653 0.0
H418 H 0.5388 0.45413 0.81036 0.0
C419 C 0.58131 0.34397 0.89463 0.0
loop_
_geom_bond_atom_site_label_1
_geom_bond_atom_site_label_2
_geom_bond_distance
_geom_bond_site_symmetry_2
_ccdc_geom_bond_type
Tb0 C2 2.809 . S
Tb0 O20 2.484 . S
Tb0 O21 2.440 . S
Tb0 O22 2.658 1_556 S
Tb0 O23 2.409 . S
Tb0 O24 2.378 . S
Tb0 O28 2.325 . S
Tb0 O31 2.341 1_556 S
Tb1 C11 2.809 . S
Tb1 O22 2.325 . S
Tb1 O25 2.341 1_554 S
Tb1 O26 2.484 . S
Tb1 O27 2.440 . S
Tb1 O28 2.658 1_554 S
Tb1 O29 2.409 . S
Tb1 O30 2.378 . S
C2 Tb0 2.809 . S
C2 C3 1.514 . S
C2 O20 1.248 . S
C2 O21 1.266 . S
C3 C2 1.514 . S
C3 C4 1.359 . S
C3 C8 1.348 . S
C4 C3 1.359 . S
C4 C5 1.380 . S
C4 H32 0.929 . S
C5 C4 1.380 . S
C5 C6 1.347 . S
C5 H33 0.931 . S
C6 C5 1.347 . S
C6 C7 1.369 . S
C7 C6 1.369 . S
C7 C8 1.408 . S
C7 H34 0.930 1_455 S
C8 C3 1.348 . S
C8 C7 1.408 . S
C8 H35 0.930 1_455 S
C9 O22 1.281 . S
C9 O23 1.254 1_554 S
C10 O24 1.236 . S
C10 O25 1.266 . S
C11 Tb1 2.809 . S
C11 C12 1.514 . S
C11 O26 1.248 . S
C11 O27 1.266 . S
C12 C11 1.514 . S
C12 C13 1.359 . S
C12 C17 1.348 . S
C13 C12 1.359 . S
C13 C14 1.380 . S
C13 H36 0.929 . S
C14 C13 1.380 . S
C14 C15 1.347 . S
C14 H37 0.931 . S
C15 C14 1.347 . S
C15 C16 1.369 . S
C16 C15 1.369 . S
C16 C17 1.408 . S
C16 H38 0.930 . S
C17 C12 1.348 . S
C17 C16 1.408 . S
C17 H39 0.930 . S
C18 O28 1.281 . S
C18 O29 1.254 1_556 S
C19 O30 1.236 . S
C19 O31 1.266 . S
O20 Tb0 2.484 . S
O20 C2 1.248 . S
O21 Tb0 2.440 . S
O21 C2 1.266 . S
O22 Tb0 2.658 1_554 S
O22 Tb1 2.325 . S
O22 C9 1.281 . S
O23 Tb0 2.409 . S
O23 C9 1.254 1_556 S
O24 Tb0 2.378 . S
O24 C10 1.236 . S
O25 Tb1 2.341 1_556 S
O25 C10 1.266 . S
O26 Tb1 2.484 . S
O26 C11 1.248 . S
O27 Tb1 2.440 . S
O27 C11 1.266 . S
O28 Tb0 2.325 . S
O28 Tb1 2.658 1_556 S
O28 C18 1.281 . S
O29 Tb1 2.409 . S
O29 C18 1.254 1_554 S
O30 Tb1 2.378 . S
O30 C19 1.236 . S
O31 Tb0 2.341 1_554 S
O31 C19 1.266 . S
H32 C4 0.929 . S
H33 C5 0.931 . S
H34 C7 0.930 1_655 S
H35 C8 0.930 1_655 S
H36 C13 0.929 . S
H37 C14 0.931 . S
H38 C16 0.930 . S
H39 C17 0.930 . S
Tb40 C42 2.809 . S
Tb40 O60 2.484 . S
Tb40 O61 2.440 . S
Tb40 O62 2.658 . S
Tb40 O63 2.409 . S
Tb40 O64 2.378 . S
Tb40 O68 2.325 . S
Tb40 O71 2.341 . S
Tb41 C51 2.809 . S
Tb41 O62 2.325 . S
Tb41 O65 2.341 . S
Tb41 O66 2.484 . S
Tb41 O67 2.440 . S
Tb41 O68 2.658 . S
Tb41 O69 2.409 . S
Tb41 O70 2.378 . S
C42 Tb40 2.809 . S
C42 C43 1.514 . S
C42 O60 1.248 . S
C42 O61 1.266 . S
C43 C42 1.514 . S
C43 C44 1.359 . S
C43 C48 1.348 . S
C44 C43 1.359 . S
C44 C45 1.380 1_554 S
C44 H72 0.929 . S
C45 C44 1.380 1_556 S
C45 C46 1.347 . S
C45 H73 0.931 . S
C46 C45 1.347 . S
C46 C47 1.369 1_556 S
C47 C46 1.369 1_554 S
C47 C48 1.408 . S
C47 H74 0.930 1_544 S
C48 C43 1.348 . S
C48 C47 1.408 . S
C48 H75 0.930 1_545 S
C49 O62 1.281 . S
C49 O63 1.254 . S
C50 O64 1.236 . S
C50 O65 1.266 . S
C51 Tb41 2.809 . S
C51 C52 1.514 . S
C51 O66 1.248 . S
C51 O67 1.266 . S
C52 C51 1.514 . S
C52 C53 1.359 . S
C52 C57 1.348 . S
C53 C52 1.359 . S
C53 C54 1.380 . S
C53 H76 0.929 . S
C54 C53 1.380 . S
C54 C55 1.347 . S
C54 H77 0.931 . S
C55 C54 1.347 . S
C55 C56 1.369 . S
C56 C55 1.369 . S
C56 C57 1.408 . S
C56 H78 0.930 . S
C57 C52 1.348 . S
C57 C56 1.408 . S
C57 H79 0.930 . S
C58 O68 1.281 . S
C58 O69 1.254 . S
C59 O70 1.236 . S
C59 O71 1.266 . S
O60 Tb40 2.484 . S
O60 C42 1.248 . S
O61 Tb40 2.440 . S
O61 C42 1.266 . S
O62 Tb40 2.658 . S
O62 Tb41 2.325 . S
O62 C49 1.281 . S
O63 Tb40 2.409 . S
O63 C49 1.254 . S
O64 Tb40 2.378 . S
O64 C50 1.236 . S
O65 Tb41 2.341 . S
O65 C50 1.266 . S
O66 Tb41 2.484 . S
O66 C51 1.248 . S
O67 Tb41 2.440 . S
O67 C51 1.266 . S
O68 Tb40 2.325 . S
O68 Tb41 2.658 . S
O68 C58 1.281 . S
O69 Tb41 2.409 . S
O69 C58 1.254 . S
O70 Tb41 2.378 . S
O70 C59 1.236 . S
O71 Tb40 2.341 . S
O71 C59 1.266 . S
H72 C44 0.929 . S
H73 C45 0.931 . S
H74 C47 0.930 1_566 S
H75 C48 0.930 1_565 S
H76 C53 0.929 . S
H77 C54 0.931 . S
H78 C56 0.930 . S
H79 C57 0.930 . S
Tb80 C82 2.809 . S
Tb80 O100 2.484 . S
Tb80 O101 2.440 . S
Tb80 O102 2.658 . S
Tb80 O103 2.409 . S
Tb80 O104 2.378 . S
Tb80 O108 2.325 . S
Tb80 O111 2.341 . S
Tb81 C91 2.809 . S
Tb81 O102 2.325 . S
Tb81 O105 2.341 . S
Tb81 O106 2.484 . S
Tb81 O107 2.440 . S
Tb81 O108 2.658 . S
Tb81 O109 2.409 . S
Tb81 O110 2.378 . S
C82 Tb80 2.809 . S
C82 C83 1.514 . S
C82 O100 1.248 . S
C82 O101 1.266 . S
C83 C82 1.514 . S
C83 C84 1.359 . S
C83 C88 1.348 . S
C84 C83 1.359 . S
C84 C85 1.380 . S
C84 H112 0.929 . S
C85 C84 1.380 . S
C85 C86 1.347 . S
C85 H113 0.931 . S
C86 C85 1.347 . S
C86 C87 1.369 . S
C87 C86 1.369 . S
C87 C88 1.408 . S
C87 H114 0.930 . S
C88 C83 1.348 . S
C88 C87 1.408 . S
C88 H115 0.930 . S
C89 O102 1.281 . S
C89 O103 1.254 . S
C90 O104 1.236 . S
C90 O105 1.266 . S
C91 Tb81 2.809 . S
C91 C92 1.514 . S
C91 O106 1.248 . S
C91 O107 1.266 . S
C92 C91 1.514 . S
C92 C93 1.359 . S
C92 C97 1.348 . S
C93 C92 1.359 . S
C93 C94 1.380 1_556 S
C93 H116 0.929 . S
C94 C93 1.380 1_554 S
C94 C95 1.347 . S
C94 H117 0.931 . S
C95 C94 1.347 . S
C95 C96 1.369 . S
C96 C95 1.369 . S
C96 C97 1.408 1_554 S
C96 H118 0.930 . S
C97 C92 1.348 . S
C97 C96 1.408 1_556 S
C97 H119 0.930 . S
C98 O108 1.281 . S
C98 O109 1.254 . S
C99 O110 1.236 . S
C99 O111 1.266 . S
O100 Tb80 2.484 . S
O100 C82 1.248 . S
O101 Tb80 2.440 . S
O101 C82 1.266 . S
O102 Tb80 2.658 . S
O102 Tb81 2.325 . S
O102 C89 1.281 . S
O103 Tb80 2.409 . S
O103 C89 1.254 . S
O104 Tb80 2.378 . S
O104 C90 1.236 . S
O105 Tb81 2.341 . S
O105 C90 1.266 . S
O106 Tb81 2.484 . S
O106 C91 1.248 . S
O107 Tb81 2.440 . S
O107 C91 1.266 . S
O108 Tb80 2.325 . S
O108 Tb81 2.658 . S
O108 C98 1.281 . S
O109 Tb81 2.409 . S
O109 C98 1.254 . S
O110 Tb81 2.378 . S
O110 C99 1.236 . S
O111 Tb80 2.341 . S
O111 C99 1.266 . S
H112 C84 0.929 . S
H113 C85 0.931 . S
H114 C87 0.930 . S
H115 C88 0.930 . S
H116 C93 0.929 . S
H117 C94 0.931 . S
H118 C96 0.930 . S
H119 C97 0.930 . S
Tb120 C122 2.809 . S
Tb120 O140 2.484 . S
Tb120 O141 2.440 . S
Tb120 O142 2.658 1_556 S
Tb120 O143 2.409 . S
Tb120 O144 2.378 . S
Tb120 O148 2.325 . S
Tb120 O151 2.341 1_556 S
Tb121 C131 2.809 . S
Tb121 O142 2.325 . S
Tb121 O145 2.341 1_554 S
Tb121 O146 2.484 . S
Tb121 O147 2.440 . S
Tb121 O148 2.658 1_554 S
Tb121 O149 2.409 . S
Tb121 O150 2.378 . S
C122 Tb120 2.809 . S
C122 C123 1.514 . S
C122 O140 1.248 . S
C122 O141 1.266 . S
C123 C122 1.514 . S
C123 C124 1.359 . S
C123 C128 1.348 . S
C124 C123 1.359 . S
C124 C125 1.380 . S
C124 H152 0.929 . S
C125 C124 1.380 . S
C125 C126 1.347 . S
C125 H153 0.931 . S
C126 C125 1.347 . S
C126 C127 1.369 . S
C127 C126 1.369 . S
C127 C128 1.408 . S
C127 H154 0.930 1_655 S
C128 C123 1.348 . S
C128 C127 1.408 . S
C128 H155 0.930 1_655 S
C129 O142 1.281 . S
C129 O143 1.254 1_554 S
C130 O144 1.236 . S
C130 O145 1.266 . S
C131 Tb121 2.809 . S
C131 C132 1.514 . S
C131 O146 1.248 . S
C131 O147 1.266 . S
C132 C131 1.514 . S
C132 C133 1.359 . S
C132 C137 1.348 . S
C133 C132 1.359 . S
C133 C134 1.380 . S
C133 H156 0.929 . S
C134 C133 1.380 . S
C134 C135 1.347 . S
C134 H157 0.931 . S
C135 C134 1.347 . S
C135 C136 1.369 . S
C136 C135 1.369 . S
C136 C137 1.408 . S
C136 H158 0.930 . S
C137 C132 1.348 . S
C137 C136 1.408 . S
C137 H159 0.930 . S
C138 O148 1.281 . S
C138 O149 1.254 1_556 S
C139 O150 1.236 . S
C139 O151 1.266 . S
O140 Tb120 2.484 . S
O140 C122 1.248 . S
O141 Tb120 2.440 . S
O141 C122 1.266 . S
O142 Tb120 2.658 1_554 S
O142 Tb121 2.325 . S
O142 C129 1.281 . S
O143 Tb120 2.409 . S
O143 C129 1.254 1_556 S
O144 Tb120 2.378 . S
O144 C130 1.236 . S
O145 Tb121 2.341 1_556 S
O145 C130 1.266 . S
O146 Tb121 2.484 . S
O146 C131 1.248 . S
O147 Tb121 2.440 . S
O147 C131 1.266 . S
O148 Tb120 2.325 . S
O148 Tb121 2.658 1_556 S
O148 C138 1.281 . S
O149 Tb121 2.409 . S
O149 C138 1.254 1_554 S
O150 Tb121 2.378 . S
O150 C139 1.236 . S
O151 Tb120 2.341 1_554 S
O151 C139 1.266 . S
H152 C124 0.929 . S
H153 C125 0.931 . S
H154 C127 0.930 1_455 S
H155 C128 0.930 1_455 S
H156 C133 0.929 . S
H157 C134 0.931 . S
H158 C136 0.930 . S
H159 C137 0.930 . S
Tb160 C162 2.809 . S
Tb160 O180 2.484 . S
Tb160 O181 2.440 . S
Tb160 O182 2.658 . S
Tb160 O183 2.409 . S
Tb160 O184 2.378 . S
Tb160 O188 2.325 . S
Tb160 O191 2.341 . S
Tb161 C171 2.809 . S
Tb161 O182 2.325 . S
Tb161 O185 2.341 . S
Tb161 O186 2.484 . S
Tb161 O187 2.440 . S
Tb161 O188 2.658 . S
Tb161 O189 2.409 . S
Tb161 O190 2.378 . S
C162 Tb160 2.809 . S
C162 C163 1.514 . S
C162 O180 1.248 . S
C162 O181 1.266 . S
C163 C162 1.514 . S
C163 C164 1.359 . S
C163 C168 1.348 . S
C164 C163 1.359 . S
C164 C165 1.380 1_554 S
C164 H192 0.929 . S
C165 C164 1.380 1_556 S
C165 C166 1.347 . S
C165 H193 0.931 . S
C166 C165 1.347 . S
C166 C167 1.369 1_556 S
C167 C166 1.369 1_554 S
C167 C168 1.408 . S
C167 H194 0.930 1_564 S
C168 C163 1.348 . S
C168 C167 1.408 . S
C168 H195 0.930 1_565 S
C169 O182 1.281 . S
C169 O183 1.254 . S
C170 O184 1.236 . S
C170 O185 1.266 . S
C171 Tb161 2.809 . S
C171 C172 1.514 . S
C171 O186 1.248 . S
C171 O187 1.266 . S
C172 C171 1.514 . S
C172 C173 1.359 . S
C172 C177 1.348 . S
C173 C172 1.359 . S
C173 C174 1.380 . S
C173 H196 0.929 . S
C174 C173 1.380 . S
C174 C175 1.347 . S
C174 H197 0.931 . S
C175 C174 1.347 . S
C175 C176 1.369 . S
C176 C175 1.369 . S
C176 C177 1.408 . S
C176 H198 0.930 . S
C177 C172 1.348 . S
C177 C176 1.408 . S
C177 H199 0.930 . S
C178 O188 1.281 . S
C178 O189 1.254 . S
C179 O190 1.236 . S
C179 O191 1.266 . S
O180 Tb160 2.484 . S
O180 C162 1.248 . S
O181 Tb160 2.440 . S
O181 C162 1.266 . S
O182 Tb160 2.658 . S
O182 Tb161 2.325 . S
O182 C169 1.281 . S
O183 Tb160 2.409 . S
O183 C169 1.254 . S
O184 Tb160 2.378 . S
O184 C170 1.236 . S
O185 Tb161 2.341 . S
O185 C170 1.266 . S
O186 Tb161 2.484 . S
O186 C171 1.248 . S
O187 Tb161 2.440 . S
O187 C171 1.266 . S
O188 Tb160 2.325 . S
O188 Tb161 2.658 . S
O188 C178 1.281 . S
O189 Tb161 2.409 . S
O189 C178 1.254 . S
O190 Tb161 2.378 . S
O190 C179 1.236 . S
O191 Tb160 2.341 . S
O191 C179 1.266 . S
H192 C164 0.929 . S
H193 C165 0.931 . S
H194 C167 0.930 1_546 S
H195 C168 0.930 1_545 S
H196 C173 0.929 . S
H197 C174 0.931 . S
H198 C176 0.930 . S
H199 C177 0.930 . S
Tb200 C202 2.809 . S
Tb200 O220 2.484 . S
Tb200 O221 2.440 . S
Tb200 O222 2.658 . S
Tb200 O223 2.409 . S
Tb200 O224 2.378 . S
Tb200 O228 2.325 . S
Tb200 O231 2.341 . S
Tb201 C211 2.809 . S
Tb201 O222 2.325 . S
Tb201 O225 2.341 . S
Tb201 O226 2.484 . S
Tb201 O227 2.440 . S
Tb201 O228 2.658 . S
Tb201 O229 2.409 . S
Tb201 O230 2.378 . S
C202 Tb200 2.809 . S
C202 C203 1.514 . S
C202 O220 1.248 . S
C202 O221 1.266 . S
C203 C202 1.514 . S
C203 C204 1.359 . S
C203 C208 1.348 . S
C204 C203 1.359 . S
C204 C205 1.380 . S
C204 H232 0.929 . S
C205 C204 1.380 . S
C205 C206 1.347 . S
C205 H233 0.931 . S
C206 C205 1.347 . S
C206 C207 1.369 . S
C207 C206 1.369 . S
C207 C208 1.408 . S
C207 H234 0.930 . S
C208 C203 1.348 . S
C208 C207 1.408 . S
C208 H235 0.930 . S
C209 O222 1.281 . S
C209 O223 1.254 . S
C210 O224 1.236 . S
C210 O225 1.266 . S
C211 Tb201 2.809 . S
C211 C212 1.514 . S
C211 O226 1.248 . S
C211 O227 1.266 . S
C212 C211 1.514 . S
C212 C213 1.359 . S
C212 C217 1.348 . S
C213 C212 1.359 . S
C213 C214 1.380 1_556 S
C213 H236 0.929 . S
C214 C213 1.380 1_554 S
C214 C215 1.347 . S
C214 H237 0.931 . S
C215 C214 1.347 . S
C215 C216 1.369 . S
C216 C215 1.369 . S
C216 C217 1.408 1_554 S
C216 H238 0.930 . S
C217 C212 1.348 . S
C217 C216 1.408 1_556 S
C217 H239 0.930 . S
C218 O228 1.281 . S
C218 O229 1.254 . S
C219 O230 1.236 . S
C219 O231 1.266 . S
O220 Tb200 2.484 . S
O220 C202 1.248 . S
O221 Tb200 2.440 . S
O221 C202 1.266 . S
O222 Tb200 2.658 . S
O222 Tb201 2.325 . S
O222 C209 1.281 . S
O223 Tb200 2.409 . S
O223 C209 1.254 . S
O224 Tb200 2.378 . S
O224 C210 1.236 . S
O225 Tb201 2.341 . S
O225 C210 1.266 . S
O226 Tb201 2.484 . S
O226 C211 1.248 . S
O227 Tb201 2.440 . S
O227 C211 1.266 . S
O228 Tb200 2.325 . S
O228 Tb201 2.658 . S
O228 C218 1.281 . S
O229 Tb201 2.409 . S
O229 C218 1.254 . S
O230 Tb201 2.378 . S
O230 C219 1.236 . S
O231 Tb200 2.341 . S
O231 C219 1.266 . S
H232 C204 0.929 . S
H233 C205 0.931 . S
H234 C207 0.930 . S
H235 C208 0.930 . S
H236 C213 0.929 . S
H237 C214 0.931 . S
H238 C216 0.930 . S
H239 C217 0.930 . S
C240 C241 1.387 . S
C240 H244 0.950 . S
C240 C249 1.390 . S
C241 C240 1.387 . S
C241 C243 1.387 . S
H242 C249 0.950 . S
C243 C241 1.387 . S
C243 C245 1.390 . S
C243 H247 0.950 . S
H244 C240 0.950 . S
C245 C243 1.390 . S
C245 C246 1.387 . S
C245 H248 0.950 . S
C246 C245 1.387 . S
C246 C249 1.387 . S
H247 C243 0.950 . S
H248 C245 0.950 . S
C249 C240 1.390 . S
C249 H242 0.950 . S
C249 C246 1.387 . S
C250 C251 1.387 . S
C250 H254 0.950 . S
C250 C259 1.390 . S
C251 C250 1.387 . S
C251 C253 1.387 1_455 S
H252 C259 0.950 . S
C253 C251 1.387 1_655 S
C253 C255 1.390 . S
C253 H257 0.950 . S
H254 C250 0.950 . S
C255 C253 1.390 . S
C255 C256 1.387 . S
C255 H258 0.950 . S
C256 C255 1.387 . S
C256 C259 1.387 1_655 S
H257 C253 0.950 . S
H258 C255 0.950 . S
C259 C250 1.390 . S
C259 H252 0.950 . S
C259 C256 1.387 1_455 S
C260 C261 1.387 . S
C260 H264 0.950 . S
C260 C269 1.390 1_545 S
C261 C260 1.387 . S
C261 C263 1.387 1_545 S
H262 C269 0.950 . S
C263 C261 1.387 1_565 S
C263 C265 1.390 . S
C263 H267 0.951 . S
H264 C260 0.950 . S
C265 C263 1.390 . S
C265 C266 1.387 . S
C265 H268 0.950 . S
C266 C265 1.387 . S
C266 C269 1.387 . S
H267 C263 0.951 . S
H268 C265 0.950 . S
C269 C260 1.390 1_565 S
C269 H262 0.950 . S
C269 C266 1.387 . S
C270 C271 1.387 . S
C270 H274 0.950 . S
C270 C279 1.390 . S
C271 C270 1.387 . S
C271 C273 1.387 . S
H272 C279 0.950 . S
C273 C271 1.387 . S
C273 C275 1.390 . S
C273 H277 0.950 . S
H274 C270 0.950 . S
C275 C273 1.390 . S
C275 C276 1.387 . S
C275 H278 0.950 . S
C276 C275 1.387 . S
C276 C279 1.387 . S
H277 C273 0.950 . S
H278 C275 0.950 . S
C279 C270 1.390 . S
C279 H272 0.950 . S
C279 C276 1.387 . S
C280 C281 1.387 1_655 S
C280 H284 0.950 . S
C280 C289 1.390 . S
C281 C280 1.387 1_455 S
C281 C283 1.387 . S
H282 C289 0.950 . S
C283 C281 1.387 . S
C283 C285 1.390 . S
C283 H287 0.950 . S
H284 C280 0.950 . S
C285 C283 1.390 . S
C285 C286 1.387 1_455 S
C285 H288 0.950 . S
C286 C285 1.387 1_655 S
C286 C289 1.387 . S
H287 C283 0.950 . S
H288 C285 0.950 . S
C289 C280 1.390 . S
C289 H282 0.950 . S
C289 C286 1.387 . S
C290 C291 1.387 1_565 S
C290 H294 0.950 . S
C290 C299 1.390 . S
C291 C290 1.387 1_545 S
C291 C293 1.387 . S
H292 C299 0.950 . S
C293 C291 1.387 . S
C293 C295 1.390 . S
C293 H297 0.950 . S
H294 C290 0.950 . S
C295 C293 1.390 . S
C295 C296 1.387 1_545 S
C295 H298 0.950 . S
C296 C295 1.387 1_565 S
C296 C299 1.387 . S
H297 C293 0.950 . S
H298 C295 0.950 . S
C299 C290 1.390 . S
C299 H292 0.950 . S
C299 C296 1.387 . S
C300 C301 1.387 . S
C300 H304 0.950 . S
C300 C309 1.390 . S
C301 C300 1.387 . S
C301 C303 1.387 . S
H302 C309 0.950 . S
C303 C301 1.387 . S
C303 C305 1.390 . S
C303 H307 0.950 . S
H304 C300 0.950 . S
C305 C303 1.390 . S
C305 C306 1.387 . S
C305 H308 0.950 . S
C306 C305 1.387 . S
C306 C309 1.387 . S
H307 C303 0.950 . S
H308 C305 0.950 . S
C309 C300 1.390 . S
C309 H302 0.950 . S
C309 C306 1.387 . S
C310 C311 1.387 . S
C310 H314 0.950 . S
C310 C319 1.390 . S
C311 C310 1.387 . S
C311 C313 1.387 . S
H312 C319 0.950 . S
C313 C311 1.387 . S
C313 C315 1.390 . S
C313 H317 0.950 . S
H314 C310 0.950 . S
C315 C313 1.390 . S
C315 C316 1.387 . S
C315 H318 0.950 . S
C316 C315 1.387 . S
C316 C319 1.387 . S
H317 C313 0.950 . S
H318 C315 0.950 . S
C319 C310 1.390 . S
C319 H312 0.950 . S
C319 C316 1.387 . S
C320 C321 1.387 . S
C320 H324 0.950 . S
C320 C329 1.390 . S
C321 C320 1.387 . S
C321 C323 1.387 . S
H322 C329 0.950 . S
C323 C321 1.387 . S
C323 C325 1.390 . S
C323 H327 0.950 . S
H324 C320 0.950 . S
C325 C323 1.390 . S
C325 C326 1.387 . S
C325 H328 0.950 . S
C326 C325 1.387 . S
C326 C329 1.387 . S
H327 C323 0.950 . S
H328 C325 0.950 . S
C329 C320 1.390 . S
C329 H322 0.950 . S
C329 C326 1.387 . S
C330 C331 1.387 . S
C330 H334 0.950 . S
C330 C339 1.390 . S
C331 C330 1.387 . S
C331 C333 1.387 . S
H332 C339 0.950 . S
C333 C331 1.387 . S
C333 C335 1.390 . S
C333 H337 0.950 . S
H334 C330 0.950 . S
C335 C333 1.390 . S
C335 C336 1.387 . S
C335 H338 0.950 . S
C336 C335 1.387 . S
C336 C339 1.387 . S
H337 C333 0.950 . S
H338 C335 0.950 . S
C339 C330 1.390 . S
C339 H332 0.950 . S
C339 C336 1.387 . S
C340 C341 1.387 . S
C340 H344 0.950 . S
C340 C349 1.390 . S
C341 C340 1.387 . S
C341 C343 1.387 . S
H342 C349 0.950 . S
C343 C341 1.387 . S
C343 C345 1.390 . S
C343 H347 0.950 . S
H344 C340 0.950 . S
C345 C343 1.390 . S
C345 C346 1.387 . S
C345 H348 0.950 . S
C346 C345 1.387 . S
C346 C349 1.387 . S
H347 C343 0.950 . S
H348 C345 0.950 . S
C349 C340 1.390 . S
C349 H342 0.950 . S
C349 C346 1.387 . S
C350 C351 1.387 . S
C350 H354 0.950 . S
C350 C359 1.390 . S
C351 C350 1.387 . S
C351 C353 1.387 . S
H352 C359 0.950 . S
C353 C351 1.387 . S
C353 C355 1.390 . S
C353 H357 0.950 . S
H354 C350 0.950 . S
C355 C353 1.390 . S
C355 C356 1.387 . S
C355 H358 0.950 . S
C356 C355 1.387 . S
C356 C359 1.387 . S
H357 C353 0.950 . S
H358 C355 0.950 . S
C359 C350 1.390 . S
C359 H352 0.950 . S
C359 C356 1.387 . S
C360 C361 1.387 . S
C360 H364 0.950 . S
C360 C369 1.390 . S
C361 C360 1.387 . S
C361 C363 1.387 . S
H362 C369 0.950 . S
C363 C361 1.387 . S
C363 C365 1.390 . S
C363 H367 0.950 . S
H364 C360 0.950 . S
C365 C363 1.390 . S
C365 C366 1.387 . S
C365 H368 0.950 . S
C366 C365 1.387 . S
C366 C369 1.387 . S
H367 C363 0.950 . S
H368 C365 0.950 . S
C369 C360 1.390 . S
C369 H362 0.950 . S
C369 C366 1.387 . S
C370 C371 1.387 . S
C370 H374 0.950 . S
C370 C379 1.390 . S
C371 C370 1.387 . S
C371 C373 1.387 . S
H372 C379 0.950 . S
C373 C371 1.387 . S
C373 C375 1.390 . S
C373 H377 0.950 . S
H374 C370 0.950 . S
C375 C373 1.390 . S
C375 C376 1.387 . S
C375 H378 0.950 . S
C376 C375 1.387 . S
C376 C379 1.387 . S
H377 C373 0.950 . S
H378 C375 0.950 . S
C379 C370 1.390 . S
C379 H372 0.950 . S
C379 C376 1.387 . S
C380 C381 1.387 . S
C380 H384 0.950 . S
C380 C389 1.390 . S
C381 C380 1.387 . S
C381 C383 1.387 . S
H382 C389 0.950 . S
C383 C381 1.387 . S
C383 C385 1.390 . S
C383 H387 0.950 . S
H384 C380 0.950 . S
C385 C383 1.390 . S
C385 C386 1.387 . S
C385 H388 0.950 . S
C386 C385 1.387 . S
C386 C389 1.387 . S
H387 C383 0.950 . S
H388 C385 0.950 . S
C389 C380 1.390 . S
C389 H382 0.950 . S
C389 C386 1.387 . S
C390 C391 1.387 . S
C390 H394 0.950 . S
C390 C399 1.390 . S
C391 C390 1.387 . S
C391 C393 1.387 . S
H392 C399 0.950 . S
C393 C391 1.387 . S
C393 C395 1.390 . S
C393 H397 0.950 . S
H394 C390 0.950 . S
C395 C393 1.390 . S
C395 C396 1.387 . S
C395 H398 0.950 . S
C396 C395 1.387 . S
C396 C399 1.387 . S
H397 C393 0.950 . S
H398 C395 0.950 . S
C399 C390 1.390 . S
C399 H392 0.950 . S
C399 C396 1.387 . S
C400 C401 1.387 . S
C400 H404 0.950 . S
C400 C409 1.390 . S
C401 C400 1.387 . S
C401 C403 1.387 . S
H402 C409 0.950 . S
C403 C401 1.387 . S
C403 C405 1.390 . S
C403 H407 0.950 . S
H404 C400 0.950 . S
C405 C403 1.390 . S
C405 C406 1.387 . S
C405 H408 0.950 . S
C406 C405 1.387 . S
C406 C409 1.387 . S
H407 C403 0.950 . S
H408 C405 0.950 . S
C409 C400 1.390 . S
C409 H402 0.950 . S
C409 C406 1.387 . S
C410 C411 1.387 . S
C410 H414 0.950 . S
C410 C419 1.390 . S
C411 C410 1.387 . S
C411 C413 1.387 . S
H412 C419 0.950 . S
C413 C411 1.387 . S
C413 C415 1.390 . S
C413 H417 0.950 . S
H414 C410 0.950 . S
C415 C413 1.390 . S
C415 C416 1.387 . S
C415 H418 0.950 . S
C416 C415 1.387 . S
C416 C419 1.387 . S
H417 C413 0.950 . S
H418 C415 0.950 . S
C419 C410 1.390 . S
C419 H412 0.950 . S
C419 C416 1.387 . S
C241 C209 1.509 . S
C246 C10 1.575 . S
C251 C9 1.510 . S
C256 C50 1.573 . S
C261 C49 1.510 . S
C266 C90 1.575 . S
C271 C89 1.508 . S
C276 C130 1.574 . S
C281 C170 1.574 . S
C286 C129 1.510 . S
C291 C210 1.575 . S
C296 C169 1.511 . S
C301 C6 2.099 . S
C306 C15 2.099 . S
C311 C46 2.097 . S
C316 C55 2.097 . S
C321 C86 2.097 . S
C326 C95 2.097 . S
C331 C126 2.100 . S
C336 C135 2.100 . S
C341 C175 2.098 . S
C346 C166 2.098 . S
C351 C206 2.101 . S
C356 C215 2.101 . S
C361 C19 1.819 . S
C366 C178 1.810 . S
C371 C59 1.820 . S
C376 C218 1.811 . S
C381 C18 1.810 . S
C386 C99 1.819 . S
C391 C58 1.812 . S
C396 C139 1.820 . S
C401 C179 1.820 . S
C406 C98 1.811 . S
C411 C138 1.811 . S
C416 C219 1.820 . S
