# Generated by pormake.
# Topology lcy-a, (4)-cn, num edge types: 1
# Building blocks:
#     Node 0, Type 0, BuildingBlock: UXUYUI_clean_sbu_0, # of connection points: 4
#     Node 1, Type 0, BuildingBlock: UXUYUI_clean_sbu_0, # of connection points: 4
#     Node 2, Type 0, BuildingBlock: UXUYUI_clean_sbu_0, # of connection points: 4
#     Node 3, Type 0, BuildingBlock: UXUYUI_clean_sbu_0, # of connection points: 4
#     Node 4, Type 0, BuildingBlock: UXUYUI_clean_sbu_0, # of connection points: 4
#     Node 5, Type 0, BuildingBlock: UXUYUI_clean_sbu_0, # of connection points: 4
#     Node 6, Type 0, BuildingBlock: UXUYUI_clean_sbu_0, # of connection points: 4
#     Node 7, Type 0, BuildingBlock: UXUYUI_clean_sbu_0, # of connection points: 4
#     Node 8, Type 0, BuildingBlock: UXUYUI_clean_sbu_0, # of connection points: 4
#     Node 9, Type 0, BuildingBlock: UXUYUI_clean_sbu_0, # of connection points: 4
#     Node 10, Type 0, BuildingBlock: UXUYUI_clean_sbu_0, # of connection points: 4
#     Node 11, Type 0, BuildingBlock: UXUYUI_clean_sbu_0, # of connection points: 4
#     Node 12, Type 0, BuildingBlock: UXUYUI_clean_sbu_0, # of connection points: 4
#     Node 13, Type 0, BuildingBlock: UXUYUI_clean_sbu_0, # of connection points: 4
#     Node 14, Type 0, BuildingBlock: UXUYUI_clean_sbu_0, # of connection points: 4
#     Node 15, Type 0, BuildingBlock: UXUYUI_clean_sbu_0, # of connection points: 4
#     Node 16, Type 0, BuildingBlock: UXUYUI_clean_sbu_0, # of connection points: 4
#     Node 17, Type 0, BuildingBlock: UXUYUI_clean_sbu_0, # of connection points: 4
#     Node 18, Type 0, BuildingBlock: UXUYUI_clean_sbu_0, # of connection points: 4
#     Node 19, Type 0, BuildingBlock: UXUYUI_clean_sbu_0, # of connection points: 4
#     Node 20, Type 0, BuildingBlock: UXUYUI_clean_sbu_0, # of connection points: 4
#     Node 21, Type 0, BuildingBlock: UXUYUI_clean_sbu_0, # of connection points: 4
#     Node 22, Type 0, BuildingBlock: UXUYUI_clean_sbu_0, # of connection points: 4
#     Node 23, Type 0, BuildingBlock: UXUYUI_clean_sbu_0, # of connection points: 4
#     Edge 24, Type (0, 0), BuildingBlock: XUDNAN_clean_linker_2, # of connection points: 2
#     Edge 25, Type (0, 0), BuildingBlock: XUDNAN_clean_linker_2, # of connection points: 2
#     Edge 26, Type (0, 0), BuildingBlock: XUDNAN_clean_linker_2, # of connection points: 2
#     Edge 27, Type (0, 0), BuildingBlock: XUDNAN_clean_linker_2, # of connection points: 2
#     Edge 28, Type (0, 0), BuildingBlock: XUDNAN_clean_linker_2, # of connection points: 2
#     Edge 29, Type (0, 0), BuildingBlock: XUDNAN_clean_linker_2, # of connection points: 2
#     Edge 30, Type (0, 0), BuildingBlock: XUDNAN_clean_linker_2, # of connection points: 2
#     Edge 31, Type (0, 0), BuildingBlock: XUDNAN_clean_linker_2, # of connection points: 2
#     Edge 32, Type (0, 0), BuildingBlock: XUDNAN_clean_linker_2, # of connection points: 2
#     Edge 33, Type (0, 0), BuildingBlock: XUDNAN_clean_linker_2, # of connection points: 2
#     Edge 34, Type (0, 0), BuildingBlock: XUDNAN_clean_linker_2, # of connection points: 2
#     Edge 35, Type (0, 0), BuildingBlock: XUDNAN_clean_linker_2, # of connection points: 2
#     Edge 36, Type (0, 0), BuildingBlock: XUDNAN_clean_linker_2, # of connection points: 2
#     Edge 37, Type (0, 0), BuildingBlock: XUDNAN_clean_linker_2, # of connection points: 2
#     Edge 38, Type (0, 0), BuildingBlock: XUDNAN_clean_linker_2, # of connection points: 2
#     Edge 39, Type (0, 0), BuildingBlock: XUDNAN_clean_linker_2, # of connection points: 2
#     Edge 40, Type (0, 0), BuildingBlock: XUDNAN_clean_linker_2, # of connection points: 2
#     Edge 41, Type (0, 0), BuildingBlock: XUDNAN_clean_linker_2, # of connection points: 2
#     Edge 42, Type (0, 0), BuildingBlock: XUDNAN_clean_linker_2, # of connection points: 2
#     Edge 43, Type (0, 0), BuildingBlock: XUDNAN_clean_linker_2, # of connection points: 2
#     Edge 44, Type (0, 0), BuildingBlock: XUDNAN_clean_linker_2, # of connection points: 2
#     Edge 45, Type (0, 0), BuildingBlock: XUDNAN_clean_linker_2, # of connection points: 2
#     Edge 46, Type (0, 0), BuildingBlock: XUDNAN_clean_linker_2, # of connection points: 2
#     Edge 47, Type (0, 0), BuildingBlock: XUDNAN_clean_linker_2, # of connection points: 2
#     Edge 48, Type (0, 0), BuildingBlock: XUDNAN_clean_linker_2, # of connection points: 2
#     Edge 49, Type (0, 0), BuildingBlock: XUDNAN_clean_linker_2, # of connection points: 2
#     Edge 50, Type (0, 0), BuildingBlock: XUDNAN_clean_linker_2, # of connection points: 2
#     Edge 51, Type (0, 0), BuildingBlock: XUDNAN_clean_linker_2, # of connection points: 2
#     Edge 52, Type (0, 0), BuildingBlock: XUDNAN_clean_linker_2, # of connection points: 2
#     Edge 53, Type (0, 0), BuildingBlock: XUDNAN_clean_linker_2, # of connection points: 2
#     Edge 54, Type (0, 0), BuildingBlock: XUDNAN_clean_linker_2, # of connection points: 2
#     Edge 55, Type (0, 0), BuildingBlock: XUDNAN_clean_linker_2, # of connection points: 2
#     Edge 56, Type (0, 0), BuildingBlock: XUDNAN_clean_linker_2, # of connection points: 2
#     Edge 57, Type (0, 0), BuildingBlock: XUDNAN_clean_linker_2, # of connection points: 2
#     Edge 58, Type (0, 0), BuildingBlock: XUDNAN_clean_linker_2, # of connection points: 2
#     Edge 59, Type (0, 0), BuildingBlock: XUDNAN_clean_linker_2, # of connection points: 2
#     Edge 60, Type (0, 0), BuildingBlock: XUDNAN_clean_linker_2, # of connection points: 2
#     Edge 61, Type (0, 0), BuildingBlock: XUDNAN_clean_linker_2, # of connection points: 2
#     Edge 62, Type (0, 0), BuildingBlock: XUDNAN_clean_linker_2, # of connection points: 2
#     Edge 63, Type (0, 0), BuildingBlock: XUDNAN_clean_linker_2, # of connection points: 2
#     Edge 64, Type (0, 0), BuildingBlock: XUDNAN_clean_linker_2, # of connection points: 2
#     Edge 65, Type (0, 0), BuildingBlock: XUDNAN_clean_linker_2, # of connection points: 2
#     Edge 66, Type (0, 0), BuildingBlock: XUDNAN_clean_linker_2, # of connection points: 2
#     Edge 67, Type (0, 0), BuildingBlock: XUDNAN_clean_linker_2, # of connection points: 2
#     Edge 68, Type (0, 0), BuildingBlock: XUDNAN_clean_linker_2, # of connection points: 2
#     Edge 69, Type (0, 0), BuildingBlock: XUDNAN_clean_linker_2, # of connection points: 2
#     Edge 70, Type (0, 0), BuildingBlock: XUDNAN_clean_linker_2, # of connection points: 2
#     Edge 71, Type (0, 0), BuildingBlock: XUDNAN_clean_linker_2, # of connection points: 2
# Relax obj value: 0.522
# Max RMSD: 0.263
# Mean RMSD: 0.261
data_MOF--net-lcy-a--node1-UXUYUI_clean_sbu_0--edge1-XUDNAN_clean_linker_2
_symmetry_space_group_name_H-M    P1
_symmetry_Int_Tables_number       1
_symmetry_cell_setting            triclinic
loop_
_symmetry_equiv_pos_as_xyz
'x, y, z'
_cell_length_a     82.251606
_cell_length_b     80.586589
_cell_length_c     80.591372
_cell_angle_alpha  90.002551
_cell_angle_beta   90.029802
_cell_angle_gamma 90.006916
loop_
_atom_site_label
_atom_site_type_symbol
_atom_site_fract_x
_atom_site_fract_y
_atom_site_fract_z
_atom_type_partial_charge
Li0 Li 0.20537 0.31194 0.4073 0.0
Li1 Li 0.20919 0.28597 0.39149 0.0
Li2 Li 0.19222 0.30882 0.38062 0.0
Li3 Li 0.18274 0.29239 0.40347 0.0
C4 C 0.22299 0.32333 0.38013 0.0
N5 N 0.23655 0.35258 0.3688 0.0
C6 C 0.23769 0.32307 0.37146 0.0
C7 C 0.21517 0.33846 0.38303 0.0
C8 C 0.24436 0.338 0.36584 0.0
C9 C 0.22222 0.35311 0.3772 0.0
C10 C 0.20433 0.27402 0.42362 0.0
C11 C 0.19812 0.24481 0.42526 0.0
N12 N 0.20432 0.24441 0.4409 0.0
C13 C 0.21066 0.27332 0.4397 0.0
C14 C 0.19804 0.25965 0.41632 0.0
C15 C 0.21055 0.25822 0.44823 0.0
C16 C 0.20639 0.33686 0.43166 0.0
N17 N 0.21565 0.32678 0.42203 0.0
C18 C 0.24003 0.33851 0.43297 0.0
C19 C 0.23214 0.32729 0.42253 0.0
C20 C 0.2308 0.34928 0.44294 0.0
C21 C 0.21376 0.34831 0.44225 0.0
H22 H 0.19328 0.33602 0.43109 0.0
H23 H 0.23915 0.31908 0.41468 0.0
C24 C 0.22185 0.26009 0.37202 0.0
N25 N 0.22382 0.26861 0.38642 0.0
C26 C 0.23179 0.24652 0.36845 0.0
C27 C 0.24575 0.25096 0.39449 0.0
C28 C 0.23554 0.26445 0.39755 0.0
C29 C 0.2439 0.24175 0.37981 0.0
H30 H 0.21249 0.2638 0.36335 0.0
H31 H 0.23681 0.27148 0.4089 0.0
C32 C 0.16833 0.32564 0.39987 0.0
N33 N 0.13987 0.34343 0.39591 0.0
C34 C 0.15403 0.31756 0.39514 0.0
C35 C 0.16812 0.34274 0.40276 0.0
C36 C 0.13978 0.32677 0.39315 0.0
C37 C 0.15362 0.35152 0.40064 0.0
C38 C 0.17602 0.27672 0.37183 0.0
C39 C 0.16358 0.28568 0.3641 0.0
C40 C 0.17643 0.25944 0.37031 0.0
C41 C 0.15162 0.27717 0.35521 0.0
C42 C 0.16424 0.25139 0.36131 0.0
N43 N 0.15218 0.26035 0.35402 0.0
C44 C 0.19761 0.31434 0.34782 0.0
C45 C 0.17813 0.3333 0.35829 0.0
C46 C 0.19823 0.32281 0.33279 0.0
N47 N 0.18802 0.31993 0.36032 0.0
C48 C 0.17825 0.3421 0.34336 0.0
C49 C 0.18878 0.33716 0.33054 0.0
H50 H 0.20545 0.30376 0.34989 0.0
H51 H 0.17062 0.33758 0.36836 0.0
C52 C 0.16745 0.28301 0.43215 0.0
N53 N 0.16575 0.28189 0.41543 0.0
C54 C 0.15955 0.27176 0.44247 0.0
C55 C 0.1465 0.25997 0.41831 0.0
C56 C 0.15493 0.27126 0.40842 0.0
C57 C 0.14949 0.25952 0.43548 0.0
H58 H 0.17616 0.29162 0.43735 0.0
H59 H 0.15349 0.27077 0.39514 0.0
O60 O 0.2162 0.30878 0.38546 0.0
O61 O 0.20398 0.28881 0.41529 0.0
O62 O 0.18244 0.3169 0.40194 0.0
O63 O 0.18793 0.28479 0.38054 0.0
H64 H 0.24385 0.31144 0.36906 0.0
H65 H 0.20376 0.3389 0.38964 0.0
H66 H 0.25573 0.33798 0.35909 0.0
H67 H 0.21629 0.36489 0.37934 0.0
H68 H 0.1932 0.23363 0.41978 0.0
H69 H 0.21552 0.28435 0.44554 0.0
H70 H 0.19301 0.26001 0.40395 0.0
H71 H 0.21538 0.2575 0.4607 0.0
H72 H 0.25319 0.33898 0.43301 0.0
H73 H 0.20621 0.35623 0.4499 0.0
H74 H 0.23016 0.24 0.35682 0.0
H75 H 0.25486 0.24766 0.40363 0.0
H76 H 0.1539 0.30433 0.39305 0.0
H77 H 0.17908 0.3492 0.40646 0.0
H78 H 0.12863 0.32068 0.38943 0.0
H79 H 0.15331 0.36478 0.40275 0.0
H80 H 0.16312 0.29905 0.36495 0.0
H81 H 0.18603 0.25228 0.37605 0.0
H82 H 0.14189 0.28396 0.34924 0.0
H83 H 0.16437 0.23802 0.36011 0.0
H84 H 0.20679 0.31868 0.32347 0.0
H85 H 0.17064 0.35299 0.34209 0.0
H86 H 0.16234 0.27191 0.4556 0.0
H87 H 0.13842 0.25113 0.41244 0.0
Li88 Li 0.93184 0.94686 0.65119 0.0
Li89 Li 0.94979 0.92238 0.64946 0.0
Li90 Li 0.95596 0.94762 0.63314 0.0
Li91 Li 0.93308 0.92982 0.62584 0.0
C92 C 0.96118 0.95549 0.66859 0.0
N93 N 0.97432 0.97711 0.69156 0.0
C94 C 0.96806 0.94939 0.68323 0.0
C95 C 0.96108 0.97256 0.66558 0.0
C96 C 0.97461 0.96053 0.69471 0.0
C97 C 0.96775 0.9833 0.67736 0.0
C98 C 0.92001 0.90677 0.64783 0.0
C99 C 0.92245 0.87889 0.63722 0.0
N100 N 0.90912 0.87437 0.64612 0.0
C101 C 0.90634 0.90185 0.65687 0.0
C102 C 0.92815 0.8952 0.63792 0.0
C103 C 0.90102 0.88542 0.65585 0.0
C104 C 0.90751 0.97015 0.65779 0.0
N105 N 0.91906 0.96056 0.66509 0.0
C106 C 0.91479 0.97396 0.69117 0.0
C107 C 0.92247 0.96187 0.68155 0.0
C108 C 0.90353 0.98474 0.6837 0.0
C109 C 0.89961 0.98244 0.6669 0.0
H110 H 0.9049 0.96867 0.64473 0.0
H111 H 0.9316 0.95395 0.68707 0.0
C112 C 0.97702 0.90558 0.6582 0.0
N113 N 0.9612 0.90724 0.66268 0.0
C114 C 0.98845 0.90019 0.66973 0.0
C115 C 0.96684 0.89697 0.68985 0.0
C116 C 0.95577 0.90257 0.67791 0.0
C117 C 0.98348 0.89659 0.68597 0.0
H118 H 0.981 0.90998 0.6462 0.0
H119 H 0.94321 0.90468 0.68127 0.0
C120 C 0.93125 0.96795 0.61838 0.0
N121 N 0.92672 0.9958 0.59886 0.0
C122 C 0.92836 0.96632 0.60134 0.0
C123 C 0.93167 0.98378 0.62548 0.0
C124 C 0.92614 0.98054 0.59169 0.0
C125 C 0.92941 0.99769 0.61541 0.0
C126 C 0.96363 0.92157 0.61062 0.0
C127 C 0.96242 0.93379 0.5984 0.0
C128 C 0.972 0.90687 0.60724 0.0
C129 C 0.96955 0.93108 0.58291 0.0
C130 C 0.97898 0.90462 0.59159 0.0
N131 N 0.97762 0.91667 0.57985 0.0
C132 C 0.98753 0.95902 0.63611 0.0
C133 C 0.97312 0.97288 0.61472 0.0
C134 C 0.0009 0.96943 0.63394 0.0
N135 N 0.97386 0.96119 0.62686 0.0
C136 C 0.98632 0.98338 0.61193 0.0
C137 C 0.00027 0.98193 0.62186 0.0
H138 H 0.98784 0.94949 0.64555 0.0
H139 H 0.96225 0.97431 0.60738 0.0
C140 C 0.90425 0.92993 0.60899 0.0
N141 N 0.91951 0.92356 0.60785 0.0
C142 C 0.8945 0.93118 0.5949 0.0
C143 C 0.91591 0.91819 0.57896 0.0
C144 C 0.92512 0.91684 0.59347 0.0
C145 C 0.90071 0.92606 0.57954 0.0
H146 H 0.90024 0.93539 0.62056 0.0
H147 H 0.93716 0.9116 0.59288 0.0
O148 O 0.95476 0.94473 0.65721 0.0
O149 O 0.92531 0.92284 0.64876 0.0
O150 O 0.9333 0.95414 0.62807 0.0
O151 O 0.95685 0.92396 0.62593 0.0
H152 H 0.96833 0.9362 0.68571 0.0
H153 H 0.95602 0.97744 0.65422 0.0
H154 H 0.97995 0.95599 0.70611 0.0
H155 H 0.96775 0.99654 0.67519 0.0
H156 H 0.92862 0.86981 0.6296 0.0
H157 H 0.89992 0.91067 0.6646 0.0
H158 H 0.93874 0.89871 0.63082 0.0
H159 H 0.89046 0.88145 0.66278 0.0
H160 H 0.91816 0.97535 0.70408 0.0
H161 H 0.89076 0.9903 0.66077 0.0
H162 H 0.00119 0.90001 0.66634 0.0
H163 H 0.96267 0.89445 0.70235 0.0
H164 H 0.9279 0.95423 0.59557 0.0
H165 H 0.93364 0.98533 0.63865 0.0
H166 H 0.92395 0.97943 0.57851 0.0
H167 H 0.92975 0.01 0.62076 0.0
H168 H 0.95591 0.94514 0.60079 0.0
H169 H 0.97306 0.89729 0.61659 0.0
H170 H 0.96865 0.94042 0.57332 0.0
H171 H 0.98547 0.89329 0.58878 0.0
H172 H 0.01151 0.9679 0.64175 0.0
H173 H 0.98536 0.99299 0.60257 0.0
H174 H 0.8829 0.9375 0.59572 0.0
H175 H 0.92102 0.9141 0.56727 0.0
Li176 Li 0.2975 0.7183 0.89123 0.0
Li177 Li 0.29368 0.69108 0.90611 0.0
Li178 Li 0.31975 0.70439 0.90521 0.0
Li179 Li 0.30958 0.69184 0.88056 0.0
C180 C 0.30266 0.71941 0.93033 0.0
N181 N 0.31067 0.73154 0.96137 0.0
C182 C 0.29736 0.71119 0.94461 0.0
C183 C 0.31191 0.7339 0.93186 0.0
C184 C 0.30155 0.7175 0.96019 0.0
C185 C 0.31589 0.73979 0.94765 0.0
C186 C 0.27627 0.68582 0.87695 0.0
C187 C 0.26971 0.6571 0.87186 0.0
N188 N 0.25639 0.66192 0.8631 0.0
C189 C 0.26251 0.6905 0.86792 0.0
C190 C 0.27991 0.66899 0.87897 0.0
C191 C 0.25261 0.67822 0.86101 0.0
C192 C 0.27831 0.73852 0.87074 0.0
N193 N 0.28622 0.73797 0.88553 0.0
C194 C 0.27413 0.76358 0.89391 0.0
C195 C 0.28455 0.75026 0.89695 0.0
C196 C 0.2651 0.76408 0.87911 0.0
C197 C 0.26762 0.75152 0.86725 0.0
H198 H 0.27972 0.72843 0.86201 0.0
H199 H 0.2908 0.74942 0.90869 0.0
C200 C 0.28285 0.66579 0.92793 0.0
N201 N 0.27828 0.67891 0.91843 0.0
C202 C 0.27115 0.65662 0.93654 0.0
C203 C 0.25039 0.67475 0.92539 0.0
C204 C 0.26247 0.68361 0.91713 0.0
C205 C 0.25466 0.661 0.93517 0.0
H206 H 0.29555 0.66239 0.92871 0.0
H207 H 0.25927 0.69418 0.90953 0.0
C208 C 0.33088 0.72571 0.8785 0.0
N209 N 0.35402 0.74926 0.87061 0.0
C210 C 0.344 0.72154 0.8683 0.0
C211 C 0.32939 0.74192 0.88447 0.0
C212 C 0.35561 0.73361 0.86452 0.0
C213 C 0.34125 0.75363 0.88041 0.0
C214 C 0.32903 0.67149 0.90015 0.0
C215 C 0.34281 0.67884 0.89314 0.0
C216 C 0.32969 0.65499 0.90542 0.0
C217 C 0.35702 0.66951 0.89147 0.0
C218 C 0.34413 0.64606 0.90351 0.0
N219 N 0.35738 0.65344 0.89663 0.0
C220 C 0.33619 0.70119 0.93476 0.0
C221 C 0.35021 0.71889 0.91622 0.0
C222 C 0.34531 0.70703 0.9481 0.0
N223 N 0.3379 0.70815 0.91951 0.0
C224 C 0.36003 0.72467 0.9291 0.0
C225 C 0.35679 0.71971 0.94553 0.0
H226 H 0.32652 0.69234 0.9369 0.0
H227 H 0.35187 0.72378 0.90391 0.0
C228 C 0.30425 0.68779 0.84735 0.0
N229 N 0.31265 0.6807 0.85999 0.0
C230 C 0.30258 0.67959 0.83224 0.0
C231 C 0.31953 0.65753 0.84288 0.0
C232 C 0.32052 0.666 0.85798 0.0
C233 C 0.30996 0.66401 0.82992 0.0
H234 H 0.29798 0.69942 0.84938 0.0
H235 H 0.32698 0.66042 0.86819 0.0
O236 O 0.29888 0.71319 0.91498 0.0
O237 O 0.28619 0.69771 0.88364 0.0
O238 O 0.31938 0.71405 0.88224 0.0
O239 O 0.31498 0.68037 0.90205 0.0
H240 H 0.29018 0.69998 0.94369 0.0
H241 H 0.3163 0.74033 0.92099 0.0
H242 H 0.2976 0.71122 0.97134 0.0
H243 H 0.32322 0.75086 0.949 0.0
H244 H 0.2724 0.64404 0.87329 0.0
H245 H 0.25953 0.70347 0.86625 0.0
H246 H 0.29053 0.66514 0.8859 0.0
H247 H 0.24192 0.68165 0.85397 0.0
H248 H 0.27274 0.77308 0.90331 0.0
H249 H 0.26076 0.7512 0.85579 0.0
H250 H 0.27491 0.64604 0.94388 0.0
H251 H 0.23785 0.67866 0.9242 0.0
H252 H 0.3452 0.70909 0.86338 0.0
H253 H 0.31922 0.74541 0.89219 0.0
H254 H 0.36587 0.73053 0.85671 0.0
H255 H 0.34031 0.7662 0.88502 0.0
H256 H 0.34255 0.69158 0.88903 0.0
H257 H 0.31912 0.64913 0.91089 0.0
H258 H 0.36777 0.67504 0.88605 0.0
H259 H 0.34479 0.63326 0.9075 0.0
H260 H 0.34226 0.70264 0.96039 0.0
H261 H 0.36933 0.73374 0.92629 0.0
H262 H 0.29478 0.68505 0.8229 0.0
H263 H 0.32572 0.64575 0.84164 0.0
Li264 Li 0.56425 0.04532 0.15994 0.0
Li265 Li 0.54792 0.07079 0.15385 0.0
Li266 Li 0.53843 0.04393 0.14459 0.0
Li267 Li 0.56029 0.05698 0.13106 0.0
C268 C 0.52869 0.04829 0.17633 0.0
N269 N 0.50029 0.04185 0.19346 0.0
C270 C 0.51467 0.05754 0.17305 0.0
C271 C 0.52824 0.03571 0.18825 0.0
C272 C 0.50045 0.05412 0.18187 0.0
C273 C 0.51377 0.03265 0.19679 0.0
C274 C 0.57884 0.08086 0.15691 0.0
C275 C 0.58414 0.11029 0.15601 0.0
N276 N 0.59287 0.10902 0.17029 0.0
C277 C 0.58801 0.07981 0.17148 0.0
C278 C 0.57702 0.09619 0.14902 0.0
C279 C 0.59495 0.0942 0.17809 0.0
C280 C 0.59104 0.02642 0.17239 0.0
N281 N 0.57784 0.03579 0.17628 0.0
C282 C 0.58296 0.03248 0.20524 0.0
C283 C 0.57379 0.03907 0.19228 0.0
C284 C 0.59649 0.02248 0.20169 0.0
C285 C 0.60055 0.01951 0.185 0.0
H286 H 0.59408 0.02423 0.15951 0.0
H287 H 0.56341 0.04683 0.19497 0.0
C288 C 0.52828 0.09915 0.15957 0.0
N289 N 0.54111 0.09008 0.16512 0.0
C290 C 0.52048 0.11023 0.17023 0.0
C291 C 0.54 0.10325 0.19159 0.0
C292 C 0.54721 0.0921 0.18065 0.0
C293 C 0.52608 0.11194 0.18661 0.0
H294 H 0.52328 0.09677 0.14739 0.0
H295 H 0.55686 0.08411 0.185 0.0
C296 C 0.55512 0.01727 0.13572 0.0
N297 N 0.54564 0.98487 0.1298 0.0
C298 C 0.54577 0.01339 0.12174 0.0
C299 C 0.55965 0.00463 0.14667 0.0
C300 C 0.54108 0.99696 0.11899 0.0
C301 C 0.55475 0.98834 0.14346 0.0
C302 C 0.53622 0.07246 0.11726 0.0
C303 C 0.53083 0.06317 0.10367 0.0
C304 C 0.54051 0.08909 0.11504 0.0
C305 C 0.53004 0.07062 0.08804 0.0
C306 C 0.53956 0.09609 0.09921 0.0
N307 N 0.53441 0.08679 0.08615 0.0
C308 C 0.507 0.03535 0.13264 0.0
C309 C 0.51848 0.01609 0.1515 0.0
C310 C 0.49359 0.02503 0.13015 0.0
N311 N 0.51933 0.03049 0.14276 0.0
C312 C 0.50533 0.00539 0.14939 0.0
C313 C 0.49281 0.00964 0.13831 0.0
H314 H 0.50768 0.04715 0.12631 0.0
H315 H 0.52828 0.01267 0.15976 0.0
C316 C 0.584 0.07066 0.10912 0.0
N317 N 0.57148 0.05973 0.11052 0.0
C318 C 0.59312 0.07139 0.09449 0.0
C319 C 0.57594 0.04998 0.08293 0.0
C320 C 0.56732 0.04956 0.09777 0.0
C321 C 0.5892 0.0608 0.08124 0.0
H322 H 0.58725 0.07844 0.11951 0.0
H323 H 0.55752 0.04082 0.09923 0.0
O324 O 0.54268 0.0513 0.16766 0.0
O325 O 0.57183 0.06693 0.15034 0.0
O326 O 0.55981 0.03331 0.1387 0.0
O327 O 0.53728 0.06532 0.13264 0.0
H328 H 0.5147 0.06707 0.16361 0.0
H329 H 0.53891 0.02826 0.19077 0.0
H330 H 0.48951 0.06117 0.17945 0.0
H331 H 0.51324 0.02292 0.20602 0.0
H332 H 0.58274 0.12225 0.15008 0.0
H333 H 0.58971 0.06805 0.17768 0.0
H334 H 0.57016 0.09721 0.13763 0.0
H335 H 0.60199 0.09358 0.18941 0.0
H336 H 0.57931 0.03497 0.21791 0.0
H337 H 0.61101 0.01204 0.18173 0.0
H338 H 0.50964 0.11663 0.16608 0.0
H339 H 0.5444 0.10394 0.20424 0.0
H340 H 0.54173 0.02299 0.11337 0.0
H341 H 0.56672 0.00735 0.15763 0.0
H342 H 0.53371 0.99383 0.10831 0.0
H343 H 0.55814 0.97846 0.15186 0.0
H344 H 0.52757 0.05025 0.10509 0.0
H345 H 0.54452 0.09653 0.12542 0.0
H346 H 0.52604 0.06353 0.0774 0.0
H347 H 0.54291 0.10894 0.09732 0.0
H348 H 0.48404 0.02894 0.12175 0.0
H349 H 0.50534 0.9936 0.15584 0.0
H350 H 0.60331 0.07986 0.09368 0.0
H351 H 0.57271 0.04132 0.07318 0.0
Li352 Li 0.68846 0.19078 0.6199 0.0
Li353 Li 0.6779 0.20313 0.59414 0.0
Li354 Li 0.70106 0.18523 0.59399 0.0
Li355 Li 0.70399 0.21198 0.6062 0.0
C356 C 0.66327 0.17386 0.60377 0.0
N357 N 0.63222 0.16294 0.61101 0.0
C358 C 0.65269 0.18388 0.61294 0.0
C359 C 0.65803 0.15832 0.59824 0.0
C360 C 0.63705 0.17812 0.61648 0.0
C361 C 0.6423 0.15301 0.60204 0.0
C362 C 0.68149 0.23051 0.62057 0.0
C363 C 0.68344 0.25946 0.61317 0.0
N364 N 0.68216 0.26364 0.62947 0.0
C365 C 0.68005 0.2351 0.63723 0.0
C366 C 0.68305 0.24279 0.60843 0.0
C367 C 0.68047 0.25191 0.64148 0.0
C368 C 0.68939 0.19069 0.6543 0.0
N369 N 0.68421 0.18162 0.64112 0.0
C370 C 0.67873 0.15836 0.65863 0.0
C371 C 0.67873 0.1658 0.64298 0.0
C372 C 0.68433 0.16737 0.6724 0.0
C373 C 0.68933 0.18386 0.67018 0.0
H374 H 0.69449 0.20288 0.65232 0.0
H375 H 0.67528 0.1586 0.63224 0.0
C376 C 0.65779 0.20024 0.56695 0.0
N377 N 0.66037 0.20967 0.58066 0.0
C378 C 0.64917 0.20671 0.55353 0.0
C379 C 0.64476 0.23182 0.56934 0.0
C380 C 0.65329 0.22476 0.58251 0.0
C381 C 0.64337 0.2231 0.55426 0.0
H382 H 0.6636 0.18824 0.56589 0.0
H383 H 0.6553 0.23187 0.59367 0.0
C384 C 0.71901 0.17705 0.6221 0.0
N385 N 0.73246 0.14947 0.63716 0.0
C386 C 0.7326 0.17872 0.63236 0.0
C387 C 0.71225 0.16134 0.61949 0.0
C388 C 0.73923 0.16463 0.63986 0.0
C389 C 0.71922 0.14756 0.62722 0.0
C390 C 0.70853 0.20565 0.56951 0.0
C391 C 0.7254 0.2071 0.57114 0.0
C392 C 0.7018 0.20215 0.55397 0.0
C393 C 0.73525 0.20493 0.55719 0.0
C394 C 0.71207 0.20001 0.54034 0.0
N395 N 0.72844 0.20143 0.54222 0.0
C396 C 0.70165 0.16189 0.56857 0.0
C397 C 0.72772 0.16796 0.57959 0.0
C398 C 0.70857 0.15266 0.55576 0.0
N399 N 0.71129 0.16958 0.57989 0.0
C400 C 0.73517 0.15894 0.56692 0.0
C401 C 0.72557 0.15148 0.55454 0.0
H402 H 0.68862 0.1636 0.56906 0.0
H403 H 0.73508 0.17448 0.58861 0.0
C404 C 0.72605 0.23208 0.62402 0.0
N405 N 0.71827 0.23027 0.60926 0.0
C406 C 0.73725 0.24492 0.62622 0.0
C407 C 0.73189 0.25395 0.59812 0.0
C408 C 0.72077 0.24099 0.59649 0.0
C409 C 0.74047 0.25589 0.61306 0.0
H410 H 0.72376 0.22334 0.63394 0.0
H411 H 0.71426 0.23937 0.58495 0.0
O412 O 0.67868 0.1791 0.6001 0.0
O413 O 0.68138 0.21409 0.61616 0.0
O414 O 0.71218 0.19086 0.61507 0.0
O415 O 0.69871 0.20733 0.58312 0.0
H416 H 0.65645 0.19595 0.61734 0.0
H417 H 0.66607 0.15043 0.59112 0.0
H418 H 0.62875 0.18573 0.62359 0.0
H419 H 0.6381 0.14099 0.59786 0.0
H420 H 0.6848 0.26907 0.6039 0.0
H421 H 0.67847 0.22584 0.64678 0.0
H422 H 0.68421 0.23947 0.59547 0.0
H423 H 0.6794 0.25563 0.65433 0.0
H424 H 0.67501 0.14552 0.65987 0.0
H425 H 0.69418 0.19102 0.68043 0.0
H426 H 0.64801 0.19937 0.54234 0.0
H427 H 0.64054 0.24449 0.57057 0.0
H428 H 0.73792 0.19082 0.63458 0.0
H429 H 0.70165 0.15978 0.61171 0.0
H430 H 0.74974 0.16575 0.64786 0.0
H431 H 0.71408 0.13534 0.62535 0.0
H432 H 0.73086 0.20951 0.58311 0.0
H433 H 0.6888 0.20097 0.55245 0.0
H434 H 0.74833 0.20589 0.55831 0.0
H435 H 0.70702 0.19719 0.52826 0.0
H436 H 0.70069 0.14689 0.54667 0.0
H437 H 0.74832 0.15857 0.56637 0.0
H438 H 0.74375 0.24586 0.63788 0.0
H439 H 0.73389 0.26225 0.58775 0.0
Li440 Li 0.04362 0.45184 0.8584 0.0
Li441 Li 0.06573 0.43496 0.86813 0.0
Li442 Li 0.06664 0.44742 0.84005 0.0
Li443 Li 0.04743 0.42451 0.84708 0.0
C444 C 0.06944 0.47496 0.86555 0.0
N445 N 0.07557 0.50783 0.87324 0.0
C446 C 0.0721 0.47975 0.88202 0.0
C447 C 0.07002 0.48693 0.853 0.0
C448 C 0.07512 0.49642 0.88565 0.0
C449 C 0.07312 0.50347 0.85713 0.0
C450 C 0.03705 0.43179 0.88621 0.0
C451 C 0.0241 0.42028 0.91047 0.0
N452 N 0.02771 0.43434 0.91905 0.0
C453 C 0.04056 0.44614 0.89526 0.0
C454 C 0.0287 0.41876 0.89385 0.0
C455 C 0.03577 0.44719 0.91184 0.0
C456 C 0.01127 0.45918 0.86492 0.0
N457 N 0.02616 0.46647 0.86417 0.0
C458 C 0.0146 0.49284 0.87068 0.0
C459 C 0.02804 0.48298 0.86699 0.0
C460 C -0.00099 0.48572 0.87131 0.0
C461 C 0.99745 0.46862 0.86839 0.0
H462 H 0.01011 0.44602 0.8626 0.0
H463 H 0.03986 0.48862 0.86639 0.0
C464 C 0.09025 0.44107 0.89112 0.0
N465 N 0.07808 0.43029 0.88747 0.0
C466 C 0.09632 0.44204 0.90725 0.0
C467 C 0.07852 0.41946 0.91502 0.0
C468 C 0.0728 0.41894 0.89872 0.0
C469 C 0.08979 0.43173 0.91965 0.0
H470 H 0.09423 0.44992 0.88189 0.0
H471 H 0.06322 0.41038 0.89545 0.0
C472 C 0.03076 0.45398 0.82826 0.0
N473 N 0.00486 0.47209 0.81601 0.0
C474 C 0.01571 0.44634 0.82566 0.0
C475 C 0.03269 0.47077 0.8244 0.0
C476 C 0.00276 0.45572 0.81951 0.0
C477 C 0.01943 0.47973 0.8183 0.0
C478 C 0.07717 0.40799 0.85021 0.0
C479 C 0.09185 0.40222 0.84368 0.0
C480 C 0.06785 0.39761 0.86033 0.0
C481 C 0.09699 0.38612 0.84742 0.0
C482 C 0.07341 0.3816 0.86379 0.0
N483 N 0.08774 0.37623 0.85732 0.0
C484 C 0.09332 0.46508 0.82609 0.0
C485 C 0.07158 0.45852 0.80789 0.0
C486 C 0.10026 0.47547 0.81414 0.0
N487 N 0.07895 0.45736 0.82292 0.0
C488 C 0.07804 0.46877 0.79564 0.0
C489 C 0.09223 0.47786 0.79893 0.0
H490 H 0.09879 0.46404 0.83826 0.0
H491 H 0.06019 0.45218 0.80572 0.0
C492 C 0.02078 0.40388 0.84546 0.0
N493 N 0.03534 0.4069 0.83815 0.0
C494 C 0.00906 0.39451 0.83724 0.0
C495 C 0.02807 0.39046 0.8147 0.0
C496 C 0.0394 0.40008 0.82332 0.0
C497 C 0.0124 0.38818 0.82135 0.0
H498 H 0.01777 0.40993 0.85703 0.0
H499 H 0.05101 0.40299 0.81772 0.0
O500 O 0.06667 0.45861 0.86175 0.0
O501 O 0.04199 0.43028 0.87007 0.0
O502 O 0.0435 0.44509 0.83464 0.0
O503 O 0.07206 0.42376 0.84667 0.0
H504 H 0.07182 0.47074 0.89196 0.0
H505 H 0.06797 0.48359 0.84022 0.0
H506 H 0.07715 0.50027 0.89834 0.0
H507 H 0.07353 0.51283 0.84753 0.0
H508 H 0.01769 0.41026 0.91655 0.0
H509 H 0.04693 0.45633 0.88954 0.0
H510 H 0.02598 0.4075 0.88707 0.0
H511 H 0.03847 0.45821 0.91899 0.0
H512 H 0.01649 0.5059 0.87322 0.0
H513 H 0.98569 0.46259 0.86859 0.0
H514 H 0.10493 0.45176 0.91023 0.0
H515 H 0.07339 0.41109 0.92414 0.0
H516 H 0.01399 0.43336 0.82847 0.0
H517 H 0.04424 0.47687 0.82622 0.0
H518 H 0.99102 0.44999 0.81755 0.0
H519 H 0.02073 0.49277 0.81539 0.0
H520 H 0.09921 0.41011 0.83583 0.0
H521 H 0.05645 0.40181 0.8655 0.0
H522 H 0.10834 0.38149 0.84247 0.0
H523 H 0.06632 0.37344 0.87162 0.0
H524 H 0.11117 0.48235 0.81717 0.0
H525 H 0.07164 0.47008 0.78396 0.0
H526 H 0.99712 0.39339 0.84277 0.0
H527 H 0.03126 0.38559 0.80262 0.0
Li528 Li 0.81631 0.79265 0.0937 0.0
Li529 Li 0.80584 0.80961 0.11577 0.0
Li530 Li 0.78952 0.78631 0.10493 0.0
Li531 Li 0.79363 0.81186 0.08854 0.0
C532 C 0.82216 0.77798 0.12591 0.0
N533 N 0.84568 0.76242 0.14485 0.0
C534 C 0.83432 0.7873 0.13367 0.0
C535 C 0.82186 0.76074 0.12796 0.0
C536 C 0.84613 0.7792 0.14315 0.0
C537 C 0.83389 0.75311 0.13753 0.0
C538 C 0.83009 0.82635 0.09708 0.0
C539 C 0.84412 0.85263 0.09654 0.0
N540 N 0.85792 0.84497 0.10181 0.0
C541 C 0.84445 0.81871 0.10233 0.0
C542 C 0.82993 0.84342 0.09402 0.0
C543 C 0.85838 0.82835 0.10471 0.0
C544 C 0.83273 0.78293 0.06579 0.0
N545 N 0.8338 0.78207 0.08258 0.0
C546 C 0.85341 0.76035 0.08077 0.0
C547 C 0.84446 0.77165 0.09016 0.0
C548 C 0.85115 0.75969 0.06349 0.0
C549 C 0.84122 0.7717 0.05594 0.0
H550 H 0.82412 0.79136 0.06013 0.0
H551 H 0.84537 0.77134 0.10349 0.0
C552 C 0.79886 0.81585 0.14804 0.0
N553 N 0.80919 0.82112 0.13603 0.0
C554 C 0.79788 0.82425 0.16308 0.0
C555 C 0.81895 0.84287 0.15356 0.0
C556 C 0.81939 0.83417 0.13856 0.0
C557 C 0.8078 0.83817 0.16592 0.0
H558 H 0.79082 0.8055 0.14558 0.0
H559 H 0.82753 0.83817 0.12888 0.0
C560 C 0.79554 0.77347 0.07337 0.0
N561 N 0.79629 0.74335 0.05702 0.0
C562 C 0.78967 0.77222 0.05715 0.0
C563 C 0.80175 0.75941 0.08129 0.0
C564 C 0.79015 0.75687 0.04909 0.0
C565 C 0.80205 0.7443 0.07281 0.0
C566 C 0.77488 0.82375 0.11472 0.0
C567 C 0.75981 0.82348 0.12271 0.0
C568 C 0.78262 0.83892 0.11181 0.0
C569 C 0.75271 0.83844 0.12765 0.0
C570 C 0.77513 0.85359 0.11694 0.0
N571 N 0.76046 0.85306 0.12469 0.0
C572 C 0.77662 0.76122 0.12503 0.0
C573 C 0.76342 0.76434 0.09904 0.0
C574 C 0.76659 0.74786 0.12906 0.0
N575 N 0.77493 0.76903 0.1102 0.0
C576 C 0.75309 0.75106 0.10257 0.0
C577 C 0.75466 0.7426 0.11773 0.0
H578 H 0.78578 0.76537 0.13371 0.0
H579 H 0.76237 0.77083 0.08734 0.0
C580 C 0.79348 0.83535 0.06284 0.0
N581 N 0.78384 0.82613 0.07293 0.0
C582 C 0.78656 0.84627 0.05141 0.0
C583 C 0.75992 0.8378 0.0609 0.0
C584 C 0.76737 0.82704 0.07213 0.0
C585 C 0.76955 0.84766 0.05038 0.0
H586 H 0.80656 0.83422 0.0637 0.0
H587 H 0.76004 0.8195 0.08034 0.0
O588 O 0.81042 0.78565 0.11663 0.0
O589 O 0.81631 0.81719 0.09461 0.0
O590 O 0.79549 0.78851 0.08126 0.0
O591 O 0.78207 0.80918 0.11004 0.0
H592 H 0.83469 0.80063 0.13241 0.0
H593 H 0.81249 0.75331 0.12219 0.0
H594 H 0.85564 0.78626 0.14916 0.0
H595 H 0.83385 0.73978 0.13915 0.0
H596 H 0.84415 0.86587 0.09431 0.0
H597 H 0.84487 0.8055 0.10453 0.0
H598 H 0.81895 0.84952 0.08983 0.0
H599 H 0.86956 0.82261 0.10884 0.0
H600 H 0.86133 0.75165 0.08706 0.0
H601 H 0.83898 0.77166 0.0427 0.0
H602 H 0.78882 0.82032 0.17199 0.0
H603 H 0.82695 0.8534 0.15528 0.0
H604 H 0.78488 0.78302 0.05083 0.0
H605 H 0.80642 0.76019 0.09379 0.0
H606 H 0.78568 0.75572 0.03652 0.0
H607 H 0.80691 0.73334 0.07877 0.0
H608 H 0.7537 0.81183 0.12511 0.0
H609 H 0.79431 0.83935 0.10572 0.0
H610 H 0.74105 0.83842 0.13386 0.0
H611 H 0.781 0.86541 0.11479 0.0
H612 H 0.76799 0.7419 0.14102 0.0
H613 H 0.74409 0.74735 0.09348 0.0
H614 H 0.79443 0.85345 0.04338 0.0
H615 H 0.74678 0.83863 0.06068 0.0
Li616 Li 0.43576 0.5577 0.36898 0.0
Li617 Li 0.4579 0.54292 0.35677 0.0
Li618 Li 0.45014 0.5695 0.34564 0.0
Li619 Li 0.43262 0.54447 0.34098 0.0
C620 C 0.46223 0.57836 0.37731 0.0
N621 N 0.46844 0.60606 0.39648 0.0
C622 C 0.47486 0.57816 0.38892 0.0
C623 C 0.45285 0.59266 0.37537 0.0
C624 C 0.47778 0.59228 0.39853 0.0
C625 C 0.45615 0.60654 0.38519 0.0
C626 C 0.43609 0.5243 0.37702 0.0
C627 C 0.42373 0.50328 0.39417 0.0
N628 N 0.43512 0.50612 0.40607 0.0
C629 C 0.44768 0.52702 0.38942 0.0
C630 C 0.42401 0.51235 0.3794 0.0
C631 C 0.44699 0.5177 0.40402 0.0
C632 C 0.40838 0.56161 0.39004 0.0
N633 N 0.42489 0.56171 0.3894 0.0
C634 C 0.42659 0.56342 0.41892 0.0
C635 C 0.43401 0.5628 0.40343 0.0
C636 C 0.40958 0.56274 0.42007 0.0
C637 C 0.4004 0.56214 0.40535 0.0
H638 H 0.40143 0.56049 0.37869 0.0
H639 H 0.44709 0.56227 0.4027 0.0
C640 C 0.49094 0.53601 0.36265 0.0
N641 N 0.47606 0.52898 0.36064 0.0
C642 C 0.50445 0.52612 0.36612 0.0
C643 C 0.48701 0.50198 0.36527 0.0
C644 C 0.47392 0.5123 0.36154 0.0
C645 C 0.50256 0.50885 0.36778 0.0
H646 H 0.49226 0.54934 0.36166 0.0
H647 H 0.46196 0.50705 0.3597 0.0
C648 C 0.41598 0.5794 0.34331 0.0
N649 N 0.39524 0.60418 0.33262 0.0
C650 C 0.41014 0.57937 0.32702 0.0
C651 C 0.41092 0.59181 0.35429 0.0
C652 C 0.39978 0.59208 0.32181 0.0
C653 C 0.40053 0.60429 0.34861 0.0
C654 C 0.46704 0.54079 0.32563 0.0
C655 C 0.48188 0.54868 0.32265 0.0
C656 C 0.465 0.52416 0.32117 0.0
C657 C 0.49452 0.53973 0.31531 0.0
C658 C 0.47794 0.51564 0.31386 0.0
N659 N 0.49231 0.52353 0.31111 0.0
C660 C 0.47306 0.5946 0.33861 0.0
C661 C 0.4516 0.59168 0.31917 0.0
C662 C 0.48141 0.60512 0.32784 0.0
N663 N 0.45856 0.58793 0.33398 0.0
C664 C 0.4595 0.60217 0.30805 0.0
C665 C 0.47487 0.60855 0.31211 0.0
H666 H 0.47872 0.59085 0.3501 0.0
H667 H 0.44055 0.58553 0.31543 0.0
C668 C 0.40872 0.52183 0.32836 0.0
N669 N 0.42012 0.53347 0.32469 0.0
C670 C 0.40183 0.51228 0.31567 0.0
C671 C 0.41827 0.52726 0.2958 0.0
C672 C 0.4247 0.53657 0.30879 0.0
C673 C 0.40697 0.51468 0.2992 0.0
H674 H 0.40547 0.51952 0.34116 0.0
H675 H 0.43386 0.54587 0.30629 0.0
O676 O 0.45917 0.56454 0.36797 0.0
O677 O 0.43635 0.53345 0.36272 0.0
O678 O 0.42591 0.56689 0.3487 0.0
O679 O 0.45465 0.54921 0.33315 0.0
H680 H 0.48225 0.56716 0.39055 0.0
H681 H 0.44329 0.5931 0.36622 0.0
H682 H 0.48747 0.59229 0.40761 0.0
H683 H 0.44898 0.6177 0.38379 0.0
H684 H 0.41443 0.494 0.39618 0.0
H685 H 0.45706 0.53629 0.38786 0.0
H686 H 0.41491 0.51014 0.36994 0.0
H687 H 0.45586 0.51969 0.41373 0.0
H688 H 0.43417 0.56343 0.42992 0.0
H689 H 0.38725 0.56158 0.40571 0.0
H690 H 0.51621 0.53198 0.36762 0.0
H691 H 0.48479 0.48882 0.36669 0.0
H692 H 0.41367 0.5697 0.31845 0.0
H693 H 0.41485 0.59174 0.3671 0.0
H694 H 0.39531 0.59229 0.30919 0.0
H695 H 0.39659 0.61401 0.35695 0.0
H696 H 0.48366 0.56153 0.32609 0.0
H697 H 0.45361 0.51785 0.32352 0.0
H698 H 0.5061 0.54565 0.31298 0.0
H699 H 0.47657 0.50274 0.31043 0.0
H700 H 0.49325 0.60979 0.33142 0.0
H701 H 0.45421 0.60418 0.2959 0.0
H702 H 0.39321 0.50261 0.31876 0.0
H703 H 0.4224 0.52959 0.28325 0.0
Li704 Li 0.38964 0.19818 0.28524 0.0
Li705 Li 0.40616 0.19814 0.31115 0.0
Li706 Li 0.40483 0.17391 0.29471 0.0
Li707 Li 0.38171 0.18157 0.3111 0.0
C708 C 0.42705 0.19355 0.27955 0.0
N709 N 0.45534 0.18738 0.26219 0.0
C710 C 0.44192 0.19283 0.2879 0.0
C711 C 0.42656 0.19131 0.26236 0.0
C712 C 0.4561 0.18966 0.2789 0.0
C713 C 0.441 0.18814 0.25382 0.0
C714 C 0.38295 0.22025 0.31673 0.0
C715 C 0.38261 0.23444 0.34307 0.0
N716 N 0.38357 0.24923 0.33501 0.0
C717 C 0.38383 0.23559 0.30869 0.0
C718 C 0.38224 0.21964 0.33405 0.0
C719 C 0.38416 0.25011 0.31816 0.0
C720 C 0.36753 0.21004 0.26087 0.0
N721 N 0.3828 0.2113 0.26719 0.0
C722 C 0.3897 0.23222 0.24746 0.0
C723 C 0.39383 0.22211 0.26084 0.0
C724 C 0.37403 0.23122 0.2406 0.0
C725 C 0.36288 0.2199 0.24743 0.0
H726 H 0.35899 0.20139 0.2663 0.0
H727 H 0.40584 0.22291 0.26624 0.0
C728 C 0.4242 0.20914 0.33934 0.0
N729 N 0.41944 0.21266 0.32358 0.0
C730 C 0.43327 0.22072 0.34836 0.0
C731 C 0.43233 0.23914 0.32466 0.0
C732 C 0.42354 0.22714 0.31605 0.0
C733 C 0.43718 0.23603 0.34106 0.0
H734 H 0.42071 0.19749 0.34498 0.0
H735 H 0.41964 0.22949 0.30345 0.0
C736 C 0.37566 0.16431 0.2757 0.0
N737 N 0.36235 0.14325 0.25226 0.0
C738 C 0.36719 0.1501 0.28067 0.0
C739 C 0.37709 0.16794 0.2588 0.0
C740 C 0.36063 0.13958 0.26864 0.0
C741 C 0.37036 0.1571 0.24714 0.0
C742 C 0.40241 0.15976 0.32654 0.0
C743 C 0.39623 0.14649 0.31735 0.0
C744 C 0.40712 0.15725 0.34301 0.0
C745 C 0.39484 0.1309 0.32478 0.0
C746 C 0.40554 0.14147 0.35002 0.0
N747 N 0.39948 0.12873 0.34084 0.0
C748 C 0.43239 0.15346 0.29465 0.0
C749 C 0.41709 0.15269 0.26976 0.0
C750 C 0.44566 0.14614 0.28671 0.0
N751 N 0.41874 0.1572 0.2859 0.0
C752 C 0.43001 0.14542 0.26133 0.0
C753 C 0.44482 0.14281 0.26961 0.0
H754 H 0.43354 0.15754 0.30738 0.0
H755 H 0.40646 0.15628 0.26289 0.0
C756 C 0.34889 0.17449 0.31507 0.0
N757 N 0.36315 0.17577 0.32348 0.0
C758 C 0.33419 0.17427 0.32366 0.0
C759 C 0.3492 0.17593 0.34943 0.0
C760 C 0.36365 0.17596 0.34033 0.0
C761 C 0.33423 0.1757 0.34103 0.0
H762 H 0.34889 0.17483 0.30166 0.0
H763 H 0.37518 0.1773 0.34665 0.0
O764 O 0.41301 0.19637 0.28818 0.0
O765 O 0.38308 0.2059 0.3077 0.0
O766 O 0.38173 0.17505 0.28732 0.0
O767 O 0.40371 0.17523 0.31964 0.0
H768 H 0.44248 0.19453 0.30122 0.0
H769 H 0.41511 0.19175 0.25574 0.0
H770 H 0.46769 0.18893 0.2852 0.0
H771 H 0.4408 0.18622 0.24053 0.0
H772 H 0.38221 0.23415 0.35648 0.0
H773 H 0.38442 0.23625 0.29529 0.0
H774 H 0.38168 0.20786 0.34045 0.0
H775 H 0.38493 0.26207 0.31212 0.0
H776 H 0.39869 0.2407 0.24251 0.0
H777 H 0.35059 0.21894 0.24268 0.0
H778 H 0.43676 0.21796 0.36103 0.0
H779 H 0.43528 0.25075 0.31859 0.0
H780 H 0.36559 0.14728 0.2937 0.0
H781 H 0.38359 0.17886 0.2547 0.0
H782 H 0.3541 0.12852 0.27232 0.0
H783 H 0.37152 0.15969 0.23402 0.0
H784 H 0.39265 0.14815 0.30459 0.0
H785 H 0.41188 0.16741 0.35033 0.0
H786 H 0.3901 0.12052 0.31778 0.0
H787 H 0.40911 0.13937 0.36277 0.0
H788 H 0.45677 0.14411 0.29363 0.0
H789 H 0.42883 0.14336 0.24811 0.0
H790 H 0.32293 0.17439 0.3167 0.0
H791 H 0.34971 0.17705 0.36282 0.0
Li792 Li 0.04698 0.1592 0.56727 0.0
Li793 Li 0.04298 0.14572 0.54085 0.0
Li794 Li 0.05786 0.13211 0.56292 0.0
Li795 Li 0.06942 0.15513 0.54871 0.0
C796 C 0.02726 0.1328 0.57676 0.0
N797 N 0.01259 0.12049 0.60503 0.0
C798 C 0.01223 0.12479 0.5757 0.0
C799 C 0.03485 0.13453 0.59219 0.0
C800 C 0.005 0.11866 0.59014 0.0
C801 C 0.02724 0.12822 0.60634 0.0
C802 C 0.03718 0.17959 0.5418 0.0
C803 C 0.02726 0.20619 0.53248 0.0
N804 N 0.01177 0.20117 0.53554 0.0
C805 C 0.02113 0.17469 0.54479 0.0
C806 C 0.04026 0.19546 0.53554 0.0
C807 C 0.00846 0.18578 0.54158 0.0
C808 C 0.04738 0.18633 0.58898 0.0
N809 N 0.03759 0.17443 0.58243 0.0
C810 C 0.01429 0.18641 0.59537 0.0
C811 C 0.02135 0.17415 0.58554 0.0
C812 C 0.02403 0.19906 0.60206 0.0
C813 C 0.04083 0.19881 0.59896 0.0
H814 H 0.06023 0.18632 0.5861 0.0
H815 H 0.01378 0.16466 0.58006 0.0
C816 C 0.01945 0.12826 0.52267 0.0
N817 N 0.02856 0.14232 0.52273 0.0
C818 C 0.00815 0.12552 0.51004 0.0
C819 C 0.01602 0.15166 0.49767 0.0
C820 C 0.02729 0.1538 0.51041 0.0
C821 C 0.00618 0.13745 0.49749 0.0
H822 H 0.02079 0.11934 0.53261 0.0
H823 H 0.03484 0.16477 0.5106 0.0
C824 C 0.08458 0.1472 0.57806 0.0
N825 N 0.11563 0.13873 0.58804 0.0
C826 C 0.09349 0.13542 0.56915 0.0
C827 C 0.09147 0.15468 0.59203 0.0
C828 C 0.10916 0.13131 0.5744 0.0
C829 C 0.10718 0.15023 0.59689 0.0
C830 C 0.06802 0.13201 0.52279 0.0
C831 C 0.07322 0.11681 0.51634 0.0
C832 C 0.06737 0.14594 0.51247 0.0
C833 C 0.0777 0.11581 0.49965 0.0
C834 C 0.07197 0.14443 0.49586 0.0
N835 N 0.07699 0.12953 0.48984 0.0
C836 C 0.05123 0.09906 0.56523 0.0
C837 C 0.06868 0.10775 0.58696 0.0
C838 C 0.0497 0.0834 0.57234 0.0
N839 N 0.06037 0.1109 0.57272 0.0
C840 C 0.06783 0.09207 0.5943 0.0
C841 C 0.05789 0.07972 0.58723 0.0
H842 H 0.04446 0.1021 0.55412 0.0
H843 H 0.07546 0.1175 0.59301 0.0
C844 C 0.08718 0.18197 0.53847 0.0
N845 N 0.08815 0.16523 0.53985 0.0
C846 C 0.0979 0.19048 0.5282 0.0
C847 C 0.11157 0.16453 0.52243 0.0
C848 C 0.10037 0.15647 0.53264 0.0
C849 C 0.10991 0.18165 0.51946 0.0
H850 H 0.07734 0.18854 0.54443 0.0
H851 H 0.10077 0.14312 0.53384 0.0
O852 O 0.03456 0.13858 0.56265 0.0
O853 O 0.04986 0.16898 0.54485 0.0
O854 O 0.06925 0.15163 0.57315 0.0
O855 O 0.06366 0.13309 0.53914 0.0
H856 H 0.00624 0.1233 0.56383 0.0
H857 H 0.04652 0.14062 0.59326 0.0
H858 H 0.99337 0.11243 0.58951 0.0
H859 H 0.03298 0.12946 0.61835 0.0
H860 H 0.02949 0.2185 0.52764 0.0
H861 H 0.01841 0.16245 0.54947 0.0
H862 H 0.05257 0.19946 0.53301 0.0
H863 H 0.99601 0.18214 0.54386 0.0
H864 H 0.00131 0.18603 0.59764 0.0
H865 H 0.04873 0.20843 0.60377 0.0
H866 H 0.00065 0.11447 0.51039 0.0
H867 H 0.01491 0.16106 0.48813 0.0
H868 H 0.08835 0.12939 0.55839 0.0
H869 H 0.08473 0.16385 0.59904 0.0
H870 H 0.11618 0.12219 0.56764 0.0
H871 H 0.11266 0.15592 0.60769 0.0
H872 H 0.07379 0.10591 0.52418 0.0
H873 H 0.06346 0.15782 0.51723 0.0
H874 H 0.08175 0.10412 0.4945 0.0
H875 H 0.07157 0.15513 0.48776 0.0
H876 H 0.04149 0.07463 0.56658 0.0
H877 H 0.07454 0.08985 0.60565 0.0
H878 H 0.09594 0.20361 0.52625 0.0
H879 H 0.12083 0.15727 0.51625 0.0
Li880 Li 0.09506 0.82357 0.79476 0.0
Li881 Li 0.11773 0.8133 0.81035 0.0
Li882 Li 0.10724 0.79741 0.786 0.0
Li883 Li 0.09128 0.79992 0.8126 0.0
C884 C 0.12632 0.82861 0.77597 0.0
N885 N 0.14462 0.84717 0.75402 0.0
C886 C 0.1379 0.83984 0.7819 0.0
C887 C 0.12417 0.82669 0.75887 0.0
C888 C 0.14699 0.84914 0.7706 0.0
C889 C 0.1335 0.83622 0.74798 0.0
C890 C 0.09964 0.83816 0.82608 0.0
C891 C 0.09704 0.85742 0.84883 0.0
N892 N 0.10506 0.86909 0.83979 0.0
C893 C 0.1078 0.85035 0.817 0.0
C894 C 0.09416 0.84171 0.8421 0.0
C895 C 0.11044 0.86591 0.82415 0.0
C896 C 0.06821 0.84443 0.79216 0.0
N897 N 0.08351 0.84215 0.7862 0.0
C898 C 0.07902 0.86216 0.76489 0.0
C899 C 0.08923 0.85118 0.77322 0.0
C900 C 0.06276 0.86372 0.76993 0.0
C901 C 0.05748 0.85509 0.78404 0.0
H902 H 0.06404 0.83711 0.80258 0.0
H903 H 0.10142 0.8493 0.76876 0.0
C904 C 0.15022 0.80807 0.81481 0.0
N905 N 0.13779 0.81701 0.82135 0.0
C906 C 0.1652 0.80742 0.82283 0.0
C907 C 0.15466 0.82604 0.84374 0.0
C908 C 0.13974 0.8261 0.83542 0.0
C909 C 0.16754 0.81624 0.8377 0.0
H910 H 0.1482 0.80079 0.80372 0.0
H911 H 0.12964 0.83292 0.84056 0.0
C912 C 0.07155 0.80618 0.77902 0.0
N913 N 0.04645 0.81567 0.75831 0.0
C914 C 0.05556 0.80633 0.78487 0.0
C915 C 0.07476 0.81062 0.76258 0.0
C916 C 0.04304 0.81121 0.77421 0.0
C917 C 0.06191 0.81547 0.75233 0.0
C918 C 0.11889 0.78121 0.82243 0.0
C919 C 0.12881 0.76726 0.82064 0.0
C920 C 0.11562 0.78745 0.83827 0.0
C921 C 0.13525 0.75969 0.83479 0.0
C922 C 0.1223 0.77953 0.85211 0.0
N923 N 0.13189 0.76593 0.85009 0.0
C924 C 0.12762 0.78425 0.76119 0.0
C925 C 0.10088 0.77324 0.76189 0.0
C926 C 0.13148 0.77434 0.74754 0.0
N927 N 0.11251 0.78357 0.76795 0.0
C928 C 0.10427 0.76297 0.74839 0.0
C929 C 0.11973 0.7635 0.74104 0.0
H930 H 0.13665 0.7925 0.7664 0.0
H931 H 0.08897 0.77299 0.76758 0.0
C932 C 0.06413 0.79754 0.83331 0.0
N933 N 0.07638 0.78863 0.82637 0.0
C934 C 0.05248 0.78966 0.84312 0.0
C935 C 0.06645 0.76365 0.83862 0.0
C936 C 0.07772 0.772 0.82874 0.0
C937 C 0.05353 0.77246 0.8459 0.0
H938 H 0.06332 0.81074 0.83101 0.0
H939 H 0.08751 0.76521 0.82291 0.0
O940 O 0.11742 0.81927 0.78686 0.0
O941 O 0.09691 0.82281 0.81942 0.0
O942 O 0.08403 0.80196 0.78941 0.0
O943 O 0.11285 0.78902 0.80868 0.0
H944 H 0.13988 0.84134 0.79509 0.0
H945 H 0.11532 0.81801 0.75405 0.0
H946 H 0.15596 0.85791 0.77502 0.0
H947 H 0.13191 0.83492 0.73471 0.0
H948 H 0.09291 0.86033 0.86123 0.0
H949 H 0.112 0.84787 0.80457 0.0
H950 H 0.08779 0.83239 0.84927 0.0
H951 H 0.11676 0.87546 0.81727 0.0
H952 H 0.08351 0.86856 0.75399 0.0
H953 H 0.04505 0.85609 0.78834 0.0
H954 H 0.17451 0.79937 0.81783 0.0
H955 H 0.15592 0.83321 0.85502 0.0
H956 H 0.05289 0.80291 0.79756 0.0
H957 H 0.08707 0.81053 0.75787 0.0
H958 H 0.03062 0.81152 0.7786 0.0
H959 H 0.06423 0.8191 0.73963 0.0
H960 H 0.13155 0.76238 0.80844 0.0
H961 H 0.10811 0.79835 0.83987 0.0
H962 H 0.14295 0.74887 0.83361 0.0
H963 H 0.11989 0.78423 0.86444 0.0
H964 H 0.14362 0.77489 0.74236 0.0
H965 H 0.09489 0.75478 0.74369 0.0
H966 H 0.0426 0.79694 0.8482 0.0
H967 H 0.06793 0.75045 0.8406 0.0
Li968 Li 0.42716 0.84405 0.04354 0.0
Li969 Li 0.43837 0.86756 0.05751 0.0
Li970 Li 0.45179 0.85617 0.03223 0.0
Li971 Li 0.45211 0.84054 0.0593 0.0
C972 C 0.4167 0.87316 0.02712 0.0
N973 N 0.38921 0.8862 0.01236 0.0
C974 C 0.40448 0.88022 0.03687 0.0
C975 C 0.4151 0.873 0.00985 0.0
C976 C 0.39063 0.88666 0.02917 0.0
C977 C 0.40107 0.87959 0.00263 0.0
C978 C 0.41819 0.84781 0.07879 0.0
C979 C 0.40866 0.84657 0.10706 0.0
N980 N 0.39337 0.8502 0.10176 0.0
C981 C 0.40236 0.8514 0.0736 0.0
C982 C 0.42136 0.84525 0.09564 0.0
C983 C 0.38998 0.8526 0.08541 0.0
C984 C 0.41005 0.81551 0.04542 0.0
N985 N 0.40904 0.83059 0.038 0.0
C986 C 0.38811 0.82085 0.01998 0.0
C987 C 0.39787 0.83371 0.02598 0.0
C988 C 0.39029 0.80459 0.02605 0.0
C989 C 0.40095 0.80222 0.03949 0.0
H990 H 0.41911 0.81343 0.05493 0.0
H991 H 0.39716 0.8458 0.02033 0.0
C992 C 0.44625 0.89996 0.06418 0.0
N993 N 0.43558 0.88804 0.06897 0.0
C994 C 0.44752 0.91472 0.07306 0.0
C995 C 0.42585 0.90529 0.09096 0.0
C996 C 0.42517 0.89055 0.08184 0.0
C997 C 0.43747 0.91744 0.08691 0.0
H998 H 0.45436 0.89763 0.05387 0.0
H999 H 0.41667 0.88103 0.08539 0.0
C1000 C 0.44346 0.82108 0.025 0.0
N1001 N 0.43333 0.79775 0.00212 0.0
C1002 C 0.4446 0.80418 0.02868 0.0
C1003 C 0.43734 0.82614 0.00963 0.0
C1004 C 0.43938 0.79257 0.01695 0.0
C1005 C 0.43223 0.81415 0.99824 0.0
C1006 C 0.47147 0.86802 0.0668 0.0
C1007 C 0.48622 0.876 0.0636 0.0
C1008 C 0.46624 0.86599 0.08317 0.0
C1009 C 0.49552 0.88184 0.07688 0.0
C1010 C 0.47588 0.87201 0.09611 0.0
N1011 N 0.4902 0.87974 0.09273 0.0
C1012 C 0.46265 0.87602 0.00568 0.0
C1013 C 0.47556 0.84982 0.00827 0.0
C1014 C 0.47286 0.88027 0.99251 0.0
N1015 N 0.46434 0.8611 0.01334 0.0
C1016 C 0.48602 0.85355 0.99517 0.0
C1017 C 0.48492 0.86906 0.98729 0.0
H1018 H 0.45367 0.88476 0.01012 0.0
H1019 H 0.4766 0.83807 0.01468 0.0
C1020 C 0.45436 0.8143 0.08111 0.0
N1021 N 0.46358 0.82546 0.07273 0.0
C1022 C 0.46168 0.80264 0.09145 0.0
C1023 C 0.48793 0.81407 0.08414 0.0
C1024 C 0.48006 0.82553 0.07389 0.0
C1025 C 0.47868 0.80249 0.09316 0.0
H1026 H 0.44128 0.81447 0.07974 0.0
H1027 H 0.48706 0.83452 0.06695 0.0
O1028 O 0.43041 0.86691 0.03436 0.0
O1029 O 0.4305 0.84646 0.06748 0.0
O1030 O 0.4478 0.83264 0.03661 0.0
O1031 O 0.46213 0.86244 0.0539 0.0
H1032 H 0.40571 0.88079 0.05022 0.0
H1033 H 0.42457 0.86778 0.00212 0.0
H1034 H 0.38102 0.89208 0.03657 0.0
H1035 H 0.39961 0.87945 0.98929 0.0
H1036 H 0.41096 0.84469 0.12015 0.0
H1037 H 0.39962 0.85324 0.06062 0.0
H1038 H 0.43353 0.8423 0.09985 0.0
H1039 H 0.37769 0.85543 0.08157 0.0
H1040 H 0.37964 0.8235 0.01006 0.0
H1041 H 0.40332 0.79004 0.04458 0.0
H1042 H 0.45688 0.92349 0.06955 0.0
H1043 H 0.41765 0.90694 0.10133 0.0
H1044 H 0.44924 0.8001 0.04057 0.0
H1045 H 0.4363 0.83918 0.00665 0.0
H1046 H 0.44006 0.77945 0.01967 0.0
H1047 H 0.42731 0.81787 0.98636 0.0
H1048 H 0.49039 0.8777 0.05098 0.0
H1049 H 0.45483 0.85991 0.08586 0.0
H1050 H 0.50696 0.88805 0.0746 0.0
H1051 H 0.47197 0.87056 0.10884 0.0
H1052 H 0.47175 0.89245 0.98695 0.0
H1053 H 0.49504 0.8445 0.99143 0.0
H1054 H 0.45412 0.79377 0.09795 0.0
H1055 H 0.50104 0.81446 0.08521 0.0
Li1056 Li 0.88057 0.31486 0.68567 0.0
Li1057 Li 0.90136 0.32647 0.70372 0.0
Li1058 Li 0.90879 0.30341 0.68467 0.0
Li1059 Li 0.89114 0.29881 0.70862 0.0
C1060 C 0.89771 0.34225 0.67333 0.0
N1061 N 0.89044 0.37377 0.66207 0.0
C1062 C 0.88612 0.35189 0.68157 0.0
C1063 C 0.90563 0.34864 0.6594 0.0
C1064 C 0.88261 0.36779 0.67567 0.0
C1065 C 0.90178 0.3646 0.65388 0.0
C1066 C 0.87297 0.32597 0.72402 0.0
C1067 C 0.8746 0.32872 0.75377 0.0
N1068 N 0.86131 0.33877 0.7535 0.0
C1069 C 0.85929 0.33624 0.72404 0.0
C1070 C 0.88066 0.3221 0.739 0.0
C1071 C 0.8536 0.34262 0.73907 0.0
C1072 C 0.84774 0.31221 0.68018 0.0
N1073 N 0.86148 0.31831 0.67316 0.0
C1074 C 0.84743 0.32375 0.64782 0.0
C1075 C 0.86155 0.3244 0.65745 0.0
C1076 C 0.83329 0.31628 0.65427 0.0
C1077 C 0.83351 0.31091 0.6709 0.0
H1078 H 0.84814 0.3074 0.6927 0.0
H1079 H 0.87271 0.32907 0.65212 0.0
C1080 C 0.92772 0.34452 0.71336 0.0
N1081 N 0.91126 0.34459 0.71468 0.0
C1082 C 0.93719 0.35277 0.72508 0.0
C1083 C 0.91251 0.36243 0.73823 0.0
C1084 C 0.90351 0.35416 0.72609 0.0
C1085 C 0.92952 0.36101 0.73826 0.0
H1086 H 0.9335 0.33665 0.70422 0.0
H1087 H 0.89042 0.35432 0.72667 0.0
C1088 C 0.88398 0.27506 0.68824 0.0
N1089 N 0.87605 0.2426 0.6958 0.0
C1090 C 0.89623 0.26343 0.69131 0.0
C1091 C 0.8677 0.27016 0.68897 0.0
C1092 C 0.89198 0.24709 0.69511 0.0
C1093 C 0.86394 0.2537 0.69283 0.0
C1094 C 0.9248 0.30048 0.71943 0.0
C1095 C 0.93488 0.28708 0.71548 0.0
C1096 C 0.92642 0.30829 0.73484 0.0
C1097 C 0.94624 0.28156 0.72713 0.0
C1098 C 0.93795 0.30242 0.74613 0.0
N1099 N 0.94753 0.28927 0.74208 0.0
C1100 C 0.94104 0.30066 0.67408 0.0
C1101 C 0.923 0.28135 0.66168 0.0
C1102 C 0.95435 0.29303 0.66651 0.0
N1103 N 0.92583 0.29449 0.67181 0.0
C1104 C 0.93595 0.27326 0.65397 0.0
C1105 C 0.95194 0.27888 0.65661 0.0
H1106 H 0.94287 0.31116 0.68224 0.0
H1107 H 0.91074 0.27675 0.6601 0.0
C1108 C 0.86942 0.28385 0.73102 0.0
N1109 N 0.88501 0.28319 0.72545 0.0
C1110 C 0.86423 0.27327 0.74365 0.0
C1111 C 0.89097 0.26086 0.744 0.0
C1112 C 0.89572 0.27186 0.73155 0.0
C1113 C 0.8751 0.26164 0.75032 0.0
H1114 H 0.86101 0.29267 0.72567 0.0
H1115 H 0.90788 0.27119 0.72665 0.0
O1116 O 0.90136 0.32662 0.67881 0.0
O1117 O 0.87868 0.31973 0.70936 0.0
O1118 O 0.88792 0.29124 0.685 0.0
O1119 O 0.91383 0.30625 0.70802 0.0
H1120 H 0.87986 0.34719 0.69237 0.0
H1121 H 0.91465 0.34133 0.6529 0.0
H1122 H 0.87365 0.37538 0.68191 0.0
H1123 H 0.9078 0.36971 0.6431 0.0
H1124 H 0.88045 0.32586 0.76545 0.0
H1125 H 0.85318 0.3393 0.71253 0.0
H1126 H 0.89113 0.31404 0.73923 0.0
H1127 H 0.84305 0.35064 0.73927 0.0
H1128 H 0.84783 0.32843 0.63524 0.0
H1129 H 0.82319 0.30477 0.67649 0.0
H1130 H 0.95027 0.35131 0.72474 0.0
H1131 H 0.90623 0.36889 0.74812 0.0
H1132 H 0.90889 0.26705 0.69108 0.0
H1133 H 0.85806 0.27897 0.68667 0.0
H1134 H 0.90133 0.23799 0.69762 0.0
H1135 H 0.85138 0.24976 0.6935 0.0
H1136 H 0.93385 0.2809 0.70362 0.0
H1137 H 0.91899 0.31888 0.73803 0.0
H1138 H 0.95405 0.27114 0.72427 0.0
H1139 H 0.93932 0.30835 0.75809 0.0
H1140 H 0.96641 0.29797 0.66867 0.0
H1141 H 0.93347 0.26229 0.64663 0.0
H1142 H 0.85179 0.27401 0.74798 0.0
H1143 H 0.89967 0.25196 0.74878 0.0
Li1144 Li 0.95512 0.63876 0.95809 0.0
Li1145 Li 0.95177 0.65451 0.93115 0.0
Li1146 Li 0.92871 0.65075 0.95052 0.0
Li1147 Li 0.93896 0.628 0.93534 0.0
C1148 C 0.95683 0.67388 0.96404 0.0
N1149 N 0.97201 0.69737 0.9837 0.0
C1150 C 0.97071 0.68212 0.95832 0.0
C1151 C 0.9506 0.67774 0.97971 0.0
C1152 C 0.97823 0.6939 0.96846 0.0
C1153 C 0.95846 0.68961 0.98948 0.0
C1154 C 0.96899 0.61935 0.92808 0.0
C1155 C 0.97563 0.60384 0.9034 0.0
N1156 N 0.97963 0.59055 0.91298 0.0
C1157 C 0.9733 0.6056 0.93769 0.0
C1158 C 0.97027 0.61853 0.91081 0.0
C1159 C 0.97862 0.59114 0.92982 0.0
C1160 C 0.96687 0.62088 0.98593 0.0
N1161 N 0.96969 0.63413 0.97588 0.0
C1162 C 0.99297 0.64178 0.99189 0.0
C1163 C 0.98267 0.64427 0.97837 0.0
C1164 C 0.99007 0.6285 0.00276 0.0
C1165 C 0.97695 0.61783 -0.00046 0.0
H1166 H 0.95673 0.61272 0.98343 0.0
H1167 H 0.98511 0.65424 0.96981 0.0
C1168 C 0.95463 0.68524 0.91592 0.0
N1169 N 0.96196 0.67021 0.91735 0.0
C1170 C 0.96268 0.69834 0.90815 0.0
C1171 C 0.98539 0.68 0.90289 0.0
C1172 C 0.97693 0.66727 0.91088 0.0
C1173 C 0.97839 0.69587 0.9018 0.0
H1174 H 0.9428 0.68721 0.92145 0.0
H1175 H 0.98259 0.65527 0.91256 0.0
C1176 C 0.92526 0.62504 0.97342 0.0
N1177 N 0.90808 0.61923 0.0023 0.0
C1178 C 0.91323 0.61279 0.97385 0.0
C1179 C 0.92863 0.63423 0.98771 0.0
C1180 C 0.90466 0.61007 0.98856 0.0
C1181 C 0.9198 0.63114 0.00218 0.0
C1182 C 0.9133 0.64534 0.92054 0.0
C1183 C 0.90362 0.63366 0.92871 0.0
C1184 C 0.90699 0.65404 0.90699 0.0
C1185 C 0.88776 0.63088 0.92319 0.0
C1186 C 0.89106 0.65091 0.90184 0.0
N1187 N 0.88185 0.63949 0.90998 0.0
C1188 C 0.91344 0.67893 0.96163 0.0
C1189 C 0.8979 0.65471 0.96677 0.0
C1190 C 0.90351 0.6882 0.97207 0.0
N1191 N 0.91102 0.66236 0.95995 0.0
C1192 C 0.88751 0.66356 0.97721 0.0
C1193 C 0.89074 0.68036 0.9806 0.0
H1194 H 0.92381 0.68473 0.95579 0.0
H1195 H 0.89598 0.6416 0.96488 0.0
C1196 C 0.93439 0.59388 0.93436 0.0
N1197 N 0.93392 0.60771 0.92476 0.0
C1198 C 0.93416 0.57823 0.92705 0.0
C1199 C 0.93191 0.59139 0.90016 0.0
C1200 C 0.93212 0.60682 0.90802 0.0
C1201 C 0.93352 0.57687 0.90969 0.0
H1202 H 0.9361 0.59503 0.94762 0.0
H1203 H 0.93193 0.61809 0.90073 0.0
O1204 O 0.94921 0.66241 0.95418 0.0
O1205 O 0.96319 0.63339 0.93554 0.0
O1206 O 0.93356 0.62805 0.95902 0.0
O1207 O 0.92888 0.64834 0.92568 0.0
H1208 H 0.97579 0.67929 0.94629 0.0
H1209 H 0.93971 0.6718 0.98427 0.0
H1210 H 0.98903 0.70028 0.96422 0.0
H1211 H 0.95376 0.69269 0.00162 0.0
H1212 H 0.97651 0.60295 0.89004 0.0
H1213 H 0.97232 0.60602 0.95108 0.0
H1214 H 0.96686 0.62904 0.90319 0.0
H1215 H 0.98185 0.58035 0.93709 0.0
H1216 H 0.00325 0.64999 0.99365 0.0
H1217 H 0.97439 0.60737 0.00756 0.0
H1218 H 0.95683 0.71036 0.90744 0.0
H1219 H 0.99757 0.67766 0.89835 0.0
H1220 H 0.91044 0.60556 0.96289 0.0
H1221 H 0.93803 0.64358 0.98764 0.0
H1222 H 0.89527 0.60068 0.98905 0.0
H1223 H 0.92227 0.63821 0.01331 0.0
H1224 H 0.90829 0.62677 0.93916 0.0
H1225 H 0.91434 0.66312 0.90054 0.0
H1226 H 0.88014 0.62188 0.92941 0.0
H1227 H 0.88602 0.65755 0.89137 0.0
H1228 H 0.90659 0.70107 0.97429 0.0
H1229 H 0.87753 0.65712 0.98315 0.0
H1230 H 0.93572 0.5674 0.93484 0.0
H1231 H 0.93136 0.59084 0.88674 0.0
Li1232 Li 0.60545 0.70105 0.21078 0.0
Li1233 Li 0.58879 0.69716 0.18396 0.0
Li1234 Li 0.59347 0.67425 0.20328 0.0
Li1235 Li 0.61505 0.68408 0.18741 0.0
C1236 C 0.5686 0.69211 0.21631 0.0
N1237 N 0.54083 0.68496 0.2342 0.0
C1238 C 0.55364 0.69059 0.20821 0.0
C1239 C 0.56943 0.69001 0.23351 0.0
C1240 C 0.53974 0.68699 0.21748 0.0
C1241 C 0.55526 0.68636 0.24233 0.0
C1242 C 0.62178 0.71466 0.17757 0.0
C1243 C 0.63151 0.7223 0.1504 0.0
N1244 N 0.64638 0.72565 0.157 0.0
C1245 C 0.6371 0.71833 0.18412 0.0
C1246 C 0.6189 0.71675 0.16061 0.0
C1247 C 0.64941 0.7238 0.17349 0.0
C1248 C 0.62404 0.72103 0.23334 0.0
N1249 N 0.60902 0.71708 0.22753 0.0
C1250 C 0.59666 0.73727 0.24512 0.0
C1251 C 0.59549 0.72495 0.23311 0.0
C1252 C 0.612 0.74201 0.25115 0.0
C1253 C 0.62583 0.73359 0.24518 0.0
H1254 H 0.63461 0.71461 0.22858 0.0
H1255 H 0.58373 0.72183 0.22806 0.0
C1256 C 0.56865 0.70447 0.15563 0.0
N1257 N 0.57351 0.70883 0.17116 0.0
C1258 C 0.55649 0.71361 0.14762 0.0
C1259 C 0.55484 0.73142 0.17175 0.0
C1260 C 0.56707 0.72211 0.17916 0.0
C1261 C 0.54928 0.72711 0.15587 0.0
H1262 H 0.57405 0.69381 0.14961 0.0
H1263 H 0.57129 0.72525 0.19148 0.0
C1264 C 0.62131 0.67058 0.2249 0.0
N1265 N 0.63277 0.65365 0.25234 0.0
C1266 C 0.63047 0.65611 0.22289 0.0
C1267 C 0.61821 0.67659 0.24087 0.0
C1268 C 0.63608 0.64768 0.23692 0.0
C1269 C 0.62405 0.66781 0.25458 0.0
C1270 C 0.59807 0.65867 0.17218 0.0
C1271 C 0.60573 0.64672 0.182 0.0
C1272 C 0.594 0.65492 0.15577 0.0
C1273 C 0.60923 0.63117 0.17523 0.0
C1274 C 0.59771 0.63923 0.14944 0.0
N1275 N 0.60518 0.62778 0.15922 0.0
C1276 C 0.56768 0.65216 0.20401 0.0
C1277 C 0.58313 0.65193 0.22883 0.0
C1278 C 0.55477 0.64423 0.21196 0.0
N1279 N 0.58115 0.65656 0.21274 0.0
C1280 C 0.57054 0.64403 0.23726 0.0
C1281 C 0.5558 0.64092 0.22904 0.0
H1282 H 0.56628 0.65627 0.19132 0.0
H1283 H 0.5937 0.65575 0.23566 0.0
C1284 C 0.64838 0.67801 0.18448 0.0
N1285 N 0.6343 0.67889 0.17572 0.0
C1286 C 0.66326 0.67789 0.17622 0.0
C1287 C 0.64877 0.67862 0.15009 0.0
C1288 C 0.63416 0.67859 0.15887 0.0
C1289 C 0.66355 0.67886 0.15883 0.0
H1290 H 0.64809 0.67859 0.19788 0.0
H1291 H 0.62274 0.67951 0.15227 0.0
O1292 O 0.58235 0.69569 0.20745 0.0
O1293 O 0.60976 0.70868 0.18764 0.0
O1294 O 0.61607 0.67922 0.21129 0.0
O1295 O 0.59471 0.67406 0.17846 0.0
H1296 H 0.55279 0.69206 0.19489 0.0
H1297 H 0.58092 0.69105 0.23996 0.0
H1298 H 0.52809 0.68574 0.21138 0.0
H1299 H 0.55574 0.6846 0.25563 0.0
H1300 H 0.62951 0.72385 0.13723 0.0
H1301 H 0.63953 0.71669 0.19721 0.0
H1302 H 0.60711 0.7139 0.15536 0.0
H1303 H 0.66139 0.72651 0.17834 0.0
H1304 H 0.58562 0.74312 0.2495 0.0
H1305 H 0.63795 0.73697 0.24921 0.0
H1306 H 0.55247 0.70994 0.13536 0.0
H1307 H 0.54976 0.7419 0.17838 0.0
H1308 H 0.63334 0.65148 0.21063 0.0
H1309 H 0.6112 0.68776 0.2427 0.0
H1310 H 0.64313 0.63644 0.23554 0.0
H1311 H 0.62162 0.67224 0.267 0.0
H1312 H 0.60891 0.6494 0.19471 0.0
H1313 H 0.58812 0.66408 0.14799 0.0
H1314 H 0.61515 0.6218 0.1827 0.0
H1315 H 0.59466 0.63617 0.13674 0.0
H1316 H 0.54371 0.6418 0.20509 0.0
H1317 H 0.57186 0.64186 0.25045 0.0
H1318 H 0.67438 0.67835 0.18341 0.0
H1319 H 0.64854 0.67937 0.13668 0.0
Li1320 Li 0.55838 0.36515 0.44097 0.0
Li1321 Li 0.56983 0.34216 0.45467 0.0
Li1322 Li 0.54533 0.33812 0.43892 0.0
Li1323 Li 0.5451 0.35364 0.46625 0.0
C1324 C 0.58149 0.34816 0.42279 0.0
N1325 N 0.61081 0.35545 0.40776 0.0
C1326 C 0.59288 0.35815 0.4309 0.0
C1327 C 0.58502 0.34185 0.40705 0.0
C1328 C 0.60763 0.36171 0.4231 0.0
C1329 C 0.59991 0.34568 0.39966 0.0
C1330 C 0.57489 0.37092 0.47706 0.0
C1331 C 0.58042 0.37229 0.50642 0.0
N1332 N 0.59198 0.38401 0.50352 0.0
C1333 C 0.58672 0.38308 0.47438 0.0
C1334 C 0.57161 0.36556 0.49322 0.0
C1335 C 0.59527 0.3895 0.48792 0.0
C1336 C 0.55967 0.39944 0.43914 0.0
N1337 N 0.56137 0.38552 0.42983 0.0
C1338 C 0.56321 0.40157 0.405 0.0
C1339 C 0.56339 0.38625 0.41311 0.0
C1340 C 0.56088 0.41617 0.41424 0.0
C1341 C 0.55945 0.41499 0.43158 0.0
H1342 H 0.55778 0.39839 0.45238 0.0
H1343 H 0.56445 0.37493 0.40599 0.0
C1344 C 0.59231 0.31658 0.45171 0.0
N1345 N 0.5891 0.3305 0.46067 0.0
C1346 C 0.60272 0.30446 0.45805 0.0
C1347 C 0.60774 0.32217 0.48172 0.0
C1348 C 0.59724 0.33389 0.47495 0.0
C1349 C 0.60981 0.30687 0.47369 0.0
H1350 H 0.5856 0.31417 0.44042 0.0
H1351 H 0.59469 0.34502 0.48181 0.0
C1352 C 0.52627 0.3681 0.43298 0.0
N1353 N 0.50876 0.38546 0.40943 0.0
C1354 C 0.51523 0.38033 0.43788 0.0
C1355 C 0.52843 0.36471 0.41611 0.0
C1356 C 0.50647 0.38895 0.42578 0.0
C1357 C 0.51947 0.37362 0.4044 0.0
C1358 C 0.55547 0.31547 0.46794 0.0
C1359 C 0.55557 0.30113 0.45818 0.0
C1360 C 0.56151 0.31486 0.48415 0.0
C1361 C 0.56188 0.28643 0.46476 0.0
C1362 C 0.56766 0.29991 0.49029 0.0
N1363 N 0.56774 0.28613 0.48054 0.0
C1364 C 0.53689 0.31496 0.41326 0.0
C1365 C 0.51562 0.32548 0.43014 0.0
C1366 C 0.52569 0.3061 0.40365 0.0
N1367 N 0.5316 0.32451 0.42608 0.0
C1368 C 0.50404 0.31704 0.42079 0.0
C1369 C 0.50902 0.30737 0.40724 0.0
H1370 H 0.54972 0.31449 0.41035 0.0
H1371 H 0.51185 0.33315 0.44046 0.0
C1372 C 0.52545 0.37324 0.4873 0.0
N1373 N 0.53165 0.35784 0.48476 0.0
C1374 C 0.51374 0.3758 0.49959 0.0
C1375 C 0.51572 0.34675 0.50688 0.0
C1376 C 0.52722 0.34474 0.49435 0.0
C1377 C 0.50846 0.36234 0.50933 0.0
H1378 H 0.52912 0.38337 0.47933 0.0
H1379 H 0.53218 0.33258 0.4919 0.0
O1380 O 0.5669 0.34454 0.43009 0.0
O1381 O 0.56617 0.36479 0.46397 0.0
O1382 O 0.53511 0.35969 0.44463 0.0
O1383 O 0.54955 0.33003 0.46161 0.0
H1384 H 0.5904 0.36309 0.44308 0.0
H1385 H 0.57631 0.3341 0.40061 0.0
H1386 H 0.61655 0.36943 0.42924 0.0
H1387 H 0.6028 0.3409 0.38747 0.0
H1388 H 0.57809 0.36818 0.51897 0.0
H1389 H 0.58924 0.38754 0.46198 0.0
H1390 H 0.5625 0.35619 0.49554 0.0
H1391 H 0.60449 0.39888 0.48603 0.0
H1392 H 0.56439 0.40194 0.39162 0.0
H1393 H 0.55728 0.42587 0.43915 0.0
H1394 H 0.60397 0.29278 0.45153 0.0
H1395 H 0.61325 0.32455 0.4937 0.0
H1396 H 0.51346 0.38312 0.45089 0.0
H1397 H 0.53709 0.35544 0.4121 0.0
H1398 H 0.49787 0.39845 0.42938 0.0
H1399 H 0.52106 0.37117 0.3913 0.0
H1400 H 0.55098 0.30139 0.4456 0.0
H1401 H 0.56163 0.32585 0.49185 0.0
H1402 H 0.56214 0.27527 0.45731 0.0
H1403 H 0.57239 0.29927 0.5028 0.0
H1404 H 0.52993 0.29879 0.39324 0.0
H1405 H 0.49131 0.31816 0.42403 0.0
H1406 H 0.50833 0.38798 0.50086 0.0
H1407 H 0.5122 0.33609 0.51422 0.0
Li1408 Li 0.28982 0.38931 0.20014 0.0
Li1409 Li 0.30913 0.37606 0.18272 0.0
Li1410 Li 0.31474 0.40438 0.19591 0.0
Li1411 Li 0.29372 0.40032 0.17354 0.0
C1412 C 0.3104 0.37423 0.22101 0.0
N1413 N 0.30641 0.35786 0.25083 0.0
C1414 C 0.30248 0.3589 0.22148 0.0
C1415 C 0.31641 0.38119 0.23566 0.0
C1416 C 0.30054 0.35084 0.2367 0.0
C1417 C 0.31425 0.37273 0.25063 0.0
C1418 C 0.28172 0.36947 0.16455 0.0
C1419 C 0.28681 0.36418 0.13555 0.0
N1420 N 0.27484 0.35254 0.13555 0.0
C1421 C 0.26942 0.3575 0.16424 0.0
C1422 C 0.29046 0.37286 0.15008 0.0
C1423 C 0.26614 0.34906 0.14946 0.0
C1424 C 0.25948 0.37791 0.21143 0.0
N1425 N 0.27338 0.38559 0.21636 0.0
C1426 C 0.26265 0.38967 0.24357 0.0
C1427 C 0.2752 0.39139 0.23209 0.0
C1428 C 0.24814 0.38181 0.23881 0.0
C1429 C 0.24666 0.37578 0.22255 0.0
H1430 H 0.25827 0.37367 0.19877 0.0
H1431 H 0.28629 0.39761 0.23566 0.0
C1432 C 0.33575 0.35503 0.17651 0.0
N1433 N 0.31929 0.35565 0.1777 0.0
C1434 C 0.34373 0.33971 0.17638 0.0
C1435 C 0.31756 0.32609 0.17774 0.0
C1436 C 0.31013 0.34162 0.178 0.0
C1437 C 0.33459 0.32502 0.17749 0.0
H1438 H 0.34272 0.36642 0.17662 0.0
H1439 H 0.29712 0.34244 0.17958 0.0
C1440 C 0.28104 0.42069 0.20385 0.0
N1441 N 0.25756 0.43569 0.22326 0.0
C1442 C 0.26476 0.42057 0.19886 0.0
C1443 C 0.28537 0.42847 0.21872 0.0
C1444 C 0.25307 0.42821 0.20884 0.0
C1445 C 0.27332 0.43598 0.22835 0.0
C1446 C 0.32672 0.4038 0.15997 0.0
C1447 C 0.33092 0.42057 0.16087 0.0
C1448 C 0.33214 0.39424 0.14659 0.0
C1449 C 0.34016 0.42763 0.14814 0.0
C1450 C 0.34137 0.40174 0.13412 0.0
N1451 N 0.34514 0.41814 0.13514 0.0
C1452 C 0.34451 0.41223 0.21144 0.0
C1453 C 0.32714 0.43515 0.20623 0.0
C1454 C 0.35564 0.42252 0.21955 0.0
N1455 N 0.33052 0.41867 0.20519 0.0
C1456 C 0.33779 0.44583 0.21443 0.0
C1457 C 0.35216 0.43949 0.22135 0.0
H1458 H 0.34682 0.39905 0.21044 0.0
H1459 H 0.31598 0.43992 0.20096 0.0
C1460 C 0.26636 0.4078 0.15484 0.0
N1461 N 0.28221 0.41215 0.15694 0.0
C1462 C 0.25529 0.41921 0.14849 0.0
C1463 C 0.27733 0.43874 0.14489 0.0
C1464 C 0.28796 0.42703 0.1516 0.0
C1465 C 0.26069 0.43509 0.14415 0.0
H1466 H 0.2619 0.39625 0.15988 0.0
H1467 H 0.30038 0.43051 0.15406 0.0
O1468 O 0.31229 0.38239 0.20628 0.0
O1469 O 0.28514 0.37767 0.17904 0.0
O1470 O 0.29265 0.41311 0.19431 0.0
O1471 O 0.31798 0.39657 0.17247 0.0
H1472 H 0.29769 0.3534 0.21025 0.0
H1473 H 0.32256 0.39307 0.23548 0.0
H1474 H 0.29434 0.33901 0.23728 0.0
H1475 H 0.31876 0.378 0.26209 0.0
H1476 H 0.29349 0.36671 0.12427 0.0
H1477 H 0.26256 0.35465 0.17533 0.0
H1478 H 0.29983 0.38219 0.14999 0.0
H1479 H 0.25669 0.33972 0.14907 0.0
H1480 H 0.26434 0.39428 0.25607 0.0
H1481 H 0.23562 0.36971 0.21843 0.0
H1482 H 0.35689 0.33937 0.17623 0.0
H1483 H 0.31007 0.3151 0.179 0.0
H1484 H 0.26112 0.41442 0.18756 0.0
H1485 H 0.29783 0.42842 0.22298 0.0
H1486 H 0.24043 0.42812 0.20516 0.0
H1487 H 0.27649 0.44195 0.23993 0.0
H1488 H 0.32694 0.42812 0.17118 0.0
H1489 H 0.32932 0.38113 0.14589 0.0
H1490 H 0.34338 0.44063 0.14862 0.0
H1491 H 0.34558 0.39451 0.12367 0.0
H1492 H 0.36657 0.41719 0.22482 0.0
H1493 H 0.33481 0.45888 0.21541 0.0
H1494 H 0.24246 0.41616 0.14826 0.0
H1495 H 0.28177 0.45104 0.14189 0.0
Li1496 Li 0.79846 0.09134 0.81979 0.0
Li1497 Li 0.81651 0.09275 0.7948 0.0
Li1498 Li 0.81085 0.11727 0.81224 0.0
Li1499 Li 0.78941 0.10641 0.79524 0.0
C1500 C 0.82985 0.09301 0.83312 0.0
N1501 N 0.84517 0.08561 0.86272 0.0
C1502 C 0.83857 0.07822 0.83481 0.0
C1503 C 0.82919 0.10418 0.84636 0.0
C1504 C 0.84615 0.07466 0.84992 0.0
C1505 C 0.83695 0.10018 0.86126 0.0
C1506 C 0.78342 0.0754 0.78733 0.0
C1507 C 0.77379 0.06756 0.76018 0.0
N1508 N 0.75951 0.06249 0.76701 0.0
C1509 C 0.76867 0.0701 0.79409 0.0
C1510 C 0.78604 0.07412 0.77025 0.0
C1511 C 0.75673 0.0636 0.7836 0.0
C1512 C 0.77489 0.0786 0.84086 0.0
N1513 N 0.79034 0.07611 0.83547 0.0
C1514 C 0.78977 0.04801 0.8448 0.0
C1515 C 0.798 0.06134 0.83759 0.0
C1516 C 0.77339 0.04985 0.84941 0.0
C1517 C 0.76616 0.0656 0.84794 0.0
H1518 H 0.76882 0.09021 0.83828 0.0
H1519 H 0.81001 0.05948 0.83252 0.0
C1520 C 0.84466 0.08844 0.77514 0.0
N1521 N 0.83145 0.08075 0.7817 0.0
C1522 C 0.85483 0.07992 0.7642 0.0
C1523 C 0.83799 0.05556 0.76763 0.0
C1524 C 0.82816 0.06455 0.77849 0.0
C1525 C 0.85136 0.06334 0.76008 0.0
H1526 H 0.84712 0.10124 0.77818 0.0
H1527 H 0.81761 0.05874 0.784 0.0
C1528 C 0.78195 0.12291 0.83096 0.0
N1529 N 0.76987 0.14252 0.85622 0.0
C1530 C 0.77074 0.13546 0.82744 0.0
C1531 C 0.78679 0.12013 0.84734 0.0
C1532 C 0.76484 0.14531 0.84038 0.0
C1533 C 0.7806 0.13023 0.85993 0.0
C1534 C 0.81195 0.13127 0.78172 0.0
C1535 C 0.79916 0.14257 0.78342 0.0
C1536 C 0.8267 0.13656 0.77491 0.0
C1537 C 0.80134 0.15897 0.77826 0.0
C1538 C 0.82841 0.15308 0.76994 0.0
N1539 N 0.8158 0.16385 0.77171 0.0
C1540 C 0.83746 0.13809 0.81649 0.0
C1541 C 0.81221 0.15164 0.82057 0.0
C1542 C 0.84546 0.15333 0.8154 0.0
N1543 N 0.82105 0.13757 0.81841 0.0
C1544 C 0.8197 0.16713 0.81958 0.0
C1545 C 0.83642 0.1681 0.8162 0.0
H1546 H 0.84412 0.12671 0.81441 0.0
H1547 H 0.79916 0.15102 0.8214 0.0
C1548 C 0.75603 0.11177 0.78927 0.0
N1549 N 0.77094 0.11109 0.78204 0.0
C1550 C 0.74238 0.11591 0.77983 0.0
C1551 C 0.75971 0.11807 0.75568 0.0
C1552 C 0.773 0.11393 0.76557 0.0
C1553 C 0.74416 0.11929 0.76283 0.0
H1554 H 0.7548 0.10926 0.80239 0.0
H1555 H 0.78503 0.11323 0.76021 0.0
O1556 O 0.82246 0.0967 0.81838 0.0
O1557 O 0.79508 0.08222 0.79732 0.0
O1558 O 0.78771 0.11309 0.81843 0.0
O1559 O 0.81024 0.11528 0.78724 0.0
H1560 H 0.83939 0.06956 0.82458 0.0
H1561 H 0.82288 0.11587 0.84513 0.0
H1562 H 0.85284 0.0632 0.85145 0.0
H1563 H 0.83647 0.10868 0.87163 0.0
H1564 H 0.77561 0.06658 0.74692 0.0
H1565 H 0.7664 0.0711 0.80727 0.0
H1566 H 0.79732 0.07837 0.7648 0.0
H1567 H 0.74523 0.0595 0.78866 0.0
H1568 H 0.79589 0.03616 0.84584 0.0
H1569 H 0.75348 0.06758 0.85093 0.0
H1570 H 0.86518 0.08629 0.75887 0.0
H1571 H 0.83478 0.04286 0.76471 0.0
H1572 H 0.76677 0.13769 0.81483 0.0
H1573 H 0.79503 0.11013 0.85035 0.0
H1574 H 0.75627 0.15516 0.83782 0.0
H1575 H 0.78427 0.12823 0.87267 0.0
H1576 H 0.78779 0.13885 0.78903 0.0
H1577 H 0.83678 0.12806 0.77362 0.0
H1578 H 0.79158 0.16786 0.77962 0.0
H1579 H 0.83978 0.15734 0.76473 0.0
H1580 H 0.85839 0.15354 0.81292 0.0
H1581 H 0.81219 0.17817 0.81997 0.0
H1582 H 0.7306 0.11655 0.78578 0.0
H1583 H 0.76169 0.12082 0.74268 0.0
Li1584 Li 0.1534 0.54983 0.07326 0.0
Li1585 Li 0.12866 0.56363 0.06497 0.0
Li1586 Li 0.13848 0.54017 0.04948 0.0
Li1587 Li 0.15348 0.56628 0.04728 0.0
C1588 C 0.1304 0.52546 0.08062 0.0
N1589 N 0.12989 0.49507 0.0965 0.0
C1590 C 0.11886 0.52227 0.09293 0.0
C1591 C 0.14167 0.5132 0.07639 0.0
C1592 C 0.1188 0.50682 0.10081 0.0
C1593 C 0.14122 0.49792 0.08455 0.0
C1594 C 0.14923 0.58138 0.08614 0.0
C1595 C 0.15719 0.60277 0.10544 0.0
N1596 N 0.14773 0.59562 0.11729 0.0
C1597 C 0.13959 0.57425 0.09851 0.0
C1598 C 0.15811 0.59576 0.08961 0.0
C1599 C 0.13899 0.58163 0.11418 0.0
C1600 C 0.18345 0.54346 0.08711 0.0
N1601 N 0.16731 0.54299 0.09057 0.0
C1602 C 0.17211 0.52697 0.11495 0.0
C1603 C 0.16157 0.53575 0.10461 0.0
C1604 C 0.18872 0.526 0.11092 0.0
C1605 C 0.19446 0.53513 0.09726 0.0
H1606 H 0.18764 0.54948 0.0759 0.0
H1607 H 0.14871 0.53586 0.10726 0.0
C1608 C 0.09611 0.56679 0.07527 0.0
N1609 N 0.10968 0.57526 0.07076 0.0
C1610 C 0.08103 0.57474 0.07523 0.0
C1611 C 0.09449 0.60019 0.06714 0.0
C1612 C 0.10928 0.59173 0.06728 0.0
C1613 C 0.08005 0.59148 0.07044 0.0
H1614 H 0.09683 0.55361 0.07768 0.0
H1615 H 0.12029 0.598 0.06343 0.0
C1616 C 0.17202 0.53421 0.04172 0.0
N1617 N 0.19249 0.51489 0.02257 0.0
C1618 C 0.17458 0.53808 0.02502 0.0
C1619 C 0.18012 0.52066 0.04875 0.0
C1620 C 0.18489 0.52812 0.01552 0.0
C1621 C 0.19035 0.511 0.03884 0.0
C1622 C 0.12074 0.55776 0.02802 0.0
C1623 C 0.12592 0.55918 0.01157 0.0
C1624 C 0.10517 0.55172 0.03145 0.0
C1625 C 0.11542 0.55445 0.99878 0.0
C1626 C 0.09503 0.54713 0.01831 0.0
N1627 N 0.10033 0.54857 0.00239 0.0
C1628 C 0.12 0.51076 0.04241 0.0
C1629 C 0.13691 0.52 0.02057 0.0
C1630 C 0.11445 0.49754 0.03276 0.0
N1631 N 0.13131 0.52149 0.03636 0.0
C1632 C 0.13144 0.5072 0.01035 0.0
C1633 C 0.1201 0.49564 0.01641 0.0
H1634 H 0.11496 0.51255 0.05463 0.0
H1635 H 0.14513 0.52913 0.01561 0.0
C1636 C 0.18187 0.57897 0.03206 0.0
N1637 N 0.16544 0.58037 0.03311 0.0
C1638 C 0.19046 0.5882 0.02031 0.0
C1639 C 0.16512 0.6007 0.01161 0.0
C1640 C 0.15703 0.59117 0.02345 0.0
C1641 C 0.18203 0.59903 0.00968 0.0
H1642 H 0.18821 0.57027 0.03998 0.0
H1643 H 0.14397 0.5921 0.02471 0.0
O1644 O 0.1308 0.54065 0.07305 0.0
O1645 O 0.15013 0.57435 0.07072 0.0
O1646 O 0.16226 0.54406 0.05134 0.0
O1647 O 0.13096 0.562 0.04071 0.0
H1648 H 0.11012 0.53167 0.09644 0.0
H1649 H 0.15057 0.51544 0.06683 0.0
H1650 H 0.10995 0.50419 0.11039 0.0
H1651 H 0.14988 0.48833 0.08137 0.0
H1652 H 0.164 0.6139 0.1083 0.0
H1653 H 0.13263 0.56313 0.0961 0.0
H1654 H 0.16565 0.60141 0.08016 0.0
H1655 H 0.13159 0.57624 0.12387 0.0
H1656 H 0.16705 0.52014 0.12529 0.0
H1657 H 0.20722 0.53519 0.09395 0.0
H1658 H 0.07017 0.56763 0.07791 0.0
H1659 H 0.09427 0.61301 0.06314 0.0
H1660 H 0.16848 0.54855 0.01937 0.0
H1661 H 0.17865 0.51766 0.06174 0.0
H1662 H 0.18685 0.5309 0.00255 0.0
H1663 H 0.19664 0.50046 0.04411 0.0
H1664 H 0.138 0.56367 0.00871 0.0
H1665 H 0.10105 0.55037 0.04411 0.0
H1666 H 0.11929 0.5554 0.98599 0.0
H1667 H 0.08298 0.54236 0.02078 0.0
H1668 H 0.10573 0.48901 0.03807 0.0
H1669 H 0.13571 0.50676 0.99765 0.0
H1670 H 0.20346 0.58642 0.01918 0.0
H1671 H 0.15817 0.60915 0.00393 0.0
Li1672 Li 0.70592 0.89999 0.32638 0.0
Li1673 Li 0.68649 0.90973 0.30428 0.0
Li1674 Li 0.68797 0.87968 0.31406 0.0
Li1675 Li 0.70958 0.89193 0.29839 0.0
C1676 C 0.67551 0.90642 0.34108 0.0
N1677 N 0.66311 0.91965 0.37007 0.0
C1678 C 0.67251 0.92344 0.34229 0.0
C1679 C 0.67185 0.89606 0.35449 0.0
C1680 C 0.66635 0.92991 0.35709 0.0
C1681 C 0.66569 0.903 0.36907 0.0
C1682 C 0.72259 0.92212 0.29988 0.0
C1683 C 0.73408 0.93981 0.27878 0.0
N1684 N 0.74923 0.9364 0.28464 0.0
C1685 C 0.73828 0.91879 0.30568 0.0
C1686 C 0.72046 0.93272 0.28633 0.0
C1687 C 0.75158 0.92613 0.29781 0.0
C1688 C 0.73269 0.90042 0.34785 0.0
N1689 N 0.71842 0.9082 0.3443 0.0
C1690 C 0.72795 0.93332 0.35657 0.0
C1691 C 0.71565 0.92414 0.349 0.0
C1692 C 0.74329 0.92607 0.35884 0.0
C1693 C 0.74538 0.9092 0.3552 0.0
H1694 H 0.73499 0.88808 0.34321 0.0
H1695 H 0.70464 0.93034 0.34518 0.0
C1696 C 0.65908 0.92296 0.28826 0.0
N1697 N 0.67307 0.92697 0.29628 0.0
C1698 C 0.64989 0.93529 0.28052 0.0
C1699 C 0.66935 0.95568 0.29007 0.0
C1700 C 0.67816 0.94295 0.29761 0.0
C1701 C 0.65517 0.95188 0.2811 0.0
H1702 H 0.65535 0.91011 0.28745 0.0
H1703 H 0.68933 0.94573 0.30413 0.0
C1704 C 0.71388 0.8652 0.32946 0.0
N1705 N 0.71768 0.83987 0.35226 0.0
C1706 C 0.7219 0.85058 0.32496 0.0
C1707 C 0.70778 0.86691 0.34555 0.0
C1708 C 0.7237 0.83792 0.33666 0.0
C1709 C 0.70984 0.85398 0.3569 0.0
C1710 C 0.68807 0.88347 0.27518 0.0
C1711 C 0.6945 0.86775 0.27197 0.0
C1712 C 0.68332 0.89361 0.26197 0.0
C1713 C 0.69618 0.86245 0.25555 0.0
C1714 C 0.68516 0.88786 0.24572 0.0
N1715 N 0.69151 0.87253 0.24288 0.0
C1716 C 0.65946 0.86227 0.32249 0.0
C1717 C 0.68069 0.84594 0.31116 0.0
C1718 C 0.6487 0.8489 0.32149 0.0
N1719 N 0.67496 0.86064 0.31693 0.0
C1720 C 0.67037 0.83232 0.30983 0.0
C1721 C 0.65397 0.83385 0.31447 0.0
H1722 H 0.65521 0.8742 0.32686 0.0
H1723 H 0.69301 0.84506 0.30662 0.0
C1724 C 0.73885 0.87837 0.28636 0.0
N1725 N 0.72614 0.88833 0.28225 0.0
C1726 C 0.75159 0.87592 0.27519 0.0
C1727 C 0.73804 0.89428 0.2559 0.0
C1728 C 0.72559 0.89635 0.26743 0.0
C1729 C 0.75126 0.88391 0.25971 0.0
H1730 H 0.7392 0.8725 0.29841 0.0
H1731 H 0.71554 0.9045 0.2646 0.0
O1732 O 0.68134 0.89984 0.32661 0.0
O1733 O 0.70941 0.91489 0.30731 0.0
O1734 O 0.71163 0.87752 0.318 0.0
O1735 O 0.68648 0.88894 0.29116 0.0
H1736 H 0.67508 0.9316 0.33197 0.0
H1737 H 0.67362 0.88279 0.35361 0.0
H1738 H 0.66412 0.94309 0.35824 0.0
H1739 H 0.66288 0.89515 0.37957 0.0
H1740 H 0.73261 0.94797 0.26823 0.0
H1741 H 0.7402 0.91043 0.31596 0.0
H1742 H 0.70844 0.93524 0.2815 0.0
H1743 H 0.76379 0.92361 0.30214 0.0
H1744 H 0.72602 0.94641 0.35893 0.0
H1745 H 0.75712 0.90329 0.35668 0.0
H1746 H 0.6389 0.93185 0.27396 0.0
H1747 H 0.67393 0.96826 0.29073 0.0
H1748 H 0.72652 0.84895 0.3125 0.0
H1749 H 0.70165 0.87815 0.34925 0.0
H1750 H 0.72983 0.82653 0.33332 0.0
H1751 H 0.70521 0.85517 0.3694 0.0
H1752 H 0.69845 0.85985 0.28202 0.0
H1753 H 0.67844 0.90587 0.2642 0.0
H1754 H 0.70125 0.85036 0.25288 0.0
H1755 H 0.6816 0.8956 0.23537 0.0
H1756 H 0.63621 0.85058 0.32537 0.0
H1757 H 0.67496 0.82112 0.30406 0.0
H1758 H 0.76165 0.86798 0.27869 0.0
H1759 H 0.73719 0.90052 0.24404 0.0
Li1760 Li 0.34418 0.4526 0.57758 0.0
Li1761 Li 0.36566 0.43725 0.56558 0.0
Li1762 Li 0.35694 0.46415 0.55312 0.0
Li1763 Li 0.33947 0.43853 0.55179 0.0
C1764 C 0.3731 0.4718 0.5853 0.0
N1765 N 0.38548 0.49593 0.60615 0.0
C1766 C 0.38368 0.46744 0.59817 0.0
C1767 C 0.36904 0.48847 0.58288 0.0
C1768 C 0.38974 0.47981 0.60863 0.0
C1769 C 0.37537 0.50048 0.59359 0.0
C1770 C 0.34663 0.41988 0.58816 0.0
C1771 C 0.34171 0.39614 0.60567 0.0
N1772 N 0.35119 0.40305 0.61766 0.0
C1773 C 0.35626 0.42677 0.60068 0.0
C1774 C 0.33924 0.40447 0.59068 0.0
C1775 C 0.35844 0.41806 0.6155 0.0
C1776 C 0.3176 0.45079 0.59795 0.0
N1777 N 0.33219 0.45862 0.59684 0.0
C1778 C 0.32378 0.47898 0.61647 0.0
C1779 C 0.3358 0.47188 0.60657 0.0
C1780 C 0.30792 0.47249 0.61608 0.0
C1781 C 0.30515 0.45761 0.60746 0.0
H1782 H 0.31507 0.44027 0.59002 0.0
H1783 H 0.34751 0.47777 0.60577 0.0
C1784 C 0.39805 0.4309 0.56066 0.0
N1785 N 0.38462 0.42409 0.56769 0.0
C1786 C 0.41216 0.42152 0.55877 0.0
C1787 C 0.39867 0.39859 0.57234 0.0
C1788 C 0.38471 0.40833 0.5737 0.0
C1789 C 0.41252 0.40498 0.56434 0.0
H1790 H 0.39748 0.44336 0.55571 0.0
H1791 H 0.3738 0.40302 0.57889 0.0
C1792 C 0.32001 0.46974 0.56224 0.0
N1793 N 0.29254 0.48601 0.57345 0.0
C1794 C 0.30485 0.46191 0.5616 0.0
C1795 C 0.32114 0.48595 0.56831 0.0
C1796 C 0.29112 0.47033 0.56737 0.0
C1797 C 0.30713 0.49392 0.57402 0.0
C1798 C 0.36635 0.42987 0.5319 0.0
C1799 C 0.37612 0.43322 0.51812 0.0
C1800 C 0.36227 0.41347 0.53572 0.0
C1801 C 0.38162 0.42007 0.50833 0.0
C1802 C 0.36802 0.40066 0.52563 0.0
N1803 N 0.37749 0.4042 0.51225 0.0
C1804 C 0.37828 0.48896 0.54067 0.0
C1805 C 0.35112 0.48963 0.53076 0.0
C1806 C 0.38248 0.5022 0.53034 0.0
N1807 N 0.36284 0.48295 0.54057 0.0
C1808 C 0.35481 0.50277 0.52016 0.0
C1809 C 0.37071 0.50907 0.51973 0.0
H1810 H 0.38736 0.48324 0.54853 0.0
H1811 H 0.33897 0.48448 0.53091 0.0
C1812 C 0.31805 0.41285 0.54145 0.0
N1813 N 0.32429 0.42803 0.53782 0.0
C1814 C 0.30635 0.40575 0.53108 0.0
C1815 C 0.30782 0.43008 0.51355 0.0
C1816 C 0.31953 0.43665 0.52419 0.0
C1817 C 0.30101 0.41447 0.51698 0.0
H1818 H 0.32206 0.40635 0.55245 0.0
H1819 H 0.32475 0.44872 0.52171 0.0
O1820 O 0.36732 0.45986 0.57477 0.0
O1821 O 0.34425 0.42817 0.57353 0.0
O1822 O 0.33365 0.46154 0.55701 0.0
O1823 O 0.36121 0.44258 0.54183 0.0
H1824 H 0.38722 0.45464 0.60002 0.0
H1825 H 0.36102 0.49212 0.57292 0.0
H1826 H 0.39787 0.4766 0.61868 0.0
H1827 H 0.37224 0.51341 0.59192 0.0
H1828 H 0.3361 0.38419 0.60777 0.0
H1829 H 0.36195 0.4387 0.59901 0.0
H1830 H 0.3317 0.39899 0.58113 0.0
H1831 H 0.36588 0.42324 0.62528 0.0
H1832 H 0.32659 0.49015 0.62338 0.0
H1833 H 0.29314 0.45216 0.6067 0.0
H1834 H 0.42232 0.42695 0.55219 0.0
H1835 H 0.39841 0.38599 0.57701 0.0
H1836 H 0.30374 0.44937 0.55694 0.0
H1837 H 0.33273 0.49225 0.56877 0.0
H1838 H 0.27934 0.46436 0.5671 0.0
H1839 H 0.30787 0.5064 0.57893 0.0
H1840 H 0.37946 0.44586 0.51509 0.0
H1841 H 0.3549 0.41064 0.54646 0.0
H1842 H 0.3892 0.42247 0.49763 0.0
H1843 H 0.365 0.38791 0.52846 0.0
H1844 H 0.39493 0.50658 0.53019 0.0
H1845 H 0.34539 0.50779 0.51222 0.0
H1846 H 0.3013 0.39375 0.53423 0.0
H1847 H 0.30421 0.43709 0.50269 0.0
Li1848 Li 0.18458 0.6206 0.68142 0.0
Li1849 Li 0.20784 0.61082 0.69936 0.0
Li1850 Li 0.19987 0.59606 0.67418 0.0
Li1851 Li 0.18256 0.59407 0.69853 0.0
C1852 C 0.21822 0.62149 0.66311 0.0
N1853 N 0.23881 0.62488 0.63627 0.0
C1854 C 0.23503 0.62225 0.66554 0.0
C1855 C 0.21186 0.62265 0.64708 0.0
C1856 C 0.24524 0.62391 0.65179 0.0
C1857 C 0.22248 0.62431 0.63366 0.0
C1858 C 0.18476 0.62575 0.72074 0.0
C1859 C 0.18609 0.62633 0.75062 0.0
N1860 N 0.18375 0.64304 0.75031 0.0
C1861 C 0.18225 0.64291 0.72071 0.0
C1862 C 0.18658 0.61736 0.73579 0.0
C1863 C 0.18182 0.65143 0.7358 0.0
C1864 C 0.1567 0.63993 0.67698 0.0
N1865 N 0.17314 0.63984 0.6755 0.0
C1866 C 0.17384 0.6693 0.67303 0.0
C1867 C 0.18174 0.65399 0.67296 0.0
C1868 C 0.15697 0.66995 0.67582 0.0
C1869 C 0.14829 0.65497 0.67704 0.0
H1870 H 0.15028 0.62843 0.67924 0.0
H1871 H 0.19486 0.65347 0.67219 0.0
C1872 C 0.23815 0.60561 0.7138 0.0
N1873 N 0.22578 0.61675 0.71292 0.0
C1874 C 0.25115 0.60826 0.72459 0.0
C1875 C 0.23894 0.63434 0.73263 0.0
C1876 C 0.22616 0.63116 0.72168 0.0
C1877 C 0.25148 0.62262 0.73444 0.0
H1878 H 0.23776 0.59447 0.70634 0.0
H1879 H 0.2164 0.64003 0.72044 0.0
C1880 C 0.16751 0.59254 0.66193 0.0
N1881 N 0.1505 0.58047 0.63496 0.0
C1882 C 0.16052 0.57674 0.66254 0.0
C1883 C 0.16565 0.60231 0.64773 0.0
C1884 C 0.15202 0.57083 0.64874 0.0
C1885 C 0.15706 0.59594 0.63419 0.0
C1886 C 0.20916 0.57325 0.70503 0.0
C1887 C 0.21136 0.55797 0.69712 0.0
C1888 C 0.21106 0.5744 0.72222 0.0
C1889 C 0.21528 0.54403 0.70662 0.0
C1890 C 0.21499 0.56017 0.73127 0.0
N1891 N 0.21699 0.5454 0.72335 0.0
C1892 C 0.22608 0.58058 0.66109 0.0
C1893 C 0.20209 0.57254 0.64687 0.0
C1894 C 0.23493 0.56815 0.65328 0.0
N1895 N 0.20993 0.58236 0.65804 0.0
C1896 C 0.21044 0.55964 0.639 0.0
C1897 C 0.22696 0.55714 0.64255 0.0
H1898 H 0.23182 0.58803 0.67057 0.0
H1899 H 0.18924 0.57394 0.64476 0.0
C1900 C 0.1574 0.58742 0.72133 0.0
N1901 N 0.16846 0.58031 0.71101 0.0
C1902 C 0.14685 0.57751 0.7306 0.0
C1903 C 0.15925 0.55319 0.7184 0.0
C1904 C 0.1694 0.56356 0.70922 0.0
C1905 C 0.1478 0.56017 0.72923 0.0
H1906 H 0.15675 0.60078 0.7223 0.0
H1907 H 0.1779 0.55825 0.70051 0.0
O1908 O 0.20805 0.61972 0.6764 0.0
O1909 O 0.1852 0.61721 0.70608 0.0
O1910 O 0.17569 0.5986 0.67538 0.0
O1911 O 0.20535 0.58704 0.69592 0.0
H1912 H 0.24012 0.62144 0.6779 0.0
H1913 H 0.19888 0.62221 0.64503 0.0
H1914 H 0.25828 0.62442 0.65346 0.0
H1915 H 0.21773 0.62514 0.62116 0.0
H1916 H 0.18753 0.62001 0.76237 0.0
H1917 H 0.18073 0.64958 0.70918 0.0
H1918 H 0.18826 0.60406 0.73604 0.0
H1919 H 0.17994 0.66472 0.73597 0.0
H1920 H 0.18106 0.68051 0.67229 0.0
H1921 H 0.13527 0.65491 0.67903 0.0
H1922 H 0.26072 0.59906 0.72539 0.0
H1923 H 0.23868 0.64554 0.74005 0.0
H1924 H 0.16174 0.5691 0.6735 0.0
H1925 H 0.1707 0.61469 0.64721 0.0
H1926 H 0.14663 0.55859 0.64898 0.0
H1927 H 0.15557 0.60333 0.62308 0.0
H1928 H 0.2099 0.55685 0.68383 0.0
H1929 H 0.20962 0.58616 0.72849 0.0
H1930 H 0.21695 0.53211 0.70068 0.0
H1931 H 0.21649 0.56087 0.74459 0.0
H1932 H 0.24758 0.56638 0.65657 0.0
H1933 H 0.20394 0.55131 0.6308 0.0
H1934 H 0.13815 0.58332 0.73884 0.0
H1935 H 0.16012 0.53987 0.7168 0.0
Li1936 Li 0.64184 0.96554 0.94745 0.0
Li1937 Li 0.65845 0.93871 0.94615 0.0
Li1938 Li 0.65208 0.95436 0.92137 0.0
Li1939 Li 0.63113 0.94013 0.9348 0.0
C1940 C 0.67848 0.96893 0.93466 0.0
N1941 N 0.70611 0.98307 0.92118 0.0
C1942 C 0.69277 0.95964 0.93321 0.0
C1943 C 0.67828 0.98543 0.9293 0.0
C1944 C 0.70659 0.96701 0.92633 0.0
C1945 C 0.69236 0.99235 0.92254 0.0
C1946 C 0.62811 0.93256 0.96636 0.0
C1947 C 0.62226 0.90478 0.97579 0.0
N1948 N 0.60738 0.90992 0.98107 0.0
C1949 C 0.6128 0.93759 0.97197 0.0
C1950 C 0.63291 0.91604 0.96833 0.0
C1951 C 0.60248 0.92595 0.97933 0.0
C1952 C 0.62278 0.98683 0.96728 0.0
N1953 N 0.63794 0.98415 0.9612 0.0
C1954 C 0.64843 0.00708 0.97663 0.0
C1955 C 0.65065 0.99401 0.96552 0.0
C1956 C 0.63306 0.00974 0.98379 0.0
C1957 C 0.62007 -0.0005 0.97876 0.0
H1958 H 0.61289 0.97881 0.96356 0.0
H1959 H 0.66262 0.99151 0.96061 0.0
C1960 C 0.67978 0.91172 0.9539 0.0
N1961 N 0.67449 0.92712 0.95815 0.0
C1962 C 0.69218 0.90414 0.96306 0.0
C1963 C 0.69333 0.92847 0.98061 0.0
C1964 C 0.68089 0.9355 0.97122 0.0
C1965 C 0.69918 0.91263 0.97653 0.0
H1966 H 0.67447 0.90542 0.94336 0.0
H1967 H 0.67639 0.94775 0.97423 0.0
C1968 C 0.62425 0.97599 0.91723 0.0
N1969 N 0.61215 0.00224 0.89891 0.0
C1970 C 0.61299 0.97315 0.90453 0.0
C1971 C 0.62918 0.99223 0.92074 0.0
C1972 C 0.60708 0.98657 0.89537 0.0
C1973 C 0.62297 0.00531 0.9113 0.0
C1974 C 0.6463 0.92199 0.91029 0.0
C1975 C 0.63649 0.93009 0.89869 0.0
C1976 C 0.65143 0.90574 0.90723 0.0
C1977 C 0.63194 0.9218 0.88419 0.0
C1978 C 0.64663 0.89786 0.89258 0.0
N1979 N 0.63706 0.90599 0.88146 0.0
C1980 C 0.67594 0.95124 0.89734 0.0
C1981 C 0.65971 0.97521 0.89342 0.0
C1982 C 0.68777 0.95744 0.88661 0.0
N1983 N 0.6627 0.96057 0.90122 0.0
C1984 C 0.67118 0.98185 0.88258 0.0
C1985 C 0.68584 0.97336 0.87986 0.0
H1986 H 0.67813 0.93973 0.90388 0.0
H1987 H 0.64919 0.98245 0.89655 0.0
C1988 C 0.59751 0.9376 0.93193 0.0
N1989 N 0.61131 0.92837 0.93248 0.0
C1990 C 0.58235 0.92991 0.93229 0.0
C1991 C 0.5959 0.90329 0.93341 0.0
C1992 C 0.61084 0.91152 0.93287 0.0
C1993 C 0.58142 0.91255 0.93339 0.0
H1994 H 0.5983 0.951 0.93194 0.0
H1995 H 0.62204 0.90452 0.93345 0.0
O1996 O 0.66476 0.96185 0.94119 0.0
O1997 O 0.63815 0.9436 0.95854 0.0
O1998 O 0.62985 0.96301 0.92656 0.0
O1999 O 0.65078 0.92975 0.92468 0.0
H2000 H 0.69315 0.94682 0.93717 0.0
H2001 H 0.66732 0.99278 0.9302 0.0
H2002 H 0.7177 0.95993 0.92503 0.0
H2003 H 0.69235 0.0051 0.91833 0.0
H2004 H 0.62578 0.89194 0.97729 0.0
H2005 H 0.60883 0.95028 0.97043 0.0
H2006 H 0.64463 0.91188 0.96391 0.0
H2007 H 0.59055 0.92964 0.9836 0.0
H2008 H 0.65876 0.01478 0.97979 0.0
H2009 H 0.60806 0.00075 0.98407 0.0
H2010 H 0.69643 0.89194 0.95947 0.0
H2011 H 0.69822 0.93532 0.99105 0.0
H2012 H 0.6088 0.96071 0.90182 0.0
H2013 H 0.63786 0.99472 0.93047 0.0
H2014 H 0.5984 0.98453 0.88548 0.0
H2015 H 0.62678 0.01792 0.91381 0.0
H2016 H 0.63246 0.94265 0.90082 0.0
H2017 H 0.659 0.89927 0.91611 0.0
H2018 H 0.62435 0.92794 0.87511 0.0
H2019 H 0.6505 0.88528 0.89006 0.0
H2020 H 0.69895 0.95054 0.88492 0.0
H2021 H 0.66915 0.99407 0.87737 0.0
H2022 H 0.5715 0.93752 0.93258 0.0
H2023 H 0.59566 0.88987 0.93424 0.0
Li2024 Li 0.85276 0.04072 0.45244 0.0
Li2025 Li 0.83657 0.06576 0.44771 0.0
Li2026 Li 0.84473 0.04713 0.42449 0.0
Li2027 Li 0.86542 0.06395 0.4378 0.0
C2028 C 0.81991 0.03005 0.4468 0.0
N2029 N 0.79789 0.0048 0.45267 0.0
C2030 C 0.80768 0.03207 0.45867 0.0
C2031 C 0.82086 0.01522 0.43784 0.0
C2032 C 0.79672 0.01913 0.46151 0.0
C2033 C 0.80962 0.00261 0.44098 0.0
C2034 C 0.85918 0.06036 0.47735 0.0
C2035 C 0.87714 0.05375 0.50007 0.0
N2036 N 0.86407 0.05224 0.51029 0.0
C2037 C 0.84592 0.05875 0.48808 0.0
C2038 C 0.87492 0.05786 0.48338 0.0
C2039 C 0.84865 0.05465 0.50469 0.0
C2040 C 0.87141 0.01558 0.46788 0.0
N2041 N 0.85664 0.02316 0.46794 0.0
C2042 C 0.84754 0.00559 0.48995 0.0
C2043 C 0.84486 0.01856 0.47882 0.0
C2044 C 0.86251 0.99716 0.48986 0.0
C2045 C 0.87455 0.00238 0.47863 0.0
H2046 H 0.88074 0.01973 0.45941 0.0
H2047 H 0.83344 0.02514 0.47908 0.0
C2048 C 0.80444 0.0771 0.45206 0.0
N2049 N 0.8202 0.07954 0.45651 0.0
C2050 C 0.79208 0.08604 0.45987 0.0
C2051 C 0.81251 0.10014 0.47625 0.0
C2052 C 0.82446 0.09101 0.46807 0.0
C2053 C 0.79606 0.09748 0.47239 0.0
H2054 H 0.80147 0.06785 0.44281 0.0
H2055 H 0.83712 0.0927 0.47127 0.0
C2056 C 0.87385 0.02711 0.425 0.0
N2057 N 0.88856 0.00048 0.40951 0.0
C2058 C 0.88762 0.02956 0.41516 0.0
C2059 C 0.86766 0.01109 0.42711 0.0
C2060 C 0.89486 0.01594 0.40738 0.0
C2061 C 0.87525 0.99779 0.41914 0.0
C2062 C 0.84954 0.07794 0.40992 0.0
C2063 C 0.86161 0.07023 0.40047 0.0
C2064 C 0.84139 0.09176 0.40357 0.0
C2065 C 0.8654 0.07656 0.38481 0.0
C2066 C 0.84554 0.09772 0.38785 0.0
N2067 N 0.85736 0.09006 0.37888 0.0
C2068 C 0.8198 0.03972 0.40344 0.0
C2069 C 0.84433 0.0266 0.39536 0.0
C2070 C 0.81083 0.02928 0.39318 0.0
N2071 N 0.83609 0.03756 0.40501 0.0
C2072 C 0.83581 0.01565 0.38516 0.0
C2073 C 0.81873 0.01632 0.38474 0.0
H2074 H 0.81361 0.04863 0.41126 0.0
H2075 H 0.85733 0.02541 0.39646 0.0
C2076 C 0.89824 0.06919 0.4427 0.0
N2077 N 0.88489 0.07614 0.43569 0.0
C2078 C 0.91252 0.07835 0.44435 0.0
C2079 C 0.89945 0.10116 0.43013 0.0
C2080 C 0.88526 0.09169 0.42919 0.0
C2081 C 0.91319 0.09476 0.43836 0.0
H2082 H 0.89752 0.05679 0.44778 0.0
H2083 H 0.87441 0.09701 0.42384 0.0
O2084 O 0.8305 0.04277 0.44363 0.0
O2085 O 0.85671 0.06392 0.46095 0.0
O2086 O 0.86663 0.04035 0.43264 0.0
O2087 O 0.84553 0.07192 0.42525 0.0
H2088 H 0.80676 0.04346 0.46572 0.0
H2089 H 0.83002 0.0135 0.42841 0.0
H2090 H 0.78725 0.0205 0.47073 0.0
H2091 H 0.81018 0.99111 0.43408 0.0
H2092 H 0.88926 0.05173 0.50489 0.0
H2093 H 0.83363 0.06031 0.48357 0.0
H2094 H 0.88531 0.05898 0.47526 0.0
H2095 H 0.83849 0.05327 0.51311 0.0
H2096 H 0.83806 0.00242 0.4987 0.0
H2097 H 0.88624 0.99626 0.47799 0.0
H2098 H 0.77953 0.08357 0.45662 0.0
H2099 H 0.81608 0.10902 0.48566 0.0
H2100 H 0.89263 0.04187 0.4135 0.0
H2101 H 0.85717 0.00892 0.43488 0.0
H2102 H 0.90548 0.01766 0.39967 0.0
H2103 H 0.87056 0.98534 0.42063 0.0
H2104 H 0.86798 0.05949 0.40516 0.0
H2105 H 0.83197 0.09782 0.41073 0.0
H2106 H 0.87473 0.07072 0.37737 0.0
H2107 H 0.83935 0.10843 0.38278 0.0
H2108 H 0.79773 0.03061 0.39279 0.0
H2109 H 0.84247 0.00595 0.37882 0.0
H2110 H 0.92253 0.07284 0.45108 0.0
H2111 H 0.8994 0.11355 0.42497 0.0
H2112 H 0.12082 0.21396 0.51816 0.0
H2113 H 0.11885 0.16831 0.48949 0.0
H2114 H 0.12995 0.18306 0.46533 0.0
H2115 H 0.10585 0.23914 0.48639 0.0
H2116 H 0.11815 0.25695 0.49144 0.0
H2117 H 0.11261 0.24242 0.50742 0.0
H2118 H 0.143 0.23797 0.51475 0.0
H2119 H 0.14864 0.25269 0.49893 0.0
H2120 H 0.15707 0.23205 0.49866 0.0
H2121 H 0.13915 0.20309 0.44365 0.0
H2122 H 0.14681 0.22688 0.4262 0.0
H2123 H 0.13967 0.25997 0.46818 0.0
C2124 C 0.12288 0.20697 0.50689 0.0
C2125 C 0.11903 0.1899 0.50587 0.0
C2126 C 0.12206 0.18127 0.49083 0.0
C2127 C 0.12821 0.18958 0.47693 0.0
C2128 C 0.13117 0.20653 0.47821 0.0
C2129 C 0.12869 0.21512 0.49282 0.0
C2130 C 0.13163 0.23352 0.49057 0.0
C2131 C 0.11614 0.24359 0.49417 0.0
C2132 C 0.14594 0.2394 0.50137 0.0
C2133 C 0.13592 0.23394 0.47233 0.0
C2134 C 0.13575 0.21823 0.46549 0.0
C2135 C 0.1393 0.21548 0.44885 0.0
C2136 C 0.14341 0.22914 0.43898 0.0
C2137 C 0.1437 0.2454 0.44573 0.0
C2138 C 0.13972 0.24774 0.46262 0.0
H2139 H 0.98688 0.87169 0.7091 0.0
H2140 H 0.00776 0.91826 0.69255 0.0
H2141 H 0.02893 0.91617 0.71414 0.0
H2142 H 0.99508 0.87716 0.75356 0.0
H2143 H 0.00027 0.85565 0.7567 0.0
H2144 H 0.9859 0.86135 0.74079 0.0
H2145 H 0.00339 0.84617 0.71876 0.0
H2146 H 0.01773 0.84037 0.73461 0.0
H2147 H 0.02455 0.85157 0.71655 0.0
H2148 H 0.04869 0.90839 0.73609 0.0
H2149 H 0.06655 0.89467 0.75661 0.0
H2150 H 0.03316 0.85307 0.75897 0.0
C2151 C 0.99583 0.88149 0.71021 0.0
C2152 C 0.99581 0.89508 0.69919 0.0
C2153 C 0.00775 0.90764 0.70081 0.0
C2154 C 0.01972 0.90664 0.71309 0.0
C2155 C 0.01956 0.89301 0.72367 0.0
C2156 C 0.008 0.8806 0.72235 0.0
C2157 C 0.01128 0.86677 0.73462 0.0
C2158 C 0.9973 0.86515 0.74716 0.0
C2159 C 0.01443 0.85025 0.72559 0.0
C2160 C 0.02658 0.87326 0.74285 0.0
C2161 C 0.03105 0.88849 0.73643 0.0
C2162 C 0.04524 0.89655 0.74136 0.0
C2163 C 0.05531 0.88869 0.75297 0.0
C2164 C 0.05111 0.87295 0.75946 0.0
C2165 C 0.03643 0.8653 0.75451 0.0
H2166 H 0.36488 0.75281 0.94638 0.0
H2167 H 0.36333 0.70874 0.97751 0.0
H2168 H 0.36986 0.72598 0.00189 0.0
H2169 H 0.4 0.77105 0.96727 0.0
H2170 H 0.39251 0.79184 0.96417 0.0
H2171 H 0.38757 0.7758 0.94945 0.0
H2172 H 0.35694 0.78224 0.95358 0.0
H2173 H 0.36175 0.79795 0.96868 0.0
H2174 H 0.34829 0.78115 0.9741 0.0
H2175 H 0.37435 0.74877 0.02322 0.0
H2176 H 0.38136 0.774 0.03894 0.0
H2177 H 0.38367 0.80174 0.9927 0.0
C2178 C 0.36637 0.7465 0.95813 0.0
C2179 C 0.3634 0.72929 0.95986 0.0
C2180 C 0.36513 0.72192 0.97577 0.0
C2181 C 0.3689 0.73161 0.98973 0.0
C2182 C 0.37125 0.74858 0.98754 0.0
C2183 C 0.37049 0.75585 0.97205 0.0
C2184 C 0.37407 0.77422 0.97284 0.0
C2185 C 0.38945 0.77847 0.96285 0.0
C2186 C 0.35938 0.78449 0.96695 0.0
C2187 C 0.37682 0.77622 0.99125 0.0
C2188 C 0.37487 0.76139 -0.00042 0.0
C2189 C 0.37626 0.76038 0.01677 0.0
C2190 C 0.38032 0.77482 0.02558 0.0
C2191 C 0.38334 0.79 0.01715 0.0
C2192 C 0.38126 0.79059 -0.00026 0.0
H2193 H 0.49399 0.10701 0.19253 0.0
H2194 H 0.5359 0.13472 0.20978 0.0
H2195 H 0.51975 0.14535 0.23347 0.0
H2196 H 0.46286 0.13711 0.2044 0.0
H2197 H 0.44875 0.12117 0.2106 0.0
H2198 H 0.46334 0.11707 0.19446 0.0
H2199 H 0.47369 0.09151 0.21091 0.0
H2200 H 0.45935 0.09571 0.22725 0.0
H2201 H 0.48073 0.09418 0.23192 0.0
H2202 H 0.49916 0.15208 0.25564 0.0
H2203 H 0.47543 0.1556 0.27394 0.0
H2204 H 0.44767 0.12187 0.24284 0.0
C2205 C 0.49962 0.1157 0.20103 0.0
C2206 C 0.51606 0.12033 0.19926 0.0
C2207 C 0.52323 0.13122 0.21092 0.0
C2208 C 0.51419 0.13724 0.22439 0.0
C2209 C 0.49809 0.13207 0.22602 0.0
C2210 C 0.49085 0.12162 0.2146 0.0
C2211 C 0.47363 0.11732 0.21954 0.0
C2212 C 0.46143 0.12354 0.20647 0.0
C2213 C 0.47175 0.09857 0.22259 0.0
C2214 C 0.47227 0.12701 0.23553 0.0
C2215 C 0.48648 0.13545 0.23905 0.0
C2216 C 0.48799 0.14546 0.25305 0.0
C2217 C 0.47448 0.14721 0.26349 0.0
C2218 C 0.45967 0.13892 0.25992 0.0
C2219 C 0.45876 0.12845 0.24589 0.0
H2220 H 0.61971 0.24706 0.55114 0.0
H2221 H 0.65579 0.2197 0.52285 0.0
H2222 H 0.65016 0.23718 0.4985 0.0
H2223 H 0.59154 0.25596 0.51671 0.0
H2224 H 0.5873 0.27653 0.52435 0.0
H2225 H 0.59235 0.26014 0.53867 0.0
H2226 H 0.61577 0.27819 0.55047 0.0
H2227 H 0.61097 0.29449 0.53602 0.0
H2228 H 0.63121 0.28594 0.53662 0.0
H2229 H 0.64223 0.25928 0.47778 0.0
H2230 H 0.63201 0.2839 0.46249 0.0
H2231 H 0.60297 0.29761 0.50525 0.0
C2232 C 0.62629 0.24456 0.53978 0.0
C2233 C 0.63809 0.23186 0.53896 0.0
C2234 C 0.64637 0.22903 0.52377 0.0
C2235 C 0.64339 0.23902 0.50986 0.0
C2236 C 0.63213 0.25181 0.51133 0.0
C2237 C 0.62364 0.25454 0.52589 0.0
C2238 C 0.61311 0.26985 0.5247 0.0
C2239 C 0.595 0.26534 0.52619 0.0
C2240 C 0.61807 0.28288 0.53772 0.0
C2241 C 0.61728 0.2755 0.50736 0.0
C2242 C 0.6281 0.26487 0.49972 0.0
C2243 C 0.6337 0.26767 0.48362 0.0
C2244 C 0.62791 0.28166 0.47506 0.0
C2245 C 0.6169 0.29271 0.48279 0.0
C2246 C 0.61161 0.28954 0.49914 0.0
H2247 H 0.95825 0.37829 0.73975 0.0
H2248 H 0.92264 0.3528 0.77019 0.0
H2249 H 0.94035 0.35621 0.79469 0.0
H2250 H 0.99329 0.36112 0.75834 0.0
H2251 H 0.0052 0.37987 0.75745 0.0
H2252 H 0.98943 0.37628 0.74236 0.0
H2253 H 0.97572 0.40418 0.75015 0.0
H2254 H 0.99165 0.40802 0.765 0.0
H2255 H 0.97069 0.4083 0.77153 0.0
H2256 H 0.96282 0.36039 0.81529 0.0
H2257 H 0.98697 0.36846 0.83158 0.0
H2258 H 0.00726 0.39245 0.78796 0.0
C2259 C 0.95411 0.37369 0.75164 0.0
C2260 C 0.93905 0.36543 0.75316 0.0
C2261 C 0.93401 0.35946 0.76887 0.0
C2262 C 0.94405 0.36117 0.7828 0.0
C2263 C 0.95901 0.369 0.78081 0.0
C2264 C 0.9639 0.37545 0.76572 0.0
C2265 C 0.98052 0.3834 0.76699 0.0
C2266 C 0.99283 0.37464 0.75561 0.0
C2267 C 0.97958 0.40208 0.7632 0.0
C2268 C 0.98427 0.38023 0.78509 0.0
C2269 C 0.97179 0.37178 0.79281 0.0
C2270 C 0.9726 0.36722 0.80945 0.0
C2271 C 0.98636 0.37188 0.8186 0.0
C2272 C -0.00097 0.38117 0.81112 0.0
C2273 C 0.99798 0.38513 0.79406 0.0
H2274 H 0.86268 0.75999 0.03139 0.0
H2275 H 0.85331 0.72715 0.07307 0.0
H2276 H 0.86143 0.70319 0.05607 0.0
H2277 H 0.84622 0.73275 0.00043 0.0
H2278 H 0.86102 0.73829 0.9849 0.0
H2279 H 0.8553 0.75311 0.00058 0.0
H2280 H 0.88549 0.75641 0.00926 0.0
H2281 H 0.89132 0.74175 0.99348 0.0
H2282 H 0.89711 0.73825 0.01477 0.0
H2283 H 0.87041 0.6828 0.03459 0.0
H2284 H 0.88099 0.66752 0.01047 0.0
H2285 H 0.88204 0.71334 0.98204 0.0
C2286 C 0.86232 0.74778 0.03697 0.0
C2287 C 0.85749 0.74554 0.05365 0.0
C2288 C 0.85735 0.72931 0.06047 0.0
C2289 C 0.86173 0.71556 0.05085 0.0
C2290 C 0.86607 0.71821 0.03438 0.0
C2291 C 0.86645 0.7339 0.0275 0.0
C2292 C 0.87139 0.73333 0.00943 0.0
C2293 C 0.85766 0.73975 0.99818 0.0
C2294 C 0.88727 0.743 0.00658 0.0
C2295 C 0.87388 0.71486 0.0073 0.0
C2296 C 0.87072 0.70636 0.02182 0.0
C2297 C 0.87277 0.68927 0.02307 0.0
C2298 C 0.87861 0.68067 0.00921 0.0
C2299 C 0.88226 0.68917 0.99426 0.0
C2300 C 0.87947 0.70645 0.99328 0.0
H2301 H 0.55329 0.61949 0.25549 0.0
H2302 H 0.52506 0.65329 0.22496 0.0
H2303 H 0.50147 0.64937 0.24333 0.0
H2304 H 0.52024 0.59124 0.26527 0.0
H2305 H 0.52727 0.58781 0.28617 0.0
H2306 H 0.54161 0.59271 0.27002 0.0
H2307 H 0.55213 0.61752 0.28748 0.0
H2308 H 0.53762 0.61288 0.30355 0.0
H2309 H 0.53801 0.63323 0.29427 0.0
H2310 H 0.48127 0.64277 0.26575 0.0
H2311 H 0.46528 0.632 0.28942 0.0
H2312 H 0.50685 0.60283 0.30523 0.0
C2313 C 0.54212 0.62597 0.25259 0.0
C2314 C 0.54106 0.63667 0.23875 0.0
C2315 C 0.52615 0.64483 0.23533 0.0
C2316 C 0.5127 0.64283 0.24579 0.0
C2317 C 0.51433 0.63258 0.25958 0.0
C2318 C 0.52859 0.62413 0.26289 0.0
C2319 C 0.52719 0.61392 0.27856 0.0
C2320 C 0.52919 0.59532 0.27477 0.0
C2321 C 0.53947 0.61974 0.29174 0.0
C2322 C 0.50995 0.61802 0.28358 0.0
C2323 C 0.50274 0.62884 0.27252 0.0
C2324 C 0.48676 0.63425 0.27449 0.0
C2325 C 0.47779 0.62809 0.28794 0.0
C2326 C 0.48486 0.61669 0.2992 0.0
C2327 C 0.50121 0.61181 0.29705 0.0
H2328 H 0.25515 0.45401 0.11649 0.0
H2329 H 0.23997 0.44652 0.16742 0.0
H2330 H 0.22099 0.47023 0.16514 0.0
H2331 H 0.25312 0.49863 0.11606 0.0
H2332 H 0.24491 0.49985 0.09535 0.0
H2333 H 0.25772 0.48266 0.10112 0.0
H2334 H 0.23518 0.46193 0.09233 0.0
H2335 H 0.22241 0.47905 0.08633 0.0
H2336 H 0.21509 0.46396 0.10105 0.0
H2337 H 0.20425 0.49506 0.15748 0.0
H2338 H 0.18854 0.51743 0.14407 0.0
H2339 H 0.21319 0.50716 0.09749 0.0
C2340 C 0.24777 0.45742 0.12708 0.0
C2341 C 0.24886 0.44859 0.1421 0.0
C2342 C 0.23908 0.45319 0.15578 0.0
C2343 C 0.2284 0.46666 0.15464 0.0
C2344 C 0.2276 0.47523 0.13967 0.0
C2345 C 0.23682 0.47066 0.12605 0.0
C2346 C 0.23301 0.48142 0.11118 0.0
C2347 C 0.24809 0.49122 0.10561 0.0
C2348 C 0.226 0.47097 0.09688 0.0
C2349 C 0.22027 0.49276 0.11859 0.0
C2350 C 0.21748 0.48914 0.13508 0.0
C2351 C 0.20623 0.49795 0.14452 0.0
C2352 C 0.19731 0.51059 0.13677 0.0
C2353 C 0.19954 0.51412 0.11969 0.0
C2354 C 0.21136 0.50513 0.11063 0.0
H2355 H 0.69583 0.00473 0.8868 0.0
H2356 H 0.70801 0.96156 0.85714 0.0
H2357 H 0.73286 0.97587 0.8472 0.0
H2358 H 0.70938 0.03576 0.85819 0.0
H2359 H 0.71712 0.04915 0.87428 0.0
H2360 H 0.70036 0.03544 0.87858 0.0
H2361 H 0.71648 0.02278 0.90314 0.0
H2362 H 0.73342 0.03625 0.89879 0.0
H2363 H 0.73635 0.01409 0.89951 0.0
H2364 H 0.75596 0.9954 0.84019 0.0
H2365 H 0.77501 0.01859 0.83591 0.0
H2366 H 0.74826 0.04804 0.87186 0.0
C2367 C 0.70357 0.99835 0.87801 0.0
C2368 C 0.69993 0.98212 0.87256 0.0
C2369 C 0.71059 0.97404 0.86139 0.0
C2370 C 0.72471 0.98204 0.85574 0.0
C2371 C 0.72802 0.99799 0.86158 0.0
C2372 C 0.71773 0.00602 0.87246 0.0
C2373 C 0.72403 0.02303 0.87706 0.0
C2374 C 0.71201 0.03664 0.8717 0.0
C2375 C 0.7278 0.02409 0.89573 0.0
C2376 C 0.73941 0.02348 0.86683 0.0
C2377 C 0.74154 0.00892 0.85802 0.0
C2378 C 0.75452 0.00677 0.84717 0.0
C2379 C 0.76539 0.01999 0.84497 0.0
C2380 C 0.76325 0.03517 0.85364 0.0
C2381 C 0.75024 0.03668 0.86498 0.0
H2382 H 0.74734 0.9495 0.38313 0.0
H2383 H 0.77081 0.92738 0.34034 0.0
H2384 H 0.79285 0.94811 0.34213 0.0
H2385 H 0.75533 0.99095 0.37323 0.0
H2386 H 0.75935 0.99763 0.39418 0.0
H2387 H 0.74603 0.9803 0.39046 0.0
H2388 H 0.76376 0.96161 0.40939 0.0
H2389 H 0.77697 0.97898 0.41345 0.0
H2390 H 0.78526 0.9599 0.40542 0.0
H2391 H 0.81086 0.97283 0.34699 0.0
H2392 H 0.82535 0.9979 0.35666 0.0
H2393 H 0.79075 0.00276 0.39711 0.0
C2394 C 0.75731 0.94886 0.37439 0.0
C2395 C 0.75754 0.93679 0.36174 0.0
C2396 C 0.77065 0.93635 0.35034 0.0
C2397 C 0.78312 0.94815 0.35116 0.0
C2398 C 0.78235 0.96016 0.36354 0.0
C2399 C 0.76996 0.9604 0.37516 0.0
C2400 C 0.77191 0.97473 0.38709 0.0
C2401 C 0.75728 0.9866 0.38617 0.0
C2402 C 0.77464 0.96843 0.40489 0.0
C2403 C 0.78709 0.98269 0.38014 0.0
C2404 C 0.7929 0.97417 0.36653 0.0
C2405 C 0.80656 0.9795 0.35779 0.0
C2406 C 0.81471 0.99373 0.36338 0.0
C2407 C 0.80921 0.00239 0.37762 0.0
C2408 C 0.79514 0.99674 0.38597 0.0
H2409 H 0.25657 0.55532 0.62746 0.0
H2410 H 0.21694 0.52514 0.64606 0.0
H2411 H 0.23336 0.49981 0.64148 0.0
H2412 H 0.2703 0.52554 0.59539 0.0
H2413 H 0.29136 0.53085 0.59857 0.0
H2414 H 0.27578 0.54618 0.60198 0.0
H2415 H 0.28679 0.55076 0.63181 0.0
H2416 H 0.30212 0.53514 0.62862 0.0
H2417 H 0.2882 0.53335 0.64579 0.0
H2418 H 0.25527 0.47817 0.63749 0.0
H2419 H 0.27971 0.46151 0.63105 0.0
H2420 H 0.30427 0.50612 0.61411 0.0
C2421 C 0.25126 0.54333 0.6302 0.0
C2422 C 0.23552 0.54207 0.63698 0.0
C2423 C 0.22891 0.52625 0.64058 0.0
C2424 C 0.23819 0.51185 0.63816 0.0
C2425 C 0.25391 0.51356 0.63197 0.0
C2426 C 0.26026 0.52887 0.6277 0.0
C2427 C 0.27754 0.52739 0.62154 0.0
C2428 C 0.27881 0.53281 0.60329 0.0
C2429 C 0.28935 0.53725 0.63261 0.0
C2430 C 0.28007 0.50892 0.6234 0.0
C2431 C 0.26636 0.50113 0.62946 0.0
C2432 C 0.26602 0.48411 0.63252 0.0
C2433 C 0.27995 0.47476 0.62885 0.0
C2434 C 0.29398 0.48247 0.62214 0.0
C2435 C 0.29396 0.49982 0.61957 0.0
H2436 H 0.29848 0.38244 0.50572 0.0
H2437 H 0.27499 0.43061 0.50329 0.0
H2438 H 0.25421 0.41909 0.4844 0.0
H2439 H 0.29234 0.37136 0.4634 0.0
H2440 H 0.28856 0.34975 0.46767 0.0
H2441 H 0.30135 0.36167 0.48134 0.0
H2442 H 0.28306 0.35371 0.50629 0.0
H2443 H 0.27025 0.34171 0.4927 0.0
H2444 H 0.26155 0.35787 0.50536 0.0
H2445 H 0.2362 0.40241 0.46557 0.0
H2446 H 0.22245 0.38182 0.44772 0.0
H2447 H 0.25755 0.3445 0.46273 0.0
C2448 C 0.28886 0.39052 0.50136 0.0
C2449 C 0.28835 0.40742 0.50595 0.0
C2450 C 0.27571 0.41766 0.49977 0.0
C2451 C 0.26381 0.41121 0.48912 0.0
C2452 C 0.26472 0.39451 0.48478 0.0
C2453 C 0.27692 0.3843 0.49069 0.0
C2454 C 0.27531 0.36688 0.48386 0.0
C2455 C 0.29028 0.36215 0.47345 0.0
C2456 C 0.27236 0.3543 0.49789 0.0
C2457 C 0.26036 0.36893 0.4731 0.0
C2458 C 0.25439 0.38493 0.47387 0.0
C2459 C 0.24071 0.38982 0.46493 0.0
C2460 C 0.23294 0.37802 0.45489 0.0
C2461 C 0.23892 0.36156 0.45385 0.0
C2462 C 0.25279 0.35702 0.46314 0.0
H2463 H 0.89131 0.98477 0.71547 0.0
H2464 H 0.90036 0.01673 0.67312 0.0
H2465 H 0.88914 0.04055 0.68857 0.0
H2466 H 0.8535 0.00297 0.72719 0.0
H2467 H 0.85702 0.00101 0.74918 0.0
H2468 H 0.86629 0.98657 0.73501 0.0
H2469 H 0.89469 0.99378 0.74694 0.0
H2470 H 0.8855 0.00829 0.76114 0.0
H2471 H 0.90133 0.0151 0.74725 0.0
H2472 H 0.87663 0.06072 0.70828 0.0
H2473 H 0.86238 0.07577 0.7306 0.0
H2474 H 0.86167 0.03085 0.76035 0.0
C2475 C 0.89104 0.99681 0.70951 0.0
C2476 C 0.89664 0.99891 0.69308 0.0
C2477 C 0.89591 0.01481 0.68562 0.0
C2478 C 0.88969 0.02843 0.69433 0.0
C2479 C 0.88425 0.02595 0.71049 0.0
C2480 C 0.88479 0.01054 0.71801 0.0
C2481 C 0.87766 0.01117 0.73533 0.0
C2482 C 0.86273 -0.00025 0.73675 0.0
C2483 C 0.89057 0.00683 0.74844 0.0
C2484 C 0.87288 0.02929 0.73628 0.0
C2485 C 0.87693 0.03761 0.72188 0.0
C2486 C 0.87349 0.05438 0.71968 0.0
C2487 C 0.86549 0.06285 0.73247 0.0
C2488 C 0.86097 0.05452 0.74725 0.0
C2489 C 0.86489 0.03754 0.74917 0.0
H2490 H 0.25483 0.64933 0.96719 0.0
H2491 H 0.22569 0.65058 0.92229 0.0
H2492 H 0.20403 0.63483 0.93648 0.0
H2493 H 0.2436 0.60776 0.9799 0.0
H2494 H 0.24313 0.61284 0.00168 0.0
H2495 H 0.25648 0.624 0.98792 0.0
H2496 H 0.24357 0.65179 0.99733 0.0
H2497 H 0.23017 0.64072 0.01109 0.0
H2498 H 0.22188 0.65456 0.9957 0.0
H2499 H 0.18562 0.61908 0.95539 0.0
H2500 H 0.17144 0.60434 0.97791 0.0
H2501 H 0.21224 0.6138 0.01082 0.0
C2502 C 0.24395 0.64614 0.96032 0.0
C2503 C 0.2419 0.65119 0.94366 0.0
C2504 C 0.22741 0.64699 0.93512 0.0
C2505 C 0.21509 0.63799 0.94304 0.0
C2506 C 0.21744 0.6333 0.95949 0.0
C2507 C 0.23149 0.63722 0.96806 0.0
C2508 C 0.2308 0.63092 0.98575 0.0
C2509 C 0.2443 0.61812 0.989 0.0
C2510 C 0.23165 0.64536 0.9982 0.0
C2511 C 0.21417 0.62285 0.98578 0.0
C2512 C 0.2067 0.62435 0.97049 0.0
C2513 C 0.1913 0.61789 0.96744 0.0
C2514 C 0.18329 0.60965 0.98037 0.0
C2515 C 0.19065 0.60801 0.9962 0.0
C2516 C 0.20632 0.61472 0.99885 0.0
H2517 H 0.60848 0.99077 0.20353 0.0
H2518 H 0.60592 0.03711 0.23088 0.0
H2519 H 0.62048 0.02409 0.25431 0.0
H2520 H 0.60216 0.9639 0.23788 0.0
H2521 H 0.6162 0.94827 0.2308 0.0
H2522 H 0.60593 0.96132 0.21599 0.0
H2523 H 0.63366 0.97048 0.20375 0.0
H2524 H 0.64401 0.95733 0.21842 0.0
H2525 H 0.64891 0.9791 0.21731 0.0
H2526 H 0.63488 0.00582 0.27497 0.0
H2527 H 0.64855 0.98376 0.29109 0.0
H2528 H 0.64215 0.94969 0.24987 0.0
C2529 C 0.61118 0.99826 0.21434 0.0
C2530 C 0.60604 0.01495 0.21539 0.0
C2531 C 0.60958 0.02424 0.22989 0.0
C2532 C 0.6179 0.01698 0.24323 0.0
C2533 C 0.62262 0.00044 0.24186 0.0
C2534 C 0.61946 0.99122 0.22776 0.0
C2535 C 0.62568 0.97364 0.2295 0.0
C2536 C 0.61165 0.96104 0.22849 0.0
C2537 C 0.63885 0.96993 0.21648 0.0
C2538 C 0.63277 0.97439 0.24681 0.0
C2539 C 0.63091 0.98995 0.25373 0.0
C2540 C 0.63648 0.9936 0.26965 0.0
C2541 C 0.64427 0.98102 0.27868 0.0
C2542 C 0.6464 0.96499 0.27177 0.0
C2543 C 0.6405 0.96172 0.25562 0.0
H2544 H 0.75315 0.13218 0.55386 0.0
H2545 H 0.71567 0.15293 0.52206 0.0
H2546 H 0.72904 0.14057 0.49763 0.0
H2547 H 0.7861 0.14024 0.52642 0.0
H2548 H 0.7969 0.12146 0.5315 0.0
H2549 H 0.78376 0.13095 0.54663 0.0
H2550 H 0.76767 0.10343 0.54952 0.0
H2551 H 0.7808 0.09383 0.53444 0.0
H2552 H 0.75911 0.09387 0.53128 0.0
H2553 H 0.747 0.1266 0.47649 0.0
H2554 H 0.76847 0.11237 0.46034 0.0
H2555 H 0.79449 0.10172 0.50597 0.0
C2556 C 0.74773 0.13415 0.54178 0.0
C2557 C 0.73326 0.14341 0.53994 0.0
C2558 C 0.72654 0.14557 0.52387 0.0
C2559 C 0.73411 0.13871 0.50988 0.0
C2560 C 0.74842 0.12977 0.51214 0.0
C2561 C 0.75517 0.12749 0.52769 0.0
C2562 C 0.77091 0.11785 0.52671 0.0
C2563 C 0.78526 0.12825 0.5332 0.0
C2564 C 0.76953 0.10126 0.53604 0.0
C2565 C 0.77205 0.1152 0.50817 0.0
C2566 C 0.75891 0.12206 0.49998 0.0
C2567 C 0.75733 0.12115 0.48277 0.0
C2568 C 0.76954 0.11303 0.47372 0.0
C2569 C 0.78316 0.10605 0.4819 0.0
C2570 C 0.78433 0.10715 0.49935 0.0
H2571 H 0.15571 0.53281 0.74769 0.0
H2572 H 0.1149 0.56326 0.73233 0.0
H2573 H 0.09621 0.54503 0.74798 0.0
H2574 H 0.13525 0.49328 0.74577 0.0
H2575 H 0.14517 0.48513 0.76398 0.0
H2576 H 0.1553 0.50039 0.75134 0.0
H2577 H 0.15894 0.51933 0.77706 0.0
H2578 H 0.14884 0.50413 0.78979 0.0
H2579 H 0.14137 0.52515 0.78909 0.0
H2580 H 0.08205 0.52349 0.7649 0.0
H2581 H 0.0733 0.50086 0.78345 0.0
H2582 H 0.12338 0.48458 0.78834 0.0
C2583 C 0.14282 0.53555 0.74756 0.0
C2584 C 0.13668 0.54938 0.7388 0.0
C2585 C 0.11981 0.55277 0.73908 0.0
C2586 C 0.10912 0.54245 0.74784 0.0
C2587 C 0.11555 0.5289 0.75633 0.0
C2588 C 0.13201 0.52548 0.75638 0.0
C2589 C 0.13581 0.5104 0.76692 0.0
C2590 C 0.14332 0.49648 0.75637 0.0
C2591 C 0.14689 0.51504 0.78158 0.0
C2592 C 0.1189 0.50585 0.77275 0.0
C2593 C 0.10739 0.51661 0.76638 0.0
C2594 C 0.09092 0.51495 0.76994 0.0
C2595 C 0.08607 0.502 0.78039 0.0
C2596 C 0.09765 0.49091 0.78723 0.0
C2597 C 0.11428 0.4929 0.78332 0.0
H2598 H 0.7013 0.88069 0.98814 0.0
H2599 H 0.72703 0.9277 0.98732 0.0
H2600 H 0.74843 0.91582 0.00522 0.0
H2601 H 0.709 0.87116 0.0301 0.0
H2602 H 0.71164 0.8492 0.02683 0.0
H2603 H 0.69887 0.861 0.01306 0.0
H2604 H 0.71578 0.85096 0.98785 0.0
H2605 H 0.72855 0.83903 0.00155 0.0
H2606 H 0.73748 0.85408 0.98775 0.0
H2607 H 0.76626 0.89935 0.02425 0.0
H2608 H 0.77936 0.87934 0.04319 0.0
H2609 H 0.7423 0.84286 0.03121 0.0
C2610 C 0.71159 0.88838 0.99148 0.0
C2611 C 0.71251 0.90511 0.98636 0.0
C2612 C 0.72601 0.91489 0.99125 0.0
C2613 C 0.73826 0.90823 0.00133 0.0
C2614 C 0.73686 0.89177 0.00637 0.0
C2615 C 0.72391 0.88194 0.00158 0.0
C2616 C 0.725 0.86483 0.00926 0.0
C2617 C 0.71025 0.86136 0.02048 0.0
C2618 C 0.72682 0.85143 0.9958 0.0
C2619 C 0.74045 0.86667 0.0193 0.0
C2620 C 0.74716 0.88226 0.01737 0.0
C2621 C 0.76122 0.88703 0.02574 0.0
C2622 C 0.76862 0.87555 0.0364 0.0
C2623 C 0.76191 0.85951 0.03864 0.0
C2624 C 0.74767 0.85506 0.02987 0.0
H2625 H 0.34393 0.46112 0.24605 0.0
H2626 H 0.38515 0.44224 0.21833 0.0
H2627 H 0.40359 0.46013 0.23475 0.0
H2628 H 0.35828 0.5035 0.25053 0.0
H2629 H 0.35055 0.50562 0.27134 0.0
H2630 H 0.34059 0.49193 0.25689 0.0
H2631 H 0.34385 0.46755 0.27759 0.0
H2632 H 0.35386 0.48114 0.29209 0.0
H2633 H 0.3638 0.4624 0.28532 0.0
H2634 H 0.41741 0.4799 0.25419 0.0
H2635 H 0.426 0.49922 0.27629 0.0
H2636 H 0.37583 0.50461 0.29199 0.0
C2637 C 0.35683 0.46093 0.24333 0.0
C2638 C 0.36317 0.45043 0.23088 0.0
C2639 C 0.38012 0.4502 0.22786 0.0
C2640 C 0.39063 0.46035 0.23706 0.0
C2641 C 0.38399 0.47052 0.24929 0.0
C2642 C 0.3675 0.47082 0.25251 0.0
C2643 C 0.36355 0.48235 0.2668 0.0
C2644 C 0.35259 0.4967 0.26104 0.0
C2645 C 0.35581 0.47278 0.28131 0.0
C2646 C 0.38042 0.48844 0.27118 0.0
C2647 C 0.39201 0.48158 0.26081 0.0
C2648 C 0.40845 0.48536 0.26237 0.0
C2649 C 0.4132 0.4964 0.27489 0.0
C2650 C 0.40156 0.50342 0.28578 0.0
C2651 C 0.38497 0.49934 0.28388 0.0
H2652 H 0.50812 0.27495 0.39674 0.0
H2653 H 0.48211 0.32169 0.3939 0.0
H2654 H 0.46091 0.30842 0.37674 0.0
H2655 H 0.49933 0.26103 0.35497 0.0
H2656 H 0.49681 0.23961 0.36087 0.0
H2657 H 0.51017 0.25286 0.37262 0.0
H2658 H 0.49434 0.24571 0.39947 0.0
H2659 H 0.48088 0.23249 0.38779 0.0
H2660 H 0.47268 0.24909 0.40022 0.0
H2661 H 0.4428 0.29041 0.3598 0.0
H2662 H 0.42832 0.26834 0.34449 0.0
H2663 H 0.46544 0.23291 0.35892 0.0
C2664 C 0.49801 0.28236 0.39236 0.0
C2665 C 0.49669 0.29932 0.3966 0.0
C2666 C 0.48323 0.30865 0.39086 0.0
C2667 C 0.47118 0.30125 0.38108 0.0
C2668 C 0.47274 0.28448 0.37725 0.0
C2669 C 0.48575 0.27511 0.38273 0.0
C2670 C 0.48425 0.25723 0.37709 0.0
C2671 C 0.49848 0.25241 0.36571 0.0
C2672 C 0.48295 0.24544 0.39204 0.0
C2673 C 0.46838 0.25807 0.36757 0.0
C2674 C 0.46202 0.27394 0.36775 0.0
C2675 C 0.44763 0.27792 0.35957 0.0
C2676 C 0.43954 0.26535 0.35089 0.0
C2677 C 0.4458 0.249 0.35057 0.0
C2678 C 0.46034 0.2453 0.35912 0.0
H2679 H 0.99595 0.21592 0.59523 0.0
H2680 H 0.03522 0.21271 0.63107 0.0
H2681 H 0.02209 0.23458 0.64793 0.0
H2682 H 0.9895 0.26071 0.5985 0.0
H2683 H 0.96775 0.25887 0.59641 0.0
H2684 H 0.9809 0.24391 0.58661 0.0
H2685 H 0.96585 0.22008 0.60179 0.0
H2686 H 0.95268 0.23494 0.61163 0.0
H2687 H 0.96421 0.22057 0.62409 0.0
H2688 H 0.00355 0.25508 0.66189 0.0
H2689 H 0.98114 0.27273 0.67191 0.0
H2690 H 0.95438 0.26303 0.62645 0.0
C2691 C 0.00181 0.21984 0.60662 0.0
C2692 C 0.01658 0.21261 0.61189 0.0
C2693 C 0.02397 0.21821 0.62674 0.0
C2694 C 0.0166 0.23058 0.6364 0.0
C2695 C 0.00193 0.2373 0.63093 0.0
C2696 C 0.99467 0.23219 0.61633 0.0
C2697 C 0.97861 0.24091 0.61352 0.0
C2698 C 0.97924 0.25175 0.59783 0.0
C2699 C 0.96451 0.22838 0.61272 0.0
C2700 C 0.97775 0.25142 0.62904 0.0
C2701 C 0.99137 0.24927 0.63885 0.0
C2702 C 0.99294 0.25707 0.65419 0.0
C2703 C 0.98017 0.26717 0.65972 0.0
C2704 C 0.96599 0.2694 0.64994 0.0
C2705 C 0.96497 0.26156 0.63429 0.0
H2706 H 0.99728 0.69657 0.87372 0.0
H2707 H 0.98114 0.72697 0.915 0.0
H2708 H 0.99801 0.75017 0.90481 0.0
H2709 H 0.03825 0.71051 0.87334 0.0
H2710 H 0.04013 0.71032 0.85106 0.0
H2711 H 0.0262 0.69634 0.86115 0.0
H2712 H 0.00252 0.70777 0.84326 0.0
H2713 H 0.01639 0.72173 0.83305 0.0
H2714 H 0.99848 0.72976 0.84311 0.0
H2715 H 0.01785 0.76943 0.89108 0.0
H2716 H 0.03838 0.78386 0.8741 0.0
H2717 H 0.04077 0.74122 0.84118 0.0
C2718 C 0.99726 0.70813 0.88057 0.0
C2719 C 0.98786 0.71001 0.8951 0.0
C2720 C 0.98807 0.72536 0.90369 0.0
C2721 C 0.99768 0.73856 0.89806 0.0
C2722 C 0.00692 0.73625 0.88378 0.0
C2723 C 0.0067 0.72148 0.87507 0.0
C2724 C 0.01788 0.72217 0.86017 0.0
C2725 C 0.03142 0.70906 0.86152 0.0
C2726 C 0.00824 0.72025 0.84394 0.0
C2727 C 0.0246 0.73956 0.86202 0.0
C2728 C 0.01814 0.74747 0.8757 0.0
C2729 C 0.02285 0.76344 0.8802 0.0
C2730 C 0.03447 0.77158 0.87041 0.0
C2731 C 0.04119 0.76376 0.85621 0.0
C2732 C 0.03607 0.74753 0.85202 0.0
H2733 H 0.54776 0.74001 0.12437 0.0
H2734 H 0.52071 0.73596 0.1704 0.0
H2735 H 0.49919 0.75391 0.15886 0.0
H2736 H 0.53946 0.78225 0.11718 0.0
H2737 H 0.53745 0.78042 0.09499 0.0
H2738 H 0.55015 0.7661 0.10621 0.0
H2739 H 0.53397 0.74132 0.09407 0.0
H2740 H 0.5213 0.75557 0.08267 0.0
H2741 H 0.51219 0.74066 0.0965 0.0
H2742 H 0.4816 0.77351 0.14323 0.0
H2743 H 0.46858 0.79338 0.12415 0.0
H2744 H 0.50678 0.78468 0.088 0.0
C2745 C 0.53714 0.74266 0.13186 0.0
C2746 C 0.53585 0.73664 0.14826 0.0
C2747 C 0.52194 0.74058 0.15784 0.0
C2748 C 0.50965 0.75069 0.15138 0.0
C2749 C 0.51144 0.75673 0.13531 0.0
C2750 C 0.52476 0.75282 0.12562 0.0
C2751 C 0.52401 0.76161 0.10901 0.0
C2752 C 0.53864 0.77329 0.10673 0.0
C2753 C 0.52279 0.74904 0.09472 0.0
C2754 C 0.50833 0.77126 0.11104 0.0
C2755 C 0.50124 0.76815 0.12626 0.0
C2756 C 0.48692 0.77591 0.13119 0.0
C2757 C 0.47959 0.78712 0.12024 0.0
C2758 C 0.4866 0.7905 0.10454 0.0
C2759 C 0.50117 0.78243 0.09994 0.0
H2760 H 0.1946 0.32728 0.29847 0.0
H2761 H 0.1901 0.37111 0.32944 0.0
H2762 H 0.20031 0.38836 0.30654 0.0
H2763 H 0.23159 0.33661 0.28373 0.0
H2764 H 0.22883 0.32868 0.26301 0.0
H2765 H 0.21703 0.32035 0.27979 0.0
H2766 H 0.19039 0.32735 0.2641 0.0
H2767 H 0.20214 0.33559 0.24711 0.0
H2768 H 0.18688 0.34825 0.25697 0.0
H2769 H 0.21626 0.39985 0.28311 0.0
H2770 H 0.23588 0.40476 0.26044 0.0
H2771 H 0.23111 0.35344 0.24503 0.0
C2772 C 0.19531 0.34057 0.30028 0.0
C2773 C 0.19147 0.34781 0.31576 0.0
C2774 C 0.19262 0.36526 0.31762 0.0
C2775 C 0.19849 0.37519 0.30468 0.0
C2776 C 0.20303 0.36752 0.2899 0.0
C2777 C 0.20132 0.35061 0.28755 0.0
C2778 C 0.20921 0.34507 0.27151 0.0
C2779 C 0.22245 0.33191 0.27471 0.0
C2780 C 0.19638 0.33869 0.25919 0.0
C2781 C 0.21647 0.36131 0.26572 0.0
C2782 C 0.21247 0.37418 0.2763 0.0
C2783 C 0.21916 0.38997 0.27451 0.0
C2784 C 0.23039 0.39261 0.26171 0.0
C2785 C 0.23489 0.37949 0.25098 0.0
C2786 C 0.22755 0.36377 0.25282 0.0
H2787 H 0.89116 0.98941 0.50569 0.0
H2788 H 0.84092 0.97348 0.50094 0.0
H2789 H 0.84575 0.95167 0.52184 0.0
H2790 H 0.9083 0.94743 0.5107 0.0
H2791 H 0.92344 0.95447 0.52527 0.0
H2792 H 0.91621 0.96825 0.50926 0.0
H2793 H 0.90821 0.98999 0.53158 0.0
H2794 H 0.91559 0.97632 0.54752 0.0
H2795 H 0.89499 0.98391 0.54835 0.0
H2796 H 0.8554 0.93356 0.54545 0.0
H2797 H 0.86954 0.92005 0.56907 0.0
H2798 H 0.91379 0.94629 0.55642 0.0
C2799 C 0.88124 0.98111 0.50868 0.0
C2800 C 0.86563 0.98329 0.50165 0.0
C2801 C 0.85292 0.97233 0.50633 0.0
C2802 C 0.85558 0.95977 0.51807 0.0
C2803 C 0.87108 0.95811 0.52484 0.0
C2804 C 0.88373 0.96839 0.52017 0.0
C2805 C 0.89909 0.96447 0.52973 0.0
C2806 C 0.91256 0.95829 0.51804 0.0
C2807 C 0.90479 0.97957 0.5399 0.0
C2808 C 0.893 0.95068 0.54082 0.0
C2809 C 0.87681 0.94714 0.53783 0.0
C2810 C 0.86817 0.93591 0.54763 0.0
C2811 C 0.87625 0.9283 0.56097 0.0
C2812 C 0.8928 0.93182 0.56416 0.0
C2813 C 0.90129 0.94294 0.5538 0.0
H2814 H 0.26789 0.65115 0.74273 0.0
H2815 H 0.26313 0.59914 0.75578 0.0
H2816 H 0.28165 0.60331 0.77945 0.0
H2817 H 0.31137 0.656 0.75651 0.0
H2818 H 0.3076 0.67661 0.7643 0.0
H2819 H 0.29631 0.66896 0.7467 0.0
H2820 H 0.2693 0.67525 0.76202 0.0
H2821 H 0.28046 0.68284 0.77962 0.0
H2822 H 0.26583 0.6664 0.78226 0.0
H2823 H 0.29637 0.61395 0.80415 0.0
H2824 H 0.30671 0.63009 0.82769 0.0
H2825 H 0.30372 0.67508 0.79808 0.0
C2826 C 0.27102 0.64058 0.75038 0.0
C2827 C 0.26415 0.6248 0.74736 0.0
C2828 C 0.26848 0.61127 0.75767 0.0
C2829 C 0.27897 0.61352 0.77118 0.0
C2830 C 0.28522 0.62932 0.77407 0.0
C2831 C 0.28157 0.64259 0.76385 0.0
C2832 C 0.28868 0.65858 0.77056 0.0
C2833 C 0.30177 0.66544 0.75882 0.0
C2834 C 0.27527 0.67152 0.77381 0.0
C2835 C 0.29611 0.65236 0.78659 0.0
C2836 C 0.29418 0.63542 0.78826 0.0
C2837 C 0.29841 0.62715 0.80279 0.0
C2838 C 0.30442 0.63648 0.81612 0.0
C2839 C 0.30621 0.65395 0.81486 0.0
C2840 C 0.30247 0.6618 0.79961 0.0
H2841 H 0.57968 0.05823 0.0488 0.0
H2842 H 0.62237 0.05953 0.08036 0.0
H2843 H 0.63944 0.05127 0.05663 0.0
H2844 H 0.58849 0.02272 0.02944 0.0
H2845 H 0.58116 0.02818 0.00908 0.0
H2846 H 0.57286 0.03823 0.02706 0.0
H2847 H 0.58043 0.06702 0.01503 0.0
H2848 H 0.58857 0.05707 0.9968 0.0
H2849 H 0.60107 0.07108 0.0087 0.0
H2850 H 0.6505 0.03679 0.03195 0.0
H2851 H 0.65516 0.01897 0.00775 0.0
H2852 H 0.60568 0.02818 0.99115 0.0
C2853 C 0.59271 0.05732 0.05054 0.0
C2854 C 0.59973 0.05958 0.06637 0.0
C2855 C 0.61678 0.05815 0.06827 0.0
C2856 C 0.62657 0.05341 0.05486 0.0
C2857 C 0.61915 0.05043 0.03959 0.0
C2858 C 0.60263 0.05265 0.03726 0.0
C2859 C 0.59735 0.04673 0.02026 0.0
C2860 C 0.5842 0.03316 0.02155 0.0
C2861 C 0.59151 0.06135 0.00957 0.0
C2862 C 0.61324 0.03979 0.01384 0.0
C2863 C 0.62572 0.04231 0.02505 0.0
C2864 C 0.641 0.03524 0.0228 0.0
C2865 C 0.64353 0.02515 0.00889 0.0
C2866 C 0.63085 0.02219 0.9973 0.0
C2867 C 0.61567 0.03007 -0.00031 0.0
H2868 H 0.70081 0.1387 0.67775 0.0
H2869 H 0.67528 0.17821 0.70322 0.0
H2870 H 0.68444 0.16695 0.73022 0.0
H2871 H 0.6956 0.10557 0.7107 0.0
H2872 H 0.71586 0.09787 0.70703 0.0
H2873 H 0.7043 0.10673 0.69021 0.0
H2874 H 0.72777 0.12738 0.68441 0.0
H2875 H 0.7393 0.11875 0.70126 0.0
H2876 H 0.73488 0.14066 0.7009 0.0
H2877 H 0.69983 0.15424 0.7537 0.0
H2878 H 0.72071 0.14168 0.77174 0.0
H2879 H 0.73649 0.11052 0.7309 0.0
C2880 C 0.69656 0.14451 0.68906 0.0
C2881 C 0.68711 0.1591 0.68851 0.0
C2882 C 0.68237 0.16689 0.70348 0.0
C2883 C 0.68746 0.16054 0.71883 0.0
C2884 C 0.69727 0.14642 0.71894 0.0
C2885 C 0.70169 0.13843 0.70443 0.0
C2886 C 0.7141 0.12495 0.70769 0.0
C2887 C 0.70704 0.10776 0.70367 0.0
C2888 C 0.72994 0.12814 0.698 0.0
C2889 C 0.71655 0.12712 0.72616 0.0
C2890 C 0.70647 0.13929 0.7325 0.0
C2891 C 0.70752 0.14443 0.74897 0.0
C2892 C 0.7194 0.13719 0.75914 0.0
C2893 C 0.73019 0.12507 0.75274 0.0
C2894 C 0.72841 0.11974 0.73614 0.0
H2895 H 0.13606 0.47877 0.99147 0.0
H2896 H 0.08913 0.48267 0.01591 0.0
H2897 H 0.07782 0.46229 0.9964 0.0
H2898 H 0.12043 0.4797 0.95175 0.0
H2899 H 0.13505 0.4656 0.94288 0.0
H2900 H 0.14041 0.47777 0.96075 0.0
H2901 H 0.14794 0.45092 0.97673 0.0
H2902 H 0.1425 0.43863 0.95886 0.0
H2903 H 0.13314 0.43453 0.97866 0.0
H2904 H 0.07052 0.44458 0.97233 0.0
H2905 H 0.06726 0.43261 0.94446 0.0
H2906 H 0.1185 0.44097 0.93464 0.0
C2907 C 0.12344 0.47525 0.99289 0.0
C2908 C 0.1136 0.4823 0.00545 0.0
C2909 C 0.09714 0.4772 0.00677 0.0
C2910 C 0.09054 0.46563 0.99568 0.0
C2911 C 0.10051 0.45925 0.98326 0.0
C2912 C 0.1166 0.46392 0.98176 0.0
C2913 C 0.12413 0.45687 0.96613 0.0
C2914 C 0.13036 0.47081 0.95471 0.0
C2915 C 0.13773 0.4445 0.97035 0.0
C2916 C 0.10955 0.4481 0.95871 0.0
C2917 C 0.09617 0.44927 0.96901 0.0
C2918 C 0.08098 0.44327 0.9643 0.0
C2919 C 0.07929 0.43637 0.94845 0.0
C2920 C 0.09268 0.43568 0.9374 0.0
C2921 C 0.10808 0.44121 0.94284 0.0
H2922 H 0.76553 0.85435 0.25172 0.0
H2923 H 0.76578 0.90672 0.23925 0.0
H2924 H 0.78461 0.90107 0.21609 0.0
H2925 H 0.80914 0.84575 0.23951 0.0
H2926 H 0.80375 0.82561 0.23149 0.0
H2927 H 0.79275 0.83419 0.24884 0.0
H2928 H 0.7657 0.83044 0.23277 0.0
H2929 H 0.77656 0.82196 0.21541 0.0
H2930 H 0.7635 0.83969 0.21252 0.0
H2931 H 0.79934 0.88921 0.19182 0.0
H2932 H 0.80857 0.87214 0.16832 0.0
H2933 H 0.80034 0.82759 0.19743 0.0
C2934 C 0.77003 0.86472 0.24451 0.0
C2935 C 0.76422 0.88097 0.24729 0.0
C2936 C 0.76998 0.89414 0.23724 0.0
C2937 C 0.7808 0.89108 0.22417 0.0
C2938 C 0.78593 0.87482 0.22146 0.0
C2939 C 0.78086 0.86188 0.23147 0.0
C2940 C 0.78667 0.84533 0.22485 0.0
C2941 C 0.7988 0.83725 0.23689 0.0
C2942 C 0.77225 0.83369 0.22117 0.0
C2943 C 0.795 0.85091 0.20909 0.0
C2944 C 0.79472 0.86798 0.2075 0.0
C2945 C 0.80006 0.87587 0.19311 0.0
C2946 C 0.80537 0.86604 0.17983 0.0
C2947 C 0.80525 0.84848 0.18099 0.0
C2948 C 0.80056 0.84096 0.19609 0.0
H2949 H 0.36308 0.5094 0.48685 0.0
H2950 H 0.38921 0.53701 0.52457 0.0
H2951 H 0.39877 0.55674 0.50314 0.0
H2952 H 0.39292 0.5113 0.45722 0.0
H2953 H 0.37944 0.51319 0.43969 0.0
H2954 H 0.37256 0.50308 0.45827 0.0
H2955 H 0.34817 0.5234 0.45999 0.0
H2956 H 0.35503 0.53363 0.44137 0.0
H2957 H 0.35184 0.54545 0.46007 0.0
H2958 H 0.40781 0.57146 0.4773 0.0
H2959 H 0.41698 0.57895 0.44909 0.0
H2960 H 0.38532 0.54117 0.42841 0.0
C2961 C 0.37038 0.51991 0.49068 0.0
C2962 C 0.37526 0.52184 0.50736 0.0
C2963 C 0.38532 0.53537 0.51183 0.0
C2964 C 0.39068 0.54669 0.49978 0.0
C2965 C 0.38584 0.54429 0.48336 0.0
C2966 C 0.37591 0.53121 0.47882 0.0
C2967 C 0.37394 0.53022 0.46018 0.0
C2968 C 0.38009 0.51346 0.45346 0.0
C2969 C 0.35619 0.53337 0.45511 0.0
C2970 C 0.3848 0.54439 0.45488 0.0
C2971 C 0.39129 0.55258 0.46843 0.0
C2972 C 0.40263 0.56529 0.4666 0.0
C2973 C 0.40782 0.5694 0.45055 0.0
C2974 C 0.40181 0.56069 0.43655 0.0
C2975 C 0.38982 0.54836 0.4388 0.0
H2976 H 0.27674 0.23997 0.38489 0.0
H2977 H 0.23586 0.21174 0.36586 0.0
H2978 H 0.25457 0.18931 0.3574 0.0
H2979 H 0.30315 0.23125 0.35328 0.0
H2980 H 0.32112 0.2298 0.36601 0.0
H2981 H 0.3043 0.24235 0.37268 0.0
H2982 H 0.30298 0.22592 0.40031 0.0
H2983 H 0.31983 0.21324 0.39367 0.0
H2984 H 0.30097 0.20364 0.39982 0.0
H2985 H 0.278 0.17178 0.34782 0.0
H2986 H 0.30427 0.16101 0.33742 0.0
H2987 H 0.32954 0.20044 0.36342 0.0
C2988 C 0.27164 0.22885 0.37942 0.0
C2989 C 0.25484 0.22759 0.37608 0.0
C2990 C 0.24872 0.21304 0.36842 0.0
C2991 C 0.25923 0.20016 0.36373 0.0
C2992 C 0.27579 0.20194 0.36695 0.0
C2993 C 0.28194 0.21589 0.37471 0.0
C2994 C 0.30031 0.21554 0.37535 0.0
C2995 C 0.30764 0.23062 0.36628 0.0
C2996 C 0.30638 0.21452 0.39336 0.0
C2997 C 0.30358 0.19955 0.36611 0.0
C2998 C 0.28929 0.19173 0.36159 0.0
C2999 C 0.28927 0.1776 0.35159 0.0
C3000 C 0.30422 0.17159 0.34571 0.0
C3001 C 0.31892 0.17976 0.34982 0.0
C3002 C 0.31855 0.19362 0.36052 0.0
H3003 H 0.01538 0.99249 0.59357 0.0
H3004 H 0.01434 -0.00046 0.64687 0.0
H3005 H 0.03332 0.02314 0.64418 0.0
H3006 H 0.05932 0.00571 0.58766 0.0
H3007 H 0.05453 0.01564 0.56822 0.0
H3008 H 0.04339 0.99748 0.57468 0.0
H3009 H 0.01636 0.01372 0.57156 0.0
H3010 H 0.02737 0.0319 0.56524 0.0
H3011 H 0.01371 0.03294 0.58269 0.0
H3012 H 0.04741 0.04894 0.63522 0.0
H3013 H 0.05672 0.0741 0.62095 0.0
H3014 H 0.05108 0.04915 0.57346 0.0
C3015 C 0.01955 0.99874 0.60468 0.0
C3016 C 0.01352 0.99423 0.62042 0.0
C3017 C 0.01905 0.00271 0.63473 0.0
C3018 C 0.02981 0.01611 0.63331 0.0
C3019 C 0.03517 0.02061 0.61754 0.0
C3020 C 0.03047 0.01198 0.60349 0.0
C3021 C 0.03676 0.02023 0.5879 0.0
C3022 C 0.04925 0.0091 0.5791 0.0
C3023 C 0.02271 0.02498 0.57617 0.0
C3024 C 0.04481 0.0354 0.5953 0.0
C3025 C 0.04395 0.03529 0.61242 0.0
C3026 C 0.04868 0.04894 0.62185 0.0
C3027 C 0.05407 0.06321 0.61357 0.0
C3028 C 0.05478 0.06373 0.59598 0.0
C3029 C 0.05062 0.04933 0.58688 0.0
H3030 H 0.25585 0.77989 0.85027 0.0
H3031 H 0.24396 0.77574 0.9026 0.0
H3032 H 0.21983 0.79319 0.89826 0.0
H3033 H 0.23929 0.82306 0.84397 0.0
H3034 H 0.23157 0.8178 0.82371 0.0
H3035 H 0.24971 0.8079 0.83144 0.0
H3036 H 0.23656 0.77907 0.82658 0.0
H3037 H 0.21841 0.78885 0.81894 0.0
H3038 H 0.2172 0.77447 0.83602 0.0
H3039 H 0.1947 0.80646 0.88766 0.0
H3040 H 0.17064 0.81476 0.87162 0.0
H3041 H 0.19874 0.81134 0.82611 0.0
C3042 C 0.24837 0.78295 0.86089 0.0
C3043 C 0.25194 0.77653 0.8768 0.0
C3044 C 0.24177 0.78079 0.89035 0.0
C3045 C 0.22795 0.79067 0.88801 0.0
C3046 C 0.22451 0.79635 0.87208 0.0
C3047 C 0.23451 0.7928 0.85876 0.0
C3048 C 0.22714 0.79887 0.84264 0.0
C3049 C 0.23755 0.81274 0.83499 0.0
C3050 C 0.22468 0.78446 0.83033 0.0
C3051 C 0.21106 0.80555 0.84888 0.0
C3052 C 0.20991 0.80425 0.86593 0.0
C3053 C 0.19559 0.80799 0.87435 0.0
C3054 C 0.18197 0.81281 0.86509 0.0
C3055 C 0.18271 0.81385 0.84753 0.0
C3056 C 0.19767 0.81065 0.83948 0.0
H3057 H 0.48022 0.00238 0.10777 0.0
H3058 H 0.47656 0.98897 0.15977 0.0
H3059 H 0.45813 0.96593 0.15241 0.0
H3060 H 0.43725 0.99055 0.09605 0.0
H3061 H 0.44388 0.98292 0.07615 0.0
H3062 H 0.45439 2e-05 0.08582 0.0
H3063 H 0.48153 0.98388 0.08351 0.0
H3064 H 0.47116 0.96672 0.07401 0.0
H3065 H 0.48306 0.96345 0.09251 0.0
H3066 H 0.44411 0.94188 0.13905 0.0
H3067 H 0.43541 0.91898 0.12091 0.0
H3068 H 0.44658 0.949 0.07763 0.0
C3069 C 0.47503 0.99503 0.11769 0.0
C3070 C 0.47979 0.99752 0.13436 0.0
C3071 C 0.47317 0.98723 0.14691 0.0
C3072 C 0.46258 0.9742 0.14286 0.0
C3073 C 0.45856 0.97176 0.12623 0.0
C3074 C 0.46442 0.98203 0.11387 0.0
C3075 C 0.45964 0.97578 0.09684 0.0
C3076 C 0.4481 0.98805 0.08821 0.0
C3077 C 0.47475 0.97224 0.0861 0.0
C3078 C 0.4509 0.95994 0.10151 0.0
C3079 C 0.45017 0.95797 0.11852 0.0
C3080 C 0.44419 0.94349 0.12572 0.0
C3081 C 0.43918 0.93054 0.11527 0.0
C3082 C 0.4402 0.93214 0.09777 0.0
C3083 C 0.44567 0.9473 0.09092 0.0
H3084 H 0.74697 0.27641 0.63945 0.0
H3085 H 0.76382 0.26327 0.59017 0.0
H3086 H 0.78749 0.2817 0.59369 0.0
H3087 H 0.76228 0.32059 0.63886 0.0
H3088 H 0.76788 0.31963 0.66046 0.0
H3089 H 0.75077 0.30781 0.65297 0.0
H3090 H 0.76365 0.28092 0.66475 0.0
H3091 H 0.78075 0.2926 0.67221 0.0
H3092 H 0.78395 0.27522 0.65852 0.0
H3093 H 0.81147 0.29702 0.60433 0.0
H3094 H 0.83371 0.30849 0.62099 0.0
H3095 H 0.80081 0.31381 0.66287 0.0
C3096 C 0.75547 0.27772 0.62928 0.0
C3097 C 0.75352 0.26849 0.61451 0.0
C3098 C 0.76492 0.27044 0.60149 0.0
C3099 C 0.77842 0.28087 0.60337 0.0
C3100 C 0.7802 0.28948 0.61825 0.0
C3101 C 0.76894 0.2882 0.63091 0.0
C3102 C 0.77449 0.29753 0.64621 0.0
C3103 C 0.76318 0.31227 0.64983 0.0
C3104 C 0.77579 0.28587 0.6613 0.0
C3105 C 0.79106 0.3034 0.6405 0.0
C3106 C 0.79401 0.29884 0.62426 0.0
C3107 C 0.80915 0.30113 0.6169 0.0
C3108 C 0.82174 0.30781 0.62651 0.0
C3109 C 0.81916 0.31222 0.64336 0.0
C3110 C 0.80336 0.31052 0.65012 0.0
H3111 H 0.99297 0.51779 0.8617 0.0
H3112 H 0.97272 0.4773 0.89061 0.0
H3113 H 0.95028 0.49549 0.89957 0.0
H3114 H 0.98735 0.54757 0.89159 0.0
H3115 H 0.9827 0.56422 0.87744 0.0
H3116 H 0.99512 0.54718 0.87068 0.0
H3117 H 0.97523 0.5418 0.84625 0.0
H3118 H 0.96267 0.55881 0.85307 0.0
H3119 H 0.95396 0.53845 0.85047 0.0
H3120 H 0.93255 0.51901 0.90874 0.0
H3121 H 0.92178 0.54607 0.91812 0.0
H3122 H 0.95437 0.57124 0.88413 0.0
C3123 C 0.98371 0.51264 0.86975 0.0
C3124 C 0.98461 0.49607 0.8754 0.0
C3125 C 0.97217 0.48985 0.88585 0.0
C3126 C 0.95937 0.5001 0.89103 0.0
C3127 C 0.95913 0.51652 0.88559 0.0
C3128 C 0.97098 0.52273 0.87515 0.0
C3129 C 0.96913 0.54124 0.87269 0.0
C3130 C 0.98448 0.55059 0.87845 0.0
C3131 C 0.965 0.54531 0.85454 0.0
C3132 C 0.95483 0.54461 0.88396 0.0
C3133 C 0.94899 0.53016 0.89103 0.0
C3134 C 0.93681 0.53037 0.90305 0.0
C3135 C 0.93082 0.54578 0.90835 0.0
C3136 C 0.93712 0.56073 0.90172 0.0
C3137 C 0.94893 0.56003 0.88904 0.0
H3138 H 0.66853 0.70308 0.13599 0.0
H3139 H 0.69341 0.66426 0.16324 0.0
H3140 H 0.7198 0.67446 0.15256 0.0
H3141 H 0.69697 0.70481 0.09952 0.0
H3142 H 0.69511 0.72707 0.09833 0.0
H3143 H 0.67823 0.71475 0.10551 0.0
H3144 H 0.67719 0.73216 0.13251 0.0
H3145 H 0.69415 0.74438 0.12559 0.0
H3146 H 0.69514 0.73377 0.14525 0.0
H3147 H 0.7434 0.69126 0.14221 0.0
H3148 H 0.76238 0.71308 0.13276 0.0
H3149 H 0.72179 0.74114 0.11287 0.0
C3150 C 0.67947 0.69628 0.13913 0.0
C3151 C 0.67897 0.68273 0.15021 0.0
C3152 C 0.69358 0.67459 0.15464 0.0
C3153 C 0.70858 0.68026 0.1486 0.0
C3154 C 0.70869 0.69404 0.13812 0.0
C3155 C 0.69449 0.70185 0.13332 0.0
C3156 C 0.69793 0.7175 0.12358 0.0
C3157 C 0.69169 0.71593 0.10567 0.0
C3158 C 0.69068 0.73285 0.13226 0.0
C3159 C 0.71629 0.71763 0.12416 0.0
C3160 C 0.7223 0.70388 0.13238 0.0
C3161 C 0.73885 0.70194 0.13552 0.0
C3162 C 0.74951 0.71445 0.13024 0.0
C3163 C 0.74355 0.72876 0.12203 0.0
C3164 C 0.72675 0.73018 0.11877 0.0
H3165 H 0.50894 0.47656 0.35864 0.0
H3166 H 0.5271 0.5166 0.38963 0.0
H3167 H 0.54778 0.49784 0.40116 0.0
H3168 H 0.50981 0.44727 0.38925 0.0
H3169 H 0.5155 0.4301 0.37614 0.0
H3170 H 0.50472 0.44744 0.36748 0.0
H3171 H 0.52763 0.45152 0.34577 0.0
H3172 H 0.53853 0.43415 0.35443 0.0
H3173 H 0.54834 0.45407 0.35264 0.0
H3174 H 0.5635 0.474 0.41259 0.0
H3175 H 0.57224 0.44682 0.42358 0.0
H3176 H 0.54262 0.42204 0.38654 0.0
C3177 C 0.51741 0.48151 0.36766 0.0
C3178 C 0.51637 0.49816 0.37311 0.0
C3179 C 0.5278 0.50405 0.3849 0.0
C3180 C 0.53961 0.49345 0.3916 0.0
C3181 C 0.53988 0.47697 0.38638 0.0
C3182 C 0.5291 0.47104 0.37464 0.0
C3183 C 0.53046 0.4524 0.37276 0.0
C3184 C 0.51416 0.44381 0.37665 0.0
C3185 C 0.53661 0.44777 0.35536 0.0
C3186 C 0.54314 0.44869 0.38585 0.0
C3187 C 0.54872 0.46306 0.39329 0.0
C3188 C 0.55943 0.46267 0.40668 0.0
C3189 C 0.56424 0.44719 0.41291 0.0
C3190 C 0.55817 0.43232 0.40587 0.0
C3191 C 0.54783 0.43316 0.3919 0.0
H3192 H 0.38065 0.26429 0.23766 0.0
H3193 H 0.35603 0.22362 0.2129 0.0
H3194 H 0.34637 0.24299 0.19123 0.0
H3195 H 0.3505 0.29328 0.23217 0.0
H3196 H 0.36391 0.31067 0.22892 0.0
H3197 H 0.37066 0.29323 0.24098 0.0
H3198 H 0.39557 0.28979 0.22157 0.0
H3199 H 0.38882 0.30723 0.20937 0.0
H3200 H 0.39246 0.28748 0.19955 0.0
H3201 H 0.3369 0.26726 0.17422 0.0
H3202 H 0.3275 0.29457 0.164 0.0
H3203 H 0.35871 0.31906 0.1998 0.0
C3204 C 0.37363 0.25935 0.22742 0.0
C3205 C 0.36918 0.24244 0.22689 0.0
C3206 C 0.35952 0.23656 0.21358 0.0
C3207 C 0.35412 0.24743 0.20113 0.0
C3208 C 0.35859 0.26409 0.20215 0.0
C3209 C 0.36817 0.27 0.21495 0.0
C3210 C 0.36998 0.28866 0.21414 0.0
C3211 C 0.36336 0.29694 0.22999 0.0
C3212 C 0.38777 0.29358 0.21096 0.0
C3213 C 0.35943 0.29242 0.19924 0.0
C3214 C 0.35317 0.27808 0.19231 0.0
C3215 C 0.34196 0.27856 0.17934 0.0
C3216 C 0.33666 0.29409 0.17364 0.0
C3217 C 0.34253 0.3089 0.18098 0.0
C3218 C 0.3544 0.30797 0.1936 0.0
H3219 H 0.85708 0.17354 0.79027 0.0
H3220 H 0.83145 0.19899 0.82985 0.0
H3221 H 0.84018 0.22597 0.81827 0.0
H3222 H 0.89171 0.20301 0.78725 0.0
H3223 H 0.89263 0.20088 0.76501 0.0
H3224 H 0.88591 0.18371 0.77759 0.0
H3225 H 0.85936 0.18221 0.76047 0.0
H3226 H 0.86567 0.19958 0.74805 0.0
H3227 H 0.84654 0.2003 0.75893 0.0
H3228 H 0.84908 0.25005 0.80053 0.0
H3229 H 0.85882 0.26941 0.77885 0.0
H3230 H 0.87912 0.22802 0.75143 0.0
C3231 C 0.85379 0.18474 0.79689 0.0
C3232 C 0.84371 0.18415 0.81107 0.0
C3233 C 0.83917 0.19916 0.81897 0.0
C3234 C 0.84411 0.21452 0.81252 0.0
C3235 C 0.85368 0.21464 0.79824 0.0
C3236 C 0.85863 0.20013 0.79065 0.0
C3237 C 0.86797 0.2036 0.77485 0.0
C3238 C 0.8856 0.19744 0.77627 0.0
C3239 C 0.85936 0.19598 0.75969 0.0
C3240 C 0.8672 0.22234 0.77453 0.0
C3241 C 0.85894 0.2285 0.78814 0.0
C3242 C 0.85578 0.24539 0.78996 0.0
C3243 C 0.86125 0.25626 0.77757 0.0
C3244 C 0.86981 0.25017 0.76359 0.0
C3245 C 0.87289 0.23301 0.76216 0.0
H3246 H 0.00336 0.59899 0.01247 0.0
H3247 H 0.00208 0.65137 0.02472 0.0
H3248 H 0.02246 0.64672 0.04679 0.0
H3249 H 0.01021 0.58319 0.05549 0.0
H3250 H 0.02375 0.56716 0.04825 0.0
H3251 H 0.0073 0.57418 0.03523 0.0
H3252 H 0.0278 0.58079 0.0117 0.0
H3253 H 0.04423 0.57375 0.0246 0.0
H3254 H 0.04474 0.59436 0.01592 0.0
H3255 H 0.04529 0.63699 0.06502 0.0
H3256 H 0.06935 0.62311 0.07717 0.0
H3257 H 0.05549 0.57721 0.05289 0.0
C3258 C 0.007 0.60938 0.02014 0.0
C3259 C 0.00109 0.62551 0.01699 0.0
C3260 C 0.00652 0.63891 0.02693 0.0
C3261 C 0.01797 0.63636 0.03957 0.0
C3262 C 0.02379 0.62033 0.04216 0.0
C3263 C 0.01845 0.60706 0.03274 0.0
C3264 C 0.02782 0.59142 0.03678 0.0
C3265 C 0.01659 0.57821 0.04439 0.0
C3266 C 0.03667 0.5847 0.02134 0.0
C3267 C 0.03965 0.59809 0.04951 0.0
C3268 C 0.03698 0.61472 0.05267 0.0
C3269 C 0.04732 0.62389 0.06289 0.0
C3270 C 0.06096 0.61594 0.06969 0.0
C3271 C 0.06416 0.59904 0.06615 0.0
C3272 C 0.0531 0.58998 0.05628 0.0
H3273 H 0.65816 0.79997 0.3151 0.0
H3274 H 0.6235 0.83833 0.30168 0.0
H3275 H 0.60658 0.8175 0.28768 0.0
H3276 H 0.65865 0.78116 0.27796 0.0
H3277 H 0.66026 0.76003 0.28511 0.0
H3278 H 0.66764 0.77668 0.29788 0.0
H3279 H 0.64917 0.76716 0.32209 0.0
H3280 H 0.64191 0.75021 0.3095 0.0
H3281 H 0.62766 0.76453 0.31864 0.0
H3282 H 0.59686 0.79459 0.27006 0.0
H3283 H 0.59367 0.77045 0.25182 0.0
H3284 H 0.63417 0.74619 0.27658 0.0
C3285 C 0.64676 0.80389 0.30966 0.0
C3286 C 0.64216 0.8208 0.3096 0.0
C3287 C 0.62717 0.82544 0.30226 0.0
C3288 C 0.61748 0.81368 0.29416 0.0
C3289 C 0.62285 0.79731 0.29363 0.0
C3290 C 0.63699 0.79231 0.30143 0.0
C3291 C 0.64104 0.77444 0.29728 0.0
C3292 C 0.65789 0.77301 0.28907 0.0
C3293 C 0.63987 0.76343 0.3128 0.0
C3294 C 0.62753 0.77054 0.28512 0.0
C3295 C 0.61703 0.78382 0.28343 0.0
C3296 C 0.60464 0.78388 0.27168 0.0
C3297 C 0.60291 0.77002 0.26138 0.0
C3298 C 0.61349 0.75619 0.26287 0.0
C3299 C 0.62583 0.75648 0.27509 0.0
H3300 H 0.445 0.41341 0.56286 0.0
H3301 H 0.41182 0.37208 0.55559 0.0
H3302 H 0.43432 0.3552 0.54486 0.0
H3303 H 0.46432 0.40906 0.52558 0.0
H3304 H 0.48435 0.41472 0.53269 0.0
H3305 H 0.46672 0.42247 0.54333 0.0
H3306 H 0.47731 0.41015 0.571 0.0
H3307 H 0.4951 0.40244 0.56045 0.0
H3308 H 0.48242 0.38843 0.57212 0.0
H3309 H 0.45883 0.34435 0.53078 0.0
H3310 H 0.48362 0.34031 0.51427 0.0
H3311 H 0.50111 0.38877 0.52972 0.0
C3312 C 0.44249 0.40072 0.55931 0.0
C3313 C 0.42658 0.3941 0.56025 0.0
C3314 C 0.42391 0.37739 0.55545 0.0
C3315 C 0.43663 0.36768 0.54923 0.0
C3316 C 0.45199 0.3748 0.54789 0.0
C3317 C 0.45501 0.39091 0.55287 0.0
C3318 C 0.47209 0.39625 0.54828 0.0
C3319 C 0.47184 0.41152 0.53678 0.0
C3320 C 0.48234 0.39951 0.56389 0.0
C3321 C 0.4779 0.3809 0.53921 0.0
C3322 C 0.46623 0.36856 0.53946 0.0
C3323 C 0.46823 0.35374 0.53084 0.0
C3324 C 0.48243 0.35155 0.52153 0.0
C3325 C 0.49445 0.36415 0.52081 0.0
C3326 C 0.4922 0.37888 0.53004 0.0
H3327 H 0.13511 0.67569 0.70057 0.0
H3328 H 0.16185 0.70057 0.66141 0.0
H3329 H 0.15264 0.72769 0.67223 0.0
H3330 H 0.10032 0.70578 0.70257 0.0
H3331 H 0.09908 0.70367 0.7248 0.0
H3332 H 0.10559 0.68636 0.71229 0.0
H3333 H 0.13199 0.68427 0.72973 0.0
H3334 H 0.12573 0.70167 0.74212 0.0
H3335 H 0.14503 0.70216 0.73154 0.0
H3336 H 0.14401 0.75193 0.68989 0.0
H3337 H 0.13537 0.77129 0.71205 0.0
H3338 H 0.11386 0.73028 0.73906 0.0
C3339 C 0.13848 0.68676 0.69379 0.0
C3340 C 0.1491 0.68598 0.68004 0.0
C3341 C 0.15373 0.70087 0.67197 0.0
C3342 C 0.1485 0.71632 0.67799 0.0
C3343 C 0.1385 0.71663 0.69195 0.0
C3344 C 0.13335 0.70221 0.69959 0.0
C3345 C 0.12391 0.70585 0.71528 0.0
C3346 C 0.10617 0.70007 0.71363 0.0
C3347 C 0.13216 0.69803 0.73056 0.0
C3348 C 0.12505 0.72456 0.71563 0.0
C3349 C 0.13339 0.73059 0.70201 0.0
C3350 C 0.13717 0.74738 0.70041 0.0
C3351 C 0.13233 0.75825 0.71309 0.0
C3352 C 0.12383 0.75226 0.72714 0.0
C3353 C 0.11999 0.73524 0.72826 0.0
H3354 H 0.51772 0.8638 0.98809 0.0
H3355 H 0.47965 0.88615 0.95825 0.0
H3356 H 0.50041 0.89699 0.93891 0.0
H3357 H 0.5447 0.89615 0.98569 0.0
H3358 H 0.56281 0.8836 0.98461 0.0
H3359 H 0.54493 0.87565 0.99465 0.0
H3360 H 0.54525 0.84998 0.97525 0.0
H3361 H 0.56322 0.85786 0.96515 0.0
H3362 H 0.54541 0.85292 0.95307 0.0
H3363 H 0.52542 0.90806 0.92482 0.0
H3364 H 0.55265 0.91868 0.91729 0.0
H3365 H 0.57414 0.8888 0.95631 0.0
C3366 C 0.51368 0.8705 0.97719 0.0
C3367 C 0.49705 0.87403 0.97461 0.0
C3368 C 0.49233 0.88335 0.9605 0.0
C3369 C 0.50403 0.88944 0.94938 0.0
C3370 C 0.52036 0.886 0.95249 0.0
C3371 C 0.52517 0.87666 0.96601 0.0
C3372 C 0.5435 0.87595 0.96745 0.0
C3373 C 0.54931 0.88328 0.98408 0.0
C3374 C 0.54971 0.85812 0.96509 0.0
C3375 C 0.54827 0.88686 0.95299 0.0
C3376 C 0.53477 0.89235 0.94436 0.0
C3377 C 0.53609 0.90362 0.9313 0.0
C3378 C 0.55157 0.90964 0.92717 0.0
C3379 C 0.56549 0.90443 0.93612 0.0
C3380 C 0.56378 0.89264 0.94895 0.0
H3381 H 0.94538 0.08559 0.44207 0.0
H3382 H 0.91329 0.1284 0.44454 0.0
H3383 H 0.93574 0.14522 0.45533 0.0
H3384 H 0.96155 0.09169 0.48042 0.0
H3385 H 0.98182 0.08472 0.47558 0.0
H3386 H 0.96484 0.07701 0.46387 0.0
H3387 H 0.9783 0.08696 0.43656 0.0
H3388 H 0.99546 0.09462 0.44821 0.0
H3389 H 0.98449 0.10833 0.43452 0.0
H3390 H 0.95997 0.15637 0.46998 0.0
H3391 H 0.98369 0.1605 0.48832 0.0
H3392 H -0.00083 0.10994 0.47888 0.0
C3393 C 0.94305 0.09856 0.4446 0.0
C3394 C 0.92743 0.10555 0.44227 0.0
C3395 C 0.92513 0.12268 0.4457 0.0
C3396 C 0.93785 0.1324 0.45197 0.0
C3397 C 0.95281 0.12487 0.45484 0.0
C3398 C 0.95548 0.10833 0.45126 0.0
C3399 C 0.97182 0.10259 0.45776 0.0
C3400 C 0.96988 0.08816 0.47014 0.0
C3401 C 0.98319 0.09785 0.4434 0.0
C3402 C 0.97753 0.11826 0.46631 0.0
C3403 C 0.96662 0.13111 0.46403 0.0
C3404 C 0.96875 0.14651 0.4716 0.0
C3405 C 0.98224 0.14874 0.48198 0.0
C3406 C 0.99323 0.13554 0.48492 0.0
C3407 C 0.99096 0.12023 0.47676 0.0
loop_
_geom_bond_atom_site_label_1
_geom_bond_atom_site_label_2
_geom_bond_distance
_geom_bond_site_symmetry_2
_ccdc_geom_bond_type
Li0 N17 1.990 . S
Li0 O60 1.956 . S
Li0 O61 1.970 . S
Li0 O62 1.961 . S
Li1 N25 1.990 . S
Li1 O60 1.970 . S
Li1 O61 1.956 . S
Li1 O63 1.961 . S
Li2 N47 1.990 . S
Li2 O60 1.961 . S
Li2 O62 1.956 . S
Li2 O63 1.970 . S
Li3 N53 1.990 . S
Li3 O61 1.961 . S
Li3 O62 1.970 . S
Li3 O63 1.956 . S
C4 C6 1.348 . S
C4 C7 1.356 . S
C4 O60 1.325 . S
N5 C8 1.314 . S
N5 C9 1.279 . S
C6 C4 1.348 . S
C6 C8 1.353 . S
C6 H64 0.929 . S
C7 C4 1.356 . S
C7 C9 1.358 . S
C7 H65 0.930 . S
C8 N5 1.314 . S
C8 C6 1.353 . S
C8 H66 0.930 . S
C9 N5 1.279 . S
C9 C7 1.358 . S
C9 H67 0.930 . S
C10 C13 1.348 . S
C10 C14 1.356 . S
C10 O61 1.325 . S
C11 N12 1.279 . S
C11 C14 1.358 . S
C11 H68 0.930 . S
N12 C11 1.279 . S
N12 C15 1.314 . S
C13 C10 1.348 . S
C13 C15 1.353 . S
C13 H69 0.929 . S
C14 C10 1.356 . S
C14 C11 1.358 . S
C14 H70 0.930 . S
C15 N12 1.314 . S
C15 C13 1.353 . S
C15 H71 0.930 . S
C16 N17 1.314 . S
C16 C21 1.353 . S
C16 H22 0.930 . S
N17 Li0 1.990 . S
N17 C16 1.314 . S
N17 C19 1.279 . S
C18 C19 1.358 . S
C18 C20 1.356 . S
C18 H72 0.930 . S
C19 N17 1.279 . S
C19 C18 1.358 . S
C19 H23 0.930 . S
C20 C18 1.356 . S
C20 C21 1.348 . S
C21 C16 1.353 . S
C21 C20 1.348 . S
C21 H73 0.929 . S
H22 C16 0.930 . S
H23 C19 0.930 . S
C24 N25 1.314 . S
C24 C26 1.353 . S
C24 H30 0.930 . S
N25 Li1 1.990 . S
N25 C24 1.314 . S
N25 C28 1.279 . S
C26 C24 1.353 . S
C26 C29 1.348 . S
C26 H74 0.929 . S
C27 C28 1.358 . S
C27 C29 1.356 . S
C27 H75 0.930 . S
C28 N25 1.279 . S
C28 C27 1.358 . S
C28 H31 0.930 . S
C29 C26 1.348 . S
C29 C27 1.356 . S
H30 C24 0.930 . S
H31 C28 0.930 . S
C32 C34 1.348 . S
C32 C35 1.356 . S
C32 O62 1.325 . S
N33 C36 1.314 . S
N33 C37 1.279 . S
C34 C32 1.348 . S
C34 C36 1.353 . S
C34 H76 0.929 . S
C35 C32 1.356 . S
C35 C37 1.358 . S
C35 H77 0.930 . S
C36 N33 1.314 . S
C36 C34 1.353 . S
C36 H78 0.930 . S
C37 N33 1.279 . S
C37 C35 1.358 . S
C37 H79 0.930 . S
C38 C39 1.348 . S
C38 C40 1.356 . S
C38 O63 1.325 . S
C39 C38 1.348 . S
C39 C41 1.353 . S
C39 H80 0.929 . S
C40 C38 1.356 . S
C40 C42 1.358 . S
C40 H81 0.930 . S
C41 C39 1.353 . S
C41 N43 1.314 . S
C41 H82 0.930 . S
C42 C40 1.358 . S
C42 N43 1.279 . S
C42 H83 0.930 . S
N43 C41 1.314 . S
N43 C42 1.279 . S
C44 C46 1.353 . S
C44 N47 1.314 . S
C44 H50 0.930 . S
C45 N47 1.279 . S
C45 C48 1.358 . S
C45 H51 0.930 . S
C46 C44 1.353 . S
C46 C49 1.348 . S
C46 H84 0.929 . S
N47 Li2 1.990 . S
N47 C44 1.314 . S
N47 C45 1.279 . S
C48 C45 1.358 . S
C48 C49 1.356 . S
C48 H85 0.930 . S
C49 C46 1.348 . S
C49 C48 1.356 . S
H50 C44 0.930 . S
H51 C45 0.930 . S
C52 N53 1.314 . S
C52 C54 1.353 . S
C52 H58 0.930 . S
N53 Li3 1.990 . S
N53 C52 1.314 . S
N53 C56 1.279 . S
C54 C52 1.353 . S
C54 C57 1.348 . S
C54 H86 0.929 . S
C55 C56 1.358 . S
C55 C57 1.356 . S
C55 H87 0.930 . S
C56 N53 1.279 . S
C56 C55 1.358 . S
C56 H59 0.930 . S
C57 C54 1.348 . S
C57 C55 1.356 . S
H58 C52 0.930 . S
H59 C56 0.930 . S
O60 Li0 1.956 . S
O60 Li1 1.970 . S
O60 Li2 1.961 . S
O60 C4 1.325 . S
O61 Li0 1.970 . S
O61 Li1 1.956 . S
O61 Li3 1.961 . S
O61 C10 1.325 . S
O62 Li0 1.961 . S
O62 Li2 1.956 . S
O62 Li3 1.970 . S
O62 C32 1.325 . S
O63 Li1 1.961 . S
O63 Li2 1.970 . S
O63 Li3 1.956 . S
O63 C38 1.325 . S
H64 C6 0.929 . S
H65 C7 0.930 . S
H66 C8 0.930 . S
H67 C9 0.930 . S
H68 C11 0.930 . S
H69 C13 0.929 . S
H70 C14 0.930 . S
H71 C15 0.930 . S
H72 C18 0.930 . S
H73 C21 0.929 . S
H74 C26 0.929 . S
H75 C27 0.930 . S
H76 C34 0.929 . S
H77 C35 0.930 . S
H78 C36 0.930 . S
H79 C37 0.930 . S
H80 C39 0.929 . S
H81 C40 0.930 . S
H82 C41 0.930 . S
H83 C42 0.930 . S
H84 C46 0.929 . S
H85 C48 0.930 . S
H86 C54 0.929 . S
H87 C55 0.930 . S
Li88 N105 1.990 . S
Li88 O148 1.956 . S
Li88 O149 1.970 . S
Li88 O150 1.961 . S
Li89 N113 1.990 . S
Li89 O148 1.970 . S
Li89 O149 1.956 . S
Li89 O151 1.961 . S
Li90 N135 1.990 . S
Li90 O148 1.961 . S
Li90 O150 1.956 . S
Li90 O151 1.970 . S
Li91 N141 1.990 . S
Li91 O149 1.961 . S
Li91 O150 1.970 . S
Li91 O151 1.956 . S
C92 C94 1.348 . S
C92 C95 1.356 . S
C92 O148 1.325 . S
N93 C96 1.314 . S
N93 C97 1.279 . S
C94 C92 1.348 . S
C94 C96 1.353 . S
C94 H152 0.929 . S
C95 C92 1.356 . S
C95 C97 1.358 . S
C95 H153 0.930 . S
C96 N93 1.314 . S
C96 C94 1.353 . S
C96 H154 0.930 . S
C97 N93 1.279 . S
C97 C95 1.358 . S
C97 H155 0.930 . S
C98 C101 1.348 . S
C98 C102 1.356 . S
C98 O149 1.325 . S
C99 N100 1.279 . S
C99 C102 1.358 . S
C99 H156 0.930 . S
N100 C99 1.279 . S
N100 C103 1.314 . S
C101 C98 1.348 . S
C101 C103 1.353 . S
C101 H157 0.929 . S
C102 C98 1.356 . S
C102 C99 1.358 . S
C102 H158 0.930 . S
C103 N100 1.314 . S
C103 C101 1.353 . S
C103 H159 0.930 . S
C104 N105 1.314 . S
C104 C109 1.353 . S
C104 H110 0.930 . S
N105 Li88 1.990 . S
N105 C104 1.314 . S
N105 C107 1.279 . S
C106 C107 1.358 . S
C106 C108 1.356 . S
C106 H160 0.930 . S
C107 N105 1.279 . S
C107 C106 1.358 . S
C107 H111 0.930 . S
C108 C106 1.356 . S
C108 C109 1.348 . S
C109 C104 1.353 . S
C109 C108 1.348 . S
C109 H161 0.929 . S
H110 C104 0.930 . S
H111 C107 0.930 . S
C112 N113 1.314 . S
C112 C114 1.353 1_655 S
C112 H118 0.930 . S
N113 Li89 1.990 . S
N113 C112 1.314 . S
N113 C116 1.279 . S
C114 C112 1.353 1_455 S
C114 C117 1.348 1_455 S
C114 H162 0.929 . S
C115 C116 1.358 . S
C115 C117 1.356 . S
C115 H163 0.930 . S
C116 N113 1.279 . S
C116 C115 1.358 . S
C116 H119 0.930 . S
C117 C114 1.348 1_655 S
C117 C115 1.356 . S
H118 C112 0.930 . S
H119 C116 0.930 . S
C120 C122 1.348 . S
C120 C123 1.356 . S
C120 O150 1.325 . S
N121 C124 1.314 1_545 S
N121 C125 1.279 . S
C122 C120 1.348 . S
C122 C124 1.353 . S
C122 H164 0.929 . S
C123 C120 1.356 . S
C123 C125 1.358 1_565 S
C123 H165 0.930 . S
C124 N121 1.314 1_565 S
C124 C122 1.353 . S
C124 H166 0.930 . S
C125 N121 1.279 . S
C125 C123 1.358 1_545 S
C125 H167 0.930 . S
C126 C127 1.348 . S
C126 C128 1.356 . S
C126 O151 1.325 . S
C127 C126 1.348 . S
C127 C129 1.382 . S
C127 H168 0.929 . S
C128 C126 1.356 . S
C128 C130 1.358 . S
C128 H169 0.930 . S
C129 C127 1.382 . S
C129 N131 1.311 1_655 S
C129 H170 0.902 1_655 S
C130 C128 1.358 . S
C130 N131 1.264 1_655 S
C130 H171 0.930 . S
N131 C129 1.311 1_455 S
N131 C130 1.264 1_455 S
C132 C134 1.353 . S
C132 N135 1.314 1_455 S
C132 H138 0.930 . S
C133 N135 1.279 . S
C133 C136 1.358 1_565 S
C133 H139 0.930 . S
C134 C132 1.353 . S
C134 C137 1.348 1_565 S
C134 H172 0.929 . S
N135 Li90 1.990 . S
N135 C132 1.314 1_655 S
N135 C133 1.279 . S
C136 C133 1.358 1_545 S
C136 C137 1.356 1_655 S
C136 H173 0.930 . S
C137 C134 1.348 1_545 S
C137 C136 1.356 1_455 S
H138 C132 0.930 . S
H139 C133 0.930 . S
C140 N141 1.314 . S
C140 C142 1.353 . S
C140 H146 0.930 . S
N141 Li91 1.990 . S
N141 C140 1.314 . S
N141 C144 1.279 . S
C142 C140 1.353 . S
C142 C145 1.348 . S
C142 H174 0.929 . S
C143 C144 1.358 . S
C143 C145 1.356 . S
C143 H175 0.930 . S
C144 N141 1.279 . S
C144 C143 1.358 . S
C144 H147 0.930 . S
C145 C142 1.348 . S
C145 C143 1.356 . S
H146 C140 0.930 . S
H147 C144 0.930 . S
O148 Li88 1.956 . S
O148 Li89 1.970 . S
O148 Li90 1.961 . S
O148 C92 1.325 . S
O149 Li88 1.970 . S
O149 Li89 1.956 . S
O149 Li91 1.961 . S
O149 C98 1.325 . S
O150 Li88 1.961 . S
O150 Li90 1.956 . S
O150 Li91 1.970 . S
O150 C120 1.325 . S
O151 Li89 1.961 . S
O151 Li90 1.970 . S
O151 Li91 1.956 . S
O151 C126 1.325 . S
H152 C94 0.929 . S
H153 C95 0.930 . S
H154 C96 0.930 . S
H155 C97 0.930 . S
H156 C99 0.930 . S
H157 C101 0.929 . S
H158 C102 0.930 . S
H159 C103 0.930 . S
H160 C106 0.930 . S
H161 C109 0.929 . S
H162 C114 0.929 . S
H163 C115 0.930 . S
H164 C122 0.929 . S
H165 C123 0.930 . S
H166 C124 0.930 . S
H167 C125 0.930 . S
H168 C127 0.929 . S
H169 C128 0.930 . S
H170 C129 0.902 1_455 S
H171 C130 0.930 . S
H172 C134 0.929 . S
H173 C136 0.930 . S
H174 C142 0.929 . S
H175 C143 0.930 . S
Li176 N193 1.990 . S
Li176 O236 1.956 . S
Li176 O237 1.970 . S
Li176 O238 1.961 . S
Li177 N201 1.990 . S
Li177 O236 1.970 . S
Li177 O237 1.956 . S
Li177 O239 1.961 . S
Li178 N223 1.990 . S
Li178 O236 1.961 . S
Li178 O238 1.956 . S
Li178 O239 1.970 . S
Li179 N229 1.990 . S
Li179 O237 1.961 . S
Li179 O238 1.970 . S
Li179 O239 1.956 . S
C180 C182 1.348 . S
C180 C183 1.356 . S
C180 O236 1.325 . S
N181 C184 1.314 . S
N181 C185 1.279 . S
C182 C180 1.348 . S
C182 C184 1.353 . S
C182 H240 0.929 . S
C183 C180 1.356 . S
C183 C185 1.358 . S
C183 H241 0.930 . S
C184 N181 1.314 . S
C184 C182 1.353 . S
C184 H242 0.930 . S
C185 N181 1.279 . S
C185 C183 1.358 . S
C185 H243 0.930 . S
C186 C189 1.348 . S
C186 C190 1.356 . S
C186 O237 1.325 . S
C187 N188 1.279 . S
C187 C190 1.358 . S
C187 H244 0.930 . S
N188 C187 1.279 . S
N188 C191 1.314 . S
C189 C186 1.348 . S
C189 C191 1.353 . S
C189 H245 0.929 . S
C190 C186 1.356 . S
C190 C187 1.358 . S
C190 H246 0.930 . S
C191 N188 1.314 . S
C191 C189 1.353 . S
C191 H247 0.930 . S
C192 N193 1.314 . S
C192 C197 1.353 . S
C192 H198 0.930 . S
N193 Li176 1.990 . S
N193 C192 1.314 . S
N193 C195 1.279 . S
C194 C195 1.358 . S
C194 C196 1.356 . S
C194 H248 0.930 . S
C195 N193 1.279 . S
C195 C194 1.358 . S
C195 H199 0.930 . S
C196 C194 1.356 . S
C196 C197 1.348 . S
C197 C192 1.353 . S
C197 C196 1.348 . S
C197 H249 0.929 . S
H198 C192 0.930 . S
H199 C195 0.930 . S
C200 N201 1.314 . S
C200 C202 1.353 . S
C200 H206 0.930 . S
N201 Li177 1.990 . S
N201 C200 1.314 . S
N201 C204 1.279 . S
C202 C200 1.353 . S
C202 C205 1.348 . S
C202 H250 0.929 . S
C203 C204 1.358 . S
C203 C205 1.356 . S
C203 H251 0.930 . S
C204 N201 1.279 . S
C204 C203 1.358 . S
C204 H207 0.930 . S
C205 C202 1.348 . S
C205 C203 1.356 . S
H206 C200 0.930 . S
H207 C204 0.930 . S
C208 C210 1.348 . S
C208 C211 1.356 . S
C208 O238 1.325 . S
N209 C212 1.314 . S
N209 C213 1.279 . S
C210 C208 1.348 . S
C210 C212 1.353 . S
C210 H252 0.929 . S
C211 C208 1.356 . S
C211 C213 1.358 . S
C211 H253 0.930 . S
C212 N209 1.314 . S
C212 C210 1.353 . S
C212 H254 0.930 . S
C213 N209 1.279 . S
C213 C211 1.358 . S
C213 H255 0.930 . S
C214 C215 1.348 . S
C214 C216 1.356 . S
C214 O239 1.325 . S
C215 C214 1.348 . S
C215 C217 1.353 . S
C215 H256 0.929 . S
C216 C214 1.356 . S
C216 C218 1.358 . S
C216 H257 0.930 . S
C217 C215 1.353 . S
C217 N219 1.314 . S
C217 H258 0.930 . S
C218 C216 1.358 . S
C218 N219 1.279 . S
C218 H259 0.930 . S
N219 C217 1.314 . S
N219 C218 1.279 . S
C220 C222 1.353 . S
C220 N223 1.314 . S
C220 H226 0.930 . S
C221 N223 1.279 . S
C221 C224 1.358 . S
C221 H227 0.930 . S
C222 C220 1.353 . S
C222 C225 1.348 . S
C222 H260 0.929 . S
N223 Li178 1.990 . S
N223 C220 1.314 . S
N223 C221 1.279 . S
C224 C221 1.358 . S
C224 C225 1.356 . S
C224 H261 0.930 . S
C225 C222 1.348 . S
C225 C224 1.356 . S
H226 C220 0.930 . S
H227 C221 0.930 . S
C228 N229 1.314 . S
C228 C230 1.353 . S
C228 H234 0.930 . S
N229 Li179 1.990 . S
N229 C228 1.314 . S
N229 C232 1.279 . S
C230 C228 1.353 . S
C230 C233 1.348 . S
C230 H262 0.929 . S
C231 C232 1.358 . S
C231 C233 1.356 . S
C231 H263 0.930 . S
C232 N229 1.279 . S
C232 C231 1.358 . S
C232 H235 0.930 . S
C233 C230 1.348 . S
C233 C231 1.356 . S
H234 C228 0.930 . S
H235 C232 0.930 . S
O236 Li176 1.956 . S
O236 Li177 1.970 . S
O236 Li178 1.961 . S
O236 C180 1.325 . S
O237 Li176 1.970 . S
O237 Li177 1.956 . S
O237 Li179 1.961 . S
O237 C186 1.325 . S
O238 Li176 1.961 . S
O238 Li178 1.956 . S
O238 Li179 1.970 . S
O238 C208 1.325 . S
O239 Li177 1.961 . S
O239 Li178 1.970 . S
O239 Li179 1.956 . S
O239 C214 1.325 . S
H240 C182 0.929 . S
H241 C183 0.930 . S
H242 C184 0.930 . S
H243 C185 0.930 . S
H244 C187 0.930 . S
H245 C189 0.929 . S
H246 C190 0.930 . S
H247 C191 0.930 . S
H248 C194 0.930 . S
H249 C197 0.929 . S
H250 C202 0.929 . S
H251 C203 0.930 . S
H252 C210 0.929 . S
H253 C211 0.930 . S
H254 C212 0.930 . S
H255 C213 0.930 . S
H256 C215 0.929 . S
H257 C216 0.930 . S
H258 C217 0.930 . S
H259 C218 0.930 . S
H260 C222 0.929 . S
H261 C224 0.930 . S
H262 C230 0.929 . S
H263 C231 0.930 . S
Li264 N281 1.990 . S
Li264 O324 1.956 . S
Li264 O325 1.970 . S
Li264 O326 1.961 . S
Li265 N289 1.990 . S
Li265 O324 1.970 . S
Li265 O325 1.956 . S
Li265 O327 1.961 . S
Li266 N311 1.990 . S
Li266 O324 1.961 . S
Li266 O326 1.956 . S
Li266 O327 1.970 . S
Li267 N317 1.990 . S
Li267 O325 1.961 . S
Li267 O326 1.970 . S
Li267 O327 1.956 . S
C268 C270 1.348 . S
C268 C271 1.356 . S
C268 O324 1.325 . S
N269 C272 1.314 . S
N269 C273 1.279 . S
C270 C268 1.348 . S
C270 C272 1.353 . S
C270 H328 0.929 . S
C271 C268 1.356 . S
C271 C273 1.358 . S
C271 H329 0.930 . S
C272 N269 1.314 . S
C272 C270 1.353 . S
C272 H330 0.930 . S
C273 N269 1.279 . S
C273 C271 1.358 . S
C273 H331 0.930 . S
C274 C277 1.348 . S
C274 C278 1.356 . S
C274 O325 1.325 . S
C275 N276 1.279 . S
C275 C278 1.358 . S
C275 H332 0.930 . S
N276 C275 1.279 . S
N276 C279 1.314 . S
C277 C274 1.348 . S
C277 C279 1.353 . S
C277 H333 0.929 . S
C278 C274 1.356 . S
C278 C275 1.358 . S
C278 H334 0.930 . S
C279 N276 1.314 . S
C279 C277 1.353 . S
C279 H335 0.930 . S
C280 N281 1.314 . S
C280 C285 1.353 . S
C280 H286 0.930 . S
N281 Li264 1.990 . S
N281 C280 1.314 . S
N281 C283 1.279 . S
C282 C283 1.358 . S
C282 C284 1.356 . S
C282 H336 0.930 . S
C283 N281 1.279 . S
C283 C282 1.358 . S
C283 H287 0.930 . S
C284 C282 1.356 . S
C284 C285 1.348 . S
C285 C280 1.353 . S
C285 C284 1.348 . S
C285 H337 0.929 . S
H286 C280 0.930 . S
H287 C283 0.930 . S
C288 N289 1.314 . S
C288 C290 1.353 . S
C288 H294 0.930 . S
N289 Li265 1.990 . S
N289 C288 1.314 . S
N289 C292 1.279 . S
C290 C288 1.353 . S
C290 C293 1.348 . S
C290 H338 0.929 . S
C291 C292 1.358 . S
C291 C293 1.356 . S
C291 H339 0.930 . S
C292 N289 1.279 . S
C292 C291 1.358 . S
C292 H295 0.930 . S
C293 C290 1.348 . S
C293 C291 1.356 . S
H294 C288 0.930 . S
H295 C292 0.930 . S
C296 C298 1.348 . S
C296 C299 1.356 . S
C296 O326 1.325 . S
N297 C300 1.314 1_565 S
N297 C301 1.279 . S
C298 C296 1.348 . S
C298 C300 1.353 . S
C298 H340 0.929 . S
C299 C296 1.356 . S
C299 C301 1.358 1_545 S
C299 H341 0.930 . S
C300 N297 1.314 1_545 S
C300 C298 1.353 . S
C300 H342 0.930 . S
C301 N297 1.279 . S
C301 C299 1.358 1_565 S
C301 H343 0.930 . S
C302 C303 1.348 . S
C302 C304 1.356 . S
C302 O327 1.325 . S
C303 C302 1.348 . S
C303 C305 1.353 . S
C303 H344 0.929 . S
C304 C302 1.356 . S
C304 C306 1.358 . S
C304 H345 0.930 . S
C305 C303 1.353 . S
C305 N307 1.314 . S
C305 H346 0.930 . S
C306 C304 1.358 . S
C306 N307 1.279 . S
C306 H347 0.930 . S
N307 C305 1.314 . S
N307 C306 1.279 . S
C308 C310 1.353 . S
C308 N311 1.314 . S
C308 H314 0.930 . S
C309 N311 1.279 . S
C309 C312 1.358 1_545 S
C309 H315 0.930 . S
C310 C308 1.353 . S
C310 C313 1.348 1_545 S
C310 H348 0.929 . S
N311 Li266 1.990 . S
N311 C308 1.314 . S
N311 C309 1.279 . S
C312 C309 1.358 1_565 S
C312 C313 1.356 . S
C312 H349 0.930 . S
C313 C310 1.348 1_565 S
C313 C312 1.356 . S
H314 C308 0.930 . S
H315 C309 0.930 . S
C316 N317 1.314 . S
C316 C318 1.353 . S
C316 H322 0.930 . S
N317 Li267 1.990 . S
N317 C316 1.314 . S
N317 C320 1.279 . S
C318 C316 1.353 . S
C318 C321 1.348 . S
C318 H350 0.929 . S
C319 C320 1.358 . S
C319 C321 1.356 . S
C319 H351 0.930 . S
C320 N317 1.279 . S
C320 C319 1.358 . S
C320 H323 0.930 . S
C321 C318 1.348 . S
C321 C319 1.356 . S
H322 C316 0.930 . S
H323 C320 0.930 . S
O324 Li264 1.956 . S
O324 Li265 1.970 . S
O324 Li266 1.961 . S
O324 C268 1.325 . S
O325 Li264 1.970 . S
O325 Li265 1.956 . S
O325 Li267 1.961 . S
O325 C274 1.325 . S
O326 Li264 1.961 . S
O326 Li266 1.956 . S
O326 Li267 1.970 . S
O326 C296 1.325 . S
O327 Li265 1.961 . S
O327 Li266 1.970 . S
O327 Li267 1.956 . S
O327 C302 1.325 . S
H328 C270 0.929 . S
H329 C271 0.930 . S
H330 C272 0.930 . S
H331 C273 0.930 . S
H332 C275 0.930 . S
H333 C277 0.929 . S
H334 C278 0.930 . S
H335 C279 0.930 . S
H336 C282 0.930 . S
H337 C285 0.929 . S
H338 C290 0.929 . S
H339 C291 0.930 . S
H340 C298 0.929 . S
H341 C299 0.930 . S
H342 C300 0.930 . S
H343 C301 0.930 . S
H344 C303 0.929 . S
H345 C304 0.930 . S
H346 C305 0.930 . S
H347 C306 0.930 . S
H348 C310 0.929 . S
H349 C312 0.930 . S
H350 C318 0.929 . S
H351 C319 0.930 . S
Li352 N369 1.990 . S
Li352 O412 1.956 . S
Li352 O413 1.970 . S
Li352 O414 1.961 . S
Li353 N377 1.990 . S
Li353 O412 1.970 . S
Li353 O413 1.956 . S
Li353 O415 1.961 . S
Li354 N399 1.990 . S
Li354 O412 1.961 . S
Li354 O414 1.956 . S
Li354 O415 1.970 . S
Li355 N405 1.990 . S
Li355 O413 1.961 . S
Li355 O414 1.970 . S
Li355 O415 1.956 . S
C356 C358 1.348 . S
C356 C359 1.356 . S
C356 O412 1.325 . S
N357 C360 1.314 . S
N357 C361 1.279 . S
C358 C356 1.348 . S
C358 C360 1.353 . S
C358 H416 0.929 . S
C359 C356 1.356 . S
C359 C361 1.358 . S
C359 H417 0.930 . S
C360 N357 1.314 . S
C360 C358 1.353 . S
C360 H418 0.930 . S
C361 N357 1.279 . S
C361 C359 1.358 . S
C361 H419 0.930 . S
C362 C365 1.348 . S
C362 C366 1.356 . S
C362 O413 1.325 . S
C363 N364 1.279 . S
C363 C366 1.358 . S
C363 H420 0.930 . S
N364 C363 1.279 . S
N364 C367 1.314 . S
C365 C362 1.348 . S
C365 C367 1.353 . S
C365 H421 0.929 . S
C366 C362 1.356 . S
C366 C363 1.358 . S
C366 H422 0.930 . S
C367 N364 1.314 . S
C367 C365 1.353 . S
C367 H423 0.930 . S
C368 N369 1.314 . S
C368 C373 1.353 . S
C368 H374 0.930 . S
N369 Li352 1.990 . S
N369 C368 1.314 . S
N369 C371 1.279 . S
C370 C371 1.358 . S
C370 C372 1.356 . S
C370 H424 0.930 . S
C371 N369 1.279 . S
C371 C370 1.358 . S
C371 H375 0.930 . S
C372 C370 1.356 . S
C372 C373 1.348 . S
C373 C368 1.353 . S
C373 C372 1.348 . S
C373 H425 0.929 . S
H374 C368 0.930 . S
H375 C371 0.930 . S
C376 N377 1.314 . S
C376 C378 1.353 . S
C376 H382 0.930 . S
N377 Li353 1.990 . S
N377 C376 1.314 . S
N377 C380 1.279 . S
C378 C376 1.353 . S
C378 C381 1.348 . S
C378 H426 0.929 . S
C379 C380 1.358 . S
C379 C381 1.356 . S
C379 H427 0.930 . S
C380 N377 1.279 . S
C380 C379 1.358 . S
C380 H383 0.930 . S
C381 C378 1.348 . S
C381 C379 1.356 . S
H382 C376 0.930 . S
H383 C380 0.930 . S
C384 C386 1.348 . S
C384 C387 1.356 . S
C384 O414 1.325 . S
N385 C388 1.314 . S
N385 C389 1.279 . S
C386 C384 1.348 . S
C386 C388 1.353 . S
C386 H428 0.929 . S
C387 C384 1.356 . S
C387 C389 1.358 . S
C387 H429 0.930 . S
C388 N385 1.314 . S
C388 C386 1.353 . S
C388 H430 0.930 . S
C389 N385 1.279 . S
C389 C387 1.358 . S
C389 H431 0.930 . S
C390 C391 1.348 . S
C390 C392 1.356 . S
C390 O415 1.325 . S
C391 C390 1.348 . S
C391 C393 1.353 . S
C391 H432 0.929 . S
C392 C390 1.356 . S
C392 C394 1.358 . S
C392 H433 0.930 . S
C393 C391 1.353 . S
C393 N395 1.314 . S
C393 H434 0.930 . S
C394 C392 1.358 . S
C394 N395 1.279 . S
C394 H435 0.930 . S
N395 C393 1.314 . S
N395 C394 1.279 . S
C396 C398 1.353 . S
C396 N399 1.314 . S
C396 H402 0.930 . S
C397 N399 1.279 . S
C397 C400 1.358 . S
C397 H403 0.930 . S
C398 C396 1.353 . S
C398 C401 1.348 . S
C398 H436 0.929 . S
N399 Li354 1.990 . S
N399 C396 1.314 . S
N399 C397 1.279 . S
C400 C397 1.358 . S
C400 C401 1.356 . S
C400 H437 0.930 . S
C401 C398 1.348 . S
C401 C400 1.356 . S
H402 C396 0.930 . S
H403 C397 0.930 . S
C404 N405 1.314 . S
C404 C406 1.353 . S
C404 H410 0.930 . S
N405 Li355 1.990 . S
N405 C404 1.314 . S
N405 C408 1.279 . S
C406 C404 1.353 . S
C406 C409 1.348 . S
C406 H438 0.929 . S
C407 C408 1.358 . S
C407 C409 1.356 . S
C407 H439 0.930 . S
C408 N405 1.279 . S
C408 C407 1.358 . S
C408 H411 0.930 . S
C409 C406 1.348 . S
C409 C407 1.356 . S
H410 C404 0.930 . S
H411 C408 0.930 . S
O412 Li352 1.956 . S
O412 Li353 1.970 . S
O412 Li354 1.961 . S
O412 C356 1.325 . S
O413 Li352 1.970 . S
O413 Li353 1.956 . S
O413 Li355 1.961 . S
O413 C362 1.325 . S
O414 Li352 1.961 . S
O414 Li354 1.956 . S
O414 Li355 1.970 . S
O414 C384 1.325 . S
O415 Li353 1.961 . S
O415 Li354 1.970 . S
O415 Li355 1.956 . S
O415 C390 1.325 . S
H416 C358 0.929 . S
H417 C359 0.930 . S
H418 C360 0.930 . S
H419 C361 0.930 . S
H420 C363 0.930 . S
H421 C365 0.929 . S
H422 C366 0.930 . S
H423 C367 0.930 . S
H424 C370 0.930 . S
H425 C373 0.929 . S
H426 C378 0.929 . S
H427 C379 0.930 . S
H428 C386 0.929 . S
H429 C387 0.930 . S
H430 C388 0.930 . S
H431 C389 0.930 . S
H432 C391 0.929 . S
H433 C392 0.930 . S
H434 C393 0.930 . S
H435 C394 0.930 . S
H436 C398 0.929 . S
H437 C400 0.930 . S
H438 C406 0.929 . S
H439 C407 0.930 . S
Li440 N457 1.990 . S
Li440 O500 1.956 . S
Li440 O501 1.970 . S
Li440 O502 1.961 . S
Li441 N465 1.990 . S
Li441 O500 1.970 . S
Li441 O501 1.956 . S
Li441 O503 1.961 . S
Li442 N487 1.990 . S
Li442 O500 1.961 . S
Li442 O502 1.956 . S
Li442 O503 1.970 . S
Li443 N493 1.990 . S
Li443 O501 1.961 . S
Li443 O502 1.970 . S
Li443 O503 1.956 . S
C444 C446 1.348 . S
C444 C447 1.356 . S
C444 O500 1.325 . S
N445 C448 1.314 . S
N445 C449 1.279 . S
C446 C444 1.348 . S
C446 C448 1.353 . S
C446 H504 0.929 . S
C447 C444 1.356 . S
C447 C449 1.358 . S
C447 H505 0.930 . S
C448 N445 1.314 . S
C448 C446 1.353 . S
C448 H506 0.930 . S
C449 N445 1.279 . S
C449 C447 1.358 . S
C449 H507 0.930 . S
C450 C453 1.348 . S
C450 C454 1.356 . S
C450 O501 1.325 . S
C451 N452 1.265 1_455 S
C451 C454 1.358 . S
C451 H508 0.930 . S
N452 C451 1.265 1_655 S
N452 C455 1.311 1_655 S
C453 C450 1.348 . S
C453 C455 1.383 . S
C453 H509 0.929 . S
C454 C450 1.356 . S
C454 C451 1.358 . S
C454 H510 0.930 . S
C455 N452 1.311 1_455 S
C455 C453 1.383 . S
C455 H511 0.901 1_455 S
C456 N457 1.314 1_655 S
C456 C461 1.353 . S
C456 H462 0.930 . S
N457 Li440 1.990 . S
N457 C456 1.314 1_455 S
N457 C459 1.279 . S
C458 C459 1.358 . S
C458 C460 1.356 1_455 S
C458 H512 0.930 . S
C459 N457 1.279 . S
C459 C458 1.358 . S
C459 H463 0.930 . S
C460 C458 1.356 1_655 S
C460 C461 1.348 . S
C461 C456 1.353 . S
C461 C460 1.348 . S
C461 H513 0.929 . S
H462 C456 0.930 . S
H463 C459 0.930 . S
C464 N465 1.314 . S
C464 C466 1.353 . S
C464 H470 0.930 . S
N465 Li441 1.990 . S
N465 C464 1.314 . S
N465 C468 1.279 . S
C466 C464 1.353 . S
C466 C469 1.348 . S
C466 H514 0.929 . S
C467 C468 1.358 . S
C467 C469 1.356 . S
C467 H515 0.930 . S
C468 N465 1.279 . S
C468 C467 1.358 . S
C468 H471 0.930 . S
C469 C466 1.348 . S
C469 C467 1.356 . S
H470 C464 0.930 . S
H471 C468 0.930 . S
C472 C474 1.348 . S
C472 C475 1.356 . S
C472 O502 1.325 . S
N473 C476 1.314 . S
N473 C477 1.279 . S
C474 C472 1.348 . S
C474 C476 1.353 . S
C474 H516 0.929 . S
C475 C472 1.356 . S
C475 C477 1.358 . S
C475 H517 0.930 . S
C476 N473 1.314 . S
C476 C474 1.353 . S
C476 H518 0.930 . S
C477 N473 1.279 . S
C477 C475 1.358 . S
C477 H519 0.930 . S
C478 C479 1.348 . S
C478 C480 1.356 . S
C478 O503 1.325 . S
C479 C478 1.348 . S
C479 C481 1.353 . S
C479 H520 0.929 . S
C480 C478 1.356 . S
C480 C482 1.358 . S
C480 H521 0.930 . S
C481 C479 1.353 . S
C481 N483 1.314 . S
C481 H522 0.930 . S
C482 C480 1.358 . S
C482 N483 1.279 . S
C482 H523 0.930 . S
N483 C481 1.314 . S
N483 C482 1.279 . S
C484 C486 1.353 . S
C484 N487 1.314 . S
C484 H490 0.930 . S
C485 N487 1.279 . S
C485 C488 1.358 . S
C485 H491 0.930 . S
C486 C484 1.353 . S
C486 C489 1.348 . S
C486 H524 0.929 . S
N487 Li442 1.990 . S
N487 C484 1.314 . S
N487 C485 1.279 . S
C488 C485 1.358 . S
C488 C489 1.356 . S
C488 H525 0.930 . S
C489 C486 1.348 . S
C489 C488 1.356 . S
H490 C484 0.930 . S
H491 C485 0.930 . S
C492 N493 1.314 . S
C492 C494 1.353 1_455 S
C492 H498 0.930 . S
N493 Li443 1.990 . S
N493 C492 1.314 . S
N493 C496 1.279 . S
C494 C492 1.353 1_655 S
C494 C497 1.348 1_655 S
C494 H526 0.929 . S
C495 C496 1.358 . S
C495 C497 1.356 . S
C495 H527 0.930 . S
C496 N493 1.279 . S
C496 C495 1.358 . S
C496 H499 0.930 . S
C497 C494 1.348 1_455 S
C497 C495 1.356 . S
H498 C492 0.930 . S
H499 C496 0.930 . S
O500 Li440 1.956 . S
O500 Li441 1.970 . S
O500 Li442 1.961 . S
O500 C444 1.325 . S
O501 Li440 1.970 . S
O501 Li441 1.956 . S
O501 Li443 1.961 . S
O501 C450 1.325 . S
O502 Li440 1.961 . S
O502 Li442 1.956 . S
O502 Li443 1.970 . S
O502 C472 1.325 . S
O503 Li441 1.961 . S
O503 Li442 1.970 . S
O503 Li443 1.956 . S
O503 C478 1.325 . S
H504 C446 0.929 . S
H505 C447 0.930 . S
H506 C448 0.930 . S
H507 C449 0.930 . S
H508 C451 0.930 . S
H509 C453 0.929 . S
H510 C454 0.930 . S
H511 C455 0.901 1_655 S
H512 C458 0.930 . S
H513 C461 0.929 . S
H514 C466 0.929 . S
H515 C467 0.930 . S
H516 C474 0.929 . S
H517 C475 0.930 . S
H518 C476 0.930 . S
H519 C477 0.930 . S
H520 C479 0.929 . S
H521 C480 0.930 . S
H522 C481 0.930 . S
H523 C482 0.930 . S
H524 C486 0.929 . S
H525 C488 0.930 . S
H526 C494 0.929 . S
H527 C495 0.930 . S
Li528 N545 1.990 . S
Li528 O588 1.956 . S
Li528 O589 1.970 . S
Li528 O590 1.961 . S
Li529 N553 1.990 . S
Li529 O588 1.970 . S
Li529 O589 1.956 . S
Li529 O591 1.961 . S
Li530 N575 1.990 . S
Li530 O588 1.961 . S
Li530 O590 1.956 . S
Li530 O591 1.970 . S
Li531 N581 1.990 . S
Li531 O589 1.961 . S
Li531 O590 1.970 . S
Li531 O591 1.956 . S
C532 C534 1.348 . S
C532 C535 1.356 . S
C532 O588 1.325 . S
N533 C536 1.314 . S
N533 C537 1.279 . S
C534 C532 1.348 . S
C534 C536 1.353 . S
C534 H592 0.929 . S
C535 C532 1.356 . S
C535 C537 1.358 . S
C535 H593 0.930 . S
C536 N533 1.314 . S
C536 C534 1.353 . S
C536 H594 0.930 . S
C537 N533 1.279 . S
C537 C535 1.358 . S
C537 H595 0.930 . S
C538 C541 1.348 . S
C538 C542 1.356 . S
C538 O589 1.325 . S
C539 N540 1.279 . S
C539 C542 1.358 . S
C539 H596 0.930 . S
N540 C539 1.279 . S
N540 C543 1.314 . S
C541 C538 1.348 . S
C541 C543 1.353 . S
C541 H597 0.929 . S
C542 C538 1.356 . S
C542 C539 1.358 . S
C542 H598 0.930 . S
C543 N540 1.314 . S
C543 C541 1.353 . S
C543 H599 0.930 . S
C544 N545 1.314 . S
C544 C549 1.353 . S
C544 H550 0.930 . S
N545 Li528 1.990 . S
N545 C544 1.314 . S
N545 C547 1.279 . S
C546 C547 1.358 . S
C546 C548 1.356 . S
C546 H600 0.930 . S
C547 N545 1.279 . S
C547 C546 1.358 . S
C547 H551 0.930 . S
C548 C546 1.356 . S
C548 C549 1.348 . S
C549 C544 1.353 . S
C549 C548 1.348 . S
C549 H601 0.929 . S
H550 C544 0.930 . S
H551 C547 0.930 . S
C552 N553 1.314 . S
C552 C554 1.353 . S
C552 H558 0.930 . S
N553 Li529 1.990 . S
N553 C552 1.314 . S
N553 C556 1.279 . S
C554 C552 1.353 . S
C554 C557 1.348 . S
C554 H602 0.929 . S
C555 C556 1.358 . S
C555 C557 1.356 . S
C555 H603 0.930 . S
C556 N553 1.279 . S
C556 C555 1.358 . S
C556 H559 0.930 . S
C557 C554 1.348 . S
C557 C555 1.356 . S
H558 C552 0.930 . S
H559 C556 0.930 . S
C560 C562 1.348 . S
C560 C563 1.356 . S
C560 O590 1.325 . S
N561 C564 1.314 . S
N561 C565 1.279 . S
C562 C560 1.348 . S
C562 C564 1.353 . S
C562 H604 0.929 . S
C563 C560 1.356 . S
C563 C565 1.358 . S
C563 H605 0.930 . S
C564 N561 1.314 . S
C564 C562 1.353 . S
C564 H606 0.930 . S
C565 N561 1.279 . S
C565 C563 1.358 . S
C565 H607 0.930 . S
C566 C567 1.348 . S
C566 C568 1.356 . S
C566 O591 1.325 . S
C567 C566 1.348 . S
C567 C569 1.353 . S
C567 H608 0.929 . S
C568 C566 1.356 . S
C568 C570 1.358 . S
C568 H609 0.930 . S
C569 C567 1.353 . S
C569 N571 1.314 . S
C569 H610 0.930 . S
C570 C568 1.358 . S
C570 N571 1.279 . S
C570 H611 0.930 . S
N571 C569 1.314 . S
N571 C570 1.279 . S
C572 C574 1.353 . S
C572 N575 1.314 . S
C572 H578 0.930 . S
C573 N575 1.279 . S
C573 C576 1.358 . S
C573 H579 0.930 . S
C574 C572 1.353 . S
C574 C577 1.348 . S
C574 H612 0.929 . S
N575 Li530 1.990 . S
N575 C572 1.314 . S
N575 C573 1.279 . S
C576 C573 1.358 . S
C576 C577 1.356 . S
C576 H613 0.930 . S
C577 C574 1.348 . S
C577 C576 1.356 . S
H578 C572 0.930 . S
H579 C573 0.930 . S
C580 N581 1.314 . S
C580 C582 1.353 . S
C580 H586 0.930 . S
N581 Li531 1.990 . S
N581 C580 1.314 . S
N581 C584 1.279 . S
C582 C580 1.353 . S
C582 C585 1.348 . S
C582 H614 0.929 . S
C583 C584 1.358 . S
C583 C585 1.356 . S
C583 H615 0.930 . S
C584 N581 1.279 . S
C584 C583 1.358 . S
C584 H587 0.930 . S
C585 C582 1.348 . S
C585 C583 1.356 . S
H586 C580 0.930 . S
H587 C584 0.930 . S
O588 Li528 1.956 . S
O588 Li529 1.970 . S
O588 Li530 1.961 . S
O588 C532 1.325 . S
O589 Li528 1.970 . S
O589 Li529 1.956 . S
O589 Li531 1.961 . S
O589 C538 1.325 . S
O590 Li528 1.961 . S
O590 Li530 1.956 . S
O590 Li531 1.970 . S
O590 C560 1.325 . S
O591 Li529 1.961 . S
O591 Li530 1.970 . S
O591 Li531 1.956 . S
O591 C566 1.325 . S
H592 C534 0.929 . S
H593 C535 0.930 . S
H594 C536 0.930 . S
H595 C537 0.930 . S
H596 C539 0.930 . S
H597 C541 0.929 . S
H598 C542 0.930 . S
H599 C543 0.930 . S
H600 C546 0.930 . S
H601 C549 0.929 . S
H602 C554 0.929 . S
H603 C555 0.930 . S
H604 C562 0.929 . S
H605 C563 0.930 . S
H606 C564 0.930 . S
H607 C565 0.930 . S
H608 C567 0.929 . S
H609 C568 0.930 . S
H610 C569 0.930 . S
H611 C570 0.930 . S
H612 C574 0.929 . S
H613 C576 0.930 . S
H614 C582 0.929 . S
H615 C583 0.930 . S
Li616 N633 1.990 . S
Li616 O676 1.956 . S
Li616 O677 1.970 . S
Li616 O678 1.961 . S
Li617 N641 1.990 . S
Li617 O676 1.970 . S
Li617 O677 1.956 . S
Li617 O679 1.961 . S
Li618 N663 1.990 . S
Li618 O676 1.961 . S
Li618 O678 1.956 . S
Li618 O679 1.970 . S
Li619 N669 1.990 . S
Li619 O677 1.961 . S
Li619 O678 1.970 . S
Li619 O679 1.956 . S
C620 C622 1.348 . S
C620 C623 1.356 . S
C620 O676 1.325 . S
N621 C624 1.314 . S
N621 C625 1.279 . S
C622 C620 1.348 . S
C622 C624 1.353 . S
C622 H680 0.929 . S
C623 C620 1.356 . S
C623 C625 1.358 . S
C623 H681 0.930 . S
C624 N621 1.314 . S
C624 C622 1.353 . S
C624 H682 0.930 . S
C625 N621 1.279 . S
C625 C623 1.358 . S
C625 H683 0.930 . S
C626 C629 1.348 . S
C626 C630 1.356 . S
C626 O677 1.325 . S
C627 N628 1.279 . S
C627 C630 1.358 . S
C627 H684 0.930 . S
N628 C627 1.279 . S
N628 C631 1.314 . S
C629 C626 1.348 . S
C629 C631 1.353 . S
C629 H685 0.929 . S
C630 C626 1.356 . S
C630 C627 1.358 . S
C630 H686 0.930 . S
C631 N628 1.314 . S
C631 C629 1.353 . S
C631 H687 0.930 . S
C632 N633 1.314 . S
C632 C637 1.353 . S
C632 H638 0.930 . S
N633 Li616 1.990 . S
N633 C632 1.314 . S
N633 C635 1.279 . S
C634 C635 1.358 . S
C634 C636 1.356 . S
C634 H688 0.930 . S
C635 N633 1.279 . S
C635 C634 1.358 . S
C635 H639 0.930 . S
C636 C634 1.356 . S
C636 C637 1.348 . S
C637 C632 1.353 . S
C637 C636 1.348 . S
C637 H689 0.929 . S
H638 C632 0.930 . S
H639 C635 0.930 . S
C640 N641 1.314 . S
C640 C642 1.353 . S
C640 H646 0.930 . S
N641 Li617 1.990 . S
N641 C640 1.314 . S
N641 C644 1.279 . S
C642 C640 1.353 . S
C642 C645 1.348 . S
C642 H690 0.929 . S
C643 C644 1.358 . S
C643 C645 1.356 . S
C643 H691 0.930 . S
C644 N641 1.279 . S
C644 C643 1.358 . S
C644 H647 0.930 . S
C645 C642 1.348 . S
C645 C643 1.356 . S
H646 C640 0.930 . S
H647 C644 0.930 . S
C648 C650 1.348 . S
C648 C651 1.356 . S
C648 O678 1.325 . S
N649 C652 1.314 . S
N649 C653 1.279 . S
C650 C648 1.348 . S
C650 C652 1.353 . S
C650 H692 0.929 . S
C651 C648 1.356 . S
C651 C653 1.358 . S
C651 H693 0.930 . S
C652 N649 1.314 . S
C652 C650 1.353 . S
C652 H694 0.930 . S
C653 N649 1.279 . S
C653 C651 1.358 . S
C653 H695 0.930 . S
C654 C655 1.348 . S
C654 C656 1.356 . S
C654 O679 1.325 . S
C655 C654 1.348 . S
C655 C657 1.353 . S
C655 H696 0.929 . S
C656 C654 1.356 . S
C656 C658 1.358 . S
C656 H697 0.930 . S
C657 C655 1.353 . S
C657 N659 1.314 . S
C657 H698 0.930 . S
C658 C656 1.358 . S
C658 N659 1.279 . S
C658 H699 0.930 . S
N659 C657 1.314 . S
N659 C658 1.279 . S
C660 C662 1.353 . S
C660 N663 1.314 . S
C660 H666 0.930 . S
C661 N663 1.279 . S
C661 C664 1.358 . S
C661 H667 0.930 . S
C662 C660 1.353 . S
C662 C665 1.348 . S
C662 H700 0.929 . S
N663 Li618 1.990 . S
N663 C660 1.314 . S
N663 C661 1.279 . S
C664 C661 1.358 . S
C664 C665 1.356 . S
C664 H701 0.930 . S
C665 C662 1.348 . S
C665 C664 1.356 . S
H666 C660 0.930 . S
H667 C661 0.930 . S
C668 N669 1.314 . S
C668 C670 1.353 . S
C668 H674 0.930 . S
N669 Li619 1.990 . S
N669 C668 1.314 . S
N669 C672 1.279 . S
C670 C668 1.353 . S
C670 C673 1.348 . S
C670 H702 0.929 . S
C671 C672 1.358 . S
C671 C673 1.356 . S
C671 H703 0.930 . S
C672 N669 1.279 . S
C672 C671 1.358 . S
C672 H675 0.930 . S
C673 C670 1.348 . S
C673 C671 1.356 . S
H674 C668 0.930 . S
H675 C672 0.930 . S
O676 Li616 1.956 . S
O676 Li617 1.970 . S
O676 Li618 1.961 . S
O676 C620 1.325 . S
O677 Li616 1.970 . S
O677 Li617 1.956 . S
O677 Li619 1.961 . S
O677 C626 1.325 . S
O678 Li616 1.961 . S
O678 Li618 1.956 . S
O678 Li619 1.970 . S
O678 C648 1.325 . S
O679 Li617 1.961 . S
O679 Li618 1.970 . S
O679 Li619 1.956 . S
O679 C654 1.325 . S
H680 C622 0.929 . S
H681 C623 0.930 . S
H682 C624 0.930 . S
H683 C625 0.930 . S
H684 C627 0.930 . S
H685 C629 0.929 . S
H686 C630 0.930 . S
H687 C631 0.930 . S
H688 C634 0.930 . S
H689 C637 0.929 . S
H690 C642 0.929 . S
H691 C643 0.930 . S
H692 C650 0.929 . S
H693 C651 0.930 . S
H694 C652 0.930 . S
H695 C653 0.930 . S
H696 C655 0.929 . S
H697 C656 0.930 . S
H698 C657 0.930 . S
H699 C658 0.930 . S
H700 C662 0.929 . S
H701 C664 0.930 . S
H702 C670 0.929 . S
H703 C671 0.930 . S
Li704 N721 1.990 . S
Li704 O764 1.956 . S
Li704 O765 1.970 . S
Li704 O766 1.961 . S
Li705 N729 1.990 . S
Li705 O764 1.970 . S
Li705 O765 1.956 . S
Li705 O767 1.961 . S
Li706 N751 1.990 . S
Li706 O764 1.961 . S
Li706 O766 1.956 . S
Li706 O767 1.970 . S
Li707 N757 1.990 . S
Li707 O765 1.961 . S
Li707 O766 1.970 . S
Li707 O767 1.956 . S
C708 C710 1.348 . S
C708 C711 1.356 . S
C708 O764 1.325 . S
N709 C712 1.314 . S
N709 C713 1.279 . S
C710 C708 1.348 . S
C710 C712 1.353 . S
C710 H768 0.929 . S
C711 C708 1.356 . S
C711 C713 1.358 . S
C711 H769 0.930 . S
C712 N709 1.314 . S
C712 C710 1.353 . S
C712 H770 0.930 . S
C713 N709 1.279 . S
C713 C711 1.358 . S
C713 H771 0.930 . S
C714 C717 1.348 . S
C714 C718 1.356 . S
C714 O765 1.325 . S
C715 N716 1.279 . S
C715 C718 1.358 . S
C715 H772 0.930 . S
N716 C715 1.279 . S
N716 C719 1.314 . S
C717 C714 1.348 . S
C717 C719 1.353 . S
C717 H773 0.929 . S
C718 C714 1.356 . S
C718 C715 1.358 . S
C718 H774 0.930 . S
C719 N716 1.314 . S
C719 C717 1.353 . S
C719 H775 0.930 . S
C720 N721 1.314 . S
C720 C725 1.353 . S
C720 H726 0.930 . S
N721 Li704 1.990 . S
N721 C720 1.314 . S
N721 C723 1.279 . S
C722 C723 1.358 . S
C722 C724 1.356 . S
C722 H776 0.930 . S
C723 N721 1.279 . S
C723 C722 1.358 . S
C723 H727 0.930 . S
C724 C722 1.356 . S
C724 C725 1.348 . S
C725 C720 1.353 . S
C725 C724 1.348 . S
C725 H777 0.929 . S
H726 C720 0.930 . S
H727 C723 0.930 . S
C728 N729 1.314 . S
C728 C730 1.353 . S
C728 H734 0.930 . S
N729 Li705 1.990 . S
N729 C728 1.314 . S
N729 C732 1.279 . S
C730 C728 1.353 . S
C730 C733 1.348 . S
C730 H778 0.929 . S
C731 C732 1.358 . S
C731 C733 1.356 . S
C731 H779 0.930 . S
C732 N729 1.279 . S
C732 C731 1.358 . S
C732 H735 0.930 . S
C733 C730 1.348 . S
C733 C731 1.356 . S
H734 C728 0.930 . S
H735 C732 0.930 . S
C736 C738 1.348 . S
C736 C739 1.356 . S
C736 O766 1.325 . S
N737 C740 1.314 . S
N737 C741 1.279 . S
C738 C736 1.348 . S
C738 C740 1.353 . S
C738 H780 0.929 . S
C739 C736 1.356 . S
C739 C741 1.358 . S
C739 H781 0.930 . S
C740 N737 1.314 . S
C740 C738 1.353 . S
C740 H782 0.930 . S
C741 N737 1.279 . S
C741 C739 1.358 . S
C741 H783 0.930 . S
C742 C743 1.348 . S
C742 C744 1.356 . S
C742 O767 1.325 . S
C743 C742 1.348 . S
C743 C745 1.353 . S
C743 H784 0.929 . S
C744 C742 1.356 . S
C744 C746 1.358 . S
C744 H785 0.930 . S
C745 C743 1.353 . S
C745 N747 1.314 . S
C745 H786 0.930 . S
C746 C744 1.358 . S
C746 N747 1.279 . S
C746 H787 0.930 . S
N747 C745 1.314 . S
N747 C746 1.279 . S
C748 C750 1.353 . S
C748 N751 1.314 . S
C748 H754 0.930 . S
C749 N751 1.279 . S
C749 C752 1.358 . S
C749 H755 0.930 . S
C750 C748 1.353 . S
C750 C753 1.348 . S
C750 H788 0.929 . S
N751 Li706 1.990 . S
N751 C748 1.314 . S
N751 C749 1.279 . S
C752 C749 1.358 . S
C752 C753 1.356 . S
C752 H789 0.930 . S
C753 C750 1.348 . S
C753 C752 1.356 . S
H754 C748 0.930 . S
H755 C749 0.930 . S
C756 N757 1.314 . S
C756 C758 1.353 . S
C756 H762 0.930 . S
N757 Li707 1.990 . S
N757 C756 1.314 . S
N757 C760 1.279 . S
C758 C756 1.353 . S
C758 C761 1.348 . S
C758 H790 0.929 . S
C759 C760 1.358 . S
C759 C761 1.356 . S
C759 H791 0.930 . S
C760 N757 1.279 . S
C760 C759 1.358 . S
C760 H763 0.930 . S
C761 C758 1.348 . S
C761 C759 1.356 . S
H762 C756 0.930 . S
H763 C760 0.930 . S
O764 Li704 1.956 . S
O764 Li705 1.970 . S
O764 Li706 1.961 . S
O764 C708 1.325 . S
O765 Li704 1.970 . S
O765 Li705 1.956 . S
O765 Li707 1.961 . S
O765 C714 1.325 . S
O766 Li704 1.961 . S
O766 Li706 1.956 . S
O766 Li707 1.970 . S
O766 C736 1.325 . S
O767 Li705 1.961 . S
O767 Li706 1.970 . S
O767 Li707 1.956 . S
O767 C742 1.325 . S
H768 C710 0.929 . S
H769 C711 0.930 . S
H770 C712 0.930 . S
H771 C713 0.930 . S
H772 C715 0.930 . S
H773 C717 0.929 . S
H774 C718 0.930 . S
H775 C719 0.930 . S
H776 C722 0.930 . S
H777 C725 0.929 . S
H778 C730 0.929 . S
H779 C731 0.930 . S
H780 C738 0.929 . S
H781 C739 0.930 . S
H782 C740 0.930 . S
H783 C741 0.930 . S
H784 C743 0.929 . S
H785 C744 0.930 . S
H786 C745 0.930 . S
H787 C746 0.930 . S
H788 C750 0.929 . S
H789 C752 0.930 . S
H790 C758 0.929 . S
H791 C759 0.930 . S
Li792 N809 1.990 . S
Li792 O852 1.956 . S
Li792 O853 1.970 . S
Li792 O854 1.961 . S
Li793 N817 1.990 . S
Li793 O852 1.970 . S
Li793 O853 1.956 . S
Li793 O855 1.961 . S
Li794 N839 1.990 . S
Li794 O852 1.961 . S
Li794 O854 1.956 . S
Li794 O855 1.970 . S
Li795 N845 1.990 . S
Li795 O853 1.961 . S
Li795 O854 1.970 . S
Li795 O855 1.956 . S
C796 C798 1.348 . S
C796 C799 1.356 . S
C796 O852 1.325 . S
N797 C800 1.314 . S
N797 C801 1.279 1_655 S
C798 C796 1.348 . S
C798 C800 1.353 1_455 S
C798 H856 0.929 . S
C799 C796 1.356 . S
C799 C801 1.358 . S
C799 H857 0.930 . S
C800 N797 1.314 . S
C800 C798 1.353 1_655 S
C800 H858 0.930 . S
C801 N797 1.279 1_455 S
C801 C799 1.358 . S
C801 H859 0.930 . S
C802 C805 1.348 . S
C802 C806 1.356 . S
C802 O853 1.325 . S
C803 N804 1.279 . S
C803 C806 1.358 . S
C803 H860 0.930 . S
N804 C803 1.279 . S
N804 C807 1.314 . S
C805 C802 1.348 . S
C805 C807 1.353 . S
C805 H861 0.929 . S
C806 C802 1.356 . S
C806 C803 1.358 . S
C806 H862 0.930 . S
C807 N804 1.314 . S
C807 C805 1.353 . S
C807 H863 0.930 . S
C808 N809 1.314 . S
C808 C813 1.353 . S
C808 H814 0.930 . S
N809 Li792 1.990 . S
N809 C808 1.314 . S
N809 C811 1.279 . S
C810 C811 1.358 . S
C810 C812 1.356 . S
C810 H864 0.991 . S
C811 N809 1.279 . S
C811 C810 1.358 . S
C811 H815 0.930 . S
C812 C810 1.356 . S
C812 C813 1.348 . S
C813 C808 1.353 . S
C813 C812 1.348 . S
C813 H865 0.929 . S
H814 C808 0.930 . S
H815 C811 0.930 . S
C816 N817 1.314 . S
C816 C818 1.353 . S
C816 H822 0.930 . S
N817 Li793 1.990 . S
N817 C816 1.314 . S
N817 C820 1.279 . S
C818 C816 1.353 . S
C818 C821 1.348 1_455 S
C818 H866 0.929 . S
C819 C820 1.358 1_655 S
C819 C821 1.356 . S
C819 H867 0.930 . S
C820 N817 1.279 . S
C820 C819 1.358 1_455 S
C820 H823 0.930 . S
C821 C818 1.348 1_655 S
C821 C819 1.356 . S
H822 C816 0.930 . S
H823 C820 0.930 . S
C824 C826 1.348 . S
C824 C827 1.356 . S
C824 O854 1.325 . S
N825 C828 1.314 . S
N825 C829 1.279 . S
C826 C824 1.348 . S
C826 C828 1.353 . S
C826 H868 0.929 . S
C827 C824 1.356 . S
C827 C829 1.358 . S
C827 H869 0.930 . S
C828 N825 1.314 . S
C828 C826 1.353 . S
C828 H870 0.930 . S
C829 N825 1.279 . S
C829 C827 1.358 . S
C829 H871 0.930 . S
C830 C831 1.348 . S
C830 C832 1.356 . S
C830 O855 1.325 . S
C831 C830 1.348 . S
C831 C833 1.353 . S
C831 H872 0.929 . S
C832 C830 1.356 . S
C832 C834 1.358 . S
C832 H873 0.930 . S
C833 C831 1.353 . S
C833 N835 1.314 . S
C833 H874 0.930 . S
C834 C832 1.358 . S
C834 N835 1.279 . S
C834 H875 0.930 . S
N835 C833 1.314 . S
N835 C834 1.279 . S
C836 C838 1.353 . S
C836 N839 1.314 . S
C836 H842 0.930 . S
C837 N839 1.279 . S
C837 C840 1.358 . S
C837 H843 0.930 . S
C838 C836 1.353 . S
C838 C841 1.348 . S
C838 H876 0.929 . S
N839 Li794 1.990 . S
N839 C836 1.314 . S
N839 C837 1.279 . S
C840 C837 1.358 . S
C840 C841 1.356 . S
C840 H877 0.930 . S
C841 C838 1.348 . S
C841 C840 1.356 . S
H842 C836 0.930 . S
H843 C837 0.930 . S
C844 N845 1.314 . S
C844 C846 1.353 . S
C844 H850 0.930 . S
N845 Li795 1.990 . S
N845 C844 1.314 . S
N845 C848 1.279 . S
C846 C844 1.353 . S
C846 C849 1.348 . S
C846 H878 0.929 . S
C847 C848 1.358 . S
C847 C849 1.356 . S
C847 H879 0.930 . S
C848 N845 1.279 . S
C848 C847 1.358 . S
C848 H851 0.930 . S
C849 C846 1.348 . S
C849 C847 1.356 . S
H850 C844 0.930 . S
H851 C848 0.930 . S
O852 Li792 1.956 . S
O852 Li793 1.970 . S
O852 Li794 1.961 . S
O852 C796 1.325 . S
O853 Li792 1.970 . S
O853 Li793 1.956 . S
O853 Li795 1.961 . S
O853 C802 1.325 . S
O854 Li792 1.961 . S
O854 Li794 1.956 . S
O854 Li795 1.970 . S
O854 C824 1.325 . S
O855 Li793 1.961 . S
O855 Li794 1.970 . S
O855 Li795 1.956 . S
O855 C830 1.325 . S
H856 C798 0.929 . S
H857 C799 0.930 . S
H858 C800 0.930 . S
H859 C801 0.930 . S
H860 C803 0.930 . S
H861 C805 0.929 . S
H862 C806 0.930 . S
H863 C807 0.930 . S
H864 C810 0.991 . S
H865 C813 0.929 . S
H866 C818 0.929 . S
H867 C819 0.930 . S
H868 C826 0.929 . S
H869 C827 0.930 . S
H870 C828 0.930 . S
H871 C829 0.930 . S
H872 C831 0.929 . S
H873 C832 0.930 . S
H874 C833 0.930 . S
H875 C834 0.930 . S
H876 C838 0.929 . S
H877 C840 0.930 . S
H878 C846 0.929 . S
H879 C847 0.930 . S
Li880 N897 1.990 . S
Li880 O940 1.956 . S
Li880 O941 1.970 . S
Li880 O942 1.961 . S
Li881 N905 1.990 . S
Li881 O940 1.970 . S
Li881 O941 1.956 . S
Li881 O943 1.961 . S
Li882 N927 1.990 . S
Li882 O940 1.961 . S
Li882 O942 1.956 . S
Li882 O943 1.970 . S
Li883 N933 1.990 . S
Li883 O941 1.961 . S
Li883 O942 1.970 . S
Li883 O943 1.956 . S
C884 C886 1.348 . S
C884 C887 1.356 . S
C884 O940 1.325 . S
N885 C888 1.314 . S
N885 C889 1.279 . S
C886 C884 1.348 . S
C886 C888 1.353 . S
C886 H944 0.929 . S
C887 C884 1.356 . S
C887 C889 1.358 . S
C887 H945 0.930 . S
C888 N885 1.314 . S
C888 C886 1.353 . S
C888 H946 0.930 . S
C889 N885 1.279 . S
C889 C887 1.358 . S
C889 H947 0.930 . S
C890 C893 1.348 . S
C890 C894 1.356 . S
C890 O941 1.325 . S
C891 N892 1.279 . S
C891 C894 1.358 . S
C891 H948 0.930 . S
N892 C891 1.279 . S
N892 C895 1.314 . S
C893 C890 1.348 . S
C893 C895 1.353 . S
C893 H949 0.929 . S
C894 C890 1.356 . S
C894 C891 1.358 . S
C894 H950 0.930 . S
C895 N892 1.314 . S
C895 C893 1.353 . S
C895 H951 0.930 . S
C896 N897 1.314 . S
C896 C901 1.353 . S
C896 H902 0.930 . S
N897 Li880 1.990 . S
N897 C896 1.314 . S
N897 C899 1.279 . S
C898 C899 1.358 . S
C898 C900 1.356 . S
C898 H952 0.930 . S
C899 N897 1.279 . S
C899 C898 1.358 . S
C899 H903 0.930 . S
C900 C898 1.356 . S
C900 C901 1.348 . S
C901 C896 1.353 . S
C901 C900 1.348 . S
C901 H953 0.929 . S
H902 C896 0.930 . S
H903 C899 0.930 . S
C904 N905 1.314 . S
C904 C906 1.353 . S
C904 H910 0.930 . S
N905 Li881 1.990 . S
N905 C904 1.314 . S
N905 C908 1.279 . S
C906 C904 1.353 . S
C906 C909 1.348 . S
C906 H954 0.929 . S
C907 C908 1.358 . S
C907 C909 1.356 . S
C907 H955 0.930 . S
C908 N905 1.279 . S
C908 C907 1.358 . S
C908 H911 0.930 . S
C909 C906 1.348 . S
C909 C907 1.356 . S
H910 C904 0.930 . S
H911 C908 0.930 . S
C912 C914 1.348 . S
C912 C915 1.356 . S
C912 O942 1.325 . S
N913 C916 1.314 . S
N913 C917 1.279 . S
C914 C912 1.348 . S
C914 C916 1.353 . S
C914 H956 0.929 . S
C915 C912 1.356 . S
C915 C917 1.358 . S
C915 H957 0.930 . S
C916 N913 1.314 . S
C916 C914 1.353 . S
C916 H958 0.930 . S
C917 N913 1.279 . S
C917 C915 1.358 . S
C917 H959 0.930 . S
C918 C919 1.348 . S
C918 C920 1.356 . S
C918 O943 1.325 . S
C919 C918 1.348 . S
C919 C921 1.353 . S
C919 H960 0.929 . S
C920 C918 1.356 . S
C920 C922 1.358 . S
C920 H961 0.930 . S
C921 C919 1.353 . S
C921 N923 1.314 . S
C921 H962 0.930 . S
C922 C920 1.358 . S
C922 N923 1.279 . S
C922 H963 0.930 . S
N923 C921 1.314 . S
N923 C922 1.279 . S
C924 C926 1.353 . S
C924 N927 1.314 . S
C924 H930 0.930 . S
C925 N927 1.279 . S
C925 C928 1.358 . S
C925 H931 0.930 . S
C926 C924 1.353 . S
C926 C929 1.348 . S
C926 H964 0.929 . S
N927 Li882 1.990 . S
N927 C924 1.314 . S
N927 C925 1.279 . S
C928 C925 1.358 . S
C928 C929 1.356 . S
C928 H965 0.930 . S
C929 C926 1.348 . S
C929 C928 1.356 . S
H930 C924 0.930 . S
H931 C925 0.930 . S
C932 N933 1.314 . S
C932 C934 1.353 . S
C932 H938 0.930 . S
N933 Li883 1.990 . S
N933 C932 1.314 . S
N933 C936 1.279 . S
C934 C932 1.353 . S
C934 C937 1.348 . S
C934 H966 0.929 . S
C935 C936 1.358 . S
C935 C937 1.356 . S
C935 H967 0.930 . S
C936 N933 1.279 . S
C936 C935 1.358 . S
C936 H939 0.930 . S
C937 C934 1.348 . S
C937 C935 1.356 . S
H938 C932 0.930 . S
H939 C936 0.930 . S
O940 Li880 1.956 . S
O940 Li881 1.970 . S
O940 Li882 1.961 . S
O940 C884 1.325 . S
O941 Li880 1.970 . S
O941 Li881 1.956 . S
O941 Li883 1.961 . S
O941 C890 1.325 . S
O942 Li880 1.961 . S
O942 Li882 1.956 . S
O942 Li883 1.970 . S
O942 C912 1.325 . S
O943 Li881 1.961 . S
O943 Li882 1.970 . S
O943 Li883 1.956 . S
O943 C918 1.325 . S
H944 C886 0.929 . S
H945 C887 0.930 . S
H946 C888 0.930 . S
H947 C889 0.930 . S
H948 C891 0.930 . S
H949 C893 0.929 . S
H950 C894 0.930 . S
H951 C895 0.930 . S
H952 C898 0.930 . S
H953 C901 0.929 . S
H954 C906 0.929 . S
H955 C907 0.930 . S
H956 C914 0.929 . S
H957 C915 0.930 . S
H958 C916 0.930 . S
H959 C917 0.930 . S
H960 C919 0.929 . S
H961 C920 0.930 . S
H962 C921 0.930 . S
H963 C922 0.930 . S
H964 C926 0.929 . S
H965 C928 0.930 . S
H966 C934 0.929 . S
H967 C935 0.930 . S
Li968 N985 1.990 . S
Li968 O1028 1.956 . S
Li968 O1029 1.970 . S
Li968 O1030 1.961 . S
Li969 N993 1.990 . S
Li969 O1028 1.970 . S
Li969 O1029 1.956 . S
Li969 O1031 1.961 . S
Li970 N1015 1.990 . S
Li970 O1028 1.961 . S
Li970 O1030 1.956 . S
Li970 O1031 1.970 . S
Li971 N1021 1.990 . S
Li971 O1029 1.961 . S
Li971 O1030 1.970 . S
Li971 O1031 1.956 . S
C972 C974 1.348 . S
C972 C975 1.356 1_554 S
C972 O1028 1.325 . S
N973 C976 1.314 1_556 S
N973 C977 1.279 . S
C974 C972 1.348 . S
C974 C976 1.353 . S
C974 H1032 0.929 . S
C975 C972 1.356 1_556 S
C975 C977 1.358 . S
C975 H1033 0.930 . S
C976 N973 1.314 1_554 S
C976 C974 1.353 . S
C976 H1034 0.930 . S
C977 N973 1.279 . S
C977 C975 1.358 . S
C977 H1035 0.930 . S
C978 C981 1.348 . S
C978 C982 1.356 . S
C978 O1029 1.325 . S
C979 N980 1.279 . S
C979 C982 1.358 . S
C979 H1036 0.930 . S
N980 C979 1.279 . S
N980 C983 1.314 . S
C981 C978 1.348 . S
C981 C983 1.353 . S
C981 H1037 0.929 . S
C982 C978 1.356 . S
C982 C979 1.358 . S
C982 H1038 0.930 . S
C983 N980 1.314 . S
C983 C981 1.353 . S
C983 H1039 0.930 . S
C984 N985 1.314 . S
C984 C989 1.353 . S
C984 H990 0.930 . S
N985 Li968 1.990 . S
N985 C984 1.314 . S
N985 C987 1.279 . S
C986 C987 1.358 . S
C986 C988 1.356 . S
C986 H1040 0.930 1_554 S
C987 N985 1.279 . S
C987 C986 1.358 . S
C987 H991 0.930 . S
C988 C986 1.356 . S
C988 C989 1.348 . S
C989 C984 1.353 . S
C989 C988 1.348 . S
C989 H1041 0.929 . S
H990 C984 0.930 . S
H991 C987 0.930 . S
C992 N993 1.314 . S
C992 C994 1.353 . S
C992 H998 0.930 . S
N993 Li969 1.990 . S
N993 C992 1.314 . S
N993 C996 1.279 . S
C994 C992 1.353 . S
C994 C997 1.348 . S
C994 H1042 0.929 . S
C995 C996 1.358 . S
C995 C997 1.356 . S
C995 H1043 0.930 . S
C996 N993 1.279 . S
C996 C995 1.358 . S
C996 H999 0.930 . S
C997 C994 1.348 . S
C997 C995 1.356 . S
H998 C992 0.930 . S
H999 C996 0.930 . S
C1000 C1002 1.348 . S
C1000 C1003 1.356 . S
C1000 O1030 1.325 . S
N1001 C1004 1.314 1_556 S
N1001 C1005 1.279 . S
C1002 C1000 1.348 . S
C1002 C1004 1.353 . S
C1002 H1044 0.929 . S
C1003 C1000 1.356 . S
C1003 C1005 1.358 1_554 S
C1003 H1045 0.930 1_554 S
C1004 N1001 1.314 1_554 S
C1004 C1002 1.353 . S
C1004 H1046 0.930 . S
C1005 N1001 1.279 . S
C1005 C1003 1.358 1_556 S
C1005 H1047 0.930 . S
C1006 C1007 1.348 . S
C1006 C1008 1.356 . S
C1006 O1031 1.325 . S
C1007 C1006 1.348 . S
C1007 C1009 1.353 . S
C1007 H1048 0.929 . S
C1008 C1006 1.356 . S
C1008 C1010 1.358 . S
C1008 H1049 0.930 . S
C1009 C1007 1.353 . S
C1009 N1011 1.314 . S
C1009 H1050 0.930 . S
C1010 C1008 1.358 . S
C1010 N1011 1.279 . S
C1010 H1051 0.930 . S
N1011 C1009 1.314 . S
N1011 C1010 1.279 . S
C1012 C1014 1.353 1_554 S
C1012 N1015 1.314 . S
C1012 H1018 0.930 . S
C1013 N1015 1.264 1_556 S
C1013 C1016 1.380 . S
C1013 H1019 0.925 1_556 S
C1014 C1012 1.353 1_556 S
C1014 C1017 1.348 . S
C1014 H1052 0.929 . S
N1015 Li970 1.990 . S
N1015 C1012 1.314 . S
N1015 C1013 1.264 1_554 S
C1016 C1013 1.380 . S
C1016 C1017 1.356 . S
C1016 H1053 0.930 . S
C1017 C1014 1.348 . S
C1017 C1016 1.356 . S
H1018 C1012 0.930 . S
H1019 C1013 0.925 1_554 S
C1020 N1021 1.314 . S
C1020 C1022 1.353 . S
C1020 H1026 0.930 . S
N1021 Li971 1.990 . S
N1021 C1020 1.314 . S
N1021 C1024 1.279 . S
C1022 C1020 1.353 . S
C1022 C1025 1.348 . S
C1022 H1054 0.929 . S
C1023 C1024 1.358 . S
C1023 C1025 1.356 . S
C1023 H1055 0.930 . S
C1024 N1021 1.279 . S
C1024 C1023 1.358 . S
C1024 H1027 0.930 . S
C1025 C1022 1.348 . S
C1025 C1023 1.356 . S
H1026 C1020 0.930 . S
H1027 C1024 0.930 . S
O1028 Li968 1.956 . S
O1028 Li969 1.970 . S
O1028 Li970 1.961 . S
O1028 C972 1.325 . S
O1029 Li968 1.970 . S
O1029 Li969 1.956 . S
O1029 Li971 1.961 . S
O1029 C978 1.325 . S
O1030 Li968 1.961 . S
O1030 Li970 1.956 . S
O1030 Li971 1.970 . S
O1030 C1000 1.325 . S
O1031 Li969 1.961 . S
O1031 Li970 1.970 . S
O1031 Li971 1.956 . S
O1031 C1006 1.325 . S
H1032 C974 0.929 . S
H1033 C975 0.930 . S
H1034 C976 0.930 . S
H1035 C977 0.930 . S
H1036 C979 0.930 . S
H1037 C981 0.929 . S
H1038 C982 0.930 . S
H1039 C983 0.930 . S
H1040 C986 0.930 1_556 S
H1041 C989 0.929 . S
H1042 C994 0.929 . S
H1043 C995 0.930 . S
H1044 C1002 0.929 . S
H1045 C1003 0.930 1_556 S
H1046 C1004 0.930 . S
H1047 C1005 0.930 . S
H1048 C1007 0.929 . S
H1049 C1008 0.930 . S
H1050 C1009 0.930 . S
H1051 C1010 0.930 . S
H1052 C1014 0.929 . S
H1053 C1016 0.930 . S
H1054 C1022 0.929 . S
H1055 C1023 0.930 . S
Li1056 N1073 1.990 . S
Li1056 O1116 1.956 . S
Li1056 O1117 1.970 . S
Li1056 O1118 1.961 . S
Li1057 N1081 1.990 . S
Li1057 O1116 1.970 . S
Li1057 O1117 1.956 . S
Li1057 O1119 1.961 . S
Li1058 N1103 1.990 . S
Li1058 O1116 1.961 . S
Li1058 O1118 1.956 . S
Li1058 O1119 1.970 . S
Li1059 N1109 1.990 . S
Li1059 O1117 1.961 . S
Li1059 O1118 1.970 . S
Li1059 O1119 1.956 . S
C1060 C1062 1.348 . S
C1060 C1063 1.356 . S
C1060 O1116 1.325 . S
N1061 C1064 1.314 . S
N1061 C1065 1.279 . S
C1062 C1060 1.348 . S
C1062 C1064 1.353 . S
C1062 H1120 0.929 . S
C1063 C1060 1.356 . S
C1063 C1065 1.358 . S
C1063 H1121 0.930 . S
C1064 N1061 1.314 . S
C1064 C1062 1.353 . S
C1064 H1122 0.930 . S
C1065 N1061 1.279 . S
C1065 C1063 1.358 . S
C1065 H1123 0.930 . S
C1066 C1069 1.348 . S
C1066 C1070 1.356 . S
C1066 O1117 1.325 . S
C1067 N1068 1.279 . S
C1067 C1070 1.358 . S
C1067 H1124 0.930 . S
N1068 C1067 1.279 . S
N1068 C1071 1.314 . S
C1069 C1066 1.348 . S
C1069 C1071 1.353 . S
C1069 H1125 0.929 . S
C1070 C1066 1.356 . S
C1070 C1067 1.358 . S
C1070 H1126 0.930 . S
C1071 N1068 1.314 . S
C1071 C1069 1.353 . S
C1071 H1127 0.930 . S
C1072 N1073 1.314 . S
C1072 C1077 1.353 . S
C1072 H1078 0.930 . S
N1073 Li1056 1.990 . S
N1073 C1072 1.314 . S
N1073 C1075 1.279 . S
C1074 C1075 1.358 . S
C1074 C1076 1.356 . S
C1074 H1128 0.930 . S
C1075 N1073 1.279 . S
C1075 C1074 1.358 . S
C1075 H1079 0.930 . S
C1076 C1074 1.356 . S
C1076 C1077 1.348 . S
C1077 C1072 1.353 . S
C1077 C1076 1.348 . S
C1077 H1129 0.929 . S
H1078 C1072 0.930 . S
H1079 C1075 0.930 . S
C1080 N1081 1.314 . S
C1080 C1082 1.353 . S
C1080 H1086 0.930 . S
N1081 Li1057 1.990 . S
N1081 C1080 1.314 . S
N1081 C1084 1.279 . S
C1082 C1080 1.353 . S
C1082 C1085 1.348 . S
C1082 H1130 0.929 . S
C1083 C1084 1.358 . S
C1083 C1085 1.356 . S
C1083 H1131 0.930 . S
C1084 N1081 1.279 . S
C1084 C1083 1.358 . S
C1084 H1087 0.930 . S
C1085 C1082 1.348 . S
C1085 C1083 1.356 . S
H1086 C1080 0.930 . S
H1087 C1084 0.930 . S
C1088 C1090 1.348 . S
C1088 C1091 1.356 . S
C1088 O1118 1.325 . S
N1089 C1092 1.314 . S
N1089 C1093 1.279 . S
C1090 C1088 1.348 . S
C1090 C1092 1.353 . S
C1090 H1132 0.929 . S
C1091 C1088 1.356 . S
C1091 C1093 1.358 . S
C1091 H1133 0.930 . S
C1092 N1089 1.314 . S
C1092 C1090 1.353 . S
C1092 H1134 0.930 . S
C1093 N1089 1.279 . S
C1093 C1091 1.358 . S
C1093 H1135 0.930 . S
C1094 C1095 1.348 . S
C1094 C1096 1.356 . S
C1094 O1119 1.325 . S
C1095 C1094 1.348 . S
C1095 C1097 1.353 . S
C1095 H1136 0.929 . S
C1096 C1094 1.356 . S
C1096 C1098 1.358 . S
C1096 H1137 0.930 . S
C1097 C1095 1.353 . S
C1097 N1099 1.314 . S
C1097 H1138 0.930 . S
C1098 C1096 1.358 . S
C1098 N1099 1.279 . S
C1098 H1139 0.930 . S
N1099 C1097 1.314 . S
N1099 C1098 1.279 . S
C1100 C1102 1.353 . S
C1100 N1103 1.314 . S
C1100 H1106 0.930 . S
C1101 N1103 1.279 . S
C1101 C1104 1.358 . S
C1101 H1107 0.930 . S
C1102 C1100 1.353 . S
C1102 C1105 1.348 . S
C1102 H1140 0.929 . S
N1103 Li1058 1.990 . S
N1103 C1100 1.314 . S
N1103 C1101 1.279 . S
C1104 C1101 1.358 . S
C1104 C1105 1.356 . S
C1104 H1141 0.930 . S
C1105 C1102 1.348 . S
C1105 C1104 1.356 . S
H1106 C1100 0.930 . S
H1107 C1101 0.930 . S
C1108 N1109 1.314 . S
C1108 C1110 1.353 . S
C1108 H1114 0.930 . S
N1109 Li1059 1.990 . S
N1109 C1108 1.314 . S
N1109 C1112 1.279 . S
C1110 C1108 1.353 . S
C1110 C1113 1.348 . S
C1110 H1142 0.929 . S
C1111 C1112 1.358 . S
C1111 C1113 1.356 . S
C1111 H1143 0.930 . S
C1112 N1109 1.279 . S
C1112 C1111 1.358 . S
C1112 H1115 0.930 . S
C1113 C1110 1.348 . S
C1113 C1111 1.356 . S
H1114 C1108 0.930 . S
H1115 C1112 0.930 . S
O1116 Li1056 1.956 . S
O1116 Li1057 1.970 . S
O1116 Li1058 1.961 . S
O1116 C1060 1.325 . S
O1117 Li1056 1.970 . S
O1117 Li1057 1.956 . S
O1117 Li1059 1.961 . S
O1117 C1066 1.325 . S
O1118 Li1056 1.961 . S
O1118 Li1058 1.956 . S
O1118 Li1059 1.970 . S
O1118 C1088 1.325 . S
O1119 Li1057 1.961 . S
O1119 Li1058 1.970 . S
O1119 Li1059 1.956 . S
O1119 C1094 1.325 . S
H1120 C1062 0.929 . S
H1121 C1063 0.930 . S
H1122 C1064 0.930 . S
H1123 C1065 0.930 . S
H1124 C1067 0.930 . S
H1125 C1069 0.929 . S
H1126 C1070 0.930 . S
H1127 C1071 0.930 . S
H1128 C1074 0.930 . S
H1129 C1077 0.929 . S
H1130 C1082 0.929 . S
H1131 C1083 0.930 . S
H1132 C1090 0.929 . S
H1133 C1091 0.930 . S
H1134 C1092 0.930 . S
H1135 C1093 0.930 . S
H1136 C1095 0.929 . S
H1137 C1096 0.930 . S
H1138 C1097 0.930 . S
H1139 C1098 0.930 . S
H1140 C1102 0.929 . S
H1141 C1104 0.930 . S
H1142 C1110 0.929 . S
H1143 C1111 0.930 . S
Li1144 N1161 1.990 . S
Li1144 O1204 1.956 . S
Li1144 O1205 1.970 . S
Li1144 O1206 1.961 . S
Li1145 N1169 1.990 . S
Li1145 O1204 1.970 . S
Li1145 O1205 1.956 . S
Li1145 O1207 1.961 . S
Li1146 N1191 1.990 . S
Li1146 O1204 1.961 . S
Li1146 O1206 1.956 . S
Li1146 O1207 1.970 . S
Li1147 N1197 1.990 . S
Li1147 O1205 1.961 . S
Li1147 O1206 1.970 . S
Li1147 O1207 1.956 . S
C1148 C1150 1.348 . S
C1148 C1151 1.356 . S
C1148 O1204 1.325 . S
N1149 C1152 1.314 1_554 S
N1149 C1153 1.279 . S
C1150 C1148 1.348 . S
C1150 C1152 1.353 . S
C1150 H1208 0.929 . S
C1151 C1148 1.356 . S
C1151 C1153 1.358 1_556 S
C1151 H1209 0.930 1_556 S
C1152 N1149 1.314 1_556 S
C1152 C1150 1.353 . S
C1152 H1210 0.930 . S
C1153 N1149 1.279 . S
C1153 C1151 1.358 1_554 S
C1153 H1211 0.930 . S
C1154 C1157 1.348 . S
C1154 C1158 1.356 . S
C1154 O1205 1.325 . S
C1155 N1156 1.279 1_655 S
C1155 C1158 1.358 . S
C1155 H1212 0.930 . S
N1156 C1155 1.279 1_455 S
N1156 C1159 1.314 . S
C1157 C1154 1.348 . S
C1157 C1159 1.353 1_655 S
C1157 H1213 0.929 . S
C1158 C1154 1.356 . S
C1158 C1155 1.358 . S
C1158 H1214 0.930 . S
C1159 N1156 1.314 . S
C1159 C1157 1.353 1_455 S
C1159 H1215 0.930 . S
C1160 N1161 1.314 . S
C1160 C1165 1.353 1_556 S
C1160 H1166 0.930 . S
N1161 Li1144 1.990 . S
N1161 C1160 1.314 . S
N1161 C1163 1.264 1_556 S
C1162 C1163 1.380 1_455 S
C1162 C1164 1.356 . S
C1162 H1216 0.930 . S
C1163 N1161 1.264 1_554 S
C1163 C1162 1.380 1_655 S
C1163 H1167 0.925 1_554 S
C1164 C1162 1.356 . S
C1164 C1165 1.348 1_455 S
C1165 C1160 1.353 1_554 S
C1165 C1164 1.348 1_655 S
C1165 H1217 0.929 . S
H1166 C1160 0.930 . S
H1167 C1163 0.925 1_556 S
C1168 N1169 1.314 . S
C1168 C1170 1.353 . S
C1168 H1174 0.930 . S
N1169 Li1145 1.990 . S
N1169 C1168 1.314 . S
N1169 C1172 1.279 . S
C1170 C1168 1.353 . S
C1170 C1173 1.348 . S
C1170 H1218 0.929 . S
C1171 C1172 1.358 . S
C1171 C1173 1.356 . S
C1171 H1219 0.993 . S
C1172 N1169 1.279 . S
C1172 C1171 1.358 . S
C1172 H1175 0.930 . S
C1173 C1170 1.348 . S
C1173 C1171 1.356 . S
H1174 C1168 0.930 . S
H1175 C1172 0.930 . S
C1176 C1178 1.348 . S
C1176 C1179 1.356 1_556 S
C1176 O1206 1.325 . S
N1177 C1180 1.314 1_554 S
N1177 C1181 1.279 . S
C1178 C1176 1.348 . S
C1178 C1180 1.353 . S
C1178 H1220 0.929 . S
C1179 C1176 1.356 1_554 S
C1179 C1181 1.358 . S
C1179 H1221 0.930 . S
C1180 N1177 1.314 1_556 S
C1180 C1178 1.353 . S
C1180 H1222 0.930 . S
C1181 N1177 1.279 . S
C1181 C1179 1.358 . S
C1181 H1223 0.930 . S
C1182 C1183 1.348 . S
C1182 C1184 1.356 . S
C1182 O1207 1.325 . S
C1183 C1182 1.348 . S
C1183 C1185 1.353 . S
C1183 H1224 0.929 . S
C1184 C1182 1.356 . S
C1184 C1186 1.358 . S
C1184 H1225 0.930 . S
C1185 C1183 1.353 . S
C1185 N1187 1.314 . S
C1185 H1226 0.930 . S
C1186 C1184 1.358 . S
C1186 N1187 1.279 . S
C1186 H1227 0.930 . S
N1187 C1185 1.314 . S
N1187 C1186 1.279 . S
C1188 C1190 1.353 . S
C1188 N1191 1.314 . S
C1188 H1194 0.930 . S
C1189 N1191 1.279 . S
C1189 C1192 1.358 . S
C1189 H1195 0.930 . S
C1190 C1188 1.353 . S
C1190 C1193 1.348 . S
C1190 H1228 0.929 . S
N1191 Li1146 1.990 . S
N1191 C1188 1.314 . S
N1191 C1189 1.279 . S
C1192 C1189 1.358 . S
C1192 C1193 1.356 . S
C1192 H1229 0.930 1_556 S
C1193 C1190 1.348 . S
C1193 C1192 1.356 . S
H1194 C1188 0.930 . S
H1195 C1189 0.930 . S
C1196 N1197 1.314 . S
C1196 C1198 1.353 . S
C1196 H1202 0.930 . S
N1197 Li1147 1.990 . S
N1197 C1196 1.314 . S
N1197 C1200 1.279 . S
C1198 C1196 1.353 . S
C1198 C1201 1.348 . S
C1198 H1230 0.929 . S
C1199 C1200 1.358 . S
C1199 C1201 1.356 . S
C1199 H1231 0.930 . S
C1200 N1197 1.279 . S
C1200 C1199 1.358 . S
C1200 H1203 0.930 . S
C1201 C1198 1.348 . S
C1201 C1199 1.356 . S
H1202 C1196 0.930 . S
H1203 C1200 0.930 . S
O1204 Li1144 1.956 . S
O1204 Li1145 1.970 . S
O1204 Li1146 1.961 . S
O1204 C1148 1.325 . S
O1205 Li1144 1.970 . S
O1205 Li1145 1.956 . S
O1205 Li1147 1.961 . S
O1205 C1154 1.325 . S
O1206 Li1144 1.961 . S
O1206 Li1146 1.956 . S
O1206 Li1147 1.970 . S
O1206 C1176 1.325 . S
O1207 Li1145 1.961 . S
O1207 Li1146 1.970 . S
O1207 Li1147 1.956 . S
O1207 C1182 1.325 . S
H1208 C1150 0.929 . S
H1209 C1151 0.930 1_554 S
H1210 C1152 0.930 . S
H1211 C1153 0.930 . S
H1212 C1155 0.930 . S
H1213 C1157 0.929 . S
H1214 C1158 0.930 . S
H1215 C1159 0.930 . S
H1216 C1162 0.930 . S
H1217 C1165 0.929 . S
H1218 C1170 0.929 . S
H1219 C1171 0.993 . S
H1220 C1178 0.929 . S
H1221 C1179 0.930 . S
H1222 C1180 0.930 . S
H1223 C1181 0.930 . S
H1224 C1183 0.929 . S
H1225 C1184 0.930 . S
H1226 C1185 0.930 . S
H1227 C1186 0.930 . S
H1228 C1190 0.929 . S
H1229 C1192 0.930 1_554 S
H1230 C1198 0.929 . S
H1231 C1199 0.930 . S
Li1232 N1249 1.990 . S
Li1232 O1292 1.956 . S
Li1232 O1293 1.970 . S
Li1232 O1294 1.961 . S
Li1233 N1257 1.990 . S
Li1233 O1292 1.970 . S
Li1233 O1293 1.956 . S
Li1233 O1295 1.961 . S
Li1234 N1279 1.990 . S
Li1234 O1292 1.961 . S
Li1234 O1294 1.956 . S
Li1234 O1295 1.970 . S
Li1235 N1285 1.990 . S
Li1235 O1293 1.961 . S
Li1235 O1294 1.970 . S
Li1235 O1295 1.956 . S
C1236 C1238 1.348 . S
C1236 C1239 1.356 . S
C1236 O1292 1.325 . S
N1237 C1240 1.314 . S
N1237 C1241 1.279 . S
C1238 C1236 1.348 . S
C1238 C1240 1.353 . S
C1238 H1296 0.929 . S
C1239 C1236 1.356 . S
C1239 C1241 1.358 . S
C1239 H1297 0.930 . S
C1240 N1237 1.314 . S
C1240 C1238 1.353 . S
C1240 H1298 0.930 . S
C1241 N1237 1.279 . S
C1241 C1239 1.358 . S
C1241 H1299 0.930 . S
C1242 C1245 1.348 . S
C1242 C1246 1.356 . S
C1242 O1293 1.325 . S
C1243 N1244 1.279 . S
C1243 C1246 1.358 . S
C1243 H1300 0.930 . S
N1244 C1243 1.279 . S
N1244 C1247 1.314 . S
C1245 C1242 1.348 . S
C1245 C1247 1.353 . S
C1245 H1301 0.929 . S
C1246 C1242 1.356 . S
C1246 C1243 1.358 . S
C1246 H1302 0.930 . S
C1247 N1244 1.314 . S
C1247 C1245 1.353 . S
C1247 H1303 0.930 . S
C1248 N1249 1.314 . S
C1248 C1253 1.353 . S
C1248 H1254 0.930 . S
N1249 Li1232 1.990 . S
N1249 C1248 1.314 . S
N1249 C1251 1.279 . S
C1250 C1251 1.358 . S
C1250 C1252 1.356 . S
C1250 H1304 0.930 . S
C1251 N1249 1.279 . S
C1251 C1250 1.358 . S
C1251 H1255 0.930 . S
C1252 C1250 1.356 . S
C1252 C1253 1.348 . S
C1253 C1248 1.353 . S
C1253 C1252 1.348 . S
C1253 H1305 0.929 . S
H1254 C1248 0.930 . S
H1255 C1251 0.930 . S
C1256 N1257 1.314 . S
C1256 C1258 1.353 . S
C1256 H1262 0.930 . S
N1257 Li1233 1.990 . S
N1257 C1256 1.314 . S
N1257 C1260 1.279 . S
C1258 C1256 1.353 . S
C1258 C1261 1.348 . S
C1258 H1306 0.929 . S
C1259 C1260 1.358 . S
C1259 C1261 1.356 . S
C1259 H1307 0.930 . S
C1260 N1257 1.279 . S
C1260 C1259 1.358 . S
C1260 H1263 0.930 . S
C1261 C1258 1.348 . S
C1261 C1259 1.356 . S
H1262 C1256 0.930 . S
H1263 C1260 0.930 . S
C1264 C1266 1.348 . S
C1264 C1267 1.356 . S
C1264 O1294 1.325 . S
N1265 C1268 1.314 . S
N1265 C1269 1.279 . S
C1266 C1264 1.348 . S
C1266 C1268 1.353 . S
C1266 H1308 0.929 . S
C1267 C1264 1.356 . S
C1267 C1269 1.358 . S
C1267 H1309 0.930 . S
C1268 N1265 1.314 . S
C1268 C1266 1.353 . S
C1268 H1310 0.930 . S
C1269 N1265 1.279 . S
C1269 C1267 1.358 . S
C1269 H1311 0.930 . S
C1270 C1271 1.348 . S
C1270 C1272 1.356 . S
C1270 O1295 1.325 . S
C1271 C1270 1.348 . S
C1271 C1273 1.353 . S
C1271 H1312 0.929 . S
C1272 C1270 1.356 . S
C1272 C1274 1.358 . S
C1272 H1313 0.930 . S
C1273 C1271 1.353 . S
C1273 N1275 1.314 . S
C1273 H1314 0.930 . S
C1274 C1272 1.358 . S
C1274 N1275 1.279 . S
C1274 H1315 0.930 . S
N1275 C1273 1.314 . S
N1275 C1274 1.279 . S
C1276 C1278 1.353 . S
C1276 N1279 1.314 . S
C1276 H1282 0.930 . S
C1277 N1279 1.279 . S
C1277 C1280 1.358 . S
C1277 H1283 0.930 . S
C1278 C1276 1.353 . S
C1278 C1281 1.348 . S
C1278 H1316 0.929 . S
N1279 Li1234 1.990 . S
N1279 C1276 1.314 . S
N1279 C1277 1.279 . S
C1280 C1277 1.358 . S
C1280 C1281 1.356 . S
C1280 H1317 0.930 . S
C1281 C1278 1.348 . S
C1281 C1280 1.356 . S
H1282 C1276 0.930 . S
H1283 C1277 0.930 . S
C1284 N1285 1.314 . S
C1284 C1286 1.353 . S
C1284 H1290 0.930 . S
N1285 Li1235 1.990 . S
N1285 C1284 1.314 . S
N1285 C1288 1.279 . S
C1286 C1284 1.353 . S
C1286 C1289 1.348 . S
C1286 H1318 0.929 . S
C1287 C1288 1.358 . S
C1287 C1289 1.356 . S
C1287 H1319 0.930 . S
C1288 N1285 1.279 . S
C1288 C1287 1.358 . S
C1288 H1291 0.930 . S
C1289 C1286 1.348 . S
C1289 C1287 1.356 . S
H1290 C1284 0.930 . S
H1291 C1288 0.930 . S
O1292 Li1232 1.956 . S
O1292 Li1233 1.970 . S
O1292 Li1234 1.961 . S
O1292 C1236 1.325 . S
O1293 Li1232 1.970 . S
O1293 Li1233 1.956 . S
O1293 Li1235 1.961 . S
O1293 C1242 1.325 . S
O1294 Li1232 1.961 . S
O1294 Li1234 1.956 . S
O1294 Li1235 1.970 . S
O1294 C1264 1.325 . S
O1295 Li1233 1.961 . S
O1295 Li1234 1.970 . S
O1295 Li1235 1.956 . S
O1295 C1270 1.325 . S
H1296 C1238 0.929 . S
H1297 C1239 0.930 . S
H1298 C1240 0.930 . S
H1299 C1241 0.930 . S
H1300 C1243 0.930 . S
H1301 C1245 0.929 . S
H1302 C1246 0.930 . S
H1303 C1247 0.930 . S
H1304 C1250 0.930 . S
H1305 C1253 0.929 . S
H1306 C1258 0.929 . S
H1307 C1259 0.930 . S
H1308 C1266 0.929 . S
H1309 C1267 0.930 . S
H1310 C1268 0.930 . S
H1311 C1269 0.930 . S
H1312 C1271 0.929 . S
H1313 C1272 0.930 . S
H1314 C1273 0.930 . S
H1315 C1274 0.930 . S
H1316 C1278 0.929 . S
H1317 C1280 0.930 . S
H1318 C1286 0.929 . S
H1319 C1287 0.930 . S
Li1320 N1337 1.990 . S
Li1320 O1380 1.956 . S
Li1320 O1381 1.970 . S
Li1320 O1382 1.961 . S
Li1321 N1345 1.990 . S
Li1321 O1380 1.970 . S
Li1321 O1381 1.956 . S
Li1321 O1383 1.961 . S
Li1322 N1367 1.990 . S
Li1322 O1380 1.961 . S
Li1322 O1382 1.956 . S
Li1322 O1383 1.970 . S
Li1323 N1373 1.990 . S
Li1323 O1381 1.961 . S
Li1323 O1382 1.970 . S
Li1323 O1383 1.956 . S
C1324 C1326 1.348 . S
C1324 C1327 1.356 . S
C1324 O1380 1.325 . S
N1325 C1328 1.314 . S
N1325 C1329 1.279 . S
C1326 C1324 1.348 . S
C1326 C1328 1.353 . S
C1326 H1384 0.929 . S
C1327 C1324 1.356 . S
C1327 C1329 1.358 . S
C1327 H1385 0.930 . S
C1328 N1325 1.314 . S
C1328 C1326 1.353 . S
C1328 H1386 0.930 . S
C1329 N1325 1.279 . S
C1329 C1327 1.358 . S
C1329 H1387 0.930 . S
C1330 C1333 1.348 . S
C1330 C1334 1.356 . S
C1330 O1381 1.325 . S
C1331 N1332 1.279 . S
C1331 C1334 1.358 . S
C1331 H1388 0.930 . S
N1332 C1331 1.279 . S
N1332 C1335 1.314 . S
C1333 C1330 1.348 . S
C1333 C1335 1.353 . S
C1333 H1389 0.929 . S
C1334 C1330 1.356 . S
C1334 C1331 1.358 . S
C1334 H1390 0.930 . S
C1335 N1332 1.314 . S
C1335 C1333 1.353 . S
C1335 H1391 0.930 . S
C1336 N1337 1.314 . S
C1336 C1341 1.353 . S
C1336 H1342 0.930 . S
N1337 Li1320 1.990 . S
N1337 C1336 1.314 . S
N1337 C1339 1.279 . S
C1338 C1339 1.358 . S
C1338 C1340 1.356 . S
C1338 H1392 0.930 . S
C1339 N1337 1.279 . S
C1339 C1338 1.358 . S
C1339 H1343 0.930 . S
C1340 C1338 1.356 . S
C1340 C1341 1.348 . S
C1341 C1336 1.353 . S
C1341 C1340 1.348 . S
C1341 H1393 0.929 . S
H1342 C1336 0.930 . S
H1343 C1339 0.930 . S
C1344 N1345 1.314 . S
C1344 C1346 1.353 . S
C1344 H1350 0.930 . S
N1345 Li1321 1.990 . S
N1345 C1344 1.314 . S
N1345 C1348 1.279 . S
C1346 C1344 1.353 . S
C1346 C1349 1.348 . S
C1346 H1394 0.929 . S
C1347 C1348 1.358 . S
C1347 C1349 1.356 . S
C1347 H1395 0.930 . S
C1348 N1345 1.279 . S
C1348 C1347 1.358 . S
C1348 H1351 0.930 . S
C1349 C1346 1.348 . S
C1349 C1347 1.356 . S
H1350 C1344 0.930 . S
H1351 C1348 0.930 . S
C1352 C1354 1.348 . S
C1352 C1355 1.356 . S
C1352 O1382 1.325 . S
N1353 C1356 1.314 . S
N1353 C1357 1.279 . S
C1354 C1352 1.348 . S
C1354 C1356 1.353 . S
C1354 H1396 0.929 . S
C1355 C1352 1.356 . S
C1355 C1357 1.358 . S
C1355 H1397 0.930 . S
C1356 N1353 1.314 . S
C1356 C1354 1.353 . S
C1356 H1398 0.930 . S
C1357 N1353 1.279 . S
C1357 C1355 1.358 . S
C1357 H1399 0.930 . S
C1358 C1359 1.348 . S
C1358 C1360 1.356 . S
C1358 O1383 1.325 . S
C1359 C1358 1.348 . S
C1359 C1361 1.353 . S
C1359 H1400 0.929 . S
C1360 C1358 1.356 . S
C1360 C1362 1.358 . S
C1360 H1401 0.930 . S
C1361 C1359 1.353 . S
C1361 N1363 1.314 . S
C1361 H1402 0.930 . S
C1362 C1360 1.358 . S
C1362 N1363 1.279 . S
C1362 H1403 0.930 . S
N1363 C1361 1.314 . S
N1363 C1362 1.279 . S
C1364 C1366 1.353 . S
C1364 N1367 1.314 . S
C1364 H1370 0.930 . S
C1365 N1367 1.279 . S
C1365 C1368 1.358 . S
C1365 H1371 0.930 . S
C1366 C1364 1.353 . S
C1366 C1369 1.348 . S
C1366 H1404 0.929 . S
N1367 Li1322 1.990 . S
N1367 C1364 1.314 . S
N1367 C1365 1.279 . S
C1368 C1365 1.358 . S
C1368 C1369 1.356 . S
C1368 H1405 0.930 . S
C1369 C1366 1.348 . S
C1369 C1368 1.356 . S
H1370 C1364 0.930 . S
H1371 C1365 0.930 . S
C1372 N1373 1.314 . S
C1372 C1374 1.353 . S
C1372 H1378 0.930 . S
N1373 Li1323 1.990 . S
N1373 C1372 1.314 . S
N1373 C1376 1.279 . S
C1374 C1372 1.353 . S
C1374 C1377 1.348 . S
C1374 H1406 0.929 . S
C1375 C1376 1.358 . S
C1375 C1377 1.356 . S
C1375 H1407 0.930 . S
C1376 N1373 1.279 . S
C1376 C1375 1.358 . S
C1376 H1379 0.930 . S
C1377 C1374 1.348 . S
C1377 C1375 1.356 . S
H1378 C1372 0.930 . S
H1379 C1376 0.930 . S
O1380 Li1320 1.956 . S
O1380 Li1321 1.970 . S
O1380 Li1322 1.961 . S
O1380 C1324 1.325 . S
O1381 Li1320 1.970 . S
O1381 Li1321 1.956 . S
O1381 Li1323 1.961 . S
O1381 C1330 1.325 . S
O1382 Li1320 1.961 . S
O1382 Li1322 1.956 . S
O1382 Li1323 1.970 . S
O1382 C1352 1.325 . S
O1383 Li1321 1.961 . S
O1383 Li1322 1.970 . S
O1383 Li1323 1.956 . S
O1383 C1358 1.325 . S
H1384 C1326 0.929 . S
H1385 C1327 0.930 . S
H1386 C1328 0.930 . S
H1387 C1329 0.930 . S
H1388 C1331 0.930 . S
H1389 C1333 0.929 . S
H1390 C1334 0.930 . S
H1391 C1335 0.930 . S
H1392 C1338 0.930 . S
H1393 C1341 0.929 . S
H1394 C1346 0.929 . S
H1395 C1347 0.930 . S
H1396 C1354 0.929 . S
H1397 C1355 0.930 . S
H1398 C1356 0.930 . S
H1399 C1357 0.930 . S
H1400 C1359 0.929 . S
H1401 C1360 0.930 . S
H1402 C1361 0.930 . S
H1403 C1362 0.930 . S
H1404 C1366 0.929 . S
H1405 C1368 0.930 . S
H1406 C1374 0.929 . S
H1407 C1375 0.930 . S
Li1408 N1425 1.990 . S
Li1408 O1468 1.956 . S
Li1408 O1469 1.970 . S
Li1408 O1470 1.961 . S
Li1409 N1433 1.990 . S
Li1409 O1468 1.970 . S
Li1409 O1469 1.956 . S
Li1409 O1471 1.961 . S
Li1410 N1455 1.990 . S
Li1410 O1468 1.961 . S
Li1410 O1470 1.956 . S
Li1410 O1471 1.970 . S
Li1411 N1461 1.990 . S
Li1411 O1469 1.961 . S
Li1411 O1470 1.970 . S
Li1411 O1471 1.956 . S
C1412 C1414 1.348 . S
C1412 C1415 1.356 . S
C1412 O1468 1.325 . S
N1413 C1416 1.314 . S
N1413 C1417 1.279 . S
C1414 C1412 1.348 . S
C1414 C1416 1.353 . S
C1414 H1472 0.929 . S
C1415 C1412 1.356 . S
C1415 C1417 1.358 . S
C1415 H1473 0.930 . S
C1416 N1413 1.314 . S
C1416 C1414 1.353 . S
C1416 H1474 0.930 . S
C1417 N1413 1.279 . S
C1417 C1415 1.358 . S
C1417 H1475 0.930 . S
C1418 C1421 1.348 . S
C1418 C1422 1.356 . S
C1418 O1469 1.325 . S
C1419 N1420 1.279 . S
C1419 C1422 1.358 . S
C1419 H1476 0.930 . S
N1420 C1419 1.279 . S
N1420 C1423 1.314 . S
C1421 C1418 1.348 . S
C1421 C1423 1.353 . S
C1421 H1477 0.929 . S
C1422 C1418 1.356 . S
C1422 C1419 1.358 . S
C1422 H1478 0.930 . S
C1423 N1420 1.314 . S
C1423 C1421 1.353 . S
C1423 H1479 0.930 . S
C1424 N1425 1.314 . S
C1424 C1429 1.353 . S
C1424 H1430 0.930 . S
N1425 Li1408 1.990 . S
N1425 C1424 1.314 . S
N1425 C1427 1.279 . S
C1426 C1427 1.358 . S
C1426 C1428 1.356 . S
C1426 H1480 0.930 . S
C1427 N1425 1.279 . S
C1427 C1426 1.358 . S
C1427 H1431 0.930 . S
C1428 C1426 1.356 . S
C1428 C1429 1.348 . S
C1429 C1424 1.353 . S
C1429 C1428 1.348 . S
C1429 H1481 0.929 . S
H1430 C1424 0.930 . S
H1431 C1427 0.930 . S
C1432 N1433 1.314 . S
C1432 C1434 1.353 . S
C1432 H1438 0.930 . S
N1433 Li1409 1.990 . S
N1433 C1432 1.314 . S
N1433 C1436 1.279 . S
C1434 C1432 1.353 . S
C1434 C1437 1.348 . S
C1434 H1482 0.929 . S
C1435 C1436 1.358 . S
C1435 C1437 1.356 . S
C1435 H1483 0.930 . S
C1436 N1433 1.279 . S
C1436 C1435 1.358 . S
C1436 H1439 0.930 . S
C1437 C1434 1.348 . S
C1437 C1435 1.356 . S
H1438 C1432 0.930 . S
H1439 C1436 0.930 . S
C1440 C1442 1.348 . S
C1440 C1443 1.356 . S
C1440 O1470 1.325 . S
N1441 C1444 1.314 . S
N1441 C1445 1.279 . S
C1442 C1440 1.348 . S
C1442 C1444 1.353 . S
C1442 H1484 0.929 . S
C1443 C1440 1.356 . S
C1443 C1445 1.358 . S
C1443 H1485 0.930 . S
C1444 N1441 1.314 . S
C1444 C1442 1.353 . S
C1444 H1486 0.930 . S
C1445 N1441 1.279 . S
C1445 C1443 1.358 . S
C1445 H1487 0.930 . S
C1446 C1447 1.348 . S
C1446 C1448 1.356 . S
C1446 O1471 1.325 . S
C1447 C1446 1.348 . S
C1447 C1449 1.353 . S
C1447 H1488 0.929 . S
C1448 C1446 1.356 . S
C1448 C1450 1.358 . S
C1448 H1489 0.930 . S
C1449 C1447 1.353 . S
C1449 N1451 1.314 . S
C1449 H1490 0.930 . S
C1450 C1448 1.358 . S
C1450 N1451 1.279 . S
C1450 H1491 0.930 . S
N1451 C1449 1.314 . S
N1451 C1450 1.279 . S
C1452 C1454 1.353 . S
C1452 N1455 1.314 . S
C1452 H1458 0.930 . S
C1453 N1455 1.279 . S
C1453 C1456 1.358 . S
C1453 H1459 0.930 . S
C1454 C1452 1.353 . S
C1454 C1457 1.348 . S
C1454 H1492 0.929 . S
N1455 Li1410 1.990 . S
N1455 C1452 1.314 . S
N1455 C1453 1.279 . S
C1456 C1453 1.358 . S
C1456 C1457 1.356 . S
C1456 H1493 0.930 . S
C1457 C1454 1.348 . S
C1457 C1456 1.356 . S
H1458 C1452 0.930 . S
H1459 C1453 0.930 . S
C1460 N1461 1.314 . S
C1460 C1462 1.353 . S
C1460 H1466 0.930 . S
N1461 Li1411 1.990 . S
N1461 C1460 1.314 . S
N1461 C1464 1.279 . S
C1462 C1460 1.353 . S
C1462 C1465 1.348 . S
C1462 H1494 0.929 . S
C1463 C1464 1.358 . S
C1463 C1465 1.356 . S
C1463 H1495 0.930 . S
C1464 N1461 1.279 . S
C1464 C1463 1.358 . S
C1464 H1467 0.930 . S
C1465 C1462 1.348 . S
C1465 C1463 1.356 . S
H1466 C1460 0.930 . S
H1467 C1464 0.930 . S
O1468 Li1408 1.956 . S
O1468 Li1409 1.970 . S
O1468 Li1410 1.961 . S
O1468 C1412 1.325 . S
O1469 Li1408 1.970 . S
O1469 Li1409 1.956 . S
O1469 Li1411 1.961 . S
O1469 C1418 1.325 . S
O1470 Li1408 1.961 . S
O1470 Li1410 1.956 . S
O1470 Li1411 1.970 . S
O1470 C1440 1.325 . S
O1471 Li1409 1.961 . S
O1471 Li1410 1.970 . S
O1471 Li1411 1.956 . S
O1471 C1446 1.325 . S
H1472 C1414 0.929 . S
H1473 C1415 0.930 . S
H1474 C1416 0.930 . S
H1475 C1417 0.930 . S
H1476 C1419 0.930 . S
H1477 C1421 0.929 . S
H1478 C1422 0.930 . S
H1479 C1423 0.930 . S
H1480 C1426 0.930 . S
H1481 C1429 0.929 . S
H1482 C1434 0.929 . S
H1483 C1435 0.930 . S
H1484 C1442 0.929 . S
H1485 C1443 0.930 . S
H1486 C1444 0.930 . S
H1487 C1445 0.930 . S
H1488 C1447 0.929 . S
H1489 C1448 0.930 . S
H1490 C1449 0.930 . S
H1491 C1450 0.930 . S
H1492 C1454 0.929 . S
H1493 C1456 0.930 . S
H1494 C1462 0.929 . S
H1495 C1463 0.930 . S
Li1496 N1513 1.990 . S
Li1496 O1556 1.956 . S
Li1496 O1557 1.970 . S
Li1496 O1558 1.961 . S
Li1497 N1521 1.990 . S
Li1497 O1556 1.970 . S
Li1497 O1557 1.956 . S
Li1497 O1559 1.961 . S
Li1498 N1543 1.990 . S
Li1498 O1556 1.961 . S
Li1498 O1558 1.956 . S
Li1498 O1559 1.970 . S
Li1499 N1549 1.990 . S
Li1499 O1557 1.961 . S
Li1499 O1558 1.970 . S
Li1499 O1559 1.956 . S
C1500 C1502 1.348 . S
C1500 C1503 1.356 . S
C1500 O1556 1.325 . S
N1501 C1504 1.314 . S
N1501 C1505 1.279 . S
C1502 C1500 1.348 . S
C1502 C1504 1.353 . S
C1502 H1560 0.929 . S
C1503 C1500 1.356 . S
C1503 C1505 1.358 . S
C1503 H1561 0.930 . S
C1504 N1501 1.314 . S
C1504 C1502 1.353 . S
C1504 H1562 0.930 . S
C1505 N1501 1.279 . S
C1505 C1503 1.358 . S
C1505 H1563 0.930 . S
C1506 C1509 1.348 . S
C1506 C1510 1.356 . S
C1506 O1557 1.325 . S
C1507 N1508 1.279 . S
C1507 C1510 1.358 . S
C1507 H1564 0.930 . S
N1508 C1507 1.279 . S
N1508 C1511 1.314 . S
C1509 C1506 1.348 . S
C1509 C1511 1.353 . S
C1509 H1565 0.929 . S
C1510 C1506 1.356 . S
C1510 C1507 1.358 . S
C1510 H1566 0.930 . S
C1511 N1508 1.314 . S
C1511 C1509 1.353 . S
C1511 H1567 0.930 . S
C1512 N1513 1.314 . S
C1512 C1517 1.353 . S
C1512 H1518 0.930 . S
N1513 Li1496 1.990 . S
N1513 C1512 1.314 . S
N1513 C1515 1.279 . S
C1514 C1515 1.358 . S
C1514 C1516 1.356 . S
C1514 H1568 0.930 . S
C1515 N1513 1.279 . S
C1515 C1514 1.358 . S
C1515 H1519 0.930 . S
C1516 C1514 1.356 . S
C1516 C1517 1.348 . S
C1517 C1512 1.353 . S
C1517 C1516 1.348 . S
C1517 H1569 0.929 . S
H1518 C1512 0.930 . S
H1519 C1515 0.930 . S
C1520 N1521 1.314 . S
C1520 C1522 1.353 . S
C1520 H1526 0.930 . S
N1521 Li1497 1.990 . S
N1521 C1520 1.314 . S
N1521 C1524 1.279 . S
C1522 C1520 1.353 . S
C1522 C1525 1.348 . S
C1522 H1570 0.929 . S
C1523 C1524 1.358 . S
C1523 C1525 1.356 . S
C1523 H1571 0.930 . S
C1524 N1521 1.279 . S
C1524 C1523 1.358 . S
C1524 H1527 0.930 . S
C1525 C1522 1.348 . S
C1525 C1523 1.356 . S
H1526 C1520 0.930 . S
H1527 C1524 0.930 . S
C1528 C1530 1.348 . S
C1528 C1531 1.356 . S
C1528 O1558 1.325 . S
N1529 C1532 1.314 . S
N1529 C1533 1.279 . S
C1530 C1528 1.348 . S
C1530 C1532 1.353 . S
C1530 H1572 0.929 . S
C1531 C1528 1.356 . S
C1531 C1533 1.358 . S
C1531 H1573 0.930 . S
C1532 N1529 1.314 . S
C1532 C1530 1.353 . S
C1532 H1574 0.930 . S
C1533 N1529 1.279 . S
C1533 C1531 1.358 . S
C1533 H1575 0.930 . S
C1534 C1535 1.348 . S
C1534 C1536 1.356 . S
C1534 O1559 1.325 . S
C1535 C1534 1.348 . S
C1535 C1537 1.353 . S
C1535 H1576 0.929 . S
C1536 C1534 1.356 . S
C1536 C1538 1.358 . S
C1536 H1577 0.930 . S
C1537 C1535 1.353 . S
C1537 N1539 1.314 . S
C1537 H1578 0.930 . S
C1538 C1536 1.358 . S
C1538 N1539 1.279 . S
C1538 H1579 0.930 . S
N1539 C1537 1.314 . S
N1539 C1538 1.279 . S
C1540 C1542 1.353 . S
C1540 N1543 1.314 . S
C1540 H1546 0.930 . S
C1541 N1543 1.279 . S
C1541 C1544 1.358 . S
C1541 H1547 0.930 . S
C1542 C1540 1.353 . S
C1542 C1545 1.348 . S
C1542 H1580 0.929 . S
N1543 Li1498 1.990 . S
N1543 C1540 1.314 . S
N1543 C1541 1.279 . S
C1544 C1541 1.358 . S
C1544 C1545 1.356 . S
C1544 H1581 0.930 . S
C1545 C1542 1.348 . S
C1545 C1544 1.356 . S
H1546 C1540 0.930 . S
H1547 C1541 0.930 . S
C1548 N1549 1.314 . S
C1548 C1550 1.353 . S
C1548 H1554 0.930 . S
N1549 Li1499 1.990 . S
N1549 C1548 1.314 . S
N1549 C1552 1.279 . S
C1550 C1548 1.353 . S
C1550 C1553 1.348 . S
C1550 H1582 0.929 . S
C1551 C1552 1.358 . S
C1551 C1553 1.356 . S
C1551 H1583 0.930 . S
C1552 N1549 1.279 . S
C1552 C1551 1.358 . S
C1552 H1555 0.930 . S
C1553 C1550 1.348 . S
C1553 C1551 1.356 . S
H1554 C1548 0.930 . S
H1555 C1552 0.930 . S
O1556 Li1496 1.956 . S
O1556 Li1497 1.970 . S
O1556 Li1498 1.961 . S
O1556 C1500 1.325 . S
O1557 Li1496 1.970 . S
O1557 Li1497 1.956 . S
O1557 Li1499 1.961 . S
O1557 C1506 1.325 . S
O1558 Li1496 1.961 . S
O1558 Li1498 1.956 . S
O1558 Li1499 1.970 . S
O1558 C1528 1.325 . S
O1559 Li1497 1.961 . S
O1559 Li1498 1.970 . S
O1559 Li1499 1.956 . S
O1559 C1534 1.325 . S
H1560 C1502 0.929 . S
H1561 C1503 0.930 . S
H1562 C1504 0.930 . S
H1563 C1505 0.930 . S
H1564 C1507 0.930 . S
H1565 C1509 0.929 . S
H1566 C1510 0.930 . S
H1567 C1511 0.930 . S
H1568 C1514 0.930 . S
H1569 C1517 0.929 . S
H1570 C1522 0.929 . S
H1571 C1523 0.930 . S
H1572 C1530 0.929 . S
H1573 C1531 0.930 . S
H1574 C1532 0.930 . S
H1575 C1533 0.930 . S
H1576 C1535 0.929 . S
H1577 C1536 0.930 . S
H1578 C1537 0.930 . S
H1579 C1538 0.930 . S
H1580 C1542 0.929 . S
H1581 C1544 0.930 . S
H1582 C1550 0.929 . S
H1583 C1551 0.930 . S
Li1584 N1601 1.990 . S
Li1584 O1644 1.956 . S
Li1584 O1645 1.970 . S
Li1584 O1646 1.961 . S
Li1585 N1609 1.990 . S
Li1585 O1644 1.970 . S
Li1585 O1645 1.956 . S
Li1585 O1647 1.961 . S
Li1586 N1631 1.990 . S
Li1586 O1644 1.961 . S
Li1586 O1646 1.956 . S
Li1586 O1647 1.970 . S
Li1587 N1637 1.990 . S
Li1587 O1645 1.961 . S
Li1587 O1646 1.970 . S
Li1587 O1647 1.956 . S
C1588 C1590 1.348 . S
C1588 C1591 1.356 . S
C1588 O1644 1.325 . S
N1589 C1592 1.314 . S
N1589 C1593 1.279 . S
C1590 C1588 1.348 . S
C1590 C1592 1.353 . S
C1590 H1648 0.929 . S
C1591 C1588 1.356 . S
C1591 C1593 1.358 . S
C1591 H1649 0.930 . S
C1592 N1589 1.314 . S
C1592 C1590 1.353 . S
C1592 H1650 0.930 . S
C1593 N1589 1.279 . S
C1593 C1591 1.358 . S
C1593 H1651 0.930 . S
C1594 C1597 1.348 . S
C1594 C1598 1.356 . S
C1594 O1645 1.325 . S
C1595 N1596 1.279 . S
C1595 C1598 1.358 . S
C1595 H1652 0.930 . S
N1596 C1595 1.279 . S
N1596 C1599 1.314 . S
C1597 C1594 1.348 . S
C1597 C1599 1.353 . S
C1597 H1653 0.929 . S
C1598 C1594 1.356 . S
C1598 C1595 1.358 . S
C1598 H1654 0.930 . S
C1599 N1596 1.314 . S
C1599 C1597 1.353 . S
C1599 H1655 0.930 . S
C1600 N1601 1.314 . S
C1600 C1605 1.353 . S
C1600 H1606 0.930 . S
N1601 Li1584 1.990 . S
N1601 C1600 1.314 . S
N1601 C1603 1.279 . S
C1602 C1603 1.358 . S
C1602 C1604 1.356 . S
C1602 H1656 0.930 . S
C1603 N1601 1.279 . S
C1603 C1602 1.358 . S
C1603 H1607 0.930 . S
C1604 C1602 1.356 . S
C1604 C1605 1.348 . S
C1605 C1600 1.353 . S
C1605 C1604 1.348 . S
C1605 H1657 0.929 . S
H1606 C1600 0.930 . S
H1607 C1603 0.930 . S
C1608 N1609 1.314 . S
C1608 C1610 1.353 . S
C1608 H1614 0.930 . S
N1609 Li1585 1.990 . S
N1609 C1608 1.314 . S
N1609 C1612 1.279 . S
C1610 C1608 1.353 . S
C1610 C1613 1.348 . S
C1610 H1658 0.929 . S
C1611 C1612 1.358 . S
C1611 C1613 1.356 . S
C1611 H1659 0.930 . S
C1612 N1609 1.279 . S
C1612 C1611 1.358 . S
C1612 H1615 0.930 . S
C1613 C1610 1.348 . S
C1613 C1611 1.356 . S
H1614 C1608 0.930 . S
H1615 C1612 0.930 . S
C1616 C1618 1.348 . S
C1616 C1619 1.356 . S
C1616 O1646 1.325 . S
N1617 C1620 1.314 . S
N1617 C1621 1.279 . S
C1618 C1616 1.348 . S
C1618 C1620 1.353 . S
C1618 H1660 0.929 . S
C1619 C1616 1.356 . S
C1619 C1621 1.358 . S
C1619 H1661 0.930 . S
C1620 N1617 1.314 . S
C1620 C1618 1.353 . S
C1620 H1662 0.930 . S
C1621 N1617 1.279 . S
C1621 C1619 1.358 . S
C1621 H1663 0.930 . S
C1622 C1623 1.348 . S
C1622 C1624 1.356 . S
C1622 O1647 1.325 . S
C1623 C1622 1.348 . S
C1623 C1625 1.353 1_554 S
C1623 H1664 0.929 . S
C1624 C1622 1.356 . S
C1624 C1626 1.358 . S
C1624 H1665 0.930 . S
C1625 C1623 1.353 1_556 S
C1625 N1627 1.314 . S
C1625 H1666 0.930 . S
C1626 C1624 1.358 . S
C1626 N1627 1.279 1_554 S
C1626 H1667 0.930 . S
N1627 C1625 1.314 . S
N1627 C1626 1.279 1_556 S
C1628 C1630 1.353 . S
C1628 N1631 1.314 . S
C1628 H1634 0.930 . S
C1629 N1631 1.279 . S
C1629 C1632 1.358 . S
C1629 H1635 0.930 . S
C1630 C1628 1.353 . S
C1630 C1633 1.348 1_554 S
C1630 H1668 0.929 . S
N1631 Li1586 1.990 . S
N1631 C1628 1.314 . S
N1631 C1629 1.279 . S
C1632 C1629 1.358 . S
C1632 C1633 1.356 1_554 S
C1632 H1669 0.930 1_554 S
C1633 C1630 1.348 1_556 S
C1633 C1632 1.356 1_556 S
H1634 C1628 0.930 . S
H1635 C1629 0.930 . S
C1636 N1637 1.314 . S
C1636 C1638 1.353 . S
C1636 H1642 0.930 . S
N1637 Li1587 1.990 . S
N1637 C1636 1.314 . S
N1637 C1640 1.279 . S
C1638 C1636 1.353 . S
C1638 C1641 1.348 . S
C1638 H1670 0.929 . S
C1639 C1640 1.358 . S
C1639 C1641 1.356 . S
C1639 H1671 0.930 . S
C1640 N1637 1.279 . S
C1640 C1639 1.358 . S
C1640 H1643 0.930 . S
C1641 C1638 1.348 . S
C1641 C1639 1.356 . S
H1642 C1636 0.930 . S
H1643 C1640 0.930 . S
O1644 Li1584 1.956 . S
O1644 Li1585 1.970 . S
O1644 Li1586 1.961 . S
O1644 C1588 1.325 . S
O1645 Li1584 1.970 . S
O1645 Li1585 1.956 . S
O1645 Li1587 1.961 . S
O1645 C1594 1.325 . S
O1646 Li1584 1.961 . S
O1646 Li1586 1.956 . S
O1646 Li1587 1.970 . S
O1646 C1616 1.325 . S
O1647 Li1585 1.961 . S
O1647 Li1586 1.970 . S
O1647 Li1587 1.956 . S
O1647 C1622 1.325 . S
H1648 C1590 0.929 . S
H1649 C1591 0.930 . S
H1650 C1592 0.930 . S
H1651 C1593 0.930 . S
H1652 C1595 0.930 . S
H1653 C1597 0.929 . S
H1654 C1598 0.930 . S
H1655 C1599 0.930 . S
H1656 C1602 0.930 . S
H1657 C1605 0.929 . S
H1658 C1610 0.929 . S
H1659 C1611 0.930 . S
H1660 C1618 0.929 . S
H1661 C1619 0.930 . S
H1662 C1620 0.930 . S
H1663 C1621 0.930 . S
H1664 C1623 0.929 . S
H1665 C1624 0.930 . S
H1666 C1625 0.930 . S
H1667 C1626 0.930 . S
H1668 C1630 0.929 . S
H1669 C1632 0.930 1_556 S
H1670 C1638 0.929 . S
H1671 C1639 0.930 . S
Li1672 N1689 1.990 . S
Li1672 O1732 1.956 . S
Li1672 O1733 1.970 . S
Li1672 O1734 1.961 . S
Li1673 N1697 1.990 . S
Li1673 O1732 1.970 . S
Li1673 O1733 1.956 . S
Li1673 O1735 1.961 . S
Li1674 N1719 1.990 . S
Li1674 O1732 1.961 . S
Li1674 O1734 1.956 . S
Li1674 O1735 1.970 . S
Li1675 N1725 1.990 . S
Li1675 O1733 1.961 . S
Li1675 O1734 1.970 . S
Li1675 O1735 1.956 . S
C1676 C1678 1.348 . S
C1676 C1679 1.356 . S
C1676 O1732 1.325 . S
N1677 C1680 1.314 . S
N1677 C1681 1.279 . S
C1678 C1676 1.348 . S
C1678 C1680 1.353 . S
C1678 H1736 0.929 . S
C1679 C1676 1.356 . S
C1679 C1681 1.358 . S
C1679 H1737 0.930 . S
C1680 N1677 1.314 . S
C1680 C1678 1.353 . S
C1680 H1738 0.930 . S
C1681 N1677 1.279 . S
C1681 C1679 1.358 . S
C1681 H1739 0.930 . S
C1682 C1685 1.348 . S
C1682 C1686 1.356 . S
C1682 O1733 1.325 . S
C1683 N1684 1.279 . S
C1683 C1686 1.358 . S
C1683 H1740 0.930 . S
N1684 C1683 1.279 . S
N1684 C1687 1.314 . S
C1685 C1682 1.348 . S
C1685 C1687 1.353 . S
C1685 H1741 0.929 . S
C1686 C1682 1.356 . S
C1686 C1683 1.358 . S
C1686 H1742 0.930 . S
C1687 N1684 1.314 . S
C1687 C1685 1.353 . S
C1687 H1743 0.930 . S
C1688 N1689 1.314 . S
C1688 C1693 1.353 . S
C1688 H1694 0.930 . S
N1689 Li1672 1.990 . S
N1689 C1688 1.314 . S
N1689 C1691 1.279 . S
C1690 C1691 1.358 . S
C1690 C1692 1.356 . S
C1690 H1744 0.930 . S
C1691 N1689 1.279 . S
C1691 C1690 1.358 . S
C1691 H1695 0.930 . S
C1692 C1690 1.356 . S
C1692 C1693 1.348 . S
C1693 C1688 1.353 . S
C1693 C1692 1.348 . S
C1693 H1745 0.929 . S
H1694 C1688 0.930 . S
H1695 C1691 0.930 . S
C1696 N1697 1.314 . S
C1696 C1698 1.353 . S
C1696 H1702 0.930 . S
N1697 Li1673 1.990 . S
N1697 C1696 1.314 . S
N1697 C1700 1.279 . S
C1698 C1696 1.353 . S
C1698 C1701 1.348 . S
C1698 H1746 0.929 . S
C1699 C1700 1.358 . S
C1699 C1701 1.356 . S
C1699 H1747 0.930 . S
C1700 N1697 1.279 . S
C1700 C1699 1.358 . S
C1700 H1703 0.930 . S
C1701 C1698 1.348 . S
C1701 C1699 1.356 . S
H1702 C1696 0.930 . S
H1703 C1700 0.930 . S
C1704 C1706 1.348 . S
C1704 C1707 1.356 . S
C1704 O1734 1.325 . S
N1705 C1708 1.314 . S
N1705 C1709 1.279 . S
C1706 C1704 1.348 . S
C1706 C1708 1.353 . S
C1706 H1748 0.929 . S
C1707 C1704 1.356 . S
C1707 C1709 1.358 . S
C1707 H1749 0.930 . S
C1708 N1705 1.314 . S
C1708 C1706 1.353 . S
C1708 H1750 0.930 . S
C1709 N1705 1.279 . S
C1709 C1707 1.358 . S
C1709 H1751 0.930 . S
C1710 C1711 1.348 . S
C1710 C1712 1.356 . S
C1710 O1735 1.325 . S
C1711 C1710 1.348 . S
C1711 C1713 1.353 . S
C1711 H1752 0.929 . S
C1712 C1710 1.356 . S
C1712 C1714 1.358 . S
C1712 H1753 0.930 . S
C1713 C1711 1.353 . S
C1713 N1715 1.314 . S
C1713 H1754 0.930 . S
C1714 C1712 1.358 . S
C1714 N1715 1.279 . S
C1714 H1755 0.930 . S
N1715 C1713 1.314 . S
N1715 C1714 1.279 . S
C1716 C1718 1.353 . S
C1716 N1719 1.314 . S
C1716 H1722 0.930 . S
C1717 N1719 1.279 . S
C1717 C1720 1.358 . S
C1717 H1723 0.930 . S
C1718 C1716 1.353 . S
C1718 C1721 1.348 . S
C1718 H1756 0.929 . S
N1719 Li1674 1.990 . S
N1719 C1716 1.314 . S
N1719 C1717 1.279 . S
C1720 C1717 1.358 . S
C1720 C1721 1.356 . S
C1720 H1757 0.930 . S
C1721 C1718 1.348 . S
C1721 C1720 1.356 . S
H1722 C1716 0.930 . S
H1723 C1717 0.930 . S
C1724 N1725 1.314 . S
C1724 C1726 1.353 . S
C1724 H1730 0.930 . S
N1725 Li1675 1.990 . S
N1725 C1724 1.314 . S
N1725 C1728 1.279 . S
C1726 C1724 1.353 . S
C1726 C1729 1.348 . S
C1726 H1758 0.929 . S
C1727 C1728 1.358 . S
C1727 C1729 1.356 . S
C1727 H1759 0.930 . S
C1728 N1725 1.279 . S
C1728 C1727 1.358 . S
C1728 H1731 0.930 . S
C1729 C1726 1.348 . S
C1729 C1727 1.356 . S
H1730 C1724 0.930 . S
H1731 C1728 0.930 . S
O1732 Li1672 1.956 . S
O1732 Li1673 1.970 . S
O1732 Li1674 1.961 . S
O1732 C1676 1.325 . S
O1733 Li1672 1.970 . S
O1733 Li1673 1.956 . S
O1733 Li1675 1.961 . S
O1733 C1682 1.325 . S
O1734 Li1672 1.961 . S
O1734 Li1674 1.956 . S
O1734 Li1675 1.970 . S
O1734 C1704 1.325 . S
O1735 Li1673 1.961 . S
O1735 Li1674 1.970 . S
O1735 Li1675 1.956 . S
O1735 C1710 1.325 . S
H1736 C1678 0.929 . S
H1737 C1679 0.930 . S
H1738 C1680 0.930 . S
H1739 C1681 0.930 . S
H1740 C1683 0.930 . S
H1741 C1685 0.929 . S
H1742 C1686 0.930 . S
H1743 C1687 0.930 . S
H1744 C1690 0.930 . S
H1745 C1693 0.929 . S
H1746 C1698 0.929 . S
H1747 C1699 0.930 . S
H1748 C1706 0.929 . S
H1749 C1707 0.930 . S
H1750 C1708 0.930 . S
H1751 C1709 0.930 . S
H1752 C1711 0.929 . S
H1753 C1712 0.930 . S
H1754 C1713 0.930 . S
H1755 C1714 0.930 . S
H1756 C1718 0.929 . S
H1757 C1720 0.930 . S
H1758 C1726 0.929 . S
H1759 C1727 0.930 . S
Li1760 N1777 1.990 . S
Li1760 O1820 1.956 . S
Li1760 O1821 1.970 . S
Li1760 O1822 1.961 . S
Li1761 N1785 1.990 . S
Li1761 O1820 1.970 . S
Li1761 O1821 1.956 . S
Li1761 O1823 1.961 . S
Li1762 N1807 1.990 . S
Li1762 O1820 1.961 . S
Li1762 O1822 1.956 . S
Li1762 O1823 1.970 . S
Li1763 N1813 1.990 . S
Li1763 O1821 1.961 . S
Li1763 O1822 1.970 . S
Li1763 O1823 1.956 . S
C1764 C1766 1.348 . S
C1764 C1767 1.356 . S
C1764 O1820 1.325 . S
N1765 C1768 1.314 . S
N1765 C1769 1.279 . S
C1766 C1764 1.348 . S
C1766 C1768 1.353 . S
C1766 H1824 0.929 . S
C1767 C1764 1.356 . S
C1767 C1769 1.358 . S
C1767 H1825 0.930 . S
C1768 N1765 1.314 . S
C1768 C1766 1.353 . S
C1768 H1826 0.930 . S
C1769 N1765 1.279 . S
C1769 C1767 1.358 . S
C1769 H1827 0.930 . S
C1770 C1773 1.348 . S
C1770 C1774 1.356 . S
C1770 O1821 1.325 . S
C1771 N1772 1.279 . S
C1771 C1774 1.358 . S
C1771 H1828 0.930 . S
N1772 C1771 1.279 . S
N1772 C1775 1.314 . S
C1773 C1770 1.348 . S
C1773 C1775 1.353 . S
C1773 H1829 0.929 . S
C1774 C1770 1.356 . S
C1774 C1771 1.358 . S
C1774 H1830 0.930 . S
C1775 N1772 1.314 . S
C1775 C1773 1.353 . S
C1775 H1831 0.930 . S
C1776 N1777 1.314 . S
C1776 C1781 1.353 . S
C1776 H1782 0.930 . S
N1777 Li1760 1.990 . S
N1777 C1776 1.314 . S
N1777 C1779 1.279 . S
C1778 C1779 1.358 . S
C1778 C1780 1.356 . S
C1778 H1832 0.930 . S
C1779 N1777 1.279 . S
C1779 C1778 1.358 . S
C1779 H1783 0.930 . S
C1780 C1778 1.356 . S
C1780 C1781 1.348 . S
C1781 C1776 1.353 . S
C1781 C1780 1.348 . S
C1781 H1833 0.929 . S
H1782 C1776 0.930 . S
H1783 C1779 0.930 . S
C1784 N1785 1.314 . S
C1784 C1786 1.353 . S
C1784 H1790 0.930 . S
N1785 Li1761 1.990 . S
N1785 C1784 1.314 . S
N1785 C1788 1.279 . S
C1786 C1784 1.353 . S
C1786 C1789 1.348 . S
C1786 H1834 0.929 . S
C1787 C1788 1.358 . S
C1787 C1789 1.356 . S
C1787 H1835 0.930 . S
C1788 N1785 1.279 . S
C1788 C1787 1.358 . S
C1788 H1791 0.930 . S
C1789 C1786 1.348 . S
C1789 C1787 1.356 . S
H1790 C1784 0.930 . S
H1791 C1788 0.930 . S
C1792 C1794 1.348 . S
C1792 C1795 1.356 . S
C1792 O1822 1.325 . S
N1793 C1796 1.314 . S
N1793 C1797 1.279 . S
C1794 C1792 1.348 . S
C1794 C1796 1.353 . S
C1794 H1836 0.929 . S
C1795 C1792 1.356 . S
C1795 C1797 1.358 . S
C1795 H1837 0.930 . S
C1796 N1793 1.314 . S
C1796 C1794 1.353 . S
C1796 H1838 0.930 . S
C1797 N1793 1.279 . S
C1797 C1795 1.358 . S
C1797 H1839 0.930 . S
C1798 C1799 1.348 . S
C1798 C1800 1.356 . S
C1798 O1823 1.325 . S
C1799 C1798 1.348 . S
C1799 C1801 1.353 . S
C1799 H1840 0.929 . S
C1800 C1798 1.356 . S
C1800 C1802 1.358 . S
C1800 H1841 0.930 . S
C1801 C1799 1.353 . S
C1801 N1803 1.314 . S
C1801 H1842 0.930 . S
C1802 C1800 1.358 . S
C1802 N1803 1.279 . S
C1802 H1843 0.930 . S
N1803 C1801 1.314 . S
N1803 C1802 1.279 . S
C1804 C1806 1.353 . S
C1804 N1807 1.314 . S
C1804 H1810 0.930 . S
C1805 N1807 1.279 . S
C1805 C1808 1.358 . S
C1805 H1811 0.930 . S
C1806 C1804 1.353 . S
C1806 C1809 1.348 . S
C1806 H1844 0.929 . S
N1807 Li1762 1.990 . S
N1807 C1804 1.314 . S
N1807 C1805 1.279 . S
C1808 C1805 1.358 . S
C1808 C1809 1.356 . S
C1808 H1845 0.930 . S
C1809 C1806 1.348 . S
C1809 C1808 1.356 . S
H1810 C1804 0.930 . S
H1811 C1805 0.930 . S
C1812 N1813 1.314 . S
C1812 C1814 1.353 . S
C1812 H1818 0.930 . S
N1813 Li1763 1.990 . S
N1813 C1812 1.314 . S
N1813 C1816 1.279 . S
C1814 C1812 1.353 . S
C1814 C1817 1.348 . S
C1814 H1846 0.929 . S
C1815 C1816 1.358 . S
C1815 C1817 1.356 . S
C1815 H1847 0.930 . S
C1816 N1813 1.279 . S
C1816 C1815 1.358 . S
C1816 H1819 0.930 . S
C1817 C1814 1.348 . S
C1817 C1815 1.356 . S
H1818 C1812 0.930 . S
H1819 C1816 0.930 . S
O1820 Li1760 1.956 . S
O1820 Li1761 1.970 . S
O1820 Li1762 1.961 . S
O1820 C1764 1.325 . S
O1821 Li1760 1.970 . S
O1821 Li1761 1.956 . S
O1821 Li1763 1.961 . S
O1821 C1770 1.325 . S
O1822 Li1760 1.961 . S
O1822 Li1762 1.956 . S
O1822 Li1763 1.970 . S
O1822 C1792 1.325 . S
O1823 Li1761 1.961 . S
O1823 Li1762 1.970 . S
O1823 Li1763 1.956 . S
O1823 C1798 1.325 . S
H1824 C1766 0.929 . S
H1825 C1767 0.930 . S
H1826 C1768 0.930 . S
H1827 C1769 0.930 . S
H1828 C1771 0.930 . S
H1829 C1773 0.929 . S
H1830 C1774 0.930 . S
H1831 C1775 0.930 . S
H1832 C1778 0.930 . S
H1833 C1781 0.929 . S
H1834 C1786 0.929 . S
H1835 C1787 0.930 . S
H1836 C1794 0.929 . S
H1837 C1795 0.930 . S
H1838 C1796 0.930 . S
H1839 C1797 0.930 . S
H1840 C1799 0.929 . S
H1841 C1800 0.930 . S
H1842 C1801 0.930 . S
H1843 C1802 0.930 . S
H1844 C1806 0.929 . S
H1845 C1808 0.930 . S
H1846 C1814 0.929 . S
H1847 C1815 0.930 . S
Li1848 N1865 1.990 . S
Li1848 O1908 1.956 . S
Li1848 O1909 1.970 . S
Li1848 O1910 1.961 . S
Li1849 N1873 1.990 . S
Li1849 O1908 1.970 . S
Li1849 O1909 1.956 . S
Li1849 O1911 1.961 . S
Li1850 N1895 1.990 . S
Li1850 O1908 1.961 . S
Li1850 O1910 1.956 . S
Li1850 O1911 1.970 . S
Li1851 N1901 1.990 . S
Li1851 O1909 1.961 . S
Li1851 O1910 1.970 . S
Li1851 O1911 1.956 . S
C1852 C1854 1.348 . S
C1852 C1855 1.356 . S
C1852 O1908 1.325 . S
N1853 C1856 1.314 . S
N1853 C1857 1.279 . S
C1854 C1852 1.348 . S
C1854 C1856 1.353 . S
C1854 H1912 0.929 . S
C1855 C1852 1.356 . S
C1855 C1857 1.358 . S
C1855 H1913 0.930 . S
C1856 N1853 1.314 . S
C1856 C1854 1.353 . S
C1856 H1914 0.930 . S
C1857 N1853 1.279 . S
C1857 C1855 1.358 . S
C1857 H1915 0.930 . S
C1858 C1861 1.348 . S
C1858 C1862 1.356 . S
C1858 O1909 1.325 . S
C1859 N1860 1.279 . S
C1859 C1862 1.358 . S
C1859 H1916 0.930 . S
N1860 C1859 1.279 . S
N1860 C1863 1.314 . S
C1861 C1858 1.348 . S
C1861 C1863 1.353 . S
C1861 H1917 0.929 . S
C1862 C1858 1.356 . S
C1862 C1859 1.358 . S
C1862 H1918 0.930 . S
C1863 N1860 1.314 . S
C1863 C1861 1.353 . S
C1863 H1919 0.930 . S
C1864 N1865 1.314 . S
C1864 C1869 1.353 . S
C1864 H1870 0.930 . S
N1865 Li1848 1.990 . S
N1865 C1864 1.314 . S
N1865 C1867 1.279 . S
C1866 C1867 1.358 . S
C1866 C1868 1.356 . S
C1866 H1920 0.930 . S
C1867 N1865 1.279 . S
C1867 C1866 1.358 . S
C1867 H1871 0.930 . S
C1868 C1866 1.356 . S
C1868 C1869 1.348 . S
C1869 C1864 1.353 . S
C1869 C1868 1.348 . S
C1869 H1921 0.929 . S
H1870 C1864 0.930 . S
H1871 C1867 0.930 . S
C1872 N1873 1.314 . S
C1872 C1874 1.353 . S
C1872 H1878 0.930 . S
N1873 Li1849 1.990 . S
N1873 C1872 1.314 . S
N1873 C1876 1.279 . S
C1874 C1872 1.353 . S
C1874 C1877 1.348 . S
C1874 H1922 0.929 . S
C1875 C1876 1.358 . S
C1875 C1877 1.356 . S
C1875 H1923 0.930 . S
C1876 N1873 1.279 . S
C1876 C1875 1.358 . S
C1876 H1879 0.930 . S
C1877 C1874 1.348 . S
C1877 C1875 1.356 . S
H1878 C1872 0.930 . S
H1879 C1876 0.930 . S
C1880 C1882 1.348 . S
C1880 C1883 1.356 . S
C1880 O1910 1.325 . S
N1881 C1884 1.314 . S
N1881 C1885 1.279 . S
C1882 C1880 1.348 . S
C1882 C1884 1.353 . S
C1882 H1924 0.929 . S
C1883 C1880 1.356 . S
C1883 C1885 1.358 . S
C1883 H1925 0.930 . S
C1884 N1881 1.314 . S
C1884 C1882 1.353 . S
C1884 H1926 0.930 . S
C1885 N1881 1.279 . S
C1885 C1883 1.358 . S
C1885 H1927 0.930 . S
C1886 C1887 1.348 . S
C1886 C1888 1.356 . S
C1886 O1911 1.325 . S
C1887 C1886 1.348 . S
C1887 C1889 1.353 . S
C1887 H1928 0.929 . S
C1888 C1886 1.356 . S
C1888 C1890 1.358 . S
C1888 H1929 0.930 . S
C1889 C1887 1.353 . S
C1889 N1891 1.314 . S
C1889 H1930 0.930 . S
C1890 C1888 1.358 . S
C1890 N1891 1.279 . S
C1890 H1931 0.930 . S
N1891 C1889 1.314 . S
N1891 C1890 1.279 . S
C1892 C1894 1.353 . S
C1892 N1895 1.314 . S
C1892 H1898 0.930 . S
C1893 N1895 1.279 . S
C1893 C1896 1.358 . S
C1893 H1899 0.930 . S
C1894 C1892 1.353 . S
C1894 C1897 1.348 . S
C1894 H1932 0.929 . S
N1895 Li1850 1.990 . S
N1895 C1892 1.314 . S
N1895 C1893 1.279 . S
C1896 C1893 1.358 . S
C1896 C1897 1.356 . S
C1896 H1933 0.930 . S
C1897 C1894 1.348 . S
C1897 C1896 1.356 . S
H1898 C1892 0.930 . S
H1899 C1893 0.930 . S
C1900 N1901 1.314 . S
C1900 C1902 1.353 . S
C1900 H1906 0.930 . S
N1901 Li1851 1.990 . S
N1901 C1900 1.314 . S
N1901 C1904 1.279 . S
C1902 C1900 1.353 . S
C1902 C1905 1.348 . S
C1902 H1934 0.929 . S
C1903 C1904 1.358 . S
C1903 C1905 1.356 . S
C1903 H1935 0.930 . S
C1904 N1901 1.279 . S
C1904 C1903 1.358 . S
C1904 H1907 0.930 . S
C1905 C1902 1.348 . S
C1905 C1903 1.356 . S
H1906 C1900 0.930 . S
H1907 C1904 0.930 . S
O1908 Li1848 1.956 . S
O1908 Li1849 1.970 . S
O1908 Li1850 1.961 . S
O1908 C1852 1.325 . S
O1909 Li1848 1.970 . S
O1909 Li1849 1.956 . S
O1909 Li1851 1.961 . S
O1909 C1858 1.325 . S
O1910 Li1848 1.961 . S
O1910 Li1850 1.956 . S
O1910 Li1851 1.970 . S
O1910 C1880 1.325 . S
O1911 Li1849 1.961 . S
O1911 Li1850 1.970 . S
O1911 Li1851 1.956 . S
O1911 C1886 1.325 . S
H1912 C1854 0.929 . S
H1913 C1855 0.930 . S
H1914 C1856 0.930 . S
H1915 C1857 0.930 . S
H1916 C1859 0.930 . S
H1917 C1861 0.929 . S
H1918 C1862 0.930 . S
H1919 C1863 0.930 . S
H1920 C1866 0.930 . S
H1921 C1869 0.929 . S
H1922 C1874 0.929 . S
H1923 C1875 0.930 . S
H1924 C1882 0.929 . S
H1925 C1883 0.930 . S
H1926 C1884 0.930 . S
H1927 C1885 0.930 . S
H1928 C1887 0.929 . S
H1929 C1888 0.930 . S
H1930 C1889 0.930 . S
H1931 C1890 0.930 . S
H1932 C1894 0.929 . S
H1933 C1896 0.930 . S
H1934 C1902 0.929 . S
H1935 C1903 0.930 . S
Li1936 N1953 1.990 . S
Li1936 O1996 1.956 . S
Li1936 O1997 1.970 . S
Li1936 O1998 1.961 . S
Li1937 N1961 1.990 . S
Li1937 O1996 1.970 . S
Li1937 O1997 1.956 . S
Li1937 O1999 1.961 . S
Li1938 N1983 1.990 . S
Li1938 O1996 1.961 . S
Li1938 O1998 1.956 . S
Li1938 O1999 1.970 . S
Li1939 N1989 1.990 . S
Li1939 O1997 1.961 . S
Li1939 O1998 1.970 . S
Li1939 O1999 1.956 . S
C1940 C1942 1.348 . S
C1940 C1943 1.356 . S
C1940 O1996 1.325 . S
N1941 C1944 1.314 . S
N1941 C1945 1.279 1_565 S
C1942 C1940 1.348 . S
C1942 C1944 1.353 . S
C1942 H2000 0.929 . S
C1943 C1940 1.356 . S
C1943 C1945 1.358 1_565 S
C1943 H2001 0.930 . S
C1944 N1941 1.314 . S
C1944 C1942 1.353 . S
C1944 H2002 0.930 . S
C1945 N1941 1.279 1_545 S
C1945 C1943 1.358 1_545 S
C1945 H2003 0.930 . S
C1946 C1949 1.348 . S
C1946 C1950 1.356 . S
C1946 O1997 1.325 . S
C1947 N1948 1.279 1_556 S
C1947 C1950 1.358 . S
C1947 H2004 0.930 . S
N1948 C1947 1.279 1_554 S
N1948 C1951 1.314 . S
C1949 C1946 1.348 . S
C1949 C1951 1.353 1_556 S
C1949 H2005 0.929 . S
C1950 C1946 1.356 . S
C1950 C1947 1.358 . S
C1950 H2006 0.930 . S
C1951 N1948 1.314 . S
C1951 C1949 1.353 1_554 S
C1951 H2007 0.930 . S
C1952 N1953 1.314 . S
C1952 C1957 1.353 1_565 S
C1952 H1958 0.930 . S
N1953 Li1936 1.990 . S
N1953 C1952 1.314 . S
N1953 C1955 1.279 . S
C1954 C1955 1.358 1_545 S
C1954 C1956 1.356 1_556 S
C1954 H2008 0.930 1_556 S
C1955 N1953 1.279 . S
C1955 C1954 1.358 1_565 S
C1955 H1959 0.930 . S
C1956 C1954 1.356 1_554 S
C1956 C1957 1.348 1_554 S
C1957 C1952 1.353 1_545 S
C1957 C1956 1.348 1_556 S
C1957 H2009 0.929 . S
H1958 C1952 0.930 . S
H1959 C1955 0.930 . S
C1960 N1961 1.314 . S
C1960 C1962 1.353 . S
C1960 H1966 0.930 . S
N1961 Li1937 1.990 . S
N1961 C1960 1.314 . S
N1961 C1964 1.279 . S
C1962 C1960 1.353 . S
C1962 C1965 1.348 . S
C1962 H2010 0.929 . S
C1963 C1964 1.358 . S
C1963 C1965 1.356 . S
C1963 H2011 0.930 . S
C1964 N1961 1.279 . S
C1964 C1963 1.358 . S
C1964 H1967 0.930 . S
C1965 C1962 1.348 . S
C1965 C1963 1.356 . S
H1966 C1960 0.930 . S
H1967 C1964 0.930 . S
C1968 C1970 1.348 . S
C1968 C1971 1.356 . S
C1968 O1998 1.325 . S
N1969 C1972 1.314 1_545 S
N1969 C1973 1.279 . S
C1970 C1968 1.348 . S
C1970 C1972 1.353 . S
C1970 H2012 0.929 . S
C1971 C1968 1.356 . S
C1971 C1973 1.358 1_565 S
C1971 H2013 0.930 1_565 S
C1972 N1969 1.314 1_565 S
C1972 C1970 1.353 . S
C1972 H2014 0.930 . S
C1973 N1969 1.279 . S
C1973 C1971 1.358 1_545 S
C1973 H2015 0.930 . S
C1974 C1975 1.348 . S
C1974 C1976 1.356 . S
C1974 O1999 1.325 . S
C1975 C1974 1.348 . S
C1975 C1977 1.353 . S
C1975 H2016 0.929 . S
C1976 C1974 1.356 . S
C1976 C1978 1.358 . S
C1976 H2017 0.930 . S
C1977 C1975 1.353 . S
C1977 N1979 1.314 . S
C1977 H2018 0.930 . S
C1978 C1976 1.358 . S
C1978 N1979 1.279 . S
C1978 H2019 0.930 . S
N1979 C1977 1.314 . S
N1979 C1978 1.279 . S
C1980 C1982 1.353 . S
C1980 N1983 1.314 . S
C1980 H1986 0.930 . S
C1981 N1983 1.279 . S
C1981 C1984 1.358 . S
C1981 H1987 0.930 . S
C1982 C1980 1.353 . S
C1982 C1985 1.348 . S
C1982 H2020 0.929 . S
N1983 Li1938 1.990 . S
N1983 C1980 1.314 . S
N1983 C1981 1.279 . S
C1984 C1981 1.358 . S
C1984 C1985 1.356 . S
C1984 H2021 0.930 1_565 S
C1985 C1982 1.348 . S
C1985 C1984 1.356 . S
H1986 C1980 0.930 . S
H1987 C1981 0.930 . S
C1988 N1989 1.314 . S
C1988 C1990 1.353 . S
C1988 H1994 0.930 . S
N1989 Li1939 1.990 . S
N1989 C1988 1.314 . S
N1989 C1992 1.279 . S
C1990 C1988 1.353 . S
C1990 C1993 1.348 . S
C1990 H2022 0.929 . S
C1991 C1992 1.358 . S
C1991 C1993 1.356 . S
C1991 H2023 0.930 . S
C1992 N1989 1.279 . S
C1992 C1991 1.358 . S
C1992 H1995 0.930 . S
C1993 C1990 1.348 . S
C1993 C1991 1.356 . S
H1994 C1988 0.930 . S
H1995 C1992 0.930 . S
O1996 Li1936 1.956 . S
O1996 Li1937 1.970 . S
O1996 Li1938 1.961 . S
O1996 C1940 1.325 . S
O1997 Li1936 1.970 . S
O1997 Li1937 1.956 . S
O1997 Li1939 1.961 . S
O1997 C1946 1.325 . S
O1998 Li1936 1.961 . S
O1998 Li1938 1.956 . S
O1998 Li1939 1.970 . S
O1998 C1968 1.325 . S
O1999 Li1937 1.961 . S
O1999 Li1938 1.970 . S
O1999 Li1939 1.956 . S
O1999 C1974 1.325 . S
H2000 C1942 0.929 . S
H2001 C1943 0.930 . S
H2002 C1944 0.930 . S
H2003 C1945 0.930 . S
H2004 C1947 0.930 . S
H2005 C1949 0.929 . S
H2006 C1950 0.930 . S
H2007 C1951 0.930 . S
H2008 C1954 0.930 1_554 S
H2009 C1957 0.929 . S
H2010 C1962 0.929 . S
H2011 C1963 0.930 . S
H2012 C1970 0.929 . S
H2013 C1971 0.930 1_545 S
H2014 C1972 0.930 . S
H2015 C1973 0.930 . S
H2016 C1975 0.929 . S
H2017 C1976 0.930 . S
H2018 C1977 0.930 . S
H2019 C1978 0.930 . S
H2020 C1982 0.929 . S
H2021 C1984 0.930 1_545 S
H2022 C1990 0.929 . S
H2023 C1991 0.930 . S
Li2024 N2041 1.990 . S
Li2024 O2084 1.956 . S
Li2024 O2085 1.970 . S
Li2024 O2086 1.961 . S
Li2025 N2049 1.990 . S
Li2025 O2084 1.970 . S
Li2025 O2085 1.956 . S
Li2025 O2087 1.961 . S
Li2026 N2071 1.990 . S
Li2026 O2084 1.961 . S
Li2026 O2086 1.956 . S
Li2026 O2087 1.970 . S
Li2027 N2077 1.990 . S
Li2027 O2085 1.961 . S
Li2027 O2086 1.970 . S
Li2027 O2087 1.956 . S
C2028 C2030 1.348 . S
C2028 C2031 1.356 . S
C2028 O2084 1.325 . S
N2029 C2032 1.314 . S
N2029 C2033 1.279 1_545 S
C2030 C2028 1.348 . S
C2030 C2032 1.353 . S
C2030 H2088 0.929 . S
C2031 C2028 1.356 . S
C2031 C2033 1.358 1_545 S
C2031 H2089 0.930 . S
C2032 N2029 1.314 . S
C2032 C2030 1.353 . S
C2032 H2090 0.930 . S
C2033 N2029 1.279 1_565 S
C2033 C2031 1.358 1_565 S
C2033 H2091 0.930 . S
C2034 C2037 1.348 . S
C2034 C2038 1.356 . S
C2034 O2085 1.325 . S
C2035 N2036 1.279 . S
C2035 C2038 1.358 . S
C2035 H2092 0.930 . S
N2036 C2035 1.279 . S
N2036 C2039 1.314 . S
C2037 C2034 1.348 . S
C2037 C2039 1.353 . S
C2037 H2093 0.929 . S
C2038 C2034 1.356 . S
C2038 C2035 1.358 . S
C2038 H2094 0.930 . S
C2039 N2036 1.314 . S
C2039 C2037 1.353 . S
C2039 H2095 0.930 . S
C2040 N2041 1.314 . S
C2040 C2045 1.353 1_545 S
C2040 H2046 0.930 . S
N2041 Li2024 1.990 . S
N2041 C2040 1.314 . S
N2041 C2043 1.279 . S
C2042 C2043 1.358 1_565 S
C2042 C2044 1.356 . S
C2042 H2096 0.930 . S
C2043 N2041 1.279 . S
C2043 C2042 1.358 1_545 S
C2043 H2047 0.930 . S
C2044 C2042 1.356 . S
C2044 C2045 1.348 . S
C2045 C2040 1.353 1_565 S
C2045 C2044 1.348 . S
C2045 H2097 0.929 . S
H2046 C2040 0.930 . S
H2047 C2043 0.930 . S
C2048 N2049 1.314 . S
C2048 C2050 1.353 . S
C2048 H2054 0.930 . S
N2049 Li2025 1.990 . S
N2049 C2048 1.314 . S
N2049 C2052 1.279 . S
C2050 C2048 1.353 . S
C2050 C2053 1.348 . S
C2050 H2098 0.929 . S
C2051 C2052 1.358 . S
C2051 C2053 1.356 . S
C2051 H2099 0.930 . S
C2052 N2049 1.279 . S
C2052 C2051 1.358 . S
C2052 H2055 0.930 . S
C2053 C2050 1.348 . S
C2053 C2051 1.356 . S
H2054 C2048 0.930 . S
H2055 C2052 0.930 . S
C2056 C2058 1.348 . S
C2056 C2059 1.356 . S
C2056 O2086 1.325 . S
N2057 C2060 1.314 1_565 S
N2057 C2061 1.279 . S
C2058 C2056 1.348 . S
C2058 C2060 1.353 . S
C2058 H2100 0.929 . S
C2059 C2056 1.356 . S
C2059 C2061 1.358 1_545 S
C2059 H2101 0.930 1_545 S
C2060 N2057 1.314 1_545 S
C2060 C2058 1.353 . S
C2060 H2102 0.930 . S
C2061 N2057 1.279 . S
C2061 C2059 1.358 1_565 S
C2061 H2103 0.930 . S
C2062 C2063 1.348 . S
C2062 C2064 1.356 . S
C2062 O2087 1.325 . S
C2063 C2062 1.348 . S
C2063 C2065 1.353 . S
C2063 H2104 0.929 . S
C2064 C2062 1.356 . S
C2064 C2066 1.358 . S
C2064 H2105 0.930 . S
C2065 C2063 1.353 . S
C2065 N2067 1.314 . S
C2065 H2106 0.930 . S
C2066 C2064 1.358 . S
C2066 N2067 1.279 . S
C2066 H2107 0.930 . S
N2067 C2065 1.314 . S
N2067 C2066 1.279 . S
C2068 C2070 1.353 . S
C2068 N2071 1.314 . S
C2068 H2074 0.930 . S
C2069 N2071 1.279 . S
C2069 C2072 1.358 . S
C2069 H2075 0.930 . S
C2070 C2068 1.353 . S
C2070 C2073 1.348 . S
C2070 H2108 0.929 . S
N2071 Li2026 1.990 . S
N2071 C2068 1.314 . S
N2071 C2069 1.279 . S
C2072 C2069 1.358 . S
C2072 C2073 1.356 . S
C2072 H2109 0.930 1_545 S
C2073 C2070 1.348 . S
C2073 C2072 1.356 . S
H2074 C2068 0.930 . S
H2075 C2069 0.930 . S
C2076 N2077 1.314 . S
C2076 C2078 1.353 . S
C2076 H2082 0.930 . S
N2077 Li2027 1.990 . S
N2077 C2076 1.314 . S
N2077 C2080 1.279 . S
C2078 C2076 1.353 . S
C2078 C2081 1.348 . S
C2078 H2110 0.929 . S
C2079 C2080 1.358 . S
C2079 C2081 1.356 . S
C2079 H2111 0.930 . S
C2080 N2077 1.279 . S
C2080 C2079 1.358 . S
C2080 H2083 0.930 . S
C2081 C2078 1.348 . S
C2081 C2079 1.356 . S
H2082 C2076 0.930 . S
H2083 C2080 0.930 . S
O2084 Li2024 1.956 . S
O2084 Li2025 1.970 . S
O2084 Li2026 1.961 . S
O2084 C2028 1.325 . S
O2085 Li2024 1.970 . S
O2085 Li2025 1.956 . S
O2085 Li2027 1.961 . S
O2085 C2034 1.325 . S
O2086 Li2024 1.961 . S
O2086 Li2026 1.956 . S
O2086 Li2027 1.970 . S
O2086 C2056 1.325 . S
O2087 Li2025 1.961 . S
O2087 Li2026 1.970 . S
O2087 Li2027 1.956 . S
O2087 C2062 1.325 . S
H2088 C2030 0.929 . S
H2089 C2031 0.930 . S
H2090 C2032 0.930 . S
H2091 C2033 0.930 . S
H2092 C2035 0.930 . S
H2093 C2037 0.929 . S
H2094 C2038 0.930 . S
H2095 C2039 0.930 . S
H2096 C2042 0.930 . S
H2097 C2045 0.929 . S
H2098 C2050 0.929 . S
H2099 C2051 0.930 . S
H2100 C2058 0.929 . S
H2101 C2059 0.930 1_565 S
H2102 C2060 0.930 . S
H2103 C2061 0.930 . S
H2104 C2063 0.929 . S
H2105 C2064 0.930 . S
H2106 C2065 0.930 . S
H2107 C2066 0.930 . S
H2108 C2070 0.929 . S
H2109 C2072 0.930 1_565 S
H2110 C2078 0.929 . S
H2111 C2079 0.930 . S
H2112 C2124 0.930 . S
H2113 C2126 0.930 . S
H2114 C2127 0.930 . S
H2115 C2131 0.959 . S
H2116 C2131 0.959 . S
H2117 C2131 0.961 . S
H2118 C2132 0.960 . S
H2119 C2132 0.961 . S
H2120 C2132 0.959 . S
H2121 C2135 0.929 . S
H2122 C2136 0.931 . S
H2123 C2138 0.930 . S
C2124 H2112 0.930 . S
C2124 C2125 1.399 . S
C2124 C2129 1.399 . S
C2125 C2124 1.399 . S
C2125 C2126 1.376 . S
C2126 H2113 0.930 . S
C2126 C2125 1.376 . S
C2126 C2127 1.388 . S
C2127 H2114 0.930 . S
C2127 C2126 1.388 . S
C2127 C2128 1.390 . S
C2128 C2127 1.390 . S
C2128 C2129 1.394 . S
C2128 C2134 1.465 . S
C2129 C2124 1.399 . S
C2129 C2128 1.394 . S
C2129 C2130 1.516 . S
C2130 C2129 1.516 . S
C2130 C2131 1.502 . S
C2130 C2132 1.561 . S
C2130 C2133 1.526 . S
C2131 H2115 0.959 . S
C2131 H2116 0.959 . S
C2131 H2117 0.961 . S
C2131 C2130 1.502 . S
C2132 H2118 0.960 . S
C2132 H2119 0.961 . S
C2132 H2120 0.959 . S
C2132 C2130 1.561 . S
C2133 C2130 1.526 . S
C2133 C2134 1.396 . S
C2133 C2138 1.390 . S
C2134 C2128 1.465 . S
C2134 C2133 1.396 . S
C2134 C2135 1.399 . S
C2135 H2121 0.929 . S
C2135 C2134 1.399 . S
C2135 C2136 1.385 . S
C2136 H2122 0.931 . S
C2136 C2135 1.385 . S
C2136 C2137 1.389 . S
C2137 C2136 1.389 . S
C2137 C2138 1.387 . S
C2138 H2123 0.930 . S
C2138 C2133 1.390 . S
C2138 C2137 1.387 . S
H2139 C2151 0.930 . S
H2140 C2153 0.930 . S
H2141 C2154 0.930 . S
H2142 C2158 0.959 . S
H2143 C2158 0.959 . S
H2144 C2158 0.961 . S
H2145 C2159 0.960 . S
H2146 C2159 0.961 . S
H2147 C2159 0.959 . S
H2148 C2162 0.929 . S
H2149 C2163 0.931 . S
H2150 C2165 0.930 . S
C2151 H2139 0.930 . S
C2151 C2152 1.399 . S
C2151 C2156 1.399 . S
C2152 C2151 1.399 . S
C2152 C2153 1.376 . S
C2153 H2140 0.930 . S
C2153 C2152 1.376 . S
C2153 C2154 1.388 . S
C2154 H2141 0.930 . S
C2154 C2153 1.388 . S
C2154 C2155 1.390 . S
C2155 C2154 1.390 . S
C2155 C2156 1.394 . S
C2155 C2161 1.465 . S
C2156 C2151 1.399 . S
C2156 C2155 1.394 . S
C2156 C2157 1.516 . S
C2157 C2156 1.516 . S
C2157 C2158 1.502 . S
C2157 C2159 1.561 . S
C2157 C2160 1.526 . S
C2158 H2142 0.959 . S
C2158 H2143 0.959 . S
C2158 H2144 0.961 . S
C2158 C2157 1.502 . S
C2159 H2145 0.960 . S
C2159 H2146 0.961 . S
C2159 H2147 0.959 . S
C2159 C2157 1.561 . S
C2160 C2157 1.526 . S
C2160 C2161 1.396 . S
C2160 C2165 1.390 . S
C2161 C2155 1.465 . S
C2161 C2160 1.396 . S
C2161 C2162 1.399 . S
C2162 H2148 0.929 . S
C2162 C2161 1.399 . S
C2162 C2163 1.385 . S
C2163 H2149 0.931 . S
C2163 C2162 1.385 . S
C2163 C2164 1.389 . S
C2164 C2163 1.389 . S
C2164 C2165 1.387 . S
C2165 H2150 0.930 . S
C2165 C2160 1.390 . S
C2165 C2164 1.387 . S
H2166 C2178 0.930 . S
H2167 C2180 0.930 . S
H2168 C2181 0.930 . S
H2169 C2185 0.959 . S
H2170 C2185 0.959 . S
H2171 C2185 0.961 . S
H2172 C2186 0.960 . S
H2173 C2186 0.961 . S
H2174 C2186 0.959 . S
H2175 C2189 0.929 . S
H2176 C2190 0.926 1_554 S
H2177 C2192 0.930 . S
C2178 H2166 0.930 . S
C2178 C2179 1.399 . S
C2178 C2183 1.399 . S
C2179 C2178 1.399 . S
C2179 C2180 1.376 . S
C2180 H2167 0.930 . S
C2180 C2179 1.376 . S
C2180 C2181 1.388 . S
C2181 H2168 0.930 . S
C2181 C2180 1.388 . S
C2181 C2182 1.390 . S
C2182 C2181 1.390 . S
C2182 C2183 1.394 . S
C2182 C2188 1.465 . S
C2183 C2178 1.399 . S
C2183 C2182 1.394 . S
C2183 C2184 1.516 . S
C2184 C2183 1.516 . S
C2184 C2185 1.502 . S
C2184 C2186 1.561 . S
C2184 C2187 1.526 . S
C2185 H2169 0.959 . S
C2185 H2170 0.959 . S
C2185 H2171 0.961 . S
C2185 C2184 1.502 . S
C2186 H2172 0.960 . S
C2186 H2173 0.961 . S
C2186 H2174 0.959 . S
C2186 C2184 1.561 . S
C2187 C2184 1.526 . S
C2187 C2188 1.396 . S
C2187 C2192 1.390 . S
C2188 C2182 1.465 . S
C2188 C2187 1.396 . S
C2188 C2189 1.399 . S
C2189 H2175 0.929 . S
C2189 C2188 1.399 . S
C2189 C2190 1.388 . S
C2190 H2176 0.926 1_556 S
C2190 C2189 1.388 . S
C2190 C2191 1.391 . S
C2191 C2190 1.391 . S
C2191 C2192 1.387 . S
C2192 H2177 0.930 . S
C2192 C2187 1.390 . S
C2192 C2191 1.387 . S
H2193 C2205 0.930 . S
H2194 C2207 0.930 . S
H2195 C2208 0.930 . S
H2196 C2212 0.959 . S
H2197 C2212 0.959 . S
H2198 C2212 0.961 . S
H2199 C2213 0.960 . S
H2200 C2213 0.961 . S
H2201 C2213 0.959 . S
H2202 C2216 0.929 . S
H2203 C2217 0.931 . S
H2204 C2219 0.930 . S
C2205 H2193 0.930 . S
C2205 C2206 1.399 . S
C2205 C2210 1.399 . S
C2206 C2205 1.399 . S
C2206 C2207 1.376 . S
C2207 H2194 0.930 . S
C2207 C2206 1.376 . S
C2207 C2208 1.388 . S
C2208 H2195 0.930 . S
C2208 C2207 1.388 . S
C2208 C2209 1.390 . S
C2209 C2208 1.390 . S
C2209 C2210 1.394 . S
C2209 C2215 1.465 . S
C2210 C2205 1.399 . S
C2210 C2209 1.394 . S
C2210 C2211 1.516 . S
C2211 C2210 1.516 . S
C2211 C2212 1.502 . S
C2211 C2213 1.561 . S
C2211 C2214 1.526 . S
C2212 H2196 0.959 . S
C2212 H2197 0.959 . S
C2212 H2198 0.961 . S
C2212 C2211 1.502 . S
C2213 H2199 0.960 . S
C2213 H2200 0.961 . S
C2213 H2201 0.959 . S
C2213 C2211 1.561 . S
C2214 C2211 1.526 . S
C2214 C2215 1.396 . S
C2214 C2219 1.390 . S
C2215 C2209 1.465 . S
C2215 C2214 1.396 . S
C2215 C2216 1.399 . S
C2216 H2202 0.929 . S
C2216 C2215 1.399 . S
C2216 C2217 1.385 . S
C2217 H2203 0.931 . S
C2217 C2216 1.385 . S
C2217 C2218 1.389 . S
C2218 C2217 1.389 . S
C2218 C2219 1.387 . S
C2219 H2204 0.930 . S
C2219 C2214 1.390 . S
C2219 C2218 1.387 . S
H2220 C2232 0.930 . S
H2221 C2234 0.930 . S
H2222 C2235 0.930 . S
H2223 C2239 0.959 . S
H2224 C2239 0.959 . S
H2225 C2239 0.961 . S
H2226 C2240 0.960 . S
H2227 C2240 0.961 . S
H2228 C2240 0.959 . S
H2229 C2243 0.929 . S
H2230 C2244 0.931 . S
H2231 C2246 0.930 . S
C2232 H2220 0.930 . S
C2232 C2233 1.399 . S
C2232 C2237 1.399 . S
C2233 C2232 1.399 . S
C2233 C2234 1.376 . S
C2234 H2221 0.930 . S
C2234 C2233 1.376 . S
C2234 C2235 1.388 . S
C2235 H2222 0.930 . S
C2235 C2234 1.388 . S
C2235 C2236 1.390 . S
C2236 C2235 1.390 . S
C2236 C2237 1.394 . S
C2236 C2242 1.465 . S
C2237 C2232 1.399 . S
C2237 C2236 1.394 . S
C2237 C2238 1.516 . S
C2238 C2237 1.516 . S
C2238 C2239 1.502 . S
C2238 C2240 1.561 . S
C2238 C2241 1.526 . S
C2239 H2223 0.959 . S
C2239 H2224 0.959 . S
C2239 H2225 0.961 . S
C2239 C2238 1.502 . S
C2240 H2226 0.960 . S
C2240 H2227 0.961 . S
C2240 H2228 0.959 . S
C2240 C2238 1.561 . S
C2241 C2238 1.526 . S
C2241 C2242 1.396 . S
C2241 C2246 1.390 . S
C2242 C2236 1.465 . S
C2242 C2241 1.396 . S
C2242 C2243 1.399 . S
C2243 H2229 0.929 . S
C2243 C2242 1.399 . S
C2243 C2244 1.385 . S
C2244 H2230 0.931 . S
C2244 C2243 1.385 . S
C2244 C2245 1.389 . S
C2245 C2244 1.389 . S
C2245 C2246 1.387 . S
C2246 H2231 0.930 . S
C2246 C2241 1.390 . S
C2246 C2245 1.387 . S
H2247 C2259 0.930 . S
H2248 C2261 0.930 . S
H2249 C2262 0.930 . S
H2250 C2266 0.959 . S
H2251 C2266 0.959 . S
H2252 C2266 0.961 . S
H2253 C2267 0.960 . S
H2254 C2267 0.961 . S
H2255 C2267 0.959 . S
H2256 C2270 0.929 . S
H2257 C2271 0.931 . S
H2258 C2273 0.930 . S
C2259 H2247 0.930 . S
C2259 C2260 1.399 . S
C2259 C2264 1.399 . S
C2260 C2259 1.399 . S
C2260 C2261 1.376 . S
C2261 H2248 0.930 . S
C2261 C2260 1.376 . S
C2261 C2262 1.388 . S
C2262 H2249 0.930 . S
C2262 C2261 1.388 . S
C2262 C2263 1.390 . S
C2263 C2262 1.390 . S
C2263 C2264 1.394 . S
C2263 C2269 1.465 . S
C2264 C2259 1.399 . S
C2264 C2263 1.394 . S
C2264 C2265 1.516 . S
C2265 C2264 1.516 . S
C2265 C2266 1.502 . S
C2265 C2267 1.561 . S
C2265 C2268 1.526 . S
C2266 H2250 0.959 . S
C2266 H2251 0.959 . S
C2266 H2252 0.961 . S
C2266 C2265 1.502 . S
C2267 H2253 0.960 . S
C2267 H2254 0.961 . S
C2267 H2255 0.959 . S
C2267 C2265 1.561 . S
C2268 C2265 1.526 . S
C2268 C2269 1.396 . S
C2268 C2273 1.390 . S
C2269 C2263 1.465 . S
C2269 C2268 1.396 . S
C2269 C2270 1.399 . S
C2270 H2256 0.929 . S
C2270 C2269 1.399 . S
C2270 C2271 1.385 . S
C2271 H2257 0.931 . S
C2271 C2270 1.385 . S
C2271 C2272 1.389 . S
C2272 C2271 1.389 . S
C2272 C2273 1.387 . S
C2273 H2258 0.930 . S
C2273 C2268 1.390 . S
C2273 C2272 1.387 . S
H2274 C2286 0.930 . S
H2275 C2288 0.930 . S
H2276 C2289 0.930 . S
H2277 C2293 0.959 . S
H2278 C2293 0.959 . S
H2279 C2293 0.961 . S
H2280 C2294 0.960 . S
H2281 C2294 0.961 . S
H2282 C2294 0.959 . S
H2283 C2297 0.929 . S
H2284 C2298 0.931 . S
H2285 C2300 0.930 1_556 S
C2286 H2274 0.930 . S
C2286 C2287 1.399 . S
C2286 C2291 1.399 . S
C2287 C2286 1.399 . S
C2287 C2288 1.376 . S
C2288 H2275 0.930 . S
C2288 C2287 1.376 . S
C2288 C2289 1.388 . S
C2289 H2276 0.930 . S
C2289 C2288 1.388 . S
C2289 C2290 1.390 . S
C2290 C2289 1.390 . S
C2290 C2291 1.394 . S
C2290 C2296 1.465 . S
C2291 C2286 1.399 . S
C2291 C2290 1.394 . S
C2291 C2292 1.516 . S
C2292 C2291 1.516 . S
C2292 C2293 1.502 . S
C2292 C2294 1.561 . S
C2292 C2295 1.526 . S
C2293 H2277 0.959 . S
C2293 H2278 0.959 . S
C2293 H2279 0.961 . S
C2293 C2292 1.502 . S
C2294 H2280 0.960 . S
C2294 H2281 0.961 . S
C2294 H2282 0.959 . S
C2294 C2292 1.561 . S
C2295 C2292 1.526 . S
C2295 C2296 1.396 . S
C2295 C2300 1.390 . S
C2296 C2290 1.465 . S
C2296 C2295 1.396 . S
C2296 C2297 1.399 . S
C2297 H2283 0.929 . S
C2297 C2296 1.399 . S
C2297 C2298 1.385 . S
C2298 H2284 0.931 . S
C2298 C2297 1.385 . S
C2298 C2299 1.389 . S
C2299 C2298 1.389 . S
C2299 C2300 1.387 . S
C2300 H2285 0.930 1_554 S
C2300 C2295 1.390 . S
C2300 C2299 1.387 . S
H2301 C2313 0.930 . S
H2302 C2315 0.930 . S
H2303 C2316 0.930 . S
H2304 C2320 0.959 . S
H2305 C2320 0.959 . S
H2306 C2320 0.961 . S
H2307 C2321 0.960 . S
H2308 C2321 0.961 . S
H2309 C2321 0.959 . S
H2310 C2324 0.929 . S
H2311 C2325 0.931 . S
H2312 C2327 0.930 . S
C2313 H2301 0.930 . S
C2313 C2314 1.399 . S
C2313 C2318 1.399 . S
C2314 C2313 1.399 . S
C2314 C2315 1.376 . S
C2315 H2302 0.930 . S
C2315 C2314 1.376 . S
C2315 C2316 1.388 . S
C2316 H2303 0.930 . S
C2316 C2315 1.388 . S
C2316 C2317 1.390 . S
C2317 C2316 1.390 . S
C2317 C2318 1.394 . S
C2317 C2323 1.465 . S
C2318 C2313 1.399 . S
C2318 C2317 1.394 . S
C2318 C2319 1.516 . S
C2319 C2318 1.516 . S
C2319 C2320 1.502 . S
C2319 C2321 1.561 . S
C2319 C2322 1.526 . S
C2320 H2304 0.959 . S
C2320 H2305 0.959 . S
C2320 H2306 0.961 . S
C2320 C2319 1.502 . S
C2321 H2307 0.960 . S
C2321 H2308 0.961 . S
C2321 H2309 0.959 . S
C2321 C2319 1.561 . S
C2322 C2319 1.526 . S
C2322 C2323 1.396 . S
C2322 C2327 1.390 . S
C2323 C2317 1.465 . S
C2323 C2322 1.396 . S
C2323 C2324 1.399 . S
C2324 H2310 0.929 . S
C2324 C2323 1.399 . S
C2324 C2325 1.385 . S
C2325 H2311 0.931 . S
C2325 C2324 1.385 . S
C2325 C2326 1.389 . S
C2326 C2325 1.389 . S
C2326 C2327 1.387 . S
C2327 H2312 0.930 . S
C2327 C2322 1.390 . S
C2327 C2326 1.387 . S
H2328 C2340 0.930 . S
H2329 C2342 0.930 . S
H2330 C2343 0.930 . S
H2331 C2347 0.959 . S
H2332 C2347 0.959 . S
H2333 C2347 0.961 . S
H2334 C2348 0.960 . S
H2335 C2348 0.961 . S
H2336 C2348 0.959 . S
H2337 C2351 0.929 . S
H2338 C2352 0.931 . S
H2339 C2354 0.930 . S
C2340 H2328 0.930 . S
C2340 C2341 1.399 . S
C2340 C2345 1.399 . S
C2341 C2340 1.399 . S
C2341 C2342 1.376 . S
C2342 H2329 0.930 . S
C2342 C2341 1.376 . S
C2342 C2343 1.388 . S
C2343 H2330 0.930 . S
C2343 C2342 1.388 . S
C2343 C2344 1.390 . S
C2344 C2343 1.390 . S
C2344 C2345 1.394 . S
C2344 C2350 1.465 . S
C2345 C2340 1.399 . S
C2345 C2344 1.394 . S
C2345 C2346 1.516 . S
C2346 C2345 1.516 . S
C2346 C2347 1.502 . S
C2346 C2348 1.561 . S
C2346 C2349 1.526 . S
C2347 H2331 0.959 . S
C2347 H2332 0.959 . S
C2347 H2333 0.961 . S
C2347 C2346 1.502 . S
C2348 H2334 0.960 . S
C2348 H2335 0.961 . S
C2348 H2336 0.959 . S
C2348 C2346 1.561 . S
C2349 C2346 1.526 . S
C2349 C2350 1.396 . S
C2349 C2354 1.390 . S
C2350 C2344 1.465 . S
C2350 C2349 1.396 . S
C2350 C2351 1.399 . S
C2351 H2337 0.929 . S
C2351 C2350 1.399 . S
C2351 C2352 1.385 . S
C2352 H2338 0.931 . S
C2352 C2351 1.385 . S
C2352 C2353 1.389 . S
C2353 C2352 1.389 . S
C2353 C2354 1.387 . S
C2354 H2339 0.930 . S
C2354 C2349 1.390 . S
C2354 C2353 1.387 . S
H2355 C2367 0.930 . S
H2356 C2369 0.930 1_565 S
H2357 C2370 0.930 . S
H2358 C2374 0.959 . S
H2359 C2374 0.959 . S
H2360 C2374 0.961 . S
H2361 C2375 0.960 . S
H2362 C2375 0.961 . S
H2363 C2375 0.959 . S
H2364 C2378 0.929 . S
H2365 C2379 0.931 . S
H2366 C2381 0.930 . S
C2367 H2355 0.930 . S
C2367 C2368 1.399 . S
C2367 C2372 1.399 . S
C2368 C2367 1.399 . S
C2368 C2369 1.376 . S
C2369 H2356 0.930 1_545 S
C2369 C2368 1.376 . S
C2369 C2370 1.388 . S
C2370 H2357 0.930 . S
C2370 C2369 1.388 . S
C2370 C2371 1.390 . S
C2371 C2370 1.390 . S
C2371 C2372 1.394 . S
C2371 C2377 1.465 . S
C2372 C2367 1.399 . S
C2372 C2371 1.394 . S
C2372 C2373 1.516 . S
C2373 C2372 1.516 . S
C2373 C2374 1.502 . S
C2373 C2375 1.561 . S
C2373 C2376 1.526 . S
C2374 H2358 0.959 . S
C2374 H2359 0.959 . S
C2374 H2360 0.961 . S
C2374 C2373 1.502 . S
C2375 H2361 0.960 . S
C2375 H2362 0.961 . S
C2375 H2363 0.959 . S
C2375 C2373 1.561 . S
C2376 C2373 1.526 . S
C2376 C2377 1.396 . S
C2376 C2381 1.390 . S
C2377 C2371 1.465 . S
C2377 C2376 1.396 . S
C2377 C2378 1.399 . S
C2378 H2364 0.929 . S
C2378 C2377 1.399 . S
C2378 C2379 1.385 . S
C2379 H2365 0.931 . S
C2379 C2378 1.385 . S
C2379 C2380 1.389 . S
C2380 C2379 1.389 . S
C2380 C2381 1.387 . S
C2381 H2366 0.930 . S
C2381 C2376 1.390 . S
C2381 C2380 1.387 . S
H2382 C2394 0.930 . S
H2383 C2396 0.930 . S
H2384 C2397 0.930 . S
H2385 C2401 0.959 . S
H2386 C2401 0.959 . S
H2387 C2401 0.961 . S
H2388 C2402 0.960 . S
H2389 C2402 0.961 . S
H2390 C2402 0.959 . S
H2391 C2405 0.929 . S
H2392 C2406 0.931 . S
H2393 C2408 0.930 . S
C2394 H2382 0.930 . S
C2394 C2395 1.399 . S
C2394 C2399 1.399 . S
C2395 C2394 1.399 . S
C2395 C2396 1.376 . S
C2396 H2383 0.930 . S
C2396 C2395 1.376 . S
C2396 C2397 1.388 . S
C2397 H2384 0.930 . S
C2397 C2396 1.388 . S
C2397 C2398 1.390 . S
C2398 C2397 1.390 . S
C2398 C2399 1.394 . S
C2398 C2404 1.465 . S
C2399 C2394 1.399 . S
C2399 C2398 1.394 . S
C2399 C2400 1.516 . S
C2400 C2399 1.516 . S
C2400 C2401 1.502 . S
C2400 C2402 1.561 . S
C2400 C2403 1.526 . S
C2401 H2385 0.959 . S
C2401 H2386 0.959 . S
C2401 H2387 0.961 . S
C2401 C2400 1.502 . S
C2402 H2388 0.960 . S
C2402 H2389 0.961 . S
C2402 H2390 0.959 . S
C2402 C2400 1.561 . S
C2403 C2400 1.526 . S
C2403 C2404 1.396 . S
C2403 C2408 1.390 . S
C2404 C2398 1.465 . S
C2404 C2403 1.396 . S
C2404 C2405 1.399 . S
C2405 H2391 0.929 . S
C2405 C2404 1.399 . S
C2405 C2406 1.385 . S
C2406 H2392 0.931 . S
C2406 C2405 1.385 . S
C2406 C2407 1.389 . S
C2407 C2406 1.389 . S
C2407 C2408 1.387 . S
C2408 H2393 0.930 . S
C2408 C2403 1.390 . S
C2408 C2407 1.387 . S
H2409 C2421 0.930 . S
H2410 C2423 0.930 . S
H2411 C2424 0.930 . S
H2412 C2428 0.959 . S
H2413 C2428 0.959 . S
H2414 C2428 0.961 . S
H2415 C2429 0.960 . S
H2416 C2429 0.961 . S
H2417 C2429 0.959 . S
H2418 C2432 0.929 . S
H2419 C2433 0.931 . S
H2420 C2435 0.930 . S
C2421 H2409 0.930 . S
C2421 C2422 1.399 . S
C2421 C2426 1.399 . S
C2422 C2421 1.399 . S
C2422 C2423 1.376 . S
C2423 H2410 0.930 . S
C2423 C2422 1.376 . S
C2423 C2424 1.388 . S
C2424 H2411 0.930 . S
C2424 C2423 1.388 . S
C2424 C2425 1.390 . S
C2425 C2424 1.390 . S
C2425 C2426 1.394 . S
C2425 C2431 1.465 . S
C2426 C2421 1.399 . S
C2426 C2425 1.394 . S
C2426 C2427 1.516 . S
C2427 C2426 1.516 . S
C2427 C2428 1.502 . S
C2427 C2429 1.561 . S
C2427 C2430 1.526 . S
C2428 H2412 0.959 . S
C2428 H2413 0.959 . S
C2428 H2414 0.961 . S
C2428 C2427 1.502 . S
C2429 H2415 0.960 . S
C2429 H2416 0.961 . S
C2429 H2417 0.959 . S
C2429 C2427 1.561 . S
C2430 C2427 1.526 . S
C2430 C2431 1.396 . S
C2430 C2435 1.390 . S
C2431 C2425 1.465 . S
C2431 C2430 1.396 . S
C2431 C2432 1.399 . S
C2432 H2418 0.929 . S
C2432 C2431 1.399 . S
C2432 C2433 1.385 . S
C2433 H2419 0.931 . S
C2433 C2432 1.385 . S
C2433 C2434 1.389 . S
C2434 C2433 1.389 . S
C2434 C2435 1.387 . S
C2435 H2420 0.930 . S
C2435 C2430 1.390 . S
C2435 C2434 1.387 . S
H2436 C2448 0.930 . S
H2437 C2450 0.930 . S
H2438 C2451 0.930 . S
H2439 C2455 0.959 . S
H2440 C2455 0.959 . S
H2441 C2455 0.961 . S
H2442 C2456 0.960 . S
H2443 C2456 0.961 . S
H2444 C2456 0.959 . S
H2445 C2459 0.929 . S
H2446 C2460 0.931 . S
H2447 C2462 0.930 . S
C2448 H2436 0.930 . S
C2448 C2449 1.399 . S
C2448 C2453 1.399 . S
C2449 C2448 1.399 . S
C2449 C2450 1.376 . S
C2450 H2437 0.930 . S
C2450 C2449 1.376 . S
C2450 C2451 1.388 . S
C2451 H2438 0.930 . S
C2451 C2450 1.388 . S
C2451 C2452 1.390 . S
C2452 C2451 1.390 . S
C2452 C2453 1.394 . S
C2452 C2458 1.465 . S
C2453 C2448 1.399 . S
C2453 C2452 1.394 . S
C2453 C2454 1.516 . S
C2454 C2453 1.516 . S
C2454 C2455 1.502 . S
C2454 C2456 1.561 . S
C2454 C2457 1.526 . S
C2455 H2439 0.959 . S
C2455 H2440 0.959 . S
C2455 H2441 0.961 . S
C2455 C2454 1.502 . S
C2456 H2442 0.960 . S
C2456 H2443 0.961 . S
C2456 H2444 0.959 . S
C2456 C2454 1.561 . S
C2457 C2454 1.526 . S
C2457 C2458 1.396 . S
C2457 C2462 1.390 . S
C2458 C2452 1.465 . S
C2458 C2457 1.396 . S
C2458 C2459 1.399 . S
C2459 H2445 0.929 . S
C2459 C2458 1.399 . S
C2459 C2460 1.385 . S
C2460 H2446 0.931 . S
C2460 C2459 1.385 . S
C2460 C2461 1.389 . S
C2461 C2460 1.389 . S
C2461 C2462 1.387 . S
C2462 H2447 0.930 . S
C2462 C2457 1.390 . S
C2462 C2461 1.387 . S
H2463 C2475 0.930 . S
H2464 C2477 0.930 . S
H2465 C2478 0.930 . S
H2466 C2482 0.959 . S
H2467 C2482 0.959 . S
H2468 C2482 0.961 . S
H2469 C2483 0.960 . S
H2470 C2483 0.961 . S
H2471 C2483 0.959 . S
H2472 C2486 0.929 . S
H2473 C2487 0.931 . S
H2474 C2489 0.930 . S
C2475 H2463 0.930 . S
C2475 C2476 1.399 . S
C2475 C2480 1.399 . S
C2476 C2475 1.399 . S
C2476 C2477 1.376 1_565 S
C2477 H2464 0.930 . S
C2477 C2476 1.376 1_545 S
C2477 C2478 1.388 . S
C2478 H2465 0.930 . S
C2478 C2477 1.388 . S
C2478 C2479 1.390 . S
C2479 C2478 1.390 . S
C2479 C2480 1.394 1_545 S
C2479 C2485 1.465 . S
C2480 C2475 1.399 . S
C2480 C2479 1.394 1_565 S
C2480 C2481 1.516 . S
C2481 C2480 1.516 . S
C2481 C2482 1.502 . S
C2481 C2483 1.561 . S
C2481 C2484 1.526 1_565 S
C2482 H2466 0.959 . S
C2482 H2467 0.959 . S
C2482 H2468 0.961 . S
C2482 C2481 1.502 . S
C2483 H2469 0.960 . S
C2483 H2470 0.961 . S
C2483 H2471 0.959 . S
C2483 C2481 1.561 . S
C2484 C2481 1.526 1_545 S
C2484 C2485 1.396 . S
C2484 C2489 1.390 . S
C2485 C2479 1.465 . S
C2485 C2484 1.396 . S
C2485 C2486 1.399 . S
C2486 H2472 0.929 . S
C2486 C2485 1.399 . S
C2486 C2487 1.385 . S
C2487 H2473 0.931 . S
C2487 C2486 1.385 . S
C2487 C2488 1.389 . S
C2488 C2487 1.389 . S
C2488 C2489 1.387 . S
C2489 H2474 0.930 . S
C2489 C2484 1.390 . S
C2489 C2488 1.387 . S
H2490 C2502 0.930 . S
H2491 C2504 0.930 . S
H2492 C2505 0.930 . S
H2493 C2509 0.959 . S
H2494 C2509 0.959 . S
H2495 C2509 0.961 . S
H2496 C2510 0.960 . S
H2497 C2510 0.961 . S
H2498 C2510 0.959 . S
H2499 C2513 0.929 . S
H2500 C2514 0.931 . S
H2501 C2516 0.930 . S
C2502 H2490 0.930 . S
C2502 C2503 1.399 . S
C2502 C2507 1.399 . S
C2503 C2502 1.399 . S
C2503 C2504 1.376 . S
C2504 H2491 0.930 . S
C2504 C2503 1.376 . S
C2504 C2505 1.388 . S
C2505 H2492 0.930 . S
C2505 C2504 1.388 . S
C2505 C2506 1.390 . S
C2506 C2505 1.390 . S
C2506 C2507 1.394 . S
C2506 C2512 1.465 . S
C2507 C2502 1.399 . S
C2507 C2506 1.394 . S
C2507 C2508 1.516 1_556 S
C2508 C2507 1.516 1_554 S
C2508 C2509 1.502 . S
C2508 C2510 1.561 . S
C2508 C2511 1.526 . S
C2509 H2493 0.959 . S
C2509 H2494 0.959 . S
C2509 H2495 0.961 . S
C2509 C2508 1.502 . S
C2510 H2496 0.960 . S
C2510 H2497 0.961 . S
C2510 H2498 0.959 . S
C2510 C2508 1.561 . S
C2511 C2508 1.526 . S
C2511 C2512 1.396 1_554 S
C2511 C2516 1.390 . S
C2512 C2506 1.465 . S
C2512 C2511 1.396 1_556 S
C2512 C2513 1.399 . S
C2513 H2499 0.929 . S
C2513 C2512 1.399 . S
C2513 C2514 1.385 . S
C2514 H2500 0.931 . S
C2514 C2513 1.385 . S
C2514 C2515 1.389 1_556 S
C2515 C2514 1.389 1_554 S
C2515 C2516 1.387 . S
C2516 H2501 0.930 . S
C2516 C2511 1.390 . S
C2516 C2515 1.387 . S
H2517 C2529 0.930 . S
H2518 C2531 0.930 . S
H2519 C2532 0.930 . S
H2520 C2536 0.959 . S
H2521 C2536 0.959 . S
H2522 C2536 0.961 . S
H2523 C2537 0.960 . S
H2524 C2537 0.961 . S
H2525 C2537 0.959 . S
H2526 C2540 0.929 . S
H2527 C2541 0.931 . S
H2528 C2543 0.930 . S
C2529 H2517 0.930 . S
C2529 C2530 1.399 1_565 S
C2529 C2534 1.399 . S
C2530 C2529 1.399 1_545 S
C2530 C2531 1.376 . S
C2531 H2518 0.930 . S
C2531 C2530 1.376 . S
C2531 C2532 1.388 . S
C2532 H2519 0.930 . S
C2532 C2531 1.388 . S
C2532 C2533 1.390 1_545 S
C2533 C2532 1.390 1_565 S
C2533 C2534 1.394 . S
C2533 C2539 1.465 . S
C2534 C2529 1.399 . S
C2534 C2533 1.394 . S
C2534 C2535 1.516 . S
C2535 C2534 1.516 . S
C2535 C2536 1.502 . S
C2535 C2537 1.561 . S
C2535 C2538 1.526 . S
C2536 H2520 0.959 . S
C2536 H2521 0.959 . S
C2536 H2522 0.961 . S
C2536 C2535 1.502 . S
C2537 H2523 0.960 . S
C2537 H2524 0.961 . S
C2537 H2525 0.959 . S
C2537 C2535 1.561 . S
C2538 C2535 1.526 . S
C2538 C2539 1.396 . S
C2538 C2543 1.390 . S
C2539 C2533 1.465 . S
C2539 C2538 1.396 . S
C2539 C2540 1.399 . S
C2540 H2526 0.929 . S
C2540 C2539 1.399 . S
C2540 C2541 1.385 . S
C2541 H2527 0.931 . S
C2541 C2540 1.385 . S
C2541 C2542 1.389 . S
C2542 C2541 1.389 . S
C2542 C2543 1.387 . S
C2543 H2528 0.930 . S
C2543 C2538 1.390 . S
C2543 C2542 1.387 . S
H2544 C2556 0.930 . S
H2545 C2558 0.930 . S
H2546 C2559 0.930 . S
H2547 C2563 0.959 . S
H2548 C2563 0.959 . S
H2549 C2563 0.961 . S
H2550 C2564 0.960 . S
H2551 C2564 0.961 . S
H2552 C2564 0.959 . S
H2553 C2567 0.929 . S
H2554 C2568 0.931 . S
H2555 C2570 0.930 . S
C2556 H2544 0.930 . S
C2556 C2557 1.399 . S
C2556 C2561 1.399 . S
C2557 C2556 1.399 . S
C2557 C2558 1.376 . S
C2558 H2545 0.930 . S
C2558 C2557 1.376 . S
C2558 C2559 1.388 . S
C2559 H2546 0.930 . S
C2559 C2558 1.388 . S
C2559 C2560 1.390 . S
C2560 C2559 1.390 . S
C2560 C2561 1.394 . S
C2560 C2566 1.465 . S
C2561 C2556 1.399 . S
C2561 C2560 1.394 . S
C2561 C2562 1.516 . S
C2562 C2561 1.516 . S
C2562 C2563 1.502 . S
C2562 C2564 1.561 . S
C2562 C2565 1.526 . S
C2563 H2547 0.959 . S
C2563 H2548 0.959 . S
C2563 H2549 0.961 . S
C2563 C2562 1.502 . S
C2564 H2550 0.960 . S
C2564 H2551 0.961 . S
C2564 H2552 0.959 . S
C2564 C2562 1.561 . S
C2565 C2562 1.526 . S
C2565 C2566 1.396 . S
C2565 C2570 1.390 . S
C2566 C2560 1.465 . S
C2566 C2565 1.396 . S
C2566 C2567 1.399 . S
C2567 H2553 0.929 . S
C2567 C2566 1.399 . S
C2567 C2568 1.385 . S
C2568 H2554 0.931 . S
C2568 C2567 1.385 . S
C2568 C2569 1.389 . S
C2569 C2568 1.389 . S
C2569 C2570 1.387 . S
C2570 H2555 0.930 . S
C2570 C2565 1.390 . S
C2570 C2569 1.387 . S
H2571 C2583 0.930 . S
H2572 C2585 0.930 . S
H2573 C2586 0.930 . S
H2574 C2590 0.959 . S
H2575 C2590 0.959 . S
H2576 C2590 0.961 . S
H2577 C2591 0.960 . S
H2578 C2591 0.961 . S
H2579 C2591 0.959 . S
H2580 C2594 0.929 . S
H2581 C2595 0.931 . S
H2582 C2597 0.930 . S
C2583 H2571 0.930 . S
C2583 C2584 1.399 . S
C2583 C2588 1.399 . S
C2584 C2583 1.399 . S
C2584 C2585 1.376 . S
C2585 H2572 0.930 . S
C2585 C2584 1.376 . S
C2585 C2586 1.388 . S
C2586 H2573 0.930 . S
C2586 C2585 1.388 . S
C2586 C2587 1.390 . S
C2587 C2586 1.390 . S
C2587 C2588 1.394 . S
C2587 C2593 1.465 . S
C2588 C2583 1.399 . S
C2588 C2587 1.394 . S
C2588 C2589 1.516 . S
C2589 C2588 1.516 . S
C2589 C2590 1.502 . S
C2589 C2591 1.561 . S
C2589 C2592 1.526 . S
C2590 H2574 0.959 . S
C2590 H2575 0.959 . S
C2590 H2576 0.961 . S
C2590 C2589 1.502 . S
C2591 H2577 0.960 . S
C2591 H2578 0.961 . S
C2591 H2579 0.959 . S
C2591 C2589 1.561 . S
C2592 C2589 1.526 . S
C2592 C2593 1.396 . S
C2592 C2597 1.390 . S
C2593 C2587 1.465 . S
C2593 C2592 1.396 . S
C2593 C2594 1.399 . S
C2594 H2580 0.929 . S
C2594 C2593 1.399 . S
C2594 C2595 1.385 . S
C2595 H2581 0.931 . S
C2595 C2594 1.385 . S
C2595 C2596 1.389 . S
C2596 C2595 1.389 . S
C2596 C2597 1.387 . S
C2597 H2582 0.930 . S
C2597 C2592 1.390 . S
C2597 C2596 1.387 . S
H2598 C2610 0.930 . S
H2599 C2612 0.930 . S
H2600 C2613 0.930 . S
H2601 C2617 0.959 . S
H2602 C2617 0.959 . S
H2603 C2617 0.961 1_556 S
H2604 C2618 0.960 . S
H2605 C2618 0.961 . S
H2606 C2618 0.959 . S
H2607 C2621 0.929 . S
H2608 C2622 0.931 . S
H2609 C2624 0.930 . S
C2610 H2598 0.930 . S
C2610 C2611 1.399 . S
C2610 C2615 1.399 . S
C2611 C2610 1.399 . S
C2611 C2612 1.376 . S
C2612 H2599 0.930 . S
C2612 C2611 1.376 . S
C2612 C2613 1.388 1_556 S
C2613 H2600 0.930 . S
C2613 C2612 1.388 1_554 S
C2613 C2614 1.390 . S
C2614 C2613 1.390 . S
C2614 C2615 1.394 1_554 S
C2614 C2620 1.465 . S
C2615 C2610 1.399 . S
C2615 C2614 1.394 1_556 S
C2615 C2616 1.511 1_556 S
C2616 C2615 1.511 1_554 S
C2616 C2617 1.508 . S
C2616 C2618 1.524 1_554 S
C2616 C2619 1.563 . S
C2617 H2601 0.959 . S
C2617 H2602 0.959 . S
C2617 H2603 0.961 1_554 S
C2617 C2616 1.508 . S
C2618 H2604 0.960 . S
C2618 H2605 0.961 . S
C2618 H2606 0.959 . S
C2618 C2616 1.524 1_556 S
C2619 C2616 1.563 . S
C2619 C2620 1.396 . S
C2619 C2624 1.390 . S
C2620 C2614 1.465 . S
C2620 C2619 1.396 . S
C2620 C2621 1.399 . S
C2621 H2607 0.929 . S
C2621 C2620 1.399 . S
C2621 C2622 1.385 . S
C2622 H2608 0.931 . S
C2622 C2621 1.385 . S
C2622 C2623 1.389 . S
C2623 C2622 1.389 . S
C2623 C2624 1.387 . S
C2624 H2609 0.930 . S
C2624 C2619 1.390 . S
C2624 C2623 1.387 . S
H2625 C2637 0.930 . S
H2626 C2639 0.930 . S
H2627 C2640 0.930 . S
H2628 C2644 0.959 . S
H2629 C2644 0.959 . S
H2630 C2644 0.961 . S
H2631 C2645 0.960 . S
H2632 C2645 0.961 . S
H2633 C2645 0.959 . S
H2634 C2648 0.929 . S
H2635 C2649 0.931 . S
H2636 C2651 0.930 . S
C2637 H2625 0.930 . S
C2637 C2638 1.399 . S
C2637 C2642 1.399 . S
C2638 C2637 1.399 . S
C2638 C2639 1.376 . S
C2639 H2626 0.930 . S
C2639 C2638 1.376 . S
C2639 C2640 1.388 . S
C2640 H2627 0.930 . S
C2640 C2639 1.388 . S
C2640 C2641 1.390 . S
C2641 C2640 1.390 . S
C2641 C2642 1.394 . S
C2641 C2647 1.465 . S
C2642 C2637 1.399 . S
C2642 C2641 1.394 . S
C2642 C2643 1.516 . S
C2643 C2642 1.516 . S
C2643 C2644 1.502 . S
C2643 C2645 1.561 . S
C2643 C2646 1.526 . S
C2644 H2628 0.959 . S
C2644 H2629 0.959 . S
C2644 H2630 0.961 . S
C2644 C2643 1.502 . S
C2645 H2631 0.960 . S
C2645 H2632 0.961 . S
C2645 H2633 0.959 . S
C2645 C2643 1.561 . S
C2646 C2643 1.526 . S
C2646 C2647 1.396 . S
C2646 C2651 1.390 . S
C2647 C2641 1.465 . S
C2647 C2646 1.396 . S
C2647 C2648 1.399 . S
C2648 H2634 0.929 . S
C2648 C2647 1.399 . S
C2648 C2649 1.385 . S
C2649 H2635 0.931 . S
C2649 C2648 1.385 . S
C2649 C2650 1.389 . S
C2650 C2649 1.389 . S
C2650 C2651 1.387 . S
C2651 H2636 0.930 . S
C2651 C2646 1.390 . S
C2651 C2650 1.387 . S
H2652 C2664 0.930 . S
H2653 C2666 0.930 . S
H2654 C2667 0.930 . S
H2655 C2671 0.959 . S
H2656 C2671 0.959 . S
H2657 C2671 0.961 . S
H2658 C2672 0.960 . S
H2659 C2672 0.961 . S
H2660 C2672 0.959 . S
H2661 C2675 0.929 . S
H2662 C2676 0.931 . S
H2663 C2678 0.930 . S
C2664 H2652 0.930 . S
C2664 C2665 1.399 . S
C2664 C2669 1.399 . S
C2665 C2664 1.399 . S
C2665 C2666 1.376 . S
C2666 H2653 0.930 . S
C2666 C2665 1.376 . S
C2666 C2667 1.388 . S
C2667 H2654 0.930 . S
C2667 C2666 1.388 . S
C2667 C2668 1.390 . S
C2668 C2667 1.390 . S
C2668 C2669 1.394 . S
C2668 C2674 1.465 . S
C2669 C2664 1.399 . S
C2669 C2668 1.394 . S
C2669 C2670 1.516 . S
C2670 C2669 1.516 . S
C2670 C2671 1.502 . S
C2670 C2672 1.561 . S
C2670 C2673 1.526 . S
C2671 H2655 0.959 . S
C2671 H2656 0.959 . S
C2671 H2657 0.961 . S
C2671 C2670 1.502 . S
C2672 H2658 0.960 . S
C2672 H2659 0.961 . S
C2672 H2660 0.959 . S
C2672 C2670 1.561 . S
C2673 C2670 1.526 . S
C2673 C2674 1.396 . S
C2673 C2678 1.390 . S
C2674 C2668 1.465 . S
C2674 C2673 1.396 . S
C2674 C2675 1.399 . S
C2675 H2661 0.929 . S
C2675 C2674 1.399 . S
C2675 C2676 1.385 . S
C2676 H2662 0.931 . S
C2676 C2675 1.385 . S
C2676 C2677 1.389 . S
C2677 C2676 1.389 . S
C2677 C2678 1.387 . S
C2678 H2663 0.930 . S
C2678 C2673 1.390 . S
C2678 C2677 1.387 . S
H2679 C2691 0.930 . S
H2680 C2693 0.930 . S
H2681 C2694 0.930 . S
H2682 C2698 0.959 . S
H2683 C2698 0.959 . S
H2684 C2698 0.961 . S
H2685 C2699 0.960 . S
H2686 C2699 0.961 . S
H2687 C2699 0.959 . S
H2688 C2702 0.929 . S
H2689 C2703 0.931 . S
H2690 C2705 0.930 . S
C2691 H2679 0.930 . S
C2691 C2692 1.399 1_655 S
C2691 C2696 1.399 . S
C2692 C2691 1.399 1_455 S
C2692 C2693 1.376 . S
C2693 H2680 0.930 . S
C2693 C2692 1.376 . S
C2693 C2694 1.388 . S
C2694 H2681 0.930 . S
C2694 C2693 1.388 . S
C2694 C2695 1.390 1_455 S
C2695 C2694 1.390 1_655 S
C2695 C2696 1.394 . S
C2695 C2701 1.465 . S
C2696 C2691 1.399 . S
C2696 C2695 1.394 . S
C2696 C2697 1.516 . S
C2697 C2696 1.516 . S
C2697 C2698 1.502 . S
C2697 C2699 1.561 . S
C2697 C2700 1.526 . S
C2698 H2682 0.959 . S
C2698 H2683 0.959 . S
C2698 H2684 0.961 . S
C2698 C2697 1.502 . S
C2699 H2685 0.960 . S
C2699 H2686 0.961 . S
C2699 H2687 0.959 . S
C2699 C2697 1.561 . S
C2700 C2697 1.526 . S
C2700 C2701 1.396 . S
C2700 C2705 1.390 . S
C2701 C2695 1.465 . S
C2701 C2700 1.396 . S
C2701 C2702 1.399 . S
C2702 H2688 0.929 . S
C2702 C2701 1.399 . S
C2702 C2703 1.385 . S
C2703 H2689 0.931 . S
C2703 C2702 1.385 . S
C2703 C2704 1.389 . S
C2704 C2703 1.389 . S
C2704 C2705 1.387 . S
C2705 H2690 0.930 . S
C2705 C2700 1.390 . S
C2705 C2704 1.387 . S
H2706 C2718 0.926 1_455 S
H2707 C2720 0.930 . S
H2708 C2721 0.930 . S
H2709 C2725 0.959 . S
H2710 C2725 0.959 . S
H2711 C2725 0.961 . S
H2712 C2726 0.960 . S
H2713 C2726 0.961 . S
H2714 C2726 0.950 1_655 S
H2715 C2729 0.929 . S
H2716 C2730 0.931 . S
H2717 C2732 0.930 . S
C2718 H2706 0.926 1_655 S
C2718 C2719 1.435 . S
C2718 C2723 1.370 1_655 S
C2719 C2718 1.435 . S
C2719 C2720 1.376 . S
C2720 H2707 0.930 . S
C2720 C2719 1.376 . S
C2720 C2721 1.388 . S
C2721 H2708 0.930 . S
C2721 C2720 1.388 . S
C2721 C2722 1.390 1_655 S
C2722 C2721 1.390 1_455 S
C2722 C2723 1.394 . S
C2722 C2728 1.465 . S
C2723 C2718 1.370 1_455 S
C2723 C2722 1.394 . S
C2723 C2724 1.516 . S
C2724 C2723 1.516 . S
C2724 C2725 1.502 . S
C2724 C2726 1.561 . S
C2724 C2727 1.526 . S
C2725 H2709 0.959 . S
C2725 H2710 0.959 . S
C2725 H2711 0.961 . S
C2725 C2724 1.502 . S
C2726 H2712 0.960 . S
C2726 H2713 0.961 . S
C2726 H2714 0.950 1_455 S
C2726 C2724 1.561 . S
C2727 C2724 1.526 . S
C2727 C2728 1.396 . S
C2727 C2732 1.390 . S
C2728 C2722 1.465 . S
C2728 C2727 1.396 . S
C2728 C2729 1.399 . S
C2729 H2715 0.929 . S
C2729 C2728 1.399 . S
C2729 C2730 1.385 . S
C2730 H2716 0.931 . S
C2730 C2729 1.385 . S
C2730 C2731 1.389 . S
C2731 C2730 1.389 . S
C2731 C2732 1.387 . S
C2732 H2717 0.930 . S
C2732 C2727 1.390 . S
C2732 C2731 1.387 . S
H2733 C2745 0.930 . S
H2734 C2747 0.930 . S
H2735 C2748 0.930 . S
H2736 C2752 0.959 . S
H2737 C2752 0.959 . S
H2738 C2752 0.961 . S
H2739 C2753 0.960 . S
H2740 C2753 0.961 . S
H2741 C2753 0.959 . S
H2742 C2756 0.929 . S
H2743 C2757 0.931 . S
H2744 C2759 0.930 . S
C2745 H2733 0.930 . S
C2745 C2746 1.399 . S
C2745 C2750 1.399 . S
C2746 C2745 1.399 . S
C2746 C2747 1.376 . S
C2747 H2734 0.930 . S
C2747 C2746 1.376 . S
C2747 C2748 1.388 . S
C2748 H2735 0.930 . S
C2748 C2747 1.388 . S
C2748 C2749 1.390 . S
C2749 C2748 1.390 . S
C2749 C2750 1.394 . S
C2749 C2755 1.465 . S
C2750 C2745 1.399 . S
C2750 C2749 1.394 . S
C2750 C2751 1.516 . S
C2751 C2750 1.516 . S
C2751 C2752 1.502 . S
C2751 C2753 1.561 . S
C2751 C2754 1.526 . S
C2752 H2736 0.959 . S
C2752 H2737 0.959 . S
C2752 H2738 0.961 . S
C2752 C2751 1.502 . S
C2753 H2739 0.960 . S
C2753 H2740 0.961 . S
C2753 H2741 0.959 . S
C2753 C2751 1.561 . S
C2754 C2751 1.526 . S
C2754 C2755 1.396 . S
C2754 C2759 1.390 . S
C2755 C2749 1.465 . S
C2755 C2754 1.396 . S
C2755 C2756 1.399 . S
C2756 H2742 0.929 . S
C2756 C2755 1.399 . S
C2756 C2757 1.385 . S
C2757 H2743 0.931 . S
C2757 C2756 1.385 . S
C2757 C2758 1.389 . S
C2758 C2757 1.389 . S
C2758 C2759 1.387 . S
C2759 H2744 0.930 . S
C2759 C2754 1.390 . S
C2759 C2758 1.387 . S
H2760 C2772 0.930 . S
H2761 C2774 0.930 . S
H2762 C2775 0.930 . S
H2763 C2779 0.959 . S
H2764 C2779 0.959 . S
H2765 C2779 0.961 . S
H2766 C2780 0.960 . S
H2767 C2780 0.961 . S
H2768 C2780 0.959 . S
H2769 C2783 0.929 . S
H2770 C2784 0.931 . S
H2771 C2786 0.930 . S
C2772 H2760 0.930 . S
C2772 C2773 1.399 . S
C2772 C2777 1.399 . S
C2773 C2772 1.399 . S
C2773 C2774 1.376 . S
C2774 H2761 0.930 . S
C2774 C2773 1.376 . S
C2774 C2775 1.388 . S
C2775 H2762 0.930 . S
C2775 C2774 1.388 . S
C2775 C2776 1.390 . S
C2776 C2775 1.390 . S
C2776 C2777 1.394 . S
C2776 C2782 1.465 . S
C2777 C2772 1.399 . S
C2777 C2776 1.394 . S
C2777 C2778 1.516 . S
C2778 C2777 1.516 . S
C2778 C2779 1.502 . S
C2778 C2780 1.561 . S
C2778 C2781 1.526 . S
C2779 H2763 0.959 . S
C2779 H2764 0.959 . S
C2779 H2765 0.961 . S
C2779 C2778 1.502 . S
C2780 H2766 0.960 . S
C2780 H2767 0.961 . S
C2780 H2768 0.959 . S
C2780 C2778 1.561 . S
C2781 C2778 1.526 . S
C2781 C2782 1.396 . S
C2781 C2786 1.390 . S
C2782 C2776 1.465 . S
C2782 C2781 1.396 . S
C2782 C2783 1.399 . S
C2783 H2769 0.929 . S
C2783 C2782 1.399 . S
C2783 C2784 1.385 . S
C2784 H2770 0.931 . S
C2784 C2783 1.385 . S
C2784 C2785 1.389 . S
C2785 C2784 1.389 . S
C2785 C2786 1.387 . S
C2786 H2771 0.930 . S
C2786 C2781 1.390 . S
C2786 C2785 1.387 . S
H2787 C2799 0.930 . S
H2788 C2801 0.930 . S
H2789 C2802 0.930 . S
H2790 C2806 0.959 . S
H2791 C2806 0.959 . S
H2792 C2806 0.961 . S
H2793 C2807 0.960 . S
H2794 C2807 0.961 . S
H2795 C2807 0.959 . S
H2796 C2810 0.929 . S
H2797 C2811 0.931 . S
H2798 C2813 0.930 . S
C2799 H2787 0.930 . S
C2799 C2800 1.399 . S
C2799 C2804 1.399 . S
C2800 C2799 1.399 . S
C2800 C2801 1.376 . S
C2801 H2788 0.930 . S
C2801 C2800 1.376 . S
C2801 C2802 1.388 . S
C2802 H2789 0.930 . S
C2802 C2801 1.388 . S
C2802 C2803 1.390 . S
C2803 C2802 1.390 . S
C2803 C2804 1.394 . S
C2803 C2809 1.465 . S
C2804 C2799 1.399 . S
C2804 C2803 1.394 . S
C2804 C2805 1.516 . S
C2805 C2804 1.516 . S
C2805 C2806 1.502 . S
C2805 C2807 1.561 . S
C2805 C2808 1.526 . S
C2806 H2790 0.959 . S
C2806 H2791 0.959 . S
C2806 H2792 0.961 . S
C2806 C2805 1.502 . S
C2807 H2793 0.960 . S
C2807 H2794 0.961 . S
C2807 H2795 0.959 . S
C2807 C2805 1.561 . S
C2808 C2805 1.526 . S
C2808 C2809 1.396 . S
C2808 C2813 1.390 . S
C2809 C2803 1.465 . S
C2809 C2808 1.396 . S
C2809 C2810 1.399 . S
C2810 H2796 0.929 . S
C2810 C2809 1.399 . S
C2810 C2811 1.385 . S
C2811 H2797 0.931 . S
C2811 C2810 1.385 . S
C2811 C2812 1.389 . S
C2812 C2811 1.389 . S
C2812 C2813 1.387 . S
C2813 H2798 0.930 . S
C2813 C2808 1.390 . S
C2813 C2812 1.387 . S
H2814 C2826 0.930 . S
H2815 C2828 0.930 . S
H2816 C2829 0.930 . S
H2817 C2833 0.959 . S
H2818 C2833 0.959 . S
H2819 C2833 0.961 . S
H2820 C2834 0.960 . S
H2821 C2834 0.961 . S
H2822 C2834 0.959 . S
H2823 C2837 0.929 . S
H2824 C2838 0.931 . S
H2825 C2840 0.930 . S
C2826 H2814 0.930 . S
C2826 C2827 1.399 . S
C2826 C2831 1.399 . S
C2827 C2826 1.399 . S
C2827 C2828 1.376 . S
C2828 H2815 0.930 . S
C2828 C2827 1.376 . S
C2828 C2829 1.388 . S
C2829 H2816 0.930 . S
C2829 C2828 1.388 . S
C2829 C2830 1.390 . S
C2830 C2829 1.390 . S
C2830 C2831 1.394 . S
C2830 C2836 1.465 . S
C2831 C2826 1.399 . S
C2831 C2830 1.394 . S
C2831 C2832 1.516 . S
C2832 C2831 1.516 . S
C2832 C2833 1.502 . S
C2832 C2834 1.561 . S
C2832 C2835 1.526 . S
C2833 H2817 0.959 . S
C2833 H2818 0.959 . S
C2833 H2819 0.961 . S
C2833 C2832 1.502 . S
C2834 H2820 0.960 . S
C2834 H2821 0.961 . S
C2834 H2822 0.959 . S
C2834 C2832 1.561 . S
C2835 C2832 1.526 . S
C2835 C2836 1.396 . S
C2835 C2840 1.390 . S
C2836 C2830 1.465 . S
C2836 C2835 1.396 . S
C2836 C2837 1.399 . S
C2837 H2823 0.929 . S
C2837 C2836 1.399 . S
C2837 C2838 1.385 . S
C2838 H2824 0.931 . S
C2838 C2837 1.385 . S
C2838 C2839 1.389 . S
C2839 C2838 1.389 . S
C2839 C2840 1.387 . S
C2840 H2825 0.930 . S
C2840 C2835 1.390 . S
C2840 C2839 1.387 . S
H2841 C2853 0.930 . S
H2842 C2855 0.930 . S
H2843 C2856 0.930 . S
H2844 C2860 0.959 . S
H2845 C2860 0.959 . S
H2846 C2860 0.961 . S
H2847 C2861 0.960 . S
H2848 C2861 0.961 . S
H2849 C2861 0.959 . S
H2850 C2864 0.929 . S
H2851 C2865 0.931 . S
H2852 C2867 0.930 1_556 S
C2853 H2841 0.930 . S
C2853 C2854 1.399 . S
C2853 C2858 1.399 . S
C2854 C2853 1.399 . S
C2854 C2855 1.376 . S
C2855 H2842 0.930 . S
C2855 C2854 1.376 . S
C2855 C2856 1.388 . S
C2856 H2843 0.930 . S
C2856 C2855 1.388 . S
C2856 C2857 1.390 . S
C2857 C2856 1.390 . S
C2857 C2858 1.394 . S
C2857 C2863 1.465 . S
C2858 C2853 1.399 . S
C2858 C2857 1.394 . S
C2858 C2859 1.516 . S
C2859 C2858 1.516 . S
C2859 C2860 1.502 . S
C2859 C2861 1.561 . S
C2859 C2862 1.526 . S
C2860 H2844 0.959 . S
C2860 H2845 0.959 . S
C2860 H2846 0.961 . S
C2860 C2859 1.502 . S
C2861 H2847 0.960 . S
C2861 H2848 0.961 . S
C2861 H2849 0.959 . S
C2861 C2859 1.561 . S
C2862 C2859 1.526 . S
C2862 C2863 1.396 . S
C2862 C2867 1.390 . S
C2863 C2857 1.465 . S
C2863 C2862 1.396 . S
C2863 C2864 1.399 . S
C2864 H2850 0.929 . S
C2864 C2863 1.399 . S
C2864 C2865 1.385 . S
C2865 H2851 0.931 . S
C2865 C2864 1.385 . S
C2865 C2866 1.389 . S
C2866 C2865 1.389 . S
C2866 C2867 1.387 . S
C2867 H2852 0.930 1_554 S
C2867 C2862 1.390 . S
C2867 C2866 1.387 . S
H2868 C2880 0.930 . S
H2869 C2882 0.930 . S
H2870 C2883 0.930 . S
H2871 C2887 0.959 . S
H2872 C2887 0.959 . S
H2873 C2887 0.961 . S
H2874 C2888 0.960 . S
H2875 C2888 0.961 . S
H2876 C2888 0.959 . S
H2877 C2891 0.929 . S
H2878 C2892 0.931 . S
H2879 C2894 0.930 . S
C2880 H2868 0.930 . S
C2880 C2881 1.399 . S
C2880 C2885 1.399 . S
C2881 C2880 1.399 . S
C2881 C2882 1.376 . S
C2882 H2869 0.930 . S
C2882 C2881 1.376 . S
C2882 C2883 1.388 . S
C2883 H2870 0.930 . S
C2883 C2882 1.388 . S
C2883 C2884 1.390 . S
C2884 C2883 1.390 . S
C2884 C2885 1.394 . S
C2884 C2890 1.465 . S
C2885 C2880 1.399 . S
C2885 C2884 1.394 . S
C2885 C2886 1.516 . S
C2886 C2885 1.516 . S
C2886 C2887 1.502 . S
C2886 C2888 1.561 . S
C2886 C2889 1.526 . S
C2887 H2871 0.959 . S
C2887 H2872 0.959 . S
C2887 H2873 0.961 . S
C2887 C2886 1.502 . S
C2888 H2874 0.960 . S
C2888 H2875 0.961 . S
C2888 H2876 0.959 . S
C2888 C2886 1.561 . S
C2889 C2886 1.526 . S
C2889 C2890 1.396 . S
C2889 C2894 1.390 . S
C2890 C2884 1.465 . S
C2890 C2889 1.396 . S
C2890 C2891 1.399 . S
C2891 H2877 0.929 . S
C2891 C2890 1.399 . S
C2891 C2892 1.385 . S
C2892 H2878 0.931 . S
C2892 C2891 1.385 . S
C2892 C2893 1.389 . S
C2893 C2892 1.389 . S
C2893 C2894 1.387 . S
C2894 H2879 0.930 . S
C2894 C2889 1.390 . S
C2894 C2893 1.387 . S
H2895 C2907 0.930 . S
H2896 C2909 0.930 . S
H2897 C2910 0.930 . S
H2898 C2914 0.959 . S
H2899 C2914 0.959 . S
H2900 C2914 0.961 . S
H2901 C2915 0.960 . S
H2902 C2915 0.961 . S
H2903 C2915 0.959 . S
H2904 C2918 0.929 . S
H2905 C2919 0.931 . S
H2906 C2921 0.930 . S
C2907 H2895 0.930 . S
C2907 C2908 1.399 . S
C2907 C2912 1.399 . S
C2908 C2907 1.399 . S
C2908 C2909 1.376 . S
C2909 H2896 0.930 . S
C2909 C2908 1.376 . S
C2909 C2910 1.388 . S
C2910 H2897 0.930 . S
C2910 C2909 1.388 . S
C2910 C2911 1.390 . S
C2911 C2910 1.390 . S
C2911 C2912 1.394 . S
C2911 C2917 1.465 . S
C2912 C2907 1.399 . S
C2912 C2911 1.394 . S
C2912 C2913 1.516 . S
C2913 C2912 1.516 . S
C2913 C2914 1.502 . S
C2913 C2915 1.561 . S
C2913 C2916 1.526 . S
C2914 H2898 0.959 . S
C2914 H2899 0.959 . S
C2914 H2900 0.961 . S
C2914 C2913 1.502 . S
C2915 H2901 0.960 . S
C2915 H2902 0.961 . S
C2915 H2903 0.959 . S
C2915 C2913 1.561 . S
C2916 C2913 1.526 . S
C2916 C2917 1.396 . S
C2916 C2921 1.390 . S
C2917 C2911 1.465 . S
C2917 C2916 1.396 . S
C2917 C2918 1.399 . S
C2918 H2904 0.929 . S
C2918 C2917 1.399 . S
C2918 C2919 1.385 . S
C2919 H2905 0.931 . S
C2919 C2918 1.385 . S
C2919 C2920 1.389 . S
C2920 C2919 1.389 . S
C2920 C2921 1.387 . S
C2921 H2906 0.930 . S
C2921 C2916 1.390 . S
C2921 C2920 1.387 . S
H2922 C2934 0.930 . S
H2923 C2936 0.930 . S
H2924 C2937 0.930 . S
H2925 C2941 0.959 . S
H2926 C2941 0.959 . S
H2927 C2941 0.961 . S
H2928 C2942 0.960 . S
H2929 C2942 0.961 . S
H2930 C2942 0.959 . S
H2931 C2945 0.929 . S
H2932 C2946 0.931 . S
H2933 C2948 0.930 . S
C2934 H2922 0.930 . S
C2934 C2935 1.399 . S
C2934 C2939 1.399 . S
C2935 C2934 1.399 . S
C2935 C2936 1.376 . S
C2936 H2923 0.930 . S
C2936 C2935 1.376 . S
C2936 C2937 1.388 . S
C2937 H2924 0.930 . S
C2937 C2936 1.388 . S
C2937 C2938 1.390 . S
C2938 C2937 1.390 . S
C2938 C2939 1.394 . S
C2938 C2944 1.465 . S
C2939 C2934 1.399 . S
C2939 C2938 1.394 . S
C2939 C2940 1.516 . S
C2940 C2939 1.516 . S
C2940 C2941 1.502 . S
C2940 C2942 1.561 . S
C2940 C2943 1.526 . S
C2941 H2925 0.959 . S
C2941 H2926 0.959 . S
C2941 H2927 0.961 . S
C2941 C2940 1.502 . S
C2942 H2928 0.960 . S
C2942 H2929 0.961 . S
C2942 H2930 0.959 . S
C2942 C2940 1.561 . S
C2943 C2940 1.526 . S
C2943 C2944 1.396 . S
C2943 C2948 1.390 . S
C2944 C2938 1.465 . S
C2944 C2943 1.396 . S
C2944 C2945 1.399 . S
C2945 H2931 0.929 . S
C2945 C2944 1.399 . S
C2945 C2946 1.385 . S
C2946 H2932 0.931 . S
C2946 C2945 1.385 . S
C2946 C2947 1.389 . S
C2947 C2946 1.389 . S
C2947 C2948 1.387 . S
C2948 H2933 0.930 . S
C2948 C2943 1.390 . S
C2948 C2947 1.387 . S
H2949 C2961 0.930 . S
H2950 C2963 0.930 . S
H2951 C2964 0.930 . S
H2952 C2968 0.959 . S
H2953 C2968 0.959 . S
H2954 C2968 0.961 . S
H2955 C2969 0.960 . S
H2956 C2969 0.961 . S
H2957 C2969 0.959 . S
H2958 C2972 0.929 . S
H2959 C2973 0.931 . S
H2960 C2975 0.930 . S
C2961 H2949 0.930 . S
C2961 C2962 1.399 . S
C2961 C2966 1.399 . S
C2962 C2961 1.399 . S
C2962 C2963 1.376 . S
C2963 H2950 0.930 . S
C2963 C2962 1.376 . S
C2963 C2964 1.388 . S
C2964 H2951 0.930 . S
C2964 C2963 1.388 . S
C2964 C2965 1.390 . S
C2965 C2964 1.390 . S
C2965 C2966 1.394 . S
C2965 C2971 1.465 . S
C2966 C2961 1.399 . S
C2966 C2965 1.394 . S
C2966 C2967 1.516 . S
C2967 C2966 1.516 . S
C2967 C2968 1.502 . S
C2967 C2969 1.561 . S
C2967 C2970 1.526 . S
C2968 H2952 0.959 . S
C2968 H2953 0.959 . S
C2968 H2954 0.961 . S
C2968 C2967 1.502 . S
C2969 H2955 0.960 . S
C2969 H2956 0.961 . S
C2969 H2957 0.959 . S
C2969 C2967 1.561 . S
C2970 C2967 1.526 . S
C2970 C2971 1.396 . S
C2970 C2975 1.390 . S
C2971 C2965 1.465 . S
C2971 C2970 1.396 . S
C2971 C2972 1.399 . S
C2972 H2958 0.929 . S
C2972 C2971 1.399 . S
C2972 C2973 1.385 . S
C2973 H2959 0.931 . S
C2973 C2972 1.385 . S
C2973 C2974 1.389 . S
C2974 C2973 1.389 . S
C2974 C2975 1.387 . S
C2975 H2960 0.930 . S
C2975 C2970 1.390 . S
C2975 C2974 1.387 . S
H2976 C2988 0.930 . S
H2977 C2990 0.930 . S
H2978 C2991 0.930 . S
H2979 C2995 0.959 . S
H2980 C2995 0.959 . S
H2981 C2995 0.961 . S
H2982 C2996 0.960 . S
H2983 C2996 0.961 . S
H2984 C2996 0.959 . S
H2985 C2999 0.929 . S
H2986 C3000 0.931 . S
H2987 C3002 0.930 . S
C2988 H2976 0.930 . S
C2988 C2989 1.399 . S
C2988 C2993 1.399 . S
C2989 C2988 1.399 . S
C2989 C2990 1.376 . S
C2990 H2977 0.930 . S
C2990 C2989 1.376 . S
C2990 C2991 1.388 . S
C2991 H2978 0.930 . S
C2991 C2990 1.388 . S
C2991 C2992 1.390 . S
C2992 C2991 1.390 . S
C2992 C2993 1.394 . S
C2992 C2998 1.465 . S
C2993 C2988 1.399 . S
C2993 C2992 1.394 . S
C2993 C2994 1.516 . S
C2994 C2993 1.516 . S
C2994 C2995 1.502 . S
C2994 C2996 1.561 . S
C2994 C2997 1.526 . S
C2995 H2979 0.959 . S
C2995 H2980 0.959 . S
C2995 H2981 0.961 . S
C2995 C2994 1.502 . S
C2996 H2982 0.960 . S
C2996 H2983 0.961 . S
C2996 H2984 0.959 . S
C2996 C2994 1.561 . S
C2997 C2994 1.526 . S
C2997 C2998 1.396 . S
C2997 C3002 1.390 . S
C2998 C2992 1.465 . S
C2998 C2997 1.396 . S
C2998 C2999 1.399 . S
C2999 H2985 0.929 . S
C2999 C2998 1.399 . S
C2999 C3000 1.385 . S
C3000 H2986 0.931 . S
C3000 C2999 1.385 . S
C3000 C3001 1.389 . S
C3001 C3000 1.389 . S
C3001 C3002 1.387 . S
C3002 H2987 0.930 . S
C3002 C2997 1.390 . S
C3002 C3001 1.387 . S
H3003 C3015 0.930 . S
H3004 C3017 0.930 . S
H3005 C3018 0.930 . S
H3006 C3022 0.959 . S
H3007 C3022 0.959 . S
H3008 C3022 0.961 . S
H3009 C3023 0.960 . S
H3010 C3023 0.961 . S
H3011 C3023 0.959 . S
H3012 C3026 0.929 . S
H3013 C3027 0.931 . S
H3014 C3029 0.930 . S
C3015 H3003 0.930 . S
C3015 C3016 1.399 . S
C3015 C3020 1.399 . S
C3016 C3015 1.399 . S
C3016 C3017 1.376 . S
C3017 H3004 0.930 . S
C3017 C3016 1.376 . S
C3017 C3018 1.388 . S
C3018 H3005 0.930 . S
C3018 C3017 1.388 . S
C3018 C3019 1.390 . S
C3019 C3018 1.390 . S
C3019 C3020 1.394 . S
C3019 C3025 1.465 . S
C3020 C3015 1.399 . S
C3020 C3019 1.394 . S
C3020 C3021 1.516 . S
C3021 C3020 1.516 . S
C3021 C3022 1.502 . S
C3021 C3023 1.561 . S
C3021 C3024 1.526 . S
C3022 H3006 0.959 . S
C3022 H3007 0.959 . S
C3022 H3008 0.961 . S
C3022 C3021 1.502 . S
C3023 H3009 0.960 . S
C3023 H3010 0.961 . S
C3023 H3011 0.959 . S
C3023 C3021 1.561 . S
C3024 C3021 1.526 . S
C3024 C3025 1.396 . S
C3024 C3029 1.390 . S
C3025 C3019 1.465 . S
C3025 C3024 1.396 . S
C3025 C3026 1.399 . S
C3026 H3012 0.929 . S
C3026 C3025 1.399 . S
C3026 C3027 1.385 . S
C3027 H3013 0.931 . S
C3027 C3026 1.385 . S
C3027 C3028 1.389 . S
C3028 C3027 1.389 . S
C3028 C3029 1.387 . S
C3029 H3014 0.930 . S
C3029 C3024 1.390 . S
C3029 C3028 1.387 . S
H3030 C3042 0.930 . S
H3031 C3044 0.930 . S
H3032 C3045 0.930 . S
H3033 C3049 0.959 . S
H3034 C3049 0.959 . S
H3035 C3049 0.961 . S
H3036 C3050 0.960 . S
H3037 C3050 0.961 . S
H3038 C3050 0.959 . S
H3039 C3053 0.929 . S
H3040 C3054 0.931 . S
H3041 C3056 0.930 . S
C3042 H3030 0.930 . S
C3042 C3043 1.399 . S
C3042 C3047 1.399 . S
C3043 C3042 1.399 . S
C3043 C3044 1.376 . S
C3044 H3031 0.930 . S
C3044 C3043 1.376 . S
C3044 C3045 1.388 . S
C3045 H3032 0.930 . S
C3045 C3044 1.388 . S
C3045 C3046 1.390 . S
C3046 C3045 1.390 . S
C3046 C3047 1.394 . S
C3046 C3052 1.465 . S
C3047 C3042 1.399 . S
C3047 C3046 1.394 . S
C3047 C3048 1.516 . S
C3048 C3047 1.516 . S
C3048 C3049 1.502 . S
C3048 C3050 1.561 . S
C3048 C3051 1.526 . S
C3049 H3033 0.959 . S
C3049 H3034 0.959 . S
C3049 H3035 0.961 . S
C3049 C3048 1.502 . S
C3050 H3036 0.960 . S
C3050 H3037 0.961 . S
C3050 H3038 0.959 . S
C3050 C3048 1.561 . S
C3051 C3048 1.526 . S
C3051 C3052 1.396 . S
C3051 C3056 1.390 . S
C3052 C3046 1.465 . S
C3052 C3051 1.396 . S
C3052 C3053 1.399 . S
C3053 H3039 0.929 . S
C3053 C3052 1.399 . S
C3053 C3054 1.385 . S
C3054 H3040 0.931 . S
C3054 C3053 1.385 . S
C3054 C3055 1.389 . S
C3055 C3054 1.389 . S
C3055 C3056 1.387 . S
C3056 H3041 0.930 . S
C3056 C3051 1.390 . S
C3056 C3055 1.387 . S
H3057 C3069 0.938 . S
H3058 C3071 0.930 . S
H3059 C3072 0.930 . S
H3060 C3076 0.959 . S
H3061 C3076 0.959 . S
H3062 C3076 0.961 . S
H3063 C3077 0.960 . S
H3064 C3077 0.961 . S
H3065 C3077 0.959 . S
H3066 C3080 0.929 . S
H3067 C3081 0.931 . S
H3068 C3083 0.930 . S
C3069 H3057 0.938 . S
C3069 C3070 1.399 . S
C3069 C3074 1.399 . S
C3070 C3069 1.399 . S
C3070 C3071 1.376 . S
C3071 H3058 0.930 . S
C3071 C3070 1.376 . S
C3071 C3072 1.388 . S
C3072 H3059 0.930 . S
C3072 C3071 1.388 . S
C3072 C3073 1.390 . S
C3073 C3072 1.390 . S
C3073 C3074 1.394 . S
C3073 C3079 1.465 . S
C3074 C3069 1.399 . S
C3074 C3073 1.394 . S
C3074 C3075 1.516 . S
C3075 C3074 1.516 . S
C3075 C3076 1.502 . S
C3075 C3077 1.561 . S
C3075 C3078 1.526 . S
C3076 H3060 0.959 . S
C3076 H3061 0.959 . S
C3076 H3062 0.961 . S
C3076 C3075 1.502 . S
C3077 H3063 0.960 . S
C3077 H3064 0.961 . S
C3077 H3065 0.959 . S
C3077 C3075 1.561 . S
C3078 C3075 1.526 . S
C3078 C3079 1.396 . S
C3078 C3083 1.390 . S
C3079 C3073 1.465 . S
C3079 C3078 1.396 . S
C3079 C3080 1.399 . S
C3080 H3066 0.929 . S
C3080 C3079 1.399 . S
C3080 C3081 1.385 . S
C3081 H3067 0.931 . S
C3081 C3080 1.385 . S
C3081 C3082 1.389 . S
C3082 C3081 1.389 . S
C3082 C3083 1.387 . S
C3083 H3068 0.930 . S
C3083 C3078 1.390 . S
C3083 C3082 1.387 . S
H3084 C3096 0.930 . S
H3085 C3098 0.930 . S
H3086 C3099 0.930 . S
H3087 C3103 0.959 . S
H3088 C3103 0.959 . S
H3089 C3103 0.961 . S
H3090 C3104 0.960 . S
H3091 C3104 0.961 . S
H3092 C3104 0.959 . S
H3093 C3107 0.929 . S
H3094 C3108 0.931 . S
H3095 C3110 0.930 . S
C3096 H3084 0.930 . S
C3096 C3097 1.399 . S
C3096 C3101 1.399 . S
C3097 C3096 1.399 . S
C3097 C3098 1.376 . S
C3098 H3085 0.930 . S
C3098 C3097 1.376 . S
C3098 C3099 1.388 . S
C3099 H3086 0.930 . S
C3099 C3098 1.388 . S
C3099 C3100 1.390 . S
C3100 C3099 1.390 . S
C3100 C3101 1.394 . S
C3100 C3106 1.465 . S
C3101 C3096 1.399 . S
C3101 C3100 1.394 . S
C3101 C3102 1.516 . S
C3102 C3101 1.516 . S
C3102 C3103 1.502 . S
C3102 C3104 1.561 . S
C3102 C3105 1.526 . S
C3103 H3087 0.959 . S
C3103 H3088 0.959 . S
C3103 H3089 0.961 . S
C3103 C3102 1.502 . S
C3104 H3090 0.960 . S
C3104 H3091 0.961 . S
C3104 H3092 0.959 . S
C3104 C3102 1.561 . S
C3105 C3102 1.526 . S
C3105 C3106 1.396 . S
C3105 C3110 1.390 . S
C3106 C3100 1.465 . S
C3106 C3105 1.396 . S
C3106 C3107 1.399 . S
C3107 H3093 0.929 . S
C3107 C3106 1.399 . S
C3107 C3108 1.385 . S
C3108 H3094 0.931 . S
C3108 C3107 1.385 . S
C3108 C3109 1.389 . S
C3109 C3108 1.389 . S
C3109 C3110 1.387 . S
C3110 H3095 0.930 . S
C3110 C3105 1.390 . S
C3110 C3109 1.387 . S
H3111 C3123 0.930 . S
H3112 C3125 0.930 . S
H3113 C3126 0.930 . S
H3114 C3130 0.959 . S
H3115 C3130 0.959 . S
H3116 C3130 0.961 . S
H3117 C3131 0.960 . S
H3118 C3131 0.961 . S
H3119 C3131 0.959 . S
H3120 C3134 0.929 . S
H3121 C3135 0.931 . S
H3122 C3137 0.930 . S
C3123 H3111 0.930 . S
C3123 C3124 1.399 . S
C3123 C3128 1.399 . S
C3124 C3123 1.399 . S
C3124 C3125 1.376 . S
C3125 H3112 0.930 . S
C3125 C3124 1.376 . S
C3125 C3126 1.388 . S
C3126 H3113 0.930 . S
C3126 C3125 1.388 . S
C3126 C3127 1.390 . S
C3127 C3126 1.390 . S
C3127 C3128 1.394 . S
C3127 C3133 1.465 . S
C3128 C3123 1.399 . S
C3128 C3127 1.394 . S
C3128 C3129 1.516 . S
C3129 C3128 1.516 . S
C3129 C3130 1.502 . S
C3129 C3131 1.561 . S
C3129 C3132 1.526 . S
C3130 H3114 0.959 . S
C3130 H3115 0.959 . S
C3130 H3116 0.961 . S
C3130 C3129 1.502 . S
C3131 H3117 0.960 . S
C3131 H3118 0.961 . S
C3131 H3119 0.959 . S
C3131 C3129 1.561 . S
C3132 C3129 1.526 . S
C3132 C3133 1.396 . S
C3132 C3137 1.390 . S
C3133 C3127 1.465 . S
C3133 C3132 1.396 . S
C3133 C3134 1.399 . S
C3134 H3120 0.929 . S
C3134 C3133 1.399 . S
C3134 C3135 1.385 . S
C3135 H3121 0.931 . S
C3135 C3134 1.385 . S
C3135 C3136 1.389 . S
C3136 C3135 1.389 . S
C3136 C3137 1.387 . S
C3137 H3122 0.930 . S
C3137 C3132 1.390 . S
C3137 C3136 1.387 . S
H3138 C3150 0.930 . S
H3139 C3152 0.930 . S
H3140 C3153 0.930 . S
H3141 C3157 0.959 . S
H3142 C3157 0.959 . S
H3143 C3157 0.961 . S
H3144 C3158 0.960 . S
H3145 C3158 0.961 . S
H3146 C3158 0.959 . S
H3147 C3161 0.929 . S
H3148 C3162 0.931 . S
H3149 C3164 0.930 . S
C3150 H3138 0.930 . S
C3150 C3151 1.399 . S
C3150 C3155 1.399 . S
C3151 C3150 1.399 . S
C3151 C3152 1.376 . S
C3152 H3139 0.930 . S
C3152 C3151 1.376 . S
C3152 C3153 1.388 . S
C3153 H3140 0.930 . S
C3153 C3152 1.388 . S
C3153 C3154 1.390 . S
C3154 C3153 1.390 . S
C3154 C3155 1.394 . S
C3154 C3160 1.465 . S
C3155 C3150 1.399 . S
C3155 C3154 1.394 . S
C3155 C3156 1.516 . S
C3156 C3155 1.516 . S
C3156 C3157 1.502 . S
C3156 C3158 1.561 . S
C3156 C3159 1.526 . S
C3157 H3141 0.959 . S
C3157 H3142 0.959 . S
C3157 H3143 0.961 . S
C3157 C3156 1.502 . S
C3158 H3144 0.960 . S
C3158 H3145 0.961 . S
C3158 H3146 0.959 . S
C3158 C3156 1.561 . S
C3159 C3156 1.526 . S
C3159 C3160 1.396 . S
C3159 C3164 1.390 . S
C3160 C3154 1.465 . S
C3160 C3159 1.396 . S
C3160 C3161 1.399 . S
C3161 H3147 0.929 . S
C3161 C3160 1.399 . S
C3161 C3162 1.385 . S
C3162 H3148 0.931 . S
C3162 C3161 1.385 . S
C3162 C3163 1.389 . S
C3163 C3162 1.389 . S
C3163 C3164 1.387 . S
C3164 H3149 0.930 . S
C3164 C3159 1.390 . S
C3164 C3163 1.387 . S
H3165 C3177 0.930 . S
H3166 C3179 0.930 . S
H3167 C3180 0.930 . S
H3168 C3184 0.959 . S
H3169 C3184 0.959 . S
H3170 C3184 0.961 . S
H3171 C3185 0.960 . S
H3172 C3185 0.961 . S
H3173 C3185 0.959 . S
H3174 C3188 0.929 . S
H3175 C3189 0.931 . S
H3176 C3191 0.930 . S
C3177 H3165 0.930 . S
C3177 C3178 1.399 . S
C3177 C3182 1.399 . S
C3178 C3177 1.399 . S
C3178 C3179 1.376 . S
C3179 H3166 0.930 . S
C3179 C3178 1.376 . S
C3179 C3180 1.388 . S
C3180 H3167 0.930 . S
C3180 C3179 1.388 . S
C3180 C3181 1.390 . S
C3181 C3180 1.390 . S
C3181 C3182 1.394 . S
C3181 C3187 1.465 . S
C3182 C3177 1.399 . S
C3182 C3181 1.394 . S
C3182 C3183 1.516 . S
C3183 C3182 1.516 . S
C3183 C3184 1.502 . S
C3183 C3185 1.561 . S
C3183 C3186 1.526 . S
C3184 H3168 0.959 . S
C3184 H3169 0.959 . S
C3184 H3170 0.961 . S
C3184 C3183 1.502 . S
C3185 H3171 0.960 . S
C3185 H3172 0.961 . S
C3185 H3173 0.959 . S
C3185 C3183 1.561 . S
C3186 C3183 1.526 . S
C3186 C3187 1.396 . S
C3186 C3191 1.390 . S
C3187 C3181 1.465 . S
C3187 C3186 1.396 . S
C3187 C3188 1.399 . S
C3188 H3174 0.929 . S
C3188 C3187 1.399 . S
C3188 C3189 1.385 . S
C3189 H3175 0.931 . S
C3189 C3188 1.385 . S
C3189 C3190 1.389 . S
C3190 C3189 1.389 . S
C3190 C3191 1.387 . S
C3191 H3176 0.930 . S
C3191 C3186 1.390 . S
C3191 C3190 1.387 . S
H3192 C3204 0.930 . S
H3193 C3206 0.930 . S
H3194 C3207 0.930 . S
H3195 C3211 0.959 . S
H3196 C3211 0.959 . S
H3197 C3211 0.961 . S
H3198 C3212 0.960 . S
H3199 C3212 0.961 . S
H3200 C3212 0.959 . S
H3201 C3215 0.929 . S
H3202 C3216 0.931 . S
H3203 C3218 0.930 . S
C3204 H3192 0.930 . S
C3204 C3205 1.399 . S
C3204 C3209 1.399 . S
C3205 C3204 1.399 . S
C3205 C3206 1.376 . S
C3206 H3193 0.930 . S
C3206 C3205 1.376 . S
C3206 C3207 1.388 . S
C3207 H3194 0.930 . S
C3207 C3206 1.388 . S
C3207 C3208 1.390 . S
C3208 C3207 1.390 . S
C3208 C3209 1.394 . S
C3208 C3214 1.465 . S
C3209 C3204 1.399 . S
C3209 C3208 1.394 . S
C3209 C3210 1.516 . S
C3210 C3209 1.516 . S
C3210 C3211 1.502 . S
C3210 C3212 1.561 . S
C3210 C3213 1.526 . S
C3211 H3195 0.959 . S
C3211 H3196 0.959 . S
C3211 H3197 0.961 . S
C3211 C3210 1.502 . S
C3212 H3198 0.960 . S
C3212 H3199 0.961 . S
C3212 H3200 0.959 . S
C3212 C3210 1.561 . S
C3213 C3210 1.526 . S
C3213 C3214 1.396 . S
C3213 C3218 1.390 . S
C3214 C3208 1.465 . S
C3214 C3213 1.396 . S
C3214 C3215 1.399 . S
C3215 H3201 0.929 . S
C3215 C3214 1.399 . S
C3215 C3216 1.385 . S
C3216 H3202 0.931 . S
C3216 C3215 1.385 . S
C3216 C3217 1.389 . S
C3217 C3216 1.389 . S
C3217 C3218 1.387 . S
C3218 H3203 0.930 . S
C3218 C3213 1.390 . S
C3218 C3217 1.387 . S
H3219 C3231 0.930 . S
H3220 C3233 0.930 . S
H3221 C3234 0.930 . S
H3222 C3238 0.959 . S
H3223 C3238 0.959 . S
H3224 C3238 0.961 . S
H3225 C3239 0.960 . S
H3226 C3239 0.961 . S
H3227 C3239 0.959 . S
H3228 C3242 0.929 . S
H3229 C3243 0.931 . S
H3230 C3245 0.930 . S
C3231 H3219 0.930 . S
C3231 C3232 1.399 . S
C3231 C3236 1.399 . S
C3232 C3231 1.399 . S
C3232 C3233 1.376 . S
C3233 H3220 0.930 . S
C3233 C3232 1.376 . S
C3233 C3234 1.388 . S
C3234 H3221 0.930 . S
C3234 C3233 1.388 . S
C3234 C3235 1.390 . S
C3235 C3234 1.390 . S
C3235 C3236 1.394 . S
C3235 C3241 1.465 . S
C3236 C3231 1.399 . S
C3236 C3235 1.394 . S
C3236 C3237 1.516 . S
C3237 C3236 1.516 . S
C3237 C3238 1.502 . S
C3237 C3239 1.561 . S
C3237 C3240 1.526 . S
C3238 H3222 0.959 . S
C3238 H3223 0.959 . S
C3238 H3224 0.961 . S
C3238 C3237 1.502 . S
C3239 H3225 0.960 . S
C3239 H3226 0.961 . S
C3239 H3227 0.959 . S
C3239 C3237 1.561 . S
C3240 C3237 1.526 . S
C3240 C3241 1.396 . S
C3240 C3245 1.390 . S
C3241 C3235 1.465 . S
C3241 C3240 1.396 . S
C3241 C3242 1.399 . S
C3242 H3228 0.929 . S
C3242 C3241 1.399 . S
C3242 C3243 1.385 . S
C3243 H3229 0.931 . S
C3243 C3242 1.385 . S
C3243 C3244 1.389 . S
C3244 C3243 1.389 . S
C3244 C3245 1.387 . S
C3245 H3230 0.930 . S
C3245 C3240 1.390 . S
C3245 C3244 1.387 . S
H3246 C3258 0.930 . S
H3247 C3260 0.930 . S
H3248 C3261 0.930 . S
H3249 C3265 0.959 . S
H3250 C3265 0.959 . S
H3251 C3265 0.961 . S
H3252 C3266 0.960 . S
H3253 C3266 0.961 . S
H3254 C3266 0.959 . S
H3255 C3269 0.929 . S
H3256 C3270 0.931 . S
H3257 C3272 0.930 . S
C3258 H3246 0.930 . S
C3258 C3259 1.399 . S
C3258 C3263 1.399 . S
C3259 C3258 1.399 . S
C3259 C3260 1.376 . S
C3260 H3247 0.930 . S
C3260 C3259 1.376 . S
C3260 C3261 1.388 . S
C3261 H3248 0.930 . S
C3261 C3260 1.388 . S
C3261 C3262 1.390 . S
C3262 C3261 1.390 . S
C3262 C3263 1.394 . S
C3262 C3268 1.465 . S
C3263 C3258 1.399 . S
C3263 C3262 1.394 . S
C3263 C3264 1.516 . S
C3264 C3263 1.516 . S
C3264 C3265 1.502 . S
C3264 C3266 1.561 . S
C3264 C3267 1.526 . S
C3265 H3249 0.959 . S
C3265 H3250 0.959 . S
C3265 H3251 0.961 . S
C3265 C3264 1.502 . S
C3266 H3252 0.960 . S
C3266 H3253 0.961 . S
C3266 H3254 0.959 . S
C3266 C3264 1.561 . S
C3267 C3264 1.526 . S
C3267 C3268 1.396 . S
C3267 C3272 1.390 . S
C3268 C3262 1.465 . S
C3268 C3267 1.396 . S
C3268 C3269 1.399 . S
C3269 H3255 0.929 . S
C3269 C3268 1.399 . S
C3269 C3270 1.385 . S
C3270 H3256 0.931 . S
C3270 C3269 1.385 . S
C3270 C3271 1.389 . S
C3271 C3270 1.389 . S
C3271 C3272 1.387 . S
C3272 H3257 0.930 . S
C3272 C3267 1.390 . S
C3272 C3271 1.387 . S
H3273 C3285 0.930 . S
H3274 C3287 0.930 . S
H3275 C3288 0.930 . S
H3276 C3292 0.959 . S
H3277 C3292 0.959 . S
H3278 C3292 0.961 . S
H3279 C3293 0.960 . S
H3280 C3293 0.961 . S
H3281 C3293 0.959 . S
H3282 C3296 0.929 . S
H3283 C3297 0.931 . S
H3284 C3299 0.930 . S
C3285 H3273 0.930 . S
C3285 C3286 1.399 . S
C3285 C3290 1.399 . S
C3286 C3285 1.399 . S
C3286 C3287 1.376 . S
C3287 H3274 0.930 . S
C3287 C3286 1.376 . S
C3287 C3288 1.388 . S
C3288 H3275 0.930 . S
C3288 C3287 1.388 . S
C3288 C3289 1.390 . S
C3289 C3288 1.390 . S
C3289 C3290 1.394 . S
C3289 C3295 1.465 . S
C3290 C3285 1.399 . S
C3290 C3289 1.394 . S
C3290 C3291 1.516 . S
C3291 C3290 1.516 . S
C3291 C3292 1.502 . S
C3291 C3293 1.561 . S
C3291 C3294 1.526 . S
C3292 H3276 0.959 . S
C3292 H3277 0.959 . S
C3292 H3278 0.961 . S
C3292 C3291 1.502 . S
C3293 H3279 0.960 . S
C3293 H3280 0.961 . S
C3293 H3281 0.959 . S
C3293 C3291 1.561 . S
C3294 C3291 1.526 . S
C3294 C3295 1.396 . S
C3294 C3299 1.390 . S
C3295 C3289 1.465 . S
C3295 C3294 1.396 . S
C3295 C3296 1.399 . S
C3296 H3282 0.929 . S
C3296 C3295 1.399 . S
C3296 C3297 1.385 . S
C3297 H3283 0.931 . S
C3297 C3296 1.385 . S
C3297 C3298 1.389 . S
C3298 C3297 1.389 . S
C3298 C3299 1.387 . S
C3299 H3284 0.930 . S
C3299 C3294 1.390 . S
C3299 C3298 1.387 . S
H3300 C3312 0.930 . S
H3301 C3314 0.930 . S
H3302 C3315 0.930 . S
H3303 C3319 0.959 . S
H3304 C3319 0.959 . S
H3305 C3319 0.961 . S
H3306 C3320 0.960 . S
H3307 C3320 0.961 . S
H3308 C3320 0.959 . S
H3309 C3323 0.929 . S
H3310 C3324 0.931 . S
H3311 C3326 0.930 . S
C3312 H3300 0.930 . S
C3312 C3313 1.399 . S
C3312 C3317 1.399 . S
C3313 C3312 1.399 . S
C3313 C3314 1.376 . S
C3314 H3301 0.930 . S
C3314 C3313 1.376 . S
C3314 C3315 1.388 . S
C3315 H3302 0.930 . S
C3315 C3314 1.388 . S
C3315 C3316 1.390 . S
C3316 C3315 1.390 . S
C3316 C3317 1.394 . S
C3316 C3322 1.465 . S
C3317 C3312 1.399 . S
C3317 C3316 1.394 . S
C3317 C3318 1.516 . S
C3318 C3317 1.516 . S
C3318 C3319 1.502 . S
C3318 C3320 1.561 . S
C3318 C3321 1.526 . S
C3319 H3303 0.959 . S
C3319 H3304 0.959 . S
C3319 H3305 0.961 . S
C3319 C3318 1.502 . S
C3320 H3306 0.960 . S
C3320 H3307 0.961 . S
C3320 H3308 0.959 . S
C3320 C3318 1.561 . S
C3321 C3318 1.526 . S
C3321 C3322 1.396 . S
C3321 C3326 1.390 . S
C3322 C3316 1.465 . S
C3322 C3321 1.396 . S
C3322 C3323 1.399 . S
C3323 H3309 0.929 . S
C3323 C3322 1.399 . S
C3323 C3324 1.385 . S
C3324 H3310 0.931 . S
C3324 C3323 1.385 . S
C3324 C3325 1.389 . S
C3325 C3324 1.389 . S
C3325 C3326 1.387 . S
C3326 H3311 0.930 . S
C3326 C3321 1.390 . S
C3326 C3325 1.387 . S
H3327 C3339 0.930 . S
H3328 C3341 0.930 . S
H3329 C3342 0.930 . S
H3330 C3346 0.959 . S
H3331 C3346 0.959 . S
H3332 C3346 0.961 . S
H3333 C3347 0.960 . S
H3334 C3347 0.961 . S
H3335 C3347 0.959 . S
H3336 C3350 0.929 . S
H3337 C3351 0.931 . S
H3338 C3353 0.930 . S
C3339 H3327 0.930 . S
C3339 C3340 1.399 . S
C3339 C3344 1.399 . S
C3340 C3339 1.399 . S
C3340 C3341 1.376 . S
C3341 H3328 0.930 . S
C3341 C3340 1.376 . S
C3341 C3342 1.388 . S
C3342 H3329 0.930 . S
C3342 C3341 1.388 . S
C3342 C3343 1.390 . S
C3343 C3342 1.390 . S
C3343 C3344 1.394 . S
C3343 C3349 1.465 . S
C3344 C3339 1.399 . S
C3344 C3343 1.394 . S
C3344 C3345 1.516 . S
C3345 C3344 1.516 . S
C3345 C3346 1.502 . S
C3345 C3347 1.561 . S
C3345 C3348 1.526 . S
C3346 H3330 0.959 . S
C3346 H3331 0.959 . S
C3346 H3332 0.961 . S
C3346 C3345 1.502 . S
C3347 H3333 0.960 . S
C3347 H3334 0.961 . S
C3347 H3335 0.959 . S
C3347 C3345 1.561 . S
C3348 C3345 1.526 . S
C3348 C3349 1.396 . S
C3348 C3353 1.390 . S
C3349 C3343 1.465 . S
C3349 C3348 1.396 . S
C3349 C3350 1.399 . S
C3350 H3336 0.929 . S
C3350 C3349 1.399 . S
C3350 C3351 1.385 . S
C3351 H3337 0.931 . S
C3351 C3350 1.385 . S
C3351 C3352 1.389 . S
C3352 C3351 1.389 . S
C3352 C3353 1.387 . S
C3353 H3338 0.930 . S
C3353 C3348 1.390 . S
C3353 C3352 1.387 . S
H3354 C3366 0.930 . S
H3355 C3368 0.930 . S
H3356 C3369 0.930 . S
H3357 C3373 0.959 . S
H3358 C3373 0.959 . S
H3359 C3373 0.961 . S
H3360 C3374 0.960 . S
H3361 C3374 0.961 . S
H3362 C3374 0.959 . S
H3363 C3377 0.929 . S
H3364 C3378 0.931 . S
H3365 C3380 0.930 . S
C3366 H3354 0.930 . S
C3366 C3367 1.399 . S
C3366 C3371 1.399 . S
C3367 C3366 1.399 . S
C3367 C3368 1.376 . S
C3368 H3355 0.930 . S
C3368 C3367 1.376 . S
C3368 C3369 1.388 . S
C3369 H3356 0.930 . S
C3369 C3368 1.388 . S
C3369 C3370 1.390 . S
C3370 C3369 1.390 . S
C3370 C3371 1.394 . S
C3370 C3376 1.465 . S
C3371 C3366 1.399 . S
C3371 C3370 1.394 . S
C3371 C3372 1.516 . S
C3372 C3371 1.516 . S
C3372 C3373 1.502 . S
C3372 C3374 1.561 . S
C3372 C3375 1.526 . S
C3373 H3357 0.959 . S
C3373 H3358 0.959 . S
C3373 H3359 0.961 . S
C3373 C3372 1.502 . S
C3374 H3360 0.960 . S
C3374 H3361 0.961 . S
C3374 H3362 0.959 . S
C3374 C3372 1.561 . S
C3375 C3372 1.526 . S
C3375 C3376 1.396 . S
C3375 C3380 1.390 . S
C3376 C3370 1.465 . S
C3376 C3375 1.396 . S
C3376 C3377 1.399 . S
C3377 H3363 0.929 . S
C3377 C3376 1.399 . S
C3377 C3378 1.385 . S
C3378 H3364 0.931 . S
C3378 C3377 1.385 . S
C3378 C3379 1.389 . S
C3379 C3378 1.389 . S
C3379 C3380 1.387 . S
C3380 H3365 0.930 . S
C3380 C3375 1.390 . S
C3380 C3379 1.387 . S
H3381 C3393 0.930 . S
H3382 C3395 0.930 . S
H3383 C3396 0.930 . S
H3384 C3400 0.959 . S
H3385 C3400 0.959 . S
H3386 C3400 0.961 . S
H3387 C3401 0.960 . S
H3388 C3401 0.961 . S
H3389 C3401 0.959 . S
H3390 C3404 0.929 . S
H3391 C3405 0.931 . S
H3392 C3407 0.930 . S
C3393 H3381 0.930 . S
C3393 C3394 1.399 . S
C3393 C3398 1.399 . S
C3394 C3393 1.399 . S
C3394 C3395 1.376 . S
C3395 H3382 0.930 . S
C3395 C3394 1.376 . S
C3395 C3396 1.388 . S
C3396 H3383 0.930 . S
C3396 C3395 1.388 . S
C3396 C3397 1.390 . S
C3397 C3396 1.390 . S
C3397 C3398 1.394 . S
C3397 C3403 1.465 . S
C3398 C3393 1.399 . S
C3398 C3397 1.394 . S
C3398 C3399 1.516 . S
C3399 C3398 1.516 . S
C3399 C3400 1.502 . S
C3399 C3401 1.561 . S
C3399 C3402 1.526 . S
C3400 H3384 0.959 . S
C3400 H3385 0.959 . S
C3400 H3386 0.961 . S
C3400 C3399 1.502 . S
C3401 H3387 0.960 . S
C3401 H3388 0.961 . S
C3401 H3389 0.959 . S
C3401 C3399 1.561 . S
C3402 C3399 1.526 . S
C3402 C3403 1.396 . S
C3402 C3407 1.390 . S
C3403 C3397 1.465 . S
C3403 C3402 1.396 . S
C3403 C3404 1.399 . S
C3404 H3390 0.929 . S
C3404 C3403 1.399 . S
C3404 C3405 1.385 . S
C3405 H3391 0.931 . S
C3405 C3404 1.385 . S
C3405 C3406 1.389 . S
C3406 C3405 1.389 . S
C3406 C3407 1.387 . S
C3407 H3392 0.930 . S
C3407 C3402 1.390 . S
C3407 C3406 1.387 . S
C2125 C849 1.299 . S
C2137 C57 1.225 . S
C2152 C117 1.366 1_455 S
C2164 C900 1.441 . S
C2179 C225 1.196 . S
C2191 C988 1.290 1_556 S
C2206 C293 1.444 . S
C2218 C753 1.329 . S
C2233 C381 1.188 . S
C2245 C1349 1.302 . S
C2260 C1085 1.352 . S
C2272 C497 1.454 1_655 S
C2287 C548 1.304 . S
C2299 C1193 1.219 1_554 S
C2314 C1281 1.338 . S
C2326 C665 1.459 . S
C2341 C1465 1.359 . S
C2353 C1604 1.444 . S
C2368 C1985 1.425 1_545 S
C2380 C1516 1.352 . S
C2395 C1692 1.362 . S
C2407 C2073 1.443 1_565 S
C2422 C1897 1.373 . S
C2434 C1780 1.394 . S
C2449 C1817 1.635 . S
C2461 C20 1.638 . S
C2476 C108 1.629 . S
C2488 C1525 1.640 . S
C2503 C205 1.618 . S
C2515 C1641 1.620 . S
C2530 C284 1.655 . S
C2542 C1701 1.643 . S
C2557 C401 1.653 . S
C2569 C2053 1.653 . S
C2584 C1905 1.644 . S
C2596 C489 1.632 . S
C2611 C1965 1.636 . S
C2623 C585 1.639 . S
C2638 C1457 1.652 . S
C2650 C673 1.639 . S
C2665 C1369 1.618 . S
C2677 C733 1.621 . S
C2692 C812 1.634 . S
C2704 C1105 1.632 . S
C2719 C1173 1.650 . S
C2731 C937 1.652 . S
C2746 C1261 1.638 . S
C2758 C1025 1.641 . S
C2773 C49 0.924 . S
C2785 C1428 0.925 . S
C2800 C2044 1.023 . S
C2812 C145 1.019 . S
C2827 C1877 0.919 . S
C2839 C233 0.856 . S
C2854 C321 0.905 . S
C2866 C1956 1.024 . S
C2881 C372 0.796 . S
C2893 C1553 0.912 . S
C2908 C1633 1.017 . S
C2920 C469 0.839 . S
C2935 C1729 0.917 . S
C2947 C557 0.836 . S
C2962 C1809 1.016 . S
C2974 C636 0.958 . S
C2989 C29 0.987 . S
C3001 C761 0.991 . S
C3016 C137 0.916 . S
C3028 C841 0.839 . S
C3043 C196 0.992 . S
C3055 C909 0.909 . S
C3070 C313 0.911 . S
C3082 C997 0.784 . S
C3097 C409 0.982 . S
C3109 C1076 0.807 . S
C3124 C460 0.919 . S
C3136 C1201 0.874 . S
C3151 C1289 0.880 . S
C3163 C577 0.981 . S
C3178 C645 0.926 . S
C3190 C1340 0.939 . S
C3205 C724 1.019 . S
C3217 C1437 1.016 . S
C3232 C1545 0.985 . S
C3244 C1113 1.017 . S
C3259 C1164 0.991 . S
C3271 C1613 0.991 . S
C3286 C1721 0.876 . S
C3298 C1252 1.023 . S
C3313 C1789 0.816 . S
C3325 C1377 0.986 . S
C3340 C1868 0.938 . S
C3352 C929 1.015 . S
C3367 C1017 0.986 . S
C3379 C1993 0.979 . S
C3394 C2081 0.800 . S
C3406 C821 0.983 . S
