# Generated by pormake.
# Topology xfu, (5)-cn, num edge types: 1
# Building blocks:
#     Node 0, Type 0, BuildingBlock: XOMCOT_clean_sbu_0, # of connection points: 5
#     Node 1, Type 0, BuildingBlock: XOMCOT_clean_sbu_0, # of connection points: 5
#     Node 2, Type 0, BuildingBlock: XOMCOT_clean_sbu_0, # of connection points: 5
#     Node 3, Type 0, BuildingBlock: XOMCOT_clean_sbu_0, # of connection points: 5
#     Node 4, Type 0, BuildingBlock: XOMCOT_clean_sbu_0, # of connection points: 5
#     Node 5, Type 0, BuildingBlock: XOMCOT_clean_sbu_0, # of connection points: 5
#     Node 6, Type 0, BuildingBlock: XOMCOT_clean_sbu_0, # of connection points: 5
#     Node 7, Type 0, BuildingBlock: XOMCOT_clean_sbu_0, # of connection points: 5
#     Edge 8, Type (0, 0), BuildingBlock: ZUJKAS_clean_linker_0, # of connection points: 2
#     Edge 9, Type (0, 0), BuildingBlock: ZUJKAS_clean_linker_0, # of connection points: 2
#     Edge 10, Type (0, 0), BuildingBlock: ZUJKAS_clean_linker_0, # of connection points: 2
#     Edge 11, Type (0, 0), BuildingBlock: ZUJKAS_clean_linker_0, # of connection points: 2
#     Edge 12, Type (0, 0), BuildingBlock: ZUJKAS_clean_linker_0, # of connection points: 2
#     Edge 13, Type (0, 0), BuildingBlock: ZUJKAS_clean_linker_0, # of connection points: 2
#     Edge 14, Type (0, 0), BuildingBlock: ZUJKAS_clean_linker_0, # of connection points: 2
#     Edge 15, Type (0, 0), BuildingBlock: ZUJKAS_clean_linker_0, # of connection points: 2
#     Edge 16, Type (0, 0), BuildingBlock: ZUJKAS_clean_linker_0, # of connection points: 2
#     Edge 17, Type (0, 0), BuildingBlock: ZUJKAS_clean_linker_0, # of connection points: 2
#     Edge 18, Type (0, 0), BuildingBlock: ZUJKAS_clean_linker_0, # of connection points: 2
#     Edge 19, Type (0, 0), BuildingBlock: ZUJKAS_clean_linker_0, # of connection points: 2
#     Edge 20, Type (0, 0), BuildingBlock: ZUJKAS_clean_linker_0, # of connection points: 2
#     Edge 21, Type (0, 0), BuildingBlock: ZUJKAS_clean_linker_0, # of connection points: 2
#     Edge 22, Type (0, 0), BuildingBlock: ZUJKAS_clean_linker_0, # of connection points: 2
#     Edge 23, Type (0, 0), BuildingBlock: ZUJKAS_clean_linker_0, # of connection points: 2
#     Edge 24, Type (0, 0), BuildingBlock: ZUJKAS_clean_linker_0, # of connection points: 2
#     Edge 25, Type (0, 0), BuildingBlock: ZUJKAS_clean_linker_0, # of connection points: 2
#     Edge 26, Type (0, 0), BuildingBlock: ZUJKAS_clean_linker_0, # of connection points: 2
#     Edge 27, Type (0, 0), BuildingBlock: ZUJKAS_clean_linker_0, # of connection points: 2
# Relax obj value: 0.392
# Max RMSD: 0.265
# Mean RMSD: 0.265
data_MOF--net-xfu--node1-XOMCOT_clean_sbu_0--edge1-ZUJKAS_clean_linker_0
_symmetry_space_group_name_H-M    P1
_symmetry_Int_Tables_number       1
_symmetry_cell_setting            triclinic
loop_
_symmetry_equiv_pos_as_xyz
'x, y, z'
_cell_length_a     37.639841
_cell_length_b     37.65476
_cell_length_c     62.63833
_cell_angle_alpha  89.980612
_cell_angle_beta   90.018834
_cell_angle_gamma 89.958682
loop_
_atom_site_label
_atom_site_type_symbol
_atom_site_fract_x
_atom_site_fract_y
_atom_site_fract_z
_atom_type_partial_charge
Co0 Co 0.11273 0.24811 0.61701 0.0
C1 C 0.089 0.18908 0.58887 0.0
C2 C 0.11324 0.1702 0.61759 0.0
C3 C 0.10652 0.14155 0.60465 0.0
N4 N 0.10128 0.20005 0.60803 0.0
N5 N 0.09144 0.15352 0.58654 0.0
H6 H 0.08085 0.20665 0.57623 0.0
H7 H 0.12821 0.1694 0.63231 0.0
C8 C 0.08936 0.21341 0.6578 0.0
O9 O 0.06136 0.2006 0.64791 0.0
N10 N 0.12567 0.29528 0.62611 0.0
C11 C 0.11768 0.32652 0.61675 0.0
C12 C 0.12972 0.35366 0.62972 0.0
C13 C 0.14255 0.30364 0.64436 0.0
N14 N 0.14499 0.33904 0.64712 0.0
C15 C 0.04371 0.26234 0.59954 0.0
C16 C 0.01347 0.28677 0.63695 0.0
C17 C 0.99243 0.28426 0.61857 0.0
C18 C 0.00814 0.27253 0.59958 0.0
C19 C 0.04895 0.2762 0.63617 0.0
N20 N 0.06313 0.26226 0.61791 0.0
H21 H 0.05579 0.25568 0.58453 0.0
H22 H 0.06507 0.27954 0.65029 0.0
H23 H 0.10311 0.32934 0.60196 0.0
H24 H 0.15248 0.28423 0.65558 0.0
O25 O 0.12338 0.26072 0.58783 0.0
O26 O 0.1617 0.2379 0.61107 0.0
O27 O 0.11185 0.23256 0.64777 0.0
C28 C 0.15536 0.24941 0.59183 0.0
H29 H 0.11449 0.11439 0.60769 0.0
H30 H 0.1261 0.38183 0.62705 0.0
H31 H 0.00257 0.29647 0.65185 0.0
H32 H 0.99326 0.2719 0.58478 0.0
Co33 Co 0.85309 0.61219 0.1127 0.0
C34 C 0.916 0.58547 0.0902 0.0
C35 C 0.93041 0.61734 0.1173 0.0
C36 C 0.96097 0.60745 0.10677 0.0
N37 N 0.90241 0.60353 0.10683 0.0
N38 N 0.95177 0.58746 0.08975 0.0
H39 H 0.89992 0.57255 0.07817 0.0
H40 H 0.92866 0.63431 0.13118 0.0
C41 C 0.84549 0.60001 0.15961 0.0
O42 O 0.81646 0.58175 0.15568 0.0
N43 N 0.80348 0.62247 0.11887 0.0
C44 C 0.77321 0.60936 0.11041 0.0
C45 C 0.74468 0.62375 0.12114 0.0
C46 C 0.79269 0.64587 0.13382 0.0
N47 N 0.75704 0.64638 0.13607 0.0
C48 C 0.82622 0.54643 0.0964 0.0
C49 C 0.85716 0.50317 0.1268 0.0
C50 C 0.83461 0.48808 0.11151 0.0
C51 C 0.81975 0.51004 0.09584 0.0
C52 C 0.86276 0.53976 0.12678 0.0
N53 N 0.84532 0.56121 0.11262 0.0
H54 H 0.81622 0.56263 0.08354 0.0
H55 H 0.88144 0.55066 0.13807 0.0
H56 H 0.77122 0.59052 0.09758 0.0
H57 H 0.8109 0.66142 0.14335 0.0
O58 O 0.84491 0.62184 0.08281 0.0
O59 O 0.86035 0.66183 0.10713 0.0
O60 O 0.86387 0.61279 0.14425 0.0
C61 C 0.85257 0.65465 0.08734 0.0
H62 H 0.9878 0.61487 0.11109 0.0
H63 H 0.71708 0.61684 0.11868 0.0
H64 H 0.87009 0.48697 0.1388 0.0
H65 H 0.80371 0.49911 0.08307 0.0
Co66 Co 0.49296 0.34893 0.61661 0.0
C67 C 0.50905 0.40903 0.58837 0.0
C68 C 0.47802 0.42534 0.61542 0.0
C69 C 0.48323 0.45433 0.6024 0.0
N70 N 0.49428 0.39713 0.60657 0.0
N71 N 0.50267 0.44396 0.58538 0.0
H72 H 0.52298 0.39209 0.57721 0.0
H73 H 0.46274 0.42471 0.63003 0.0
C74 C 0.508 0.35461 0.66321 0.0
O75 O 0.53041 0.32804 0.66113 0.0
N76 N 0.48985 0.30038 0.62709 0.0
C77 C 0.50548 0.27006 0.62043 0.0
C78 C 0.49514 0.24268 0.63369 0.0
C79 C 0.46899 0.2905 0.64356 0.0
N80 N 0.47253 0.25579 0.6484 0.0
C81 C 0.56224 0.32761 0.60223 0.0
C82 C 0.59991 0.3735 0.62814 0.0
C83 C 0.61854 0.34949 0.61528 0.0
C84 C 0.59929 0.32697 0.60175 0.0
C85 C 0.56294 0.37322 0.62807 0.0
N86 N 0.54456 0.34868 0.61639 0.0
H87 H 0.54785 0.31162 0.5909 0.0
H88 H 0.54914 0.39311 0.6373 0.0
H89 H 0.5231 0.2673 0.60702 0.0
H90 H 0.45201 0.30875 0.65215 0.0
O91 O 0.4843 0.33265 0.58783 0.0
O92 O 0.44277 0.34789 0.6113 0.0
O93 O 0.49143 0.36675 0.64694 0.0
C94 C 0.45079 0.33704 0.59216 0.0
H95 H 0.47317 0.48085 0.60517 0.0
H96 H 0.50453 0.21554 0.63297 0.0
H97 H 0.61378 0.39265 0.63799 0.0
H98 H 0.61263 0.30875 0.59104 0.0
Co99 Co 0.75045 0.98984 0.11352 0.0
C100 C 0.68871 0.01412 0.08877 0.0
C101 C 0.67311 0.98153 0.11532 0.0
C102 C 0.64321 0.99028 0.1038 0.0
N103 N 0.70146 -0.00347 0.10584 0.0
N104 N 0.65314 0.0107 0.08713 0.0
H105 H 0.70535 0.02784 0.07735 0.0
H106 H 0.67424 0.96459 0.12925 0.0
C107 C 0.74965 0.00525 0.16045 0.0
O108 O 0.7767 0.02681 0.15761 0.0
N109 N 0.79989 0.98132 0.12135 0.0
C110 C 0.82964 0.98574 0.10956 0.0
C111 C 0.85844 0.97311 0.12086 0.0
C112 C 0.81102 0.96394 0.13898 0.0
N113 N 0.84657 0.95976 0.13947 0.0
C114 C 0.78095 0.05657 0.10112 0.0
C115 C 0.73748 0.09853 0.1262 0.0
C116 C 0.76462 0.11451 0.11432 0.0
C117 C 0.78605 0.09317 0.10133 0.0
C118 C 0.73347 0.06174 0.12559 0.0
N119 N 0.75637 0.04105 0.11407 0.0
H120 H 0.79615 0.04095 0.09008 0.0
H121 H 0.71198 0.04984 0.1345 0.0
H122 H 0.83067 0.99567 0.09342 0.0
H123 H 0.79338 0.95314 0.15093 0.0
O124 O 0.76187 0.98134 0.08393 0.0
O125 O 0.74578 0.94011 0.1074 0.0
O126 O 0.73614 0.98871 0.14457 0.0
C127 C 0.75512 0.94813 0.08796 0.0
H128 H 0.61634 0.98184 0.10726 0.0
H129 H 0.88588 0.97357 0.11571 0.0
H130 H 0.71983 0.1142 0.13609 0.0
H131 H 0.80615 0.10475 0.0911 0.0
Co132 Co 0.98489 0.84473 0.38065 0.0
C133 C 0.00963 0.90785 0.40364 0.0
C134 C 0.98134 0.92206 0.37511 0.0
C135 C 0.99041 0.9527 0.38578 0.0
N136 N 0.99344 0.89411 0.38638 0.0
N137 N 0.00808 0.94366 0.40375 0.0
H138 H 0.02072 0.89183 0.41635 0.0
H139 H 0.96599 0.92029 0.36056 0.0
C140 C -0.00311 0.83838 0.33344 0.0
O141 O 0.01608 0.80976 0.33685 0.0
N142 N 0.97484 0.79505 0.37468 0.0
C143 C 0.98583 0.76524 0.38472 0.0
C144 C 0.97157 0.73618 0.37449 0.0
C145 C 0.95252 0.78357 0.35931 0.0
N146 N 0.95079 0.74783 0.35844 0.0
C147 C 0.05103 0.81741 0.39631 0.0
C148 C 0.09373 0.84901 0.36592 0.0
C149 C 0.10906 0.8258 0.38077 0.0
C150 C 0.08741 0.81063 0.39646 0.0
C151 C 0.05715 0.85487 0.36632 0.0
N152 N 0.03594 0.83708 0.38043 0.0
H153 H 0.03518 0.80741 0.40929 0.0
H154 H 0.04603 0.87392 0.35532 0.0
H155 H 0.00248 0.76399 0.39865 0.0
H156 H 0.93878 0.80113 0.3484 0.0
O157 O 0.97573 0.83658 0.41061 0.0
O158 O 0.93533 0.85186 0.38646 0.0
O159 O 0.9836 0.85557 0.34912 0.0
C160 C 0.94282 0.84419 0.40623 0.0
H161 H 0.98382 0.97948 0.3809 0.0
H162 H 0.97623 0.70861 0.37853 0.0
H163 H 0.10972 0.86221 0.35394 0.0
H164 H 0.09857 0.79416 0.40897 0.0
Co165 Co 0.27699 0.48584 0.88956 0.0
C166 C 0.21137 0.49625 0.91538 0.0
C167 C 0.20522 0.45593 0.89161 0.0
C168 C 0.17472 0.45714 0.90367 0.0
N169 N 0.22793 0.48107 0.89861 0.0
N170 N 0.17868 0.48253 0.91865 0.0
H171 H 0.22365 0.51498 0.92602 0.0
H172 H 0.21092 0.43712 0.87902 0.0
C173 C 0.23521 0.48896 0.84888 0.0
O174 O 0.21232 0.51005 0.85838 0.0
N175 N 0.32566 0.48898 0.88058 0.0
C176 C 0.35097 0.512 0.88688 0.0
C177 C 0.38116 0.5058 0.87491 0.0
C178 C 0.34064 0.46885 0.86537 0.0
N179 N 0.37447 0.47856 0.8615 0.0
C180 C 0.27116 0.55758 0.90457 0.0
C181 C 0.27989 0.58984 0.86531 0.0
C182 C 0.2765 0.61113 0.88352 0.0
C183 C 0.27212 0.59453 0.90336 0.0
C184 C 0.279 0.553 0.86728 0.0
N185 N 0.27318 0.53717 0.88662 0.0
H186 H 0.27095 0.54554 0.92016 0.0
H187 H 0.28482 0.53741 0.85328 0.0
H188 H 0.34743 0.53239 0.89884 0.0
H189 H 0.3265 0.44845 0.85665 0.0
O190 O 0.29208 0.48309 0.91909 0.0
O191 O 0.2847 0.43714 0.89726 0.0
O192 O 0.26253 0.47762 0.85891 0.0
C193 C 0.29326 0.44894 0.91609 0.0
H194 H 0.15181 0.44009 0.9018 0.0
H195 H 0.40582 0.52049 0.87574 0.0
H196 H 0.28406 0.60145 0.84969 0.0
H197 H 0.27119 0.60984 0.91798 0.0
Co198 Co 0.60852 0.74875 0.37701 0.0
C199 C 0.58679 0.68529 0.40078 0.0
C200 C 0.61797 0.67164 0.37326 0.0
C201 C 0.61051 0.64102 0.38442 0.0
N202 N 0.60305 0.69921 0.38359 0.0
N203 N 0.591 0.64973 0.40173 0.0
H204 H 0.57367 0.70114 0.41284 0.0
H205 H 0.63412 0.67377 0.35905 0.0
C206 C 0.59472 0.75166 0.32998 0.0
O207 O 0.57292 0.77835 0.33342 0.0
N208 N 0.61571 0.79876 0.37026 0.0
C209 C 0.6074 0.82809 0.38164 0.0
C210 C 0.61938 0.85767 0.37086 0.0
C211 C 0.63467 0.81103 0.35354 0.0
N212 N 0.63615 0.84678 0.35304 0.0
C213 C 0.54069 0.77498 0.39072 0.0
C214 C 0.50031 0.73448 0.36309 0.0
C215 C 0.48338 0.75919 0.37632 0.0
C216 C 0.50393 0.77905 0.3906 0.0
C217 C 0.53724 0.73151 0.36363 0.0
N218 N 0.55712 0.75323 0.3764 0.0
H219 H 0.55571 0.78853 0.40281 0.0
H220 H 0.54983 0.71164 0.35377 0.0
H221 H 0.59481 0.82854 0.39707 0.0
H222 H 0.64779 0.79406 0.34208 0.0
O223 O 0.61653 0.75872 0.40686 0.0
O224 O 0.65834 0.74502 0.38323 0.0
O225 O 0.61048 0.73654 0.34563 0.0
C226 C 0.64994 0.75301 0.40282 0.0
H227 H 0.61938 0.61454 0.38032 0.0
H228 H 0.61573 0.88502 0.37571 0.0
H229 H 0.48524 0.71791 0.35224 0.0
H230 H 0.49162 0.79704 0.40189 0.0
Co231 Co 0.32575 0.11421 0.88862 0.0
C232 C 0.39181 0.10389 0.9143 0.0
C233 C 0.39805 0.14279 0.88968 0.0
C234 C 0.42896 0.14144 0.90135 0.0
N235 N 0.37498 0.11863 0.89746 0.0
N236 N 0.42496 0.11692 0.91684 0.0
H237 H 0.37962 0.08584 0.9254 0.0
H238 H 0.3924 0.16094 0.87672 0.0
C239 C 0.36745 0.10666 0.84831 0.0
O240 O 0.38817 0.08413 0.85843 0.0
N241 N 0.27691 0.1113 0.8798 0.0
C242 C 0.25081 0.0913 0.88825 0.0
C243 C 0.22054 0.09595 0.87613 0.0
C244 C 0.26237 0.12808 0.86301 0.0
N245 N 0.22797 0.11913 0.8603 0.0
C246 C 0.33054 0.04334 0.90524 0.0
C247 C 0.31977 0.00892 0.86683 0.0
C248 C 0.32361 0.98875 0.88544 0.0
C249 C 0.32889 0.00637 0.90486 0.0
C250 C 0.32135 0.04584 0.86797 0.0
N251 N 0.32838 0.06268 0.88685 0.0
H252 H 0.3316 0.0563 0.92053 0.0
H253 H 0.31521 0.06078 0.85374 0.0
H254 H 0.25381 0.07403 0.90193 0.0
H255 H 0.27711 0.14551 0.85252 0.0
O256 O 0.31088 0.11891 0.91806 0.0
O257 O 0.31899 0.16349 0.89532 0.0
O258 O 0.34072 0.12034 0.85786 0.0
C259 C 0.31038 0.1529 0.91441 0.0
H260 H 0.45229 0.15766 0.89879 0.0
H261 H 0.19522 0.08301 0.87864 0.0
H262 H 0.31394 -0.00363 0.85167 0.0
H263 H 0.33094 0.99176 0.91971 0.0
H264 H 0.06121 0.93205 0.43207 0.0
H265 H 0.07651 0.96886 0.4629 0.0
H266 H -0.00364 0.04487 0.44459 0.0
H267 H 0.98016 0.00779 0.41414 0.0
H268 H 0.09868 0.04082 0.46522 0.0
H269 H 0.97009 0.01766 0.50647 0.0
H270 H 0.98488 0.9909 0.48428 0.0
H271 H 0.96621 0.03416 0.47965 0.0
C272 C 0.04676 0.95652 0.43465 0.0
C273 C 0.01922 0.96679 0.42077 0.0
C274 C 0.05568 0.97761 0.45217 0.0
C275 C 0.03714 0.00921 0.45615 0.0
C276 C 0.01056 0.02024 0.44193 0.0
H277 H 0.09246 0.17618 0.54533 0.0
H278 H 0.07945 0.141 0.51358 0.0
C279 C 0.00162 -0.00081 0.42441 0.0
C280 C 0.04512 0.03027 0.47544 0.0
H281 H 0.00884 0.05993 0.52204 0.0
C282 C 0.07912 0.04502 0.47768 0.0
C283 C 0.01961 0.03515 0.49174 0.0
C284 C 0.98324 0.0184 0.4906 0.0
C285 C 0.08815 0.0651 0.49573 0.0
C286 C 0.06228 0.07086 0.51174 0.0
C287 C 0.02846 0.05566 0.50962 0.0
C288 C 0.06986 0.09228 0.53095 0.0
C289 C 0.12543 0.07946 0.4977 0.0
C290 C 0.06778 0.07672 0.55126 0.0
C291 C 0.0747 0.09688 0.56948 0.0
C292 C 0.08362 0.13301 0.56772 0.0
C293 C 0.08526 0.14858 0.54732 0.0
C294 C 0.07831 0.12839 0.52911 0.0
H295 H 0.14422 0.06533 0.48698 0.0
H296 H 0.12549 0.10797 0.4932 0.0
H297 H 0.13522 0.07723 0.51437 0.0
H298 H 0.06099 0.04891 0.55298 0.0
H299 H 0.07279 0.08427 0.58497 0.0
H300 H 0.01346 0.61639 0.07608 0.0
H301 H 0.051 0.5951 0.04694 0.0
H302 H 0.98017 0.50654 0.03722 0.0
H303 H 0.94225 0.52801 0.06625 0.0
H304 H 0.08662 0.53257 0.04175 0.0
H305 H 0.98555 0.54922 0.97787 0.0
H306 H 0.98003 0.56771 0.00423 0.0
H307 H 0.97153 0.52137 0.99954 0.0
C308 C 0.00605 0.59223 0.06786 0.0
C309 C 0.97482 0.57395 0.07335 0.0
C310 C 0.02741 0.58019 0.05116 0.0
C311 C 0.018 0.54963 0.03967 0.0
C312 C 0.9874 0.53071 0.04551 0.0
H313 H 0.12645 0.44108 0.93544 0.0
H314 H 0.08673 0.45618 0.96496 0.0
C315 C 0.96584 0.54292 0.06211 0.0
C316 C 0.04043 0.53765 0.02166 0.0
H317 H 0.03981 0.52187 0.96796 0.0
C318 C 0.07639 0.53023 0.02563 0.0
C319 C 0.02697 0.53469 0.00063 0.0
C320 C 0.989 0.54396 0.99521 0.0
C321 C 0.09927 0.51992 0.0091 0.0
C322 C 0.08582 0.51712 0.98813 0.0
C323 C 0.04983 0.52398 0.98415 0.0
C324 C 0.10915 0.50834 0.96997 0.0
C325 C 0.13768 0.51202 0.01412 0.0
C326 C 0.13432 0.53303 0.96287 0.0
C327 C 0.15675 0.52473 0.94586 0.0
C328 C 0.15453 0.49148 0.93569 0.0
C329 C 0.12876 0.46702 0.94271 0.0
C330 C 0.10616 0.47548 0.95966 0.0
H331 H 0.14229 0.50889 0.03154 0.0
H332 H 0.14644 0.48744 0.00585 0.0
H333 H 0.15447 0.53422 0.00829 0.0
H334 H 0.13655 0.55877 0.97048 0.0
H335 H 0.17568 0.5445 0.94062 0.0
H336 H 0.55867 0.43334 0.55896 0.0
H337 H 0.57352 0.46747 0.527 0.0
H338 H 0.48428 0.53673 0.53852 0.0
H339 H 0.46852 0.50207 0.57009 0.0
H340 H 0.48893 0.51203 0.49636 0.0
H341 H 0.61764 0.56692 0.52451 0.0
H342 H 0.61399 0.51948 0.52649 0.0
H343 H 0.58561 0.54727 0.54241 0.0
C344 C 0.54212 0.45574 0.55467 0.0
C345 C 0.51243 0.465 0.56711 0.0
C346 C 0.55087 0.47544 0.53653 0.0
C347 C 0.53025 0.50486 0.5306 0.0
C348 C 0.50064 0.51422 0.54296 0.0
H349 H 0.53444 0.65848 0.42788 0.0
H350 H 0.51876 0.62192 0.45874 0.0
C351 C 0.49186 0.49455 0.56109 0.0
C352 C 0.53887 0.52526 0.51114 0.0
H353 H 0.60307 0.57641 0.48812 0.0
C354 C 0.51382 0.52623 0.49455 0.0
C355 C 0.57139 0.54364 0.5089 0.0
C356 C 0.59862 0.54463 0.52658 0.0
C357 C 0.52064 0.54479 0.47558 0.0
C358 C 0.55315 0.56317 0.47335 0.0
C359 C 0.57823 0.56212 0.48991 0.0
C360 C 0.5615 0.58423 0.45411 0.0
C361 C 0.49333 0.54412 0.45795 0.0
C362 C 0.59089 0.57528 0.44147 0.0
C363 C 0.60006 0.59626 0.42394 0.0
C364 C 0.58015 0.62674 0.41888 0.0
C365 C 0.55045 0.63535 0.43147 0.0
C366 C 0.54125 0.61431 0.44897 0.0
H367 H 0.47416 0.52194 0.45999 0.0
H368 H 0.47815 0.56939 0.45812 0.0
H369 H 0.50627 0.54153 0.4421 0.0
H370 H 0.60696 0.55227 0.44532 0.0
H371 H 0.62337 0.58918 0.41477 0.0
H372 H 0.42817 0.05521 0.93901 0.0
H373 H 0.46896 0.04044 0.96795 0.0
H374 H 0.52041 0.14202 0.96071 0.0
H375 H 0.4787 0.15771 0.93235 0.0
H376 H 0.54183 0.0354 0.96716 0.0
H377 H 0.49834 0.13958 0.02433 0.0
H378 H 0.47303 0.12827 0.00082 0.0
H379 H 0.5117 0.15601 0.99864 0.0
C380 C 0.44778 0.07467 0.94374 0.0
C381 C 0.44985 0.10782 0.93346 0.0
C382 C 0.47127 0.06605 0.96018 0.0
C383 C 0.4973 0.09036 0.96668 0.0
C384 C 0.50001 0.12317 0.95621 0.0
H385 H 0.66278 0.07038 0.06374 0.0
H386 H 0.62615 0.09087 0.03375 0.0
C387 C 0.47641 0.13191 0.93981 0.0
C388 C 0.52188 0.0809 0.98422 0.0
H389 H 0.54783 0.10458 0.03449 0.0
C390 C 0.54316 0.05053 0.98187 0.0
C391 C 0.52355 0.10077 0.00337 0.0
C392 C 0.50024 0.1328 0.0071 0.0
C393 C 0.56602 0.03939 0.99823 0.0
C394 C 0.56735 0.05901 0.01742 0.0
C395 C 0.54665 0.08973 0.01966 0.0
C396 C 0.5891 0.04713 0.03567 0.0
C397 C 0.58863 0.00676 0.9949 0.0
C398 C 0.57991 0.01613 0.04675 0.0
C399 C 0.60064 0.00446 0.06383 0.0
C400 C 0.63097 0.02357 0.07008 0.0
C401 C 0.63981 0.05492 0.0591 0.0
C402 C 0.61888 0.06672 0.04208 0.0
H403 H 0.5902 -0.00083 0.97778 0.0
H404 H 0.61596 0.01113 0.00104 0.0
H405 H 0.57691 0.9842 0.00386 0.0
H406 H 0.55675 0.0009 0.0421 0.0
H407 H 0.59335 0.98005 0.07183 0.0
H408 H 0.23158 0.18041 0.83793 0.0
H409 H 0.19944 0.19476 0.80518 0.0
H410 H 0.14115 0.0966 0.81003 0.0
H411 H 0.17375 0.08162 0.8427 0.0
H412 H 0.2026 0.1431 0.76869 0.0
H413 H 0.0657 0.17829 0.79531 0.0
H414 H 0.10381 0.1833 0.81262 0.0
H415 H 0.08706 0.13986 0.80675 0.0
C416 C 0.21178 0.16195 0.83214 0.0
C417 C 0.20554 0.12967 0.84278 0.0
C418 C 0.19327 0.17033 0.81354 0.0
C419 C 0.16793 0.14677 0.80533 0.0
C420 C 0.16034 0.11527 0.81635 0.0
H421 H 0.05842 0.16107 0.68191 0.0
H422 H 0.07494 0.143 0.71826 0.0
C423 C 0.17895 0.1068 0.835 0.0
C424 C 0.15256 0.15361 0.78406 0.0
H425 H 0.07744 0.18095 0.75831 0.0
C426 C 0.17519 0.1512 0.76637 0.0
C427 C 0.11674 0.16368 0.78121 0.0
C428 C 0.09173 0.16665 0.79992 0.0
C429 C 0.16313 0.15934 0.74582 0.0
C430 C 0.1277 0.17098 0.74301 0.0
C431 C 0.10464 0.17222 0.76061 0.0
C432 C 0.11504 0.18364 0.72202 0.0
C433 C 0.1885 0.15552 0.72729 0.0
C434 C 0.13135 0.21311 0.7125 0.0
C435 C 0.12223 0.22326 0.69184 0.0
C436 C 0.0963 0.2044 0.68036 0.0
C437 C 0.0786 0.17602 0.69034 0.0
C438 C 0.08796 0.16568 0.71106 0.0
H439 H 0.21061 0.137 0.7311 0.0
H440 H 0.17457 0.14574 0.71281 0.0
H441 H 0.20025 0.18182 0.72357 0.0
H442 H 0.15178 0.22777 0.72091 0.0
H443 H 0.13598 0.24558 0.68477 0.0
H444 H 0.97327 0.6845 0.34303 0.0
H445 H 0.95107 0.65409 0.31124 0.0
H446 H 0.86949 0.7337 0.30415 0.0
H447 H 0.89165 0.76433 0.33592 0.0
H448 H 0.88546 0.62603 0.29807 0.0
H449 H 0.92725 0.74103 0.24881 0.0
H450 H 0.93948 0.73664 0.2765 0.0
H451 H 0.89595 0.7524 0.26934 0.0
C452 C 0.95012 0.6951 0.335 0.0
C453 C 0.93449 0.72709 0.34181 0.0
C454 C 0.93754 0.67775 0.3168 0.0
C455 C 0.90911 0.69206 0.30515 0.0
C456 C 0.89196 0.72266 0.31269 0.0
H457 H 0.80352 0.5972 0.19513 0.0
H458 H 0.8187 0.61693 0.2312 0.0
C459 C 0.90465 0.74014 0.33081 0.0
C460 C 0.89925 0.67655 0.28427 0.0
H461 H 0.89571 0.69562 0.23109 0.0
C462 C 0.88765 0.64116 0.28339 0.0
C463 C 0.90285 0.6962 0.26515 0.0
C464 C 0.91738 0.73355 0.2649 0.0
C465 C 0.87917 0.62499 0.26382 0.0
C466 C 0.8818 0.64503 0.24477 0.0
C467 C 0.89355 0.68034 0.24572 0.0
C468 C 0.87321 0.63007 0.22351 0.0
C469 C 0.86833 0.58642 0.26369 0.0
C470 C 0.89866 0.63127 0.20715 0.0
C471 C 0.88991 0.62057 0.18649 0.0
C472 C 0.85556 0.60826 0.18182 0.0
C473 C 0.83035 0.60613 0.19833 0.0
C474 C 0.83902 0.61724 0.21897 0.0
H475 H 0.87716 0.57249 0.2784 0.0
H476 H 0.83894 0.58465 0.26288 0.0
H477 H 0.8795 0.57238 0.24962 0.0
H478 H 0.92517 0.64117 0.21029 0.0
H479 H 0.90991 0.62244 0.1741 0.0
H480 H 0.42169 0.51553 0.83764 0.0
H481 H 0.45134 0.49453 0.80514 0.0
H482 H 0.40625 0.39044 0.81453 0.0
H483 H 0.37658 0.41127 0.84693 0.0
H484 H 0.49838 0.4358 0.79539 0.0
H485 H 0.36613 0.42485 0.75647 0.0
H486 H 0.37278 0.44832 0.78127 0.0
H487 H 0.37025 0.40066 0.78107 0.0
C488 C 0.41882 0.48799 0.83303 0.0
C489 C 0.39645 0.46512 0.84458 0.0
C490 C 0.43563 0.47608 0.81446 0.0
C491 C 0.43033 0.44118 0.8073 0.0
C492 C 0.41005 0.41767 0.81962 0.0
H493 H 0.52693 0.32721 0.70199 0.0
H494 H 0.51066 0.34983 0.73726 0.0
C495 C 0.39313 0.42958 0.83807 0.0
C496 C 0.44359 0.43006 0.78616 0.0
H497 H 0.41539 0.40274 0.73712 0.0
C498 C 0.48035 0.42863 0.78259 0.0
C499 C 0.41984 0.42131 0.76948 0.0
C500 C 0.38005 0.42413 0.77212 0.0
C501 C 0.49405 0.41794 0.76275 0.0
C502 C 0.47027 0.40811 0.7463 0.0
C503 C 0.43353 0.41011 0.74983 0.0
C504 C 0.48263 0.39583 0.72515 0.0
C505 C 0.53375 0.41777 0.75947 0.0
C506 C 0.47187 0.41398 0.70669 0.0
C507 C 0.48076 0.40096 0.68655 0.0
C508 C 0.5006 0.36951 0.68452 0.0
C509 C 0.51192 0.3517 0.70305 0.0
C510 C 0.50281 0.36467 0.72322 0.0
H511 H 0.54757 0.43463 0.77142 0.0
H512 H 0.54382 0.39022 0.76122 0.0
H513 H 0.54073 0.42728 0.74322 0.0
H514 H 0.45611 0.43799 0.70788 0.0
H515 H 0.47172 0.41532 0.67258 0.0
H516 H 0.64184 0.82853 0.31142 0.0
H517 H 0.66367 0.86535 0.28223 0.0
H518 H 0.68252 0.95143 0.32609 0.0
H519 H 0.66127 0.91435 0.35575 0.0
H520 H 0.63401 0.95303 0.27823 0.0
H521 H 0.77716 0.91562 0.28235 0.0
H522 H 0.74391 0.88269 0.28857 0.0
H523 H 0.7501 0.9198 0.30606 0.0
C524 C 0.65118 0.85502 0.31503 0.0
C525 C 0.65008 0.86839 0.336 0.0
C526 C 0.66337 0.8761 0.29827 0.0
C527 C 0.67468 0.91091 0.30212 0.0
C528 C 0.67383 0.92452 0.32294 0.0
H529 H 0.77598 0.03019 0.19838 0.0
H530 H 0.75698 0.0137 0.23444 0.0
C531 C 0.6616 0.90338 0.33979 0.0
C532 C 0.68663 0.93286 0.28404 0.0
H533 H 0.75799 0.94645 0.25157 0.0
C534 C 0.66122 0.95221 0.27254 0.0
C535 C 0.72214 0.93176 0.27688 0.0
C536 C 0.75015 0.91149 0.28905 0.0
C537 C 0.67017 0.96935 0.2534 0.0
C538 C 0.70525 0.96637 0.24547 0.0
C539 C 0.73108 0.94857 0.25763 0.0
C540 C 0.71498 0.97873 0.22381 0.0
C541 C 0.64184 0.98993 0.24167 0.0
C542 C 0.69771 0.96444 0.20592 0.0
C543 C 0.70841 0.97379 0.18536 0.0
C544 C 0.73685 -0.00259 0.18226 0.0
C545 C 0.75389 0.01204 0.20021 0.0
C546 C 0.74311 0.00264 0.22082 0.0
H547 H 0.62091 -0.00047 0.25277 0.0
H548 H 0.65327 0.01307 0.2331 0.0
H549 H 0.62894 0.97228 0.22979 0.0
H550 H 0.67653 0.94524 0.20785 0.0
H551 H 0.69482 0.96189 0.1719 0.0
H552 H 0.9567 0.89507 0.32111 0.0
H553 H 0.94022 0.91233 0.28496 0.0
H554 H 0.00266 0.8261 0.25952 0.0
H555 H 0.01886 0.80805 0.29584 0.0
H556 H 0.98135 0.93221 0.25014 0.0
H557 H 0.9046 0.80885 0.23348 0.0
H558 H 0.91906 0.82063 0.26001 0.0
H559 H 0.95027 0.80299 0.2411 0.0
C560 C 0.9671 0.87976 0.30787 0.0
C561 C 0.98893 0.85001 0.31139 0.0
C562 C 0.9577 0.88976 0.2872 0.0
C563 C 0.96985 0.87025 0.26959 0.0
C564 C 0.99249 0.84114 0.27293 0.0
H565 H 0.91056 0.92641 0.1371 0.0
H566 H 0.94558 0.90307 0.16714 0.0
C567 C 0.00187 0.83099 0.29369 0.0
C568 C 0.95773 0.88025 0.24791 0.0
H569 H 0.90429 0.85307 0.20696 0.0
C570 C 0.96497 0.91472 0.24054 0.0
C571 C 0.93619 0.8574 0.23548 0.0
C572 C 0.92674 0.82049 0.2429 0.0
C573 C 0.95027 0.92731 0.2214 0.0
C574 C 0.9279 0.90486 0.20941 0.0
C575 C 0.92174 0.86999 0.21625 0.0
C576 C 0.90736 0.91858 0.19114 0.0
C577 C 0.95739 0.96499 0.21446 0.0
C578 C 0.87446 0.93478 0.19488 0.0
C579 C 0.85454 0.94806 0.1779 0.0
C580 C 0.86717 0.94537 0.15683 0.0
C581 C 0.90027 0.92908 0.15314 0.0
C582 C 0.92019 0.91563 0.17022 0.0
H583 H 0.9781 0.97796 0.2244 0.0
H584 H 0.96595 0.96546 0.1975 0.0
H585 H 0.93249 0.9807 0.21566 0.0
H586 H 0.8643 0.93733 0.211 0.0
H587 H 0.82952 0.96102 0.18134 0.0
H588 H 0.28495 0.46544 0.82047 0.0
H589 H 0.27536 0.4463 0.78361 0.0
H590 H 0.16319 0.46762 0.79017 0.0
H591 H 0.17294 0.48834 0.82665 0.0
H592 H 0.24028 0.39309 0.76927 0.0
H593 H 0.17965 0.51283 0.73393 0.0
H594 H 0.2005 0.51341 0.75986 0.0
H595 H 0.15503 0.49912 0.75696 0.0
C596 C 0.25831 0.46645 0.81394 0.0
C597 C 0.22968 0.47851 0.82639 0.0
C598 C 0.25286 0.45554 0.79286 0.0
C599 C 0.21864 0.45612 0.78389 0.0
C600 C 0.19002 0.46805 0.7964 0.0
H601 H 0.1385 0.31671 0.68781 0.0
H602 H 0.1596 0.34662 0.71989 0.0
C603 C 0.19556 0.4796 0.81734 0.0
C604 C 0.21241 0.44171 0.76211 0.0
H605 H 0.1686 0.45767 0.71531 0.0
C606 C 0.22505 0.4075 0.75738 0.0
C607 C 0.19324 0.46065 0.74631 0.0
C608 C 0.18172 0.49868 0.74945 0.0
C609 C 0.21767 0.39112 0.73777 0.0
C610 C 0.19588 0.40887 0.72273 0.0
C611 C 0.18472 0.44375 0.72698 0.0
C612 C 0.18301 0.39105 0.70304 0.0
C613 C 0.23344 0.35497 0.73342 0.0
C614 C 0.18769 0.40678 0.68287 0.0
C615 C 0.17501 0.3899 0.66446 0.0
C616 C 0.1577 0.35695 0.66593 0.0
C617 C 0.15258 0.34162 0.68615 0.0
C618 C 0.16476 0.35866 0.7045 0.0
H619 H 0.25864 0.35112 0.74238 0.0
H620 H 0.21457 0.33419 0.73881 0.0
H621 H 0.23884 0.35106 0.71616 0.0
H622 H 0.20138 0.43195 0.68137 0.0
H623 H 0.17921 0.40226 0.64906 0.0
H624 H 0.57842 0.78685 0.29302 0.0
H625 H 0.59824 0.77232 0.25682 0.0
H626 H 0.65274 0.67985 0.28091 0.0
H627 H 0.63296 0.69395 0.31705 0.0
H628 H 0.66997 0.76663 0.24389 0.0
H629 H 0.59647 0.64141 0.22943 0.0
H630 H 0.58403 0.67252 0.25007 0.0
H631 H 0.62006 0.64194 0.25435 0.0
C632 C 0.59414 0.76309 0.29056 0.0
C633 C 0.60405 0.74148 0.3079 0.0
C634 C 0.6055 0.75492 0.26989 0.0
C635 C 0.62655 0.72479 0.26619 0.0
C636 C 0.63594 0.70286 0.28339 0.0
H637 H 0.78146 0.66637 0.17506 0.0
H638 H 0.74683 0.69001 0.20458 0.0
C639 C 0.62478 0.71109 0.30405 0.0
C640 C 0.64085 0.71741 0.24465 0.0
H641 H 0.64621 0.65291 0.20654 0.0
C642 C 0.66439 0.74202 0.23554 0.0
C643 C 0.63319 0.68549 0.23371 0.0
C644 C 0.60679 0.65895 0.24227 0.0
C645 C 0.68191 0.73467 0.21627 0.0
C646 C 0.67589 0.70179 0.20602 0.0
C647 C 0.65096 0.678 0.21455 0.0
C648 C 0.69703 0.69041 0.18733 0.0
C649 C 0.70716 0.76188 0.20722 0.0
C650 C 0.68046 0.6826 0.16784 0.0
C651 C 0.70031 0.66923 0.15075 0.0
C652 C 0.73703 0.66309 0.15296 0.0
C653 C 0.75349 0.67145 0.17251 0.0
C654 C 0.73369 0.68493 0.18949 0.0
H655 H 0.70133 0.78892 0.2134 0.0
H656 H 0.73471 0.75489 0.21195 0.0
H657 H 0.70585 0.76239 0.18951 0.0
H658 H 0.65212 0.6865 0.16593 0.0
H659 H 0.68682 0.66337 0.13591 0.0
H660 H 0.33099 0.15311 0.82276 0.0
H661 H 0.34694 0.17291 0.78687 0.0
H662 H 0.43795 0.10328 0.78742 0.0
H663 H 0.42254 0.08366 0.82344 0.0
H664 H 0.45462 0.17147 0.7759 0.0
H665 H 0.33923 0.12373 0.72899 0.0
H666 H 0.32696 0.14976 0.75184 0.0
H667 H 0.34894 0.10778 0.75556 0.0
C668 C 0.3542 0.1417 0.81518 0.0
C669 C 0.37555 0.11685 0.82601 0.0
C670 C 0.36311 0.15286 0.79458 0.0
C671 C 0.39335 0.13921 0.78435 0.0
C672 C 0.41438 0.11399 0.79498 0.0
H673 H 0.4589 0.18536 0.65297 0.0
H674 H 0.43964 0.15496 0.68565 0.0
C675 C 0.40552 0.10282 0.81558 0.0
C676 C 0.4046 0.15325 0.7633 0.0
H677 H 0.3772 0.16601 0.71185 0.0
C678 C 0.43782 0.16999 0.76186 0.0
C679 C 0.3828 0.15098 0.74494 0.0
C680 C 0.34764 0.13179 0.74529 0.0
C681 C 0.44938 0.18547 0.74272 0.0
C682 C 0.4269 0.18462 0.72464 0.0
C683 C 0.39418 0.16691 0.72583 0.0
C684 C 0.43672 0.20292 0.70457 0.0
C685 C 0.48558 0.20265 0.74203 0.0
C686 C 0.44071 0.23992 0.70433 0.0
C687 C 0.45176 0.25726 0.6858 0.0
C688 C 0.45888 0.23794 0.66705 0.0
C689 C 0.45397 0.20091 0.66719 0.0
C690 C 0.4428 0.18355 0.68579 0.0
H691 H 0.50293 0.1931 0.75519 0.0
H692 H 0.49899 0.19732 0.72657 0.0
H693 H 0.48253 0.23183 0.74375 0.0
H694 H 0.43574 0.25538 0.71861 0.0
H695 H 0.45573 0.28569 0.68642 0.0
H696 H 0.96159 0.34176 0.63787 0.0
H697 H 0.89818 0.35663 0.63906 0.0
H698 H 0.87436 0.26394 0.60125 0.0
H699 H 0.93742 0.24849 0.60035 0.0
H700 H 0.8508 0.368 0.60324 0.0
H701 H 0.81011 0.25536 0.655 0.0
H702 H 0.85568 0.26989 0.65273 0.0
H703 H 0.8362 0.24289 0.63218 0.0
C704 C 0.94277 0.32441 0.62998 0.0
C705 C 0.95436 0.29389 0.61909 0.0
C706 C 0.9067 0.33305 0.63057 0.0
C707 C 0.88178 0.31112 0.62045 0.0
C708 C 0.89328 0.28089 0.60938 0.0
H709 H 0.66516 0.34311 0.58193 0.0
H710 H 0.7298 0.33684 0.58395 0.0
C711 C 0.92927 0.2723 0.60872 0.0
C712 C 0.84365 0.31982 0.62126 0.0
H713 H 0.76375 0.28775 0.63802 0.0
C714 C 0.83171 0.35068 0.61097 0.0
C715 C 0.81909 0.29729 0.6316 0.0
C716 C 0.83084 0.26465 0.64368 0.0
C717 C 0.79544 0.35905 0.61017 0.0
C718 C 0.77074 0.33568 0.61972 0.0
C719 C 0.78284 0.30542 0.63058 0.0
C720 C 0.7321 0.34165 0.61836 0.0
C721 C 0.78382 0.39276 0.59917 0.0
C722 C 0.71214 0.34591 0.63706 0.0
C723 C 0.67529 0.3491 0.63598 0.0
C724 C 0.65778 0.34783 0.61617 0.0
C725 C 0.67791 0.34389 0.59742 0.0
C726 C 0.71482 0.34074 0.59853 0.0
H727 H 0.80605 0.41199 0.59765 0.0
H728 H 0.77426 0.38627 0.58287 0.0
H729 H 0.7617 0.40565 0.60798 0.0
H730 H 0.72508 0.34633 0.65251 0.0
H731 H 0.66042 0.35162 0.65071 0.0
H732 H 0.88113 0.4332 0.11758 0.0
H733 H 0.86745 0.36964 0.11842 0.0
H734 H 0.75675 0.39293 0.10726 0.0
H735 H 0.77021 0.45643 0.10633 0.0
H736 H 0.82114 0.33374 0.14578 0.0
H737 H 0.77979 0.31981 0.06104 0.0
H738 H 0.8036 0.35811 0.07079 0.0
H739 H 0.75667 0.35395 0.07545 0.0
C740 C 0.85388 0.42473 0.11535 0.0
C741 C 0.82673 0.44966 0.11178 0.0
C742 C 0.84615 0.38851 0.11577 0.0
C743 C 0.81122 0.37672 0.11258 0.0
C744 C 0.78401 0.40154 0.10925 0.0
H745 H 0.71474 0.16721 0.1125 0.0
H746 H 0.7251 0.23149 0.11338 0.0
C747 C 0.79172 0.43773 0.10874 0.0
C748 C 0.80312 0.33843 0.11325 0.0
H749 H 0.77041 0.26999 0.08351 0.0
C750 C 0.81015 0.31973 0.13217 0.0
C751 C 0.7887 0.32043 0.09544 0.0
C752 C 0.78201 0.33897 0.07446 0.0
C753 C 0.80287 0.28336 0.1338 0.0
C754 C 0.78856 0.26539 0.11598 0.0
C755 C 0.78124 0.28409 0.09714 0.0
C756 C 0.78219 0.22684 0.1163 0.0
C757 C 0.81019 0.26446 0.15458 0.0
C758 C 0.81094 0.20329 0.11753 0.0
C759 C 0.80514 0.16675 0.11701 0.0
C760 C 0.77047 0.15325 0.11524 0.0
C761 C 0.74167 0.17695 0.11411 0.0
C762 C 0.74754 0.21354 0.11451 0.0
H763 H 0.81332 0.28338 0.16806 0.0
H764 H 0.78843 0.24562 0.15845 0.0
H765 H 0.83517 0.24899 0.15309 0.0
H766 H 0.8379 0.2132 0.11863 0.0
H767 H 0.82777 0.14904 0.11807 0.0
H768 H 0.432 0.70792 0.37562 0.0
H769 H 0.3674 0.7168 0.37491 0.0
H770 H 0.3828 0.83028 0.37475 0.0
H771 H 0.44724 0.82167 0.37529 0.0
H772 H 0.32738 0.75928 0.40686 0.0
H773 H 0.31394 0.80811 0.32345 0.0
H774 H 0.35167 0.7824 0.33242 0.0
H775 H 0.34831 0.82863 0.33913 0.0
C776 C 0.42154 0.73472 0.3752 0.0
C777 C 0.44449 0.76414 0.3755 0.0
C778 C 0.38478 0.73972 0.37488 0.0
C779 C 0.37061 0.77415 0.37456 0.0
C780 C 0.39341 0.80352 0.37475 0.0
H781 H 0.16414 0.87211 0.37505 0.0
H782 H 0.22763 0.85806 0.37374 0.0
C783 C 0.4301 0.79857 0.37523 0.0
C784 C 0.33188 0.77962 0.37487 0.0
H785 H 0.2633 0.81351 0.34574 0.0
C786 C 0.31319 0.77083 0.39348 0.0
C787 C 0.31382 0.79487 0.35737 0.0
C788 C 0.33281 0.80385 0.33686 0.0
C789 C 0.27675 0.77789 0.39529 0.0
C790 C 0.25865 0.79339 0.37781 0.0
C791 C 0.27735 0.8017 0.3591 0.0
C792 C 0.22035 0.80164 0.37871 0.0
C793 C 0.25826 0.76979 0.4161 0.0
C794 C 0.19539 0.77448 0.3817 0.0
C795 C 0.15923 0.78243 0.38252 0.0
C796 C 0.14745 0.81763 0.38009 0.0
C797 C 0.17249 0.84473 0.37681 0.0
C798 C 0.20868 0.83677 0.37612 0.0
H799 H 0.27745 0.7668 0.42947 0.0
H800 H 0.23899 0.79103 0.42027 0.0
H801 H 0.24344 0.74447 0.41453 0.0
H802 H 0.20387 0.7471 0.38322 0.0
H803 H 0.14042 0.76097 0.3847 0.0
H804 H 0.35342 0.94246 0.85711 0.0
H805 H 0.3449 0.87792 0.8554 0.0
H806 H 0.27624 0.8828 0.91041 0.0
H807 H 0.28431 0.94722 0.91213 0.0
H808 H 0.35822 0.82671 0.89135 0.0
H809 H 0.21888 0.82988 0.86167 0.0
H810 H 0.24894 0.86693 0.85859 0.0
H811 H 0.22897 0.85808 0.88405 0.0
C812 C 0.33644 0.92972 0.86878 0.0
C813 C 0.31956 0.94974 0.88477 0.0
C814 C 0.33171 0.89299 0.86782 0.0
C815 C 0.3097 0.87592 0.88265 0.0
C816 C 0.29306 0.89573 0.89873 0.0
H817 H 0.23893 0.66163 0.90536 0.0
H818 H 0.24784 0.72596 0.90472 0.0
C819 C 0.29796 0.93238 0.8998 0.0
C820 C 0.30445 0.83723 0.88157 0.0
H821 H 0.24207 0.7738 0.87151 0.0
C822 C 0.33295 0.815 0.8869 0.0
C823 C 0.27135 0.8224 0.87585 0.0
C824 C 0.24025 0.84544 0.86955 0.0
C825 C 0.32898 0.778 0.88714 0.0
C826 C 0.29585 0.76307 0.88138 0.0
C827 C 0.26742 0.7854 0.8759 0.0
C828 C 0.29 0.72431 0.88125 0.0
C829 C 0.35995 0.75535 0.89418 0.0
C830 C 0.3103 0.70228 0.86797 0.0
C831 C 0.3056 0.66555 0.86849 0.0
C832 C 0.28015 0.65026 0.88212 0.0
C833 C 0.25911 0.67256 0.89494 0.0
C834 C 0.26399 0.70929 0.89449 0.0
H835 H 0.37975 0.77095 0.90341 0.0
H836 H 0.35087 0.73274 0.90417 0.0
H837 H 0.37352 0.74444 0.87989 0.0
H838 H 0.33001 0.71347 0.85733 0.0
H839 H 0.32253 0.64915 0.85859 0.0
H840 H 0.45797 0.30739 0.55236 0.0
H841 H 0.41004 0.29311 0.52712 0.0
H842 H 0.33361 0.33753 0.57103 0.0
H843 H 0.38076 0.35202 0.59581 0.0
H844 H 0.3583 0.24743 0.53427 0.0
H845 H 0.2922 0.37251 0.51627 0.0
H846 H 0.33817 0.37112 0.52473 0.0
H847 H 0.3027 0.37455 0.54409 0.0
C848 C 0.43093 0.31466 0.55634 0.0
C849 C 0.42297 0.33055 0.5761 0.0
C850 C 0.40369 0.30672 0.54186 0.0
C851 C 0.36832 0.31513 0.54686 0.0
C852 C 0.36076 0.33197 0.56636 0.0
H853 H 0.22334 0.2269 0.59621 0.0
H854 H 0.27189 0.23505 0.57145 0.0
C855 C 0.38774 0.3397 0.58076 0.0
C856 C 0.33821 0.30117 0.5342 0.0
H857 H 0.25115 0.32375 0.53085 0.0
C858 C 0.33503 0.26416 0.53242 0.0
C859 C 0.30808 0.3226 0.53027 0.0
C860 C 0.31074 0.36244 0.52868 0.0
C861 C 0.30139 0.24828 0.53182 0.0
C862 C 0.27096 0.27007 0.53385 0.0
C863 C 0.27443 0.30678 0.53047 0.0
C864 C 0.23963 0.25783 0.54615 0.0
C865 C 0.29884 0.20835 0.53163 0.0
C866 C 0.20501 0.26815 0.54048 0.0
C867 C 0.17706 0.26419 0.55503 0.0
C868 C 0.18345 0.25007 0.57547 0.0
C869 C 0.2176 0.238 0.58063 0.0
C870 C 0.24537 0.24205 0.56621 0.0
H871 H 0.31757 0.19723 0.51967 0.0
H872 H 0.30685 0.19774 0.54746 0.0
H873 H 0.27152 0.19916 0.52786 0.0
H874 H 0.19997 0.28083 0.52525 0.0
H875 H 0.15084 0.27349 0.55059 0.0
H876 H 0.8297 0.64949 0.04589 0.0
H877 H 0.81907 0.69871 0.02102 0.0
H878 H 0.86009 0.77216 0.06786 0.0
H879 H 0.87136 0.72359 0.09222 0.0
H880 H 0.77252 0.7472 0.02778 0.0
H881 H 0.89518 0.82063 0.01604 0.0
H882 H 0.8958 0.77439 0.02388 0.0
H883 H 0.89536 0.80926 0.04375 0.0
C884 C 0.83736 0.67611 0.05055 0.0
C885 C 0.85094 0.68286 0.07108 0.0
C886 C 0.83146 0.70413 0.03628 0.0
C887 C 0.83939 0.73916 0.04231 0.0
C888 C 0.85486 0.74539 0.0624 0.0
H889 H 0.73771 0.87858 0.0914 0.0
H890 H 0.7522 0.83115 0.06682 0.0
C891 C 0.86073 0.71756 0.07656 0.0
C892 C 0.82506 0.76994 0.03032 0.0
H893 H 0.84287 0.85829 0.03019 0.0
C894 C 0.78813 0.77138 0.02722 0.0
C895 C 0.84511 0.80145 0.02814 0.0
C896 C 0.88513 0.80108 0.02787 0.0
C897 C 0.77043 0.80412 0.02691 0.0
C898 C 0.79022 0.83545 0.03045 0.0
C899 C 0.82737 0.83417 0.02858 0.0
C900 C 0.77468 0.86553 0.0425 0.0
C901 C 0.73049 0.80454 0.02534 0.0
C902 C 0.78264 0.90089 0.03725 0.0
C903 C 0.7748 0.92825 0.05164 0.0
C904 C 0.75928 0.92047 0.07153 0.0
C905 C 0.74976 0.88538 0.07624 0.0
C906 C 0.75751 0.85823 0.06194 0.0
H907 H 0.7215 0.78553 0.01291 0.0
H908 H 0.71888 0.79571 0.04074 0.0
H909 H 0.72019 0.83142 0.02143 0.0
H910 H 0.79635 0.90711 0.02252 0.0
H911 H 0.78236 0.95517 0.0476 0.0
H912 H 0.71963 0.73598 0.39952 0.0
H913 H 0.76653 0.74862 0.42486 0.0
H914 H 0.68964 0.79043 0.46942 0.0
H915 H 0.64209 0.77821 0.44361 0.0
H916 H 0.73955 0.83698 0.46322 0.0
H917 H 0.8099 0.71339 0.47867 0.0
H918 H 0.80005 0.71253 0.45074 0.0
H919 H 0.76409 0.71351 0.46989 0.0
C920 C 0.71251 0.74715 0.41487 0.0
C921 C 0.67731 0.75646 0.41949 0.0
C922 C 0.73934 0.75383 0.42959 0.0
C923 C 0.73162 0.76972 0.44936 0.0
C924 C 0.69616 0.77764 0.45444 0.0
H925 H 0.94804 0.81995 0.44741 0.0
H926 H 0.89886 0.80968 0.47237 0.0
C927 C 0.66911 0.77083 0.43964 0.0
C928 C 0.76151 0.78398 0.46212 0.0
H929 H 0.84938 0.76443 0.46512 0.0
C930 C 0.76339 0.82096 0.46472 0.0
C931 C 0.79242 0.76342 0.46556 0.0
C932 C 0.79123 0.72345 0.46632 0.0
C933 C 0.79642 0.83801 0.46573 0.0
C934 C 0.82763 0.81748 0.46334 0.0
C935 C 0.82547 0.78048 0.46582 0.0
C936 C 0.85861 0.83167 0.4515 0.0
C937 C 0.79751 0.87798 0.46671 0.0
C938 C 0.8525 0.84796 0.43163 0.0
C939 C 0.88028 0.85359 0.41741 0.0
C940 C 0.91483 0.84277 0.42262 0.0
C941 C 0.92154 0.82841 0.44297 0.0
C942 C 0.89355 0.82272 0.45728 0.0
H943 H 0.77808 0.88779 0.47868 0.0
H944 H 0.82438 0.88792 0.47094 0.0
H945 H 0.78957 0.88913 0.45101 0.0
H946 H 0.82579 0.85401 0.42633 0.0
H947 H 0.8743 0.86486 0.4019 0.0
H948 H 0.32302 0.14765 0.95731 0.0
H949 H 0.31653 0.19545 0.9839 0.0
H950 H 0.27171 0.26332 0.93529 0.0
H951 H 0.27882 0.21645 0.90896 0.0
H952 H 0.35278 0.26009 0.97799 0.0
H953 H 0.21105 0.28905 0.98734 0.0
H954 H 0.22738 0.24489 0.98135 0.0
H955 H 0.21881 0.2763 0.96018 0.0
C956 C 0.31089 0.17254 0.95259 0.0
C957 C 0.30157 0.17869 0.93116 0.0
C958 C 0.3071 0.19965 0.96776 0.0
C959 C 0.29291 0.23263 0.9617 0.0
C960 C 0.28177 0.23777 0.94051 0.0
H961 H 0.33034 0.38835 0.91188 0.0
H962 H 0.33696 0.34135 0.93812 0.0
C963 C 0.28626 0.21117 0.92538 0.0
C964 C 0.29577 0.26432 0.97551 0.0
H965 H 0.2494 0.34159 0.97702 0.0
C966 C 0.33004 0.27772 0.97904 0.0
C967 C 0.26628 0.28714 0.978 0.0
C968 C 0.22879 0.27336 0.97677 0.0
C969 C 0.33576 0.31448 0.97984 0.0
C970 C 0.3066 0.33754 0.97673 0.0
C971 C 0.27203 0.3239 0.97853 0.0
C972 C 0.31082 0.37005 0.96373 0.0
C973 C 0.37329 0.32826 0.98065 0.0
C974 C 0.29426 0.40215 0.96936 0.0
C975 C 0.29072 0.42936 0.95422 0.0
C976 C 0.30275 0.42413 0.93322 0.0
C977 C 0.32083 0.39286 0.92798 0.0
C978 C 0.32504 0.3662 0.94312 0.0
H979 H 0.38946 0.31217 0.99191 0.0
H980 H 0.38558 0.3258 0.96461 0.0
H981 H 0.37409 0.35657 0.98562 0.0
H982 H 0.28246 0.40535 0.98502 0.0
H983 H 0.27643 0.45332 0.95848 0.0
loop_
_geom_bond_atom_site_label_1
_geom_bond_atom_site_label_2
_geom_bond_distance
_geom_bond_site_symmetry_2
_ccdc_geom_bond_type
Co0 N4 2.148 . S
Co0 N10 2.128 . S
Co0 N20 2.194 . S
Co0 O25 2.351 . S
Co0 O26 2.155 . S
Co0 O27 2.096 . S
C1 N4 1.301 . S
C1 N5 1.328 . S
C1 H6 0.930 . S
C2 C3 1.333 . S
C2 N4 1.317 . S
C2 H7 0.930 . S
C3 C2 1.333 . S
C3 N5 1.350 . S
C3 H29 0.931 . S
N4 Co0 2.148 . S
N4 C1 1.301 . S
N4 C2 1.317 . S
N5 C1 1.328 . S
N5 C3 1.350 . S
H6 C1 0.930 . S
H7 C2 0.930 . S
C8 O9 1.224 . S
C8 O27 1.247 . S
O9 C8 1.224 . S
N10 Co0 2.128 . S
N10 C11 1.355 . S
N10 C13 1.311 . S
C11 N10 1.355 . S
C11 C12 1.363 . S
C11 H23 0.929 . S
C12 C11 1.363 . S
C12 N14 1.375 . S
C12 H30 0.931 . S
C13 N10 1.311 . S
C13 N14 1.347 . S
C13 H24 0.929 . S
N14 C12 1.375 . S
N14 C13 1.347 . S
C15 C18 1.365 . S
C15 N20 1.328 . S
C15 H21 0.929 . S
C16 C17 1.362 . S
C16 C19 1.378 1_655 S
C16 H31 0.929 . S
C17 C16 1.362 . S
C17 C18 1.366 1_655 S
C18 C15 1.365 . S
C18 C17 1.366 1_455 S
C18 H32 0.930 1_455 S
C19 C16 1.378 1_455 S
C19 N20 1.315 . S
C19 H22 0.930 . S
N20 Co0 2.194 . S
N20 C15 1.328 . S
N20 C19 1.315 . S
H21 C15 0.929 . S
H22 C19 0.930 . S
H23 C11 0.929 . S
H24 C13 0.929 . S
O25 Co0 2.351 . S
O25 C28 1.244 . S
O26 Co0 2.155 . S
O26 C28 1.240 . S
O27 Co0 2.096 . S
O27 C8 1.247 . S
C28 O25 1.244 . S
C28 O26 1.240 . S
H29 C3 0.931 . S
H30 C12 0.931 . S
H31 C16 0.929 . S
H32 C18 0.930 1_655 S
Co33 N37 2.148 . S
Co33 N43 2.128 . S
Co33 N53 2.194 . S
Co33 O58 2.351 . S
Co33 O59 2.155 . S
Co33 O60 2.096 . S
C34 N37 1.301 . S
C34 N38 1.328 . S
C34 H39 0.930 . S
C35 C36 1.333 . S
C35 N37 1.317 . S
C35 H40 0.930 . S
C36 C35 1.333 . S
C36 N38 1.350 . S
C36 H62 0.931 . S
N37 Co33 2.148 . S
N37 C34 1.301 . S
N37 C35 1.317 . S
N38 C34 1.328 . S
N38 C36 1.350 . S
H39 C34 0.930 . S
H40 C35 0.930 . S
C41 O42 1.224 . S
C41 O60 1.247 . S
O42 C41 1.224 . S
N43 Co33 2.128 . S
N43 C44 1.355 . S
N43 C46 1.311 . S
C44 N43 1.355 . S
C44 C45 1.363 . S
C44 H56 0.929 . S
C45 C44 1.363 . S
C45 N47 1.375 . S
C45 H63 0.931 . S
C46 N43 1.311 . S
C46 N47 1.347 . S
C46 H57 0.929 . S
N47 C45 1.375 . S
N47 C46 1.347 . S
C48 C51 1.365 . S
C48 N53 1.328 . S
C48 H54 0.929 . S
C49 C50 1.362 . S
C49 C52 1.378 . S
C49 H64 0.929 . S
C50 C49 1.362 . S
C50 C51 1.366 . S
C51 C48 1.365 . S
C51 C50 1.366 . S
C51 H65 0.930 . S
C52 C49 1.378 . S
C52 N53 1.315 . S
C52 H55 0.930 . S
N53 Co33 2.194 . S
N53 C48 1.328 . S
N53 C52 1.315 . S
H54 C48 0.929 . S
H55 C52 0.930 . S
H56 C44 0.929 . S
H57 C46 0.929 . S
O58 Co33 2.351 . S
O58 C61 1.244 . S
O59 Co33 2.155 . S
O59 C61 1.240 . S
O60 Co33 2.096 . S
O60 C41 1.247 . S
C61 O58 1.244 . S
C61 O59 1.240 . S
H62 C36 0.931 . S
H63 C45 0.931 . S
H64 C49 0.929 . S
H65 C51 0.930 . S
Co66 N70 2.148 . S
Co66 N76 2.128 . S
Co66 N86 2.194 . S
Co66 O91 2.351 . S
Co66 O92 2.155 . S
Co66 O93 2.096 . S
C67 N70 1.301 . S
C67 N71 1.328 . S
C67 H72 0.930 . S
C68 C69 1.333 . S
C68 N70 1.317 . S
C68 H73 0.930 . S
C69 C68 1.333 . S
C69 N71 1.350 . S
C69 H95 0.931 . S
N70 Co66 2.148 . S
N70 C67 1.301 . S
N70 C68 1.317 . S
N71 C67 1.328 . S
N71 C69 1.350 . S
H72 C67 0.930 . S
H73 C68 0.930 . S
C74 O75 1.224 . S
C74 O93 1.247 . S
O75 C74 1.224 . S
N76 Co66 2.128 . S
N76 C77 1.355 . S
N76 C79 1.311 . S
C77 N76 1.355 . S
C77 C78 1.363 . S
C77 H89 0.929 . S
C78 C77 1.363 . S
C78 N80 1.375 . S
C78 H96 0.931 . S
C79 N76 1.311 . S
C79 N80 1.347 . S
C79 H90 0.929 . S
N80 C78 1.375 . S
N80 C79 1.347 . S
C81 C84 1.365 . S
C81 N86 1.328 . S
C81 H87 0.929 . S
C82 C83 1.362 . S
C82 C85 1.378 . S
C82 H97 0.929 . S
C83 C82 1.362 . S
C83 C84 1.366 . S
C84 C81 1.365 . S
C84 C83 1.366 . S
C84 H98 0.930 . S
C85 C82 1.378 . S
C85 N86 1.315 . S
C85 H88 0.930 . S
N86 Co66 2.194 . S
N86 C81 1.328 . S
N86 C85 1.315 . S
H87 C81 0.929 . S
H88 C85 0.930 . S
H89 C77 0.929 . S
H90 C79 0.929 . S
O91 Co66 2.351 . S
O91 C94 1.244 . S
O92 Co66 2.155 . S
O92 C94 1.240 . S
O93 Co66 2.096 . S
O93 C74 1.247 . S
C94 O91 1.244 . S
C94 O92 1.240 . S
H95 C69 0.931 . S
H96 C78 0.931 . S
H97 C82 0.929 . S
H98 C84 0.930 . S
Co99 N103 2.148 . S
Co99 N109 2.128 . S
Co99 N119 2.194 . S
Co99 O124 2.351 1_545 S
Co99 O125 2.155 1_545 S
Co99 O126 2.096 1_545 S
C100 N103 1.301 . S
C100 N104 1.328 . S
C100 H105 0.930 . S
C101 C102 1.333 . S
C101 N103 1.317 . S
C101 H106 0.930 . S
C102 C101 1.333 . S
C102 N104 1.350 . S
C102 H128 0.931 . S
N103 Co99 2.148 . S
N103 C100 1.301 . S
N103 C101 1.317 . S
N104 C100 1.328 . S
N104 C102 1.350 . S
H105 C100 0.930 . S
H106 C101 0.930 . S
C107 O108 1.224 . S
C107 O126 1.247 1_545 S
O108 C107 1.224 . S
N109 Co99 2.128 . S
N109 C110 1.355 . S
N109 C112 1.311 1_545 S
C110 N109 1.355 . S
C110 C111 1.363 . S
C110 H122 0.929 . S
C111 C110 1.363 . S
C111 N113 1.375 1_545 S
C111 H129 0.931 . S
C112 N109 1.311 1_565 S
C112 N113 1.347 . S
C112 H123 0.929 . S
N113 C111 1.375 1_565 S
N113 C112 1.347 . S
C114 C117 1.365 . S
C114 N119 1.328 . S
C114 H120 0.929 . S
C115 C116 1.362 . S
C115 C118 1.378 . S
C115 H130 0.929 . S
C116 C115 1.362 . S
C116 C117 1.366 . S
C117 C114 1.365 . S
C117 C116 1.366 . S
C117 H131 0.930 . S
C118 C115 1.378 . S
C118 N119 1.315 . S
C118 H121 0.930 . S
N119 Co99 2.194 . S
N119 C114 1.328 . S
N119 C118 1.315 . S
H120 C114 0.929 . S
H121 C118 0.930 . S
H122 C110 0.929 . S
H123 C112 0.929 . S
O124 Co99 2.351 1_565 S
O124 C127 1.244 . S
O125 Co99 2.155 1_565 S
O125 C127 1.240 . S
O126 Co99 2.096 1_565 S
O126 C107 1.247 1_565 S
C127 O124 1.244 . S
C127 O125 1.240 . S
H128 C102 0.931 . S
H129 C111 0.931 . S
H130 C115 0.929 . S
H131 C117 0.930 . S
Co132 N136 2.148 . S
Co132 N142 2.128 . S
Co132 N152 2.194 . S
Co132 O157 2.351 1_455 S
Co132 O158 2.155 1_455 S
Co132 O159 2.096 1_455 S
C133 N136 1.301 . S
C133 N137 1.328 . S
C133 H138 0.930 . S
C134 C135 1.333 . S
C134 N136 1.317 . S
C134 H139 0.930 . S
C135 C134 1.333 . S
C135 N137 1.350 . S
C135 H161 0.931 . S
N136 Co132 2.148 . S
N136 C133 1.301 . S
N136 C134 1.317 . S
N137 C133 1.328 . S
N137 C135 1.350 . S
H138 C133 0.930 . S
H139 C134 0.930 . S
C140 O141 1.224 . S
C140 O159 1.247 1_455 S
O141 C140 1.224 . S
N142 Co132 2.128 . S
N142 C143 1.355 . S
N142 C145 1.311 1_455 S
C143 N142 1.355 . S
C143 C144 1.363 . S
C143 H155 0.929 . S
C144 C143 1.363 . S
C144 N146 1.375 1_455 S
C144 H162 0.931 . S
C145 N142 1.311 1_655 S
C145 N146 1.347 . S
C145 H156 0.929 . S
N146 C144 1.375 1_655 S
N146 C145 1.347 . S
C147 C150 1.365 . S
C147 N152 1.328 . S
C147 H153 0.929 . S
C148 C149 1.362 . S
C148 C151 1.378 . S
C148 H163 0.929 . S
C149 C148 1.362 . S
C149 C150 1.366 . S
C150 C147 1.365 . S
C150 C149 1.366 . S
C150 H164 0.930 . S
C151 C148 1.378 . S
C151 N152 1.315 . S
C151 H154 0.930 . S
N152 Co132 2.194 . S
N152 C147 1.328 . S
N152 C151 1.315 . S
H153 C147 0.929 . S
H154 C151 0.930 . S
H155 C143 0.929 . S
H156 C145 0.929 . S
O157 Co132 2.351 1_655 S
O157 C160 1.244 . S
O158 Co132 2.155 1_655 S
O158 C160 1.240 . S
O159 Co132 2.096 1_655 S
O159 C140 1.247 1_655 S
C160 O157 1.244 . S
C160 O158 1.240 . S
H161 C135 0.931 . S
H162 C144 0.931 . S
H163 C148 0.929 . S
H164 C150 0.930 . S
Co165 N169 2.148 . S
Co165 N175 2.128 . S
Co165 N185 2.194 . S
Co165 O190 2.351 . S
Co165 O191 2.155 . S
Co165 O192 2.096 . S
C166 N169 1.301 . S
C166 N170 1.328 . S
C166 H171 0.930 . S
C167 C168 1.333 . S
C167 N169 1.317 . S
C167 H172 0.930 . S
C168 C167 1.333 . S
C168 N170 1.350 . S
C168 H194 0.931 . S
N169 Co165 2.148 . S
N169 C166 1.301 . S
N169 C167 1.317 . S
N170 C166 1.328 . S
N170 C168 1.350 . S
H171 C166 0.930 . S
H172 C167 0.930 . S
C173 O174 1.224 . S
C173 O192 1.247 . S
O174 C173 1.224 . S
N175 Co165 2.128 . S
N175 C176 1.355 . S
N175 C178 1.311 . S
C176 N175 1.355 . S
C176 C177 1.363 . S
C176 H188 0.929 . S
C177 C176 1.363 . S
C177 N179 1.375 . S
C177 H195 0.931 . S
C178 N175 1.311 . S
C178 N179 1.347 . S
C178 H189 0.929 . S
N179 C177 1.375 . S
N179 C178 1.347 . S
C180 C183 1.365 . S
C180 N185 1.328 . S
C180 H186 0.929 . S
C181 C182 1.362 . S
C181 C184 1.378 . S
C181 H196 0.929 . S
C182 C181 1.362 . S
C182 C183 1.366 . S
C183 C180 1.365 . S
C183 C182 1.366 . S
C183 H197 0.930 . S
C184 C181 1.378 . S
C184 N185 1.315 . S
C184 H187 0.930 . S
N185 Co165 2.194 . S
N185 C180 1.328 . S
N185 C184 1.315 . S
H186 C180 0.929 . S
H187 C184 0.930 . S
H188 C176 0.929 . S
H189 C178 0.929 . S
O190 Co165 2.351 . S
O190 C193 1.244 . S
O191 Co165 2.155 . S
O191 C193 1.240 . S
O192 Co165 2.096 . S
O192 C173 1.247 . S
C193 O190 1.244 . S
C193 O191 1.240 . S
H194 C168 0.931 . S
H195 C177 0.931 . S
H196 C181 0.929 . S
H197 C183 0.930 . S
Co198 N202 2.148 . S
Co198 N208 2.128 . S
Co198 N218 2.194 . S
Co198 O223 2.351 . S
Co198 O224 2.155 . S
Co198 O225 2.096 . S
C199 N202 1.301 . S
C199 N203 1.328 . S
C199 H204 0.930 . S
C200 C201 1.333 . S
C200 N202 1.317 . S
C200 H205 0.930 . S
C201 C200 1.333 . S
C201 N203 1.350 . S
C201 H227 0.931 . S
N202 Co198 2.148 . S
N202 C199 1.301 . S
N202 C200 1.317 . S
N203 C199 1.328 . S
N203 C201 1.350 . S
H204 C199 0.930 . S
H205 C200 0.930 . S
C206 O207 1.224 . S
C206 O225 1.247 . S
O207 C206 1.224 . S
N208 Co198 2.128 . S
N208 C209 1.355 . S
N208 C211 1.311 . S
C209 N208 1.355 . S
C209 C210 1.363 . S
C209 H221 0.929 . S
C210 C209 1.363 . S
C210 N212 1.375 . S
C210 H228 0.931 . S
C211 N208 1.311 . S
C211 N212 1.347 . S
C211 H222 0.929 . S
N212 C210 1.375 . S
N212 C211 1.347 . S
C213 C216 1.365 . S
C213 N218 1.328 . S
C213 H219 0.929 . S
C214 C215 1.362 . S
C214 C217 1.378 . S
C214 H229 0.929 . S
C215 C214 1.362 . S
C215 C216 1.366 . S
C216 C213 1.365 . S
C216 C215 1.366 . S
C216 H230 0.930 . S
C217 C214 1.378 . S
C217 N218 1.315 . S
C217 H220 0.930 . S
N218 Co198 2.194 . S
N218 C213 1.328 . S
N218 C217 1.315 . S
H219 C213 0.929 . S
H220 C217 0.930 . S
H221 C209 0.929 . S
H222 C211 0.929 . S
O223 Co198 2.351 . S
O223 C226 1.244 . S
O224 Co198 2.155 . S
O224 C226 1.240 . S
O225 Co198 2.096 . S
O225 C206 1.247 . S
C226 O223 1.244 . S
C226 O224 1.240 . S
H227 C201 0.931 . S
H228 C210 0.931 . S
H229 C214 0.929 . S
H230 C216 0.930 . S
Co231 N235 2.148 . S
Co231 N241 2.128 . S
Co231 N251 2.194 . S
Co231 O256 2.351 . S
Co231 O257 2.155 . S
Co231 O258 2.096 . S
C232 N235 1.301 . S
C232 N236 1.328 . S
C232 H237 0.930 . S
C233 C234 1.333 . S
C233 N235 1.317 . S
C233 H238 0.930 . S
C234 C233 1.333 . S
C234 N236 1.350 . S
C234 H260 0.931 . S
N235 Co231 2.148 . S
N235 C232 1.301 . S
N235 C233 1.317 . S
N236 C232 1.328 . S
N236 C234 1.350 . S
H237 C232 0.930 . S
H238 C233 0.930 . S
C239 O240 1.224 . S
C239 O258 1.247 . S
O240 C239 1.224 . S
N241 Co231 2.128 . S
N241 C242 1.355 . S
N241 C244 1.311 . S
C242 N241 1.355 . S
C242 C243 1.363 . S
C242 H254 0.929 . S
C243 C242 1.363 . S
C243 N245 1.375 . S
C243 H261 0.931 . S
C244 N241 1.311 . S
C244 N245 1.347 . S
C244 H255 0.929 . S
N245 C243 1.375 . S
N245 C244 1.347 . S
C246 C249 1.365 . S
C246 N251 1.328 . S
C246 H252 0.929 . S
C247 C248 1.362 . S
C247 C250 1.378 1_565 S
C247 H262 0.929 . S
C248 C247 1.362 . S
C248 C249 1.366 1_565 S
C249 C246 1.365 . S
C249 C248 1.366 1_545 S
C249 H263 0.930 1_545 S
C250 C247 1.378 1_545 S
C250 N251 1.315 . S
C250 H253 0.930 . S
N251 Co231 2.194 . S
N251 C246 1.328 . S
N251 C250 1.315 . S
H252 C246 0.929 . S
H253 C250 0.930 . S
H254 C242 0.929 . S
H255 C244 0.929 . S
O256 Co231 2.351 . S
O256 C259 1.244 . S
O257 Co231 2.155 . S
O257 C259 1.240 . S
O258 Co231 2.096 . S
O258 C239 1.247 . S
C259 O256 1.244 . S
C259 O257 1.240 . S
H260 C234 0.931 . S
H261 C243 0.931 . S
H262 C247 0.929 . S
H263 C249 0.930 1_565 S
H264 C272 0.929 . S
H265 C274 0.930 . S
H266 C276 0.928 . S
H267 C279 0.929 . S
H268 C282 0.930 . S
H269 C284 0.960 . S
H270 C284 0.960 . S
H271 C284 0.960 . S
C272 H264 0.929 . S
C272 C273 1.377 . S
C272 C274 1.384 . S
C273 C272 1.377 . S
C273 C279 1.390 . S
C274 H265 0.930 . S
C274 C272 1.384 . S
C274 C275 1.372 . S
C275 C274 1.372 . S
C275 C276 1.400 1_565 S
C275 C280 1.490 1_565 S
C276 H266 0.928 . S
C276 C275 1.400 1_545 S
C276 C279 1.387 1_545 S
H277 C293 0.930 . S
H278 C294 0.931 . S
C279 H267 0.929 . S
C279 C273 1.390 . S
C279 C276 1.387 1_565 S
C280 C275 1.490 1_545 S
C280 C282 1.395 . S
C280 C283 1.403 . S
H281 C287 0.930 . S
C282 H268 0.930 . S
C282 C280 1.395 . S
C282 C285 1.403 . S
C283 C280 1.403 . S
C283 C284 1.524 1_455 S
C283 C287 1.400 . S
C284 H269 0.960 . S
C284 H270 0.960 . S
C284 H271 0.960 . S
C284 C283 1.524 1_655 S
C285 C282 1.403 . S
C285 C286 1.392 . S
C285 C289 1.495 . S
C286 C285 1.392 . S
C286 C287 1.385 . S
C286 C288 1.478 . S
C287 H281 0.930 . S
C287 C283 1.400 . S
C287 C286 1.385 . S
C288 C286 1.478 . S
C288 C290 1.381 . S
C288 C294 1.383 . S
C289 C285 1.495 . S
C289 H295 0.959 . S
C289 H296 0.961 . S
C289 H297 0.960 . S
C290 C288 1.381 . S
C290 C291 1.394 . S
C290 H298 0.930 . S
C291 C290 1.394 . S
C291 C292 1.383 . S
C291 H299 0.929 . S
C292 C291 1.383 . S
C292 C293 1.377 . S
C293 H277 0.930 . S
C293 C292 1.377 . S
C293 C294 1.379 . S
C294 H278 0.931 . S
C294 C288 1.383 . S
C294 C293 1.379 . S
H295 C289 0.959 . S
H296 C289 0.961 . S
H297 C289 0.960 . S
H298 C290 0.930 . S
H299 C291 0.929 . S
H300 C308 0.929 . S
H301 C310 0.921 1_455 S
H302 C312 0.930 . S
H303 C315 0.929 . S
H304 C318 0.930 . S
H305 C320 0.960 . S
H306 C320 0.960 . S
H307 C320 0.960 . S
C308 H300 0.929 . S
C308 C309 1.377 . S
C308 C310 1.392 . S
C309 C308 1.377 . S
C309 C315 1.390 . S
C310 H301 0.921 1_655 S
C310 C308 1.392 . S
C310 C311 1.373 . S
C311 C310 1.373 . S
C311 C312 1.400 . S
C311 C316 1.490 1_655 S
C312 H302 0.930 . S
C312 C311 1.400 . S
C312 C315 1.386 . S
H313 C329 0.930 . S
H314 C330 0.931 . S
C315 H303 0.929 . S
C315 C309 1.390 . S
C315 C312 1.386 . S
C316 C311 1.490 1_455 S
C316 C318 1.395 . S
C316 C319 1.403 1_554 S
H317 C323 0.930 . S
C318 H304 0.930 . S
C318 C316 1.395 . S
C318 C321 1.403 . S
C319 C316 1.403 1_556 S
C319 C320 1.524 1_455 S
C319 C323 1.400 . S
C320 H305 0.960 . S
C320 H306 0.960 . S
C320 H307 0.960 . S
C320 C319 1.524 1_655 S
C321 C318 1.403 . S
C321 C322 1.392 1_554 S
C321 C325 1.495 . S
C322 C321 1.392 1_556 S
C322 C323 1.385 . S
C322 C324 1.478 . S
C323 H317 0.930 . S
C323 C319 1.400 . S
C323 C322 1.385 . S
C324 C322 1.478 . S
C324 C326 1.381 . S
C324 C330 1.383 . S
C325 C321 1.495 . S
C325 H331 0.959 . S
C325 H332 0.961 . S
C325 H333 0.960 . S
C326 C324 1.381 . S
C326 C327 1.394 . S
C326 H334 0.930 . S
C327 C326 1.394 . S
C327 C328 1.383 . S
C327 H335 0.929 . S
C328 C327 1.383 . S
C328 C329 1.377 . S
C329 H313 0.930 . S
C329 C328 1.377 . S
C329 C330 1.379 . S
C330 H314 0.931 . S
C330 C324 1.383 . S
C330 C329 1.379 . S
H331 C325 0.959 . S
H332 C325 0.961 . S
H333 C325 0.960 . S
H334 C326 0.930 . S
H335 C327 0.929 . S
H336 C344 0.929 . S
H337 C346 0.930 . S
H338 C348 0.930 . S
H339 C351 0.929 . S
H340 C354 0.930 . S
H341 C356 0.960 . S
H342 C356 0.960 . S
H343 C356 0.960 . S
C344 H336 0.929 . S
C344 C345 1.377 . S
C344 C346 1.384 . S
C345 C344 1.377 . S
C345 C351 1.390 . S
C346 H337 0.930 . S
C346 C344 1.384 . S
C346 C347 1.372 . S
C347 C346 1.372 . S
C347 C348 1.400 . S
C347 C352 1.490 . S
C348 H338 0.930 . S
C348 C347 1.400 . S
C348 C351 1.386 . S
H349 C365 0.930 . S
H350 C366 0.931 . S
C351 H339 0.929 . S
C351 C345 1.390 . S
C351 C348 1.386 . S
C352 C347 1.490 . S
C352 C354 1.395 . S
C352 C355 1.403 . S
H353 C359 0.930 . S
C354 H340 0.930 . S
C354 C352 1.395 . S
C354 C357 1.403 . S
C355 C352 1.403 . S
C355 C356 1.524 . S
C355 C359 1.400 . S
C356 H341 0.960 . S
C356 H342 0.960 . S
C356 H343 0.960 . S
C356 C355 1.524 . S
C357 C354 1.403 . S
C357 C358 1.392 . S
C357 C361 1.495 . S
C358 C357 1.392 . S
C358 C359 1.385 . S
C358 C360 1.478 . S
C359 H353 0.930 . S
C359 C355 1.400 . S
C359 C358 1.385 . S
C360 C358 1.478 . S
C360 C362 1.381 . S
C360 C366 1.383 . S
C361 C357 1.495 . S
C361 H367 0.959 . S
C361 H368 0.961 . S
C361 H369 0.960 . S
C362 C360 1.381 . S
C362 C363 1.394 . S
C362 H370 0.930 . S
C363 C362 1.394 . S
C363 C364 1.383 . S
C363 H371 0.929 . S
C364 C363 1.383 . S
C364 C365 1.377 . S
C365 H349 0.930 . S
C365 C364 1.377 . S
C365 C366 1.379 . S
C366 H350 0.931 . S
C366 C360 1.383 . S
C366 C365 1.379 . S
H367 C361 0.959 . S
H368 C361 0.961 . S
H369 C361 0.960 . S
H370 C362 0.930 . S
H371 C363 0.929 . S
H372 C380 0.929 . S
H373 C382 0.930 . S
H374 C384 0.930 . S
H375 C387 0.929 . S
H376 C390 0.930 . S
H377 C392 0.960 . S
H378 C392 0.960 . S
H379 C392 0.960 . S
C380 H372 0.929 . S
C380 C381 1.377 . S
C380 C382 1.384 . S
C381 C380 1.377 . S
C381 C387 1.390 . S
C382 H373 0.930 . S
C382 C380 1.384 . S
C382 C383 1.372 . S
C383 C382 1.372 . S
C383 C384 1.400 . S
C383 C388 1.490 . S
C384 H374 0.930 . S
C384 C383 1.400 . S
C384 C387 1.386 . S
H385 C401 0.930 . S
H386 C402 0.931 . S
C387 H375 0.929 . S
C387 C381 1.390 . S
C387 C384 1.386 . S
C388 C383 1.490 . S
C388 C390 1.395 . S
C388 C391 1.403 1_556 S
H389 C395 0.930 . S
C390 H376 0.930 . S
C390 C388 1.395 . S
C390 C393 1.403 . S
C391 C388 1.403 1_554 S
C391 C392 1.524 . S
C391 C395 1.400 . S
C392 H377 0.960 . S
C392 H378 0.960 . S
C392 H379 0.960 . S
C392 C391 1.524 . S
C393 C390 1.403 . S
C393 C394 1.392 1_556 S
C393 C397 1.495 . S
C394 C393 1.392 1_554 S
C394 C395 1.385 . S
C394 C396 1.478 . S
C395 H389 0.930 . S
C395 C391 1.400 . S
C395 C394 1.385 . S
C396 C394 1.478 . S
C396 C398 1.381 . S
C396 C402 1.383 . S
C397 C393 1.495 . S
C397 H403 0.959 . S
C397 H404 0.961 . S
C397 H405 0.960 . S
C398 C396 1.381 . S
C398 C399 1.394 1_545 S
C398 H406 0.930 1_545 S
C399 C398 1.394 1_565 S
C399 C400 1.383 1_565 S
C399 H407 0.929 . S
C400 C399 1.383 1_545 S
C400 C401 1.377 . S
C401 H385 0.930 . S
C401 C400 1.377 . S
C401 C402 1.379 . S
C402 H386 0.931 . S
C402 C396 1.383 . S
C402 C401 1.379 . S
H403 C397 0.959 . S
H404 C397 0.961 . S
H405 C397 0.960 . S
H406 C398 0.930 1_565 S
H407 C399 0.929 . S
H408 C416 0.929 . S
H409 C418 0.930 . S
H410 C420 0.930 . S
H411 C423 0.929 . S
H412 C426 0.930 . S
H413 C428 0.960 . S
H414 C428 0.960 . S
H415 C428 0.960 . S
C416 H408 0.929 . S
C416 C417 1.377 . S
C416 C418 1.384 . S
C417 C416 1.377 . S
C417 C423 1.390 . S
C418 H409 0.930 . S
C418 C416 1.384 . S
C418 C419 1.372 . S
C419 C418 1.372 . S
C419 C420 1.400 . S
C419 C424 1.490 . S
C420 H410 0.930 . S
C420 C419 1.400 . S
C420 C423 1.386 . S
H421 C437 0.930 . S
H422 C438 0.931 . S
C423 H411 0.929 . S
C423 C417 1.390 . S
C423 C420 1.386 . S
C424 C419 1.490 . S
C424 C426 1.395 . S
C424 C427 1.403 . S
H425 C431 0.930 . S
C426 H412 0.930 . S
C426 C424 1.395 . S
C426 C429 1.403 . S
C427 C424 1.403 . S
C427 C428 1.524 . S
C427 C431 1.400 . S
C428 H413 0.960 . S
C428 H414 0.960 . S
C428 H415 0.960 . S
C428 C427 1.524 . S
C429 C426 1.403 . S
C429 C430 1.392 . S
C429 C433 1.495 . S
C430 C429 1.392 . S
C430 C431 1.385 . S
C430 C432 1.478 . S
C431 H425 0.930 . S
C431 C427 1.400 . S
C431 C430 1.385 . S
C432 C430 1.478 . S
C432 C434 1.381 . S
C432 C438 1.383 . S
C433 C429 1.495 . S
C433 H439 0.959 . S
C433 H440 0.961 . S
C433 H441 0.960 . S
C434 C432 1.381 . S
C434 C435 1.394 . S
C434 H442 0.930 . S
C435 C434 1.394 . S
C435 C436 1.383 . S
C435 H443 0.929 . S
C436 C435 1.383 . S
C436 C437 1.377 . S
C437 H421 0.930 . S
C437 C436 1.377 . S
C437 C438 1.379 . S
C438 H422 0.931 . S
C438 C432 1.383 . S
C438 C437 1.379 . S
H439 C433 0.959 . S
H440 C433 0.961 . S
H441 C433 0.960 . S
H442 C434 0.930 . S
H443 C435 0.929 . S
H444 C452 0.929 . S
H445 C454 0.930 . S
H446 C456 0.930 . S
H447 C459 0.929 . S
H448 C462 0.930 . S
H449 C464 0.960 . S
H450 C464 0.960 . S
H451 C464 0.960 . S
C452 H444 0.929 . S
C452 C453 1.377 1_455 S
C452 C454 1.384 . S
C453 C452 1.377 1_655 S
C453 C459 1.390 . S
C454 H445 0.930 . S
C454 C452 1.384 . S
C454 C455 1.372 1_455 S
C455 C454 1.372 1_655 S
C455 C456 1.400 . S
C455 C460 1.490 . S
C456 H446 0.930 . S
C456 C455 1.400 . S
C456 C459 1.386 . S
H457 C473 0.930 . S
H458 C474 0.931 . S
C459 H447 0.929 . S
C459 C453 1.390 . S
C459 C456 1.386 . S
C460 C455 1.490 . S
C460 C462 1.395 . S
C460 C463 1.403 . S
H461 C467 0.930 . S
C462 H448 0.930 . S
C462 C460 1.395 . S
C462 C465 1.403 . S
C463 C460 1.403 . S
C463 C464 1.524 . S
C463 C467 1.400 . S
C464 H449 0.960 . S
C464 H450 0.960 . S
C464 H451 0.960 . S
C464 C463 1.524 . S
C465 C462 1.403 . S
C465 C466 1.392 . S
C465 C469 1.495 . S
C466 C465 1.392 . S
C466 C467 1.385 . S
C466 C468 1.478 . S
C467 H461 0.930 . S
C467 C463 1.400 . S
C467 C466 1.385 . S
C468 C466 1.478 . S
C468 C470 1.381 . S
C468 C474 1.383 . S
C469 C465 1.495 . S
C469 H475 0.959 . S
C469 H476 0.961 . S
C469 H477 0.960 . S
C470 C468 1.381 . S
C470 C471 1.394 . S
C470 H478 0.930 . S
C471 C470 1.394 . S
C471 C472 1.383 . S
C471 H479 0.929 . S
C472 C471 1.383 . S
C472 C473 1.377 . S
C473 H457 0.930 . S
C473 C472 1.377 . S
C473 C474 1.379 . S
C474 H458 0.931 . S
C474 C468 1.383 . S
C474 C473 1.379 . S
H475 C469 0.959 . S
H476 C469 0.961 . S
H477 C469 0.960 . S
H478 C470 0.930 . S
H479 C471 0.929 . S
H480 C488 0.929 . S
H481 C490 0.930 . S
H482 C492 0.930 . S
H483 C495 0.929 . S
H484 C498 0.930 . S
H485 C500 0.960 . S
H486 C500 0.960 . S
H487 C500 0.960 . S
C488 H480 0.929 . S
C488 C489 1.377 . S
C488 C490 1.384 . S
C489 C488 1.377 . S
C489 C495 1.390 . S
C490 H481 0.930 . S
C490 C488 1.384 . S
C490 C491 1.372 . S
C491 C490 1.372 . S
C491 C492 1.400 . S
C491 C496 1.490 . S
C492 H482 0.930 . S
C492 C491 1.400 . S
C492 C495 1.386 . S
H493 C509 0.930 . S
H494 C510 0.931 . S
C495 H483 0.929 . S
C495 C489 1.390 . S
C495 C492 1.386 . S
C496 C491 1.490 . S
C496 C498 1.395 . S
C496 C499 1.403 . S
H497 C503 0.930 . S
C498 H484 0.930 . S
C498 C496 1.395 . S
C498 C501 1.403 . S
C499 C496 1.403 . S
C499 C500 1.524 . S
C499 C503 1.400 . S
C500 H485 0.960 . S
C500 H486 0.960 . S
C500 H487 0.960 . S
C500 C499 1.524 . S
C501 C498 1.403 . S
C501 C502 1.392 . S
C501 C505 1.495 . S
C502 C501 1.392 . S
C502 C503 1.385 . S
C502 C504 1.478 . S
C503 H497 0.930 . S
C503 C499 1.400 . S
C503 C502 1.385 . S
C504 C502 1.478 . S
C504 C506 1.381 . S
C504 C510 1.383 . S
C505 C501 1.495 . S
C505 H511 0.959 . S
C505 H512 0.961 . S
C505 H513 0.960 . S
C506 C504 1.381 . S
C506 C507 1.394 . S
C506 H514 0.930 . S
C507 C506 1.394 . S
C507 C508 1.383 . S
C507 H515 0.929 . S
C508 C507 1.383 . S
C508 C509 1.377 . S
C509 H493 0.930 . S
C509 C508 1.377 . S
C509 C510 1.379 . S
C510 H494 0.931 . S
C510 C504 1.383 . S
C510 C509 1.379 . S
H511 C505 0.959 . S
H512 C505 0.961 . S
H513 C505 0.960 . S
H514 C506 0.930 . S
H515 C507 0.929 . S
H516 C524 0.929 . S
H517 C526 0.930 . S
H518 C528 0.930 . S
H519 C531 0.929 . S
H520 C534 0.930 . S
H521 C536 0.960 . S
H522 C536 0.960 . S
H523 C536 0.960 . S
C524 H516 0.929 . S
C524 C525 1.377 . S
C524 C526 1.384 . S
C525 C524 1.377 . S
C525 C531 1.390 . S
C526 H517 0.930 . S
C526 C524 1.384 . S
C526 C527 1.372 . S
C527 C526 1.372 . S
C527 C528 1.400 . S
C527 C532 1.490 . S
C528 H518 0.930 . S
C528 C527 1.400 . S
C528 C531 1.386 . S
H529 C545 0.930 . S
H530 C546 0.931 1_545 S
C531 H519 0.929 . S
C531 C525 1.390 . S
C531 C528 1.386 . S
C532 C527 1.490 . S
C532 C534 1.395 . S
C532 C535 1.403 . S
H533 C539 0.930 . S
C534 H520 0.930 . S
C534 C532 1.395 . S
C534 C537 1.403 . S
C535 C532 1.403 . S
C535 C536 1.524 . S
C535 C539 1.400 . S
C536 H521 0.960 . S
C536 H522 0.960 . S
C536 H523 0.960 . S
C536 C535 1.524 . S
C537 C534 1.403 . S
C537 C538 1.392 . S
C537 C541 1.495 . S
C538 C537 1.392 . S
C538 C539 1.385 . S
C538 C540 1.478 . S
C539 H533 0.930 . S
C539 C535 1.400 . S
C539 C538 1.385 . S
C540 C538 1.478 . S
C540 C542 1.381 . S
C540 C546 1.383 . S
C541 C537 1.495 . S
C541 H547 0.959 . S
C541 H548 0.961 . S
C541 H549 0.960 . S
C542 C540 1.381 . S
C542 C543 1.394 . S
C542 H550 0.930 . S
C543 C542 1.394 . S
C543 C544 1.383 . S
C543 H551 0.929 . S
C544 C543 1.383 . S
C544 C545 1.377 1_565 S
C545 H529 0.930 . S
C545 C544 1.377 1_545 S
C545 C546 1.379 1_545 S
C546 H530 0.931 1_565 S
C546 C540 1.383 . S
C546 C545 1.379 1_565 S
H547 C541 0.959 . S
H548 C541 0.961 . S
H549 C541 0.960 . S
H550 C542 0.930 . S
H551 C543 0.929 . S
H552 C560 0.929 . S
H553 C562 0.930 . S
H554 C564 0.926 1_455 S
H555 C567 0.929 . S
H556 C570 0.930 . S
H557 C572 0.960 . S
H558 C572 0.960 . S
H559 C572 0.960 . S
C560 H552 0.929 . S
C560 C561 1.377 . S
C560 C562 1.384 . S
C561 C560 1.377 . S
C561 C567 1.390 1_655 S
C562 H553 0.930 . S
C562 C560 1.384 . S
C562 C563 1.372 . S
C563 C562 1.372 . S
C563 C564 1.407 . S
C563 C568 1.490 . S
C564 H554 0.926 1_655 S
C564 C563 1.407 . S
C564 C567 1.382 1_655 S
H565 C581 0.932 . S
H566 C582 0.931 . S
C567 H555 0.929 . S
C567 C561 1.390 1_455 S
C567 C564 1.382 1_455 S
C568 C563 1.490 . S
C568 C570 1.395 . S
C568 C571 1.403 . S
H569 C575 0.930 . S
C570 H556 0.930 . S
C570 C568 1.395 . S
C570 C573 1.403 . S
C571 C568 1.403 . S
C571 C572 1.524 . S
C571 C575 1.400 . S
C572 H557 0.960 . S
C572 H558 0.960 . S
C572 H559 0.960 . S
C572 C571 1.524 . S
C573 C570 1.403 . S
C573 C574 1.392 . S
C573 C577 1.495 1_565 S
C574 C573 1.392 . S
C574 C575 1.385 . S
C574 C576 1.478 . S
C575 H569 0.930 . S
C575 C571 1.400 . S
C575 C574 1.385 . S
C576 C574 1.478 . S
C576 C578 1.381 . S
C576 C582 1.383 . S
C577 C573 1.495 1_545 S
C577 H583 0.959 . S
C577 H584 0.961 . S
C577 H585 0.960 . S
C578 C576 1.381 . S
C578 C579 1.394 . S
C578 H586 0.930 . S
C579 C578 1.394 . S
C579 C580 1.383 . S
C579 H587 0.929 . S
C580 C579 1.383 . S
C580 C581 1.377 . S
C581 H565 0.932 . S
C581 C580 1.377 . S
C581 C582 1.379 . S
C582 H566 0.931 . S
C582 C576 1.383 . S
C582 C581 1.379 . S
H583 C577 0.959 . S
H584 C577 0.961 . S
H585 C577 0.960 . S
H586 C578 0.930 . S
H587 C579 0.929 . S
H588 C596 0.929 . S
H589 C598 0.930 . S
H590 C600 0.930 . S
H591 C603 0.929 . S
H592 C606 0.930 . S
H593 C608 0.960 . S
H594 C608 0.960 . S
H595 C608 0.960 . S
C596 H588 0.929 . S
C596 C597 1.377 . S
C596 C598 1.384 . S
C597 C596 1.377 . S
C597 C603 1.390 . S
C598 H589 0.930 . S
C598 C596 1.384 . S
C598 C599 1.372 . S
C599 C598 1.372 . S
C599 C600 1.400 . S
C599 C604 1.490 . S
C600 H590 0.930 . S
C600 C599 1.400 . S
C600 C603 1.386 . S
H601 C617 0.930 . S
H602 C618 0.931 . S
C603 H591 0.929 . S
C603 C597 1.390 . S
C603 C600 1.386 . S
C604 C599 1.490 . S
C604 C606 1.395 . S
C604 C607 1.403 . S
H605 C611 0.930 . S
C606 H592 0.930 . S
C606 C604 1.395 . S
C606 C609 1.403 . S
C607 C604 1.403 . S
C607 C608 1.524 . S
C607 C611 1.400 . S
C608 H593 0.960 . S
C608 H594 0.960 . S
C608 H595 0.960 . S
C608 C607 1.524 . S
C609 C606 1.403 . S
C609 C610 1.392 . S
C609 C613 1.495 . S
C610 C609 1.392 . S
C610 C611 1.385 . S
C610 C612 1.478 . S
C611 H605 0.930 . S
C611 C607 1.400 . S
C611 C610 1.385 . S
C612 C610 1.478 . S
C612 C614 1.381 . S
C612 C618 1.383 . S
C613 C609 1.495 . S
C613 H619 0.959 . S
C613 H620 0.961 . S
C613 H621 0.960 . S
C614 C612 1.381 . S
C614 C615 1.394 . S
C614 H622 0.930 . S
C615 C614 1.394 . S
C615 C616 1.383 . S
C615 H623 0.929 . S
C616 C615 1.383 . S
C616 C617 1.377 . S
C617 H601 0.930 . S
C617 C616 1.377 . S
C617 C618 1.379 . S
C618 H602 0.931 . S
C618 C612 1.383 . S
C618 C617 1.379 . S
H619 C613 0.959 . S
H620 C613 0.961 . S
H621 C613 0.960 . S
H622 C614 0.930 . S
H623 C615 0.929 . S
H624 C632 0.929 . S
H625 C634 0.930 . S
H626 C636 0.930 . S
H627 C639 0.929 . S
H628 C642 0.930 . S
H629 C644 0.960 . S
H630 C644 0.960 . S
H631 C644 0.960 . S
C632 H624 0.929 . S
C632 C633 1.377 . S
C632 C634 1.384 . S
C633 C632 1.377 . S
C633 C639 1.390 . S
C634 H625 0.930 . S
C634 C632 1.384 . S
C634 C635 1.372 . S
C635 C634 1.372 . S
C635 C636 1.400 . S
C635 C640 1.490 . S
C636 H626 0.930 . S
C636 C635 1.400 . S
C636 C639 1.386 . S
H637 C653 0.930 . S
H638 C654 0.931 . S
C639 H627 0.929 . S
C639 C633 1.390 . S
C639 C636 1.386 . S
C640 C635 1.490 . S
C640 C642 1.395 . S
C640 C643 1.403 . S
H641 C647 0.930 . S
C642 H628 0.930 . S
C642 C640 1.395 . S
C642 C645 1.403 . S
C643 C640 1.403 . S
C643 C644 1.524 . S
C643 C647 1.400 . S
C644 H629 0.960 . S
C644 H630 0.960 . S
C644 H631 0.960 . S
C644 C643 1.524 . S
C645 C642 1.403 . S
C645 C646 1.392 . S
C645 C649 1.495 . S
C646 C645 1.392 . S
C646 C647 1.385 . S
C646 C648 1.478 . S
C647 H641 0.930 . S
C647 C643 1.400 . S
C647 C646 1.385 . S
C648 C646 1.478 . S
C648 C650 1.381 . S
C648 C654 1.383 . S
C649 C645 1.495 . S
C649 H655 0.959 . S
C649 H656 0.961 . S
C649 H657 0.960 . S
C650 C648 1.381 . S
C650 C651 1.394 . S
C650 H658 0.930 . S
C651 C650 1.394 . S
C651 C652 1.383 . S
C651 H659 0.929 . S
C652 C651 1.383 . S
C652 C653 1.377 . S
C653 H637 0.930 . S
C653 C652 1.377 . S
C653 C654 1.379 . S
C654 H638 0.931 . S
C654 C648 1.383 . S
C654 C653 1.379 . S
H655 C649 0.959 . S
H656 C649 0.961 . S
H657 C649 0.960 . S
H658 C650 0.930 . S
H659 C651 0.929 . S
H660 C668 0.929 . S
H661 C670 0.930 . S
H662 C672 0.930 . S
H663 C675 0.929 . S
H664 C678 0.930 . S
H665 C680 0.960 . S
H666 C680 0.960 . S
H667 C680 0.960 . S
C668 H660 0.929 . S
C668 C669 1.377 . S
C668 C670 1.384 . S
C669 C668 1.377 . S
C669 C675 1.390 . S
C670 H661 0.930 . S
C670 C668 1.384 . S
C670 C671 1.372 . S
C671 C670 1.372 . S
C671 C672 1.400 . S
C671 C676 1.490 . S
C672 H662 0.930 . S
C672 C671 1.400 . S
C672 C675 1.386 . S
H673 C689 0.930 . S
H674 C690 0.931 . S
C675 H663 0.929 . S
C675 C669 1.390 . S
C675 C672 1.386 . S
C676 C671 1.490 . S
C676 C678 1.395 . S
C676 C679 1.403 . S
H677 C683 0.930 . S
C678 H664 0.930 . S
C678 C676 1.395 . S
C678 C681 1.403 . S
C679 C676 1.403 . S
C679 C680 1.524 . S
C679 C683 1.400 . S
C680 H665 0.960 . S
C680 H666 0.960 . S
C680 H667 0.960 . S
C680 C679 1.524 . S
C681 C678 1.403 . S
C681 C682 1.392 . S
C681 C685 1.495 . S
C682 C681 1.392 . S
C682 C683 1.385 . S
C682 C684 1.478 . S
C683 H677 0.930 . S
C683 C679 1.400 . S
C683 C682 1.385 . S
C684 C682 1.478 . S
C684 C686 1.381 . S
C684 C690 1.383 . S
C685 C681 1.495 . S
C685 H691 0.959 . S
C685 H692 0.961 . S
C685 H693 0.960 . S
C686 C684 1.381 . S
C686 C687 1.394 . S
C686 H694 0.930 . S
C687 C686 1.394 . S
C687 C688 1.383 . S
C687 H695 0.929 . S
C688 C687 1.383 . S
C688 C689 1.377 . S
C689 H673 0.930 . S
C689 C688 1.377 . S
C689 C690 1.379 . S
C690 H674 0.931 . S
C690 C684 1.383 . S
C690 C689 1.379 . S
H691 C685 0.959 . S
H692 C685 0.961 . S
H693 C685 0.960 . S
H694 C686 0.930 . S
H695 C687 0.929 . S
H696 C704 0.929 . S
H697 C706 0.930 . S
H698 C708 0.930 . S
H699 C711 0.929 . S
H700 C714 0.930 . S
H701 C716 0.960 . S
H702 C716 0.960 . S
H703 C716 0.960 . S
C704 H696 0.929 . S
C704 C705 1.377 . S
C704 C706 1.384 . S
C705 C704 1.377 . S
C705 C711 1.390 . S
C706 H697 0.930 . S
C706 C704 1.384 . S
C706 C707 1.372 . S
C707 C706 1.372 . S
C707 C708 1.400 . S
C707 C712 1.490 . S
C708 H698 0.930 . S
C708 C707 1.400 . S
C708 C711 1.386 . S
H709 C725 0.930 . S
H710 C726 0.931 . S
C711 H699 0.929 . S
C711 C705 1.390 . S
C711 C708 1.386 . S
C712 C707 1.490 . S
C712 C714 1.395 . S
C712 C715 1.403 . S
H713 C719 0.930 . S
C714 H700 0.930 . S
C714 C712 1.395 . S
C714 C717 1.403 . S
C715 C712 1.403 . S
C715 C716 1.524 . S
C715 C719 1.400 . S
C716 H701 0.960 . S
C716 H702 0.960 . S
C716 H703 0.960 . S
C716 C715 1.524 . S
C717 C714 1.403 . S
C717 C718 1.392 . S
C717 C721 1.495 . S
C718 C717 1.392 . S
C718 C719 1.385 . S
C718 C720 1.478 . S
C719 H713 0.930 . S
C719 C715 1.400 . S
C719 C718 1.385 . S
C720 C718 1.478 . S
C720 C722 1.381 . S
C720 C726 1.383 . S
C721 C717 1.495 . S
C721 H727 0.959 . S
C721 H728 0.961 . S
C721 H729 0.960 . S
C722 C720 1.381 . S
C722 C723 1.394 . S
C722 H730 0.930 . S
C723 C722 1.394 . S
C723 C724 1.383 . S
C723 H731 0.929 . S
C724 C723 1.383 . S
C724 C725 1.377 . S
C725 H709 0.930 . S
C725 C724 1.377 . S
C725 C726 1.379 . S
C726 H710 0.931 . S
C726 C720 1.383 . S
C726 C725 1.379 . S
H727 C721 0.959 . S
H728 C721 0.961 . S
H729 C721 0.960 . S
H730 C722 0.930 . S
H731 C723 0.929 . S
H732 C740 0.929 . S
H733 C742 0.930 . S
H734 C744 0.930 . S
H735 C747 0.929 . S
H736 C750 0.930 . S
H737 C752 0.960 . S
H738 C752 0.960 . S
H739 C752 0.960 . S
C740 H732 0.929 . S
C740 C741 1.377 . S
C740 C742 1.384 . S
C741 C740 1.377 . S
C741 C747 1.390 . S
C742 H733 0.930 . S
C742 C740 1.384 . S
C742 C743 1.372 . S
C743 C742 1.372 . S
C743 C744 1.400 . S
C743 C748 1.490 . S
C744 H734 0.930 . S
C744 C743 1.400 . S
C744 C747 1.386 . S
H745 C761 0.930 . S
H746 C762 0.931 . S
C747 H735 0.929 . S
C747 C741 1.390 . S
C747 C744 1.386 . S
C748 C743 1.490 . S
C748 C750 1.395 . S
C748 C751 1.403 . S
H749 C755 0.930 . S
C750 H736 0.930 . S
C750 C748 1.395 . S
C750 C753 1.403 . S
C751 C748 1.403 . S
C751 C752 1.524 . S
C751 C755 1.400 . S
C752 H737 0.960 . S
C752 H738 0.960 . S
C752 H739 0.960 . S
C752 C751 1.524 . S
C753 C750 1.403 . S
C753 C754 1.392 . S
C753 C757 1.495 . S
C754 C753 1.392 . S
C754 C755 1.385 . S
C754 C756 1.478 . S
C755 H749 0.930 . S
C755 C751 1.400 . S
C755 C754 1.385 . S
C756 C754 1.478 . S
C756 C758 1.381 . S
C756 C762 1.383 . S
C757 C753 1.495 . S
C757 H763 0.959 . S
C757 H764 0.961 . S
C757 H765 0.960 . S
C758 C756 1.381 . S
C758 C759 1.394 . S
C758 H766 0.930 . S
C759 C758 1.394 . S
C759 C760 1.383 . S
C759 H767 0.929 . S
C760 C759 1.383 . S
C760 C761 1.377 . S
C761 H745 0.930 . S
C761 C760 1.377 . S
C761 C762 1.379 . S
C762 H746 0.931 . S
C762 C756 1.383 . S
C762 C761 1.379 . S
H763 C757 0.959 . S
H764 C757 0.961 . S
H765 C757 0.960 . S
H766 C758 0.930 . S
H767 C759 0.929 . S
H768 C776 0.929 . S
H769 C778 0.930 . S
H770 C780 0.930 . S
H771 C783 0.929 . S
H772 C786 0.930 . S
H773 C788 0.960 . S
H774 C788 0.960 . S
H775 C788 0.960 . S
C776 H768 0.929 . S
C776 C777 1.377 . S
C776 C778 1.384 . S
C777 C776 1.377 . S
C777 C783 1.390 . S
C778 H769 0.930 . S
C778 C776 1.384 . S
C778 C779 1.372 . S
C779 C778 1.372 . S
C779 C780 1.400 . S
C779 C784 1.490 . S
C780 H770 0.930 . S
C780 C779 1.400 . S
C780 C783 1.386 . S
H781 C797 0.930 . S
H782 C798 0.931 . S
C783 H771 0.929 . S
C783 C777 1.390 . S
C783 C780 1.386 . S
C784 C779 1.490 . S
C784 C786 1.395 . S
C784 C787 1.403 . S
H785 C791 0.930 . S
C786 H772 0.930 . S
C786 C784 1.395 . S
C786 C789 1.403 . S
C787 C784 1.403 . S
C787 C788 1.524 . S
C787 C791 1.400 . S
C788 H773 0.960 . S
C788 H774 0.960 . S
C788 H775 0.960 . S
C788 C787 1.524 . S
C789 C786 1.403 . S
C789 C790 1.392 . S
C789 C793 1.495 . S
C790 C789 1.392 . S
C790 C791 1.385 . S
C790 C792 1.478 . S
C791 H785 0.930 . S
C791 C787 1.400 . S
C791 C790 1.385 . S
C792 C790 1.478 . S
C792 C794 1.381 . S
C792 C798 1.383 . S
C793 C789 1.495 . S
C793 H799 0.959 . S
C793 H800 0.961 . S
C793 H801 0.960 . S
C794 C792 1.381 . S
C794 C795 1.394 . S
C794 H802 0.930 . S
C795 C794 1.394 . S
C795 C796 1.383 . S
C795 H803 0.929 . S
C796 C795 1.383 . S
C796 C797 1.377 . S
C797 H781 0.930 . S
C797 C796 1.377 . S
C797 C798 1.379 . S
C798 H782 0.931 . S
C798 C792 1.383 . S
C798 C797 1.379 . S
H799 C793 0.959 . S
H800 C793 0.961 . S
H801 C793 0.960 . S
H802 C794 0.930 . S
H803 C795 0.929 . S
H804 C812 0.929 . S
H805 C814 0.930 . S
H806 C816 0.930 . S
H807 C819 0.929 . S
H808 C822 0.930 . S
H809 C824 0.960 . S
H810 C824 0.960 . S
H811 C824 0.960 . S
C812 H804 0.929 . S
C812 C813 1.377 . S
C812 C814 1.384 . S
C813 C812 1.377 . S
C813 C819 1.390 . S
C814 H805 0.930 . S
C814 C812 1.384 . S
C814 C815 1.372 . S
C815 C814 1.372 . S
C815 C816 1.400 . S
C815 C820 1.490 . S
C816 H806 0.930 . S
C816 C815 1.400 . S
C816 C819 1.386 . S
H817 C833 0.930 . S
H818 C834 0.931 . S
C819 H807 0.929 . S
C819 C813 1.390 . S
C819 C816 1.386 . S
C820 C815 1.490 . S
C820 C822 1.395 . S
C820 C823 1.403 . S
H821 C827 0.930 . S
C822 H808 0.930 . S
C822 C820 1.395 . S
C822 C825 1.403 . S
C823 C820 1.403 . S
C823 C824 1.524 . S
C823 C827 1.400 . S
C824 H809 0.960 . S
C824 H810 0.960 . S
C824 H811 0.960 . S
C824 C823 1.524 . S
C825 C822 1.403 . S
C825 C826 1.392 . S
C825 C829 1.495 . S
C826 C825 1.392 . S
C826 C827 1.385 . S
C826 C828 1.478 . S
C827 H821 0.930 . S
C827 C823 1.400 . S
C827 C826 1.385 . S
C828 C826 1.478 . S
C828 C830 1.381 . S
C828 C834 1.383 . S
C829 C825 1.495 . S
C829 H835 0.959 . S
C829 H836 0.961 . S
C829 H837 0.960 . S
C830 C828 1.381 . S
C830 C831 1.394 . S
C830 H838 0.930 . S
C831 C830 1.394 . S
C831 C832 1.383 . S
C831 H839 0.929 . S
C832 C831 1.383 . S
C832 C833 1.377 . S
C833 H817 0.930 . S
C833 C832 1.377 . S
C833 C834 1.379 . S
C834 H818 0.931 . S
C834 C828 1.383 . S
C834 C833 1.379 . S
H835 C829 0.959 . S
H836 C829 0.961 . S
H837 C829 0.960 . S
H838 C830 0.930 . S
H839 C831 0.929 . S
H840 C848 0.929 . S
H841 C850 0.930 . S
H842 C852 0.930 . S
H843 C855 0.929 . S
H844 C858 0.930 . S
H845 C860 0.960 . S
H846 C860 0.960 . S
H847 C860 0.960 . S
C848 H840 0.929 . S
C848 C849 1.377 . S
C848 C850 1.384 . S
C849 C848 1.377 . S
C849 C855 1.390 . S
C850 H841 0.930 . S
C850 C848 1.384 . S
C850 C851 1.372 . S
C851 C850 1.372 . S
C851 C852 1.400 . S
C851 C856 1.490 . S
C852 H842 0.930 . S
C852 C851 1.400 . S
C852 C855 1.386 . S
H853 C869 0.930 . S
H854 C870 0.931 . S
C855 H843 0.929 . S
C855 C849 1.390 . S
C855 C852 1.386 . S
C856 C851 1.490 . S
C856 C858 1.395 . S
C856 C859 1.403 . S
H857 C863 0.930 . S
C858 H844 0.930 . S
C858 C856 1.395 . S
C858 C861 1.403 . S
C859 C856 1.403 . S
C859 C860 1.524 . S
C859 C863 1.400 . S
C860 H845 0.960 . S
C860 H846 0.960 . S
C860 H847 0.960 . S
C860 C859 1.524 . S
C861 C858 1.403 . S
C861 C862 1.392 . S
C861 C865 1.495 . S
C862 C861 1.392 . S
C862 C863 1.385 . S
C862 C864 1.478 . S
C863 H857 0.930 . S
C863 C859 1.400 . S
C863 C862 1.385 . S
C864 C862 1.478 . S
C864 C866 1.381 . S
C864 C870 1.383 . S
C865 C861 1.495 . S
C865 H871 0.959 . S
C865 H872 0.961 . S
C865 H873 0.960 . S
C866 C864 1.381 . S
C866 C867 1.394 . S
C866 H874 0.930 . S
C867 C866 1.394 . S
C867 C868 1.383 . S
C867 H875 0.929 . S
C868 C867 1.383 . S
C868 C869 1.377 . S
C869 H853 0.930 . S
C869 C868 1.377 . S
C869 C870 1.379 . S
C870 H854 0.931 . S
C870 C864 1.383 . S
C870 C869 1.379 . S
H871 C865 0.959 . S
H872 C865 0.961 . S
H873 C865 0.960 . S
H874 C866 0.930 . S
H875 C867 0.929 . S
H876 C884 0.929 . S
H877 C886 0.930 . S
H878 C888 0.930 . S
H879 C891 0.929 . S
H880 C894 0.930 . S
H881 C896 0.960 . S
H882 C896 0.960 . S
H883 C896 0.960 . S
C884 H876 0.929 . S
C884 C885 1.377 . S
C884 C886 1.384 . S
C885 C884 1.377 . S
C885 C891 1.390 . S
C886 H877 0.930 . S
C886 C884 1.384 . S
C886 C887 1.372 . S
C887 C886 1.372 . S
C887 C888 1.400 . S
C887 C892 1.490 . S
C888 H878 0.930 . S
C888 C887 1.400 . S
C888 C891 1.386 . S
H889 C905 0.930 . S
H890 C906 0.931 . S
C891 H879 0.929 . S
C891 C885 1.390 . S
C891 C888 1.386 . S
C892 C887 1.490 . S
C892 C894 1.395 . S
C892 C895 1.403 . S
H893 C899 0.930 . S
C894 H880 0.930 . S
C894 C892 1.395 . S
C894 C897 1.403 . S
C895 C892 1.403 . S
C895 C896 1.524 . S
C895 C899 1.400 . S
C896 H881 0.960 . S
C896 H882 0.960 . S
C896 H883 0.960 . S
C896 C895 1.524 . S
C897 C894 1.403 . S
C897 C898 1.392 . S
C897 C901 1.495 . S
C898 C897 1.392 . S
C898 C899 1.385 . S
C898 C900 1.478 . S
C899 H893 0.930 . S
C899 C895 1.400 . S
C899 C898 1.385 . S
C900 C898 1.478 . S
C900 C902 1.381 . S
C900 C906 1.383 . S
C901 C897 1.495 . S
C901 H907 0.959 . S
C901 H908 0.961 . S
C901 H909 0.960 . S
C902 C900 1.381 . S
C902 C903 1.394 . S
C902 H910 0.930 . S
C903 C902 1.394 . S
C903 C904 1.383 . S
C903 H911 0.929 . S
C904 C903 1.383 . S
C904 C905 1.377 . S
C905 H889 0.930 . S
C905 C904 1.377 . S
C905 C906 1.379 . S
C906 H890 0.931 . S
C906 C900 1.383 . S
C906 C905 1.379 . S
H907 C901 0.959 . S
H908 C901 0.961 . S
H909 C901 0.960 . S
H910 C902 0.930 . S
H911 C903 0.929 . S
H912 C920 0.929 . S
H913 C922 0.930 . S
H914 C924 0.930 . S
H915 C927 0.929 . S
H916 C930 0.930 . S
H917 C932 0.960 . S
H918 C932 0.960 . S
H919 C932 0.960 . S
C920 H912 0.929 . S
C920 C921 1.377 . S
C920 C922 1.384 . S
C921 C920 1.377 . S
C921 C927 1.390 . S
C922 H913 0.930 . S
C922 C920 1.384 . S
C922 C923 1.372 . S
C923 C922 1.372 . S
C923 C924 1.400 . S
C923 C928 1.490 . S
C924 H914 0.930 . S
C924 C923 1.400 . S
C924 C927 1.386 . S
H925 C941 0.930 . S
H926 C942 0.931 . S
C927 H915 0.929 . S
C927 C921 1.390 . S
C927 C924 1.386 . S
C928 C923 1.490 . S
C928 C930 1.395 . S
C928 C931 1.403 . S
H929 C935 0.930 . S
C930 H916 0.930 . S
C930 C928 1.395 . S
C930 C933 1.403 . S
C931 C928 1.403 . S
C931 C932 1.524 . S
C931 C935 1.400 . S
C932 H917 0.960 . S
C932 H918 0.960 . S
C932 H919 0.960 . S
C932 C931 1.524 . S
C933 C930 1.403 . S
C933 C934 1.392 . S
C933 C937 1.495 . S
C934 C933 1.392 . S
C934 C935 1.385 . S
C934 C936 1.478 . S
C935 H929 0.930 . S
C935 C931 1.400 . S
C935 C934 1.385 . S
C936 C934 1.478 . S
C936 C938 1.381 . S
C936 C942 1.383 . S
C937 C933 1.495 . S
C937 H943 0.959 . S
C937 H944 0.961 . S
C937 H945 0.960 . S
C938 C936 1.381 . S
C938 C939 1.394 . S
C938 H946 0.930 . S
C939 C938 1.394 . S
C939 C940 1.383 . S
C939 H947 0.929 . S
C940 C939 1.383 . S
C940 C941 1.377 . S
C941 H925 0.930 . S
C941 C940 1.377 . S
C941 C942 1.379 . S
C942 H926 0.931 . S
C942 C936 1.383 . S
C942 C941 1.379 . S
H943 C937 0.959 . S
H944 C937 0.961 . S
H945 C937 0.960 . S
H946 C938 0.930 . S
H947 C939 0.929 . S
H948 C956 0.929 . S
H949 C958 0.930 . S
H950 C960 0.930 . S
H951 C963 0.929 . S
H952 C966 0.930 . S
H953 C968 0.960 . S
H954 C968 0.960 . S
H955 C968 0.960 . S
C956 H948 0.929 . S
C956 C957 1.377 . S
C956 C958 1.384 . S
C957 C956 1.377 . S
C957 C963 1.390 . S
C958 H949 0.930 . S
C958 C956 1.384 . S
C958 C959 1.372 . S
C959 C958 1.372 . S
C959 C960 1.400 . S
C959 C964 1.490 . S
C960 H950 0.930 . S
C960 C959 1.400 . S
C960 C963 1.386 . S
H961 C977 0.930 . S
H962 C978 0.931 . S
C963 H951 0.929 . S
C963 C957 1.390 . S
C963 C960 1.386 . S
C964 C959 1.490 . S
C964 C966 1.395 . S
C964 C967 1.403 . S
H965 C971 0.930 . S
C966 H952 0.930 . S
C966 C964 1.395 . S
C966 C969 1.403 . S
C967 C964 1.403 . S
C967 C968 1.524 . S
C967 C971 1.400 . S
C968 H953 0.960 . S
C968 H954 0.960 . S
C968 H955 0.960 . S
C968 C967 1.524 . S
C969 C966 1.403 . S
C969 C970 1.392 . S
C969 C973 1.495 . S
C970 C969 1.392 . S
C970 C971 1.385 . S
C970 C972 1.478 . S
C971 H965 0.930 . S
C971 C967 1.400 . S
C971 C970 1.385 . S
C972 C970 1.478 . S
C972 C974 1.381 . S
C972 C978 1.383 . S
C973 C969 1.495 . S
C973 H979 0.959 . S
C973 H980 0.961 . S
C973 H981 0.960 . S
C974 C972 1.381 . S
C974 C975 1.394 . S
C974 H982 0.930 . S
C975 C974 1.394 . S
C975 C976 1.383 . S
C975 H983 0.929 . S
C976 C975 1.383 . S
C976 C977 1.377 . S
C977 H961 0.930 . S
C977 C976 1.377 . S
C977 C978 1.379 . S
C978 H962 0.931 . S
C978 C972 1.383 . S
C978 C977 1.379 . S
H979 C973 0.959 . S
H980 C973 0.961 . S
H981 C973 0.960 . S
H982 C974 0.930 . S
H983 C975 0.929 . S
C273 N137 1.533 . S
C292 N5 1.528 . S
C309 N38 1.529 . S
C328 N170 1.547 . S
C345 N71 1.528 . S
C364 N203 1.505 . S
C381 N236 1.530 . S
C400 N104 1.548 . S
C417 N245 0.851 . S
C436 C8 0.829 . S
C453 N146 0.857 . S
C472 C41 0.874 . S
C489 N179 0.857 . S
C508 C74 0.874 . S
C525 N212 0.851 . S
C544 C107 0.859 1_565 S
C561 C140 0.848 1_655 S
C580 N113 0.873 . S
C597 C173 0.855 . S
C616 N14 0.842 . S
C633 C206 0.858 . S
C652 N47 0.834 . S
C669 C239 0.848 . S
C688 N80 0.872 . S
C705 C17 0.824 . S
C724 C83 0.791 . S
C741 C50 0.825 . S
C760 C116 0.841 . S
C777 C215 0.829 . S
C796 C149 0.866 . S
C813 C248 0.831 . S
C832 C182 0.865 . S
C849 C94 0.574 . S
C868 C28 0.648 . S
C885 C61 0.570 . S
C904 C127 0.662 . S
C921 C226 0.564 . S
C940 C160 0.581 . S
C957 C259 0.602 . S
C976 C193 0.591 . S
