# Generated by pormake.
# Topology umh, (4)-cn, num edge types: 1
# Building blocks:
#     Node 0, Type 0, BuildingBlock: QUQFOY_clean_sbu_1, # of connection points: 4
#     Node 1, Type 0, BuildingBlock: QUQFOY_clean_sbu_1, # of connection points: 4
#     Node 2, Type 0, BuildingBlock: QUQFOY_clean_sbu_1, # of connection points: 4
#     Node 3, Type 0, BuildingBlock: QUQFOY_clean_sbu_1, # of connection points: 4
#     Node 4, Type 0, BuildingBlock: QUQFOY_clean_sbu_1, # of connection points: 4
#     Node 5, Type 0, BuildingBlock: QUQFOY_clean_sbu_1, # of connection points: 4
#     Node 6, Type 0, BuildingBlock: QUQFOY_clean_sbu_1, # of connection points: 4
#     Node 7, Type 0, BuildingBlock: QUQFOY_clean_sbu_1, # of connection points: 4
#     Node 8, Type 0, BuildingBlock: QUQFOY_clean_sbu_1, # of connection points: 4
#     Node 9, Type 0, BuildingBlock: QUQFOY_clean_sbu_1, # of connection points: 4
#     Node 10, Type 0, BuildingBlock: QUQFOY_clean_sbu_1, # of connection points: 4
#     Node 11, Type 0, BuildingBlock: QUQFOY_clean_sbu_1, # of connection points: 4
#     Node 12, Type 0, BuildingBlock: QUQFOY_clean_sbu_1, # of connection points: 4
#     Node 13, Type 0, BuildingBlock: QUQFOY_clean_sbu_1, # of connection points: 4
#     Node 14, Type 0, BuildingBlock: QUQFOY_clean_sbu_1, # of connection points: 4
#     Node 15, Type 0, BuildingBlock: QUQFOY_clean_sbu_1, # of connection points: 4
#     Edge 16, Type (0, 0), BuildingBlock: OJICUG_clean_linker_0, # of connection points: 2
#     Edge 17, Type (0, 0), BuildingBlock: OJICUG_clean_linker_0, # of connection points: 2
#     Edge 18, Type (0, 0), BuildingBlock: OJICUG_clean_linker_0, # of connection points: 2
#     Edge 19, Type (0, 0), BuildingBlock: OJICUG_clean_linker_0, # of connection points: 2
#     Edge 20, Type (0, 0), BuildingBlock: OJICUG_clean_linker_0, # of connection points: 2
#     Edge 21, Type (0, 0), BuildingBlock: OJICUG_clean_linker_0, # of connection points: 2
#     Edge 22, Type (0, 0), BuildingBlock: OJICUG_clean_linker_0, # of connection points: 2
#     Edge 23, Type (0, 0), BuildingBlock: OJICUG_clean_linker_0, # of connection points: 2
#     Edge 24, Type (0, 0), BuildingBlock: OJICUG_clean_linker_0, # of connection points: 2
#     Edge 25, Type (0, 0), BuildingBlock: OJICUG_clean_linker_0, # of connection points: 2
#     Edge 26, Type (0, 0), BuildingBlock: OJICUG_clean_linker_0, # of connection points: 2
#     Edge 27, Type (0, 0), BuildingBlock: OJICUG_clean_linker_0, # of connection points: 2
#     Edge 28, Type (0, 0), BuildingBlock: OJICUG_clean_linker_0, # of connection points: 2
#     Edge 29, Type (0, 0), BuildingBlock: OJICUG_clean_linker_0, # of connection points: 2
#     Edge 30, Type (0, 0), BuildingBlock: OJICUG_clean_linker_0, # of connection points: 2
#     Edge 31, Type (0, 0), BuildingBlock: OJICUG_clean_linker_0, # of connection points: 2
#     Edge 32, Type (0, 0), BuildingBlock: OJICUG_clean_linker_0, # of connection points: 2
#     Edge 33, Type (0, 0), BuildingBlock: OJICUG_clean_linker_0, # of connection points: 2
#     Edge 34, Type (0, 0), BuildingBlock: OJICUG_clean_linker_0, # of connection points: 2
#     Edge 35, Type (0, 0), BuildingBlock: OJICUG_clean_linker_0, # of connection points: 2
#     Edge 36, Type (0, 0), BuildingBlock: OJICUG_clean_linker_0, # of connection points: 2
#     Edge 37, Type (0, 0), BuildingBlock: OJICUG_clean_linker_0, # of connection points: 2
#     Edge 38, Type (0, 0), BuildingBlock: OJICUG_clean_linker_0, # of connection points: 2
#     Edge 39, Type (0, 0), BuildingBlock: OJICUG_clean_linker_0, # of connection points: 2
#     Edge 40, Type (0, 0), BuildingBlock: OJICUG_clean_linker_0, # of connection points: 2
#     Edge 41, Type (0, 0), BuildingBlock: OJICUG_clean_linker_0, # of connection points: 2
#     Edge 42, Type (0, 0), BuildingBlock: OJICUG_clean_linker_0, # of connection points: 2
#     Edge 43, Type (0, 0), BuildingBlock: OJICUG_clean_linker_0, # of connection points: 2
#     Edge 44, Type (0, 0), BuildingBlock: OJICUG_clean_linker_0, # of connection points: 2
#     Edge 45, Type (0, 0), BuildingBlock: OJICUG_clean_linker_0, # of connection points: 2
#     Edge 46, Type (0, 0), BuildingBlock: OJICUG_clean_linker_0, # of connection points: 2
#     Edge 47, Type (0, 0), BuildingBlock: OJICUG_clean_linker_0, # of connection points: 2
# Relax obj value: 0.066
# Max RMSD: 0.421
# Mean RMSD: 0.289
data_MOF--net-umh--node1-QUQFOY_clean_sbu_1--edge1-OJICUG_clean_linker_0
_symmetry_space_group_name_H-M    P1
_symmetry_Int_Tables_number       1
_symmetry_cell_setting            triclinic
loop_
_symmetry_equiv_pos_as_xyz
'x, y, z'
_cell_length_a     29.995782
_cell_length_b     29.996041
_cell_length_c     37.614317
_cell_angle_alpha  91.876528
_cell_angle_beta   88.11431
_cell_angle_gamma 89.893901
loop_
_atom_site_label
_atom_site_type_symbol
_atom_site_fract_x
_atom_site_fract_y
_atom_site_fract_z
_atom_type_partial_charge
O0 O 0.41223 0.14717 0.14073 0.0
Cd1 Cd 0.41044 0.14986 0.19554 0.0
Cd2 Cd 0.33515 0.09995 0.18512 0.0
O3 O 0.36286 0.09323 0.13303 0.0
O4 O 0.47382 0.14796 0.213 0.0
O5 O 0.42584 0.09253 0.21724 0.0
C6 C 0.4657 0.10723 0.22143 0.0
C7 C 0.30743 0.04868 0.22615 0.0
C8 C 0.39209 0.11992 0.12022 0.0
C9 C 0.32341 0.1944 0.21389 0.0
O10 O 0.30693 0.1608 0.19773 0.0
O11 O 0.36517 0.196 0.21952 0.0
O12 O 0.28549 0.05733 0.19815 0.0
O13 O 0.34726 0.06436 0.22801 0.0
O14 O 0.38351 0.4107 0.64518 0.0
Cd15 Cd 0.38301 0.41061 0.69982 0.0
Cd16 Cd 0.43174 0.33523 0.68592 0.0
O17 O 0.43881 0.36261 0.635 0.0
O18 O 0.385 0.4749 0.71844 0.0
O19 O 0.44141 0.42767 0.71988 0.0
C20 C 0.42642 0.46772 0.72504 0.0
C21 C 0.48152 0.30829 0.72716 0.0
C22 C 0.41118 0.39105 0.62361 0.0
C23 C 0.3382 0.32452 0.71503 0.0
O24 O 0.37076 0.30772 0.69678 0.0
O25 O 0.3376 0.36619 0.72339 0.0
O26 O 0.47421 0.28585 0.69798 0.0
O27 O 0.46554 0.34819 0.73025 0.0
O28 O 0.12052 0.38836 0.1478 0.0
Cd29 Cd 0.11851 0.38834 0.20234 0.0
Cd30 Cd 0.19262 0.43748 0.19273 0.0
O31 O 0.16608 0.44568 0.142 0.0
O32 O 0.05341 0.38932 0.21869 0.0
O33 O 0.09898 0.44674 0.22427 0.0
C34 C 0.05907 0.43107 0.22703 0.0
C35 C 0.21768 0.48629 0.23783 0.0
C36 C 0.13918 0.41727 0.12835 0.0
C37 C 0.20435 0.34432 0.21686 0.0
O38 O 0.22095 0.37657 0.1999 0.0
O39 O 0.16267 0.34381 0.22507 0.0
O40 O 0.2407 0.48028 0.20836 0.0
O41 O 0.17811 0.46961 0.23936 0.0
O42 O 0.14257 0.12022 0.64359 0.0
Cd43 Cd 0.14398 0.12009 0.69818 0.0
Cd44 Cd 0.09433 0.19498 0.69143 0.0
O45 O 0.08682 0.16796 0.63957 0.0
O46 O 0.14267 0.05575 0.71338 0.0
O47 O 0.08612 0.10273 0.72105 0.0
C48 C 0.10137 0.06273 0.72304 0.0
C49 C 0.04396 0.22157 0.73627 0.0
C50 C 0.1144 0.13978 0.62488 0.0
C51 C 0.1881 0.20645 0.71577 0.0
O52 O 0.15512 0.22314 0.70054 0.0
O53 O 0.18924 0.1647 0.72151 0.0
O54 O 0.05135 0.24395 0.70787 0.0
O55 O 0.06033 0.18186 0.73668 0.0
O56 O 0.40699 0.38692 0.45079 0.0
Cd57 Cd 0.40686 0.38644 0.39616 0.0
Cd58 Cd 0.33151 0.43521 0.41009 0.0
O59 O 0.35897 0.44229 0.46098 0.0
O60 O 0.47114 0.38846 0.37749 0.0
O61 O 0.4239 0.44486 0.37611 0.0
C62 C 0.46395 0.42988 0.37092 0.0
C63 C 0.30454 0.485 0.36888 0.0
C64 C 0.3874 0.41463 0.47237 0.0
C65 C 0.32072 0.3417 0.38099 0.0
O66 O 0.30396 0.37425 0.39927 0.0
O67 O 0.36238 0.34108 0.3726 0.0
O68 O 0.28213 0.4777 0.39807 0.0
O69 O 0.34442 0.469 0.36575 0.0
O70 O 0.14368 0.41642 0.95525 0.0
Cd71 Cd 0.14644 0.41472 0.90045 0.0
Cd72 Cd 0.09646 0.33944 0.91074 0.0
O73 O 0.0897 0.36707 0.96286 0.0
O74 O 0.14451 0.47812 0.88302 0.0
O75 O 0.08911 0.4301 0.87872 0.0
C76 C 0.10379 0.46997 0.87456 0.0
C77 C 0.04521 0.31171 0.86972 0.0
C78 C 0.11639 0.39625 0.97572 0.0
C79 C 0.19096 0.3277 0.88204 0.0
O80 O 0.15732 0.31121 0.89814 0.0
O81 O 0.1926 0.36947 0.87646 0.0
O82 O 0.05386 0.28977 0.89771 0.0
O83 O 0.06087 0.35155 0.86785 0.0
O84 O 0.11624 0.14628 0.45236 0.0
Cd85 Cd 0.11607 0.1477 0.39778 0.0
Cd86 Cd 0.19093 0.09795 0.40449 0.0
O87 O 0.16396 0.09051 0.45638 0.0
O88 O 0.05172 0.14643 0.38261 0.0
O89 O 0.09865 0.08986 0.37492 0.0
C90 C 0.05867 0.10514 0.37294 0.0
C91 C 0.21742 0.04753 0.35966 0.0
C92 C 0.13581 0.11811 0.47108 0.0
C93 C 0.20249 0.19172 0.38015 0.0
O94 O 0.21915 0.15871 0.39535 0.0
O95 O 0.16073 0.19293 0.37444 0.0
O96 O 0.23983 0.05491 0.38803 0.0
O97 O 0.17772 0.06395 0.35926 0.0
O98 O 0.38451 0.12441 0.94814 0.0
Cd99 Cd 0.38459 0.12249 0.89359 0.0
Cd100 Cd 0.43382 0.19654 0.90334 0.0
O101 O 0.4419 0.16986 0.95404 0.0
O102 O 0.38553 0.05741 0.87719 0.0
O103 O 0.44301 0.10291 0.87174 0.0
C104 C 0.42731 0.06303 0.86891 0.0
C105 C 0.4827 0.22153 0.85825 0.0
C106 C 0.41341 0.14299 0.96764 0.0
C107 C 0.34074 0.20845 0.87913 0.0
O108 O 0.37296 0.22497 0.89615 0.0
O109 O 0.34019 0.16678 0.87086 0.0
O110 O 0.47672 0.24455 0.88772 0.0
O111 O 0.46594 0.182 0.85671 0.0
O112 O 0.61307 0.88577 0.95532 0.0
Cd113 Cd 0.61481 0.88309 0.90052 0.0
Cd114 Cd 0.69008 0.93307 0.9109 0.0
O115 O 0.66238 0.93977 0.963 0.0
O116 O 0.55142 0.885 0.88307 0.0
O117 O 0.5994 0.94043 0.87884 0.0
C118 C 0.55954 0.92573 0.87465 0.0
C119 C 0.71775 0.98434 0.86986 0.0
C120 C 0.63319 0.91305 0.97582 0.0
C121 C 0.70188 0.83862 0.88212 0.0
O122 O 0.71834 0.87223 0.89829 0.0
O123 O 0.66012 0.83699 0.8765 0.0
O124 O 0.73972 0.97571 0.89785 0.0
O125 O 0.67793 0.96864 0.86802 0.0
O126 O 0.64195 0.62199 0.45075 0.0
Cd127 Cd 0.64244 0.62209 0.39612 0.0
Cd128 Cd 0.59368 0.69744 0.41002 0.0
O129 O 0.58661 0.67004 0.46093 0.0
O130 O 0.64044 0.5578 0.37749 0.0
O131 O 0.58404 0.60504 0.37607 0.0
C132 C 0.59901 0.56499 0.3709 0.0
C133 C 0.54391 0.72442 0.3688 0.0
C134 C 0.61426 0.64162 0.47233 0.0
C135 C 0.68721 0.7082 0.38092 0.0
O136 O 0.65465 0.72498 0.39918 0.0
O137 O 0.68783 0.66654 0.37255 0.0
O138 O 0.55122 0.74683 0.39799 0.0
O139 O 0.55988 0.68453 0.36569 0.0
O140 O 0.90507 0.64494 0.94803 0.0
Cd141 Cd 0.90705 0.64493 0.89348 0.0
Cd142 Cd 0.83299 0.5957 0.90314 0.0
O143 O 0.85959 0.58757 0.95387 0.0
O144 O 0.97213 0.64398 0.87711 0.0
O145 O 0.9266 0.58653 0.87158 0.0
C146 C 0.9665 0.60221 0.86879 0.0
C147 C 0.80794 0.54683 0.85809 0.0
C148 C 0.88646 0.61602 0.9675 0.0
C149 C 0.82113 0.68884 0.87901 0.0
O150 O 0.80459 0.65658 0.89597 0.0
O151 O 0.86281 0.68941 0.87078 0.0
O152 O 0.78494 0.55284 0.88756 0.0
O153 O 0.84749 0.56355 0.85652 0.0
O154 O 0.88258 0.91274 0.45238 0.0
Cd155 Cd 0.88117 0.91288 0.39779 0.0
Cd156 Cd 0.93094 0.83803 0.40454 0.0
O157 O 0.93838 0.86506 0.45641 0.0
O158 O 0.88245 0.97722 0.38259 0.0
O159 O 0.93903 0.93029 0.37494 0.0
C160 C 0.92376 0.97027 0.37294 0.0
C161 C 0.98138 0.81156 0.35971 0.0
C162 C 0.91077 0.89321 0.47109 0.0
C163 C 0.83719 0.82644 0.38018 0.0
O164 O 0.87019 0.80979 0.3954 0.0
O165 O 0.83599 0.86819 0.37445 0.0
O166 O 0.97401 0.78914 0.38809 0.0
O167 O 0.96493 0.85125 0.35931 0.0
O168 O 0.61841 0.64578 0.64514 0.0
Cd169 Cd 0.61855 0.64627 0.69978 0.0
Cd170 Cd 0.69393 0.59759 0.68585 0.0
O171 O 0.66649 0.59046 0.63496 0.0
O172 O 0.55426 0.64425 0.71843 0.0
O173 O 0.60153 0.58786 0.71985 0.0
C174 C 0.56147 0.60283 0.72503 0.0
C175 C 0.72097 0.54786 0.72708 0.0
C176 C 0.63804 0.61808 0.62357 0.0
C177 C 0.70461 0.69112 0.71495 0.0
O178 O 0.72142 0.65859 0.69667 0.0
O179 O 0.66296 0.69169 0.72334 0.0
O180 O 0.74337 0.55518 0.69788 0.0
O181 O 0.68106 0.5638 0.7302 0.0
O182 O 0.882 0.61698 0.14059 0.0
Cd183 Cd 0.87924 0.61867 0.19539 0.0
Cd184 Cd 0.92916 0.69398 0.18508 0.0
O185 O 0.93594 0.66635 0.13297 0.0
O186 O 0.88113 0.55526 0.2128 0.0
O187 O 0.93655 0.60325 0.21712 0.0
C188 C 0.92185 0.56338 0.22126 0.0
C189 C 0.98037 0.72165 0.22616 0.0
C190 C 0.90927 0.63715 0.12011 0.0
C191 C 0.83467 0.70567 0.21381 0.0
O192 O 0.86829 0.72218 0.19768 0.0
O193 O 0.83308 0.6639 0.2194 0.0
O194 O 0.97175 0.74363 0.19818 0.0
O195 O 0.9647 0.68182 0.22798 0.0
O196 O 0.9089 0.88673 0.64361 0.0
Cd197 Cd 0.90906 0.88531 0.6982 0.0
Cd198 Cd 0.83417 0.935 0.69148 0.0
O199 O 0.86113 0.94245 0.63959 0.0
O200 O 0.97341 0.88659 0.71337 0.0
O201 O 0.92646 0.94315 0.72107 0.0
C202 C 0.96645 0.92788 0.72304 0.0
C203 C 0.80768 0.98542 0.73632 0.0
C204 C 0.8893 0.91487 0.6249 0.0
C205 C 0.82268 0.84123 0.71583 0.0
O206 O 0.80599 0.87423 0.70063 0.0
O207 O 0.86444 0.84005 0.72154 0.0
O208 O 0.78525 0.97803 0.70795 0.0
O209 O 0.84739 0.96901 0.7367 0.0
O210 O 0.64079 0.90869 0.14791 0.0
Cd211 Cd 0.64074 0.91061 0.20246 0.0
Cd212 Cd 0.59161 0.8365 0.19273 0.0
O213 O 0.58349 0.86313 0.14202 0.0
O214 O 0.63976 0.97567 0.21886 0.0
O215 O 0.58233 0.93011 0.22436 0.0
C216 C 0.59799 0.97001 0.22717 0.0
C217 C 0.54275 0.81139 0.23778 0.0
C218 C 0.61192 0.89006 0.12842 0.0
C219 C 0.68475 0.82473 0.2169 0.0
O220 O 0.65252 0.80816 0.19992 0.0
O221 O 0.68525 0.8664 0.22515 0.0
O222 O 0.54879 0.7884 0.20831 0.0
O223 O 0.55943 0.85096 0.23935 0.0
C224 C 0.3809 0.10295 1.02018 0.0
C225 C 0.41155 0.13422 1.0065 0.0
H226 H 0.3509 0.07359 0.06633 0.0
C227 C 0.43802 0.15818 1.03053 0.0
H228 H 0.36004 0.08357 1.00255 0.0
C229 C 0.43273 0.15229 0.06729 0.0
C230 C 0.40086 0.12223 0.08102 0.0
H231 H 0.46198 0.1824 1.02106 0.0
H232 H 0.45296 0.17225 0.08501 0.0
C233 C 0.37565 0.09703 0.05688 0.0
C234 C 0.42818 0.38144 0.52277 0.0
C235 C 0.39643 0.41206 0.51107 0.0
H236 H 0.45801 0.35085 0.56703 0.0
C237 C 0.37202 0.43775 0.53682 0.0
H238 H 0.44785 0.3611 0.50379 0.0
C239 C 0.378 0.43182 0.57319 0.0
C240 C 0.40858 0.40003 0.5849 0.0
H241 H 0.3474 0.46164 0.52893 0.0
H242 H 0.35774 0.45158 0.59218 0.0
C243 C 0.43417 0.37551 0.55915 0.0
C244 C 0.09336 0.37973 1.03901 0.0
C245 C 0.11864 0.40495 1.01493 0.0
H246 H 0.07976 0.36403 0.09331 0.0
C247 C 0.14871 0.43675 1.02873 0.0
H248 H 0.0699 0.35503 1.02951 0.0
C249 C 0.15454 0.44197 0.0655 0.0
C250 C 0.13049 0.41549 0.08948 0.0
H251 H 0.16873 0.45699 1.01105 0.0
H252 H 0.17877 0.46587 0.07502 0.0
C253 C 0.09921 0.38491 0.07573 0.0
C254 C 0.14668 0.09955 0.57009 0.0
C255 C 0.11632 0.13115 0.58557 0.0
H256 H 0.17656 0.07035 0.52218 0.0
C257 C 0.09026 0.15592 0.56294 0.0
H258 H 0.16726 0.07962 0.58661 0.0
C259 C 0.09566 0.15047 0.52588 0.0
C260 C 0.12724 0.12009 0.5104 0.0
H261 H 0.06653 0.18043 0.57379 0.0
H262 H 0.07569 0.17101 0.50935 0.0
C263 C 0.15206 0.09408 0.53303 0.0
C264 C 0.64436 0.93011 0.07586 0.0
C265 C 0.61376 0.8988 0.08956 0.0
H266 H 0.67431 0.95949 1.02969 0.0
C267 C 0.58733 0.87478 0.06554 0.0
H268 H 0.66519 0.94954 0.09348 0.0
C269 C 0.59261 0.88065 1.02877 0.0
C270 C 0.62443 0.91075 1.01502 0.0
H271 H 0.56341 0.85052 0.07501 0.0
H272 H 0.57241 0.86065 1.01106 0.0
C273 C 0.6496 0.93601 1.03915 0.0
C274 C 0.59723 0.65122 0.57316 0.0
C275 C 0.62901 0.62063 0.58487 0.0
H276 H 0.56736 0.68176 0.52889 0.0
C277 C 0.65346 0.59497 0.55913 0.0
H278 H 0.57752 0.67153 0.59214 0.0
C279 C 0.64748 0.60089 0.52275 0.0
C280 C 0.61687 0.63264 0.51104 0.0
H281 H 0.6781 0.57111 0.56701 0.0
H282 H 0.66777 0.58116 0.50377 0.0
C283 C 0.59124 0.65713 0.53678 0.0
C284 C 0.92641 0.64846 1.0201 0.0
C285 C 0.89516 0.61784 1.00636 0.0
H286 H 0.9557 0.67841 0.0663 0.0
C287 C 0.87116 0.59134 1.03035 0.0
H288 H 0.94583 0.66935 1.0025 0.0
C289 C 0.87699 0.59658 0.06713 0.0
C290 C 0.90703 0.62843 0.08091 0.0
H291 H 0.84695 0.5674 1.02085 0.0
H292 H 0.85699 0.57633 0.08481 0.0
C293 C 0.93227 0.65367 0.05681 0.0
C294 C 0.87842 0.9334 0.52588 0.0
C295 C 0.90883 0.90183 0.51041 0.0
H296 H 0.8485 0.96258 0.57378 0.0
C297 C 0.93491 0.8771 0.53304 0.0
H298 H 0.85782 0.95331 0.50935 0.0
C299 C 0.92949 0.88254 0.5701 0.0
C300 C 0.89788 0.9129 0.58558 0.0
H301 H 0.95866 0.85261 0.5222 0.0
H302 H 0.94948 0.86202 0.58663 0.0
C303 C 0.87304 0.93887 0.56294 0.0
C304 C 0.28068 0.31289 0.22445 0.0
C305 C 0.23414 0.30637 0.2241 0.0
H306 H 0.34562 0.28261 0.2223 0.0
C307 C 0.21751 0.26286 0.22614 0.0
H308 H 0.29454 0.34617 0.22334 0.0
C309 C 0.24688 0.22646 0.22522 0.0
C310 C 0.29345 0.23287 0.22277 0.0
H311 H 0.18193 0.25674 0.22602 0.0
H312 H 0.23304 0.19312 0.2247 0.0
C313 C 0.31005 0.27653 0.22406 0.0
C314 C 0.25629 0.31192 0.72644 0.0
C315 C 0.2999 0.29501 0.72342 0.0
H316 H 0.18655 0.29684 0.72651 0.0
C317 C 0.30631 0.24842 0.7236 0.0
H318 H 0.25025 0.34753 0.72643 0.0
C319 C 0.26988 0.21928 0.72397 0.0
C320 C 0.22629 0.23616 0.72364 0.0
H321 H 0.33963 0.23435 0.7217 0.0
H322 H 0.27598 0.18367 0.72207 0.0
C323 C 0.21986 0.28277 0.72628 0.0
C324 C 0.30803 0.25982 0.3695 0.0
C325 C 0.29117 0.30344 0.37258 0.0
H326 H 0.29287 0.19009 0.36935 0.0
C327 C 0.24458 0.3099 0.37243 0.0
H328 H 0.34364 0.25373 0.36948 0.0
C329 C 0.2154 0.27351 0.37202 0.0
C330 C 0.23224 0.2299 0.37229 0.0
H331 H 0.23054 0.34324 0.37437 0.0
H332 H 0.17979 0.27964 0.37394 0.0
C333 C 0.27884 0.22342 0.36962 0.0
C334 C 0.30943 0.28485 0.87162 0.0
C335 C 0.30285 0.23832 0.87188 0.0
H336 H 0.27922 0.34983 0.87384 0.0
C337 C 0.25932 0.22174 0.86971 0.0
H338 H 0.34271 0.29867 0.87283 0.0
C339 C 0.22296 0.25116 0.87061 0.0
C340 C 0.22942 0.29772 0.87316 0.0
H341 H 0.25316 0.18617 0.86976 0.0
H342 H 0.1896 0.23736 0.87105 0.0
C343 C 0.2731 0.31426 0.872 0.0
C344 C 0.77844 0.80667 0.87073 0.0
C345 C 0.73188 0.8002 0.8732 0.0
H346 H 0.84343 0.77646 0.86987 0.0
C347 C 0.71534 0.75652 0.8719 0.0
H348 H 0.79224 0.84003 0.87126 0.0
C349 C 0.74475 0.72019 0.87147 0.0
C350 C 0.79129 0.72676 0.8718 0.0
H351 H 0.67977 0.7504 0.87368 0.0
H352 H 0.73093 0.6869 0.87257 0.0
C353 C 0.80786 0.7703 0.86976 0.0
C354 C 0.76911 0.72089 0.36953 0.0
C355 C 0.72549 0.73775 0.37252 0.0
H356 H 0.83884 0.73604 0.36947 0.0
C357 C 0.71903 0.78433 0.37233 0.0
H358 H 0.7752 0.68528 0.36955 0.0
C359 C 0.75542 0.81351 0.37195 0.0
C360 C 0.79903 0.79668 0.3723 0.0
H361 H 0.68569 0.79837 0.37421 0.0
H362 H 0.74929 0.84912 0.37384 0.0
C363 C 0.80552 0.75007 0.36968 0.0
C364 C 0.80985 0.75943 0.72395 0.0
C365 C 0.79297 0.80302 0.72368 0.0
H366 H 0.79479 0.68968 0.72159 0.0
C367 C 0.74636 0.80945 0.72633 0.0
H368 H 0.84547 0.75334 0.72203 0.0
C369 C 0.71721 0.77301 0.72644 0.0
C370 C 0.73412 0.72941 0.72337 0.0
H371 H 0.73229 0.84276 0.72661 0.0
H372 H 0.6816 0.77906 0.72646 0.0
C373 C 0.78072 0.723 0.72353 0.0
C374 C 0.75254 0.71901 0.22398 0.0
C375 C 0.7962 0.73561 0.22272 0.0
H376 H 0.6829 0.73451 0.22328 0.0
C377 C 0.80261 0.78218 0.22522 0.0
H378 H 0.74647 0.68344 0.22219 0.0
C379 C 0.7662 0.81155 0.22618 0.0
C380 C 0.72269 0.79492 0.22411 0.0
H381 H 0.83595 0.79602 0.22472 0.0
H382 H 0.77232 0.84713 0.22609 0.0
C383 C 0.71618 0.74838 0.22441 0.0
C384 C 0.21557 0.02872 0.29429 0.0
C385 C 0.23959 0.03072 0.32586 0.0
H386 H 0.21837 0.03176 0.23744 0.0
C387 C 0.2863 0.02675 0.32321 0.0
H388 H 0.17951 0.0312 0.29529 0.0
C389 C 0.30864 0.02707 0.2899 0.0
C390 C 0.28472 0.03127 0.25858 0.0
H391 H 0.3059 0.02782 0.3469 0.0
H392 H 0.34476 0.02823 0.28905 0.0
C393 C 0.23792 0.02895 0.26098 0.0
C394 C 0.50205 0.31095 0.79133 0.0
C395 C 0.49803 0.28621 0.75912 0.0
H396 H 0.5015 0.30977 0.84826 0.0
C397 C 0.50006 0.23941 0.75993 0.0
H398 H 0.501 0.34706 0.79172 0.0
C399 C 0.50024 0.21796 0.7925 0.0
C400 C 0.49859 0.24283 0.82494 0.0
H401 H 0.49726 0.21924 0.7357 0.0
H402 H 0.49774 0.18193 0.79225 0.0
C403 C 0.50242 0.28949 0.82388 0.0
C404 C 0.21415 0.50374 0.30359 0.0
C405 C 0.239 0.50213 0.27114 0.0
H406 H 0.21546 0.5007 0.36039 0.0
C407 C 0.28566 0.50597 0.27217 0.0
H408 H 0.17812 0.50123 0.30386 0.0
C409 C 0.30714 0.50558 0.30472 0.0
C410 C 0.28243 0.50153 0.33694 0.0
H411 H 0.30591 0.50508 0.24778 0.0
H412 H 0.34326 0.50454 0.3043 0.0
C413 C 0.23563 0.50353 0.33615 0.0
C414 C 0.02516 0.21982 0.80164 0.0
C415 C 0.02719 0.2438 0.77006 0.0
H416 H 0.0282 0.22267 0.85849 0.0
C417 C 0.02329 0.29052 0.77266 0.0
H418 H 0.02759 0.18376 0.80067 0.0
C419 C 0.02362 0.31289 0.80596 0.0
C420 C 0.02779 0.28899 0.8373 0.0
H421 H 0.02438 0.3101 0.74896 0.0
H422 H 0.02483 0.349 0.80678 0.0
C423 C 0.02541 0.24219 0.83494 0.0
C424 C 0.7165 1.00592 0.8061 0.0
C425 C 0.74044 1.00174 0.83741 0.0
H426 H 0.71919 1.00513 0.74911 0.0
C427 C 0.78725 1.00406 0.835 0.0
H428 H 0.68039 1.00476 0.80697 0.0
C429 C 0.80957 1.00428 0.80168 0.0
C430 C 0.78553 1.00226 0.77012 0.0
H431 H 0.8068 1.00127 0.85853 0.0
H432 H 0.84563 1.0018 0.80067 0.0
C433 C 0.73882 1.00622 0.77278 0.0
C434 C 0.52538 0.79335 0.33609 0.0
C435 C 0.52741 0.74655 0.33686 0.0
H436 H 0.52769 0.85089 0.30383 0.0
C437 C 0.52341 0.72186 0.30462 0.0
H438 H 0.52816 0.81348 0.36034 0.0
C439 C 0.52306 0.74337 0.27208 0.0
C440 C 0.52687 0.79004 0.27107 0.0
H441 H 0.52447 0.68574 0.30419 0.0
H442 H 0.52399 0.72314 0.24769 0.0
C443 C 0.5252 0.81486 0.30354 0.0
C444 C 0.73995 0.52704 0.82379 0.0
C445 C 0.78661 0.53092 0.8248 0.0
H446 H 0.68232 0.52838 0.7917 0.0
C447 C 0.81143 0.52929 0.79233 0.0
H448 H 0.71972 0.52794 0.84819 0.0
C449 C 0.78992 0.52943 0.75978 0.0
C450 C 0.74312 0.53139 0.75902 0.0
H451 H 0.84746 0.53183 0.79204 0.0
H452 H 0.81006 0.53224 0.73553 0.0
C453 C 0.71844 0.52736 0.79126 0.0
C454 C 1.00217 0.7427 0.32325 0.0
C455 C 0.99823 0.78941 0.32591 0.0
H456 H 1.00071 0.68427 0.28907 0.0
C457 C 1.00028 0.81345 0.29435 0.0
H458 H 1.00106 0.72308 0.34693 0.0
C459 C 1.00009 0.79113 0.26103 0.0
C460 C 0.99775 0.74432 0.25862 0.0
H461 H 0.99782 0.8495 0.29535 0.0
H462 H 0.99732 0.81069 0.2375 0.0
C463 C 1.00189 0.72038 0.28994 0.0
C464 C 0.49001 0.03342 0.24304 0.0
C465 C 0.50149 0.07604 0.23128 0.0
H466 H 0.51169 0.96686 0.25176 0.0
C467 C 0.54677 0.08555 0.22418 0.0
H468 H 0.45554 0.02503 0.24909 0.0
C469 C 0.57926 0.0519 0.22573 0.0
C470 C 0.56699 1.00821 0.23443 0.0
H471 H 0.55674 0.11805 0.21507 0.0
H472 H 0.61337 0.05938 0.2177 0.0
C473 C 0.52232 0.99998 0.24461 0.0
C474 C 0.53475 0.52741 0.74232 0.0
C475 C 0.52461 0.57139 0.7335 0.0
H476 H 0.51154 0.46048 0.74727 0.0
C477 C 0.47987 0.58245 0.72769 0.0
H478 H 0.56875 0.51772 0.74727 0.0
C479 C 0.44676 0.54933 0.72769 0.0
C480 C 0.45785 0.50459 0.7335 0.0
H481 H 0.47091 0.616 0.7208 0.0
H482 H 0.4132 0.55827 0.7208 0.0
C483 C 0.50184 0.49448 0.74233 0.0
C484 C 0.02908 0.50673 0.24447 0.0
C485 C 0.02086 0.46207 0.23426 0.0
H486 H 1.00403 0.57351 0.24898 0.0
C487 C 0.97718 0.44981 0.22552 0.0
H488 H 0.06219 0.51735 0.25165 0.0
C489 C 0.94353 0.4823 0.22397 0.0
C490 C 0.95304 0.52758 0.23111 0.0
H491 H 0.96971 0.41571 0.21748 0.0
H492 H 0.91105 0.47235 0.21483 0.0
C493 C 0.99564 0.53904 0.2429 0.0
C494 C 0.04808 0.94802 0.72194 0.0
C495 C 1.0035 0.95896 0.7314 0.0
H496 H 0.11455 0.97235 0.7122 0.0
C497 C 0.99363 1.00269 0.74387 0.0
H498 H 0.05682 0.91466 0.7122 0.0
C499 C 0.02655 0.03559 0.74387 0.0
C500 C 0.07027 0.02569 0.73141 0.0
H501 H 0.95977 1.01224 0.75169 0.0
H502 H 0.01701 0.06945 0.75169 0.0
C503 C 0.0812 0.98112 0.72195 0.0
C504 C 0.57867 0.48337 0.36825 0.0
C505 C 0.56758 0.52812 0.36245 0.0
H506 H 0.55452 0.4167 0.37515 0.0
C507 C 0.52359 0.53823 0.35363 0.0
H508 H 0.61222 0.47443 0.37514 0.0
C509 C 0.49068 0.50531 0.35363 0.0
C510 C 0.50081 0.46132 0.36245 0.0
H511 H 0.5139 0.57223 0.34868 0.0
H512 H 0.45668 0.51499 0.34869 0.0
C513 C 0.54556 0.45025 0.36826 0.0
C514 C 0.08206 0.55104 0.87184 0.0
C515 C 0.07258 0.50575 0.86472 0.0
H516 H 0.05586 0.61762 0.87831 0.0
C517 C 0.02997 0.49427 0.85295 0.0
H518 H 0.11454 0.56101 0.88096 0.0
C519 C 0.99652 0.52656 0.85137 0.0
C520 C 1.00472 0.57123 0.86156 0.0
H521 H 0.0216 0.45979 0.84688 0.0
H522 H 0.96341 0.51592 0.8442 0.0
C523 C 0.0484 0.58351 0.87028 0.0
C524 C 0.99856 0.99744 0.3521 0.0
C525 C 0.95485 1.00732 0.36458 0.0
H526 H 0.06534 0.02079 0.34426 0.0
C527 C 0.94392 0.05189 0.37407 0.0
H528 H 1.0081 0.96358 0.34426 0.0
C529 C 0.97704 0.085 0.37407 0.0
C530 C 0.02161 0.07406 0.36458 0.0
H531 H 0.91057 0.06065 0.38383 0.0
H532 H 0.9683 0.11835 0.38383 0.0
C533 C 0.03148 0.03034 0.3521 0.0
C534 C 0.53525 0.99955 0.85304 0.0
C535 C 0.52376 0.95694 0.86481 0.0
H536 H 0.5136 0.06611 0.8443 0.0
C537 C 0.47847 0.94746 0.87194 0.0
H538 H 0.56973 1.00792 0.84696 0.0
C539 C 0.446 0.98113 0.87039 0.0
C540 C 0.45829 0.02481 0.86167 0.0
H541 H 0.4685 0.91498 0.88107 0.0
H542 H 0.41189 0.97368 0.87843 0.0
C543 C 0.50296 0.03301 0.85146 0.0
loop_
_geom_bond_atom_site_label_1
_geom_bond_atom_site_label_2
_geom_bond_distance
_geom_bond_site_symmetry_2
_ccdc_geom_bond_type
O0 Cd1 2.223 . S
O0 C8 1.315 . S
Cd1 O0 2.223 . S
Cd1 O4 2.297 . S
Cd1 O5 2.439 . S
Cd1 O11 2.240 . S
Cd2 O3 2.240 . S
Cd2 O10 2.223 . S
Cd2 O12 2.297 . S
Cd2 O13 2.439 . S
O3 Cd2 2.240 . S
O3 C8 1.279 . S
O4 Cd1 2.297 . S
O4 C6 1.247 . S
O5 Cd1 2.439 . S
O5 C6 1.208 . S
C6 O4 1.247 . S
C6 O5 1.208 . S
C7 O12 1.247 . S
C7 O13 1.208 . S
C8 O0 1.315 . S
C8 O3 1.279 . S
C9 O10 1.315 . S
C9 O11 1.279 . S
O10 Cd2 2.223 . S
O10 C9 1.315 . S
O11 Cd1 2.240 . S
O11 C9 1.279 . S
O12 Cd2 2.297 . S
O12 C7 1.247 . S
O13 Cd2 2.439 . S
O13 C7 1.208 . S
O14 Cd15 2.223 . S
O14 C22 1.315 . S
Cd15 O14 2.223 . S
Cd15 O18 2.297 . S
Cd15 O19 2.439 . S
Cd15 O25 2.240 . S
Cd16 O17 2.240 . S
Cd16 O24 2.223 . S
Cd16 O26 2.297 . S
Cd16 O27 2.439 . S
O17 Cd16 2.240 . S
O17 C22 1.279 . S
O18 Cd15 2.297 . S
O18 C20 1.247 . S
O19 Cd15 2.439 . S
O19 C20 1.208 . S
C20 O18 1.247 . S
C20 O19 1.208 . S
C21 O26 1.247 . S
C21 O27 1.208 . S
C22 O14 1.315 . S
C22 O17 1.279 . S
C23 O24 1.315 . S
C23 O25 1.279 . S
O24 Cd16 2.223 . S
O24 C23 1.315 . S
O25 Cd15 2.240 . S
O25 C23 1.279 . S
O26 Cd16 2.297 . S
O26 C21 1.247 . S
O27 Cd16 2.439 . S
O27 C21 1.208 . S
O28 Cd29 2.223 . S
O28 C36 1.315 . S
Cd29 O28 2.223 . S
Cd29 O32 2.297 . S
Cd29 O33 2.439 . S
Cd29 O39 2.240 . S
Cd30 O31 2.240 . S
Cd30 O38 2.223 . S
Cd30 O40 2.297 . S
Cd30 O41 2.439 . S
O31 Cd30 2.240 . S
O31 C36 1.279 . S
O32 Cd29 2.297 . S
O32 C34 1.247 . S
O33 Cd29 2.439 . S
O33 C34 1.208 . S
C34 O32 1.247 . S
C34 O33 1.208 . S
C35 O40 1.247 . S
C35 O41 1.208 . S
C36 O28 1.315 . S
C36 O31 1.279 . S
C37 O38 1.315 . S
C37 O39 1.279 . S
O38 Cd30 2.223 . S
O38 C37 1.315 . S
O39 Cd29 2.240 . S
O39 C37 1.279 . S
O40 Cd30 2.297 . S
O40 C35 1.247 . S
O41 Cd30 2.439 . S
O41 C35 1.208 . S
O42 Cd43 2.223 . S
O42 C50 1.315 . S
Cd43 O42 2.223 . S
Cd43 O46 2.297 . S
Cd43 O47 2.439 . S
Cd43 O53 2.240 . S
Cd44 O45 2.240 . S
Cd44 O52 2.223 . S
Cd44 O54 2.297 . S
Cd44 O55 2.439 . S
O45 Cd44 2.240 . S
O45 C50 1.279 . S
O46 Cd43 2.297 . S
O46 C48 1.247 . S
O47 Cd43 2.439 . S
O47 C48 1.208 . S
C48 O46 1.247 . S
C48 O47 1.208 . S
C49 O54 1.247 . S
C49 O55 1.208 . S
C50 O42 1.315 . S
C50 O45 1.279 . S
C51 O52 1.315 . S
C51 O53 1.279 . S
O52 Cd44 2.223 . S
O52 C51 1.315 . S
O53 Cd43 2.240 . S
O53 C51 1.279 . S
O54 Cd44 2.297 . S
O54 C49 1.247 . S
O55 Cd44 2.439 . S
O55 C49 1.208 . S
O56 Cd57 2.223 . S
O56 C64 1.315 . S
Cd57 O56 2.223 . S
Cd57 O60 2.297 . S
Cd57 O61 2.439 . S
Cd57 O67 2.240 . S
Cd58 O59 2.240 . S
Cd58 O66 2.223 . S
Cd58 O68 2.297 . S
Cd58 O69 2.439 . S
O59 Cd58 2.240 . S
O59 C64 1.279 . S
O60 Cd57 2.297 . S
O60 C62 1.247 . S
O61 Cd57 2.439 . S
O61 C62 1.208 . S
C62 O60 1.247 . S
C62 O61 1.208 . S
C63 O68 1.247 . S
C63 O69 1.208 . S
C64 O56 1.315 . S
C64 O59 1.279 . S
C65 O66 1.315 . S
C65 O67 1.279 . S
O66 Cd58 2.223 . S
O66 C65 1.315 . S
O67 Cd57 2.240 . S
O67 C65 1.279 . S
O68 Cd58 2.297 . S
O68 C63 1.247 . S
O69 Cd58 2.439 . S
O69 C63 1.208 . S
O70 Cd71 2.223 . S
O70 C78 1.315 . S
Cd71 O70 2.223 . S
Cd71 O74 2.297 . S
Cd71 O75 2.439 . S
Cd71 O81 2.240 . S
Cd72 O73 2.240 . S
Cd72 O80 2.223 . S
Cd72 O82 2.297 . S
Cd72 O83 2.439 . S
O73 Cd72 2.240 . S
O73 C78 1.279 . S
O74 Cd71 2.297 . S
O74 C76 1.247 . S
O75 Cd71 2.439 . S
O75 C76 1.208 . S
C76 O74 1.247 . S
C76 O75 1.208 . S
C77 O82 1.247 . S
C77 O83 1.208 . S
C78 O70 1.315 . S
C78 O73 1.279 . S
C79 O80 1.315 . S
C79 O81 1.279 . S
O80 Cd72 2.223 . S
O80 C79 1.315 . S
O81 Cd71 2.240 . S
O81 C79 1.279 . S
O82 Cd72 2.297 . S
O82 C77 1.247 . S
O83 Cd72 2.439 . S
O83 C77 1.208 . S
O84 Cd85 2.223 . S
O84 C92 1.315 . S
Cd85 O84 2.223 . S
Cd85 O88 2.297 . S
Cd85 O89 2.439 . S
Cd85 O95 2.240 . S
Cd86 O87 2.240 . S
Cd86 O94 2.223 . S
Cd86 O96 2.297 . S
Cd86 O97 2.439 . S
O87 Cd86 2.240 . S
O87 C92 1.279 . S
O88 Cd85 2.297 . S
O88 C90 1.247 . S
O89 Cd85 2.439 . S
O89 C90 1.208 . S
C90 O88 1.247 . S
C90 O89 1.208 . S
C91 O96 1.247 . S
C91 O97 1.208 . S
C92 O84 1.315 . S
C92 O87 1.279 . S
C93 O94 1.315 . S
C93 O95 1.279 . S
O94 Cd86 2.223 . S
O94 C93 1.315 . S
O95 Cd85 2.240 . S
O95 C93 1.279 . S
O96 Cd86 2.297 . S
O96 C91 1.247 . S
O97 Cd86 2.439 . S
O97 C91 1.208 . S
O98 Cd99 2.223 . S
O98 C106 1.315 . S
Cd99 O98 2.223 . S
Cd99 O102 2.297 . S
Cd99 O103 2.439 . S
Cd99 O109 2.240 . S
Cd100 O101 2.240 . S
Cd100 O108 2.223 . S
Cd100 O110 2.297 . S
Cd100 O111 2.439 . S
O101 Cd100 2.240 . S
O101 C106 1.279 . S
O102 Cd99 2.297 . S
O102 C104 1.247 . S
O103 Cd99 2.439 . S
O103 C104 1.208 . S
C104 O102 1.247 . S
C104 O103 1.208 . S
C105 O110 1.247 . S
C105 O111 1.208 . S
C106 O98 1.315 . S
C106 O101 1.279 . S
C107 O108 1.315 . S
C107 O109 1.279 . S
O108 Cd100 2.223 . S
O108 C107 1.315 . S
O109 Cd99 2.240 . S
O109 C107 1.279 . S
O110 Cd100 2.297 . S
O110 C105 1.247 . S
O111 Cd100 2.439 . S
O111 C105 1.208 . S
O112 Cd113 2.223 . S
O112 C120 1.315 . S
Cd113 O112 2.223 . S
Cd113 O116 2.297 . S
Cd113 O117 2.439 . S
Cd113 O123 2.240 . S
Cd114 O115 2.240 . S
Cd114 O122 2.223 . S
Cd114 O124 2.297 . S
Cd114 O125 2.439 . S
O115 Cd114 2.240 . S
O115 C120 1.279 . S
O116 Cd113 2.297 . S
O116 C118 1.247 . S
O117 Cd113 2.439 . S
O117 C118 1.208 . S
C118 O116 1.247 . S
C118 O117 1.208 . S
C119 O124 1.247 . S
C119 O125 1.208 . S
C120 O112 1.315 . S
C120 O115 1.279 . S
C121 O122 1.315 . S
C121 O123 1.279 . S
O122 Cd114 2.223 . S
O122 C121 1.315 . S
O123 Cd113 2.240 . S
O123 C121 1.279 . S
O124 Cd114 2.297 . S
O124 C119 1.247 . S
O125 Cd114 2.439 . S
O125 C119 1.208 . S
O126 Cd127 2.223 . S
O126 C134 1.315 . S
Cd127 O126 2.223 . S
Cd127 O130 2.297 . S
Cd127 O131 2.439 . S
Cd127 O137 2.240 . S
Cd128 O129 2.240 . S
Cd128 O136 2.223 . S
Cd128 O138 2.297 . S
Cd128 O139 2.439 . S
O129 Cd128 2.240 . S
O129 C134 1.279 . S
O130 Cd127 2.297 . S
O130 C132 1.247 . S
O131 Cd127 2.439 . S
O131 C132 1.208 . S
C132 O130 1.247 . S
C132 O131 1.208 . S
C133 O138 1.247 . S
C133 O139 1.208 . S
C134 O126 1.315 . S
C134 O129 1.279 . S
C135 O136 1.315 . S
C135 O137 1.279 . S
O136 Cd128 2.223 . S
O136 C135 1.315 . S
O137 Cd127 2.240 . S
O137 C135 1.279 . S
O138 Cd128 2.297 . S
O138 C133 1.247 . S
O139 Cd128 2.439 . S
O139 C133 1.208 . S
O140 Cd141 2.223 . S
O140 C148 1.315 . S
Cd141 O140 2.223 . S
Cd141 O144 2.297 . S
Cd141 O145 2.439 . S
Cd141 O151 2.240 . S
Cd142 O143 2.240 . S
Cd142 O150 2.223 . S
Cd142 O152 2.297 . S
Cd142 O153 2.439 . S
O143 Cd142 2.240 . S
O143 C148 1.279 . S
O144 Cd141 2.297 . S
O144 C146 1.247 . S
O145 Cd141 2.439 . S
O145 C146 1.208 . S
C146 O144 1.247 . S
C146 O145 1.208 . S
C147 O152 1.247 . S
C147 O153 1.208 . S
C148 O140 1.315 . S
C148 O143 1.279 . S
C149 O150 1.315 . S
C149 O151 1.279 . S
O150 Cd142 2.223 . S
O150 C149 1.315 . S
O151 Cd141 2.240 . S
O151 C149 1.279 . S
O152 Cd142 2.297 . S
O152 C147 1.247 . S
O153 Cd142 2.439 . S
O153 C147 1.208 . S
O154 Cd155 2.223 . S
O154 C162 1.315 . S
Cd155 O154 2.223 . S
Cd155 O158 2.297 . S
Cd155 O159 2.439 . S
Cd155 O165 2.240 . S
Cd156 O157 2.240 . S
Cd156 O164 2.223 . S
Cd156 O166 2.297 . S
Cd156 O167 2.439 . S
O157 Cd156 2.240 . S
O157 C162 1.279 . S
O158 Cd155 2.297 . S
O158 C160 1.247 . S
O159 Cd155 2.439 . S
O159 C160 1.208 . S
C160 O158 1.247 . S
C160 O159 1.208 . S
C161 O166 1.247 . S
C161 O167 1.208 . S
C162 O154 1.315 . S
C162 O157 1.279 . S
C163 O164 1.315 . S
C163 O165 1.279 . S
O164 Cd156 2.223 . S
O164 C163 1.315 . S
O165 Cd155 2.240 . S
O165 C163 1.279 . S
O166 Cd156 2.297 . S
O166 C161 1.247 . S
O167 Cd156 2.439 . S
O167 C161 1.208 . S
O168 Cd169 2.223 . S
O168 C176 1.315 . S
Cd169 O168 2.223 . S
Cd169 O172 2.297 . S
Cd169 O173 2.439 . S
Cd169 O179 2.240 . S
Cd170 O171 2.240 . S
Cd170 O178 2.223 . S
Cd170 O180 2.297 . S
Cd170 O181 2.439 . S
O171 Cd170 2.240 . S
O171 C176 1.279 . S
O172 Cd169 2.297 . S
O172 C174 1.247 . S
O173 Cd169 2.439 . S
O173 C174 1.208 . S
C174 O172 1.247 . S
C174 O173 1.208 . S
C175 O180 1.247 . S
C175 O181 1.208 . S
C176 O168 1.315 . S
C176 O171 1.279 . S
C177 O178 1.315 . S
C177 O179 1.279 . S
O178 Cd170 2.223 . S
O178 C177 1.315 . S
O179 Cd169 2.240 . S
O179 C177 1.279 . S
O180 Cd170 2.297 . S
O180 C175 1.247 . S
O181 Cd170 2.439 . S
O181 C175 1.208 . S
O182 Cd183 2.223 . S
O182 C190 1.315 . S
Cd183 O182 2.223 . S
Cd183 O186 2.297 . S
Cd183 O187 2.439 . S
Cd183 O193 2.240 . S
Cd184 O185 2.240 . S
Cd184 O192 2.223 . S
Cd184 O194 2.297 . S
Cd184 O195 2.439 . S
O185 Cd184 2.240 . S
O185 C190 1.279 . S
O186 Cd183 2.297 . S
O186 C188 1.247 . S
O187 Cd183 2.439 . S
O187 C188 1.208 . S
C188 O186 1.247 . S
C188 O187 1.208 . S
C189 O194 1.247 . S
C189 O195 1.208 . S
C190 O182 1.315 . S
C190 O185 1.279 . S
C191 O192 1.315 . S
C191 O193 1.279 . S
O192 Cd184 2.223 . S
O192 C191 1.315 . S
O193 Cd183 2.240 . S
O193 C191 1.279 . S
O194 Cd184 2.297 . S
O194 C189 1.247 . S
O195 Cd184 2.439 . S
O195 C189 1.208 . S
O196 Cd197 2.223 . S
O196 C204 1.315 . S
Cd197 O196 2.223 . S
Cd197 O200 2.297 . S
Cd197 O201 2.439 . S
Cd197 O207 2.240 . S
Cd198 O199 2.240 . S
Cd198 O206 2.223 . S
Cd198 O208 2.297 . S
Cd198 O209 2.439 . S
O199 Cd198 2.240 . S
O199 C204 1.279 . S
O200 Cd197 2.297 . S
O200 C202 1.247 . S
O201 Cd197 2.439 . S
O201 C202 1.208 . S
C202 O200 1.247 . S
C202 O201 1.208 . S
C203 O208 1.247 . S
C203 O209 1.208 . S
C204 O196 1.315 . S
C204 O199 1.279 . S
C205 O206 1.315 . S
C205 O207 1.279 . S
O206 Cd198 2.223 . S
O206 C205 1.315 . S
O207 Cd197 2.240 . S
O207 C205 1.279 . S
O208 Cd198 2.297 . S
O208 C203 1.247 . S
O209 Cd198 2.439 . S
O209 C203 1.208 . S
O210 Cd211 2.223 . S
O210 C218 1.315 . S
Cd211 O210 2.223 . S
Cd211 O214 2.297 . S
Cd211 O215 2.439 . S
Cd211 O221 2.240 . S
Cd212 O213 2.240 . S
Cd212 O220 2.223 . S
Cd212 O222 2.297 . S
Cd212 O223 2.439 . S
O213 Cd212 2.240 . S
O213 C218 1.279 . S
O214 Cd211 2.297 . S
O214 C216 1.247 . S
O215 Cd211 2.439 . S
O215 C216 1.208 . S
C216 O214 1.247 . S
C216 O215 1.208 . S
C217 O222 1.247 . S
C217 O223 1.208 . S
C218 O210 1.315 . S
C218 O213 1.279 . S
C219 O220 1.315 . S
C219 O221 1.279 . S
O220 Cd212 2.223 . S
O220 C219 1.315 . S
O221 Cd211 2.240 . S
O221 C219 1.279 . S
O222 Cd212 2.297 . S
O222 C217 1.247 . S
O223 Cd212 2.439 . S
O223 C217 1.208 . S
C224 C225 1.387 . S
C224 H228 0.950 . S
C224 C233 1.390 . S
C225 C224 1.387 . S
C225 C227 1.387 1_556 S
H226 C233 0.950 . S
C227 C225 1.387 1_554 S
C227 C229 1.390 . S
C227 H231 0.950 . S
H228 C224 0.950 . S
C229 C227 1.390 . S
C229 C230 1.387 . S
C229 H232 0.950 . S
C230 C229 1.387 . S
C230 C233 1.387 1_554 S
H231 C227 0.950 . S
H232 C229 0.950 . S
C233 C224 1.390 . S
C233 H226 0.950 . S
C233 C230 1.387 1_556 S
C234 C235 1.387 . S
C234 H238 0.950 . S
C234 C243 1.390 . S
C235 C234 1.387 . S
C235 C237 1.387 . S
H236 C243 0.950 . S
C237 C235 1.387 . S
C237 C239 1.390 . S
C237 H241 0.950 . S
H238 C234 0.950 . S
C239 C237 1.390 . S
C239 C240 1.387 . S
C239 H242 0.950 . S
C240 C239 1.387 . S
C240 C243 1.387 . S
H241 C237 0.950 . S
H242 C239 0.950 . S
C243 C234 1.390 . S
C243 H236 0.950 . S
C243 C240 1.387 . S
C244 C245 1.387 1_554 S
C244 H248 0.950 . S
C244 C253 1.390 . S
C245 C244 1.387 1_556 S
C245 C247 1.387 . S
H246 C253 0.950 . S
C247 C245 1.387 . S
C247 C249 1.408 . S
C247 H251 0.950 . S
H248 C244 0.950 . S
C249 C247 1.408 . S
C249 C250 1.363 1_556 S
C249 H252 0.958 . S
C250 C249 1.363 1_554 S
C250 C253 1.387 . S
H251 C247 0.950 . S
H252 C249 0.958 . S
C253 C244 1.390 . S
C253 H246 0.950 . S
C253 C250 1.387 . S
C254 C255 1.387 . S
C254 H258 0.950 . S
C254 C263 1.390 . S
C255 C254 1.387 . S
C255 C257 1.387 . S
H256 C263 0.950 . S
C257 C255 1.387 . S
C257 C259 1.390 . S
C257 H261 0.950 . S
H258 C254 0.950 . S
C259 C257 1.390 . S
C259 C260 1.387 . S
C259 H262 0.950 . S
C260 C259 1.387 . S
C260 C263 1.387 . S
H261 C257 0.950 . S
H262 C259 0.950 . S
C263 C254 1.390 . S
C263 H256 0.950 . S
C263 C260 1.387 . S
C264 C265 1.387 . S
C264 H268 0.950 . S
C264 C273 1.390 . S
C265 C264 1.387 . S
C265 C267 1.387 1_554 S
H266 C273 0.950 . S
C267 C265 1.387 1_556 S
C267 C269 1.390 . S
C267 H271 0.950 . S
H268 C264 0.950 . S
C269 C267 1.390 . S
C269 C270 1.387 . S
C269 H272 0.950 . S
C270 C269 1.387 . S
C270 C273 1.387 1_556 S
H271 C267 0.950 . S
H272 C269 0.950 . S
C273 C264 1.390 . S
C273 H266 0.950 . S
C273 C270 1.387 1_554 S
C274 C275 1.387 . S
C274 H278 0.950 . S
C274 C283 1.390 . S
C275 C274 1.387 . S
C275 C277 1.387 . S
H276 C283 0.950 . S
C277 C275 1.387 . S
C277 C279 1.390 . S
C277 H281 0.950 . S
H278 C274 0.950 . S
C279 C277 1.390 . S
C279 C280 1.387 . S
C279 H282 0.950 . S
C280 C279 1.387 . S
C280 C283 1.387 . S
H281 C277 0.950 . S
H282 C279 0.950 . S
C283 C274 1.390 . S
C283 H276 0.950 . S
C283 C280 1.387 . S
C284 C285 1.387 . S
C284 H288 0.950 . S
C284 C293 1.390 . S
C285 C284 1.387 . S
C285 C287 1.387 1_556 S
H286 C293 0.950 . S
C287 C285 1.387 1_554 S
C287 C289 1.390 . S
C287 H291 0.950 . S
H288 C284 0.950 . S
C289 C287 1.390 . S
C289 C290 1.387 . S
C289 H292 0.950 . S
C290 C289 1.387 . S
C290 C293 1.387 1_554 S
H291 C287 0.950 . S
H292 C289 0.950 . S
C293 C284 1.390 . S
C293 H286 0.950 . S
C293 C290 1.387 1_556 S
C294 C295 1.387 . S
C294 H298 0.950 . S
C294 C303 1.390 . S
C295 C294 1.387 . S
C295 C297 1.387 . S
H296 C303 0.950 . S
C297 C295 1.387 . S
C297 C299 1.390 . S
C297 H301 0.950 . S
H298 C294 0.950 . S
C299 C297 1.390 . S
C299 C300 1.387 . S
C299 H302 0.950 . S
C300 C299 1.387 . S
C300 C303 1.387 . S
H301 C297 0.950 . S
H302 C299 0.950 . S
C303 C294 1.390 . S
C303 H296 0.950 . S
C303 C300 1.387 . S
C304 C305 1.387 . S
C304 H308 0.950 . S
C304 C313 1.390 . S
C305 C304 1.387 . S
C305 C307 1.387 . S
H306 C313 0.950 . S
C307 C305 1.387 . S
C307 C309 1.390 . S
C307 H311 0.950 . S
H308 C304 0.950 . S
C309 C307 1.390 . S
C309 C310 1.387 . S
C309 H312 0.950 . S
C310 C309 1.387 . S
C310 C313 1.387 . S
H311 C307 0.950 . S
H312 C309 0.950 . S
C313 C304 1.390 . S
C313 H306 0.950 . S
C313 C310 1.387 . S
C314 C315 1.387 . S
C314 H318 0.950 . S
C314 C323 1.390 . S
C315 C314 1.387 . S
C315 C317 1.387 . S
H316 C323 0.950 . S
C317 C315 1.387 . S
C317 C319 1.390 . S
C317 H321 0.950 . S
H318 C314 0.950 . S
C319 C317 1.390 . S
C319 C320 1.387 . S
C319 H322 0.950 . S
C320 C319 1.387 . S
C320 C323 1.387 . S
H321 C317 0.950 . S
H322 C319 0.950 . S
C323 C314 1.390 . S
C323 H316 0.950 . S
C323 C320 1.387 . S
C324 C325 1.387 . S
C324 H328 0.950 . S
C324 C333 1.390 . S
C325 C324 1.387 . S
C325 C327 1.387 . S
H326 C333 0.950 . S
C327 C325 1.387 . S
C327 C329 1.390 . S
C327 H331 0.950 . S
H328 C324 0.950 . S
C329 C327 1.390 . S
C329 C330 1.387 . S
C329 H332 0.950 . S
C330 C329 1.387 . S
C330 C333 1.387 . S
H331 C327 0.950 . S
H332 C329 0.950 . S
C333 C324 1.390 . S
C333 H326 0.950 . S
C333 C330 1.387 . S
C334 C335 1.387 . S
C334 H338 0.950 . S
C334 C343 1.390 . S
C335 C334 1.387 . S
C335 C337 1.387 . S
H336 C343 0.950 . S
C337 C335 1.387 . S
C337 C339 1.390 . S
C337 H341 0.950 . S
H338 C334 0.950 . S
C339 C337 1.390 . S
C339 C340 1.387 . S
C339 H342 0.950 . S
C340 C339 1.387 . S
C340 C343 1.387 . S
H341 C337 0.950 . S
H342 C339 0.950 . S
C343 C334 1.390 . S
C343 H336 0.950 . S
C343 C340 1.387 . S
C344 C345 1.387 . S
C344 H348 0.950 . S
C344 C353 1.390 . S
C345 C344 1.387 . S
C345 C347 1.387 . S
H346 C353 0.950 . S
C347 C345 1.387 . S
C347 C349 1.390 . S
C347 H351 0.950 . S
H348 C344 0.950 . S
C349 C347 1.390 . S
C349 C350 1.387 . S
C349 H352 0.950 . S
C350 C349 1.387 . S
C350 C353 1.387 . S
H351 C347 0.950 . S
H352 C349 0.950 . S
C353 C344 1.390 . S
C353 H346 0.950 . S
C353 C350 1.387 . S
C354 C355 1.387 . S
C354 H358 0.950 . S
C354 C363 1.390 . S
C355 C354 1.387 . S
C355 C357 1.387 . S
H356 C363 0.950 . S
C357 C355 1.387 . S
C357 C359 1.390 . S
C357 H361 0.950 . S
H358 C354 0.950 . S
C359 C357 1.390 . S
C359 C360 1.387 . S
C359 H362 0.950 . S
C360 C359 1.387 . S
C360 C363 1.387 . S
H361 C357 0.950 . S
H362 C359 0.950 . S
C363 C354 1.390 . S
C363 H356 0.950 . S
C363 C360 1.387 . S
C364 C365 1.387 . S
C364 H368 0.950 . S
C364 C373 1.390 . S
C365 C364 1.387 . S
C365 C367 1.387 . S
H366 C373 0.950 . S
C367 C365 1.387 . S
C367 C369 1.390 . S
C367 H371 0.950 . S
H368 C364 0.950 . S
C369 C367 1.390 . S
C369 C370 1.387 . S
C369 H372 0.950 . S
C370 C369 1.387 . S
C370 C373 1.387 . S
H371 C367 0.950 . S
H372 C369 0.950 . S
C373 C364 1.390 . S
C373 H366 0.950 . S
C373 C370 1.387 . S
C374 C375 1.387 . S
C374 H378 0.950 . S
C374 C383 1.390 . S
C375 C374 1.387 . S
C375 C377 1.387 . S
H376 C383 0.950 . S
C377 C375 1.387 . S
C377 C379 1.390 . S
C377 H381 0.950 . S
H378 C374 0.950 . S
C379 C377 1.390 . S
C379 C380 1.387 . S
C379 H382 0.950 . S
C380 C379 1.387 . S
C380 C383 1.387 . S
H381 C377 0.950 . S
H382 C379 0.950 . S
C383 C374 1.390 . S
C383 H376 0.950 . S
C383 C380 1.387 . S
C384 C385 1.387 . S
C384 H388 0.950 . S
C384 C393 1.390 . S
C385 C384 1.387 . S
C385 C387 1.387 . S
H386 C393 0.950 . S
C387 C385 1.387 . S
C387 C389 1.390 . S
C387 H391 0.950 . S
H388 C384 0.950 . S
C389 C387 1.390 . S
C389 C390 1.387 . S
C389 H392 0.950 . S
C390 C389 1.387 . S
C390 C393 1.387 . S
H391 C387 0.950 . S
H392 C389 0.950 . S
C393 C384 1.390 . S
C393 H386 0.950 . S
C393 C390 1.387 . S
C394 C395 1.387 . S
C394 H398 0.950 . S
C394 C403 1.390 . S
C395 C394 1.387 . S
C395 C397 1.387 . S
H396 C403 0.950 . S
C397 C395 1.387 . S
C397 C399 1.390 . S
C397 H401 0.950 . S
H398 C394 0.950 . S
C399 C397 1.390 . S
C399 C400 1.387 . S
C399 H402 0.950 . S
C400 C399 1.387 . S
C400 C403 1.387 . S
H401 C397 0.950 . S
H402 C399 0.950 . S
C403 C394 1.390 . S
C403 H396 0.950 . S
C403 C400 1.387 . S
C404 C405 1.387 . S
C404 H408 0.950 . S
C404 C413 1.390 . S
C405 C404 1.387 . S
C405 C407 1.387 . S
H406 C413 0.950 . S
C407 C405 1.387 . S
C407 C409 1.390 . S
C407 H411 0.950 . S
H408 C404 0.950 . S
C409 C407 1.390 . S
C409 C410 1.387 . S
C409 H412 0.950 . S
C410 C409 1.387 . S
C410 C413 1.387 . S
H411 C407 0.950 . S
H412 C409 0.950 . S
C413 C404 1.390 . S
C413 H406 0.950 . S
C413 C410 1.387 . S
C414 C415 1.387 . S
C414 H418 0.950 . S
C414 C423 1.390 . S
C415 C414 1.387 . S
C415 C417 1.387 . S
H416 C423 0.950 . S
C417 C415 1.387 . S
C417 C419 1.390 . S
C417 H421 0.950 . S
H418 C414 0.950 . S
C419 C417 1.390 . S
C419 C420 1.387 . S
C419 H422 0.950 . S
C420 C419 1.387 . S
C420 C423 1.387 . S
H421 C417 0.950 . S
H422 C419 0.950 . S
C423 C414 1.390 . S
C423 H416 0.950 . S
C423 C420 1.387 . S
C424 C425 1.387 . S
C424 H428 0.950 . S
C424 C433 1.390 . S
C425 C424 1.387 . S
C425 C427 1.387 . S
H426 C433 0.950 . S
C427 C425 1.387 . S
C427 C429 1.390 . S
C427 H431 0.950 . S
H428 C424 0.950 . S
C429 C427 1.390 . S
C429 C430 1.387 . S
C429 H432 0.950 . S
C430 C429 1.387 . S
C430 C433 1.387 . S
H431 C427 0.950 . S
H432 C429 0.950 . S
C433 C424 1.390 . S
C433 H426 0.950 . S
C433 C430 1.387 . S
C434 C435 1.387 . S
C434 H438 0.950 . S
C434 C443 1.390 . S
C435 C434 1.387 . S
C435 C437 1.387 . S
H436 C443 0.950 . S
C437 C435 1.387 . S
C437 C439 1.390 . S
C437 H441 0.950 . S
H438 C434 0.950 . S
C439 C437 1.390 . S
C439 C440 1.387 . S
C439 H442 0.950 . S
C440 C439 1.387 . S
C440 C443 1.387 . S
H441 C437 0.950 . S
H442 C439 0.950 . S
C443 C434 1.390 . S
C443 H436 0.950 . S
C443 C440 1.387 . S
C444 C445 1.387 . S
C444 H448 0.950 . S
C444 C453 1.390 . S
C445 C444 1.387 . S
C445 C447 1.387 . S
H446 C453 0.950 . S
C447 C445 1.387 . S
C447 C449 1.390 . S
C447 H451 0.950 . S
H448 C444 0.950 . S
C449 C447 1.390 . S
C449 C450 1.387 . S
C449 H452 0.950 . S
C450 C449 1.387 . S
C450 C453 1.387 . S
H451 C447 0.950 . S
H452 C449 0.950 . S
C453 C444 1.390 . S
C453 H446 0.950 . S
C453 C450 1.387 . S
C454 C455 1.387 . S
C454 H458 0.950 . S
C454 C463 1.390 . S
C455 C454 1.387 . S
C455 C457 1.387 . S
H456 C463 0.950 . S
C457 C455 1.387 . S
C457 C459 1.390 . S
C457 H461 0.950 . S
H458 C454 0.950 . S
C459 C457 1.390 . S
C459 C460 1.387 . S
C459 H462 0.950 . S
C460 C459 1.387 . S
C460 C463 1.387 . S
H461 C457 0.950 . S
H462 C459 0.950 . S
C463 C454 1.390 . S
C463 H456 0.950 . S
C463 C460 1.387 . S
C464 C465 1.387 1_565 S
C464 H468 0.950 1_565 S
C464 C473 1.390 . S
C465 C464 1.387 1_545 S
C465 C467 1.387 1_545 S
H466 C473 0.950 . S
C467 C465 1.387 1_565 S
C467 C469 1.390 . S
C467 H471 0.950 . S
H468 C464 0.950 1_545 S
C469 C467 1.390 . S
C469 C470 1.387 . S
C469 H472 0.950 . S
C470 C469 1.387 . S
C470 C473 1.387 . S
H471 C467 0.950 . S
H472 C469 0.950 . S
C473 C464 1.390 . S
C473 H466 0.950 . S
C473 C470 1.387 . S
C474 C475 1.387 . S
C474 H478 0.950 . S
C474 C483 1.390 . S
C475 C474 1.387 . S
C475 C477 1.387 . S
H476 C483 0.950 . S
C477 C475 1.387 . S
C477 C479 1.390 . S
C477 H481 0.950 . S
H478 C474 0.950 . S
C479 C477 1.390 . S
C479 C480 1.387 . S
C479 H482 0.950 . S
C480 C479 1.387 . S
C480 C483 1.387 . S
H481 C477 0.950 . S
H482 C479 0.950 . S
C483 C474 1.390 . S
C483 H476 0.950 . S
C483 C480 1.387 . S
C484 C485 1.387 . S
C484 H488 0.950 . S
C484 C493 1.390 . S
C485 C484 1.387 . S
C485 C487 1.387 . S
H486 C493 0.950 . S
C487 C485 1.387 . S
C487 C489 1.390 . S
C487 H491 0.950 . S
H488 C484 0.950 . S
C489 C487 1.390 . S
C489 C490 1.387 1_455 S
C489 H492 0.950 1_455 S
C490 C489 1.387 1_655 S
C490 C493 1.387 1_655 S
H491 C487 0.950 . S
H492 C489 0.950 1_655 S
C493 C484 1.390 . S
C493 H486 0.950 . S
C493 C490 1.387 1_455 S
C494 C495 1.387 . S
C494 H498 0.950 . S
C494 C503 1.390 . S
C495 C494 1.387 . S
C495 C497 1.387 . S
H496 C503 0.950 . S
C497 C495 1.387 . S
C497 C499 1.390 . S
C497 H501 0.950 . S
H498 C494 0.950 . S
C499 C497 1.390 . S
C499 C500 1.387 . S
C499 H502 0.950 . S
C500 C499 1.387 . S
C500 C503 1.387 . S
H501 C497 0.950 . S
H502 C499 0.950 . S
C503 C494 1.390 . S
C503 H496 0.950 . S
C503 C500 1.387 . S
C504 C505 1.387 . S
C504 H508 0.950 . S
C504 C513 1.390 . S
C505 C504 1.387 . S
C505 C507 1.387 . S
H506 C513 0.950 . S
C507 C505 1.387 . S
C507 C509 1.390 . S
C507 H511 0.950 . S
H508 C504 0.950 . S
C509 C507 1.390 . S
C509 C510 1.387 . S
C509 H512 0.950 . S
C510 C509 1.387 . S
C510 C513 1.387 . S
H511 C507 0.950 . S
H512 C509 0.950 . S
C513 C504 1.390 . S
C513 H506 0.950 . S
C513 C510 1.387 . S
C514 C515 1.387 1_655 S
C514 H518 0.950 1_655 S
C514 C523 1.390 . S
C515 C514 1.387 1_455 S
C515 C517 1.387 1_455 S
H516 C523 0.950 . S
C517 C515 1.387 1_655 S
C517 C519 1.390 . S
C517 H521 0.950 . S
H518 C514 0.950 1_455 S
C519 C517 1.390 . S
C519 C520 1.387 . S
C519 H522 0.950 . S
C520 C519 1.387 . S
C520 C523 1.387 . S
H521 C517 0.950 . S
H522 C519 0.950 . S
C523 C514 1.390 . S
C523 H516 0.950 . S
C523 C520 1.387 . S
C524 C525 1.387 . S
C524 H528 0.950 . S
C524 C533 1.390 . S
C525 C524 1.387 . S
C525 C527 1.387 . S
H526 C533 0.950 . S
C527 C525 1.387 . S
C527 C529 1.390 . S
C527 H531 0.950 . S
H528 C524 0.950 . S
C529 C527 1.390 . S
C529 C530 1.387 . S
C529 H532 0.950 . S
C530 C529 1.387 . S
C530 C533 1.387 . S
H531 C527 0.950 . S
H532 C529 0.950 . S
C533 C524 1.390 . S
C533 H526 0.950 . S
C533 C530 1.387 . S
C534 C535 1.387 1_545 S
C534 H538 0.950 . S
C534 C543 1.390 . S
C535 C534 1.387 1_565 S
C535 C537 1.387 . S
H536 C543 0.950 . S
C537 C535 1.387 . S
C537 C539 1.390 1_565 S
C537 H541 0.950 . S
H538 C534 0.950 . S
C539 C537 1.390 1_545 S
C539 C540 1.387 . S
C539 H542 0.950 . S
C540 C539 1.387 . S
C540 C543 1.387 . S
H541 C537 0.950 . S
H542 C539 0.950 . S
C543 C534 1.390 . S
C543 H536 0.950 . S
C543 C540 1.387 . S
C225 C106 1.573 . S
C230 C8 1.628 . S
C235 C64 2.176 . S
C240 C22 2.175 . S
C245 C78 1.632 . S
C250 C36 1.576 . S
C255 C50 1.207 . S
C260 C92 1.206 . S
C265 C218 1.572 . S
C270 C120 1.631 . S
C275 C176 2.174 . S
C280 C134 2.175 . S
C285 C148 1.572 . S
C290 C190 1.631 . S
C295 C162 1.205 . S
C300 C204 1.205 . S
C305 C37 1.246 . S
C310 C9 1.222 . S
C315 C23 1.290 . S
C320 C51 1.300 . S
C325 C65 1.290 . S
C330 C93 1.300 . S
C335 C107 1.251 . S
C340 C79 1.227 . S
C345 C121 1.222 . S
C350 C149 1.246 . S
C355 C135 1.296 . S
C360 C163 1.306 . S
C365 C205 1.300 . S
C370 C177 1.290 . S
C375 C191 1.227 . S
C380 C219 1.251 . S
C385 C91 1.674 . S
C390 C7 1.615 . S
C395 C21 2.342 . S
C400 C105 2.406 . S
C405 C35 2.406 . S
C410 C63 2.341 . S
C415 C49 1.674 . S
C420 C77 1.615 . S
C425 C119 1.616 . S
C430 C203 1.674 . S
C435 C133 2.342 . S
C440 C217 2.406 . S
C445 C147 2.406 . S
C450 C175 2.341 . S
C455 C161 1.674 . S
C460 C189 1.615 . S
C465 C6 1.480 . S
C470 C216 1.466 . S
C475 C174 1.501 . S
C480 C20 1.502 . S
C485 C34 1.464 . S
C490 C188 1.481 . S
C495 C202 1.452 1_455 S
C500 C48 1.453 1_565 S
C505 C132 1.502 . S
C510 C62 1.501 . S
C515 C76 1.481 . S
C520 C146 1.464 . S
C525 C160 1.453 1_545 S
C530 C90 1.452 1_655 S
C535 C118 1.480 . S
C540 C104 1.466 . S
