# Generated by pormake.
# Topology umf, (4)-cn, num edge types: 1
# Building blocks:
#     Node 0, Type 0, BuildingBlock: MUDLON_clean_sbu_0, # of connection points: 4
#     Node 1, Type 0, BuildingBlock: MUDLON_clean_sbu_0, # of connection points: 4
#     Node 2, Type 0, BuildingBlock: MUDLON_clean_sbu_0, # of connection points: 4
#     Node 3, Type 0, BuildingBlock: MUDLON_clean_sbu_0, # of connection points: 4
#     Node 4, Type 0, BuildingBlock: MUDLON_clean_sbu_0, # of connection points: 4
#     Node 5, Type 0, BuildingBlock: MUDLON_clean_sbu_0, # of connection points: 4
#     Node 6, Type 0, BuildingBlock: MUDLON_clean_sbu_0, # of connection points: 4
#     Node 7, Type 0, BuildingBlock: MUDLON_clean_sbu_0, # of connection points: 4
#     Edge 8, Type (0, 0), BuildingBlock: ZUJKAS_clean_linker_0, # of connection points: 2
#     Edge 9, Type (0, 0), BuildingBlock: ZUJKAS_clean_linker_0, # of connection points: 2
#     Edge 10, Type (0, 0), BuildingBlock: ZUJKAS_clean_linker_0, # of connection points: 2
#     Edge 11, Type (0, 0), BuildingBlock: ZUJKAS_clean_linker_0, # of connection points: 2
#     Edge 12, Type (0, 0), BuildingBlock: ZUJKAS_clean_linker_0, # of connection points: 2
#     Edge 13, Type (0, 0), BuildingBlock: ZUJKAS_clean_linker_0, # of connection points: 2
#     Edge 14, Type (0, 0), BuildingBlock: ZUJKAS_clean_linker_0, # of connection points: 2
#     Edge 15, Type (0, 0), BuildingBlock: ZUJKAS_clean_linker_0, # of connection points: 2
#     Edge 16, Type (0, 0), BuildingBlock: ZUJKAS_clean_linker_0, # of connection points: 2
#     Edge 17, Type (0, 0), BuildingBlock: ZUJKAS_clean_linker_0, # of connection points: 2
#     Edge 18, Type (0, 0), BuildingBlock: ZUJKAS_clean_linker_0, # of connection points: 2
#     Edge 19, Type (0, 0), BuildingBlock: ZUJKAS_clean_linker_0, # of connection points: 2
#     Edge 20, Type (0, 0), BuildingBlock: ZUJKAS_clean_linker_0, # of connection points: 2
#     Edge 21, Type (0, 0), BuildingBlock: ZUJKAS_clean_linker_0, # of connection points: 2
#     Edge 22, Type (0, 0), BuildingBlock: ZUJKAS_clean_linker_0, # of connection points: 2
#     Edge 23, Type (0, 0), BuildingBlock: ZUJKAS_clean_linker_0, # of connection points: 2
# Relax obj value: 0.093
# Max RMSD: 0.171
# Mean RMSD: 0.171
data_MOF--net-umf--node1-MUDLON_clean_sbu_0--edge1-ZUJKAS_clean_linker_0
_symmetry_space_group_name_H-M    P1
_symmetry_Int_Tables_number       1
_symmetry_cell_setting            triclinic
loop_
_symmetry_equiv_pos_as_xyz
'x, y, z'
_cell_length_a     38.180524
_cell_length_b     38.313734
_cell_length_c     71.946087
_cell_angle_alpha  90.25218
_cell_angle_beta   90.087222
_cell_angle_gamma 90.128358
loop_
_atom_site_label
_atom_site_type_symbol
_atom_site_fract_x
_atom_site_fract_y
_atom_site_fract_z
_atom_type_partial_charge
Mg0 Mg 0.05599 0.24884 0.16556 0.0
C1 C 0.02892 0.24652 0.12795 0.0
O2 O 0.00165 0.24764 0.13907 0.0
C3 C 0.104 0.26083 0.19758 0.0
O4 O 0.07856 0.28304 0.20081 0.0
C5 C 0.05039 0.32475 0.16561 0.0
O6 O 0.0795 0.31835 0.1565 0.0
O7 O 0.03267 0.2991 0.17169 0.0
O8 O 0.05937 0.24661 0.13525 0.0
O9 O 0.02364 0.20424 0.17267 0.0
C10 C 0.03046 0.18571 0.18684 0.0
O11 O 0.05426 0.19662 0.19872 0.0
O12 O 0.1036 0.24364 0.18236 0.0
Mg13 Mg 0.74099 0.07539 0.65704 0.0
C14 C 0.73218 0.05616 0.61833 0.0
O15 O 0.71962 0.0302 0.62818 0.0
C16 C 0.73889 0.11429 0.69265 0.0
O17 O 0.71998 0.08624 0.6958 0.0
C18 C 0.66442 0.07666 0.6652 0.0
O19 O 0.67198 0.11013 0.66558 0.0
O20 O 0.6888 0.05474 0.66231 0.0
O21 O 0.74355 0.08306 0.62696 0.0
O22 O 0.78336 0.03869 0.66174 0.0
C23 C 0.79802 0.03397 0.6774 0.0
O24 O 0.78456 0.04849 0.69231 0.0
O25 O 0.75094 0.11893 0.67632 0.0
Mg26 Mg 0.94096 0.75271 0.15847 0.0
C27 C 0.94235 0.72153 0.11974 0.0
O28 O 0.95329 0.69457 0.12932 0.0
C29 C 0.90637 0.77682 0.19222 0.0
O30 O 0.93952 0.78527 0.19418 0.0
C31 C 0.94811 0.68275 0.1756 0.0
O32 O 0.91513 0.69011 0.17896 0.0
O33 O 0.96707 0.70547 0.16758 0.0
O34 O 0.93205 0.74862 0.12846 0.0
O35 O 0.97188 0.79988 0.16173 0.0
C36 C 0.95879 0.82587 0.1533 0.0
O37 O 0.93147 0.82067 0.14249 0.0
O38 O 0.89669 0.76143 0.17732 0.0
Mg39 Mg 0.23527 0.94165 0.66126 0.0
C40 C 0.22302 0.95949 0.62258 0.0
O41 O 0.21175 0.98612 0.63245 0.0
C42 C 0.23429 0.90947 0.69749 0.0
O43 O 0.23346 0.94342 0.70017 0.0
C44 C 0.30653 0.96278 0.67587 0.0
O45 O 0.30356 0.93216 0.68382 0.0
O46 O 0.28131 0.97437 0.66611 0.0
O47 O 0.23479 0.93295 0.63119 0.0
O48 O 0.18497 0.96555 0.66761 0.0
C49 C 0.16083 0.94303 0.66995 0.0
O50 O 0.16859 0.90978 0.66829 0.0
O51 O 0.23652 0.89806 0.68086 0.0
Mg52 Mg 0.05732 0.73403 0.88921 0.0
C53 C 0.05593 0.71027 0.92945 0.0
O54 O 0.05042 0.68014 0.92118 0.0
C55 C 0.1034 0.73296 0.85572 0.0
O56 O 0.07723 0.71273 0.85065 0.0
C57 C 0.06166 0.65862 0.87987 0.0
O58 O 0.09477 0.66723 0.88195 0.0
O59 O 0.03834 0.68199 0.88199 0.0
O60 O 0.06276 0.73688 0.91952 0.0
O61 O 0.02108 0.77639 0.88336 0.0
C62 C 0.02375 0.79464 0.86869 0.0
O63 O 0.04499 0.78427 0.85546 0.0
O64 O 0.10361 0.74539 0.8722 0.0
Mg65 Mg 0.25653 0.05555 0.38899 0.0
C66 C 0.26493 0.03264 0.42759 0.0
O67 O 0.28389 0.01091 0.41766 0.0
C68 C 0.25438 0.09688 0.35553 0.0
O69 O 0.26873 0.06685 0.35109 0.0
C70 C 0.32617 0.02204 0.37402 0.0
O71 O 0.30689 0.00306 0.3627 0.0
O72 O 0.3116 0.04339 0.38513 0.0
O73 O 0.24911 0.05728 0.4192 0.0
O74 O 0.21852 0.01905 0.37739 0.0
C75 C 0.19716 0.00317 0.38796 0.0
O76 O 0.2025 0.00397 0.40599 0.0
O77 O 0.24624 0.10219 0.37248 0.0
Mg78 Mg 0.94778 0.23212 0.89188 0.0
C79 C 0.9697 0.23961 0.92995 0.0
O80 O 0.99798 0.23877 0.91955 0.0
C81 C 0.90734 0.20889 0.85902 0.0
O82 O 0.93602 0.19011 0.85846 0.0
C83 C 0.97581 0.29443 0.86984 0.0
O84 O 0.9563 0.28149 0.85642 0.0
O85 O 0.97862 0.27783 0.88503 0.0
O86 O 0.94 0.23747 0.92189 0.0
O87 O 0.97488 0.18258 0.88885 0.0
C88 C 0.96157 0.15787 0.89827 0.0
O89 O 0.93575 0.16504 0.90971 0.0
O90 O 0.90309 0.2301 0.87254 0.0
Mg91 Mg 0.76505 0.95648 0.385 0.0
C92 C 0.77967 0.97905 0.42369 0.0
O93 O 0.79549 0.0027 0.41353 0.0
C94 C 0.74883 0.90936 0.35341 0.0
O95 O 0.73165 0.93804 0.34946 0.0
C96 C 0.69946 0.00148 0.38854 0.0
O97 O 0.71114 0.00574 0.40558 0.0
O98 O 0.71803 0.98474 0.37689 0.0
O99 O 0.76459 0.95358 0.41545 0.0
O100 O 0.81446 0.98123 0.37748 0.0
C101 C 0.83034 0.97353 0.36248 0.0
O102 O 0.81446 0.95378 0.35011 0.0
O103 O 0.76438 0.90749 0.36907 0.0
H104 H 0.99238 0.348 0.18442 0.0
H105 H 0.97471 0.40874 0.18967 0.0
H106 H 0.06549 0.44436 0.15957 0.0
H107 H 0.08353 0.38405 0.15443 0.0
H108 H 0.05387 0.48017 0.19345 0.0
H109 H 0.93392 0.47353 0.14956 0.0
H110 H 0.93708 0.44114 0.16747 0.0
H111 H 0.96773 0.44073 0.14856 0.0
C112 C 0.00853 0.36878 0.1789 0.0
C113 C 0.03925 0.3612 0.16892 0.0
C114 C 0.99835 0.40343 0.18187 0.0
C115 C 0.01863 0.43096 0.17483 0.0
C116 C 0.04948 0.42345 0.16509 0.0
H117 H 0.01101 0.65472 0.16498 0.0
H118 H 0.02891 0.59358 0.16707 0.0
C119 C 0.05966 0.38894 0.16212 0.0
C120 C 0.00781 0.46773 0.17741 0.0
H121 H 0.94518 0.52665 0.16507 0.0
C122 C 0.03004 0.49037 0.18733 0.0
C123 C 0.97673 0.48086 0.16937 0.0
C124 C 0.95255 0.45796 0.15801 0.0
C125 C 0.02201 0.52591 0.18941 0.0
C126 C 0.99125 0.53915 0.1811 0.0
C127 C 0.96873 0.51637 0.17146 0.0
C128 C 0.98229 0.57673 0.18162 0.0
C129 C 0.04637 0.5489 0.2006 0.0
C130 C 0.95018 0.58752 0.1891 0.0
C131 C 0.9398 0.62234 0.18782 0.0
C132 C 0.96126 0.64703 0.17894 0.0
C133 C 0.99397 0.6364 0.172 0.0
C134 C 0.00431 0.60149 0.17326 0.0
H135 H 0.06284 0.53338 0.21024 0.0
H136 H 0.06409 0.56304 0.191 0.0
H137 H 0.0315 0.56851 0.20879 0.0
H138 H 0.93277 0.56879 0.19555 0.0
H139 H 0.91447 0.62966 0.19335 0.0
H140 H 0.33606 0.00261 0.64869 0.0
H141 H 0.39669 0.0235 0.64746 0.0
H142 H 0.4141 0.98551 0.7031 0.0
H143 H 0.35425 0.96273 0.70389 0.0
H144 H 0.43582 0.06746 0.66518 0.0
H145 H 0.49082 0.93607 0.67717 0.0
H146 H 0.44474 0.94307 0.67337 0.0
H147 H 0.46358 0.94954 0.69612 0.0
C148 C 0.35278 -0.00091 0.66071 0.0
C149 C 0.34071 0.98074 0.6763 0.0
C150 C 0.38744 0.01092 0.65999 0.0
C151 C 0.41039 0.00507 0.67496 0.0
C152 C 0.39742 0.98907 0.69108 0.0
H153 H 0.61293 0.10919 0.68469 0.0
H154 H 0.55158 0.09167 0.68746 0.0
C155 C 0.3631 0.97644 0.69161 0.0
C156 C 0.44798 0.01495 0.67353 0.0
H157 H 0.53097 0.98358 0.67906 0.0
C158 C 0.45663 0.04905 0.66811 0.0
C159 C 0.47524 0.99072 0.6769 0.0
C160 C 0.46814 0.95273 0.681 0.0
C161 C 0.49164 0.05974 0.66623 0.0
C162 C 0.51888 0.03611 0.6707 0.0
C163 C 0.5102 0.00189 0.67588 0.0
C164 C 0.55653 0.04602 0.66978 0.0
C165 C 0.49887 0.09591 0.6589 0.0
C166 C 0.58036 0.02513 0.65985 0.0
C167 C 0.61574 0.03445 0.65882 0.0
C168 C 0.62779 0.06514 0.66746 0.0
C169 C 0.60417 0.08565 0.67768 0.0
C170 C 0.56902 0.07585 0.6791 0.0
H171 H 0.47664 0.10566 0.65041 0.0
H172 H 0.50238 0.11417 0.67077 0.0
H173 H 0.5229 0.09649 0.65024 0.0
H174 H 0.57149 0.00185 0.65264 0.0
H175 H 0.63341 0.01824 0.65081 0.0
H176 H -0.00036 0.33541 0.89825 0.0
H177 H 0.01497 0.39706 0.89717 0.0
H178 H -0.00054 0.39702 0.83775 0.0
H179 H 0.98239 0.33537 0.83885 0.0
H180 H 0.06441 0.43282 0.88152 0.0
H181 H 0.93757 0.47642 0.85213 0.0
H182 H 0.94464 0.43236 0.85994 0.0
H183 H 0.96006 0.4459 0.83745 0.0
C184 C -0.00033 0.34838 0.8849 0.0
C185 C 0.98947 0.33054 0.86864 0.0
C186 C 0.00841 0.38373 0.88431 0.0
C187 C 0.00756 0.402 0.86745 0.0
C188 C 0.9992 0.38381 0.85102 0.0
H189 H 0.10161 0.60988 0.86252 0.0
H190 H 0.08821 0.54812 0.85774 0.0
C191 C 0.98982 0.34848 0.85163 0.0
C192 C 0.01527 0.44005 0.86734 0.0
H193 H 0.98171 0.51953 0.85551 0.0
C194 C 0.04631 0.45176 0.87582 0.0
C195 C 0.99136 0.46486 0.86019 0.0
C196 C 0.95639 0.45434 0.85209 0.0
C197 C 0.054 0.48745 0.87752 0.0
C198 C 0.0307 0.51222 0.86981 0.0
C199 C -0.00026 0.50055 0.86123 0.0
C200 C 0.03745 0.55037 0.87108 0.0
C201 C 0.08638 0.49812 0.88824 0.0
C202 C 0.01249 0.57272 0.87911 0.0
C203 C 0.01971 0.60831 0.88138 0.0
C204 C 0.05219 0.622 0.87585 0.0
C205 C 0.07658 0.59988 0.8672 0.0
C206 C 0.06906 0.56452 0.86458 0.0
H207 H 0.09502 0.47725 0.89788 0.0
H208 H 0.10809 0.50302 0.87834 0.0
H209 H 0.08181 0.52227 0.89645 0.0
H210 H 0.98778 0.56246 0.8841 0.0
H211 H 0.00045 0.62482 0.88808 0.0
H212 H 0.36819 0.98587 0.34963 0.0
H213 H 0.43249 0.9829 0.34977 0.0
H214 H 0.43564 0.04966 0.39812 0.0
H215 H 0.37191 0.0528 0.39817 0.0
H216 H 0.48275 0.04303 0.34913 0.0
H217 H 0.49311 0.9605 0.41218 0.0
H218 H 0.45347 0.96333 0.39853 0.0
H219 H 0.46492 -0.00222 0.41445 0.0
C220 C 0.3826 -0.0002 0.36032 0.0
C221 C 0.36489 0.01945 0.37392 0.0
C222 C 0.41927 -0.00183 0.36033 0.0
C223 C 0.43866 0.01583 0.37405 0.0
C224 C 0.42108 0.03555 0.38754 0.0
H225 H 0.65251 0.03707 0.41004 0.0
H226 H 0.58956 0.04296 0.40478 0.0
C227 C 0.38462 0.03736 0.3875 0.0
C228 C 0.47735 0.01391 0.37448 0.0
H229 H 0.54552 0.98682 0.40145 0.0
C230 C 0.49661 0.03048 0.36044 0.0
C231 C 0.49517 0.99764 0.38931 0.0
C232 C 0.47571 0.97852 0.40442 0.0
C233 C 0.53338 0.03219 0.3612 0.0
C234 C 0.55119 0.01636 0.37622 0.0
C235 C 0.53183 -0.00078 0.39003 0.0
C236 C 0.5899 0.01695 0.37802 0.0
C237 C 0.55273 0.05187 0.34626 0.0
C238 C 0.61112 0.00108 0.36452 0.0
C239 C 0.6472 -0.00211 0.36742 0.0
C240 C 0.66263 0.01013 0.38401 0.0
C241 C 0.64149 0.0273 0.39714 0.0
C242 C 0.60548 0.03063 0.39417 0.0
H243 H 0.53523 0.07016 0.33875 0.0
H244 H 0.57502 0.06688 0.35222 0.0
H245 H 0.56333 0.03299 0.33598 0.0
H246 H 0.59962 0.98975 0.35211 0.0
H247 H 0.66267 0.98434 0.35706 0.0
H248 H 0.91838 0.23676 0.95697 0.0
H249 H 0.92683 0.23955 0.99087 0.0
H250 H 0.03825 0.25006 0.98295 0.0
H251 H 0.03017 0.24775 0.94946 0.0
H252 H 0.96734 0.19484 1.01339 0.0
H253 H 0.01668 0.3307 1.01824 0.0
H254 H 0.99442 0.31407 0.99788 0.0
H255 H 0.04001 0.3046 1.00162 0.0
C256 C 0.9446 0.23999 0.96248 0.0
C257 C 0.97353 0.24219 0.95046 0.0
C258 C 0.94941 0.24151 0.98184 0.0
C259 C 0.98315 0.24562 0.98944 0.0
C260 C 0.01193 0.2477 0.97744 0.0
H261 H 0.07813 0.2488 0.09991 0.0
H262 H 0.06714 0.24757 0.06621 0.0
C263 C 0.0072 0.24613 0.95822 0.0
C264 C 0.98887 0.24635 1.00989 0.0
H265 H 0.02524 0.29498 0.04494 0.0
C266 C 0.97967 0.21686 1.02033 0.0
C267 C 0.00524 0.275 1.01892 0.0
C268 C 0.01438 0.30803 1.00863 0.0
C269 C 0.98714 0.21492 0.03944 0.0
C270 C 0.0038 0.24344 0.04842 0.0
C271 C 0.01278 0.27302 0.03801 0.0
C272 C 0.0108 0.24364 0.06875 0.0
C273 C 0.97785 0.18201 0.04979 0.0
C274 C 0.98282 0.24226 0.0813 0.0
C275 C 0.98898 0.24302 0.10043 0.0
C276 C 0.02332 0.24532 0.10752 0.0
C277 C 0.05142 0.24687 0.09492 0.0
C278 C 0.04517 0.24622 0.07569 0.0
H279 H 0.974 0.15953 0.04019 0.0
H280 H 0.99856 0.17524 0.06001 0.0
H281 H 0.95304 0.18614 0.05749 0.0
H282 H 0.95607 0.24096 0.0763 0.0
H283 H 0.96664 0.24192 0.10967 0.0
H284 H 0.70257 0.00549 0.59691 0.0
H285 H 0.71121 0.99427 0.56389 0.0
H286 H 0.77693 0.08559 0.56 0.0
H287 H 0.76868 0.09693 0.59339 0.0
H288 H 0.6968 0.03515 0.53269 0.0
H289 H 0.83903 0.00675 0.53911 0.0
H290 H 0.81033 0.0089 0.55899 0.0
H291 H 0.82531 0.04833 0.54814 0.0
C292 C 0.71878 0.02339 0.58909 0.0
C293 C 0.73517 0.05201 0.59786 0.0
C294 C 0.72363 0.0169 0.57016 0.0
C295 C 0.74515 0.03871 0.55952 0.0
C296 C 0.7607 0.06803 0.56804 0.0
H297 H 0.81112 0.02981 0.44446 0.0
H298 H 0.80236 0.04327 0.47726 0.0
C299 C 0.75575 0.07466 0.58707 0.0
C300 C 0.7514 0.0301 0.53962 0.0
H301 H 0.8149 0.00527 0.50888 0.0
C302 C 0.72262 0.02865 0.52746 0.0
C303 C 0.78507 0.02141 0.53286 0.0
C304 C 0.81673 0.02108 0.54544 0.0
C305 C 0.72665 0.01925 0.50867 0.0
C306 C 0.76029 0.01033 0.50193 0.0
C307 C 0.7891 0.01193 0.51408 0.0
C308 C 0.7664 0.00062 0.48214 0.0
C309 C 0.69495 0.01972 0.49612 0.0
C310 C 0.74975 0.97154 0.47399 0.0
C311 C 0.75468 0.9637 0.4551 0.0
C312 C 0.77649 0.98474 0.44406 0.0
C313 C 0.79399 0.01309 0.45248 0.0
C314 C 0.78905 0.02087 0.47128 0.0
H315 H 0.67324 0.03528 0.5022 0.0
H316 H 0.70159 0.03064 0.4823 0.0
H317 H 0.68536 0.99261 0.49406 0.0
H318 H 0.73273 0.95506 0.4822 0.0
H319 H 0.7409 0.94164 0.44909 0.0
H320 H 0.95859 0.66684 0.09692 0.0
H321 H 0.976 0.66905 0.06427 0.0
H322 H 0.9572 0.77992 0.06358 0.0
H323 H 0.93972 0.77803 0.09636 0.0
H324 H 0.93885 0.69505 0.03183 0.0
H325 H 0.06163 0.76844 0.04713 0.0
H326 H 0.03728 0.7459 0.06494 0.0
H327 H 0.02156 0.78662 0.05601 0.0
C328 C 0.95772 0.69167 0.0898 0.0
C329 C 0.94792 0.72229 0.09932 0.0
C330 C 0.96774 0.69288 0.07113 0.0
C331 C 0.96848 0.72473 0.0616 0.0
C332 C 0.95734 0.75515 0.07078 0.0
H333 H 0.04698 0.77059 0.94975 0.0
H334 H 0.02566 0.77565 0.98178 0.0
C335 C 0.94706 0.75395 0.08947 0.0
C336 C 0.9818 0.72591 0.04222 0.0
H337 H 0.05066 0.7539 1.01581 0.0
C338 C 0.96322 0.70803 0.02829 0.0
C339 C 0.01352 0.74299 0.03764 0.0
C340 C 0.03492 0.76193 0.05218 0.0
C341 C 0.97552 0.70665 1.00991 0.0
C342 C 0.00784 0.72279 1.00541 0.0
C343 C 0.02604 0.74137 1.01927 0.0
C344 C 0.02342 0.71995 0.98651 0.0
C345 C 0.95351 0.68823 0.99542 0.0
C346 C 0.03064 0.68705 0.97877 0.0
C347 C 0.04271 0.68407 0.9605 0.0
C348 C 0.04828 0.71397 0.9496 0.0
C349 C 0.04298 0.74702 0.95773 0.0
C350 C 0.03066 0.74996 0.97603 0.0
H351 H 0.92558 0.68676 0.99966 0.0
H352 H 0.9551 0.70164 0.9818 0.0
H353 H 0.96318 0.66114 0.99363 0.0
H354 H 0.02629 0.66355 0.98676 0.0
H355 H 0.04684 0.65823 0.95476 0.0
H356 H 0.29578 0.98185 0.4482 0.0
H357 H 0.28662 0.96824 0.48085 0.0
H358 H 0.21522 0.05481 0.48578 0.0
H359 H 0.22376 0.06836 0.45275 0.0
H360 H 0.29915 0.00704 0.51201 0.0
H361 H 0.15774 0.97439 0.50678 0.0
H362 H 0.18531 0.97915 0.48659 0.0
H363 H 0.16891 0.01711 0.49846 0.0
C364 C 0.27807 -0.00189 0.45616 0.0
C365 C 0.26034 0.02614 0.44778 0.0
C366 C 0.2729 0.99024 0.47488 0.0
C367 C 0.24981 0.01008 0.48573 0.0
C368 C 0.23258 0.03862 0.47758 0.0
H369 H 0.19154 0.00878 0.60132 0.0
H370 H 0.19794 0.01852 0.56805 0.0
C371 C 0.23771 0.04653 0.45874 0.0
C372 C 0.24439 0.00086 0.5056 0.0
H373 H 0.18228 0.97601 0.53708 0.0
C374 C 0.27362 0.00011 0.51747 0.0
C375 C 0.21109 0.99161 0.5127 0.0
C376 C 0.17898 0.99024 0.50046 0.0
C377 C 0.27037 0.99113 0.53632 0.0
C378 C 0.23706 0.98212 0.54344 0.0
C379 C 0.20783 0.98274 0.53157 0.0
C380 C 0.23169 0.9741 0.56344 0.0
C381 C 0.30247 0.99231 0.54857 0.0
C382 C 0.24781 0.94523 0.57188 0.0
C383 C 0.24414 0.93946 0.59104 0.0
C384 C 0.22432 0.96253 0.60203 0.0
C385 C 0.20722 0.9906 0.59333 0.0
C386 C 0.21078 0.99623 0.57427 0.0
H387 H 0.32443 0.00665 0.54193 0.0
H388 H 0.29645 0.00494 0.56211 0.0
H389 H 0.31134 0.96527 0.55137 0.0
H390 H 0.26361 0.92746 0.56371 0.0
H391 H 0.25758 0.91759 0.5973 0.0
H392 H 0.15017 0.20584 0.19946 0.0
H393 H 0.18159 0.18545 0.22716 0.0
H394 H 0.14268 0.27339 0.25837 0.0
H395 H 0.11144 0.29405 0.23091 0.0
H396 H 0.23196 0.22415 0.254 0.0
H397 H 0.10512 0.18085 0.28442 0.0
H398 H 0.11058 0.18807 0.2598 0.0
H399 H 0.10722 0.22455 0.27541 0.0
C400 C 0.14892 0.22125 0.2121 0.0
C401 C 0.12802 0.25142 0.213 0.0
C402 C 0.16681 0.20952 0.22792 0.0
C403 C 0.164 0.2277 0.24484 0.0
C404 C 0.14485 0.25882 0.24548 0.0
H405 H 0.21488 0.15704 0.35766 0.0
H406 H 0.19565 0.19372 0.33163 0.0
C407 C 0.12707 0.27059 0.22973 0.0
C408 C 0.17894 0.21298 0.26214 0.0
H409 H 0.15566 0.17265 0.30253 0.0
C410 C 0.21536 0.21296 0.26465 0.0
C411 C 0.15713 0.19878 0.27608 0.0
C412 C 0.11782 0.19774 0.27387 0.0
C413 C 0.2306 0.19887 0.28077 0.0
C414 C 0.20884 0.18364 0.29448 0.0
C415 C 0.17235 0.18442 0.29209 0.0
C416 C 0.2233 0.16409 0.31058 0.0
C417 C 0.26986 0.20071 0.28298 0.0
C418 C 0.24526 0.1354 0.30746 0.0
C419 C 0.2563 0.11465 0.32222 0.0
C420 C 0.24533 0.12175 0.34052 0.0
C421 C 0.22393 0.15096 0.34376 0.0
C422 C 0.21287 0.17187 0.32889 0.0
H423 H 0.28102 0.22308 0.27518 0.0
H424 H 0.27754 0.20324 0.29782 0.0
H425 H 0.28166 0.17649 0.27728 0.0
H426 H 0.25293 0.12822 0.29347 0.0
H427 H 0.2727 0.09233 0.31915 0.0
H428 H 0.89827 0.15388 0.8359 0.0
H429 H 0.86508 0.15155 0.80702 0.0
H430 H 0.82846 0.25653 0.81647 0.0
H431 H 0.86146 0.25878 0.84595 0.0
H432 H 0.7767 0.21308 0.80184 0.0
H433 H 0.89742 0.20108 0.76032 0.0
H434 H 0.89591 0.16823 0.77797 0.0
H435 H 0.89802 0.21364 0.78454 0.0
C436 C 0.88291 0.17643 0.83198 0.0
C437 C 0.88275 0.20665 0.84311 0.0
C438 C 0.86414 0.17515 0.81536 0.0
C439 C 0.84521 0.20425 0.80926 0.0
C440 C 0.84332 0.23392 0.8208 0.0
H441 H 0.78179 0.17242 0.69276 0.0
H442 H 0.80415 0.20406 0.72009 0.0
C443 C 0.86198 0.23512 0.83766 0.0
C444 C 0.82803 0.20309 0.79069 0.0
H445 H 0.84439 0.17976 0.7457 0.0
C446 C 0.79152 0.20646 0.78947 0.0
C447 C 0.84736 0.19561 0.77437 0.0
C448 C 0.88689 0.19485 0.77431 0.0
C449 C 0.77366 0.19973 0.7727 0.0
C450 C 0.79276 0.18837 0.7569 0.0
C451 C 0.82949 0.18784 0.7578 0.0
C452 C 0.77541 0.17318 0.74011 0.0
C453 C 0.73445 0.20437 0.77224 0.0
C454 C 0.75157 0.14554 0.74215 0.0
C455 C 0.73855 0.1278 0.72663 0.0
C456 C 0.74955 0.13669 0.7086 0.0
C457 C 0.77272 0.16496 0.70644 0.0
C458 C 0.78555 0.18303 0.72206 0.0
H459 H 0.72628 0.22583 0.78171 0.0
H460 H 0.72487 0.21021 0.75801 0.0
H461 H 0.72166 0.18009 0.77717 0.0
H462 H 0.74416 0.13649 0.75583 0.0
H463 H 0.72089 0.10608 0.7289 0.0
H464 H 0.73155 0.91552 0.31694 0.0
H465 H 0.75067 0.87965 0.29116 0.0
H466 H 0.80018 0.80842 0.3293 0.0
H467 H 0.78263 0.84585 0.35544 0.0
H468 H 0.84345 0.82217 0.30413 0.0
H469 H 0.72176 0.79313 0.26653 0.0
H470 H 0.72401 0.8394 0.26967 0.0
H471 H 0.72127 0.81126 0.28972 0.0
C472 C 0.74589 0.89187 0.32 0.0
C473 C 0.75563 0.88367 0.33833 0.0
C474 C 0.75651 0.871 0.30512 0.0
C475 C 0.77628 0.8407 0.30814 0.0
C476 C 0.78474 0.83152 0.32654 0.0
H477 H 0.84909 0.73892 0.2039 0.0
H478 H 0.81578 0.74815 0.23284 0.0
C479 C 0.77465 0.85287 0.3415 0.0
C480 C 0.79179 0.82179 0.29195 0.0
H481 H 0.77461 0.79795 0.24697 0.0
C482 C 0.82811 0.8161 0.29183 0.0
C483 C 0.77204 0.81279 0.27589 0.0
C484 C 0.73256 0.81411 0.27559 0.0
C485 C 0.84543 0.8045 0.27578 0.0
C486 C 0.82621 0.79983 0.25908 0.0
C487 C 0.78958 0.80259 0.25957 0.0
C488 C 0.84411 0.7949 0.24089 0.0
C489 C 0.88435 0.79795 0.27687 0.0
C490 C 0.86984 0.8189 0.23536 0.0
C491 C 0.88894 0.81346 0.21913 0.0
C492 C 0.88213 0.78442 0.2077 0.0
C493 C 0.85476 0.76157 0.21246 0.0
C494 C 0.83591 0.76673 0.22902 0.0
H495 H 0.89212 0.78957 0.29105 0.0
H496 H 0.89274 0.77763 0.26677 0.0
H497 H 0.89862 0.82253 0.27382 0.0
H498 H 0.87572 0.8416 0.24384 0.0
H499 H 0.90957 0.83177 0.21566 0.0
H500 H 0.21194 0.84105 0.69827 0.0
H501 H 0.1978 0.80667 0.72611 0.0
H502 H 0.23462 0.89096 0.76096 0.0
H503 H 0.24814 0.92539 0.73348 0.0
H504 H 0.23717 0.78507 0.75863 0.0
H505 H 0.1314 0.87886 0.77598 0.0
H506 H 0.15231 0.87778 0.75352 0.0
H507 H 0.1736 0.89875 0.7729 0.0
C508 C 0.21751 0.85193 0.71188 0.0
C509 C 0.23067 0.88608 0.7137 0.0
C510 C 0.2094 0.83233 0.72775 0.0
C511 C 0.21448 0.84661 0.74559 0.0
C512 C 0.22977 0.87975 0.74735 0.0
H513 H 0.14675 0.79027 0.85705 0.0
H514 H 0.17908 0.81593 0.831 0.0
C515 C 0.23755 0.89936 0.7316 0.0
C516 C 0.20184 0.82821 0.76242 0.0
H517 H 0.14455 0.83624 0.79859 0.0
C518 C 0.21687 0.79615 0.76736 0.0
C519 C 0.17532 0.84274 0.77378 0.0
C520 C 0.15695 0.87625 0.76873 0.0
C521 C 0.20643 0.77852 0.78357 0.0
C522 C 0.18005 0.7932 0.79496 0.0
C523 C 0.1651 0.82525 0.78998 0.0
C524 C 0.16563 0.77494 0.81144 0.0
C525 C 0.22403 0.74459 0.7885 0.0
C526 C 0.14791 0.74311 0.80918 0.0
C527 C 0.12943 0.7285 0.82398 0.0
C528 C 0.12816 0.74547 0.84136 0.0
C529 C 0.1474 0.77645 0.84389 0.0
C530 C 0.16577 0.79119 0.829 0.0
H531 H 0.24995 0.74205 0.78164 0.0
H532 H 0.22763 0.74229 0.80377 0.0
H533 H 0.20734 0.72254 0.78374 0.0
H534 H 0.14683 0.73043 0.79571 0.0
H535 H 0.1149 0.70459 0.82157 0.0
H536 H 0.04692 0.13593 0.21255 0.0
H537 H 0.03391 0.07346 0.21074 0.0
H538 H 0.97266 0.09038 0.16121 0.0
H539 H 0.98521 0.15287 0.16294 0.0
H540 H 0.94315 0.04142 0.18713 0.0
H541 H 0.08261 0.01351 0.17017 0.0
H542 H 0.07471 0.03762 0.19124 0.0
H543 H 0.06455 0.05696 0.1692 0.0
C544 C 0.03015 0.1265 0.20145 0.0
C545 C 0.01746 0.14934 0.18775 0.0
C546 C 0.02296 0.09076 0.20039 0.0
C547 C 0.003 0.07732 0.18562 0.0
C548 C 0.98838 0.10029 0.17263 0.0
H549 H 0.93964 0.8852 0.13539 0.0
H550 H 0.95166 0.94533 0.14471 0.0
C551 C 0.99556 0.136 0.17367 0.0
C552 C 0.9989 0.03922 0.18296 0.0
H553 H 0.04392 0.96566 0.17079 0.0
C554 C 0.96517 0.02477 0.18369 0.0
C555 C 0.02778 0.01764 0.17853 0.0
C556 C 0.06447 0.0321 0.17708 0.0
C557 C 0.95945 0.98929 0.17985 0.0
C558 C 0.98815 0.96798 0.17477 0.0
C559 C 0.02202 0.98216 0.17463 0.0
C560 C 0.98313 0.93143 0.16857 0.0
C561 C 0.92271 0.97494 0.18121 0.0
C562 C 0.99835 0.90373 0.17838 0.0
C563 C 0.99181 0.86918 0.17297 0.0
C564 C 0.97002 0.86194 0.15764 0.0
C565 C 0.95625 0.88987 0.14737 0.0
C566 C 0.96286 0.92426 0.15275 0.0
H567 H 0.90598 0.99146 0.19029 0.0
H568 H 0.9107 0.97441 0.16716 0.0
H569 H 0.92276 0.94791 0.18672 0.0
H570 H 0.01442 0.90882 0.19052 0.0
H571 H 0.00276 0.84821 0.18117 0.0
H572 H 0.12867 0.00559 0.66287 0.0
H573 H 0.0663 0.01915 0.66658 0.0
H574 H 0.04863 0.91699 0.68984 0.0
H575 H 0.11035 0.90297 0.68558 0.0
H576 H 0.00238 0.92988 0.66372 0.0
H577 H 0.00845 0.04375 0.71129 0.0
H578 H 0.03399 0.05002 0.69066 0.0
H579 H 0.04589 0.01632 0.70683 0.0
C580 C 0.11151 0.98629 0.66902 0.0
C581 C 0.1243 0.95321 0.67387 0.0
C582 C 0.07592 0.9941 0.67123 0.0
C583 C 0.05281 0.96921 0.67869 0.0
C584 C 0.06591 0.93659 0.68404 0.0
H585 H 0.83675 0.01859 0.70835 0.0
H586 H 0.89772 -0.00088 0.70942 0.0
C587 C 0.10122 0.92863 0.6816 0.0
C588 C 0.01459 0.97598 0.67978 0.0
H589 H 0.95354 0.03317 0.69625 0.0
C590 C 0.99171 0.95233 0.67098 0.0
C591 C 0.00058 0.00493 0.68948 0.0
C592 C 0.02348 0.03 0.70026 0.0
C593 C 0.95532 0.9572 0.67127 0.0
C594 C 0.94143 0.98713 0.68014 0.0
C595 C 0.96422 0.01036 0.68931 0.0
C596 C 0.90353 0.99553 0.67955 0.0
C597 C 0.93218 0.92995 0.66227 0.0
C598 C 0.88637 -0.00053 0.66242 0.0
C599 C 0.85144 0.01012 0.66177 0.0
C600 C 0.83312 0.0177 0.67825 0.0
C601 C 0.85008 0.01292 0.69541 0.0
C602 C 0.88497 0.00194 0.69604 0.0
H603 H 0.94525 0.90408 0.66183 0.0
H604 H 0.90692 0.92719 0.66976 0.0
H605 H 0.92657 0.93773 0.64773 0.0
H606 H 0.90033 0.99551 0.6495 0.0
H607 H 0.83932 0.01383 0.64831 0.0
H608 H 0.94384 0.10128 0.91894 0.0
H609 H 0.95376 0.03988 0.91154 0.0
H610 H 0.00923 0.06942 0.86183 0.0
H611 H -3e-05 0.13115 0.86934 0.0
H612 H 0.93006 0.00503 0.88053 0.0
H613 H 0.07522 -0.0014 0.88494 0.0
H614 H 0.05054 0.03487 0.89414 0.0
H615 H 0.05876 0.0316 0.8696 0.0
C616 C 0.95861 0.09478 0.90656 0.0
C617 C 0.97121 0.12108 0.89475 0.0
C618 C 0.96415 0.05965 0.90233 0.0
C619 C 0.98238 0.05006 0.8862 0.0
C620 C 0.99563 0.07624 0.87452 0.0
H621 H 0.03369 0.84434 0.84207 0.0
H622 H 0.02001 0.90648 0.84439 0.0
C623 C 0.99029 0.1115 0.87883 0.0
C624 C 0.986 0.01261 0.88131 0.0
H625 H 0.04591 0.948 0.87413 0.0
C626 C 0.9554 0.99255 0.87911 0.0
C627 C 0.01906 0.99645 0.87939 0.0
C628 C 0.0528 0.01635 0.88229 0.0
C629 C 0.95698 0.95668 0.87515 0.0
C630 C 0.99002 0.94046 0.87351 0.0
C631 C 0.02061 0.96061 0.87533 0.0
C632 C 0.99368 0.9023 0.87087 0.0
C633 C 0.92334 0.93646 0.87268 0.0
C634 C 0.98264 0.87926 0.88481 0.0
C635 C 0.99042 0.84369 0.88355 0.0
C636 C 0.00956 0.83059 0.86837 0.0
C637 C 0.01892 0.8535 0.85396 0.0
C638 C 0.01124 0.88907 0.85527 0.0
H639 H 0.90096 0.95392 0.86947 0.0
H640 H 0.92583 0.9168 0.86137 0.0
H641 H 0.91727 0.92245 0.88576 0.0
H642 H 0.96947 0.88903 0.89709 0.0
H643 H 0.98289 0.82681 0.89491 0.0
H644 H 0.87391 0.95459 0.33402 0.0
H645 H 0.93784 0.95875 0.33336 0.0
H646 H 0.93677 0.01244 0.38614 0.0
H647 H 0.87286 0.00872 0.38689 0.0
H648 H 0.98512 0.04013 0.35976 0.0
H649 H 0.99741 0.89631 0.36803 0.0
H650 H 0.97136 0.91082 0.34873 0.0
H651 H 0.95681 0.91915 0.37205 0.0
C652 C 0.88719 0.96778 0.34536 0.0
C653 C 0.86826 0.981 0.36061 0.0
C654 C 0.92375 0.96992 0.345 0.0
C655 C 0.942 0.98525 0.35988 0.0
C656 C 0.92313 0.00028 0.37458 0.0
H657 H 0.14544 0.96897 0.4067 0.0
H658 H 0.08444 0.96203 0.3971 0.0
C659 C 0.88659 -0.00185 0.37497 0.0
C660 C 0.98076 0.98419 0.3607 0.0
H661 H 0.04982 0.92866 0.36643 0.0
C662 C -0.00064 0.01578 0.36101 0.0
C663 C 0.99912 0.95232 0.36254 0.0
C664 C 0.98027 0.91767 0.36297 0.0
C665 C 0.03586 0.01644 0.36341 0.0
C666 C 0.05421 0.98458 0.36533 0.0
C667 C 0.03567 0.95296 0.36473 0.0
C668 C 0.09211 0.98392 0.36974 0.0
C669 C 0.05432 0.05125 0.36466 0.0
C670 C 0.11694 0.99698 0.35719 0.0
C671 C 0.15194 0.0009 0.36262 0.0
C672 C 0.1626 0.99188 0.38071 0.0
C673 C 0.13809 0.97641 0.39272 0.0
C674 C 0.10319 0.97243 0.38727 0.0
H675 H 0.03564 0.07325 0.36623 0.0
H676 H 0.07279 0.05172 0.3766 0.0
H677 H 0.0697 0.05552 0.35179 0.0
H678 H 0.10897 0.00542 0.34348 0.0
H679 H 0.17015 0.01278 0.35299 0.0
loop_
_geom_bond_atom_site_label_1
_geom_bond_atom_site_label_2
_geom_bond_distance
_geom_bond_site_symmetry_2
_ccdc_geom_bond_type
Mg0 O7 2.141 . S
Mg0 O8 2.048 . S
Mg0 O9 2.048 . S
Mg0 O12 2.141 . S
C1 O2 1.313 . S
C1 O8 1.195 . S
O2 C1 1.313 . S
C3 O4 1.245 . S
C3 O12 1.289 . S
O4 C3 1.245 . S
C5 O6 1.245 . S
C5 O7 1.289 . S
O6 C5 1.245 . S
O7 Mg0 2.141 . S
O7 C5 1.289 . S
O8 Mg0 2.048 . S
O8 C1 1.195 . S
O9 Mg0 2.048 . S
O9 C10 1.195 . S
C10 O9 1.195 . S
C10 O11 1.313 . S
O11 C10 1.313 . S
O12 Mg0 2.141 . S
O12 C3 1.289 . S
Mg13 O20 2.141 . S
Mg13 O21 2.048 . S
Mg13 O22 2.048 . S
Mg13 O25 2.141 . S
C14 O15 1.313 . S
C14 O21 1.195 . S
O15 C14 1.313 . S
C16 O17 1.245 . S
C16 O25 1.289 . S
O17 C16 1.245 . S
C18 O19 1.245 . S
C18 O20 1.289 . S
O19 C18 1.245 . S
O20 Mg13 2.141 . S
O20 C18 1.289 . S
O21 Mg13 2.048 . S
O21 C14 1.195 . S
O22 Mg13 2.048 . S
O22 C23 1.195 . S
C23 O22 1.195 . S
C23 O24 1.313 . S
O24 C23 1.313 . S
O25 Mg13 2.141 . S
O25 C16 1.289 . S
Mg26 O33 2.141 . S
Mg26 O34 2.048 . S
Mg26 O35 2.048 . S
Mg26 O38 2.141 . S
C27 O28 1.313 . S
C27 O34 1.195 . S
O28 C27 1.313 . S
C29 O30 1.245 . S
C29 O38 1.289 . S
O30 C29 1.245 . S
C31 O32 1.245 . S
C31 O33 1.289 . S
O32 C31 1.245 . S
O33 Mg26 2.141 . S
O33 C31 1.289 . S
O34 Mg26 2.048 . S
O34 C27 1.195 . S
O35 Mg26 2.048 . S
O35 C36 1.195 . S
C36 O35 1.195 . S
C36 O37 1.313 . S
O37 C36 1.313 . S
O38 Mg26 2.141 . S
O38 C29 1.289 . S
Mg39 O46 2.141 . S
Mg39 O47 2.048 . S
Mg39 O48 2.048 . S
Mg39 O51 2.141 . S
C40 O41 1.313 . S
C40 O47 1.195 . S
O41 C40 1.313 . S
C42 O43 1.245 . S
C42 O51 1.289 . S
O43 C42 1.245 . S
C44 O45 1.245 . S
C44 O46 1.289 . S
O45 C44 1.245 . S
O46 Mg39 2.141 . S
O46 C44 1.289 . S
O47 Mg39 2.048 . S
O47 C40 1.195 . S
O48 Mg39 2.048 . S
O48 C49 1.195 . S
C49 O48 1.195 . S
C49 O50 1.313 . S
O50 C49 1.313 . S
O51 Mg39 2.141 . S
O51 C42 1.289 . S
Mg52 O59 2.141 . S
Mg52 O60 2.048 . S
Mg52 O61 2.048 . S
Mg52 O64 2.141 . S
C53 O54 1.313 . S
C53 O60 1.195 . S
O54 C53 1.313 . S
C55 O56 1.245 . S
C55 O64 1.289 . S
O56 C55 1.245 . S
C57 O58 1.245 . S
C57 O59 1.289 . S
O58 C57 1.245 . S
O59 Mg52 2.141 . S
O59 C57 1.289 . S
O60 Mg52 2.048 . S
O60 C53 1.195 . S
O61 Mg52 2.048 . S
O61 C62 1.195 . S
C62 O61 1.195 . S
C62 O63 1.313 . S
O63 C62 1.313 . S
O64 Mg52 2.141 . S
O64 C55 1.289 . S
Mg65 O72 2.141 . S
Mg65 O73 2.048 . S
Mg65 O74 2.048 . S
Mg65 O77 2.141 . S
C66 O67 1.313 . S
C66 O73 1.195 . S
O67 C66 1.313 . S
C68 O69 1.245 . S
C68 O77 1.289 . S
O69 C68 1.245 . S
C70 O71 1.245 . S
C70 O72 1.289 . S
O71 C70 1.245 . S
O72 Mg65 2.141 . S
O72 C70 1.289 . S
O73 Mg65 2.048 . S
O73 C66 1.195 . S
O74 Mg65 2.048 . S
O74 C75 1.195 . S
C75 O74 1.195 . S
C75 O76 1.313 . S
O76 C75 1.313 . S
O77 Mg65 2.141 . S
O77 C68 1.289 . S
Mg78 O85 2.141 . S
Mg78 O86 2.048 . S
Mg78 O87 2.048 . S
Mg78 O90 2.141 . S
C79 O80 1.313 . S
C79 O86 1.195 . S
O80 C79 1.313 . S
C81 O82 1.245 . S
C81 O90 1.289 . S
O82 C81 1.245 . S
C83 O84 1.245 . S
C83 O85 1.289 . S
O84 C83 1.245 . S
O85 Mg78 2.141 . S
O85 C83 1.289 . S
O86 Mg78 2.048 . S
O86 C79 1.195 . S
O87 Mg78 2.048 . S
O87 C88 1.195 . S
C88 O87 1.195 . S
C88 O89 1.313 . S
O89 C88 1.313 . S
O90 Mg78 2.141 . S
O90 C81 1.289 . S
Mg91 O98 2.141 . S
Mg91 O99 2.048 . S
Mg91 O100 2.048 . S
Mg91 O103 2.141 . S
C92 O93 1.313 . S
C92 O99 1.195 . S
O93 C92 1.313 . S
C94 O95 1.245 . S
C94 O103 1.289 . S
O95 C94 1.245 . S
C96 O97 1.245 . S
C96 O98 1.289 . S
O97 C96 1.245 . S
O98 Mg91 2.141 . S
O98 C96 1.289 . S
O99 Mg91 2.048 . S
O99 C92 1.195 . S
O100 Mg91 2.048 . S
O100 C101 1.195 . S
C101 O100 1.195 . S
C101 O102 1.313 . S
O102 C101 1.313 . S
O103 Mg91 2.141 . S
O103 C94 1.289 . S
H104 C112 0.929 . S
H105 C114 0.930 . S
H106 C116 0.930 . S
H107 C119 0.929 . S
H108 C122 0.930 . S
H109 C124 0.960 . S
H110 C124 0.960 . S
H111 C124 0.960 . S
C112 H104 0.929 . S
C112 C113 1.377 . S
C112 C114 1.384 . S
C113 C112 1.377 . S
C113 C119 1.390 . S
C114 H105 0.930 . S
C114 C112 1.384 . S
C114 C115 1.372 . S
C115 C114 1.372 . S
C115 C116 1.400 . S
C115 C120 1.490 . S
C116 H106 0.930 . S
C116 C115 1.400 . S
C116 C119 1.386 . S
H117 C133 0.930 . S
H118 C134 0.931 . S
C119 H107 0.929 . S
C119 C113 1.390 . S
C119 C116 1.386 . S
C120 C115 1.490 . S
C120 C122 1.395 . S
C120 C123 1.403 1_455 S
H121 C127 0.930 . S
C122 H108 0.930 . S
C122 C120 1.395 . S
C122 C125 1.403 . S
C123 C120 1.403 1_655 S
C123 C124 1.524 . S
C123 C127 1.400 . S
C124 H109 0.960 . S
C124 H110 0.960 . S
C124 H111 0.960 . S
C124 C123 1.524 . S
C125 C122 1.403 . S
C125 C126 1.392 1_455 S
C125 C129 1.495 . S
C126 C125 1.392 1_655 S
C126 C127 1.385 . S
C126 C128 1.478 . S
C127 H121 0.930 . S
C127 C123 1.400 . S
C127 C126 1.385 . S
C128 C126 1.478 . S
C128 C130 1.381 . S
C128 C134 1.383 . S
C129 C125 1.495 . S
C129 H135 0.959 . S
C129 H136 0.961 . S
C129 H137 0.960 . S
C130 C128 1.381 . S
C130 C131 1.394 . S
C130 H138 0.930 . S
C131 C130 1.394 . S
C131 C132 1.383 . S
C131 H139 0.929 . S
C132 C131 1.383 . S
C132 C133 1.377 . S
C133 H117 0.930 . S
C133 C132 1.377 . S
C133 C134 1.379 . S
C134 H118 0.931 . S
C134 C128 1.383 . S
C134 C133 1.379 . S
H135 C129 0.959 . S
H136 C129 0.961 . S
H137 C129 0.960 . S
H138 C130 0.930 . S
H139 C131 0.929 . S
H140 C148 0.929 . S
H141 C150 0.930 . S
H142 C152 0.930 . S
H143 C155 0.929 . S
H144 C158 0.930 . S
H145 C160 0.960 . S
H146 C160 0.960 . S
H147 C160 0.960 . S
C148 H140 0.929 . S
C148 C149 1.377 . S
C148 C150 1.384 . S
C149 C148 1.377 . S
C149 C155 1.390 . S
C150 H141 0.930 . S
C150 C148 1.384 . S
C150 C151 1.372 . S
C151 C150 1.372 . S
C151 C152 1.400 . S
C151 C156 1.490 . S
C152 H142 0.930 . S
C152 C151 1.400 . S
C152 C155 1.386 . S
H153 C169 0.930 . S
H154 C170 0.931 . S
C155 H143 0.929 . S
C155 C149 1.390 . S
C155 C152 1.386 . S
C156 C151 1.490 . S
C156 C158 1.395 1_565 S
C156 C159 1.403 . S
H157 C163 0.930 . S
C158 H144 0.930 . S
C158 C156 1.395 1_545 S
C158 C161 1.403 . S
C159 C156 1.403 . S
C159 C160 1.524 . S
C159 C163 1.400 . S
C160 H145 0.960 . S
C160 H146 0.960 . S
C160 H147 0.960 . S
C160 C159 1.524 . S
C161 C158 1.403 . S
C161 C162 1.392 . S
C161 C165 1.495 . S
C162 C161 1.392 . S
C162 C163 1.385 1_545 S
C162 C164 1.478 . S
C163 H157 0.930 . S
C163 C159 1.400 . S
C163 C162 1.385 1_565 S
C164 C162 1.478 . S
C164 C166 1.381 . S
C164 C170 1.383 . S
C165 C161 1.495 . S
C165 H171 0.959 . S
C165 H172 0.961 . S
C165 H173 0.960 . S
C166 C164 1.381 . S
C166 C167 1.394 . S
C166 H174 0.930 . S
C167 C166 1.394 . S
C167 C168 1.383 . S
C167 H175 0.929 . S
C168 C167 1.383 . S
C168 C169 1.377 . S
C169 H153 0.930 . S
C169 C168 1.377 . S
C169 C170 1.379 . S
C170 H154 0.931 . S
C170 C164 1.383 . S
C170 C169 1.379 . S
H171 C165 0.959 . S
H172 C165 0.961 . S
H173 C165 0.960 . S
H174 C166 0.930 . S
H175 C167 0.929 . S
H176 C184 0.929 . S
H177 C186 0.930 . S
H178 C188 0.930 . S
H179 C191 0.929 . S
H180 C194 0.930 . S
H181 C196 0.960 . S
H182 C196 0.960 . S
H183 C196 0.960 . S
C184 H176 0.929 . S
C184 C185 1.377 . S
C184 C186 1.384 . S
C185 C184 1.377 . S
C185 C191 1.390 . S
C186 H177 0.930 . S
C186 C184 1.384 . S
C186 C187 1.372 . S
C187 C186 1.372 . S
C187 C188 1.400 . S
C187 C192 1.490 . S
C188 H178 0.930 . S
C188 C187 1.400 . S
C188 C191 1.386 . S
H189 C205 0.930 . S
H190 C206 0.931 . S
C191 H179 0.929 . S
C191 C185 1.390 . S
C191 C188 1.386 . S
C192 C187 1.490 . S
C192 C194 1.395 1_655 S
C192 C195 1.403 . S
H193 C199 0.930 . S
C194 H180 0.930 . S
C194 C192 1.395 1_455 S
C194 C197 1.403 . S
C195 C192 1.403 . S
C195 C196 1.524 . S
C195 C199 1.400 . S
C196 H181 0.960 . S
C196 H182 0.960 . S
C196 H183 0.960 . S
C196 C195 1.524 . S
C197 C194 1.403 . S
C197 C198 1.392 . S
C197 C201 1.495 . S
C198 C197 1.392 . S
C198 C199 1.385 1_455 S
C198 C200 1.478 . S
C199 H193 0.930 . S
C199 C195 1.400 . S
C199 C198 1.385 1_655 S
C200 C198 1.478 . S
C200 C202 1.381 . S
C200 C206 1.383 . S
C201 C197 1.495 . S
C201 H207 0.959 . S
C201 H208 0.961 . S
C201 H209 0.960 . S
C202 C200 1.381 . S
C202 C203 1.394 . S
C202 H210 0.930 . S
C203 C202 1.394 . S
C203 C204 1.383 . S
C203 H211 0.929 . S
C204 C203 1.383 . S
C204 C205 1.377 . S
C205 H189 0.930 . S
C205 C204 1.377 . S
C205 C206 1.379 . S
C206 H190 0.931 . S
C206 C200 1.383 . S
C206 C205 1.379 . S
H207 C201 0.959 . S
H208 C201 0.961 . S
H209 C201 0.960 . S
H210 C202 0.930 . S
H211 C203 0.929 . S
H212 C220 0.929 . S
H213 C222 0.930 1_565 S
H214 C224 0.930 . S
H215 C227 0.929 . S
H216 C230 0.930 . S
H217 C232 0.960 . S
H218 C232 0.960 1_565 S
H219 C232 0.960 . S
C220 H212 0.929 . S
C220 C221 1.377 . S
C220 C222 1.384 . S
C221 C220 1.377 . S
C221 C227 1.390 . S
C222 H213 0.930 1_545 S
C222 C220 1.384 . S
C222 C223 1.372 . S
C223 C222 1.372 . S
C223 C224 1.400 . S
C223 C228 1.490 . S
C224 H214 0.930 . S
C224 C223 1.400 . S
C224 C227 1.386 . S
H225 C241 0.930 . S
H226 C242 0.931 1_545 S
C227 H215 0.929 . S
C227 C221 1.390 . S
C227 C224 1.386 . S
C228 C223 1.490 . S
C228 C230 1.395 . S
C228 C231 1.403 . S
H229 C235 0.930 . S
C230 H216 0.930 . S
C230 C228 1.395 . S
C230 C233 1.403 1_545 S
C231 C228 1.403 . S
C231 C232 1.524 . S
C231 C235 1.400 1_545 S
C232 H217 0.960 . S
C232 H218 0.960 1_545 S
C232 H219 0.960 . S
C232 C231 1.524 . S
C233 C230 1.403 1_565 S
C233 C234 1.392 . S
C233 C237 1.495 . S
C234 C233 1.392 . S
C234 C235 1.385 . S
C234 C236 1.478 . S
C235 H229 0.930 . S
C235 C231 1.400 1_565 S
C235 C234 1.385 . S
C236 C234 1.478 . S
C236 C238 1.381 . S
C236 C242 1.383 . S
C237 C233 1.495 . S
C237 H243 0.959 . S
C237 H244 0.961 . S
C237 H245 0.960 . S
C238 C236 1.381 . S
C238 C239 1.394 . S
C238 H246 0.930 . S
C239 C238 1.394 . S
C239 C240 1.383 . S
C239 H247 0.929 . S
C240 C239 1.383 . S
C240 C241 1.377 . S
C241 H225 0.930 . S
C241 C240 1.377 . S
C241 C242 1.379 . S
C242 H226 0.931 1_565 S
C242 C236 1.383 . S
C242 C241 1.379 . S
H243 C237 0.959 . S
H244 C237 0.961 . S
H245 C237 0.960 . S
H246 C238 0.930 . S
H247 C239 0.929 . S
H248 C256 0.929 . S
H249 C258 0.930 . S
H250 C260 0.930 1_455 S
H251 C263 0.929 1_455 S
H252 C266 0.930 . S
H253 C268 0.960 . S
H254 C268 0.960 . S
H255 C268 0.960 . S
C256 H248 0.929 . S
C256 C257 1.377 . S
C256 C258 1.384 . S
C257 C256 1.377 . S
C257 C263 1.390 . S
C258 H249 0.930 . S
C258 C256 1.384 . S
C258 C259 1.372 . S
C259 C258 1.372 . S
C259 C260 1.400 . S
C259 C264 1.490 . S
C260 H250 0.930 1_655 S
C260 C259 1.400 . S
C260 C263 1.386 . S
H261 C277 0.930 . S
H262 C278 0.931 . S
C263 H251 0.929 1_655 S
C263 C257 1.390 . S
C263 C260 1.386 . S
C264 C259 1.490 . S
C264 C266 1.395 . S
C264 C267 1.403 1_655 S
H265 C271 0.930 . S
C266 H252 0.930 . S
C266 C264 1.395 . S
C266 C269 1.403 1_556 S
C267 C264 1.403 1_455 S
C267 C268 1.524 . S
C267 C271 1.400 1_556 S
C268 H253 0.960 . S
C268 H254 0.960 . S
C268 H255 0.960 . S
C268 C267 1.524 . S
C269 C266 1.403 1_554 S
C269 C270 1.392 1_655 S
C269 C273 1.495 . S
C270 C269 1.392 1_455 S
C270 C271 1.385 . S
C270 C272 1.478 . S
C271 H265 0.930 . S
C271 C267 1.400 1_554 S
C271 C270 1.385 . S
C272 C270 1.478 . S
C272 C274 1.381 1_455 S
C272 C278 1.383 . S
C273 C269 1.495 . S
C273 H279 0.959 . S
C273 H280 0.961 . S
C273 H281 0.960 . S
C274 C272 1.381 1_655 S
C274 C275 1.394 1_655 S
C274 H282 0.930 . S
C275 C274 1.394 1_455 S
C275 C276 1.383 . S
C275 H283 0.929 1_455 S
C276 C275 1.383 . S
C276 C277 1.377 . S
C277 H261 0.930 . S
C277 C276 1.377 . S
C277 C278 1.379 . S
C278 H262 0.931 . S
C278 C272 1.383 . S
C278 C277 1.379 . S
H279 C273 0.959 . S
H280 C273 0.961 . S
H281 C273 0.960 . S
H282 C274 0.930 . S
H283 C275 0.929 1_655 S
H284 C292 0.929 . S
H285 C294 0.930 1_565 S
H286 C296 0.930 . S
H287 C299 0.929 . S
H288 C302 0.930 . S
H289 C304 0.960 . S
H290 C304 0.960 . S
H291 C304 0.960 1_545 S
C292 H284 0.929 . S
C292 C293 1.377 . S
C292 C294 1.384 . S
C293 C292 1.377 . S
C293 C299 1.390 . S
C294 H285 0.930 1_545 S
C294 C292 1.384 . S
C294 C295 1.372 . S
C295 C294 1.372 . S
C295 C296 1.400 . S
C295 C300 1.490 . S
C296 H286 0.930 . S
C296 C295 1.400 . S
C296 C299 1.386 . S
H297 C313 0.943 . S
H298 C314 0.931 1_545 S
C299 H287 0.929 . S
C299 C293 1.390 . S
C299 C296 1.386 . S
C300 C295 1.490 . S
C300 C302 1.395 . S
C300 C303 1.402 1_545 S
H301 C307 0.930 . S
C302 H288 0.930 . S
C302 C300 1.395 . S
C302 C305 1.403 1_545 S
C303 C300 1.402 1_565 S
C303 C304 1.524 . S
C303 C307 1.400 . S
C304 H289 0.960 . S
C304 H290 0.960 . S
C304 H291 0.960 1_565 S
C304 C303 1.524 . S
C305 C302 1.403 1_565 S
C305 C306 1.392 . S
C305 C309 1.495 . S
C306 C305 1.392 . S
C306 C307 1.385 . S
C306 C308 1.478 . S
C307 H301 0.930 . S
C307 C303 1.400 . S
C307 C306 1.385 . S
C308 C306 1.478 . S
C308 C310 1.381 . S
C308 C314 1.383 . S
C309 C305 1.495 . S
C309 H315 0.959 1_565 S
C309 H316 0.961 1_565 S
C309 H317 0.960 . S
C310 C308 1.381 . S
C310 C311 1.394 . S
C310 H318 0.930 . S
C311 C310 1.394 . S
C311 C312 1.383 . S
C311 H319 0.929 . S
C312 C311 1.383 . S
C312 C313 1.377 . S
C313 H297 0.943 . S
C313 C312 1.377 . S
C313 C314 1.379 . S
C314 H298 0.931 1_565 S
C314 C308 1.383 . S
C314 C313 1.379 . S
H315 C309 0.959 1_545 S
H316 C309 0.961 1_545 S
H317 C309 0.960 . S
H318 C310 0.930 . S
H319 C311 0.929 . S
H320 C328 0.929 . S
H321 C330 0.930 . S
H322 C332 0.930 . S
H323 C335 0.929 . S
H324 C338 0.930 . S
H325 C340 0.960 . S
H326 C340 0.960 . S
H327 C340 0.960 . S
C328 H320 0.929 . S
C328 C329 1.377 . S
C328 C330 1.384 . S
C329 C328 1.377 . S
C329 C335 1.390 . S
C330 H321 0.930 . S
C330 C328 1.384 . S
C330 C331 1.372 . S
C331 C330 1.372 . S
C331 C332 1.400 . S
C331 C336 1.490 . S
C332 H322 0.930 . S
C332 C331 1.400 . S
C332 C335 1.386 . S
H333 C349 0.930 . S
H334 C350 0.931 . S
C335 H323 0.929 . S
C335 C329 1.390 . S
C335 C332 1.386 . S
C336 C331 1.490 . S
C336 C338 1.395 . S
C336 C339 1.403 1_655 S
H337 C343 0.930 . S
C338 H324 0.930 . S
C338 C336 1.395 . S
C338 C341 1.403 1_554 S
C339 C336 1.403 1_455 S
C339 C340 1.524 . S
C339 C343 1.400 1_554 S
C340 H325 0.960 . S
C340 H326 0.960 . S
C340 H327 0.960 . S
C340 C339 1.524 . S
C341 C338 1.403 1_556 S
C341 C342 1.392 1_655 S
C341 C345 1.495 . S
C342 C341 1.392 1_455 S
C342 C343 1.385 . S
C342 C344 1.478 . S
C343 H337 0.930 . S
C343 C339 1.400 1_556 S
C343 C342 1.385 . S
C344 C342 1.478 . S
C344 C346 1.381 . S
C344 C350 1.383 . S
C345 C341 1.495 . S
C345 H351 0.959 . S
C345 H352 0.961 . S
C345 H353 0.960 . S
C346 C344 1.381 . S
C346 C347 1.394 . S
C346 H354 0.930 . S
C347 C346 1.394 . S
C347 C348 1.383 . S
C347 H355 0.929 . S
C348 C347 1.383 . S
C348 C349 1.377 . S
C349 H333 0.930 . S
C349 C348 1.377 . S
C349 C350 1.379 . S
C350 H334 0.931 . S
C350 C344 1.383 . S
C350 C349 1.379 . S
H351 C345 0.959 . S
H352 C345 0.961 . S
H353 C345 0.960 . S
H354 C346 0.930 . S
H355 C347 0.929 . S
H356 C364 0.929 . S
H357 C366 0.930 . S
H358 C368 0.930 . S
H359 C371 0.929 . S
H360 C374 0.930 . S
H361 C376 0.960 . S
H362 C376 0.960 . S
H363 C376 0.960 . S
C364 H356 0.929 . S
C364 C365 1.377 . S
C364 C366 1.384 . S
C365 C364 1.377 . S
C365 C371 1.390 . S
C366 H357 0.930 . S
C366 C364 1.384 . S
C366 C367 1.372 . S
C367 C366 1.372 . S
C367 C368 1.400 . S
C367 C372 1.490 . S
C368 H358 0.930 . S
C368 C367 1.400 . S
C368 C371 1.386 . S
H369 C385 0.930 . S
H370 C386 0.931 1_545 S
C371 H359 0.929 . S
C371 C365 1.390 . S
C371 C368 1.386 . S
C372 C367 1.490 . S
C372 C374 1.395 . S
C372 C375 1.403 1_545 S
H373 C379 0.930 . S
C374 H360 0.930 . S
C374 C372 1.395 . S
C374 C377 1.403 . S
C375 C372 1.403 1_565 S
C375 C376 1.524 . S
C375 C379 1.400 . S
C376 H361 0.960 . S
C376 H362 0.960 . S
C376 H363 0.960 . S
C376 C375 1.524 . S
C377 C374 1.403 . S
C377 C378 1.392 1_545 S
C377 C381 1.495 . S
C378 C377 1.392 1_565 S
C378 C379 1.385 . S
C378 C380 1.478 . S
C379 H373 0.930 . S
C379 C375 1.400 . S
C379 C378 1.385 . S
C380 C378 1.478 . S
C380 C382 1.381 . S
C380 C386 1.383 . S
C381 C377 1.495 . S
C381 H387 0.959 . S
C381 H388 0.961 . S
C381 H389 0.960 . S
C382 C380 1.381 . S
C382 C383 1.394 . S
C382 H390 0.930 . S
C383 C382 1.394 . S
C383 C384 1.383 . S
C383 H391 0.929 . S
C384 C383 1.383 . S
C384 C385 1.377 . S
C385 H369 0.930 . S
C385 C384 1.377 . S
C385 C386 1.379 . S
C386 H370 0.931 1_565 S
C386 C380 1.383 . S
C386 C385 1.379 . S
H387 C381 0.959 . S
H388 C381 0.961 . S
H389 C381 0.960 . S
H390 C382 0.930 . S
H391 C383 0.929 . S
H392 C400 0.929 . S
H393 C402 0.930 . S
H394 C404 0.930 . S
H395 C407 0.929 . S
H396 C410 0.930 . S
H397 C412 0.960 . S
H398 C412 0.960 . S
H399 C412 0.960 . S
C400 H392 0.929 . S
C400 C401 1.377 . S
C400 C402 1.384 . S
C401 C400 1.377 . S
C401 C407 1.390 . S
C402 H393 0.930 . S
C402 C400 1.384 . S
C402 C403 1.372 . S
C403 C402 1.372 . S
C403 C404 1.400 . S
C403 C408 1.490 . S
C404 H394 0.930 . S
C404 C403 1.400 . S
C404 C407 1.386 . S
H405 C421 0.930 . S
H406 C422 0.931 . S
C407 H395 0.929 . S
C407 C401 1.390 . S
C407 C404 1.386 . S
C408 C403 1.490 . S
C408 C410 1.395 . S
C408 C411 1.403 . S
H409 C415 0.930 . S
C410 H396 0.930 . S
C410 C408 1.395 . S
C410 C413 1.403 . S
C411 C408 1.403 . S
C411 C412 1.524 . S
C411 C415 1.400 . S
C412 H397 0.960 . S
C412 H398 0.960 . S
C412 H399 0.960 . S
C412 C411 1.524 . S
C413 C410 1.403 . S
C413 C414 1.392 . S
C413 C417 1.495 . S
C414 C413 1.392 . S
C414 C415 1.385 . S
C414 C416 1.478 . S
C415 H409 0.930 . S
C415 C411 1.400 . S
C415 C414 1.385 . S
C416 C414 1.478 . S
C416 C418 1.381 . S
C416 C422 1.383 . S
C417 C413 1.495 . S
C417 H423 0.959 . S
C417 H424 0.961 . S
C417 H425 0.960 . S
C418 C416 1.381 . S
C418 C419 1.394 . S
C418 H426 0.930 . S
C419 C418 1.394 . S
C419 C420 1.383 . S
C419 H427 0.929 . S
C420 C419 1.383 . S
C420 C421 1.377 . S
C421 H405 0.930 . S
C421 C420 1.377 . S
C421 C422 1.379 . S
C422 H406 0.931 . S
C422 C416 1.383 . S
C422 C421 1.379 . S
H423 C417 0.959 . S
H424 C417 0.961 . S
H425 C417 0.960 . S
H426 C418 0.930 . S
H427 C419 0.929 . S
H428 C436 0.929 . S
H429 C438 0.930 . S
H430 C440 0.930 . S
H431 C443 0.929 . S
H432 C446 0.930 . S
H433 C448 0.960 . S
H434 C448 0.960 . S
H435 C448 0.960 . S
C436 H428 0.929 . S
C436 C437 1.377 . S
C436 C438 1.384 . S
C437 C436 1.377 . S
C437 C443 1.390 . S
C438 H429 0.930 . S
C438 C436 1.384 . S
C438 C439 1.372 . S
C439 C438 1.372 . S
C439 C440 1.400 . S
C439 C444 1.490 . S
C440 H430 0.930 . S
C440 C439 1.400 . S
C440 C443 1.386 . S
H441 C457 0.930 . S
H442 C458 0.931 . S
C443 H431 0.929 . S
C443 C437 1.390 . S
C443 C440 1.386 . S
C444 C439 1.490 . S
C444 C446 1.395 . S
C444 C447 1.403 . S
H445 C451 0.930 . S
C446 H432 0.930 . S
C446 C444 1.395 . S
C446 C449 1.403 . S
C447 C444 1.403 . S
C447 C448 1.524 . S
C447 C451 1.400 . S
C448 H433 0.960 . S
C448 H434 0.960 . S
C448 H435 0.960 . S
C448 C447 1.524 . S
C449 C446 1.403 . S
C449 C450 1.392 . S
C449 C453 1.495 . S
C450 C449 1.392 . S
C450 C451 1.385 . S
C450 C452 1.478 . S
C451 H445 0.930 . S
C451 C447 1.400 . S
C451 C450 1.385 . S
C452 C450 1.478 . S
C452 C454 1.381 . S
C452 C458 1.383 . S
C453 C449 1.495 . S
C453 H459 0.959 . S
C453 H460 0.961 . S
C453 H461 0.960 . S
C454 C452 1.381 . S
C454 C455 1.394 . S
C454 H462 0.930 . S
C455 C454 1.394 . S
C455 C456 1.383 . S
C455 H463 0.929 . S
C456 C455 1.383 . S
C456 C457 1.377 . S
C457 H441 0.930 . S
C457 C456 1.377 . S
C457 C458 1.379 . S
C458 H442 0.931 . S
C458 C452 1.383 . S
C458 C457 1.379 . S
H459 C453 0.959 . S
H460 C453 0.961 . S
H461 C453 0.960 . S
H462 C454 0.930 . S
H463 C455 0.929 . S
H464 C472 0.929 . S
H465 C474 0.930 . S
H466 C476 0.930 . S
H467 C479 0.929 . S
H468 C482 0.930 . S
H469 C484 0.960 . S
H470 C484 0.960 . S
H471 C484 0.960 . S
C472 H464 0.929 . S
C472 C473 1.377 . S
C472 C474 1.384 . S
C473 C472 1.377 . S
C473 C479 1.390 . S
C474 H465 0.930 . S
C474 C472 1.384 . S
C474 C475 1.372 . S
C475 C474 1.372 . S
C475 C476 1.400 . S
C475 C480 1.490 . S
C476 H466 0.930 . S
C476 C475 1.400 . S
C476 C479 1.386 . S
H477 C493 0.930 . S
H478 C494 0.931 . S
C479 H467 0.929 . S
C479 C473 1.390 . S
C479 C476 1.386 . S
C480 C475 1.490 . S
C480 C482 1.395 . S
C480 C483 1.403 . S
H481 C487 0.930 . S
C482 H468 0.930 . S
C482 C480 1.395 . S
C482 C485 1.403 . S
C483 C480 1.403 . S
C483 C484 1.524 . S
C483 C487 1.400 . S
C484 H469 0.960 . S
C484 H470 0.960 . S
C484 H471 0.960 . S
C484 C483 1.524 . S
C485 C482 1.403 . S
C485 C486 1.392 . S
C485 C489 1.495 . S
C486 C485 1.392 . S
C486 C487 1.385 . S
C486 C488 1.478 . S
C487 H481 0.930 . S
C487 C483 1.400 . S
C487 C486 1.385 . S
C488 C486 1.478 . S
C488 C490 1.381 . S
C488 C494 1.383 . S
C489 C485 1.495 . S
C489 H495 0.959 . S
C489 H496 0.961 . S
C489 H497 0.960 . S
C490 C488 1.381 . S
C490 C491 1.394 . S
C490 H498 0.930 . S
C491 C490 1.394 . S
C491 C492 1.383 . S
C491 H499 0.929 . S
C492 C491 1.383 . S
C492 C493 1.377 . S
C493 H477 0.930 . S
C493 C492 1.377 . S
C493 C494 1.379 . S
C494 H478 0.931 . S
C494 C488 1.383 . S
C494 C493 1.379 . S
H495 C489 0.959 . S
H496 C489 0.961 . S
H497 C489 0.960 . S
H498 C490 0.930 . S
H499 C491 0.929 . S
H500 C508 0.929 . S
H501 C510 0.930 . S
H502 C512 0.930 . S
H503 C515 0.929 . S
H504 C518 0.930 . S
H505 C520 0.960 . S
H506 C520 0.960 . S
H507 C520 0.960 . S
C508 H500 0.929 . S
C508 C509 1.377 . S
C508 C510 1.384 . S
C509 C508 1.377 . S
C509 C515 1.390 . S
C510 H501 0.930 . S
C510 C508 1.384 . S
C510 C511 1.372 . S
C511 C510 1.372 . S
C511 C512 1.400 . S
C511 C516 1.490 . S
C512 H502 0.930 . S
C512 C511 1.400 . S
C512 C515 1.386 . S
H513 C529 0.930 . S
H514 C530 0.931 . S
C515 H503 0.929 . S
C515 C509 1.390 . S
C515 C512 1.386 . S
C516 C511 1.490 . S
C516 C518 1.395 . S
C516 C519 1.403 . S
H517 C523 0.930 . S
C518 H504 0.930 . S
C518 C516 1.395 . S
C518 C521 1.403 . S
C519 C516 1.403 . S
C519 C520 1.524 . S
C519 C523 1.400 . S
C520 H505 0.960 . S
C520 H506 0.960 . S
C520 H507 0.960 . S
C520 C519 1.524 . S
C521 C518 1.403 . S
C521 C522 1.392 . S
C521 C525 1.495 . S
C522 C521 1.392 . S
C522 C523 1.385 . S
C522 C524 1.478 . S
C523 H517 0.930 . S
C523 C519 1.400 . S
C523 C522 1.385 . S
C524 C522 1.478 . S
C524 C526 1.381 . S
C524 C530 1.383 . S
C525 C521 1.495 . S
C525 H531 0.959 . S
C525 H532 0.961 . S
C525 H533 0.960 . S
C526 C524 1.381 . S
C526 C527 1.394 . S
C526 H534 0.930 . S
C527 C526 1.394 . S
C527 C528 1.383 . S
C527 H535 0.929 . S
C528 C527 1.383 . S
C528 C529 1.377 . S
C529 H513 0.930 . S
C529 C528 1.377 . S
C529 C530 1.379 . S
C530 H514 0.931 . S
C530 C524 1.383 . S
C530 C529 1.379 . S
H531 C525 0.959 . S
H532 C525 0.961 . S
H533 C525 0.960 . S
H534 C526 0.930 . S
H535 C527 0.929 . S
H536 C544 0.929 . S
H537 C546 0.930 1_655 S
H538 C548 0.930 . S
H539 C551 0.929 . S
H540 C554 0.930 . S
H541 C556 0.960 1_565 S
H542 C556 0.960 . S
H543 C556 0.960 . S
C544 H536 0.929 . S
C544 C545 1.377 . S
C544 C546 1.384 . S
C545 C544 1.377 . S
C545 C551 1.390 . S
C546 H537 0.930 1_455 S
C546 C544 1.384 . S
C546 C547 1.372 . S
C547 C546 1.372 . S
C547 C548 1.400 . S
C547 C552 1.490 . S
C548 H538 0.930 . S
C548 C547 1.400 . S
C548 C551 1.386 . S
H549 C565 0.930 . S
H550 C566 0.931 . S
C551 H539 0.929 . S
C551 C545 1.390 . S
C551 C548 1.386 . S
C552 C547 1.490 . S
C552 C554 1.395 1_455 S
C552 C555 1.403 . S
H553 C559 0.930 . S
C554 H540 0.930 . S
C554 C552 1.395 1_655 S
C554 C557 1.414 . S
C555 C552 1.403 . S
C555 C556 1.524 . S
C555 C559 1.400 1_545 S
C556 H541 0.960 1_545 S
C556 H542 0.960 . S
C556 H543 0.960 . S
C556 C555 1.524 . S
C557 C554 1.414 . S
C557 C558 1.382 1_545 S
C557 C561 1.495 . S
C558 C557 1.382 1_565 S
C558 C559 1.385 1_655 S
C558 C560 1.478 . S
C559 H553 0.930 . S
C559 C555 1.400 1_565 S
C559 C558 1.385 1_455 S
C560 C558 1.478 . S
C560 C562 1.381 . S
C560 C566 1.383 . S
C561 C557 1.495 . S
C561 H567 0.966 . S
C561 H568 0.957 1_545 S
C561 H569 0.958 1_545 S
C562 C560 1.381 . S
C562 C563 1.394 . S
C562 H570 0.930 . S
C563 C562 1.394 . S
C563 C564 1.383 . S
C563 H571 0.929 . S
C564 C563 1.383 . S
C564 C565 1.377 . S
C565 H549 0.930 . S
C565 C564 1.377 . S
C565 C566 1.379 . S
C566 H550 0.931 . S
C566 C560 1.383 . S
C566 C565 1.379 . S
H567 C561 0.966 . S
H568 C561 0.957 1_565 S
H569 C561 0.958 1_565 S
H570 C562 0.930 . S
H571 C563 0.929 . S
H572 C580 0.929 . S
H573 C582 0.930 . S
H574 C584 0.930 . S
H575 C587 0.929 . S
H576 C590 0.930 . S
H577 C592 0.960 . S
H578 C592 0.960 . S
H579 C592 0.960 . S
C580 H572 0.929 . S
C580 C581 1.377 . S
C580 C582 1.384 . S
C581 C580 1.377 . S
C581 C587 1.390 . S
C582 H573 0.930 . S
C582 C580 1.384 . S
C582 C583 1.372 . S
C583 C582 1.372 . S
C583 C584 1.400 . S
C583 C588 1.490 . S
C584 H574 0.930 . S
C584 C583 1.400 . S
C584 C587 1.386 . S
H585 C601 0.930 . S
H586 C602 0.931 . S
C587 H575 0.929 . S
C587 C581 1.390 . S
C587 C584 1.386 . S
C588 C583 1.490 . S
C588 C590 1.395 . S
C588 C591 1.403 1_565 S
H589 C595 0.930 . S
C590 H576 0.930 . S
C590 C588 1.395 . S
C590 C593 1.403 1_455 S
C591 C588 1.403 1_545 S
C591 C592 1.524 . S
C591 C595 1.400 1_455 S
C592 H577 0.960 . S
C592 H578 0.960 . S
C592 H579 0.960 . S
C592 C591 1.524 . S
C593 C590 1.403 1_655 S
C593 C594 1.392 1_565 S
C593 C597 1.495 . S
C594 C593 1.392 1_545 S
C594 C595 1.385 . S
C594 C596 1.478 . S
C595 H589 0.930 . S
C595 C591 1.400 1_655 S
C595 C594 1.385 . S
C596 C594 1.478 . S
C596 C598 1.381 . S
C596 C602 1.383 . S
C597 C593 1.495 . S
C597 H603 0.959 . S
C597 H604 0.961 . S
C597 H605 0.960 . S
C598 C596 1.381 . S
C598 C599 1.394 . S
C598 H606 0.930 . S
C599 C598 1.394 . S
C599 C600 1.383 . S
C599 H607 0.929 . S
C600 C599 1.383 . S
C600 C601 1.377 . S
C601 H585 0.930 . S
C601 C600 1.377 . S
C601 C602 1.379 . S
C602 H586 0.931 . S
C602 C596 1.383 . S
C602 C601 1.379 . S
H603 C597 0.959 . S
H604 C597 0.961 . S
H605 C597 0.960 . S
H606 C598 0.930 . S
H607 C599 0.929 . S
H608 C616 0.929 . S
H609 C618 0.930 . S
H610 C620 0.930 . S
H611 C623 0.929 . S
H612 C626 0.930 . S
H613 C628 0.960 . S
H614 C628 0.960 . S
H615 C628 0.960 1_655 S
C616 H608 0.929 . S
C616 C617 1.377 . S
C616 C618 1.384 . S
C617 C616 1.377 . S
C617 C623 1.390 . S
C618 H609 0.930 . S
C618 C616 1.384 . S
C618 C619 1.372 . S
C619 C618 1.372 . S
C619 C620 1.400 . S
C619 C624 1.490 . S
C620 H610 0.930 . S
C620 C619 1.400 . S
C620 C623 1.386 . S
H621 C637 0.930 . S
H622 C638 0.931 . S
C623 H611 0.929 . S
C623 C617 1.390 . S
C623 C620 1.386 . S
C624 C619 1.490 . S
C624 C626 1.395 . S
C624 C627 1.403 1_655 S
H625 C631 0.930 . S
C626 H612 0.930 . S
C626 C624 1.395 . S
C626 C629 1.403 1_545 S
C627 C624 1.403 1_455 S
C627 C628 1.524 . S
C627 C631 1.400 1_545 S
C628 H613 0.960 . S
C628 H614 0.960 . S
C628 H615 0.960 1_455 S
C628 C627 1.524 . S
C629 C626 1.403 1_565 S
C629 C630 1.392 1_655 S
C629 C633 1.495 . S
C630 C629 1.392 1_455 S
C630 C631 1.385 . S
C630 C632 1.478 . S
C631 H625 0.930 . S
C631 C627 1.400 1_565 S
C631 C630 1.385 . S
C632 C630 1.478 . S
C632 C634 1.381 . S
C632 C638 1.383 . S
C633 C629 1.495 . S
C633 H639 0.959 . S
C633 H640 0.961 . S
C633 H641 0.960 1_655 S
C634 C632 1.381 . S
C634 C635 1.394 . S
C634 H642 0.930 . S
C635 C634 1.394 . S
C635 C636 1.383 . S
C635 H643 0.929 . S
C636 C635 1.383 . S
C636 C637 1.377 . S
C637 H621 0.930 . S
C637 C636 1.377 . S
C637 C638 1.379 . S
C638 H622 0.931 . S
C638 C632 1.383 . S
C638 C637 1.379 . S
H639 C633 0.959 . S
H640 C633 0.961 . S
H641 C633 0.960 1_455 S
H642 C634 0.930 . S
H643 C635 0.929 . S
H644 C652 0.929 . S
H645 C654 0.930 1_545 S
H646 C656 0.930 . S
H647 C659 0.929 . S
H648 C662 0.930 . S
H649 C664 0.960 1_455 S
H650 C664 0.960 . S
H651 C664 0.960 . S
C652 H644 0.929 . S
C652 C653 1.377 . S
C652 C654 1.384 . S
C653 C652 1.377 . S
C653 C659 1.390 . S
C654 H645 0.930 1_565 S
C654 C652 1.384 . S
C654 C655 1.372 . S
C655 C654 1.372 . S
C655 C656 1.400 . S
C655 C660 1.490 . S
C656 H646 0.930 . S
C656 C655 1.400 . S
C656 C659 1.386 . S
H657 C673 0.930 . S
H658 C674 0.931 1_565 S
C659 H647 0.929 . S
C659 C653 1.390 . S
C659 C656 1.386 . S
C660 C655 1.490 . S
C660 C662 1.395 1_565 S
C660 C663 1.403 . S
H661 C667 0.930 . S
C662 H648 0.930 . S
C662 C660 1.395 1_545 S
C662 C665 1.403 1_655 S
C663 C660 1.403 . S
C663 C664 1.524 . S
C663 C667 1.400 1_655 S
C664 H649 0.960 1_655 S
C664 H650 0.960 . S
C664 H651 0.960 . S
C664 C663 1.524 . S
C665 C662 1.403 1_455 S
C665 C666 1.392 . S
C665 C669 1.495 . S
C666 C665 1.392 . S
C666 C667 1.385 1_545 S
C666 C668 1.478 . S
C667 H661 0.930 . S
C667 C663 1.400 1_455 S
C667 C666 1.385 1_565 S
C668 C666 1.478 . S
C668 C670 1.381 . S
C668 C674 1.383 . S
C669 C665 1.495 . S
C669 H675 0.959 1_455 S
C669 H676 0.961 . S
C669 H677 0.960 . S
C670 C668 1.381 . S
C670 C671 1.394 . S
C670 H678 0.930 . S
C671 C670 1.394 . S
C671 C672 1.383 . S
C671 H679 0.929 . S
C672 C671 1.383 . S
C672 C673 1.377 . S
C673 H657 0.930 . S
C673 C672 1.377 . S
C673 C674 1.379 . S
C674 H658 0.931 1_545 S
C674 C668 1.383 . S
C674 C673 1.379 . S
H675 C669 0.959 1_655 S
H676 C669 0.961 . S
H677 C669 0.960 . S
H678 C670 0.930 . S
H679 C671 0.929 . S
C113 C5 1.908 . S
C132 C31 1.881 . S
C149 C44 1.915 . S
C168 C18 1.933 . S
C185 C83 1.914 . S
C204 C57 1.933 . S
C221 C70 1.906 . S
C240 C96 1.902 . S
C257 C79 1.573 . S
C276 C1 1.556 . S
C293 C14 1.568 . S
C312 C92 1.572 . S
C329 C27 1.570 . S
C348 C53 1.562 . S
C365 C66 1.569 . S
C384 C40 1.567 . S
C401 C3 1.650 . S
C420 C68 1.659 . S
C437 C81 1.650 . S
C456 C16 1.649 . S
C473 C94 1.651 . S
C492 C29 1.641 . S
C509 C42 1.652 . S
C528 C55 1.659 . S
C545 C10 1.349 . S
C564 C36 1.377 . S
C581 C49 1.346 . S
C600 C23 1.316 . S
C617 C88 1.344 . S
C636 C62 1.331 . S
C653 C101 1.347 . S
C672 C75 1.369 . S
