# Generated by pormake.
# Topology umc, (4)-cn, num edge types: 1
# Building blocks:
#     Node 0, Type 0, BuildingBlock: GALJAG_clean_sbu_0, # of connection points: 4
#     Node 1, Type 0, BuildingBlock: GALJAG_clean_sbu_0, # of connection points: 4
#     Node 2, Type 0, BuildingBlock: GALJAG_clean_sbu_0, # of connection points: 4
#     Node 3, Type 0, BuildingBlock: GALJAG_clean_sbu_0, # of connection points: 4
#     Node 4, Type 0, BuildingBlock: GALJAG_clean_sbu_0, # of connection points: 4
#     Node 5, Type 0, BuildingBlock: GALJAG_clean_sbu_0, # of connection points: 4
#     Node 6, Type 0, BuildingBlock: GALJAG_clean_sbu_0, # of connection points: 4
#     Node 7, Type 0, BuildingBlock: GALJAG_clean_sbu_0, # of connection points: 4
#     Node 8, Type 0, BuildingBlock: GALJAG_clean_sbu_0, # of connection points: 4
#     Node 9, Type 0, BuildingBlock: GALJAG_clean_sbu_0, # of connection points: 4
#     Node 10, Type 0, BuildingBlock: GALJAG_clean_sbu_0, # of connection points: 4
#     Node 11, Type 0, BuildingBlock: GALJAG_clean_sbu_0, # of connection points: 4
#     Node 12, Type 0, BuildingBlock: GALJAG_clean_sbu_0, # of connection points: 4
#     Node 13, Type 0, BuildingBlock: GALJAG_clean_sbu_0, # of connection points: 4
#     Node 14, Type 0, BuildingBlock: GALJAG_clean_sbu_0, # of connection points: 4
#     Node 15, Type 0, BuildingBlock: GALJAG_clean_sbu_0, # of connection points: 4
#     Edge 16, Type (0, 0), BuildingBlock: AJUNOK_clean_linker_0, # of connection points: 2
#     Edge 17, Type (0, 0), BuildingBlock: AJUNOK_clean_linker_0, # of connection points: 2
#     Edge 18, Type (0, 0), BuildingBlock: AJUNOK_clean_linker_0, # of connection points: 2
#     Edge 19, Type (0, 0), BuildingBlock: AJUNOK_clean_linker_0, # of connection points: 2
#     Edge 20, Type (0, 0), BuildingBlock: AJUNOK_clean_linker_0, # of connection points: 2
#     Edge 21, Type (0, 0), BuildingBlock: AJUNOK_clean_linker_0, # of connection points: 2
#     Edge 22, Type (0, 0), BuildingBlock: AJUNOK_clean_linker_0, # of connection points: 2
#     Edge 23, Type (0, 0), BuildingBlock: AJUNOK_clean_linker_0, # of connection points: 2
#     Edge 24, Type (0, 0), BuildingBlock: AJUNOK_clean_linker_0, # of connection points: 2
#     Edge 25, Type (0, 0), BuildingBlock: AJUNOK_clean_linker_0, # of connection points: 2
#     Edge 26, Type (0, 0), BuildingBlock: AJUNOK_clean_linker_0, # of connection points: 2
#     Edge 27, Type (0, 0), BuildingBlock: AJUNOK_clean_linker_0, # of connection points: 2
#     Edge 28, Type (0, 0), BuildingBlock: AJUNOK_clean_linker_0, # of connection points: 2
#     Edge 29, Type (0, 0), BuildingBlock: AJUNOK_clean_linker_0, # of connection points: 2
#     Edge 30, Type (0, 0), BuildingBlock: AJUNOK_clean_linker_0, # of connection points: 2
#     Edge 31, Type (0, 0), BuildingBlock: AJUNOK_clean_linker_0, # of connection points: 2
#     Edge 32, Type (0, 0), BuildingBlock: AJUNOK_clean_linker_0, # of connection points: 2
#     Edge 33, Type (0, 0), BuildingBlock: AJUNOK_clean_linker_0, # of connection points: 2
#     Edge 34, Type (0, 0), BuildingBlock: AJUNOK_clean_linker_0, # of connection points: 2
#     Edge 35, Type (0, 0), BuildingBlock: AJUNOK_clean_linker_0, # of connection points: 2
#     Edge 36, Type (0, 0), BuildingBlock: AJUNOK_clean_linker_0, # of connection points: 2
#     Edge 37, Type (0, 0), BuildingBlock: AJUNOK_clean_linker_0, # of connection points: 2
#     Edge 38, Type (0, 0), BuildingBlock: AJUNOK_clean_linker_0, # of connection points: 2
#     Edge 39, Type (0, 0), BuildingBlock: AJUNOK_clean_linker_0, # of connection points: 2
#     Edge 40, Type (0, 0), BuildingBlock: AJUNOK_clean_linker_0, # of connection points: 2
#     Edge 41, Type (0, 0), BuildingBlock: AJUNOK_clean_linker_0, # of connection points: 2
#     Edge 42, Type (0, 0), BuildingBlock: AJUNOK_clean_linker_0, # of connection points: 2
#     Edge 43, Type (0, 0), BuildingBlock: AJUNOK_clean_linker_0, # of connection points: 2
#     Edge 44, Type (0, 0), BuildingBlock: AJUNOK_clean_linker_0, # of connection points: 2
#     Edge 45, Type (0, 0), BuildingBlock: AJUNOK_clean_linker_0, # of connection points: 2
#     Edge 46, Type (0, 0), BuildingBlock: AJUNOK_clean_linker_0, # of connection points: 2
#     Edge 47, Type (0, 0), BuildingBlock: AJUNOK_clean_linker_0, # of connection points: 2
# Relax obj value: 0.064
# Max RMSD: 0.131
# Mean RMSD: 0.131
data_MOF--net-umc--node1-GALJAG_clean_sbu_0--edge1-AJUNOK_clean_linker_0
_symmetry_space_group_name_H-M    P1
_symmetry_Int_Tables_number       1
_symmetry_cell_setting            triclinic
loop_
_symmetry_equiv_pos_as_xyz
'x, y, z'
_cell_length_a     30.655728
_cell_length_b     28.139432
_cell_length_c     41.915749
_cell_angle_alpha  89.992622
_cell_angle_beta   90.006384
_cell_angle_gamma 89.997983
loop_
_atom_site_label
_atom_site_type_symbol
_atom_site_fract_x
_atom_site_fract_y
_atom_site_fract_z
_atom_type_partial_charge
In0 In 0.32951 0.0698 0.36681 0.0
O1 O 0.33172 0.15047 0.36251 0.0
O2 O 0.26969 0.11649 0.3673 0.0
C3 C 0.41146 0.03569 0.36165 0.0
C4 C 0.31523 0.05847 0.42941 0.0
C5 C 0.29944 0.03871 0.31063 0.0
O6 O 0.40319 0.07973 0.35988 0.0
O7 O 0.37855 0.00968 0.36628 0.0
O8 O 0.29099 0.01683 0.33638 0.0
O9 O 0.32249 0.07558 0.31366 0.0
C10 C 0.29061 0.15499 0.36445 0.0
O11 O 0.29692 0.03132 0.40929 0.0
O12 O 0.34085 0.08893 0.41777 0.0
In13 In 0.67119 0.92953 0.36706 0.0
O14 O 0.70467 0.96422 0.4107 0.0
O15 O 0.6496 0.91901 0.41737 0.0
C16 C 0.70446 0.96295 0.31236 0.0
C17 C 0.70744 0.84274 0.36604 0.0
C18 C 0.58875 0.961 0.35942 0.0
O19 O 0.7092 0.98527 0.33842 0.0
O20 O 0.68358 0.92449 0.3144 0.0
O21 O 0.59848 0.91729 0.35838 0.0
O22 O 0.62079 0.98849 0.36366 0.0
C23 C 0.67819 0.94504 0.43007 0.0
O24 O 0.66715 0.84934 0.36104 0.0
O25 O 0.72909 0.88003 0.37172 0.0
In26 In 0.33222 0.92786 0.1288 0.0
O27 O 0.33757 0.84789 0.13542 0.0
O28 O 0.27414 0.87813 0.12988 0.0
C29 C 0.41527 0.96004 0.13147 0.0
C30 C 0.31437 0.93738 0.06643 0.0
C31 C 0.30208 0.96226 0.18426 0.0
O32 O 0.40576 0.91656 0.1346 0.0
O33 O 0.38291 0.9869 0.12696 0.0
O34 O 0.29323 0.98222 0.15793 0.0
O35 O 0.32539 0.92549 0.18216 0.0
C36 C 0.29679 0.84098 0.13371 0.0
O37 O 0.29821 0.96586 0.08664 0.0
O38 O 0.33957 0.90631 0.07777 0.0
In39 In 0.67328 0.07358 0.13069 0.0
O40 O 0.66774 0.15354 0.13768 0.0
O41 O 0.7311 0.12338 0.13135 0.0
C42 C 0.59173 0.03746 0.133 0.0
C43 C 0.69014 0.06472 0.06821 0.0
C44 C 0.70325 0.04058 0.18648 0.0
O45 O 0.59912 0.08157 0.13551 0.0
O46 O 0.62537 0.01223 0.12931 0.0
O47 O 0.71363 0.02112 0.16026 0.0
O48 O 0.67843 0.07616 0.18409 0.0
C49 C 0.70852 0.16046 0.1356 0.0
O50 O 0.70786 0.03706 0.08829 0.0
O51 O 0.66398 0.09465 0.07981 0.0
In52 In 0.67244 0.92673 0.63123 0.0
O53 O 0.70599 0.96152 0.5877 0.0
O54 O 0.65096 0.91623 0.5809 0.0
C55 C 0.70511 0.95945 0.68626 0.0
C56 C 0.70757 0.83936 0.63256 0.0
C57 C 0.59137 0.96233 0.63817 0.0
O58 O 0.71275 0.98016 0.65996 0.0
O59 O 0.682 0.92248 0.68427 0.0
O60 O 0.59893 0.91805 0.63882 0.0
O61 O 0.62477 0.98803 0.63461 0.0
C62 C 0.67943 0.94255 0.56828 0.0
O63 O 0.66729 0.84652 0.6373 0.0
O64 O 0.72971 0.87634 0.627 0.0
In65 In 0.33135 0.06876 0.62917 0.0
O66 O 0.33245 0.14937 0.63383 0.0
O67 O 0.27088 0.11459 0.62873 0.0
C68 C 0.41453 0.03815 0.63421 0.0
C69 C 0.3166 0.05771 0.56657 0.0
C70 C 0.30166 0.036 0.68509 0.0
O71 O 0.40442 0.08161 0.63668 0.0
O72 O 0.38274 0.01072 0.62902 0.0
O73 O 0.29458 0.01379 0.65926 0.0
O74 O 0.32316 0.07397 0.68226 0.0
C75 C 0.29132 0.15336 0.63178 0.0
O76 O 0.29892 0.03006 0.58668 0.0
O77 O 0.34198 0.08841 0.57819 0.0
In78 In 0.6766 0.06913 0.86819 0.0
O79 O 0.67479 0.14934 0.86111 0.0
O80 O 0.73654 0.11545 0.86791 0.0
C81 C 0.59479 0.0342 0.86522 0.0
C82 C 0.69145 0.06192 0.93095 0.0
C83 C 0.70612 0.03634 0.81235 0.0
O84 O 0.60267 0.07822 0.86248 0.0
O85 O 0.62807 0.00858 0.86948 0.0
O86 O 0.71518 0.01539 0.83835 0.0
O87 O 0.68243 0.0728 0.81497 0.0
C88 C 0.71589 0.15378 0.86339 0.0
O89 O 0.70952 0.0334 0.91157 0.0
O90 O 0.66579 0.09167 0.91853 0.0
In91 In 0.33464 0.92624 0.86754 0.0
O92 O 0.30003 0.96495 0.90914 0.0
O93 O 0.34111 0.90543 0.91876 0.0
C94 C 0.30508 0.95972 0.81162 0.0
C95 C 0.29947 0.83916 0.86322 0.0
C96 C 0.41779 0.95819 0.8653 0.0
O97 O 0.29569 0.97986 0.83779 0.0
O98 O 0.32871 0.92324 0.8141 0.0
O99 O 0.40816 0.91475 0.86218 0.0
O100 O 0.38546 0.98521 0.86954 0.0
C101 C 0.31577 0.93668 0.92968 0.0
O102 O 0.34028 0.84611 0.86198 0.0
O103 O 0.27667 0.87637 0.86618 0.0
In104 In 0.83299 0.5737 0.36695 0.0
O105 O 0.80105 0.53575 0.40984 0.0
O106 O 0.84471 0.59377 0.41766 0.0
C107 C 0.80201 0.5413 0.31144 0.0
C108 C 0.79312 0.65828 0.36422 0.0
C109 C 0.91566 0.54175 0.36167 0.0
O110 O 0.79483 0.5194 0.33739 0.0
O111 O 0.82451 0.57863 0.31394 0.0
O112 O 0.90608 0.58533 0.35888 0.0
O113 O 0.88356 0.51487 0.36715 0.0
C114 C 0.81932 0.5634 0.42966 0.0
O115 O 0.83425 0.65431 0.36209 0.0
O116 O 0.77269 0.61956 0.36754 0.0
In117 In 0.17264 0.42851 0.36812 0.0
O118 O 0.16713 0.34825 0.36248 0.0
O119 O 0.22957 0.37775 0.37304 0.0
C120 C 0.09181 0.46405 0.36002 0.0
C121 C 0.17853 0.44695 0.43081 0.0
C122 C 0.20503 0.46125 0.31296 0.0
O123 O 0.09915 0.41971 0.36043 0.0
O124 O 0.12527 0.48975 0.36323 0.0
O125 O 0.21226 0.48234 0.33918 0.0
O126 O 0.1828 0.42367 0.31512 0.0
C127 C 0.20732 0.34086 0.36745 0.0
O128 O 0.20678 0.46306 0.41152 0.0
O129 O 0.14928 0.42154 0.41835 0.0
In130 In 0.83138 0.43074 0.12979 0.0
O131 O 0.83336 0.35054 0.1369 0.0
O132 O 0.77145 0.38425 0.13063 0.0
C133 C 0.91333 0.46547 0.13253 0.0
C134 C 0.81733 0.43885 0.06698 0.0
C135 C 0.80227 0.46481 0.18533 0.0
O136 O 0.90527 0.42154 0.13567 0.0
O137 O 0.88014 0.49115 0.1281 0.0
O138 O 0.79221 0.48443 0.15907 0.0
O139 O 0.82644 0.42866 0.18308 0.0
C140 C 0.79224 0.346 0.13505 0.0
O141 O 0.79903 0.46707 0.08644 0.0
O142 O 0.8422 0.40836 0.07947 0.0
In143 In 0.17465 0.56996 0.12994 0.0
O144 O 0.20785 0.52964 0.08843 0.0
O145 O 0.16891 0.59086 0.07868 0.0
C146 C 0.20304 0.53766 0.18643 0.0
C147 C 0.21375 0.65498 0.1342 0.0
C148 C 0.091 0.53974 0.13204 0.0
O149 O 0.21208 0.51618 0.16066 0.0
O150 O 0.17983 0.57436 0.18331 0.0
O151 O 0.10117 0.58318 0.13434 0.0
O152 O 0.12301 0.51199 0.12871 0.0
C153 C 0.19313 0.55849 0.06783 0.0
O154 O 0.17261 0.65047 0.13547 0.0
O155 O 0.23463 0.61653 0.13097 0.0
In156 In 0.17098 0.42577 0.63071 0.0
O157 O 0.16624 0.34528 0.63529 0.0
O158 O 0.22851 0.37574 0.62563 0.0
C159 C 0.08871 0.45758 0.63852 0.0
C160 C 0.17757 0.44571 0.56822 0.0
C161 C 0.20324 0.4589 0.68592 0.0
O162 O 0.09809 0.41374 0.63881 0.0
O163 O 0.12101 0.48494 0.63498 0.0
O164 O 0.20961 0.48041 0.65975 0.0
O165 O 0.18169 0.42088 0.68372 0.0
C166 C 0.20653 0.33846 0.63051 0.0
O167 O 0.20532 0.46176 0.58789 0.0
O168 O 0.1484 0.4197 0.58019 0.0
In169 In 0.83055 0.56889 0.63003 0.0
O170 O 0.79855 0.53319 0.58633 0.0
O171 O 0.84391 0.59004 0.57973 0.0
C172 C 0.79981 0.53415 0.68492 0.0
C173 C 0.79139 0.65379 0.63393 0.0
C174 C 0.91213 0.53406 0.63562 0.0
O175 O 0.79175 0.51399 0.65848 0.0
O176 O 0.82234 0.5716 0.68315 0.0
O177 O 0.90407 0.57807 0.63818 0.0
O178 O 0.87923 0.5085 0.62993 0.0
C179 C 0.81799 0.56079 0.56708 0.0
O180 O 0.83246 0.64928 0.63629 0.0
O181 O 0.77064 0.61541 0.6299 0.0
In182 In 0.17702 0.5684 0.86879 0.0
O183 O 0.17534 0.64877 0.86265 0.0
O184 O 0.23718 0.61471 0.86814 0.0
C185 C 0.09352 0.53798 0.8663 0.0
C186 C 0.19447 0.55762 0.93108 0.0
C187 C 0.20524 0.53554 0.81243 0.0
O188 O 0.10356 0.58147 0.86398 0.0
O189 O 0.12558 0.51037 0.8699 0.0
O190 O 0.21396 0.51399 0.83824 0.0
O191 O 0.18262 0.57268 0.81547 0.0
C192 C 0.21646 0.65317 0.8644 0.0
O193 O 0.2099 0.52881 0.91075 0.0
O194 O 0.17013 0.58963 0.91988 0.0
In195 In 0.8349 0.42624 0.86681 0.0
O196 O 0.80079 0.46353 0.90909 0.0
O197 O 0.84487 0.40618 0.91769 0.0
C198 C 0.80416 0.45701 0.81077 0.0
C199 C 0.79974 0.33925 0.86293 0.0
C200 C 0.91642 0.46235 0.86417 0.0
O201 O 0.79417 0.47765 0.83667 0.0
O202 O 0.82949 0.42194 0.81357 0.0
O203 O 0.90894 0.41826 0.86165 0.0
O204 O 0.88282 0.48767 0.86781 0.0
C205 C 0.81914 0.43655 0.92929 0.0
O206 O 0.84051 0.34616 0.86081 0.0
O207 O 0.7771 0.37639 0.8668 0.0
C208 C 0.30465 0.01425 0.4811 0.0
C209 C 0.30706 0.0573 0.46407 0.0
C210 C 0.30504 0.01407 0.51476 0.0
C211 C 0.30785 0.05692 0.53197 0.0
H212 H 0.30503 0.9807 0.46845 0.0
H213 H 0.30568 0.98037 0.52724 0.0
S214 S 0.30605 0.17881 0.49831 0.0
N215 N 0.306 0.14353 0.46686 0.0
N216 N 0.3067 0.1432 0.52959 0.0
C217 C 0.30676 0.09997 0.51506 0.0
C218 C 0.30638 0.10015 0.48119 0.0
C219 C 0.64294 0.93598 0.51589 0.0
C220 C 0.68015 0.94937 0.53328 0.0
C221 C 0.6426 0.9367 0.48268 0.0
C222 C 0.67947 0.95081 0.46516 0.0
H223 H 0.61377 0.92381 0.528 0.0
H224 H 0.6132 0.925 0.47065 0.0
S225 S 0.78446 0.99248 0.49907 0.0
N226 N 0.75431 0.97983 0.53064 0.0
N227 N 0.7537 0.98113 0.46758 0.0
C228 C 0.71645 0.96642 0.48207 0.0
C229 C 0.71679 0.96571 0.51628 0.0
C230 C 0.30424 0.98141 0.01471 0.0
C231 C 0.30505 0.93847 0.03193 0.0
C232 C 0.3046 0.98125 0.98107 0.0
C233 C 0.30576 0.93813 0.96407 0.0
H234 H 0.3062 0.01504 0.0272 0.0
H235 H 0.30681 0.01475 0.96845 0.0
S236 S 0.29914 0.81679 0.99825 0.0
N237 N 0.30048 0.85234 0.02955 0.0
N238 N 0.30112 0.85203 0.9668 0.0
C239 C 0.3028 0.89535 0.98114 0.0
C240 C 0.30245 0.89552 0.01502 0.0
C241 C 0.70451 0.02015 0.98323 0.0
C242 C 0.69934 0.06242 0.96567 0.0
C243 C 0.70422 0.02085 0.01687 0.0
C244 C 0.69875 0.06383 0.03359 0.0
H245 H 0.70631 0.98629 0.97101 0.0
H246 H 0.70579 0.98751 0.02974 0.0
S247 S 0.69266 0.18466 -0.00153 0.0
N248 N 0.69493 0.14863 0.96746 0.0
N249 N 0.69434 0.14991 0.03017 0.0
C250 C 0.697 0.1064 0.01616 0.0
C251 C 0.69731 0.1057 0.98229 0.0
C252 C 0.8053 0.51899 0.51477 0.0
C253 C 0.81086 0.56122 0.53229 0.0
C254 C 0.80565 0.51963 0.48113 0.0
C255 C 0.81157 0.56252 0.46439 0.0
H256 H 0.80296 0.4852 0.52703 0.0
H257 H 0.80357 0.48631 0.46828 0.0
S258 S 0.81884 0.68333 0.49944 0.0
N259 N 0.81625 0.64735 0.53047 0.0
N260 N 0.81686 0.64858 0.46777 0.0
C261 C 0.81385 0.60509 0.48179 0.0
C262 C 0.81351 0.60444 0.51566 0.0
C263 C 0.21761 0.45933 0.51654 0.0
C264 C 0.17819 0.45514 0.53355 0.0
C265 C 0.21785 0.4596 0.4829 0.0
C266 C 0.17867 0.45571 0.46556 0.0
H267 H 0.24842 0.45966 0.52919 0.0
H268 H 0.24884 0.46015 0.4705 0.0
S269 S 0.06669 0.4533 0.49913 0.0
N270 N 0.09901 0.4538 0.53061 0.0
N271 N 0.09943 0.45435 0.4679 0.0
C272 C 0.1391 0.45528 0.48246 0.0
C273 C 0.13886 0.45499 0.51636 0.0
C274 C 0.82068 0.3972 0.98185 0.0
C275 C 0.8118 0.4384 0.96408 0.0
C276 C 0.82025 0.39776 0.01505 0.0
C277 C 0.81096 0.43955 0.03207 0.0
H278 H 0.82922 0.36424 0.97001 0.0
H279 H 0.82848 0.3652 0.02749 0.0
S280 S 0.7823 0.55638 0.99696 0.0
N281 N 0.79074 0.52167 0.96574 0.0
N282 N 0.78996 0.52275 0.02882 0.0
C283 C 0.79966 0.48058 0.01477 0.0
C284 C 0.80008 0.48 0.98058 0.0
C285 C 0.20243 0.51335 0.01645 0.0
C286 C 0.20312 0.55649 0.03345 0.0
C287 C 0.20279 0.51313 0.98281 0.0
C288 C 0.20385 0.55605 0.96557 0.0
H289 H 0.19875 0.48001 0.02909 0.0
H290 H 0.19936 0.47963 0.97033 0.0
S291 S 0.21498 0.67732 -0.0008 0.0
N292 N 0.21146 0.64225 0.03068 0.0
N293 N 0.21212 0.64184 0.96791 0.0
C294 C 0.2083 0.59883 0.98246 0.0
C295 C 0.20794 0.59905 0.01635 0.0
C296 C 0.53523 0.02823 0.35913 0.0
C297 C 0.54326 0.97896 0.35777 0.0
C298 C 0.49258 0.04633 0.35975 0.0
C299 C 0.45623 0.01588 0.35923 0.0
H300 H 0.56211 0.05316 0.36018 0.0
H301 H 0.48816 0.08445 0.36127 0.0
S302 S 0.4593 0.88411 0.35387 0.0
N303 N 0.51108 0.90012 0.35453 0.0
N304 N 0.43107 0.93397 0.35582 0.0
C305 C 0.46375 0.96657 0.35711 0.0
C306 C 0.50719 0.94816 0.35633 0.0
C307 C 0.46805 0.02794 0.13153 0.0
C308 C 0.4606 0.97857 0.1327 0.0
C309 C 0.51045 0.04669 0.13209 0.0
C310 C 0.54717 0.01681 0.13361 0.0
H311 H 0.4409 0.05248 0.13007 0.0
H312 H 0.51444 0.0849 0.13091 0.0
S313 S 0.54558 0.88494 0.13803 0.0
N314 N 0.49364 0.90018 0.13619 0.0
N315 N 0.57323 0.93525 0.13705 0.0
C316 C 0.54021 0.96736 0.13511 0.0
C317 C 0.49699 0.94829 0.13472 0.0
C318 C 0.51024 0.9524 0.63703 0.0
C319 C 0.54667 0.98255 0.63933 0.0
C320 C 0.46777 0.97079 0.63571 0.0
C321 C 0.45991 0.0201 0.63681 0.0
H322 H 0.51453 0.91425 0.63558 0.0
H323 H 0.44089 0.94602 0.6335 0.0
S324 S 0.54395 0.11433 0.64455 0.0
N325 N 0.57201 0.06427 0.64389 0.0
N326 N 0.4922 0.09871 0.64154 0.0
C327 C 0.49597 0.05065 0.6399 0.0
C328 C 0.53929 0.03192 0.64113 0.0
C329 C 0.51353 0.04418 0.86518 0.0
C330 C 0.55006 0.01399 0.8642 0.0
C331 C 0.47098 0.02577 0.86539 0.0
C332 C 0.46323 0.97644 0.86439 0.0
H333 H 0.51776 0.08237 0.86622 0.0
H334 H 0.44396 0.05052 0.86646 0.0
S335 S 0.54766 0.88208 0.8604 0.0
N336 N 0.57562 0.93218 0.86142 0.0
N337 N 0.4958 0.89776 0.86162 0.0
C338 C 0.49945 0.94586 0.86289 0.0
C339 C 0.54279 0.96458 0.86285 0.0
C340 C 0.96829 0.47379 0.36209 0.0
C341 C 0.96084 0.52304 0.35939 0.0
C342 C 0.01061 0.4549 0.36138 0.0
C343 C 0.04727 0.48451 0.35809 0.0
H344 H 0.94122 0.44948 0.36518 0.0
H345 H 0.0146 0.41688 0.36414 0.0
S346 S 0.04561 0.61573 0.34826 0.0
N347 N 0.99376 0.60087 0.35189 0.0
N348 N 0.07326 0.56551 0.35065 0.0
C349 C 0.04029 0.53374 0.35459 0.0
C350 C 0.99713 0.55296 0.35521 0.0
C351 C 0.03717 0.47286 0.13349 0.0
C352 C 0.04535 0.52213 0.13292 0.0
C353 C 0.99449 0.45488 0.13378 0.0
C354 C 0.95819 0.48542 0.13329 0.0
H355 H 0.06399 0.44779 0.13365 0.0
H356 H 0.98998 0.4167 0.13403 0.0
S357 S 0.96166 0.61743 0.13229 0.0
N358 N 0.01341 0.60121 0.13238 0.0
N359 N 0.93328 0.56759 0.13273 0.0
C360 C 0.96585 0.53481 0.13297 0.0
C361 C 0.00936 0.55311 0.13284 0.0
C362 C 0.99329 0.54387 0.63826 0.0
C363 C 0.95669 0.51379 0.6383 0.0
C364 C 0.03576 0.52532 0.63904 0.0
C365 C 0.04335 0.47595 0.6401 0.0
H366 H 0.98921 0.58206 0.63694 0.0
H367 H 0.06287 0.54999 0.63831 0.0
S368 S 0.95854 0.38193 0.64297 0.0
N369 N 0.93076 0.43211 0.64112 0.0
N370 N 0.01047 0.39741 0.64269 0.0
C371 C 0.00701 0.4455 0.64112 0.0
C372 C 0.96375 0.46438 0.64018 0.0
C373 C 0.04014 0.47079 0.86441 0.0
C374 C 0.04799 0.52011 0.86503 0.0
C375 C 0.9976 0.4525 0.86371 0.0
C376 C 0.9611 0.48276 0.86379 0.0
H377 H 0.06711 0.44591 0.86453 0.0
H378 H 0.99337 0.41428 0.86344 0.0
S379 S 0.96371 0.61478 0.86483 0.0
N380 N 0.01556 0.59895 0.86524 0.0
N381 N 0.93564 0.56473 0.8641 0.0
C382 C 0.96843 0.53221 0.86417 0.0
C383 C 0.01182 0.55083 0.86473 0.0
C384 C 0.27301 0.28829 0.36905 0.0
C385 C 0.22743 0.29298 0.3663 0.0
C386 C 0.2932 0.24363 0.36797 0.0
C387 C 0.26858 0.20184 0.36433 0.0
H388 H 0.29343 0.31938 0.37206 0.0
H389 H 0.32835 0.24188 0.37039 0.0
S390 S 0.14821 0.19457 0.35539 0.0
N391 N 0.1583 0.25191 0.3592 0.0
N392 N 0.19613 0.16798 0.35737 0.0
C393 C 0.22297 0.20597 0.36136 0.0
C394 C 0.20243 0.25151 0.36229 0.0
C395 C 0.77388 0.79134 0.3676 0.0
C396 C 0.72822 0.79524 0.36501 0.0
C397 C 0.79464 0.74699 0.36684 0.0
C398 C 0.77053 0.70477 0.36372 0.0
H399 H 0.7939 0.82282 0.37025 0.0
H400 H 0.82982 0.74583 0.36913 0.0
S401 S 0.6502 0.69542 0.35534 0.0
N402 N 0.65957 0.75298 0.35857 0.0
N403 N 0.69848 0.66963 0.35736 0.0
C404 C 0.72485 0.70811 0.36088 0.0
C405 C 0.70374 0.75332 0.36146 0.0
C406 C 0.21093 0.74379 0.13482 0.0
C407 C 0.23579 0.70182 0.13542 0.0
C408 C 0.231 0.78854 0.13461 0.0
C409 C 0.27673 0.79312 0.13517 0.0
H410 H 0.17564 0.74218 0.13405 0.0
H411 H 0.21038 0.81978 0.13377 0.0
S412 S 0.35673 0.69419 0.13793 0.0
N413 N 0.30872 0.66766 0.13734 0.0
N414 N 0.34634 0.75173 0.13708 0.0
C415 C 0.30201 0.75145 0.13632 0.0
C416 C 0.28158 0.70584 0.1364 0.0
C417 C 0.77448 0.2126 0.13561 0.0
C418 C 0.72875 0.20823 0.13707 0.0
C419 C 0.79474 0.25723 0.1356 0.0
C420 C 0.77009 0.29929 0.13685 0.0
H421 H 0.79493 0.18129 0.13415 0.0
H422 H 0.82999 0.25869 0.13402 0.0
S423 S 0.64937 0.3075 0.14239 0.0
N424 N 0.65945 0.24992 0.14092 0.0
N425 N 0.69745 0.3338 0.14076 0.0
C426 C 0.72435 0.2955 0.1389 0.0
C427 C 0.70372 0.24999 0.13906 0.0
C428 C 0.77351 0.78716 0.63164 0.0
C429 C 0.72783 0.79157 0.63363 0.0
C430 C 0.79382 0.74255 0.63231 0.0
C431 C 0.76923 0.70055 0.63473 0.0
H432 H 0.79391 0.81843 0.6295 0.0
H433 H 0.82904 0.74102 0.63045 0.0
S434 S 0.64862 0.69251 0.64137 0.0
N435 N 0.65863 0.75001 0.63878 0.0
N436 N 0.69668 0.66617 0.6398 0.0
C437 C 0.72352 0.7044 0.637 0.0
C438 C 0.70286 0.74989 0.63653 0.0
C439 C 0.27272 0.28664 0.62964 0.0
C440 C 0.22698 0.29075 0.63109 0.0
C441 C 0.29322 0.24214 0.63026 0.0
C442 C 0.26881 0.19995 0.63212 0.0
H443 H 0.293 0.31808 0.62809 0.0
H444 H 0.3285 0.24088 0.62897 0.0
S445 S 0.14806 0.19109 0.63668 0.0
N446 N 0.15785 0.2487 0.63473 0.0
N447 N 0.19629 0.16506 0.63569 0.0
C448 C 0.22302 0.20349 0.63365 0.0
C449 C 0.20215 0.24886 0.6332 0.0
C450 C 0.71352 0.24253 0.86131 0.0
C451 C 0.73819 0.20043 0.86187 0.0
C452 C 0.7338 0.28715 0.86132 0.0
C453 C 0.77956 0.29146 0.8617 0.0
H454 H 0.67821 0.24112 0.86134 0.0
H455 H 0.71332 0.31851 0.86125 0.0
S456 S 0.85916 0.19209 0.86211 0.0
N457 N 0.81101 0.16584 0.86202 0.0
N458 N 0.84901 0.2497 0.8619 0.0
C459 C 0.80467 0.24966 0.86167 0.0
C460 C 0.78402 0.20417 0.8618 0.0
C461 C 0.21379 0.74187 0.86132 0.0
C462 C 0.23863 0.69993 0.86296 0.0
C463 C 0.23384 0.78662 0.86106 0.0
C464 C 0.27954 0.79123 0.86228 0.0
H465 H 0.1785 0.74025 0.86059 0.0
H466 H 0.21323 0.81785 0.86009 0.0
S467 S 0.35955 0.69241 0.86617 0.0
N468 N 0.31157 0.66584 0.86537 0.0
N469 N 0.34914 0.74992 0.86477 0.0
C470 C 0.30483 0.74959 0.86349 0.0
C471 C 0.28442 0.70397 0.86387 0.0
C472 C 0.28909 0.97056 0.2736 0.0
C473 C 0.28896 0.01983 0.27874 0.0
C474 C 0.29035 0.95205 0.24258 0.0
C475 C 0.29065 0.98217 0.21574 0.0
H476 H 0.29157 0.94624 0.29356 0.0
H477 H 0.29332 0.91393 0.23965 0.0
S478 S 0.28328 0.11361 0.21666 0.0
N479 N 0.28406 0.0983 0.25469 0.0
N480 N 0.28546 0.06336 0.19635 0.0
C481 C 0.28645 0.0313 0.22058 0.0
C482 C 0.28591 0.05019 0.25215 0.0
C483 C 0.71223 0.05091 0.24505 0.0
C484 C 0.71468 0.02114 0.21809 0.0
C485 C 0.71323 0.03215 0.276 0.0
C486 C 0.71591 0.98292 0.28094 0.0
H487 H 0.7072 0.08879 0.24221 0.0
H488 H 0.70844 0.05601 0.29598 0.0
S489 S 0.72971 0.89047 0.21865 0.0
N490 N 0.72546 0.94071 0.1985 0.0
N491 N 0.72646 0.90524 0.25671 0.0
C492 C 0.72194 0.95316 0.25432 0.0
C493 C 0.7216 0.97235 0.22283 0.0
C494 C 0.71751 0.96796 0.77562 0.0
C495 C 0.71726 0.01725 0.78065 0.0
C496 C 0.71684 0.94932 0.74462 0.0
C497 C 0.71673 0.97935 0.71771 0.0
H498 H 0.71481 0.94374 0.79562 0.0
H499 H 0.71401 0.91118 0.74174 0.0
S500 S 0.72355 0.11084 0.71848 0.0
N501 N 0.72226 0.09565 0.75653 0.0
N502 N 0.7219 0.06052 0.69824 0.0
C503 C 0.7207 0.02852 0.72251 0.0
C504 C 0.72066 0.04752 0.75405 0.0
C505 C 0.29514 0.94899 0.75313 0.0
C506 C 0.29374 0.97912 0.77996 0.0
C507 C 0.29363 0.96739 0.72209 0.0
C508 C 0.29148 0.0166 0.7169 0.0
H509 H 0.29959 0.91105 0.75611 0.0
H510 H 0.29744 0.94321 0.70217 0.0
S511 S 0.28074 0.11005 0.77883 0.0
N512 N 0.28474 0.06 0.79921 0.0
N513 N 0.28283 0.09475 0.74082 0.0
C514 C 0.28673 0.04679 0.74343 0.0
C515 C 0.28756 0.02798 0.77503 0.0
C516 C 0.79209 0.45437 0.24373 0.0
C517 C 0.79112 0.48448 0.21689 0.0
C518 C 0.79144 0.47288 0.27473 0.0
C519 C 0.79065 0.52214 0.27982 0.0
H520 H 0.79568 0.41631 0.24077 0.0
H521 H 0.79499 0.44866 0.29466 0.0
S522 S 0.78125 0.61569 0.21783 0.0
N523 N 0.78378 0.56548 0.19751 0.0
N524 N 0.78347 0.60047 0.25585 0.0
C525 C 0.78615 0.5524 0.2533 0.0
C526 C 0.78609 0.53349 0.22174 0.0
C527 C 0.21673 0.45143 0.25456 0.0
C528 C 0.21562 0.48152 0.28141 0.0
C529 C 0.21643 0.46996 0.22352 0.0
C530 C 0.21413 0.51918 0.21836 0.0
H531 H 0.21554 0.4132 0.25754 0.0
H532 H 0.21478 0.44553 0.20358 0.0
S533 S 0.21663 0.61322 0.28039 0.0
N534 N 0.21727 0.56294 0.30071 0.0
N535 N 0.21584 0.59784 0.24237 0.0
C536 C 0.21631 0.54968 0.24492 0.0
C537 C 0.21735 0.53082 0.2765 0.0
C538 C 0.21576 0.46726 0.77538 0.0
C539 C 0.21557 0.51654 0.78052 0.0
C540 C 0.21486 0.44872 0.74435 0.0
C541 C 0.21452 0.47882 0.71748 0.0
H542 H 0.21336 0.44295 0.79535 0.0
H543 H 0.21215 0.41058 0.74144 0.0
S544 S 0.22129 0.61034 0.71845 0.0
N545 N 0.22031 0.59501 0.75648 0.0
N546 N 0.21946 0.5601 0.69814 0.0
C547 C 0.2184 0.528 0.72236 0.0
C548 C 0.21864 0.54689 0.75393 0.0
C549 C 0.78684 0.54298 0.74314 0.0
C550 C 0.78941 0.51319 0.71622 0.0
C551 C 0.78763 0.5242 0.77409 0.0
C552 C 0.79194 0.4751 0.77902 0.0
H553 H 0.7866 0.58126 0.74029 0.0
H554 H 0.78823 0.54851 0.79414 0.0
S555 S 0.79385 0.38161 0.71662 0.0
N556 N 0.79125 0.43201 0.69651 0.0
N557 N 0.79364 0.39664 0.75471 0.0
C558 C 0.79113 0.44474 0.75236 0.0
C559 C 0.78956 0.46383 0.72087 0.0
loop_
_geom_bond_atom_site_label_1
_geom_bond_atom_site_label_2
_geom_bond_distance
_geom_bond_site_symmetry_2
_ccdc_geom_bond_type
In0 O1 2.294 . S
In0 O2 2.326 . S
In0 O6 2.266 . S
In0 O7 2.326 . S
In0 O8 2.266 . S
In0 O9 2.326 . S
In0 O11 2.294 . S
In0 O12 2.326 . S
O1 In0 2.294 . S
O1 C10 1.240 . S
O2 In0 2.326 . S
O2 C10 1.252 . S
C3 O6 1.252 . S
C3 O7 1.260 . S
C4 O11 1.240 . S
C4 O12 1.252 . S
C5 O8 1.252 . S
C5 O9 1.260 . S
O6 In0 2.266 . S
O6 C3 1.252 . S
O7 In0 2.326 . S
O7 C3 1.260 . S
O8 In0 2.266 . S
O8 C5 1.252 . S
O9 In0 2.326 . S
O9 C5 1.260 . S
C10 O1 1.240 . S
C10 O2 1.252 . S
O11 In0 2.294 . S
O11 C4 1.240 . S
O12 In0 2.326 . S
O12 C4 1.252 . S
In13 O14 2.294 . S
In13 O15 2.326 . S
In13 O19 2.266 . S
In13 O20 2.326 . S
In13 O21 2.266 . S
In13 O22 2.326 . S
In13 O24 2.294 . S
In13 O25 2.326 . S
O14 In13 2.294 . S
O14 C23 1.240 . S
O15 In13 2.326 . S
O15 C23 1.252 . S
C16 O19 1.252 . S
C16 O20 1.260 . S
C17 O24 1.240 . S
C17 O25 1.252 . S
C18 O21 1.252 . S
C18 O22 1.260 . S
O19 In13 2.266 . S
O19 C16 1.252 . S
O20 In13 2.326 . S
O20 C16 1.260 . S
O21 In13 2.266 . S
O21 C18 1.252 . S
O22 In13 2.326 . S
O22 C18 1.260 . S
C23 O14 1.240 . S
C23 O15 1.252 . S
O24 In13 2.294 . S
O24 C17 1.240 . S
O25 In13 2.326 . S
O25 C17 1.252 . S
In26 O27 2.294 . S
In26 O28 2.326 . S
In26 O32 2.266 . S
In26 O33 2.326 . S
In26 O34 2.266 . S
In26 O35 2.326 . S
In26 O37 2.294 . S
In26 O38 2.326 . S
O27 In26 2.294 . S
O27 C36 1.240 . S
O28 In26 2.326 . S
O28 C36 1.252 . S
C29 O32 1.252 . S
C29 O33 1.260 . S
C30 O37 1.240 . S
C30 O38 1.252 . S
C31 O34 1.252 . S
C31 O35 1.260 . S
O32 In26 2.266 . S
O32 C29 1.252 . S
O33 In26 2.326 . S
O33 C29 1.260 . S
O34 In26 2.266 . S
O34 C31 1.252 . S
O35 In26 2.326 . S
O35 C31 1.260 . S
C36 O27 1.240 . S
C36 O28 1.252 . S
O37 In26 2.294 . S
O37 C30 1.240 . S
O38 In26 2.326 . S
O38 C30 1.252 . S
In39 O40 2.294 . S
In39 O41 2.326 . S
In39 O45 2.266 . S
In39 O46 2.326 . S
In39 O47 2.266 . S
In39 O48 2.326 . S
In39 O50 2.294 . S
In39 O51 2.326 . S
O40 In39 2.294 . S
O40 C49 1.240 . S
O41 In39 2.326 . S
O41 C49 1.252 . S
C42 O45 1.252 . S
C42 O46 1.260 . S
C43 O50 1.240 . S
C43 O51 1.252 . S
C44 O47 1.252 . S
C44 O48 1.260 . S
O45 In39 2.266 . S
O45 C42 1.252 . S
O46 In39 2.326 . S
O46 C42 1.260 . S
O47 In39 2.266 . S
O47 C44 1.252 . S
O48 In39 2.326 . S
O48 C44 1.260 . S
C49 O40 1.240 . S
C49 O41 1.252 . S
O50 In39 2.294 . S
O50 C43 1.240 . S
O51 In39 2.326 . S
O51 C43 1.252 . S
In52 O53 2.294 . S
In52 O54 2.326 . S
In52 O58 2.266 . S
In52 O59 2.326 . S
In52 O60 2.266 . S
In52 O61 2.326 . S
In52 O63 2.294 . S
In52 O64 2.326 . S
O53 In52 2.294 . S
O53 C62 1.240 . S
O54 In52 2.326 . S
O54 C62 1.252 . S
C55 O58 1.252 . S
C55 O59 1.260 . S
C56 O63 1.240 . S
C56 O64 1.252 . S
C57 O60 1.252 . S
C57 O61 1.260 . S
O58 In52 2.266 . S
O58 C55 1.252 . S
O59 In52 2.326 . S
O59 C55 1.260 . S
O60 In52 2.266 . S
O60 C57 1.252 . S
O61 In52 2.326 . S
O61 C57 1.260 . S
C62 O53 1.240 . S
C62 O54 1.252 . S
O63 In52 2.294 . S
O63 C56 1.240 . S
O64 In52 2.326 . S
O64 C56 1.252 . S
In65 O66 2.294 . S
In65 O67 2.326 . S
In65 O71 2.266 . S
In65 O72 2.326 . S
In65 O73 2.266 . S
In65 O74 2.326 . S
In65 O76 2.294 . S
In65 O77 2.326 . S
O66 In65 2.294 . S
O66 C75 1.240 . S
O67 In65 2.326 . S
O67 C75 1.252 . S
C68 O71 1.252 . S
C68 O72 1.260 . S
C69 O76 1.240 . S
C69 O77 1.252 . S
C70 O73 1.252 . S
C70 O74 1.260 . S
O71 In65 2.266 . S
O71 C68 1.252 . S
O72 In65 2.326 . S
O72 C68 1.260 . S
O73 In65 2.266 . S
O73 C70 1.252 . S
O74 In65 2.326 . S
O74 C70 1.260 . S
C75 O66 1.240 . S
C75 O67 1.252 . S
O76 In65 2.294 . S
O76 C69 1.240 . S
O77 In65 2.326 . S
O77 C69 1.252 . S
In78 O79 2.294 . S
In78 O80 2.326 . S
In78 O84 2.266 . S
In78 O85 2.326 . S
In78 O86 2.266 . S
In78 O87 2.326 . S
In78 O89 2.294 . S
In78 O90 2.326 . S
O79 In78 2.294 . S
O79 C88 1.240 . S
O80 In78 2.326 . S
O80 C88 1.252 . S
C81 O84 1.252 . S
C81 O85 1.260 . S
C82 O89 1.240 . S
C82 O90 1.252 . S
C83 O86 1.252 . S
C83 O87 1.260 . S
O84 In78 2.266 . S
O84 C81 1.252 . S
O85 In78 2.326 . S
O85 C81 1.260 . S
O86 In78 2.266 . S
O86 C83 1.252 . S
O87 In78 2.326 . S
O87 C83 1.260 . S
C88 O79 1.240 . S
C88 O80 1.252 . S
O89 In78 2.294 . S
O89 C82 1.240 . S
O90 In78 2.326 . S
O90 C82 1.252 . S
In91 O92 2.294 . S
In91 O93 2.326 . S
In91 O97 2.266 . S
In91 O98 2.326 . S
In91 O99 2.266 . S
In91 O100 2.326 . S
In91 O102 2.294 . S
In91 O103 2.326 . S
O92 In91 2.294 . S
O92 C101 1.240 . S
O93 In91 2.326 . S
O93 C101 1.252 . S
C94 O97 1.252 . S
C94 O98 1.260 . S
C95 O102 1.240 . S
C95 O103 1.252 . S
C96 O99 1.252 . S
C96 O100 1.260 . S
O97 In91 2.266 . S
O97 C94 1.252 . S
O98 In91 2.326 . S
O98 C94 1.260 . S
O99 In91 2.266 . S
O99 C96 1.252 . S
O100 In91 2.326 . S
O100 C96 1.260 . S
C101 O92 1.240 . S
C101 O93 1.252 . S
O102 In91 2.294 . S
O102 C95 1.240 . S
O103 In91 2.326 . S
O103 C95 1.252 . S
In104 O105 2.294 . S
In104 O106 2.326 . S
In104 O110 2.266 . S
In104 O111 2.326 . S
In104 O112 2.266 . S
In104 O113 2.326 . S
In104 O115 2.294 . S
In104 O116 2.326 . S
O105 In104 2.294 . S
O105 C114 1.240 . S
O106 In104 2.326 . S
O106 C114 1.252 . S
C107 O110 1.252 . S
C107 O111 1.260 . S
C108 O115 1.240 . S
C108 O116 1.252 . S
C109 O112 1.252 . S
C109 O113 1.260 . S
O110 In104 2.266 . S
O110 C107 1.252 . S
O111 In104 2.326 . S
O111 C107 1.260 . S
O112 In104 2.266 . S
O112 C109 1.252 . S
O113 In104 2.326 . S
O113 C109 1.260 . S
C114 O105 1.240 . S
C114 O106 1.252 . S
O115 In104 2.294 . S
O115 C108 1.240 . S
O116 In104 2.326 . S
O116 C108 1.252 . S
In117 O118 2.294 . S
In117 O119 2.326 . S
In117 O123 2.266 . S
In117 O124 2.326 . S
In117 O125 2.266 . S
In117 O126 2.326 . S
In117 O128 2.294 . S
In117 O129 2.326 . S
O118 In117 2.294 . S
O118 C127 1.240 . S
O119 In117 2.326 . S
O119 C127 1.252 . S
C120 O123 1.252 . S
C120 O124 1.260 . S
C121 O128 1.240 . S
C121 O129 1.252 . S
C122 O125 1.252 . S
C122 O126 1.260 . S
O123 In117 2.266 . S
O123 C120 1.252 . S
O124 In117 2.326 . S
O124 C120 1.260 . S
O125 In117 2.266 . S
O125 C122 1.252 . S
O126 In117 2.326 . S
O126 C122 1.260 . S
C127 O118 1.240 . S
C127 O119 1.252 . S
O128 In117 2.294 . S
O128 C121 1.240 . S
O129 In117 2.326 . S
O129 C121 1.252 . S
In130 O131 2.294 . S
In130 O132 2.326 . S
In130 O136 2.266 . S
In130 O137 2.326 . S
In130 O138 2.266 . S
In130 O139 2.326 . S
In130 O141 2.294 . S
In130 O142 2.326 . S
O131 In130 2.294 . S
O131 C140 1.240 . S
O132 In130 2.326 . S
O132 C140 1.252 . S
C133 O136 1.252 . S
C133 O137 1.260 . S
C134 O141 1.240 . S
C134 O142 1.252 . S
C135 O138 1.252 . S
C135 O139 1.260 . S
O136 In130 2.266 . S
O136 C133 1.252 . S
O137 In130 2.326 . S
O137 C133 1.260 . S
O138 In130 2.266 . S
O138 C135 1.252 . S
O139 In130 2.326 . S
O139 C135 1.260 . S
C140 O131 1.240 . S
C140 O132 1.252 . S
O141 In130 2.294 . S
O141 C134 1.240 . S
O142 In130 2.326 . S
O142 C134 1.252 . S
In143 O144 2.294 . S
In143 O145 2.326 . S
In143 O149 2.266 . S
In143 O150 2.326 . S
In143 O151 2.266 . S
In143 O152 2.326 . S
In143 O154 2.294 . S
In143 O155 2.326 . S
O144 In143 2.294 . S
O144 C153 1.240 . S
O145 In143 2.326 . S
O145 C153 1.252 . S
C146 O149 1.252 . S
C146 O150 1.260 . S
C147 O154 1.240 . S
C147 O155 1.252 . S
C148 O151 1.252 . S
C148 O152 1.260 . S
O149 In143 2.266 . S
O149 C146 1.252 . S
O150 In143 2.326 . S
O150 C146 1.260 . S
O151 In143 2.266 . S
O151 C148 1.252 . S
O152 In143 2.326 . S
O152 C148 1.260 . S
C153 O144 1.240 . S
C153 O145 1.252 . S
O154 In143 2.294 . S
O154 C147 1.240 . S
O155 In143 2.326 . S
O155 C147 1.252 . S
In156 O157 2.294 . S
In156 O158 2.326 . S
In156 O162 2.266 . S
In156 O163 2.326 . S
In156 O164 2.266 . S
In156 O165 2.326 . S
In156 O167 2.294 . S
In156 O168 2.326 . S
O157 In156 2.294 . S
O157 C166 1.240 . S
O158 In156 2.326 . S
O158 C166 1.252 . S
C159 O162 1.252 . S
C159 O163 1.260 . S
C160 O167 1.240 . S
C160 O168 1.252 . S
C161 O164 1.252 . S
C161 O165 1.260 . S
O162 In156 2.266 . S
O162 C159 1.252 . S
O163 In156 2.326 . S
O163 C159 1.260 . S
O164 In156 2.266 . S
O164 C161 1.252 . S
O165 In156 2.326 . S
O165 C161 1.260 . S
C166 O157 1.240 . S
C166 O158 1.252 . S
O167 In156 2.294 . S
O167 C160 1.240 . S
O168 In156 2.326 . S
O168 C160 1.252 . S
In169 O170 2.294 . S
In169 O171 2.326 . S
In169 O175 2.266 . S
In169 O176 2.326 . S
In169 O177 2.266 . S
In169 O178 2.326 . S
In169 O180 2.294 . S
In169 O181 2.326 . S
O170 In169 2.294 . S
O170 C179 1.240 . S
O171 In169 2.326 . S
O171 C179 1.252 . S
C172 O175 1.252 . S
C172 O176 1.260 . S
C173 O180 1.240 . S
C173 O181 1.252 . S
C174 O177 1.252 . S
C174 O178 1.260 . S
O175 In169 2.266 . S
O175 C172 1.252 . S
O176 In169 2.326 . S
O176 C172 1.260 . S
O177 In169 2.266 . S
O177 C174 1.252 . S
O178 In169 2.326 . S
O178 C174 1.260 . S
C179 O170 1.240 . S
C179 O171 1.252 . S
O180 In169 2.294 . S
O180 C173 1.240 . S
O181 In169 2.326 . S
O181 C173 1.252 . S
In182 O183 2.294 . S
In182 O184 2.326 . S
In182 O188 2.266 . S
In182 O189 2.326 . S
In182 O190 2.266 . S
In182 O191 2.326 . S
In182 O193 2.294 . S
In182 O194 2.326 . S
O183 In182 2.294 . S
O183 C192 1.240 . S
O184 In182 2.326 . S
O184 C192 1.252 . S
C185 O188 1.252 . S
C185 O189 1.260 . S
C186 O193 1.240 . S
C186 O194 1.252 . S
C187 O190 1.252 . S
C187 O191 1.260 . S
O188 In182 2.266 . S
O188 C185 1.252 . S
O189 In182 2.326 . S
O189 C185 1.260 . S
O190 In182 2.266 . S
O190 C187 1.252 . S
O191 In182 2.326 . S
O191 C187 1.260 . S
C192 O183 1.240 . S
C192 O184 1.252 . S
O193 In182 2.294 . S
O193 C186 1.240 . S
O194 In182 2.326 . S
O194 C186 1.252 . S
In195 O196 2.294 . S
In195 O197 2.326 . S
In195 O201 2.266 . S
In195 O202 2.326 . S
In195 O203 2.266 . S
In195 O204 2.326 . S
In195 O206 2.294 . S
In195 O207 2.326 . S
O196 In195 2.294 . S
O196 C205 1.240 . S
O197 In195 2.326 . S
O197 C205 1.252 . S
C198 O201 1.252 . S
C198 O202 1.260 . S
C199 O206 1.240 . S
C199 O207 1.252 . S
C200 O203 1.252 . S
C200 O204 1.260 . S
O201 In195 2.266 . S
O201 C198 1.252 . S
O202 In195 2.326 . S
O202 C198 1.260 . S
O203 In195 2.266 . S
O203 C200 1.252 . S
O204 In195 2.326 . S
O204 C200 1.260 . S
C205 O196 1.240 . S
C205 O197 1.252 . S
O206 In195 2.294 . S
O206 C199 1.240 . S
O207 In195 2.326 . S
O207 C199 1.252 . S
C208 C209 1.369 . S
C208 C210 1.419 . S
C208 H212 0.930 . S
C209 C208 1.369 . S
C209 C218 1.429 . S
C210 C208 1.419 . S
C210 C211 1.363 . S
C210 H213 0.929 . S
C211 C210 1.363 . S
C211 C217 1.428 . S
H212 C208 0.930 . S
H213 C210 0.929 . S
S214 N215 1.613 . S
S214 N216 1.610 . S
N215 S214 1.613 . S
N215 C218 1.350 . S
N216 S214 1.610 . S
N216 C217 1.351 . S
C217 C211 1.428 . S
C217 N216 1.351 . S
C217 C218 1.434 . S
C218 C209 1.429 . S
C218 N215 1.350 . S
C218 C217 1.434 . S
C219 C220 1.369 . S
C219 C221 1.419 . S
C219 H223 0.930 . S
C220 C219 1.369 . S
C220 C229 1.429 . S
C221 C219 1.419 . S
C221 C222 1.363 . S
C221 H224 0.929 . S
C222 C221 1.363 . S
C222 C228 1.428 . S
H223 C219 0.930 . S
H224 C221 0.929 . S
S225 N226 1.613 . S
S225 N227 1.610 . S
N226 S225 1.613 . S
N226 C229 1.350 . S
N227 S225 1.610 . S
N227 C228 1.351 . S
C228 C222 1.428 . S
C228 N227 1.351 . S
C228 C229 1.434 . S
C229 C220 1.429 . S
C229 N226 1.350 . S
C229 C228 1.434 . S
C230 C231 1.369 . S
C230 C232 1.419 1_554 S
C230 H234 0.930 . S
C231 C230 1.369 . S
C231 C240 1.429 . S
C232 C230 1.419 1_556 S
C232 C233 1.363 . S
C232 H235 0.929 . S
C233 C232 1.363 . S
C233 C239 1.428 . S
H234 C230 0.930 . S
H235 C232 0.929 . S
S236 N237 1.616 1_556 S
S236 N238 1.608 . S
N237 S236 1.616 1_554 S
N237 C240 1.350 . S
N238 S236 1.608 . S
N238 C239 1.351 . S
C239 C233 1.428 . S
C239 N238 1.351 . S
C239 C240 1.434 1_556 S
C240 C231 1.429 . S
C240 N237 1.350 . S
C240 C239 1.434 1_554 S
C241 C242 1.369 . S
C241 C243 1.419 1_556 S
C241 H245 0.931 1_545 S
C242 C241 1.369 . S
C242 C251 1.429 . S
C243 C241 1.419 1_554 S
C243 C244 1.363 . S
C243 H246 0.942 . S
C244 C243 1.363 . S
C244 C250 1.428 . S
H245 C241 0.931 1_565 S
H246 C243 0.942 . S
S247 N248 1.616 1_554 S
S247 N249 1.608 . S
N248 S247 1.616 1_556 S
N248 C251 1.350 . S
N249 S247 1.608 . S
N249 C250 1.351 . S
C250 C244 1.428 . S
C250 N249 1.351 . S
C250 C251 1.434 1_554 S
C251 C242 1.429 . S
C251 N248 1.350 . S
C251 C250 1.434 1_556 S
C252 C253 1.369 . S
C252 C254 1.419 . S
C252 H256 0.930 . S
C253 C252 1.369 . S
C253 C262 1.429 . S
C254 C252 1.419 . S
C254 C255 1.363 . S
C254 H257 0.929 . S
C255 C254 1.363 . S
C255 C261 1.428 . S
H256 C252 0.930 . S
H257 C254 0.929 . S
S258 N259 1.613 . S
S258 N260 1.610 . S
N259 S258 1.613 . S
N259 C262 1.350 . S
N260 S258 1.610 . S
N260 C261 1.351 . S
C261 C255 1.428 . S
C261 N260 1.351 . S
C261 C262 1.434 . S
C262 C253 1.429 . S
C262 N259 1.350 . S
C262 C261 1.434 . S
C263 C264 1.369 . S
C263 C265 1.419 . S
C263 H267 0.930 . S
C264 C263 1.369 . S
C264 C273 1.429 . S
C265 C263 1.419 . S
C265 C266 1.363 . S
C265 H268 0.929 . S
C266 C265 1.363 . S
C266 C272 1.428 . S
H267 C263 0.930 . S
H268 C265 0.929 . S
S269 N270 1.613 . S
S269 N271 1.610 . S
N270 S269 1.613 . S
N270 C273 1.350 . S
N271 S269 1.610 . S
N271 C272 1.351 . S
C272 C266 1.428 . S
C272 N271 1.351 . S
C272 C273 1.434 . S
C273 C264 1.429 . S
C273 N270 1.350 . S
C273 C272 1.434 . S
C274 C275 1.369 . S
C274 C276 1.419 1_556 S
C274 H278 0.930 . S
C275 C274 1.369 . S
C275 C284 1.429 . S
C276 C274 1.419 1_554 S
C276 C277 1.363 . S
C276 H279 0.929 . S
C277 C276 1.363 . S
C277 C283 1.428 . S
H278 C274 0.930 . S
H279 C276 0.929 . S
S280 N281 1.616 1_554 S
S280 N282 1.608 . S
N281 S280 1.616 1_556 S
N281 C284 1.350 . S
N282 S280 1.608 . S
N282 C283 1.351 . S
C283 C277 1.428 . S
C283 N282 1.351 . S
C283 C284 1.434 1_554 S
C284 C275 1.429 . S
C284 N281 1.350 . S
C284 C283 1.434 1_556 S
C285 C286 1.369 . S
C285 C287 1.419 1_554 S
C285 H289 0.930 . S
C286 C285 1.369 . S
C286 C295 1.429 . S
C287 C285 1.419 1_556 S
C287 C288 1.363 . S
C287 H290 0.929 . S
C288 C287 1.363 . S
C288 C294 1.428 . S
H289 C285 0.930 . S
H290 C287 0.929 . S
S291 N292 1.616 1_556 S
S291 N293 1.608 . S
N292 S291 1.616 1_554 S
N292 C295 1.350 . S
N293 S291 1.608 . S
N293 C294 1.351 . S
C294 C288 1.428 . S
C294 N293 1.351 . S
C294 C295 1.434 1_556 S
C295 C286 1.429 . S
C295 N292 1.350 . S
C295 C294 1.434 1_554 S
C296 C297 1.369 1_545 S
C296 C298 1.419 . S
C296 H300 0.930 . S
C297 C296 1.369 1_565 S
C297 C306 1.429 . S
C298 C296 1.419 . S
C298 C299 1.363 . S
C298 H301 0.929 . S
C299 C298 1.363 . S
C299 C305 1.428 1_545 S
H300 C296 0.930 . S
H301 C298 0.929 . S
S302 N303 1.613 . S
S302 N304 1.610 . S
N303 S302 1.613 . S
N303 C306 1.350 . S
N304 S302 1.610 . S
N304 C305 1.351 . S
C305 C299 1.428 1_565 S
C305 N304 1.351 . S
C305 C306 1.434 . S
C306 C297 1.429 . S
C306 N303 1.350 . S
C306 C305 1.434 . S
C307 C308 1.369 1_545 S
C307 C309 1.419 . S
C307 H311 0.930 . S
C308 C307 1.369 1_565 S
C308 C317 1.429 . S
C309 C307 1.419 . S
C309 C310 1.363 . S
C309 H312 0.929 . S
C310 C309 1.363 . S
C310 C316 1.428 1_545 S
H311 C307 0.930 . S
H312 C309 0.929 . S
S313 N314 1.613 . S
S313 N315 1.610 . S
N314 S313 1.613 . S
N314 C317 1.350 . S
N315 S313 1.610 . S
N315 C316 1.351 . S
C316 C310 1.428 1_565 S
C316 N315 1.351 . S
C316 C317 1.434 . S
C317 C308 1.429 . S
C317 N314 1.350 . S
C317 C316 1.434 . S
C318 C319 1.369 . S
C318 C320 1.419 . S
C318 H322 0.930 . S
C319 C318 1.369 . S
C319 C328 1.429 1_565 S
C320 C318 1.419 . S
C320 C321 1.363 1_565 S
C320 H323 0.929 . S
C321 C320 1.363 1_545 S
C321 C327 1.428 . S
H322 C318 0.930 . S
H323 C320 0.929 . S
S324 N325 1.613 . S
S324 N326 1.610 . S
N325 S324 1.613 . S
N325 C328 1.350 . S
N326 S324 1.610 . S
N326 C327 1.351 . S
C327 C321 1.428 . S
C327 N326 1.351 . S
C327 C328 1.434 . S
C328 C319 1.429 1_545 S
C328 N325 1.350 . S
C328 C327 1.434 . S
C329 C330 1.369 . S
C329 C331 1.419 . S
C329 H333 0.930 . S
C330 C329 1.369 . S
C330 C339 1.429 1_545 S
C331 C329 1.419 . S
C331 C332 1.363 1_545 S
C331 H334 0.929 . S
C332 C331 1.363 1_565 S
C332 C338 1.428 . S
H333 C329 0.930 . S
H334 C331 0.929 . S
S335 N336 1.613 . S
S335 N337 1.610 . S
N336 S335 1.613 . S
N336 C339 1.350 . S
N337 S335 1.610 . S
N337 C338 1.351 . S
C338 C332 1.428 . S
C338 N337 1.351 . S
C338 C339 1.434 . S
C339 C330 1.429 1_565 S
C339 N336 1.350 . S
C339 C338 1.434 . S
C340 C341 1.369 . S
C340 C342 1.419 1_655 S
C340 H344 0.930 . S
C341 C340 1.369 . S
C341 C350 1.429 . S
C342 C340 1.419 1_455 S
C342 C343 1.363 . S
C342 H345 0.929 . S
C343 C342 1.363 . S
C343 C349 1.428 . S
H344 C340 0.930 . S
H345 C342 0.929 . S
S346 N347 1.613 1_455 S
S346 N348 1.610 . S
N347 S346 1.613 1_655 S
N347 C350 1.350 . S
N348 S346 1.610 . S
N348 C349 1.351 . S
C349 C343 1.428 . S
C349 N348 1.351 . S
C349 C350 1.434 1_455 S
C350 C341 1.429 . S
C350 N347 1.350 . S
C350 C349 1.434 1_655 S
C351 C352 1.369 . S
C351 C353 1.419 1_455 S
C351 H355 0.930 . S
C352 C351 1.369 . S
C352 C361 1.429 . S
C353 C351 1.419 1_655 S
C353 C354 1.363 . S
C353 H356 0.929 . S
C354 C353 1.363 . S
C354 C360 1.428 . S
H355 C351 0.930 . S
H356 C353 0.929 . S
S357 N358 1.613 1_655 S
S357 N359 1.610 . S
N358 S357 1.613 1_455 S
N358 C361 1.350 . S
N359 S357 1.610 . S
N359 C360 1.351 . S
C360 C354 1.428 . S
C360 N359 1.351 . S
C360 C361 1.434 1_655 S
C361 C352 1.429 . S
C361 N358 1.350 . S
C361 C360 1.434 1_455 S
C362 C363 1.369 . S
C362 C364 1.419 1_655 S
C362 H366 0.930 . S
C363 C362 1.369 . S
C363 C372 1.429 . S
C364 C362 1.419 1_455 S
C364 C365 1.363 . S
C364 H367 0.929 . S
C365 C364 1.363 . S
C365 C371 1.428 . S
H366 C362 0.930 . S
H367 C364 0.929 . S
S368 N369 1.613 . S
S368 N370 1.610 1_655 S
N369 S368 1.613 . S
N369 C372 1.350 . S
N370 S368 1.610 1_455 S
N370 C371 1.351 . S
C371 C365 1.428 . S
C371 N370 1.351 . S
C371 C372 1.434 1_455 S
C372 C363 1.429 . S
C372 N369 1.350 . S
C372 C371 1.434 1_655 S
C373 C374 1.369 . S
C373 C375 1.419 1_455 S
C373 H377 0.930 . S
C374 C373 1.369 . S
C374 C383 1.429 . S
C375 C373 1.419 1_655 S
C375 C376 1.363 . S
C375 H378 0.929 . S
C376 C375 1.363 . S
C376 C382 1.428 . S
H377 C373 0.930 . S
H378 C375 0.929 . S
S379 N380 1.613 1_655 S
S379 N381 1.610 . S
N380 S379 1.613 1_455 S
N380 C383 1.350 . S
N381 S379 1.610 . S
N381 C382 1.351 . S
C382 C376 1.428 . S
C382 N381 1.351 . S
C382 C383 1.434 1_655 S
C383 C374 1.429 . S
C383 N380 1.350 . S
C383 C382 1.434 1_455 S
C384 C385 1.369 . S
C384 C386 1.419 . S
C384 H388 0.930 . S
C385 C384 1.369 . S
C385 C394 1.429 . S
C386 C384 1.419 . S
C386 C387 1.363 . S
C386 H389 0.929 . S
C387 C386 1.363 . S
C387 C393 1.428 . S
H388 C384 0.930 . S
H389 C386 0.929 . S
S390 N391 1.613 . S
S390 N392 1.610 . S
N391 S390 1.613 . S
N391 C394 1.350 . S
N392 S390 1.610 . S
N392 C393 1.351 . S
C393 C387 1.428 . S
C393 N392 1.351 . S
C393 C394 1.434 . S
C394 C385 1.429 . S
C394 N391 1.350 . S
C394 C393 1.434 . S
C395 C396 1.369 . S
C395 C397 1.419 . S
C395 H399 0.930 . S
C396 C395 1.369 . S
C396 C405 1.429 . S
C397 C395 1.419 . S
C397 C398 1.363 . S
C397 H400 0.929 . S
C398 C397 1.363 . S
C398 C404 1.428 . S
H399 C395 0.930 . S
H400 C397 0.929 . S
S401 N402 1.613 . S
S401 N403 1.610 . S
N402 S401 1.613 . S
N402 C405 1.350 . S
N403 S401 1.610 . S
N403 C404 1.351 . S
C404 C398 1.428 . S
C404 N403 1.351 . S
C404 C405 1.434 . S
C405 C396 1.429 . S
C405 N402 1.350 . S
C405 C404 1.434 . S
C406 C407 1.369 . S
C406 C408 1.419 . S
C406 H410 0.930 . S
C407 C406 1.369 . S
C407 C416 1.429 . S
C408 C406 1.419 . S
C408 C409 1.363 . S
C408 H411 0.929 . S
C409 C408 1.363 . S
C409 C415 1.428 . S
H410 C406 0.930 . S
H411 C408 0.929 . S
S412 N413 1.613 . S
S412 N414 1.610 . S
N413 S412 1.613 . S
N413 C416 1.350 . S
N414 S412 1.610 . S
N414 C415 1.351 . S
C415 C409 1.428 . S
C415 N414 1.351 . S
C415 C416 1.434 . S
C416 C407 1.429 . S
C416 N413 1.350 . S
C416 C415 1.434 . S
C417 C418 1.369 . S
C417 C419 1.419 . S
C417 H421 0.930 . S
C418 C417 1.369 . S
C418 C427 1.429 . S
C419 C417 1.419 . S
C419 C420 1.363 . S
C419 H422 0.929 . S
C420 C419 1.363 . S
C420 C426 1.428 . S
H421 C417 0.930 . S
H422 C419 0.929 . S
S423 N424 1.613 . S
S423 N425 1.610 . S
N424 S423 1.613 . S
N424 C427 1.350 . S
N425 S423 1.610 . S
N425 C426 1.351 . S
C426 C420 1.428 . S
C426 N425 1.351 . S
C426 C427 1.434 . S
C427 C418 1.429 . S
C427 N424 1.350 . S
C427 C426 1.434 . S
C428 C429 1.369 . S
C428 C430 1.419 . S
C428 H432 0.930 . S
C429 C428 1.369 . S
C429 C438 1.429 . S
C430 C428 1.419 . S
C430 C431 1.363 . S
C430 H433 0.929 . S
C431 C430 1.363 . S
C431 C437 1.428 . S
H432 C428 0.930 . S
H433 C430 0.929 . S
S434 N435 1.613 . S
S434 N436 1.610 . S
N435 S434 1.613 . S
N435 C438 1.350 . S
N436 S434 1.610 . S
N436 C437 1.351 . S
C437 C431 1.428 . S
C437 N436 1.351 . S
C437 C438 1.434 . S
C438 C429 1.429 . S
C438 N435 1.350 . S
C438 C437 1.434 . S
C439 C440 1.369 . S
C439 C441 1.419 . S
C439 H443 0.930 . S
C440 C439 1.369 . S
C440 C449 1.429 . S
C441 C439 1.419 . S
C441 C442 1.363 . S
C441 H444 0.929 . S
C442 C441 1.363 . S
C442 C448 1.428 . S
H443 C439 0.930 . S
H444 C441 0.929 . S
S445 N446 1.613 . S
S445 N447 1.610 . S
N446 S445 1.613 . S
N446 C449 1.350 . S
N447 S445 1.610 . S
N447 C448 1.351 . S
C448 C442 1.428 . S
C448 N447 1.351 . S
C448 C449 1.434 . S
C449 C440 1.429 . S
C449 N446 1.350 . S
C449 C448 1.434 . S
C450 C451 1.369 . S
C450 C452 1.419 . S
C450 H454 0.930 . S
C451 C450 1.369 . S
C451 C460 1.429 . S
C452 C450 1.419 . S
C452 C453 1.363 . S
C452 H455 0.929 . S
C453 C452 1.363 . S
C453 C459 1.428 . S
H454 C450 0.930 . S
H455 C452 0.929 . S
S456 N457 1.613 . S
S456 N458 1.610 . S
N457 S456 1.613 . S
N457 C460 1.350 . S
N458 S456 1.610 . S
N458 C459 1.351 . S
C459 C453 1.428 . S
C459 N458 1.351 . S
C459 C460 1.434 . S
C460 C451 1.429 . S
C460 N457 1.350 . S
C460 C459 1.434 . S
C461 C462 1.369 . S
C461 C463 1.419 . S
C461 H465 0.930 . S
C462 C461 1.369 . S
C462 C471 1.429 . S
C463 C461 1.419 . S
C463 C464 1.363 . S
C463 H466 0.929 . S
C464 C463 1.363 . S
C464 C470 1.428 . S
H465 C461 0.930 . S
H466 C463 0.929 . S
S467 N468 1.613 . S
S467 N469 1.610 . S
N468 S467 1.613 . S
N468 C471 1.350 . S
N469 S467 1.610 . S
N469 C470 1.351 . S
C470 C464 1.428 . S
C470 N469 1.351 . S
C470 C471 1.434 . S
C471 C462 1.429 . S
C471 N468 1.350 . S
C471 C470 1.434 . S
C472 C473 1.369 1_565 S
C472 C474 1.419 . S
C472 H476 0.930 . S
C473 C472 1.369 1_545 S
C473 C482 1.429 . S
C474 C472 1.419 . S
C474 C475 1.363 . S
C474 H477 0.929 . S
C475 C474 1.363 . S
C475 C481 1.428 1_565 S
H476 C472 0.930 . S
H477 C474 0.929 . S
S478 N479 1.613 . S
S478 N480 1.610 . S
N479 S478 1.613 . S
N479 C482 1.350 . S
N480 S478 1.610 . S
N480 C481 1.351 . S
C481 C475 1.428 1_545 S
C481 N480 1.351 . S
C481 C482 1.434 . S
C482 C473 1.429 . S
C482 N479 1.350 . S
C482 C481 1.434 . S
C483 C484 1.369 . S
C483 C485 1.419 . S
C483 H487 0.930 . S
C484 C483 1.369 . S
C484 C493 1.429 1_545 S
C485 C483 1.419 . S
C485 C486 1.363 1_545 S
C485 H488 0.929 . S
C486 C485 1.363 1_565 S
C486 C492 1.428 . S
H487 C483 0.930 . S
H488 C485 0.929 . S
S489 N490 1.613 . S
S489 N491 1.610 . S
N490 S489 1.613 . S
N490 C493 1.350 . S
N491 S489 1.610 . S
N491 C492 1.351 . S
C492 C486 1.428 . S
C492 N491 1.351 . S
C492 C493 1.434 . S
C493 C484 1.429 1_565 S
C493 N490 1.350 . S
C493 C492 1.434 . S
C494 C495 1.369 1_565 S
C494 C496 1.419 . S
C494 H498 0.930 . S
C495 C494 1.369 1_545 S
C495 C504 1.429 . S
C496 C494 1.419 . S
C496 C497 1.363 . S
C496 H499 0.929 . S
C497 C496 1.363 . S
C497 C503 1.428 1_565 S
H498 C494 0.930 . S
H499 C496 0.929 . S
S500 N501 1.613 . S
S500 N502 1.610 . S
N501 S500 1.613 . S
N501 C504 1.350 . S
N502 S500 1.610 . S
N502 C503 1.351 . S
C503 C497 1.428 1_545 S
C503 N502 1.351 . S
C503 C504 1.434 . S
C504 C495 1.429 . S
C504 N501 1.350 . S
C504 C503 1.434 . S
C505 C506 1.369 . S
C505 C507 1.419 . S
C505 H509 0.930 . S
C506 C505 1.369 . S
C506 C515 1.429 1_565 S
C507 C505 1.419 . S
C507 C508 1.363 1_565 S
C507 H510 0.929 . S
C508 C507 1.363 1_545 S
C508 C514 1.428 . S
H509 C505 0.930 . S
H510 C507 0.929 . S
S511 N512 1.613 . S
S511 N513 1.610 . S
N512 S511 1.613 . S
N512 C515 1.350 . S
N513 S511 1.610 . S
N513 C514 1.351 . S
C514 C508 1.428 . S
C514 N513 1.351 . S
C514 C515 1.434 . S
C515 C506 1.429 1_545 S
C515 N512 1.350 . S
C515 C514 1.434 . S
C516 C517 1.369 . S
C516 C518 1.419 . S
C516 H520 0.930 . S
C517 C516 1.369 . S
C517 C526 1.429 . S
C518 C516 1.419 . S
C518 C519 1.363 . S
C518 H521 0.929 . S
C519 C518 1.363 . S
C519 C525 1.428 . S
H520 C516 0.930 . S
H521 C518 0.929 . S
S522 N523 1.613 . S
S522 N524 1.610 . S
N523 S522 1.613 . S
N523 C526 1.350 . S
N524 S522 1.610 . S
N524 C525 1.351 . S
C525 C519 1.428 . S
C525 N524 1.351 . S
C525 C526 1.434 . S
C526 C517 1.429 . S
C526 N523 1.350 . S
C526 C525 1.434 . S
C527 C528 1.369 . S
C527 C529 1.419 . S
C527 H531 0.930 . S
C528 C527 1.369 . S
C528 C537 1.429 . S
C529 C527 1.419 . S
C529 C530 1.363 . S
C529 H532 0.929 . S
C530 C529 1.363 . S
C530 C536 1.428 . S
H531 C527 0.930 . S
H532 C529 0.929 . S
S533 N534 1.613 . S
S533 N535 1.610 . S
N534 S533 1.613 . S
N534 C537 1.350 . S
N535 S533 1.610 . S
N535 C536 1.351 . S
C536 C530 1.428 . S
C536 N535 1.351 . S
C536 C537 1.434 . S
C537 C528 1.429 . S
C537 N534 1.350 . S
C537 C536 1.434 . S
C538 C539 1.369 . S
C538 C540 1.419 . S
C538 H542 0.930 . S
C539 C538 1.369 . S
C539 C548 1.429 . S
C540 C538 1.419 . S
C540 C541 1.363 . S
C540 H543 0.929 . S
C541 C540 1.363 . S
C541 C547 1.428 . S
H542 C538 0.930 . S
H543 C540 0.929 . S
S544 N545 1.613 . S
S544 N546 1.610 . S
N545 S544 1.613 . S
N545 C548 1.350 . S
N546 S544 1.610 . S
N546 C547 1.351 . S
C547 C541 1.428 . S
C547 N546 1.351 . S
C547 C548 1.434 . S
C548 C539 1.429 . S
C548 N545 1.350 . S
C548 C547 1.434 . S
C549 C550 1.369 . S
C549 C551 1.419 . S
C549 H553 0.930 . S
C550 C549 1.369 . S
C550 C559 1.429 . S
C551 C549 1.419 . S
C551 C552 1.363 . S
C551 H554 0.929 . S
C552 C551 1.363 . S
C552 C558 1.428 . S
H553 C549 0.930 . S
H554 C551 0.929 . S
S555 N556 1.613 . S
S555 N557 1.610 . S
N556 S555 1.613 . S
N556 C559 1.350 . S
N557 S555 1.610 . S
N557 C558 1.351 . S
C558 C552 1.428 . S
C558 N557 1.351 . S
C558 C559 1.434 . S
C559 C550 1.429 . S
C559 N556 1.350 . S
C559 C558 1.434 . S
C209 C4 1.442 . S
C211 C69 1.442 . S
C220 C62 1.445 . S
C222 C23 1.444 . S
C231 C30 1.442 . S
C233 C101 1.442 . S
C242 C82 1.441 . S
C244 C43 1.441 . S
C253 C179 1.441 . S
C255 C114 1.441 . S
C264 C160 1.440 . S
C266 C121 1.441 . S
C275 C205 1.441 . S
C277 C134 1.441 . S
C286 C153 1.440 . S
C288 C186 1.441 . S
C297 C18 1.516 . S
C299 C3 1.514 . S
C308 C29 1.515 . S
C310 C42 1.514 . S
C319 C57 1.513 . S
C321 C68 1.515 . S
C330 C81 1.513 . S
C332 C96 1.515 . S
C341 C109 1.515 . S
C343 C120 1.514 . S
C352 C148 1.514 . S
C354 C133 1.514 . S
C363 C174 1.514 . S
C365 C159 1.515 . S
C374 C185 1.514 . S
C376 C200 1.514 . S
C385 C127 1.503 . S
C387 C10 1.504 . S
C396 C17 1.503 . S
C398 C108 1.504 . S
C407 C147 1.504 . S
C409 C36 1.503 . S
C418 C49 1.503 . S
C420 C140 1.504 . S
C429 C56 1.504 . S
C431 C173 1.504 . S
C440 C166 1.502 . S
C442 C75 1.503 . S
C451 C88 1.503 . S
C453 C199 1.503 . S
C462 C192 1.502 . S
C464 C95 1.503 . S
C473 C5 1.384 . S
C475 C31 1.390 . S
C484 C44 1.390 . S
C486 C16 1.385 . S
C495 C83 1.385 . S
C497 C55 1.391 . S
C506 C94 1.391 . S
C508 C70 1.386 . S
C517 C135 1.390 . S
C519 C107 1.385 . S
C528 C122 1.386 . S
C530 C146 1.385 . S
C539 C187 1.384 . S
C541 C161 1.390 . S
C550 C172 1.387 . S
C552 C198 1.385 . S
