# Generated by pormake.
# Topology oof, (8)-cn, num edge types: 1
# Building blocks:
#     Node 0, Type 0, BuildingBlock: LIZSOE_clean_sbu_0, # of connection points: 8
#     Node 1, Type 0, BuildingBlock: LIZSOE_clean_sbu_0, # of connection points: 8
#     Node 2, Type 0, BuildingBlock: LIZSOE_clean_sbu_0, # of connection points: 8
#     Node 3, Type 0, BuildingBlock: LIZSOE_clean_sbu_0, # of connection points: 8
#     Edge 4, Type (0, 0), BuildingBlock: XUDNAN_clean_linker_2, # of connection points: 2
#     Edge 5, Type (0, 0), BuildingBlock: XUDNAN_clean_linker_2, # of connection points: 2
#     Edge 6, Type (0, 0), BuildingBlock: XUDNAN_clean_linker_2, # of connection points: 2
#     Edge 7, Type (0, 0), BuildingBlock: XUDNAN_clean_linker_2, # of connection points: 2
#     Edge 8, Type (0, 0), BuildingBlock: XUDNAN_clean_linker_2, # of connection points: 2
#     Edge 9, Type (0, 0), BuildingBlock: XUDNAN_clean_linker_2, # of connection points: 2
#     Edge 10, Type (0, 0), BuildingBlock: XUDNAN_clean_linker_2, # of connection points: 2
#     Edge 11, Type (0, 0), BuildingBlock: XUDNAN_clean_linker_2, # of connection points: 2
#     Edge 12, Type (0, 0), BuildingBlock: XUDNAN_clean_linker_2, # of connection points: 2
#     Edge 13, Type (0, 0), BuildingBlock: XUDNAN_clean_linker_2, # of connection points: 2
#     Edge 14, Type (0, 0), BuildingBlock: XUDNAN_clean_linker_2, # of connection points: 2
#     Edge 15, Type (0, 0), BuildingBlock: XUDNAN_clean_linker_2, # of connection points: 2
#     Edge 16, Type (0, 0), BuildingBlock: XUDNAN_clean_linker_2, # of connection points: 2
#     Edge 17, Type (0, 0), BuildingBlock: XUDNAN_clean_linker_2, # of connection points: 2
#     Edge 18, Type (0, 0), BuildingBlock: XUDNAN_clean_linker_2, # of connection points: 2
#     Edge 19, Type (0, 0), BuildingBlock: XUDNAN_clean_linker_2, # of connection points: 2
# Relax obj value: 0.086
# Max RMSD: 0.207
# Mean RMSD: 0.204
data_MOF--net-oof--node1-LIZSOE_clean_sbu_0--edge1-XUDNAN_clean_linker_2
_symmetry_space_group_name_H-M    P1
_symmetry_Int_Tables_number       1
_symmetry_cell_setting            triclinic
loop_
_symmetry_equiv_pos_as_xyz
'x, y, z'
_cell_length_a     15.445419
_cell_length_b     42.277947
_cell_length_c     23.100466
_cell_angle_alpha  88.931783
_cell_angle_beta   115.9976
_cell_angle_gamma 90.133819
loop_
_atom_site_label
_atom_site_type_symbol
_atom_site_fract_x
_atom_site_fract_y
_atom_site_fract_z
_atom_type_partial_charge
Co0 Co 1.00663 0.16862 0.1277 0.0
N1 N 0.04688 0.16485 0.06291 0.0
C2 C 0.01993 0.14053 1.02166 0.0
N3 N 0.10473 0.17199 0.98983 0.0
C4 C 0.09845 0.18392 0.04179 0.0
C5 C 0.05584 0.14468 0.97748 0.0
Co6 Co 0.0356 0.13603 0.41571 0.0
N7 N 0.02202 0.1481 0.4894 0.0
N8 N 0.0364 0.17027 0.58056 0.0
C9 C 0.94776 0.15801 0.55081 0.0
C10 C 0.93941 0.14418 0.49536 0.0
C11 C 0.08102 0.1636 0.54335 0.0
Co12 Co 0.01415 0.15035 0.26972 0.0
C13 C 0.09678 0.11421 0.41304 0.0
H14 H 0.87633 0.1321 0.46135 0.0
O15 O 0.96457 0.17527 0.18488 0.0
O16 O 0.04263 0.19276 0.31202 0.0
O17 O 0.15192 0.1495 0.28339 0.0
O18 O 0.99042 0.10856 0.22252 0.0
O19 O 0.99977 0.12522 0.13303 0.0
O20 O 0.05799 0.17837 0.4073 0.0
O21 O 0.05193 0.12256 0.35076 0.0
O22 O 0.90192 0.14207 0.36364 0.0
O23 O 0.13454 0.16766 0.18806 0.0
O24 O 0.01073 0.21002 0.1298 0.0
O25 O 0.87912 0.15173 0.26134 0.0
O26 O 0.16405 0.13117 0.45584 0.0
C27 C 0.18691 0.15967 0.24597 0.0
C28 C 0.18401 0.17183 0.56087 0.0
H29 H 0.19156 0.18228 0.51915 0.0
H30 H 0.21246 0.18875 0.60092 0.0
H31 H 0.22851 0.14996 0.57642 0.0
C32 C 0.06062 0.19929 0.36926 0.0
C33 C 0.9915 0.10327 0.16818 0.0
H34 H 0.97307 0.12149 1.02151 0.0
H35 H 0.08528 0.23345 0.05379 0.0
H36 H 0.2001 0.22187 0.05794 0.0
H37 H 0.17184 0.21312 0.12438 0.0
C38 C 0.14192 0.2148 0.07133 0.0
C39 C 0.96911 0.2048 0.16721 0.0
C40 C 0.84772 0.148 0.30417 0.0
H41 H 0.04138 0.12991 0.93646 0.0
H42 H 0.89374 0.15849 0.56877 0.0
Co43 Co 0.96962 0.92434 0.62273 0.0
N44 N 0.98356 0.91255 0.55251 0.0
C45 C 0.92873 0.89305 0.50507 0.0
N46 N 0.03717 0.91323 0.47747 0.0
C47 C 0.04837 0.92477 0.53419 0.0
C48 C 0.96218 0.89324 0.45908 0.0
Co49 Co 0.97009 0.88459 0.90566 0.0
N50 N 0.93195 0.89212 0.96972 0.0
N51 N 0.92257 0.91041 0.05692 0.0
C52 C 0.84025 0.89522 1.0217 0.0
C53 C 0.84601 0.88407 0.96791 0.0
C54 C 0.97768 0.90789 0.02551 0.0
Co55 Co 0.98755 0.90636 0.77314 0.0
C56 C 0.09592 0.8729 0.90473 0.0
H57 H 0.79112 0.87064 0.93015 0.0
O58 O 0.95691 0.9368 0.69532 0.0
O59 O 0.03814 0.94422 0.83086 0.0
O60 O 0.12053 0.89757 0.77941 0.0
O61 O 0.93267 0.86821 0.71732 0.0
O62 O 0.90646 0.88659 0.62029 0.0
O63 O 0.98996 0.92807 0.90366 0.0
O64 O 0.01789 0.87633 0.84969 0.0
O65 O 0.84554 0.88994 0.84531 0.0
O66 O 0.08731 0.90561 0.67555 0.0
O67 O 0.9569 0.93751 0.69425 0.0
O68 O 0.85163 0.91488 0.76145 0.0
O69 O 0.09048 0.87904 0.95775 0.0
C70 C 0.1439 0.89661 0.73248 0.0
C71 C 0.08072 0.91883 0.05363 0.0
H72 H 0.10331 0.92651 1.01664 0.0
H73 H 0.09224 0.93879 0.08672 0.0
H74 H 0.12827 0.89897 0.08176 0.0
C75 C 0.01982 0.9496 0.87856 0.0
C76 C 0.89782 0.86526 0.65637 0.0
H77 H 0.86512 0.88101 0.502 0.0
H78 H 0.11656 0.96999 0.54249 0.0
H79 H 0.19549 0.93829 0.58684 0.0
H80 H 0.11481 0.95533 0.61595 0.0
C81 C 0.12268 0.94855 0.57236 0.0
C82 C 0.9557 0.9672 0.69748 0.0
C83 C 0.80505 0.90433 0.79169 0.0
H84 H 0.92903 0.88168 0.41303 0.0
H85 H 0.78219 0.89142 0.03526 0.0
Co86 Co 0.46885 0.6654 0.11483 0.0
N87 N 0.48979 0.65438 0.04517 0.0
C88 C 0.42914 0.63658 0.99623 0.0
N89 N 0.54614 0.65049 0.9714 0.0
C90 C 0.56107 0.66256 0.0286 0.0
C91 C 0.46385 0.63401 0.95114 0.0
Co92 Co 0.51512 0.63901 0.40418 0.0
N93 N 0.49822 0.65127 0.47594 0.0
N94 N 0.51755 0.66795 0.57198 0.0
C95 C 0.42978 0.65506 0.54231 0.0
C96 C 0.41768 0.64521 0.4832 0.0
C97 C 0.55782 0.66563 0.53107 0.0
Co98 Co 0.49932 0.65334 0.26107 0.0
C99 C 0.58151 0.62038 0.40492 0.0
H100 H 0.35523 0.63313 0.44891 0.0
O101 O 0.45006 0.67967 0.17856 0.0
O102 O 0.52948 0.69586 0.30443 0.0
O103 O 0.63544 0.65202 0.27141 0.0
O104 O 0.47674 0.61145 0.21327 0.0
O105 O 0.40583 0.62715 0.11075 0.0
O106 O 0.5194 0.68141 0.39152 0.0
O107 O 0.53695 0.625 0.34112 0.0
O108 O 0.38044 0.64043 0.35205 0.0
O109 O 0.59034 0.64714 0.16731 0.0
O110 O 0.52533 0.70218 0.12472 0.0
O111 O 0.36266 0.65339 0.25222 0.0
O112 O 0.64494 0.63979 0.44339 0.0
C113 C 0.65463 0.64504 0.22491 0.0
C114 C 0.65847 0.67641 0.5471 0.0
H115 H 0.66121 0.68877 0.50525 0.0
H116 H 0.68522 0.69286 0.58806 0.0
H117 H 0.70738 0.65555 0.5609 0.0
C118 C 0.52814 0.70277 0.35687 0.0
C119 C 0.43591 0.60518 0.15291 0.0
H120 H 0.36182 0.62698 0.99221 0.0
H121 H 0.62336 0.70851 0.05597 0.0
H122 H 0.70651 0.67892 0.05531 0.0
H123 H 0.6717 0.67962 0.1196 0.0
C124 C 0.64548 0.68334 0.06728 0.0
C125 C 0.48438 0.70519 0.16267 0.0
C126 C 0.3279 0.64707 0.29268 0.0
H127 H 0.42828 0.62267 0.905 0.0
H128 H 0.38081 0.65108 0.56382 0.0
Co129 Co 0.50061 0.41686 0.63353 0.0
N130 N 0.50292 0.39922 0.56247 0.0
C131 C 0.50674 0.36829 0.55013 0.0
N132 N 0.48463 0.39474 0.46178 0.0
C133 C 0.49229 0.41472 0.50847 0.0
C134 C 0.4948 0.36547 0.48785 0.0
Co135 Co 0.44777 0.38446 0.88481 0.0
N136 N 0.38093 0.3892 0.93388 0.0
N137 N 0.33505 0.40042 1.01062 0.0
C138 C 0.26576 0.38298 0.96634 0.0
C139 C 0.29421 0.37601 0.91946 0.0
C140 C 0.40401 0.40406 0.99013 0.0
Co141 Co 0.50102 0.40779 0.77107 0.0
C142 C 0.58418 0.37539 0.9047 0.0
H143 H 0.25537 0.36111 0.87866 0.0
O144 O 0.49525 0.43704 0.6974 0.0
O145 O 0.53536 0.44605 0.82776 0.0
O146 O 0.63895 0.40126 0.78963 0.0
O147 O 0.46266 0.36715 0.72175 0.0
O148 O 0.40902 0.38703 0.62518 0.0
O149 O 0.45054 0.42935 0.87891 0.0
O150 O 0.51741 0.37833 0.84497 0.0
O151 O 0.3328 0.38256 0.81146 0.0
O152 O 0.61041 0.39143 0.68773 0.0
O153 O 0.39873 0.44088 0.59087 0.0
O154 O 0.3589 0.41602 0.74575 0.0
O155 O 0.56401 0.38537 0.95022 0.0
C156 C 0.66807 0.39355 0.74754 0.0
C157 C 0.49681 0.42131 0.02764 0.0
H158 H 0.52221 0.43387 0.99583 0.0
H159 H 0.48816 0.43884 0.05994 0.0
H160 H 0.55329 0.404 0.05765 0.0
C161 C 0.49398 0.45125 0.86413 0.0
C162 C 0.40712 0.36574 0.66248 0.0
H163 H 0.51378 0.34903 0.58333 0.0
H164 H 0.41925 0.45891 0.48937 0.0
H165 H 0.51566 0.45762 0.46527 0.0
H166 H 0.54243 0.4599 0.54965 0.0
C167 C 0.49295 0.44994 0.50271 0.0
C168 C 0.43732 0.45422 0.64662 0.0
C169 C 0.30172 0.40005 0.76153 0.0
H170 H 0.48859 0.34365 0.46254 0.0
H171 H 0.2025 0.37411 0.97004 0.0
H172 H 0.21865 0.14743 0.94254 0.0
H173 H 0.04588 0.22923 0.93291 0.0
H174 H 0.04967 0.24677 0.83174 0.0
H175 H 0.35349 0.18626 0.84765 0.0
H176 H 0.34768 0.14896 0.80959 0.0
H177 H 0.36426 0.14973 0.89187 0.0
H178 H 0.21518 0.11371 0.8617 0.0
H179 H 0.19843 0.11313 0.7801 0.0
H180 H 0.10134 0.12614 0.79749 0.0
H181 H 0.02116 0.24439 0.71911 0.0
H182 H 0.97816 0.22506 0.60937 0.0
H183 H 0.17536 0.14653 0.6897 0.0
C184 C 0.18727 0.17004 0.92077 0.0
C185 C 0.13384 0.18738 0.94551 0.0
C186 C 0.08967 0.21624 0.91544 0.0
C187 C 0.09121 0.22624 0.85778 0.0
C188 C 0.13843 0.20728 0.83161 0.0
C189 C 0.18836 0.18016 0.86319 0.0
C190 C 0.21757 0.1608 0.82008 0.0
C191 C 0.32728 0.1615 0.84371 0.0
C192 C 0.18076 0.12647 0.81452 0.0
C193 C 0.16672 0.17921 0.75738 0.0
C194 C 0.12385 0.20648 0.76532 0.0
C195 C 0.05787 0.22397 0.7126 0.0
C196 C 0.03326 0.21283 0.65063 0.0
C197 C 0.0752 0.18477 0.64217 0.0
C198 C 0.14516 0.16853 0.69577 0.0
H199 H 0.1271 0.88084 0.42303 0.0
H200 H 0.01164 0.9726 0.43017 0.0
H201 H 1.00672 0.9873 0.32538 0.0
H202 H 0.24829 0.90597 0.30784 0.0
H203 H 0.21102 0.86859 0.2684 0.0
H204 H 0.24936 0.871 0.35402 0.0
H205 H 0.08861 0.84543 0.33852 0.0
H206 H 0.04715 0.84429 0.25313 0.0
H207 H 0.97643 0.86454 0.28584 0.0
H208 H 0.95637 0.98436 0.2095 0.0
H209 H 0.88956 0.96668 0.09648 0.0
H210 H 0.03112 0.87613 0.1609 0.0
C211 C 0.10828 0.90477 0.40414 0.0
C212 C 0.07237 0.92594 0.43442 0.0
C213 C 0.04303 0.95668 0.40834 0.0
C214 C 0.03918 0.96503 0.34849 0.0
C215 C 0.06548 0.94232 0.31608 0.0
C216 C 0.10274 0.91302 0.34395 0.0
C217 C 0.10539 0.89036 0.29488 0.0
C218 C 0.20973 0.8836 0.307 0.0
C219 C 0.05109 0.85939 0.29302 0.0
C220 C 0.05344 0.91009 0.23442 0.0
C221 C 0.0338 0.94032 0.24753 0.0
C222 C 0.97439 0.96118 0.19872 0.0
C223 C 0.93537 0.95091 0.13506 0.0
C224 C 0.9554 0.92016 0.12163 0.0
C225 C 0.01572 0.89974 0.17139 0.0
H226 H 0.60019 0.61035 0.90559 0.0
H227 H 0.58708 0.70934 0.94421 0.0
H228 H 0.6337 0.72405 0.85874 0.0
H229 H 0.78876 0.61837 0.83326 0.0
H230 H 0.72191 0.58957 0.77377 0.0
H231 H 0.73076 0.58606 0.85413 0.0
H232 H 0.54465 0.58451 0.8063 0.0
H233 H 0.5353 0.5884 0.72656 0.0
H234 H 0.47489 0.61657 0.75421 0.0
H235 H 0.625 0.729 0.75225 0.0
H236 H 0.56387 0.72299 0.63434 0.0
H237 H 0.5779 0.62142 0.659 0.0
C238 C 0.61271 0.63493 0.89777 0.0
C239 C 0.59368 0.65865 0.93235 0.0
C240 C 0.6059 0.69081 0.92007 0.0
C241 C 0.63215 0.69935 0.87138 0.0
C242 C 0.6451 0.67545 0.8352 0.0
C243 C 0.63712 0.6437 0.84838 0.0
C244 C 0.63168 0.6231 0.79417 0.0
C245 C 0.72381 0.60311 0.8151 0.0
C246 C 0.54125 0.60198 0.76884 0.0
C247 C 0.62594 0.6484 0.74564 0.0
C248 C 0.63823 0.67839 0.77109 0.0
C249 C 0.6191 0.7057 0.73231 0.0
C250 C 0.58374 0.70224 0.66576 0.0
C251 C 0.5677 0.67181 0.6396 0.0
C252 C 0.59226 0.64475 0.67968 0.0
H253 H 0.47575 0.37812 0.1206 0.0
H254 H 0.21332 0.43384 0.04139 0.0
H255 H 0.22875 0.44186 0.15195 0.0
H256 H 0.43578 0.33796 0.23925 0.0
H257 H 0.55967 0.33816 0.29893 0.0
H258 H 0.53164 0.33936 0.2147 0.0
H259 H 0.6307 0.39078 0.23065 0.0
H260 H 0.65968 0.38968 0.31521 0.0
H261 H 0.60351 0.42439 0.26684 0.0
H262 H 0.26971 0.44095 0.26971 0.0
H263 H 0.32961 0.43004 0.38653 0.0
H264 H 0.56605 0.37503 0.38719 0.0
C265 C 0.42307 0.39262 0.12703 0.0
C266 C 0.3445 0.40602 0.07377 0.0
C267 C 0.27423 0.42381 0.08259 0.0
C268 C 0.28288 0.42853 0.14478 0.0
C269 C 0.36208 0.41514 0.19669 0.0
C270 C 0.43091 0.39754 0.18836 0.0
C271 C 0.5062 0.38416 0.25131 0.0
C272 C 0.50834 0.34776 0.25099 0.0
C273 C 0.60592 0.39809 0.26692 0.0
C274 C 0.46745 0.39613 0.29645 0.0
C275 C 0.38517 0.41436 0.26423 0.0
C276 C 0.33476 0.42714 0.2956 0.0
C277 C 0.36935 0.42098 0.36168 0.0
C278 C 0.45305 0.40223 0.39507 0.0
C279 C 0.50249 0.38966 0.36218 0.0
H280 H 0.7241 0.10919 0.32645 0.0
H281 H 0.74572 0.20081 0.24649 0.0
H282 H 0.58464 0.21549 0.23663 0.0
H283 H 0.46851 0.09904 0.21863 0.0
H284 H 0.44428 0.07844 0.27893 0.0
H285 H 0.56199 0.07589 0.28107 0.0
H286 H 0.63709 0.09567 0.39847 0.0
H287 H 0.51921 0.09912 0.39598 0.0
H288 H 0.59771 0.13291 0.41578 0.0
H289 H 0.42953 0.22149 0.24287 0.0
H290 H 0.26791 0.21443 0.23756 0.0
H291 H 0.33674 0.11684 0.3024 0.0
C292 C 0.69368 0.1321 0.30584 0.0
C293 C 0.746 0.15396 0.28684 0.0
C294 C 0.70539 0.18375 0.26033 0.0
C295 C 0.61493 0.19238 0.25548 0.0
C296 C 0.56607 0.17064 0.27632 0.0
C297 C 0.60224 0.14073 0.29887 0.0
C298 C 0.53143 0.12112 0.31338 0.0
C299 C 0.49965 0.0919 0.27043 0.0
C300 C 0.57394 0.11166 0.38518 0.0
C301 C 0.44973 0.14477 0.29558 0.0
C302 C 0.4729 0.17342 0.27605 0.0
C303 C 0.41003 0.1991 0.25722 0.0
C304 C 0.31873 0.19488 0.25452 0.0
C305 C 0.29041 0.16508 0.26902 0.0
C306 C 0.35758 0.13996 0.29206 0.0
H307 H 0.70463 0.92622 0.85371 0.0
H308 H 0.67062 0.88755 0.67262 0.0
H309 H 0.49878 0.87676 0.6436 0.0
H310 H 0.56219 0.87354 0.88836 0.0
H311 H 0.50634 0.90164 0.91945 0.0
H312 H 0.62417 0.90938 0.92458 0.0
H313 H 0.56718 0.96278 0.86326 0.0
H314 H 0.45024 0.95626 0.86067 0.0
H315 H 0.46109 0.96405 0.78714 0.0
H316 H 0.33942 0.86415 0.64151 0.0
H317 H 0.18663 0.8632 0.65051 0.0
H318 H 0.31972 0.9133 0.83058 0.0
C319 C 0.65985 0.91646 0.80698 0.0
C320 C 0.70001 0.90757 0.76516 0.0
C321 C 0.64047 0.89465 0.70479 0.0
C322 C 0.54342 0.88812 0.68846 0.0
C323 C 0.5075 0.89539 0.73264 0.0
C324 C 0.56272 0.91041 0.78951 0.0
C325 C 0.50609 0.91626 0.82795 0.0
C326 C 0.5525 0.89917 0.89399 0.0
C327 C 0.49548 0.95196 0.83515 0.0
C328 C 0.41052 0.90153 0.7844 0.0
C329 C 0.41392 0.8892 0.73028 0.0
C330 C 0.33553 0.87407 0.68315 0.0
C331 C 0.24945 0.87332 0.6892 0.0
C332 C 0.24154 0.88808 0.74138 0.0
C333 C 0.32419 0.90131 0.79094 0.0
H334 H 0.83252 0.66083 0.32449 0.0
H335 H 0.69939 0.61224 0.14232 0.0
H336 H 0.85557 0.60854 0.13936 0.0
H337 H 0.99396 0.7064 0.29018 0.0
H338 H 0.09508 0.70261 0.36845 0.0
H339 H 0.97418 0.69956 0.36072 0.0
H340 H 0.01355 0.64449 0.41766 0.0
H341 H 0.13527 0.64767 0.42678 0.0
H342 H 0.06324 0.61399 0.38734 0.0
H343 H 0.02006 0.61607 0.14743 0.0
H344 H 0.19303 0.62511 0.17813 0.0
H345 H 0.22572 0.66526 0.35801 0.0
C346 C 0.83703 0.64854 0.28518 0.0
C347 C 0.7532 0.63704 0.23349 0.0
C348 C 0.76218 0.62141 0.18245 0.0
C349 C 0.8507 0.61929 0.18 0.0
C350 C 0.93091 0.63225 0.22968 0.0
C351 C 0.92604 0.64571 0.28237 0.0
C352 C 0.02431 0.6578 0.32897 0.0
C353 C 0.02166 0.69373 0.33756 0.0
C354 C 0.06126 0.63992 0.39404 0.0
C355 C 0.08361 0.64962 0.29331 0.0
C356 C 0.02789 0.63523 0.23578 0.0
C357 C 0.0651 0.62684 0.19292 0.0
C358 C 0.16299 0.63236 0.21032 0.0
C359 C 0.22254 0.64565 0.27042 0.0
C360 C 0.18185 0.65471 0.31199 0.0
H361 H 0.79252 0.35129 0.73345 0.0
H362 H 0.76793 0.44742 0.78655 0.0
H363 H 0.91779 0.46156 0.77864 0.0
H364 H 0.05944 0.34848 0.82895 0.0
H365 H 0.07413 0.32306 0.77206 0.0
H366 H 0.96574 0.32114 0.78292 0.0
H367 H 0.86597 0.33115 0.66013 0.0
H368 H 0.97442 0.33445 0.64947 0.0
H369 H 0.88746 0.36631 0.62307 0.0
H370 H 0.06396 0.46621 0.75697 0.0
H371 H 0.21961 0.45769 0.75284 0.0
H372 H 0.15581 0.35795 0.72131 0.0
C373 C 0.82073 0.37498 0.74547 0.0
C374 C 0.7699 0.39817 0.7617 0.0
C375 C 0.80743 0.42915 0.77573 0.0
C376 C 0.89148 0.43753 0.77021 0.0
C377 C 0.93827 0.41446 0.75186 0.0
C378 C 0.90653 0.3835 0.74232 0.0
C379 C 0.97423 0.3628 0.7277 0.0
C380 C 0.02119 0.33738 0.78107 0.0
C381 C 0.92236 0.3478 0.66112 0.0
C382 C 0.04715 0.38713 0.72862 0.0
C383 C 0.02426 0.41691 0.74157 0.0
C384 C 0.08262 0.44301 0.74673 0.0
C385 C 0.16997 0.43813 0.74294 0.0
C386 C 0.1983 0.40736 0.73509 0.0
C387 C 0.13416 0.38188 0.72519 0.0
H388 H 0.44974 0.30725 0.63305 0.0
H389 H 0.21449 0.36771 0.61749 0.0
H390 H 0.09849 0.33316 0.53422 0.0
H391 H 0.36629 0.29378 0.46977 0.0
H392 H 0.40332 0.25288 0.47751 0.0
H393 H 0.46686 0.27968 0.54202 0.0
H394 H 0.43723 0.24294 0.62132 0.0
H395 H 0.37189 0.21554 0.55832 0.0
H396 H 0.31624 0.23208 0.60528 0.0
H397 H 1.00991 0.29482 0.44458 0.0
H398 H 0.95293 0.2503 0.36858 0.0
H399 H 0.24603 0.21588 0.43996 0.0
C400 C 0.37339 0.31226 0.61421 0.0
C401 C 0.34041 0.3395 0.63304 0.0
C402 C 0.24046 0.34627 0.6052 0.0
C403 C 0.17433 0.32708 0.55712 0.0
C404 C 0.20947 0.30127 0.53705 0.0
C405 C 0.30641 0.29341 0.56571 0.0
C406 C 0.32577 0.26499 0.53395 0.0
C407 C 0.39464 0.27335 0.50405 0.0
C408 C 0.36506 0.23721 0.58253 0.0
C409 C 0.22503 0.25846 0.48229 0.0
C410 C 0.15894 0.27972 0.48465 0.0
C411 C 0.06109 0.27807 0.44222 0.0
C412 C 0.02943 0.25311 0.39842 0.0
C413 C 0.09554 0.23047 0.39699 0.0
C414 C 0.19465 0.23366 0.4385 0.0
H415 H 0.76816 0.36852 1.00056 0.0
H416 H 0.52694 0.31588 0.86311 0.0
H417 H 0.58887 0.26739 0.9299 0.0
H418 H 0.94728 0.30148 0.03833 0.0
H419 H 0.01095 0.31356 0.12079 0.0
H420 H 0.94995 0.34264 0.05807 0.0
H421 H 0.85738 0.36102 0.12197 0.0
H422 H 0.9137 0.33062 0.1827 0.0
H423 H 0.78421 0.33309 0.14043 0.0
H424 H 0.66429 0.22644 1.02097 0.0
H425 H 0.779 0.19102 0.10587 0.0
H426 H 0.97765 0.26885 0.18066 0.0
C427 C 0.73124 0.34642 0.98281 0.0
C428 C 0.64324 0.34603 0.92589 0.0
C429 C 0.59558 0.31675 0.90543 0.0
C430 C 0.62907 0.28917 0.94403 0.0
C431 C 0.71178 0.29098 1.00236 0.0
C432 C 0.765 0.31844 1.02003 0.0
C433 C 0.85372 0.31369 0.08385 0.0
C434 C 0.94593 0.31808 0.07471 0.0
C435 C 0.85208 0.33594 0.13525 0.0
C436 C 0.84123 0.27944 0.09988 0.0
C437 C 0.7575 0.26704 0.05308 0.0
C438 C 0.73068 0.23585 0.05737 0.0
C439 C 0.79538 0.21601 0.10709 0.0
C440 C 0.88743 0.22707 0.15044 0.0
C441 C 0.90711 0.25982 0.14935 0.0
H442 H 0.67941 0.74187 0.37022 0.0
H443 H 0.4403 0.73153 0.41948 0.0
H444 H 0.5148 0.76965 0.50663 0.0
H445 H 0.85978 0.74581 0.52483 0.0
H446 H 0.93134 0.77592 0.51049 0.0
H447 H 0.85522 0.75092 0.44587 0.0
H448 H 0.76674 0.7998 0.37537 0.0
H449 H 0.84618 0.82484 0.43872 0.0
H450 H 0.71755 0.82929 0.40821 0.0
H451 H 0.62706 0.80205 0.59951 0.0
H452 H 0.75034 0.83817 0.67445 0.0
H453 H 0.91262 0.83047 0.56264 0.0
C454 C 0.64027 0.74906 0.39691 0.0
C455 C 0.55307 0.73412 0.38721 0.0
C456 C 0.50608 0.74318 0.42518 0.0
C457 C 0.54861 0.76445 0.47555 0.0
C458 C 0.63757 0.77716 0.48682 0.0
C459 C 0.68131 0.77083 0.44717 0.0
C460 C 0.77769 0.78751 0.47088 0.0
C461 C 0.86089 0.7636 0.48909 0.0
C462 C 0.77696 0.81181 0.42029 0.0
C463 C 0.78142 0.80364 0.53019 0.0
C464 C 0.70067 0.7969 0.53918 0.0
C465 C 0.68972 0.80807 0.59219 0.0
C466 C 0.76048 0.82826 0.63498 0.0
C467 C 0.83988 0.83744 0.62372 0.0
C468 C 0.85177 0.8241 0.57183 0.0
H469 H 0.29284 0.71485 0.08922 0.0
H470 H 0.5619 0.76361 0.19459 0.0
H471 H 0.49609 0.81091 0.1242 0.0
H472 H 0.25459 0.74049 0.9386 0.0
H473 H 0.12585 0.74575 0.90521 0.0
H474 H 0.18561 0.71752 0.96999 0.0
H475 H 0.11698 0.74459 0.04097 0.0
H476 H 0.05191 0.77155 0.97477 0.0
H477 H 0.13085 0.78668 0.05265 0.0
H478 H 0.40736 0.85046 0.0324 0.0
H479 H 0.28641 0.8848 0.94819 0.0
H480 H 0.07789 0.80943 0.89931 0.0
C481 C 0.33559 0.73619 0.10024 0.0
C482 C 0.43192 0.73574 0.14882 0.0
C483 C 0.4871 0.76372 0.15925 0.0
C484 C 0.45101 0.79043 0.11827 0.0
C485 C 0.35912 0.78895 0.06704 0.0
C486 C 0.30078 0.76298 0.05935 0.0
C487 C 0.20564 0.76704 0.99954 0.0
C488 C 0.1922 0.74115 0.95047 0.0
C489 C 0.12136 0.76751 1.01808 0.0
C490 C 0.21968 0.7992 0.97445 0.0
C491 C 0.30923 0.81127 1.01365 0.0
C492 C 0.33704 0.84118 1.00158 0.0
C493 C 0.26863 0.86029 0.95219 0.0
C494 C 0.17304 0.8497 0.91596 0.0
C495 C 0.15117 0.81785 0.92426 0.0
H496 H 0.86086 0.07511 0.06053 0.0
H497 H 0.14388 0.06314 0.21945 0.0
H498 H 0.18859 1.02649 0.15459 0.0
H499 H 0.83615 0.99086 0.99587 0.0
H500 H 0.77146 1.007 0.91579 0.0
H501 H 0.76393 1.02616 0.98244 0.0
H502 H 0.81833 0.07799 0.94267 0.0
H503 H 0.83315 0.05645 0.88104 0.0
H504 H 0.93294 0.07797 0.93944 0.0
H505 H 0.21126 0.99904 0.06468 0.0
H506 H 0.19303 0.96775 0.9706 0.0
H507 H 0.89269 0.99519 0.87239 0.0
C508 C 0.92992 0.06308 0.08311 0.0
C509 C 0.99798 0.07125 0.14587 0.0
C510 C 0.08951 0.05633 0.17256 0.0
C511 C 0.11624 0.03608 0.13534 0.0
C512 C 0.04999 1.0306 0.07178 0.0
C513 C 0.95711 0.0425 0.04682 0.0
C514 C 0.90035 0.03369 0.97662 0.0
C515 C 0.81285 1.01323 0.96724 0.0
C516 C 0.86937 0.06331 0.93241 0.0
C517 C 0.97561 1.01491 0.96608 0.0
C518 C 0.06231 1.01423 1.02089 0.0
C519 C 0.14325 0.99913 1.02187 0.0
C520 C 0.133 0.98207 0.96748 0.0
C521 C 0.04207 0.97956 0.91365 0.0
C522 C 0.96374 0.99743 0.91205 0.0
H523 H 0.17723 0.09228 0.53819 0.0
H524 H 0.95401 0.06924 0.34942 0.0
H525 H 0.89303 1.02817 0.40056 0.0
H526 H 0.21874 1.01454 0.61597 0.0
H527 H 0.23154 1.03051 0.69107 0.0
H528 H 0.26474 0.05392 0.63809 0.0
H529 H 0.15039 0.09843 0.63686 0.0
H530 H 0.11513 0.07541 0.68934 0.0
H531 H 0.02498 0.09018 0.613 0.0
H532 H 0.85307 0.9907 0.47714 0.0
H533 H 0.83854 0.96217 0.5673 0.0
H534 H 0.07774 1.01548 0.70453 0.0
C535 C 0.11725 0.07808 0.5067 0.0
C536 C 0.07192 0.08386 0.43903 0.0
C537 C 0.99177 0.06499 0.40092 0.0
C538 C 0.95598 0.04181 0.42986 0.0
C539 C 1.00009 0.03803 0.49714 0.0
C540 C 0.07926 0.05578 0.53476 0.0
C541 C 0.10908 0.0499 0.60602 0.0
C542 C 0.2121 0.0364 0.63975 0.0
C543 C 0.09923 0.0803 0.63823 0.0
C544 C 0.03543 1.02561 0.60348 0.0
C545 C 0.97336 1.01877 0.54031 0.0
C546 C 0.90102 0.99625 0.52646 0.0
C547 C 0.89312 0.98019 0.57805 0.0
C548 C 0.95658 0.98676 0.64311 0.0
C549 C 0.0273 1.01025 0.65552 0.0
H550 H 0.31375 0.56995 0.05107 0.0
H551 H 0.60977 0.57549 0.19557 0.0
H552 H 0.66035 0.54106 0.13037 0.0
H553 H 0.33402 0.48416 1.01348 0.0
H554 H 0.2505 0.49055 0.93018 0.0
H555 H 0.23937 0.51332 0.99174 0.0
H556 H 0.24751 0.56492 0.93107 0.0
H557 H 0.26165 0.54198 0.87083 0.0
H558 H 0.34995 0.57127 0.91445 0.0
H559 H 0.68037 0.51147 0.04033 0.0
H560 H 0.6629 0.47728 0.9497 0.0
H561 H 0.35308 0.48782 0.86867 0.0
C562 C 0.38851 0.56263 0.07049 0.0
C563 C 0.45757 0.57518 0.12904 0.0
C564 C 0.55516 0.5657 0.15176 0.0
C565 C 0.58482 0.54656 0.11433 0.0
C566 C 0.51564 0.53619 0.05497 0.0
C567 C 0.41886 0.54271 0.03467 0.0
C568 C 0.35843 0.52785 0.97003 0.0
C569 C 0.29165 0.50247 0.97676 0.0
C570 C 0.30099 0.55302 0.91859 0.0
C571 C 0.43631 0.51306 0.95581 0.0
C572 C 0.52676 0.51839 1.00492 0.0
C573 C 0.60967 0.50704 1.00189 0.0
C574 C 0.59937 0.48822 0.94943 0.0
C575 C 0.50688 0.48063 0.90104 0.0
C576 C 0.42484 0.49405 0.90377 0.0
H577 H 0.33204 0.49933 0.55597 0.0
H578 H 0.61766 0.48062 0.70881 0.0
H579 H 0.68525 0.51904 0.65826 0.0
H580 H 0.39457 0.50402 0.42409 0.0
H581 H 0.30703 0.5345 0.38487 0.0
H582 H 0.28967 0.50707 0.43933 0.0
H583 H 0.27424 0.5577 0.50039 0.0
H584 H 0.29716 0.58213 0.44426 0.0
H585 H 0.37235 0.58532 0.5299 0.0
H586 H 0.72578 0.55135 0.57992 0.0
H587 H 0.73249 0.58733 0.49689 0.0
H588 H 0.42116 0.58448 0.39171 0.0
C589 C 0.40823 0.5045 0.58069 0.0
C590 C 0.4691 0.48666 0.6369 0.0
C591 C 0.56872 0.49394 0.66669 0.0
C592 C 0.60822 0.51535 0.6373 0.0
C593 C 0.54739 0.52971 0.57834 0.0
C594 C 0.44903 0.52532 0.55124 0.0
C595 C 0.39971 0.54308 0.48673 0.0
C596 C 0.34453 0.52075 0.4307 0.0
C597 C 0.33206 0.56866 0.49057 0.0
C598 C 0.4862 0.55729 0.4807 0.0
C599 C 0.57054 0.54903 0.53394 0.0
C600 C 0.65994 0.55834 0.53866 0.0
C601 C 0.66311 0.57832 0.49029 0.0
C602 C 0.57765 0.58908 0.4371 0.0
C603 C 0.48822 0.57692 0.43105 0.0
loop_
_geom_bond_atom_site_label_1
_geom_bond_atom_site_label_2
_geom_bond_distance
_geom_bond_site_symmetry_2
_ccdc_geom_bond_type
Co0 N1 2.034 . S
Co0 O15 2.262 1_455 S
Co0 O19 1.958 1_455 S
Co0 O23 1.950 . S
Co0 O24 2.057 1_455 S
N1 Co0 2.034 . S
N1 C2 1.366 1_554 S
N1 C4 1.332 . S
C2 N1 1.366 1_556 S
C2 C5 1.377 . S
C2 H34 0.931 1_455 S
N3 C4 1.346 1_556 S
N3 C5 1.337 . S
C4 N1 1.332 . S
C4 N3 1.346 1_554 S
C4 C38 1.361 . S
C5 C2 1.377 . S
C5 N3 1.337 . S
C5 H41 0.930 . S
Co6 N7 2.034 . S
Co6 O20 1.950 1_655 S
Co6 O21 2.262 1_655 S
Co6 O22 1.958 . S
Co6 O26 2.057 1_655 S
N7 Co6 2.034 . S
N7 C10 1.366 . S
N7 C11 1.332 . S
N8 C9 1.337 . S
N8 C11 1.346 . S
C9 N8 1.337 . S
C9 C10 1.377 . S
C9 H42 0.930 . S
C10 N7 1.366 . S
C10 C9 1.377 . S
C10 H14 0.931 . S
C11 N7 1.332 . S
C11 N8 1.346 . S
C11 C28 1.361 1_655 S
Co12 O15 2.097 . S
Co12 O16 2.065 1_655 S
Co12 O17 2.065 1_655 S
Co12 O18 2.042 . S
Co12 O21 2.097 1_655 S
Co12 O25 2.042 . S
C13 O21 1.253 . S
C13 O26 1.263 . S
H14 C10 0.931 . S
O15 Co0 2.262 1_655 S
O15 Co12 2.097 . S
O15 C39 1.253 . S
O16 Co12 2.065 1_455 S
O16 C32 1.221 . S
O17 Co12 2.065 1_455 S
O17 C27 1.221 . S
O18 Co12 2.042 . S
O18 C33 1.237 . S
O19 Co0 1.958 1_655 S
O19 C33 1.278 . S
O20 Co6 1.950 1_455 S
O20 C32 1.277 . S
O21 Co6 2.262 1_455 S
O21 Co12 2.097 1_455 S
O21 C13 1.253 . S
O22 Co6 1.958 . S
O22 C40 1.278 . S
O23 Co0 1.950 . S
O23 C27 1.277 . S
O24 Co0 2.057 1_655 S
O24 C39 1.263 . S
O25 Co12 2.042 . S
O25 C40 1.237 . S
O26 Co6 2.057 1_455 S
O26 C13 1.263 . S
C27 O17 1.221 . S
C27 O23 1.277 . S
C28 C11 1.361 1_455 S
C28 H29 0.960 . S
C28 H30 0.961 . S
C28 H31 0.961 . S
H29 C28 0.960 . S
H30 C28 0.961 . S
H31 C28 0.961 . S
C32 O16 1.221 . S
C32 O20 1.277 . S
C33 O18 1.237 . S
C33 O19 1.278 . S
H34 C2 0.931 1_655 S
H35 C38 0.961 . S
H36 C38 0.961 . S
H37 C38 0.960 . S
C38 C4 1.361 . S
C38 H35 0.961 . S
C38 H36 0.961 . S
C38 H37 0.960 . S
C39 O15 1.253 . S
C39 O24 1.263 . S
C40 O22 1.278 . S
C40 O25 1.237 . S
H41 C5 0.930 . S
H42 C9 0.930 . S
Co43 N44 2.034 . S
Co43 O58 2.262 1_455 S
Co43 O62 1.958 1_455 S
Co43 O66 1.950 . S
Co43 O67 2.057 1_455 S
N44 Co43 2.034 . S
N44 C45 1.366 . S
N44 C47 1.332 . S
C45 N44 1.366 . S
C45 C48 1.377 . S
C45 H77 0.931 1_455 S
N46 C47 1.346 . S
N46 C48 1.337 . S
C47 N44 1.332 . S
C47 N46 1.346 . S
C47 C81 1.361 . S
C48 C45 1.377 . S
C48 N46 1.337 . S
C48 H84 0.930 . S
Co49 N50 2.034 . S
Co49 O63 1.950 1_655 S
Co49 O64 2.262 1_655 S
Co49 O65 1.958 . S
Co49 O69 2.057 1_655 S
N50 Co49 2.034 . S
N50 C53 1.366 . S
N50 C54 1.332 1_556 S
N51 C52 1.337 . S
N51 C54 1.346 . S
C52 N51 1.337 . S
C52 C53 1.377 1_554 S
C52 H85 0.930 . S
C53 N50 1.366 . S
C53 C52 1.377 1_556 S
C53 H57 0.931 . S
C54 N50 1.332 1_554 S
C54 N51 1.346 . S
C54 C71 1.361 1_655 S
Co55 O58 2.097 . S
Co55 O59 2.065 1_655 S
Co55 O60 2.065 1_655 S
Co55 O61 2.042 . S
Co55 O64 2.097 1_655 S
Co55 O68 2.042 . S
C56 O64 1.253 . S
C56 O69 1.263 . S
H57 C53 0.931 . S
O58 Co43 2.262 1_655 S
O58 Co55 2.097 . S
O58 C82 1.253 . S
O59 Co55 2.065 1_455 S
O59 C75 1.221 . S
O60 Co55 2.065 1_455 S
O60 C70 1.221 . S
O61 Co55 2.042 . S
O61 C76 1.237 . S
O62 Co43 1.958 1_655 S
O62 C76 1.278 . S
O63 Co49 1.950 1_455 S
O63 C75 1.277 . S
O64 Co49 2.262 1_455 S
O64 Co55 2.097 1_455 S
O64 C56 1.253 . S
O65 Co49 1.958 . S
O65 C83 1.278 . S
O66 Co43 1.950 . S
O66 C70 1.277 . S
O67 Co43 2.057 1_655 S
O67 C82 1.263 . S
O68 Co55 2.042 . S
O68 C83 1.237 . S
O69 Co49 2.057 1_455 S
O69 C56 1.263 . S
C70 O60 1.221 . S
C70 O66 1.277 . S
C71 C54 1.361 1_455 S
C71 H72 0.960 . S
C71 H73 0.961 . S
C71 H74 0.961 . S
H72 C71 0.960 . S
H73 C71 0.961 . S
H74 C71 0.961 . S
C75 O59 1.221 . S
C75 O63 1.277 . S
C76 O61 1.237 . S
C76 O62 1.278 . S
H77 C45 0.931 1_655 S
H78 C81 0.961 . S
H79 C81 0.961 . S
H80 C81 0.960 . S
C81 C47 1.361 . S
C81 H78 0.961 . S
C81 H79 0.961 . S
C81 H80 0.960 . S
C82 O58 1.253 . S
C82 O67 1.263 . S
C83 O65 1.278 . S
C83 O68 1.237 . S
H84 C48 0.930 . S
H85 C52 0.930 . S
Co86 N87 2.034 . S
Co86 O101 2.262 . S
Co86 O105 1.958 . S
Co86 O109 1.950 . S
Co86 O110 2.057 . S
N87 Co86 2.034 . S
N87 C88 1.366 1_554 S
N87 C90 1.332 . S
C88 N87 1.366 1_556 S
C88 C91 1.377 . S
C88 H120 0.931 . S
N89 C90 1.346 1_556 S
N89 C91 1.337 . S
C90 N87 1.332 . S
C90 N89 1.346 1_554 S
C90 C124 1.361 . S
C91 C88 1.377 . S
C91 N89 1.337 . S
C91 H127 0.930 . S
Co92 N93 2.034 . S
Co92 O106 1.950 . S
Co92 O107 2.262 . S
Co92 O108 1.958 . S
Co92 O112 2.057 . S
N93 Co92 2.034 . S
N93 C96 1.366 . S
N93 C97 1.332 . S
N94 C95 1.337 . S
N94 C97 1.346 . S
C95 N94 1.337 . S
C95 C96 1.377 . S
C95 H128 0.930 . S
C96 N93 1.366 . S
C96 C95 1.377 . S
C96 H100 0.931 . S
C97 N93 1.332 . S
C97 N94 1.346 . S
C97 C114 1.361 . S
Co98 O101 2.097 . S
Co98 O102 2.065 . S
Co98 O103 2.065 . S
Co98 O104 2.042 . S
Co98 O107 2.097 . S
Co98 O111 2.042 . S
C99 O107 1.253 . S
C99 O112 1.263 . S
H100 C96 0.931 . S
O101 Co86 2.262 . S
O101 Co98 2.097 . S
O101 C125 1.253 . S
O102 Co98 2.065 . S
O102 C118 1.221 . S
O103 Co98 2.065 . S
O103 C113 1.221 . S
O104 Co98 2.042 . S
O104 C119 1.237 . S
O105 Co86 1.958 . S
O105 C119 1.278 . S
O106 Co92 1.950 . S
O106 C118 1.277 . S
O107 Co92 2.262 . S
O107 Co98 2.097 . S
O107 C99 1.253 . S
O108 Co92 1.958 . S
O108 C126 1.278 . S
O109 Co86 1.950 . S
O109 C113 1.277 . S
O110 Co86 2.057 . S
O110 C125 1.263 . S
O111 Co98 2.042 . S
O111 C126 1.237 . S
O112 Co92 2.057 . S
O112 C99 1.263 . S
C113 O103 1.221 . S
C113 O109 1.277 . S
C114 C97 1.361 . S
C114 H115 0.960 . S
C114 H116 0.961 . S
C114 H117 0.961 . S
H115 C114 0.960 . S
H116 C114 0.961 . S
H117 C114 0.961 . S
C118 O102 1.221 . S
C118 O106 1.277 . S
C119 O104 1.237 . S
C119 O105 1.278 . S
H120 C88 0.931 . S
H121 C124 0.961 . S
H122 C124 0.961 . S
H123 C124 0.960 . S
C124 C90 1.361 . S
C124 H121 0.961 . S
C124 H122 0.961 . S
C124 H123 0.960 . S
C125 O101 1.253 . S
C125 O110 1.263 . S
C126 O108 1.278 . S
C126 O111 1.237 . S
H127 C91 0.930 . S
H128 C95 0.930 . S
Co129 N130 2.034 . S
Co129 O144 2.262 . S
Co129 O148 1.958 . S
Co129 O152 1.950 . S
Co129 O153 2.057 . S
N130 Co129 2.034 . S
N130 C131 1.366 . S
N130 C133 1.332 . S
C131 N130 1.366 . S
C131 C134 1.377 . S
C131 H163 0.931 . S
N132 C133 1.346 . S
N132 C134 1.337 . S
C133 N130 1.332 . S
C133 N132 1.346 . S
C133 C167 1.361 . S
C134 C131 1.377 . S
C134 N132 1.337 . S
C134 H170 0.930 . S
Co135 N136 2.034 . S
Co135 O149 1.950 . S
Co135 O150 2.262 . S
Co135 O151 1.958 . S
Co135 O155 2.057 . S
N136 Co135 2.034 . S
N136 C139 1.366 . S
N136 C140 1.332 1_556 S
N137 C138 1.337 . S
N137 C140 1.346 . S
C138 N137 1.337 . S
C138 C139 1.377 1_554 S
C138 H171 0.930 . S
C139 N136 1.366 . S
C139 C138 1.377 1_556 S
C139 H143 0.931 . S
C140 N136 1.332 1_554 S
C140 N137 1.346 . S
C140 C157 1.361 . S
Co141 O144 2.097 . S
Co141 O145 2.065 . S
Co141 O146 2.065 . S
Co141 O147 2.042 . S
Co141 O150 2.097 . S
Co141 O154 2.042 . S
C142 O150 1.253 . S
C142 O155 1.263 . S
H143 C139 0.931 . S
O144 Co129 2.262 . S
O144 Co141 2.097 . S
O144 C168 1.253 . S
O145 Co141 2.065 . S
O145 C161 1.221 . S
O146 Co141 2.065 . S
O146 C156 1.221 . S
O147 Co141 2.042 . S
O147 C162 1.237 . S
O148 Co129 1.958 . S
O148 C162 1.278 . S
O149 Co135 1.950 . S
O149 C161 1.277 . S
O150 Co135 2.262 . S
O150 Co141 2.097 . S
O150 C142 1.253 . S
O151 Co135 1.958 . S
O151 C169 1.278 . S
O152 Co129 1.950 . S
O152 C156 1.277 . S
O153 Co129 2.057 . S
O153 C168 1.263 . S
O154 Co141 2.042 . S
O154 C169 1.237 . S
O155 Co135 2.057 . S
O155 C142 1.263 . S
C156 O146 1.221 . S
C156 O152 1.277 . S
C157 C140 1.361 . S
C157 H158 0.960 . S
C157 H159 0.961 . S
C157 H160 0.961 . S
H158 C157 0.960 . S
H159 C157 0.961 . S
H160 C157 0.961 . S
C161 O145 1.221 . S
C161 O149 1.277 . S
C162 O147 1.237 . S
C162 O148 1.278 . S
H163 C131 0.931 . S
H164 C167 0.961 . S
H165 C167 0.961 . S
H166 C167 0.960 . S
C167 C133 1.361 . S
C167 H164 0.961 . S
C167 H165 0.961 . S
C167 H166 0.960 . S
C168 O144 1.253 . S
C168 O153 1.263 . S
C169 O151 1.278 . S
C169 O154 1.237 . S
H170 C134 0.930 . S
H171 C138 0.930 . S
H172 C184 0.930 . S
H173 C186 0.930 . S
H174 C187 0.930 . S
H175 C191 0.959 . S
H176 C191 0.959 . S
H177 C191 0.961 . S
H178 C192 0.960 1_455 S
H179 C192 0.961 . S
H180 C192 0.959 . S
H181 C195 0.929 . S
H182 C196 0.931 . S
H183 C198 0.930 1_455 S
C184 H172 0.930 . S
C184 C185 1.399 . S
C184 C189 1.399 . S
C185 C184 1.399 . S
C185 C186 1.376 . S
C186 H173 0.930 . S
C186 C185 1.376 . S
C186 C187 1.388 1_455 S
C187 H174 0.930 . S
C187 C186 1.388 1_655 S
C187 C188 1.390 1_655 S
C188 C187 1.390 1_455 S
C188 C189 1.394 . S
C188 C194 1.465 1_455 S
C189 C184 1.399 . S
C189 C188 1.394 . S
C189 C190 1.516 . S
C190 C189 1.516 . S
C190 C191 1.502 . S
C190 C192 1.561 1_455 S
C190 C193 1.526 . S
C191 H175 0.959 . S
C191 H176 0.959 . S
C191 H177 0.961 . S
C191 C190 1.502 . S
C192 H178 0.960 1_655 S
C192 H179 0.961 . S
C192 H180 0.959 . S
C192 C190 1.561 1_655 S
C193 C190 1.526 . S
C193 C194 1.396 1_455 S
C193 C198 1.390 1_455 S
C194 C188 1.465 1_655 S
C194 C193 1.396 1_655 S
C194 C195 1.399 . S
C195 H181 0.929 . S
C195 C194 1.399 . S
C195 C196 1.385 . S
C196 H182 0.931 . S
C196 C195 1.385 . S
C196 C197 1.389 . S
C197 C196 1.389 . S
C197 C198 1.387 . S
C198 H183 0.930 1_655 S
C198 C193 1.390 1_655 S
C198 C197 1.387 . S
H199 C211 0.930 . S
H200 C213 0.930 . S
H201 C214 0.930 1_655 S
H202 C218 0.959 . S
H203 C218 0.959 . S
H204 C218 0.961 . S
H205 C219 0.960 . S
H206 C219 0.961 . S
H207 C219 0.959 . S
H208 C222 0.929 . S
H209 C223 0.931 . S
H210 C225 0.930 1_455 S
C211 H199 0.930 . S
C211 C212 1.399 . S
C211 C216 1.399 . S
C212 C211 1.399 . S
C212 C213 1.376 . S
C213 H200 0.930 . S
C213 C212 1.376 . S
C213 C214 1.388 . S
C214 H201 0.930 1_455 S
C214 C213 1.388 . S
C214 C215 1.390 . S
C215 C214 1.390 . S
C215 C216 1.394 . S
C215 C221 1.465 1_455 S
C216 C211 1.399 . S
C216 C215 1.394 . S
C216 C217 1.516 . S
C217 C216 1.516 . S
C217 C218 1.502 . S
C217 C219 1.561 1_455 S
C217 C220 1.526 . S
C218 H202 0.959 . S
C218 H203 0.959 . S
C218 H204 0.961 . S
C218 C217 1.502 . S
C219 H205 0.960 . S
C219 H206 0.961 . S
C219 H207 0.959 . S
C219 C217 1.561 1_655 S
C220 C217 1.526 . S
C220 C221 1.396 1_455 S
C220 C225 1.390 1_455 S
C221 C215 1.465 1_655 S
C221 C220 1.396 1_655 S
C221 C222 1.399 . S
C222 H208 0.929 . S
C222 C221 1.399 . S
C222 C223 1.385 . S
C223 H209 0.931 . S
C223 C222 1.385 . S
C223 C224 1.389 . S
C224 C223 1.389 . S
C224 C225 1.387 . S
C225 H210 0.930 1_655 S
C225 C220 1.390 1_655 S
C225 C224 1.387 . S
H226 C238 0.930 . S
H227 C240 0.930 . S
H228 C241 0.930 . S
H229 C245 0.959 . S
H230 C245 0.959 . S
H231 C245 0.961 . S
H232 C246 0.960 . S
H233 C246 0.961 . S
H234 C246 0.959 . S
H235 C249 0.929 . S
H236 C250 0.931 . S
H237 C252 0.930 . S
C238 H226 0.930 . S
C238 C239 1.399 . S
C238 C243 1.399 . S
C239 C238 1.399 . S
C239 C240 1.376 . S
C240 H227 0.930 . S
C240 C239 1.376 . S
C240 C241 1.388 . S
C241 H228 0.930 . S
C241 C240 1.388 . S
C241 C242 1.390 . S
C242 C241 1.390 . S
C242 C243 1.394 . S
C242 C248 1.465 . S
C243 C238 1.399 . S
C243 C242 1.394 . S
C243 C244 1.516 . S
C244 C243 1.516 . S
C244 C245 1.502 . S
C244 C246 1.561 . S
C244 C247 1.526 . S
C245 H229 0.959 . S
C245 H230 0.959 . S
C245 H231 0.961 . S
C245 C244 1.502 . S
C246 H232 0.960 . S
C246 H233 0.961 . S
C246 H234 0.959 . S
C246 C244 1.561 . S
C247 C244 1.526 . S
C247 C248 1.396 . S
C247 C252 1.390 . S
C248 C242 1.465 . S
C248 C247 1.396 . S
C248 C249 1.399 . S
C249 H235 0.929 . S
C249 C248 1.399 . S
C249 C250 1.385 . S
C250 H236 0.931 . S
C250 C249 1.385 . S
C250 C251 1.389 . S
C251 C250 1.389 . S
C251 C252 1.387 . S
C252 H237 0.930 . S
C252 C247 1.390 . S
C252 C251 1.387 . S
H253 C265 0.930 . S
H254 C267 0.930 . S
H255 C268 0.930 . S
H256 C272 0.959 . S
H257 C272 0.959 . S
H258 C272 0.961 . S
H259 C273 0.960 . S
H260 C273 0.961 . S
H261 C273 0.959 . S
H262 C276 0.929 . S
H263 C277 0.931 . S
H264 C279 0.930 . S
C265 H253 0.930 . S
C265 C266 1.399 . S
C265 C270 1.399 . S
C266 C265 1.399 . S
C266 C267 1.376 . S
C267 H254 0.930 . S
C267 C266 1.376 . S
C267 C268 1.388 . S
C268 H255 0.930 . S
C268 C267 1.388 . S
C268 C269 1.390 . S
C269 C268 1.390 . S
C269 C270 1.394 . S
C269 C275 1.465 . S
C270 C265 1.399 . S
C270 C269 1.394 . S
C270 C271 1.516 . S
C271 C270 1.516 . S
C271 C272 1.502 . S
C271 C273 1.561 . S
C271 C274 1.526 . S
C272 H256 0.959 . S
C272 H257 0.959 . S
C272 H258 0.961 . S
C272 C271 1.502 . S
C273 H259 0.960 . S
C273 H260 0.961 . S
C273 H261 0.959 . S
C273 C271 1.561 . S
C274 C271 1.526 . S
C274 C275 1.396 . S
C274 C279 1.390 . S
C275 C269 1.465 . S
C275 C274 1.396 . S
C275 C276 1.399 . S
C276 H262 0.929 . S
C276 C275 1.399 . S
C276 C277 1.385 . S
C277 H263 0.931 . S
C277 C276 1.385 . S
C277 C278 1.389 . S
C278 C277 1.389 . S
C278 C279 1.387 . S
C279 H264 0.930 . S
C279 C274 1.390 . S
C279 C278 1.387 . S
H280 C292 0.930 . S
H281 C294 0.930 . S
H282 C295 0.930 . S
H283 C299 0.959 . S
H284 C299 0.959 . S
H285 C299 0.961 . S
H286 C300 0.960 . S
H287 C300 0.961 . S
H288 C300 0.959 . S
H289 C303 0.929 . S
H290 C304 0.931 . S
H291 C306 0.930 . S
C292 H280 0.930 . S
C292 C293 1.399 . S
C292 C297 1.399 . S
C293 C292 1.399 . S
C293 C294 1.376 . S
C294 H281 0.930 . S
C294 C293 1.376 . S
C294 C295 1.388 . S
C295 H282 0.930 . S
C295 C294 1.388 . S
C295 C296 1.390 . S
C296 C295 1.390 . S
C296 C297 1.394 . S
C296 C302 1.465 . S
C297 C292 1.399 . S
C297 C296 1.394 . S
C297 C298 1.516 . S
C298 C297 1.516 . S
C298 C299 1.502 . S
C298 C300 1.561 . S
C298 C301 1.526 . S
C299 H283 0.959 . S
C299 H284 0.959 . S
C299 H285 0.961 . S
C299 C298 1.502 . S
C300 H286 0.960 . S
C300 H287 0.961 . S
C300 H288 0.959 . S
C300 C298 1.561 . S
C301 C298 1.526 . S
C301 C302 1.396 . S
C301 C306 1.390 . S
C302 C296 1.465 . S
C302 C301 1.396 . S
C302 C303 1.399 . S
C303 H289 0.929 . S
C303 C302 1.399 . S
C303 C304 1.385 . S
C304 H290 0.931 . S
C304 C303 1.385 . S
C304 C305 1.389 . S
C305 C304 1.389 . S
C305 C306 1.387 . S
C306 H291 0.930 . S
C306 C301 1.390 . S
C306 C305 1.387 . S
H307 C319 0.930 . S
H308 C321 0.930 . S
H309 C322 0.930 . S
H310 C326 0.959 . S
H311 C326 0.959 . S
H312 C326 0.961 . S
H313 C327 0.960 . S
H314 C327 0.961 . S
H315 C327 0.959 . S
H316 C330 0.929 . S
H317 C331 0.931 . S
H318 C333 0.930 . S
C319 H307 0.930 . S
C319 C320 1.399 . S
C319 C324 1.399 . S
C320 C319 1.399 . S
C320 C321 1.376 . S
C321 H308 0.930 . S
C321 C320 1.376 . S
C321 C322 1.388 . S
C322 H309 0.930 . S
C322 C321 1.388 . S
C322 C323 1.390 . S
C323 C322 1.390 . S
C323 C324 1.394 . S
C323 C329 1.465 . S
C324 C319 1.399 . S
C324 C323 1.394 . S
C324 C325 1.516 . S
C325 C324 1.516 . S
C325 C326 1.502 . S
C325 C327 1.561 . S
C325 C328 1.526 . S
C326 H310 0.959 . S
C326 H311 0.959 . S
C326 H312 0.961 . S
C326 C325 1.502 . S
C327 H313 0.960 . S
C327 H314 0.961 . S
C327 H315 0.959 . S
C327 C325 1.561 . S
C328 C325 1.526 . S
C328 C329 1.396 . S
C328 C333 1.390 . S
C329 C323 1.465 . S
C329 C328 1.396 . S
C329 C330 1.399 . S
C330 H316 0.929 . S
C330 C329 1.399 . S
C330 C331 1.385 . S
C331 H317 0.931 . S
C331 C330 1.385 . S
C331 C332 1.389 . S
C332 C331 1.389 . S
C332 C333 1.387 . S
C333 H318 0.930 . S
C333 C328 1.390 . S
C333 C332 1.387 . S
H334 C346 0.930 . S
H335 C348 0.930 . S
H336 C349 0.930 . S
H337 C353 0.959 . S
H338 C353 0.959 1_455 S
H339 C353 0.961 . S
H340 C354 0.960 . S
H341 C354 0.961 . S
H342 C354 0.959 . S
H343 C357 0.929 . S
H344 C358 0.931 . S
H345 C360 0.930 . S
C346 H334 0.930 . S
C346 C347 1.399 . S
C346 C351 1.399 . S
C347 C346 1.399 . S
C347 C348 1.376 . S
C348 H335 0.930 . S
C348 C347 1.376 . S
C348 C349 1.388 . S
C349 H336 0.930 . S
C349 C348 1.388 . S
C349 C350 1.390 . S
C350 C349 1.390 . S
C350 C351 1.394 . S
C350 C356 1.465 1_655 S
C351 C346 1.399 . S
C351 C350 1.394 . S
C351 C352 1.522 . S
C352 C351 1.522 . S
C352 C353 1.502 . S
C352 C354 1.561 1_655 S
C352 C355 1.520 1_655 S
C353 H337 0.959 . S
C353 H338 0.959 1_655 S
C353 H339 0.961 . S
C353 C352 1.502 . S
C354 H340 0.960 . S
C354 H341 0.961 . S
C354 H342 0.959 . S
C354 C352 1.561 1_455 S
C355 C352 1.520 1_455 S
C355 C356 1.396 . S
C355 C360 1.390 . S
C356 C350 1.465 1_455 S
C356 C355 1.396 . S
C356 C357 1.399 . S
C357 H343 0.929 . S
C357 C356 1.399 . S
C357 C358 1.385 . S
C358 H344 0.931 . S
C358 C357 1.385 . S
C358 C359 1.389 . S
C359 C358 1.389 . S
C359 C360 1.387 . S
C360 H345 0.930 . S
C360 C355 1.390 . S
C360 C359 1.387 . S
H361 C373 0.930 . S
H362 C375 0.930 . S
H363 C376 0.930 . S
H364 C380 0.959 . S
H365 C380 0.959 . S
H366 C380 0.961 . S
H367 C381 0.960 1_655 S
H368 C381 0.961 . S
H369 C381 0.959 1_655 S
H370 C384 0.929 . S
H371 C385 0.931 . S
H372 C387 0.930 . S
C373 H361 0.930 . S
C373 C374 1.399 . S
C373 C378 1.399 . S
C374 C373 1.399 . S
C374 C375 1.376 . S
C375 H362 0.930 . S
C375 C374 1.376 . S
C375 C376 1.388 . S
C376 H363 0.930 . S
C376 C375 1.388 . S
C376 C377 1.390 . S
C377 C376 1.390 . S
C377 C378 1.394 . S
C377 C383 1.465 1_655 S
C378 C373 1.399 . S
C378 C377 1.394 . S
C378 C379 1.516 1_655 S
C379 C378 1.516 1_455 S
C379 C380 1.502 . S
C379 C381 1.561 . S
C379 C382 1.526 . S
C380 H364 0.959 . S
C380 H365 0.959 . S
C380 H366 0.961 . S
C380 C379 1.502 . S
C381 H367 0.960 1_455 S
C381 H368 0.961 . S
C381 H369 0.959 1_455 S
C381 C379 1.561 . S
C382 C379 1.526 . S
C382 C383 1.396 . S
C382 C387 1.390 . S
C383 C377 1.465 1_455 S
C383 C382 1.396 . S
C383 C384 1.399 . S
C384 H370 0.929 . S
C384 C383 1.399 . S
C384 C385 1.385 . S
C385 H371 0.931 . S
C385 C384 1.385 . S
C385 C386 1.389 . S
C386 C385 1.389 . S
C386 C387 1.387 . S
C387 H372 0.930 . S
C387 C382 1.390 . S
C387 C386 1.387 . S
H388 C400 0.930 . S
H389 C402 0.930 . S
H390 C403 0.930 . S
H391 C407 0.959 . S
H392 C407 0.959 . S
H393 C407 0.961 . S
H394 C408 0.960 . S
H395 C408 0.961 . S
H396 C408 0.959 . S
H397 C411 0.929 . S
H398 C412 0.931 . S
H399 C414 0.930 . S
C400 H388 0.930 . S
C400 C401 1.399 . S
C400 C405 1.399 . S
C401 C400 1.399 . S
C401 C402 1.376 . S
C402 H389 0.930 . S
C402 C401 1.376 . S
C402 C403 1.388 . S
C403 H390 0.930 . S
C403 C402 1.388 . S
C403 C404 1.390 . S
C404 C403 1.390 . S
C404 C405 1.394 . S
C404 C410 1.465 . S
C405 C400 1.399 . S
C405 C404 1.394 . S
C405 C406 1.516 . S
C406 C405 1.516 . S
C406 C407 1.502 . S
C406 C408 1.561 . S
C406 C409 1.526 . S
C407 H391 0.959 . S
C407 H392 0.959 . S
C407 H393 0.961 . S
C407 C406 1.502 . S
C408 H394 0.960 . S
C408 H395 0.961 . S
C408 H396 0.959 . S
C408 C406 1.561 . S
C409 C406 1.526 . S
C409 C410 1.396 . S
C409 C414 1.390 . S
C410 C404 1.465 . S
C410 C409 1.396 . S
C410 C411 1.399 . S
C411 H397 0.929 . S
C411 C410 1.399 . S
C411 C412 1.385 . S
C412 H398 0.931 . S
C412 C411 1.385 . S
C412 C413 1.389 . S
C413 C412 1.389 . S
C413 C414 1.387 . S
C414 H399 0.930 . S
C414 C409 1.390 . S
C414 C413 1.387 . S
H415 C427 0.930 . S
H416 C429 0.930 . S
H417 C430 0.930 . S
H418 C434 0.959 . S
H419 C434 0.959 . S
H420 C434 0.961 . S
H421 C435 0.960 . S
H422 C435 0.961 . S
H423 C435 0.959 . S
H424 C438 0.929 . S
H425 C439 0.931 . S
H426 C441 0.930 . S
C427 H415 0.930 . S
C427 C428 1.399 . S
C427 C432 1.399 . S
C428 C427 1.399 . S
C428 C429 1.376 . S
C429 H416 0.930 . S
C429 C428 1.376 . S
C429 C430 1.388 . S
C430 H417 0.930 . S
C430 C429 1.388 . S
C430 C431 1.390 . S
C431 C430 1.390 . S
C431 C432 1.394 . S
C431 C437 1.465 . S
C432 C427 1.399 . S
C432 C431 1.394 . S
C432 C433 1.516 1_556 S
C433 C432 1.516 1_554 S
C433 C434 1.502 . S
C433 C435 1.561 . S
C433 C436 1.526 . S
C434 H418 0.959 . S
C434 H419 0.959 . S
C434 H420 0.961 . S
C434 C433 1.502 . S
C435 H421 0.960 . S
C435 H422 0.961 . S
C435 H423 0.959 . S
C435 C433 1.561 . S
C436 C433 1.526 . S
C436 C437 1.396 1_554 S
C436 C441 1.390 . S
C437 C431 1.465 . S
C437 C436 1.396 1_556 S
C437 C438 1.399 . S
C438 H424 0.929 . S
C438 C437 1.399 . S
C438 C439 1.385 1_556 S
C439 H425 0.931 . S
C439 C438 1.385 1_554 S
C439 C440 1.389 . S
C440 C439 1.389 . S
C440 C441 1.387 . S
C441 H426 0.930 . S
C441 C436 1.390 . S
C441 C440 1.387 . S
H442 C454 0.930 . S
H443 C456 0.930 . S
H444 C457 0.930 . S
H445 C461 0.959 . S
H446 C461 0.959 . S
H447 C461 0.961 . S
H448 C462 0.960 . S
H449 C462 0.961 . S
H450 C462 0.959 . S
H451 C465 0.929 . S
H452 C466 0.931 . S
H453 C468 0.930 . S
C454 H442 0.930 . S
C454 C455 1.399 . S
C454 C459 1.399 . S
C455 C454 1.399 . S
C455 C456 1.376 . S
C456 H443 0.930 . S
C456 C455 1.376 . S
C456 C457 1.388 . S
C457 H444 0.930 . S
C457 C456 1.388 . S
C457 C458 1.390 . S
C458 C457 1.390 . S
C458 C459 1.394 . S
C458 C464 1.465 . S
C459 C454 1.399 . S
C459 C458 1.394 . S
C459 C460 1.516 . S
C460 C459 1.516 . S
C460 C461 1.502 . S
C460 C462 1.561 . S
C460 C463 1.526 . S
C461 H445 0.959 . S
C461 H446 0.959 . S
C461 H447 0.961 . S
C461 C460 1.502 . S
C462 H448 0.960 . S
C462 H449 0.961 . S
C462 H450 0.959 . S
C462 C460 1.561 . S
C463 C460 1.526 . S
C463 C464 1.396 . S
C463 C468 1.390 . S
C464 C458 1.465 . S
C464 C463 1.396 . S
C464 C465 1.399 . S
C465 H451 0.929 . S
C465 C464 1.399 . S
C465 C466 1.385 . S
C466 H452 0.931 . S
C466 C465 1.385 . S
C466 C467 1.389 . S
C467 C466 1.389 . S
C467 C468 1.387 . S
C468 H453 0.930 . S
C468 C463 1.390 . S
C468 C467 1.387 . S
H469 C481 0.930 . S
H470 C483 0.930 . S
H471 C484 0.930 . S
H472 C488 0.959 . S
H473 C488 0.959 . S
H474 C488 0.961 . S
H475 C489 0.960 . S
H476 C489 0.961 . S
H477 C489 0.959 1_554 S
H478 C492 0.929 1_554 S
H479 C493 0.931 . S
H480 C495 0.930 . S
C481 H469 0.930 . S
C481 C482 1.399 . S
C481 C486 1.399 . S
C482 C481 1.399 . S
C482 C483 1.376 . S
C483 H470 0.930 . S
C483 C482 1.376 . S
C483 C484 1.388 . S
C484 H471 0.930 . S
C484 C483 1.388 . S
C484 C485 1.390 . S
C485 C484 1.390 . S
C485 C486 1.394 . S
C485 C491 1.465 1_554 S
C486 C481 1.399 . S
C486 C485 1.394 . S
C486 C487 1.516 1_554 S
C487 C486 1.516 1_556 S
C487 C488 1.502 . S
C487 C489 1.561 . S
C487 C490 1.526 . S
C488 H472 0.959 . S
C488 H473 0.959 . S
C488 H474 0.961 . S
C488 C487 1.502 . S
C489 H475 0.960 . S
C489 H476 0.961 . S
C489 H477 0.959 1_556 S
C489 C487 1.561 . S
C490 C487 1.526 . S
C490 C491 1.396 . S
C490 C495 1.390 . S
C491 C485 1.465 1_556 S
C491 C490 1.396 . S
C491 C492 1.399 . S
C492 H478 0.929 1_556 S
C492 C491 1.399 . S
C492 C493 1.385 . S
C493 H479 0.931 . S
C493 C492 1.385 . S
C493 C494 1.389 . S
C494 C493 1.389 . S
C494 C495 1.387 . S
C495 H480 0.930 . S
C495 C490 1.390 . S
C495 C494 1.387 . S
H496 C508 0.930 . S
H497 C510 0.930 . S
H498 C511 0.930 1_565 S
H499 C515 0.959 1_565 S
H500 C515 0.959 . S
H501 C515 0.961 . S
H502 C516 0.960 . S
H503 C516 0.961 . S
H504 C516 0.959 1_455 S
H505 C519 0.929 . S
H506 C520 0.931 . S
H507 C522 0.930 1_655 S
C508 H496 0.930 . S
C508 C509 1.399 . S
C508 C513 1.399 . S
C509 C508 1.399 . S
C509 C510 1.376 1_655 S
C510 H497 0.930 . S
C510 C509 1.376 1_455 S
C510 C511 1.388 . S
C511 H498 0.930 1_545 S
C511 C510 1.388 . S
C511 C512 1.391 . S
C512 C511 1.391 . S
C512 C513 1.419 1_455 S
C512 C518 1.443 1_545 S
C513 C508 1.399 . S
C513 C512 1.419 1_655 S
C513 C514 1.516 1_554 S
C514 C513 1.516 1_556 S
C514 C515 1.502 . S
C514 C516 1.561 . S
C514 C517 1.526 1_545 S
C515 H499 0.959 1_545 S
C515 H500 0.959 . S
C515 H501 0.961 . S
C515 C514 1.502 . S
C516 H502 0.960 . S
C516 H503 0.961 . S
C516 H504 0.959 1_655 S
C516 C514 1.561 . S
C517 C514 1.526 1_565 S
C517 C518 1.396 1_656 S
C517 C522 1.390 1_655 S
C518 C512 1.443 1_565 S
C518 C517 1.396 1_454 S
C518 C519 1.399 . S
C519 H505 0.929 . S
C519 C518 1.399 . S
C519 C520 1.385 1_554 S
C520 H506 0.931 . S
C520 C519 1.385 1_556 S
C520 C521 1.389 . S
C521 C520 1.389 . S
C521 C522 1.387 . S
C522 H507 0.930 1_455 S
C522 C517 1.390 1_455 S
C522 C521 1.387 . S
H523 C535 0.930 . S
H524 C537 0.930 . S
H525 C538 0.930 . S
H526 C542 0.959 . S
H527 C542 0.959 . S
H528 C542 0.961 . S
H529 C543 0.960 . S
H530 C543 0.961 . S
H531 C543 0.959 . S
H532 C546 0.929 . S
H533 C547 0.931 . S
H534 C549 0.930 . S
C535 H523 0.930 . S
C535 C536 1.399 . S
C535 C540 1.399 . S
C536 C535 1.399 . S
C536 C537 1.376 . S
C537 H524 0.930 . S
C537 C536 1.376 . S
C537 C538 1.388 1_545 S
C538 H525 0.930 . S
C538 C537 1.388 1_565 S
C538 C539 1.390 . S
C539 C538 1.390 . S
C539 C540 1.394 1_565 S
C539 C545 1.465 1_455 S
C540 C535 1.399 . S
C540 C539 1.394 1_545 S
C540 C541 1.516 1_455 S
C541 C540 1.516 1_655 S
C541 C542 1.502 1_655 S
C541 C543 1.561 . S
C541 C544 1.526 1_545 S
C542 H526 0.959 . S
C542 H527 0.959 . S
C542 H528 0.961 . S
C542 C541 1.502 1_455 S
C543 H529 0.960 . S
C543 H530 0.961 . S
C543 H531 0.959 . S
C543 C541 1.561 . S
C544 C541 1.526 1_565 S
C544 C545 1.396 . S
C544 C549 1.390 . S
C545 C539 1.465 1_655 S
C545 C544 1.396 . S
C545 C546 1.399 . S
C546 H532 0.929 . S
C546 C545 1.399 . S
C546 C547 1.385 . S
C547 H533 0.931 . S
C547 C546 1.385 . S
C547 C548 1.389 . S
C548 C547 1.389 . S
C548 C549 1.387 . S
C549 H534 0.930 . S
C549 C544 1.390 . S
C549 C548 1.387 . S
H550 C562 0.930 . S
H551 C564 0.930 . S
H552 C565 0.930 . S
H553 C569 0.959 . S
H554 C569 0.959 . S
H555 C569 0.961 . S
H556 C570 0.960 . S
H557 C570 0.961 . S
H558 C570 0.959 . S
H559 C573 0.929 . S
H560 C574 0.931 . S
H561 C576 0.930 . S
C562 H550 0.930 . S
C562 C563 1.399 . S
C562 C567 1.399 . S
C563 C562 1.399 . S
C563 C564 1.376 . S
C564 H551 0.930 . S
C564 C563 1.376 . S
C564 C565 1.388 . S
C565 H552 0.930 . S
C565 C564 1.388 . S
C565 C566 1.390 . S
C566 C565 1.390 . S
C566 C567 1.394 . S
C566 C572 1.465 1_554 S
C567 C562 1.399 . S
C567 C566 1.394 . S
C567 C568 1.516 1_554 S
C568 C567 1.516 1_556 S
C568 C569 1.502 . S
C568 C570 1.561 . S
C568 C571 1.526 . S
C569 H553 0.959 . S
C569 H554 0.959 . S
C569 H555 0.961 . S
C569 C568 1.502 . S
C570 H556 0.960 . S
C570 H557 0.961 . S
C570 H558 0.959 . S
C570 C568 1.561 . S
C571 C568 1.526 . S
C571 C572 1.396 . S
C571 C576 1.390 . S
C572 C566 1.465 1_556 S
C572 C571 1.396 . S
C572 C573 1.399 1_556 S
C573 H559 0.929 . S
C573 C572 1.399 1_554 S
C573 C574 1.385 1_554 S
C574 H560 0.931 . S
C574 C573 1.385 1_556 S
C574 C575 1.389 . S
C575 C574 1.389 . S
C575 C576 1.387 . S
C576 H561 0.930 . S
C576 C571 1.390 . S
C576 C575 1.387 . S
H577 C589 0.930 . S
H578 C591 0.930 . S
H579 C592 0.930 . S
H580 C596 0.959 . S
H581 C596 0.959 . S
H582 C596 0.961 . S
H583 C597 0.960 . S
H584 C597 0.961 . S
H585 C597 0.959 . S
H586 C600 0.929 . S
H587 C601 0.931 . S
H588 C603 0.930 . S
C589 H577 0.930 . S
C589 C590 1.399 . S
C589 C594 1.399 . S
C590 C589 1.399 . S
C590 C591 1.376 . S
C591 H578 0.930 . S
C591 C590 1.376 . S
C591 C592 1.388 . S
C592 H579 0.930 . S
C592 C591 1.388 . S
C592 C593 1.390 . S
C593 C592 1.390 . S
C593 C594 1.394 . S
C593 C599 1.465 . S
C594 C589 1.399 . S
C594 C593 1.394 . S
C594 C595 1.516 . S
C595 C594 1.516 . S
C595 C596 1.502 . S
C595 C597 1.561 . S
C595 C598 1.526 . S
C596 H580 0.959 . S
C596 H581 0.959 . S
C596 H582 0.961 . S
C596 C595 1.502 . S
C597 H583 0.960 . S
C597 H584 0.961 . S
C597 H585 0.959 . S
C597 C595 1.561 . S
C598 C595 1.526 . S
C598 C599 1.396 . S
C598 C603 1.390 . S
C599 C593 1.465 . S
C599 C598 1.396 . S
C599 C600 1.399 . S
C600 H586 0.929 . S
C600 C599 1.399 . S
C600 C601 1.385 . S
C601 H587 0.931 . S
C601 C600 1.385 . S
C601 C602 1.389 . S
C602 C601 1.389 . S
C602 C603 1.387 . S
C603 H588 0.930 . S
C603 C598 1.390 . S
C603 C602 1.387 . S
C185 N3 1.177 . S
C197 N8 1.198 . S
C212 N46 1.191 . S
C224 N51 1.209 . S
C239 N89 1.194 . S
C251 N94 1.196 . S
C266 N137 1.231 . S
C278 N132 1.134 . S
C293 C40 1.191 . S
C305 C27 1.198 . S
C320 C83 1.232 . S
C332 C70 1.165 . S
C347 C113 1.206 . S
C359 C126 1.192 . S
C374 C156 1.146 . S
C386 C169 1.243 . S
C401 C162 1.507 . S
C413 C32 1.540 . S
C428 C142 1.573 . S
C440 C39 1.504 . S
C455 C118 1.505 . S
C467 C76 1.545 . S
C482 C125 1.586 . S
C494 C56 1.530 . S
C509 C33 1.816 . S
C521 C75 1.816 . S
C536 C13 1.860 . S
C548 C82 1.806 . S
C563 C119 1.792 . S
C575 C161 1.841 . S
C590 C168 1.832 . S
C602 C99 1.868 . S
