# Generated by pormake.
# Topology snp, (6)-cn, num edge types: 1
# Building blocks:
#     Node 0, Type 0, BuildingBlock: GEDQOX_clean_sbu_0, # of connection points: 6
#     Node 1, Type 0, BuildingBlock: GEDQOX_clean_sbu_0, # of connection points: 6
#     Node 2, Type 0, BuildingBlock: GEDQOX_clean_sbu_0, # of connection points: 6
#     Node 3, Type 0, BuildingBlock: GEDQOX_clean_sbu_0, # of connection points: 6
#     Edge 4, Type (0, 0), BuildingBlock: EZIPEK_clean_linker_0, # of connection points: 2
#     Edge 5, Type (0, 0), BuildingBlock: EZIPEK_clean_linker_0, # of connection points: 2
#     Edge 6, Type (0, 0), BuildingBlock: EZIPEK_clean_linker_0, # of connection points: 2
#     Edge 7, Type (0, 0), BuildingBlock: EZIPEK_clean_linker_0, # of connection points: 2
#     Edge 8, Type (0, 0), BuildingBlock: EZIPEK_clean_linker_0, # of connection points: 2
#     Edge 9, Type (0, 0), BuildingBlock: EZIPEK_clean_linker_0, # of connection points: 2
#     Edge 10, Type (0, 0), BuildingBlock: EZIPEK_clean_linker_0, # of connection points: 2
#     Edge 11, Type (0, 0), BuildingBlock: EZIPEK_clean_linker_0, # of connection points: 2
#     Edge 12, Type (0, 0), BuildingBlock: EZIPEK_clean_linker_0, # of connection points: 2
#     Edge 13, Type (0, 0), BuildingBlock: EZIPEK_clean_linker_0, # of connection points: 2
#     Edge 14, Type (0, 0), BuildingBlock: EZIPEK_clean_linker_0, # of connection points: 2
#     Edge 15, Type (0, 0), BuildingBlock: EZIPEK_clean_linker_0, # of connection points: 2
# Relax obj value: 0.230
# Max RMSD: 0.252
# Mean RMSD: 0.236
data_MOF--net-snp--node1-GEDQOX_clean_sbu_0--edge1-EZIPEK_clean_linker_0
_symmetry_space_group_name_H-M    P1
_symmetry_Int_Tables_number       1
_symmetry_cell_setting            triclinic
loop_
_symmetry_equiv_pos_as_xyz
'x, y, z'
_cell_length_a     19.271137
_cell_length_b     18.806801
_cell_length_c     28.69923
_cell_angle_alpha  81.756974
_cell_angle_beta   107.63768
_cell_angle_gamma 99.244646
loop_
_atom_site_label
_atom_site_type_symbol
_atom_site_fract_x
_atom_site_fract_y
_atom_site_fract_z
_atom_type_partial_charge
Nd0 Nd 0.28234 0.97288 0.11369 0.0
Nd1 Nd 0.28663 0.12238 0.15429 0.0
C2 C 0.31495 0.87799 0.06707 0.0
C3 C 0.28601 0.86046 1.01596 0.0
C4 C 0.22561 0.89246 0.98419 0.0
C5 C 0.19937 0.87832 0.93503 0.0
C6 C 0.2332 0.83198 0.91705 0.0
C7 C 0.29335 0.79964 0.94881 0.0
C8 C 0.31977 0.81398 0.99808 0.0
C9 C 0.15611 -0.01234 0.13136 0.0
C10 C 0.2431 0.124 1.03579 0.0
C11 C 0.26985 0.22588 0.202 0.0
C12 C 0.25836 0.23336 0.2494 0.0
C13 C 0.22844 0.17438 0.27632 0.0
C14 C 0.22176 0.18238 0.32255 0.0
C15 C 0.2448 0.2494 0.34217 0.0
C16 C 0.27388 0.30825 0.31496 0.0
C17 C 0.2806 0.30025 0.26894 0.0
C18 C 0.41709 0.0871 0.14843 0.0
C19 C 0.30682 0.97533 0.23086 0.0
O20 O 0.35194 0.94265 0.0728 0.0
O21 O 0.26902 0.86106 0.09379 0.0
O22 O 0.17047 0.92578 0.12381 0.0
O23 O 0.19871 0.03882 0.11673 0.0
O24 O 0.25264 0.05431 0.04318 0.0
O25 O 0.25259 0.16311 0.07255 0.0
O26 O 0.21555 0.19205 0.16998 0.0
O27 O 0.33392 0.2087 0.2041 0.0
O28 O 0.40167 0.15343 0.14041 0.0
O29 O 0.3674 0.04586 0.16154 0.0
O30 O 0.27692 0.03629 0.21788 0.0
O31 O 0.32542 0.9439 0.19839 0.0
H32 H 0.199 0.92864 0.9974 0.0
H33 H 0.1528 0.90352 0.91097 0.0
H34 H 0.31991 0.7637 0.93536 0.0
H35 H 0.36665 0.78922 1.02208 0.0
H36 H 0.21127 0.12214 0.26196 0.0
H37 H 0.19969 0.13626 0.34328 0.0
H38 H 0.29222 0.36016 0.3297 0.0
H39 H 0.3041 0.34616 0.24881 0.0
Nd40 Nd 0.12231 0.27897 0.7167 0.0
Nd41 Nd 0.97117 0.23526 0.74023 0.0
C42 C 0.22424 0.34199 0.67551 0.0
C43 C 0.23605 0.3309 0.62844 0.0
C44 C 0.22506 0.38556 0.58892 0.0
C45 C 0.22787 0.37246 0.54272 0.0
C46 C 0.2412 0.30431 0.5352 0.0
C47 C 0.2538 0.25023 0.57479 0.0
C48 C 0.25185 0.2635 0.62101 0.0
C49 C 0.07494 0.13354 0.71898 0.0
C50 C 0.96702 0.25551 0.62434 0.0
C51 C 0.86248 0.17249 0.77576 0.0
C52 C 0.85024 0.16867 0.82417 0.0
C53 C 0.90105 0.20689 0.86131 0.0
C54 C 0.89316 0.19838 0.90869 0.0
C55 C 0.83414 0.15182 0.91932 0.0
C56 C 0.78167 0.11596 0.88168 0.0
C57 C 0.78977 0.12429 0.8343 0.0
C58 C 0.01289 0.38092 0.72668 0.0
C59 C 0.12864 0.23607 0.83051 0.0
O60 O 0.16555 0.37183 0.67189 0.0
O61 O 0.23512 0.28831 0.71045 0.0
O62 O 0.14353 0.16033 0.73342 0.0
O63 O 0.03536 0.18372 0.70333 0.0
O64 O 0.03795 0.27944 0.63938 0.0
O65 O 0.92866 0.23137 0.65608 0.0
O66 O 0.91591 0.13841 0.77438 0.0
O67 O 0.86242 0.23656 0.75103 0.0
O68 O 0.94563 0.35316 0.72264 0.0
O69 O 0.05456 0.33325 0.74725 0.0
O70 O 0.0578 0.21266 0.81477 0.0
O71 O 0.16539 0.27384 0.80096 0.0
H72 H 0.21257 0.43783 0.5935 0.0
H73 H 0.21824 0.41493 0.51257 0.0
H74 H 0.26433 0.1974 0.56971 0.0
H75 H 0.26055 0.21999 0.65047 0.0
H76 H 0.94795 0.24154 0.85397 0.0
H77 H 0.93458 0.22563 0.93749 0.0
H78 H 0.73647 0.07899 0.88959 0.0
H79 H 0.75016 0.09443 0.80604 0.0
Nd80 Nd 0.79696 0.89552 0.18454 0.0
Nd81 Nd 0.82534 0.04142 0.23222 0.0
C82 C 0.79954 0.78974 0.13342 0.0
C83 C 0.81509 0.78017 0.08754 0.0
C84 C 0.81526 0.83759 0.05033 0.0
C85 C 0.82628 0.82619 1.00601 0.0
C86 C 0.83698 0.75717 0.99828 0.0
C87 C 0.83811 0.7002 1.0358 0.0
C88 C 0.82739 0.71169 0.08012 0.0
C89 C 0.67553 0.94713 0.1923 0.0
C90 C 0.81372 0.04894 0.11478 0.0
C91 C 0.80987 0.15686 0.26832 0.0
C92 C 0.83249 0.17802 0.31882 0.0
C93 C 0.78347 0.20799 0.33569 0.0
C94 C 0.80165 0.222 0.38485 0.0
C95 C 0.86931 0.20656 0.41767 0.0
C96 C 0.9185 0.17694 0.40081 0.0
C97 C 0.9002 0.16256 0.35182 0.0
C98 C 0.9516 -0.01221 0.23737 0.0
C99 C 0.83657 0.88606 0.30361 0.0
O100 O 0.85543 0.81259 0.16944 0.0
O101 O 0.74055 0.81954 0.12863 0.0
O102 O 0.68175 0.8783 0.19779 0.0
O103 O 0.7299 -0.01701 0.18155 0.0
O104 O 0.80136 -0.02243 0.11862 0.0
O105 O 0.82341 0.08729 0.15228 0.0
O106 O 0.75866 0.10121 0.2601 0.0
O107 O 0.86253 0.15523 0.24838 0.0
O108 O 0.94472 0.02232 0.27159 0.0
O109 O 0.89261 -0.01603 0.2029 0.0
O110 O 0.82431 0.95465 0.2983 0.0
O111 O 0.83286 0.85205 0.26562 0.0
H112 H 0.8054 0.89072 0.05508 0.0
H113 H 0.82475 0.87067 0.97734 0.0
H114 H 0.84591 0.64654 1.03036 0.0
H115 H 0.82732 0.66669 0.10829 0.0
H116 H 0.73056 0.21923 0.31104 0.0
H117 H 0.76292 0.24447 0.39741 0.0
H118 H 0.97039 0.1636 0.42586 0.0
H119 H 0.93839 0.138 0.34004 0.0
Nd120 Nd 0.10776 0.79677 0.59555 0.0
Nd121 Nd 0.96196 0.7339 0.62202 0.0
C122 C 0.20779 0.87182 0.55607 0.0
C123 C 0.22576 0.87747 0.50886 0.0
C124 C 0.17796 0.90398 0.4643 0.0
C125 C 0.19764 0.91147 0.42056 0.0
C126 C 0.26496 0.89203 0.42057 0.0
C127 C 0.31181 0.86371 0.4646 0.0
C128 C 0.2925 0.8568 0.50841 0.0
C129 C 0.08727 0.65005 0.61447 0.0
C130 C 0.94862 0.77414 0.50744 0.0
C131 C 0.87052 0.65979 0.66828 0.0
C132 C 0.86149 0.6686 0.71676 0.0
C133 C 0.90046 0.6301 0.7601 0.0
C134 C 0.89743 0.64376 0.80614 0.0
C135 C 0.85548 0.69616 0.80975 0.0
C136 C 0.81563 0.73378 0.76667 0.0
C137 C 0.81828 0.71996 0.72069 0.0
C138 C 0.98923 0.88176 0.61477 0.0
C139 C 0.11537 0.77796 0.71175 0.0
O140 O 0.14804 0.89709 0.55574 0.0
O141 O 0.21825 0.81113 0.58437 0.0
O142 O 0.15136 0.68652 0.61839 0.0
O143 O 0.03779 0.6895 0.59201 0.0
O144 O 0.01712 0.80558 0.52159 0.0
O145 O 0.91641 0.73297 0.53835 0.0
O146 O 0.93156 0.63665 0.66894 0.0
O147 O 0.85144 0.71187 0.63313 0.0
O148 O 0.9238 0.84655 0.60147 0.0
O149 O 0.03593 0.83822 0.63168 0.0
O150 O 0.04708 0.74556 0.69819 0.0
O151 O 0.1501 0.80763 0.67883 0.0
H152 H 0.12594 0.92001 0.46325 0.0
H153 H 0.16115 0.93397 0.38689 0.0
H154 H 0.36428 0.84915 0.46528 0.0
H155 H 0.33031 0.83627 0.54216 0.0
H156 H 0.93435 0.59031 0.75851 0.0
H157 H 0.92828 0.61393 0.83901 0.0
H158 H 0.78269 0.77417 0.76872 0.0
H159 H 0.78759 0.75074 0.68827 0.0
C160 C 0.03163 0.06043 0.18969 0.0
C161 C 0.02083 0.00098 0.22395 0.0
C162 C 0.10978 0.93966 0.20589 0.0
C163 C 0.11288 -0.00588 0.16553 0.0
N164 N 0.06904 0.10261 0.11651 0.0
N165 N 0.07212 0.90487 0.28039 0.0
C166 C 0.07366 0.05491 0.15773 0.0
C167 C 0.06663 0.94664 0.23672 0.0
N168 N 1.0008 0.12173 0.18765 0.0
N169 N 0.14517 0.87967 0.21434 0.0
H170 H 0.04505 0.91499 0.30477 0.0
H171 H 0.1098 0.86783 0.29517 0.0
H172 H 0.18698 0.87426 0.19994 0.0
H173 H 0.13231 0.83335 0.2363 0.0
H174 H 0.012 0.16996 0.16691 0.0
H175 H 0.97008 0.12659 0.21106 0.0
H176 H 0.03573 0.14393 0.10638 0.0
H177 H 0.09096 0.09575 0.08879 0.0
C178 C 0.99436 0.94462 0.68698 0.0
C179 C 1.00116 0.94824 0.63853 0.0
C180 C 0.06106 0.07193 0.64446 0.0
C181 C 0.05463 0.06834 0.693 0.0
N182 N 0.0147 0.00183 0.76056 0.0
N183 N 0.0365 0.01631 0.56977 0.0
C184 C 0.02084 0.0051 0.71404 0.0
C185 C 0.03276 0.01222 0.61693 0.0
N186 N 0.96432 0.8836 0.70915 0.0
N187 N 0.09401 0.13171 0.62304 0.0
H188 H 0.01449 0.9741 0.54755 0.0
H189 H 0.05981 0.06273 0.55264 0.0
H190 H 0.11816 0.17853 0.64009 0.0
H191 H 0.11816 0.17853 0.64009 0.0
H192 H 0.94293 0.83563 0.69287 0.0
H193 H 0.94293 0.83563 0.69287 0.0
H194 H 0.98999 0.95589 0.77726 0.0
H195 H 0.03494 0.04459 0.78246 0.0
C196 C 0.57592 0.01014 0.13047 0.0
C197 C 0.60527 -0.02204 0.17926 0.0
C198 C 0.52541 0.03838 0.20808 0.0
C199 C 0.49093 0.06458 0.15909 0.0
N200 N 0.48265 0.07871 0.07335 0.0
N201 N 0.59828 0.94961 0.26216 0.0
C202 C 0.51653 0.05195 0.12015 0.0
C203 C 0.57694 -0.01154 0.21738 0.0
N204 N 0.60472 0.00014 0.09415 0.0
N205 N 0.51067 0.06402 0.24575 0.0
H206 H 0.63325 0.91011 0.26876 0.0
H207 H 0.57522 0.95066 0.29048 0.0
H208 H 0.47778 0.10541 0.23927 0.0
H209 H 0.53767 0.05129 0.28268 0.0
H210 H 0.59266 0.02864 0.0594 0.0
H211 H 0.6422 0.96345 0.09906 0.0
H212 H 0.49182 0.06515 0.04201 0.0
H213 H 0.44377 0.11457 0.06611 0.0
C214 C 0.10159 0.49203 0.71663 0.0
C215 C 0.03391 0.44865 0.69729 0.0
C216 C 0.01151 0.53075 0.62065 0.0
C217 C 0.07381 0.57857 0.64224 0.0
N218 N 0.17544 0.60819 0.7141 0.0
N219 N 0.9208 0.43102 0.63031 0.0
C220 C 0.11907 0.55974 0.69071 0.0
C221 C 0.98747 0.46967 0.64955 0.0
N222 N 0.14862 0.47005 0.7608 0.0
N223 N 0.97792 0.54068 0.57114 0.0
H224 H 0.90601 0.37721 0.64129 0.0
H225 H 0.87969 0.45292 0.60163 0.0
H226 H 0.99702 0.58138 0.54766 0.0
H227 H 0.93632 0.50392 0.55209 0.0
H228 H 0.20385 0.49087 0.77209 0.0
H229 H 0.134 0.42901 0.78577 0.0
H230 H 0.20535 0.59999 0.75086 0.0
H231 H 0.18819 0.66082 0.69993 0.0
C232 C 0.17426 0.28215 0.4473 0.0
C233 C 0.24121 0.2888 0.48572 0.0
C234 C 0.30691 0.25735 0.43194 0.0
C235 C 0.24177 0.25819 0.39219 0.0
N236 N 0.11466 0.27761 0.35983 0.0
N237 N 0.37313 0.29409 0.51277 0.0
C238 C 0.17562 0.27223 0.39927 0.0
C239 C 0.30807 0.27922 0.4776 0.0
N240 N 0.10932 0.28331 0.45716 0.0
N241 N 0.36733 0.23415 0.42628 0.0
H242 H 0.37645 0.31118 0.54647 0.0
H243 H 0.42418 0.2958 0.50697 0.0
H244 H 0.36861 0.21804 0.39327 0.0
H245 H 0.41381 0.22469 0.4553 0.0
H246 H 0.05811 0.27356 0.43186 0.0
H247 H 0.10602 0.28903 0.49202 0.0
H248 H 0.06697 0.29539 0.36123 0.0
H249 H 0.11322 0.26861 0.3245 0.0
C250 C 0.87241 0.07394 0.99837 0.0
C251 C 0.8336 0.13147 0.97109 0.0
C252 C 0.78362 0.13916 1.03919 0.0
C253 C 0.8254 0.08392 0.06747 0.0
N254 N 0.92123 0.00909 0.0776 0.0
N255 N 0.76289 0.2277 0.9674 0.0
C256 C 0.8734 0.0546 0.0481 0.0
C257 C 0.79273 0.1671 0.99222 0.0
N258 N 0.90657 0.03614 0.97623 0.0
N259 N 0.73192 0.16155 0.05561 0.0
H260 H 0.76733 0.24837 0.93254 0.0
H261 H 0.73894 0.26055 0.98281 0.0
H262 H 0.72267 0.14157 0.0893 0.0
H263 H 0.6941 0.1956 1.03425 0.0
H264 H 0.9271 -0.01243 0.99193 0.0
H265 H 0.90981 0.05006 0.94039 0.0
H266 H 0.96216 -0.00863 0.06704 0.0
H267 H 0.9252 -0.00591 0.11456 0.0
C268 C 0.93646 0.76897 0.41878 0.0
C269 C 0.90802 0.78852 0.4545 0.0
C270 C 0.82004 0.8549 0.38894 0.0
C271 C 0.85738 0.84668 0.35451 0.0
N272 N 0.95885 0.80032 0.33975 0.0
N273 N 0.8257 0.85538 0.47434 0.0
C274 C 0.91701 0.80397 0.37 0.0
C275 C 0.85007 0.83231 0.43976 0.0
N276 N 0.98209 0.71631 0.4316 0.0
N277 N 0.75426 0.8819 0.37295 0.0
H278 H 0.84389 0.83799 0.51161 0.0
H279 H 0.79095 0.89536 0.46637 0.0
H280 H 0.72905 0.896 0.33598 0.0
H281 H 0.72102 0.88261 0.39549 0.0
H282 H 0.99878 0.69393 0.40621 0.0
H283 H 0.99688 0.68957 0.467 0.0
H284 H 0.00813 0.77801 0.35165 0.0
H285 H 0.94909 0.82515 0.30407 0.0
C286 C 0.18378 0.86069 0.77767 0.0
C287 C 0.14777 0.79091 0.7646 0.0
C288 C 0.1601 0.75149 0.85202 0.0
C289 C 0.20495 0.81719 0.86477 0.0
N290 N 0.2694 0.93031 0.84041 0.0
N291 N 0.10954 0.66624 0.79144 0.0
C292 C 0.2201 0.87038 0.82778 0.0
C293 C 0.138 0.73527 0.80236 0.0
N294 N 0.17858 0.91936 0.74317 0.0
N295 N 0.13631 0.70557 0.88706 0.0
H296 H 0.09138 0.6508 0.756 0.0
H297 H 0.10967 0.62237 0.81812 0.0
H298 H 0.15187 0.71518 0.92394 0.0
H299 H 0.0959 0.66154 0.87882 0.0
H300 H 0.19732 0.97225 0.75204 0.0
H301 H 0.1475 0.9173 0.70667 0.0
H302 H 0.28828 0.96701 0.81477 0.0
H303 H 0.29636 0.93996 0.8768 0.0
C304 C 0.77946 0.70979 0.91594 0.0
C305 C 0.84224 0.743 0.94974 0.0
C306 C 0.91292 0.75006 0.89049 0.0
C307 C 0.85188 0.71113 0.85856 0.0
N308 N 0.73138 0.6431 0.84426 0.0
N309 N 0.97132 0.78695 0.97255 0.0
C310 C 0.78628 0.68804 0.87223 0.0
C311 C 0.90981 0.761 0.93794 0.0
N312 N 0.71272 0.70083 0.925 0.0
N313 N 0.97284 0.7786 0.87478 0.0
H314 H 0.97062 0.79701 1.00721 0.0
H315 H 0.02386 0.79364 0.96837 0.0
H316 H 0.97715 0.77163 0.84039 0.0
H317 H 0.01594 0.81374 0.8941 0.0
H318 H 0.66351 0.6847 0.89926 0.0
H319 H 0.70549 0.71549 0.95677 0.0
H320 H 0.68565 0.61803 0.85503 0.0
H321 H 0.73444 0.6255 0.81217 0.0
C322 C 0.34048 -0.00247 0.31961 0.0
C323 C 0.32003 0.94644 0.284 0.0
C324 C 0.27501 0.85547 0.34187 0.0
C325 C 0.28954 0.90828 0.37539 0.0
N326 N 0.35078 0.0237 0.40217 0.0
N327 N 0.29799 0.81982 0.27055 0.0
C328 C 0.32739 -0.02256 0.3662 0.0
C329 C 0.29717 0.87299 0.29807 0.0
N330 N 0.37127 0.06599 0.30818 0.0
N331 N 0.23737 0.78946 0.35095 0.0
H332 H 0.31735 0.82973 0.23985 0.0
H333 H 0.28753 0.76484 0.28131 0.0
H334 H 0.22209 0.77413 0.38322 0.0
H335 H 0.21679 0.75202 0.32512 0.0
H336 H 0.37803 0.10933 0.32861 0.0
H337 H 0.38903 0.08003 0.27691 0.0
H338 H 0.38454 0.07235 0.4001 0.0
H339 H 0.3402 0.01157 0.43617 0.0
C340 C 0.22156 0.16917 0.89751 0.0
C341 C 0.16676 0.21667 0.88352 0.0
C342 C 0.16005 0.20236 0.96863 0.0
C343 C 0.21872 0.15873 0.98369 0.0
N344 N 0.3165 0.11593 0.96308 0.0
N345 N 0.09718 0.29224 0.908 0.0
C346 C 0.25274 0.14665 0.94827 0.0
C347 C 0.14043 0.23763 0.9199 0.0
N348 N 0.24168 0.14248 0.86233 0.0
N349 N 0.11937 0.20665 0.99946 0.0
H350 H 0.08262 0.31977 0.87285 0.0
H351 H 0.08212 0.31503 0.93396 0.0
H352 H 0.12902 0.17996 1.03464 0.0
H353 H 0.07112 0.23069 0.98835 0.0
H354 H 0.27385 0.10035 0.86997 0.0
H355 H 0.22167 0.15841 0.82496 0.0
H356 H 0.34771 0.11277 0.93965 0.0
H357 H 0.34238 0.10037 0.99971 0.0
C358 C 0.88203 0.16146 0.50626 0.0
C359 C 0.88865 0.22008 0.47019 0.0
C360 C 0.94485 0.30196 0.53455 0.0
C361 C 0.93504 0.24433 0.57107 0.0
N362 N 0.89166 0.11843 0.59124 0.0
N363 N 0.91721 0.34749 0.44826 0.0
C364 C 0.90225 0.17404 0.55675 0.0
C365 C 0.91719 0.2907 0.48389 0.0
N366 N 0.85914 0.09292 0.49226 0.0
N367 N 0.98292 0.36717 0.54813 0.0
H368 H 0.9014 0.34114 0.41084 0.0
H369 H 0.92794 0.40155 0.45531 0.0
H370 H 0.99977 0.38061 0.58405 0.0
H371 H 1.00198 0.40696 0.5242 0.0
H372 H 0.86318 0.04606 0.51658 0.0
H373 H 0.83958 0.08201 0.4556 0.0
H374 H 0.858 0.07015 0.58279 0.0
H375 H 0.91486 0.11989 0.62886 0.0
loop_
_geom_bond_atom_site_label_1
_geom_bond_atom_site_label_2
_geom_bond_distance
_geom_bond_site_symmetry_2
_ccdc_geom_bond_type
Nd0 C2 2.836 1_554 S
Nd0 O20 2.500 . S
Nd0 O21 2.492 1_554 S
Nd0 O22 2.487 . S
Nd0 O23 2.682 1_565 S
Nd0 O24 2.410 1_565 S
Nd0 O29 2.414 1_565 S
Nd0 O31 2.424 . S
Nd1 C11 2.836 . S
Nd1 O23 2.414 . S
Nd1 O25 2.424 . S
Nd1 O26 2.500 . S
Nd1 O27 2.492 . S
Nd1 O28 2.487 . S
Nd1 O29 2.682 . S
Nd1 O30 2.410 . S
C2 Nd0 2.836 1_556 S
C2 C3 1.498 . S
C2 O20 1.258 1_556 S
C2 O21 1.239 . S
C3 C2 1.498 . S
C3 C4 1.366 . S
C3 C8 1.407 . S
C4 C3 1.366 . S
C4 C5 1.392 . S
C4 H32 0.930 . S
C5 C4 1.392 . S
C5 C6 1.398 . S
C5 H33 0.929 . S
C6 C5 1.398 . S
C6 C7 1.352 . S
C7 C6 1.352 . S
C7 C8 1.384 . S
C7 H34 0.930 . S
C8 C3 1.407 . S
C8 C7 1.384 . S
C8 H35 0.929 . S
C9 O22 1.241 1_545 S
C9 O23 1.273 . S
C10 O24 1.251 . S
C10 O25 1.268 . S
C11 Nd1 2.836 . S
C11 C12 1.498 . S
C11 O26 1.258 . S
C11 O27 1.239 . S
C12 C11 1.498 . S
C12 C13 1.366 . S
C12 C17 1.407 . S
C13 C12 1.366 . S
C13 C14 1.392 . S
C13 H36 0.930 . S
C14 C13 1.392 . S
C14 C15 1.398 . S
C14 H37 0.929 . S
C15 C14 1.398 . S
C15 C16 1.352 . S
C16 C15 1.352 . S
C16 C17 1.384 . S
C16 H38 0.930 . S
C17 C12 1.407 . S
C17 C16 1.384 . S
C17 H39 0.929 . S
C18 O28 1.241 . S
C18 O29 1.273 . S
C19 O30 1.251 1_565 S
C19 O31 1.268 . S
O20 Nd0 2.500 . S
O20 C2 1.258 1_554 S
O21 Nd0 2.492 1_556 S
O21 C2 1.239 . S
O22 Nd0 2.487 . S
O22 C9 1.241 1_565 S
O23 Nd0 2.682 1_545 S
O23 Nd1 2.414 . S
O23 C9 1.273 . S
O24 Nd0 2.410 1_545 S
O24 C10 1.251 . S
O25 Nd1 2.424 . S
O25 C10 1.268 . S
O26 Nd1 2.500 . S
O26 C11 1.258 . S
O27 Nd1 2.492 . S
O27 C11 1.239 . S
O28 Nd1 2.487 . S
O28 C18 1.241 . S
O29 Nd0 2.414 1_545 S
O29 Nd1 2.682 . S
O29 C18 1.273 . S
O30 Nd1 2.410 . S
O30 C19 1.251 1_545 S
O31 Nd0 2.424 . S
O31 C19 1.268 . S
H32 C4 0.930 . S
H33 C5 0.929 . S
H34 C7 0.930 . S
H35 C8 0.929 . S
H36 C13 0.930 . S
H37 C14 0.929 . S
H38 C16 0.930 . S
H39 C17 0.929 . S
Nd40 C42 2.836 . S
Nd40 O60 2.500 . S
Nd40 O61 2.492 . S
Nd40 O62 2.487 . S
Nd40 O63 2.682 . S
Nd40 O64 2.410 . S
Nd40 O69 2.414 . S
Nd40 O71 2.424 . S
Nd41 C51 2.836 . S
Nd41 O63 2.414 1_655 S
Nd41 O65 2.424 . S
Nd41 O66 2.500 . S
Nd41 O67 2.492 . S
Nd41 O68 2.487 1_655 S
Nd41 O69 2.682 1_655 S
Nd41 O70 2.410 1_655 S
C42 Nd40 2.836 . S
C42 C43 1.498 . S
C42 O60 1.258 . S
C42 O61 1.239 . S
C43 C42 1.498 . S
C43 C44 1.366 . S
C43 C48 1.407 . S
C44 C43 1.366 . S
C44 C45 1.392 . S
C44 H72 0.930 . S
C45 C44 1.392 . S
C45 C46 1.398 . S
C45 H73 0.929 . S
C46 C45 1.398 . S
C46 C47 1.352 . S
C47 C46 1.352 . S
C47 C48 1.384 . S
C47 H74 0.930 . S
C48 C43 1.407 . S
C48 C47 1.384 . S
C48 H75 0.929 . S
C49 O62 1.241 . S
C49 O63 1.273 . S
C50 O64 1.251 . S
C50 O65 1.268 1_455 S
C51 Nd41 2.836 . S
C51 C52 1.498 . S
C51 O66 1.258 . S
C51 O67 1.239 . S
C52 C51 1.498 . S
C52 C53 1.366 . S
C52 C57 1.407 . S
C53 C52 1.366 . S
C53 C54 1.392 . S
C53 H76 0.930 . S
C54 C53 1.392 . S
C54 C55 1.398 . S
C54 H77 0.929 . S
C55 C54 1.398 . S
C55 C56 1.352 . S
C56 C55 1.352 . S
C56 C57 1.384 . S
C56 H78 0.930 . S
C57 C52 1.407 . S
C57 C56 1.384 . S
C57 H79 0.929 . S
C58 O68 1.241 . S
C58 O69 1.273 . S
C59 O70 1.251 . S
C59 O71 1.268 . S
O60 Nd40 2.500 . S
O60 C42 1.258 . S
O61 Nd40 2.492 . S
O61 C42 1.239 . S
O62 Nd40 2.487 . S
O62 C49 1.241 . S
O63 Nd40 2.682 . S
O63 Nd41 2.414 1_455 S
O63 C49 1.273 . S
O64 Nd40 2.410 . S
O64 C50 1.251 . S
O65 Nd41 2.424 . S
O65 C50 1.268 1_655 S
O66 Nd41 2.500 . S
O66 C51 1.258 . S
O67 Nd41 2.492 . S
O67 C51 1.239 . S
O68 Nd41 2.487 1_455 S
O68 C58 1.241 . S
O69 Nd40 2.414 . S
O69 Nd41 2.682 1_455 S
O69 C58 1.273 . S
O70 Nd41 2.410 1_455 S
O70 C59 1.251 . S
O71 Nd40 2.424 . S
O71 C59 1.268 . S
H72 C44 0.930 . S
H73 C45 0.929 . S
H74 C47 0.930 . S
H75 C48 0.929 . S
H76 C53 0.930 . S
H77 C54 0.929 . S
H78 C56 0.930 . S
H79 C57 0.929 . S
Nd80 C82 2.836 . S
Nd80 O100 2.500 . S
Nd80 O101 2.492 . S
Nd80 O102 2.487 . S
Nd80 O103 2.682 1_565 S
Nd80 O104 2.410 1_565 S
Nd80 O109 2.414 . S
Nd80 O111 2.424 . S
Nd81 C91 2.836 . S
Nd81 O103 2.414 . S
Nd81 O105 2.424 . S
Nd81 O106 2.500 . S
Nd81 O107 2.492 . S
Nd81 O108 2.487 . S
Nd81 O109 2.682 1_545 S
Nd81 O110 2.410 1_545 S
C82 Nd80 2.836 . S
C82 C83 1.498 . S
C82 O100 1.258 . S
C82 O101 1.239 . S
C83 C82 1.498 . S
C83 C84 1.366 1_554 S
C83 C88 1.407 1_554 S
C84 C83 1.366 1_556 S
C84 C85 1.392 . S
C84 H112 0.930 1_556 S
C85 C84 1.392 . S
C85 C86 1.398 . S
C85 H113 0.929 . S
C86 C85 1.398 . S
C86 C87 1.352 . S
C87 C86 1.352 . S
C87 C88 1.384 . S
C87 H114 0.930 . S
C88 C83 1.407 1_556 S
C88 C87 1.384 . S
C88 H115 0.929 . S
C89 O102 1.241 . S
C89 O103 1.273 1_565 S
C90 O104 1.251 . S
C90 O105 1.268 . S
C91 Nd81 2.836 . S
C91 C92 1.498 . S
C91 O106 1.258 . S
C91 O107 1.239 . S
C92 C91 1.498 . S
C92 C93 1.366 . S
C92 C97 1.407 . S
C93 C92 1.366 . S
C93 C94 1.392 . S
C93 H116 0.930 . S
C94 C93 1.392 . S
C94 C95 1.398 . S
C94 H117 0.929 . S
C95 C94 1.398 . S
C95 C96 1.352 . S
C96 C95 1.352 . S
C96 C97 1.384 . S
C96 H118 0.930 . S
C97 C92 1.407 . S
C97 C96 1.384 . S
C97 H119 0.929 . S
C98 O108 1.241 . S
C98 O109 1.273 1_545 S
C99 O110 1.251 . S
C99 O111 1.268 . S
O100 Nd80 2.500 . S
O100 C82 1.258 . S
O101 Nd80 2.492 . S
O101 C82 1.239 . S
O102 Nd80 2.487 . S
O102 C89 1.241 . S
O103 Nd80 2.682 1_545 S
O103 Nd81 2.414 . S
O103 C89 1.273 1_545 S
O104 Nd80 2.410 1_545 S
O104 C90 1.251 . S
O105 Nd81 2.424 . S
O105 C90 1.268 . S
O106 Nd81 2.500 . S
O106 C91 1.258 . S
O107 Nd81 2.492 . S
O107 C91 1.239 . S
O108 Nd81 2.487 . S
O108 C98 1.241 . S
O109 Nd80 2.414 . S
O109 Nd81 2.682 1_565 S
O109 C98 1.273 1_565 S
O110 Nd81 2.410 1_565 S
O110 C99 1.251 . S
O111 Nd80 2.424 . S
O111 C99 1.268 . S
H112 C84 0.930 1_554 S
H113 C85 0.929 . S
H114 C87 0.930 . S
H115 C88 0.929 . S
H116 C93 0.930 . S
H117 C94 0.929 . S
H118 C96 0.930 . S
H119 C97 0.929 . S
Nd120 C122 2.836 . S
Nd120 O140 2.500 . S
Nd120 O141 2.492 . S
Nd120 O142 2.487 . S
Nd120 O143 2.682 1_455 S
Nd120 O144 2.410 1_455 S
Nd120 O149 2.414 . S
Nd120 O151 2.424 . S
Nd121 C131 2.836 . S
Nd121 O143 2.414 . S
Nd121 O145 2.424 . S
Nd121 O146 2.500 . S
Nd121 O147 2.492 . S
Nd121 O148 2.487 . S
Nd121 O149 2.682 1_655 S
Nd121 O150 2.410 1_655 S
C122 Nd120 2.836 . S
C122 C123 1.498 . S
C122 O140 1.258 . S
C122 O141 1.239 . S
C123 C122 1.498 . S
C123 C124 1.366 . S
C123 C128 1.407 . S
C124 C123 1.366 . S
C124 C125 1.392 . S
C124 H152 0.930 . S
C125 C124 1.392 . S
C125 C126 1.398 . S
C125 H153 0.929 . S
C126 C125 1.398 . S
C126 C127 1.352 . S
C127 C126 1.352 . S
C127 C128 1.384 . S
C127 H154 0.930 . S
C128 C123 1.407 . S
C128 C127 1.384 . S
C128 H155 0.929 . S
C129 O142 1.241 . S
C129 O143 1.273 1_455 S
C130 O144 1.251 . S
C130 O145 1.268 . S
C131 Nd121 2.836 . S
C131 C132 1.498 . S
C131 O146 1.258 . S
C131 O147 1.239 . S
C132 C131 1.498 . S
C132 C133 1.366 . S
C132 C137 1.407 . S
C133 C132 1.366 . S
C133 C134 1.392 . S
C133 H156 0.930 . S
C134 C133 1.392 . S
C134 C135 1.398 . S
C134 H157 0.929 . S
C135 C134 1.398 . S
C135 C136 1.352 . S
C136 C135 1.352 . S
C136 C137 1.384 . S
C136 H158 0.930 . S
C137 C132 1.407 . S
C137 C136 1.384 . S
C137 H159 0.929 . S
C138 O148 1.241 . S
C138 O149 1.273 1_655 S
C139 O150 1.251 . S
C139 O151 1.268 . S
O140 Nd120 2.500 . S
O140 C122 1.258 . S
O141 Nd120 2.492 . S
O141 C122 1.239 . S
O142 Nd120 2.487 . S
O142 C129 1.241 . S
O143 Nd120 2.682 1_655 S
O143 Nd121 2.414 . S
O143 C129 1.273 1_655 S
O144 Nd120 2.410 1_655 S
O144 C130 1.251 . S
O145 Nd121 2.424 . S
O145 C130 1.268 . S
O146 Nd121 2.500 . S
O146 C131 1.258 . S
O147 Nd121 2.492 . S
O147 C131 1.239 . S
O148 Nd121 2.487 . S
O148 C138 1.241 . S
O149 Nd120 2.414 . S
O149 Nd121 2.682 1_455 S
O149 C138 1.273 1_455 S
O150 Nd121 2.410 1_455 S
O150 C139 1.251 . S
O151 Nd120 2.424 . S
O151 C139 1.268 . S
H152 C124 0.930 . S
H153 C125 0.929 . S
H154 C127 0.930 . S
H155 C128 0.929 . S
H156 C133 0.930 . S
H157 C134 0.929 . S
H158 C136 0.930 . S
H159 C137 0.929 . S
C160 C161 1.363 . S
C160 C166 1.379 . S
C160 N168 1.356 1_455 S
C161 C160 1.363 . S
C161 C167 1.363 1_545 S
C162 C163 1.363 1_565 S
C162 C167 1.379 . S
C162 N169 1.356 . S
C163 C162 1.363 1_545 S
C163 C166 1.363 . S
N164 C166 1.356 . S
N164 H176 0.984 . S
N164 H177 0.985 . S
N165 C167 1.356 . S
N165 H170 0.984 . S
N165 H171 0.985 . S
C166 C160 1.379 . S
C166 C163 1.363 . S
C166 N164 1.356 . S
C167 C161 1.363 1_565 S
C167 C162 1.379 . S
C167 N165 1.356 . S
N168 C160 1.356 1_655 S
N168 H174 0.984 . S
N168 H175 0.984 . S
N169 C162 1.356 . S
N169 H172 0.984 . S
N169 H173 0.985 . S
H170 N165 0.984 . S
H171 N165 0.985 . S
H172 N169 0.984 . S
H173 N169 0.985 . S
H174 N168 0.984 . S
H175 N168 0.984 . S
H176 N164 0.984 . S
H177 N164 0.985 . S
C178 C179 1.363 1_565 S
C178 C184 1.379 . S
C178 N186 1.356 1_455 S
C179 C178 1.363 1_545 S
C179 C185 1.363 . S
C180 C181 1.363 . S
C180 C185 1.379 . S
C180 N187 1.356 . S
C181 C180 1.363 . S
C181 C184 1.363 1_545 S
N182 C184 1.356 . S
N182 H194 0.984 . S
N182 H195 0.985 1_565 S
N183 C185 1.356 . S
N183 H188 0.984 . S
N183 H189 0.985 . S
C184 C178 1.379 . S
C184 C181 1.363 1_565 S
C184 N182 1.356 . S
C185 C179 1.363 . S
C185 C180 1.379 . S
C185 N183 1.356 . S
N186 C178 1.356 1_655 S
N186 H192 0.984 . S
N186 H193 0.984 . S
N187 C180 1.356 . S
N187 H190 0.984 . S
N187 H191 0.985 . S
H188 N183 0.984 . S
H189 N183 0.985 . S
H190 N187 0.984 . S
H191 N187 0.985 . S
H192 N186 0.984 . S
H193 N186 0.984 . S
H194 N182 0.984 . S
H195 N182 0.985 1_545 S
C196 C197 1.363 . S
C196 C202 1.379 . S
C196 N204 1.356 . S
C197 C196 1.363 . S
C197 C203 1.363 . S
C198 C199 1.363 . S
C198 C203 1.379 . S
C198 N205 1.356 . S
C199 C198 1.363 . S
C199 C202 1.363 . S
N200 C202 1.356 . S
N200 H212 0.984 . S
N200 H213 0.985 . S
N201 C203 1.356 1_565 S
N201 H206 0.984 . S
N201 H207 0.985 . S
C202 C196 1.379 . S
C202 C199 1.363 . S
C202 N200 1.356 . S
C203 C197 1.363 . S
C203 C198 1.379 . S
C203 N201 1.356 1_545 S
N204 C196 1.356 . S
N204 H210 0.984 . S
N204 H211 0.984 . S
N205 C198 1.356 . S
N205 H208 0.984 . S
N205 H209 0.985 . S
H206 N201 0.984 . S
H207 N201 0.985 . S
H208 N205 0.984 . S
H209 N205 0.985 . S
H210 N204 0.984 . S
H211 N204 0.984 . S
H212 N200 0.984 . S
H213 N200 0.985 . S
C214 C215 1.363 . S
C214 C220 1.379 . S
C214 N222 1.356 . S
C215 C214 1.363 . S
C215 C221 1.363 . S
C216 C217 1.363 1_655 S
C216 C221 1.379 1_655 S
C216 N223 1.356 . S
C217 C216 1.363 1_455 S
C217 C220 1.363 . S
N218 C220 1.356 . S
N218 H230 0.984 . S
N218 H231 0.985 . S
N219 C221 1.356 . S
N219 H224 0.984 . S
N219 H225 0.985 1_455 S
C220 C214 1.379 . S
C220 C217 1.363 . S
C220 N218 1.356 . S
C221 C215 1.363 . S
C221 C216 1.379 1_455 S
C221 N219 1.356 . S
N222 C214 1.356 . S
N222 H228 0.984 . S
N222 H229 0.984 . S
N223 C216 1.356 . S
N223 H226 0.984 . S
N223 H227 0.985 . S
H224 N219 0.984 . S
H225 N219 0.985 1_655 S
H226 N223 0.984 . S
H227 N223 0.985 . S
H228 N222 0.984 . S
H229 N222 0.984 . S
H230 N218 0.984 . S
H231 N218 0.985 . S
C232 C233 1.363 . S
C232 C238 1.379 . S
C232 N240 1.356 . S
C233 C232 1.363 . S
C233 C239 1.363 . S
C234 C235 1.363 . S
C234 C239 1.379 . S
C234 N241 1.356 . S
C235 C234 1.363 . S
C235 C238 1.363 . S
N236 C238 1.356 . S
N236 H248 0.984 . S
N236 H249 0.985 . S
N237 C239 1.356 . S
N237 H242 0.984 . S
N237 H243 0.985 . S
C238 C232 1.379 . S
C238 C235 1.363 . S
C238 N236 1.356 . S
C239 C233 1.363 . S
C239 C234 1.379 . S
C239 N237 1.356 . S
N240 C232 1.356 . S
N240 H246 0.984 . S
N240 H247 0.984 . S
N241 C234 1.356 . S
N241 H244 0.984 . S
N241 H245 0.985 . S
H242 N237 0.984 . S
H243 N237 0.985 . S
H244 N241 0.984 . S
H245 N241 0.985 . S
H246 N240 0.984 . S
H247 N240 0.984 . S
H248 N236 0.984 . S
H249 N236 0.985 . S
C250 C251 1.363 . S
C250 C256 1.379 1_556 S
C250 N258 1.356 . S
C251 C250 1.363 . S
C251 C257 1.363 . S
C252 C253 1.363 . S
C252 C257 1.379 1_554 S
C252 N259 1.356 . S
C253 C252 1.363 . S
C253 C256 1.363 . S
N254 C256 1.356 . S
N254 H266 0.984 1_545 S
N254 H267 0.985 . S
N255 C257 1.356 . S
N255 H260 0.984 . S
N255 H261 0.985 . S
C256 C250 1.379 1_554 S
C256 C253 1.363 . S
C256 N254 1.356 . S
C257 C251 1.363 . S
C257 C252 1.379 1_556 S
C257 N255 1.356 . S
N258 C250 1.356 . S
N258 H264 0.984 . S
N258 H265 0.984 . S
N259 C252 1.356 . S
N259 H262 0.984 . S
N259 H263 0.985 . S
H260 N255 0.984 . S
H261 N255 0.985 . S
H262 N259 0.984 . S
H263 N259 0.985 . S
H264 N258 0.984 . S
H265 N258 0.984 . S
H266 N254 0.984 1_565 S
H267 N254 0.985 . S
C268 C269 1.363 . S
C268 C274 1.379 . S
C268 N276 1.356 . S
C269 C268 1.363 . S
C269 C275 1.363 . S
C270 C271 1.363 . S
C270 C275 1.379 . S
C270 N277 1.356 . S
C271 C270 1.363 . S
C271 C274 1.363 . S
N272 C274 1.356 . S
N272 H284 0.984 . S
N272 H285 0.985 . S
N273 C275 1.356 . S
N273 H278 0.984 . S
N273 H279 0.985 . S
C274 C268 1.379 . S
C274 C271 1.363 . S
C274 N272 1.356 . S
C275 C269 1.363 . S
C275 C270 1.379 . S
C275 N273 1.356 . S
N276 C268 1.356 . S
N276 H282 0.984 . S
N276 H283 0.984 . S
N277 C270 1.356 . S
N277 H280 0.984 . S
N277 H281 0.985 1_565 S
H278 N273 0.984 . S
H279 N273 0.985 . S
H280 N277 0.984 . S
H281 N277 0.985 1_545 S
H282 N276 0.984 . S
H283 N276 0.984 . S
H284 N272 0.984 . S
H285 N272 0.985 . S
C286 C287 1.363 . S
C286 C292 1.379 . S
C286 N294 1.356 . S
C287 C286 1.363 . S
C287 C293 1.363 . S
C288 C289 1.363 . S
C288 C293 1.379 . S
C288 N295 1.356 . S
C289 C288 1.363 . S
C289 C292 1.363 . S
N290 C292 1.356 . S
N290 H302 0.984 . S
N290 H303 0.985 . S
N291 C293 1.356 . S
N291 H296 0.984 . S
N291 H297 0.985 1_455 S
C292 C286 1.379 . S
C292 C289 1.363 . S
C292 N290 1.356 . S
C293 C287 1.363 . S
C293 C288 1.379 . S
C293 N291 1.356 . S
N294 C286 1.356 . S
N294 H300 0.984 . S
N294 H301 0.984 . S
N295 C288 1.356 . S
N295 H298 0.984 . S
N295 H299 0.985 . S
H296 N291 0.984 . S
H297 N291 0.985 1_655 S
H298 N295 0.984 . S
H299 N295 0.985 . S
H300 N294 0.984 . S
H301 N294 0.984 . S
H302 N290 0.984 . S
H303 N290 0.985 . S
C304 C305 1.363 . S
C304 C310 1.379 . S
C304 N312 1.356 . S
C305 C304 1.363 . S
C305 C311 1.363 . S
C306 C307 1.363 . S
C306 C311 1.379 . S
C306 N313 1.356 . S
C307 C306 1.363 . S
C307 C310 1.363 . S
N308 C310 1.356 . S
N308 H320 0.984 . S
N308 H321 0.985 . S
N309 C311 1.356 . S
N309 H314 0.984 . S
N309 H315 0.985 . S
C310 C304 1.379 . S
C310 C307 1.363 . S
C310 N308 1.356 . S
C311 C305 1.363 . S
C311 C306 1.379 . S
C311 N309 1.356 . S
N312 C304 1.356 . S
N312 H318 0.984 . S
N312 H319 0.984 . S
N313 C306 1.356 . S
N313 H316 0.984 . S
N313 H317 0.985 . S
H314 N309 0.984 . S
H315 N309 0.985 . S
H316 N313 0.984 . S
H317 N313 0.985 . S
H318 N312 0.984 . S
H319 N312 0.984 . S
H320 N308 0.984 . S
H321 N308 0.985 . S
C322 C323 1.363 . S
C322 C328 1.379 . S
C322 N330 1.356 1_565 S
C323 C322 1.363 . S
C323 C329 1.363 . S
C324 C325 1.363 . S
C324 C329 1.379 . S
C324 N331 1.356 . S
C325 C324 1.363 . S
C325 C328 1.363 . S
N326 C328 1.356 . S
N326 H338 0.984 . S
N326 H339 0.985 . S
N327 C329 1.356 . S
N327 H332 0.984 . S
N327 H333 0.985 . S
C328 C322 1.379 . S
C328 C325 1.363 . S
C328 N326 1.356 . S
C329 C323 1.363 . S
C329 C324 1.379 . S
C329 N327 1.356 . S
N330 C322 1.356 1_545 S
N330 H336 0.984 . S
N330 H337 0.984 . S
N331 C324 1.356 . S
N331 H334 0.984 . S
N331 H335 0.985 . S
H332 N327 0.984 . S
H333 N327 0.985 . S
H334 N331 0.984 . S
H335 N331 0.985 . S
H336 N330 0.984 . S
H337 N330 0.984 . S
H338 N326 0.984 . S
H339 N326 0.985 . S
C340 C341 1.363 . S
C340 C346 1.379 . S
C340 N348 1.356 . S
C341 C340 1.363 . S
C341 C347 1.363 . S
C342 C343 1.363 . S
C342 C347 1.379 . S
C342 N349 1.356 . S
C343 C342 1.363 . S
C343 C346 1.363 . S
N344 C346 1.356 . S
N344 H356 0.984 . S
N344 H357 0.985 . S
N345 C347 1.356 . S
N345 H350 0.984 . S
N345 H351 0.985 . S
C346 C340 1.379 . S
C346 C343 1.363 . S
C346 N344 1.356 . S
C347 C341 1.363 . S
C347 C342 1.379 . S
C347 N345 1.356 . S
N348 C340 1.356 . S
N348 H354 0.984 . S
N348 H355 0.984 . S
N349 C342 1.356 . S
N349 H352 0.984 . S
N349 H353 0.985 . S
H350 N345 0.984 . S
H351 N345 0.985 . S
H352 N349 0.984 . S
H353 N349 0.985 . S
H354 N348 0.984 . S
H355 N348 0.984 . S
H356 N344 0.984 . S
H357 N344 0.985 . S
C358 C359 1.363 . S
C358 C364 1.379 . S
C358 N366 1.356 . S
C359 C358 1.363 . S
C359 C365 1.363 . S
C360 C361 1.363 . S
C360 C365 1.379 . S
C360 N367 1.356 1_655 S
C361 C360 1.363 . S
C361 C364 1.363 . S
N362 C364 1.356 . S
N362 H374 0.984 . S
N362 H375 0.985 . S
N363 C365 1.356 . S
N363 H368 0.984 . S
N363 H369 0.985 1_655 S
C364 C358 1.379 . S
C364 C361 1.363 . S
C364 N362 1.356 . S
C365 C359 1.363 . S
C365 C360 1.379 . S
C365 N363 1.356 . S
N366 C358 1.356 . S
N366 H372 0.984 . S
N366 H373 0.984 . S
N367 C360 1.356 1_455 S
N367 H370 0.984 . S
N367 H371 0.985 . S
H368 N363 0.984 . S
H369 N363 0.985 1_455 S
H370 N367 0.984 . S
H371 N367 0.985 . S
H372 N366 0.984 . S
H373 N366 0.984 . S
H374 N362 0.984 . S
H375 N362 0.985 . S
C161 C98 1.233 1_455 S
C163 C9 1.233 . S
C179 C138 1.344 1_445 S
C181 C49 1.344 . S
C197 C89 1.132 1_545 S
C199 C18 1.132 . S
C215 C58 1.254 . S
C217 C129 1.254 . S
C233 C46 1.119 . S
C235 C15 1.138 . S
C251 C55 1.659 . S
C253 C90 1.670 . S
C269 C130 2.142 . S
C271 C99 2.092 . S
C287 C139 1.376 . S
C289 C6 1.389 . S
C305 C86 1.138 . S
C307 C135 1.120 . S
C323 C19 1.670 . S
C325 C126 1.659 . S
C341 C59 2.142 . S
C343 C10 2.091 1_556 S
C359 C95 1.389 . S
C361 C50 1.376 1_655 S
