# Generated by pormake.
# Topology ukc, (4)-cn, num edge types: 1
# Building blocks:
#     Node 0, Type 0, BuildingBlock: NAHDIM_clean_sbu_0, # of connection points: 4
#     Node 1, Type 0, BuildingBlock: NAHDIM_clean_sbu_0, # of connection points: 4
#     Node 2, Type 0, BuildingBlock: NAHDIM_clean_sbu_0, # of connection points: 4
#     Node 3, Type 0, BuildingBlock: NAHDIM_clean_sbu_0, # of connection points: 4
#     Node 4, Type 0, BuildingBlock: NAHDIM_clean_sbu_0, # of connection points: 4
#     Node 5, Type 0, BuildingBlock: NAHDIM_clean_sbu_0, # of connection points: 4
#     Node 6, Type 0, BuildingBlock: NAHDIM_clean_sbu_0, # of connection points: 4
#     Node 7, Type 0, BuildingBlock: NAHDIM_clean_sbu_0, # of connection points: 4
#     Node 8, Type 0, BuildingBlock: NAHDIM_clean_sbu_0, # of connection points: 4
#     Node 9, Type 0, BuildingBlock: NAHDIM_clean_sbu_0, # of connection points: 4
#     Node 10, Type 0, BuildingBlock: NAHDIM_clean_sbu_0, # of connection points: 4
#     Node 11, Type 0, BuildingBlock: NAHDIM_clean_sbu_0, # of connection points: 4
#     Node 12, Type 0, BuildingBlock: NAHDIM_clean_sbu_0, # of connection points: 4
#     Node 13, Type 0, BuildingBlock: NAHDIM_clean_sbu_0, # of connection points: 4
#     Node 14, Type 0, BuildingBlock: NAHDIM_clean_sbu_0, # of connection points: 4
#     Node 15, Type 0, BuildingBlock: NAHDIM_clean_sbu_0, # of connection points: 4
#     Node 16, Type 0, BuildingBlock: NAHDIM_clean_sbu_0, # of connection points: 4
#     Node 17, Type 0, BuildingBlock: NAHDIM_clean_sbu_0, # of connection points: 4
#     Node 18, Type 0, BuildingBlock: NAHDIM_clean_sbu_0, # of connection points: 4
#     Node 19, Type 0, BuildingBlock: NAHDIM_clean_sbu_0, # of connection points: 4
#     Node 20, Type 0, BuildingBlock: NAHDIM_clean_sbu_0, # of connection points: 4
#     Node 21, Type 0, BuildingBlock: NAHDIM_clean_sbu_0, # of connection points: 4
#     Node 22, Type 0, BuildingBlock: NAHDIM_clean_sbu_0, # of connection points: 4
#     Node 23, Type 0, BuildingBlock: NAHDIM_clean_sbu_0, # of connection points: 4
#     Node 24, Type 0, BuildingBlock: NAHDIM_clean_sbu_0, # of connection points: 4
#     Node 25, Type 0, BuildingBlock: NAHDIM_clean_sbu_0, # of connection points: 4
#     Node 26, Type 0, BuildingBlock: NAHDIM_clean_sbu_0, # of connection points: 4
#     Node 27, Type 0, BuildingBlock: NAHDIM_clean_sbu_0, # of connection points: 4
#     Node 28, Type 0, BuildingBlock: NAHDIM_clean_sbu_0, # of connection points: 4
#     Node 29, Type 0, BuildingBlock: NAHDIM_clean_sbu_0, # of connection points: 4
#     Node 30, Type 0, BuildingBlock: NAHDIM_clean_sbu_0, # of connection points: 4
#     Node 31, Type 0, BuildingBlock: NAHDIM_clean_sbu_0, # of connection points: 4
#     Edge 32, Type (0, 0), BuildingBlock: KIFKEQ_clean_linker_1, # of connection points: 2
#     Edge 33, Type (0, 0), BuildingBlock: KIFKEQ_clean_linker_1, # of connection points: 2
#     Edge 34, Type (0, 0), BuildingBlock: KIFKEQ_clean_linker_1, # of connection points: 2
#     Edge 35, Type (0, 0), BuildingBlock: KIFKEQ_clean_linker_1, # of connection points: 2
#     Edge 36, Type (0, 0), BuildingBlock: KIFKEQ_clean_linker_1, # of connection points: 2
#     Edge 37, Type (0, 0), BuildingBlock: KIFKEQ_clean_linker_1, # of connection points: 2
#     Edge 38, Type (0, 0), BuildingBlock: KIFKEQ_clean_linker_1, # of connection points: 2
#     Edge 39, Type (0, 0), BuildingBlock: KIFKEQ_clean_linker_1, # of connection points: 2
#     Edge 40, Type (0, 0), BuildingBlock: KIFKEQ_clean_linker_1, # of connection points: 2
#     Edge 41, Type (0, 0), BuildingBlock: KIFKEQ_clean_linker_1, # of connection points: 2
#     Edge 42, Type (0, 0), BuildingBlock: KIFKEQ_clean_linker_1, # of connection points: 2
#     Edge 43, Type (0, 0), BuildingBlock: KIFKEQ_clean_linker_1, # of connection points: 2
#     Edge 44, Type (0, 0), BuildingBlock: KIFKEQ_clean_linker_1, # of connection points: 2
#     Edge 45, Type (0, 0), BuildingBlock: KIFKEQ_clean_linker_1, # of connection points: 2
#     Edge 46, Type (0, 0), BuildingBlock: KIFKEQ_clean_linker_1, # of connection points: 2
#     Edge 47, Type (0, 0), BuildingBlock: KIFKEQ_clean_linker_1, # of connection points: 2
#     Edge 48, Type (0, 0), BuildingBlock: KIFKEQ_clean_linker_1, # of connection points: 2
#     Edge 49, Type (0, 0), BuildingBlock: KIFKEQ_clean_linker_1, # of connection points: 2
#     Edge 50, Type (0, 0), BuildingBlock: KIFKEQ_clean_linker_1, # of connection points: 2
#     Edge 51, Type (0, 0), BuildingBlock: KIFKEQ_clean_linker_1, # of connection points: 2
#     Edge 52, Type (0, 0), BuildingBlock: KIFKEQ_clean_linker_1, # of connection points: 2
#     Edge 53, Type (0, 0), BuildingBlock: KIFKEQ_clean_linker_1, # of connection points: 2
#     Edge 54, Type (0, 0), BuildingBlock: KIFKEQ_clean_linker_1, # of connection points: 2
#     Edge 55, Type (0, 0), BuildingBlock: KIFKEQ_clean_linker_1, # of connection points: 2
#     Edge 56, Type (0, 0), BuildingBlock: KIFKEQ_clean_linker_1, # of connection points: 2
#     Edge 57, Type (0, 0), BuildingBlock: KIFKEQ_clean_linker_1, # of connection points: 2
#     Edge 58, Type (0, 0), BuildingBlock: KIFKEQ_clean_linker_1, # of connection points: 2
#     Edge 59, Type (0, 0), BuildingBlock: KIFKEQ_clean_linker_1, # of connection points: 2
#     Edge 60, Type (0, 0), BuildingBlock: KIFKEQ_clean_linker_1, # of connection points: 2
#     Edge 61, Type (0, 0), BuildingBlock: KIFKEQ_clean_linker_1, # of connection points: 2
#     Edge 62, Type (0, 0), BuildingBlock: KIFKEQ_clean_linker_1, # of connection points: 2
#     Edge 63, Type (0, 0), BuildingBlock: KIFKEQ_clean_linker_1, # of connection points: 2
#     Edge 64, Type (0, 0), BuildingBlock: KIFKEQ_clean_linker_1, # of connection points: 2
#     Edge 65, Type (0, 0), BuildingBlock: KIFKEQ_clean_linker_1, # of connection points: 2
#     Edge 66, Type (0, 0), BuildingBlock: KIFKEQ_clean_linker_1, # of connection points: 2
#     Edge 67, Type (0, 0), BuildingBlock: KIFKEQ_clean_linker_1, # of connection points: 2
#     Edge 68, Type (0, 0), BuildingBlock: KIFKEQ_clean_linker_1, # of connection points: 2
#     Edge 69, Type (0, 0), BuildingBlock: KIFKEQ_clean_linker_1, # of connection points: 2
#     Edge 70, Type (0, 0), BuildingBlock: KIFKEQ_clean_linker_1, # of connection points: 2
#     Edge 71, Type (0, 0), BuildingBlock: KIFKEQ_clean_linker_1, # of connection points: 2
#     Edge 72, Type (0, 0), BuildingBlock: KIFKEQ_clean_linker_1, # of connection points: 2
#     Edge 73, Type (0, 0), BuildingBlock: KIFKEQ_clean_linker_1, # of connection points: 2
#     Edge 74, Type (0, 0), BuildingBlock: KIFKEQ_clean_linker_1, # of connection points: 2
#     Edge 75, Type (0, 0), BuildingBlock: KIFKEQ_clean_linker_1, # of connection points: 2
#     Edge 76, Type (0, 0), BuildingBlock: KIFKEQ_clean_linker_1, # of connection points: 2
#     Edge 77, Type (0, 0), BuildingBlock: KIFKEQ_clean_linker_1, # of connection points: 2
#     Edge 78, Type (0, 0), BuildingBlock: KIFKEQ_clean_linker_1, # of connection points: 2
#     Edge 79, Type (0, 0), BuildingBlock: KIFKEQ_clean_linker_1, # of connection points: 2
#     Edge 80, Type (0, 0), BuildingBlock: KIFKEQ_clean_linker_1, # of connection points: 2
#     Edge 81, Type (0, 0), BuildingBlock: KIFKEQ_clean_linker_1, # of connection points: 2
#     Edge 82, Type (0, 0), BuildingBlock: KIFKEQ_clean_linker_1, # of connection points: 2
#     Edge 83, Type (0, 0), BuildingBlock: KIFKEQ_clean_linker_1, # of connection points: 2
#     Edge 84, Type (0, 0), BuildingBlock: KIFKEQ_clean_linker_1, # of connection points: 2
#     Edge 85, Type (0, 0), BuildingBlock: KIFKEQ_clean_linker_1, # of connection points: 2
#     Edge 86, Type (0, 0), BuildingBlock: KIFKEQ_clean_linker_1, # of connection points: 2
#     Edge 87, Type (0, 0), BuildingBlock: KIFKEQ_clean_linker_1, # of connection points: 2
#     Edge 88, Type (0, 0), BuildingBlock: KIFKEQ_clean_linker_1, # of connection points: 2
#     Edge 89, Type (0, 0), BuildingBlock: KIFKEQ_clean_linker_1, # of connection points: 2
#     Edge 90, Type (0, 0), BuildingBlock: KIFKEQ_clean_linker_1, # of connection points: 2
#     Edge 91, Type (0, 0), BuildingBlock: KIFKEQ_clean_linker_1, # of connection points: 2
#     Edge 92, Type (0, 0), BuildingBlock: KIFKEQ_clean_linker_1, # of connection points: 2
#     Edge 93, Type (0, 0), BuildingBlock: KIFKEQ_clean_linker_1, # of connection points: 2
#     Edge 94, Type (0, 0), BuildingBlock: KIFKEQ_clean_linker_1, # of connection points: 2
#     Edge 95, Type (0, 0), BuildingBlock: KIFKEQ_clean_linker_1, # of connection points: 2
# Relax obj value: 0.064
# Max RMSD: 0.092
# Mean RMSD: 0.092
data_MOF--net-ukc--node1-NAHDIM_clean_sbu_0--edge1-KIFKEQ_clean_linker_1
_symmetry_space_group_name_H-M    P1
_symmetry_Int_Tables_number       1
_symmetry_cell_setting            triclinic
loop_
_symmetry_equiv_pos_as_xyz
'x, y, z'
_cell_length_a     46.704715
_cell_length_b     46.71623
_cell_length_c     84.952649
_cell_angle_alpha  89.956156
_cell_angle_beta   90.086314
_cell_angle_gamma 89.94963
loop_
_atom_site_label
_atom_site_type_symbol
_atom_site_fract_x
_atom_site_fract_y
_atom_site_fract_z
_atom_type_partial_charge
C0 C 0.15231 0.40615 0.03086 0.0
O1 O 0.14261 0.428 0.039 0.0
O2 O 0.10286 0.39131 0.06234 0.0
Zn3 Zn 0.09753 0.38529 0.03904 0.0
O4 O 0.07474 0.41738 0.02917 0.0
C5 C 0.08069 0.32627 0.04416 0.0
O6 O 0.09942 0.32756 0.0557 0.0
O7 O 0.13638 0.38436 0.02906 0.0
C8 C 0.04864 0.41409 0.02527 0.0
O9 O 0.03585 0.38973 0.02843 0.0
C10 C 0.083 0.38632 0.07217 0.0
O11 O 0.05768 0.37852 0.06696 0.0
O12 O 0.07715 0.34793 0.03532 0.0
C13 C 0.84023 0.88959 0.27484 0.0
O14 O 0.81608 0.87777 0.27935 0.0
O15 O 0.86037 0.84812 0.31201 0.0
Zn16 Zn 0.86288 0.83903 0.28896 0.0
O17 O 0.82914 0.81561 0.28177 0.0
C18 C 0.89914 0.7898 0.28699 0.0
O19 O 0.87555 0.77723 0.29177 0.0
O20 O 0.86363 0.87645 0.27736 0.0
C21 C 0.82981 0.80501 0.268 0.0
O22 O 0.85202 0.81028 0.25897 0.0
C23 C 0.85139 0.83065 0.32234 0.0
O24 O 0.84264 0.80515 0.31796 0.0
O25 O 0.89914 0.81676 0.28492 0.0
C26 C 0.33653 0.59636 0.51295 0.0
O27 O 0.34525 0.57171 0.51867 0.0
O28 O 0.37494 0.61306 0.55101 0.0
Zn29 Zn 0.38721 0.61545 0.52837 0.0
O30 O 0.41082 0.5813 0.5219 0.0
C31 C 0.43439 0.65185 0.53377 0.0
O32 O 0.44097 0.63037 0.5431 0.0
O33 O 0.35173 0.61852 0.5152 0.0
C34 C 0.42684 0.58378 0.5099 0.0
O35 O 0.4266 0.60794 0.50197 0.0
C36 C 0.38375 0.5945 0.56082 0.0
O37 O 0.40203 0.57485 0.55621 0.0
O38 O 0.4113 0.65072 0.52587 0.0
C39 C 0.63223 0.09133 0.78139 0.0
O40 O 0.61722 0.09424 0.79436 0.0
O41 O 0.64656 0.14055 0.8112 0.0
Zn42 Zn 0.64522 0.14973 0.78808 0.0
O43 O 0.67889 0.17403 0.78185 0.0
C44 C 0.60757 0.19794 0.78287 0.0
O45 O 0.63138 0.21251 0.78473 0.0
O46 O 0.64604 0.1127 0.77611 0.0
C47 C 0.68382 0.1782 0.76732 0.0
O48 O 0.66715 0.16599 0.75682 0.0
C49 C 0.64378 0.15993 0.82156 0.0
O50 O 0.64131 0.18672 0.81706 0.0
O51 O 0.60837 0.17076 0.78355 0.0
C52 C 0.13646 0.61486 0.46932 0.0
O53 O 0.12968 0.63532 0.45937 0.0
O54 O 0.08173 0.60531 0.44052 0.0
Zn55 Zn 0.0781 0.59987 0.46392 0.0
O56 O 0.05522 0.56468 0.46899 0.0
C57 C 0.03121 0.63688 0.47044 0.0
O58 O 0.01738 0.6162 0.46324 0.0
O59 O 0.11743 0.59689 0.47336 0.0
C60 C 0.05159 0.55816 0.48337 0.0
O61 O 0.06335 0.57426 0.49428 0.0
C62 C 0.10123 0.59324 0.43248 0.0
O63 O 0.11877 0.57521 0.43944 0.0
O64 O 0.05804 0.63448 0.47253 0.0
C65 C 0.64502 0.90095 0.72582 0.0
O66 O 0.66812 0.89441 0.71778 0.0
O67 O 0.627 0.86296 0.689 0.0
Zn68 Zn 0.62641 0.84948 0.71152 0.0
O69 O 0.66149 0.82649 0.71708 0.0
C70 C 0.59129 0.80167 0.70605 0.0
O71 O 0.61311 0.79584 0.69684 0.0
O72 O 0.62365 0.88417 0.72531 0.0
C73 C 0.66628 0.82076 0.73147 0.0
O74 O 0.64866 0.83066 0.74222 0.0
C75 C 0.64333 0.85309 0.67836 0.0
O76 O 0.66197 0.83305 0.68198 0.0
O77 O 0.59186 0.82442 0.71422 0.0
C78 C 0.34652 0.41311 0.97929 0.0
O79 O 0.35358 0.43544 0.97073 0.0
O80 O 0.38734 0.39331 0.94373 0.0
Zn81 Zn 0.39887 0.39335 0.96657 0.0
O82 O 0.4218 0.4284 0.97212 0.0
C83 C 0.44656 0.35722 0.96247 0.0
O84 O 0.45232 0.37752 0.95225 0.0
O85 O 0.36328 0.39169 0.97969 0.0
C86 C 0.43737 0.42733 0.98439 0.0
O87 O 0.43706 0.40403 0.99306 0.0
C88 C 0.39878 0.4092 0.93336 0.0
O89 O 0.41878 0.42743 0.93757 0.0
O90 O 0.42364 0.35884 0.97046 0.0
C91 C 0.83946 0.08934 0.22943 0.0
O92 O 0.81665 0.10562 0.23074 0.0
O93 O 0.86391 0.12654 0.18687 0.0
Zn94 Zn 0.86187 0.13571 0.20993 0.0
O95 O 0.82784 0.16055 0.21529 0.0
C96 C 0.90002 0.18303 0.21145 0.0
O97 O 0.87864 0.19511 0.20388 0.0
O98 O 0.86078 0.09821 0.22155 0.0
C99 C 0.82826 0.17331 0.22851 0.0
O100 O 0.85003 0.16898 0.23804 0.0
C101 C 0.85353 0.14177 0.17586 0.0
O102 O 0.83928 0.16516 0.17936 0.0
O103 O 0.89789 0.15696 0.21555 0.0
C104 C 0.84557 0.60731 0.96559 0.0
O105 O 0.84669 0.59248 0.95248 0.0
O106 O 0.89426 0.61306 0.93566 0.0
Zn107 Zn 0.90481 0.61272 0.95869 0.0
O108 O 0.923 0.57581 0.96604 0.0
C109 C 0.94926 0.65288 0.95191 0.0
O110 O 0.94838 0.63938 0.93836 0.0
O111 O 0.86842 0.61847 0.97095 0.0
C112 C 0.94906 0.56967 0.96336 0.0
O113 O 0.96441 0.58689 0.95455 0.0
C114 C 0.89983 0.59441 0.92523 0.0
O115 O 0.9144 0.57138 0.9291 0.0
O116 O 0.93215 0.64539 0.96279 0.0
C117 C 0.12279 0.10265 0.72405 0.0
O118 O 0.10435 0.10817 0.71274 0.0
O119 O 0.13979 0.15286 0.69372 0.0
Zn120 Zn 0.14038 0.15999 0.71708 0.0
O121 O 0.17523 0.18264 0.7233 0.0
C122 C 0.10156 0.20468 0.71276 0.0
O123 O 0.12143 0.21055 0.70231 0.0
O124 O 0.14002 0.12216 0.72838 0.0
C125 C 0.1743 0.19788 0.73568 0.0
O126 O 0.15072 0.19818 0.7441 0.0
C127 C 0.15076 0.13152 0.68669 0.0
O128 O 0.16552 0.11262 0.6948 0.0
O129 O 0.1049 0.18302 0.72164 0.0
C130 C 0.64924 0.36689 0.46715 0.0
O131 O 0.64313 0.34817 0.45611 0.0
O132 O 0.5991 0.38383 0.43618 0.0
Zn133 Zn 0.59279 0.38622 0.45955 0.0
O134 O 0.57006 0.4213 0.46514 0.0
C135 C 0.5467 0.34905 0.45676 0.0
O136 O 0.54049 0.36908 0.44643 0.0
O137 O 0.63058 0.38549 0.4709 0.0
C138 C 0.56261 0.42485 0.47938 0.0
O139 O 0.57105 0.40617 0.49 0.0
C140 C 0.61998 0.39393 0.4284 0.0
O141 O 0.63974 0.40895 0.43567 0.0
O142 O 0.56926 0.35166 0.46501 0.0
C143 C 0.35374 0.89683 0.21934 0.0
O144 O 0.32999 0.89073 0.21175 0.0
O145 O 0.36193 0.84847 0.18573 0.0
Zn146 Zn 0.36844 0.84078 0.20873 0.0
O147 O 0.33434 0.82023 0.21787 0.0
C148 C 0.42758 0.82566 0.21626 0.0
O149 O 0.4299 0.85271 0.22028 0.0
O150 O 0.37367 0.87833 0.21982 0.0
C151 C 0.3351 0.79348 0.22062 0.0
O152 O 0.35842 0.779 0.21725 0.0
C153 C 0.38131 0.86146 0.17805 0.0
O154 O 0.40475 0.86941 0.18541 0.0
O155 O 0.40376 0.81636 0.21114 0.0
C156 C 0.84444 0.37198 0.51831 0.0
O157 O 0.85383 0.39619 0.52424 0.0
O158 O 0.88456 0.35285 0.556 0.0
Zn159 Zn 0.89528 0.35243 0.53311 0.0
O160 O 0.9168 0.38813 0.52717 0.0
C161 C 0.94475 0.3193 0.53731 0.0
O162 O 0.94997 0.34122 0.54656 0.0
O163 O 0.85918 0.34937 0.5203 0.0
C164 C 0.93048 0.38827 0.51425 0.0
O165 O 0.92965 0.36543 0.50524 0.0
C166 C 0.88204 0.37539 0.56424 0.0
O167 O 0.88664 0.40046 0.55769 0.0
O168 O 0.92133 0.31873 0.52967 0.0
C169 C 0.37425 0.08746 0.27398 0.0
O170 O 0.38836 0.08942 0.28733 0.0
O171 O 0.35772 0.13525 0.30426 0.0
Zn172 Zn 0.36033 0.14576 0.28127 0.0
O173 O 0.32692 0.16953 0.27366 0.0
C174 C 0.40762 0.18263 0.28861 0.0
O175 O 0.39395 0.18441 0.30207 0.0
O176 O 0.36089 0.10924 0.26882 0.0
C177 C 0.3251 0.19642 0.27576 0.0
O178 O 0.34503 0.20952 0.28395 0.0
C179 C 0.3395 0.14399 0.31426 0.0
O180 O 0.31916 0.16165 0.30977 0.0
O181 O 0.39724 0.16719 0.27768 0.0
C182 C 0.65827 0.6176 0.02393 0.0
O183 O 0.65614 0.60419 0.03747 0.0
O184 O 0.61073 0.63121 0.05429 0.0
Zn185 Zn 0.60031 0.62995 0.03129 0.0
O186 O 0.5773 0.59486 0.0262 0.0
C187 C 0.55285 0.66533 0.03505 0.0
O188 O 0.54741 0.64437 0.04493 0.0
O189 O 0.63649 0.63059 0.01845 0.0
C190 C 0.57027 0.59017 0.01198 0.0
O191 O 0.57913 0.60786 0.00099 0.0
C192 C 0.60684 0.61066 0.06386 0.0
O193 O 0.59527 0.58677 0.05877 0.0
O194 O 0.57566 0.66428 0.02693 0.0
C195 C 0.15176 0.90114 0.76404 0.0
O196 O 0.17661 0.89381 0.7701 0.0
O197 O 0.14176 0.8529 0.79832 0.0
Zn198 Zn 0.1365 0.8454 0.77517 0.0
O199 O 0.17008 0.82397 0.7662 0.0
C200 C 0.0765 0.8325 0.77433 0.0
O201 O 0.07446 0.85983 0.77779 0.0
O202 O 0.13125 0.88333 0.76442 0.0
C203 C 0.17069 0.81904 0.75149 0.0
O204 O 0.14985 0.82888 0.74259 0.0
C205 C 0.1341 0.83443 0.80846 0.0
O206 O 0.12415 0.80965 0.80362 0.0
O207 O 0.10113 0.82156 0.77231 0.0
C208 C 0.63471 0.8976 0.5202 0.0
O209 O 0.62915 0.92201 0.52724 0.0
O210 O 0.59141 0.8802 0.55656 0.0
Zn211 Zn 0.58058 0.88184 0.53368 0.0
O212 O 0.55979 0.91811 0.52785 0.0
C213 C 0.56516 0.82327 0.53046 0.0
O214 O 0.59261 0.82012 0.5334 0.0
O215 O 0.61655 0.87743 0.52102 0.0
C216 C 0.55542 0.9229 0.5133 0.0
O217 O 0.56525 0.90457 0.5029 0.0
C218 C 0.59717 0.90116 0.56554 0.0
O219 O 0.59556 0.92739 0.56002 0.0
O220 O 0.55479 0.84837 0.52961 0.0
C221 C 0.35586 0.40016 0.77329 0.0
O222 O 0.33209 0.3869 0.77714 0.0
O223 O 0.38372 0.35839 0.81064 0.0
Zn224 Zn 0.3816 0.35044 0.78746 0.0
O225 O 0.34732 0.32624 0.78212 0.0
C226 C 0.42017 0.30396 0.78714 0.0
O227 O 0.39979 0.29356 0.79613 0.0
O228 O 0.37978 0.38832 0.77624 0.0
C229 C 0.34309 0.31976 0.76778 0.0
O230 O 0.36097 0.32934 0.75707 0.0
C231 C 0.36227 0.36518 0.81902 0.0
O232 O 0.33674 0.3663 0.81254 0.0
O233 O 0.41724 0.32897 0.78147 0.0
C234 C 0.85091 0.10699 0.01722 0.0
O235 O 0.85562 0.08304 0.02493 0.0
O236 O 0.89293 0.11163 0.05219 0.0
Zn237 Zn 0.90551 0.11742 0.02979 0.0
O238 O 0.92462 0.08211 0.02127 0.0
C239 C 0.93298 0.16991 0.03928 0.0
O240 O 0.91334 0.16925 0.05032 0.0
O241 O 0.87028 0.12607 0.01712 0.0
C242 C 0.93844 0.08432 0.00844 0.0
O243 O 0.9395 0.10932 0.00136 0.0
C244 C 0.91035 0.10628 0.0633 0.0
O245 O 0.93761 0.10277 0.06003 0.0
O246 O 0.93335 0.15034 0.0289 0.0
C247 C 0.11722 0.59489 0.28 0.0
O248 O 0.10225 0.59852 0.29293 0.0
O249 O 0.13833 0.64175 0.30995 0.0
Zn250 Zn 0.13442 0.65219 0.2871 0.0
O251 O 0.16843 0.67477 0.27965 0.0
C252 C 0.07724 0.66966 0.27617 0.0
O253 O 0.07771 0.64605 0.26779 0.0
O254 O 0.13221 0.61553 0.27481 0.0
C255 C 0.16575 0.69022 0.26741 0.0
O256 O 0.14085 0.69117 0.26021 0.0
C257 C 0.13147 0.65939 0.32067 0.0
O258 O 0.12356 0.68541 0.31669 0.0
O259 O 0.09867 0.676 0.28471 0.0
C260 C 0.6554 0.14008 0.97002 0.0
O261 O 0.65236 0.15167 0.95603 0.0
O262 O 0.59696 0.12829 0.94382 0.0
Zn263 Zn 0.59409 0.12929 0.96741 0.0
O264 O 0.57292 0.09526 0.97597 0.0
C265 C 0.5812 0.18936 0.96952 0.0
O266 O 0.60681 0.19175 0.96329 0.0
O267 O 0.63358 0.12999 0.97703 0.0
C268 C 0.55444 0.08108 0.96825 0.0
O269 O 0.54895 0.08812 0.95358 0.0
C270 C 0.61318 0.11171 0.93602 0.0
O271 O 0.62862 0.0925 0.94351 0.0
O272 O 0.57171 0.16463 0.97288 0.0
C273 C 0.1357 0.39796 0.23261 0.0
O274 O 0.16136 0.38744 0.23 0.0
O275 O 0.11992 0.34794 0.19541 0.0
Zn276 Zn 0.11835 0.34429 0.21909 0.0
O277 O 0.15303 0.3245 0.22823 0.0
C278 C 0.08318 0.29461 0.21989 0.0
O279 O 0.10616 0.28352 0.2134 0.0
O280 O 0.11387 0.3832 0.22892 0.0
C281 C 0.16991 0.30869 0.22036 0.0
O282 O 0.16542 0.30518 0.20522 0.0
C283 C 0.12749 0.37047 0.18811 0.0
O284 O 0.13685 0.39257 0.19614 0.0
O285 O 0.0834 0.32082 0.22387 0.0
C286 C 0.82966 0.86053 0.4734 0.0
O287 O 0.83292 0.84298 0.46145 0.0
O288 O 0.88636 0.86301 0.44599 0.0
Zn289 Zn 0.8903 0.86721 0.46941 0.0
O290 O 0.91594 0.90032 0.47477 0.0
C291 C 0.93492 0.82775 0.47443 0.0
O292 O 0.94874 0.84856 0.46734 0.0
O293 O 0.85147 0.87311 0.47905 0.0
C294 C 0.92097 0.90544 0.4892 0.0
O295 O 0.90862 0.8895 0.49998 0.0
C296 C 0.87289 0.88046 0.43722 0.0
O297 O 0.86141 0.90349 0.44346 0.0
O298 O 0.90839 0.83088 0.47728 0.0
C299 C 0.34648 0.59862 0.72641 0.0
O300 O 0.32211 0.61268 0.72627 0.0
O301 O 0.36445 0.63398 0.68393 0.0
Zn302 Zn 0.36579 0.64544 0.70671 0.0
O303 O 0.33161 0.669 0.71318 0.0
C304 C 0.41226 0.68238 0.69857 0.0
O305 O 0.39959 0.68092 0.68479 0.0
O306 O 0.36798 0.60902 0.71927 0.0
C307 C 0.32483 0.692 0.7061 0.0
O308 O 0.3398 0.70009 0.69379 0.0
C309 C 0.3426 0.63032 0.67525 0.0
O310 O 0.3169 0.63434 0.68111 0.0
O311 O 0.40161 0.66882 0.71015 0.0
C312 C 0.34133 0.10214 0.47324 0.0
O313 O 0.34719 0.0809 0.46364 0.0
O314 O 0.38085 0.1233 0.43787 0.0
Zn315 Zn 0.39366 0.1227 0.46053 0.0
O316 O 0.41803 0.08833 0.46575 0.0
C317 C 0.43472 0.16526 0.45368 0.0
O318 O 0.43745 0.14881 0.44123 0.0
O319 O 0.35871 0.12298 0.47419 0.0
C320 C 0.43311 0.08973 0.4782 0.0
O321 O 0.43195 0.11306 0.48681 0.0
C322 C 0.38046 0.10219 0.42845 0.0
O323 O 0.38889 0.07691 0.43342 0.0
O324 O 0.41675 0.15837 0.46423 0.0
C325 C 0.62156 0.58544 0.21733 0.0
O326 O 0.6086 0.58769 0.20365 0.0
O327 O 0.63095 0.63738 0.18857 0.0
Zn328 Zn 0.63257 0.64513 0.21181 0.0
O329 O 0.66759 0.66779 0.21762 0.0
C330 C 0.59869 0.69455 0.2123 0.0
O331 O 0.62131 0.7034 0.20451 0.0
O332 O 0.63283 0.60756 0.22344 0.0
C333 C 0.67313 0.67124 0.23214 0.0
O334 O 0.65656 0.65898 0.24265 0.0
C335 C 0.65066 0.64261 0.1787 0.0
O336 O 0.67472 0.65419 0.18355 0.0
O337 O 0.59807 0.66886 0.21724 0.0
C338 C 0.13632 0.89017 0.97818 0.0
O339 O 0.11424 0.89814 0.98669 0.0
O340 O 0.09641 0.87859 0.93093 0.0
Zn341 Zn 0.09295 0.88073 0.95452 0.0
O342 O 0.07055 0.91566 0.96109 0.0
C343 C 0.08264 0.82088 0.95785 0.0
O344 O 0.10755 0.81967 0.95071 0.0
O345 O 0.13224 0.88167 0.96416 0.0
C346 C 0.04388 0.91403 0.96393 0.0
O347 O 0.03076 0.8894 0.96208 0.0
C348 C 0.11903 0.88547 0.92354 0.0
O349 O 0.14086 0.896 0.93139 0.0
O350 O 0.0723 0.84519 0.96136 0.0
C351 C 0.84822 0.40559 0.72257 0.0
O352 O 0.82721 0.39657 0.71356 0.0
O353 O 0.86839 0.36089 0.68988 0.0
Zn354 Zn 0.87083 0.35216 0.71307 0.0
O355 O 0.83819 0.32713 0.72007 0.0
C356 C 0.91471 0.31176 0.70746 0.0
O357 O 0.8973 0.30592 0.69574 0.0
O358 O 0.8699 0.38955 0.72462 0.0
C359 C 0.84089 0.31249 0.7326 0.0
O360 O 0.86474 0.31451 0.74075 0.0
C361 C 0.84996 0.35023 0.68057 0.0
O362 O 0.83057 0.33256 0.68612 0.0
O363 O 0.90799 0.33149 0.71706 0.0
C364 C 0.33713 0.90508 0.02152 0.0
O365 O 0.34438 0.92721 0.03019 0.0
O366 O 0.38765 0.89628 0.05273 0.0
Zn367 Zn 0.39391 0.88919 0.02958 0.0
O368 O 0.41555 0.92172 0.0196 0.0
C369 C 0.43234 0.84389 0.03834 0.0
O370 O 0.43357 0.859 0.05135 0.0
O371 O 0.35541 0.88536 0.01922 0.0
C372 C 0.44157 0.92624 0.02321 0.0
O373 O 0.45387 0.90996 0.03386 0.0
C374 C 0.37203 0.87839 0.06003 0.0
O375 O 0.36003 0.85751 0.05204 0.0
O376 O 0.41666 0.85257 0.02704 0.0
C377 C 0.84559 0.6044 0.76877 0.0
O378 O 0.82382 0.61282 0.77739 0.0
O379 O 0.87051 0.64552 0.8032 0.0
Zn380 Zn 0.8675 0.65666 0.78041 0.0
O381 O 0.83201 0.67973 0.77563 0.0
C382 C 0.90407 0.70402 0.78309 0.0
O383 O 0.88428 0.71035 0.79351 0.0
O384 O 0.86747 0.62044 0.76776 0.0
C385 C 0.83197 0.69349 0.76271 0.0
O386 O 0.85432 0.69145 0.7534 0.0
C387 C 0.85013 0.64454 0.81307 0.0
O388 O 0.82419 0.65184 0.80861 0.0
O389 O 0.90185 0.68084 0.77537 0.0
C390 C 0.15613 0.10367 0.53427 0.0
O391 O 0.15574 0.11265 0.54892 0.0
O392 O 0.10701 0.09042 0.56389 0.0
Zn393 Zn 0.09687 0.0927 0.54089 0.0
O394 O 0.07337 0.05867 0.53439 0.0
C395 C 0.0828 0.15326 0.53759 0.0
O396 O 0.1103 0.15721 0.53998 0.0
O397 O 0.13313 0.09435 0.5281 0.0
C398 C 0.05942 0.06055 0.52157 0.0
O399 O 0.06169 0.08399 0.5131 0.0
C400 C 0.08938 0.09859 0.57433 0.0
O401 O 0.06372 0.10705 0.56998 0.0
O402 O 0.07291 0.12795 0.53732 0.0
C403 C 0.64834 0.39262 0.26902 0.0
O404 O 0.6712 0.38768 0.27765 0.0
O405 O 0.63792 0.35034 0.3041 0.0
Zn406 Zn 0.63212 0.33829 0.28162 0.0
O407 O 0.66521 0.31384 0.27457 0.0
C408 C 0.59358 0.28997 0.27656 0.0
O409 O 0.61705 0.27621 0.27266 0.0
O410 O 0.62868 0.37387 0.26851 0.0
C411 C 0.67184 0.3112 0.26013 0.0
O412 O 0.65716 0.3254 0.24948 0.0
C413 C 0.63533 0.33208 0.31508 0.0
O414 O 0.62992 0.30529 0.31144 0.0
O415 O 0.5951 0.31619 0.28046 0.0
H416 H 0.92503 0.53316 0.9848 0.0
H417 H 0.00413 0.55068 0.96029 0.0
H418 H 0.94876 0.49548 -0.00023 0.0
H419 H 0.02767 0.51254 0.975 0.0
H420 H 0.06844 0.46712 0.01703 0.0
H421 H 0.04383 0.50367 0.00164 0.0
H422 H 0.97 0.44847 -0.00244 0.0
H423 H 0.99434 0.41218 0.01327 0.0
C424 C 0.94739 0.52874 0.98245 0.0
C425 C 0.96272 0.54505 0.9714 0.0
C426 C 0.96098 0.50705 0.99101 0.0
C427 C 0.99019 0.50112 0.98868 0.0
C428 C 0.00529 0.51692 0.97731 0.0
C429 C 0.99173 0.53864 0.96878 0.0
C430 C 0.04691 0.46282 0.01291 0.0
C431 C 0.03336 0.43673 0.01639 0.0
C432 C 0.03288 0.48369 0.00397 0.0
C433 C 0.00499 0.47894 -0.00173 0.0
C434 C 0.99135 0.45295 0.00189 0.0
C435 C 0.00536 0.43209 0.01086 0.0
H436 H 0.69367 0.67905 0.26192 0.0
H437 H 0.70614 0.70615 0.21377 0.0
H438 H 0.73172 0.71114 0.2704 0.0
H439 H 0.7436 0.73893 0.22231 0.0
H440 H 0.8286 0.7731 0.24111 0.0
H441 H 0.79142 0.74017 0.23245 0.0
H442 H 0.74124 0.76116 0.27357 0.0
H443 H 0.77887 0.79344 0.28247 0.0
C444 C 0.70449 0.69192 0.25315 0.0
C445 C 0.69689 0.69005 0.23718 0.0
C446 C 0.72617 0.71049 0.25803 0.0
C447 C 0.74064 0.72777 0.24706 0.0
C448 C 0.73317 0.72569 0.23105 0.0
C449 C 0.7116 0.70697 0.22616 0.0
C450 C 0.8096 0.77074 0.24829 0.0
C451 C 0.8067 0.78585 0.26249 0.0
C452 C 0.7882 0.75194 0.24328 0.0
C453 C 0.76333 0.74795 0.25232 0.0
C454 C 0.76032 0.76333 0.26645 0.0
C455 C 0.78181 0.782 0.27151 0.0
H456 H 0.53591 0.46312 0.45989 0.0
H457 H 0.54578 0.44051 0.50894 0.0
H458 H 0.50267 0.50106 0.46716 0.0
H459 H 0.51318 0.47899 0.51624 0.0
H460 H 0.4305 0.52987 0.5224 0.0
H461 H 0.46332 0.49163 0.51489 0.0
H462 H 0.50089 0.54691 0.47973 0.0
H463 H 0.46758 0.58475 0.48691 0.0
C464 C 0.5312 0.46642 0.47224 0.0
C465 C 0.54347 0.44877 0.48383 0.0
C466 C 0.51223 0.48827 0.47642 0.0
C467 C 0.50518 0.49307 0.49229 0.0
C468 C 0.51774 0.47559 0.50389 0.0
C469 C 0.53661 0.45365 0.49971 0.0
C470 C 0.4457 0.5338 0.51303 0.0
C471 C 0.44638 0.56033 0.50524 0.0
C472 C 0.46467 0.51196 0.5088 0.0
C473 C 0.48482 0.51619 0.49672 0.0
C474 C 0.4854 0.54274 0.48892 0.0
C475 C 0.46636 0.56451 0.4931 0.0
H476 H 0.84142 0.27601 0.75774 0.0
H477 H 0.78817 0.30477 0.71919 0.0
H478 H 0.80388 0.24318 0.76602 0.0
H479 H 0.75032 0.27241 0.72771 0.0
H480 H 0.70147 0.18964 0.73733 0.0
H481 H 0.73955 0.22186 0.72901 0.0
H482 H 0.75671 0.24313 0.77761 0.0
H483 H 0.71909 0.21039 0.78595 0.0
C484 C 0.82164 0.27547 0.75108 0.0
C485 C 0.8178 0.293 0.73779 0.0
C486 C 0.80004 0.25674 0.75589 0.0
C487 C 0.77408 0.25515 0.74754 0.0
C488 C 0.77021 0.27279 0.73428 0.0
C489 C 0.79184 0.29148 0.72945 0.0
C490 C 0.71341 0.20113 0.74624 0.0
C491 C 0.70726 0.19742 0.7623 0.0
C492 C 0.73513 0.21975 0.74146 0.0
C493 C 0.75114 0.23515 0.75263 0.0
C494 C 0.74505 0.23133 0.7687 0.0
C495 C 0.72338 0.21265 0.77349 0.0
H496 H 0.96534 0.39356 0.48865 0.0
H497 H 0.93464 0.43987 0.52929 0.0
H498 H 0.99467 0.43445 0.48125 0.0
H499 H 0.96346 0.48108 0.52166 0.0
H500 H 0.04226 0.53675 0.51285 0.0
H501 H 0.01293 0.49579 0.52019 0.0
H502 H 0.9908 0.48265 0.47132 0.0
H503 H 0.02072 0.52317 0.46393 0.0
C504 C 0.96468 0.41254 0.49595 0.0
C505 C 0.94768 0.41344 0.50957 0.0
C506 C 0.9814 0.43606 0.49166 0.0
C507 C 0.98143 0.46106 0.50086 0.0
C508 C 0.96426 0.46201 0.51443 0.0
C509 C 0.9476 0.43845 0.51876 0.0
C510 C 0.03117 0.5251 0.50366 0.0
C511 C 0.03387 0.53319 0.4878 0.0
C512 C 0.0142 0.50172 0.50789 0.0
C513 C -0.00055 0.48596 0.49635 0.0
C514 C 0.00217 0.49408 0.48048 0.0
C515 C 0.01922 0.5174 0.47625 0.0
H516 H 0.7024 0.791 0.71217 0.0
H517 H 0.68546 0.80893 0.76117 0.0
H518 H 0.74183 0.75976 0.71978 0.0
H519 H 0.72546 0.77839 0.76878 0.0
H520 H 0.78008 0.69867 0.77746 0.0
H521 H 0.73992 0.72915 0.76983 0.0
H522 H 0.78902 0.7613 0.73053 0.0
H523 H 0.82867 0.73027 0.73785 0.0
C524 C 0.70724 0.78847 0.72456 0.0
C525 C 0.69079 0.80245 0.73606 0.0
C526 C 0.72995 0.77064 0.72894 0.0
C527 C 0.73688 0.76654 0.74491 0.0
C528 C 0.72047 0.78069 0.75639 0.0
C529 C 0.69765 0.79837 0.75202 0.0
C530 C 0.78224 0.71222 0.76718 0.0
C531 C 0.80753 0.71198 0.75824 0.0
C532 C 0.75929 0.72983 0.76285 0.0
C533 C 0.76119 0.7477 0.74954 0.0
C534 C 0.78658 0.74748 0.74068 0.0
C535 C 0.80941 0.72978 0.74494 0.0
H536 H 0.47744 0.42897 0.00776 0.0
H537 H 0.44063 0.48005 0.97042 0.0
H538 H 0.50996 0.46788 0.01423 0.0
H539 H 0.47265 0.51938 0.97721 0.0
H540 H 0.55436 0.57197 0.98269 0.0
H541 H 0.52237 0.53259 0.97606 0.0
H542 H 0.51052 0.51479 0.02556 0.0
H543 H 0.54315 0.5536 0.03216 0.0
C544 C 0.47611 0.44861 0.00101 0.0
C545 C 0.45644 0.45142 0.98857 0.0
C546 C 0.49468 0.471 0.00478 0.0
C547 C 0.49393 0.49679 0.99626 0.0
C548 C 0.4741 0.49965 0.98387 0.0
C549 C 0.45561 0.47718 0.98004 0.0
C550 C 0.54501 0.55958 0.99216 0.0
C551 C 0.55133 0.56589 0.00795 0.0
C552 C 0.52649 0.53713 0.98836 0.0
C553 C 0.51378 0.52056 0.00028 0.0
C554 C 0.52023 0.52685 0.01608 0.0
C555 C 0.53885 0.5492 0.01987 0.0
H556 H 0.82556 0.20681 0.25473 0.0
H557 H 0.7787 0.18528 0.21247 0.0
H558 H 0.78818 0.24048 0.26207 0.0
H559 H 0.74081 0.21852 0.22005 0.0
H560 H 0.69344 0.30237 0.2306 0.0
H561 H 0.73121 0.26918 0.22284 0.0
H562 H 0.73959 0.24125 0.27113 0.0
H563 H 0.70244 0.27488 0.27894 0.0
C564 C 0.80717 0.2091 0.24705 0.0
C565 C 0.8051 0.19331 0.23302 0.0
C566 C 0.78564 0.22833 0.25131 0.0
C567 C 0.76142 0.23217 0.24168 0.0
C568 C 0.75934 0.21636 0.22764 0.0
C569 C 0.78096 0.19716 0.22334 0.0
C570 C 0.70341 0.2892 0.23956 0.0
C571 C 0.69499 0.29134 0.25539 0.0
C572 C 0.72493 0.27003 0.23509 0.0
C573 C 0.73845 0.25253 0.24636 0.0
C574 C 0.72996 0.2547 0.26219 0.0
C575 C 0.70854 0.27391 0.26665 0.0
H576 H 0.32557 0.30604 0.73805 0.0
H577 H 0.30486 0.29269 0.78706 0.0
H578 H 0.28486 0.27665 0.73038 0.0
H579 H 0.26459 0.2626 0.77941 0.0
H580 H 0.17735 0.23635 0.7598 0.0
H581 H 0.21802 0.26577 0.76749 0.0
H582 H 0.26863 0.22784 0.73039 0.0
H583 H 0.22766 0.19898 0.72243 0.0
C584 C 0.31243 0.2967 0.7472 0.0
C585 C 0.31844 0.30174 0.76317 0.0
C586 C 0.28917 0.27968 0.7428 0.0
C587 C 0.27145 0.2672 0.75427 0.0
C588 C 0.27754 0.27221 0.77026 0.0
C589 C 0.30073 0.28934 0.77465 0.0
C590 C 0.19716 0.23426 0.75329 0.0
C591 C 0.19925 0.21535 0.74049 0.0
C592 C 0.22055 0.25102 0.75776 0.0
C593 C 0.24663 0.24918 0.74957 0.0
C594 C 0.24874 0.23012 0.73681 0.0
C595 C 0.2253 0.21344 0.7323 0.0
H596 H 0.16598 0.72815 0.24294 0.0
H597 H 0.22141 0.68859 0.27748 0.0
H598 H 0.20689 0.75351 0.23189 0.0
H599 H 0.26227 0.71421 0.26647 0.0
H600 H 0.33147 0.73774 0.2301 0.0
H601 H 0.29047 0.71348 0.24176 0.0
H602 H 0.24142 0.79174 0.23899 0.0
H603 H 0.28236 0.81605 0.22718 0.0
C604 C 0.18686 0.72495 0.24822 0.0
C605 C 0.19045 0.70629 0.26106 0.0
C606 C 0.21026 0.73962 0.24194 0.0
C607 C 0.23779 0.73581 0.2483 0.0
C608 C 0.24136 0.71732 0.26121 0.0
C609 C 0.21792 0.70278 0.26757 0.0
C610 C 0.31196 0.7498 0.23197 0.0
C611 C 0.31017 0.77882 0.2277 0.0
C612 C 0.28853 0.73593 0.23874 0.0
C613 C 0.26276 0.75072 0.24131 0.0
C614 C 0.26093 0.77973 0.23701 0.0
C615 C 0.28442 0.79366 0.23032 0.0
H616 H 0.31381 0.25365 0.27861 0.0
H617 H 0.28371 0.17674 0.25571 0.0
H618 H 0.2768 0.28131 0.26514 0.0
H619 H 0.24659 0.20438 0.24238 0.0
H620 H 0.20587 0.26829 0.20802 0.0
H621 H 0.2433 0.24146 0.22165 0.0
H622 H 0.22416 0.2868 0.26466 0.0
H623 H 0.18696 0.31385 0.25103 0.0
C624 C 0.29921 0.24261 0.27079 0.0
C625 C 0.30176 0.21299 0.26822 0.0
C626 C 0.27794 0.25845 0.26311 0.0
C627 C 0.25887 0.24505 0.25264 0.0
C628 C 0.26123 0.21539 0.25021 0.0
C629 C 0.28238 0.19952 0.25794 0.0
C630 C 0.20973 0.27264 0.22036 0.0
C631 C 0.19339 0.29318 0.22844 0.0
C632 C 0.23104 0.25713 0.2282 0.0
C633 C 0.23659 0.26192 0.24425 0.0
C634 C 0.22056 0.28278 0.25226 0.0
C635 C 0.19915 0.29818 0.24446 0.0
H636 H 0.21468 0.79218 0.76686 0.0
H637 H 0.17878 0.80554 0.72051 0.0
H638 H 0.25163 0.76159 0.75556 0.0
H639 H 0.21555 0.77464 0.70926 0.0
H640 H 0.30453 0.74218 0.69374 0.0
H641 H 0.26757 0.77338 0.70458 0.0
H642 H 0.25514 0.71424 0.74307 0.0
H643 H 0.29228 0.68321 0.73238 0.0
C644 C 0.21468 0.78863 0.75426 0.0
C645 C 0.19375 0.80128 0.74459 0.0
C646 C 0.23575 0.77094 0.7478 0.0
C647 C 0.23643 0.76557 0.73153 0.0
C648 C 0.21575 0.77855 0.72183 0.0
C649 C 0.1946 0.79616 0.72829 0.0
C650 C 0.29384 0.73577 0.70448 0.0
C651 C 0.30142 0.71024 0.71221 0.0
C652 C 0.27259 0.7536 0.71066 0.0
C653 C 0.25854 0.74635 0.72473 0.0
C654 C 0.26588 0.72064 0.73234 0.0
C655 C 0.28703 0.70276 0.72614 0.0
H656 H 0.54489 0.94049 0.48318 0.0
H657 H 0.52758 0.9621 0.5317 0.0
H658 H 0.51611 0.98109 0.47456 0.0
H659 H 0.49815 0.00226 0.52306 0.0
H660 H 0.47098 0.0882 0.50267 0.0
H661 H 0.50133 0.04857 0.51091 0.0
H662 H 0.46695 0.99654 0.47334 0.0
H663 H 0.4371 0.03654 0.46481 0.0
C664 C 0.53489 0.95387 0.49201 0.0
C665 C 0.53853 0.94805 0.50813 0.0
C666 C 0.51821 0.97705 0.48706 0.0
C667 C 0.5047 0.99491 0.4981 0.0
C668 C 0.50854 0.98919 0.51423 0.0
C669 C 0.52531 0.96606 0.51919 0.0
C670 C 0.4699 0.06833 0.49614 0.0
C671 C 0.45159 0.06553 0.48308 0.0
C672 C 0.48721 0.04552 0.50093 0.0
C673 C 0.48655 0.01931 0.49283 0.0
C674 C 0.46829 0.01655 0.47972 0.0
C675 C 0.45105 0.03943 0.47488 0.0
H676 H 0.9881 0.91642 0.9735 0.0
H677 H 0.06376 0.96865 0.96787 0.0
H678 H 0.96227 0.95759 0.98396 0.0
H679 H 0.03793 0.00973 0.97848 0.0
H680 H 0.97298 0.08312 0.98255 0.0
H681 H -0.00203 0.04205 0.97139 0.0
H682 H 0.96308 0.98791 0.00785 0.0
H683 H 0.9378 0.02892 0.01895 0.0
C684 C -0.00077 0.93668 0.97447 0.0
C685 C 0.02801 0.93924 0.96986 0.0
C686 C 0.98446 0.96021 0.98055 0.0
C687 C -0.00191 0.98687 0.98208 0.0
C688 C 0.02677 0.98953 0.9773 0.0
C689 C 0.04159 0.96595 0.97129 0.0
C690 C 0.97058 0.06246 0.98818 0.0
C691 C 0.95341 0.0593 0.00165 0.0
C692 C 0.98504 0.03897 0.98183 0.0
C693 C 0.98252 0.01177 0.98875 0.0
C694 C 0.9652 0.00855 0.00215 0.0
C695 C 0.95085 0.03208 0.00856 0.0
H696 H 0.55701 0.06505 -0.00087 0.0
H697 H 0.51557 0.0443 0.95507 0.0
H698 H 0.5296 0.02786 0.01227 0.0
H699 H 0.4886 0.00648 0.9682 0.0
H700 H 0.42278 0.96366 0.00062 0.0
H701 H 0.45029 0.00068 0.98722 0.0
H702 H 0.52547 0.97654 0.01382 0.0
H703 H 0.49786 0.94001 0.02747 0.0
C704 C 0.54222 0.05239 0.99221 0.0
C705 C 0.53845 0.05768 0.97604 0.0
C706 C 0.52659 0.03094 -0.00026 0.0
C707 C 0.5069 0.01417 0.9913 0.0
C708 C 0.5033 0.01929 0.97509 0.0
C709 C 0.51889 0.04085 0.96755 0.0
C710 C 0.44517 0.9663 0.00364 0.0
C711 C 0.45811 0.94893 0.01515 0.0
C712 C 0.46099 0.98739 0.99587 0.0
C713 C 0.4901 0.99156 -0.00058 0.0
C714 C 0.503 0.97415 0.01094 0.0
C715 C 0.48719 0.95311 0.01872 0.0
H716 H 0.05124 0.00838 0.53555 0.0
H717 H 0.02341 0.06025 0.49624 0.0
H718 H 0.01826 0.97068 0.5275 0.0
H719 H 0.98996 0.02293 0.48845 0.0
H720 H 0.95402 0.93866 0.46993 0.0
H721 H 0.98829 0.9754 0.47759 0.0
H722 H 0.96753 0.96109 0.52652 0.0
H723 H 0.93382 0.92383 0.51889 0.0
C724 C 0.03806 0.01176 0.52521 0.0
C725 C 0.03996 0.03731 0.51654 0.0
C726 C 0.01902 0.99023 0.52065 0.0
C727 C 0.00139 0.99381 0.50736 0.0
C728 C 0.00348 0.0193 0.49863 0.0
C729 C 0.02258 0.04077 0.50315 0.0
C730 C 0.95674 0.94338 0.48232 0.0
C731 C 0.94119 0.92832 0.4938 0.0
C732 C 0.9763 0.96454 0.48671 0.0
C733 C 0.98069 0.97119 0.50268 0.0
C734 C 0.96502 0.95619 0.51414 0.0
C735 C 0.94553 0.93497 0.50975 0.0
H736 H 0.9455 0.20701 0.06306 0.0
H737 H 0.97109 0.18324 0.01596 0.0
H738 H 0.98306 0.24323 0.0637 0.0
H739 H 0.00863 0.21971 0.01664 0.0
H740 H 0.04531 0.31337 0.01954 0.0
H741 H 0.01055 0.27445 0.01795 0.0
H742 H 0.03767 0.24404 0.06361 0.0
H743 H 0.07256 0.28285 0.06522 0.0
C744 C 0.95907 0.20957 0.05283 0.0
C745 C 0.9553 0.1923 0.03945 0.0
C746 C 0.98071 0.23015 0.05326 0.0
C747 C -0.00119 0.23413 0.04025 0.0
C748 C 0.99489 0.21711 0.0268 0.0
C749 C 0.97346 0.19623 0.02644 0.0
C750 C 0.04408 0.29821 0.02917 0.0
C751 C 0.06161 0.30123 0.04253 0.0
C752 C 0.02426 0.27589 0.02822 0.0
C753 C 0.02134 0.25639 0.0407 0.0
C754 C 0.03932 0.25899 0.05389 0.0
C755 C 0.05939 0.28109 0.05476 0.0
H756 H 0.02536 0.65976 0.26218 0.0
H757 H 0.07103 0.72157 0.29051 0.0
H758 H 0.9824 0.68949 0.26356 0.0
H759 H 0.02807 0.75102 0.292 0.0
H760 H 0.95273 0.80915 0.27946 0.0
H761 H 0.996 0.78069 0.27546 0.0
H762 H 0.94794 0.7034 0.28431 0.0
H763 H 0.90469 0.7317 0.28814 0.0
C764 C 0.02629 0.67973 0.26863 0.0
C765 C 0.05158 0.68824 0.27628 0.0
C766 C 0.00165 0.69667 0.26948 0.0
C767 C 0.00186 0.72255 0.27792 0.0
C768 C 0.02733 0.73135 0.28527 0.0
C769 C 0.05189 0.71436 0.28449 0.0
C770 C 0.95138 0.78608 0.28048 0.0
C771 C 0.9253 0.77269 0.28418 0.0
C772 C 0.97618 0.76981 0.27826 0.0
C773 C 0.97536 0.73982 0.27958 0.0
C774 C 0.94918 0.72644 0.28303 0.0
C775 C 0.92445 0.74269 0.28534 0.0
H776 H 0.42893 0.69833 0.51435 0.0
H777 H 0.4836 0.66174 0.55021 0.0
H778 H 0.46102 0.73933 0.51225 0.0
H779 H 0.51522 0.70295 0.54837 0.0
H780 H 0.58064 0.76689 0.53114 0.0
H781 H 0.54929 0.72524 0.53086 0.0
H782 H 0.47552 0.7808 0.52741 0.0
H783 H 0.50688 0.82243 0.5273 0.0
C784 C 0.44773 0.69908 0.52182 0.0
C785 C 0.45371 0.67679 0.53245 0.0
C786 C 0.46605 0.72263 0.52066 0.0
C787 C 0.49071 0.7244 0.53013 0.0
C788 C 0.49667 0.70205 0.54073 0.0
C789 C 0.47841 0.6785 0.54186 0.0
C790 C 0.55774 0.77022 0.53021 0.0
C791 C 0.54625 0.79798 0.52932 0.0
C792 C 0.53977 0.74635 0.53015 0.0
C793 C 0.50989 0.7497 0.52924 0.0
C794 C 0.49845 0.77745 0.52796 0.0
C795 C 0.51643 0.80133 0.52798 0.0
H796 H 0.55436 0.17453 0.77883 0.0
H797 H 0.59812 0.25563 0.78321 0.0
H798 H 0.50852 0.1995 0.77786 0.0
H799 H 0.55232 0.28048 0.78262 0.0
H800 H 0.4667 0.31912 0.76941 0.0
H801 H 0.5115 0.29279 0.76635 0.0
H802 H 0.47872 0.22547 0.7962 0.0
H803 H 0.43383 0.25138 0.79896 0.0
C804 C 0.55422 0.19768 0.77952 0.0
C805 C 0.57989 0.21308 0.78119 0.0
C806 C 0.52794 0.21198 0.77905 0.0
C807 C 0.52673 0.24198 0.78026 0.0
C808 C 0.55248 0.25739 0.78148 0.0
C809 C 0.57875 0.24311 0.78192 0.0
C810 C 0.46899 0.29859 0.77521 0.0
C811 C 0.44675 0.28741 0.78449 0.0
C812 C 0.49471 0.28357 0.77352 0.0
C813 C 0.49874 0.25707 0.78107 0.0
C814 C 0.47622 0.24563 0.79004 0.0
C815 C 0.45052 0.2606 0.79171 0.0
H816 H 0.91161 0.77836 0.4862 0.0
H817 H 0.99102 0.81462 0.46941 0.0
H818 H 0.93468 0.73159 0.48847 0.0
H819 H 0.01378 0.76798 0.47136 0.0
H820 H 0.05373 0.68441 0.48461 0.0
H821 H 0.03027 0.7304 0.48887 0.0
H822 H 0.95174 0.69633 0.46957 0.0
H823 H 0.97495 0.65024 0.46563 0.0
C824 C 0.93403 0.77643 0.48315 0.0
C825 C 0.94941 0.80014 0.47749 0.0
C826 C 0.9472 0.74962 0.48437 0.0
C827 C 0.97601 0.74602 0.48 0.0
C828 C 0.99166 0.77004 0.475 0.0
C829 C 0.97852 0.79678 0.47377 0.0
C830 C 0.03135 0.68662 0.48147 0.0
C831 C 0.01629 0.66376 0.47462 0.0
C832 C 0.01795 0.71301 0.48386 0.0
C833 C 0.98922 0.71711 0.47944 0.0
C834 C 0.97381 0.69383 0.47326 0.0
C835 C 0.98719 0.66744 0.47089 0.0
H836 H 0.58112 0.75559 0.68721 0.0
H837 H 0.54397 0.8051 0.72501 0.0
H838 H 0.53827 0.72598 0.6862 0.0
H839 H 0.50094 0.77536 0.72391 0.0
H840 H 0.44055 0.69616 0.72586 0.0
H841 H 0.48457 0.72419 0.72851 0.0
H842 H 0.48759 0.73491 0.67804 0.0
H843 H 0.4439 0.70701 0.67535 0.0
C844 C 0.56389 0.76007 0.69537 0.0
C845 C 0.56588 0.78281 0.70613 0.0
C846 C 0.5393 0.74318 0.69472 0.0
C847 C 0.51623 0.7485 0.7049 0.0
C848 C 0.51849 0.7707 0.71598 0.0
C849 C 0.54305 0.78779 0.71655 0.0
C850 C 0.45066 0.70449 0.71535 0.0
C851 C 0.43877 0.69934 0.7004 0.0
C852 C 0.47574 0.72062 0.71687 0.0
C853 C 0.48953 0.73159 0.70347 0.0
C854 C 0.47762 0.7264 0.68856 0.0
C855 C 0.45249 0.71056 0.68704 0.0
H856 H 0.59547 0.24539 0.96481 0.0
H857 H 0.52436 0.19068 0.97713 0.0
H858 H 0.56356 0.28665 0.96459 0.0
H859 H 0.4923 0.23176 0.97642 0.0
H860 H 0.44533 0.3156 0.98518 0.0
H861 H 0.47893 0.27605 0.98872 0.0
H862 H 0.52628 0.30452 0.94793 0.0
H863 H 0.49333 0.34438 0.94471 0.0
C864 C 0.57305 0.24218 0.96754 0.0
C865 C 0.56242 0.21473 0.97089 0.0
C866 C 0.55471 0.26581 0.96731 0.0
C867 C 0.52529 0.26249 0.97031 0.0
C868 C 0.51487 0.23516 0.9742 0.0
C869 C 0.53325 0.21156 0.97453 0.0
C870 C 0.46297 0.31341 0.977 0.0
C871 C 0.46667 0.3331 0.96466 0.0
C872 C 0.48216 0.2907 0.979 0.0
C873 C 0.50537 0.28714 0.96864 0.0
C874 C 0.509 0.30691 0.95632 0.0
C875 C 0.48995 0.32966 0.95439 0.0
H876 H 0.03048 0.3123 0.23004 0.0
H877 H 0.07587 0.23819 0.21258 0.0
H878 H 0.98595 0.28502 0.22997 0.0
H879 H 0.03133 0.21114 0.21231 0.0
H880 H 0.94966 0.16367 0.22497 0.0
H881 H 0.99392 0.19038 0.22918 0.0
H882 H 0.95446 0.26589 0.2093 0.0
H883 H 0.91019 0.23942 0.20528 0.0
C884 C 0.03101 0.29015 0.22631 0.0
C885 C 0.05668 0.27748 0.22121 0.0
C886 C 0.00548 0.27458 0.22619 0.0
C887 C 0.00511 0.246 0.22104 0.0
C888 C 0.03096 0.23304 0.21648 0.0
C889 C 0.05646 0.24862 0.21655 0.0
C890 C 0.95037 0.18602 0.2216 0.0
C891 C 0.92646 0.19939 0.21471 0.0
C892 C 0.97576 0.20127 0.22396 0.0
C893 C 0.97769 0.23021 0.21955 0.0
C894 C 0.95355 0.24371 0.213 0.0
C895 C 0.92823 0.22847 0.21059 0.0
H896 H 0.95553 0.68736 0.97782 0.0
H897 H 0.99033 0.6712 0.93155 0.0
H898 H 0.98974 0.72644 0.9814 0.0
H899 H 0.02402 0.71028 0.93505 0.0
H900 H 0.09701 0.76604 0.94998 0.0
H901 H 0.0662 0.72396 0.95036 0.0
H902 H -0.00218 0.77453 0.97031 0.0
H903 H 0.02874 0.81653 0.97019 0.0
C904 C 0.97048 0.69209 0.96844 0.0
C905 C 0.97015 0.67624 0.95438 0.0
C906 C 0.98999 0.71451 0.97048 0.0
C907 C 0.00965 0.72137 0.95853 0.0
C908 C 0.00949 0.70525 0.94458 0.0
C909 C 0.98997 0.68298 0.94252 0.0
C910 C 0.07554 0.76812 0.95465 0.0
C911 C 0.06524 0.7947 0.9599 0.0
C912 C 0.05784 0.74404 0.95478 0.0
C913 C 0.02947 0.74601 0.96018 0.0
C914 C 0.01963 0.77227 0.96616 0.0
C915 C 0.03732 0.79637 0.96602 0.0
H916 H 0.95041 0.30958 0.73308 0.0
H917 H 0.94074 0.27847 0.68546 0.0
H918 H 0.99612 0.28402 0.73528 0.0
H919 H 0.98632 0.25333 0.68767 0.0
H920 H 0.08369 0.244 0.69126 0.0
H921 H 0.03856 0.27013 0.69077 0.0
H922 H 0.01385 0.23048 0.73459 0.0
H923 H 0.05914 0.20389 0.73508 0.0
C924 C 0.95803 0.29732 0.72311 0.0
C925 C 0.94205 0.29609 0.70908 0.0
C926 C 0.98405 0.28262 0.72441 0.0
C927 C 0.99472 0.26688 0.71162 0.0
C928 C 0.97868 0.26556 0.69765 0.0
C929 C 0.95253 0.27985 0.69643 0.0
C930 C 0.06878 0.24093 0.70087 0.0
C931 C 0.07492 0.22176 0.71318 0.0
C932 C 0.04289 0.25581 0.70053 0.0
C933 C 0.02273 0.25215 0.71259 0.0
C934 C 0.02914 0.23371 0.72518 0.0
C935 C 0.05495 0.21845 0.72542 0.0
H936 H 0.54952 0.30572 0.47854 0.0
H937 H 0.50399 0.33313 0.43681 0.0
H938 H 0.52205 0.26103 0.4786 0.0
H939 H 0.47692 0.28863 0.43688 0.0
H940 H 0.46524 0.19167 0.43061 0.0
H941 H 0.49174 0.23647 0.43233 0.0
H942 H 0.46898 0.24405 0.48138 0.0
H943 H 0.44214 0.19911 0.47969 0.0
C944 C 0.53357 0.30231 0.46946 0.0
C945 C 0.52902 0.32288 0.45763 0.0
C946 C 0.51783 0.27683 0.46954 0.0
C947 C 0.49759 0.27138 0.45766 0.0
C948 C 0.49266 0.29219 0.44605 0.0
C949 C 0.50807 0.31773 0.44608 0.0
C950 C 0.46593 0.20279 0.44179 0.0
C951 C 0.45151 0.19193 0.455 0.0
C952 C 0.48097 0.2285 0.44274 0.0
C953 C 0.48223 0.24373 0.45696 0.0
C954 C 0.46838 0.23263 0.4703 0.0
C955 C 0.45295 0.20703 0.46929 0.0
H956 H 0.42935 0.76843 0.20974 0.0
H957 H 0.48235 0.83896 0.22505 0.0
H958 H 0.4709 0.73689 0.21021 0.0
H959 H 0.52384 0.80721 0.22575 0.0
H960 H 0.59484 0.75083 0.20408 0.0
H961 H 0.55355 0.78231 0.20637 0.0
H962 H 0.50541 0.71402 0.22812 0.0
H963 H 0.54672 0.68223 0.22562 0.0
C964 C 0.44982 0.77717 0.21332 0.0
C965 C 0.45258 0.80627 0.21726 0.0
C966 C 0.47359 0.75902 0.2137 0.0
C967 C 0.50066 0.76956 0.218 0.0
C968 C 0.50332 0.79854 0.22221 0.0
C969 C 0.47952 0.81669 0.22187 0.0
C970 C 0.57552 0.74252 0.20944 0.0
C971 C 0.57402 0.71397 0.2146 0.0
C972 C 0.5519 0.76065 0.21084 0.0
C973 C 0.5262 0.75066 0.21741 0.0
C974 C 0.52483 0.72224 0.22285 0.0
C975 C 0.54853 0.70409 0.22148 0.0
H976 H 0.9949 0.31325 0.55345 0.0
H977 H 0.94188 0.27169 0.51856 0.0
H978 H 0.02857 0.27358 0.55238 0.0
H979 H 0.97605 0.23221 0.5172 0.0
H980 H 0.0246 0.15219 0.53447 0.0
H981 H 0.9919 0.19271 0.53343 0.0
H982 H 0.06372 0.25083 0.53574 0.0
H983 H 0.09646 0.21022 0.53719 0.0
C984 C 0.99054 0.29575 0.54544 0.0
C985 C 0.96562 0.29557 0.53614 0.0
C986 C 0.00998 0.27308 0.54474 0.0
C987 C 0.00504 0.2497 0.5347 0.0
C988 C 0.98031 0.24971 0.52522 0.0
C989 C 0.96079 0.27239 0.52594 0.0
C990 C 0.03346 0.1736 0.53468 0.0
C991 C 0.06315 0.17797 0.53601 0.0
C992 C 0.01469 0.19686 0.53398 0.0
C993 C 0.02517 0.22504 0.53454 0.0
C994 C 0.05492 0.2294 0.53552 0.0
C995 C 0.0737 0.20611 0.53626 0.0
H996 H 0.43296 0.22026 0.30881 0.0
H997 H 0.44334 0.18117 0.26307 0.0
H998 H 0.47752 0.24641 0.30514 0.0
H999 H 0.4879 0.20767 0.25935 0.0
H1000 H 0.5823 0.23459 0.26815 0.0
H1001 H 0.53702 0.20892 0.27051 0.0
H1002 H 0.49679 0.28531 0.28868 0.0
H1003 H 0.54204 0.31092 0.2865 0.0
C1004 C 0.4447 0.2173 0.29794 0.0
C1005 C 0.4346 0.19862 0.28623 0.0
C1006 C 0.47015 0.23244 0.2958 0.0
C1007 C 0.48617 0.22917 0.28193 0.0
C1008 C 0.47613 0.21044 0.27022 0.0
C1009 C 0.45055 0.19538 0.27232 0.0
C1010 C 0.56377 0.24595 0.27258 0.0
C1011 C 0.56582 0.27476 0.2772 0.0
C1012 C 0.5378 0.23127 0.27385 0.0
C1013 C 0.51339 0.24507 0.27984 0.0
C1014 C 0.51534 0.274 0.28422 0.0
C1015 C 0.54124 0.28871 0.28288 0.0
H1016 H 0.44353 0.8123 0.01182 0.0
H1017 H 0.45903 0.81504 0.06198 0.0
H1018 H 0.47176 0.76815 0.01006 0.0
H1019 H 0.48697 0.77119 0.06017 0.0
H1020 H 0.50723 0.67688 0.05392 0.0
H1021 H 0.47702 0.71938 0.05382 0.0
H1022 H 0.52431 0.75311 0.01433 0.0
H1023 H 0.55478 0.71042 0.01438 0.0
C1024 C 0.45287 0.80347 0.02245 0.0
C1025 C 0.44905 0.81712 0.03704 0.0
C1026 C 0.46911 0.77833 0.02141 0.0
C1027 C 0.48141 0.76625 0.03499 0.0
C1028 C 0.47745 0.77987 0.04955 0.0
C1029 C 0.46157 0.80508 0.05056 0.0
C1030 C 0.51113 0.69322 0.04513 0.0
C1031 C 0.53355 0.69038 0.03422 0.0
C1032 C 0.49388 0.7176 0.04513 0.0
C1033 C 0.49848 0.73957 0.03414 0.0
C1034 C 0.52025 0.73639 0.02288 0.0
C1035 C 0.53775 0.71206 0.02297 0.0
H1036 H 0.91629 0.75311 0.79906 0.0
H1037 H 0.94743 0.6989 0.7616 0.0
H1038 H 0.9574 0.78443 0.79575 0.0
H1039 H 0.98831 0.73074 0.758 0.0
H1040 H 0.07395 0.77447 0.77054 0.0
H1041 H 0.03175 0.74399 0.7717 0.0
H1042 H 0.97832 0.81869 0.77793 0.0
H1043 H 0.02064 0.84915 0.77718 0.0
C1044 C 0.93179 0.748 0.79002 0.0
C1045 C 0.92865 0.72345 0.78064 0.0
C1046 C 0.95528 0.76609 0.78804 0.0
C1047 C 0.97614 0.76014 0.77659 0.0
C1048 C 0.97281 0.73575 0.76707 0.0
C1049 C 0.94932 0.71757 0.76908 0.0
C1050 C 0.05318 0.78442 0.77205 0.0
C1051 C 0.05067 0.81423 0.77387 0.0
C1052 C 0.02895 0.76695 0.77263 0.0
C1053 C 0.00165 0.77888 0.77497 0.0
C1054 C -0.00091 0.80877 0.77637 0.0
C1055 C 0.02333 0.82625 0.77585 0.0
H1056 H 0.30631 0.45545 0.98099 0.0
H1057 H 0.32407 0.36915 0.99661 0.0
H1058 H 0.25977 0.45361 0.99386 0.0
H1059 H 0.27763 0.36751 0.00968 0.0
H1060 H 0.17934 0.36422 0.01402 0.0
H1061 H 0.2268 0.3661 0.00214 0.0
H1062 H 0.2384 0.45175 0.02019 0.0
H1063 H 0.1908 0.45008 0.03187 0.0
C1064 C 0.30038 0.43616 0.98726 0.0
C1065 C 0.31886 0.41242 0.98773 0.0
C1066 C 0.27376 0.43517 0.9947 0.0
C1067 C 0.26501 0.41039 0.00276 0.0
C1068 C 0.28363 0.38677 0.00339 0.0
C1069 C 0.3103 0.38778 0.99598 0.0
C1070 C 0.19202 0.38344 0.01547 0.0
C1071 C 0.18126 0.40703 0.02385 0.0
C1072 C 0.21928 0.38445 0.00875 0.0
C1073 C 0.23634 0.40908 0.01023 0.0
C1074 C 0.22563 0.4326 0.01869 0.0
C1075 C 0.19841 0.43157 0.02544 0.0
H1076 H 0.87889 0.04716 0.22453 0.0
H1077 H 0.801 0.0658 0.24994 0.0
H1078 H 0.87882 -0.00124 0.23506 0.0
H1079 H 0.80146 0.01761 0.26096 0.0
H1080 H 0.79423 0.92066 0.26467 0.0
H1081 H 0.79417 0.96881 0.25365 0.0
H1082 H 0.88623 0.97247 0.25866 0.0
H1083 H 0.88634 0.92398 0.26914 0.0
C1084 C 0.86189 0.04101 0.2325 0.0
C1085 C 0.83992 0.06032 0.23639 0.0
C1086 C 0.86193 0.01327 0.23861 0.0
C1087 C 0.84014 0.00423 0.24887 0.0
C1088 C 0.81832 0.02368 0.25288 0.0
C1089 C 0.81815 0.05138 0.24666 0.0
C1090 C 0.81446 0.93171 0.26335 0.0
C1091 C 0.84029 0.91849 0.26775 0.0
C1092 C 0.81441 0.95942 0.25714 0.0
C1093 C 0.84018 0.97462 0.25531 0.0
C1094 C 0.86602 0.96128 0.25968 0.0
C1095 C 0.86608 0.9335 0.26576 0.0
H1096 H 0.15652 0.57802 0.49178 0.0
H1097 H 0.18347 0.64537 0.46022 0.0
H1098 H 0.20538 0.57343 0.5015 0.0
H1099 H 0.23251 0.64022 0.46961 0.0
H1100 H 0.3091 0.6451 0.50345 0.0
H1101 H 0.26106 0.64936 0.49258 0.0
H1102 H 0.25215 0.5573 0.49369 0.0
H1103 H 0.29994 0.55309 0.50501 0.0
C1104 C 0.1729 0.59175 0.48685 0.0
C1105 C 0.1661 0.61212 0.47526 0.0
C1106 C 0.20097 0.58897 0.49234 0.0
C1107 C 0.22291 0.60639 0.4863 0.0
C1108 C 0.21607 0.62672 0.47467 0.0
C1109 C 0.18797 0.6296 0.46924 0.0
C1110 C 0.29698 0.62575 0.50128 0.0
C1111 C 0.30829 0.59876 0.50517 0.0
C1112 C 0.26945 0.62819 0.49497 0.0
C1113 C 0.25267 0.60368 0.49233 0.0
C1114 C 0.2643 0.57664 0.49584 0.0
C1115 C 0.29178 0.57421 0.50223 0.0
H1116 H 0.60877 0.04063 0.79085 0.0
H1117 H 0.65921 0.07868 0.75372 0.0
H1118 H 0.61235 0.99421 0.77796 0.0
H1119 H 0.66217 0.0324 0.74063 0.0
H1120 H 0.68745 0.94035 0.73014 0.0
H1121 H 0.68437 0.98599 0.74388 0.0
H1122 H 0.59564 0.96914 0.75482 0.0
H1123 H 0.59891 0.92316 0.74142 0.0
C1124 C 0.62046 0.03914 0.77988 0.0
C1125 C 0.63373 0.06334 0.77332 0.0
C1126 C 0.6224 0.01254 0.77245 0.0
C1127 C 0.63759 0.00957 0.75828 0.0
C1128 C 0.6507 0.03384 0.75167 0.0
C1129 C 0.64883 0.06042 0.75912 0.0
C1130 C 0.66732 0.94632 0.73554 0.0
C1131 C 0.64341 0.92815 0.73467 0.0
C1132 C 0.6655 0.97258 0.74332 0.0
C1133 C 0.63971 0.9813 0.75037 0.0
C1134 C 0.61591 0.96294 0.74967 0.0
C1135 C 0.61775 0.93663 0.74192 0.0
H1136 H 0.71019 0.59917 0.03458 0.0
H1137 H 0.66848 0.63601 0.99386 0.0
H1138 H 0.75548 0.59833 0.02037 0.0
H1139 H 0.71398 0.63519 0.97966 0.0
H1140 H 0.79229 0.59307 0.95507 0.0
H1141 H 0.747 0.59711 0.96913 0.0
H1142 H 0.79127 0.63302 0.00916 0.0
H1143 H 0.83673 0.62895 0.99512 0.0
C1144 C 0.71069 0.60715 0.0226 0.0
C1145 C 0.68574 0.61759 0.01532 0.0
C1146 C 0.73668 0.60684 0.01452 0.0
C1147 C 0.73823 0.61673 -0.00106 0.0
C1148 C 0.71332 0.62725 0.99164 0.0
C1149 C 0.68734 0.62782 -0.00022 0.0
C1150 C 0.79239 0.6019 0.96685 0.0
C1151 C 0.8181 0.61059 0.97401 0.0
C1152 C 0.76642 0.60438 0.97485 0.0
C1153 C 0.76565 0.61536 0.99022 0.0
C1154 C 0.79131 0.62425 0.99736 0.0
C1155 C 0.81728 0.62204 0.9893 0.0
H1156 H 0.10141 0.9253 0.75433 0.0
H1157 H 0.19168 0.94311 0.75968 0.0
H1158 H 0.09346 0.97414 0.74526 0.0
H1159 H 0.18388 0.99169 0.75017 0.0
H1160 H 0.15623 0.08475 0.74859 0.0
H1161 H 0.16256 0.03607 0.75829 0.0
H1162 H 0.10243 0.00546 0.72344 0.0
H1163 H 0.09548 0.05425 0.71406 0.0
C1164 C 0.11961 0.93956 0.75342 0.0
C1165 C 0.14718 0.93033 0.75775 0.0
C1166 C 0.11507 0.96754 0.74816 0.0
C1167 C 0.138 0.98691 0.74704 0.0
C1168 C 0.16564 0.97752 0.75117 0.0
C1169 C 0.17016 0.94958 0.75651 0.0
C1170 C 0.14421 0.06766 0.74307 0.0
C1171 C 0.12537 0.07337 0.73055 0.0
C1172 C 0.14801 0.0397 0.74855 0.0
C1173 C 0.13318 0.01678 0.74157 0.0
C1174 C 0.11396 0.02261 0.72921 0.0
C1175 C 0.11005 0.0506 0.72379 0.0
H1176 H 0.80985 0.41692 0.51054 0.0
H1177 H 0.81567 0.32474 0.50768 0.0
H1178 H 0.76306 0.41535 0.49793 0.0
H1179 H 0.76845 0.32311 0.49543 0.0
H1180 H 0.69562 0.33388 0.4597 0.0
H1181 H 0.74315 0.33512 0.47155 0.0
H1182 H 0.71483 0.4009 0.50372 0.0
H1183 H 0.66756 0.4002 0.4916 0.0
C1184 C 0.80112 0.39629 0.50724 0.0
C1185 C 0.81647 0.37095 0.51014 0.0
C1186 C 0.77418 0.39538 0.50011 0.0
C1187 C 0.76188 0.36909 0.49576 0.0
C1188 C 0.77741 0.34375 0.49848 0.0
C1189 C 0.80444 0.34467 0.50556 0.0
C1190 C 0.69952 0.34857 0.46932 0.0
C1191 C 0.67782 0.36699 0.47468 0.0
C1192 C 0.72675 0.34919 0.47617 0.0
C1193 C 0.73286 0.36816 0.48856 0.0
C1194 C 0.71102 0.38636 0.49402 0.0
C1195 C 0.68384 0.38583 0.48713 0.0
H1196 H 0.39619 0.03581 0.28313 0.0
H1197 H 0.3487 0.07669 0.24563 0.0
H1198 H 0.39155 0.98991 0.26978 0.0
H1199 H 0.34469 0.03092 0.23209 0.0
H1200 H 0.31425 0.93969 0.22207 0.0
H1201 H 0.32004 0.9858 0.23504 0.0
H1202 H 0.40743 0.96394 0.2468 0.0
H1203 H 0.40142 0.91751 0.23417 0.0
C1204 C 0.38499 0.03506 0.27197 0.0
C1205 C 0.37272 0.05989 0.26548 0.0
C1206 C 0.38246 0.00876 0.26427 0.0
C1207 C 0.36767 0.00671 0.24989 0.0
C1208 C 0.35581 0.03166 0.24328 0.0
C1209 C 0.35827 0.05794 0.25099 0.0
C1210 C 0.3347 0.94471 0.22743 0.0
C1211 C 0.35735 0.92491 0.22712 0.0
C1212 C 0.33809 0.97124 0.23477 0.0
C1213 C 0.36422 0.9786 0.24194 0.0
C1214 C 0.3869 0.9588 0.24158 0.0
C1215 C 0.38349 0.93224 0.23427 0.0
H1216 H 0.77828 0.84084 0.46246 0.0
H1217 H 0.81584 0.89314 0.49899 0.0
H1218 H 0.73075 0.85079 0.4729 0.0
H1219 H 0.76837 0.90249 0.50967 0.0
H1220 H 0.67782 0.93631 0.5157 0.0
H1221 H 0.72452 0.92786 0.50378 0.0
H1222 H 0.70149 0.83958 0.49542 0.0
H1223 H 0.65461 0.84819 0.50695 0.0
C1224 C 0.77642 0.85433 0.47277 0.0
C1225 C 0.80085 0.86617 0.47991 0.0
C1226 C 0.74917 0.85994 0.4788 0.0
C1227 C 0.74574 0.87745 0.49212 0.0
C1228 C 0.7702 0.88927 0.49925 0.0
C1229 C 0.79744 0.88374 0.4932 0.0
C1230 C 0.68266 0.91515 0.51122 0.0
C1231 C 0.66251 0.89292 0.5123 0.0
C1232 C 0.7095 0.91025 0.50449 0.0
C1233 C 0.71681 0.883 0.49872 0.0
C1234 C 0.69646 0.86091 0.49957 0.0
C1235 C 0.6696 0.86582 0.50626 0.0
H1236 H 0.38995 0.55978 0.72396 0.0
H1237 H 0.30737 0.57286 0.74567 0.0
H1238 H 0.39213 0.51182 0.73504 0.0
H1239 H 0.31 0.52521 0.75728 0.0
H1240 H 0.30924 0.42805 0.76135 0.0
H1241 H 0.3073 0.47604 0.75018 0.0
H1242 H 0.39796 0.48616 0.75888 0.0
H1243 H 0.40004 0.43778 0.76948 0.0
C1244 C 0.3724 0.55254 0.73127 0.0
C1245 C 0.34845 0.57011 0.73391 0.0
C1246 C 0.37371 0.52505 0.73769 0.0
C1247 C 0.35122 0.51455 0.74705 0.0
C1248 C 0.32747 0.53236 0.7499 0.0
C1249 C 0.32605 0.55978 0.74334 0.0
C1250 C 0.32876 0.4405 0.76082 0.0
C1251 C 0.3548 0.4291 0.76626 0.0
C1252 C 0.32762 0.46812 0.75453 0.0
C1253 C 0.35245 0.48508 0.75367 0.0
C1254 C 0.3785 0.47359 0.75913 0.0
C1255 C 0.37968 0.44587 0.76527 0.0
H1256 H 0.83293 0.15513 0.00163 0.0
H1257 H 0.8054 0.07059 0.01568 0.0
H1258 H 0.78569 0.16429 0.99034 0.0
H1259 H 0.7585 0.07957 0.00419 0.0
H1260 H 0.66916 0.11642 -0.00154 0.0
H1261 H 0.71669 0.10924 0.00959 0.0
H1262 H 0.75442 0.14905 0.96867 0.0
H1263 H 0.70678 0.15673 0.95762 0.0
C1264 C 0.81689 0.13844 0.00221 0.0
C1265 C 0.82288 0.11218 0.00961 0.0
C1266 C 0.78987 0.14365 0.99569 0.0
C1267 C 0.7683 0.12273 0.99647 0.0
C1268 C 0.77449 0.09632 0.00365 0.0
C1269 C 0.80146 0.09111 0.01014 0.0
C1270 C 0.68756 0.1238 0.99186 0.0
C1271 C 0.68418 0.13706 0.97712 0.0
C1272 C 0.71482 0.1195 -0.0018 0.0
C1273 C 0.73933 0.12836 0.98995 0.0
C1274 C 0.73594 0.14217 0.97536 0.0
C1275 C 0.70864 0.14646 0.96901 0.0
H1276 H 0.08723 0.54672 0.28778 0.0
H1277 H 0.1494 0.57906 0.25459 0.0
H1278 H 0.09113 0.4993 0.27599 0.0
H1279 H 0.153 0.5317 0.24272 0.0
H1280 H 0.17773 0.43654 0.23963 0.0
H1281 H 0.17211 0.48447 0.25052 0.0
H1282 H 0.08034 0.47321 0.25139 0.0
H1283 H 0.08591 0.42511 0.24065 0.0
C1284 C 0.10154 0.54379 0.27789 0.0
C1285 C 0.1181 0.56664 0.27217 0.0
C1286 C 0.10367 0.51664 0.2711 0.0
C1287 C 0.12248 0.51175 0.25848 0.0
C1288 C 0.13862 0.53473 0.25257 0.0
C1289 C 0.1364 0.5619 0.25931 0.0
C1290 C 0.15634 0.44426 0.24214 0.0
C1291 C 0.13227 0.42699 0.23929 0.0
C1292 C 0.15312 0.4718 0.24828 0.0
C1293 C 0.12577 0.48263 0.25176 0.0
C1294 C 0.1017 0.46535 0.24895 0.0
C1295 C 0.1049 0.43784 0.24274 0.0
H1296 H 0.16456 0.08688 0.50377 0.0
H1297 H 0.20891 0.12083 0.54435 0.0
H1298 H 0.20936 0.08676 0.48906 0.0
H1299 H 0.25373 0.12015 0.52976 0.0
H1300 H 0.322 0.14351 0.49336 0.0
H1301 H 0.27707 0.14423 0.50788 0.0
H1302 H 0.25508 0.06154 0.4886 0.0
H1303 H 0.29975 0.06106 0.47382 0.0
C1304 C 0.18386 0.09426 0.50956 0.0
C1305 C 0.18317 0.10388 0.52523 0.0
C1306 C 0.20957 0.09402 0.50117 0.0
C1307 C 0.23512 0.10339 0.50825 0.0
C1308 C 0.23436 0.11313 0.52389 0.0
C1309 C 0.20868 0.11337 0.53229 0.0
C1310 C 0.30761 0.12546 0.49223 0.0
C1311 C 0.31445 0.10224 0.48242 0.0
C1312 C 0.28191 0.12582 0.50062 0.0
C1313 C 0.26248 0.10296 0.49938 0.0
C1314 C 0.2694 0.07967 0.48963 0.0
C1315 C 0.2951 0.07931 0.48124 0.0
H1316 H 0.60178 0.41127 0.25237 0.0
H1317 H 0.68654 0.43678 0.26724 0.0
H1318 H 0.59477 0.45789 0.24011 0.0
H1319 H 0.67977 0.48317 0.25463 0.0
H1320 H 0.646 0.57342 0.24586 0.0
H1321 H 0.65229 0.52664 0.25811 0.0
H1322 H 0.6109 0.48669 0.21826 0.0
H1323 H 0.60398 0.53349 0.20619 0.0
C1324 C 0.61903 0.42672 0.2529 0.0
C1325 C 0.6447 0.42033 0.26082 0.0
C1326 C 0.61504 0.45342 0.24581 0.0
C1327 C 0.63666 0.47431 0.24643 0.0
C1328 C 0.6625 0.46774 0.25416 0.0
C1329 C 0.66646 0.44107 0.26129 0.0
C1330 C 0.63812 0.55467 0.23975 0.0
C1331 C 0.62448 0.55719 0.22505 0.0
C1332 C 0.64192 0.52783 0.24671 0.0
C1333 C 0.63223 0.50289 0.23913 0.0
C1334 C 0.61833 0.50548 0.2245 0.0
C1335 C 0.61447 0.53232 0.21756 0.0
H1336 H 0.15286 0.90849 0.00738 0.0
H1337 H 0.18631 0.87544 0.96359 0.0
H1338 H 0.2014 0.91166 0.01785 0.0
H1339 H 0.23482 0.8791 0.97397 0.0
H1340 H 0.31462 0.86146 0.00395 0.0
H1341 H 0.26599 0.85735 0.99371 0.0
H1342 H 0.24493 0.93961 0.01384 0.0
H1343 H 0.29335 0.94351 0.02432 0.0
C1344 C 0.17055 0.90193 -2e-05 0.0
C1345 C 0.16571 0.89171 0.98466 0.0
C1346 C 0.19838 0.90391 0.00595 0.0
C1347 C 0.22197 0.89569 0.99672 0.0
C1348 C 0.21709 0.88529 0.98144 0.0
C1349 C 0.18928 0.88334 0.97547 0.0
C1350 C 0.29963 0.87869 0.00617 0.0
C1351 C 0.30785 0.90281 0.01496 0.0
C1352 C 0.27179 0.87638 0.00025 0.0
C1353 C 0.25158 0.89813 0.00298 0.0
C1354 C 0.25987 0.92229 0.01172 0.0
C1355 C 0.28769 0.92461 0.01763 0.0
H1356 H 0.88976 0.43234 0.73986 0.0
H1357 H 0.8046 0.44449 0.72099 0.0
H1358 H 0.88866 0.48067 0.75066 0.0
H1359 H 0.80372 0.49294 0.73162 0.0
H1360 H 0.8019 0.56559 0.76835 0.0
H1361 H 0.8023 0.5175 0.75725 0.0
H1362 H 0.88893 0.53052 0.74103 0.0
H1363 H 0.88872 0.57853 0.7523 0.0
C1364 C 0.8708 0.44529 0.73803 0.0
C1365 C 0.84726 0.43456 0.72956 0.0
C1366 C 0.87027 0.47306 0.74411 0.0
C1367 C 0.84616 0.49065 0.74193 0.0
C1368 C 0.8225 0.47981 0.73362 0.0
C1369 C 0.82307 0.45208 0.72747 0.0
C1370 C 0.821 0.55827 0.76235 0.0
C1371 C 0.84531 0.57587 0.76124 0.0
C1372 C 0.82117 0.53074 0.75594 0.0
C1373 C 0.84569 0.52018 0.74833 0.0
C1374 C 0.86986 0.53792 0.74703 0.0
C1375 C 0.86966 0.5655 0.75339 0.0
H1376 H 0.04814 0.36881 0.09612 0.0
H1377 H 0.13231 0.40328 0.08687 0.0
H1378 H 0.05982 0.36538 0.12405 0.0
H1379 H 0.14402 0.39958 0.1148 0.0
H1380 H 0.14153 0.41509 0.1687 0.0
H1381 H 0.13067 0.42016 0.14071 0.0
H1382 H 0.09228 0.3361 0.14061 0.0
H1383 H 0.10287 0.33105 0.16857 0.0
C1384 C 0.06906 0.37583 0.10005 0.0
C1385 C 0.08931 0.38625 0.08926 0.0
C1386 C 0.07583 0.37364 0.11603 0.0
C1387 C 0.10293 0.38198 0.1216 0.0
C1388 C 0.12291 0.39312 0.11088 0.0
C1389 C 0.11621 0.39515 0.09487 0.0
C1390 C 0.13095 0.39761 0.16269 0.0
C1391 C 0.12299 0.37271 0.17089 0.0
C1392 C 0.12479 0.4005 0.14665 0.0
C1393 C 0.1104 0.37863 0.1385 0.0
C1394 C 0.10296 0.35352 0.14663 0.0
C1395 C 0.10925 0.35055 0.16263 0.0
H1396 H 0.88963 0.83227 0.42161 0.0
H1397 H 0.84724 0.9136 0.41459 0.0
H1398 H 0.88267 0.82077 0.39395 0.0
H1399 H 0.84006 0.90186 0.38683 0.0
H1400 H 0.86532 0.88255 0.33502 0.0
H1401 H 0.86939 0.89499 0.36279 0.0
H1402 H 0.84319 0.80945 0.37558 0.0
H1403 H 0.83939 0.79682 0.34779 0.0
C1404 C 0.8788 0.84772 0.41417 0.0
C1405 C 0.86902 0.8739 0.42031 0.0
C1406 C 0.87462 0.841 0.39834 0.0
C1407 C 0.86068 0.86033 0.38824 0.0
C1408 C 0.85105 0.88661 0.39432 0.0
C1409 C 0.85509 0.89329 0.41022 0.0
C1410 C 0.86028 0.86641 0.34375 0.0
C1411 C 0.85219 0.83862 0.33919 0.0
C1412 C 0.86246 0.87362 0.35966 0.0
C1413 C 0.85673 0.85317 0.37136 0.0
C1414 C 0.8481 0.82555 0.36681 0.0
C1415 C 0.84578 0.81837 0.3509 0.0
H1416 H 0.39258 0.61615 0.66072 0.0
H1417 H 0.30185 0.62583 0.65205 0.0
H1418 H 0.40011 0.60461 0.63317 0.0
H1419 H 0.30948 0.61388 0.62432 0.0
H1420 H 0.34474 0.63118 0.57374 0.0
H1421 H 0.33281 0.63696 0.60145 0.0
H1422 H 0.39011 0.5676 0.61337 0.0
H1423 H 0.4024 0.56201 0.58563 0.0
C1424 C 0.37417 0.61561 0.65296 0.0
C1425 C 0.3466 0.62205 0.65858 0.0
C1426 C 0.37849 0.60875 0.63717 0.0
C1427 C 0.35539 0.60825 0.62657 0.0
C1428 C 0.32773 0.6143 0.6322 0.0
C1429 C 0.32335 0.62104 0.64808 0.0
C1430 C 0.35465 0.61699 0.58224 0.0
C1431 C 0.37476 0.59631 0.57749 0.0
C1432 C 0.34762 0.62018 0.59812 0.0
C1433 C 0.36062 0.60284 0.6096 0.0
C1434 C 0.38002 0.58153 0.6048 0.0
C1435 C 0.38697 0.57826 0.5889 0.0
H1436 H 0.63618 0.19584 0.84656 0.0
H1437 H 0.64526 0.10636 0.83462 0.0
H1438 H 0.6291 0.18291 0.87405 0.0
H1439 H 0.63765 0.09343 0.86213 0.0
H1440 H 0.65103 0.08543 0.91605 0.0
H1441 H 0.65961 0.09662 0.88836 0.0
H1442 H 0.59207 0.15982 0.8897 0.0
H1443 H 0.58382 0.14906 0.91733 0.0
C1444 C 0.63674 0.17342 0.84979 0.0
C1445 C 0.64118 0.15214 0.83838 0.0
C1446 C 0.63247 0.16599 0.86554 0.0
C1447 C 0.63254 0.13712 0.87024 0.0
C1448 C 0.63766 0.11586 0.8589 0.0
C1449 C 0.64191 0.12329 0.84313 0.0
C1450 C 0.63788 0.10155 0.91039 0.0
C1451 C 0.61685 0.11645 0.91892 0.0
C1452 C 0.64276 0.10792 0.89452 0.0
C1453 C 0.62673 0.12933 0.88689 0.0
C1454 C 0.6052 0.14363 0.89533 0.0
C1455 C 0.60032 0.13729 0.91114 0.0
H1456 H 0.14119 0.6057 0.33241 0.0
H1457 H 0.11722 0.69135 0.34642 0.0
H1458 H 0.1341 0.5891 0.35931 0.0
H1459 H 0.11075 0.67484 0.37339 0.0
H1460 H 0.06854 0.62939 0.41466 0.0
H1461 H 0.07721 0.64514 0.38778 0.0
H1462 H 0.15319 0.59244 0.38588 0.0
H1463 H 0.14419 0.57615 0.41271 0.0
C1464 C 0.13475 0.62107 0.34126 0.0
C1465 C 0.12963 0.64984 0.33725 0.0
C1466 C 0.13078 0.61155 0.35671 0.0
C1467 C 0.12164 0.63059 0.36848 0.0
C1468 C 0.11728 0.65952 0.36454 0.0
C1469 C 0.12121 0.66903 0.3491 0.0
C1470 C 0.08702 0.62101 0.4085 0.0
C1471 C 0.10569 0.60152 0.41584 0.0
C1472 C 0.09212 0.63025 0.39312 0.0
C1473 C 0.11604 0.62026 0.38473 0.0
C1474 C 0.13446 0.60038 0.39198 0.0
C1475 C 0.12933 0.5911 0.40737 0.0
H1476 H 0.60811 0.8953 0.66725 0.0
H1477 H 0.67025 0.83252 0.6521 0.0
H1478 H 0.59911 0.90838 0.63992 0.0
H1479 H 0.66145 0.84592 0.62474 0.0
H1480 H 0.60741 0.84944 0.57933 0.0
H1481 H 0.62103 0.83979 0.60644 0.0
H1482 H 0.62091 0.93048 0.61629 0.0
H1483 H 0.60692 0.94026 0.58904 0.0
C1484 C 0.62008 0.88449 0.6581 0.0
C1485 C 0.63973 0.86268 0.66186 0.0
C1486 C 0.61504 0.89214 0.64244 0.0
C1487 C 0.62944 0.87807 0.63017 0.0
C1488 C 0.64973 0.85687 0.63394 0.0
C1489 C 0.65487 0.8493 0.64962 0.0
C1490 C 0.61032 0.86739 0.58723 0.0
C1491 C 0.60596 0.89564 0.58202 0.0
C1492 C 0.61838 0.86184 0.60276 0.0
C1493 C 0.62217 0.88437 0.6135 0.0
C1494 C 0.61796 0.91266 0.6083 0.0
C1495 C 0.61004 0.91826 0.59269 0.0
H1496 H 0.41282 0.37044 0.83488 0.0
H1497 H 0.3212 0.37706 0.84109 0.0
H1498 H 0.42001 0.38311 0.86237 0.0
H1499 H 0.32853 0.38998 0.86869 0.0
H1500 H 0.35636 0.3758 0.92095 0.0
H1501 H 0.3464 0.36661 0.89323 0.0
H1502 H 0.41396 0.42492 0.88004 0.0
H1503 H 0.42416 0.43398 0.90777 0.0
C1504 C 0.39419 0.37463 0.8421 0.0
C1505 C 0.36641 0.37269 0.83579 0.0
C1506 C 0.39835 0.38212 0.85783 0.0
C1507 C 0.37485 0.38769 0.86766 0.0
C1508 C 0.34704 0.38564 0.8614 0.0
C1509 C 0.34286 0.37833 0.8456 0.0
C1510 C 0.36896 0.38684 0.91215 0.0
C1511 C 0.39121 0.40547 0.91657 0.0
C1512 C 0.36313 0.38168 0.89626 0.0
C1513 C 0.37952 0.3949 0.88447 0.0
C1514 C 0.40123 0.41412 0.88889 0.0
C1515 C 0.40696 0.41943 0.90477 0.0
H1516 H 0.83638 0.17011 0.14923 0.0
H1517 H 0.88399 0.09598 0.16493 0.0
H1518 H 0.84885 0.15898 0.12203 0.0
H1519 H 0.89607 0.08471 0.13776 0.0
H1520 H 0.94208 0.09869 0.09008 0.0
H1521 H 0.92661 0.10541 0.11722 0.0
H1522 H 0.84074 0.12357 0.10109 0.0
H1523 H 0.85622 0.11724 0.07393 0.0
C1524 C 0.84925 0.1513 0.14688 0.0
C1525 C 0.85931 0.13405 0.15926 0.0
C1526 C 0.85627 0.14483 0.13129 0.0
C1527 C 0.87355 0.12102 0.12775 0.0
C1528 C 0.88306 0.10342 0.14011 0.0
C1529 C 0.87599 0.10983 0.15568 0.0
C1530 C 0.91984 0.10384 0.09232 0.0
C1531 C 0.90044 0.10757 0.07983 0.0
C1532 C 0.91094 0.10758 0.10788 0.0
C1533 C 0.88248 0.11518 0.11129 0.0
C1534 C 0.8629 0.11813 0.09883 0.0
C1535 C 0.87177 0.11431 0.08327 0.0
H1536 H 0.90038 0.62408 0.82507 0.0
H1537 H 0.81307 0.64364 0.83806 0.0
H1538 H 0.91064 0.60988 0.85205 0.0
H1539 H 0.82337 0.62906 0.86512 0.0
H1540 H 0.86575 0.63746 0.91425 0.0
H1541 H 0.85236 0.64755 0.88714 0.0
H1542 H 0.89911 0.57283 0.87177 0.0
H1543 H 0.9129 0.56283 0.899 0.0
C1544 C 0.8833 0.62521 0.83366 0.0
C1545 C 0.85592 0.63516 0.82942 0.0
C1546 C 0.88916 0.61683 0.84911 0.0
C1547 C 0.86782 0.61831 0.86071 0.0
C1548 C 0.84033 0.62793 0.85645 0.0
C1549 C 0.83441 0.63619 0.84095 0.0
C1550 C 0.87311 0.62306 0.90513 0.0
C1551 C 0.89057 0.59942 0.90879 0.0
C1552 C 0.86522 0.62875 0.88958 0.0
C1553 C 0.87469 0.61101 0.87731 0.0
C1554 C 0.89173 0.58706 0.88097 0.0
C1555 C 0.89952 0.58126 0.89657 0.0
H1556 H 0.05773 0.11718 0.59931 0.0
H1557 H 0.14178 0.08562 0.58697 0.0
H1558 H 0.07365 0.1243 0.62633 0.0
H1559 H 0.1578 0.0932 0.614 0.0
H1560 H 0.16566 0.08557 0.66834 0.0
H1561 H 0.15091 0.07606 0.64123 0.0
H1562 H 0.10613 0.15698 0.63997 0.0
H1563 H 0.12042 0.16632 0.667 0.0
C1564 C 0.07957 0.11165 0.60236 0.0
C1565 C 0.09851 0.10095 0.59096 0.0
C1566 C 0.08875 0.11593 0.61783 0.0
C1567 C 0.11708 0.10959 0.62226 0.0
C1568 C 0.13581 0.09813 0.61098 0.0
C1569 C 0.12663 0.09389 0.59548 0.0
C1570 C 0.15285 0.10142 0.66223 0.0
C1571 C 0.14411 0.12663 0.66987 0.0
C1572 C 0.14445 0.09598 0.64669 0.0
C1573 C 0.12709 0.11563 0.63852 0.0
C1574 C 0.11901 0.14115 0.64605 0.0
C1575 C 0.12742 0.1466 0.66152 0.0
H1576 H 0.58459 0.36026 0.41087 0.0
H1577 H 0.66203 0.41059 0.40777 0.0
H1578 H 0.59029 0.34572 0.38361 0.0
H1579 H 0.6678 0.3957 0.38033 0.0
H1580 H 0.64648 0.38562 0.3267 0.0
H1581 H 0.6439 0.40136 0.35407 0.0
H1582 H 0.62347 0.3151 0.36848 0.0
H1583 H 0.62574 0.29937 0.34118 0.0
C1584 C 0.60283 0.3683 0.40437 0.0
C1585 C 0.62292 0.38654 0.41153 0.0
C1586 C 0.60619 0.35976 0.38876 0.0
C1587 C 0.62965 0.36931 0.37988 0.0
C1588 C 0.64945 0.38807 0.38689 0.0
C1589 C 0.64617 0.39654 0.40259 0.0
C1590 C 0.64164 0.36997 0.33572 0.0
C1591 C 0.63609 0.34127 0.33175 0.0
C1592 C 0.6403 0.37899 0.3514 0.0
C1593 C 0.63323 0.35953 0.36339 0.0
C1594 C 0.62851 0.33069 0.35945 0.0
C1595 C 0.62998 0.32165 0.34382 0.0
H1596 H 0.39426 0.91825 0.08026 0.0
H1597 H 0.34565 0.83961 0.07912 0.0
H1598 H 0.39425 0.91682 0.10897 0.0
H1599 H 0.34638 0.83771 0.1077 0.0
H1600 H 0.33398 0.85208 0.15975 0.0
H1601 H 0.3292 0.85926 0.13144 0.0
H1602 H 0.41668 0.88913 0.12937 0.0
H1603 H 0.42114 0.88279 0.1577 0.0
C1604 C 0.38346 0.90074 0.08613 0.0
C1605 C 0.37007 0.87898 0.0774 0.0
C1606 C 0.38361 0.89981 0.10258 0.0
C1607 C 0.37048 0.87704 0.11067 0.0
C1608 C 0.35639 0.85575 0.10191 0.0
C1609 C 0.35612 0.85676 0.08548 0.0
C1610 C 0.35213 0.86034 0.15326 0.0
C1611 C 0.37799 0.86673 0.16096 0.0
C1612 C 0.34943 0.86434 0.13701 0.0
C1613 C 0.37258 0.87468 0.12809 0.0
C1614 C 0.39827 0.88154 0.13588 0.0
C1615 C 0.4009 0.87769 0.15213 0.0
H1616 H 0.8866 0.38671 0.66559 0.0
H1617 H 0.81737 0.32741 0.6569 0.0
H1618 H 0.89194 0.39414 0.63738 0.0
H1619 H 0.8225 0.33521 0.62863 0.0
H1620 H 0.86869 0.32707 0.58073 0.0
H1621 H 0.8585 0.32282 0.60871 0.0
H1622 H 0.86804 0.41427 0.61402 0.0
H1623 H 0.87865 0.41856 0.58597 0.0
C1624 C 0.87232 0.37547 0.65767 0.0
C1625 C 0.85169 0.3563 0.6635 0.0
C1626 C 0.87527 0.37989 0.6415 0.0
C1627 C 0.85771 0.36519 0.63078 0.0
C1628 C 0.83658 0.34657 0.63661 0.0
C1629 C 0.83356 0.34222 0.6528 0.0
C1630 C 0.8685 0.34633 0.58783 0.0
C1631 C 0.87463 0.37315 0.58113 0.0
C1632 C 0.86244 0.34389 0.60386 0.0
C1633 C 0.86244 0.3682 0.61358 0.0
C1634 C 0.86815 0.39511 0.60685 0.0
C1635 C 0.87412 0.39757 0.59077 0.0
H1636 H 0.37888 0.10745 0.32699 0.0
H1637 H 0.30708 0.1613 0.3394 0.0
H1638 H 0.38622 0.09589 0.35461 0.0
H1639 H 0.31416 0.14923 0.36711 0.0
H1640 H 0.36195 0.15178 0.41479 0.0
H1641 H 0.34959 0.15997 0.38734 0.0
H1642 H 0.36578 0.07085 0.3771 0.0
H1643 H 0.37871 0.06269 0.40461 0.0
C1644 C 0.36444 0.11661 0.33559 0.0
C1645 C 0.34249 0.13548 0.33098 0.0
C1646 C 0.36855 0.10979 0.35144 0.0
C1647 C 0.35083 0.12168 0.36308 0.0
C1648 C 0.32842 0.14 0.35844 0.0
C1649 C 0.32427 0.14681 0.34256 0.0
C1650 C 0.36274 0.13385 0.40673 0.0
C1651 C 0.37149 0.10659 0.41189 0.0
C1652 C 0.35543 0.13852 0.39099 0.0
C1653 C 0.3567 0.11608 0.38002 0.0
C1654 C 0.36491 0.08867 0.38523 0.0
C1655 C 0.3722 0.08397 0.40101 0.0
H1656 H 0.60431 0.61664 0.16536 0.0
H1657 H 0.6863 0.65404 0.15388 0.0
H1658 H 0.5954 0.60769 0.13759 0.0
H1659 H 0.67748 0.64461 0.12601 0.0
H1660 H 0.63309 0.65643 0.07769 0.0
H1661 H 0.64523 0.66262 0.10536 0.0
H1662 H 0.612 0.57835 0.11553 0.0
H1663 H 0.5994 0.57226 0.08785 0.0
C1664 C 0.62054 0.62279 0.15692 0.0
C1665 C 0.64597 0.6362 0.16184 0.0
C1666 C 0.6155 0.61745 0.141 0.0
C1667 C 0.63573 0.62543 0.1296 0.0
C1668 C 0.66135 0.63849 0.13451 0.0
C1669 C 0.66645 0.64377 0.15047 0.0
C1670 C 0.62843 0.63915 0.08581 0.0
C1671 C 0.61512 0.6139 0.08058 0.0
C1672 C 0.6356 0.64264 0.10165 0.0
C1673 C 0.62956 0.62099 0.11264 0.0
C1674 C 0.61663 0.59556 0.10737 0.0
C1675 C 0.60952 0.59203 0.0915 0.0
H1676 H 0.11532 0.8014 0.83288 0.0
H1677 H 0.15256 0.88391 0.82243 0.0
H1678 H 0.11238 0.81436 0.8606 0.0
H1679 H 0.14924 0.89698 0.85017 0.0
H1680 H 0.16417 0.89723 0.90404 0.0
H1681 H 0.16912 0.8847 0.87628 0.0
H1682 H 0.08434 0.84783 0.87671 0.0
H1683 H 0.07948 0.85997 0.90444 0.0
C1684 C 0.12299 0.82226 0.8365 0.0
C1685 C 0.13408 0.84165 0.82543 0.0
C1686 C 0.12111 0.82976 0.85237 0.0
C1687 C 0.13035 0.85679 0.85756 0.0
C1688 C 0.14211 0.87593 0.84656 0.0
C1689 C 0.14391 0.86846 0.83065 0.0
C1690 C 0.14653 0.88657 0.89819 0.0
C1691 C 0.12146 0.87954 0.90648 0.0
C1692 C 0.14935 0.87948 0.88228 0.0
C1693 C 0.12721 0.86509 0.87434 0.0
C1694 C 0.10198 0.85848 0.88256 0.0
C1695 C 0.09911 0.86566 0.89844 0.0
loop_
_geom_bond_atom_site_label_1
_geom_bond_atom_site_label_2
_geom_bond_distance
_geom_bond_site_symmetry_2
_ccdc_geom_bond_type
C0 O1 1.160 . S
C0 O7 1.185 . S
O1 C0 1.160 . S
O2 Zn3 1.899 . S
O2 C10 1.284 . S
Zn3 O2 1.899 . S
Zn3 O4 2.032 . S
Zn3 O7 2.086 . S
Zn3 O12 1.977 . S
O4 Zn3 2.032 . S
O4 C8 1.278 . S
C5 O6 1.203 . S
C5 O12 1.267 . S
O6 C5 1.203 . S
O7 C0 1.185 . S
O7 Zn3 2.086 . S
C8 O4 1.278 . S
C8 O9 1.211 . S
O9 C8 1.211 . S
C10 O2 1.284 . S
C10 O11 1.273 . S
O11 C10 1.273 . S
O12 Zn3 1.977 . S
O12 C5 1.267 . S
C13 O14 1.160 . S
C13 O20 1.185 . S
O14 C13 1.160 . S
O15 Zn16 1.899 . S
O15 C23 1.284 . S
Zn16 O15 1.899 . S
Zn16 O17 2.032 . S
Zn16 O20 2.086 . S
Zn16 O25 1.977 . S
O17 Zn16 2.032 . S
O17 C21 1.278 . S
C18 O19 1.203 . S
C18 O25 1.267 . S
O19 C18 1.203 . S
O20 C13 1.185 . S
O20 Zn16 2.086 . S
C21 O17 1.278 . S
C21 O22 1.211 . S
O22 C21 1.211 . S
C23 O15 1.284 . S
C23 O24 1.273 . S
O24 C23 1.273 . S
O25 Zn16 1.977 . S
O25 C18 1.267 . S
C26 O27 1.160 . S
C26 O33 1.185 . S
O27 C26 1.160 . S
O28 Zn29 1.899 . S
O28 C36 1.284 . S
Zn29 O28 1.899 . S
Zn29 O30 2.032 . S
Zn29 O33 2.086 . S
Zn29 O38 1.977 . S
O30 Zn29 2.032 . S
O30 C34 1.278 . S
C31 O32 1.203 . S
C31 O38 1.267 . S
O32 C31 1.203 . S
O33 C26 1.185 . S
O33 Zn29 2.086 . S
C34 O30 1.278 . S
C34 O35 1.211 . S
O35 C34 1.211 . S
C36 O28 1.284 . S
C36 O37 1.273 . S
O37 C36 1.273 . S
O38 Zn29 1.977 . S
O38 C31 1.267 . S
C39 O40 1.160 . S
C39 O46 1.185 . S
O40 C39 1.160 . S
O41 Zn42 1.899 . S
O41 C49 1.284 . S
Zn42 O41 1.899 . S
Zn42 O43 2.032 . S
Zn42 O46 2.086 . S
Zn42 O51 1.977 . S
O43 Zn42 2.032 . S
O43 C47 1.278 . S
C44 O45 1.203 . S
C44 O51 1.267 . S
O45 C44 1.203 . S
O46 C39 1.185 . S
O46 Zn42 2.086 . S
C47 O43 1.278 . S
C47 O48 1.211 . S
O48 C47 1.211 . S
C49 O41 1.284 . S
C49 O50 1.273 . S
O50 C49 1.273 . S
O51 Zn42 1.977 . S
O51 C44 1.267 . S
C52 O53 1.160 . S
C52 O59 1.185 . S
O53 C52 1.160 . S
O54 Zn55 1.899 . S
O54 C62 1.284 . S
Zn55 O54 1.899 . S
Zn55 O56 2.032 . S
Zn55 O59 2.086 . S
Zn55 O64 1.977 . S
O56 Zn55 2.032 . S
O56 C60 1.278 . S
C57 O58 1.203 . S
C57 O64 1.267 . S
O58 C57 1.203 . S
O59 C52 1.185 . S
O59 Zn55 2.086 . S
C60 O56 1.278 . S
C60 O61 1.211 . S
O61 C60 1.211 . S
C62 O54 1.284 . S
C62 O63 1.273 . S
O63 C62 1.273 . S
O64 Zn55 1.977 . S
O64 C57 1.267 . S
C65 O66 1.160 . S
C65 O72 1.185 . S
O66 C65 1.160 . S
O67 Zn68 1.899 . S
O67 C75 1.284 . S
Zn68 O67 1.899 . S
Zn68 O69 2.032 . S
Zn68 O72 2.086 . S
Zn68 O77 1.977 . S
O69 Zn68 2.032 . S
O69 C73 1.278 . S
C70 O71 1.203 . S
C70 O77 1.267 . S
O71 C70 1.203 . S
O72 C65 1.185 . S
O72 Zn68 2.086 . S
C73 O69 1.278 . S
C73 O74 1.211 . S
O74 C73 1.211 . S
C75 O67 1.284 . S
C75 O76 1.273 . S
O76 C75 1.273 . S
O77 Zn68 1.977 . S
O77 C70 1.267 . S
C78 O79 1.160 . S
C78 O85 1.185 . S
O79 C78 1.160 . S
O80 Zn81 1.899 . S
O80 C88 1.284 . S
Zn81 O80 1.899 . S
Zn81 O82 2.032 . S
Zn81 O85 2.086 . S
Zn81 O90 1.977 . S
O82 Zn81 2.032 . S
O82 C86 1.278 . S
C83 O84 1.203 . S
C83 O90 1.267 . S
O84 C83 1.203 . S
O85 C78 1.185 . S
O85 Zn81 2.086 . S
C86 O82 1.278 . S
C86 O87 1.211 . S
O87 C86 1.211 . S
C88 O80 1.284 . S
C88 O89 1.273 . S
O89 C88 1.273 . S
O90 Zn81 1.977 . S
O90 C83 1.267 . S
C91 O92 1.160 . S
C91 O98 1.185 . S
O92 C91 1.160 . S
O93 Zn94 1.899 . S
O93 C101 1.284 . S
Zn94 O93 1.899 . S
Zn94 O95 2.032 . S
Zn94 O98 2.086 . S
Zn94 O103 1.977 . S
O95 Zn94 2.032 . S
O95 C99 1.278 . S
C96 O97 1.203 . S
C96 O103 1.267 . S
O97 C96 1.203 . S
O98 C91 1.185 . S
O98 Zn94 2.086 . S
C99 O95 1.278 . S
C99 O100 1.211 . S
O100 C99 1.211 . S
C101 O93 1.284 . S
C101 O102 1.273 . S
O102 C101 1.273 . S
O103 Zn94 1.977 . S
O103 C96 1.267 . S
C104 O105 1.160 . S
C104 O111 1.185 . S
O105 C104 1.160 . S
O106 Zn107 1.899 . S
O106 C114 1.284 . S
Zn107 O106 1.899 . S
Zn107 O108 2.032 . S
Zn107 O111 2.086 . S
Zn107 O116 1.977 . S
O108 Zn107 2.032 . S
O108 C112 1.278 . S
C109 O110 1.203 . S
C109 O116 1.267 . S
O110 C109 1.203 . S
O111 C104 1.185 . S
O111 Zn107 2.086 . S
C112 O108 1.278 . S
C112 O113 1.211 . S
O113 C112 1.211 . S
C114 O106 1.284 . S
C114 O115 1.273 . S
O115 C114 1.273 . S
O116 Zn107 1.977 . S
O116 C109 1.267 . S
C117 O118 1.160 . S
C117 O124 1.185 . S
O118 C117 1.160 . S
O119 Zn120 1.899 . S
O119 C127 1.284 . S
Zn120 O119 1.899 . S
Zn120 O121 2.032 . S
Zn120 O124 2.086 . S
Zn120 O129 1.977 . S
O121 Zn120 2.032 . S
O121 C125 1.278 . S
C122 O123 1.203 . S
C122 O129 1.267 . S
O123 C122 1.203 . S
O124 C117 1.185 . S
O124 Zn120 2.086 . S
C125 O121 1.278 . S
C125 O126 1.211 . S
O126 C125 1.211 . S
C127 O119 1.284 . S
C127 O128 1.273 . S
O128 C127 1.273 . S
O129 Zn120 1.977 . S
O129 C122 1.267 . S
C130 O131 1.160 . S
C130 O137 1.185 . S
O131 C130 1.160 . S
O132 Zn133 1.899 . S
O132 C140 1.284 . S
Zn133 O132 1.899 . S
Zn133 O134 2.032 . S
Zn133 O137 2.086 . S
Zn133 O142 1.977 . S
O134 Zn133 2.032 . S
O134 C138 1.278 . S
C135 O136 1.203 . S
C135 O142 1.267 . S
O136 C135 1.203 . S
O137 C130 1.185 . S
O137 Zn133 2.086 . S
C138 O134 1.278 . S
C138 O139 1.211 . S
O139 C138 1.211 . S
C140 O132 1.284 . S
C140 O141 1.273 . S
O141 C140 1.273 . S
O142 Zn133 1.977 . S
O142 C135 1.267 . S
C143 O144 1.160 . S
C143 O150 1.185 . S
O144 C143 1.160 . S
O145 Zn146 1.899 . S
O145 C153 1.284 . S
Zn146 O145 1.899 . S
Zn146 O147 2.032 . S
Zn146 O150 2.086 . S
Zn146 O155 1.977 . S
O147 Zn146 2.032 . S
O147 C151 1.278 . S
C148 O149 1.203 . S
C148 O155 1.267 . S
O149 C148 1.203 . S
O150 C143 1.185 . S
O150 Zn146 2.086 . S
C151 O147 1.278 . S
C151 O152 1.211 . S
O152 C151 1.211 . S
C153 O145 1.284 . S
C153 O154 1.273 . S
O154 C153 1.273 . S
O155 Zn146 1.977 . S
O155 C148 1.267 . S
C156 O157 1.160 . S
C156 O163 1.185 . S
O157 C156 1.160 . S
O158 Zn159 1.899 . S
O158 C166 1.284 . S
Zn159 O158 1.899 . S
Zn159 O160 2.032 . S
Zn159 O163 2.086 . S
Zn159 O168 1.977 . S
O160 Zn159 2.032 . S
O160 C164 1.278 . S
C161 O162 1.203 . S
C161 O168 1.267 . S
O162 C161 1.203 . S
O163 C156 1.185 . S
O163 Zn159 2.086 . S
C164 O160 1.278 . S
C164 O165 1.211 . S
O165 C164 1.211 . S
C166 O158 1.284 . S
C166 O167 1.273 . S
O167 C166 1.273 . S
O168 Zn159 1.977 . S
O168 C161 1.267 . S
C169 O170 1.160 . S
C169 O176 1.185 . S
O170 C169 1.160 . S
O171 Zn172 1.899 . S
O171 C179 1.284 . S
Zn172 O171 1.899 . S
Zn172 O173 2.032 . S
Zn172 O176 2.086 . S
Zn172 O181 1.977 . S
O173 Zn172 2.032 . S
O173 C177 1.278 . S
C174 O175 1.203 . S
C174 O181 1.267 . S
O175 C174 1.203 . S
O176 C169 1.185 . S
O176 Zn172 2.086 . S
C177 O173 1.278 . S
C177 O178 1.211 . S
O178 C177 1.211 . S
C179 O171 1.284 . S
C179 O180 1.273 . S
O180 C179 1.273 . S
O181 Zn172 1.977 . S
O181 C174 1.267 . S
C182 O183 1.160 . S
C182 O189 1.185 . S
O183 C182 1.160 . S
O184 Zn185 1.899 . S
O184 C192 1.284 . S
Zn185 O184 1.899 . S
Zn185 O186 2.032 . S
Zn185 O189 2.086 . S
Zn185 O194 1.977 . S
O186 Zn185 2.032 . S
O186 C190 1.278 . S
C187 O188 1.203 . S
C187 O194 1.267 . S
O188 C187 1.203 . S
O189 C182 1.185 . S
O189 Zn185 2.086 . S
C190 O186 1.278 . S
C190 O191 1.211 . S
O191 C190 1.211 . S
C192 O184 1.284 . S
C192 O193 1.273 . S
O193 C192 1.273 . S
O194 Zn185 1.977 . S
O194 C187 1.267 . S
C195 O196 1.160 . S
C195 O202 1.185 . S
O196 C195 1.160 . S
O197 Zn198 1.899 . S
O197 C205 1.284 . S
Zn198 O197 1.899 . S
Zn198 O199 2.032 . S
Zn198 O202 2.086 . S
Zn198 O207 1.977 . S
O199 Zn198 2.032 . S
O199 C203 1.278 . S
C200 O201 1.203 . S
C200 O207 1.267 . S
O201 C200 1.203 . S
O202 C195 1.185 . S
O202 Zn198 2.086 . S
C203 O199 1.278 . S
C203 O204 1.211 . S
O204 C203 1.211 . S
C205 O197 1.284 . S
C205 O206 1.273 . S
O206 C205 1.273 . S
O207 Zn198 1.977 . S
O207 C200 1.267 . S
C208 O209 1.160 . S
C208 O215 1.185 . S
O209 C208 1.160 . S
O210 Zn211 1.899 . S
O210 C218 1.284 . S
Zn211 O210 1.899 . S
Zn211 O212 2.032 . S
Zn211 O215 2.086 . S
Zn211 O220 1.977 . S
O212 Zn211 2.032 . S
O212 C216 1.278 . S
C213 O214 1.203 . S
C213 O220 1.267 . S
O214 C213 1.203 . S
O215 C208 1.185 . S
O215 Zn211 2.086 . S
C216 O212 1.278 . S
C216 O217 1.211 . S
O217 C216 1.211 . S
C218 O210 1.284 . S
C218 O219 1.273 . S
O219 C218 1.273 . S
O220 Zn211 1.977 . S
O220 C213 1.267 . S
C221 O222 1.160 . S
C221 O228 1.185 . S
O222 C221 1.160 . S
O223 Zn224 1.899 . S
O223 C231 1.284 . S
Zn224 O223 1.899 . S
Zn224 O225 2.032 . S
Zn224 O228 2.086 . S
Zn224 O233 1.977 . S
O225 Zn224 2.032 . S
O225 C229 1.278 . S
C226 O227 1.203 . S
C226 O233 1.267 . S
O227 C226 1.203 . S
O228 C221 1.185 . S
O228 Zn224 2.086 . S
C229 O225 1.278 . S
C229 O230 1.211 . S
O230 C229 1.211 . S
C231 O223 1.284 . S
C231 O232 1.273 . S
O232 C231 1.273 . S
O233 Zn224 1.977 . S
O233 C226 1.267 . S
C234 O235 1.160 . S
C234 O241 1.185 . S
O235 C234 1.160 . S
O236 Zn237 1.899 . S
O236 C244 1.284 . S
Zn237 O236 1.899 . S
Zn237 O238 2.032 . S
Zn237 O241 2.086 . S
Zn237 O246 1.977 . S
O238 Zn237 2.032 . S
O238 C242 1.278 . S
C239 O240 1.203 . S
C239 O246 1.267 . S
O240 C239 1.203 . S
O241 C234 1.185 . S
O241 Zn237 2.086 . S
C242 O238 1.278 . S
C242 O243 1.211 . S
O243 C242 1.211 . S
C244 O236 1.284 . S
C244 O245 1.273 . S
O245 C244 1.273 . S
O246 Zn237 1.977 . S
O246 C239 1.267 . S
C247 O248 1.160 . S
C247 O254 1.185 . S
O248 C247 1.160 . S
O249 Zn250 1.899 . S
O249 C257 1.284 . S
Zn250 O249 1.899 . S
Zn250 O251 2.032 . S
Zn250 O254 2.086 . S
Zn250 O259 1.977 . S
O251 Zn250 2.032 . S
O251 C255 1.278 . S
C252 O253 1.203 . S
C252 O259 1.267 . S
O253 C252 1.203 . S
O254 C247 1.185 . S
O254 Zn250 2.086 . S
C255 O251 1.278 . S
C255 O256 1.211 . S
O256 C255 1.211 . S
C257 O249 1.284 . S
C257 O258 1.273 . S
O258 C257 1.273 . S
O259 Zn250 1.977 . S
O259 C252 1.267 . S
C260 O261 1.160 . S
C260 O267 1.185 . S
O261 C260 1.160 . S
O262 Zn263 1.899 . S
O262 C270 1.284 . S
Zn263 O262 1.899 . S
Zn263 O264 2.032 . S
Zn263 O267 2.086 . S
Zn263 O272 1.977 . S
O264 Zn263 2.032 . S
O264 C268 1.278 . S
C265 O266 1.203 . S
C265 O272 1.267 . S
O266 C265 1.203 . S
O267 C260 1.185 . S
O267 Zn263 2.086 . S
C268 O264 1.278 . S
C268 O269 1.211 . S
O269 C268 1.211 . S
C270 O262 1.284 . S
C270 O271 1.273 . S
O271 C270 1.273 . S
O272 Zn263 1.977 . S
O272 C265 1.267 . S
C273 O274 1.160 . S
C273 O280 1.185 . S
O274 C273 1.160 . S
O275 Zn276 1.899 . S
O275 C283 1.284 . S
Zn276 O275 1.899 . S
Zn276 O277 2.032 . S
Zn276 O280 2.086 . S
Zn276 O285 1.977 . S
O277 Zn276 2.032 . S
O277 C281 1.278 . S
C278 O279 1.203 . S
C278 O285 1.267 . S
O279 C278 1.203 . S
O280 C273 1.185 . S
O280 Zn276 2.086 . S
C281 O277 1.278 . S
C281 O282 1.211 . S
O282 C281 1.211 . S
C283 O275 1.284 . S
C283 O284 1.273 . S
O284 C283 1.273 . S
O285 Zn276 1.977 . S
O285 C278 1.267 . S
C286 O287 1.160 . S
C286 O293 1.185 . S
O287 C286 1.160 . S
O288 Zn289 1.899 . S
O288 C296 1.284 . S
Zn289 O288 1.899 . S
Zn289 O290 2.032 . S
Zn289 O293 2.086 . S
Zn289 O298 1.977 . S
O290 Zn289 2.032 . S
O290 C294 1.278 . S
C291 O292 1.203 . S
C291 O298 1.267 . S
O292 C291 1.203 . S
O293 C286 1.185 . S
O293 Zn289 2.086 . S
C294 O290 1.278 . S
C294 O295 1.211 . S
O295 C294 1.211 . S
C296 O288 1.284 . S
C296 O297 1.273 . S
O297 C296 1.273 . S
O298 Zn289 1.977 . S
O298 C291 1.267 . S
C299 O300 1.160 . S
C299 O306 1.185 . S
O300 C299 1.160 . S
O301 Zn302 1.899 . S
O301 C309 1.284 . S
Zn302 O301 1.899 . S
Zn302 O303 2.032 . S
Zn302 O306 2.086 . S
Zn302 O311 1.977 . S
O303 Zn302 2.032 . S
O303 C307 1.278 . S
C304 O305 1.203 . S
C304 O311 1.267 . S
O305 C304 1.203 . S
O306 C299 1.185 . S
O306 Zn302 2.086 . S
C307 O303 1.278 . S
C307 O308 1.211 . S
O308 C307 1.211 . S
C309 O301 1.284 . S
C309 O310 1.273 . S
O310 C309 1.273 . S
O311 Zn302 1.977 . S
O311 C304 1.267 . S
C312 O313 1.160 . S
C312 O319 1.185 . S
O313 C312 1.160 . S
O314 Zn315 1.899 . S
O314 C322 1.284 . S
Zn315 O314 1.899 . S
Zn315 O316 2.032 . S
Zn315 O319 2.086 . S
Zn315 O324 1.977 . S
O316 Zn315 2.032 . S
O316 C320 1.278 . S
C317 O318 1.203 . S
C317 O324 1.267 . S
O318 C317 1.203 . S
O319 C312 1.185 . S
O319 Zn315 2.086 . S
C320 O316 1.278 . S
C320 O321 1.211 . S
O321 C320 1.211 . S
C322 O314 1.284 . S
C322 O323 1.273 . S
O323 C322 1.273 . S
O324 Zn315 1.977 . S
O324 C317 1.267 . S
C325 O326 1.160 . S
C325 O332 1.185 . S
O326 C325 1.160 . S
O327 Zn328 1.899 . S
O327 C335 1.284 . S
Zn328 O327 1.899 . S
Zn328 O329 2.032 . S
Zn328 O332 2.086 . S
Zn328 O337 1.977 . S
O329 Zn328 2.032 . S
O329 C333 1.278 . S
C330 O331 1.203 . S
C330 O337 1.267 . S
O331 C330 1.203 . S
O332 C325 1.185 . S
O332 Zn328 2.086 . S
C333 O329 1.278 . S
C333 O334 1.211 . S
O334 C333 1.211 . S
C335 O327 1.284 . S
C335 O336 1.273 . S
O336 C335 1.273 . S
O337 Zn328 1.977 . S
O337 C330 1.267 . S
C338 O339 1.160 . S
C338 O345 1.185 . S
O339 C338 1.160 . S
O340 Zn341 1.899 . S
O340 C348 1.284 . S
Zn341 O340 1.899 . S
Zn341 O342 2.032 . S
Zn341 O345 2.086 . S
Zn341 O350 1.977 . S
O342 Zn341 2.032 . S
O342 C346 1.278 . S
C343 O344 1.203 . S
C343 O350 1.267 . S
O344 C343 1.203 . S
O345 C338 1.185 . S
O345 Zn341 2.086 . S
C346 O342 1.278 . S
C346 O347 1.211 . S
O347 C346 1.211 . S
C348 O340 1.284 . S
C348 O349 1.273 . S
O349 C348 1.273 . S
O350 Zn341 1.977 . S
O350 C343 1.267 . S
C351 O352 1.160 . S
C351 O358 1.185 . S
O352 C351 1.160 . S
O353 Zn354 1.899 . S
O353 C361 1.284 . S
Zn354 O353 1.899 . S
Zn354 O355 2.032 . S
Zn354 O358 2.086 . S
Zn354 O363 1.977 . S
O355 Zn354 2.032 . S
O355 C359 1.278 . S
C356 O357 1.203 . S
C356 O363 1.267 . S
O357 C356 1.203 . S
O358 C351 1.185 . S
O358 Zn354 2.086 . S
C359 O355 1.278 . S
C359 O360 1.211 . S
O360 C359 1.211 . S
C361 O353 1.284 . S
C361 O362 1.273 . S
O362 C361 1.273 . S
O363 Zn354 1.977 . S
O363 C356 1.267 . S
C364 O365 1.160 . S
C364 O371 1.185 . S
O365 C364 1.160 . S
O366 Zn367 1.899 . S
O366 C374 1.284 . S
Zn367 O366 1.899 . S
Zn367 O368 2.032 . S
Zn367 O371 2.086 . S
Zn367 O376 1.977 . S
O368 Zn367 2.032 . S
O368 C372 1.278 . S
C369 O370 1.203 . S
C369 O376 1.267 . S
O370 C369 1.203 . S
O371 C364 1.185 . S
O371 Zn367 2.086 . S
C372 O368 1.278 . S
C372 O373 1.211 . S
O373 C372 1.211 . S
C374 O366 1.284 . S
C374 O375 1.273 . S
O375 C374 1.273 . S
O376 Zn367 1.977 . S
O376 C369 1.267 . S
C377 O378 1.160 . S
C377 O384 1.185 . S
O378 C377 1.160 . S
O379 Zn380 1.899 . S
O379 C387 1.284 . S
Zn380 O379 1.899 . S
Zn380 O381 2.032 . S
Zn380 O384 2.086 . S
Zn380 O389 1.977 . S
O381 Zn380 2.032 . S
O381 C385 1.278 . S
C382 O383 1.203 . S
C382 O389 1.267 . S
O383 C382 1.203 . S
O384 C377 1.185 . S
O384 Zn380 2.086 . S
C385 O381 1.278 . S
C385 O386 1.211 . S
O386 C385 1.211 . S
C387 O379 1.284 . S
C387 O388 1.273 . S
O388 C387 1.273 . S
O389 Zn380 1.977 . S
O389 C382 1.267 . S
C390 O391 1.160 . S
C390 O397 1.185 . S
O391 C390 1.160 . S
O392 Zn393 1.899 . S
O392 C400 1.284 . S
Zn393 O392 1.899 . S
Zn393 O394 2.032 . S
Zn393 O397 2.086 . S
Zn393 O402 1.977 . S
O394 Zn393 2.032 . S
O394 C398 1.278 . S
C395 O396 1.203 . S
C395 O402 1.267 . S
O396 C395 1.203 . S
O397 C390 1.185 . S
O397 Zn393 2.086 . S
C398 O394 1.278 . S
C398 O399 1.211 . S
O399 C398 1.211 . S
C400 O392 1.284 . S
C400 O401 1.273 . S
O401 C400 1.273 . S
O402 Zn393 1.977 . S
O402 C395 1.267 . S
C403 O404 1.160 . S
C403 O410 1.185 . S
O404 C403 1.160 . S
O405 Zn406 1.899 . S
O405 C413 1.284 . S
Zn406 O405 1.899 . S
Zn406 O407 2.032 . S
Zn406 O410 2.086 . S
Zn406 O415 1.977 . S
O407 Zn406 2.032 . S
O407 C411 1.278 . S
C408 O409 1.203 . S
C408 O415 1.267 . S
O409 C408 1.203 . S
O410 C403 1.185 . S
O410 Zn406 2.086 . S
C411 O407 1.278 . S
C411 O412 1.211 . S
O412 C411 1.211 . S
C413 O405 1.284 . S
C413 O414 1.273 . S
O414 C413 1.273 . S
O415 Zn406 1.977 . S
O415 C408 1.267 . S
H416 C424 0.950 . S
H417 C429 0.950 . S
H418 C426 0.950 1_554 S
H419 C428 0.970 . S
H420 C430 0.950 . S
H421 C432 0.950 1_556 S
H422 C434 0.970 . S
H423 C435 0.950 . S
C424 H416 0.950 . S
C424 C425 1.386 . S
C424 C426 1.391 . S
C425 C424 1.386 . S
C425 C429 1.393 . S
C426 H418 0.950 1_556 S
C426 C424 1.391 . S
C426 C427 1.400 . S
C427 C426 1.400 . S
C427 C428 1.391 1_655 S
C427 C433 1.491 1_656 S
C428 H419 0.970 . S
C428 C427 1.391 1_455 S
C428 C429 1.378 1_455 S
C429 H417 0.950 . S
C429 C425 1.393 . S
C429 C428 1.378 1_655 S
C430 H420 0.950 . S
C430 C431 1.386 . S
C430 C432 1.391 . S
C431 C430 1.386 . S
C431 C435 1.393 . S
C432 H421 0.950 1_554 S
C432 C430 1.391 . S
C432 C433 1.400 . S
C433 C427 1.491 1_454 S
C433 C432 1.400 . S
C433 C434 1.391 1_455 S
C434 H422 0.970 . S
C434 C433 1.391 1_655 S
C434 C435 1.378 1_655 S
C435 H423 0.950 . S
C435 C431 1.393 . S
C435 C434 1.378 1_455 S
H436 C444 0.950 . S
H437 C449 0.950 . S
H438 C446 0.950 . S
H439 C448 0.950 . S
H440 C450 0.950 . S
H441 C452 0.950 . S
H442 C454 0.950 . S
H443 C455 0.950 . S
C444 H436 0.950 . S
C444 C445 1.386 . S
C444 C446 1.391 . S
C445 C444 1.386 . S
C445 C449 1.393 . S
C446 H438 0.950 . S
C446 C444 1.391 . S
C446 C447 1.400 . S
C447 C446 1.400 . S
C447 C448 1.398 . S
C447 C453 1.491 . S
C448 H439 0.950 . S
C448 C447 1.398 . S
C448 C449 1.391 . S
C449 H437 0.950 . S
C449 C445 1.393 . S
C449 C448 1.391 . S
C450 H440 0.950 . S
C450 C451 1.386 . S
C450 C452 1.391 . S
C451 C450 1.386 . S
C451 C455 1.393 . S
C452 H441 0.950 . S
C452 C450 1.391 . S
C452 C453 1.400 . S
C453 C447 1.491 . S
C453 C452 1.400 . S
C453 C454 1.398 . S
C454 H442 0.950 . S
C454 C453 1.398 . S
C454 C455 1.391 . S
C455 H443 0.950 . S
C455 C451 1.393 . S
C455 C454 1.391 . S
H456 C464 0.950 . S
H457 C469 0.950 . S
H458 C466 0.950 . S
H459 C468 0.950 . S
H460 C470 0.950 . S
H461 C472 0.950 . S
H462 C474 0.950 . S
H463 C475 0.950 . S
C464 H456 0.950 . S
C464 C465 1.386 . S
C464 C466 1.391 . S
C465 C464 1.386 . S
C465 C469 1.393 . S
C466 H458 0.950 . S
C466 C464 1.391 . S
C466 C467 1.400 . S
C467 C466 1.400 . S
C467 C468 1.398 . S
C467 C473 1.491 . S
C468 H459 0.950 . S
C468 C467 1.398 . S
C468 C469 1.391 . S
C469 H457 0.950 . S
C469 C465 1.393 . S
C469 C468 1.391 . S
C470 H460 0.950 . S
C470 C471 1.386 . S
C470 C472 1.391 . S
C471 C470 1.386 . S
C471 C475 1.393 . S
C472 H461 0.950 . S
C472 C470 1.391 . S
C472 C473 1.400 . S
C473 C467 1.491 . S
C473 C472 1.400 . S
C473 C474 1.398 . S
C474 H462 0.950 . S
C474 C473 1.398 . S
C474 C475 1.391 . S
C475 H463 0.950 . S
C475 C471 1.393 . S
C475 C474 1.391 . S
H476 C484 0.950 . S
H477 C489 0.950 . S
H478 C486 0.950 . S
H479 C488 0.950 . S
H480 C490 0.950 . S
H481 C492 0.950 . S
H482 C494 0.950 . S
H483 C495 0.950 . S
C484 H476 0.950 . S
C484 C485 1.386 . S
C484 C486 1.391 . S
C485 C484 1.386 . S
C485 C489 1.393 . S
C486 H478 0.950 . S
C486 C484 1.391 . S
C486 C487 1.400 . S
C487 C486 1.400 . S
C487 C488 1.398 . S
C487 C493 1.491 . S
C488 H479 0.950 . S
C488 C487 1.398 . S
C488 C489 1.391 . S
C489 H477 0.950 . S
C489 C485 1.393 . S
C489 C488 1.391 . S
C490 H480 0.950 . S
C490 C491 1.386 . S
C490 C492 1.391 . S
C491 C490 1.386 . S
C491 C495 1.393 . S
C492 H481 0.950 . S
C492 C490 1.391 . S
C492 C493 1.400 . S
C493 C487 1.491 . S
C493 C492 1.400 . S
C493 C494 1.398 . S
C494 H482 0.950 . S
C494 C493 1.398 . S
C494 C495 1.391 . S
C495 H483 0.950 . S
C495 C491 1.393 . S
C495 C494 1.391 . S
H496 C504 0.950 . S
H497 C509 0.950 . S
H498 C506 0.915 1_455 S
H499 C508 0.950 . S
H500 C510 0.950 . S
H501 C512 0.915 1_655 S
H502 C514 0.950 . S
H503 C515 0.950 . S
C504 H496 0.950 . S
C504 C505 1.386 . S
C504 C506 1.415 . S
C505 C504 1.386 . S
C505 C509 1.393 . S
C506 H498 0.915 1_655 S
C506 C504 1.415 . S
C506 C507 1.412 . S
C507 C506 1.412 . S
C507 C508 1.398 . S
C507 C513 1.491 1_655 S
C508 H499 0.950 . S
C508 C507 1.398 . S
C508 C509 1.391 . S
C509 H497 0.950 . S
C509 C505 1.393 . S
C509 C508 1.391 . S
C510 H500 0.950 . S
C510 C511 1.386 . S
C510 C512 1.415 . S
C511 C510 1.386 . S
C511 C515 1.393 . S
C512 H501 0.915 1_455 S
C512 C510 1.415 . S
C512 C513 1.412 . S
C513 C507 1.491 1_455 S
C513 C512 1.412 . S
C513 C514 1.398 . S
C514 H502 0.950 . S
C514 C513 1.398 . S
C514 C515 1.391 . S
C515 H503 0.950 . S
C515 C511 1.393 . S
C515 C514 1.391 . S
H516 C524 0.950 . S
H517 C529 0.950 . S
H518 C526 0.950 . S
H519 C528 0.950 . S
H520 C530 0.950 . S
H521 C532 0.950 . S
H522 C534 0.950 . S
H523 C535 0.950 . S
C524 H516 0.950 . S
C524 C525 1.386 . S
C524 C526 1.391 . S
C525 C524 1.386 . S
C525 C529 1.393 . S
C526 H518 0.950 . S
C526 C524 1.391 . S
C526 C527 1.400 . S
C527 C526 1.400 . S
C527 C528 1.398 . S
C527 C533 1.491 . S
C528 H519 0.950 . S
C528 C527 1.398 . S
C528 C529 1.391 . S
C529 H517 0.950 . S
C529 C525 1.393 . S
C529 C528 1.391 . S
C530 H520 0.950 . S
C530 C531 1.386 . S
C530 C532 1.391 . S
C531 C530 1.386 . S
C531 C535 1.393 . S
C532 H521 0.950 . S
C532 C530 1.391 . S
C532 C533 1.400 . S
C533 C527 1.491 . S
C533 C532 1.400 . S
C533 C534 1.398 . S
C534 H522 0.950 . S
C534 C533 1.398 . S
C534 C535 1.391 . S
C535 H523 0.950 . S
C535 C531 1.393 . S
C535 C534 1.391 . S
H536 C544 0.950 . S
H537 C549 0.950 . S
H538 C546 0.950 . S
H539 C548 0.950 1_554 S
H540 C550 0.950 . S
H541 C552 0.950 . S
H542 C554 0.950 1_556 S
H543 C555 0.950 . S
C544 H536 0.950 . S
C544 C545 1.386 . S
C544 C546 1.391 . S
C545 C544 1.386 . S
C545 C549 1.393 . S
C546 H538 0.950 . S
C546 C544 1.391 . S
C546 C547 1.400 . S
C547 C546 1.400 . S
C547 C548 1.398 . S
C547 C553 1.491 1_556 S
C548 H539 0.950 1_556 S
C548 C547 1.398 . S
C548 C549 1.391 . S
C549 H537 0.950 . S
C549 C545 1.393 . S
C549 C548 1.391 . S
C550 H540 0.950 . S
C550 C551 1.386 . S
C550 C552 1.391 . S
C551 C550 1.386 . S
C551 C555 1.393 . S
C552 H541 0.950 . S
C552 C550 1.391 . S
C552 C553 1.400 . S
C553 C547 1.491 1_554 S
C553 C552 1.400 . S
C553 C554 1.398 . S
C554 H542 0.950 1_554 S
C554 C553 1.398 . S
C554 C555 1.391 . S
C555 H543 0.950 . S
C555 C551 1.393 . S
C555 C554 1.391 . S
H556 C564 0.950 . S
H557 C569 0.950 . S
H558 C566 0.950 . S
H559 C568 0.950 . S
H560 C570 0.950 . S
H561 C572 0.950 . S
H562 C574 0.950 . S
H563 C575 0.950 . S
C564 H556 0.950 . S
C564 C565 1.386 . S
C564 C566 1.391 . S
C565 C564 1.386 . S
C565 C569 1.393 . S
C566 H558 0.950 . S
C566 C564 1.391 . S
C566 C567 1.400 . S
C567 C566 1.400 . S
C567 C568 1.398 . S
C567 C573 1.491 . S
C568 H559 0.950 . S
C568 C567 1.398 . S
C568 C569 1.391 . S
C569 H557 0.950 . S
C569 C565 1.393 . S
C569 C568 1.391 . S
C570 H560 0.950 . S
C570 C571 1.386 . S
C570 C572 1.391 . S
C571 C570 1.386 . S
C571 C575 1.393 . S
C572 H561 0.950 . S
C572 C570 1.391 . S
C572 C573 1.400 . S
C573 C567 1.491 . S
C573 C572 1.400 . S
C573 C574 1.398 . S
C574 H562 0.950 . S
C574 C573 1.398 . S
C574 C575 1.391 . S
C575 H563 0.950 . S
C575 C571 1.393 . S
C575 C574 1.391 . S
H576 C584 0.950 . S
H577 C589 0.950 . S
H578 C586 0.950 . S
H579 C588 0.950 . S
H580 C590 0.950 . S
H581 C592 0.950 . S
H582 C594 0.950 . S
H583 C595 0.950 . S
C584 H576 0.950 . S
C584 C585 1.386 . S
C584 C586 1.391 . S
C585 C584 1.386 . S
C585 C589 1.393 . S
C586 H578 0.950 . S
C586 C584 1.391 . S
C586 C587 1.400 . S
C587 C586 1.400 . S
C587 C588 1.398 . S
C587 C593 1.491 . S
C588 H579 0.950 . S
C588 C587 1.398 . S
C588 C589 1.391 . S
C589 H577 0.950 . S
C589 C585 1.393 . S
C589 C588 1.391 . S
C590 H580 0.950 . S
C590 C591 1.386 . S
C590 C592 1.391 . S
C591 C590 1.386 . S
C591 C595 1.393 . S
C592 H581 0.950 . S
C592 C590 1.391 . S
C592 C593 1.400 . S
C593 C587 1.491 . S
C593 C592 1.400 . S
C593 C594 1.398 . S
C594 H582 0.950 . S
C594 C593 1.398 . S
C594 C595 1.391 . S
C595 H583 0.950 . S
C595 C591 1.393 . S
C595 C594 1.391 . S
H596 C604 0.950 . S
H597 C609 0.950 . S
H598 C606 0.950 . S
H599 C608 0.950 . S
H600 C610 0.950 . S
H601 C612 0.950 . S
H602 C614 0.950 . S
H603 C615 0.950 . S
C604 H596 0.950 . S
C604 C605 1.386 . S
C604 C606 1.391 . S
C605 C604 1.386 . S
C605 C609 1.393 . S
C606 H598 0.950 . S
C606 C604 1.391 . S
C606 C607 1.400 . S
C607 C606 1.400 . S
C607 C608 1.398 . S
C607 C613 1.491 . S
C608 H599 0.950 . S
C608 C607 1.398 . S
C608 C609 1.391 . S
C609 H597 0.950 . S
C609 C605 1.393 . S
C609 C608 1.391 . S
C610 H600 0.950 . S
C610 C611 1.386 . S
C610 C612 1.391 . S
C611 C610 1.386 . S
C611 C615 1.393 . S
C612 H601 0.950 . S
C612 C610 1.391 . S
C612 C613 1.400 . S
C613 C607 1.491 . S
C613 C612 1.400 . S
C613 C614 1.398 . S
C614 H602 0.950 . S
C614 C613 1.398 . S
C614 C615 1.391 . S
C615 H603 0.950 . S
C615 C611 1.393 . S
C615 C614 1.391 . S
H616 C624 0.950 . S
H617 C629 0.950 . S
H618 C626 0.950 . S
H619 C628 0.950 . S
H620 C630 0.950 . S
H621 C632 0.950 . S
H622 C634 0.950 . S
H623 C635 0.950 . S
C624 H616 0.950 . S
C624 C625 1.386 . S
C624 C626 1.391 . S
C625 C624 1.386 . S
C625 C629 1.393 . S
C626 H618 0.950 . S
C626 C624 1.391 . S
C626 C627 1.400 . S
C627 C626 1.400 . S
C627 C628 1.398 . S
C627 C633 1.491 . S
C628 H619 0.950 . S
C628 C627 1.398 . S
C628 C629 1.391 . S
C629 H617 0.950 . S
C629 C625 1.393 . S
C629 C628 1.391 . S
C630 H620 0.950 . S
C630 C631 1.386 . S
C630 C632 1.391 . S
C631 C630 1.386 . S
C631 C635 1.393 . S
C632 H621 0.950 . S
C632 C630 1.391 . S
C632 C633 1.400 . S
C633 C627 1.491 . S
C633 C632 1.400 . S
C633 C634 1.398 . S
C634 H622 0.950 . S
C634 C633 1.398 . S
C634 C635 1.391 . S
C635 H623 0.950 . S
C635 C631 1.393 . S
C635 C634 1.391 . S
H636 C644 0.950 . S
H637 C649 0.950 . S
H638 C646 0.950 . S
H639 C648 0.950 . S
H640 C650 0.950 . S
H641 C652 0.950 . S
H642 C654 0.950 . S
H643 C655 0.950 . S
C644 H636 0.950 . S
C644 C645 1.386 . S
C644 C646 1.391 . S
C645 C644 1.386 . S
C645 C649 1.393 . S
C646 H638 0.950 . S
C646 C644 1.391 . S
C646 C647 1.400 . S
C647 C646 1.400 . S
C647 C648 1.398 . S
C647 C653 1.491 . S
C648 H639 0.950 . S
C648 C647 1.398 . S
C648 C649 1.391 . S
C649 H637 0.950 . S
C649 C645 1.393 . S
C649 C648 1.391 . S
C650 H640 0.950 . S
C650 C651 1.386 . S
C650 C652 1.391 . S
C651 C650 1.386 . S
C651 C655 1.393 . S
C652 H641 0.950 . S
C652 C650 1.391 . S
C652 C653 1.400 . S
C653 C647 1.491 . S
C653 C652 1.400 . S
C653 C654 1.398 . S
C654 H642 0.950 . S
C654 C653 1.398 . S
C654 C655 1.391 . S
C655 H643 0.950 . S
C655 C651 1.393 . S
C655 C654 1.391 . S
H656 C664 0.950 . S
H657 C669 0.950 . S
H658 C666 0.931 1_545 S
H659 C668 0.950 . S
H660 C670 0.950 . S
H661 C672 0.931 1_565 S
H662 C674 0.950 . S
H663 C675 0.950 . S
C664 H656 0.950 . S
C664 C665 1.386 . S
C664 C666 1.391 . S
C665 C664 1.386 . S
C665 C669 1.393 . S
C666 H658 0.931 1_565 S
C666 C664 1.391 . S
C666 C667 1.400 . S
C667 C666 1.400 . S
C667 C668 1.398 . S
C667 C673 1.491 1_565 S
C668 H659 0.950 . S
C668 C667 1.398 . S
C668 C669 1.391 . S
C669 H657 0.950 . S
C669 C665 1.393 . S
C669 C668 1.391 . S
C670 H660 0.950 . S
C670 C671 1.386 . S
C670 C672 1.391 . S
C671 C670 1.386 . S
C671 C675 1.393 . S
C672 H661 0.931 1_545 S
C672 C670 1.391 . S
C672 C673 1.400 . S
C673 C667 1.491 1_545 S
C673 C672 1.400 . S
C673 C674 1.398 . S
C674 H662 0.950 . S
C674 C673 1.398 . S
C674 C675 1.391 . S
C675 H663 0.950 . S
C675 C671 1.393 . S
C675 C674 1.391 . S
H676 C684 0.950 . S
H677 C689 0.950 . S
H678 C686 0.950 1_654 S
H679 C688 0.950 1_545 S
H680 C690 0.950 . S
H681 C692 0.950 1_456 S
H682 C694 0.950 1_565 S
H683 C695 0.950 . S
C684 H676 0.950 . S
C684 C685 1.386 . S
C684 C686 1.391 . S
C685 C684 1.386 . S
C685 C689 1.393 . S
C686 H678 0.950 1_456 S
C686 C684 1.391 . S
C686 C687 1.400 . S
C687 C686 1.400 . S
C687 C688 1.398 . S
C687 C693 1.491 1_466 S
C688 H679 0.950 1_565 S
C688 C687 1.398 . S
C688 C689 1.391 . S
C689 H677 0.950 . S
C689 C685 1.393 . S
C689 C688 1.391 . S
C690 H680 0.950 . S
C690 C691 1.386 . S
C690 C692 1.391 . S
C691 C690 1.386 . S
C691 C695 1.393 . S
C692 H681 0.950 1_654 S
C692 C690 1.391 . S
C692 C693 1.400 . S
C693 C687 1.491 1_644 S
C693 C692 1.400 . S
C693 C694 1.398 . S
C694 H682 0.950 1_545 S
C694 C693 1.398 . S
C694 C695 1.391 . S
C695 H683 0.950 . S
C695 C691 1.393 . S
C695 C694 1.391 . S
H696 C704 0.950 . S
H697 C709 0.950 . S
H698 C706 0.908 1_564 S
H699 C708 0.950 . S
H700 C710 0.950 . S
H701 C712 0.908 1_546 S
H702 C714 0.950 . S
H703 C715 0.950 . S
C704 H696 0.950 . S
C704 C705 1.386 . S
C704 C706 1.424 . S
C705 C704 1.386 . S
C705 C709 1.393 . S
C706 H698 0.908 1_546 S
C706 C704 1.424 . S
C706 C707 1.414 . S
C707 C706 1.414 . S
C707 C708 1.398 . S
C707 C713 1.491 1_546 S
C708 H699 0.950 . S
C708 C707 1.398 . S
C708 C709 1.391 . S
C709 H697 0.950 . S
C709 C705 1.393 . S
C709 C708 1.391 . S
C710 H700 0.950 . S
C710 C711 1.386 . S
C710 C712 1.424 . S
C711 C710 1.386 . S
C711 C715 1.393 . S
C712 H701 0.908 1_564 S
C712 C710 1.424 . S
C712 C713 1.414 . S
C713 C707 1.491 1_564 S
C713 C712 1.414 . S
C713 C714 1.398 . S
C714 H702 0.950 . S
C714 C713 1.398 . S
C714 C715 1.391 . S
C715 H703 0.950 . S
C715 C711 1.393 . S
C715 C714 1.391 . S
H716 C724 0.950 . S
H717 C729 0.950 . S
H718 C726 0.950 1_565 S
H719 C728 0.950 1_655 S
H720 C730 0.950 . S
H721 C732 0.950 1_545 S
H722 C734 0.950 1_455 S
H723 C735 0.950 . S
C724 H716 0.950 . S
C724 C725 1.386 . S
C724 C726 1.391 . S
C725 C724 1.386 . S
C725 C729 1.393 . S
C726 H718 0.950 1_545 S
C726 C724 1.391 . S
C726 C727 1.400 . S
C727 C726 1.400 . S
C727 C728 1.398 . S
C727 C733 1.491 1_445 S
C728 H719 0.950 1_455 S
C728 C727 1.398 . S
C728 C729 1.391 . S
C729 H717 0.950 . S
C729 C725 1.393 . S
C729 C728 1.391 . S
C730 H720 0.950 . S
C730 C731 1.386 . S
C730 C732 1.391 . S
C731 C730 1.386 . S
C731 C735 1.393 . S
C732 H721 0.950 1_565 S
C732 C730 1.391 . S
C732 C733 1.400 . S
C733 C727 1.491 1_665 S
C733 C732 1.400 . S
C733 C734 1.398 . S
C734 H722 0.950 1_655 S
C734 C733 1.398 . S
C734 C735 1.391 . S
C735 H723 0.950 . S
C735 C731 1.393 . S
C735 C734 1.391 . S
H736 C744 0.950 . S
H737 C749 0.950 . S
H738 C746 0.950 . S
H739 C748 0.950 . S
H740 C750 0.950 . S
H741 C752 0.950 . S
H742 C754 0.950 . S
H743 C755 0.950 . S
C744 H736 0.950 . S
C744 C745 1.386 . S
C744 C746 1.391 . S
C745 C744 1.386 . S
C745 C749 1.393 . S
C746 H738 0.950 . S
C746 C744 1.391 . S
C746 C747 1.400 . S
C747 C746 1.400 . S
C747 C748 1.398 . S
C747 C753 1.491 1_655 S
C748 H739 0.950 . S
C748 C747 1.398 . S
C748 C749 1.391 . S
C749 H737 0.950 . S
C749 C745 1.393 . S
C749 C748 1.391 . S
C750 H740 0.950 . S
C750 C751 1.386 . S
C750 C752 1.391 . S
C751 C750 1.386 . S
C751 C755 1.393 . S
C752 H741 0.950 . S
C752 C750 1.391 . S
C752 C753 1.400 . S
C753 C747 1.491 1_455 S
C753 C752 1.400 . S
C753 C754 1.398 . S
C754 H742 0.950 . S
C754 C753 1.398 . S
C754 C755 1.391 . S
C755 H743 0.950 . S
C755 C751 1.393 . S
C755 C754 1.391 . S
H756 C764 0.950 . S
H757 C769 0.950 . S
H758 C766 0.950 . S
H759 C768 0.950 . S
H760 C770 0.950 . S
H761 C772 0.950 . S
H762 C774 0.950 . S
H763 C775 0.950 . S
C764 H756 0.950 . S
C764 C765 1.386 . S
C764 C766 1.391 . S
C765 C764 1.386 . S
C765 C769 1.393 . S
C766 H758 0.950 . S
C766 C764 1.391 . S
C766 C767 1.400 . S
C767 C766 1.400 . S
C767 C768 1.398 . S
C767 C773 1.491 1_455 S
C768 H759 0.950 . S
C768 C767 1.398 . S
C768 C769 1.391 . S
C769 H757 0.950 . S
C769 C765 1.393 . S
C769 C768 1.391 . S
C770 H760 0.950 . S
C770 C771 1.386 . S
C770 C772 1.391 . S
C771 C770 1.386 . S
C771 C775 1.393 . S
C772 H761 0.950 . S
C772 C770 1.391 . S
C772 C773 1.400 . S
C773 C767 1.491 1_655 S
C773 C772 1.400 . S
C773 C774 1.398 . S
C774 H762 0.950 . S
C774 C773 1.398 . S
C774 C775 1.391 . S
C775 H763 0.950 . S
C775 C771 1.393 . S
C775 C774 1.391 . S
H776 C784 0.950 . S
H777 C789 0.950 . S
H778 C786 0.950 . S
H779 C788 0.950 . S
H780 C790 0.950 . S
H781 C792 0.950 . S
H782 C794 0.950 . S
H783 C795 0.950 . S
C784 H776 0.950 . S
C784 C785 1.386 . S
C784 C786 1.391 . S
C785 C784 1.386 . S
C785 C789 1.393 . S
C786 H778 0.950 . S
C786 C784 1.391 . S
C786 C787 1.400 . S
C787 C786 1.400 . S
C787 C788 1.398 . S
C787 C793 1.491 . S
C788 H779 0.950 . S
C788 C787 1.398 . S
C788 C789 1.391 . S
C789 H777 0.950 . S
C789 C785 1.393 . S
C789 C788 1.391 . S
C790 H780 0.950 . S
C790 C791 1.386 . S
C790 C792 1.391 . S
C791 C790 1.386 . S
C791 C795 1.393 . S
C792 H781 0.950 . S
C792 C790 1.391 . S
C792 C793 1.400 . S
C793 C787 1.491 . S
C793 C792 1.400 . S
C793 C794 1.398 . S
C794 H782 0.950 . S
C794 C793 1.398 . S
C794 C795 1.391 . S
C795 H783 0.950 . S
C795 C791 1.393 . S
C795 C794 1.391 . S
H796 C804 0.950 . S
H797 C809 0.950 . S
H798 C806 0.950 . S
H799 C808 0.950 . S
H800 C810 0.950 . S
H801 C812 0.950 . S
H802 C814 0.950 . S
H803 C815 0.950 . S
C804 H796 0.950 . S
C804 C805 1.386 . S
C804 C806 1.391 . S
C805 C804 1.386 . S
C805 C809 1.393 . S
C806 H798 0.950 . S
C806 C804 1.391 . S
C806 C807 1.400 . S
C807 C806 1.400 . S
C807 C808 1.398 . S
C807 C813 1.491 . S
C808 H799 0.950 . S
C808 C807 1.398 . S
C808 C809 1.391 . S
C809 H797 0.950 . S
C809 C805 1.393 . S
C809 C808 1.391 . S
C810 H800 0.950 . S
C810 C811 1.386 . S
C810 C812 1.391 . S
C811 C810 1.386 . S
C811 C815 1.393 . S
C812 H801 0.950 . S
C812 C810 1.391 . S
C812 C813 1.400 . S
C813 C807 1.491 . S
C813 C812 1.400 . S
C813 C814 1.398 . S
C814 H802 0.950 . S
C814 C813 1.398 . S
C814 C815 1.391 . S
C815 H803 0.950 . S
C815 C811 1.393 . S
C815 C814 1.391 . S
H816 C824 0.950 . S
H817 C829 0.950 . S
H818 C826 0.950 . S
H819 C828 0.950 . S
H820 C830 0.950 . S
H821 C832 0.950 . S
H822 C834 0.950 . S
H823 C835 0.950 . S
C824 H816 0.950 . S
C824 C825 1.386 . S
C824 C826 1.391 . S
C825 C824 1.386 . S
C825 C829 1.393 . S
C826 H818 0.950 . S
C826 C824 1.391 . S
C826 C827 1.400 . S
C827 C826 1.400 . S
C827 C828 1.398 1_655 S
C827 C833 1.491 1_655 S
C828 H819 0.950 . S
C828 C827 1.398 1_455 S
C828 C829 1.391 1_455 S
C829 H817 0.950 . S
C829 C825 1.393 . S
C829 C828 1.391 1_655 S
C830 H820 0.950 . S
C830 C831 1.386 . S
C830 C832 1.391 . S
C831 C830 1.386 . S
C831 C835 1.393 . S
C832 H821 0.950 . S
C832 C830 1.391 . S
C832 C833 1.400 . S
C833 C827 1.491 1_455 S
C833 C832 1.400 . S
C833 C834 1.398 1_455 S
C834 H822 0.950 . S
C834 C833 1.398 1_655 S
C834 C835 1.391 1_655 S
C835 H823 0.950 . S
C835 C831 1.393 . S
C835 C834 1.391 1_455 S
H836 C844 0.950 . S
H837 C849 0.950 . S
H838 C846 0.950 . S
H839 C848 0.950 . S
H840 C850 0.950 . S
H841 C852 0.950 . S
H842 C854 0.950 . S
H843 C855 0.950 . S
C844 H836 0.950 . S
C844 C845 1.386 . S
C844 C846 1.391 . S
C845 C844 1.386 . S
C845 C849 1.393 . S
C846 H838 0.950 . S
C846 C844 1.391 . S
C846 C847 1.400 . S
C847 C846 1.400 . S
C847 C848 1.398 . S
C847 C853 1.491 . S
C848 H839 0.950 . S
C848 C847 1.398 . S
C848 C849 1.391 . S
C849 H837 0.950 . S
C849 C845 1.393 . S
C849 C848 1.391 . S
C850 H840 0.950 . S
C850 C851 1.386 . S
C850 C852 1.391 . S
C851 C850 1.386 . S
C851 C855 1.393 . S
C852 H841 0.950 . S
C852 C850 1.391 . S
C852 C853 1.400 . S
C853 C847 1.491 . S
C853 C852 1.400 . S
C853 C854 1.398 . S
C854 H842 0.950 . S
C854 C853 1.398 . S
C854 C855 1.391 . S
C855 H843 0.950 . S
C855 C851 1.393 . S
C855 C854 1.391 . S
H856 C864 0.950 . S
H857 C869 0.950 . S
H858 C866 0.950 . S
H859 C868 0.950 . S
H860 C870 0.950 . S
H861 C872 0.950 . S
H862 C874 0.950 . S
H863 C875 0.950 . S
C864 H856 0.950 . S
C864 C865 1.386 . S
C864 C866 1.391 . S
C865 C864 1.386 . S
C865 C869 1.393 . S
C866 H858 0.950 . S
C866 C864 1.391 . S
C866 C867 1.400 . S
C867 C866 1.400 . S
C867 C868 1.398 . S
C867 C873 1.491 . S
C868 H859 0.950 . S
C868 C867 1.398 . S
C868 C869 1.391 . S
C869 H857 0.950 . S
C869 C865 1.393 . S
C869 C868 1.391 . S
C870 H860 0.950 . S
C870 C871 1.386 . S
C870 C872 1.391 . S
C871 C870 1.386 . S
C871 C875 1.393 . S
C872 H861 0.950 . S
C872 C870 1.391 . S
C872 C873 1.400 . S
C873 C867 1.491 . S
C873 C872 1.400 . S
C873 C874 1.398 . S
C874 H862 0.950 . S
C874 C873 1.398 . S
C874 C875 1.391 . S
C875 H863 0.950 . S
C875 C871 1.393 . S
C875 C874 1.391 . S
H876 C884 0.950 . S
H877 C889 0.950 . S
H878 C886 0.950 1_655 S
H879 C888 0.950 . S
H880 C890 0.950 . S
H881 C892 0.950 1_455 S
H882 C894 0.950 . S
H883 C895 0.950 . S
C884 H876 0.950 . S
C884 C885 1.386 . S
C884 C886 1.391 . S
C885 C884 1.386 . S
C885 C889 1.393 . S
C886 H878 0.950 1_455 S
C886 C884 1.391 . S
C886 C887 1.400 . S
C887 C886 1.400 . S
C887 C888 1.398 . S
C887 C893 1.491 1_455 S
C888 H879 0.950 . S
C888 C887 1.398 . S
C888 C889 1.391 . S
C889 H877 0.950 . S
C889 C885 1.393 . S
C889 C888 1.391 . S
C890 H880 0.950 . S
C890 C891 1.386 . S
C890 C892 1.391 . S
C891 C890 1.386 . S
C891 C895 1.393 . S
C892 H881 0.950 1_655 S
C892 C890 1.391 . S
C892 C893 1.400 . S
C893 C887 1.491 1_655 S
C893 C892 1.400 . S
C893 C894 1.398 . S
C894 H882 0.950 . S
C894 C893 1.398 . S
C894 C895 1.391 . S
C895 H883 0.950 . S
C895 C891 1.393 . S
C895 C894 1.391 . S
H896 C904 0.950 . S
H897 C909 0.950 . S
H898 C906 0.950 . S
H899 C908 0.950 . S
H900 C910 0.950 . S
H901 C912 0.950 . S
H902 C914 0.950 . S
H903 C915 0.950 . S
C904 H896 0.950 . S
C904 C905 1.386 . S
C904 C906 1.391 . S
C905 C904 1.386 . S
C905 C909 1.393 . S
C906 H898 0.950 . S
C906 C904 1.391 . S
C906 C907 1.400 . S
C907 C906 1.400 . S
C907 C908 1.398 . S
C907 C913 1.491 1_655 S
C908 H899 0.950 . S
C908 C907 1.398 . S
C908 C909 1.391 . S
C909 H897 0.950 . S
C909 C905 1.393 . S
C909 C908 1.391 . S
C910 H900 0.950 . S
C910 C911 1.386 . S
C910 C912 1.391 . S
C911 C910 1.386 . S
C911 C915 1.393 . S
C912 H901 0.950 . S
C912 C910 1.391 . S
C912 C913 1.400 . S
C913 C907 1.491 1_455 S
C913 C912 1.400 . S
C913 C914 1.398 . S
C914 H902 0.950 . S
C914 C913 1.398 . S
C914 C915 1.391 . S
C915 H903 0.950 . S
C915 C911 1.393 . S
C915 C914 1.391 . S
H916 C924 0.950 . S
H917 C929 0.950 . S
H918 C926 0.950 1_455 S
H919 C928 0.950 . S
H920 C930 0.950 . S
H921 C932 0.950 1_655 S
H922 C934 0.950 . S
H923 C935 0.950 . S
C924 H916 0.950 . S
C924 C925 1.386 . S
C924 C926 1.391 . S
C925 C924 1.386 . S
C925 C929 1.393 . S
C926 H918 0.950 1_655 S
C926 C924 1.391 . S
C926 C927 1.400 . S
C927 C926 1.400 . S
C927 C928 1.398 . S
C927 C933 1.491 1_655 S
C928 H919 0.950 . S
C928 C927 1.398 . S
C928 C929 1.391 . S
C929 H917 0.950 . S
C929 C925 1.393 . S
C929 C928 1.391 . S
C930 H920 0.950 . S
C930 C931 1.386 . S
C930 C932 1.391 . S
C931 C930 1.386 . S
C931 C935 1.393 . S
C932 H921 0.950 1_455 S
C932 C930 1.391 . S
C932 C933 1.400 . S
C933 C927 1.491 1_455 S
C933 C932 1.400 . S
C933 C934 1.398 . S
C934 H922 0.950 . S
C934 C933 1.398 . S
C934 C935 1.391 . S
C935 H923 0.950 . S
C935 C931 1.393 . S
C935 C934 1.391 . S
H936 C944 0.950 . S
H937 C949 0.950 . S
H938 C946 0.950 . S
H939 C948 0.950 . S
H940 C950 0.950 . S
H941 C952 0.950 . S
H942 C954 0.950 . S
H943 C955 0.950 . S
C944 H936 0.950 . S
C944 C945 1.386 . S
C944 C946 1.391 . S
C945 C944 1.386 . S
C945 C949 1.393 . S
C946 H938 0.950 . S
C946 C944 1.391 . S
C946 C947 1.400 . S
C947 C946 1.400 . S
C947 C948 1.398 . S
C947 C953 1.491 . S
C948 H939 0.950 . S
C948 C947 1.398 . S
C948 C949 1.391 . S
C949 H937 0.950 . S
C949 C945 1.393 . S
C949 C948 1.391 . S
C950 H940 0.950 . S
C950 C951 1.386 . S
C950 C952 1.391 . S
C951 C950 1.386 . S
C951 C955 1.393 . S
C952 H941 0.950 . S
C952 C950 1.391 . S
C952 C953 1.400 . S
C953 C947 1.491 . S
C953 C952 1.400 . S
C953 C954 1.398 . S
C954 H942 0.950 . S
C954 C953 1.398 . S
C954 C955 1.391 . S
C955 H943 0.950 . S
C955 C951 1.393 . S
C955 C954 1.391 . S
H956 C964 0.950 . S
H957 C969 0.950 . S
H958 C966 0.950 . S
H959 C968 0.950 . S
H960 C970 0.950 . S
H961 C972 0.950 . S
H962 C974 0.950 . S
H963 C975 0.950 . S
C964 H956 0.950 . S
C964 C965 1.386 . S
C964 C966 1.391 . S
C965 C964 1.386 . S
C965 C969 1.393 . S
C966 H958 0.950 . S
C966 C964 1.391 . S
C966 C967 1.400 . S
C967 C966 1.400 . S
C967 C968 1.398 . S
C967 C973 1.491 . S
C968 H959 0.950 . S
C968 C967 1.398 . S
C968 C969 1.391 . S
C969 H957 0.950 . S
C969 C965 1.393 . S
C969 C968 1.391 . S
C970 H960 0.950 . S
C970 C971 1.386 . S
C970 C972 1.391 . S
C971 C970 1.386 . S
C971 C975 1.393 . S
C972 H961 0.950 . S
C972 C970 1.391 . S
C972 C973 1.400 . S
C973 C967 1.491 . S
C973 C972 1.400 . S
C973 C974 1.398 . S
C974 H962 0.950 . S
C974 C973 1.398 . S
C974 C975 1.391 . S
C975 H963 0.950 . S
C975 C971 1.393 . S
C975 C974 1.391 . S
H976 C984 0.950 . S
H977 C989 0.950 . S
H978 C986 0.950 1_455 S
H979 C988 0.950 . S
H980 C990 0.950 . S
H981 C992 0.950 1_655 S
H982 C994 0.950 . S
H983 C995 0.950 . S
C984 H976 0.950 . S
C984 C985 1.386 . S
C984 C986 1.391 . S
C985 C984 1.386 . S
C985 C989 1.393 . S
C986 H978 0.950 1_655 S
C986 C984 1.391 . S
C986 C987 1.400 . S
C987 C986 1.400 . S
C987 C988 1.398 . S
C987 C993 1.491 1_655 S
C988 H979 0.950 . S
C988 C987 1.398 . S
C988 C989 1.391 . S
C989 H977 0.950 . S
C989 C985 1.393 . S
C989 C988 1.391 . S
C990 H980 0.950 . S
C990 C991 1.386 . S
C990 C992 1.391 . S
C991 C990 1.386 . S
C991 C995 1.393 . S
C992 H981 0.950 1_455 S
C992 C990 1.391 . S
C992 C993 1.400 . S
C993 C987 1.491 1_455 S
C993 C992 1.400 . S
C993 C994 1.398 . S
C994 H982 0.950 . S
C994 C993 1.398 . S
C994 C995 1.391 . S
C995 H983 0.950 . S
C995 C991 1.393 . S
C995 C994 1.391 . S
H996 C1004 0.950 . S
H997 C1009 0.950 . S
H998 C1006 0.950 . S
H999 C1008 0.950 . S
H1000 C1010 0.950 . S
H1001 C1012 0.950 . S
H1002 C1014 0.950 . S
H1003 C1015 0.950 . S
C1004 H996 0.950 . S
C1004 C1005 1.386 . S
C1004 C1006 1.391 . S
C1005 C1004 1.386 . S
C1005 C1009 1.393 . S
C1006 H998 0.950 . S
C1006 C1004 1.391 . S
C1006 C1007 1.400 . S
C1007 C1006 1.400 . S
C1007 C1008 1.398 . S
C1007 C1013 1.491 . S
C1008 H999 0.950 . S
C1008 C1007 1.398 . S
C1008 C1009 1.391 . S
C1009 H997 0.950 . S
C1009 C1005 1.393 . S
C1009 C1008 1.391 . S
C1010 H1000 0.950 . S
C1010 C1011 1.386 . S
C1010 C1012 1.391 . S
C1011 C1010 1.386 . S
C1011 C1015 1.393 . S
C1012 H1001 0.950 . S
C1012 C1010 1.391 . S
C1012 C1013 1.400 . S
C1013 C1007 1.491 . S
C1013 C1012 1.400 . S
C1013 C1014 1.398 . S
C1014 H1002 0.950 . S
C1014 C1013 1.398 . S
C1014 C1015 1.391 . S
C1015 H1003 0.950 . S
C1015 C1011 1.393 . S
C1015 C1014 1.391 . S
H1016 C1024 0.950 . S
H1017 C1029 0.950 . S
H1018 C1026 0.950 . S
H1019 C1028 0.950 . S
H1020 C1030 0.950 . S
H1021 C1032 0.950 . S
H1022 C1034 0.950 . S
H1023 C1035 0.950 . S
C1024 H1016 0.950 . S
C1024 C1025 1.386 . S
C1024 C1026 1.391 . S
C1025 C1024 1.386 . S
C1025 C1029 1.393 . S
C1026 H1018 0.950 . S
C1026 C1024 1.391 . S
C1026 C1027 1.400 . S
C1027 C1026 1.400 . S
C1027 C1028 1.398 . S
C1027 C1033 1.491 . S
C1028 H1019 0.950 . S
C1028 C1027 1.398 . S
C1028 C1029 1.391 . S
C1029 H1017 0.950 . S
C1029 C1025 1.393 . S
C1029 C1028 1.391 . S
C1030 H1020 0.950 . S
C1030 C1031 1.386 . S
C1030 C1032 1.391 . S
C1031 C1030 1.386 . S
C1031 C1035 1.393 . S
C1032 H1021 0.950 . S
C1032 C1030 1.391 . S
C1032 C1033 1.400 . S
C1033 C1027 1.491 . S
C1033 C1032 1.400 . S
C1033 C1034 1.398 . S
C1034 H1022 0.950 . S
C1034 C1033 1.398 . S
C1034 C1035 1.391 . S
C1035 H1023 0.950 . S
C1035 C1031 1.393 . S
C1035 C1034 1.391 . S
H1036 C1044 0.950 . S
H1037 C1049 0.950 . S
H1038 C1046 0.950 . S
H1039 C1048 0.950 . S
H1040 C1050 0.950 . S
H1041 C1052 0.950 . S
H1042 C1054 0.950 . S
H1043 C1055 0.950 . S
C1044 H1036 0.950 . S
C1044 C1045 1.386 . S
C1044 C1046 1.391 . S
C1045 C1044 1.386 . S
C1045 C1049 1.393 . S
C1046 H1038 0.950 . S
C1046 C1044 1.391 . S
C1046 C1047 1.400 . S
C1047 C1046 1.400 . S
C1047 C1048 1.398 . S
C1047 C1053 1.491 1_655 S
C1048 H1039 0.950 . S
C1048 C1047 1.398 . S
C1048 C1049 1.391 . S
C1049 H1037 0.950 . S
C1049 C1045 1.393 . S
C1049 C1048 1.391 . S
C1050 H1040 0.950 . S
C1050 C1051 1.386 . S
C1050 C1052 1.391 . S
C1051 C1050 1.386 . S
C1051 C1055 1.393 . S
C1052 H1041 0.950 . S
C1052 C1050 1.391 . S
C1052 C1053 1.400 . S
C1053 C1047 1.491 1_455 S
C1053 C1052 1.400 . S
C1053 C1054 1.398 . S
C1054 H1042 0.950 . S
C1054 C1053 1.398 . S
C1054 C1055 1.391 . S
C1055 H1043 0.950 . S
C1055 C1051 1.393 . S
C1055 C1054 1.391 . S
H1056 C1064 0.950 . S
H1057 C1069 0.950 . S
H1058 C1066 0.950 . S
H1059 C1068 0.950 . S
H1060 C1070 0.950 . S
H1061 C1072 0.950 . S
H1062 C1074 0.950 . S
H1063 C1075 0.950 . S
C1064 H1056 0.950 . S
C1064 C1065 1.386 . S
C1064 C1066 1.391 . S
C1065 C1064 1.386 . S
C1065 C1069 1.393 . S
C1066 H1058 0.950 . S
C1066 C1064 1.391 . S
C1066 C1067 1.400 . S
C1067 C1066 1.400 . S
C1067 C1068 1.398 . S
C1067 C1073 1.491 1_556 S
C1068 H1059 0.950 . S
C1068 C1067 1.398 . S
C1068 C1069 1.391 . S
C1069 H1057 0.950 . S
C1069 C1065 1.393 . S
C1069 C1068 1.391 . S
C1070 H1060 0.950 . S
C1070 C1071 1.386 . S
C1070 C1072 1.391 . S
C1071 C1070 1.386 . S
C1071 C1075 1.393 . S
C1072 H1061 0.950 . S
C1072 C1070 1.391 . S
C1072 C1073 1.400 . S
C1073 C1067 1.491 1_554 S
C1073 C1072 1.400 . S
C1073 C1074 1.398 . S
C1074 H1062 0.950 . S
C1074 C1073 1.398 . S
C1074 C1075 1.391 . S
C1075 H1063 0.950 . S
C1075 C1071 1.393 . S
C1075 C1074 1.391 . S
H1076 C1084 0.950 . S
H1077 C1089 0.950 . S
H1078 C1086 0.950 . S
H1079 C1088 0.950 . S
H1080 C1090 0.950 . S
H1081 C1092 0.950 . S
H1082 C1094 0.950 . S
H1083 C1095 0.950 . S
C1084 H1076 0.950 . S
C1084 C1085 1.386 . S
C1084 C1086 1.391 . S
C1085 C1084 1.386 . S
C1085 C1089 1.393 . S
C1086 H1078 0.950 . S
C1086 C1084 1.391 . S
C1086 C1087 1.400 . S
C1087 C1086 1.400 . S
C1087 C1088 1.398 . S
C1087 C1093 1.491 1_545 S
C1088 H1079 0.950 . S
C1088 C1087 1.398 . S
C1088 C1089 1.391 . S
C1089 H1077 0.950 . S
C1089 C1085 1.393 . S
C1089 C1088 1.391 . S
C1090 H1080 0.950 . S
C1090 C1091 1.386 . S
C1090 C1092 1.391 . S
C1091 C1090 1.386 . S
C1091 C1095 1.393 . S
C1092 H1081 0.950 . S
C1092 C1090 1.391 . S
C1092 C1093 1.400 . S
C1093 C1087 1.491 1_565 S
C1093 C1092 1.400 . S
C1093 C1094 1.398 . S
C1094 H1082 0.950 . S
C1094 C1093 1.398 . S
C1094 C1095 1.391 . S
C1095 H1083 0.950 . S
C1095 C1091 1.393 . S
C1095 C1094 1.391 . S
H1096 C1104 0.950 . S
H1097 C1109 0.950 . S
H1098 C1106 0.950 . S
H1099 C1108 0.950 . S
H1100 C1110 0.950 . S
H1101 C1112 0.950 . S
H1102 C1114 0.950 . S
H1103 C1115 0.950 . S
C1104 H1096 0.950 . S
C1104 C1105 1.386 . S
C1104 C1106 1.391 . S
C1105 C1104 1.386 . S
C1105 C1109 1.393 . S
C1106 H1098 0.950 . S
C1106 C1104 1.391 . S
C1106 C1107 1.400 . S
C1107 C1106 1.400 . S
C1107 C1108 1.398 . S
C1107 C1113 1.491 . S
C1108 H1099 0.950 . S
C1108 C1107 1.398 . S
C1108 C1109 1.391 . S
C1109 H1097 0.950 . S
C1109 C1105 1.393 . S
C1109 C1108 1.391 . S
C1110 H1100 0.950 . S
C1110 C1111 1.386 . S
C1110 C1112 1.391 . S
C1111 C1110 1.386 . S
C1111 C1115 1.393 . S
C1112 H1101 0.950 . S
C1112 C1110 1.391 . S
C1112 C1113 1.400 . S
C1113 C1107 1.491 . S
C1113 C1112 1.400 . S
C1113 C1114 1.398 . S
C1114 H1102 0.950 . S
C1114 C1113 1.398 . S
C1114 C1115 1.391 . S
C1115 H1103 0.950 . S
C1115 C1111 1.393 . S
C1115 C1114 1.391 . S
H1116 C1124 0.950 . S
H1117 C1129 0.950 . S
H1118 C1126 0.950 . S
H1119 C1128 0.950 . S
H1120 C1130 0.950 . S
H1121 C1132 0.950 . S
H1122 C1134 0.950 . S
H1123 C1135 0.950 . S
C1124 H1116 0.950 . S
C1124 C1125 1.386 . S
C1124 C1126 1.391 . S
C1125 C1124 1.386 . S
C1125 C1129 1.393 . S
C1126 H1118 0.950 . S
C1126 C1124 1.391 . S
C1126 C1127 1.400 . S
C1127 C1126 1.400 . S
C1127 C1128 1.398 . S
C1127 C1133 1.491 1_545 S
C1128 H1119 0.950 . S
C1128 C1127 1.398 . S
C1128 C1129 1.391 . S
C1129 H1117 0.950 . S
C1129 C1125 1.393 . S
C1129 C1128 1.391 . S
C1130 H1120 0.950 . S
C1130 C1131 1.386 . S
C1130 C1132 1.391 . S
C1131 C1130 1.386 . S
C1131 C1135 1.393 . S
C1132 H1121 0.950 . S
C1132 C1130 1.391 . S
C1132 C1133 1.400 . S
C1133 C1127 1.491 1_565 S
C1133 C1132 1.400 . S
C1133 C1134 1.398 . S
C1134 H1122 0.950 . S
C1134 C1133 1.398 . S
C1134 C1135 1.391 . S
C1135 H1123 0.950 . S
C1135 C1131 1.393 . S
C1135 C1134 1.391 . S
H1136 C1144 0.950 . S
H1137 C1149 0.950 . S
H1138 C1146 0.950 . S
H1139 C1148 0.950 . S
H1140 C1150 0.950 . S
H1141 C1152 0.950 . S
H1142 C1154 0.950 . S
H1143 C1155 0.950 . S
C1144 H1136 0.950 . S
C1144 C1145 1.386 . S
C1144 C1146 1.391 . S
C1145 C1144 1.386 . S
C1145 C1149 1.393 1_554 S
C1146 H1138 0.950 . S
C1146 C1144 1.391 . S
C1146 C1147 1.400 . S
C1147 C1146 1.400 . S
C1147 C1148 1.398 1_554 S
C1147 C1153 1.491 1_554 S
C1148 H1139 0.950 . S
C1148 C1147 1.398 1_556 S
C1148 C1149 1.391 . S
C1149 H1137 0.950 . S
C1149 C1145 1.393 1_556 S
C1149 C1148 1.391 . S
C1150 H1140 0.950 . S
C1150 C1151 1.386 . S
C1150 C1152 1.391 . S
C1151 C1150 1.386 . S
C1151 C1155 1.393 1_556 S
C1152 H1141 0.950 . S
C1152 C1150 1.391 . S
C1152 C1153 1.400 . S
C1153 C1147 1.491 1_556 S
C1153 C1152 1.400 . S
C1153 C1154 1.398 1_556 S
C1154 H1142 0.950 . S
C1154 C1153 1.398 1_554 S
C1154 C1155 1.391 . S
C1155 H1143 0.950 . S
C1155 C1151 1.393 1_554 S
C1155 C1154 1.391 . S
H1156 C1164 0.950 . S
H1157 C1169 0.950 . S
H1158 C1166 0.950 . S
H1159 C1168 0.950 . S
H1160 C1170 0.950 . S
H1161 C1172 0.950 . S
H1162 C1174 0.950 . S
H1163 C1175 0.950 . S
C1164 H1156 0.950 . S
C1164 C1165 1.386 . S
C1164 C1166 1.391 . S
C1165 C1164 1.386 . S
C1165 C1169 1.393 . S
C1166 H1158 0.950 . S
C1166 C1164 1.391 . S
C1166 C1167 1.400 . S
C1167 C1166 1.400 . S
C1167 C1168 1.398 . S
C1167 C1173 1.491 1_565 S
C1168 H1159 0.950 . S
C1168 C1167 1.398 . S
C1168 C1169 1.391 . S
C1169 H1157 0.950 . S
C1169 C1165 1.393 . S
C1169 C1168 1.391 . S
C1170 H1160 0.950 . S
C1170 C1171 1.386 . S
C1170 C1172 1.391 . S
C1171 C1170 1.386 . S
C1171 C1175 1.393 . S
C1172 H1161 0.950 . S
C1172 C1170 1.391 . S
C1172 C1173 1.400 . S
C1173 C1167 1.491 1_545 S
C1173 C1172 1.400 . S
C1173 C1174 1.398 . S
C1174 H1162 0.950 . S
C1174 C1173 1.398 . S
C1174 C1175 1.391 . S
C1175 H1163 0.950 . S
C1175 C1171 1.393 . S
C1175 C1174 1.391 . S
H1176 C1184 0.950 . S
H1177 C1189 0.950 . S
H1178 C1186 0.950 . S
H1179 C1188 0.950 . S
H1180 C1190 0.950 . S
H1181 C1192 0.950 . S
H1182 C1194 0.950 . S
H1183 C1195 0.950 . S
C1184 H1176 0.950 . S
C1184 C1185 1.386 . S
C1184 C1186 1.391 . S
C1185 C1184 1.386 . S
C1185 C1189 1.393 . S
C1186 H1178 0.950 . S
C1186 C1184 1.391 . S
C1186 C1187 1.400 . S
C1187 C1186 1.400 . S
C1187 C1188 1.398 . S
C1187 C1193 1.491 . S
C1188 H1179 0.950 . S
C1188 C1187 1.398 . S
C1188 C1189 1.391 . S
C1189 H1177 0.950 . S
C1189 C1185 1.393 . S
C1189 C1188 1.391 . S
C1190 H1180 0.950 . S
C1190 C1191 1.386 . S
C1190 C1192 1.391 . S
C1191 C1190 1.386 . S
C1191 C1195 1.393 . S
C1192 H1181 0.950 . S
C1192 C1190 1.391 . S
C1192 C1193 1.400 . S
C1193 C1187 1.491 . S
C1193 C1192 1.400 . S
C1193 C1194 1.398 . S
C1194 H1182 0.950 . S
C1194 C1193 1.398 . S
C1194 C1195 1.391 . S
C1195 H1183 0.950 . S
C1195 C1191 1.393 . S
C1195 C1194 1.391 . S
H1196 C1204 0.950 . S
H1197 C1209 0.950 . S
H1198 C1206 0.950 . S
H1199 C1208 0.950 . S
H1200 C1210 0.950 . S
H1201 C1212 0.950 . S
H1202 C1214 0.950 . S
H1203 C1215 0.950 . S
C1204 H1196 0.950 . S
C1204 C1205 1.386 . S
C1204 C1206 1.391 . S
C1205 C1204 1.386 . S
C1205 C1209 1.393 . S
C1206 H1198 0.950 . S
C1206 C1204 1.391 . S
C1206 C1207 1.400 . S
C1207 C1206 1.400 . S
C1207 C1208 1.398 . S
C1207 C1213 1.491 1_545 S
C1208 H1199 0.950 . S
C1208 C1207 1.398 . S
C1208 C1209 1.391 . S
C1209 H1197 0.950 . S
C1209 C1205 1.393 . S
C1209 C1208 1.391 . S
C1210 H1200 0.950 . S
C1210 C1211 1.386 . S
C1210 C1212 1.391 . S
C1211 C1210 1.386 . S
C1211 C1215 1.393 . S
C1212 H1201 0.950 . S
C1212 C1210 1.391 . S
C1212 C1213 1.400 . S
C1213 C1207 1.491 1_565 S
C1213 C1212 1.400 . S
C1213 C1214 1.398 . S
C1214 H1202 0.950 . S
C1214 C1213 1.398 . S
C1214 C1215 1.391 . S
C1215 H1203 0.950 . S
C1215 C1211 1.393 . S
C1215 C1214 1.391 . S
H1216 C1224 0.950 . S
H1217 C1229 0.950 . S
H1218 C1226 0.950 . S
H1219 C1228 0.950 . S
H1220 C1230 0.950 . S
H1221 C1232 0.950 . S
H1222 C1234 0.950 . S
H1223 C1235 0.950 . S
C1224 H1216 0.950 . S
C1224 C1225 1.386 . S
C1224 C1226 1.391 . S
C1225 C1224 1.386 . S
C1225 C1229 1.393 . S
C1226 H1218 0.950 . S
C1226 C1224 1.391 . S
C1226 C1227 1.400 . S
C1227 C1226 1.400 . S
C1227 C1228 1.398 . S
C1227 C1233 1.491 . S
C1228 H1219 0.950 . S
C1228 C1227 1.398 . S
C1228 C1229 1.391 . S
C1229 H1217 0.950 . S
C1229 C1225 1.393 . S
C1229 C1228 1.391 . S
C1230 H1220 0.950 . S
C1230 C1231 1.386 . S
C1230 C1232 1.391 . S
C1231 C1230 1.386 . S
C1231 C1235 1.393 . S
C1232 H1221 0.950 . S
C1232 C1230 1.391 . S
C1232 C1233 1.400 . S
C1233 C1227 1.491 . S
C1233 C1232 1.400 . S
C1233 C1234 1.398 . S
C1234 H1222 0.950 . S
C1234 C1233 1.398 . S
C1234 C1235 1.391 . S
C1235 H1223 0.950 . S
C1235 C1231 1.393 . S
C1235 C1234 1.391 . S
H1236 C1244 0.950 . S
H1237 C1249 0.950 . S
H1238 C1246 0.950 . S
H1239 C1248 0.950 . S
H1240 C1250 0.950 . S
H1241 C1252 0.950 . S
H1242 C1254 0.950 . S
H1243 C1255 0.950 . S
C1244 H1236 0.950 . S
C1244 C1245 1.386 . S
C1244 C1246 1.391 . S
C1245 C1244 1.386 . S
C1245 C1249 1.393 . S
C1246 H1238 0.950 . S
C1246 C1244 1.391 . S
C1246 C1247 1.400 . S
C1247 C1246 1.400 . S
C1247 C1248 1.398 . S
C1247 C1253 1.491 . S
C1248 H1239 0.950 . S
C1248 C1247 1.398 . S
C1248 C1249 1.391 . S
C1249 H1237 0.950 . S
C1249 C1245 1.393 . S
C1249 C1248 1.391 . S
C1250 H1240 0.950 . S
C1250 C1251 1.386 . S
C1250 C1252 1.391 . S
C1251 C1250 1.386 . S
C1251 C1255 1.393 . S
C1252 H1241 0.950 . S
C1252 C1250 1.391 . S
C1252 C1253 1.400 . S
C1253 C1247 1.491 . S
C1253 C1252 1.400 . S
C1253 C1254 1.398 . S
C1254 H1242 0.950 . S
C1254 C1253 1.398 . S
C1254 C1255 1.391 . S
C1255 H1243 0.950 . S
C1255 C1251 1.393 . S
C1255 C1254 1.391 . S
H1256 C1264 0.950 1_556 S
H1257 C1269 0.950 . S
H1258 C1266 0.950 . S
H1259 C1268 0.950 . S
H1260 C1270 0.950 1_554 S
H1261 C1272 0.950 . S
H1262 C1274 0.950 . S
H1263 C1275 0.950 . S
C1264 H1256 0.950 1_554 S
C1264 C1265 1.386 . S
C1264 C1266 1.391 1_554 S
C1265 C1264 1.386 . S
C1265 C1269 1.393 . S
C1266 H1258 0.950 . S
C1266 C1264 1.391 1_556 S
C1266 C1267 1.400 1_556 S
C1267 C1266 1.400 1_554 S
C1267 C1268 1.398 . S
C1267 C1273 1.491 1_554 S
C1268 H1259 0.950 . S
C1268 C1267 1.398 . S
C1268 C1269 1.391 . S
C1269 H1257 0.950 . S
C1269 C1265 1.393 . S
C1269 C1268 1.391 . S
C1270 H1260 0.950 1_556 S
C1270 C1271 1.386 . S
C1270 C1272 1.391 1_556 S
C1271 C1270 1.386 . S
C1271 C1275 1.393 . S
C1272 H1261 0.950 . S
C1272 C1270 1.391 1_554 S
C1272 C1273 1.400 1_554 S
C1273 C1267 1.491 1_556 S
C1273 C1272 1.400 1_556 S
C1273 C1274 1.398 . S
C1274 H1262 0.950 . S
C1274 C1273 1.398 . S
C1274 C1275 1.391 . S
C1275 H1263 0.950 . S
C1275 C1271 1.393 . S
C1275 C1274 1.391 . S
H1276 C1284 0.950 . S
H1277 C1289 0.950 . S
H1278 C1286 0.950 . S
H1279 C1288 0.950 . S
H1280 C1290 0.950 . S
H1281 C1292 0.950 . S
H1282 C1294 0.950 . S
H1283 C1295 0.950 . S
C1284 H1276 0.950 . S
C1284 C1285 1.386 . S
C1284 C1286 1.391 . S
C1285 C1284 1.386 . S
C1285 C1289 1.393 . S
C1286 H1278 0.950 . S
C1286 C1284 1.391 . S
C1286 C1287 1.400 . S
C1287 C1286 1.400 . S
C1287 C1288 1.398 . S
C1287 C1293 1.491 . S
C1288 H1279 0.950 . S
C1288 C1287 1.398 . S
C1288 C1289 1.391 . S
C1289 H1277 0.950 . S
C1289 C1285 1.393 . S
C1289 C1288 1.391 . S
C1290 H1280 0.950 . S
C1290 C1291 1.386 . S
C1290 C1292 1.391 . S
C1291 C1290 1.386 . S
C1291 C1295 1.393 . S
C1292 H1281 0.950 . S
C1292 C1290 1.391 . S
C1292 C1293 1.400 . S
C1293 C1287 1.491 . S
C1293 C1292 1.400 . S
C1293 C1294 1.398 . S
C1294 H1282 0.950 . S
C1294 C1293 1.398 . S
C1294 C1295 1.391 . S
C1295 H1283 0.950 . S
C1295 C1291 1.393 . S
C1295 C1294 1.391 . S
H1296 C1304 0.950 . S
H1297 C1309 0.950 . S
H1298 C1306 0.950 . S
H1299 C1308 0.950 . S
H1300 C1310 0.950 . S
H1301 C1312 0.950 . S
H1302 C1314 0.950 . S
H1303 C1315 0.950 . S
C1304 H1296 0.950 . S
C1304 C1305 1.386 . S
C1304 C1306 1.391 . S
C1305 C1304 1.386 . S
C1305 C1309 1.393 . S
C1306 H1298 0.950 . S
C1306 C1304 1.391 . S
C1306 C1307 1.400 . S
C1307 C1306 1.400 . S
C1307 C1308 1.398 . S
C1307 C1313 1.491 . S
C1308 H1299 0.950 . S
C1308 C1307 1.398 . S
C1308 C1309 1.391 . S
C1309 H1297 0.950 . S
C1309 C1305 1.393 . S
C1309 C1308 1.391 . S
C1310 H1300 0.950 . S
C1310 C1311 1.386 . S
C1310 C1312 1.391 . S
C1311 C1310 1.386 . S
C1311 C1315 1.393 . S
C1312 H1301 0.950 . S
C1312 C1310 1.391 . S
C1312 C1313 1.400 . S
C1313 C1307 1.491 . S
C1313 C1312 1.400 . S
C1313 C1314 1.398 . S
C1314 H1302 0.950 . S
C1314 C1313 1.398 . S
C1314 C1315 1.391 . S
C1315 H1303 0.950 . S
C1315 C1311 1.393 . S
C1315 C1314 1.391 . S
H1316 C1324 0.950 . S
H1317 C1329 0.950 . S
H1318 C1326 0.950 . S
H1319 C1328 0.950 . S
H1320 C1330 0.950 . S
H1321 C1332 0.950 . S
H1322 C1334 0.950 . S
H1323 C1335 0.950 . S
C1324 H1316 0.950 . S
C1324 C1325 1.386 . S
C1324 C1326 1.391 . S
C1325 C1324 1.386 . S
C1325 C1329 1.393 . S
C1326 H1318 0.950 . S
C1326 C1324 1.391 . S
C1326 C1327 1.400 . S
C1327 C1326 1.400 . S
C1327 C1328 1.398 . S
C1327 C1333 1.491 . S
C1328 H1319 0.950 . S
C1328 C1327 1.398 . S
C1328 C1329 1.391 . S
C1329 H1317 0.950 . S
C1329 C1325 1.393 . S
C1329 C1328 1.391 . S
C1330 H1320 0.950 . S
C1330 C1331 1.386 . S
C1330 C1332 1.391 . S
C1331 C1330 1.386 . S
C1331 C1335 1.393 . S
C1332 H1321 0.950 . S
C1332 C1330 1.391 . S
C1332 C1333 1.400 . S
C1333 C1327 1.491 . S
C1333 C1332 1.400 . S
C1333 C1334 1.398 . S
C1334 H1322 0.950 . S
C1334 C1333 1.398 . S
C1334 C1335 1.391 . S
C1335 H1323 0.950 . S
C1335 C1331 1.393 . S
C1335 C1334 1.391 . S
H1336 C1344 0.950 . S
H1337 C1349 0.931 1_554 S
H1338 C1346 0.950 . S
H1339 C1348 0.950 . S
H1340 C1350 0.950 . S
H1341 C1352 0.950 . S
H1342 C1354 0.950 . S
H1343 C1355 0.931 1_556 S
C1344 H1336 0.950 . S
C1344 C1345 1.386 . S
C1344 C1346 1.391 . S
C1345 C1344 1.386 . S
C1345 C1349 1.393 . S
C1346 H1338 0.950 . S
C1346 C1344 1.391 . S
C1346 C1347 1.400 . S
C1347 C1346 1.400 . S
C1347 C1348 1.398 1_556 S
C1347 C1353 1.491 1_556 S
C1348 H1339 0.950 . S
C1348 C1347 1.398 1_554 S
C1348 C1349 1.391 1_554 S
C1349 H1337 0.931 1_556 S
C1349 C1345 1.393 . S
C1349 C1348 1.391 1_556 S
C1350 H1340 0.950 . S
C1350 C1351 1.386 . S
C1350 C1352 1.391 . S
C1351 C1350 1.386 . S
C1351 C1355 1.393 . S
C1352 H1341 0.950 . S
C1352 C1350 1.391 . S
C1352 C1353 1.400 . S
C1353 C1347 1.491 1_554 S
C1353 C1352 1.400 . S
C1353 C1354 1.398 1_554 S
C1354 H1342 0.950 . S
C1354 C1353 1.398 1_556 S
C1354 C1355 1.391 1_556 S
C1355 H1343 0.931 1_554 S
C1355 C1351 1.393 . S
C1355 C1354 1.391 1_554 S
H1356 C1364 0.950 . S
H1357 C1369 0.950 . S
H1358 C1366 0.950 . S
H1359 C1368 0.950 . S
H1360 C1370 0.950 . S
H1361 C1372 0.950 . S
H1362 C1374 0.950 . S
H1363 C1375 0.950 . S
C1364 H1356 0.950 . S
C1364 C1365 1.386 . S
C1364 C1366 1.391 . S
C1365 C1364 1.386 . S
C1365 C1369 1.393 . S
C1366 H1358 0.950 . S
C1366 C1364 1.391 . S
C1366 C1367 1.400 . S
C1367 C1366 1.400 . S
C1367 C1368 1.398 . S
C1367 C1373 1.491 . S
C1368 H1359 0.950 . S
C1368 C1367 1.398 . S
C1368 C1369 1.391 . S
C1369 H1357 0.950 . S
C1369 C1365 1.393 . S
C1369 C1368 1.391 . S
C1370 H1360 0.950 . S
C1370 C1371 1.386 . S
C1370 C1372 1.391 . S
C1371 C1370 1.386 . S
C1371 C1375 1.393 . S
C1372 H1361 0.950 . S
C1372 C1370 1.391 . S
C1372 C1373 1.400 . S
C1373 C1367 1.491 . S
C1373 C1372 1.400 . S
C1373 C1374 1.398 . S
C1374 H1362 0.950 . S
C1374 C1373 1.398 . S
C1374 C1375 1.391 . S
C1375 H1363 0.950 . S
C1375 C1371 1.393 . S
C1375 C1374 1.391 . S
H1376 C1384 0.950 . S
H1377 C1389 0.950 . S
H1378 C1386 0.950 . S
H1379 C1388 0.950 . S
H1380 C1390 0.950 . S
H1381 C1392 0.950 . S
H1382 C1394 0.950 . S
H1383 C1395 0.950 . S
C1384 H1376 0.950 . S
C1384 C1385 1.386 . S
C1384 C1386 1.391 . S
C1385 C1384 1.386 . S
C1385 C1389 1.393 . S
C1386 H1378 0.950 . S
C1386 C1384 1.391 . S
C1386 C1387 1.400 . S
C1387 C1386 1.400 . S
C1387 C1388 1.398 . S
C1387 C1393 1.491 . S
C1388 H1379 0.950 . S
C1388 C1387 1.398 . S
C1388 C1389 1.391 . S
C1389 H1377 0.950 . S
C1389 C1385 1.393 . S
C1389 C1388 1.391 . S
C1390 H1380 0.950 . S
C1390 C1391 1.386 . S
C1390 C1392 1.391 . S
C1391 C1390 1.386 . S
C1391 C1395 1.393 . S
C1392 H1381 0.950 . S
C1392 C1390 1.391 . S
C1392 C1393 1.400 . S
C1393 C1387 1.491 . S
C1393 C1392 1.400 . S
C1393 C1394 1.398 . S
C1394 H1382 0.950 . S
C1394 C1393 1.398 . S
C1394 C1395 1.391 . S
C1395 H1383 0.950 . S
C1395 C1391 1.393 . S
C1395 C1394 1.391 . S
H1396 C1404 0.950 . S
H1397 C1409 0.950 . S
H1398 C1406 0.950 . S
H1399 C1408 0.950 . S
H1400 C1410 0.950 . S
H1401 C1412 0.950 . S
H1402 C1414 0.950 . S
H1403 C1415 0.950 . S
C1404 H1396 0.950 . S
C1404 C1405 1.386 . S
C1404 C1406 1.391 . S
C1405 C1404 1.386 . S
C1405 C1409 1.393 . S
C1406 H1398 0.950 . S
C1406 C1404 1.391 . S
C1406 C1407 1.400 . S
C1407 C1406 1.400 . S
C1407 C1408 1.398 . S
C1407 C1413 1.491 . S
C1408 H1399 0.950 . S
C1408 C1407 1.398 . S
C1408 C1409 1.391 . S
C1409 H1397 0.950 . S
C1409 C1405 1.393 . S
C1409 C1408 1.391 . S
C1410 H1400 0.950 . S
C1410 C1411 1.386 . S
C1410 C1412 1.391 . S
C1411 C1410 1.386 . S
C1411 C1415 1.393 . S
C1412 H1401 0.950 . S
C1412 C1410 1.391 . S
C1412 C1413 1.400 . S
C1413 C1407 1.491 . S
C1413 C1412 1.400 . S
C1413 C1414 1.398 . S
C1414 H1402 0.950 . S
C1414 C1413 1.398 . S
C1414 C1415 1.391 . S
C1415 H1403 0.950 . S
C1415 C1411 1.393 . S
C1415 C1414 1.391 . S
H1416 C1424 0.950 . S
H1417 C1429 0.950 . S
H1418 C1426 0.950 . S
H1419 C1428 0.950 . S
H1420 C1430 0.950 . S
H1421 C1432 0.950 . S
H1422 C1434 0.950 . S
H1423 C1435 0.950 . S
C1424 H1416 0.950 . S
C1424 C1425 1.386 . S
C1424 C1426 1.391 . S
C1425 C1424 1.386 . S
C1425 C1429 1.393 . S
C1426 H1418 0.950 . S
C1426 C1424 1.391 . S
C1426 C1427 1.400 . S
C1427 C1426 1.400 . S
C1427 C1428 1.398 . S
C1427 C1433 1.491 . S
C1428 H1419 0.950 . S
C1428 C1427 1.398 . S
C1428 C1429 1.391 . S
C1429 H1417 0.950 . S
C1429 C1425 1.393 . S
C1429 C1428 1.391 . S
C1430 H1420 0.950 . S
C1430 C1431 1.386 . S
C1430 C1432 1.391 . S
C1431 C1430 1.386 . S
C1431 C1435 1.393 . S
C1432 H1421 0.950 . S
C1432 C1430 1.391 . S
C1432 C1433 1.400 . S
C1433 C1427 1.491 . S
C1433 C1432 1.400 . S
C1433 C1434 1.398 . S
C1434 H1422 0.950 . S
C1434 C1433 1.398 . S
C1434 C1435 1.391 . S
C1435 H1423 0.950 . S
C1435 C1431 1.393 . S
C1435 C1434 1.391 . S
H1436 C1444 0.950 . S
H1437 C1449 0.950 . S
H1438 C1446 0.950 . S
H1439 C1448 0.950 . S
H1440 C1450 0.950 . S
H1441 C1452 0.950 . S
H1442 C1454 0.950 . S
H1443 C1455 0.950 . S
C1444 H1436 0.950 . S
C1444 C1445 1.386 . S
C1444 C1446 1.391 . S
C1445 C1444 1.386 . S
C1445 C1449 1.393 . S
C1446 H1438 0.950 . S
C1446 C1444 1.391 . S
C1446 C1447 1.400 . S
C1447 C1446 1.400 . S
C1447 C1448 1.398 . S
C1447 C1453 1.491 . S
C1448 H1439 0.950 . S
C1448 C1447 1.398 . S
C1448 C1449 1.391 . S
C1449 H1437 0.950 . S
C1449 C1445 1.393 . S
C1449 C1448 1.391 . S
C1450 H1440 0.950 . S
C1450 C1451 1.386 . S
C1450 C1452 1.391 . S
C1451 C1450 1.386 . S
C1451 C1455 1.393 . S
C1452 H1441 0.950 . S
C1452 C1450 1.391 . S
C1452 C1453 1.400 . S
C1453 C1447 1.491 . S
C1453 C1452 1.400 . S
C1453 C1454 1.398 . S
C1454 H1442 0.950 . S
C1454 C1453 1.398 . S
C1454 C1455 1.391 . S
C1455 H1443 0.950 . S
C1455 C1451 1.393 . S
C1455 C1454 1.391 . S
H1456 C1464 0.950 . S
H1457 C1469 0.950 . S
H1458 C1466 0.950 . S
H1459 C1468 0.950 . S
H1460 C1470 0.950 . S
H1461 C1472 0.950 . S
H1462 C1474 0.950 . S
H1463 C1475 0.950 . S
C1464 H1456 0.950 . S
C1464 C1465 1.386 . S
C1464 C1466 1.391 . S
C1465 C1464 1.386 . S
C1465 C1469 1.393 . S
C1466 H1458 0.950 . S
C1466 C1464 1.391 . S
C1466 C1467 1.400 . S
C1467 C1466 1.400 . S
C1467 C1468 1.398 . S
C1467 C1473 1.491 . S
C1468 H1459 0.950 . S
C1468 C1467 1.398 . S
C1468 C1469 1.391 . S
C1469 H1457 0.950 . S
C1469 C1465 1.393 . S
C1469 C1468 1.391 . S
C1470 H1460 0.950 . S
C1470 C1471 1.386 . S
C1470 C1472 1.391 . S
C1471 C1470 1.386 . S
C1471 C1475 1.393 . S
C1472 H1461 0.950 . S
C1472 C1470 1.391 . S
C1472 C1473 1.400 . S
C1473 C1467 1.491 . S
C1473 C1472 1.400 . S
C1473 C1474 1.398 . S
C1474 H1462 0.950 . S
C1474 C1473 1.398 . S
C1474 C1475 1.391 . S
C1475 H1463 0.950 . S
C1475 C1471 1.393 . S
C1475 C1474 1.391 . S
H1476 C1484 0.950 . S
H1477 C1489 0.950 . S
H1478 C1486 0.950 . S
H1479 C1488 0.950 . S
H1480 C1490 0.950 . S
H1481 C1492 0.950 . S
H1482 C1494 0.950 . S
H1483 C1495 0.950 . S
C1484 H1476 0.950 . S
C1484 C1485 1.386 . S
C1484 C1486 1.391 . S
C1485 C1484 1.386 . S
C1485 C1489 1.393 . S
C1486 H1478 0.950 . S
C1486 C1484 1.391 . S
C1486 C1487 1.400 . S
C1487 C1486 1.400 . S
C1487 C1488 1.398 . S
C1487 C1493 1.491 . S
C1488 H1479 0.950 . S
C1488 C1487 1.398 . S
C1488 C1489 1.391 . S
C1489 H1477 0.950 . S
C1489 C1485 1.393 . S
C1489 C1488 1.391 . S
C1490 H1480 0.950 . S
C1490 C1491 1.386 . S
C1490 C1492 1.391 . S
C1491 C1490 1.386 . S
C1491 C1495 1.393 . S
C1492 H1481 0.950 . S
C1492 C1490 1.391 . S
C1492 C1493 1.400 . S
C1493 C1487 1.491 . S
C1493 C1492 1.400 . S
C1493 C1494 1.398 . S
C1494 H1482 0.950 . S
C1494 C1493 1.398 . S
C1494 C1495 1.391 . S
C1495 H1483 0.950 . S
C1495 C1491 1.393 . S
C1495 C1494 1.391 . S
H1496 C1504 0.950 . S
H1497 C1509 0.950 . S
H1498 C1506 0.950 . S
H1499 C1508 0.950 . S
H1500 C1510 0.950 . S
H1501 C1512 0.950 . S
H1502 C1514 0.950 . S
H1503 C1515 0.950 . S
C1504 H1496 0.950 . S
C1504 C1505 1.386 . S
C1504 C1506 1.391 . S
C1505 C1504 1.386 . S
C1505 C1509 1.393 . S
C1506 H1498 0.950 . S
C1506 C1504 1.391 . S
C1506 C1507 1.400 . S
C1507 C1506 1.400 . S
C1507 C1508 1.398 . S
C1507 C1513 1.491 . S
C1508 H1499 0.950 . S
C1508 C1507 1.398 . S
C1508 C1509 1.391 . S
C1509 H1497 0.950 . S
C1509 C1505 1.393 . S
C1509 C1508 1.391 . S
C1510 H1500 0.950 . S
C1510 C1511 1.386 . S
C1510 C1512 1.391 . S
C1511 C1510 1.386 . S
C1511 C1515 1.393 . S
C1512 H1501 0.950 . S
C1512 C1510 1.391 . S
C1512 C1513 1.400 . S
C1513 C1507 1.491 . S
C1513 C1512 1.400 . S
C1513 C1514 1.398 . S
C1514 H1502 0.950 . S
C1514 C1513 1.398 . S
C1514 C1515 1.391 . S
C1515 H1503 0.950 . S
C1515 C1511 1.393 . S
C1515 C1514 1.391 . S
H1516 C1524 0.950 . S
H1517 C1529 0.950 . S
H1518 C1526 0.950 . S
H1519 C1528 0.950 . S
H1520 C1530 0.950 . S
H1521 C1532 0.950 . S
H1522 C1534 0.950 . S
H1523 C1535 0.950 . S
C1524 H1516 0.950 . S
C1524 C1525 1.386 . S
C1524 C1526 1.391 . S
C1525 C1524 1.386 . S
C1525 C1529 1.393 . S
C1526 H1518 0.950 . S
C1526 C1524 1.391 . S
C1526 C1527 1.400 . S
C1527 C1526 1.400 . S
C1527 C1528 1.398 . S
C1527 C1533 1.491 . S
C1528 H1519 0.950 . S
C1528 C1527 1.398 . S
C1528 C1529 1.391 . S
C1529 H1517 0.950 . S
C1529 C1525 1.393 . S
C1529 C1528 1.391 . S
C1530 H1520 0.950 . S
C1530 C1531 1.386 . S
C1530 C1532 1.391 . S
C1531 C1530 1.386 . S
C1531 C1535 1.393 . S
C1532 H1521 0.950 . S
C1532 C1530 1.391 . S
C1532 C1533 1.400 . S
C1533 C1527 1.491 . S
C1533 C1532 1.400 . S
C1533 C1534 1.398 . S
C1534 H1522 0.950 . S
C1534 C1533 1.398 . S
C1534 C1535 1.391 . S
C1535 H1523 0.950 . S
C1535 C1531 1.393 . S
C1535 C1534 1.391 . S
H1536 C1544 0.950 . S
H1537 C1549 0.950 . S
H1538 C1546 0.950 . S
H1539 C1548 0.950 . S
H1540 C1550 0.950 . S
H1541 C1552 0.950 . S
H1542 C1554 0.950 . S
H1543 C1555 0.950 . S
C1544 H1536 0.950 . S
C1544 C1545 1.386 . S
C1544 C1546 1.391 . S
C1545 C1544 1.386 . S
C1545 C1549 1.393 . S
C1546 H1538 0.950 . S
C1546 C1544 1.391 . S
C1546 C1547 1.400 . S
C1547 C1546 1.400 . S
C1547 C1548 1.398 . S
C1547 C1553 1.491 . S
C1548 H1539 0.950 . S
C1548 C1547 1.398 . S
C1548 C1549 1.391 . S
C1549 H1537 0.950 . S
C1549 C1545 1.393 . S
C1549 C1548 1.391 . S
C1550 H1540 0.950 . S
C1550 C1551 1.386 . S
C1550 C1552 1.391 . S
C1551 C1550 1.386 . S
C1551 C1555 1.393 . S
C1552 H1541 0.950 . S
C1552 C1550 1.391 . S
C1552 C1553 1.400 . S
C1553 C1547 1.491 . S
C1553 C1552 1.400 . S
C1553 C1554 1.398 . S
C1554 H1542 0.950 . S
C1554 C1553 1.398 . S
C1554 C1555 1.391 . S
C1555 H1543 0.950 . S
C1555 C1551 1.393 . S
C1555 C1554 1.391 . S
H1556 C1564 0.950 . S
H1557 C1569 0.950 . S
H1558 C1566 0.950 . S
H1559 C1568 0.950 . S
H1560 C1570 0.950 . S
H1561 C1572 0.950 . S
H1562 C1574 0.950 . S
H1563 C1575 0.950 . S
C1564 H1556 0.950 . S
C1564 C1565 1.386 . S
C1564 C1566 1.391 . S
C1565 C1564 1.386 . S
C1565 C1569 1.393 . S
C1566 H1558 0.950 . S
C1566 C1564 1.391 . S
C1566 C1567 1.400 . S
C1567 C1566 1.400 . S
C1567 C1568 1.398 . S
C1567 C1573 1.491 . S
C1568 H1559 0.950 . S
C1568 C1567 1.398 . S
C1568 C1569 1.391 . S
C1569 H1557 0.950 . S
C1569 C1565 1.393 . S
C1569 C1568 1.391 . S
C1570 H1560 0.950 . S
C1570 C1571 1.386 . S
C1570 C1572 1.391 . S
C1571 C1570 1.386 . S
C1571 C1575 1.393 . S
C1572 H1561 0.950 . S
C1572 C1570 1.391 . S
C1572 C1573 1.400 . S
C1573 C1567 1.491 . S
C1573 C1572 1.400 . S
C1573 C1574 1.398 . S
C1574 H1562 0.950 . S
C1574 C1573 1.398 . S
C1574 C1575 1.391 . S
C1575 H1563 0.950 . S
C1575 C1571 1.393 . S
C1575 C1574 1.391 . S
H1576 C1584 0.950 . S
H1577 C1589 0.950 . S
H1578 C1586 0.950 . S
H1579 C1588 0.950 . S
H1580 C1590 0.950 . S
H1581 C1592 0.950 . S
H1582 C1594 0.950 . S
H1583 C1595 0.950 . S
C1584 H1576 0.950 . S
C1584 C1585 1.386 . S
C1584 C1586 1.391 . S
C1585 C1584 1.386 . S
C1585 C1589 1.393 . S
C1586 H1578 0.950 . S
C1586 C1584 1.391 . S
C1586 C1587 1.400 . S
C1587 C1586 1.400 . S
C1587 C1588 1.398 . S
C1587 C1593 1.491 . S
C1588 H1579 0.950 . S
C1588 C1587 1.398 . S
C1588 C1589 1.391 . S
C1589 H1577 0.950 . S
C1589 C1585 1.393 . S
C1589 C1588 1.391 . S
C1590 H1580 0.950 . S
C1590 C1591 1.386 . S
C1590 C1592 1.391 . S
C1591 C1590 1.386 . S
C1591 C1595 1.393 . S
C1592 H1581 0.950 . S
C1592 C1590 1.391 . S
C1592 C1593 1.400 . S
C1593 C1587 1.491 . S
C1593 C1592 1.400 . S
C1593 C1594 1.398 . S
C1594 H1582 0.950 . S
C1594 C1593 1.398 . S
C1594 C1595 1.391 . S
C1595 H1583 0.950 . S
C1595 C1591 1.393 . S
C1595 C1594 1.391 . S
H1596 C1604 0.950 . S
H1597 C1609 0.950 . S
H1598 C1606 0.950 . S
H1599 C1608 0.950 . S
H1600 C1610 0.950 . S
H1601 C1612 0.950 . S
H1602 C1614 0.950 . S
H1603 C1615 0.950 . S
C1604 H1596 0.950 . S
C1604 C1605 1.386 . S
C1604 C1606 1.391 . S
C1605 C1604 1.386 . S
C1605 C1609 1.393 . S
C1606 H1598 0.950 . S
C1606 C1604 1.391 . S
C1606 C1607 1.400 . S
C1607 C1606 1.400 . S
C1607 C1608 1.398 . S
C1607 C1613 1.491 . S
C1608 H1599 0.950 . S
C1608 C1607 1.398 . S
C1608 C1609 1.391 . S
C1609 H1597 0.950 . S
C1609 C1605 1.393 . S
C1609 C1608 1.391 . S
C1610 H1600 0.950 . S
C1610 C1611 1.386 . S
C1610 C1612 1.391 . S
C1611 C1610 1.386 . S
C1611 C1615 1.393 . S
C1612 H1601 0.950 . S
C1612 C1610 1.391 . S
C1612 C1613 1.400 . S
C1613 C1607 1.491 . S
C1613 C1612 1.400 . S
C1613 C1614 1.398 . S
C1614 H1602 0.950 . S
C1614 C1613 1.398 . S
C1614 C1615 1.391 . S
C1615 H1603 0.950 . S
C1615 C1611 1.393 . S
C1615 C1614 1.391 . S
H1616 C1624 0.950 . S
H1617 C1629 0.950 . S
H1618 C1626 0.950 . S
H1619 C1628 0.950 . S
H1620 C1630 0.950 . S
H1621 C1632 0.950 . S
H1622 C1634 0.950 . S
H1623 C1635 0.950 . S
C1624 H1616 0.950 . S
C1624 C1625 1.386 . S
C1624 C1626 1.391 . S
C1625 C1624 1.386 . S
C1625 C1629 1.393 . S
C1626 H1618 0.950 . S
C1626 C1624 1.391 . S
C1626 C1627 1.400 . S
C1627 C1626 1.400 . S
C1627 C1628 1.398 . S
C1627 C1633 1.491 . S
C1628 H1619 0.950 . S
C1628 C1627 1.398 . S
C1628 C1629 1.391 . S
C1629 H1617 0.950 . S
C1629 C1625 1.393 . S
C1629 C1628 1.391 . S
C1630 H1620 0.950 . S
C1630 C1631 1.386 . S
C1630 C1632 1.391 . S
C1631 C1630 1.386 . S
C1631 C1635 1.393 . S
C1632 H1621 0.950 . S
C1632 C1630 1.391 . S
C1632 C1633 1.400 . S
C1633 C1627 1.491 . S
C1633 C1632 1.400 . S
C1633 C1634 1.398 . S
C1634 H1622 0.950 . S
C1634 C1633 1.398 . S
C1634 C1635 1.391 . S
C1635 H1623 0.950 . S
C1635 C1631 1.393 . S
C1635 C1634 1.391 . S
H1636 C1644 0.950 . S
H1637 C1649 0.950 . S
H1638 C1646 0.950 . S
H1639 C1648 0.950 . S
H1640 C1650 0.950 . S
H1641 C1652 0.950 . S
H1642 C1654 0.950 . S
H1643 C1655 0.950 . S
C1644 H1636 0.950 . S
C1644 C1645 1.386 . S
C1644 C1646 1.391 . S
C1645 C1644 1.386 . S
C1645 C1649 1.393 . S
C1646 H1638 0.950 . S
C1646 C1644 1.391 . S
C1646 C1647 1.400 . S
C1647 C1646 1.400 . S
C1647 C1648 1.398 . S
C1647 C1653 1.491 . S
C1648 H1639 0.950 . S
C1648 C1647 1.398 . S
C1648 C1649 1.391 . S
C1649 H1637 0.950 . S
C1649 C1645 1.393 . S
C1649 C1648 1.391 . S
C1650 H1640 0.950 . S
C1650 C1651 1.386 . S
C1650 C1652 1.391 . S
C1651 C1650 1.386 . S
C1651 C1655 1.393 . S
C1652 H1641 0.950 . S
C1652 C1650 1.391 . S
C1652 C1653 1.400 . S
C1653 C1647 1.491 . S
C1653 C1652 1.400 . S
C1653 C1654 1.398 . S
C1654 H1642 0.950 . S
C1654 C1653 1.398 . S
C1654 C1655 1.391 . S
C1655 H1643 0.950 . S
C1655 C1651 1.393 . S
C1655 C1654 1.391 . S
H1656 C1664 0.950 . S
H1657 C1669 0.950 . S
H1658 C1666 0.950 . S
H1659 C1668 0.950 . S
H1660 C1670 0.950 . S
H1661 C1672 0.950 . S
H1662 C1674 0.950 . S
H1663 C1675 0.950 . S
C1664 H1656 0.950 . S
C1664 C1665 1.386 . S
C1664 C1666 1.391 . S
C1665 C1664 1.386 . S
C1665 C1669 1.393 . S
C1666 H1658 0.950 . S
C1666 C1664 1.391 . S
C1666 C1667 1.400 . S
C1667 C1666 1.400 . S
C1667 C1668 1.398 . S
C1667 C1673 1.491 . S
C1668 H1659 0.950 . S
C1668 C1667 1.398 . S
C1668 C1669 1.391 . S
C1669 H1657 0.950 . S
C1669 C1665 1.393 . S
C1669 C1668 1.391 . S
C1670 H1660 0.950 . S
C1670 C1671 1.386 . S
C1670 C1672 1.391 . S
C1671 C1670 1.386 . S
C1671 C1675 1.393 . S
C1672 H1661 0.950 . S
C1672 C1670 1.391 . S
C1672 C1673 1.400 . S
C1673 C1667 1.491 . S
C1673 C1672 1.400 . S
C1673 C1674 1.398 . S
C1674 H1662 0.950 . S
C1674 C1673 1.398 . S
C1674 C1675 1.391 . S
C1675 H1663 0.950 . S
C1675 C1671 1.393 . S
C1675 C1674 1.391 . S
H1676 C1684 0.950 . S
H1677 C1689 0.950 . S
H1678 C1686 0.950 . S
H1679 C1688 0.950 . S
H1680 C1690 0.950 . S
H1681 C1692 0.950 . S
H1682 C1694 0.950 . S
H1683 C1695 0.950 . S
C1684 H1676 0.950 . S
C1684 C1685 1.386 . S
C1684 C1686 1.391 . S
C1685 C1684 1.386 . S
C1685 C1689 1.393 . S
C1686 H1678 0.950 . S
C1686 C1684 1.391 . S
C1686 C1687 1.400 . S
C1687 C1686 1.400 . S
C1687 C1688 1.398 . S
C1687 C1693 1.491 . S
C1688 H1679 0.950 . S
C1688 C1687 1.398 . S
C1688 C1689 1.391 . S
C1689 H1677 0.950 . S
C1689 C1685 1.393 . S
C1689 C1688 1.391 . S
C1690 H1680 0.950 . S
C1690 C1691 1.386 . S
C1690 C1692 1.391 . S
C1691 C1690 1.386 . S
C1691 C1695 1.393 . S
C1692 H1681 0.950 . S
C1692 C1690 1.391 . S
C1692 C1693 1.400 . S
C1693 C1687 1.491 . S
C1693 C1692 1.400 . S
C1693 C1694 1.398 . S
C1694 H1682 0.950 . S
C1694 C1693 1.398 . S
C1694 C1695 1.391 . S
C1695 H1683 0.950 . S
C1695 C1691 1.393 . S
C1695 C1694 1.391 . S
C425 C112 1.645 . S
C431 C8 1.645 . S
C445 C333 1.645 . S
C451 C21 1.645 . S
C465 C138 1.639 . S
C471 C34 1.639 . S
C485 C359 1.627 . S
C491 C47 1.627 . S
C505 C164 1.638 . S
C511 C60 1.638 . S
C525 C73 1.635 . S
C531 C385 1.635 . S
C545 C86 1.647 . S
C551 C190 1.647 . S
C565 C99 1.642 . S
C571 C411 1.642 . S
C585 C229 1.635 . S
C591 C125 1.635 . S
C605 C255 1.640 . S
C611 C151 1.640 . S
C625 C177 1.627 . S
C631 C281 1.627 . S
C645 C203 1.628 . S
C651 C307 1.628 . S
C665 C216 1.650 . S
C671 C320 1.650 . S
C685 C346 1.643 . S
C691 C242 1.643 . S
C705 C268 1.630 . S
C711 C372 1.630 . S
C725 C398 1.631 . S
C731 C294 1.631 . S
C745 C239 1.174 . S
C751 C5 1.169 . S
C765 C252 1.168 . S
C771 C18 1.175 . S
C785 C31 1.178 . S
C791 C213 1.188 . S
C805 C44 1.163 . S
C811 C226 1.190 . S
C825 C291 1.163 . S
C831 C57 1.190 . S
C845 C70 1.165 . S
C851 C304 1.180 . S
C865 C265 1.169 . S
C871 C83 1.174 . S
C885 C278 1.163 . S
C891 C96 1.190 . S
C905 C109 1.173 . S
C911 C343 1.170 . S
C925 C356 1.182 . S
C931 C122 1.164 . S
C945 C135 1.179 . S
C951 C317 1.165 . S
C965 C148 1.170 . S
C971 C330 1.173 . S
C985 C161 1.176 . S
C991 C395 1.189 . S
C1005 C174 1.167 . S
C1011 C408 1.192 . S
C1025 C369 1.184 . S
C1031 C187 1.163 . S
C1045 C382 1.182 . S
C1051 C200 1.185 . S
C1065 C78 1.242 . S
C1071 C0 1.242 . S
C1085 C91 1.270 . S
C1091 C13 1.270 . S
C1105 C52 1.248 . S
C1111 C26 1.248 . S
C1125 C39 1.266 . S
C1131 C65 1.266 . S
C1145 C182 1.260 . S
C1151 C104 1.259 . S
C1165 C195 1.248 . S
C1171 C117 1.248 . S
C1185 C156 1.266 . S
C1191 C130 1.266 . S
C1205 C169 1.251 . S
C1211 C143 1.251 . S
C1225 C286 1.258 . S
C1231 C208 1.259 . S
C1245 C299 1.271 . S
C1251 C221 1.271 . S
C1265 C234 1.266 . S
C1271 C260 1.266 . S
C1285 C247 1.269 . S
C1291 C273 1.269 . S
C1305 C390 1.266 . S
C1311 C312 1.267 . S
C1325 C403 1.246 . S
C1331 C325 1.246 . S
C1345 C338 1.269 . S
C1351 C364 1.269 . S
C1365 C351 1.242 . S
C1371 C377 1.242 . S
C1385 C10 1.483 . S
C1391 C283 1.486 . S
C1405 C296 1.485 . S
C1411 C23 1.484 . S
C1425 C309 1.486 . S
C1431 C36 1.482 . S
C1445 C49 1.484 . S
C1451 C270 1.486 . S
C1465 C257 1.483 . S
C1471 C62 1.483 . S
C1485 C75 1.485 . S
C1491 C218 1.482 . S
C1505 C231 1.486 . S
C1511 C88 1.482 . S
C1525 C101 1.483 . S
C1531 C244 1.486 . S
C1545 C387 1.483 . S
C1551 C114 1.486 . S
C1565 C400 1.485 . S
C1571 C127 1.482 . S
C1585 C140 1.482 . S
C1591 C413 1.485 . S
C1605 C374 1.482 . S
C1611 C153 1.484 . S
C1625 C361 1.483 . S
C1631 C166 1.486 . S
C1645 C179 1.483 . S
C1651 C322 1.486 . S
C1665 C335 1.482 . S
C1671 C192 1.486 . S
C1685 C205 1.484 . S
C1691 C348 1.482 . S
