# Generated by pormake.
# Topology whz, (6)-cn, num edge types: 1
# Building blocks:
#     Node 0, Type 0, BuildingBlock: JUFBIX_clean_sbu_0, # of connection points: 6
#     Node 1, Type 0, BuildingBlock: JUFBIX_clean_sbu_0, # of connection points: 6
#     Node 2, Type 0, BuildingBlock: JUFBIX_clean_sbu_0, # of connection points: 6
#     Node 3, Type 0, BuildingBlock: JUFBIX_clean_sbu_0, # of connection points: 6
#     Node 4, Type 0, BuildingBlock: JUFBIX_clean_sbu_0, # of connection points: 6
#     Node 5, Type 0, BuildingBlock: JUFBIX_clean_sbu_0, # of connection points: 6
#     Node 6, Type 0, BuildingBlock: JUFBIX_clean_sbu_0, # of connection points: 6
#     Node 7, Type 0, BuildingBlock: JUFBIX_clean_sbu_0, # of connection points: 6
#     Node 8, Type 0, BuildingBlock: JUFBIX_clean_sbu_0, # of connection points: 6
#     Node 9, Type 0, BuildingBlock: JUFBIX_clean_sbu_0, # of connection points: 6
#     Node 10, Type 0, BuildingBlock: JUFBIX_clean_sbu_0, # of connection points: 6
#     Node 11, Type 0, BuildingBlock: JUFBIX_clean_sbu_0, # of connection points: 6
#     Node 12, Type 0, BuildingBlock: JUFBIX_clean_sbu_0, # of connection points: 6
#     Node 13, Type 0, BuildingBlock: JUFBIX_clean_sbu_0, # of connection points: 6
#     Node 14, Type 0, BuildingBlock: JUFBIX_clean_sbu_0, # of connection points: 6
#     Node 15, Type 0, BuildingBlock: JUFBIX_clean_sbu_0, # of connection points: 6
#     Edge 16, Type (0, 0), BuildingBlock: OJICUG_clean_linker_0, # of connection points: 2
#     Edge 17, Type (0, 0), BuildingBlock: OJICUG_clean_linker_0, # of connection points: 2
#     Edge 18, Type (0, 0), BuildingBlock: OJICUG_clean_linker_0, # of connection points: 2
#     Edge 19, Type (0, 0), BuildingBlock: OJICUG_clean_linker_0, # of connection points: 2
#     Edge 20, Type (0, 0), BuildingBlock: OJICUG_clean_linker_0, # of connection points: 2
#     Edge 21, Type (0, 0), BuildingBlock: OJICUG_clean_linker_0, # of connection points: 2
#     Edge 22, Type (0, 0), BuildingBlock: OJICUG_clean_linker_0, # of connection points: 2
#     Edge 23, Type (0, 0), BuildingBlock: OJICUG_clean_linker_0, # of connection points: 2
#     Edge 24, Type (0, 0), BuildingBlock: OJICUG_clean_linker_0, # of connection points: 2
#     Edge 25, Type (0, 0), BuildingBlock: OJICUG_clean_linker_0, # of connection points: 2
#     Edge 26, Type (0, 0), BuildingBlock: OJICUG_clean_linker_0, # of connection points: 2
#     Edge 27, Type (0, 0), BuildingBlock: OJICUG_clean_linker_0, # of connection points: 2
#     Edge 28, Type (0, 0), BuildingBlock: OJICUG_clean_linker_0, # of connection points: 2
#     Edge 29, Type (0, 0), BuildingBlock: OJICUG_clean_linker_0, # of connection points: 2
#     Edge 30, Type (0, 0), BuildingBlock: OJICUG_clean_linker_0, # of connection points: 2
#     Edge 31, Type (0, 0), BuildingBlock: OJICUG_clean_linker_0, # of connection points: 2
#     Edge 32, Type (0, 0), BuildingBlock: OJICUG_clean_linker_0, # of connection points: 2
#     Edge 33, Type (0, 0), BuildingBlock: OJICUG_clean_linker_0, # of connection points: 2
#     Edge 34, Type (0, 0), BuildingBlock: OJICUG_clean_linker_0, # of connection points: 2
#     Edge 35, Type (0, 0), BuildingBlock: OJICUG_clean_linker_0, # of connection points: 2
#     Edge 36, Type (0, 0), BuildingBlock: OJICUG_clean_linker_0, # of connection points: 2
#     Edge 37, Type (0, 0), BuildingBlock: OJICUG_clean_linker_0, # of connection points: 2
#     Edge 38, Type (0, 0), BuildingBlock: OJICUG_clean_linker_0, # of connection points: 2
#     Edge 39, Type (0, 0), BuildingBlock: OJICUG_clean_linker_0, # of connection points: 2
#     Edge 40, Type (0, 0), BuildingBlock: OJICUG_clean_linker_0, # of connection points: 2
#     Edge 41, Type (0, 0), BuildingBlock: OJICUG_clean_linker_0, # of connection points: 2
#     Edge 42, Type (0, 0), BuildingBlock: OJICUG_clean_linker_0, # of connection points: 2
#     Edge 43, Type (0, 0), BuildingBlock: OJICUG_clean_linker_0, # of connection points: 2
#     Edge 44, Type (0, 0), BuildingBlock: OJICUG_clean_linker_0, # of connection points: 2
#     Edge 45, Type (0, 0), BuildingBlock: OJICUG_clean_linker_0, # of connection points: 2
#     Edge 46, Type (0, 0), BuildingBlock: OJICUG_clean_linker_0, # of connection points: 2
#     Edge 47, Type (0, 0), BuildingBlock: OJICUG_clean_linker_0, # of connection points: 2
#     Edge 48, Type (0, 0), BuildingBlock: OJICUG_clean_linker_0, # of connection points: 2
#     Edge 49, Type (0, 0), BuildingBlock: OJICUG_clean_linker_0, # of connection points: 2
#     Edge 50, Type (0, 0), BuildingBlock: OJICUG_clean_linker_0, # of connection points: 2
#     Edge 51, Type (0, 0), BuildingBlock: OJICUG_clean_linker_0, # of connection points: 2
#     Edge 52, Type (0, 0), BuildingBlock: OJICUG_clean_linker_0, # of connection points: 2
#     Edge 53, Type (0, 0), BuildingBlock: OJICUG_clean_linker_0, # of connection points: 2
#     Edge 54, Type (0, 0), BuildingBlock: OJICUG_clean_linker_0, # of connection points: 2
#     Edge 55, Type (0, 0), BuildingBlock: OJICUG_clean_linker_0, # of connection points: 2
#     Edge 56, Type (0, 0), BuildingBlock: OJICUG_clean_linker_0, # of connection points: 2
#     Edge 57, Type (0, 0), BuildingBlock: OJICUG_clean_linker_0, # of connection points: 2
#     Edge 58, Type (0, 0), BuildingBlock: OJICUG_clean_linker_0, # of connection points: 2
#     Edge 59, Type (0, 0), BuildingBlock: OJICUG_clean_linker_0, # of connection points: 2
#     Edge 60, Type (0, 0), BuildingBlock: OJICUG_clean_linker_0, # of connection points: 2
#     Edge 61, Type (0, 0), BuildingBlock: OJICUG_clean_linker_0, # of connection points: 2
#     Edge 62, Type (0, 0), BuildingBlock: OJICUG_clean_linker_0, # of connection points: 2
#     Edge 63, Type (0, 0), BuildingBlock: OJICUG_clean_linker_0, # of connection points: 2
# Relax obj value: 0.397
# Max RMSD: 0.261
# Mean RMSD: 0.261
data_MOF--net-whz--node1-JUFBIX_clean_sbu_0--edge1-OJICUG_clean_linker_0
_symmetry_space_group_name_H-M    P1
_symmetry_Int_Tables_number       1
_symmetry_cell_setting            triclinic
loop_
_symmetry_equiv_pos_as_xyz
'x, y, z'
_cell_length_a     31.311671
_cell_length_b     31.300451
_cell_length_c     32.37372
_cell_angle_alpha  90.012842
_cell_angle_beta   89.999019
_cell_angle_gamma 89.985293
loop_
_atom_site_label
_atom_site_type_symbol
_atom_site_fract_x
_atom_site_fract_y
_atom_site_fract_z
_atom_type_partial_charge
Co0 Co 0.25456 0.1426 0.14884 0.0
C1 C 0.32367 0.09194 0.17166 0.0
Co2 Co 0.31712 0.16881 0.1294 0.0
C3 C 0.16505 0.11453 0.15544 0.0
C4 C 0.20267 0.10473 0.20981 0.0
N5 N 0.20468 0.12031 0.17094 0.0
N6 N 0.1388 0.09573 0.18325 0.0
C7 C 0.16246 0.0898 0.21744 0.0
H8 H 0.15605 0.12274 0.12415 0.0
H9 H 0.22911 0.10377 0.23131 0.0
C10 C 0.24724 0.22044 0.11124 0.0
N11 N 0.36927 0.19166 0.10933 0.0
C12 C 0.40605 0.20449 0.12818 0.0
C13 C 0.37598 0.19996 0.06895 0.0
N14 N 0.43524 0.21961 0.10075 0.0
C15 C 0.41613 0.21659 0.06363 0.0
C16 C 0.27333 0.11902 0.07009 0.0
O17 O 0.22583 0.1921 0.1303 0.0
O18 O 0.28706 0.21494 0.10527 0.0
O19 O 0.30916 0.13642 0.07858 0.0
O20 O 0.24458 0.11683 0.09767 0.0
O21 O 0.34641 0.12178 0.15608 0.0
H22 H 0.35289 0.19467 0.04465 0.0
H23 H 0.41151 0.20231 0.16113 0.0
O24 O 0.28346 0.09383 0.16794 0.0
O25 O 0.2637 0.16978 0.19896 0.0
O26 O 0.32182 0.20216 0.17847 0.0
C27 C 0.29226 0.19748 0.20505 0.0
H28 H 0.15154 0.07542 0.24596 0.0
H29 H 0.43019 0.22625 0.03452 0.0
Co30 Co 0.63612 0.50411 0.39919 0.0
C31 C 0.68714 0.57304 0.42169 0.0
Co32 Co 0.61021 0.56677 0.37959 0.0
C33 C 0.66372 0.41438 0.40607 0.0
C34 C 0.67368 0.45217 0.46032 0.0
N35 N 0.65817 0.45413 0.42143 0.0
N36 N 0.68229 0.38809 0.43401 0.0
C37 C 0.68831 0.41186 0.46813 0.0
H38 H 0.65549 0.40531 0.3748 0.0
H39 H 0.67478 0.47869 0.48173 0.0
C40 C 0.55823 0.49709 0.36174 0.0
N41 N 0.58757 0.61901 0.35941 0.0
C42 C 0.57458 0.65576 0.37826 0.0
C43 C 0.57953 0.62581 0.319 0.0
N44 N 0.55963 0.68503 0.35079 0.0
C45 C 0.56292 0.66598 0.31365 0.0
C46 C 0.6596 0.52244 0.32033 0.0
O47 O 0.58648 0.4756 0.38086 0.0
O48 O 0.56391 0.53687 0.35561 0.0
O49 O 0.64248 0.55846 0.32876 0.0
O50 O 0.66167 0.49377 0.34799 0.0
O51 O 0.6574 0.59589 0.40611 0.0
H52 H 0.58496 0.60275 0.29468 0.0
H53 H 0.57649 0.66114 0.41124 0.0
O54 O 0.68505 0.5328 0.41809 0.0
O55 O 0.60913 0.51361 0.44934 0.0
O56 O 0.57697 0.57181 0.42869 0.0
C57 C 0.58158 0.54234 0.45538 0.0
H58 H 0.70256 0.40097 0.49671 0.0
H59 H 0.55341 0.68008 0.28452 0.0
Co60 Co 0.27412 0.88657 0.64902 0.0
C61 C 0.20506 0.93735 0.67172 0.0
Co62 Co 0.21159 0.86045 0.62944 0.0
C63 C 0.36365 0.91453 0.65567 0.0
C64 C 0.32604 0.92437 0.71005 0.0
N65 N 0.32402 0.90878 0.67118 0.0
N66 N 0.38992 0.93331 0.68349 0.0
C67 C 0.36626 0.93927 0.71768 0.0
H68 H 0.37263 0.90631 0.62437 0.0
H69 H 0.2996 0.92536 0.73154 0.0
C70 C 0.28138 0.80868 0.61143 0.0
N71 N 0.15942 0.83767 0.60932 0.0
C72 C 0.12267 0.8248 0.6282 0.0
C73 C 0.15264 0.82947 0.56893 0.0
N74 N 0.09343 0.80974 0.60077 0.0
C75 C 0.11248 0.81285 0.56363 0.0
C76 C 0.25562 0.91006 0.57017 0.0
O77 O 0.30279 0.83698 0.63056 0.0
O78 O 0.24159 0.81425 0.60536 0.0
O79 O 0.2197 0.89279 0.5786 0.0
O80 O 0.28426 0.91224 0.59784 0.0
O81 O 0.18233 0.90754 0.65608 0.0
H82 H 0.1757 0.83481 0.54461 0.0
H83 H 0.11726 0.8269 0.66116 0.0
O84 O 0.24528 0.93542 0.66807 0.0
O85 O 0.26485 0.85947 0.69915 0.0
O86 O 0.20676 0.82713 0.67851 0.0
C87 C 0.23626 0.83178 0.70516 0.0
H88 H 0.37719 0.95367 0.74619 0.0
H89 H 0.09837 0.80326 0.53452 0.0
Co90 Co 0.89226 0.52502 0.89913 0.0
C91 C 0.84183 0.45548 0.92154 0.0
Co92 Co 0.91844 0.46254 0.87926 0.0
C93 C 0.86432 0.61455 0.90626 0.0
C94 C 0.85398 0.57654 0.96028 0.0
N95 N 0.86977 0.57474 0.92148 0.0
N96 N 0.84555 0.64074 0.93417 0.0
C97 C 0.83927 0.61681 0.96814 0.0
H98 H 0.87283 0.62376 0.87509 0.0
H99 H 0.85284 0.54994 0.98158 0.0
C100 C 0.96984 0.53279 0.86148 0.0
N101 N 0.94193 0.41068 0.85865 0.0
C102 C 0.95984 0.3759 0.87728 0.0
C103 C 0.94888 0.40411 0.81801 0.0
N104 N 0.97782 0.34855 0.84958 0.0
C105 C 0.97043 0.36644 0.81243 0.0
C106 C 0.86863 0.50666 0.82029 0.0
O107 O 0.94163 0.55407 0.88087 0.0
O108 O 0.96427 0.49303 0.85518 0.0
O109 O 0.88581 0.47068 0.82864 0.0
O110 O 0.86658 0.53529 0.84799 0.0
O111 O 0.87171 0.43282 0.90587 0.0
H112 H 0.94048 0.42621 0.79369 0.0
H113 H 0.96152 0.37174 0.91043 0.0
O114 O 0.84361 0.49574 0.91797 0.0
O115 O 0.91934 0.51565 0.94924 0.0
O116 O 0.95192 0.4578 0.92823 0.0
C117 C 0.94717 0.48713 0.95506 0.0
H118 H 0.82485 0.6276 0.99669 0.0
H119 H 0.98072 0.35356 0.78303 0.0
Co120 Co 0.71173 0.86051 0.88774 0.0
C121 C 0.78217 0.80938 0.90589 0.0
Co122 Co 0.77419 0.88688 0.86803 0.0
C123 C 0.62515 0.81905 0.88964 0.0
C124 C 0.65349 0.82976 0.9489 0.0
N125 N 0.65996 0.83687 0.90828 0.0
N126 N 0.59788 0.80097 0.91733 0.0
C127 C 0.61584 0.80821 0.95447 0.0
H128 H 0.62091 0.81752 0.8565 0.0
H129 H 0.67564 0.83808 0.97321 0.0
C130 C 0.70446 0.93699 0.84527 0.0
N131 N 0.82386 0.90955 0.8458 0.0
C132 C 0.86354 0.9153 0.86119 0.0
C133 C 0.8257 0.92533 0.807 0.0
N134 N 0.88969 0.93425 0.83338 0.0
C135 C 0.86588 0.94035 0.79931 0.0
C136 C 0.73668 0.83166 0.81209 0.0
O137 O 0.6819 0.9071 0.861 0.0
O138 O 0.74472 0.93534 0.84889 0.0
O139 O 0.76515 0.85951 0.81799 0.0
O140 O 0.70724 0.82695 0.83879 0.0
O141 O 0.80342 0.83767 0.8866 0.0
H142 H 0.79919 0.92627 0.78559 0.0
H143 H 0.87268 0.90687 0.89239 0.0
O144 O 0.74236 0.8148 0.91195 0.0
O145 O 0.7196 0.89325 0.93832 0.0
O146 O 0.78411 0.91286 0.91912 0.0
C147 C 0.7554 0.91074 0.94672 0.0
H148 H 0.60302 0.79784 0.98387 0.0
H149 H 0.87669 0.95484 0.77081 0.0
Co150 Co 0.41832 0.46197 0.63762 0.0
C151 C 0.46975 0.5322 0.6556 0.0
Co152 Co 0.39216 0.5245 0.61786 0.0
C153 C 0.45974 0.37532 0.63952 0.0
C154 C 0.44861 0.40344 0.69881 0.0
N155 N 0.44178 0.41008 0.65816 0.0
N156 N 0.47763 0.34794 0.66721 0.0
C157 C 0.47014 0.36576 0.70438 0.0
H158 H 0.46152 0.37122 0.60637 0.0
H159 H 0.44014 0.42551 0.72315 0.0
C160 C 0.34173 0.45498 0.59523 0.0
N161 N 0.36967 0.57424 0.59557 0.0
C162 C 0.36399 0.61396 0.61093 0.0
C163 C 0.35395 0.57609 0.55675 0.0
N164 N 0.34512 0.64014 0.58308 0.0
C165 C 0.33903 0.61631 0.54901 0.0
C166 C 0.44718 0.48673 0.56193 0.0
O167 O 0.37159 0.43229 0.61088 0.0
O168 O 0.34354 0.49524 0.59888 0.0
O169 O 0.41934 0.51523 0.56778 0.0
O170 O 0.45187 0.45732 0.58867 0.0
O171 O 0.44154 0.55353 0.63626 0.0
H172 H 0.35295 0.54954 0.53536 0.0
H173 H 0.37236 0.6231 0.64215 0.0
O174 O 0.46415 0.49243 0.66181 0.0
O175 O 0.38562 0.47003 0.68821 0.0
O176 O 0.36637 0.53467 0.66898 0.0
C177 C 0.36836 0.50597 0.69661 0.0
H178 H 0.48035 0.35284 0.73379 0.0
H179 H 0.32458 0.62712 0.52049 0.0
Co180 Co 0.81662 0.16856 0.38766 0.0
C181 C 0.74611 0.21961 0.40573 0.0
Co182 Co 0.75422 0.14211 0.3679 0.0
C183 C 0.90319 0.21005 0.38963 0.0
C184 C 0.87474 0.19949 0.44885 0.0
N185 N 0.86835 0.19228 0.40823 0.0
N186 N 0.93041 0.22819 0.41732 0.0
C187 C 0.91238 0.22105 0.45445 0.0
H188 H 0.9075 0.21148 0.35648 0.0
H189 H 0.85255 0.19122 0.47314 0.0
C190 C 0.82402 0.09207 0.3452 0.0
N191 N 0.70458 0.1194 0.34565 0.0
C192 C 0.66483 0.11388 0.36094 0.0
C193 C 0.70278 0.10356 0.30687 0.0
N194 N 0.63866 0.09501 0.33309 0.0
C195 C 0.66254 0.08873 0.29909 0.0
C196 C 0.7917 0.19738 0.312 0.0
O197 O 0.84654 0.12201 0.36094 0.0
O198 O 0.78376 0.09368 0.34878 0.0
O199 O 0.76326 0.16948 0.31784 0.0
O200 O 0.8211 0.20212 0.33873 0.0
O201 O 0.72493 0.19128 0.38643 0.0
H202 H 0.72933 0.1025 0.28551 0.0
H203 H 0.65564 0.12246 0.3921 0.0
O204 O 0.78592 0.21425 0.41185 0.0
O205 O 0.80878 0.13584 0.43823 0.0
O206 O 0.7443 0.11615 0.419 0.0
C207 C 0.773 0.1183 0.44661 0.0
H208 H 0.92514 0.23149 0.48385 0.0
H209 H 0.65174 0.07428 0.27056 0.0
Co210 Co 0.11028 0.56711 0.13767 0.0
C211 C 0.05883 0.49689 0.1556 0.0
Co212 Co 0.13642 0.50458 0.11784 0.0
C213 C 0.06889 0.65375 0.13962 0.0
C214 C 0.08004 0.62566 0.19891 0.0
N215 N 0.08685 0.619 0.15826 0.0
N216 N 0.05101 0.68115 0.16732 0.0
C217 C 0.05852 0.66335 0.20449 0.0
H218 H 0.0671 0.65784 0.10647 0.0
H219 H 0.08852 0.6036 0.22325 0.0
C220 C 0.18686 0.5741 0.09527 0.0
N221 N 0.15888 0.45484 0.0955 0.0
C222 C 0.16457 0.41511 0.11083 0.0
C223 C 0.17459 0.45301 0.05667 0.0
N224 N 0.18342 0.38895 0.08295 0.0
C225 C 0.1895 0.41279 0.04889 0.0
C226 C 0.08145 0.54245 0.06193 0.0
O227 O 0.15702 0.59678 0.11098 0.0
O228 O 0.18505 0.53383 0.09887 0.0
O229 O 0.10924 0.5139 0.06777 0.0
O230 O 0.07676 0.57183 0.08872 0.0
O231 O 0.08703 0.47557 0.13623 0.0
H232 H 0.17559 0.47956 0.03531 0.0
H233 H 0.15621 0.40596 0.14204 0.0
O234 O 0.06444 0.53666 0.16182 0.0
O235 O 0.14296 0.55899 0.18827 0.0
O236 O 0.1622 0.49437 0.16896 0.0
C237 C 0.1602 0.52303 0.19663 0.0
H238 H 0.04833 0.67629 0.2339 0.0
H239 H 0.20395 0.40198 0.02037 0.0
Co240 Co 0.75415 0.64225 0.64872 0.0
C241 C 0.82391 0.59221 0.67146 0.0
Co242 Co 0.81659 0.6687 0.62906 0.0
C243 C 0.66473 0.61402 0.65568 0.0
C244 C 0.70271 0.60374 0.70974 0.0
N245 N 0.7045 0.61955 0.67095 0.0
N246 N 0.63858 0.59517 0.68356 0.0
C247 C 0.66248 0.58892 0.71755 0.0
H248 H 0.65552 0.62258 0.62453 0.0
H249 H 0.72927 0.6027 0.73109 0.0
C250 C 0.7461 0.71974 0.61092 0.0
N251 N 0.86834 0.69241 0.60854 0.0
C252 C 0.90316 0.71018 0.62718 0.0
C253 C 0.87477 0.69961 0.56793 0.0
N254 N 0.93041 0.72833 0.59951 0.0
C255 C 0.91241 0.72118 0.56237 0.0
C256 C 0.77302 0.61841 0.57005 0.0
O257 O 0.72488 0.69141 0.63018 0.0
O258 O 0.78591 0.71438 0.60486 0.0
O259 O 0.80877 0.63598 0.57848 0.0
O260 O 0.74427 0.61627 0.59762 0.0
O261 O 0.84646 0.62214 0.65577 0.0
H262 H 0.8526 0.69134 0.54362 0.0
H263 H 0.90743 0.71163 0.66033 0.0
O264 O 0.78366 0.59383 0.66784 0.0
O265 O 0.76315 0.66963 0.69878 0.0
O266 O 0.82104 0.70225 0.67801 0.0
C267 C 0.7916 0.6975 0.7047 0.0
H268 H 0.65169 0.5745 0.74609 0.0
H269 H 0.9252 0.73162 0.53299 0.0
Co270 Co 0.13622 1.00475 0.89911 0.0
C271 C 0.18717 0.0737 0.92178 0.0
Co272 Co 0.11026 0.0674 0.87956 0.0
C273 C 0.16409 0.91512 0.90583 0.0
C274 C 0.17382 0.95278 0.96021 0.0
N275 N 0.15831 0.95479 0.9213 0.0
N276 N 0.18279 0.88885 0.9337 0.0
C277 C 0.18868 0.91254 0.96789 0.0
H278 H 0.15596 0.90612 0.87452 0.0
H279 H 0.1748 0.97925 0.98168 0.0
C280 C 0.05832 0.9977 0.86157 0.0
N281 N 0.08761 0.11964 0.85942 0.0
C282 C 0.07464 0.15639 0.87827 0.0
C283 C 0.07957 0.12645 0.819 0.0
N284 N 0.0597 0.18567 0.85082 0.0
C285 C 0.06297 0.16663 0.81367 0.0
C286 C 0.15981 0.02322 0.8203 0.0
O287 O 0.08658 0.9762 0.88068 0.0
O288 O 0.06401 0.03749 0.85547 0.0
O289 O 0.14262 0.05919 0.82875 0.0
O290 O 0.16186 0.99451 0.84793 0.0
O291 O 0.15741 0.09654 0.9062 0.0
H292 H 0.08499 0.1034 0.79468 0.0
H293 H 0.07657 0.16176 0.91125 0.0
O294 O 0.18512 0.03347 0.91811 0.0
O295 O 0.10917 1.01415 0.94923 0.0
O296 O 0.07694 0.07232 0.92861 0.0
C297 C 0.08154 0.04281 0.95526 0.0
H298 H 0.203 0.90162 0.99643 0.0
H299 H 0.05348 0.18075 0.78454 0.0
Co300 Co 0.77453 0.38683 0.14895 0.0
C301 C 0.70483 0.43704 0.17151 0.0
Co302 Co 0.71213 0.3605 0.12908 0.0
C303 C 0.86395 0.41494 0.15597 0.0
C304 C 0.826 0.42523 0.21005 0.0
N305 N 0.82419 0.40942 0.17126 0.0
N306 N 0.89012 0.43377 0.18384 0.0
C307 C 0.86624 0.44002 0.21785 0.0
H308 H 0.87313 0.40641 0.1248 0.0
H309 H 0.79944 0.42631 0.2314 0.0
C310 C 0.78252 0.30929 0.11116 0.0
N311 N 0.66036 0.33689 0.10848 0.0
C312 C 0.62554 0.31909 0.1271 0.0
C313 C 0.6539 0.32978 0.06786 0.0
N314 N 0.59827 0.30102 0.09942 0.0
C315 C 0.61624 0.30824 0.06228 0.0
C316 C 0.75602 0.41055 0.07015 0.0
O317 O 0.80373 0.33756 0.13052 0.0
O318 O 0.74274 0.31474 0.10495 0.0
O319 O 0.72014 0.39318 0.07848 0.0
O320 O 0.78464 0.41268 0.09784 0.0
O321 O 0.68228 0.40714 0.15574 0.0
H322 H 0.67605 0.33809 0.04355 0.0
H323 H 0.6213 0.31758 0.16025 0.0
O324 O 0.74509 0.43536 0.16797 0.0
O325 O 0.76532 0.35956 0.19901 0.0
O326 O 0.70749 0.32698 0.17803 0.0
C327 C 0.73684 0.33171 0.20482 0.0
H328 H 0.87704 0.45445 0.24638 0.0
H329 H 0.60342 0.29785 0.03288 0.0
Co330 Co 0.39225 0.02447 0.39903 0.0
C331 C 0.34175 0.95504 0.42168 0.0
Co332 Co 0.41835 0.96192 0.37924 0.0
C333 C 0.36416 0.11395 0.40597 0.0
C334 C 0.3542 0.07613 0.46019 0.0
N335 N 0.36986 0.07424 0.42134 0.0
N336 N 0.34535 0.14016 0.43385 0.0
C337 C 0.33932 0.11637 0.46794 0.0
H338 H 0.37247 0.12305 0.37473 0.0
H339 H 0.35321 0.04961 0.48159 0.0
C340 C 0.46986 0.03206 0.36125 0.0
N341 N 0.44172 0.90998 0.35868 0.0
C342 C 0.45972 0.87525 0.37732 0.0
C343 C 0.44845 0.90327 0.31803 0.0
N344 N 0.47755 0.84782 0.34962 0.0
C345 C 0.46996 0.86558 0.31245 0.0
C346 C 0.36844 1.006 0.32027 0.0
O347 O 0.44168 0.05342 0.38062 0.0
O348 O 0.46421 0.9923 0.35503 0.0
O349 O 0.38563 0.97003 0.32865 0.0
O350 O 0.36648 0.03469 0.34793 0.0
O351 O 0.37158 0.93231 0.40601 0.0
H352 H 0.43994 0.9253 0.29367 0.0
H353 H 0.46159 0.87121 0.41047 0.0
O354 O 0.34359 0.99529 0.41802 0.0
O355 O 0.41942 0.01515 0.44909 0.0
O356 O 0.45192 0.95723 0.42817 0.0
C357 C 0.44724 0.98664 0.45493 0.0
H358 H 0.32491 0.12722 0.49647 0.0
H359 H 0.48011 0.85261 0.28304 0.0
Co360 Co 0.2116 0.3603 0.38749 0.0
C361 C 0.28146 0.30861 0.40544 0.0
Co362 Co 0.2741 0.3865 0.36793 0.0
C363 C 0.1227 0.32463 0.38873 0.0
C364 C 0.15274 0.32915 0.44797 0.0
N365 N 0.15947 0.33746 0.4076 0.0
N366 N 0.0935 0.30949 0.41614 0.0
C367 C 0.11259 0.31251 0.45328 0.0
H368 H 0.11726 0.32681 0.35578 0.0
H369 H 0.17582 0.33444 0.47228 0.0
C370 C 0.20498 0.43722 0.34532 0.0
N371 N 0.32394 0.40879 0.34577 0.0
C372 C 0.3636 0.41452 0.36121 0.0
C373 C 0.32589 0.42447 0.30693 0.0
N374 N 0.38981 0.43337 0.3334 0.0
C375 C 0.3661 0.4394 0.29926 0.0
C376 C 0.23628 0.33173 0.31173 0.0
O377 O 0.18228 0.40736 0.3609 0.0
O378 O 0.2452 0.43534 0.34899 0.0
O379 O 0.26482 0.35946 0.31777 0.0
O380 O 0.20681 0.32701 0.3384 0.0
O381 O 0.30283 0.33693 0.3863 0.0
H382 H 0.29941 0.4255 0.28549 0.0
H383 H 0.37266 0.40622 0.39247 0.0
O384 O 0.24167 0.31414 0.41153 0.0
O385 O 0.21967 0.39263 0.43835 0.0
O386 O 0.28424 0.41212 0.41914 0.0
C387 C 0.25558 0.40992 0.4468 0.0
H388 H 0.09851 0.30286 0.48237 0.0
H389 H 0.37697 0.45385 0.27077 0.0
Co390 Co 0.91844 0.96223 0.13715 0.0
C391 C 0.97039 0.03193 0.15491 0.0
Co392 Co 0.89247 0.02483 0.1175 0.0
C393 C 0.95406 0.87323 0.13853 0.0
C394 C 0.9492 0.90328 0.19776 0.0
N395 N 0.94111 0.91002 0.15735 0.0
N396 N 0.96905 0.84401 0.16602 0.0
C397 C 0.96583 0.86311 0.20314 0.0
H398 H 0.95209 0.8678 0.10557 0.0
H399 H 0.94381 0.92637 0.22205 0.0
C400 C 0.84146 0.95589 0.09508 0.0
N401 N 0.87039 0.07478 0.09527 0.0
C402 C 0.86488 0.11452 0.11063 0.0
C403 C 0.85481 0.07674 0.0564 0.0
N404 N 0.84626 0.14082 0.08272 0.0
C405 C 0.84018 0.11704 0.04861 0.0
C406 C 0.94704 0.98665 0.06135 0.0
O407 O 0.87126 0.93306 0.11062 0.0
O408 O 0.84351 0.99612 0.0987 0.0
O409 O 0.91938 0.01529 0.06733 0.0
O410 O 0.9517 0.95721 0.08807 0.0
O411 O 0.94215 0.05337 0.13574 0.0
H412 H 0.85367 0.05021 0.035 0.0
H413 H 0.87316 0.12359 0.14189 0.0
O414 O 0.96471 0.99216 0.16113 0.0
O415 O 0.88614 0.97053 0.18798 0.0
O416 O 0.867 0.03521 0.16872 0.0
C417 C 0.86908 1.00656 0.1964 0.0
H418 H 0.97537 0.84906 0.23228 0.0
H419 H 0.82588 0.12794 0.02005 0.0
Co420 Co 0.31675 0.66875 0.8874 0.0
C421 C 0.24693 0.7205 0.90532 0.0
Co422 Co 0.25423 0.6426 0.86782 0.0
C423 C 0.40566 0.70442 0.88866 0.0
C424 C 0.37565 0.6998 0.94792 0.0
N425 N 0.3689 0.69156 0.90753 0.0
N426 N 0.43488 0.71951 0.9161 0.0
C427 C 0.41581 0.71643 0.95323 0.0
H428 H 0.41109 0.70229 0.85571 0.0
H429 H 0.35258 0.69448 0.97223 0.0
C430 C 0.3233 0.59182 0.84521 0.0
N431 N 0.20435 0.6204 0.84563 0.0
C432 C 0.16463 0.61488 0.86101 0.0
C433 C 0.20238 0.60477 0.80677 0.0
N434 N 0.13835 0.59622 0.83312 0.0
C435 C 0.1621 0.59009 0.79901 0.0
C436 C 0.29212 0.69736 0.81165 0.0
O437 O 0.34602 0.62166 0.86081 0.0
O438 O 0.28308 0.59373 0.84885 0.0
O439 O 0.26355 0.66965 0.81766 0.0
O440 O 0.32159 0.70204 0.83832 0.0
O441 O 0.22555 0.69217 0.8862 0.0
H442 H 0.22888 0.60365 0.78535 0.0
H443 H 0.15557 0.62322 0.89226 0.0
O444 O 0.28672 0.71495 0.91144 0.0
O445 O 0.30863 0.63643 0.93824 0.0
O446 O 0.24406 0.61698 0.91901 0.0
C447 C 0.27272 0.61917 0.94667 0.0
H448 H 0.42989 0.72605 0.98234 0.0
H449 H 0.1512 0.57578 0.77046 0.0
Co450 Co 0.61022 0.06685 0.63718 0.0
C451 C 0.55826 0.99716 0.65495 0.0
Co452 Co 0.63617 1.00422 0.61753 0.0
C453 C 0.57458 0.15583 0.63854 0.0
C454 C 0.57951 0.12588 0.69779 0.0
N455 N 0.58756 0.11908 0.65738 0.0
N456 N 0.55961 0.18509 0.66601 0.0
C457 C 0.56288 0.16605 0.70314 0.0
H458 H 0.57652 0.1612 0.60556 0.0
H459 H 0.58492 0.10282 0.7221 0.0
C460 C 0.68717 0.07316 0.59509 0.0
N461 N 0.65824 0.95426 0.59526 0.0
C462 C 0.66375 0.9145 0.61058 0.0
C463 C 0.67381 0.95232 0.55639 0.0
N464 N 0.68235 0.88822 0.58264 0.0
C465 C 0.68843 0.91201 0.54856 0.0
C466 C 0.58164 0.04244 0.56137 0.0
O467 O 0.6574 0.09599 0.61067 0.0
O468 O 0.68512 0.03293 0.59869 0.0
O469 O 0.60923 1.01375 0.56737 0.0
O470 O 0.57699 0.07188 0.58809 0.0
O471 O 0.58651 0.9757 0.63579 0.0
H472 H 0.67495 0.97885 0.53501 0.0
H473 H 0.65547 0.90542 0.64184 0.0
O474 O 0.56393 0.03693 0.66115 0.0
O475 O 0.64249 0.05854 0.68802 0.0
O476 O 0.66167 0.99386 0.66873 0.0
C477 C 0.65958 0.02251 0.69643 0.0
H478 H 0.55336 0.18015 0.73228 0.0
H479 H 0.70272 0.90113 0.51999 0.0
C480 C 0.29513 0.27309 0.22812 0.0
C481 C 0.28224 0.2309 0.23541 0.0
H482 H 0.28834 0.33871 0.24502 0.0
C483 C 0.25128 0.22275 0.26597 0.0
H484 H 0.31783 0.28053 0.20392 0.0
C485 C 0.23336 0.25613 0.28863 0.0
C486 C 0.24626 0.29832 0.28135 0.0
H487 H 0.24015 0.19051 0.27173 0.0
H488 H 0.21066 0.24869 0.31284 0.0
C489 C 0.27721 0.30647 0.25078 0.0
C490 C 0.47258 0.52758 0.50099 0.0
C491 C 0.48068 0.49671 0.53167 0.0
H492 H 0.49859 0.56803 0.45404 0.0
C493 C 0.52286 0.48388 0.53911 0.0
H494 H 0.44036 0.53867 0.49511 0.0
C495 C 0.55626 0.50173 0.51647 0.0
C496 C 0.54815 0.53256 0.48577 0.0
H497 H 0.53025 0.46125 0.56341 0.0
H498 H 0.58848 0.49061 0.52233 0.0
C499 C 0.50598 0.54543 0.47836 0.0
C500 C 0.27717 0.80642 0.76607 0.0
C501 C 0.24621 0.79832 0.73549 0.0
H502 H 0.31778 0.78039 0.8129 0.0
C503 C 0.23329 0.75614 0.72814 0.0
H504 H 0.28833 0.83864 0.77188 0.0
C505 C 0.25119 0.72272 0.75075 0.0
C506 C 0.28215 0.73082 0.78133 0.0
H507 H 0.21059 0.74875 0.70392 0.0
H508 H 0.24003 0.6905 0.74495 0.0
C509 C 0.29507 0.773 0.78867 0.0
C510 C 0.97248 0.5278 0.01616 0.0
C511 C 0.9806 0.49699 0.98543 0.0
H512 H 0.99845 0.56814 0.06323 0.0
C513 C 0.02277 0.48406 0.97808 0.0
H514 H 0.94026 0.53896 0.02198 0.0
C515 C 0.05615 0.5018 1.00083 0.0
C516 C 0.04802 0.53262 0.03156 0.0
H517 H 0.03018 0.46146 0.95376 0.0
H518 H 0.08836 0.49065 0.995 0.0
C519 C 1.00586 0.54555 0.03891 0.0
C520 C 0.73314 0.7562 0.78858 0.0
C521 C 0.7465 0.7983 0.78161 0.0
H522 H 0.73922 0.69065 0.77121 0.0
C523 C 0.77754 0.80636 0.75109 0.0
H524 H 0.71034 0.74883 0.81272 0.0
C525 C 0.79508 0.77297 0.72818 0.0
C526 C 0.78173 0.73087 0.73516 0.0
H527 H 0.789 0.83852 0.74554 0.0
H528 H 0.81789 0.78034 0.70405 0.0
C529 C 0.75069 0.72281 0.76567 0.0
C530 C 0.77762 0.30632 0.26582 0.0
C531 C 0.74662 0.2983 0.23527 0.0
H532 H 0.81796 0.28024 0.31283 0.0
C533 C 0.73326 0.25621 0.22821 0.0
H534 H 0.78909 0.33847 0.27143 0.0
C535 C 0.7508 0.22278 0.25107 0.0
C536 C 0.78183 0.2308 0.2816 0.0
H537 H 0.71048 0.24887 0.20405 0.0
H538 H 0.73934 0.19063 0.24546 0.0
C539 C 0.79516 0.27289 0.28867 0.0
C540 C 0.97241 0.02741 1.00037 0.0
C541 C 0.98054 0.9966 0.03109 0.0
H542 H 0.99842 0.06803 0.95355 0.0
C543 C 0.02275 0.98398 0.03869 0.0
H544 H 0.94016 0.03835 0.99438 0.0
C545 C 0.05616 1.00202 0.01621 0.0
C546 C 0.04803 0.03283 0.9855 0.0
H547 H 0.03016 0.96141 0.06304 0.0
H548 H 0.08841 0.99108 0.02221 0.0
C549 C 1.00582 0.04546 0.97789 0.0
C550 C 0.52294 0.9839 0.47765 0.0
C551 C 0.48074 0.99663 0.48518 0.0
H552 H 0.58858 0.99079 0.49433 0.0
C553 C 0.47262 0.02743 0.51591 0.0
H554 H 0.53034 0.96132 0.4533 0.0
C555 C 0.50601 0.04535 0.53851 0.0
C556 C 0.5482 0.0326 0.531 0.0
H557 H 0.44038 0.03844 0.52186 0.0
H558 H 0.4986 0.06791 0.56286 0.0
C559 C 0.55634 1.00182 0.50025 0.0
C560 C 0.25049 0.06437 0.96846 0.0
C561 C 0.21819 0.09114 0.95223 0.0
H562 H 0.29372 0.05216 0.01885 0.0
C563 C 0.21013 0.13027 0.97193 0.0
H564 H 0.25751 0.03389 0.95412 0.0
C565 C 0.23079 0.14036 0.00904 0.0
C566 C 0.26027 0.11189 0.02687 0.0
H567 H 0.18536 0.15144 0.96067 0.0
H568 H 0.2218 0.16935 0.02518 0.0
C569 C 0.27129 0.07463 1.00555 0.0
C570 C 0.63867 0.47884 0.25983 0.0
C571 C 0.66655 0.5092 0.27713 0.0
H572 H 0.62799 0.43308 0.21168 0.0
C573 C 0.70299 0.52136 0.25509 0.0
H574 H 0.61028 0.46903 0.27648 0.0
C575 C 0.71316 0.50079 0.21785 0.0
C576 C 0.68705 0.4677 0.20212 0.0
H577 H 0.72496 0.54455 0.26794 0.0
H578 H 0.74312 0.50866 0.20295 0.0
C579 C 0.64861 0.4585 0.22253 0.0
C580 C 0.25734 0.95382 0.5052 0.0
C581 C 0.26888 0.917 0.52697 0.0
H582 H 0.2707 0.99416 0.45338 0.0
C583 C 0.29886 0.88879 0.50952 0.0
H584 H 0.23449 0.97608 0.51818 0.0
C585 C 0.31946 0.89874 0.47235 0.0
C586 C 0.31086 0.93749 0.4522 0.0
H587 H 0.30823 0.86013 0.52599 0.0
H588 H 0.34459 0.87781 0.4614 0.0
C589 C 0.27812 0.96396 0.46806 0.0
C590 C 0.81553 0.52834 0.7176 0.0
C591 C 0.84162 0.56154 0.70207 0.0
H592 H 0.80359 0.48445 0.76754 0.0
C593 C 0.87993 0.57083 0.7227 0.0
H594 H 0.78568 0.5204 0.70252 0.0
C595 C 0.88971 0.55046 0.76001 0.0
C596 C 0.86182 0.52 0.77711 0.0
H597 H 0.90053 0.59633 0.71199 0.0
H598 H 0.91799 0.56033 0.77681 0.0
C599 C 0.82555 0.50774 0.75486 0.0
C600 C 0.8187 0.89942 0.04479 0.0
C601 C 0.81046 0.93842 0.06464 0.0
H602 H 0.80723 0.86053 0.99139 0.0
C603 C 0.77804 0.96511 0.04854 0.0
H604 H 0.84358 0.87832 0.05596 0.0
C605 C 0.75729 0.95493 0.0114 0.0
C606 C 0.76852 0.91783 0.98992 0.0
H607 H 0.77088 0.9955 0.06301 0.0
H608 H 0.73473 0.97733 0.99819 0.0
C609 C 0.79811 0.88941 1.00764 0.0
C610 C 0.37959 0.56962 0.79453 0.0
C611 C 0.34086 0.56095 0.81467 0.0
H612 H 0.41818 0.55855 0.74087 0.0
C613 C 0.31441 0.52823 0.79875 0.0
H614 H 0.40048 0.59473 0.80555 0.0
C615 C 0.32456 0.50755 0.76156 0.0
C616 C 0.36134 0.51919 0.7398 0.0
H617 H 0.28423 0.52077 0.81344 0.0
H618 H 0.30234 0.4847 0.74853 0.0
C619 C 0.38953 0.54913 0.75731 0.0
C620 C 0.77118 0.07411 0.51127 0.0
C621 C 0.7599 0.1112 0.4898 0.0
H622 H 0.75771 0.03356 0.56289 0.0
C623 C 0.73033 0.13961 0.50758 0.0
H624 H 0.79374 0.05172 0.49802 0.0
C625 C 0.70982 0.12961 0.54477 0.0
C626 C 0.71812 0.09063 0.56461 0.0
H627 H 0.72118 0.16848 0.49134 0.0
H628 H 0.68496 0.15072 0.55598 0.0
C629 C 0.75052 0.06394 0.54844 0.0
C630 C 0.21381 0.50088 0.29897 0.0
C631 C 0.18743 0.46804 0.31475 0.0
H632 H 0.22591 0.54453 0.24887 0.0
C633 C 0.14885 0.4592 0.29442 0.0
H634 H 0.24388 0.50847 0.31381 0.0
C635 C 0.139 0.47966 0.25717 0.0
C636 C 0.16713 0.50975 0.23981 0.0
H637 H 0.12801 0.43398 0.30531 0.0
H638 H 0.11047 0.47012 0.24058 0.0
C639 C 0.20374 0.52155 0.26176 0.0
C640 C 0.77108 0.57396 0.50557 0.0
C641 C 0.75999 0.61123 0.52686 0.0
H642 H 0.75743 0.53322 0.45412 0.0
C643 C 0.7306 0.63972 0.50894 0.0
H644 H 0.79348 0.5515 0.51894 0.0
C645 C 0.71005 0.62964 0.47179 0.0
C646 C 0.71815 0.59049 0.45213 0.0
H647 H 0.72159 0.66872 0.52504 0.0
H648 H 0.68532 0.65082 0.46046 0.0
C649 C 0.75039 0.56371 0.46843 0.0
C650 C 0.20376 0.02158 0.75545 0.0
C651 C 0.16687 1.01004 0.7771 0.0
H652 H 0.24422 1.00826 0.70369 0.0
C653 C 0.13868 0.98015 0.7595 0.0
H654 H 0.226 0.04436 0.76855 0.0
C655 C 0.14869 0.95964 0.72231 0.0
C656 C 0.1875 0.96822 0.70227 0.0
H657 H 0.10996 0.9708 0.77587 0.0
H658 H 0.12777 0.93458 0.71123 0.0
C659 C 0.21397 1.00087 0.71828 0.0
C660 C 0.79948 0.38939 0.00964 0.0
C661 C 0.76931 0.41748 0.02697 0.0
H662 H 0.84523 0.37848 0.96154 0.0
C663 C 0.75744 0.45407 1.00501 0.0
H664 H 0.80907 0.36088 0.02624 0.0
C665 C 0.7781 0.46415 0.9678 0.0
C666 C 0.81103 0.43784 0.95206 0.0
H667 H 0.7344 0.4762 0.01788 0.0
H668 H 0.77045 0.49421 0.95296 0.0
C669 C 0.81994 0.39926 0.9724 0.0
C670 C 0.31472 0.02832 0.21803 0.0
C671 C 0.34118 0.06108 0.20222 0.0
H672 H 0.30257 0.98471 0.26815 0.0
C673 C 0.37984 0.06978 0.22247 0.0
H674 H 0.2846 0.02083 0.20325 0.0
C675 C 0.3897 0.04926 0.25969 0.0
C676 C 0.36151 0.01926 0.27709 0.0
H677 H 0.40074 0.09493 0.21154 0.0
H678 H 0.4183 0.0587 0.27622 0.0
C679 C 0.3248 1.0076 0.25522 0.0
C680 C 0.31945 0.39864 0.54458 0.0
C681 C 0.31083 0.43739 0.56475 0.0
H682 H 0.30823 0.36002 0.49094 0.0
C683 C 0.27805 0.46383 0.54892 0.0
H684 H 0.34461 0.37775 0.55552 0.0
C685 C 0.25726 0.45366 0.51179 0.0
C686 C 0.26882 0.41685 0.49 0.0
H687 H 0.27061 0.49402 0.56362 0.0
H688 H 0.23438 0.4759 0.49883 0.0
C689 C 0.29884 0.38867 0.50743 0.0
C690 C 0.82591 1.00758 0.26178 0.0
C691 C 0.86221 0.01986 0.2396 0.0
H692 H 0.7859 0.02023 0.31403 0.0
C693 C 0.89004 0.05036 0.25676 0.0
H694 H 0.80398 0.98428 0.24904 0.0
C695 C 0.88015 0.07073 0.29405 0.0
C696 C 0.84181 0.06141 0.3146 0.0
H697 H 0.91833 0.06025 0.24 0.0
H698 H 0.90071 0.09625 0.30479 0.0
C699 C 0.81578 0.02819 0.29902 0.0
C700 C 0.25047 0.5653 0.04886 0.0
C701 C 0.21768 0.59171 0.06473 0.0
H702 H 0.29408 0.55325 0.99871 0.0
C703 C 0.20895 0.63041 0.04454 0.0
H704 H 0.25799 0.53514 0.06357 0.0
C705 C 0.22946 0.64036 1.00733 0.0
C706 C 0.25949 0.61221 0.98988 0.0
H707 H 0.18377 0.65127 0.0555 0.0
H708 H 0.21999 0.66898 0.99085 0.0
C709 C 0.27117 0.57545 0.01169 0.0
C710 C 0.70278 0.0214 0.76178 0.0
C711 C 0.66643 1.00921 0.73962 0.0
H712 H 0.74278 1.00868 0.81402 0.0
C713 C 0.63853 0.9788 0.75681 0.0
H714 H 0.72477 0.04463 0.74903 0.0
C715 C 0.64838 0.95843 0.7941 0.0
C716 C 0.68676 0.96766 0.81464 0.0
H717 H 0.6102 0.96898 0.74007 0.0
H718 H 0.62776 0.93298 0.80487 0.0
C719 C 0.71287 1.00079 0.79902 0.0
C720 C 0.48826 0.26709 0.13602 0.0
C721 C 0.47848 0.23489 0.10705 0.0
H722 H 0.53458 0.31384 0.15643 0.0
C723 C 0.5107 0.22171 0.07971 0.0
H724 H 0.46395 0.27815 0.15727 0.0
C725 C 0.55056 0.24174 0.07927 0.0
C726 C 0.55971 0.27604 0.10596 0.0
H727 H 0.50433 0.19677 0.05735 0.0
H728 H 0.57393 0.23128 0.05679 0.0
C729 C 0.52862 0.28754 0.13548 0.0
C730 C 0.55712 0.7605 0.32972 0.0
C731 C 0.54417 0.72823 0.35711 0.0
H732 H 0.54721 0.8237 0.30681 0.0
C733 C 0.51204 0.73793 0.38618 0.0
H734 H 0.58201 0.75422 0.3073 0.0
C735 C 0.49144 0.77823 0.38569 0.0
C736 C 0.50271 0.80935 0.35612 0.0
H737 H 0.50116 0.71359 0.40747 0.0
H738 H 0.4652 0.78412 0.40671 0.0
C739 C 0.53694 0.80031 0.32934 0.0
C740 C 1.00012 0.74172 0.63549 0.0
C741 C 0.96897 0.7533 0.60606 0.0
H742 H 0.06483 0.75106 0.65718 0.0
C743 C 0.97806 0.78767 0.57946 0.0
H744 H 0.9942 0.71537 0.65638 0.0
C745 C 0.01793 0.80769 0.57987 0.0
C746 C 0.0502 0.79445 0.60712 0.0
H747 H 0.95465 0.79819 0.55705 0.0
H748 H 0.02426 0.83269 0.55757 0.0
C749 C 0.04048 0.76217 0.63601 0.0
C750 C 0.99151 0.2789 0.88561 0.0
C751 C 1.00291 0.31004 0.85611 0.0
H752 H 1.00109 0.21423 0.90735 0.0
C753 C 0.03721 0.30099 0.82941 0.0
H754 H 0.96522 0.2848 0.90656 0.0
C755 C 0.05735 0.26116 0.82982 0.0
C756 C 0.04428 0.22889 0.85714 0.0
H757 H 0.04758 0.3244 0.80694 0.0
H758 H 0.0823 0.25487 0.80746 0.0
C759 C 1.01207 0.23858 0.88612 0.0
C760 C 0.5282 0.78748 0.88132 0.0
C761 C 0.55933 0.77598 0.9108 0.0
H762 H 0.46351 0.77807 0.85959 0.0
C763 C 0.55022 0.74167 0.93747 0.0
H764 H 0.53414 0.81378 0.86038 0.0
C765 C 0.51036 0.72163 0.93706 0.0
C766 C 0.47811 0.73481 0.90976 0.0
H767 H 0.57361 0.73121 0.95992 0.0
H768 H 0.50402 0.69669 0.95941 0.0
C769 C 0.48785 0.76702 0.88081 0.0
C770 C 0.53701 0.3004 0.68746 0.0
C771 C 0.50276 0.30945 0.6607 0.0
H772 H 0.58207 0.2543 0.70947 0.0
C773 C 0.49144 0.27831 0.63116 0.0
H774 H 0.54732 0.32381 0.70996 0.0
C775 C 0.51201 0.23799 0.63066 0.0
C776 C 0.54417 0.2283 0.6597 0.0
H777 H 0.46519 0.2842 0.61016 0.0
H778 H 0.5011 0.21364 0.60939 0.0
C779 C 0.55717 0.26058 0.68706 0.0
C780 C 0.04049 0.26201 0.38084 0.0
C781 C 0.05026 0.29423 0.40981 0.0
H782 H 0.99418 0.21529 0.36041 0.0
C783 C 0.01802 0.30745 0.4371 0.0
H784 H 0.06483 0.25093 0.35964 0.0
C785 C 0.97813 0.28746 0.43749 0.0
C786 C 0.969 0.25314 0.41081 0.0
H787 H 0.02437 0.3324 0.45945 0.0
H788 H 0.95474 0.29796 0.45992 0.0
C789 C 1.00013 0.24159 0.38134 0.0
C790 C 0.99168 0.72875 0.1876 0.0
C791 C 0.02589 0.71964 0.16081 0.0
H792 H 0.94665 0.77489 0.2096 0.0
C793 C 0.03717 0.75073 0.13121 0.0
H794 H 0.98139 0.70538 0.21015 0.0
C795 C 0.0166 0.79104 0.13068 0.0
C796 C 0.98449 0.80079 0.15975 0.0
H797 H 0.06339 0.74479 0.11018 0.0
H798 H 0.02749 0.81535 0.10936 0.0
C799 C 0.97152 0.76857 0.18718 0.0
C800 C 0.24917 0.28968 0.07378 0.0
C801 C 0.22775 0.26181 0.1006 0.0
H802 H 0.2522 0.35209 0.04774 0.0
C803 C 0.19038 0.27582 0.12057 0.0
H804 H 0.27816 0.27986 0.05816 0.0
C805 C 0.17558 0.31757 0.1148 0.0
C806 C 0.19762 0.34567 0.08858 0.0
H807 H 0.17348 0.25509 0.1418 0.0
H808 H 0.14708 0.32794 0.13087 0.0
C809 C 0.23421 0.33107 0.06776 0.0
C810 C 0.46111 0.42552 0.36531 0.0
C811 C 0.43302 0.44762 0.33915 0.0
H812 H 0.5236 0.42332 0.39225 0.0
C813 C 0.44756 0.4843 0.31844 0.0
H814 H 0.45077 0.39696 0.3813 0.0
C815 C 0.48893 0.49924 0.32446 0.0
C816 C 0.51682 0.47772 0.35119 0.0
H817 H 0.42652 0.50233 0.29846 0.0
H818 H 0.49872 0.52827 0.3089 0.0
C819 C 0.50285 0.4403 0.3711 0.0
C820 C 0.33819 0.75326 0.62078 0.0
C821 C 0.30084 0.76729 0.6008 0.0
H822 H 0.38147 0.70112 0.63105 0.0
C823 C 0.27941 0.73943 0.57397 0.0
H824 H 0.35511 0.77398 0.64201 0.0
C825 C 0.29435 0.69803 0.56793 0.0
C826 C 0.33093 0.68341 0.58875 0.0
H827 H 0.25043 0.74926 0.55834 0.0
H828 H 0.27635 0.67702 0.5479 0.0
C829 C 0.35297 0.7115 0.61499 0.0
C830 C 0.02533 0.58948 0.87099 0.0
C831 C 1.01117 0.55228 0.85082 0.0
H832 H 0.0776 0.63254 0.88141 0.0
C833 C 0.03889 0.53093 0.82379 0.0
H834 H 1.00471 0.60632 0.89238 0.0
C835 C 0.08029 0.54575 0.81778 0.0
C836 C 0.09506 0.58217 0.83878 0.0
H837 H 0.02895 0.50206 0.80801 0.0
H838 H 0.1012 0.52778 0.79761 0.0
C839 C 0.06711 0.60417 0.8652 0.0
C840 C 0.78038 0.74035 0.94365 0.0
C841 C 0.80173 0.76808 0.91665 0.0
H842 H 0.77719 0.67799 0.96976 0.0
C843 C 0.83895 0.75391 0.89653 0.0
H844 H 0.75149 0.75029 0.95939 0.0
C845 C 0.85362 0.7121 0.9023 0.0
C846 C 0.83159 0.68411 0.92864 0.0
H847 H 0.8558 0.77454 0.87517 0.0
H848 H 0.88198 0.7016 0.88609 0.0
C849 C 0.79518 0.69891 0.94964 0.0
C850 C 0.58039 0.54485 0.69903 0.0
C851 C 0.5952 0.58125 0.67803 0.0
H852 H 0.52896 0.50128 0.70888 0.0
C853 C 0.5672 0.60336 0.65175 0.0
H854 H 0.60132 0.5268 0.7191 0.0
C855 C 0.52536 0.58879 0.64607 0.0
C856 C 0.51115 0.55161 0.66621 0.0
H857 H 0.57771 0.63172 0.63554 0.0
H858 H 0.50472 0.60572 0.62477 0.0
C859 C 0.53892 0.53015 0.69312 0.0
C860 C 0.6893 0.275 0.39619 0.0
C861 C 0.72647 0.26089 0.41642 0.0
H862 H 0.64619 0.32724 0.38567 0.0
C863 C 0.7477 0.28865 0.44349 0.0
H864 H 0.67256 0.25435 0.37476 0.0
C865 C 0.73279 0.33006 0.44947 0.0
C866 C 0.69641 0.34478 0.42839 0.0
H867 H 0.77655 0.27876 0.45931 0.0
H868 H 0.75067 0.351 0.46967 0.0
C869 C 0.67453 0.31678 0.40194 0.0
C870 C 0.96145 0.42563 0.15193 0.0
C871 C 0.93348 0.44771 0.17826 0.0
H872 H 0.02388 0.42332 0.12483 0.0
C873 C 0.94829 0.48414 0.19923 0.0
H874 H 0.95095 0.39725 0.13575 0.0
C875 C 0.98973 0.49889 0.19324 0.0
C876 C 0.01746 0.47746 0.16627 0.0
H877 H 0.92738 0.50218 0.21934 0.0
H878 H 0.99969 0.52778 0.20897 0.0
C879 C 1.00326 0.44024 0.14616 0.0
C880 C 0.74774 0.78878 0.57319 0.0
C881 C 0.72647 0.76101 0.60022 0.0
H882 H 0.75077 0.85113 0.54705 0.0
C883 C 0.68926 0.77512 0.6204 0.0
H884 H 0.77662 0.77888 0.55741 0.0
C885 C 0.67451 0.8169 0.61464 0.0
C886 C 0.69644 0.84491 0.58825 0.0
H887 H 0.67248 0.75447 0.64178 0.0
H888 H 0.64615 0.82736 0.63088 0.0
C889 C 0.73285 0.83018 0.56721 0.0
C890 C 0.96104 0.92629 0.86522 0.0
C891 C 0.93296 0.94841 0.83906 0.0
H892 H 0.02355 0.924 0.89214 0.0
C893 C 0.94758 0.98502 0.81828 0.0
H894 H 0.95067 0.89778 0.88126 0.0
C895 C 0.989 0.99988 0.82427 0.0
C896 C 0.01687 0.97835 0.85101 0.0
H897 H 0.92657 1.00308 0.7983 0.0
H898 H 0.99884 0.02888 0.80867 0.0
C899 C 1.00282 0.94099 0.87097 0.0
C900 C 0.79575 0.19886 0.06736 0.0
C901 C 0.83216 0.18412 0.08837 0.0
H902 H 0.75198 0.25016 0.05761 0.0
C903 C 0.85408 0.2121 0.11481 0.0
H904 H 0.77784 0.17793 0.04717 0.0
C905 C 0.83932 0.25387 0.12062 0.0
C906 C 0.80212 0.268 0.10045 0.0
H907 H 0.88244 0.20163 0.13104 0.0
H908 H 0.8561 0.27451 0.14203 0.0
C909 C 0.78085 0.24026 0.07339 0.0
C910 C 0.52548 0.08866 0.3707 0.0
C911 C 0.51126 0.05144 0.3506 0.0
H912 H 0.57783 0.13161 0.38113 0.0
C913 C 0.53899 0.02996 0.32367 0.0
H914 H 0.50486 0.10561 0.392 0.0
C915 C 0.58046 0.04467 0.31771 0.0
C916 C 0.59529 0.08109 0.33866 0.0
H917 H 0.52902 1.00107 0.30795 0.0
H918 H 0.60137 0.02659 0.29762 0.0
C919 C 0.56731 0.10323 0.36496 0.0
C920 C 0.27961 0.23943 0.44297 0.0
C921 C 0.30097 0.26725 0.41607 0.0
H922 H 0.27664 0.17706 0.46912 0.0
C923 C 0.33829 0.25322 0.39604 0.0
H924 H 0.25065 0.24927 0.45864 0.0
C925 C 0.35311 0.21148 0.40185 0.0
C926 C 0.33114 0.18342 0.42816 0.0
H927 H 0.35515 0.27392 0.37475 0.0
H928 H 0.38158 0.20109 0.38575 0.0
C929 C 0.29459 0.19805 0.44903 0.0
C930 C 0.03967 0.02988 0.19224 0.0
C931 C 1.0118 0.05132 0.16543 0.0
H932 H 0.10205 0.02685 0.21831 0.0
C933 C 0.02581 0.08867 0.14542 0.0
H934 H 0.02985 1.00089 0.20788 0.0
C935 C 0.06754 0.10347 0.15121 0.0
C936 C 0.09561 0.08144 0.17747 0.0
H937 H 1.00508 0.10559 0.1242 0.0
H938 H 0.0779 0.13197 0.13516 0.0
C939 C 0.08103 0.04483 0.19827 0.0
C940 C 0.17519 0.81755 0.90164 0.0
C941 C 0.19713 0.84565 0.92794 0.0
H942 H 0.17323 0.75508 0.87459 0.0
C943 C 0.23373 0.83111 0.94879 0.0
H944 H 0.1467 0.82789 0.88555 0.0
C945 C 0.24876 0.78975 0.94275 0.0
C946 C 0.22741 0.76186 0.91589 0.0
H947 H 0.25164 0.85215 0.96887 0.0
H948 H 0.27774 0.77997 0.95842 0.0
C949 C 0.19007 0.77583 0.89585 0.0
C950 C 0.46115 0.92557 0.6514 0.0
C951 C 0.4331 0.9476 0.67768 0.0
H952 H 0.52357 0.92345 0.62432 0.0
C953 C 0.44768 0.98424 0.69844 0.0
H954 H 0.45079 0.89704 0.63537 0.0
C955 C 0.48903 0.99921 0.69236 0.0
C956 C 0.51687 0.97776 0.66553 0.0
H957 H 0.42667 1.00222 0.7185 0.0
H958 H 0.49884 0.02822 0.70797 0.0
C959 C 0.50286 0.94038 0.64556 0.0
loop_
_geom_bond_atom_site_label_1
_geom_bond_atom_site_label_2
_geom_bond_distance
_geom_bond_site_symmetry_2
_ccdc_geom_bond_type
Co0 N5 2.057 . S
Co0 O17 2.021 . S
Co0 O20 2.062 . S
Co0 O24 2.117 . S
Co0 O25 2.020 . S
C1 O21 1.259 . S
C1 O24 1.258 . S
Co2 N11 2.057 . S
Co2 O18 2.117 . S
Co2 O19 2.020 . S
Co2 O21 2.021 . S
Co2 O26 2.062 . S
C3 N5 1.316 . S
C3 N6 1.347 . S
C3 H8 0.931 . S
C4 N5 1.375 . S
C4 C7 1.350 . S
C4 H9 0.930 . S
N5 Co0 2.057 . S
N5 C3 1.316 . S
N5 C4 1.375 . S
N6 C3 1.347 . S
N6 C7 1.373 . S
C7 C4 1.350 . S
C7 N6 1.373 . S
C7 H28 0.931 . S
H8 C3 0.931 . S
H9 C4 0.930 . S
C10 O17 1.259 . S
C10 O18 1.258 . S
N11 Co2 2.057 . S
N11 C12 1.316 . S
N11 C13 1.375 . S
C12 N11 1.316 . S
C12 N14 1.347 . S
C12 H23 0.931 . S
C13 N11 1.375 . S
C13 C15 1.350 . S
C13 H22 0.930 . S
N14 C12 1.347 . S
N14 C15 1.373 . S
C15 C13 1.350 . S
C15 N14 1.373 . S
C15 H29 0.931 . S
C16 O19 1.256 . S
C16 O20 1.255 . S
O17 Co0 2.021 . S
O17 C10 1.259 . S
O18 Co2 2.117 . S
O18 C10 1.258 . S
O19 Co2 2.020 . S
O19 C16 1.256 . S
O20 Co0 2.062 . S
O20 C16 1.255 . S
O21 C1 1.259 . S
O21 Co2 2.021 . S
H22 C13 0.930 . S
H23 C12 0.931 . S
O24 Co0 2.117 . S
O24 C1 1.258 . S
O25 Co0 2.020 . S
O25 C27 1.256 . S
O26 Co2 2.062 . S
O26 C27 1.255 . S
C27 O25 1.256 . S
C27 O26 1.255 . S
H28 C7 0.931 . S
H29 C15 0.931 . S
Co30 N35 2.057 . S
Co30 O47 2.021 . S
Co30 O50 2.062 . S
Co30 O54 2.117 . S
Co30 O55 2.020 . S
C31 O51 1.259 . S
C31 O54 1.258 . S
Co32 N41 2.057 . S
Co32 O48 2.117 . S
Co32 O49 2.020 . S
Co32 O51 2.021 . S
Co32 O56 2.062 . S
C33 N35 1.316 . S
C33 N36 1.347 . S
C33 H38 0.931 . S
C34 N35 1.375 . S
C34 C37 1.350 . S
C34 H39 0.930 . S
N35 Co30 2.057 . S
N35 C33 1.316 . S
N35 C34 1.375 . S
N36 C33 1.347 . S
N36 C37 1.373 . S
C37 C34 1.350 . S
C37 N36 1.373 . S
C37 H58 0.931 . S
H38 C33 0.931 . S
H39 C34 0.930 . S
C40 O47 1.259 . S
C40 O48 1.258 . S
N41 Co32 2.057 . S
N41 C42 1.316 . S
N41 C43 1.375 . S
C42 N41 1.316 . S
C42 N44 1.347 . S
C42 H53 0.931 . S
C43 N41 1.375 . S
C43 C45 1.350 . S
C43 H52 0.930 . S
N44 C42 1.347 . S
N44 C45 1.373 . S
C45 C43 1.350 . S
C45 N44 1.373 . S
C45 H59 0.931 . S
C46 O49 1.256 . S
C46 O50 1.255 . S
O47 Co30 2.021 . S
O47 C40 1.259 . S
O48 Co32 2.117 . S
O48 C40 1.258 . S
O49 Co32 2.020 . S
O49 C46 1.256 . S
O50 Co30 2.062 . S
O50 C46 1.255 . S
O51 C31 1.259 . S
O51 Co32 2.021 . S
H52 C43 0.930 . S
H53 C42 0.931 . S
O54 Co30 2.117 . S
O54 C31 1.258 . S
O55 Co30 2.020 . S
O55 C57 1.256 . S
O56 Co32 2.062 . S
O56 C57 1.255 . S
C57 O55 1.256 . S
C57 O56 1.255 . S
H58 C37 0.931 . S
H59 C45 0.931 . S
Co60 N65 2.057 . S
Co60 O77 2.021 . S
Co60 O80 2.062 . S
Co60 O84 2.117 . S
Co60 O85 2.020 . S
C61 O81 1.259 . S
C61 O84 1.258 . S
Co62 N71 2.057 . S
Co62 O78 2.117 . S
Co62 O79 2.020 . S
Co62 O81 2.021 . S
Co62 O86 2.062 . S
C63 N65 1.316 . S
C63 N66 1.347 . S
C63 H68 0.931 . S
C64 N65 1.375 . S
C64 C67 1.350 . S
C64 H69 0.930 . S
N65 Co60 2.057 . S
N65 C63 1.316 . S
N65 C64 1.375 . S
N66 C63 1.347 . S
N66 C67 1.373 . S
C67 C64 1.350 . S
C67 N66 1.373 . S
C67 H88 0.931 . S
H68 C63 0.931 . S
H69 C64 0.930 . S
C70 O77 1.259 . S
C70 O78 1.258 . S
N71 Co62 2.057 . S
N71 C72 1.316 . S
N71 C73 1.375 . S
C72 N71 1.316 . S
C72 N74 1.347 . S
C72 H83 0.931 . S
C73 N71 1.375 . S
C73 C75 1.350 . S
C73 H82 0.930 . S
N74 C72 1.347 . S
N74 C75 1.373 . S
C75 C73 1.350 . S
C75 N74 1.373 . S
C75 H89 0.931 . S
C76 O79 1.256 . S
C76 O80 1.255 . S
O77 Co60 2.021 . S
O77 C70 1.259 . S
O78 Co62 2.117 . S
O78 C70 1.258 . S
O79 Co62 2.020 . S
O79 C76 1.256 . S
O80 Co60 2.062 . S
O80 C76 1.255 . S
O81 C61 1.259 . S
O81 Co62 2.021 . S
H82 C73 0.930 . S
H83 C72 0.931 . S
O84 Co60 2.117 . S
O84 C61 1.258 . S
O85 Co60 2.020 . S
O85 C87 1.256 . S
O86 Co62 2.062 . S
O86 C87 1.255 . S
C87 O85 1.256 . S
C87 O86 1.255 . S
H88 C67 0.931 . S
H89 C75 0.931 . S
Co90 N95 2.057 . S
Co90 O107 2.021 . S
Co90 O110 2.062 . S
Co90 O114 2.117 . S
Co90 O115 2.020 . S
C91 O111 1.259 . S
C91 O114 1.258 . S
Co92 N101 2.057 . S
Co92 O108 2.117 . S
Co92 O109 2.020 . S
Co92 O111 2.021 . S
Co92 O116 2.062 . S
C93 N95 1.316 . S
C93 N96 1.347 . S
C93 H98 0.931 . S
C94 N95 1.375 . S
C94 C97 1.350 . S
C94 H99 0.930 . S
N95 Co90 2.057 . S
N95 C93 1.316 . S
N95 C94 1.375 . S
N96 C93 1.347 . S
N96 C97 1.373 . S
C97 C94 1.350 . S
C97 N96 1.373 . S
C97 H118 0.931 . S
H98 C93 0.931 . S
H99 C94 0.930 . S
C100 O107 1.259 . S
C100 O108 1.258 . S
N101 Co92 2.057 . S
N101 C102 1.316 . S
N101 C103 1.375 . S
C102 N101 1.316 . S
C102 N104 1.347 . S
C102 H113 0.931 . S
C103 N101 1.375 . S
C103 C105 1.350 . S
C103 H112 0.930 . S
N104 C102 1.347 . S
N104 C105 1.373 . S
C105 C103 1.350 . S
C105 N104 1.373 . S
C105 H119 0.931 1_655 S
C106 O109 1.256 . S
C106 O110 1.255 . S
O107 Co90 2.021 . S
O107 C100 1.259 . S
O108 Co92 2.117 . S
O108 C100 1.258 . S
O109 Co92 2.020 . S
O109 C106 1.256 . S
O110 Co90 2.062 . S
O110 C106 1.255 . S
O111 C91 1.259 . S
O111 Co92 2.021 . S
H112 C103 0.930 . S
H113 C102 0.931 . S
O114 Co90 2.117 . S
O114 C91 1.258 . S
O115 Co90 2.020 . S
O115 C117 1.256 . S
O116 Co92 2.062 . S
O116 C117 1.255 . S
C117 O115 1.256 . S
C117 O116 1.255 . S
H118 C97 0.931 . S
H119 C105 0.931 1_455 S
Co120 N125 2.057 . S
Co120 O137 2.021 . S
Co120 O140 2.062 . S
Co120 O144 2.117 . S
Co120 O145 2.020 . S
C121 O141 1.259 . S
C121 O144 1.258 . S
Co122 N131 2.057 . S
Co122 O138 2.117 . S
Co122 O139 2.020 . S
Co122 O141 2.021 . S
Co122 O146 2.062 . S
C123 N125 1.316 . S
C123 N126 1.347 . S
C123 H128 0.931 . S
C124 N125 1.375 . S
C124 C127 1.350 . S
C124 H129 0.930 . S
N125 Co120 2.057 . S
N125 C123 1.316 . S
N125 C124 1.375 . S
N126 C123 1.347 . S
N126 C127 1.373 . S
C127 C124 1.350 . S
C127 N126 1.373 . S
C127 H148 0.931 . S
H128 C123 0.931 . S
H129 C124 0.930 . S
C130 O137 1.259 . S
C130 O138 1.258 . S
N131 Co122 2.057 . S
N131 C132 1.316 . S
N131 C133 1.375 . S
C132 N131 1.316 . S
C132 N134 1.347 . S
C132 H143 0.931 . S
C133 N131 1.375 . S
C133 C135 1.350 . S
C133 H142 0.930 . S
N134 C132 1.347 . S
N134 C135 1.373 . S
C135 C133 1.350 . S
C135 N134 1.373 . S
C135 H149 0.931 . S
C136 O139 1.256 . S
C136 O140 1.255 . S
O137 Co120 2.021 . S
O137 C130 1.259 . S
O138 Co122 2.117 . S
O138 C130 1.258 . S
O139 Co122 2.020 . S
O139 C136 1.256 . S
O140 Co120 2.062 . S
O140 C136 1.255 . S
O141 C121 1.259 . S
O141 Co122 2.021 . S
H142 C133 0.930 . S
H143 C132 0.931 . S
O144 Co120 2.117 . S
O144 C121 1.258 . S
O145 Co120 2.020 . S
O145 C147 1.256 . S
O146 Co122 2.062 . S
O146 C147 1.255 . S
C147 O145 1.256 . S
C147 O146 1.255 . S
H148 C127 0.931 . S
H149 C135 0.931 . S
Co150 N155 2.057 . S
Co150 O167 2.021 . S
Co150 O170 2.062 . S
Co150 O174 2.117 . S
Co150 O175 2.020 . S
C151 O171 1.259 . S
C151 O174 1.258 . S
Co152 N161 2.057 . S
Co152 O168 2.117 . S
Co152 O169 2.020 . S
Co152 O171 2.021 . S
Co152 O176 2.062 . S
C153 N155 1.316 . S
C153 N156 1.347 . S
C153 H158 0.931 . S
C154 N155 1.375 . S
C154 C157 1.350 . S
C154 H159 0.930 . S
N155 Co150 2.057 . S
N155 C153 1.316 . S
N155 C154 1.375 . S
N156 C153 1.347 . S
N156 C157 1.373 . S
C157 C154 1.350 . S
C157 N156 1.373 . S
C157 H178 0.931 . S
H158 C153 0.931 . S
H159 C154 0.930 . S
C160 O167 1.259 . S
C160 O168 1.258 . S
N161 Co152 2.057 . S
N161 C162 1.316 . S
N161 C163 1.375 . S
C162 N161 1.316 . S
C162 N164 1.347 . S
C162 H173 0.931 . S
C163 N161 1.375 . S
C163 C165 1.350 . S
C163 H172 0.930 . S
N164 C162 1.347 . S
N164 C165 1.373 . S
C165 C163 1.350 . S
C165 N164 1.373 . S
C165 H179 0.931 . S
C166 O169 1.256 . S
C166 O170 1.255 . S
O167 Co150 2.021 . S
O167 C160 1.259 . S
O168 Co152 2.117 . S
O168 C160 1.258 . S
O169 Co152 2.020 . S
O169 C166 1.256 . S
O170 Co150 2.062 . S
O170 C166 1.255 . S
O171 C151 1.259 . S
O171 Co152 2.021 . S
H172 C163 0.930 . S
H173 C162 0.931 . S
O174 Co150 2.117 . S
O174 C151 1.258 . S
O175 Co150 2.020 . S
O175 C177 1.256 . S
O176 Co152 2.062 . S
O176 C177 1.255 . S
C177 O175 1.256 . S
C177 O176 1.255 . S
H178 C157 0.931 . S
H179 C165 0.931 . S
Co180 N185 2.057 . S
Co180 O197 2.021 . S
Co180 O200 2.062 . S
Co180 O204 2.117 . S
Co180 O205 2.020 . S
C181 O201 1.259 . S
C181 O204 1.258 . S
Co182 N191 2.057 . S
Co182 O198 2.117 . S
Co182 O199 2.020 . S
Co182 O201 2.021 . S
Co182 O206 2.062 . S
C183 N185 1.316 . S
C183 N186 1.347 . S
C183 H188 0.931 . S
C184 N185 1.375 . S
C184 C187 1.350 . S
C184 H189 0.930 . S
N185 Co180 2.057 . S
N185 C183 1.316 . S
N185 C184 1.375 . S
N186 C183 1.347 . S
N186 C187 1.373 . S
C187 C184 1.350 . S
C187 N186 1.373 . S
C187 H208 0.931 . S
H188 C183 0.931 . S
H189 C184 0.930 . S
C190 O197 1.259 . S
C190 O198 1.258 . S
N191 Co182 2.057 . S
N191 C192 1.316 . S
N191 C193 1.375 . S
C192 N191 1.316 . S
C192 N194 1.347 . S
C192 H203 0.931 . S
C193 N191 1.375 . S
C193 C195 1.350 . S
C193 H202 0.930 . S
N194 C192 1.347 . S
N194 C195 1.373 . S
C195 C193 1.350 . S
C195 N194 1.373 . S
C195 H209 0.931 . S
C196 O199 1.256 . S
C196 O200 1.255 . S
O197 Co180 2.021 . S
O197 C190 1.259 . S
O198 Co182 2.117 . S
O198 C190 1.258 . S
O199 Co182 2.020 . S
O199 C196 1.256 . S
O200 Co180 2.062 . S
O200 C196 1.255 . S
O201 C181 1.259 . S
O201 Co182 2.021 . S
H202 C193 0.930 . S
H203 C192 0.931 . S
O204 Co180 2.117 . S
O204 C181 1.258 . S
O205 Co180 2.020 . S
O205 C207 1.256 . S
O206 Co182 2.062 . S
O206 C207 1.255 . S
C207 O205 1.256 . S
C207 O206 1.255 . S
H208 C187 0.931 . S
H209 C195 0.931 . S
Co210 N215 2.057 . S
Co210 O227 2.021 . S
Co210 O230 2.062 . S
Co210 O234 2.117 . S
Co210 O235 2.020 . S
C211 O231 1.259 . S
C211 O234 1.258 . S
Co212 N221 2.057 . S
Co212 O228 2.117 . S
Co212 O229 2.020 . S
Co212 O231 2.021 . S
Co212 O236 2.062 . S
C213 N215 1.316 . S
C213 N216 1.347 . S
C213 H218 0.931 . S
C214 N215 1.375 . S
C214 C217 1.350 . S
C214 H219 0.930 . S
N215 Co210 2.057 . S
N215 C213 1.316 . S
N215 C214 1.375 . S
N216 C213 1.347 . S
N216 C217 1.373 . S
C217 C214 1.350 . S
C217 N216 1.373 . S
C217 H238 0.931 1_455 S
H218 C213 0.931 . S
H219 C214 0.930 . S
C220 O227 1.259 . S
C220 O228 1.258 . S
N221 Co212 2.057 . S
N221 C222 1.316 . S
N221 C223 1.375 . S
C222 N221 1.316 . S
C222 N224 1.347 . S
C222 H233 0.931 . S
C223 N221 1.375 . S
C223 C225 1.350 . S
C223 H232 0.930 . S
N224 C222 1.347 . S
N224 C225 1.373 . S
C225 C223 1.350 . S
C225 N224 1.373 . S
C225 H239 0.931 . S
C226 O229 1.256 . S
C226 O230 1.255 . S
O227 Co210 2.021 . S
O227 C220 1.259 . S
O228 Co212 2.117 . S
O228 C220 1.258 . S
O229 Co212 2.020 . S
O229 C226 1.256 . S
O230 Co210 2.062 . S
O230 C226 1.255 . S
O231 C211 1.259 . S
O231 Co212 2.021 . S
H232 C223 0.930 . S
H233 C222 0.931 . S
O234 Co210 2.117 . S
O234 C211 1.258 . S
O235 Co210 2.020 . S
O235 C237 1.256 . S
O236 Co212 2.062 . S
O236 C237 1.255 . S
C237 O235 1.256 . S
C237 O236 1.255 . S
H238 C217 0.931 1_655 S
H239 C225 0.931 . S
Co240 N245 2.057 . S
Co240 O257 2.021 . S
Co240 O260 2.062 . S
Co240 O264 2.117 . S
Co240 O265 2.020 . S
C241 O261 1.259 . S
C241 O264 1.258 . S
Co242 N251 2.057 . S
Co242 O258 2.117 . S
Co242 O259 2.020 . S
Co242 O261 2.021 . S
Co242 O266 2.062 . S
C243 N245 1.316 . S
C243 N246 1.347 . S
C243 H248 0.931 . S
C244 N245 1.375 . S
C244 C247 1.350 . S
C244 H249 0.930 . S
N245 Co240 2.057 . S
N245 C243 1.316 . S
N245 C244 1.375 . S
N246 C243 1.347 . S
N246 C247 1.373 . S
C247 C244 1.350 . S
C247 N246 1.373 . S
C247 H268 0.931 . S
H248 C243 0.931 . S
H249 C244 0.930 . S
C250 O257 1.259 . S
C250 O258 1.258 . S
N251 Co242 2.057 . S
N251 C252 1.316 . S
N251 C253 1.375 . S
C252 N251 1.316 . S
C252 N254 1.347 . S
C252 H263 0.931 . S
C253 N251 1.375 . S
C253 C255 1.350 . S
C253 H262 0.930 . S
N254 C252 1.347 . S
N254 C255 1.373 . S
C255 C253 1.350 . S
C255 N254 1.373 . S
C255 H269 0.931 . S
C256 O259 1.256 . S
C256 O260 1.255 . S
O257 Co240 2.021 . S
O257 C250 1.259 . S
O258 Co242 2.117 . S
O258 C250 1.258 . S
O259 Co242 2.020 . S
O259 C256 1.256 . S
O260 Co240 2.062 . S
O260 C256 1.255 . S
O261 C241 1.259 . S
O261 Co242 2.021 . S
H262 C253 0.930 . S
H263 C252 0.931 . S
O264 Co240 2.117 . S
O264 C241 1.258 . S
O265 Co240 2.020 . S
O265 C267 1.256 . S
O266 Co242 2.062 . S
O266 C267 1.255 . S
C267 O265 1.256 . S
C267 O266 1.255 . S
H268 C247 0.931 . S
H269 C255 0.931 . S
Co270 N275 2.057 . S
Co270 O287 2.021 . S
Co270 O290 2.062 . S
Co270 O294 2.117 1_565 S
Co270 O295 2.020 . S
C271 O291 1.259 . S
C271 O294 1.258 . S
Co272 N281 2.057 . S
Co272 O288 2.117 . S
Co272 O289 2.020 . S
Co272 O291 2.021 . S
Co272 O296 2.062 . S
C273 N275 1.316 . S
C273 N276 1.347 . S
C273 H278 0.931 . S
C274 N275 1.375 . S
C274 C277 1.350 . S
C274 H279 0.930 . S
N275 Co270 2.057 . S
N275 C273 1.316 . S
N275 C274 1.375 . S
N276 C273 1.347 . S
N276 C277 1.373 . S
C277 C274 1.350 . S
C277 N276 1.373 . S
C277 H298 0.931 . S
H278 C273 0.931 . S
H279 C274 0.930 . S
C280 O287 1.259 . S
C280 O288 1.258 1_565 S
N281 Co272 2.057 . S
N281 C282 1.316 . S
N281 C283 1.375 . S
C282 N281 1.316 . S
C282 N284 1.347 . S
C282 H293 0.931 . S
C283 N281 1.375 . S
C283 C285 1.350 . S
C283 H292 0.930 . S
N284 C282 1.347 . S
N284 C285 1.373 . S
C285 C283 1.350 . S
C285 N284 1.373 . S
C285 H299 0.931 1_455 S
C286 O289 1.256 . S
C286 O290 1.255 1_545 S
O287 Co270 2.021 . S
O287 C280 1.259 . S
O288 Co272 2.117 . S
O288 C280 1.258 1_545 S
O289 Co272 2.020 . S
O289 C286 1.256 . S
O290 Co270 2.062 . S
O290 C286 1.255 1_565 S
O291 C271 1.259 . S
O291 Co272 2.021 . S
H292 C283 0.930 . S
H293 C282 0.931 . S
O294 Co270 2.117 1_545 S
O294 C271 1.258 . S
O295 Co270 2.020 . S
O295 C297 1.256 1_565 S
O296 Co272 2.062 . S
O296 C297 1.255 . S
C297 O295 1.256 1_545 S
C297 O296 1.255 . S
H298 C277 0.931 . S
H299 C285 0.931 1_655 S
Co300 N305 2.057 . S
Co300 O317 2.021 . S
Co300 O320 2.062 . S
Co300 O324 2.117 . S
Co300 O325 2.020 . S
C301 O321 1.259 . S
C301 O324 1.258 . S
Co302 N311 2.057 . S
Co302 O318 2.117 . S
Co302 O319 2.020 . S
Co302 O321 2.021 . S
Co302 O326 2.062 . S
C303 N305 1.316 . S
C303 N306 1.347 . S
C303 H308 0.931 . S
C304 N305 1.375 . S
C304 C307 1.350 . S
C304 H309 0.930 . S
N305 Co300 2.057 . S
N305 C303 1.316 . S
N305 C304 1.375 . S
N306 C303 1.347 . S
N306 C307 1.373 . S
C307 C304 1.350 . S
C307 N306 1.373 . S
C307 H328 0.931 . S
H308 C303 0.931 . S
H309 C304 0.930 . S
C310 O317 1.259 . S
C310 O318 1.258 . S
N311 Co302 2.057 . S
N311 C312 1.316 . S
N311 C313 1.375 . S
C312 N311 1.316 . S
C312 N314 1.347 . S
C312 H323 0.931 . S
C313 N311 1.375 . S
C313 C315 1.350 . S
C313 H322 0.930 . S
N314 C312 1.347 . S
N314 C315 1.373 . S
C315 C313 1.350 . S
C315 N314 1.373 . S
C315 H329 0.931 . S
C316 O319 1.256 . S
C316 O320 1.255 . S
O317 Co300 2.021 . S
O317 C310 1.259 . S
O318 Co302 2.117 . S
O318 C310 1.258 . S
O319 Co302 2.020 . S
O319 C316 1.256 . S
O320 Co300 2.062 . S
O320 C316 1.255 . S
O321 C301 1.259 . S
O321 Co302 2.021 . S
H322 C313 0.930 . S
H323 C312 0.931 . S
O324 Co300 2.117 . S
O324 C301 1.258 . S
O325 Co300 2.020 . S
O325 C327 1.256 . S
O326 Co302 2.062 . S
O326 C327 1.255 . S
C327 O325 1.256 . S
C327 O326 1.255 . S
H328 C307 0.931 . S
H329 C315 0.931 . S
Co330 N335 2.057 . S
Co330 O347 2.021 . S
Co330 O350 2.062 . S
Co330 O354 2.117 1_545 S
Co330 O355 2.020 . S
C331 O351 1.259 . S
C331 O354 1.258 . S
Co332 N341 2.057 . S
Co332 O348 2.117 . S
Co332 O349 2.020 . S
Co332 O351 2.021 . S
Co332 O356 2.062 . S
C333 N335 1.316 . S
C333 N336 1.347 . S
C333 H338 0.931 . S
C334 N335 1.375 . S
C334 C337 1.350 . S
C334 H339 0.930 . S
N335 Co330 2.057 . S
N335 C333 1.316 . S
N335 C334 1.375 . S
N336 C333 1.347 . S
N336 C337 1.373 . S
C337 C334 1.350 . S
C337 N336 1.373 . S
C337 H358 0.931 . S
H338 C333 0.931 . S
H339 C334 0.930 . S
C340 O347 1.259 . S
C340 O348 1.258 1_545 S
N341 Co332 2.057 . S
N341 C342 1.316 . S
N341 C343 1.375 . S
C342 N341 1.316 . S
C342 N344 1.347 . S
C342 H353 0.931 . S
C343 N341 1.375 . S
C343 C345 1.350 . S
C343 H352 0.930 . S
N344 C342 1.347 . S
N344 C345 1.373 . S
C345 C343 1.350 . S
C345 N344 1.373 . S
C345 H359 0.931 . S
C346 O349 1.256 . S
C346 O350 1.255 1_565 S
O347 Co330 2.021 . S
O347 C340 1.259 . S
O348 Co332 2.117 . S
O348 C340 1.258 1_565 S
O349 Co332 2.020 . S
O349 C346 1.256 . S
O350 Co330 2.062 . S
O350 C346 1.255 1_545 S
O351 C331 1.259 . S
O351 Co332 2.021 . S
H352 C343 0.930 . S
H353 C342 0.931 . S
O354 Co330 2.117 1_565 S
O354 C331 1.258 . S
O355 Co330 2.020 . S
O355 C357 1.256 1_545 S
O356 Co332 2.062 . S
O356 C357 1.255 . S
C357 O355 1.256 1_565 S
C357 O356 1.255 . S
H358 C337 0.931 . S
H359 C345 0.931 . S
Co360 N365 2.057 . S
Co360 O377 2.021 . S
Co360 O380 2.062 . S
Co360 O384 2.117 . S
Co360 O385 2.020 . S
C361 O381 1.259 . S
C361 O384 1.258 . S
Co362 N371 2.057 . S
Co362 O378 2.117 . S
Co362 O379 2.020 . S
Co362 O381 2.021 . S
Co362 O386 2.062 . S
C363 N365 1.316 . S
C363 N366 1.347 . S
C363 H368 0.931 . S
C364 N365 1.375 . S
C364 C367 1.350 . S
C364 H369 0.930 . S
N365 Co360 2.057 . S
N365 C363 1.316 . S
N365 C364 1.375 . S
N366 C363 1.347 . S
N366 C367 1.373 . S
C367 C364 1.350 . S
C367 N366 1.373 . S
C367 H388 0.931 . S
H368 C363 0.931 . S
H369 C364 0.930 . S
C370 O377 1.259 . S
C370 O378 1.258 . S
N371 Co362 2.057 . S
N371 C372 1.316 . S
N371 C373 1.375 . S
C372 N371 1.316 . S
C372 N374 1.347 . S
C372 H383 0.931 . S
C373 N371 1.375 . S
C373 C375 1.350 . S
C373 H382 0.930 . S
N374 C372 1.347 . S
N374 C375 1.373 . S
C375 C373 1.350 . S
C375 N374 1.373 . S
C375 H389 0.931 . S
C376 O379 1.256 . S
C376 O380 1.255 . S
O377 Co360 2.021 . S
O377 C370 1.259 . S
O378 Co362 2.117 . S
O378 C370 1.258 . S
O379 Co362 2.020 . S
O379 C376 1.256 . S
O380 Co360 2.062 . S
O380 C376 1.255 . S
O381 C361 1.259 . S
O381 Co362 2.021 . S
H382 C373 0.930 . S
H383 C372 0.931 . S
O384 Co360 2.117 . S
O384 C361 1.258 . S
O385 Co360 2.020 . S
O385 C387 1.256 . S
O386 Co362 2.062 . S
O386 C387 1.255 . S
C387 O385 1.256 . S
C387 O386 1.255 . S
H388 C367 0.931 . S
H389 C375 0.931 . S
Co390 N395 2.057 . S
Co390 O407 2.021 . S
Co390 O410 2.062 . S
Co390 O414 2.117 . S
Co390 O415 2.020 . S
C391 O411 1.259 . S
C391 O414 1.258 1_545 S
Co392 N401 2.057 . S
Co392 O408 2.117 1_545 S
Co392 O409 2.020 . S
Co392 O411 2.021 . S
Co392 O416 2.062 . S
C393 N395 1.316 . S
C393 N396 1.347 . S
C393 H398 0.931 . S
C394 N395 1.375 . S
C394 C397 1.350 . S
C394 H399 0.930 . S
N395 Co390 2.057 . S
N395 C393 1.316 . S
N395 C394 1.375 . S
N396 C393 1.347 . S
N396 C397 1.373 . S
C397 C394 1.350 . S
C397 N396 1.373 . S
C397 H418 0.931 1_655 S
H398 C393 0.931 . S
H399 C394 0.930 . S
C400 O407 1.259 . S
C400 O408 1.258 . S
N401 Co392 2.057 . S
N401 C402 1.316 . S
N401 C403 1.375 . S
C402 N401 1.316 . S
C402 N404 1.347 . S
C402 H413 0.931 . S
C403 N401 1.375 . S
C403 C405 1.350 . S
C403 H412 0.930 . S
N404 C402 1.347 . S
N404 C405 1.373 . S
C405 C403 1.350 . S
C405 N404 1.373 . S
C405 H419 0.931 . S
C406 O409 1.256 1_565 S
C406 O410 1.255 . S
O407 Co390 2.021 . S
O407 C400 1.259 . S
O408 Co392 2.117 1_565 S
O408 C400 1.258 . S
O409 Co392 2.020 . S
O409 C406 1.256 1_545 S
O410 Co390 2.062 . S
O410 C406 1.255 . S
O411 C391 1.259 . S
O411 Co392 2.021 . S
H412 C403 0.930 . S
H413 C402 0.931 . S
O414 Co390 2.117 . S
O414 C391 1.258 1_565 S
O415 Co390 2.020 . S
O415 C417 1.256 . S
O416 Co392 2.062 . S
O416 C417 1.255 1_545 S
C417 O415 1.256 . S
C417 O416 1.255 1_565 S
H418 C397 0.931 1_455 S
H419 C405 0.931 . S
Co420 N425 2.057 . S
Co420 O437 2.021 . S
Co420 O440 2.062 . S
Co420 O444 2.117 . S
Co420 O445 2.020 . S
C421 O441 1.259 . S
C421 O444 1.258 . S
Co422 N431 2.057 . S
Co422 O438 2.117 . S
Co422 O439 2.020 . S
Co422 O441 2.021 . S
Co422 O446 2.062 . S
C423 N425 1.316 . S
C423 N426 1.347 . S
C423 H428 0.931 . S
C424 N425 1.375 . S
C424 C427 1.350 . S
C424 H429 0.930 . S
N425 Co420 2.057 . S
N425 C423 1.316 . S
N425 C424 1.375 . S
N426 C423 1.347 . S
N426 C427 1.373 . S
C427 C424 1.350 . S
C427 N426 1.373 . S
C427 H448 0.931 . S
H428 C423 0.931 . S
H429 C424 0.930 . S
C430 O437 1.259 . S
C430 O438 1.258 . S
N431 Co422 2.057 . S
N431 C432 1.316 . S
N431 C433 1.375 . S
C432 N431 1.316 . S
C432 N434 1.347 . S
C432 H443 0.931 . S
C433 N431 1.375 . S
C433 C435 1.350 . S
C433 H442 0.930 . S
N434 C432 1.347 . S
N434 C435 1.373 . S
C435 C433 1.350 . S
C435 N434 1.373 . S
C435 H449 0.931 . S
C436 O439 1.256 . S
C436 O440 1.255 . S
O437 Co420 2.021 . S
O437 C430 1.259 . S
O438 Co422 2.117 . S
O438 C430 1.258 . S
O439 Co422 2.020 . S
O439 C436 1.256 . S
O440 Co420 2.062 . S
O440 C436 1.255 . S
O441 C421 1.259 . S
O441 Co422 2.021 . S
H442 C433 0.930 . S
H443 C432 0.931 . S
O444 Co420 2.117 . S
O444 C421 1.258 . S
O445 Co420 2.020 . S
O445 C447 1.256 . S
O446 Co422 2.062 . S
O446 C447 1.255 . S
C447 O445 1.256 . S
C447 O446 1.255 . S
H448 C427 0.931 . S
H449 C435 0.931 . S
Co450 N455 2.057 . S
Co450 O467 2.021 . S
Co450 O470 2.062 . S
Co450 O474 2.117 . S
Co450 O475 2.020 . S
C451 O471 1.259 . S
C451 O474 1.258 1_565 S
Co452 N461 2.057 . S
Co452 O468 2.117 1_565 S
Co452 O469 2.020 . S
Co452 O471 2.021 . S
Co452 O476 2.062 . S
C453 N455 1.316 . S
C453 N456 1.347 . S
C453 H458 0.931 . S
C454 N455 1.375 . S
C454 C457 1.350 . S
C454 H459 0.930 . S
N455 Co450 2.057 . S
N455 C453 1.316 . S
N455 C454 1.375 . S
N456 C453 1.347 . S
N456 C457 1.373 . S
C457 C454 1.350 . S
C457 N456 1.373 . S
C457 H478 0.931 . S
H458 C453 0.931 . S
H459 C454 0.930 . S
C460 O467 1.259 . S
C460 O468 1.258 . S
N461 Co452 2.057 . S
N461 C462 1.316 . S
N461 C463 1.375 . S
C462 N461 1.316 . S
C462 N464 1.347 . S
C462 H473 0.931 . S
C463 N461 1.375 . S
C463 C465 1.350 . S
C463 H472 0.930 . S
N464 C462 1.347 . S
N464 C465 1.373 . S
C465 C463 1.350 . S
C465 N464 1.373 . S
C465 H479 0.931 . S
C466 O469 1.256 1_545 S
C466 O470 1.255 . S
O467 Co450 2.021 . S
O467 C460 1.259 . S
O468 Co452 2.117 1_545 S
O468 C460 1.258 . S
O469 Co452 2.020 . S
O469 C466 1.256 1_565 S
O470 Co450 2.062 . S
O470 C466 1.255 . S
O471 C451 1.259 . S
O471 Co452 2.021 . S
H472 C463 0.930 . S
H473 C462 0.931 . S
O474 Co450 2.117 . S
O474 C451 1.258 1_545 S
O475 Co450 2.020 . S
O475 C477 1.256 . S
O476 Co452 2.062 . S
O476 C477 1.255 1_565 S
C477 O475 1.256 . S
C477 O476 1.255 1_545 S
H478 C457 0.931 . S
H479 C465 0.931 . S
C480 C481 1.387 . S
C480 H484 0.950 . S
C480 C489 1.390 . S
C481 C480 1.387 . S
C481 C483 1.387 . S
H482 C489 0.950 . S
C483 C481 1.387 . S
C483 C485 1.390 . S
C483 H487 0.950 . S
H484 C480 0.950 . S
C485 C483 1.390 . S
C485 C486 1.387 . S
C485 H488 0.950 . S
C486 C485 1.387 . S
C486 C489 1.387 . S
H487 C483 0.950 . S
H488 C485 0.950 . S
C489 C480 1.390 . S
C489 H482 0.950 . S
C489 C486 1.387 . S
C490 C491 1.387 . S
C490 H494 0.950 . S
C490 C499 1.390 . S
C491 C490 1.387 . S
C491 C493 1.387 . S
H492 C499 0.950 . S
C493 C491 1.387 . S
C493 C495 1.390 . S
C493 H497 0.950 . S
H494 C490 0.950 . S
C495 C493 1.390 . S
C495 C496 1.387 . S
C495 H498 0.950 . S
C496 C495 1.387 . S
C496 C499 1.387 . S
H497 C493 0.950 . S
H498 C495 0.950 . S
C499 C490 1.390 . S
C499 H492 0.950 . S
C499 C496 1.387 . S
C500 C501 1.387 . S
C500 H504 0.950 . S
C500 C509 1.390 . S
C501 C500 1.387 . S
C501 C503 1.387 . S
H502 C509 0.950 . S
C503 C501 1.387 . S
C503 C505 1.390 . S
C503 H507 0.950 . S
H504 C500 0.950 . S
C505 C503 1.390 . S
C505 C506 1.387 . S
C505 H508 0.950 . S
C506 C505 1.387 . S
C506 C509 1.387 . S
H507 C503 0.950 . S
H508 C505 0.950 . S
C509 C500 1.390 . S
C509 H502 0.950 . S
C509 C506 1.387 . S
C510 C511 1.387 . S
C510 H514 0.950 . S
C510 C519 1.390 1_655 S
C511 C510 1.387 . S
C511 C513 1.387 1_556 S
H512 C519 0.950 . S
C513 C511 1.387 1_554 S
C513 C515 1.390 1_655 S
C513 H517 0.950 . S
H514 C510 0.950 . S
C515 C513 1.390 1_455 S
C515 C516 1.387 . S
C515 H518 0.950 . S
C516 C515 1.387 . S
C516 C519 1.387 1_554 S
H517 C513 0.950 . S
H518 C515 0.950 . S
C519 C510 1.390 1_455 S
C519 H512 0.950 . S
C519 C516 1.387 1_556 S
C520 C521 1.387 . S
C520 H524 0.950 . S
C520 C529 1.390 . S
C521 C520 1.387 . S
C521 C523 1.387 . S
H522 C529 0.950 . S
C523 C521 1.387 . S
C523 C525 1.390 . S
C523 H527 0.950 . S
H524 C520 0.950 . S
C525 C523 1.390 . S
C525 C526 1.387 . S
C525 H528 0.950 . S
C526 C525 1.387 . S
C526 C529 1.387 . S
H527 C523 0.950 . S
H528 C525 0.950 . S
C529 C520 1.390 . S
C529 H522 0.950 . S
C529 C526 1.387 . S
C530 C531 1.387 . S
C530 H534 0.950 . S
C530 C539 1.390 . S
C531 C530 1.387 . S
C531 C533 1.387 . S
H532 C539 0.950 . S
C533 C531 1.387 . S
C533 C535 1.390 . S
C533 H537 0.950 . S
H534 C530 0.950 . S
C535 C533 1.390 . S
C535 C536 1.387 . S
C535 H538 0.950 . S
C536 C535 1.387 . S
C536 C539 1.387 . S
H537 C533 0.950 . S
H538 C535 0.950 . S
C539 C530 1.390 . S
C539 H532 0.950 . S
C539 C536 1.387 . S
C540 C541 1.387 1_545 S
C540 H544 0.950 . S
C540 C549 1.390 1_655 S
C541 C540 1.387 1_565 S
C541 C543 1.387 1_554 S
H542 C549 0.950 . S
C543 C541 1.387 1_556 S
C543 C545 1.390 1_655 S
C543 H547 0.950 . S
H544 C540 0.950 . S
C545 C543 1.390 1_455 S
C545 C546 1.387 1_565 S
C545 H548 0.950 . S
C546 C545 1.387 1_545 S
C546 C549 1.387 1_556 S
H547 C543 0.950 . S
H548 C545 0.950 . S
C549 C540 1.390 1_455 S
C549 H542 0.950 . S
C549 C546 1.387 1_554 S
C550 C551 1.387 . S
C550 H554 0.950 . S
C550 C559 1.390 . S
C551 C550 1.387 . S
C551 C553 1.387 1_565 S
H552 C559 0.950 . S
C553 C551 1.387 1_545 S
C553 C555 1.390 . S
C553 H557 0.950 . S
H554 C550 0.950 . S
C555 C553 1.390 . S
C555 C556 1.387 . S
C555 H558 0.950 . S
C556 C555 1.387 . S
C556 C559 1.387 1_545 S
H557 C553 0.950 . S
H558 C555 0.950 . S
C559 C550 1.390 . S
C559 H552 0.950 . S
C559 C556 1.387 1_565 S
C560 C561 1.387 . S
C560 H564 0.950 . S
C560 C569 1.390 1_556 S
C561 C560 1.387 . S
C561 C563 1.387 . S
H562 C569 0.950 . S
C563 C561 1.387 . S
C563 C565 1.390 1_556 S
C563 H567 0.950 . S
H564 C560 0.950 . S
C565 C563 1.390 1_554 S
C565 C566 1.387 . S
C565 H568 0.950 . S
C566 C565 1.387 . S
C566 C569 1.387 . S
H567 C563 0.950 . S
H568 C565 0.950 . S
C569 C560 1.390 1_554 S
C569 H562 0.950 . S
C569 C566 1.387 . S
C570 C571 1.387 . S
C570 H574 0.950 . S
C570 C579 1.390 . S
C571 C570 1.387 . S
C571 C573 1.387 . S
H572 C579 0.950 . S
C573 C571 1.387 . S
C573 C575 1.390 . S
C573 H577 0.950 . S
H574 C570 0.950 . S
C575 C573 1.390 . S
C575 C576 1.387 . S
C575 H578 0.950 . S
C576 C575 1.387 . S
C576 C579 1.387 . S
H577 C573 0.950 . S
H578 C575 0.950 . S
C579 C570 1.390 . S
C579 H572 0.950 . S
C579 C576 1.387 . S
C580 C581 1.387 . S
C580 H584 0.950 . S
C580 C589 1.390 . S
C581 C580 1.387 . S
C581 C583 1.387 . S
H582 C589 0.950 . S
C583 C581 1.387 . S
C583 C585 1.390 . S
C583 H587 0.950 . S
H584 C580 0.950 . S
C585 C583 1.390 . S
C585 C586 1.387 . S
C585 H588 0.950 . S
C586 C585 1.387 . S
C586 C589 1.387 . S
H587 C583 0.950 . S
H588 C585 0.950 . S
C589 C580 1.390 . S
C589 H582 0.950 . S
C589 C586 1.387 . S
C590 C591 1.387 . S
C590 H594 0.950 . S
C590 C599 1.390 . S
C591 C590 1.387 . S
C591 C593 1.387 . S
H592 C599 0.950 . S
C593 C591 1.387 . S
C593 C595 1.390 . S
C593 H597 0.950 . S
H594 C590 0.950 . S
C595 C593 1.390 . S
C595 C596 1.387 . S
C595 H598 0.950 . S
C596 C595 1.387 . S
C596 C599 1.387 . S
H597 C593 0.950 . S
H598 C595 0.950 . S
C599 C590 1.390 . S
C599 H592 0.950 . S
C599 C596 1.387 . S
C600 C601 1.387 . S
C600 H604 0.950 . S
C600 C609 1.380 1_554 S
C601 C600 1.387 . S
C601 C603 1.387 . S
H602 C609 0.951 . S
C603 C601 1.387 . S
C603 C605 1.390 1_554 S
C603 H607 0.950 . S
H604 C600 0.950 . S
C605 C603 1.390 1_556 S
C605 C606 1.387 . S
C605 H608 0.950 . S
C606 C605 1.387 . S
C606 C609 1.396 . S
H607 C603 0.950 . S
H608 C605 0.950 . S
C609 C600 1.380 1_556 S
C609 H602 0.951 . S
C609 C606 1.396 . S
C610 C611 1.387 . S
C610 H614 0.950 . S
C610 C619 1.390 . S
C611 C610 1.387 . S
C611 C613 1.387 . S
H612 C619 0.950 . S
C613 C611 1.387 . S
C613 C615 1.390 . S
C613 H617 0.950 . S
H614 C610 0.950 . S
C615 C613 1.390 . S
C615 C616 1.387 . S
C615 H618 0.950 . S
C616 C615 1.387 . S
C616 C619 1.387 . S
H617 C613 0.950 . S
H618 C615 0.950 . S
C619 C610 1.390 . S
C619 H612 0.950 . S
C619 C616 1.387 . S
C620 C621 1.387 . S
C620 H624 0.950 . S
C620 C629 1.390 . S
C621 C620 1.387 . S
C621 C623 1.387 . S
H622 C629 0.950 . S
C623 C621 1.387 . S
C623 C625 1.390 . S
C623 H627 0.950 . S
H624 C620 0.950 . S
C625 C623 1.390 . S
C625 C626 1.387 . S
C625 H628 0.950 . S
C626 C625 1.387 . S
C626 C629 1.387 . S
H627 C623 0.950 . S
H628 C625 0.950 . S
C629 C620 1.390 . S
C629 H622 0.950 . S
C629 C626 1.387 . S
C630 C631 1.387 . S
C630 H634 0.950 . S
C630 C639 1.390 . S
C631 C630 1.387 . S
C631 C633 1.387 . S
H632 C639 0.950 . S
C633 C631 1.387 . S
C633 C635 1.390 . S
C633 H637 0.950 . S
H634 C630 0.950 . S
C635 C633 1.390 . S
C635 C636 1.387 . S
C635 H638 0.950 . S
C636 C635 1.387 . S
C636 C639 1.387 . S
H637 C633 0.950 . S
H638 C635 0.950 . S
C639 C630 1.390 . S
C639 H632 0.950 . S
C639 C636 1.387 . S
C640 C641 1.387 . S
C640 H644 0.950 . S
C640 C649 1.390 . S
C641 C640 1.387 . S
C641 C643 1.387 . S
H642 C649 0.950 . S
C643 C641 1.387 . S
C643 C645 1.390 . S
C643 H647 0.950 . S
H644 C640 0.950 . S
C645 C643 1.390 . S
C645 C646 1.387 . S
C645 H648 0.950 . S
C646 C645 1.387 . S
C646 C649 1.387 . S
H647 C643 0.950 . S
H648 C645 0.950 . S
C649 C640 1.390 . S
C649 H642 0.950 . S
C649 C646 1.387 . S
C650 C651 1.387 . S
C650 H654 0.950 . S
C650 C659 1.390 . S
C651 C650 1.387 . S
C651 C653 1.387 . S
H652 C659 0.950 . S
C653 C651 1.387 . S
C653 C655 1.390 . S
C653 H657 0.950 1_565 S
H654 C650 0.950 . S
C655 C653 1.390 . S
C655 C656 1.387 . S
C655 H658 0.950 . S
C656 C655 1.387 . S
C656 C659 1.387 . S
H657 C653 0.950 1_545 S
H658 C655 0.950 . S
C659 C650 1.390 . S
C659 H652 0.950 . S
C659 C656 1.387 . S
C660 C661 1.387 1_556 S
C660 H664 0.949 1_556 S
C660 C669 1.390 . S
C661 C660 1.387 1_554 S
C661 C663 1.387 . S
H662 C669 0.950 . S
C663 C661 1.387 . S
C663 C665 1.390 1_554 S
C663 H667 0.950 . S
H664 C660 0.949 1_554 S
C665 C663 1.390 1_556 S
C665 C666 1.387 . S
C665 H668 0.950 . S
C666 C665 1.387 . S
C666 C669 1.387 . S
H667 C663 0.950 . S
H668 C665 0.950 . S
C669 C660 1.390 . S
C669 H662 0.950 . S
C669 C666 1.387 . S
C670 C671 1.387 . S
C670 H674 0.950 . S
C670 C679 1.390 1_545 S
C671 C670 1.387 . S
C671 C673 1.387 . S
H672 C679 0.950 . S
C673 C671 1.387 . S
C673 C675 1.390 . S
C673 H677 0.950 . S
H674 C670 0.950 . S
C675 C673 1.390 . S
C675 C676 1.387 . S
C675 H678 0.950 . S
C676 C675 1.387 . S
C676 C679 1.387 1_545 S
H677 C673 0.950 . S
H678 C675 0.950 . S
C679 C670 1.390 1_565 S
C679 H672 0.950 . S
C679 C676 1.387 1_565 S
C680 C681 1.387 . S
C680 H684 0.950 . S
C680 C689 1.390 . S
C681 C680 1.387 . S
C681 C683 1.387 . S
H682 C689 0.950 . S
C683 C681 1.387 . S
C683 C685 1.390 . S
C683 H687 0.950 . S
H684 C680 0.950 . S
C685 C683 1.390 . S
C685 C686 1.387 . S
C685 H688 0.950 . S
C686 C685 1.387 . S
C686 C689 1.387 . S
H687 C683 0.950 . S
H688 C685 0.950 . S
C689 C680 1.390 . S
C689 H682 0.950 . S
C689 C686 1.387 . S
C690 C691 1.387 1_565 S
C690 H694 0.950 . S
C690 C699 1.390 1_565 S
C691 C690 1.387 1_545 S
C691 C693 1.387 . S
H692 C699 0.950 1_565 S
C693 C691 1.387 . S
C693 C695 1.390 . S
C693 H697 0.950 . S
H694 C690 0.950 . S
C695 C693 1.390 . S
C695 C696 1.387 . S
C695 H698 0.950 . S
C696 C695 1.387 . S
C696 C699 1.387 . S
H697 C693 0.950 . S
H698 C695 0.950 . S
C699 C690 1.390 1_545 S
C699 H692 0.950 1_545 S
C699 C696 1.387 . S
C700 C701 1.387 . S
C700 H704 0.950 . S
C700 C709 1.390 1_554 S
C701 C700 1.387 . S
C701 C703 1.387 . S
H702 C709 0.950 . S
C703 C701 1.387 . S
C703 C705 1.390 . S
C703 H707 0.950 . S
H704 C700 0.950 . S
C705 C703 1.390 . S
C705 C706 1.387 1_554 S
C705 H708 0.948 1_554 S
C706 C705 1.387 1_556 S
C706 C709 1.387 . S
H707 C703 0.950 . S
H708 C705 0.948 1_556 S
C709 C700 1.390 1_556 S
C709 H702 0.950 . S
C709 C706 1.387 . S
C710 C711 1.387 1_545 S
C710 H714 0.950 . S
C710 C719 1.390 1_545 S
C711 C710 1.387 1_565 S
C711 C713 1.387 . S
H712 C719 0.950 . S
C713 C711 1.387 . S
C713 C715 1.390 . S
C713 H717 0.950 . S
H714 C710 0.950 . S
C715 C713 1.390 . S
C715 C716 1.387 . S
C715 H718 0.950 . S
C716 C715 1.387 . S
C716 C719 1.387 . S
H717 C713 0.950 . S
H718 C715 0.950 . S
C719 C710 1.390 1_565 S
C719 H712 0.950 . S
C719 C716 1.387 . S
C720 C721 1.387 . S
C720 H724 0.950 . S
C720 C729 1.390 . S
C721 C720 1.387 . S
C721 C723 1.387 . S
H722 C729 0.950 . S
C723 C721 1.387 . S
C723 C725 1.390 . S
C723 H727 0.950 . S
H724 C720 0.950 . S
C725 C723 1.390 . S
C725 C726 1.387 . S
C725 H728 0.950 . S
C726 C725 1.387 . S
C726 C729 1.387 . S
H727 C723 0.950 . S
H728 C725 0.950 . S
C729 C720 1.390 . S
C729 H722 0.950 . S
C729 C726 1.387 . S
C730 C731 1.387 . S
C730 H734 0.950 . S
C730 C739 1.390 . S
C731 C730 1.387 . S
C731 C733 1.387 . S
H732 C739 0.950 . S
C733 C731 1.387 . S
C733 C735 1.390 . S
C733 H737 0.950 . S
H734 C730 0.950 . S
C735 C733 1.390 . S
C735 C736 1.387 . S
C735 H738 0.950 . S
C736 C735 1.387 . S
C736 C739 1.387 . S
H737 C733 0.950 . S
H738 C735 0.950 . S
C739 C730 1.390 . S
C739 H732 0.950 . S
C739 C736 1.387 . S
C740 C741 1.387 . S
C740 H744 0.950 . S
C740 C749 1.390 1_655 S
C741 C740 1.387 . S
C741 C743 1.387 . S
H742 C749 0.950 . S
C743 C741 1.387 . S
C743 C745 1.390 1_655 S
C743 H747 0.950 . S
H744 C740 0.950 . S
C745 C743 1.390 1_455 S
C745 C746 1.387 . S
C745 H748 0.950 . S
C746 C745 1.387 . S
C746 C749 1.387 . S
H747 C743 0.950 . S
H748 C745 0.950 . S
C749 C740 1.390 1_455 S
C749 H742 0.950 . S
C749 C746 1.387 . S
C750 C751 1.387 . S
C750 H754 0.950 . S
C750 C759 1.390 1_655 S
C751 C750 1.387 . S
C751 C753 1.387 . S
H752 C759 0.950 . S
C753 C751 1.387 . S
C753 C755 1.390 1_655 S
C753 H757 0.950 . S
H754 C750 0.950 . S
C755 C753 1.390 1_455 S
C755 C756 1.387 . S
C755 H758 0.950 . S
C756 C755 1.387 . S
C756 C759 1.387 . S
H757 C753 0.950 . S
H758 C755 0.950 . S
C759 C750 1.390 1_455 S
C759 H752 0.950 . S
C759 C756 1.387 . S
C760 C761 1.387 . S
C760 H764 0.950 . S
C760 C769 1.390 . S
C761 C760 1.387 . S
C761 C763 1.387 . S
H762 C769 0.950 . S
C763 C761 1.387 . S
C763 C765 1.390 . S
C763 H767 0.950 . S
H764 C760 0.950 . S
C765 C763 1.390 . S
C765 C766 1.387 . S
C765 H768 0.950 . S
C766 C765 1.387 . S
C766 C769 1.387 . S
H767 C763 0.950 . S
H768 C765 0.950 . S
C769 C760 1.390 . S
C769 H762 0.950 . S
C769 C766 1.387 . S
C770 C771 1.387 . S
C770 H774 0.950 . S
C770 C779 1.390 . S
C771 C770 1.387 . S
C771 C773 1.387 . S
H772 C779 0.950 . S
C773 C771 1.387 . S
C773 C775 1.390 . S
C773 H777 0.950 . S
H774 C770 0.950 . S
C775 C773 1.390 . S
C775 C776 1.387 . S
C775 H778 0.950 . S
C776 C775 1.387 . S
C776 C779 1.387 . S
H777 C773 0.950 . S
H778 C775 0.950 . S
C779 C770 1.390 . S
C779 H772 0.950 . S
C779 C776 1.387 . S
C780 C781 1.387 . S
C780 H784 0.950 . S
C780 C789 1.390 1_455 S
C781 C780 1.387 . S
C781 C783 1.387 . S
H782 C789 0.950 . S
C783 C781 1.387 . S
C783 C785 1.390 1_455 S
C783 H787 0.950 . S
H784 C780 0.950 . S
C785 C783 1.390 1_655 S
C785 C786 1.387 . S
C785 H788 0.950 . S
C786 C785 1.387 . S
C786 C789 1.387 . S
H787 C783 0.950 . S
H788 C785 0.950 . S
C789 C780 1.390 1_655 S
C789 H782 0.950 . S
C789 C786 1.387 . S
C790 C791 1.387 . S
C790 H794 0.950 . S
C790 C799 1.390 1_455 S
C791 C790 1.387 . S
C791 C793 1.387 . S
H792 C799 0.950 . S
C793 C791 1.387 . S
C793 C795 1.390 1_455 S
C793 H797 0.950 . S
H794 C790 0.950 . S
C795 C793 1.390 1_655 S
C795 C796 1.387 . S
C795 H798 0.950 . S
C796 C795 1.387 . S
C796 C799 1.387 . S
H797 C793 0.950 . S
H798 C795 0.950 . S
C799 C790 1.390 1_655 S
C799 H792 0.950 . S
C799 C796 1.387 . S
C800 C801 1.387 . S
C800 H804 0.950 . S
C800 C809 1.390 . S
C801 C800 1.387 . S
C801 C803 1.387 . S
H802 C809 0.950 . S
C803 C801 1.387 . S
C803 C805 1.390 . S
C803 H807 0.950 . S
H804 C800 0.950 . S
C805 C803 1.390 . S
C805 C806 1.387 . S
C805 H808 0.950 . S
C806 C805 1.387 . S
C806 C809 1.387 . S
H807 C803 0.950 . S
H808 C805 0.950 . S
C809 C800 1.390 . S
C809 H802 0.950 . S
C809 C806 1.387 . S
C810 C811 1.387 . S
C810 H814 0.950 . S
C810 C819 1.390 . S
C811 C810 1.387 . S
C811 C813 1.387 . S
H812 C819 0.950 . S
C813 C811 1.387 . S
C813 C815 1.390 . S
C813 H817 0.950 . S
H814 C810 0.950 . S
C815 C813 1.390 . S
C815 C816 1.387 . S
C815 H818 0.950 . S
C816 C815 1.387 . S
C816 C819 1.387 . S
H817 C813 0.950 . S
H818 C815 0.950 . S
C819 C810 1.390 . S
C819 H812 0.950 . S
C819 C816 1.387 . S
C820 C821 1.387 . S
C820 H824 0.950 . S
C820 C829 1.390 . S
C821 C820 1.387 . S
C821 C823 1.387 . S
H822 C829 0.950 . S
C823 C821 1.387 . S
C823 C825 1.390 . S
C823 H827 0.950 . S
H824 C820 0.950 . S
C825 C823 1.390 . S
C825 C826 1.387 . S
C825 H828 0.950 . S
C826 C825 1.387 . S
C826 C829 1.387 . S
H827 C823 0.950 . S
H828 C825 0.950 . S
C829 C820 1.390 . S
C829 H822 0.950 . S
C829 C826 1.387 . S
C830 C831 1.387 1_455 S
C830 H834 0.950 1_455 S
C830 C839 1.390 . S
C831 C830 1.387 1_655 S
C831 C833 1.387 1_655 S
H832 C839 0.950 . S
C833 C831 1.387 1_455 S
C833 C835 1.390 . S
C833 H837 0.950 1_455 S
H834 C830 0.950 1_655 S
C835 C833 1.390 . S
C835 C836 1.387 . S
C835 H838 0.950 . S
C836 C835 1.387 . S
C836 C839 1.387 . S
H837 C833 0.950 1_655 S
H838 C835 0.950 . S
C839 C830 1.390 . S
C839 H832 0.950 . S
C839 C836 1.387 . S
C840 C841 1.387 . S
C840 H844 0.950 . S
C840 C849 1.390 . S
C841 C840 1.387 . S
C841 C843 1.387 . S
H842 C849 0.950 . S
C843 C841 1.387 . S
C843 C845 1.390 . S
C843 H847 0.950 . S
H844 C840 0.950 . S
C845 C843 1.390 . S
C845 C846 1.387 . S
C845 H848 0.950 . S
C846 C845 1.387 . S
C846 C849 1.387 . S
H847 C843 0.950 . S
H848 C845 0.950 . S
C849 C840 1.390 . S
C849 H842 0.950 . S
C849 C846 1.387 . S
C850 C851 1.387 . S
C850 H854 0.950 . S
C850 C859 1.390 . S
C851 C850 1.387 . S
C851 C853 1.387 . S
H852 C859 0.950 . S
C853 C851 1.387 . S
C853 C855 1.390 . S
C853 H857 0.950 . S
H854 C850 0.950 . S
C855 C853 1.390 . S
C855 C856 1.387 . S
C855 H858 0.950 . S
C856 C855 1.387 . S
C856 C859 1.387 . S
H857 C853 0.950 . S
H858 C855 0.950 . S
C859 C850 1.390 . S
C859 H852 0.950 . S
C859 C856 1.387 . S
C860 C861 1.387 . S
C860 H864 0.950 . S
C860 C869 1.390 . S
C861 C860 1.387 . S
C861 C863 1.387 . S
H862 C869 0.950 . S
C863 C861 1.387 . S
C863 C865 1.390 . S
C863 H867 0.950 . S
H864 C860 0.950 . S
C865 C863 1.390 . S
C865 C866 1.387 . S
C865 H868 0.950 . S
C866 C865 1.387 . S
C866 C869 1.387 . S
H867 C863 0.950 . S
H868 C865 0.950 . S
C869 C860 1.390 . S
C869 H862 0.950 . S
C869 C866 1.387 . S
C870 C871 1.387 . S
C870 H874 0.950 . S
C870 C879 1.390 . S
C871 C870 1.387 . S
C871 C873 1.387 . S
H872 C879 0.950 1_455 S
C873 C871 1.387 . S
C873 C875 1.390 . S
C873 H877 0.950 . S
H874 C870 0.950 . S
C875 C873 1.390 . S
C875 C876 1.387 1_655 S
C875 H878 0.950 1_655 S
C876 C875 1.387 1_455 S
C876 C879 1.387 1_455 S
H877 C873 0.950 . S
H878 C875 0.950 1_455 S
C879 C870 1.390 . S
C879 H872 0.950 1_655 S
C879 C876 1.387 1_655 S
C880 C881 1.387 . S
C880 H884 0.950 . S
C880 C889 1.390 . S
C881 C880 1.387 . S
C881 C883 1.387 . S
H882 C889 0.950 . S
C883 C881 1.387 . S
C883 C885 1.390 . S
C883 H887 0.950 . S
H884 C880 0.950 . S
C885 C883 1.390 . S
C885 C886 1.387 . S
C885 H888 0.950 . S
C886 C885 1.387 . S
C886 C889 1.387 . S
H887 C883 0.950 . S
H888 C885 0.950 . S
C889 C880 1.390 . S
C889 H882 0.950 . S
C889 C886 1.387 . S
C890 C891 1.387 . S
C890 H894 0.950 . S
C890 C899 1.390 . S
C891 C890 1.387 . S
C891 C893 1.387 . S
H892 C899 0.950 1_455 S
C893 C891 1.387 . S
C893 C895 1.390 . S
C893 H897 0.950 . S
H894 C890 0.950 . S
C895 C893 1.390 . S
C895 C896 1.387 1_655 S
C895 H898 0.950 1_655 S
C896 C895 1.387 1_455 S
C896 C899 1.387 1_455 S
H897 C893 0.950 . S
H898 C895 0.950 1_455 S
C899 C890 1.390 . S
C899 H892 0.950 1_655 S
C899 C896 1.387 1_655 S
C900 C901 1.387 . S
C900 H904 0.950 . S
C900 C909 1.390 . S
C901 C900 1.387 . S
C901 C903 1.387 . S
H902 C909 0.950 . S
C903 C901 1.387 . S
C903 C905 1.390 . S
C903 H907 0.950 . S
H904 C900 0.950 . S
C905 C903 1.390 . S
C905 C906 1.387 . S
C905 H908 0.950 . S
C906 C905 1.387 . S
C906 C909 1.387 . S
H907 C903 0.950 . S
H908 C905 0.950 . S
C909 C900 1.390 . S
C909 H902 0.950 . S
C909 C906 1.387 . S
C910 C911 1.387 . S
C910 H914 0.950 . S
C910 C919 1.390 . S
C911 C910 1.387 . S
C911 C913 1.387 . S
H912 C919 0.950 . S
C913 C911 1.387 . S
C913 C915 1.390 . S
C913 H917 0.950 . S
H914 C910 0.950 . S
C915 C913 1.390 . S
C915 C916 1.387 . S
C915 H918 0.950 . S
C916 C915 1.387 . S
C916 C919 1.387 . S
H917 C913 0.950 . S
H918 C915 0.950 . S
C919 C910 1.390 . S
C919 H912 0.950 . S
C919 C916 1.387 . S
C920 C921 1.387 . S
C920 H924 0.950 . S
C920 C929 1.390 . S
C921 C920 1.387 . S
C921 C923 1.387 . S
H922 C929 0.950 . S
C923 C921 1.387 . S
C923 C925 1.390 . S
C923 H927 0.950 . S
H924 C920 0.950 . S
C925 C923 1.390 . S
C925 C926 1.387 . S
C925 H928 0.950 . S
C926 C925 1.387 . S
C926 C929 1.387 . S
H927 C923 0.950 . S
H928 C925 0.950 . S
C929 C920 1.390 . S
C929 H922 0.950 . S
C929 C926 1.387 . S
C930 C931 1.387 1_455 S
C930 H934 0.950 1_455 S
C930 C939 1.390 . S
C931 C930 1.387 1_655 S
C931 C933 1.387 1_655 S
H932 C939 0.950 . S
C933 C931 1.387 1_455 S
C933 C935 1.390 . S
C933 H937 0.950 1_455 S
H934 C930 0.950 1_655 S
C935 C933 1.390 . S
C935 C936 1.387 . S
C935 H938 0.950 . S
C936 C935 1.387 . S
C936 C939 1.387 . S
H937 C933 0.950 1_655 S
H938 C935 0.950 . S
C939 C930 1.390 . S
C939 H932 0.950 . S
C939 C936 1.387 . S
C940 C941 1.387 . S
C940 H944 0.950 . S
C940 C949 1.390 . S
C941 C940 1.387 . S
C941 C943 1.387 . S
H942 C949 0.950 . S
C943 C941 1.387 . S
C943 C945 1.390 . S
C943 H947 0.950 . S
H944 C940 0.950 . S
C945 C943 1.390 . S
C945 C946 1.387 . S
C945 H948 0.950 . S
C946 C945 1.387 . S
C946 C949 1.387 . S
H947 C943 0.950 . S
H948 C945 0.950 . S
C949 C940 1.390 . S
C949 H942 0.950 . S
C949 C946 1.387 . S
C950 C951 1.387 . S
C950 H954 0.950 . S
C950 C959 1.390 . S
C951 C950 1.387 . S
C951 C953 1.387 . S
H952 C959 0.950 . S
C953 C951 1.387 . S
C953 C955 1.390 . S
C953 H957 0.950 . S
H954 C950 0.950 . S
C955 C953 1.390 . S
C955 C956 1.387 . S
C955 H958 0.950 . S
C956 C955 1.387 . S
C956 C959 1.387 . S
H957 C953 0.950 . S
H958 C955 0.950 . S
C959 C950 1.390 . S
C959 H952 0.950 . S
C959 C956 1.387 . S
C481 C27 1.275 . S
C486 C376 1.275 . S
C491 C166 1.275 . S
C496 C57 1.275 . S
C501 C87 1.272 . S
C506 C436 1.272 . S
C511 C117 1.273 . S
C516 C226 1.273 . S
C521 C136 1.273 . S
C526 C267 1.273 . S
C531 C327 1.273 . S
C536 C196 1.273 . S
C541 C406 1.275 . S
C546 C297 1.275 . S
C551 C357 1.275 . S
C556 C466 1.275 . S
C561 C271 1.646 . S
C566 C16 1.611 . S
C571 C46 1.610 . S
C576 C301 1.647 . S
C581 C76 1.612 . S
C586 C331 1.646 . S
C591 C241 1.646 . S
C596 C106 1.610 . S
C601 C400 1.646 . S
C606 C147 1.611 . S
C611 C430 1.645 . S
C616 C177 1.611 . S
C621 C207 1.609 . S
C626 C460 1.647 . S
C631 C370 1.647 . S
C636 C237 1.611 . S
C641 C256 1.611 . S
C646 C31 1.645 . S
C651 C286 1.612 1_565 S
C656 C61 1.646 . S
C661 C316 1.609 . S
C666 C91 1.647 . S
C671 C1 1.646 . S
C676 C346 1.610 1_545 S
C681 C160 1.646 . S
C686 C387 1.611 . S
C691 C417 1.611 1_545 S
C696 C190 1.647 . S
C701 C220 1.647 . S
C706 C447 1.609 . S
C711 C477 1.610 1_565 S
C716 C130 1.647 . S
C721 N14 1.296 . S
C726 N314 1.296 . S
C731 N44 1.299 . S
C736 N344 1.299 . S
C741 N254 1.296 . S
C746 N74 1.296 . S
C751 N104 1.296 . S
C756 N284 1.296 . S
C761 N126 1.299 . S
C766 N426 1.299 . S
C771 N156 1.296 . S
C776 N456 1.296 . S
C781 N366 1.299 . S
C786 N186 1.299 . S
C791 N216 1.296 . S
C796 N396 1.296 . S
C801 C10 1.255 . S
C806 N224 1.287 . S
C811 N374 1.288 . S
C816 C40 1.257 . S
C821 C70 1.255 . S
C826 N164 1.286 . S
C831 C100 1.255 . S
C836 N434 1.286 . S
C841 C121 1.255 . S
C846 N96 1.286 . S
C851 N246 1.286 . S
C856 C151 1.255 . S
C861 C181 1.255 . S
C866 N36 1.287 . S
C871 N306 1.287 . S
C876 C211 1.255 . S
C881 C250 1.255 . S
C886 N464 1.287 . S
C891 N134 1.286 . S
C896 C280 1.255 . S
C901 N404 1.287 . S
C906 C310 1.255 . S
C911 C340 1.255 . S
C916 N194 1.286 . S
C921 C361 1.255 . S
C926 N336 1.286 . S
C931 C391 1.255 . S
C936 N6 1.286 . S
C941 N276 1.287 . S
C946 C421 1.255 . S
C951 N66 1.287 . S
C956 C451 1.255 . S
