# Generated by pormake.
# Topology umu, (4)-cn, num edge types: 1
# Building blocks:
#     Node 0, Type 0, BuildingBlock: CEKHIL_clean_sbu_0, # of connection points: 4
#     Node 1, Type 0, BuildingBlock: CEKHIL_clean_sbu_0, # of connection points: 4
#     Node 2, Type 0, BuildingBlock: CEKHIL_clean_sbu_0, # of connection points: 4
#     Node 3, Type 0, BuildingBlock: CEKHIL_clean_sbu_0, # of connection points: 4
#     Node 4, Type 0, BuildingBlock: CEKHIL_clean_sbu_0, # of connection points: 4
#     Node 5, Type 0, BuildingBlock: CEKHIL_clean_sbu_0, # of connection points: 4
#     Node 6, Type 0, BuildingBlock: CEKHIL_clean_sbu_0, # of connection points: 4
#     Node 7, Type 0, BuildingBlock: CEKHIL_clean_sbu_0, # of connection points: 4
#     Node 8, Type 0, BuildingBlock: CEKHIL_clean_sbu_0, # of connection points: 4
#     Node 9, Type 0, BuildingBlock: CEKHIL_clean_sbu_0, # of connection points: 4
#     Node 10, Type 0, BuildingBlock: CEKHIL_clean_sbu_0, # of connection points: 4
#     Node 11, Type 0, BuildingBlock: CEKHIL_clean_sbu_0, # of connection points: 4
#     Node 12, Type 0, BuildingBlock: CEKHIL_clean_sbu_0, # of connection points: 4
#     Node 13, Type 0, BuildingBlock: CEKHIL_clean_sbu_0, # of connection points: 4
#     Node 14, Type 0, BuildingBlock: CEKHIL_clean_sbu_0, # of connection points: 4
#     Node 15, Type 0, BuildingBlock: CEKHIL_clean_sbu_0, # of connection points: 4
#     Node 16, Type 0, BuildingBlock: CEKHIL_clean_sbu_0, # of connection points: 4
#     Node 17, Type 0, BuildingBlock: CEKHIL_clean_sbu_0, # of connection points: 4
#     Node 18, Type 0, BuildingBlock: CEKHIL_clean_sbu_0, # of connection points: 4
#     Node 19, Type 0, BuildingBlock: CEKHIL_clean_sbu_0, # of connection points: 4
#     Node 20, Type 0, BuildingBlock: CEKHIL_clean_sbu_0, # of connection points: 4
#     Node 21, Type 0, BuildingBlock: CEKHIL_clean_sbu_0, # of connection points: 4
#     Node 22, Type 0, BuildingBlock: CEKHIL_clean_sbu_0, # of connection points: 4
#     Node 23, Type 0, BuildingBlock: CEKHIL_clean_sbu_0, # of connection points: 4
#     Node 24, Type 0, BuildingBlock: CEKHIL_clean_sbu_0, # of connection points: 4
#     Node 25, Type 0, BuildingBlock: CEKHIL_clean_sbu_0, # of connection points: 4
#     Node 26, Type 0, BuildingBlock: CEKHIL_clean_sbu_0, # of connection points: 4
#     Node 27, Type 0, BuildingBlock: CEKHIL_clean_sbu_0, # of connection points: 4
#     Node 28, Type 0, BuildingBlock: CEKHIL_clean_sbu_0, # of connection points: 4
#     Node 29, Type 0, BuildingBlock: CEKHIL_clean_sbu_0, # of connection points: 4
#     Node 30, Type 0, BuildingBlock: CEKHIL_clean_sbu_0, # of connection points: 4
#     Node 31, Type 0, BuildingBlock: CEKHIL_clean_sbu_0, # of connection points: 4
#     Edge 32, Type (0, 0), BuildingBlock: MIFKUJ_clean_linker_0, # of connection points: 2
#     Edge 33, Type (0, 0), BuildingBlock: MIFKUJ_clean_linker_0, # of connection points: 2
#     Edge 34, Type (0, 0), BuildingBlock: MIFKUJ_clean_linker_0, # of connection points: 2
#     Edge 35, Type (0, 0), BuildingBlock: MIFKUJ_clean_linker_0, # of connection points: 2
#     Edge 36, Type (0, 0), BuildingBlock: MIFKUJ_clean_linker_0, # of connection points: 2
#     Edge 37, Type (0, 0), BuildingBlock: MIFKUJ_clean_linker_0, # of connection points: 2
#     Edge 38, Type (0, 0), BuildingBlock: MIFKUJ_clean_linker_0, # of connection points: 2
#     Edge 39, Type (0, 0), BuildingBlock: MIFKUJ_clean_linker_0, # of connection points: 2
#     Edge 40, Type (0, 0), BuildingBlock: MIFKUJ_clean_linker_0, # of connection points: 2
#     Edge 41, Type (0, 0), BuildingBlock: MIFKUJ_clean_linker_0, # of connection points: 2
#     Edge 42, Type (0, 0), BuildingBlock: MIFKUJ_clean_linker_0, # of connection points: 2
#     Edge 43, Type (0, 0), BuildingBlock: MIFKUJ_clean_linker_0, # of connection points: 2
#     Edge 44, Type (0, 0), BuildingBlock: MIFKUJ_clean_linker_0, # of connection points: 2
#     Edge 45, Type (0, 0), BuildingBlock: MIFKUJ_clean_linker_0, # of connection points: 2
#     Edge 46, Type (0, 0), BuildingBlock: MIFKUJ_clean_linker_0, # of connection points: 2
#     Edge 47, Type (0, 0), BuildingBlock: MIFKUJ_clean_linker_0, # of connection points: 2
#     Edge 48, Type (0, 0), BuildingBlock: MIFKUJ_clean_linker_0, # of connection points: 2
#     Edge 49, Type (0, 0), BuildingBlock: MIFKUJ_clean_linker_0, # of connection points: 2
#     Edge 50, Type (0, 0), BuildingBlock: MIFKUJ_clean_linker_0, # of connection points: 2
#     Edge 51, Type (0, 0), BuildingBlock: MIFKUJ_clean_linker_0, # of connection points: 2
#     Edge 52, Type (0, 0), BuildingBlock: MIFKUJ_clean_linker_0, # of connection points: 2
#     Edge 53, Type (0, 0), BuildingBlock: MIFKUJ_clean_linker_0, # of connection points: 2
#     Edge 54, Type (0, 0), BuildingBlock: MIFKUJ_clean_linker_0, # of connection points: 2
#     Edge 55, Type (0, 0), BuildingBlock: MIFKUJ_clean_linker_0, # of connection points: 2
#     Edge 56, Type (0, 0), BuildingBlock: MIFKUJ_clean_linker_0, # of connection points: 2
#     Edge 57, Type (0, 0), BuildingBlock: MIFKUJ_clean_linker_0, # of connection points: 2
#     Edge 58, Type (0, 0), BuildingBlock: MIFKUJ_clean_linker_0, # of connection points: 2
#     Edge 59, Type (0, 0), BuildingBlock: MIFKUJ_clean_linker_0, # of connection points: 2
#     Edge 60, Type (0, 0), BuildingBlock: MIFKUJ_clean_linker_0, # of connection points: 2
#     Edge 61, Type (0, 0), BuildingBlock: MIFKUJ_clean_linker_0, # of connection points: 2
#     Edge 62, Type (0, 0), BuildingBlock: MIFKUJ_clean_linker_0, # of connection points: 2
#     Edge 63, Type (0, 0), BuildingBlock: MIFKUJ_clean_linker_0, # of connection points: 2
#     Edge 64, Type (0, 0), BuildingBlock: MIFKUJ_clean_linker_0, # of connection points: 2
#     Edge 65, Type (0, 0), BuildingBlock: MIFKUJ_clean_linker_0, # of connection points: 2
#     Edge 66, Type (0, 0), BuildingBlock: MIFKUJ_clean_linker_0, # of connection points: 2
#     Edge 67, Type (0, 0), BuildingBlock: MIFKUJ_clean_linker_0, # of connection points: 2
#     Edge 68, Type (0, 0), BuildingBlock: MIFKUJ_clean_linker_0, # of connection points: 2
#     Edge 69, Type (0, 0), BuildingBlock: MIFKUJ_clean_linker_0, # of connection points: 2
#     Edge 70, Type (0, 0), BuildingBlock: MIFKUJ_clean_linker_0, # of connection points: 2
#     Edge 71, Type (0, 0), BuildingBlock: MIFKUJ_clean_linker_0, # of connection points: 2
#     Edge 72, Type (0, 0), BuildingBlock: MIFKUJ_clean_linker_0, # of connection points: 2
#     Edge 73, Type (0, 0), BuildingBlock: MIFKUJ_clean_linker_0, # of connection points: 2
#     Edge 74, Type (0, 0), BuildingBlock: MIFKUJ_clean_linker_0, # of connection points: 2
#     Edge 75, Type (0, 0), BuildingBlock: MIFKUJ_clean_linker_0, # of connection points: 2
#     Edge 76, Type (0, 0), BuildingBlock: MIFKUJ_clean_linker_0, # of connection points: 2
#     Edge 77, Type (0, 0), BuildingBlock: MIFKUJ_clean_linker_0, # of connection points: 2
#     Edge 78, Type (0, 0), BuildingBlock: MIFKUJ_clean_linker_0, # of connection points: 2
#     Edge 79, Type (0, 0), BuildingBlock: MIFKUJ_clean_linker_0, # of connection points: 2
#     Edge 80, Type (0, 0), BuildingBlock: MIFKUJ_clean_linker_0, # of connection points: 2
#     Edge 81, Type (0, 0), BuildingBlock: MIFKUJ_clean_linker_0, # of connection points: 2
#     Edge 82, Type (0, 0), BuildingBlock: MIFKUJ_clean_linker_0, # of connection points: 2
#     Edge 83, Type (0, 0), BuildingBlock: MIFKUJ_clean_linker_0, # of connection points: 2
#     Edge 84, Type (0, 0), BuildingBlock: MIFKUJ_clean_linker_0, # of connection points: 2
#     Edge 85, Type (0, 0), BuildingBlock: MIFKUJ_clean_linker_0, # of connection points: 2
#     Edge 86, Type (0, 0), BuildingBlock: MIFKUJ_clean_linker_0, # of connection points: 2
#     Edge 87, Type (0, 0), BuildingBlock: MIFKUJ_clean_linker_0, # of connection points: 2
#     Edge 88, Type (0, 0), BuildingBlock: MIFKUJ_clean_linker_0, # of connection points: 2
#     Edge 89, Type (0, 0), BuildingBlock: MIFKUJ_clean_linker_0, # of connection points: 2
#     Edge 90, Type (0, 0), BuildingBlock: MIFKUJ_clean_linker_0, # of connection points: 2
#     Edge 91, Type (0, 0), BuildingBlock: MIFKUJ_clean_linker_0, # of connection points: 2
#     Edge 92, Type (0, 0), BuildingBlock: MIFKUJ_clean_linker_0, # of connection points: 2
#     Edge 93, Type (0, 0), BuildingBlock: MIFKUJ_clean_linker_0, # of connection points: 2
#     Edge 94, Type (0, 0), BuildingBlock: MIFKUJ_clean_linker_0, # of connection points: 2
#     Edge 95, Type (0, 0), BuildingBlock: MIFKUJ_clean_linker_0, # of connection points: 2
# Relax obj value: 0.134
# Max RMSD: 0.098
# Mean RMSD: 0.098
data_MOF--net-umu--node1-CEKHIL_clean_sbu_0--edge1-MIFKUJ_clean_linker_0
_symmetry_space_group_name_H-M    P1
_symmetry_Int_Tables_number       1
_symmetry_cell_setting            triclinic
loop_
_symmetry_equiv_pos_as_xyz
'x, y, z'
_cell_length_a     106.63116
_cell_length_b     106.6225
_cell_length_c     33.266986
_cell_angle_alpha  90.002536
_cell_angle_beta   89.959364
_cell_angle_gamma 89.999394
loop_
_atom_site_label
_atom_site_type_symbol
_atom_site_fract_x
_atom_site_fract_y
_atom_site_fract_z
_atom_type_partial_charge
Co0 Co 0.20972 0.16106 0.09787 0.0
O1 O 0.20468 0.14365 0.09349 0.0
O2 O 0.19338 0.15979 0.07275 0.0
C3 C 0.21697 0.16072 0.16173 0.0
O4 O 0.21147 0.18023 0.09763 0.0
Co5 Co 0.23789 0.16813 0.11107 0.0
O6 O 0.23163 0.18561 0.10862 0.0
C7 C 0.22971 0.15636 0.03629 0.0
C8 C 0.1946 0.14769 0.07576 0.0
C9 C 0.22021 0.18849 0.1021 0.0
O10 O 0.2183 0.15955 0.04386 0.0
O11 O 0.23858 0.15744 0.06191 0.0
O12 O 0.20495 0.16166 0.15535 0.0
O13 O 0.22369 0.15866 0.13037 0.0
Co14 Co 0.09767 0.95781 0.34731 0.0
O15 O 0.11492 0.95251 0.34143 0.0
O16 O 0.09852 0.94096 0.32501 0.0
C17 C 0.0992 0.96635 0.40951 0.0
O18 O 0.07853 0.96007 0.34976 0.0
Co19 Co 0.09189 0.98649 0.35491 0.0
O20 O 0.07427 0.9806 0.35891 0.0
C21 C 0.1017 0.97616 0.28017 0.0
C22 C 0.11067 0.94217 0.32594 0.0
C23 C 0.07074 0.96923 0.35468 0.0
O24 O 0.09829 0.96513 0.29136 0.0
O25 O 0.10157 0.9857 0.30344 0.0
O26 O 0.09795 0.95425 0.40573 0.0
O27 O 0.10088 0.97233 0.37645 0.0
Co28 Co 0.29969 0.85087 0.6011 0.0
O29 O 0.30507 0.8678 0.58902 0.0
O30 O 0.31595 0.85079 0.57445 0.0
C31 C 0.2929 0.85508 0.66414 0.0
O32 O 0.29754 0.83185 0.60936 0.0
Co33 Co 0.27195 0.84439 0.62357 0.0
O34 O 0.27882 0.82768 0.63761 0.0
C35 C 0.27888 0.85164 0.54052 0.0
C36 C 0.31503 0.86295 0.5728 0.0
C37 C 0.2896 0.82418 0.62546 0.0
O38 O 0.29065 0.85016 0.54797 0.0
O39 O 0.27035 0.85096 0.56756 0.0
O40 O 0.30476 0.85278 0.65808 0.0
O41 O 0.28605 0.85531 0.63255 0.0
Co42 Co 0.40906 0.04901 0.84933 0.0
O43 O 0.39215 0.0542 0.8363 0.0
O44 O 0.40918 0.06513 0.82199 0.0
C45 C 0.4047 0.04281 0.91285 0.0
O46 O 0.42803 0.04708 0.85861 0.0
Co47 Co 0.41556 0.02154 0.87413 0.0
O48 O 0.43218 0.02858 0.88812 0.0
C49 C 0.40936 0.02772 0.78954 0.0
C50 C 0.39703 0.06417 0.82021 0.0
C51 C 0.43567 0.03931 0.8755 0.0
O52 O 0.41005 0.03961 0.79659 0.0
O53 O 0.41014 0.01938 0.81711 0.0
O54 O 0.407 0.05459 0.90559 0.0
O55 O 0.40449 0.03559 0.88202 0.0
Co56 Co 0.20926 0.84648 0.08056 0.0
O57 O 0.2055 0.86398 0.09184 0.0
O58 O 0.19308 0.84804 0.1065 0.0
C59 C 0.21651 0.84899 0.01681 0.0
O60 O 0.20929 0.82734 0.07374 0.0
Co61 Co 0.23615 0.83671 0.06046 0.0
O62 O 0.22757 0.82079 0.04728 0.0
C63 C 0.22991 0.84522 0.14229 0.0
C64 C 0.19507 0.86005 0.10779 0.0
C65 C 0.21637 0.81872 0.05874 0.0
O66 O 0.21807 0.84517 0.1343 0.0
O67 O 0.23838 0.8434 0.11572 0.0
O68 O 0.20447 0.84858 0.02335 0.0
O69 O 0.22339 0.84896 0.04847 0.0
Co70 Co 0.4122 0.95945 0.32725 0.0
O71 O 0.39493 0.95423 0.33453 0.0
O72 O 0.41143 0.94324 0.35377 0.0
C73 C 0.41059 0.96617 0.26285 0.0
O74 O 0.43138 0.96146 0.32445 0.0
Co75 Co 0.41873 0.98757 0.30991 0.0
O76 O 0.43622 0.98137 0.30802 0.0
C77 C 0.40907 0.97998 0.38888 0.0
C78 C 0.39929 0.94427 0.3522 0.0
C79 C 0.43944 0.97015 0.31634 0.0
O80 O 0.41143 0.96839 0.38084 0.0
O81 O 0.40994 0.98873 0.36273 0.0
O82 O 0.41193 0.95425 0.27013 0.0
O83 O 0.40905 0.97313 0.29395 0.0
Co84 Co 0.29843 0.16014 0.57999 0.0
O85 O 0.30422 0.14326 0.59013 0.0
O86 O 0.31451 0.16039 0.60756 0.0
C87 C 0.29222 0.15672 0.51597 0.0
O88 O 0.29573 0.17914 0.57361 0.0
Co89 Co 0.27049 0.1657 0.55772 0.0
O90 O 0.27672 0.18285 0.54682 0.0
C91 C 0.27739 0.15891 0.64096 0.0
C92 C 0.31393 0.14819 0.60755 0.0
C93 C 0.28741 0.18665 0.55887 0.0
O94 O 0.28918 0.15993 0.63297 0.0
O95 O 0.26875 0.15985 0.61444 0.0
O96 O 0.30396 0.1592 0.52336 0.0
O97 O 0.28514 0.15564 0.54695 0.0
Co98 Co 0.09875 0.05004 0.82901 0.0
O99 O 0.11602 0.05442 0.84044 0.0
O100 O 0.0997 0.0665 0.8537 0.0
C101 C 0.10234 0.04238 0.76654 0.0
O102 O 0.07967 0.0492 0.82134 0.0
Co103 Co 0.0899 0.02284 0.80947 0.0
O104 O 0.0744 0.0312 0.7905 0.0
C105 C 0.09552 0.03032 0.89352 0.0
C106 C 0.11177 0.06483 0.85554 0.0
C107 C 0.07164 0.0421 0.80344 0.0
O108 O 0.09736 0.04182 0.88338 0.0
O109 O 0.09309 0.0215 0.86858 0.0
O110 O 0.10092 0.05441 0.77174 0.0
O111 O 0.10217 0.03572 0.7987 0.0
Co112 Co 0.79917 0.85033 0.07291 0.0
O113 O 0.80429 0.86729 0.0855 0.0
O114 O 0.81524 0.85033 0.10043 0.0
C115 C 0.79292 0.85412 0.00918 0.0
O116 O 0.79727 0.83141 0.06417 0.0
Co117 Co 0.77152 0.84392 0.05059 0.0
O118 O 0.77847 0.82719 0.03675 0.0
C119 C 0.77819 0.8504 0.1341 0.0
C120 C 0.81419 0.86248 0.10222 0.0
C121 C 0.78935 0.82374 0.04821 0.0
O122 O 0.78996 0.84937 0.12586 0.0
O123 O 0.76956 0.84979 0.10745 0.0
O124 O 0.80473 0.8521 0.01666 0.0
O125 O 0.78569 0.85469 0.04002 0.0
Co126 Co 0.91042 0.05011 0.83494 0.0
O127 O 0.89298 0.05474 0.84321 0.0
O128 O 0.90922 0.06642 0.86037 0.0
C129 C 0.90832 0.04256 0.77156 0.0
O130 O 0.92964 0.04912 0.83047 0.0
Co131 Co 0.91921 0.02273 0.81761 0.0
O132 O 0.9351 0.03086 0.80139 0.0
C133 C 0.90906 0.02975 0.89694 0.0
C134 C 0.89712 0.06497 0.85988 0.0
C135 C 0.93777 0.04185 0.81366 0.0
O136 O 0.91043 0.04151 0.88905 0.0
O137 O 0.91094 0.02108 0.87106 0.0
O138 O 0.90935 0.05462 0.77721 0.0
O139 O 0.90765 0.03596 0.80371 0.0
Co140 Co 0.70726 0.15851 0.57611 0.0
O141 O 0.70128 0.14152 0.58389 0.0
O142 O 0.69087 0.15858 0.60148 0.0
C143 C 0.71469 0.1556 0.51294 0.0
O144 O 0.70984 0.17757 0.57202 0.0
Co145 Co 0.73538 0.16476 0.55855 0.0
O146 O 0.72922 0.18206 0.54955 0.0
C147 C 0.72738 0.15533 0.63807 0.0
C148 C 0.69142 0.14639 0.60069 0.0
C149 C 0.71822 0.18546 0.55993 0.0
O150 O 0.71579 0.15777 0.63024 0.0
O151 O 0.73614 0.15624 0.61192 0.0
O152 O 0.7028 0.15796 0.51821 0.0
O153 O 0.72113 0.15446 0.54518 0.0
Co154 Co 0.60034 0.95842 0.32668 0.0
O155 O 0.61743 0.95292 0.33598 0.0
O156 O 0.60059 0.94272 0.35661 0.0
C157 C 0.60279 0.96386 0.26135 0.0
O158 O 0.58132 0.96079 0.32163 0.0
Co159 Co 0.59474 0.98627 0.30327 0.0
O160 O 0.57726 0.98012 0.29767 0.0
C161 C 0.60165 0.97999 0.38625 0.0
C162 C 0.61277 0.94339 0.35514 0.0
C163 C 0.57363 0.96929 0.30918 0.0
O164 O 0.60043 0.9682 0.3787 0.0
O165 O 0.6012 0.98852 0.35926 0.0
O166 O 0.60086 0.95217 0.27079 0.0
O167 O 0.60428 0.97138 0.29111 0.0
Co168 Co 0.79644 0.16177 0.09291 0.0
O169 O 0.80207 0.14453 0.08716 0.0
O170 O 0.81235 0.16112 0.0647 0.0
C171 C 0.79006 0.16064 0.15785 0.0
O172 O 0.79426 0.18096 0.09452 0.0
Co173 Co 0.76856 0.16849 0.11151 0.0
O174 O 0.7751 0.18574 0.1183 0.0
C175 C 0.77545 0.15811 0.03305 0.0
C176 C 0.81169 0.14898 0.06786 0.0
C177 C 0.78605 0.18897 0.10707 0.0
O178 O 0.78713 0.16036 0.04006 0.0
O179 O 0.76688 0.15944 0.05956 0.0
O180 O 0.80194 0.16208 0.14982 0.0
O181 O 0.783 0.15874 0.12722 0.0
Co182 Co 0.59631 0.04883 0.85065 0.0
O183 O 0.61334 0.05391 0.83843 0.0
O184 O 0.59649 0.06499 0.82348 0.0
C185 C 0.60012 0.04239 0.91429 0.0
O186 O 0.5773 0.04711 0.85927 0.0
Co187 Co 0.58942 0.0213 0.87299 0.0
O188 O 0.57305 0.0286 0.88857 0.0
C189 C 0.59446 0.02809 0.78822 0.0
C190 C 0.60864 0.0639 0.822 0.0
C191 C 0.56962 0.03939 0.87629 0.0
O192 O 0.59526 0.03981 0.7973 0.0
O193 O 0.59297 0.01938 0.81428 0.0
O194 O 0.59815 0.05422 0.90703 0.0
O195 O 0.60056 0.03519 0.88334 0.0
Co196 Co 0.71015 0.84557 0.59667 0.0
O197 O 0.70548 0.86277 0.58549 0.0
O198 O 0.69463 0.8462 0.56613 0.0
C199 C 0.71517 0.84835 0.66209 0.0
O200 O 0.71161 0.82646 0.60313 0.0
Co201 Co 0.73733 0.83844 0.62306 0.0
O202 O 0.73003 0.8216 0.63226 0.0
C203 C 0.73221 0.84528 0.53868 0.0
C204 C 0.69583 0.85834 0.56637 0.0
C205 C 0.71926 0.81848 0.61897 0.0
O206 O 0.7203 0.84517 0.54541 0.0
O207 O 0.74044 0.8438 0.56628 0.0
O208 O 0.7035 0.84681 0.65184 0.0
O209 O 0.72305 0.84916 0.63294 0.0
Co210 Co 0.90909 0.96001 0.3506 0.0
O211 O 0.89209 0.95428 0.34222 0.0
O212 O 0.90902 0.9434 0.32643 0.0
C213 C 0.90588 0.96776 0.41314 0.0
O214 O 0.92819 0.96257 0.35542 0.0
Co215 Co 0.91506 0.98834 0.36642 0.0
O216 O 0.93257 0.98255 0.37258 0.0
C217 C 0.90559 0.97969 0.28788 0.0
C218 C 0.89684 0.94422 0.32639 0.0
C219 C 0.93602 0.97138 0.36459 0.0
O220 O 0.90862 0.96826 0.29599 0.0
O221 O 0.90609 0.98853 0.31382 0.0
O222 O 0.90816 0.95583 0.40866 0.0
O223 O 0.90497 0.97403 0.38047 0.0
Co224 Co 0.70693 0.65797 0.59757 0.0
O225 O 0.70065 0.64108 0.58996 0.0
O226 O 0.69076 0.65831 0.5709 0.0
C227 C 0.71374 0.65541 0.66158 0.0
O228 O 0.70992 0.67693 0.60128 0.0
Co229 Co 0.73508 0.66357 0.61652 0.0
O230 O 0.72898 0.68083 0.62743 0.0
C231 C 0.72742 0.65437 0.5367 0.0
C232 C 0.691 0.64612 0.57239 0.0
C233 C 0.71824 0.68453 0.61547 0.0
O234 O 0.71585 0.65702 0.5441 0.0
O235 O 0.73611 0.65499 0.56315 0.0
O236 O 0.70191 0.65772 0.65496 0.0
O237 O 0.72044 0.65383 0.62998 0.0
Co238 Co 0.59682 0.45847 0.84262 0.0
O239 O 0.61417 0.45438 0.83122 0.0
O240 O 0.59814 0.44168 0.82069 0.0
C241 C 0.59977 0.46721 0.904 0.0
O242 O 0.57772 0.45898 0.85122 0.0
Co243 Co 0.58783 0.48607 0.8555 0.0
O244 O 0.57206 0.4781 0.87328 0.0
C245 C 0.59474 0.47723 0.77464 0.0
C246 C 0.61014 0.44366 0.81788 0.0
C247 C 0.56949 0.4667 0.86534 0.0
O248 O 0.59528 0.46576 0.78674 0.0
O249 O 0.5929 0.48656 0.79802 0.0
O250 O 0.59919 0.45505 0.90051 0.0
O251 O 0.59974 0.47331 0.87069 0.0
Co252 Co 0.79973 0.34959 0.09422 0.0
O253 O 0.80571 0.36649 0.08509 0.0
O254 O 0.81619 0.3493 0.06931 0.0
C255 C 0.79218 0.3528 0.1571 0.0
O256 O 0.79695 0.33063 0.0998 0.0
Co257 Co 0.77137 0.34403 0.11039 0.0
O258 O 0.77735 0.32674 0.12159 0.0
C259 C 0.78 0.35249 0.03088 0.0
C260 C 0.81562 0.36149 0.06897 0.0
C261 C 0.78835 0.32304 0.11222 0.0
O262 O 0.79142 0.34973 0.03977 0.0
O263 O 0.77103 0.35234 0.05645 0.0
O264 O 0.8041 0.35057 0.15206 0.0
O265 O 0.78582 0.35391 0.12462 0.0
Co266 Co 0.90854 0.55099 0.34321 0.0
O267 O 0.89157 0.55687 0.33518 0.0
O268 O 0.90853 0.56758 0.31878 0.0
C269 C 0.90559 0.54333 0.40604 0.0
O270 O 0.92759 0.54823 0.34774 0.0
Co271 Co 0.91426 0.52261 0.35882 0.0
O272 O 0.93151 0.52866 0.36982 0.0
C273 C 0.9048 0.53134 0.28053 0.0
C274 C 0.89634 0.56689 0.31913 0.0
C275 C 0.9352 0.53964 0.36021 0.0
O276 O 0.90798 0.54272 0.28873 0.0
O277 O 0.9052 0.52241 0.30618 0.0
O278 O 0.90785 0.55526 0.40119 0.0
O279 O 0.9044 0.53703 0.37349 0.0
Co280 Co 0.70766 0.34628 0.57751 0.0
O281 O 0.70358 0.36361 0.58924 0.0
O282 O 0.69065 0.34767 0.59803 0.0
C283 C 0.71705 0.34981 0.51729 0.0
O284 O 0.70823 0.32718 0.56824 0.0
Co285 Co 0.73535 0.33728 0.56574 0.0
O286 O 0.72741 0.32169 0.54626 0.0
C287 C 0.7256 0.34267 0.64717 0.0
C288 C 0.69269 0.35966 0.60135 0.0
C289 C 0.71604 0.31899 0.55416 0.0
O290 O 0.71436 0.34423 0.63391 0.0
O291 O 0.73512 0.3407 0.6246 0.0
O292 O 0.70487 0.34907 0.51938 0.0
O293 O 0.72276 0.34939 0.55121 0.0
Co294 Co 0.91176 0.45987 0.8271 0.0
O295 O 0.89452 0.45478 0.83657 0.0
O296 O 0.91121 0.44323 0.8504 0.0
C297 C 0.90889 0.46824 0.76499 0.0
O298 O 0.93086 0.4613 0.82044 0.0
Co299 Co 0.91959 0.48775 0.81346 0.0
O300 O 0.93592 0.48051 0.79786 0.0
C301 C 0.91306 0.47897 0.89469 0.0
C302 C 0.89909 0.44446 0.85135 0.0
C303 C 0.93892 0.4693 0.80688 0.0
O304 O 0.91249 0.46748 0.88279 0.0
O305 O 0.91482 0.48827 0.87112 0.0
O306 O 0.91011 0.45614 0.76898 0.0
O307 O 0.90834 0.47442 0.79808 0.0
Co308 Co 0.79755 0.66367 0.0811 0.0
O309 O 0.8017 0.64651 0.09497 0.0
O310 O 0.81462 0.66257 0.10124 0.0
C311 C 0.78803 0.65941 0.02163 0.0
O312 O 0.79695 0.68262 0.06947 0.0
Co313 Co 0.76987 0.67264 0.06831 0.0
O314 O 0.77784 0.68792 0.04648 0.0
C315 C 0.77947 0.66736 0.15012 0.0
C316 C 0.81261 0.65064 0.10624 0.0
C317 C 0.78924 0.69062 0.05398 0.0
O318 O 0.79083 0.66624 0.1373 0.0
O319 O 0.77001 0.66897 0.12707 0.0
O320 O 0.80022 0.66025 0.02322 0.0
O321 O 0.78241 0.66024 0.05562 0.0
Co322 Co 0.59575 0.54795 0.3267 0.0
O323 O 0.6125 0.55385 0.33843 0.0
O324 O 0.59511 0.56421 0.35319 0.0
C325 C 0.59991 0.54136 0.26351 0.0
O326 O 0.57682 0.54498 0.31892 0.0
Co327 Co 0.59074 0.5198 0.30573 0.0
O328 O 0.57341 0.52556 0.29478 0.0
C329 C 0.59931 0.52747 0.38628 0.0
C330 C 0.60729 0.5636 0.3547 0.0
C331 C 0.56944 0.53637 0.30514 0.0
O332 O 0.59577 0.53885 0.37983 0.0
O333 O 0.59938 0.51899 0.35904 0.0
O334 O 0.59723 0.55313 0.26973 0.0
O335 O 0.60064 0.53454 0.29511 0.0
Co336 Co 0.29742 0.34773 0.58214 0.0
O337 O 0.30263 0.36467 0.59418 0.0
O338 O 0.31355 0.34775 0.60964 0.0
C339 C 0.29117 0.3517 0.51849 0.0
O340 O 0.29528 0.32871 0.57385 0.0
Co341 Co 0.26966 0.34169 0.55914 0.0
O342 O 0.27627 0.32473 0.54745 0.0
C343 C 0.27631 0.34873 0.64233 0.0
C344 C 0.31252 0.35991 0.61101 0.0
C345 C 0.28708 0.3211 0.55886 0.0
O346 O 0.2881 0.34717 0.63496 0.0
O347 O 0.26784 0.34816 0.61519 0.0
O348 O 0.30296 0.34942 0.52565 0.0
O349 O 0.28403 0.35221 0.54948 0.0
Co350 Co 0.40849 0.55074 0.32668 0.0
O351 O 0.392 0.5579 0.33472 0.0
O352 O 0.40975 0.56707 0.3524 0.0
C353 C 0.40508 0.54366 0.2634 0.0
O354 O 0.42725 0.54661 0.32181 0.0
Co355 Co 0.41198 0.52209 0.31011 0.0
O356 O 0.42974 0.52677 0.30014 0.0
C357 C 0.404 0.53104 0.3897 0.0
C358 C 0.39755 0.56738 0.35147 0.0
C359 C 0.43424 0.53746 0.30965 0.0
O360 O 0.40746 0.5423 0.38094 0.0
O361 O 0.40363 0.52212 0.36402 0.0
O362 O 0.40818 0.55536 0.26897 0.0
O363 O 0.40332 0.53729 0.29557 0.0
Co364 Co 0.20822 0.65898 0.07415 0.0
O365 O 0.20308 0.6416 0.08089 0.0
O366 O 0.19221 0.65808 0.10127 0.0
C367 C 0.21502 0.6577 0.00957 0.0
O368 O 0.20962 0.67813 0.07191 0.0
Co369 Co 0.23577 0.66702 0.05615 0.0
O370 O 0.22849 0.68394 0.04809 0.0
C371 C 0.22901 0.65696 0.13539 0.0
C372 C 0.19321 0.64596 0.09921 0.0
C373 C 0.21737 0.68654 0.05931 0.0
O374 O 0.21725 0.65834 0.1276 0.0
O375 O 0.23763 0.65859 0.10917 0.0
O376 O 0.20305 0.65874 0.01692 0.0
O377 O 0.22199 0.6563 0.0407 0.0
Co378 Co 0.09902 0.45913 0.82659 0.0
O379 O 0.11633 0.45379 0.83108 0.0
O380 O 0.09994 0.4427 0.85102 0.0
C381 C 0.09973 0.46692 0.76336 0.0
O382 O 0.07988 0.46106 0.82591 0.0
Co383 Co 0.09214 0.48734 0.81534 0.0
O384 O 0.07477 0.48095 0.81046 0.0
C385 C 0.10312 0.47861 0.89063 0.0
C386 C 0.11206 0.44375 0.84855 0.0
C387 C 0.07172 0.46963 0.81779 0.0
O388 O 0.10036 0.46721 0.88139 0.0
O389 O 0.10204 0.48772 0.86592 0.0
O390 O 0.09861 0.45486 0.76867 0.0
O391 O 0.10175 0.47332 0.79541 0.0
Co392 Co 0.2984 0.66314 0.59346 0.0
O393 O 0.30381 0.64618 0.58172 0.0
O394 O 0.31471 0.66319 0.56716 0.0
C395 C 0.29144 0.6588 0.65622 0.0
O396 O 0.29639 0.68217 0.60183 0.0
Co397 Co 0.27076 0.66995 0.61556 0.0
O398 O 0.27782 0.68644 0.63085 0.0
C399 C 0.27768 0.66269 0.53237 0.0
C400 C 0.31383 0.65102 0.56588 0.0
C401 C 0.28862 0.68986 0.61859 0.0
O402 O 0.28949 0.66387 0.54002 0.0
O403 O 0.26914 0.66362 0.55926 0.0
O404 O 0.30331 0.66114 0.65055 0.0
O405 O 0.28464 0.65873 0.62451 0.0
Co406 Co 0.09654 0.54796 0.34356 0.0
O407 O 0.11358 0.55342 0.3336 0.0
O408 O 0.09667 0.56377 0.31439 0.0
C409 C 0.09991 0.54208 0.40792 0.0
O410 O 0.07745 0.54574 0.34946 0.0
Co411 Co 0.09003 0.52047 0.36889 0.0
O412 O 0.07309 0.52733 0.37942 0.0
C413 C 0.0988 0.52629 0.28662 0.0
C414 C 0.10885 0.56303 0.31509 0.0
C415 C 0.06965 0.53794 0.36564 0.0
O416 O 0.09683 0.53812 0.29181 0.0
O417 O 0.09782 0.51818 0.31482 0.0
O418 O 0.09755 0.55383 0.40006 0.0
O419 O 0.10063 0.53484 0.37734 0.0
Co420 Co 0.20859 0.34968 0.10266 0.0
O421 O 0.20332 0.36699 0.09705 0.0
O422 O 0.19263 0.35061 0.07507 0.0
C423 C 0.21496 0.35054 0.16744 0.0
O424 O 0.21059 0.33053 0.10349 0.0
Co425 Co 0.23662 0.34302 0.12051 0.0
O426 O 0.23064 0.32545 0.11746 0.0
C427 C 0.22941 0.35327 0.04214 0.0
C428 C 0.19357 0.36274 0.07798 0.0
C429 C 0.21937 0.3224 0.10938 0.0
O430 O 0.21778 0.35095 0.04963 0.0
O431 O 0.23805 0.35224 0.06858 0.0
O432 O 0.20307 0.34931 0.15945 0.0
O433 O 0.22208 0.35248 0.13694 0.0
Co434 Co 0.41043 0.45885 0.84434 0.0
O435 O 0.3931 0.45487 0.832 0.0
O436 O 0.409 0.44182 0.82437 0.0
C437 C 0.40705 0.4684 0.9044 0.0
O438 O 0.42943 0.45908 0.85449 0.0
Co439 Co 0.41998 0.48635 0.85512 0.0
O440 O 0.43528 0.47819 0.87601 0.0
C441 C 0.41468 0.47652 0.77396 0.0
C442 C 0.39705 0.44391 0.82049 0.0
C443 C 0.43769 0.4667 0.86895 0.0
O444 O 0.41276 0.46539 0.78772 0.0
O445 O 0.41686 0.48607 0.79612 0.0
O446 O 0.40745 0.45621 0.90236 0.0
O447 O 0.40754 0.47411 0.87039 0.0
H448 H 0.13723 0.06332 0.86517 0.0
H449 H 0.15092 0.07755 0.90255 0.0
H450 H 0.11918 0.10104 0.93063 0.0
H451 H 0.10544 0.0869 0.89281 0.0
H452 H 0.13968 0.115 0.91033 0.0
H453 H 0.13099 0.08035 -0.00033 0.0
H454 H 0.13018 0.05794 0.01794 0.0
H455 H 0.17 0.05497 0.00118 0.0
H456 H 0.17102 0.07731 0.9822 0.0
H457 H 0.16982 0.1518 0.05871 0.0
H458 H 0.15532 0.13784 0.02337 0.0
H459 H 0.18477 0.11031 0.01112 0.0
H460 H 0.19898 0.12392 0.0488 0.0
H461 H 0.16495 0.09834 0.0235 0.0
H462 H 0.1743 0.13177 0.93127 0.0
H463 H 0.17594 0.15377 0.90888 0.0
H464 H 0.13634 0.15867 0.92628 0.0
H465 H 0.13448 0.13674 0.94918 0.0
C466 C 0.13315 0.07155 0.87906 0.0
C467 C 0.12021 0.07393 0.87608 0.0
C468 C 0.141 0.07966 0.90064 0.0
C469 C 0.13608 0.0903 0.92002 0.0
C470 C 0.12321 0.09289 0.9161 0.0
C471 C 0.11535 0.08478 0.89449 0.0
C472 C 0.1443 0.09858 0.94489 0.0
C473 C 0.14509 0.11139 0.93541 0.0
C474 C 0.15164 0.09386 0.97699 0.0
C475 C 0.15107 0.08049 0.98923 0.0
C476 C 0.13956 0.0749 -0.00031 0.0
C477 C 0.13907 0.06221 0.01018 0.0
C478 C 0.15003 0.05503 0.01066 0.0
C479 C 0.16152 0.06054 0.00078 0.0
C480 C 0.16206 0.07322 0.99019 0.0
C481 C 0.17314 0.14271 0.04879 0.0
C482 C 0.18554 0.13897 0.05655 0.0
C483 C 0.16488 0.13476 0.02815 0.0
C484 C 0.16895 0.12306 0.01337 0.0
C485 C 0.1813 0.11924 0.02195 0.0
C486 C 0.18945 0.12705 0.04355 0.0
C487 C 0.16046 0.11484 0.9889 0.0
C488 C 0.15958 0.10201 -0.00155 0.0
C489 C 0.15319 0.11951 0.9564 0.0
C490 C 0.15427 0.13266 0.94228 0.0
C491 C 0.16595 0.13757 0.93051 0.0
C492 C 0.16692 0.15002 0.91771 0.0
C493 C 0.15626 0.15762 0.91626 0.0
C494 C 0.14459 0.15278 0.92746 0.0
C495 C 0.14357 0.14033 0.9403 0.0
H496 H 0.15703 0.16726 0.90638 0.0
H497 H 0.14962 0.04521 0.01874 0.0
H498 H 0.10479 0.91953 0.29089 0.0
H499 H 0.1189 0.90533 0.25451 0.0
H500 H 0.15007 0.92979 0.28025 0.0
H501 H 0.13607 0.94398 0.31656 0.0
H502 H 0.14957 0.92306 0.2012 0.0
H503 H 0.1468 0.90199 0.32911 0.0
H504 H 0.1358 0.89207 0.38608 0.0
H505 H 0.11945 0.86501 0.30613 0.0
H506 H 0.13023 0.87488 0.24859 0.0
H507 H 0.19946 0.88385 0.1356 0.0
H508 H 0.18514 0.89743 0.17313 0.0
H509 H 0.15603 0.86949 0.16304 0.0
H510 H 0.17054 0.85565 0.12732 0.0
H511 H 0.15503 0.87802 0.23377 0.0
H512 H 0.1571 0.89853 0.10587 0.0
H513 H 0.16723 0.9084 0.04718 0.0
H514 H 0.18363 0.93637 0.12369 0.0
H515 H 0.17372 0.92658 0.18293 0.0
C516 C 0.11467 0.92181 0.28922 0.0
C517 C 0.11927 0.9329 0.30683 0.0
C518 C 0.12274 0.91367 0.26839 0.0
C519 C 0.1356 0.91644 0.26463 0.0
C520 C 0.14021 0.92743 0.28259 0.0
C521 C 0.13218 0.93552 0.30358 0.0
C522 C 0.14421 0.90812 0.24115 0.0
C523 C 0.15088 0.91324 0.20862 0.0
C524 C 0.14567 0.89521 0.24991 0.0
C525 C 0.13922 0.88925 0.2845 0.0
C526 C 0.14078 0.89399 0.32363 0.0
C527 C 0.1346 0.88836 0.35604 0.0
C528 C 0.12691 0.87794 0.34971 0.0
C529 C 0.1254 0.8731 0.31098 0.0
C530 C 0.13155 0.8787 0.27847 0.0
C531 C 0.18997 0.88065 0.14112 0.0
C532 C 0.18614 0.86869 0.12824 0.0
C533 C 0.18173 0.88846 0.16249 0.0
C534 C 0.16933 0.88466 0.17058 0.0
C535 C 0.1655 0.87272 0.1574 0.0
C536 C 0.1738 0.86481 0.13674 0.0
C537 C 0.16046 0.89293 0.19357 0.0
C538 C 0.15372 0.88782 0.2261 0.0
C539 C 0.15881 0.90583 0.18444 0.0
C540 C 0.16477 0.91175 0.14888 0.0
C541 C 0.16294 0.90674 0.11021 0.0
C542 C 0.16863 0.91233 0.07684 0.0
C543 C 0.1761 0.92299 0.08172 0.0
C544 C 0.17786 0.9281 0.11997 0.0
C545 C 0.1722 0.92255 0.15344 0.0
H546 H 0.18049 0.9273 0.05585 0.0
H547 H 0.12213 0.8736 0.37484 0.0
H548 H 0.3747 0.94745 0.37303 0.0
H549 H 0.36117 0.93298 0.41034 0.0
H550 H 0.39101 0.90575 0.41371 0.0
H551 H 0.40476 0.92034 0.37718 0.0
H552 H 0.36519 0.89625 0.39227 0.0
H553 H 0.38752 0.92006 0.49284 0.0
H554 H 0.39504 0.93973 0.52348 0.0
H555 H 0.35703 0.95185 0.54105 0.0
H556 H 0.34928 0.93234 0.50978 0.0
H557 H 0.33712 0.85571 0.53685 0.0
H558 H 0.35201 0.86885 0.49974 0.0
H559 H 0.32893 0.90131 0.52259 0.0
H560 H 0.31423 0.88829 0.56047 0.0
H561 H 0.35219 0.90786 0.53062 0.0
H562 H 0.3293 0.88568 0.42995 0.0
H563 H 0.32054 0.86725 0.39511 0.0
H564 H 0.35771 0.85325 0.37368 0.0
H565 H 0.3667 0.87152 0.40896 0.0
C566 C 0.37837 0.93835 0.38138 0.0
C567 C 0.39083 0.93506 0.37212 0.0
C568 C 0.37062 0.93009 0.4028 0.0
C569 C 0.37507 0.91829 0.41492 0.0
C570 C 0.38737 0.9148 0.40462 0.0
C571 C 0.39522 0.92316 0.38384 0.0
C572 C 0.36701 0.90984 0.43965 0.0
C573 C 0.3625 0.89866 0.42277 0.0
C574 C 0.36319 0.91318 0.47898 0.0
C575 C 0.36782 0.92479 0.49859 0.0
C576 C 0.38077 0.92696 0.50293 0.0
C577 C 0.38507 0.93807 0.52045 0.0
C578 C 0.37652 0.94705 0.5341 0.0
C579 C 0.36365 0.9449 0.5304 0.0
C580 C 0.35929 0.93381 0.5128 0.0
C581 C 0.33526 0.86565 0.53417 0.0
C582 C 0.32445 0.87092 0.55163 0.0
C583 C 0.34375 0.87317 0.51267 0.0
C584 C 0.34156 0.88611 0.50769 0.0
C585 C 0.33089 0.89139 0.52584 0.0
C586 C 0.32245 0.8839 0.54749 0.0
C587 C 0.35028 0.89414 0.48337 0.0
C588 C 0.35491 0.90532 0.50026 0.0
C589 C 0.35402 0.89089 0.44375 0.0
C590 C 0.34867 0.87989 0.42252 0.0
C591 C 0.33561 0.87862 0.41812 0.0
C592 C 0.3306 0.86821 0.39824 0.0
C593 C 0.33856 0.85906 0.3823 0.0
C594 C 0.35155 0.86033 0.38612 0.0
C595 C 0.35661 0.87071 0.40604 0.0
H596 H 0.33467 0.85101 0.36691 0.0
H597 H 0.37988 0.95565 0.54761 0.0
H598 H 0.373 0.06135 0.79367 0.0
H599 H 0.36 0.07661 0.75783 0.0
H600 H 0.38978 0.10384 0.76499 0.0
H601 H 0.40303 0.08845 0.80011 0.0
H602 H 0.36291 0.11235 0.78627 0.0
H603 H 0.38774 0.09209 0.68263 0.0
H604 H 0.39617 0.07355 0.64747 0.0
H605 H 0.35874 0.06126 0.6208 0.0
H606 H 0.3501 0.07956 0.65649 0.0
H607 H 0.33509 0.15559 0.64852 0.0
H608 H 0.35006 0.14226 0.68461 0.0
H609 H 0.32897 0.10945 0.65021 0.0
H610 H 0.31419 0.12266 0.61358 0.0
H611 H 0.35266 0.10446 0.643 0.0
H612 H 0.32718 0.12237 0.74578 0.0
H613 H 0.31689 0.13926 0.7843 0.0
H614 H 0.35287 0.15429 0.8164 0.0
H615 H 0.36338 0.1376 0.77755 0.0
C616 C 0.37679 0.0706 0.78782 0.0
C617 C 0.38907 0.07368 0.79972 0.0
C618 C 0.36934 0.07931 0.76731 0.0
C619 C 0.37391 0.09137 0.75878 0.0
C620 C 0.38606 0.0946 0.7714 0.0
C621 C 0.39363 0.08578 0.79128 0.0
C622 C 0.3661 0.10035 0.7353 0.0
C623 C 0.36084 0.11079 0.75474 0.0
C624 C 0.36305 0.09805 0.69458 0.0
C625 C 0.36827 0.08713 0.67257 0.0
C626 C 0.38131 0.08537 0.66958 0.0
C627 C 0.38613 0.0749 0.64952 0.0
C628 C 0.37801 0.06619 0.63201 0.0
C629 C 0.36505 0.06796 0.63443 0.0
C630 C 0.36018 0.07839 0.65456 0.0
C631 C 0.33369 0.14553 0.64846 0.0
C632 C 0.32342 0.14021 0.62814 0.0
C633 C 0.34222 0.13791 0.66934 0.0
C634 C 0.34061 0.12481 0.67066 0.0
C635 C 0.33047 0.1195 0.64974 0.0
C636 C 0.32199 0.1271 0.62882 0.0
C637 C 0.34939 0.11658 0.69382 0.0
C638 C 0.35481 0.10619 0.67439 0.0
C639 C 0.35234 0.11878 0.73482 0.0
C640 C 0.34607 0.12882 0.75833 0.0
C641 C 0.3329 0.12934 0.76076 0.0
C642 C 0.32703 0.13886 0.7827 0.0
C643 C 0.33422 0.14787 0.80266 0.0
C644 C 0.34731 0.14733 0.80084 0.0
C645 C 0.35323 0.13783 0.77887 0.0
H646 H 0.32967 0.15524 0.8196 0.0
H647 H 0.38177 0.0581 0.61648 0.0
H648 H 0.83749 0.85597 0.13069 0.0
H649 H 0.85223 0.86913 0.16822 0.0
H650 H 0.82614 0.90001 0.16241 0.0
H651 H 0.81166 0.88707 0.12359 0.0
H652 H 0.84799 0.90895 0.15124 0.0
H653 H 0.8309 0.88133 0.25057 0.0
H654 H 0.82517 0.861 0.28082 0.0
H655 H 0.86394 0.85008 0.28237 0.0
H656 H 0.86988 0.87031 0.25172 0.0
H657 H 0.87174 0.94585 0.31128 0.0
H658 H 0.85859 0.93124 0.27354 0.0
H659 H 0.89019 0.90651 0.25791 0.0
H660 H 0.90352 0.92122 0.29544 0.0
H661 H 0.86665 0.89415 0.27932 0.0
H662 H 0.88293 0.92393 0.18312 0.0
H663 H 0.88719 0.9453 0.15821 0.0
H664 H 0.8477 0.95314 0.15603 0.0
H665 H 0.84321 0.93189 0.18165 0.0
C666 C 0.83493 0.86559 0.13727 0.0
C667 C 0.82338 0.87046 0.1241 0.0
C668 C 0.84334 0.8731 0.15904 0.0
C669 C 0.84028 0.88558 0.16893 0.0
C670 C 0.8288 0.89046 0.1553 0.0
C671 C 0.82049 0.88302 0.13309 0.0
C672 C 0.84899 0.89359 0.19329 0.0
C673 C 0.85194 0.9057 0.17942 0.0
C674 C 0.85436 0.88943 0.22998 0.0
C675 C 0.85082 0.87727 0.24847 0.0
C676 C 0.8382 0.87456 0.25711 0.0
C677 C 0.83491 0.86306 0.27438 0.0
C678 C 0.84418 0.85424 0.28341 0.0
C679 C 0.85676 0.85692 0.2753 0.0
C680 C 0.8601 0.8684 0.25803 0.0
C681 C 0.87591 0.93726 0.30019 0.0
C682 C 0.88872 0.93473 0.30636 0.0
C683 C 0.86836 0.92892 0.27847 0.0
C684 C 0.87341 0.91782 0.2626 0.0
C685 C 0.88609 0.91502 0.26986 0.0
C686 C 0.8937 0.92345 0.29125 0.0
C687 C 0.86551 0.90942 0.23725 0.0
C688 C 0.86272 0.89728 0.25097 0.0
C689 C 0.86006 0.91366 0.20089 0.0
C690 C 0.86274 0.92635 0.18462 0.0
C691 C 0.87516 0.93024 0.17758 0.0
C692 C 0.87761 0.94233 0.16331 0.0
C693 C 0.86772 0.95058 0.15561 0.0
C694 C 0.85535 0.94674 0.16204 0.0
C695 C 0.85285 0.93467 0.17641 0.0
H696 H 0.86965 0.95994 0.1446 0.0
H697 H 0.84162 0.84535 0.29676 0.0
H698 H 0.90332 0.08412 0.91089 0.0
H699 H 0.88922 0.09814 0.94746 0.0
H700 H 0.8574 0.08083 0.88969 0.0
H701 H 0.87148 0.06641 0.85441 0.0
H702 H 0.87423 0.11549 0.93095 0.0
H703 H 0.83158 0.08168 0.94789 0.0
H704 H 0.8276 0.05899 0.95497 0.0
H705 H 0.86467 0.0537 0.00237 0.0
H706 H 0.8688 0.07638 0.99613 0.0
H707 H 0.82324 0.15253 0.99575 0.0
H708 H 0.83746 0.13833 0.96053 0.0
H709 H 0.83587 0.11262 0.06075 0.0
H710 H 0.8207 0.12639 0.09423 0.0
H711 H 0.83669 0.09921 0.00182 0.0
H712 H 0.86256 0.13416 0.03534 0.0
H713 H 0.86901 0.15635 0.03906 0.0
H714 H 0.86976 0.15845 0.91018 0.0
H715 H 0.86317 0.13632 0.9057 0.0
C716 C 0.89332 0.08331 0.90588 0.0
C717 C 0.88854 0.07409 0.8798 0.0
C718 C 0.88523 0.09137 0.92683 0.0
C719 C 0.87215 0.09051 0.92205 0.0
C720 C 0.8674 0.08155 0.89492 0.0
C721 C 0.87548 0.07335 0.87443 0.0
C722 C 0.86355 0.09895 0.94544 0.0
C723 C 0.86602 0.1119 0.94645 0.0
C724 C 0.853 0.09436 0.96687 0.0
C725 C 0.85054 0.08072 0.9711 0.0
C726 C 0.83886 0.07568 0.95995 0.0
C727 C 0.83658 0.06282 0.96381 0.0
C728 C 0.84589 0.0549 0.97898 0.0
C729 C 0.85748 0.05984 0.99048 0.0
C730 C 0.8598 0.07269 0.98675 0.0
C731 C 0.82599 0.14387 0.0103 0.0
C732 C 0.82096 0.14063 0.04793 0.0
C733 C 0.83424 0.13575 0.99025 0.0
C734 C 0.83816 0.12442 0.00812 0.0
C735 C 0.8331 0.12123 0.04595 0.0
C736 C 0.82448 0.12915 0.06532 0.0
C737 C 0.84729 0.11583 0.98717 0.0
C738 C 0.8449 0.10284 0.98648 0.0
C739 C 0.85827 0.12031 0.96764 0.0
C740 C 0.86226 0.13362 0.97021 0.0
C741 C 0.86403 0.13938 0.00781 0.0
C742 C 0.86772 0.15194 0.01004 0.0
C743 C 0.86977 0.15881 0.97488 0.0
C744 C 0.86816 0.15313 0.93739 0.0
C745 C 0.86446 0.14057 0.93498 0.0
H746 H 0.87262 0.16854 0.97667 0.0
H747 H 0.84411 0.04495 0.9819 0.0
H748 H 0.67415 0.15338 0.65743 0.0
H749 H 0.65965 0.13982 0.69478 0.0
H750 H 0.67241 0.10785 0.62683 0.0
H751 H 0.68714 0.1213 0.59001 0.0
H752 H 0.64529 0.10948 0.63726 0.0
H753 H 0.68376 0.11051 0.71327 0.0
H754 H 0.70122 0.1211 0.74801 0.0
H755 H 0.67521 0.13844 0.82941 0.0
H756 H 0.65755 0.12813 0.79465 0.0
H757 H 0.63424 0.06399 0.81637 0.0
H758 H 0.64759 0.0785 0.77882 0.0
H759 H 0.61494 0.09949 0.74254 0.0
H760 H 0.60149 0.08489 0.7798 0.0
H761 H 0.65216 0.10332 0.78347 0.0
H762 H 0.62001 0.11094 0.6472 0.0
H763 H 0.60277 0.10025 0.61157 0.0
H764 H 0.61702 0.06448 0.6494 0.0
H765 H 0.63445 0.07496 0.68483 0.0
C766 C 0.67378 0.14349 0.65012 0.0
C767 C 0.68181 0.13842 0.62071 0.0
C768 C 0.66551 0.13574 0.6716 0.0
C769 C 0.66496 0.12281 0.6637 0.0
C770 C 0.67265 0.1178 0.6334 0.0
C771 C 0.68109 0.1255 0.61243 0.0
C772 C 0.65674 0.11441 0.68808 0.0
C773 C 0.64676 0.10817 0.66926 0.0
C774 C 0.65871 0.1126 0.72976 0.0
C775 C 0.66932 0.11866 0.75108 0.0
C776 C 0.68175 0.11667 0.73836 0.0
C777 C 0.69168 0.12261 0.75808 0.0
C778 C 0.68932 0.13047 0.79083 0.0
C779 C 0.67702 0.13237 0.804 0.0
C780 C 0.66704 0.12648 0.7843 0.0
C781 C 0.62988 0.07172 0.80058 0.0
C782 C 0.61676 0.07322 0.80102 0.0
C783 C 0.63755 0.08006 0.77917 0.0
C784 C 0.63231 0.09006 0.7574 0.0
C785 C 0.61923 0.09177 0.75858 0.0
C786 C 0.61154 0.08343 0.78007 0.0
C787 C 0.64055 0.09845 0.7328 0.0
C788 C 0.65059 0.10469 0.75155 0.0
C789 C 0.63867 0.10022 0.69098 0.0
C790 C 0.62845 0.09375 0.66898 0.0
C791 C 0.6195 0.10079 0.64774 0.0
C792 C 0.60969 0.09478 0.62762 0.0
C793 C 0.60878 0.08171 0.62838 0.0
C794 C 0.61772 0.07461 0.649 0.0
C795 C 0.62756 0.08059 0.66913 0.0
H796 H 0.60115 0.07711 0.61296 0.0
H797 H 0.69703 0.13506 0.80605 0.0
H798 H 0.6075 0.92889 0.42116 0.0
H799 H 0.62172 0.91456 0.45692 0.0
H800 H 0.65083 0.9224 0.37064 0.0
H801 H 0.63686 0.9371 0.33575 0.0
H802 H 0.64581 0.89512 0.3905 0.0
H803 H 0.65731 0.9345 0.44532 0.0
H804 H 0.65655 0.95497 0.47963 0.0
H805 H 0.64086 0.93751 0.58454 0.0
H806 H 0.64137 0.91693 0.55059 0.0
H807 H 0.69835 0.88345 0.55227 0.0
H808 H 0.68434 0.89726 0.51482 0.0
H809 H 0.65905 0.86632 0.49449 0.0
H810 H 0.67332 0.85233 0.53089 0.0
H811 H 0.66239 0.90537 0.52581 0.0
H812 H 0.64259 0.87061 0.40737 0.0
H813 H 0.6493 0.85162 0.37079 0.0
H814 H 0.68787 0.86231 0.38504 0.0
H815 H 0.68138 0.88144 0.4212 0.0
C816 C 0.61692 0.92752 0.40973 0.0
C817 C 0.62104 0.93411 0.37555 0.0
C818 C 0.62505 0.91937 0.43029 0.0
C819 C 0.63736 0.91741 0.4165 0.0
C820 C 0.64139 0.92376 0.38184 0.0
C821 C 0.63339 0.93216 0.36195 0.0
C822 C 0.64601 0.90875 0.43821 0.0
C823 C 0.64936 0.8973 0.42024 0.0
C824 C 0.65097 0.91172 0.47645 0.0
C825 C 0.64919 0.92421 0.49517 0.0
C826 C 0.65341 0.93506 0.47534 0.0
C827 C 0.65315 0.94666 0.49487 0.0
C828 C 0.64879 0.94751 0.53437 0.0
C829 C 0.64435 0.93681 0.55405 0.0
C830 C 0.64458 0.92519 0.53463 0.0
C831 C 0.68981 0.87956 0.53984 0.0
C832 C 0.68698 0.86676 0.5446 0.0
C833 C 0.68176 0.8875 0.5184 0.0
C834 C 0.67062 0.88289 0.50128 0.0
C835 C 0.66767 0.87012 0.50657 0.0
C836 C 0.67581 0.86213 0.52767 0.0
C837 C 0.66209 0.89155 0.47859 0.0
C838 C 0.65871 0.90302 0.49636 0.0
C839 C 0.6575 0.88878 0.43956 0.0
C840 C 0.66149 0.87738 0.4174 0.0
C841 C 0.65249 0.86893 0.40257 0.0
C842 C 0.65626 0.85814 0.38193 0.0
C843 C 0.669 0.85574 0.37572 0.0
C844 C 0.678 0.86416 0.39 0.0
C845 C 0.67429 0.87496 0.41062 0.0
H846 H 0.6719 0.84738 0.35978 0.0
H847 H 0.64876 0.95647 0.54964 0.0
H848 H 0.68501 0.62167 0.58808 0.0
H849 H 0.66987 0.60842 0.55289 0.0
H850 H 0.66036 0.63937 0.47508 0.0
H851 H 0.67499 0.65284 0.51185 0.0
H852 H 0.64018 0.62725 0.48969 0.0
H853 H 0.68138 0.61379 0.44777 0.0
H854 H 0.70299 0.60619 0.45828 0.0
H855 H 0.68883 0.57329 0.51735 0.0
H856 H 0.66715 0.58077 0.5076 0.0
H857 H 0.60926 0.58897 0.34289 0.0
H858 H 0.62301 0.60365 0.3788 0.0
H859 H 0.63549 0.57345 0.45559 0.0
H860 H 0.62257 0.55873 0.4174 0.0
H861 H 0.65435 0.58584 0.43949 0.0
H862 H 0.61299 0.59953 0.48254 0.0
H863 H 0.59143 0.60727 0.47188 0.0
H864 H 0.6058 0.63967 0.41054 0.0
H865 H 0.62742 0.63206 0.42048 0.0
C866 C 0.67961 0.62568 0.56367 0.0
C867 C 0.68125 0.6383 0.55265 0.0
C868 C 0.67101 0.61805 0.54326 0.0
C869 C 0.66414 0.62272 0.51037 0.0
C870 C 0.66554 0.63545 0.50011 0.0
C871 C 0.67393 0.64317 0.52116 0.0
C872 C 0.65568 0.61435 0.48639 0.0
C873 C 0.64333 0.61825 0.47838 0.0
C874 C 0.65962 0.60247 0.47191 0.0
C875 C 0.67265 0.59789 0.47721 0.0
C876 C 0.68288 0.60496 0.46313 0.0
C877 C 0.69514 0.60067 0.46895 0.0
C878 C 0.69728 0.58928 0.48853 0.0
C879 C 0.68716 0.58212 0.50221 0.0
C880 C 0.67489 0.58637 0.4965 0.0
C881 C 0.61494 0.58556 0.36754 0.0
C882 C 0.61488 0.57277 0.37749 0.0
C883 C 0.62273 0.59396 0.38839 0.0
C884 C 0.63022 0.58982 0.42076 0.0
C885 C 0.62992 0.577 0.43084 0.0
C886 C 0.62249 0.56856 0.40913 0.0
C887 C 0.6387 0.59859 0.44341 0.0
C888 C 0.65112 0.5948 0.45095 0.0
C889 C 0.6348 0.61054 0.45745 0.0
C890 C 0.6218 0.61517 0.45198 0.0
C891 C 0.61154 0.60828 0.46664 0.0
C892 C 0.59931 0.61265 0.46073 0.0
C893 C 0.59725 0.62394 0.44047 0.0
C894 C 0.60741 0.63092 0.4262 0.0
C895 C 0.61965 0.62659 0.43201 0.0
H896 H 0.58777 0.62729 0.43588 0.0
H897 H 0.70677 0.58598 0.49305 0.0
H898 H 0.63408 0.44765 0.79122 0.0
H899 H 0.64754 0.43318 0.75364 0.0
H900 H 0.61902 0.40463 0.76105 0.0
H901 H 0.6054 0.41913 0.79819 0.0
H902 H 0.64399 0.39586 0.77775 0.0
H903 H 0.62164 0.41945 0.67735 0.0
H904 H 0.61417 0.43894 0.64542 0.0
H905 H 0.65221 0.45033 0.62395 0.0
H906 H 0.65991 0.43101 0.65644 0.0
H907 H 0.66975 0.35392 0.63408 0.0
H908 H 0.65534 0.36799 0.66956 0.0
H909 H 0.68044 0.399 0.6483 0.0
H910 H 0.69479 0.38503 0.61239 0.0
H911 H 0.65676 0.4065 0.63837 0.0
H912 H 0.67948 0.38423 0.73927 0.0
H913 H 0.68789 0.36568 0.7743 0.0
H914 H 0.65046 0.35274 0.79767 0.0
H915 H 0.64181 0.37113 0.76217 0.0
C916 C 0.6307 0.43826 0.78517 0.0
C917 C 0.61865 0.43455 0.79773 0.0
C918 C 0.63839 0.43001 0.76351 0.0
C919 C 0.63427 0.41784 0.75425 0.0
C920 C 0.6224 0.41398 0.76779 0.0
C921 C 0.61462 0.42229 0.78897 0.0
C922 C 0.64225 0.40925 0.72972 0.0
C923 C 0.64663 0.39808 0.74706 0.0
C924 C 0.64598 0.41232 0.69003 0.0
C925 C 0.64136 0.42382 0.6697 0.0
C926 C 0.62841 0.42615 0.66608 0.0
C927 C 0.62414 0.43716 0.64785 0.0
C928 C 0.63271 0.44588 0.63276 0.0
C929 C 0.64558 0.44357 0.63571 0.0
C930 C 0.64991 0.43259 0.65401 0.0
C931 C 0.67216 0.36375 0.63664 0.0
C932 C 0.68346 0.36831 0.62046 0.0
C933 C 0.66393 0.37179 0.65716 0.0
C934 C 0.66684 0.38457 0.6622 0.0
C935 C 0.67795 0.38921 0.64496 0.0
C936 C 0.68617 0.38118 0.62446 0.0
C937 C 0.65851 0.39302 0.68632 0.0
C938 C 0.65408 0.4042 0.66896 0.0
C939 C 0.65485 0.39005 0.7262 0.0
C940 C 0.66 0.37899 0.74766 0.0
C941 C 0.67304 0.37738 0.75157 0.0
C942 C 0.67785 0.3669 0.77156 0.0
C943 C 0.66971 0.35802 0.7881 0.0
C944 C 0.65675 0.35961 0.78477 0.0
C945 C 0.65189 0.37006 0.76473 0.0
H946 H 0.67345 0.34991 0.80359 0.0
H947 H 0.62939 0.45442 0.61874 0.0
H948 H 0.90322 0.43284 0.92271 0.0
H949 H 0.88936 0.41847 0.95865 0.0
H950 H 0.86309 0.41989 0.85992 0.0
H951 H 0.87649 0.43528 0.82595 0.0
H952 H 0.85002 0.419 0.91876 0.0
H953 H 0.88481 0.39317 0.8851 0.0
H954 H 0.90696 0.38668 0.88024 0.0
H955 H 0.90982 0.38641 0.00898 0.0
H956 H 0.88772 0.39305 0.01461 0.0
H957 H 0.83442 0.35384 0.01822 0.0
H958 H 0.84875 0.36702 0.97914 0.0
H959 H 0.83304 0.40006 0.03462 0.0
H960 H 0.81842 0.38696 0.07252 0.0
H961 H 0.86675 0.38212 0.99197 0.0
H962 H 0.83264 0.42468 0.97091 0.0
H963 H 0.8099 0.42837 0.9641 0.0
H964 H 0.80468 0.3904 0.92453 0.0
H965 H 0.82739 0.38657 0.9301 0.0
C966 C 0.89451 0.43001 0.90867 0.0
C967 C 0.89098 0.43506 0.87139 0.0
C968 C 0.88659 0.42167 0.92909 0.0
C969 C 0.8752 0.41767 0.91185 0.0
C970 C 0.87175 0.42271 0.87425 0.0
C971 C 0.87945 0.43146 0.85459 0.0
C972 C 0.86675 0.40858 0.93346 0.0
C973 C 0.85376 0.41094 0.93457 0.0
C974 C 0.87136 0.39774 0.95348 0.0
C975 C 0.88464 0.39371 0.95025 0.0
C976 C 0.89018 0.3918 0.91236 0.0
C977 C 0.90272 0.38808 0.90948 0.0
C978 C 0.9098 0.38616 0.94428 0.0
C979 C 0.90433 0.38791 0.98205 0.0
C980 C 0.8918 0.39163 0.98511 0.0
C981 C 0.83407 0.36391 0.02228 0.0
C982 C 0.82521 0.36934 0.04834 0.0
C983 C 0.84229 0.37146 -0.00011 0.0
C984 C 0.84188 0.38461 0.00318 0.0
C985 C 0.83338 0.38999 0.03058 0.0
C986 C 0.82507 0.38246 0.05254 0.0
C987 C 0.85017 0.39272 0.97767 0.0
C988 C 0.86308 0.39018 0.97593 0.0
C989 C 0.84541 0.403 0.95533 0.0
C990 C 0.83173 0.40531 0.9514 0.0
C991 C 0.82665 0.41714 0.96054 0.0
C992 C 0.81376 0.41926 0.95685 0.0
C993 C 0.80584 0.40963 0.94392 0.0
C994 C 0.81081 0.39786 0.93452 0.0
C995 C 0.82369 0.39571 0.93796 0.0
H996 H 0.79586 0.41128 0.94114 0.0
H997 H 0.91951 0.38329 0.94198 0.0
H998 H 0.83741 0.6554 0.1228 0.0
H999 H 0.85231 0.64189 0.15879 0.0
H1000 H 0.82365 0.61369 0.17218 0.0
H1001 H 0.8088 0.62702 0.13583 0.0
H1002 H 0.83641 0.61895 0.24413 0.0
H1003 H 0.84617 0.60903 0.10627 0.0
H1004 H 0.85223 0.61383 0.0364 0.0
H1005 H 0.8868 0.62993 0.07778 0.0
H1006 H 0.88085 0.62539 0.148 0.0
H1007 H 0.87091 0.56631 0.30971 0.0
H1008 H 0.85758 0.58126 0.27442 0.0
H1009 H 0.88984 0.60438 0.24915 0.0
H1010 H 0.90334 0.58917 0.28367 0.0
H1011 H 0.87597 0.60302 0.1845 0.0
H1012 H 0.86716 0.61263 0.32133 0.0
H1013 H 0.86144 0.60853 0.39195 0.0
H1014 H 0.82566 0.59426 0.35448 0.0
H1015 H 0.83123 0.59811 0.28356 0.0
C1016 C 0.83431 0.64628 0.13313 0.0
C1017 C 0.82192 0.64229 0.12626 0.0
C1018 C 0.84285 0.63856 0.15368 0.0
C1019 C 0.83912 0.62674 0.1682 0.0
C1020 C 0.82675 0.62275 0.16134 0.0
C1021 C 0.81829 0.63038 0.14034 0.0
C1022 C 0.848 0.61861 0.1912 0.0
C1023 C 0.845 0.61535 0.23096 0.0
C1024 C 0.85943 0.61424 0.17457 0.0
C1025 C 0.863 0.61701 0.13241 0.0
C1026 C 0.855 0.61371 0.1005 0.0
C1027 C 0.85843 0.61635 0.06083 0.0
C1028 C 0.86987 0.62221 0.05266 0.0
C1029 C 0.87793 0.62541 0.08416 0.0
C1030 C 0.87454 0.6228 0.1239 0.0
C1031 C 0.87519 0.57462 0.29698 0.0
C1032 C 0.88822 0.57654 0.2998 0.0
C1033 C 0.86752 0.58323 0.27685 0.0
C1034 C 0.8726 0.59412 0.25946 0.0
C1035 C 0.88563 0.59609 0.26231 0.0
C1036 C 0.89335 0.58741 0.28227 0.0
C1037 C 0.86434 0.60321 0.2375 0.0
C1038 C 0.86744 0.60666 0.19791 0.0
C1039 C 0.85306 0.60789 0.25446 0.0
C1040 C 0.84966 0.60555 0.29708 0.0
C1041 C 0.85811 0.60852 0.32812 0.0
C1042 C 0.85489 0.60626 0.36821 0.0
C1043 C 0.84321 0.60111 0.37769 0.0
C1044 C 0.83471 0.59823 0.34709 0.0
C1045 C 0.83789 0.60047 0.30694 0.0
H1046 H 0.84073 0.59937 0.40875 0.0
H1047 H 0.87251 0.62425 0.02193 0.0
H1048 H 0.30901 0.38383 0.63723 0.0
H1049 H 0.32363 0.39726 0.67345 0.0
H1050 H 0.35167 0.36811 0.66854 0.0
H1051 H 0.33671 0.35434 0.63389 0.0
H1052 H 0.35298 0.37836 0.73798 0.0
H1053 H 0.35194 0.39578 0.60565 0.0
H1054 H 0.34228 0.40433 0.54413 0.0
H1055 H 0.32608 0.43443 0.6124 0.0
H1056 H 0.33551 0.42597 0.67444 0.0
H1057 H 0.40283 0.42042 0.7923 0.0
H1058 H 0.38902 0.40562 0.75756 0.0
H1059 H 0.35813 0.43141 0.77072 0.0
H1060 H 0.37193 0.4463 0.80507 0.0
H1061 H 0.35926 0.4225 0.69543 0.0
H1062 H 0.36062 0.40432 0.82828 0.0
H1063 H 0.37102 0.3956 0.88829 0.0
H1064 H 0.38783 0.36675 0.81612 0.0
H1065 H 0.37765 0.37539 0.75558 0.0
C1066 C 0.31831 0.38027 0.64367 0.0
C1067 C 0.32172 0.36804 0.63228 0.0
C1068 C 0.32673 0.38802 0.66427 0.0
C1069 C 0.33896 0.38391 0.67305 0.0
C1070 C 0.34235 0.3716 0.66206 0.0
C1071 C 0.33381 0.36373 0.64209 0.0
C1072 C 0.34805 0.3924 0.69413 0.0
C1073 C 0.35448 0.38795 0.72818 0.0
C1074 C 0.34997 0.40503 0.68205 0.0
C1075 C 0.34435 0.41018 0.64474 0.0
C1076 C 0.34625 0.40418 0.60758 0.0
C1077 C 0.34083 0.40901 0.57261 0.0
C1078 C 0.33355 0.4199 0.57437 0.0
C1079 C 0.33171 0.42599 0.61109 0.0
C1080 C 0.33711 0.42119 0.64615 0.0
C1081 C 0.39307 0.4229 0.78812 0.0
C1082 C 0.3885 0.43455 0.80163 0.0
C1083 C 0.38516 0.4144 0.76831 0.0
C1084 C 0.37246 0.41731 0.76168 0.0
C1085 C 0.36787 0.42891 0.7754 0.0
C1086 C 0.37577 0.43741 0.79523 0.0
C1087 C 0.36404 0.4085 0.73939 0.0
C1088 C 0.35776 0.41289 0.70507 0.0
C1089 C 0.3624 0.3958 0.75093 0.0
C1090 C 0.36847 0.39057 0.78735 0.0
C1091 C 0.36661 0.39617 0.82517 0.0
C1092 C 0.37245 0.39123 0.85929 0.0
C1093 C 0.38011 0.38065 0.85601 0.0
C1094 C 0.38191 0.37495 0.81861 0.0
C1095 C 0.3761 0.37986 0.7844 0.0
H1096 H 0.38463 0.37684 0.88245 0.0
H1097 H 0.32935 0.42362 0.54727 0.0
H1098 H 0.31688 0.62567 0.57274 0.0
H1099 H 0.33207 0.61228 0.53839 0.0
H1100 H 0.34722 0.64465 0.47744 0.0
H1101 H 0.33239 0.65815 0.51334 0.0
H1102 H 0.33525 0.60588 0.46734 0.0
H1103 H 0.3773 0.64033 0.44903 0.0
H1104 H 0.38727 0.65769 0.48623 0.0
H1105 H 0.37205 0.64362 0.59692 0.0
H1106 H 0.36213 0.6261 0.56049 0.0
H1107 H 0.37525 0.57731 0.32718 0.0
H1108 H 0.36215 0.59257 0.3625 0.0
H1109 H 0.38952 0.5945 0.45791 0.0
H1110 H 0.40308 0.58002 0.42071 0.0
H1111 H 0.3805 0.61571 0.45382 0.0
H1112 H 0.36029 0.57584 0.46029 0.0
H1113 H 0.35112 0.5562 0.43438 0.0
H1114 H 0.32389 0.57728 0.3675 0.0
H1115 H 0.333 0.59705 0.39263 0.0
C1116 C 0.32354 0.62997 0.55234 0.0
C1117 C 0.32345 0.64301 0.54598 0.0
C1118 C 0.33221 0.62227 0.53248 0.0
C1119 C 0.34096 0.62736 0.50531 0.0
C1120 C 0.34083 0.64042 0.49883 0.0
C1121 C 0.33228 0.64816 0.51927 0.0
C1122 C 0.34987 0.61894 0.48301 0.0
C1123 C 0.34515 0.60807 0.46451 0.0
C1124 C 0.36289 0.62149 0.47979 0.0
C1125 C 0.36885 0.63199 0.50193 0.0
C1126 C 0.37611 0.64093 0.48132 0.0
C1127 C 0.38175 0.6508 0.50227 0.0
C1128 C 0.38026 0.65179 0.54389 0.0
C1129 C 0.37315 0.64288 0.56467 0.0
C1130 C 0.3675 0.63299 0.54387 0.0
C1131 C 0.37853 0.58115 0.35542 0.0
C1132 C 0.39017 0.57746 0.37122 0.0
C1133 C 0.37096 0.58979 0.37595 0.0
C1134 C 0.37455 0.59449 0.41382 0.0
C1135 C 0.38641 0.59107 0.42896 0.0
C1136 C 0.39419 0.58276 0.40768 0.0
C1137 C 0.36587 0.60268 0.43796 0.0
C1138 C 0.37061 0.61352 0.45668 0.0
C1139 C 0.35295 0.59979 0.44304 0.0
C1140 C 0.3474 0.58792 0.42806 0.0
C1141 C 0.35239 0.57628 0.43989 0.0
C1142 C 0.3472 0.56513 0.42536 0.0
C1143 C 0.33695 0.5655 0.39923 0.0
C1144 C 0.33184 0.57701 0.38769 0.0
C1145 C 0.33701 0.5882 0.4021 0.0
H1146 H 0.33295 0.55685 0.388 0.0
H1147 H 0.38463 0.65943 0.56005 0.0
H1148 H 0.1338 0.56729 0.32738 0.0
H1149 H 0.14755 0.58183 0.29162 0.0
H1150 H 0.11643 0.59354 0.21768 0.0
H1151 H 0.10252 0.57948 0.25501 0.0
H1152 H 0.15584 0.58322 0.22203 0.0
H1153 H 0.12029 0.62257 0.18048 0.0
H1154 H 0.10147 0.63271 0.20896 0.0
H1155 H 0.11287 0.62188 0.32777 0.0
H1156 H 0.13182 0.61182 0.30007 0.0
H1157 H 0.18665 0.62183 0.07952 0.0
H1158 H 0.17169 0.60817 0.1143 0.0
H1159 H 0.16485 0.63737 0.20155 0.0
H1160 H 0.17901 0.65127 0.16499 0.0
H1161 H 0.14452 0.62731 0.19178 0.0
H1162 H 0.18485 0.6094 0.21698 0.0
H1163 H 0.20557 0.60053 0.20021 0.0
H1164 H 0.18788 0.57064 0.13488 0.0
H1165 H 0.16705 0.57942 0.15087 0.0
C1166 C 0.12985 0.57308 0.30381 0.0
C1167 C 0.11703 0.57229 0.29428 0.0
C1168 C 0.13776 0.58136 0.28312 0.0
C1169 C 0.13311 0.58897 0.25192 0.0
C1170 C 0.12029 0.58808 0.24217 0.0
C1171 C 0.11231 0.57998 0.26346 0.0
C1172 C 0.14176 0.59755 0.22925 0.0
C1173 C 0.15334 0.59287 0.21553 0.0
C1174 C 0.13876 0.61026 0.22119 0.0
C1175 C 0.12739 0.61632 0.23811 0.0
C1176 C 0.11879 0.62238 0.21268 0.0
C1177 C 0.1081 0.62811 0.22869 0.0
C1178 C 0.10595 0.6279 0.27013 0.0
C1179 C 0.11451 0.62199 0.29567 0.0
C1180 C 0.12522 0.61626 0.27982 0.0
C1181 C 0.18187 0.62532 0.10597 0.0
C1182 C 0.18401 0.63762 0.1195 0.0
C1183 C 0.17338 0.61746 0.12617 0.0
C1184 C 0.16723 0.62153 0.16139 0.0
C1185 C 0.16935 0.6339 0.17456 0.0
C1186 C 0.17751 0.64187 0.15365 0.0
C1187 C 0.15866 0.61301 0.18469 0.0
C1188 C 0.14705 0.61767 0.19832 0.0
C1189 C 0.1619 0.60046 0.19437 0.0
C1190 C 0.1744 0.59513 0.18478 0.0
C1191 C 0.18538 0.60098 0.19883 0.0
C1192 C 0.19715 0.59596 0.18949 0.0
C1193 C 0.19804 0.58505 0.1664 0.0
C1194 C 0.18717 0.57911 0.1527 0.0
C1195 C 0.17539 0.58409 0.16192 0.0
H1196 H 0.20716 0.58118 0.1592 0.0
H1197 H 0.09767 0.63234 0.28246 0.0
H1198 H 0.10594 0.42592 0.90417 0.0
H1199 H 0.12019 0.41256 0.94278 0.0
H1200 H 0.1517 0.42766 0.87757 0.0
H1201 H 0.1375 0.44126 0.83923 0.0
H1202 H 0.15277 0.40113 0.88855 0.0
H1203 H 0.14709 0.43864 0.96387 0.0
H1204 H 0.13483 0.45546 0.99618 0.0
H1205 H 0.11836 0.42868 0.0768 0.0
H1206 H 0.13022 0.41161 0.04415 0.0
H1207 H 0.19322 0.38845 0.07891 0.0
H1208 H 0.17963 0.40247 0.04007 0.0
H1209 H 0.16007 0.37047 0.99167 0.0
H1210 H 0.17364 0.35641 0.03018 0.0
H1211 H 0.15455 0.40691 0.03653 0.0
H1212 H 0.1536 0.3761 0.89275 0.0
H1213 H 0.16698 0.3605 0.85866 0.0
H1214 H 0.19968 0.37647 0.91385 0.0
H1215 H 0.18652 0.3923 0.94769 0.0
C1216 C 0.11588 0.42629 0.89763 0.0
C1217 C 0.12058 0.43466 0.86858 0.0
C1218 C 0.12402 0.41869 0.91989 0.0
C1219 C 0.13702 0.41916 0.91327 0.0
C1220 C 0.14171 0.42713 0.88318 0.0
C1221 C 0.13358 0.43491 0.86133 0.0
C1222 C 0.14572 0.41169 0.93885 0.0
C1223 C 0.15313 0.40237 0.9209 0.0
C1224 C 0.14645 0.41353 0.98097 0.0
C1225 C 0.13945 0.4238 0.00121 0.0
C1226 C 0.14076 0.4363 0.98821 0.0
C1227 C 0.13388 0.44589 0.0066 0.0
C1228 C 0.12581 0.44314 0.03847 0.0
C1229 C 0.1246 0.43079 0.05205 0.0
C1230 C 0.13139 0.42115 0.03357 0.0
C1231 C 0.18594 0.3844 0.06031 0.0
C1232 C 0.18457 0.37129 0.05757 0.0
C1233 C 0.17816 0.39243 0.03816 0.0
C1234 C 0.1689 0.38755 0.0125 0.0
C1235 C 0.16724 0.37448 0.01079 0.0
C1236 C 0.17499 0.36644 0.03301 0.0
C1237 C 0.16131 0.39604 0.9864 0.0
C1238 C 0.15414 0.40562 0.00422 0.0
C1239 C 0.16101 0.39462 0.94403 0.0
C1240 C 0.16904 0.38531 0.92307 0.0
C1241 C 0.16365 0.37633 0.89743 0.0
C1242 C 0.1712 0.36744 0.87817 0.0
C1243 C 0.18417 0.36747 0.88418 0.0
C1244 C 0.18963 0.37643 0.90932 0.0
C1245 C 0.18213 0.38536 0.92856 0.0
H1246 H 0.18999 0.36057 0.86931 0.0
H1247 H 0.12051 0.45057 0.0527 0.0
H1248 H 0.2178 0.16113 0.96489 0.0
H1249 H 0.22615 0.1572 0.89745 0.0
H1250 H 0.25799 0.13808 0.94899 0.0
H1251 H 0.24985 0.14215 0.01617 0.0
H1252 H 0.26541 0.15603 0.9 0.0
H1253 H 0.23639 0.12213 0.89328 0.0
H1254 H 0.21578 0.11185 0.89985 0.0
H1255 H 0.20056 0.13627 0.80962 0.0
H1256 H 0.22104 0.14684 0.8029 0.0
H1257 H 0.29055 0.14766 0.70207 0.0
H1258 H 0.28281 0.14288 0.76989 0.0
H1259 H 0.24741 0.16035 0.74112 0.0
H1260 H 0.25486 0.16475 0.67357 0.0
H1261 H 0.24332 0.13944 0.78016 0.0
H1262 H 0.27112 0.17549 0.79674 0.0
H1263 H 0.29152 0.18627 0.79098 0.0
H1264 H 0.30878 0.15777 0.86343 0.0
H1265 H 0.2885 0.14676 0.86928 0.0
C1266 C 0.22642 0.15584 0.96173 0.0
C1267 C 0.23327 0.15211 0.9957 0.0
C1268 C 0.23117 0.15357 0.92323 0.0
C1269 C 0.24272 0.14738 0.91831 0.0
C1270 C 0.24912 0.14295 0.95217 0.0
C1271 C 0.24445 0.1453 0.9905 0.0
C1272 C 0.24877 0.14671 0.87836 0.0
C1273 C 0.26069 0.15215 0.87393 0.0
C1274 C 0.24253 0.14181 0.84437 0.0
C1275 C 0.23024 0.13533 0.84778 0.0
C1276 C 0.22863 0.12536 0.87499 0.0
C1277 C 0.21697 0.11948 0.87873 0.0
C1278 C 0.20686 0.12342 0.85522 0.0
C1279 C 0.2084 0.13323 0.82782 0.0
C1280 C 0.22004 0.13916 0.82398 0.0
C1281 C 0.28115 0.15051 0.71042 0.0
C1282 C 0.27331 0.15658 0.68262 0.0
C1283 C 0.27673 0.14775 0.74905 0.0
C1284 C 0.26453 0.15129 0.76055 0.0
C1285 C 0.25679 0.15742 0.7328 0.0
C1286 C 0.26111 0.15999 0.69425 0.0
C1287 C 0.25977 0.14907 0.80173 0.0
C1288 C 0.24812 0.14309 0.80642 0.0
C1289 C 0.26622 0.15351 0.83602 0.0
C1290 C 0.27834 0.16025 0.8331 0.0
C1291 C 0.27928 0.1715 0.81128 0.0
C1292 C 0.29082 0.17765 0.80801 0.0
C1293 C 0.30145 0.17269 0.82671 0.0
C1294 C 0.30055 0.16159 0.84889 0.0
C1295 C 0.28904 0.1554 0.85223 0.0
H1296 H 0.31038 0.17745 0.82408 0.0
H1297 H 0.19784 0.11886 0.85821 0.0
H1298 H 0.12182 0.98844 0.24996 0.0
H1299 H 0.12415 0.99649 0.18144 0.0
H1300 H 0.0894 0.97848 0.14804 0.0
H1301 H 0.08758 0.96972 0.21578 0.0
H1302 H 0.10408 0.97865 0.08668 0.0
H1303 H 0.09181 0.01039 0.18508 0.0
H1304 H 0.09494 0.02303 0.2464 0.0
H1305 H 0.12954 0.03732 0.19871 0.0
H1306 H 0.12667 0.02465 0.1373 0.0
H1307 H 0.07955 0.01562 0.93509 0.0
H1308 H 0.083 0.0063 0.00117 0.0
H1309 H 0.11787 0.02663 0.01199 0.0
H1310 H 0.11405 0.03652 0.94638 0.0
H1311 H 0.10661 0.02513 0.08246 0.0
H1312 H 0.11699 0.99538 0.97943 0.0
H1313 H 0.11318 0.98307 0.91786 0.0
H1314 H 0.08163 0.96516 0.97392 0.0
H1315 H 0.08515 0.97748 0.03564 0.0
C1316 C 0.11493 0.9859 0.22746 0.0
C1317 C 0.10451 0.97854 0.23778 0.0
C1318 C 0.11618 0.9906 0.18854 0.0
C1319 C 0.10672 0.98847 0.16001 0.0
C1320 C 0.09678 0.98033 0.16961 0.0
C1321 C 0.09574 0.97531 0.20822 0.0
C1322 C 0.10649 0.99549 0.12156 0.0
C1323 C 0.10458 0.98882 0.08579 0.0
C1324 C 0.10748 0.00876 0.12019 0.0
C1325 C 0.10909 0.01649 0.15684 0.0
C1326 C 0.1001 0.01619 0.18778 0.0
C1327 C 0.10183 0.02336 0.22253 0.0
C1328 C 0.11244 0.03095 0.22649 0.0
C1329 C 0.12133 0.03143 0.19563 0.0
C1330 C 0.11966 0.02426 0.16085 0.0
C1331 C 0.08781 0.01828 0.95203 0.0
C1332 C 0.09659 0.02668 0.93586 0.0
C1333 C 0.08985 0.01287 0.98951 0.0
C1334 C 0.10092 0.01541 0.01076 0.0
C1335 C 0.10934 0.02442 0.99578 0.0
C1336 C 0.10714 0.0301 0.95853 0.0
C1337 C 0.1038 0.0083 0.04785 0.0
C1338 C 0.10628 0.01496 0.08326 0.0
C1339 C 0.10327 0.99502 0.04893 0.0
C1340 C 0.10131 0.9874 0.01211 0.0
C1341 C 0.10922 0.98885 0.97858 0.0
C1342 C 0.10711 0.98187 0.94365 0.0
C1343 C 0.09717 0.97335 0.94197 0.0
C1344 C 0.08934 0.97176 0.97527 0.0
C1345 C 0.0914 0.97872 0.01026 0.0
H1346 H 0.09553 0.96797 0.91487 0.0
H1347 H 0.11377 0.03648 0.25343 0.0
H1348 H 0.21605 0.85048 0.2105 0.0
H1349 H 0.2242 0.85345 0.27901 0.0
H1350 H 0.26189 0.84772 0.23554 0.0
H1351 H 0.25404 0.84465 0.1682 0.0
H1352 H 0.25703 0.83368 0.30085 0.0
H1353 H 0.25202 0.87651 0.25722 0.0
H1354 H 0.24024 0.89467 0.23121 0.0
H1355 H 0.21557 0.89315 0.33318 0.0
H1356 H 0.22712 0.87485 0.35953 0.0
H1357 H 0.29268 0.8504 0.47067 0.0
H1358 H 0.2846 0.85173 0.40183 0.0
H1359 H 0.24742 0.85882 0.44784 0.0
H1360 H 0.25534 0.85784 0.51606 0.0
H1361 H 0.25167 0.87244 0.38162 0.0
H1362 H 0.25667 0.82916 0.42412 0.0
H1363 H 0.26882 0.81118 0.4499 0.0
H1364 H 0.29376 0.81368 0.34882 0.0
H1365 H 0.28185 0.83177 0.32273 0.0
C1366 C 0.22606 0.84986 0.21566 0.0
C1367 C 0.23435 0.84726 0.18385 0.0
C1368 C 0.23069 0.85161 0.25466 0.0
C1369 C 0.24364 0.85079 0.2621 0.0
C1370 C 0.25187 0.84832 0.23039 0.0
C1371 C 0.24731 0.84659 0.19179 0.0
C1372 C 0.24884 0.85216 0.30291 0.0
C1373 C 0.25594 0.8422 0.31839 0.0
C1374 C 0.24726 0.8632 0.32581 0.0
C1375 C 0.24034 0.87422 0.31009 0.0
C1376 C 0.24402 0.87998 0.27391 0.0
C1377 C 0.2374 0.89031 0.25915 0.0
C1378 C 0.22714 0.89504 0.28046 0.0
C1379 C 0.22351 0.88946 0.31666 0.0
C1380 C 0.23009 0.87912 0.33154 0.0
C1381 C 0.28283 0.85242 0.46606 0.0
C1382 C 0.27462 0.85375 0.49885 0.0
C1383 C 0.27823 0.85316 0.4268 0.0
C1384 C 0.26537 0.85515 0.41994 0.0
C1385 C 0.25735 0.85723 0.45253 0.0
C1386 C 0.26192 0.85655 0.49157 0.0
C1387 C 0.25996 0.854 0.3793 0.0
C1388 C 0.25276 0.86394 0.36399 0.0
C1389 C 0.26146 0.84293 0.3564 0.0
C1390 C 0.26845 0.83189 0.3717 0.0
C1391 C 0.26478 0.82591 0.40751 0.0
C1392 C 0.27162 0.8157 0.42217 0.0
C1393 C 0.28209 0.81133 0.40108 0.0
C1394 C 0.28568 0.8171 0.36516 0.0
C1395 C 0.27888 0.82732 0.35041 0.0
H1396 H 0.28742 0.80347 0.4125 0.0
H1397 H 0.22203 0.90304 0.26898 0.0
H1398 H 0.40526 0.04134 0.72004 0.0
H1399 H 0.40296 0.03297 0.65155 0.0
H1400 H 0.40741 0.99536 0.69711 0.0
H1401 H 0.40979 1.00345 0.7646 0.0
H1402 H 0.42241 0.99979 0.63344 0.0
H1403 H 0.37938 0.00672 0.67185 0.0
H1404 H 0.36103 0.01908 0.69326 0.0
H1405 H 0.36366 0.04138 0.5861 0.0
H1406 H 0.38233 0.0295 0.56487 0.0
H1407 H 0.40903 0.9655 0.45749 0.0
H1408 H 0.40636 0.97289 0.52675 0.0
H1409 H 0.39963 0.01041 0.48318 0.0
H1410 H 0.40194 1.00316 0.41451 0.0
H1411 H 0.38517 0.00576 0.54626 0.0
H1412 H 0.42889 1.00133 0.51156 0.0
H1413 H 0.44757 0.98983 0.48797 0.0
H1414 H 0.44379 0.9638 0.58572 0.0
H1415 H 0.42497 0.97506 0.60958 0.0
C1416 C 0.40574 0.0313 0.71538 0.0
C1417 C 0.40776 0.0231 0.74787 0.0
C1418 C 0.40436 0.02654 0.67635 0.0
C1419 C 0.40499 0.01354 0.66944 0.0
C1420 C 0.40693 0.00541 0.70181 0.0
C1421 C 0.40827 0.0101 0.7405 0.0
C1422 C 0.4041 0.00822 0.62854 0.0
C1423 C 0.4142 1.00098 0.61457 0.0
C1424 C 0.39349 0.01001 0.6037 0.0
C1425 C 0.38239 0.01732 0.61704 0.0
C1426 C 0.37619 0.0144 0.65318 0.0
C1427 C 0.36572 0.02133 0.66531 0.0
C1428 C 0.36123 0.03108 0.64124 0.0
C1429 C 0.3672 0.0339 0.60495 0.0
C1430 C 0.37775 0.0271 0.59292 0.0
C1431 C 0.4068 0.97527 0.46268 0.0
C1432 C 0.40597 0.98377 0.43048 0.0
C1433 C 0.40529 0.97949 0.50222 0.0
C1434 C 0.40304 0.99225 0.51002 0.0
C1435 C 0.40142 1.00054 0.47785 0.0
C1436 C 0.40285 0.99636 0.43853 0.0
C1437 C 0.40345 0.99732 0.55139 0.0
C1438 C 0.39333 0.00452 0.56534 0.0
C1439 C 0.41409 0.99566 0.57615 0.0
C1440 C 0.42546 0.98895 0.56209 0.0
C1441 C 0.432 0.99311 0.52786 0.0
C1442 C 0.44262 0.98664 0.51446 0.0
C1443 C 0.44684 0.97607 0.53527 0.0
C1444 C 0.44049 0.97197 0.56959 0.0
C1445 C 0.42985 0.97839 0.58308 0.0
H1446 H 0.45506 0.97108 0.52485 0.0
H1447 H 0.3531 0.03641 0.65059 0.0
H1448 H 0.7561 0.85997 0.16115 0.0
H1449 H 0.74864 0.8611 0.23028 0.0
H1450 H 0.78344 0.84495 0.27168 0.0
H1451 H 0.79115 0.84417 0.2024 0.0
H1452 H 0.74396 0.84274 0.27957 0.0
H1453 H 0.78941 0.85377 0.3668 0.0
H1454 H 0.80943 0.86489 0.35599 0.0
H1455 H 0.7916 0.88944 0.27121 0.0
H1456 H 0.77145 0.87856 0.28182 0.0
H1457 H 0.75534 0.83952 0.50929 0.0
H1458 H 0.76302 0.84205 0.44086 0.0
H1459 H 0.72746 0.85795 0.40568 0.0
H1460 H 0.71952 0.85504 0.47413 0.0
H1461 H 0.76695 0.86143 0.39445 0.0
H1462 H 0.72114 0.85073 0.31004 0.0
H1463 H 0.70145 0.83896 0.32005 0.0
H1464 H 0.72047 0.81318 0.39824 0.0
H1465 H 0.74028 0.82475 0.38846 0.0
C1466 C 0.76223 0.85677 0.18499 0.0
C1467 C 0.77421 0.85194 0.17634 0.0
C1468 C 0.75794 0.85741 0.22449 0.0
C1469 C 0.76548 0.85316 0.2562 0.0
C1470 C 0.77753 0.8485 0.24777 0.0
C1471 C 0.78192 0.84802 0.20818 0.0
C1472 C 0.76041 0.85305 0.29771 0.0
C1473 C 0.7489 0.84702 0.30457 0.0
C1474 C 0.76698 0.85837 0.33048 0.0
C1475 C 0.77895 0.86528 0.3249 0.0
C1476 C 0.78975 0.8616 0.34606 0.0
C1477 C 0.80112 0.86784 0.33991 0.0
C1478 C 0.80179 0.87785 0.31286 0.0
C1479 C 0.79107 0.88167 0.29207 0.0
C1480 C 0.77968 0.87546 0.29811 0.0
C1481 C 0.74912 0.84356 0.48705 0.0
C1482 C 0.73678 0.847 0.49709 0.0
C1483 C 0.75356 0.84504 0.44793 0.0
C1484 C 0.7458 0.85008 0.41803 0.0
C1485 C 0.73355 0.85382 0.42811 0.0
C1486 C 0.72902 0.85216 0.46722 0.0
C1487 C 0.75053 0.8511 0.37623 0.0
C1488 C 0.76198 0.85727 0.36934 0.0
C1489 C 0.74393 0.84586 0.34338 0.0
C1490 C 0.73215 0.83867 0.34878 0.0
C1491 C 0.72112 0.84251 0.32922 0.0
C1492 C 0.70994 0.83589 0.3349 0.0
C1493 C 0.7097 0.82535 0.35984 0.0
C1494 C 0.72066 0.82137 0.37904 0.0
C1495 C 0.73186 0.82797 0.37348 0.0
H1496 H 0.70103 0.82024 0.36424 0.0
H1497 H 0.81062 0.88264 0.30805 0.0
H1498 H 0.90071 0.00667 0.91837 0.0
H1499 H 0.89626 0.99889 0.98516 0.0
H1500 H 0.9038 0.03552 0.03478 0.0
H1501 H 0.90859 0.04347 0.96716 0.0
H1502 H 0.91669 0.01779 0.07274 0.0
H1503 H 0.87422 0.02342 0.03646 0.0
H1504 H 0.85524 0.02227 0.9944 0.0
H1505 H 0.85632 0.98204 -0.00061 0.0
H1506 H 0.87543 0.98293 0.04099 0.0
H1507 H 0.89545 1.00187 0.26471 0.0
H1508 H 0.89249 0.00954 0.19682 0.0
H1509 H 0.90389 0.97371 0.1492 0.0
H1510 H 0.9072 0.96583 0.21792 0.0
H1511 H 0.88016 0.99166 0.11237 0.0
H1512 H 0.92544 0.98755 0.14116 0.0
H1513 H 0.94353 0.99 0.18668 0.0
H1514 H 0.93559 0.02933 0.19831 0.0
H1515 H 0.91732 0.02704 0.15337 0.0
C1516 C 0.90136 0.01317 0.9433 0.0
C1517 C 0.90521 0.02567 0.93751 0.0
C1518 C 0.89864 0.00871 0.98151 0.0
C1519 C 0.89958 0.01665 0.01484 0.0
C1520 C 0.90299 0.02927 0.00925 0.0
C1521 C 0.90572 0.03379 0.97072 0.0
C1522 C 0.89832 0.01126 0.0555 0.0
C1523 C 0.90861 0.01224 0.08149 0.0
C1524 C 0.88785 0.00384 0.06669 0.0
C1525 C 0.87634 1.00324 0.04163 0.0
C1526 C 0.87048 0.01432 0.02832 0.0
C1527 C 0.85968 0.01372 0.0046 0.0
C1528 C 0.85459 1.00209 0.99416 0.0
C1529 C 0.86028 0.99104 0.00749 0.0
C1530 C 0.87109 0.99159 0.03119 0.0
C1531 C 0.89722 0.99548 0.24003 0.0
C1532 C 0.9019 0.98331 0.24672 0.0
C1533 C 0.89539 0.99989 0.20125 0.0
C1534 C 0.89808 0.99221 0.16841 0.0
C1535 C 0.90179 0.97973 0.17457 0.0
C1536 C 0.90373 0.97528 0.21369 0.0
C1537 C 0.89864 0.99798 0.12839 0.0
C1538 C 0.8882 0.99717 0.10305 0.0
C1539 C 0.90888 0.00568 0.1178 0.0
C1540 C 0.91995 0.00709 0.14435 0.0
C1541 C 0.92749 0.99669 0.15377 0.0
C1542 C 0.93778 0.99805 0.17939 0.0
C1543 C 0.94069 0.00981 0.19549 0.0
C1544 C 0.93332 0.02022 0.18589 0.0
C1545 C 0.923 0.0189 0.16034 0.0
H1546 H 0.94867 0.01085 0.21531 0.0
H1547 H 0.84623 1.00165 0.9758 0.0
H1548 H 0.75166 0.15272 0.00915 0.0
H1549 H 0.74424 0.14837 0.94199 0.0
H1550 H 0.78217 0.15012 0.89696 0.0
H1551 H 0.78979 0.1549 0.96483 0.0
H1552 H 0.76728 0.16424 0.85383 0.0
H1553 H 0.76537 0.12214 0.89938 0.0
H1554 H 0.76037 0.10457 0.94478 0.0
H1555 H 0.72104 0.11215 0.93161 0.0
H1556 H 0.7258 0.12989 0.88659 0.0
H1557 H 0.75003 0.14617 0.66095 0.0
H1558 H 0.75777 0.14313 0.72873 0.0
H1559 H 0.72153 0.15301 0.77676 0.0
H1560 H 0.71355 0.15628 0.70819 0.0
H1561 H 0.73632 0.13147 0.8164 0.0
H1562 H 0.73923 0.17515 0.776 0.0
H1563 H 0.74482 0.19212 0.72894 0.0
H1564 H 0.78336 0.18045 0.7317 0.0
H1565 H 0.77794 0.16327 0.77829 0.0
C1566 C 0.75853 0.15208 0.98523 0.0
C1567 C 0.77135 0.15431 0.9924 0.0
C1568 C 0.75423 0.14943 0.94677 0.0
C1569 C 0.76265 0.14874 0.91455 0.0
C1570 C 0.77552 0.15056 0.92157 0.0
C1571 C 0.77986 0.1533 0.96028 0.0
C1572 C 0.75771 0.14749 0.87324 0.0
C1573 C 0.76072 0.15691 0.8455 0.0
C1574 C 0.74889 0.13809 0.86267 0.0
C1575 C 0.74596 0.12742 0.8898 0.0
C1576 C 0.75566 0.12013 0.90641 0.0
C1577 C 0.75286 0.11013 0.93204 0.0
C1578 C 0.7404 0.10726 0.94114 0.0
C1579 C 0.73069 0.11438 0.92456 0.0
C1580 C 0.73344 0.12441 0.89893 0.0
C1581 C 0.74359 0.14761 0.68571 0.0
C1582 C 0.73122 0.15179 0.67918 0.0
C1583 C 0.74805 0.14577 0.72443 0.0
C1584 C 0.74026 0.14801 0.75743 0.0
C1585 C 0.72765 0.15128 0.75134 0.0
C1586 C 0.72314 0.1532 0.71229 0.0
C1587 C 0.74585 0.14827 0.79782 0.0
C1588 C 0.74296 0.1387 0.82506 0.0
C1589 C 0.75487 0.15745 0.80798 0.0
C1590 C 0.75816 0.16784 0.78026 0.0
C1591 C 0.74887 0.17613 0.76627 0.0
C1592 C 0.75202 0.1858 0.73974 0.0
C1593 C 0.76443 0.18734 0.72724 0.0
C1594 C 0.77374 0.17924 0.74135 0.0
C1595 C 0.77064 0.16953 0.76783 0.0
H1596 H 0.76685 0.19484 0.70671 0.0
H1597 H 0.73825 0.09951 0.96099 0.0
H1598 H 0.60694 0.03961 0.72614 0.0
H1599 H 0.60925 0.03181 0.65711 0.0
H1600 H 0.58546 1.00026 0.68571 0.0
H1601 H 0.58357 0.0077 0.75456 0.0
H1602 H 0.60451 0.99218 0.6472 0.0
H1603 H 0.57572 0.0264 0.6285 0.0
H1604 H 0.5683 0.04828 0.63173 0.0
H1605 H 0.5994 0.06007 0.55885 0.0
H1606 H 0.60714 0.0383 0.5559 0.0
H1607 H 0.58989 0.96996 0.45135 0.0
H1608 H 0.589 0.97873 0.51927 0.0
H1609 H 0.61447 0.0082 0.48367 0.0
H1610 H 0.61479 0.99985 0.4152 0.0
H1611 H 0.59603 0.01763 0.52551 0.0
H1612 H 0.62235 0.98122 0.5376 0.0
H1613 H 0.6261 0.95869 0.52814 0.0
H1614 H 0.59764 0.95005 0.61506 0.0
H1615 H 0.59285 0.97255 0.62233 0.0
C1616 C 0.60215 0.03107 0.71745 0.0
C1617 C 0.59515 0.02422 0.7457 0.0
C1618 C 0.60345 0.02663 0.67805 0.0
C1619 C 0.5975 0.01544 0.66615 0.0
C1620 C 0.59025 0.00883 0.69421 0.0
C1621 C 0.58914 0.01312 0.73356 0.0
C1622 C 0.59897 0.01033 0.6249 0.0
C1623 C 0.60254 0.99772 0.62058 0.0
C1624 C 0.59665 0.01761 0.59014 0.0
C1625 C 0.59209 0.03074 0.59239 0.0
C1626 C 0.58105 0.03368 0.61354 0.0
C1627 C 0.57678 0.04606 0.61529 0.0
C1628 C 0.58339 0.05557 0.59564 0.0
C1629 C 0.5943 0.05271 0.57419 0.0
C1630 C 0.59864 0.04035 0.5725 0.0
C1631 C 0.59544 0.9782 0.45828 0.0
C1632 C 0.60251 0.98418 0.42829 0.0
C1633 C 0.5949 0.98322 0.49701 0.0
C1634 C 0.6018 0.99404 0.50674 0.0
C1635 C 0.60906 0.99986 0.47688 0.0
C1636 C 0.60933 0.99504 0.43792 0.0
C1637 C 0.60137 0.99943 0.54784 0.0
C1638 C 0.59807 0.01211 0.55212 0.0
C1639 C 0.6037 0.99212 0.58261 0.0
C1640 C 0.60716 0.97863 0.58025 0.0
C1641 C 0.61682 0.97454 0.55458 0.0
C1642 C 0.61912 0.96175 0.54954 0.0
C1643 C 0.61228 0.95292 0.57145 0.0
C1644 C 0.60298 0.95689 0.59816 0.0
C1645 C 0.60036 0.96967 0.60243 0.0
H1646 H 0.61413 0.94301 0.56758 0.0
H1647 H 0.58005 0.06514 0.59693 0.0
H1648 H 0.74677 0.63944 0.51439 0.0
H1649 H 0.75634 0.63808 0.4479 0.0
H1650 H 0.72708 0.66163 0.39966 0.0
H1651 H 0.71725 0.66278 0.46622 0.0
H1652 H 0.7347 0.64395 0.34568 0.0
H1653 H 0.75422 0.67438 0.4342 0.0
H1654 H 0.76482 0.68108 0.49648 0.0
H1655 H 0.79488 0.65528 0.47317 0.0
H1656 H 0.78436 0.6483 0.41099 0.0
H1657 H 0.7603 0.67805 0.19069 0.0
H1658 H 0.75282 0.67263 0.25755 0.0
H1659 H 0.78451 0.64803 0.27413 0.0
H1660 H 0.79217 0.65346 0.20648 0.0
H1661 H 0.77742 0.66254 0.34373 0.0
H1662 H 0.75901 0.63458 0.2488 0.0
H1663 H 0.74835 0.62875 0.18578 0.0
H1664 H 0.71616 0.65042 0.22039 0.0
H1665 H 0.72671 0.65655 0.28335 0.0
C1666 C 0.74222 0.6441 0.4894 0.0
C1667 C 0.7314 0.6514 0.49544 0.0
C1668 C 0.74771 0.64333 0.45151 0.0
C1669 C 0.7426 0.65004 0.41924 0.0
C1670 C 0.73121 0.65646 0.42438 0.0
C1671 C 0.72559 0.65711 0.46231 0.0
C1672 C 0.74976 0.65142 0.38145 0.0
C1673 C 0.74402 0.64803 0.3452 0.0
C1674 C 0.76207 0.65645 0.38106 0.0
C1675 C 0.76844 0.66072 0.41823 0.0
C1676 C 0.76305 0.67007 0.44252 0.0
C1677 C 0.76904 0.67393 0.47777 0.0
C1678 C 0.7805 0.66859 0.48884 0.0
C1679 C 0.786 0.6594 0.4646 0.0
C1680 C 0.78003 0.65549 0.42935 0.0
C1681 C 0.76582 0.67164 0.20875 0.0
C1682 C 0.77672 0.66604 0.19327 0.0
C1683 C 0.7615 0.66853 0.24684 0.0
C1684 C 0.76795 0.6597 0.27012 0.0
C1685 C 0.77936 0.65477 0.25621 0.0
C1686 C 0.78375 0.65793 0.21781 0.0
C1687 C 0.76224 0.65534 0.308 0.0
C1688 C 0.76822 0.65819 0.34427 0.0
C1689 C 0.75014 0.64986 0.30839 0.0
C1690 C 0.74369 0.64609 0.27072 0.0
C1691 C 0.74969 0.63818 0.24286 0.0
C1692 C 0.74366 0.63481 0.20716 0.0
C1693 C 0.73159 0.63923 0.19906 0.0
C1694 C 0.72551 0.647 0.2267 0.0
C1695 C 0.73151 0.65042 0.26243 0.0
H1696 H 0.72694 0.63661 0.1714 0.0
H1697 H 0.78513 0.67159 0.51614 0.0
H1698 H 0.59147 0.53674 0.45883 0.0
H1699 H 0.59565 0.52762 0.52502 0.0
H1700 H 0.62043 0.50042 0.47075 0.0
H1701 H 0.61598 0.50922 0.40469 0.0
H1702 H 0.60449 0.48888 0.51531 0.0
H1703 H 0.63164 0.52326 0.53506 0.0
H1704 H 0.6386 0.5453 0.53443 0.0
H1705 H 0.61003 0.55479 0.6202 0.0
H1706 H 0.60274 0.53284 0.62087 0.0
H1707 H 0.61009 0.46536 0.72031 0.0
H1708 H 0.61572 0.4731 0.65295 0.0
H1709 H 0.58945 0.50361 0.66669 0.0
H1710 H 0.58401 0.49613 0.73345 0.0
H1711 H 0.61228 0.51189 0.64235 0.0
H1712 H 0.58304 0.47765 0.60789 0.0
H1713 H 0.57691 0.45533 0.60844 0.0
H1714 H 0.61155 0.44548 0.55058 0.0
H1715 H 0.61792 0.46774 0.55002 0.0
C1716 C 0.59799 0.52899 0.46124 0.0
C1717 C 0.60325 0.52356 0.42675 0.0
C1718 C 0.60043 0.5238 0.49902 0.0
C1719 C 0.60838 0.51333 0.50279 0.0
C1720 C 0.61421 0.50843 0.46851 0.0
C1721 C 0.61165 0.51347 0.43083 0.0
C1722 C 0.60951 0.5067 0.54169 0.0
C1723 C 0.60649 0.49387 0.54299 0.0
C1724 C 0.61219 0.51316 0.57777 0.0
C1725 C 0.6166 0.52638 0.57785 0.0
C1726 C 0.62678 0.53005 0.55361 0.0
C1727 C 0.63079 0.54253 0.55326 0.0
C1728 C 0.62475 0.55144 0.57722 0.0
C1729 C 0.6147 0.54788 0.60166 0.0
C1730 C 0.61064 0.53541 0.60208 0.0
C1731 C 0.60539 0.47357 0.70845 0.0
C1732 C 0.59668 0.48021 0.73197 0.0
C1733 C 0.60866 0.47802 0.67024 0.0
C1734 C 0.60311 0.48902 0.6552 0.0
C1735 C 0.594 0.49524 0.67806 0.0
C1736 C 0.59083 0.4909 0.71604 0.0
C1737 C 0.6066 0.49435 0.61581 0.0
C1738 C 0.61059 0.5069 0.61445 0.0
C1739 C 0.60497 0.48762 0.57968 0.0
C1740 C 0.601 0.47431 0.57924 0.0
C1741 C 0.58936 0.47071 0.59542 0.0
C1742 C 0.58584 0.45807 0.59572 0.0
C1743 C 0.59385 0.44899 0.57962 0.0
C1744 C 0.60536 0.45252 0.56301 0.0
C1745 C 0.60892 0.46514 0.56266 0.0
H1746 H 0.59113 0.43921 0.57998 0.0
H1747 H 0.62787 0.5611 0.57689 0.0
H1748 H 0.74206 0.32853 0.68838 0.0
H1749 H 0.7494 0.33179 0.75675 0.0
H1750 H 0.7226 0.36175 0.77223 0.0
H1751 H 0.71514 0.35848 0.7029 0.0
H1752 H 0.74728 0.3685 0.79213 0.0
H1753 H 0.7185 0.33631 0.82578 0.0
H1754 H 0.70747 0.31611 0.8188 0.0
H1755 H 0.74214 0.29635 0.83606 0.0
H1756 H 0.75342 0.31643 0.84255 0.0
H1757 H 0.76286 0.36918 0.0039 0.0
H1758 H 0.75318 0.36949 0.93733 0.0
H1759 H 0.77887 0.34083 0.89741 0.0
H1760 H 0.78878 0.34063 0.96401 0.0
H1761 H 0.75244 0.33477 0.89355 0.0
H1762 H 0.78125 0.36725 0.85349 0.0
H1763 H 0.79214 0.38752 0.86048 0.0
H1764 H 0.75683 0.40684 0.85733 0.0
H1765 H 0.74571 0.38665 0.85048 0.0
C1766 C 0.73755 0.33565 0.70659 0.0
C1767 C 0.72808 0.34329 0.69051 0.0
C1768 C 0.74172 0.33748 0.74566 0.0
C1769 C 0.73653 0.347 0.76946 0.0
C1770 C 0.72669 0.35436 0.75417 0.0
C1771 C 0.72238 0.35242 0.71489 0.0
C1772 C 0.74221 0.34964 0.80899 0.0
C1773 C 0.74816 0.36124 0.81481 0.0
C1774 C 0.74357 0.34005 0.838 0.0
C1775 C 0.73682 0.3279 0.83444 0.0
C1776 C 0.72379 0.32766 0.82782 0.0
C1777 C 0.71749 0.31623 0.82399 0.0
C1778 C 0.7241 0.30495 0.82693 0.0
C1779 C 0.73703 0.30509 0.8338 0.0
C1780 C 0.74338 0.3165 0.83763 0.0
C1781 C 0.76669 0.36323 0.9805 0.0
C1782 C 0.77649 0.35482 0.98891 0.0
C1783 C 0.76117 0.36344 0.94258 0.0
C1784 C 0.76528 0.35512 0.91279 0.0
C1785 C 0.77561 0.3473 0.92025 0.0
C1786 C 0.7813 0.34725 0.95806 0.0
C1787 C 0.75776 0.35348 0.87606 0.0
C1788 C 0.75143 0.34206 0.87103 0.0
C1789 C 0.75599 0.36327 0.84806 0.0
C1790 C 0.76264 0.37543 0.85193 0.0
C1791 C 0.7758 0.37581 0.85464 0.0
C1792 C 0.78202 0.38729 0.8585 0.0
C1793 C 0.77518 0.39846 0.85961 0.0
C1794 C 0.76211 0.39818 0.85657 0.0
C1795 C 0.75585 0.38672 0.85259 0.0
H1796 H 0.78002 0.40734 0.86268 0.0
H1797 H 0.71921 0.29611 0.82393 0.0
H1798 H 0.88767 0.51394 0.25878 0.0
H1799 H 0.88484 0.50482 0.19211 0.0
H1800 H 0.91136 0.53133 0.14323 0.0
H1801 H 0.91396 0.54075 0.20997 0.0
H1802 H 0.89279 0.52587 0.08992 0.0
H1803 H 0.92101 0.50276 0.17745 0.0
H1804 H 0.92649 0.49131 0.23943 0.0
H1805 H 0.89729 0.46455 0.21599 0.0
H1806 H 0.89154 0.47596 0.15411 0.0
H1807 H 0.92445 0.49765 0.93499 0.0
H1808 H 0.9192 0.50563 0.00136 0.0
H1809 H 0.89248 0.47565 0.01733 0.0
H1810 H 0.89785 0.46743 0.95021 0.0
H1811 H 0.90667 0.4814 0.08675 0.0
H1812 H 0.88123 0.50295 0.99154 0.0
H1813 H 0.87676 0.51442 0.92883 0.0
H1814 H 0.90132 0.54416 0.9658 0.0
H1815 H 0.9061 0.53278 0.02848 0.0
C1816 C 0.89267 0.51801 0.23358 0.0
C1817 C 0.9012 0.52789 0.2394 0.0
C1818 C 0.89105 0.51278 0.19562 0.0
C1819 C 0.89815 0.51718 0.16311 0.0
C1820 C 0.90587 0.52775 0.16813 0.0
C1821 C 0.90735 0.53313 0.20614 0.0
C1822 C 0.89859 0.50999 0.12521 0.0
C1823 C 0.89583 0.51616 0.08916 0.0
C1824 C 0.90222 0.4972 0.12449 0.0
C1825 C 0.90576 0.49028 0.16145 0.0
C1826 C 0.91571 0.49448 0.18567 0.0
C1827 C 0.91887 0.488 0.22075 0.0
C1828 C 0.91222 0.47723 0.23171 0.0
C1829 C 0.90242 0.47291 0.20752 0.0
C1830 C 0.89921 0.47937 0.17244 0.0
C1831 C 0.91757 0.49264 0.95281 0.0
C1832 C 0.91142 0.48204 0.93741 0.0
C1833 C 0.91455 0.49724 0.99059 0.0
C1834 C 0.90519 0.49144 0.01353 0.0
C1835 C 0.89961 0.48032 -0.00039 0.0
C1836 C 0.90272 0.47561 0.96157 0.0
C1837 C 0.9012 0.49739 0.05144 0.0
C1838 C 0.90331 0.49101 0.08753 0.0
C1839 C 0.89703 0.51 0.05217 0.0
C1840 C 0.89406 0.51697 0.01468 0.0
C1841 C 0.88574 0.5119 0.98621 0.0
C1842 C 0.88314 0.51839 0.95067 0.0
C1843 C 0.88876 0.53 0.94332 0.0
C1844 C 0.89697 0.53516 0.97154 0.0
C1845 C 0.89961 0.5287 0.00712 0.0
H1846 H 0.88674 0.53501 0.91577 0.0
H1847 H 0.91468 0.47222 0.25888 0.0
H1848 H 0.25238 0.3529 0.66759 0.0
H1849 H 0.24498 0.3564 0.73551 0.0
H1850 H 0.2829 0.35394 0.7799 0.0
H1851 H 0.29052 0.35021 0.71132 0.0
H1852 H 0.26694 0.33971 0.82301 0.0
H1853 H 0.26789 0.382 0.77706 0.0
H1854 H 0.2638 0.39968 0.73116 0.0
H1855 H 0.22413 0.39451 0.74597 0.0
H1856 H 0.22797 0.37667 0.79151 0.0
H1857 H 0.2529 0.35952 0.01717 0.0
H1858 H 0.26045 0.36129 0.94859 0.0
H1859 H 0.2229 0.3558 0.90392 0.0
H1860 H 0.21511 0.35384 0.97314 0.0
H1861 H 0.23903 0.37498 0.86194 0.0
H1862 H 0.23848 0.3317 0.90435 0.0
H1863 H 0.24283 0.31431 0.95117 0.0
H1864 H 0.28231 0.32183 0.94307 0.0
H1865 H 0.27817 0.33942 0.8967 0.0
C1866 C 0.25923 0.35314 0.69157 0.0
C1867 C 0.27209 0.35121 0.68392 0.0
C1868 C 0.25495 0.35526 0.73046 0.0
C1869 C 0.2634 0.35562 0.7626 0.0
C1870 C 0.27625 0.35377 0.75531 0.0
C1871 C 0.28058 0.35163 0.71619 0.0
C1872 C 0.25858 0.35712 0.80396 0.0
C1873 C 0.26104 0.34754 0.8317 0.0
C1874 C 0.25059 0.36718 0.81486 0.0
C1875 C 0.24823 0.37792 0.78746 0.0
C1876 C 0.25829 0.38456 0.77027 0.0
C1877 C 0.25602 0.39463 0.74436 0.0
C1878 C 0.24371 0.3982 0.73558 0.0
C1879 C 0.23366 0.39173 0.75277 0.0
C1880 C 0.23588 0.38164 0.77868 0.0
C1881 C 0.24614 0.35882 0.99299 0.0
C1882 C 0.23341 0.35627 0.00069 0.0
C1883 C 0.25051 0.35989 0.95379 0.0
C1884 C 0.24225 0.35849 0.92148 0.0
C1885 C 0.22939 0.35685 0.92874 0.0
C1886 C 0.22498 0.35569 0.96821 0.0
C1887 C 0.2474 0.35756 0.88051 0.0
C1888 C 0.24499 0.36721 0.85304 0.0
C1889 C 0.25547 0.34759 0.86978 0.0
C1890 C 0.258 0.33696 0.89742 0.0
C1891 C 0.24808 0.32972 0.91286 0.0
C1892 C 0.25051 0.31982 0.93926 0.0
C1893 C 0.26284 0.31699 0.95018 0.0
C1894 C 0.27276 0.32405 0.93463 0.0
C1895 C 0.27038 0.33398 0.90828 0.0
H1896 H 0.2647 0.30932 0.97061 0.0
H1897 H 0.24197 0.406 0.71553 0.0
H1898 H 0.4164 0.53922 0.45628 0.0
H1899 H 0.41617 0.5291 0.5225 0.0
H1900 H 0.38629 0.5047 0.48362 0.0
H1901 H 0.38664 0.51459 0.41724 0.0
H1902 H 0.38537 0.51333 0.56912 0.0
H1903 H 0.4118 0.49299 0.47073 0.0
H1904 H 0.42807 0.49273 0.41804 0.0
H1905 H 0.455 0.5073 0.50184 0.0
H1906 H 0.4388 0.50787 0.55487 0.0
H1907 H 0.39765 0.46731 0.72003 0.0
H1908 H 0.39411 0.47523 0.65144 0.0
H1909 H 0.42648 0.49926 0.6629 0.0
H1910 H 0.42995 0.4915 0.73091 0.0
H1911 H 0.42466 0.489 0.58781 0.0
H1912 H 0.39851 0.51051 0.68477 0.0
H1913 H 0.38239 0.51185 0.73779 0.0
H1914 H 0.35517 0.49578 0.65785 0.0
H1915 H 0.3712 0.49418 0.6045 0.0
C1916 C 0.4095 0.53201 0.46238 0.0
C1917 C 0.40163 0.52757 0.43176 0.0
C1918 C 0.40941 0.52621 0.50003 0.0
C1919 C 0.40131 0.51609 0.5075 0.0
C1920 C 0.3926 0.51249 0.47826 0.0
C1921 C 0.39284 0.51812 0.44044 0.0
C1922 C 0.40315 0.50816 0.54332 0.0
C1923 C 0.39386 0.50786 0.57309 0.0
C1924 C 0.41426 0.50109 0.54824 0.0
C1925 C 0.42406 0.5006 0.51661 0.0
C1926 C 0.42116 0.49625 0.47781 0.0
C1927 C 0.43037 0.49603 0.44791 0.0
C1928 C 0.44255 0.50003 0.45655 0.0
C1929 C 0.44555 0.50423 0.49517 0.0
C1930 C 0.43636 0.5045 0.52517 0.0
C1931 C 0.40418 0.474 0.70728 0.0
C1932 C 0.41402 0.47887 0.73054 0.0
C1933 C 0.4021 0.47859 0.6684 0.0
C1934 C 0.40995 0.48795 0.65248 0.0
C1935 C 0.42031 0.49207 0.6747 0.0
C1936 C 0.42228 0.48764 0.7135 0.0
C1937 C 0.40698 0.4943 0.6142 0.0
C1938 C 0.41607 0.49431 0.58375 0.0
C1939 C 0.39571 0.50114 0.60884 0.0
C1940 C 0.38609 0.50206 0.64087 0.0
C1941 C 0.38912 0.50715 0.67864 0.0
C1942 C 0.37999 0.50798 0.70872 0.0
C1943 C 0.36778 0.50386 0.70124 0.0
C1944 C 0.36465 0.49893 0.66363 0.0
C1945 C 0.37375 0.49806 0.63347 0.0
H1946 H 0.36072 0.50452 0.72455 0.0
H1947 H 0.44967 0.49985 0.43336 0.0
H1948 H 0.25385 0.65778 0.50791 0.0
H1949 H 0.24635 0.65415 0.44029 0.0
H1950 H 0.28403 0.65782 0.39445 0.0
H1951 H 0.29177 0.66169 0.46287 0.0
H1952 H 0.2672 0.67174 0.35234 0.0
H1953 H 0.27017 0.62939 0.39666 0.0
H1954 H 0.26716 0.61142 0.44229 0.0
H1955 H 0.22721 0.61504 0.43106 0.0
H1956 H 0.22997 0.63315 0.38581 0.0
H1957 H 0.25259 0.65088 0.15937 0.0
H1958 H 0.2605 0.64949 0.22756 0.0
H1959 H 0.22318 0.65514 0.2741 0.0
H1960 H 0.21503 0.65678 0.20517 0.0
H1961 H 0.24034 0.63556 0.31458 0.0
H1962 H 0.23771 0.6791 0.27484 0.0
H1963 H 0.24094 0.69684 0.22836 0.0
H1964 H 0.2807 0.69049 0.2308 0.0
H1965 H 0.27768 0.67258 0.27685 0.0
C1966 C 0.26064 0.65779 0.48368 0.0
C1967 C 0.27345 0.6601 0.49089 0.0
C1968 C 0.2563 0.65559 0.44497 0.0
C1969 C 0.26465 0.65553 0.41252 0.0
C1970 C 0.27746 0.65776 0.41932 0.0
C1971 C 0.28186 0.65996 0.45833 0.0
C1972 C 0.25969 0.65394 0.37142 0.0
C1973 C 0.26153 0.66372 0.34388 0.0
C1974 C 0.252 0.64362 0.36087 0.0
C1975 C 0.25029 0.6327 0.38806 0.0
C1976 C 0.26074 0.62642 0.40417 0.0
C1977 C 0.25908 0.61619 0.42992 0.0
C1978 C 0.247 0.61211 0.43963 0.0
C1979 C 0.23656 0.61822 0.42353 0.0
C1980 C 0.23817 0.62846 0.39778 0.0
C1981 C 0.24596 0.65171 0.1839 0.0
C1982 C 0.23318 0.6542 0.17679 0.0
C1983 C 0.25053 0.65085 0.22286 0.0
C1984 C 0.24243 0.65237 0.25552 0.0
C1985 C 0.22954 0.65398 0.24894 0.0
C1986 C 0.22492 0.65494 0.20967 0.0
C1987 C 0.2478 0.65339 0.29609 0.0
C1988 C 0.24605 0.64353 0.32327 0.0
C1989 C 0.2556 0.66361 0.30641 0.0
C1990 C 0.25745 0.67442 0.27892 0.0
C1991 C 0.24713 0.68141 0.26515 0.0
C1992 C 0.24892 0.69151 0.23895 0.0
C1993 C 0.26101 0.69476 0.22654 0.0
C1994 C 0.27134 0.68794 0.24039 0.0
C1995 C 0.26959 0.67783 0.26657 0.0
H1996 H 0.26238 0.70258 0.20627 0.0
H1997 H 0.24573 0.60418 0.45957 0.0
H1998 H 0.09962 0.5391 0.21486 0.0
H1999 H 0.10355 0.5302 0.14812 0.0
H2000 H 0.10924 0.49371 0.20114 0.0
H2001 H 0.10566 0.50244 0.26743 0.0
H2002 H 0.12521 0.49702 0.14109 0.0
H2003 H 0.08118 0.50122 0.16337 0.0
H2004 H 0.06157 0.51214 0.18117 0.0
H2005 H 0.06654 0.53727 0.08156 0.0
H2006 H 0.08631 0.5266 0.06351 0.0
H2007 H 0.10338 0.4634 0.95774 0.0
H2008 H 0.10605 0.47032 0.02776 0.0
H2009 H 0.11338 0.50798 0.98687 0.0
H2010 H 0.11103 0.50129 0.91766 0.0
H2011 H 0.09091 0.50261 0.04195 0.0
H2012 H 0.13591 0.49685 0.02172 0.0
H2013 H 0.1545 0.48405 0.00548 0.0
H2014 H 0.14595 0.45922 0.10334 0.0
H2015 H 0.12718 0.47177 0.11974 0.0
C2016 C 0.10184 0.52922 0.2123 0.0
C2017 C 0.10209 0.52146 0.24639 0.0
C2018 C 0.10408 0.52415 0.17423 0.0
C2019 C 0.10649 0.51126 0.16982 0.0
C2020 C 0.10737 0.50366 0.20393 0.0
C2021 C 0.1052 0.50869 0.24181 0.0
C2022 C 0.10714 0.50544 0.12966 0.0
C2023 C 0.11768 0.49818 0.11948 0.0
C2024 C 0.09722 0.5068 0.10181 0.0
C2025 C 0.0853 0.5132 0.11236 0.0
C2026 C 0.07814 0.50913 0.14544 0.0
C2027 C 0.06699 0.51527 0.15556 0.0
C2028 C 0.06283 0.52542 0.13259 0.0
C2029 C 0.06979 0.52942 0.09937 0.0
C2030 C 0.08097 0.52333 0.08917 0.0
C2031 C 0.10582 0.47308 0.96369 0.0
C2032 C 0.1067 0.48185 0.9322 0.0
C2033 C 0.10736 0.47699 0.00356 0.0
C2034 C 0.10978 0.48965 0.01201 0.0
C2035 C 0.11145 0.49818 0.98064 0.0
C2036 C 0.11005 0.49431 0.94111 0.0
C2037 C 0.10908 0.49451 0.05319 0.0
C2038 C 0.09844 0.5015 0.06362 0.0
C2039 C 0.11875 0.49265 0.08139 0.0
C2040 C 0.13007 0.48516 0.07166 0.0
C2041 C 0.13792 0.48859 0.03951 0.0
C2042 C 0.14851 0.4814 0.03036 0.0
C2043 C 0.1514 0.47083 0.05335 0.0
C2044 C 0.14372 0.46743 0.0856 0.0
C2045 C 0.1331 0.47457 0.09483 0.0
H2046 H 0.15959 0.46526 0.04616 0.0
H2047 H 0.05419 0.53015 0.14047 0.0
H2048 H 0.23525 0.207 0.07427 0.0
H2049 H 0.23165 0.22953 0.07611 0.0
H2050 H 0.19496 0.22344 0.12721 0.0
H2051 H 0.19839 0.2006 0.12405 0.0
H2052 H 0.19488 0.24334 0.07463 0.0
H2053 H 0.21929 0.23104 0.1883 0.0
H2054 H 0.2365 0.22019 0.22354 0.0
H2055 H 0.26356 0.24161 0.15699 0.0
H2056 H 0.24653 0.25246 0.12093 0.0
H2057 H 0.19744 0.30984 0.12752 0.0
H2058 H 0.19423 0.28697 0.12823 0.0
H2059 H 0.23186 0.28167 0.08341 0.0
H2060 H 0.2352 0.30422 0.08413 0.0
H2061 H 0.22832 0.26718 0.14455 0.0
H2062 H 0.20365 0.27758 0.0253 0.0
H2063 H 0.18632 0.28821 0.98989 0.0
H2064 H 0.15962 0.2706 0.0684 0.0
H2065 H 0.17681 0.25998 0.10455 0.0
C2066 C 0.22636 0.21042 0.08559 0.0
C2067 C 0.21717 0.20204 0.09957 0.0
C2068 C 0.22432 0.22333 0.08671 0.0
C2069 C 0.21318 0.22822 0.10285 0.0
C2070 C 0.20368 0.21988 0.11494 0.0
C2071 C 0.20564 0.20685 0.11315 0.0
C2072 C 0.21198 0.24202 0.10877 0.0
C2073 C 0.20207 0.24856 0.09046 0.0
C2074 C 0.22134 0.24887 0.12954 0.0
C2075 C 0.23162 0.24253 0.1518 0.0
C2076 C 0.22891 0.2334 0.18107 0.0
C2077 C 0.23864 0.22725 0.20119 0.0
C2078 C 0.25111 0.2302 0.19249 0.0
C2079 C 0.25389 0.23934 0.16373 0.0
C2080 C 0.24421 0.24551 0.14349 0.0
C2081 C 0.20494 0.30375 0.11745 0.0
C2082 C 0.21661 0.30881 0.10614 0.0
C2083 C 0.2031 0.29069 0.11777 0.0
C2084 C 0.21282 0.28253 0.10592 0.0
C2085 C 0.22426 0.2877 0.09314 0.0
C2086 C 0.22616 0.30062 0.0935 0.0
C2087 C 0.21162 0.26861 0.10845 0.0
C2088 C 0.22104 0.26201 0.12895 0.0
C2089 C 0.20181 0.26178 0.08982 0.0
C2090 C 0.19151 0.2681 0.06787 0.0
C2091 C 0.19409 0.27604 0.03516 0.0
C2092 C 0.18429 0.28205 0.01493 0.0
C2093 C 0.17188 0.28011 0.02696 0.0
C2094 C 0.16924 0.27211 0.05916 0.0
C2095 C 0.179 0.26609 0.0795 0.0
H2096 H 0.16431 0.28477 0.01128 0.0
H2097 H 0.25863 0.22541 0.20806 0.0
H2098 H 0.05781 0.94741 0.37303 0.0
H2099 H 0.03489 0.94478 0.37761 0.0
H2100 H 0.02986 0.98314 0.33958 0.0
H2101 H 0.05242 0.98588 0.3361 0.0
H2102 H 0.0163 0.97906 0.40263 0.0
H2103 H 0.02391 0.95643 0.27804 0.0
H2104 H 0.03335 0.93965 0.23687 0.0
H2105 H 0.01637 0.91177 0.31252 0.0
H2106 H 0.00696 0.92839 0.35442 0.0
H2107 H 0.95447 0.9879 0.34635 0.0
H2108 H 0.97701 0.98468 0.34702 0.0
H2109 H 0.97158 0.94623 0.38347 0.0
H2110 H 0.94868 0.94929 0.38085 0.0
H2111 H 0.99038 0.94734 0.33216 0.0
H2112 H 0.98162 0.97028 0.45395 0.0
H2113 H 0.97282 0.98725 0.49581 0.0
H2114 H 0.99216 0.01472 0.42484 0.0
H2115 H 1.00123 0.99794 0.38287 0.0
C2116 C 0.05177 0.95522 0.36536 0.0
C2117 C 0.05697 0.96689 0.35465 0.0
C2118 C 0.03867 0.95371 0.36788 0.0
C2119 C 0.03057 0.96378 0.35903 0.0
C2120 C 0.03583 0.97525 0.34703 0.0
C2121 C 0.0488 0.9768 0.34504 0.0
C2122 C 0.01666 0.9629 0.36385 0.0
C2123 C 0.01066 0.97215 0.38694 0.0
C2124 C 0.00923 0.95361 0.34486 0.0
C2125 C 0.01486 0.94364 0.31962 0.0
C2126 C 0.02227 0.94672 0.28607 0.0
C2127 C 0.0276 0.93724 0.26257 0.0
C2128 C 0.02549 0.92465 0.27215 0.0
C2129 C 0.01802 0.92152 0.30518 0.0
C2130 C 0.01268 0.93096 0.32879 0.0
C2131 C 0.95802 0.97873 0.35461 0.0
C2132 C 0.94975 0.9689 0.36411 0.0
C2133 C 0.97097 0.97692 0.35525 0.0
C2134 C 0.97611 0.96533 0.36665 0.0
C2135 C 0.96789 0.95532 0.37503 0.0
C2136 C 0.95481 0.95707 0.37355 0.0
C2137 C 0.99005 0.96387 0.36944 0.0
C2138 C 0.99604 0.95415 0.3482 0.0
C2139 C 0.99756 0.97276 0.39007 0.0
C2140 C 0.99204 0.98286 0.41516 0.0
C2141 C 0.98394 0.97994 0.44716 0.0
C2142 C 0.97892 0.98952 0.47093 0.0
C2143 C 0.98183 1.00204 0.46281 0.0
C2144 C 0.98988 0.00502 0.43108 0.0
C2145 C 0.99503 0.99548 0.40743 0.0
H2146 H 0.97789 0.00943 0.48122 0.0
H2147 H 0.02963 0.91733 0.25392 0.0
H2148 H 0.30679 0.81073 0.5811 0.0
H2149 H 0.30978 0.78789 0.58047 0.0
H2150 H 0.28202 0.78397 0.67391 0.0
H2151 H 0.27894 0.80665 0.67461 0.0
H2152 H 0.30206 0.76858 0.68714 0.0
H2153 H 0.2741 0.77873 0.57916 0.0
H2154 H 0.26709 0.7891 0.51687 0.0
H2155 H 0.2979 0.77272 0.45239 0.0
H2156 H 0.30522 0.76239 0.51453 0.0
H2157 H 0.27792 0.70729 0.66787 0.0
H2158 H 0.28156 0.72983 0.66961 0.0
H2159 H 0.30993 0.72607 0.57799 0.0
H2160 H 0.30633 0.7033 0.57614 0.0
H2161 H 0.29272 0.74522 0.56169 0.0
H2162 H 0.31889 0.7329 0.67145 0.0
H2163 H 0.32395 0.72166 0.73414 0.0
H2164 H 0.29479 0.74165 0.796 0.0
H2165 H 0.28945 0.75291 0.73354 0.0
C2166 C 0.30145 0.80502 0.6019 0.0
C2167 C 0.29258 0.81055 0.62777 0.0
C2168 C 0.30312 0.79195 0.60134 0.0
C2169 C 0.29604 0.78417 0.62691 0.0
C2170 C 0.28758 0.78974 0.65388 0.0
C2171 C 0.28581 0.80274 0.65413 0.0
C2172 C 0.29699 0.77022 0.62472 0.0
C2173 C 0.3 0.76348 0.65971 0.0
C2174 C 0.2945 0.76351 0.5888 0.0
C2175 C 0.29031 0.76993 0.55161 0.0
C2176 C 0.27948 0.77746 0.55182 0.0
C2177 C 0.27543 0.78331 0.51653 0.0
C2178 C 0.28206 0.78159 0.48073 0.0
C2179 C 0.29279 0.77406 0.48018 0.0
C2180 C 0.29689 0.76821 0.51542 0.0
C2181 C 0.28503 0.71119 0.64831 0.0
C2182 C 0.29183 0.70343 0.62186 0.0
C2183 C 0.28714 0.72412 0.64945 0.0
C2184 C 0.29607 0.72969 0.62409 0.0
C2185 C 0.303 0.72199 0.59791 0.0
C2186 C 0.30099 0.70897 0.59706 0.0
C2187 C 0.29768 0.74359 0.62418 0.0
C2188 C 0.29508 0.75032 0.58887 0.0
C2189 C 0.30041 0.75029 0.6599 0.0
C2190 C 0.30373 0.7437 0.69773 0.0
C2191 C 0.31351 0.73486 0.69837 0.0
C2192 C 0.31644 0.72849 0.73387 0.0
C2193 C 0.30968 0.73092 0.76902 0.0
C2194 C 0.30001 0.73977 0.76876 0.0
C2195 C 0.29705 0.74617 0.73333 0.0
H2196 H 0.31195 0.72597 0.79646 0.0
H2197 H 0.27884 0.78602 0.45338 0.0
H2198 H 0.45384 0.02632 0.91575 0.0
H2199 H 0.47627 0.0303 0.91736 0.0
H2200 H 0.47116 0.0633 0.84427 0.0
H2201 H 0.44848 0.05926 0.84193 0.0
H2202 H 0.49061 0.04919 0.8172 0.0
H2203 H 0.47854 0.06619 0.94371 0.0
H2204 H 0.46781 0.06666 0.00938 0.0
H2205 H 0.48892 0.03455 0.04792 0.0
H2206 H 0.49965 0.03377 0.98228 0.0
H2207 H 0.55685 0.05932 0.84247 0.0
H2208 H 0.53418 0.06326 0.84426 0.0
H2209 H 0.52904 0.03056 0.91877 0.0
H2210 H 0.55151 0.0267 0.91775 0.0
H2211 H 0.51461 0.04909 0.9449 0.0
H2212 H 0.52395 0.03019 0.81547 0.0
H2213 H 0.53444 0.02913 0.74945 0.0
H2214 H 0.51836 0.0646 0.71663 0.0
H2215 H 0.50789 0.06594 0.78271 0.0
C2216 C 0.45739 0.03451 0.90018 0.0
C2217 C 0.44926 0.04247 0.8787 0.0
C2218 C 0.47028 0.0368 0.90133 0.0
C2219 C 0.47545 0.04719 0.88136 0.0
C2220 C 0.4674 0.05525 0.86007 0.0
C2221 C 0.45442 0.05296 0.85893 0.0
C2222 C 0.4893 0.04919 0.88182 0.0
C2223 C 0.49584 0.04947 0.84515 0.0
C2224 C 0.49619 0.04938 0.91821 0.0
C2225 C 0.48986 0.04989 0.95795 0.0
C2226 C 0.48084 0.05918 0.9661 0.0
C2227 C 0.47477 0.05951 0.00334 0.0
C2228 C 0.47767 0.05063 0.03278 0.0
C2229 C 0.48668 0.04142 0.02508 0.0
C2230 C 0.49278 0.04105 0.98788 0.0
C2231 C 0.55091 0.05306 0.85961 0.0
C2232 C 0.55606 0.04263 0.87971 0.0
C2233 C 0.53792 0.05528 0.86041 0.0
C2234 C 0.52984 0.04712 0.88125 0.0
C2235 C 0.53503 0.037 0.90244 0.0
C2236 C 0.54794 0.03477 0.90165 0.0
C2237 C 0.51592 0.04869 0.88033 0.0
C2238 C 0.50937 0.04908 0.91695 0.0
C2239 C 0.50904 0.04908 0.84392 0.0
C2240 C 0.51527 0.04824 0.80418 0.0
C2241 C 0.52273 0.03781 0.79428 0.0
C2242 C 0.52866 0.03715 0.75684 0.0
C2243 C 0.5271 0.04681 0.72892 0.0
C2244 C 0.51958 0.05714 0.73833 0.0
C2245 C 0.51364 0.05785 0.77575 0.0
H2246 H 0.5317 0.04629 0.69995 0.0
H2247 H 0.47295 0.05089 0.06158 0.0
H2248 H 0.22307 0.80078 0.00491 0.0
H2249 H 0.2181 0.77844 0.00691 0.0
H2250 H 0.19505 0.78434 0.11178 0.0
H2251 H 0.19987 0.8069 0.10956 0.0
H2252 H 0.21313 0.76501 0.12067 0.0
H2253 H 0.18058 0.77612 0.03098 0.0
H2254 H 0.17063 0.78645 0.97292 0.0
H2255 H 0.19444 0.76585 0.89242 0.0
H2256 H 0.20468 0.75552 0.95005 0.0
H2257 H 0.20053 0.6985 0.10859 0.0
H2258 H 0.19579 0.72107 0.11043 0.0
H2259 H 0.22063 0.72709 0.00995 0.0
H2260 H 0.22561 0.70472 0.0085 0.0
H2261 H 0.197 0.74035 0.00523 0.0
H2262 H 0.23182 0.73259 0.09583 0.0
H2263 H 0.24199 0.72225 0.15355 0.0
H2264 H 0.21357 0.73673 0.23242 0.0
H2265 H 0.20312 0.747 0.17496 0.0
C2266 C 0.21677 0.79737 0.02801 0.0
C2267 C 0.21186 0.80559 0.05708 0.0
C2268 C 0.21391 0.7846 0.02906 0.0
C2269 C 0.20618 0.77973 0.05944 0.0
C2270 C 0.201 0.78793 0.08802 0.0
C2271 C 0.20369 0.8008 0.08656 0.0
C2272 C 0.20438 0.76594 0.06237 0.0
C2273 C 0.20928 0.75963 0.09591 0.0
C2274 C 0.19955 0.75891 0.0298 0.0
C2275 C 0.19346 0.7651 0.99492 0.0
C2276 C 0.18377 0.77386 0.00092 0.0
C2277 C 0.17807 0.77971 0.96808 0.0
C2278 C 0.18192 0.77682 0.92901 0.0
C2279 C 0.19147 0.76807 0.92271 0.0
C2280 C 0.19722 0.76221 0.95547 0.0
C2281 C 0.20485 0.70463 0.08664 0.0
C2282 C 0.2135 0.69987 0.05856 0.0
C2283 C 0.20216 0.7175 0.08777 0.0
C2284 C 0.20788 0.72573 0.06034 0.0
C2285 C 0.2161 0.72089 0.03129 0.0
C2286 C 0.21898 0.70812 0.03066 0.0
C2287 C 0.206 0.73949 0.06303 0.0
C2288 C 0.2005 0.74576 0.03044 0.0
C2289 C 0.21027 0.74649 0.09646 0.0
C2290 C 0.21659 0.7404 0.13104 0.0
C2291 C 0.22767 0.73346 0.12541 0.0
C2292 C 0.2335 0.72763 0.15809 0.0
C2293 C 0.2284 0.72878 0.19661 0.0
C2294 C 0.21749 0.73581 0.20255 0.0
C2295 C 0.21161 0.74164 0.16994 0.0
H2296 H 0.23292 0.72426 0.22187 0.0
H2297 H 0.17748 0.78135 0.90361 0.0
H2298 H 0.45862 0.98699 0.31349 0.0
H2299 H 0.48099 0.98301 0.31135 0.0
H2300 H 0.47423 0.9432 0.31795 0.0
H2301 H 0.45147 0.94712 0.32071 0.0
H2302 H 0.49469 0.95136 0.3664 0.0
H2303 H 0.48139 0.95561 0.229 0.0
H2304 H 0.47028 0.9658 0.17274 0.0
H2305 H 0.49236 0.99909 0.18887 0.0
H2306 H 0.50345 0.9892 0.2456 0.0
H2307 H 0.56119 0.94682 0.3214 0.0
H2308 H 0.53843 0.94322 0.32101 0.0
H2309 H 0.53232 0.98256 0.29786 0.0
H2310 H 0.55477 0.98613 0.29705 0.0
H2311 H 0.51796 0.96971 0.25142 0.0
H2312 H 0.52827 0.96804 0.39336 0.0
H2313 H 0.53906 0.95963 0.45312 0.0
H2314 H 0.52277 0.9234 0.4318 0.0
H2315 H 0.51199 0.93158 0.37159 0.0
C2316 C 0.46178 0.97734 0.3145 0.0
C2317 C 0.45314 0.96736 0.31675 0.0
C2318 C 0.47464 0.97509 0.31325 0.0
C2319 C 0.47931 0.9628 0.3137 0.0
C2320 C 0.47083 0.95277 0.3173 0.0
C2321 C 0.45783 0.95502 0.31876 0.0
C2322 C 0.49307 0.96074 0.30932 0.0
C2323 C 0.49978 0.95511 0.34085 0.0
C2324 C 0.49976 0.9658 0.2763 0.0
C2325 C 0.49323 0.97166 0.24164 0.0
C2326 C 0.48384 0.96512 0.22065 0.0
C2327 C 0.47754 0.97085 0.18869 0.0
C2328 C 0.48062 0.98308 0.17729 0.0
C2329 C 0.49001 0.98961 0.19774 0.0
C2330 C 0.49631 0.98394 0.22975 0.0
C2331 C 0.55498 0.95468 0.31616 0.0
C2332 C 0.55988 0.96676 0.30912 0.0
C2333 C 0.54195 0.95262 0.31614 0.0
C2334 C 0.53359 0.96263 0.30961 0.0
C2335 C 0.53851 0.97464 0.3027 0.0
C2336 C 0.55143 0.97668 0.30233 0.0
C2337 C 0.51969 0.96086 0.30933 0.0
C2338 C 0.51291 0.96571 0.27667 0.0
C2339 C 0.51301 0.95528 0.34159 0.0
C2340 C 0.51947 0.95038 0.37772 0.0
C2341 C 0.52707 0.95826 0.40124 0.0
C2342 C 0.53317 0.95354 0.43522 0.0
C2343 C 0.53164 0.94098 0.44617 0.0
C2344 C 0.52397 0.93312 0.42323 0.0
C2345 C 0.51787 0.93779 0.38919 0.0
H2346 H 0.53636 0.93734 0.47249 0.0
H2347 H 0.47577 0.98751 0.15262 0.0
H2348 H 0.27079 0.20526 0.5407 0.0
H2349 H 0.27431 0.22772 0.53859 0.0
H2350 H 0.31312 0.22216 0.57035 0.0
H2351 H 0.30956 0.19939 0.57368 0.0
H2352 H 0.3034 0.24181 0.61088 0.0
H2353 H 0.30464 0.22966 0.47294 0.0
H2354 H 0.29729 0.21884 0.41183 0.0
H2355 H 0.26319 0.24025 0.41429 0.0
H2356 H 0.27026 0.25108 0.47574 0.0
H2357 H 0.30931 0.30854 0.57471 0.0
H2358 H 0.31306 0.28581 0.57157 0.0
H2359 H 0.27467 0.28 0.53532 0.0
H2360 H 0.27098 0.30241 0.53722 0.0
H2361 H 0.28899 0.26586 0.49193 0.0
H2362 H 0.28623 0.27518 0.63526 0.0
H2363 H 0.29301 0.28559 0.69782 0.0
H2364 H 0.3297 0.26945 0.68521 0.0
H2365 H 0.32316 0.25905 0.62232 0.0
C2366 C 0.28013 0.20871 0.5471 0.0
C2367 C 0.28992 0.20041 0.55705 0.0
C2368 C 0.28214 0.22163 0.54571 0.0
C2369 C 0.29405 0.22668 0.55344 0.0
C2370 C 0.30386 0.21849 0.56397 0.0
C2371 C 0.30182 0.20547 0.56574 0.0
C2372 C 0.296 0.24054 0.55079 0.0
C2373 C 0.3005 0.24706 0.58454 0.0
C2374 C 0.29214 0.24746 0.51659 0.0
C2375 C 0.28797 0.24115 0.47907 0.0
C2376 C 0.29556 0.23203 0.46054 0.0
C2377 C 0.29144 0.2259 0.42584 0.0
C2378 C 0.27978 0.22885 0.40921 0.0
C2379 C 0.27223 0.23798 0.42718 0.0
C2380 C 0.2763 0.24414 0.46191 0.0
C2381 C 0.3017 0.30241 0.56589 0.0
C2382 C 0.28984 0.30739 0.55624 0.0
C2383 C 0.30384 0.28939 0.5643 0.0
C2384 C 0.29412 0.2811 0.55353 0.0
C2385 C 0.28236 0.28612 0.54354 0.0
C2386 C 0.28026 0.29903 0.54477 0.0
C2387 C 0.29586 0.26718 0.55265 0.0
C2388 C 0.29211 0.26062 0.51804 0.0
C2389 C 0.30037 0.26027 0.58607 0.0
C2390 C 0.30425 0.26647 0.62389 0.0
C2391 C 0.29576 0.27393 0.64571 0.0
C2392 C 0.29956 0.27981 0.68123 0.0
C2393 C 0.31179 0.27822 0.69541 0.0
C2394 C 0.32024 0.2707 0.67415 0.0
C2395 C 0.31649 0.26481 0.63859 0.0
H2396 H 0.31471 0.28278 0.72291 0.0
H2397 H 0.27659 0.22407 0.38238 0.0
H2398 H 0.95282 0.03972 0.74843 0.0
H2399 H 0.97545 0.04316 0.74492 0.0
H2400 H 0.97548 0.05526 0.86874 0.0
H2401 H 0.95259 0.05257 0.87136 0.0
H2402 H 0.99263 0.06784 0.82985 0.0
H2403 H 0.98256 0.0239 0.83866 0.0
H2404 H 0.97206 0.0043 0.81813 0.0
H2405 H 0.98971 0.00642 0.70226 0.0
H2406 H 1.0002 0.02611 0.72195 0.0
H2407 H 0.05774 0.05339 0.86207 0.0
H2408 H 0.03494 0.05604 0.86339 0.0
H2409 H 0.03274 0.04222 0.74157 0.0
H2410 H 0.0554 0.03877 0.74142 0.0
H2411 H 0.01655 0.03085 0.78202 0.0
H2412 H 0.02716 0.07501 0.77485 0.0
H2413 H 0.03775 0.09434 0.79745 0.0
H2414 H 0.01948 0.09154 0.91218 0.0
H2415 H 0.00889 0.07212 0.89042 0.0
C2416 C 0.95764 0.04337 0.77461 0.0
C2417 C 0.95101 0.04583 0.81022 0.0
C2418 C 0.97059 0.04523 0.77274 0.0
C2419 C 0.9773 0.04906 0.80698 0.0
C2420 C 0.97057 0.0522 0.84198 0.0
C2421 C 0.9575 0.05068 0.84349 0.0
C2422 C 0.99132 0.04901 0.80681 0.0
C2423 C 0.99787 0.05972 0.81969 0.0
C2424 C 0.99824 0.03847 0.7933 0.0
C2425 C 0.99209 0.02652 0.78169 0.0
C2426 C 0.98416 0.02021 0.80876 0.0
C2427 C 0.97821 0.00909 0.79727 0.0
C2428 C 0.9802 0.00413 0.75889 0.0
C2429 C 0.98817 0.01027 0.73197 0.0
C2430 C 0.99414 0.0214 0.74329 0.0
C2431 C 0.05238 0.05119 0.83532 0.0
C2432 C 0.05832 0.04592 0.80158 0.0
C2433 C 0.03933 0.05274 0.836 0.0
C2434 C 0.03199 0.04946 0.80241 0.0
C2435 C 0.03808 0.04477 0.768 0.0
C2436 C 0.05106 0.04287 0.76778 0.0
C2437 C 0.01797 0.04983 0.80392 0.0
C2438 C 0.01137 0.03907 0.79176 0.0
C2439 C 0.01108 0.0603 0.81828 0.0
C2440 C 0.01731 0.07207 0.83109 0.0
C2441 C 0.02545 0.07849 0.80496 0.0
C2442 C 0.03144 0.08946 0.81761 0.0
C2443 C 0.02931 0.09415 0.85625 0.0
C2444 C 0.02113 0.0879 0.88227 0.0
C2445 C 0.01512 0.07692 0.86977 0.0
H2446 H 0.03397 0.10263 0.86601 0.0
H2447 H 0.97557 0.99553 0.75003 0.0
H2448 H 0.7773 0.70836 0.00915 0.0
H2449 H 0.78185 0.73063 0.00492 0.0
H2450 H 0.81453 0.72554 0.07948 0.0
H2451 H 0.80988 0.70302 0.08452 0.0
H2452 H 0.80057 0.74489 0.10571 0.0
H2453 H 0.81769 0.73315 0.97961 0.0
H2454 H 0.81854 0.72254 0.91382 0.0
H2455 H 0.78633 0.74332 0.8744 0.0
H2456 H 0.78517 0.75394 0.94015 0.0
H2457 H 0.80965 0.81122 0.08023 0.0
H2458 H 0.81393 0.78863 0.07783 0.0
H2459 H 0.78068 0.78303 0.00636 0.0
H2460 H 0.7764 0.80546 0.0082 0.0
H2461 H 0.79983 0.76905 0.9783 0.0
H2462 H 0.78088 0.77775 0.10821 0.0
H2463 H 0.77966 0.78806 0.17448 0.0
H2464 H 0.81554 0.77274 0.20639 0.0
H2465 H 0.81704 0.76246 0.14006 0.0
C2466 C 0.78557 0.71188 0.02433 0.0
C2467 C 0.7932 0.70384 0.04732 0.0
C2468 C 0.78821 0.72467 0.02163 0.0
C2469 C 0.7986 0.72981 0.04154 0.0
C2470 C 0.80647 0.72179 0.06372 0.0
C2471 C 0.80384 0.7089 0.06637 0.0
C2472 C 0.80057 0.74366 0.04107 0.0
C2473 C 0.80074 0.75015 0.07781 0.0
C2474 C 0.80061 0.75059 0.00473 0.0
C2475 C 0.80132 0.7443 0.96495 0.0
C2476 C 0.81074 0.73541 0.95701 0.0
C2477 C 0.81128 0.7294 0.9197 0.0
C2478 C 0.80248 0.73225 0.88997 0.0
C2479 C 0.79314 0.74113 0.89746 0.0
C2480 C 0.79255 0.74717 0.93473 0.0
C2481 C 0.80331 0.8052 0.06367 0.0
C2482 C 0.79262 0.8102 0.04465 0.0
C2483 C 0.80575 0.79227 0.06249 0.0
C2484 C 0.79756 0.78409 0.04225 0.0
C2485 C 0.78714 0.78912 0.02217 0.0
C2486 C 0.78468 0.80199 0.02343 0.0
C2487 C 0.79944 0.77023 0.04287 0.0
C2488 C 0.79997 0.76376 0.00615 0.0
C2489 C 0.80005 0.76332 0.07919 0.0
C2490 C 0.79914 0.76948 0.11903 0.0
C2491 C 0.78855 0.77667 0.12925 0.0
C2492 C 0.7878 0.78249 0.16683 0.0
C2493 C 0.79753 0.78109 0.19458 0.0
C2494 C 0.80802 0.77384 0.18483 0.0
C2495 C 0.80882 0.76801 0.14726 0.0
H2496 H 0.79693 0.7856 0.22367 0.0
H2497 H 0.80292 0.72758 0.86111 0.0
H2498 H 0.69569 0.19734 0.57573 0.0
H2499 H 0.69157 0.22002 0.57681 0.0
H2500 H 0.73006 0.22716 0.5443 0.0
H2501 H 0.73426 0.20476 0.54317 0.0
H2502 H 0.72276 0.24171 0.60672 0.0
H2503 H 0.70665 0.22981 0.47599 0.0
H2504 H 0.69291 0.21808 0.42973 0.0
H2505 H 0.6604 0.23351 0.48776 0.0
H2506 H 0.67396 0.24521 0.53474 0.0
H2507 H 0.72941 0.30012 0.51925 0.0
H2508 H 0.72557 0.2777 0.52319 0.0
H2509 H 0.69065 0.28444 0.58469 0.0
H2510 H 0.69452 0.3072 0.58166 0.0
H2511 H 0.69235 0.26322 0.51732 0.0
H2512 H 0.70892 0.27685 0.64422 0.0
H2513 H 0.72312 0.289 0.68785 0.0
H2514 H 0.75492 0.2703 0.63605 0.0
H2515 H 0.74091 0.25818 0.59159 0.0
C2516 C 0.70326 0.20374 0.56866 0.0
C2517 C 0.71532 0.19915 0.5594 0.0
C2518 C 0.70088 0.21671 0.56921 0.0
C2519 C 0.71051 0.22532 0.56064 0.0
C2520 C 0.72249 0.22073 0.55121 0.0
C2521 C 0.72485 0.20786 0.55043 0.0
C2522 C 0.7084 0.23914 0.56196 0.0
C2523 C 0.71608 0.24638 0.58721 0.0
C2524 C 0.69945 0.24528 0.53736 0.0
C2525 C 0.69131 0.23825 0.5092 0.0
C2526 C 0.69657 0.23061 0.47913 0.0
C2527 C 0.68881 0.22399 0.45273 0.0
C2528 C 0.67578 0.22502 0.4559 0.0
C2529 C 0.67049 0.2327 0.48541 0.0
C2530 C 0.6782 0.23933 0.51192 0.0
C2531 C 0.72079 0.29695 0.53322 0.0
C2532 C 0.71235 0.30555 0.55064 0.0
C2533 C 0.71862 0.28407 0.53531 0.0
C2534 C 0.7079 0.2794 0.5545 0.0
C2535 C 0.69899 0.28788 0.56971 0.0
C2536 C 0.70122 0.30088 0.56794 0.0
C2537 C 0.70689 0.26567 0.56143 0.0
C2538 C 0.69874 0.25849 0.53762 0.0
C2539 C 0.71539 0.25952 0.5874 0.0
C2540 C 0.72387 0.26669 0.61434 0.0
C2541 C 0.71895 0.27541 0.64187 0.0
C2542 C 0.72696 0.28227 0.6668 0.0
C2543 C 0.73991 0.28044 0.66466 0.0
C2544 C 0.74488 0.27171 0.63765 0.0
C2545 C 0.73691 0.26483 0.61261 0.0
H2546 H 0.7461 0.28576 0.68399 0.0
H2547 H 0.6698 0.21989 0.43542 0.0
H2548 H 0.80845 0.31002 0.08072 0.0
H2549 H 0.81176 0.28723 0.08086 0.0
H2550 H 0.7775 0.28228 0.14794 0.0
H2551 H 0.77416 0.30487 0.1482 0.0
H2552 H 0.79592 0.26751 0.17715 0.0
H2553 H 0.77856 0.27768 0.04646 0.0
H2554 H 0.77825 0.28844 0.98083 0.0
H2555 H 0.81381 0.27201 0.95066 0.0
H2556 H 0.8144 0.26129 0.01639 0.0
H2557 H 0.77248 0.20755 0.14283 0.0
H2558 H 0.77678 0.22989 0.14458 0.0
H2559 H 0.81087 0.22408 0.07732 0.0
H2560 H 0.80655 0.20141 0.075 0.0
H2561 H 0.7972 0.24407 0.04836 0.0
H2562 H 0.81261 0.23109 0.17562 0.0
H2563 H 0.81245 0.22019 0.24098 0.0
H2564 H 0.7805 0.2418 0.27805 0.0
H2565 H 0.78032 0.25268 0.21265 0.0
C2566 C 0.80168 0.30409 0.09581 0.0
C2567 C 0.791 0.30933 0.11426 0.0
C2568 C 0.80355 0.29105 0.09568 0.0
C2569 C 0.79482 0.28301 0.11412 0.0
C2570 C 0.78438 0.28826 0.13352 0.0
C2571 C 0.78246 0.30123 0.13347 0.0
C2572 C 0.79622 0.26909 0.11267 0.0
C2573 C 0.79617 0.26239 0.14898 0.0
C2574 C 0.79696 0.26238 0.07597 0.0
C2575 C 0.7966 0.26882 0.03651 0.0
C2576 C 0.78637 0.27645 0.02597 0.0
C2577 C 0.78613 0.28253 0.98873 0.0
C2578 C 0.79603 0.28095 0.96165 0.0
C2579 C 0.80616 0.27326 0.97171 0.0
C2580 C 0.80645 0.26718 0.00893 0.0
C2581 C 0.78094 0.21092 0.12836 0.0
C2582 C 0.78916 0.20259 0.10869 0.0
C2583 C 0.78342 0.22376 0.12965 0.0
C2584 C 0.79423 0.22869 0.11156 0.0
C2585 C 0.80249 0.22048 0.09168 0.0
C2586 C 0.80003 0.20752 0.0905 0.0
C2587 C 0.79651 0.24249 0.11286 0.0
C2588 C 0.79723 0.24918 0.07657 0.0
C2589 C 0.79637 0.2492 0.14962 0.0
C2590 C 0.79643 0.24267 0.18908 0.0
C2591 C 0.80549 0.23346 0.19757 0.0
C2592 C 0.80546 0.22729 0.23466 0.0
C2593 C 0.79647 0.23031 0.26364 0.0
C2594 C 0.78747 0.23949 0.25558 0.0
C2595 C 0.78743 0.24567 0.21851 0.0
H2596 H 0.79649 0.22555 0.29238 0.0
H2597 H 0.79583 0.28565 0.93283 0.0
H2598 H 0.72958 0.70226 0.66214 0.0
H2599 H 0.726 0.72488 0.66237 0.0
H2600 H 0.69752 0.72062 0.57148 0.0
H2601 H 0.70092 0.69782 0.57149 0.0
H2602 H 0.71548 0.73987 0.55476 0.0
H2603 H 0.68778 0.72758 0.65974 0.0
H2604 H 0.68135 0.71651 0.72145 0.0
H2605 H 0.70912 0.73664 0.78903 0.0
H2606 H 0.71586 0.7477 0.72757 0.0
H2607 H 0.70208 0.80564 0.57285 0.0
H2608 H 0.69835 0.78289 0.57195 0.0
H2609 H 0.72511 0.77812 0.66786 0.0
H2610 H 0.72887 0.80067 0.66892 0.0
H2611 H 0.70439 0.76328 0.67873 0.0
H2612 H 0.73384 0.77323 0.57295 0.0
H2613 H 0.74085 0.78414 0.51157 0.0
H2614 H 0.71008 0.76826 0.44575 0.0
H2615 H 0.70278 0.75739 0.50698 0.0
C2616 C 0.72248 0.70609 0.64236 0.0
C2617 C 0.71552 0.6982 0.61682 0.0
C2618 C 0.72043 0.71904 0.6426 0.0
C2619 C 0.71146 0.72445 0.61704 0.0
C2620 C 0.70447 0.71663 0.59148 0.0
C2621 C 0.70638 0.70361 0.59169 0.0
C2622 C 0.70974 0.7383 0.61662 0.0
C2623 C 0.71277 0.74499 0.58159 0.0
C2624 C 0.70642 0.74499 0.65181 0.0
C2625 C 0.70239 0.7384 0.68895 0.0
C2626 C 0.69259 0.72957 0.68769 0.0
C2627 C 0.68888 0.72331 0.72264 0.0
C2628 C 0.69485 0.72585 0.75912 0.0
C2629 C 0.70452 0.73468 0.76074 0.0
C2630 C 0.70828 0.74096 0.72585 0.0
C2631 C 0.70703 0.79975 0.59409 0.0
C2632 C 0.71585 0.80497 0.62072 0.0
C2633 C 0.70494 0.78675 0.59343 0.0
C2634 C 0.71155 0.77877 0.61961 0.0
C2635 C 0.71991 0.78406 0.64736 0.0
C2636 C 0.7221 0.79697 0.64776 0.0
C2637 C 0.71035 0.76487 0.61708 0.0
C2638 C 0.70684 0.75817 0.65165 0.0
C2639 C 0.71327 0.75818 0.5815 0.0
C2640 C 0.71767 0.76463 0.54464 0.0
C2641 C 0.72851 0.77215 0.54547 0.0
C2642 C 0.73254 0.77832 0.5107 0.0
C2643 C 0.72589 0.77694 0.47481 0.0
C2644 C 0.7152 0.76935 0.4736 0.0
C2645 C 0.71112 0.76318 0.50832 0.0
H2646 H 0.72902 0.78172 0.44792 0.0
H2647 H 0.69195 0.72099 0.78616 0.0
H2648 H 0.55051 0.48003 0.89971 0.0
H2649 H 0.52852 0.47455 0.90466 0.0
H2650 H 0.53595 0.43879 0.84898 0.0
H2651 H 0.55826 0.44436 0.84296 0.0
H2652 H 0.51545 0.45011 0.81637 0.0
H2653 H 0.52861 0.44017 0.94919 0.0
H2654 H 0.53966 0.44351 0.01339 0.0
H2655 H 0.51735 0.47627 0.03624 0.0
H2656 H 0.50628 0.47324 0.97194 0.0
H2657 H 0.44874 0.44438 0.84579 0.0
H2658 H 0.47105 0.4388 0.85036 0.0
H2659 H 0.47863 0.47405 0.90918 0.0
H2660 H 0.45659 0.4795 0.90572 0.0
H2661 H 0.49181 0.45624 0.94335 0.0
H2662 H 0.48287 0.46902 0.80497 0.0
H2663 H 0.47226 0.46687 0.73944 0.0
H2664 H 0.48684 0.42952 0.72702 0.0
H2665 H 0.49743 0.43142 0.79273 0.0
C2666 C 0.54759 0.47093 0.8887 0.0
C2667 C 0.55624 0.46264 0.8709 0.0
C2668 C 0.53495 0.46777 0.89185 0.0
C2669 C 0.53057 0.45617 0.87784 0.0
C2670 C 0.53913 0.44777 0.86027 0.0
C2671 C 0.55189 0.45094 0.85701 0.0
C2672 C 0.51691 0.45334 0.88012 0.0
C2673 C 0.5103 0.45111 0.84433 0.0
C2674 C 0.51014 0.45474 0.9165 0.0
C2675 C 0.51662 0.45648 0.95565 0.0
C2676 C 0.52608 0.44811 0.96783 0.0
C2677 C 0.53235 0.44995 0.00425 0.0
C2678 C 0.52921 0.46009 0.02888 0.0
C2679 C 0.51976 0.4684 0.01717 0.0
C2680 C 0.51347 0.46661 0.98078 0.0
C2681 C 0.45515 0.45084 0.86023 0.0
C2682 C 0.45084 0.46244 0.87505 0.0
C2683 C 0.46791 0.44767 0.8626 0.0
C2684 C 0.47658 0.45608 0.87966 0.0
C2685 C 0.47217 0.46739 0.89589 0.0
C2686 C 0.45951 0.47053 0.89367 0.0
C2687 C 0.49035 0.45364 0.87935 0.0
C2688 C 0.49698 0.45486 0.91559 0.0
C2689 C 0.49711 0.45139 0.84339 0.0
C2690 C 0.4908 0.4503 0.80391 0.0
C2691 C 0.48374 0.46032 0.78836 0.0
C2692 C 0.47774 0.45915 0.75119 0.0
C2693 C 0.47884 0.44805 0.72915 0.0
C2694 C 0.48597 0.4381 0.74417 0.0
C2695 C 0.49197 0.43922 0.78136 0.0
H2696 H 0.47419 0.44716 0.70038 0.0
H2697 H 0.53409 0.46151 0.05703 0.0
H2698 H 0.95311 0.52572 0.39825 0.0
H2699 H 0.97568 0.52901 0.39949 0.0
H2700 H 0.97139 0.56252 0.32833 0.0
H2701 H 0.94856 0.55928 0.32686 0.0
H2702 H 0.99069 0.54698 0.30043 0.0
H2703 H 0.97857 0.56552 0.42503 0.0
H2704 H 0.96762 0.56673 0.49021 0.0
H2705 H 0.98785 0.53447 0.53207 0.0
H2706 H 0.9988 0.53294 0.46692 0.0
H2707 H 0.05692 0.55727 0.32815 0.0
H2708 H 0.03419 0.56101 0.32776 0.0
H2709 H 0.02877 0.52903 0.40519 0.0
H2710 H 0.05127 0.52534 0.40618 0.0
H2711 H 0.01425 0.54787 0.42896 0.0
H2712 H 0.02393 0.52746 0.30292 0.0
H2713 H 0.0347 0.52535 0.23763 0.0
H2714 H 0.01897 0.56036 0.19863 0.0
H2715 H 0.00824 0.56277 0.26396 0.0
C2716 C 0.95688 0.53385 0.38298 0.0
C2717 C 0.94893 0.54224 0.36248 0.0
C2718 C 0.96985 0.53574 0.38385 0.0
C2719 C 0.97527 0.54607 0.36429 0.0
C2720 C 0.96742 0.5545 0.34374 0.0
C2721 C 0.95436 0.55267 0.34312 0.0
C2722 C 0.98917 0.54773 0.36494 0.0
C2723 C 0.99584 0.54747 0.32851 0.0
C2724 C 0.99594 0.54814 0.40155 0.0
C2725 C 0.98945 0.54908 0.44095 0.0
C2726 C 0.98062 0.55863 0.44803 0.0
C2727 C 0.97443 0.55938 0.48499 0.0
C2728 C 0.97702 0.55067 0.51524 0.0
C2729 C 0.98585 0.54121 0.50861 0.0
C2730 C 0.99207 0.54041 0.47168 0.0
C2731 C 0.0509 0.55111 0.34538 0.0
C2732 C 0.05599 0.54096 0.36699 0.0
C2733 C 0.03788 0.55322 0.34495 0.0
C2734 C 0.02971 0.54523 0.36613 0.0
C2735 C 0.03483 0.53534 0.3886 0.0
C2736 C 0.04776 0.53321 0.38896 0.0
C2737 C 0.01579 0.5468 0.36452 0.0
C2738 C 0.00911 0.54764 0.40083 0.0
C2739 C 0.00904 0.54684 0.32782 0.0
C2740 C 0.01542 0.54537 0.28849 0.0
C2741 C 0.02285 0.53476 0.28053 0.0
C2742 C 0.02894 0.5335 0.24351 0.0
C2743 C 0.02756 0.54274 0.21405 0.0
C2744 C 0.02006 0.55323 0.22151 0.0
C2745 C 0.01397 0.55455 0.25853 0.0
H2746 H 0.03228 0.54175 0.18541 0.0
H2747 H 0.97221 0.55127 0.54383 0.0
H2748 H 0.95029 0.44656 0.82374 0.0
H2749 H 0.97282 0.44175 0.82151 0.0
H2750 H 0.98046 0.47951 0.78189 0.0
H2751 H 0.95826 0.48424 0.78288 0.0
H2752 H 0.99438 0.46403 0.74124 0.0
H2753 H 0.98351 0.46914 0.8833 0.0
H2754 H 0.9722 0.46341 0.94538 0.0
H2755 H 0.98743 0.42617 0.9393 0.0
H2756 H 0.99872 0.43166 0.87692 0.0
H2757 H 0.0522 0.48547 0.80289 0.0
H2758 H 0.03006 0.48054 0.798 0.0
H2759 H 0.03783 0.44171 0.82405 0.0
H2760 H 0.06033 0.44658 0.82936 0.0
H2761 H 0.01663 0.45145 0.8658 0.0
H2762 H 0.0313 0.44876 0.73073 0.0
H2763 H 0.04321 0.45571 0.67118 0.0
H2764 H 0.02101 0.48925 0.66499 0.0
H2765 H 0.0091 0.48261 0.72487 0.0
C2766 C 0.95678 0.45379 0.81421 0.0
C2767 C 0.9524 0.46581 0.80366 0.0
C2768 C 0.96966 0.45104 0.81314 0.0
C2769 C 0.97839 0.4603 0.80189 0.0
C2770 C 0.97396 0.47217 0.79053 0.0
C2771 C 0.96119 0.47488 0.7913 0.0
C2772 C 0.99219 0.45807 0.80272 0.0
C2773 C 0.99922 0.46125 0.76848 0.0
C2774 C 0.99857 0.45401 0.83776 0.0
C2775 C 0.99182 0.45075 0.87525 0.0
C2776 C 0.98437 0.45971 0.89508 0.0
C2777 C 0.97798 0.45651 0.93033 0.0
C2778 C 0.97906 0.44442 0.9462 0.0
C2779 C 0.98657 0.43552 0.92692 0.0
C2780 C 0.99297 0.43867 0.89164 0.0
C2781 C 0.04931 0.47585 0.80768 0.0
C2782 C 0.05815 0.4664 0.81627 0.0
C2783 C 0.03659 0.47305 0.80473 0.0
C2784 C 0.0323 0.46073 0.81 0.0
C2785 C 0.04097 0.45127 0.81963 0.0
C2786 C 0.05381 0.45407 0.82257 0.0
C2787 C 0.01873 0.45802 0.80497 0.0
C2788 C 0.01177 0.45389 0.83825 0.0
C2789 C 0.01238 0.46129 0.76912 0.0
C2790 C 0.01932 0.46518 0.73241 0.0
C2791 C 0.02898 0.45764 0.71677 0.0
C2792 C 0.03574 0.46153 0.68295 0.0
C2793 C 0.03287 0.47291 0.66433 0.0
C2794 C 0.02322 0.48042 0.67941 0.0
C2795 C 0.01644 0.47659 0.71325 0.0
H2796 H 0.03813 0.47592 0.6382 0.0
H2797 H 0.9741 0.44196 0.97348 0.0
H2798 H 0.44832 0.55865 0.32571 0.0
H2799 H 0.47125 0.56064 0.32512 0.0
H2800 H 0.47457 0.52193 0.28918 0.0
H2801 H 0.45184 0.51984 0.28961 0.0
H2802 H 0.4902 0.52732 0.35092 0.0
H2803 H 0.47956 0.54512 0.22261 0.0
H2804 H 0.46877 0.55973 0.17678 0.0
H2805 H 0.48623 0.591 0.23578 0.0
H2806 H 0.497 0.57657 0.28239 0.0
H2807 H 0.55132 0.52011 0.27939 0.0
H2808 H 0.52868 0.52274 0.28117 0.0
H2809 H 0.53313 0.56017 0.32786 0.0
H2810 H 0.55606 0.55762 0.32646 0.0
H2811 H 0.51379 0.55761 0.26656 0.0
H2812 H 0.52569 0.53916 0.39195 0.0
H2813 H 0.5366 0.52411 0.436 0.0
H2814 H 0.51663 0.49364 0.381 0.0
H2815 H 0.50574 0.5085 0.33616 0.0
C2816 C 0.45392 0.55057 0.31748 0.0
C2817 C 0.44814 0.53907 0.30785 0.0
C2818 C 0.46705 0.55174 0.31706 0.0
C2819 C 0.47467 0.54143 0.3071 0.0
C2820 C 0.46892 0.53001 0.29717 0.0
C2821 C 0.45586 0.52885 0.29734 0.0
C2822 C 0.48865 0.5423 0.30779 0.0
C2823 C 0.49533 0.53391 0.33225 0.0
C2824 C 0.49541 0.5511 0.28428 0.0
C2825 C 0.48896 0.55978 0.25631 0.0
C2826 C 0.48101 0.55512 0.22607 0.0
C2827 C 0.47491 0.56337 0.19989 0.0
C2828 C 0.47678 0.57629 0.20345 0.0
C2829 C 0.48478 0.58099 0.23312 0.0
C2830 C 0.49088 0.57278 0.25941 0.0
C2831 C 0.54759 0.52898 0.28985 0.0
C2832 C 0.55562 0.53862 0.30317 0.0
C2833 C 0.53458 0.53044 0.29086 0.0
C2834 C 0.52918 0.54158 0.30509 0.0
C2835 C 0.53709 0.55147 0.31685 0.0
C2836 C 0.5502 0.54998 0.31611 0.0
C2837 C 0.51527 0.54248 0.30913 0.0
C2838 C 0.50863 0.55117 0.28561 0.0
C2839 C 0.5085 0.53392 0.3334 0.0
C2840 C 0.51498 0.52495 0.36047 0.0
C2841 C 0.5237 0.52924 0.38902 0.0
C2842 C 0.52987 0.52075 0.41417 0.0
C2843 C 0.52733 0.50792 0.41124 0.0
C2844 C 0.5186 0.50358 0.38321 0.0
C2845 C 0.51241 0.51204 0.35795 0.0
H2846 H 0.53211 0.50136 0.43075 0.0
H2847 H 0.47206 0.58266 0.18315 0.0
H2848 H 0.23752 0.17488 0.17537 0.0
H2849 H 0.25022 0.17574 0.23583 0.0
H2850 H 0.22357 0.15199 0.29695 0.0
H2851 H 0.21045 0.15149 0.23597 0.0
H2852 H 0.2336 0.1696 0.34749 0.0
H2853 H 0.24973 0.13956 0.25222 0.0
H2854 H 0.25722 0.13264 0.18566 0.0
H2855 H 0.28706 0.15964 0.19047 0.0
H2856 H 0.27964 0.16685 0.25684 0.0
H2857 H 0.27166 0.14386 0.49463 0.0
H2858 H 0.25945 0.14589 0.43324 0.0
H2859 H 0.28707 0.17134 0.38496 0.0
H2860 H 0.29956 0.16921 0.44706 0.0
H2861 H 0.27717 0.15428 0.32764 0.0
H2862 H 0.26186 0.18355 0.42451 0.0
H2863 H 0.2547 0.19021 0.49165 0.0
H2864 H 0.22357 0.16477 0.48425 0.0
H2865 H 0.23067 0.15779 0.41728 0.0
C2866 C 0.2342 0.17002 0.20179 0.0
C2867 C 0.22306 0.16301 0.20085 0.0
C2868 C 0.24152 0.17048 0.23638 0.0
C2869 C 0.23806 0.16362 0.27054 0.0
C2870 C 0.22649 0.15726 0.27073 0.0
C2871 C 0.21898 0.157 0.23604 0.0
C2872 C 0.24697 0.16249 0.3047 0.0
C2873 C 0.24307 0.16613 0.34322 0.0
C2874 C 0.25948 0.15828 0.29895 0.0
C2875 C 0.26407 0.15381 0.25934 0.0
C2876 C 0.25785 0.14407 0.23898 0.0
C2877 C 0.26208 0.14009 0.2013 0.0
C2878 C 0.27259 0.14571 0.18381 0.0
C2879 C 0.27891 0.1553 0.20403 0.0
C2880 C 0.27471 0.15933 0.2417 0.0
C2881 C 0.27527 0.14975 0.47071 0.0
C2882 C 0.2865 0.15646 0.47564 0.0
C2883 C 0.26824 0.15094 0.43573 0.0
C2884 C 0.2722 0.15899 0.405 0.0
C2885 C 0.28382 0.16514 0.40857 0.0
C2886 C 0.29097 0.16388 0.44383 0.0
C2887 C 0.26375 0.16129 0.37037 0.0
C2888 C 0.26773 0.15786 0.3318 0.0
C2889 C 0.25133 0.16571 0.37606 0.0
C2890 C 0.24685 0.17009 0.41595 0.0
C2891 C 0.25353 0.17932 0.43727 0.0
C2892 C 0.24948 0.18316 0.47531 0.0
C2893 C 0.2387 0.1779 0.49224 0.0
C2894 C 0.23192 0.16883 0.47109 0.0
C2895 C 0.23595 0.16494 0.43307 0.0
H2896 H 0.23558 0.18087 0.52171 0.0
H2897 H 0.27585 0.14263 0.15462 0.0
H2898 H 0.10745 0.95941 0.48453 0.0
H2899 H 0.10769 0.97252 0.54532 0.0
H2900 H 0.08793 1.00169 0.48136 0.0
H2901 H 0.08834 0.98901 0.42079 0.0
H2902 H 0.10551 0.01206 0.51883 0.0
H2903 H 0.07426 0.98188 0.55833 0.0
H2904 H 0.06576 0.96074 0.57119 0.0
H2905 H 0.09466 0.95404 0.65841 0.0
H2906 H 0.10343 0.97509 0.64572 0.0
H2907 H 0.092 0.04976 0.69418 0.0
H2908 H 0.09075 0.03708 0.6324 0.0
H2909 H 0.11274 0.00807 0.68912 0.0
H2910 H 0.11364 0.02042 0.75053 0.0
H2911 H 0.09328 0.99794 0.65524 0.0
H2912 H 0.12457 0.02833 0.61377 0.0
H2913 H 0.13256 0.04967 0.60084 0.0
H2914 H 0.10263 0.05617 0.5171 0.0
H2915 H 0.09438 0.03492 0.5299 0.0
C2916 C 0.10302 0.96856 0.48383 0.0
C2917 C 0.09792 0.9732 0.44792 0.0
C2918 C 0.10312 0.97605 0.51856 0.0
C2919 C 0.09777 0.98815 0.5182 0.0
C2920 C 0.09224 0.99249 0.48257 0.0
C2921 C 0.09243 0.98518 0.44785 0.0
C2922 C 0.09835 0.99661 0.55394 0.0
C2923 C 0.10265 0.00898 0.54854 0.0
C2924 C 0.09487 0.99264 0.593 0.0
C2925 C 0.08956 0.98001 0.6008 0.0
C2926 C 0.07885 0.97586 0.58006 0.0
C2927 C 0.07398 0.9639 0.58735 0.0
C2928 C 0.07969 0.95604 0.61553 0.0
C2929 C 0.09026 0.96014 0.63657 0.0
C2930 C 0.09517 0.97208 0.62937 0.0
C2931 C 0.09673 0.04078 0.693 0.0
C2932 C 0.10291 0.03606 0.72705 0.0
C2933 C 0.096 0.03352 0.6578 0.0
C2934 C 0.10165 0.02157 0.65603 0.0
C2935 C 0.1082 0.01716 0.68971 0.0
C2936 C 0.10877 0.02428 0.72476 0.0
C2937 C 0.10048 0.01332 0.62005 0.0
C2938 C 0.09607 1.001 0.62544 0.0
C2939 C 0.10378 0.01735 0.58095 0.0
C2940 C 0.10879 0.03009 0.57309 0.0
C2941 C 0.11965 0.03435 0.5928 0.0
C2942 C 0.12423 0.04642 0.58546 0.0
C2943 C 0.11809 0.05428 0.55825 0.0
C2944 C 0.10737 0.05007 0.53821 0.0
C2945 C 0.10274 0.03802 0.54547 0.0
H2946 H 0.12164 0.06363 0.55262 0.0
H2947 H 0.0759 0.94678 0.62111 0.0
H2948 H 0.2382 0.83713 -0.00192 0.0
H2949 H 0.25032 0.83854 0.93716 0.0
H2950 H 0.2212 0.86071 0.88226 0.0
H2951 H 0.20863 0.85919 0.94461 0.0
H2952 H 0.23334 0.84243 0.82949 0.0
H2953 H 0.24471 0.87591 0.91858 0.0
H2954 H 0.25061 0.8852 0.98375 0.0
H2955 H 0.28387 0.86251 0.98667 0.0
H2956 H 0.27806 0.85295 0.92178 0.0
H2957 H 0.27158 0.86745 0.67967 0.0
H2958 H 0.25864 0.86638 0.73971 0.0
H2959 H 0.28679 0.84384 0.79835 0.0
H2960 H 0.29998 0.84486 0.73731 0.0
H2961 H 0.27488 0.8627 0.84864 0.0
H2962 H 0.26367 0.82903 0.76086 0.0
H2963 H 0.25804 0.81948 0.69587 0.0
H2964 H 0.22476 0.84208 0.69065 0.0
H2965 H 0.2303 0.85194 0.75536 0.0
C2966 C 0.23417 0.84221 0.97328 0.0
C2967 C 0.22248 0.84822 0.97665 0.0
C2968 C 0.24119 0.843 0.93821 0.0
C2969 C 0.23683 0.84998 0.90556 0.0
C2970 C 0.22477 0.85535 0.90741 0.0
C2971 C 0.2176 0.85446 0.94288 0.0
C2972 C 0.24539 0.8521 0.87105 0.0
C2973 C 0.24231 0.84707 0.83343 0.0
C2974 C 0.25729 0.8578 0.87663 0.0
C2975 C 0.2609 0.86365 0.91544 0.0
C2976 C 0.25324 0.87284 0.93325 0.0
C2977 C 0.25657 0.87816 0.97013 0.0
C2978 C 0.2676 0.87443 0.98938 0.0
C2979 C 0.27533 0.86539 0.97173 0.0
C2980 C 0.27203 0.86003 0.93488 0.0
C2981 C 0.27516 0.86241 0.70552 0.0
C2982 C 0.28675 0.85614 0.70375 0.0
C2983 C 0.26771 0.86178 0.73976 0.0
C2984 C 0.27164 0.85483 0.77309 0.0
C2985 C 0.28359 0.8492 0.77268 0.0
C2986 C 0.29113 0.84983 0.73803 0.0
C2987 C 0.26283 0.85304 0.80711 0.0
C2988 C 0.26588 0.85812 0.84465 0.0
C2989 C 0.25093 0.84736 0.80146 0.0
C2990 C 0.24746 0.84132 0.76281 0.0
C2991 C 0.2552 0.83205 0.74572 0.0
C2992 C 0.25202 0.82656 0.70894 0.0
C2993 C 0.24107 0.83019 0.68909 0.0
C2994 C 0.23325 0.83929 0.70605 0.0
C2995 C 0.2364 0.84482 0.7428 0.0
H2996 H 0.23862 0.82594 0.66061 0.0
H2997 H 0.27016 0.87856 0.01794 0.0
H2998 H 0.38937 0.02405 0.93438 0.0
H2999 H 0.39024 0.01141 0.99533 0.0
H3000 H 0.41922 0.03549 0.04251 0.0
H3001 H 0.41829 0.04834 0.98091 0.0
H3002 H 0.42557 0.01012 0.04322 0.0
H3003 H 0.39112 0.03537 0.08653 0.0
H3004 H 0.37055 0.04578 0.08087 0.0
H3005 H 0.35256 0.01 0.06751 0.0
H3006 H 0.37305 0.99937 0.0725 0.0
H3007 H 0.42494 0.98606 0.24258 0.0
H3008 H 0.42426 0.99826 0.18085 0.0
H3009 H 0.39737 0.97234 0.13121 0.0
H3010 H 0.39835 0.95975 0.19339 0.0
H3011 H 0.38986 0.99833 0.13109 0.0
H3012 H 0.42407 0.97297 0.09037 0.0
H3013 H 0.44461 0.96244 0.09325 0.0
H3014 H 0.46308 0.99817 0.09918 0.0
H3015 H 0.44265 0.00892 0.09774 0.0
C3016 C 0.39569 0.02686 0.95823 0.0
C3017 C 0.40369 0.03721 0.95321 0.0
C3018 C 0.39618 0.01962 0.99305 0.0
C3019 C 0.40476 0.02251 0.02354 0.0
C3020 C 0.41249 0.03314 0.01933 0.0
C3021 C 0.41187 0.04054 0.98446 0.0
C3022 C 0.40625 0.01374 0.05791 0.0
C3023 C 0.41784 0.00772 0.06304 0.0
C3024 C 0.396 0.01023 0.08251 0.0
C3025 C 0.38365 0.01658 0.07954 0.0
C3026 C 0.38279 0.02973 0.08203 0.0
C3027 C 0.37114 0.03567 0.07902 0.0
C3028 C 0.36026 0.02856 0.07374 0.0
C3029 C 0.361 0.01549 0.07156 0.0
C3030 C 0.37263 0.00951 0.07453 0.0
C3031 C 0.41914 0.98274 0.21823 0.0
C3032 C 0.41176 0.97191 0.22267 0.0
C3033 C 0.41875 0.98974 0.18289 0.0
C3034 C 0.41077 0.98622 0.15146 0.0
C3035 C 0.40363 0.97518 0.15516 0.0
C3036 C 0.40426 0.96796 0.19042 0.0
C3037 C 0.40921 0.99478 0.11662 0.0
C3038 C 0.3976 1.00074 0.11138 0.0
C3039 C 0.41946 0.99823 0.0919 0.0
C3040 C 0.43177 0.99177 0.09444 0.0
C3041 C 0.43249 0.9786 0.09305 0.0
C3042 C 0.44413 0.97257 0.09434 0.0
C3043 C 0.45514 0.97962 0.09654 0.0
C3044 C 0.45454 0.99271 0.09767 0.0
C3045 C 0.44293 0.99877 0.0967 0.0
H3046 H 0.46415 0.97494 0.09719 0.0
H3047 H 0.35125 0.03318 0.07142 0.0
H3048 H 0.7783 0.8722 0.97812 0.0
H3049 H 0.76503 0.87078 0.91848 0.0
H3050 H 0.78053 0.8343 0.89198 0.0
H3051 H 0.79435 0.83607 0.95095 0.0
H3052 H 0.77547 0.84578 0.82415 0.0
H3053 H 0.75246 0.83786 0.9436 0.0
H3054 H 0.74475 0.84171 0.01237 0.0
H3055 H 0.72638 0.87533 0.97261 0.0
H3056 H 0.73418 0.8718 0.90369 0.0
H3057 H 0.72322 0.82808 0.70407 0.0
H3058 H 0.73625 0.82847 0.76477 0.0
H3059 H 0.73083 0.86843 0.7741 0.0
H3060 H 0.71815 0.8681 0.71239 0.0
H3061 H 0.73032 0.85358 0.85121 0.0
H3062 H 0.75515 0.86068 0.73021 0.0
H3063 H 0.76214 0.85481 0.66207 0.0
H3064 H 0.7762 0.81979 0.70713 0.0
H3065 H 0.76908 0.82536 0.77546 0.0
C3066 C 0.77915 0.86408 0.95875 0.0
C3067 C 0.7874 0.85432 0.96867 0.0
C3068 C 0.77145 0.86318 0.92499 0.0
C3069 C 0.77147 0.85226 0.90132 0.0
C3070 C 0.78027 0.84279 0.90986 0.0
C3071 C 0.78823 0.84383 0.94332 0.0
C3072 C 0.76179 0.85054 0.86941 0.0
C3073 C 0.7656 0.84733 0.83032 0.0
C3074 C 0.74884 0.85252 0.8772 0.0
C3075 C 0.744 0.85462 0.91852 0.0
C3076 C 0.74684 0.84612 0.94956 0.0
C3077 C 0.74245 0.84824 0.98858 0.0
C3078 C 0.7351 0.85877 0.99687 0.0
C3079 C 0.73209 0.86718 0.96614 0.0
C3080 C 0.73649 0.86512 0.92709 0.0
C3081 C 0.72458 0.83688 0.71961 0.0
C3082 C 0.71968 0.84806 0.70384 0.0
C3083 C 0.73203 0.8371 0.75421 0.0
C3084 C 0.73458 0.8485 0.77367 0.0
C3085 C 0.72893 0.85955 0.75955 0.0
C3086 C 0.72164 0.85935 0.72454 0.0
C3087 C 0.74407 0.84908 0.80622 0.0
C3088 C 0.74021 0.85202 0.84534 0.0
C3089 C 0.7569 0.84658 0.79867 0.0
C3090 C 0.76147 0.84338 0.75784 0.0
C3091 C 0.75965 0.85169 0.72553 0.0
C3092 C 0.76364 0.84842 0.68688 0.0
C3093 C 0.76958 0.83692 0.68025 0.0
C3094 C 0.77158 0.82869 0.7123 0.0
C3095 C 0.76758 0.8319 0.75099 0.0
H3096 H 0.77265 0.8344 0.6503 0.0
H3097 H 0.73171 0.8604 0.0271 0.0
H3098 H 0.90567 0.05239 0.69473 0.0
H3099 H 0.90582 0.04043 0.63105 0.0
H3100 H 0.91346 0.00644 0.6968 0.0
H3101 H 0.91283 0.01789 0.75908 0.0
H3102 H 0.92804 0.0087 0.62695 0.0
H3103 H 0.88501 0.01167 0.67335 0.0
H3104 H 0.86591 0.02306 0.69378 0.0
H3105 H 0.86443 0.04107 0.57841 0.0
H3106 H 0.88365 0.0299 0.55753 0.0
H3107 H 0.9123 0.9596 0.48971 0.0
H3108 H 0.91263 0.97248 0.55131 0.0
H3109 H 0.89869 0.00414 0.48399 0.0
H3110 H 0.89793 0.99145 0.42387 0.0
H3111 H 0.88787 0.00389 0.55344 0.0
H3112 H 0.93044 0.99955 0.50515 0.0
H3113 H 0.94873 0.98694 0.4846 0.0
H3114 H 0.95115 0.9713 0.6033 0.0
H3115 H 0.93267 0.9836 0.62428 0.0
C3116 C 0.90751 0.0424 0.69535 0.0
C3117 C 0.9093 0.03616 0.73211 0.0
C3118 C 0.9076 0.03559 0.6591 0.0
C3119 C 0.90973 0.02255 0.65935 0.0
C3120 C 0.91193 0.01649 0.69584 0.0
C3121 C 0.91156 0.02315 0.73166 0.0
C3122 C 0.90882 0.01478 0.62256 0.0
C3123 C 0.91928 0.00766 0.61073 0.0
C3124 C 0.89738 0.01339 0.60161 0.0
C3125 C 0.88585 0.0201 0.6141 0.0
C3126 C 0.88068 0.01816 0.6525 0.0
C3127 C 0.86982 0.02455 0.66413 0.0
C3128 C 0.86399 0.03282 0.63746 0.0
C3129 C 0.86898 0.03469 0.59907 0.0
C3130 C 0.87985 0.02833 0.58732 0.0
C3131 C 0.90915 0.96924 0.48843 0.0
C3132 C 0.90524 0.97453 0.45189 0.0
C3133 C 0.90941 0.97662 0.52345 0.0
C3134 C 0.90587 0.98937 0.52211 0.0
C3135 C 0.90149 0.99439 0.48592 0.0
C3136 C 0.90115 0.98709 0.45138 0.0
C3137 C 0.90713 0.99782 0.55741 0.0
C3138 C 0.89671 0.00503 0.56915 0.0
C3139 C 0.91862 0.9993 0.57817 0.0
C3140 C 0.9301 0.99239 0.56615 0.0
C3141 C 0.93486 0.9934 0.52683 0.0
C3142 C 0.94524 0.98629 0.51509 0.0
C3143 C 0.95107 0.97828 0.5426 0.0
C3144 C 0.9466 0.97747 0.582 0.0
C3145 C 0.93616 0.9845 0.59383 0.0
H3146 H 0.95906 0.97271 0.53344 0.0
H3147 H 0.85557 0.03775 0.6465 0.0
H3148 H 0.76742 0.17084 0.17456 0.0
H3149 H 0.75616 0.17092 0.23734 0.0
H3150 H 0.78778 0.15371 0.29632 0.0
H3151 H 0.79943 0.15374 0.23203 0.0
H3152 H 0.76445 0.14119 0.30788 0.0
H3153 H 0.78056 0.18269 0.32065 0.0
H3154 H 0.7857 0.20399 0.29717 0.0
H3155 H 0.7466 0.21173 0.27909 0.0
H3156 H 0.74122 0.19037 0.30175 0.0
H3157 H 0.73698 0.14484 0.49873 0.0
H3158 H 0.75005 0.14641 0.43945 0.0
H3159 H 0.72103 0.16732 0.37883 0.0
H3160 H 0.70779 0.16605 0.43969 0.0
H3161 H 0.74392 0.17826 0.36968 0.0
H3162 H 0.7277 0.1369 0.3522 0.0
H3163 H 0.72212 0.11531 0.37186 0.0
H3164 H 0.76085 0.10718 0.39557 0.0
H3165 H 0.76665 0.12877 0.37658 0.0
C3166 C 0.77218 0.16726 0.20068 0.0
C3167 C 0.78436 0.16227 0.1981 0.0
C3168 C 0.76568 0.16738 0.23686 0.0
C3169 C 0.77112 0.1624 0.27159 0.0
C3170 C 0.78344 0.15767 0.26976 0.0
C3171 C 0.79011 0.15776 0.23323 0.0
C3172 C 0.7633 0.16132 0.30834 0.0
C3173 C 0.76019 0.1493 0.32209 0.0
C3174 C 0.75733 0.17191 0.32556 0.0
C3175 C 0.76049 0.18487 0.31269 0.0
C3176 C 0.77306 0.1889 0.31144 0.0
C3177 C 0.77602 0.20099 0.29828 0.0
C3178 C 0.76649 0.20921 0.28659 0.0
C3179 C 0.75397 0.20535 0.28815 0.0
C3180 C 0.75096 0.19325 0.3012 0.0
C3181 C 0.73324 0.14968 0.47271 0.0
C3182 C 0.72132 0.15533 0.47388 0.0
C3183 C 0.74075 0.1505 0.43865 0.0
C3184 C 0.73651 0.15685 0.40444 0.0
C3185 C 0.72447 0.16232 0.40494 0.0
C3186 C 0.71687 0.1615 0.43945 0.0
C3187 C 0.74504 0.1581 0.36926 0.0
C3188 C 0.74825 0.17015 0.35573 0.0
C3189 C 0.75104 0.14752 0.35194 0.0
C3190 C 0.74759 0.1345 0.36327 0.0
C3191 C 0.73502 0.13054 0.3619 0.0
C3192 C 0.73182 0.11829 0.37287 0.0
C3193 C 0.74112 0.10989 0.38504 0.0
C3194 C 0.75365 0.1137 0.38617 0.0
C3195 C 0.7569 0.12594 0.37525 0.0
H3196 H 0.73862 0.10041 0.39353 0.0
H3197 H 0.76879 0.21856 0.27636 0.0
H3198 H 0.5816 0.97054 0.22163 0.0
H3199 H 0.58036 0.98429 0.16284 0.0
H3200 H 0.62067 0.98286 0.15091 0.0
H3201 H 0.62186 0.96969 0.21115 0.0
H3202 H 0.61407 0.00566 0.14702 0.0
H3203 H 0.59886 0.96864 0.0816 0.0
H3204 H 0.58536 0.95013 0.07159 0.0
H3205 H 0.55291 0.97388 0.06512 0.0
H3206 H 0.5662 0.99253 0.07561 0.0
H3207 H 0.61877 0.02829 0.94466 0.0
H3208 H 0.61833 0.01561 0.00608 0.0
H3209 H 0.5816 0.03009 0.03429 0.0
H3210 H 0.58224 0.04319 0.97316 0.0
H3211 H 0.58507 1.00185 0.0312 0.0
H3212 H 0.60154 0.03903 0.09309 0.0
H3213 H 0.61595 0.057 0.09962 0.0
H3214 H 0.64725 0.03183 0.10865 0.0
H3215 H 0.63304 0.01371 0.10155 0.0
C3216 C 0.59013 0.97289 0.20566 0.0
C3217 C 0.60181 0.9689 0.2203 0.0
C3218 C 0.58944 0.98076 0.17201 0.0
C3219 C 0.60042 0.98463 0.152 0.0
C3220 C 0.61205 0.98009 0.1657 0.0
C3221 C 0.61274 0.97241 0.19976 0.0
C3222 C 0.59992 0.99414 0.11899 0.0
C3223 C 0.60783 0.00468 0.12149 0.0
C3224 C 0.59154 0.99317 0.08605 0.0
C3225 C 0.58352 0.98197 0.07983 0.0
C3226 C 0.58884 0.96991 0.07838 0.0
C3227 C 0.58122 0.95939 0.07256 0.0
C3228 C 0.56828 0.96082 0.06785 0.0
C3229 C 0.56293 0.97278 0.06885 0.0
C3230 C 0.5705 0.98333 0.07469 0.0
C3231 C 0.61078 0.02905 0.96467 0.0
C3232 C 0.60065 0.03688 0.95483 0.0
C3233 C 0.6105 0.02176 -0.00046 0.0
C3234 C 0.59993 0.0219 0.02468 0.0
C3235 C 0.58986 0.0299 0.01531 0.0
C3236 C 0.59028 0.03746 0.98078 0.0
C3237 C 0.5993 0.01313 0.0593 0.0
C3238 C 0.59122 1.00277 0.057 0.0
C3239 C 0.60765 0.01414 0.09209 0.0
C3240 C 0.61623 0.02501 0.0964 0.0
C3241 C 0.6115 0.03733 0.09607 0.0
C3242 C 0.61963 0.04754 0.09997 0.0
C3243 C 0.63251 0.04556 0.10445 0.0
C3244 C 0.63728 0.03335 0.10513 0.0
C3245 C 0.62919 0.02311 0.10121 0.0
H3246 H 0.63879 0.05348 0.10747 0.0
H3247 H 0.5624 0.95267 0.06333 0.0
H3248 H 0.76276 0.65872 0.01604 0.0
H3249 H 0.74979 0.65872 0.9564 0.0
H3250 H 0.78289 0.65898 0.88176 0.0
H3251 H 0.79617 0.65941 0.94242 0.0
H3252 H 0.76525 0.67494 0.85317 0.0
H3253 H 0.7656 0.63205 0.89521 0.0
H3254 H 0.76352 0.61439 0.94262 0.0
H3255 H 0.72489 0.62389 0.96269 0.0
H3256 H 0.72678 0.64171 0.91579 0.0
H3257 H 0.73838 0.65194 0.67629 0.0
H3258 H 0.74957 0.65376 0.73922 0.0
H3259 H 0.71494 0.66169 0.8011 0.0
H3260 H 0.70342 0.66017 0.7368 0.0
H3261 H 0.73227 0.64243 0.83728 0.0
H3262 H 0.73205 0.68494 0.79129 0.0
H3263 H 0.7344 0.70167 0.74071 0.0
H3264 H 0.7732 0.69199 0.72533 0.0
H3265 H 0.77103 0.67507 0.77544 0.0
C3266 C 0.76739 0.6588 0.98707 0.0
C3267 C 0.78056 0.65905 0.98407 0.0
C3268 C 0.75989 0.65872 0.95285 0.0
C3269 C 0.76532 0.65863 0.91452 0.0
C3270 C 0.77849 0.65899 0.91111 0.0
C3271 C 0.78607 0.65917 0.94569 0.0
C3272 C 0.75708 0.65822 0.87845 0.0
C3273 C 0.75815 0.66774 0.84951 0.0
C3274 C 0.74755 0.64903 0.87412 0.0
C3275 C 0.74637 0.63829 0.90226 0.0
C3276 C 0.75669 0.63043 0.90997 0.0
C3277 C 0.75554 0.62038 0.93671 0.0
C3278 C 0.74409 0.61804 0.95573 0.0
C3279 C 0.73375 0.62572 0.94797 0.0
C3280 C 0.73486 0.63579 0.92127 0.0
C3281 C 0.73303 0.65415 0.70303 0.0
C3282 C 0.71996 0.65604 0.70135 0.0
C3283 C 0.73951 0.65518 0.73908 0.0
C3284 C 0.73313 0.658 0.77465 0.0
C3285 C 0.72002 0.65958 0.77374 0.0
C3286 C 0.71347 0.6587 0.73714 0.0
C3287 C 0.74045 0.65913 0.81231 0.0
C3288 C 0.73928 0.6497 0.84136 0.0
C3289 C 0.74993 0.66833 0.81655 0.0
C3290 C 0.75135 0.67866 0.78694 0.0
C3291 C 0.74107 0.68631 0.77693 0.0
C3292 C 0.74237 0.69584 0.74836 0.0
C3293 C 0.75393 0.69787 0.72972 0.0
C3294 C 0.76424 0.6904 0.73977 0.0
C3295 C 0.76299 0.68085 0.76831 0.0
H3296 H 0.75492 0.70523 0.70756 0.0
H3297 H 0.74321 0.61025 0.97643 0.0
H3298 H 0.59052 0.54902 0.18989 0.0
H3299 H 0.59057 0.53663 0.12727 0.0
H3300 H 0.61179 0.50756 0.18663 0.0
H3301 H 0.612 0.51984 0.24795 0.0
H3302 H 0.62011 0.51006 0.1139 0.0
H3303 H 0.57995 0.50582 0.17679 0.0
H3304 H 0.56011 0.51337 0.20618 0.0
H3305 H 0.54965 0.52942 0.09265 0.0
H3306 H 0.56956 0.52214 0.06275 0.0
H3307 H 0.60476 0.45855 0.98058 0.0
H3308 H 0.60456 0.47096 0.04323 0.0
H3309 H 0.59241 0.50346 0.97681 0.0
H3310 H 0.5931 0.49154 0.91501 0.0
H3311 H 0.57914 0.4987 0.05333 0.0
H3312 H 0.62074 0.50285 0.99326 0.0
H3313 H 0.6406 0.4943 0.96686 0.0
H3314 H 0.64787 0.47658 0.0804 0.0
H3315 H 0.62794 0.48488 0.10727 0.0
C3316 C 0.5954 0.54012 0.18908 0.0
C3317 C 0.60116 0.53535 0.22377 0.0
C3318 C 0.59534 0.53299 0.15354 0.0
C3319 C 0.60103 0.52106 0.15248 0.0
C3320 C 0.60732 0.51669 0.18662 0.0
C3321 C 0.60737 0.52373 0.22177 0.0
C3322 C 0.60007 0.51271 0.11686 0.0
C3323 C 0.61112 0.50752 0.10095 0.0
C3324 C 0.58837 0.50932 0.09996 0.0
C3325 C 0.57631 0.51356 0.11765 0.0
C3326 C 0.57346 0.51104 0.15816 0.0
C3327 C 0.5622 0.51526 0.17492 0.0
C3328 C 0.55364 0.5219 0.15133 0.0
C3329 C 0.5563 0.52429 0.11091 0.0
C3330 C 0.56758 0.52012 0.09404 0.0
C3331 C 0.60196 0.4683 0.97955 0.0
C3332 C 0.59894 0.47401 0.94274 0.0
C3333 C 0.60183 0.47536 0.01523 0.0
C3334 C 0.5984 0.48811 0.01448 0.0
C3335 C 0.59497 0.49363 0.97805 0.0
C3336 C 0.59541 0.48674 0.94259 0.0
C3337 C 0.59915 0.49611 0.05074 0.0
C3338 C 0.58808 0.50124 0.06658 0.0
C3339 C 0.6108 0.49927 0.06814 0.0
C3340 C 0.62279 0.49435 0.05208 0.0
C3341 C 0.62652 0.49703 0.01245 0.0
C3342 C 0.6378 0.49225 -0.00256 0.0
C3343 C 0.64547 0.48486 0.02189 0.0
C3344 C 0.6419 0.48228 0.06146 0.0
C3345 C 0.63062 0.48702 0.0766 0.0
H3346 H 0.6542 0.48118 0.01022 0.0
H3347 H 0.54493 0.52517 0.16436 0.0
H3348 H 0.70872 0.35295 0.43916 0.0
H3349 H 0.72167 0.3534 0.37793 0.0
H3350 H 0.75473 0.34648 0.44938 0.0
H3351 H 0.74215 0.34677 0.50977 0.0
H3352 H 0.76033 0.36313 0.3991 0.0
H3353 H 0.73944 0.32326 0.38875 0.0
H3354 H 0.72127 0.30898 0.38594 0.0
H3355 H 0.70783 0.32781 0.2803 0.0
H3356 H 0.72585 0.34231 0.2828 0.0
H3357 H 0.8011 0.34646 0.23281 0.0
H3358 H 0.78876 0.34545 0.29553 0.0
H3359 H 0.75595 0.35799 0.23132 0.0
H3360 H 0.76799 0.35905 0.16965 0.0
H3361 H 0.7507 0.33783 0.27799 0.0
H3362 H 0.772 0.37786 0.29078 0.0
H3363 H 0.79063 0.39153 0.29431 0.0
H3364 H 0.80398 0.37106 0.3969 0.0
H3365 H 0.78549 0.35717 0.39364 0.0
C3366 C 0.71874 0.35152 0.4416 0.0
C3367 C 0.72435 0.34975 0.47936 0.0
C3368 C 0.72615 0.3517 0.40662 0.0
C3369 C 0.73923 0.34983 0.40886 0.0
C3370 C 0.74472 0.348 0.44663 0.0
C3371 C 0.73743 0.34807 0.48131 0.0
C3372 C 0.74739 0.34997 0.37245 0.0
C3373 C 0.75827 0.35744 0.37288 0.0
C3374 C 0.74473 0.3427 0.33788 0.0
C3375 C 0.73393 0.33395 0.3362 0.0
C3376 C 0.73257 0.32441 0.36508 0.0
C3377 C 0.7223 0.31627 0.36352 0.0
C3378 C 0.71338 0.31751 0.33302 0.0
C3379 C 0.71473 0.32687 0.30394 0.0
C3380 C 0.72497 0.33505 0.3054 0.0
C3381 C 0.79129 0.34908 0.23233 0.0
C3382 C 0.78554 0.35277 0.19624 0.0
C3383 C 0.78425 0.34848 0.26805 0.0
C3384 C 0.7714 0.35159 0.26799 0.0
C3385 C 0.76578 0.35543 0.23206 0.0
C3386 C 0.77275 0.35606 0.19677 0.0
C3387 C 0.76358 0.35093 0.30492 0.0
C3388 C 0.75276 0.3434 0.30446 0.0
C3389 C 0.76638 0.35802 0.33965 0.0
C3390 C 0.77744 0.3664 0.34169 0.0
C3391 C 0.77896 0.37622 0.31389 0.0
C3392 C 0.78948 0.38402 0.31588 0.0
C3393 C 0.7985 0.38214 0.34574 0.0
C3394 C 0.797 0.37249 0.37374 0.0
C3395 C 0.7865 0.36466 0.37186 0.0
H3396 H 0.80664 0.38819 0.34723 0.0
H3397 H 0.70544 0.3112 0.33186 0.0
H3398 H 0.91442 0.49282 0.75433 0.0
H3399 H 0.91459 0.50489 0.69328 0.0
H3400 H 0.90419 0.47201 0.6255 0.0
H3401 H 0.90476 0.45939 0.68773 0.0
H3402 H 0.92069 0.48619 0.58417 0.0
H3403 H 0.88214 0.49458 0.65263 0.0
H3404 H 0.86878 0.50007 0.71057 0.0
H3405 H 0.88701 0.53586 0.71981 0.0
H3406 H 0.9006 0.53053 0.66226 0.0
H3407 H 0.89786 0.51961 0.41856 0.0
H3408 H 0.89913 0.50721 0.47946 0.0
H3409 H 0.91438 0.53894 0.54324 0.0
H3410 H 0.91316 0.55166 0.48128 0.0
H3411 H 0.89547 0.52535 0.58585 0.0
H3412 H 0.93383 0.51672 0.51579 0.0
H3413 H 0.94657 0.51112 0.45659 0.0
H3414 H 0.92781 0.47558 0.44876 0.0
H3415 H 0.91483 0.48102 0.50765 0.0
C3416 C 0.91232 0.48797 0.72669 0.0
C3417 C 0.90952 0.47507 0.72619 0.0
C3418 C 0.91231 0.495 0.69156 0.0
C3419 C 0.90902 0.4895 0.65488 0.0
C3420 C 0.90663 0.4765 0.65363 0.0
C3421 C 0.90693 0.46931 0.68911 0.0
C3422 C 0.90792 0.49758 0.61857 0.0
C3423 C 0.91502 0.49464 0.58433 0.0
C3424 C 0.90075 0.5088 0.61903 0.0
C3425 C 0.89244 0.51212 0.65328 0.0
C3426 C 0.88334 0.5036 0.66714 0.0
C3427 C 0.87573 0.50668 0.69991 0.0
C3428 C 0.87706 0.51829 0.7189 0.0
C3429 C 0.88599 0.52687 0.70508 0.0
C3430 C 0.89364 0.52383 0.67234 0.0
C3431 C 0.90149 0.52405 0.44544 0.0
C3432 C 0.90554 0.53662 0.44498 0.0
C3433 C 0.90223 0.51689 0.48026 0.0
C3434 C 0.90707 0.52206 0.51562 0.0
C3435 C 0.9107 0.53476 0.51602 0.0
C3436 C 0.90998 0.54202 0.48078 0.0
C3437 C 0.90828 0.51399 0.55173 0.0
C3438 C 0.90116 0.51692 0.58583 0.0
C3439 C 0.91534 0.50272 0.55097 0.0
C3440 C 0.92329 0.49932 0.51598 0.0
C3441 C 0.93237 0.50774 0.5013 0.0
C3442 C 0.93964 0.50459 0.46781 0.0
C3443 C 0.93798 0.49302 0.44885 0.0
C3444 C 0.92908 0.48454 0.46346 0.0
C3445 C 0.92177 0.48765 0.49694 0.0
H3446 H 0.94361 0.4906 0.42289 0.0
H3447 H 0.87117 0.52066 0.74429 0.0
H3448 H 0.23429 0.33528 0.18551 0.0
H3449 H 0.24665 0.33492 0.2468 0.0
H3450 H 0.22144 0.36171 0.30078 0.0
H3451 H 0.20878 0.36192 0.23869 0.0
H3452 H 0.24705 0.3688 0.3023 0.0
H3453 H 0.22219 0.33321 0.33805 0.0
H3454 H 0.21208 0.31267 0.32777 0.0
H3455 H 0.24813 0.29548 0.31126 0.0
H3456 H 0.25846 0.31597 0.32086 0.0
H3457 H 0.27209 0.36674 0.4981 0.0
H3458 H 0.25967 0.36629 0.43678 0.0
H3459 H 0.28438 0.33822 0.38715 0.0
H3460 H 0.29701 0.3387 0.4493 0.0
H3461 H 0.25921 0.33157 0.38284 0.0
H3462 H 0.28419 0.36671 0.34651 0.0
H3463 H 0.29466 0.38714 0.3552 0.0
H3464 H 0.25893 0.40506 0.37076 0.0
H3465 H 0.24824 0.38469 0.36275 0.0
C3466 C 0.23116 0.34084 0.21067 0.0
C3467 C 0.22055 0.34857 0.20744 0.0
C3468 C 0.23825 0.34062 0.2458 0.0
C3469 C 0.23497 0.34827 0.27837 0.0
C3470 C 0.22409 0.3557 0.27593 0.0
C3471 C 0.21682 0.35574 0.24073 0.0
C3472 C 0.24364 0.3492 0.31311 0.0
C3473 C 0.24953 0.36073 0.32049 0.0
C3474 C 0.24727 0.33851 0.33553 0.0
C3475 C 0.24109 0.32616 0.32983 0.0
C3476 C 0.22796 0.32508 0.33188 0.0
C3477 C 0.22219 0.31344 0.32624 0.0
C3478 C 0.22946 0.30278 0.31877 0.0
C3479 C 0.24251 0.30375 0.31702 0.0
C3480 C 0.24833 0.31537 0.3226 0.0
C3481 C 0.27507 0.36068 0.47375 0.0
C3482 C 0.28554 0.35281 0.47822 0.0
C3483 C 0.26796 0.36044 0.43869 0.0
C3484 C 0.27111 0.35226 0.4073 0.0
C3485 C 0.28183 0.34463 0.41104 0.0
C3486 C 0.28909 0.34499 0.44624 0.0
C3487 C 0.26257 0.35121 0.37222 0.0
C3488 C 0.25673 0.33965 0.3647 0.0
C3489 C 0.25904 0.36186 0.34945 0.0
C3490 C 0.26542 0.37414 0.35438 0.0
C3491 C 0.27857 0.37498 0.35215 0.0
C3492 C 0.28454 0.38656 0.35688 0.0
C3493 C 0.27747 0.39739 0.36363 0.0
C3494 C 0.2644 0.39666 0.36557 0.0
C3495 C 0.25837 0.3851 0.36089 0.0
H3496 H 0.28211 0.40634 0.36726 0.0
H3497 H 0.22497 0.29378 0.31442 0.0
H3498 H 0.40254 0.46026 0.98189 0.0
H3499 H 0.40266 0.47312 0.04355 0.0
H3500 H 0.41323 0.50555 0.97404 0.0
H3501 H 0.41266 0.49311 0.91302 0.0
H3502 H 0.42721 0.50197 0.04946 0.0
H3503 H 0.38499 0.50412 0.99452 0.0
H3504 H 0.3652 0.49485 0.97027 0.0
H3505 H 0.35967 0.477 0.08462 0.0
H3506 H 0.37954 0.48603 0.10935 0.0
H3507 H 0.41435 0.55146 0.18959 0.0
H3508 H 0.41493 0.53903 0.12709 0.0
H3509 H 0.39579 0.50873 0.1874 0.0
H3510 H 0.39495 0.52101 0.2486 0.0
H3511 H 0.38655 0.51115 0.11583 0.0
H3512 H 0.42765 0.5087 0.17326 0.0
H3513 H 0.4474 0.51726 0.20031 0.0
H3514 H 0.45557 0.53413 0.08606 0.0
H3515 H 0.43573 0.52586 0.05851 0.0
C3516 C 0.40495 0.47011 0.97992 0.0
C3517 C 0.4076 0.47562 0.94249 0.0
C3518 C 0.40504 0.47743 0.01506 0.0
C3519 C 0.40803 0.49027 0.01326 0.0
C3520 C 0.41101 0.49565 0.97614 0.0
C3521 C 0.41064 0.48847 0.94117 0.0
C3522 C 0.40733 0.49843 0.04932 0.0
C3523 C 0.41833 0.50406 0.06392 0.0
C3524 C 0.39577 0.501 0.06836 0.0
C3525 C 0.38381 0.49562 0.05359 0.0
C3526 C 0.37961 0.49812 0.01435 0.0
C3527 C 0.36837 0.49293 0.00055 0.0
C3528 C 0.3612 0.48531 0.02584 0.0
C3529 C 0.36525 0.48288 0.06504 0.0
C3530 C 0.37649 0.48804 0.07896 0.0
C3531 C 0.41013 0.54223 0.18914 0.0
C3532 C 0.40468 0.5372 0.22403 0.0
C3533 C 0.41054 0.53509 0.15361 0.0
C3534 C 0.40552 0.52286 0.15267 0.0
C3535 C 0.39972 0.5181 0.18722 0.0
C3536 C 0.39931 0.52516 0.22235 0.0
C3537 C 0.40646 0.51471 0.11646 0.0
C3538 C 0.39548 0.50908 0.10163 0.0
C3539 C 0.41809 0.51198 0.09773 0.0
C3540 C 0.43013 0.51678 0.11395 0.0
C3541 C 0.43361 0.51431 0.15397 0.0
C3542 C 0.44483 0.5191 0.1694 0.0
C3543 C 0.45272 0.52627 0.14496 0.0
C3544 C 0.44943 0.52861 0.10498 0.0
C3545 C 0.4382 0.52387 0.08944 0.0
H3546 H 0.46139 0.52999 0.15696 0.0
H3547 H 0.3525 0.4813 0.01511 0.0
H3548 H 0.20681 0.64953 0.93528 0.0
H3549 H 0.21894 0.6499 0.87196 0.0
H3550 H 0.24853 0.67023 0.93156 0.0
H3551 H 0.23685 0.66968 0.99347 0.0
H3552 H 0.24444 0.67914 0.85525 0.0
H3553 H 0.25055 0.63947 0.9246 0.0
H3554 H 0.24333 0.61956 0.95451 0.0
H3555 H 0.22804 0.60825 0.84076 0.0
H3556 H 0.23503 0.62818 0.81033 0.0
H3557 H 0.2976 0.66914 0.72998 0.0
H3558 H 0.28432 0.66889 0.79072 0.0
H3559 H 0.25779 0.6449 0.72999 0.0
H3560 H 0.27098 0.64494 0.67047 0.0
H3561 H 0.25943 0.63797 0.80497 0.0
H3562 H 0.25333 0.67697 0.73449 0.0
H3563 H 0.26014 0.69678 0.70322 0.0
H3564 H 0.27485 0.70936 0.81642 0.0
H3565 H 0.26813 0.68956 0.84836 0.0
C3566 C 0.21577 0.65429 0.93442 0.0
C3567 C 0.22086 0.65953 0.96958 0.0
C3568 C 0.22272 0.65445 0.89842 0.0
C3569 C 0.23469 0.66005 0.89719 0.0
C3570 C 0.23934 0.6659 0.93168 0.0
C3571 C 0.23259 0.66552 0.96738 0.0
C3572 C 0.24305 0.65907 0.86161 0.0
C3573 C 0.24773 0.67014 0.84426 0.0
C3574 C 0.24731 0.64735 0.84713 0.0
C3575 C 0.24317 0.63536 0.86534 0.0
C3576 C 0.24556 0.63277 0.90607 0.0
C3577 C 0.24153 0.62148 0.92309 0.0
C3578 C 0.2352 0.61266 0.89958 0.0
C3579 C 0.23292 0.6151 0.85896 0.0
C3580 C 0.23691 0.62639 0.8418 0.0
C3581 C 0.28911 0.66357 0.73021 0.0
C3582 C 0.28527 0.65712 0.69558 0.0
C3583 C 0.28145 0.66353 0.76464 0.0
C3584 C 0.26992 0.65704 0.76465 0.0
C3585 C 0.26658 0.65 0.73081 0.0
C3586 C 0.27414 0.65007 0.69672 0.0
C3587 C 0.26086 0.65804 0.79853 0.0
C3588 C 0.25608 0.64698 0.81566 0.0
C3589 C 0.25644 0.66977 0.81259 0.0
C3590 C 0.26034 0.68175 0.79369 0.0
C3591 C 0.25807 0.68394 0.75266 0.0
C3592 C 0.26191 0.69517 0.73483 0.0
C3593 C 0.26799 0.70431 0.75777 0.0
C3594 C 0.27016 0.70226 0.79867 0.0
C3595 C 0.26631 0.69105 0.81668 0.0
H3596 H 0.27098 0.713 0.74389 0.0
H3597 H 0.23208 0.60393 0.91281 0.0
H3598 H 0.08921 0.55001 0.47969 0.0
H3599 H 0.08804 0.53759 0.54235 0.0
H3600 H 0.11077 0.50875 0.4879 0.0
H3601 H 0.11212 0.52097 0.42655 0.0
H3602 H 0.08829 0.49964 0.52075 0.0
H3603 H 0.12353 0.52643 0.55531 0.0
H3604 H 0.13386 0.5468 0.56701 0.0
H3605 H 0.10676 0.55567 0.65825 0.0
H3606 H 0.09617 0.5354 0.6467 0.0
H3607 H 0.10564 0.45935 0.68628 0.0
H3608 H 0.1045 0.47235 0.62507 0.0
H3609 H 0.08719 0.50207 0.69349 0.0
H3610 H 0.08868 0.48956 0.75349 0.0
H3611 H 0.10572 0.51128 0.65369 0.0
H3612 H 0.07077 0.48478 0.6233 0.0
H3613 H 0.05964 0.4648 0.61249 0.0
H3614 H 0.08447 0.45586 0.51495 0.0
H3615 H 0.09588 0.47572 0.52553 0.0
C3616 C 0.09417 0.54117 0.48167 0.0
C3617 C 0.10067 0.53641 0.44828 0.0
C3618 C 0.09342 0.53405 0.51718 0.0
C3619 C 0.09916 0.52216 0.51934 0.0
C3620 C 0.10612 0.51778 0.48663 0.0
C3621 C 0.10692 0.52484 0.45166 0.0
C3622 C 0.09782 0.51393 0.55491 0.0
C3623 C 0.09213 0.50213 0.54987 0.0
C3624 C 0.10262 0.51731 0.59288 0.0
C3625 C 0.10897 0.52948 0.59979 0.0
C3626 C 0.1197 0.53278 0.57759 0.0
C3627 C 0.12562 0.54429 0.58426 0.0
C3628 C 0.12094 0.55254 0.61326 0.0
C3629 C 0.11036 0.54928 0.63574 0.0
C3630 C 0.1044 0.53778 0.62916 0.0
C3631 C 0.10141 0.46857 0.68787 0.0
C3632 C 0.09738 0.47345 0.72489 0.0
C3633 C 0.10076 0.476 0.653 0.0
C3634 C 0.09585 0.48827 0.6548 0.0
C3635 C 0.0912 0.49275 0.69136 0.0
C3636 C 0.09204 0.48549 0.72588 0.0
C3637 C 0.09618 0.49689 0.61974 0.0
C3638 C 0.10173 0.50876 0.62479 0.0
C3639 C 0.09109 0.49363 0.58194 0.0
C3640 C 0.08426 0.48168 0.57549 0.0
C3641 C 0.07393 0.47851 0.59976 0.0
C3642 C 0.06755 0.46721 0.59363 0.0
C3643 C 0.07136 0.45905 0.56312 0.0
C3644 C 0.08154 0.46218 0.53861 0.0
C3645 C 0.08796 0.47346 0.54464 0.0
H3646 H 0.06641 0.45031 0.55841 0.0
H3647 H 0.12554 0.56145 0.61839 0.0
loop_
_geom_bond_atom_site_label_1
_geom_bond_atom_site_label_2
_geom_bond_distance
_geom_bond_site_symmetry_2
_ccdc_geom_bond_type
Co0 O1 2.216 . S
Co0 O2 2.091 . S
Co0 O4 2.004 . S
Co0 O10 2.021 . S
Co0 O12 2.137 . S
Co0 O13 2.244 . S
O1 Co0 2.216 . S
O1 C8 1.247 . S
O2 Co0 2.091 . S
O2 C8 1.261 . S
C3 O12 1.247 . S
C3 O13 1.272 . S
O4 Co0 2.004 . S
O4 C9 1.259 . S
Co5 O6 2.061 . S
Co5 O11 2.052 . S
Co5 O13 2.135 . S
O6 Co5 2.061 . S
O6 C9 1.235 . S
C7 O10 1.238 . S
C7 O11 1.241 . S
C8 O1 1.247 . S
C8 O2 1.261 . S
C9 O4 1.259 . S
C9 O6 1.235 . S
O10 Co0 2.021 . S
O10 C7 1.238 . S
O11 Co5 2.052 . S
O11 C7 1.241 . S
O12 Co0 2.137 . S
O12 C3 1.247 . S
O13 Co0 2.244 . S
O13 C3 1.272 . S
O13 Co5 2.135 . S
Co14 O15 2.216 . S
Co14 O16 2.091 . S
Co14 O18 2.004 . S
Co14 O24 2.021 . S
Co14 O26 2.137 . S
Co14 O27 2.244 . S
O15 Co14 2.216 . S
O15 C22 1.247 . S
O16 Co14 2.091 . S
O16 C22 1.261 . S
C17 O26 1.247 . S
C17 O27 1.272 . S
O18 Co14 2.004 . S
O18 C23 1.259 . S
Co19 O20 2.061 . S
Co19 O25 2.052 . S
Co19 O27 2.135 . S
O20 Co19 2.061 . S
O20 C23 1.235 . S
C21 O24 1.238 . S
C21 O25 1.241 . S
C22 O15 1.247 . S
C22 O16 1.261 . S
C23 O18 1.259 . S
C23 O20 1.235 . S
O24 Co14 2.021 . S
O24 C21 1.238 . S
O25 Co19 2.052 . S
O25 C21 1.241 . S
O26 Co14 2.137 . S
O26 C17 1.247 . S
O27 Co14 2.244 . S
O27 C17 1.272 . S
O27 Co19 2.135 . S
Co28 O29 2.216 . S
Co28 O30 2.091 . S
Co28 O32 2.004 . S
Co28 O38 2.021 . S
Co28 O40 2.137 . S
Co28 O41 2.244 . S
O29 Co28 2.216 . S
O29 C36 1.247 . S
O30 Co28 2.091 . S
O30 C36 1.261 . S
C31 O40 1.247 . S
C31 O41 1.272 . S
O32 Co28 2.004 . S
O32 C37 1.259 . S
Co33 O34 2.061 . S
Co33 O39 2.052 . S
Co33 O41 2.135 . S
O34 Co33 2.061 . S
O34 C37 1.235 . S
C35 O38 1.238 . S
C35 O39 1.241 . S
C36 O29 1.247 . S
C36 O30 1.261 . S
C37 O32 1.259 . S
C37 O34 1.235 . S
O38 Co28 2.021 . S
O38 C35 1.238 . S
O39 Co33 2.052 . S
O39 C35 1.241 . S
O40 Co28 2.137 . S
O40 C31 1.247 . S
O41 Co28 2.244 . S
O41 C31 1.272 . S
O41 Co33 2.135 . S
Co42 O43 2.216 . S
Co42 O44 2.091 . S
Co42 O46 2.004 . S
Co42 O52 2.021 . S
Co42 O54 2.137 . S
Co42 O55 2.244 . S
O43 Co42 2.216 . S
O43 C50 1.247 . S
O44 Co42 2.091 . S
O44 C50 1.261 . S
C45 O54 1.247 . S
C45 O55 1.272 . S
O46 Co42 2.004 . S
O46 C51 1.259 . S
Co47 O48 2.061 . S
Co47 O53 2.052 . S
Co47 O55 2.135 . S
O48 Co47 2.061 . S
O48 C51 1.235 . S
C49 O52 1.238 . S
C49 O53 1.241 . S
C50 O43 1.247 . S
C50 O44 1.261 . S
C51 O46 1.259 . S
C51 O48 1.235 . S
O52 Co42 2.021 . S
O52 C49 1.238 . S
O53 Co47 2.052 . S
O53 C49 1.241 . S
O54 Co42 2.137 . S
O54 C45 1.247 . S
O55 Co42 2.244 . S
O55 C45 1.272 . S
O55 Co47 2.135 . S
Co56 O57 2.216 . S
Co56 O58 2.091 . S
Co56 O60 2.004 . S
Co56 O66 2.021 . S
Co56 O68 2.137 . S
Co56 O69 2.244 . S
O57 Co56 2.216 . S
O57 C64 1.247 . S
O58 Co56 2.091 . S
O58 C64 1.261 . S
C59 O68 1.247 . S
C59 O69 1.272 . S
O60 Co56 2.004 . S
O60 C65 1.259 . S
Co61 O62 2.061 . S
Co61 O67 2.052 . S
Co61 O69 2.135 . S
O62 Co61 2.061 . S
O62 C65 1.235 . S
C63 O66 1.238 . S
C63 O67 1.241 . S
C64 O57 1.247 . S
C64 O58 1.261 . S
C65 O60 1.259 . S
C65 O62 1.235 . S
O66 Co56 2.021 . S
O66 C63 1.238 . S
O67 Co61 2.052 . S
O67 C63 1.241 . S
O68 Co56 2.137 . S
O68 C59 1.247 . S
O69 Co56 2.244 . S
O69 C59 1.272 . S
O69 Co61 2.135 . S
Co70 O71 2.216 . S
Co70 O72 2.091 . S
Co70 O74 2.004 . S
Co70 O80 2.021 . S
Co70 O82 2.137 . S
Co70 O83 2.244 . S
O71 Co70 2.216 . S
O71 C78 1.247 . S
O72 Co70 2.091 . S
O72 C78 1.261 . S
C73 O82 1.247 . S
C73 O83 1.272 . S
O74 Co70 2.004 . S
O74 C79 1.259 . S
Co75 O76 2.061 . S
Co75 O81 2.052 . S
Co75 O83 2.135 . S
O76 Co75 2.061 . S
O76 C79 1.235 . S
C77 O80 1.238 . S
C77 O81 1.241 . S
C78 O71 1.247 . S
C78 O72 1.261 . S
C79 O74 1.259 . S
C79 O76 1.235 . S
O80 Co70 2.021 . S
O80 C77 1.238 . S
O81 Co75 2.052 . S
O81 C77 1.241 . S
O82 Co70 2.137 . S
O82 C73 1.247 . S
O83 Co70 2.244 . S
O83 C73 1.272 . S
O83 Co75 2.135 . S
Co84 O85 2.216 . S
Co84 O86 2.091 . S
Co84 O88 2.004 . S
Co84 O94 2.021 . S
Co84 O96 2.137 . S
Co84 O97 2.244 . S
O85 Co84 2.216 . S
O85 C92 1.247 . S
O86 Co84 2.091 . S
O86 C92 1.261 . S
C87 O96 1.247 . S
C87 O97 1.272 . S
O88 Co84 2.004 . S
O88 C93 1.259 . S
Co89 O90 2.061 . S
Co89 O95 2.052 . S
Co89 O97 2.135 . S
O90 Co89 2.061 . S
O90 C93 1.235 . S
C91 O94 1.238 . S
C91 O95 1.241 . S
C92 O85 1.247 . S
C92 O86 1.261 . S
C93 O88 1.259 . S
C93 O90 1.235 . S
O94 Co84 2.021 . S
O94 C91 1.238 . S
O95 Co89 2.052 . S
O95 C91 1.241 . S
O96 Co84 2.137 . S
O96 C87 1.247 . S
O97 Co84 2.244 . S
O97 C87 1.272 . S
O97 Co89 2.135 . S
Co98 O99 2.216 . S
Co98 O100 2.091 . S
Co98 O102 2.004 . S
Co98 O108 2.021 . S
Co98 O110 2.137 . S
Co98 O111 2.244 . S
O99 Co98 2.216 . S
O99 C106 1.247 . S
O100 Co98 2.091 . S
O100 C106 1.261 . S
C101 O110 1.247 . S
C101 O111 1.272 . S
O102 Co98 2.004 . S
O102 C107 1.259 . S
Co103 O104 2.061 . S
Co103 O109 2.052 . S
Co103 O111 2.135 . S
O104 Co103 2.061 . S
O104 C107 1.235 . S
C105 O108 1.238 . S
C105 O109 1.241 . S
C106 O99 1.247 . S
C106 O100 1.261 . S
C107 O102 1.259 . S
C107 O104 1.235 . S
O108 Co98 2.021 . S
O108 C105 1.238 . S
O109 Co103 2.052 . S
O109 C105 1.241 . S
O110 Co98 2.137 . S
O110 C101 1.247 . S
O111 Co98 2.244 . S
O111 C101 1.272 . S
O111 Co103 2.135 . S
Co112 O113 2.216 . S
Co112 O114 2.091 . S
Co112 O116 2.004 . S
Co112 O122 2.021 . S
Co112 O124 2.137 . S
Co112 O125 2.244 . S
O113 Co112 2.216 . S
O113 C120 1.247 . S
O114 Co112 2.091 . S
O114 C120 1.261 . S
C115 O124 1.247 . S
C115 O125 1.272 . S
O116 Co112 2.004 . S
O116 C121 1.259 . S
Co117 O118 2.061 . S
Co117 O123 2.052 . S
Co117 O125 2.135 . S
O118 Co117 2.061 . S
O118 C121 1.235 . S
C119 O122 1.238 . S
C119 O123 1.241 . S
C120 O113 1.247 . S
C120 O114 1.261 . S
C121 O116 1.259 . S
C121 O118 1.235 . S
O122 Co112 2.021 . S
O122 C119 1.238 . S
O123 Co117 2.052 . S
O123 C119 1.241 . S
O124 Co112 2.137 . S
O124 C115 1.247 . S
O125 Co112 2.244 . S
O125 C115 1.272 . S
O125 Co117 2.135 . S
Co126 O127 2.216 . S
Co126 O128 2.091 . S
Co126 O130 2.004 . S
Co126 O136 2.021 . S
Co126 O138 2.137 . S
Co126 O139 2.244 . S
O127 Co126 2.216 . S
O127 C134 1.247 . S
O128 Co126 2.091 . S
O128 C134 1.261 . S
C129 O138 1.247 . S
C129 O139 1.272 . S
O130 Co126 2.004 . S
O130 C135 1.259 . S
Co131 O132 2.061 . S
Co131 O137 2.052 . S
Co131 O139 2.135 . S
O132 Co131 2.061 . S
O132 C135 1.235 . S
C133 O136 1.238 . S
C133 O137 1.241 . S
C134 O127 1.247 . S
C134 O128 1.261 . S
C135 O130 1.259 . S
C135 O132 1.235 . S
O136 Co126 2.021 . S
O136 C133 1.238 . S
O137 Co131 2.052 . S
O137 C133 1.241 . S
O138 Co126 2.137 . S
O138 C129 1.247 . S
O139 Co126 2.244 . S
O139 C129 1.272 . S
O139 Co131 2.135 . S
Co140 O141 2.216 . S
Co140 O142 2.091 . S
Co140 O144 2.004 . S
Co140 O150 2.021 . S
Co140 O152 2.137 . S
Co140 O153 2.244 . S
O141 Co140 2.216 . S
O141 C148 1.247 . S
O142 Co140 2.091 . S
O142 C148 1.261 . S
C143 O152 1.247 . S
C143 O153 1.272 . S
O144 Co140 2.004 . S
O144 C149 1.259 . S
Co145 O146 2.061 . S
Co145 O151 2.052 . S
Co145 O153 2.135 . S
O146 Co145 2.061 . S
O146 C149 1.235 . S
C147 O150 1.238 . S
C147 O151 1.241 . S
C148 O141 1.247 . S
C148 O142 1.261 . S
C149 O144 1.259 . S
C149 O146 1.235 . S
O150 Co140 2.021 . S
O150 C147 1.238 . S
O151 Co145 2.052 . S
O151 C147 1.241 . S
O152 Co140 2.137 . S
O152 C143 1.247 . S
O153 Co140 2.244 . S
O153 C143 1.272 . S
O153 Co145 2.135 . S
Co154 O155 2.216 . S
Co154 O156 2.091 . S
Co154 O158 2.004 . S
Co154 O164 2.021 . S
Co154 O166 2.137 . S
Co154 O167 2.244 . S
O155 Co154 2.216 . S
O155 C162 1.247 . S
O156 Co154 2.091 . S
O156 C162 1.261 . S
C157 O166 1.247 . S
C157 O167 1.272 . S
O158 Co154 2.004 . S
O158 C163 1.259 . S
Co159 O160 2.061 . S
Co159 O165 2.052 . S
Co159 O167 2.135 . S
O160 Co159 2.061 . S
O160 C163 1.235 . S
C161 O164 1.238 . S
C161 O165 1.241 . S
C162 O155 1.247 . S
C162 O156 1.261 . S
C163 O158 1.259 . S
C163 O160 1.235 . S
O164 Co154 2.021 . S
O164 C161 1.238 . S
O165 Co159 2.052 . S
O165 C161 1.241 . S
O166 Co154 2.137 . S
O166 C157 1.247 . S
O167 Co154 2.244 . S
O167 C157 1.272 . S
O167 Co159 2.135 . S
Co168 O169 2.216 . S
Co168 O170 2.091 . S
Co168 O172 2.004 . S
Co168 O178 2.021 . S
Co168 O180 2.137 . S
Co168 O181 2.244 . S
O169 Co168 2.216 . S
O169 C176 1.247 . S
O170 Co168 2.091 . S
O170 C176 1.261 . S
C171 O180 1.247 . S
C171 O181 1.272 . S
O172 Co168 2.004 . S
O172 C177 1.259 . S
Co173 O174 2.061 . S
Co173 O179 2.052 . S
Co173 O181 2.135 . S
O174 Co173 2.061 . S
O174 C177 1.235 . S
C175 O178 1.238 . S
C175 O179 1.241 . S
C176 O169 1.247 . S
C176 O170 1.261 . S
C177 O172 1.259 . S
C177 O174 1.235 . S
O178 Co168 2.021 . S
O178 C175 1.238 . S
O179 Co173 2.052 . S
O179 C175 1.241 . S
O180 Co168 2.137 . S
O180 C171 1.247 . S
O181 Co168 2.244 . S
O181 C171 1.272 . S
O181 Co173 2.135 . S
Co182 O183 2.216 . S
Co182 O184 2.091 . S
Co182 O186 2.004 . S
Co182 O192 2.021 . S
Co182 O194 2.137 . S
Co182 O195 2.244 . S
O183 Co182 2.216 . S
O183 C190 1.247 . S
O184 Co182 2.091 . S
O184 C190 1.261 . S
C185 O194 1.247 . S
C185 O195 1.272 . S
O186 Co182 2.004 . S
O186 C191 1.259 . S
Co187 O188 2.061 . S
Co187 O193 2.052 . S
Co187 O195 2.135 . S
O188 Co187 2.061 . S
O188 C191 1.235 . S
C189 O192 1.238 . S
C189 O193 1.241 . S
C190 O183 1.247 . S
C190 O184 1.261 . S
C191 O186 1.259 . S
C191 O188 1.235 . S
O192 Co182 2.021 . S
O192 C189 1.238 . S
O193 Co187 2.052 . S
O193 C189 1.241 . S
O194 Co182 2.137 . S
O194 C185 1.247 . S
O195 Co182 2.244 . S
O195 C185 1.272 . S
O195 Co187 2.135 . S
Co196 O197 2.216 . S
Co196 O198 2.091 . S
Co196 O200 2.004 . S
Co196 O206 2.021 . S
Co196 O208 2.137 . S
Co196 O209 2.244 . S
O197 Co196 2.216 . S
O197 C204 1.247 . S
O198 Co196 2.091 . S
O198 C204 1.261 . S
C199 O208 1.247 . S
C199 O209 1.272 . S
O200 Co196 2.004 . S
O200 C205 1.259 . S
Co201 O202 2.061 . S
Co201 O207 2.052 . S
Co201 O209 2.135 . S
O202 Co201 2.061 . S
O202 C205 1.235 . S
C203 O206 1.238 . S
C203 O207 1.241 . S
C204 O197 1.247 . S
C204 O198 1.261 . S
C205 O200 1.259 . S
C205 O202 1.235 . S
O206 Co196 2.021 . S
O206 C203 1.238 . S
O207 Co201 2.052 . S
O207 C203 1.241 . S
O208 Co196 2.137 . S
O208 C199 1.247 . S
O209 Co196 2.244 . S
O209 C199 1.272 . S
O209 Co201 2.135 . S
Co210 O211 2.216 . S
Co210 O212 2.091 . S
Co210 O214 2.004 . S
Co210 O220 2.021 . S
Co210 O222 2.137 . S
Co210 O223 2.244 . S
O211 Co210 2.216 . S
O211 C218 1.247 . S
O212 Co210 2.091 . S
O212 C218 1.261 . S
C213 O222 1.247 . S
C213 O223 1.272 . S
O214 Co210 2.004 . S
O214 C219 1.259 . S
Co215 O216 2.061 . S
Co215 O221 2.052 . S
Co215 O223 2.135 . S
O216 Co215 2.061 . S
O216 C219 1.235 . S
C217 O220 1.238 . S
C217 O221 1.241 . S
C218 O211 1.247 . S
C218 O212 1.261 . S
C219 O214 1.259 . S
C219 O216 1.235 . S
O220 Co210 2.021 . S
O220 C217 1.238 . S
O221 Co215 2.052 . S
O221 C217 1.241 . S
O222 Co210 2.137 . S
O222 C213 1.247 . S
O223 Co210 2.244 . S
O223 C213 1.272 . S
O223 Co215 2.135 . S
Co224 O225 2.216 . S
Co224 O226 2.091 . S
Co224 O228 2.004 . S
Co224 O234 2.021 . S
Co224 O236 2.137 . S
Co224 O237 2.244 . S
O225 Co224 2.216 . S
O225 C232 1.247 . S
O226 Co224 2.091 . S
O226 C232 1.261 . S
C227 O236 1.247 . S
C227 O237 1.272 . S
O228 Co224 2.004 . S
O228 C233 1.259 . S
Co229 O230 2.061 . S
Co229 O235 2.052 . S
Co229 O237 2.135 . S
O230 Co229 2.061 . S
O230 C233 1.235 . S
C231 O234 1.238 . S
C231 O235 1.241 . S
C232 O225 1.247 . S
C232 O226 1.261 . S
C233 O228 1.259 . S
C233 O230 1.235 . S
O234 Co224 2.021 . S
O234 C231 1.238 . S
O235 Co229 2.052 . S
O235 C231 1.241 . S
O236 Co224 2.137 . S
O236 C227 1.247 . S
O237 Co224 2.244 . S
O237 C227 1.272 . S
O237 Co229 2.135 . S
Co238 O239 2.216 . S
Co238 O240 2.091 . S
Co238 O242 2.004 . S
Co238 O248 2.021 . S
Co238 O250 2.137 . S
Co238 O251 2.244 . S
O239 Co238 2.216 . S
O239 C246 1.247 . S
O240 Co238 2.091 . S
O240 C246 1.261 . S
C241 O250 1.247 . S
C241 O251 1.272 . S
O242 Co238 2.004 . S
O242 C247 1.259 . S
Co243 O244 2.061 . S
Co243 O249 2.052 . S
Co243 O251 2.135 . S
O244 Co243 2.061 . S
O244 C247 1.235 . S
C245 O248 1.238 . S
C245 O249 1.241 . S
C246 O239 1.247 . S
C246 O240 1.261 . S
C247 O242 1.259 . S
C247 O244 1.235 . S
O248 Co238 2.021 . S
O248 C245 1.238 . S
O249 Co243 2.052 . S
O249 C245 1.241 . S
O250 Co238 2.137 . S
O250 C241 1.247 . S
O251 Co238 2.244 . S
O251 C241 1.272 . S
O251 Co243 2.135 . S
Co252 O253 2.216 . S
Co252 O254 2.091 . S
Co252 O256 2.004 . S
Co252 O262 2.021 . S
Co252 O264 2.137 . S
Co252 O265 2.244 . S
O253 Co252 2.216 . S
O253 C260 1.247 . S
O254 Co252 2.091 . S
O254 C260 1.261 . S
C255 O264 1.247 . S
C255 O265 1.272 . S
O256 Co252 2.004 . S
O256 C261 1.259 . S
Co257 O258 2.061 . S
Co257 O263 2.052 . S
Co257 O265 2.135 . S
O258 Co257 2.061 . S
O258 C261 1.235 . S
C259 O262 1.238 . S
C259 O263 1.241 . S
C260 O253 1.247 . S
C260 O254 1.261 . S
C261 O256 1.259 . S
C261 O258 1.235 . S
O262 Co252 2.021 . S
O262 C259 1.238 . S
O263 Co257 2.052 . S
O263 C259 1.241 . S
O264 Co252 2.137 . S
O264 C255 1.247 . S
O265 Co252 2.244 . S
O265 C255 1.272 . S
O265 Co257 2.135 . S
Co266 O267 2.216 . S
Co266 O268 2.091 . S
Co266 O270 2.004 . S
Co266 O276 2.021 . S
Co266 O278 2.137 . S
Co266 O279 2.244 . S
O267 Co266 2.216 . S
O267 C274 1.247 . S
O268 Co266 2.091 . S
O268 C274 1.261 . S
C269 O278 1.247 . S
C269 O279 1.272 . S
O270 Co266 2.004 . S
O270 C275 1.259 . S
Co271 O272 2.061 . S
Co271 O277 2.052 . S
Co271 O279 2.135 . S
O272 Co271 2.061 . S
O272 C275 1.235 . S
C273 O276 1.238 . S
C273 O277 1.241 . S
C274 O267 1.247 . S
C274 O268 1.261 . S
C275 O270 1.259 . S
C275 O272 1.235 . S
O276 Co266 2.021 . S
O276 C273 1.238 . S
O277 Co271 2.052 . S
O277 C273 1.241 . S
O278 Co266 2.137 . S
O278 C269 1.247 . S
O279 Co266 2.244 . S
O279 C269 1.272 . S
O279 Co271 2.135 . S
Co280 O281 2.216 . S
Co280 O282 2.091 . S
Co280 O284 2.004 . S
Co280 O290 2.021 . S
Co280 O292 2.137 . S
Co280 O293 2.244 . S
O281 Co280 2.216 . S
O281 C288 1.247 . S
O282 Co280 2.091 . S
O282 C288 1.261 . S
C283 O292 1.247 . S
C283 O293 1.272 . S
O284 Co280 2.004 . S
O284 C289 1.259 . S
Co285 O286 2.061 . S
Co285 O291 2.052 . S
Co285 O293 2.135 . S
O286 Co285 2.061 . S
O286 C289 1.235 . S
C287 O290 1.238 . S
C287 O291 1.241 . S
C288 O281 1.247 . S
C288 O282 1.261 . S
C289 O284 1.259 . S
C289 O286 1.235 . S
O290 Co280 2.021 . S
O290 C287 1.238 . S
O291 Co285 2.052 . S
O291 C287 1.241 . S
O292 Co280 2.137 . S
O292 C283 1.247 . S
O293 Co280 2.244 . S
O293 C283 1.272 . S
O293 Co285 2.135 . S
Co294 O295 2.216 . S
Co294 O296 2.091 . S
Co294 O298 2.004 . S
Co294 O304 2.021 . S
Co294 O306 2.137 . S
Co294 O307 2.244 . S
O295 Co294 2.216 . S
O295 C302 1.247 . S
O296 Co294 2.091 . S
O296 C302 1.261 . S
C297 O306 1.247 . S
C297 O307 1.272 . S
O298 Co294 2.004 . S
O298 C303 1.259 . S
Co299 O300 2.061 . S
Co299 O305 2.052 . S
Co299 O307 2.135 . S
O300 Co299 2.061 . S
O300 C303 1.235 . S
C301 O304 1.238 . S
C301 O305 1.241 . S
C302 O295 1.247 . S
C302 O296 1.261 . S
C303 O298 1.259 . S
C303 O300 1.235 . S
O304 Co294 2.021 . S
O304 C301 1.238 . S
O305 Co299 2.052 . S
O305 C301 1.241 . S
O306 Co294 2.137 . S
O306 C297 1.247 . S
O307 Co294 2.244 . S
O307 C297 1.272 . S
O307 Co299 2.135 . S
Co308 O309 2.216 . S
Co308 O310 2.091 . S
Co308 O312 2.004 . S
Co308 O318 2.021 . S
Co308 O320 2.137 . S
Co308 O321 2.244 . S
O309 Co308 2.216 . S
O309 C316 1.247 . S
O310 Co308 2.091 . S
O310 C316 1.261 . S
C311 O320 1.247 . S
C311 O321 1.272 . S
O312 Co308 2.004 . S
O312 C317 1.259 . S
Co313 O314 2.061 . S
Co313 O319 2.052 . S
Co313 O321 2.135 . S
O314 Co313 2.061 . S
O314 C317 1.235 . S
C315 O318 1.238 . S
C315 O319 1.241 . S
C316 O309 1.247 . S
C316 O310 1.261 . S
C317 O312 1.259 . S
C317 O314 1.235 . S
O318 Co308 2.021 . S
O318 C315 1.238 . S
O319 Co313 2.052 . S
O319 C315 1.241 . S
O320 Co308 2.137 . S
O320 C311 1.247 . S
O321 Co308 2.244 . S
O321 C311 1.272 . S
O321 Co313 2.135 . S
Co322 O323 2.216 . S
Co322 O324 2.091 . S
Co322 O326 2.004 . S
Co322 O332 2.021 . S
Co322 O334 2.137 . S
Co322 O335 2.244 . S
O323 Co322 2.216 . S
O323 C330 1.247 . S
O324 Co322 2.091 . S
O324 C330 1.261 . S
C325 O334 1.247 . S
C325 O335 1.272 . S
O326 Co322 2.004 . S
O326 C331 1.259 . S
Co327 O328 2.061 . S
Co327 O333 2.052 . S
Co327 O335 2.135 . S
O328 Co327 2.061 . S
O328 C331 1.235 . S
C329 O332 1.238 . S
C329 O333 1.241 . S
C330 O323 1.247 . S
C330 O324 1.261 . S
C331 O326 1.259 . S
C331 O328 1.235 . S
O332 Co322 2.021 . S
O332 C329 1.238 . S
O333 Co327 2.052 . S
O333 C329 1.241 . S
O334 Co322 2.137 . S
O334 C325 1.247 . S
O335 Co322 2.244 . S
O335 C325 1.272 . S
O335 Co327 2.135 . S
Co336 O337 2.216 . S
Co336 O338 2.091 . S
Co336 O340 2.004 . S
Co336 O346 2.021 . S
Co336 O348 2.137 . S
Co336 O349 2.244 . S
O337 Co336 2.216 . S
O337 C344 1.247 . S
O338 Co336 2.091 . S
O338 C344 1.261 . S
C339 O348 1.247 . S
C339 O349 1.272 . S
O340 Co336 2.004 . S
O340 C345 1.259 . S
Co341 O342 2.061 . S
Co341 O347 2.052 . S
Co341 O349 2.135 . S
O342 Co341 2.061 . S
O342 C345 1.235 . S
C343 O346 1.238 . S
C343 O347 1.241 . S
C344 O337 1.247 . S
C344 O338 1.261 . S
C345 O340 1.259 . S
C345 O342 1.235 . S
O346 Co336 2.021 . S
O346 C343 1.238 . S
O347 Co341 2.052 . S
O347 C343 1.241 . S
O348 Co336 2.137 . S
O348 C339 1.247 . S
O349 Co336 2.244 . S
O349 C339 1.272 . S
O349 Co341 2.135 . S
Co350 O351 2.216 . S
Co350 O352 2.091 . S
Co350 O354 2.004 . S
Co350 O360 2.021 . S
Co350 O362 2.137 . S
Co350 O363 2.244 . S
O351 Co350 2.216 . S
O351 C358 1.247 . S
O352 Co350 2.091 . S
O352 C358 1.261 . S
C353 O362 1.247 . S
C353 O363 1.272 . S
O354 Co350 2.004 . S
O354 C359 1.259 . S
Co355 O356 2.061 . S
Co355 O361 2.052 . S
Co355 O363 2.135 . S
O356 Co355 2.061 . S
O356 C359 1.235 . S
C357 O360 1.238 . S
C357 O361 1.241 . S
C358 O351 1.247 . S
C358 O352 1.261 . S
C359 O354 1.259 . S
C359 O356 1.235 . S
O360 Co350 2.021 . S
O360 C357 1.238 . S
O361 Co355 2.052 . S
O361 C357 1.241 . S
O362 Co350 2.137 . S
O362 C353 1.247 . S
O363 Co350 2.244 . S
O363 C353 1.272 . S
O363 Co355 2.135 . S
Co364 O365 2.216 . S
Co364 O366 2.091 . S
Co364 O368 2.004 . S
Co364 O374 2.021 . S
Co364 O376 2.137 . S
Co364 O377 2.244 . S
O365 Co364 2.216 . S
O365 C372 1.247 . S
O366 Co364 2.091 . S
O366 C372 1.261 . S
C367 O376 1.247 . S
C367 O377 1.272 . S
O368 Co364 2.004 . S
O368 C373 1.259 . S
Co369 O370 2.061 . S
Co369 O375 2.052 . S
Co369 O377 2.135 . S
O370 Co369 2.061 . S
O370 C373 1.235 . S
C371 O374 1.238 . S
C371 O375 1.241 . S
C372 O365 1.247 . S
C372 O366 1.261 . S
C373 O368 1.259 . S
C373 O370 1.235 . S
O374 Co364 2.021 . S
O374 C371 1.238 . S
O375 Co369 2.052 . S
O375 C371 1.241 . S
O376 Co364 2.137 . S
O376 C367 1.247 . S
O377 Co364 2.244 . S
O377 C367 1.272 . S
O377 Co369 2.135 . S
Co378 O379 2.216 . S
Co378 O380 2.091 . S
Co378 O382 2.004 . S
Co378 O388 2.021 . S
Co378 O390 2.137 . S
Co378 O391 2.244 . S
O379 Co378 2.216 . S
O379 C386 1.247 . S
O380 Co378 2.091 . S
O380 C386 1.261 . S
C381 O390 1.247 . S
C381 O391 1.272 . S
O382 Co378 2.004 . S
O382 C387 1.259 . S
Co383 O384 2.061 . S
Co383 O389 2.052 . S
Co383 O391 2.135 . S
O384 Co383 2.061 . S
O384 C387 1.235 . S
C385 O388 1.238 . S
C385 O389 1.241 . S
C386 O379 1.247 . S
C386 O380 1.261 . S
C387 O382 1.259 . S
C387 O384 1.235 . S
O388 Co378 2.021 . S
O388 C385 1.238 . S
O389 Co383 2.052 . S
O389 C385 1.241 . S
O390 Co378 2.137 . S
O390 C381 1.247 . S
O391 Co378 2.244 . S
O391 C381 1.272 . S
O391 Co383 2.135 . S
Co392 O393 2.216 . S
Co392 O394 2.091 . S
Co392 O396 2.004 . S
Co392 O402 2.021 . S
Co392 O404 2.137 . S
Co392 O405 2.244 . S
O393 Co392 2.216 . S
O393 C400 1.247 . S
O394 Co392 2.091 . S
O394 C400 1.261 . S
C395 O404 1.247 . S
C395 O405 1.272 . S
O396 Co392 2.004 . S
O396 C401 1.259 . S
Co397 O398 2.061 . S
Co397 O403 2.052 . S
Co397 O405 2.135 . S
O398 Co397 2.061 . S
O398 C401 1.235 . S
C399 O402 1.238 . S
C399 O403 1.241 . S
C400 O393 1.247 . S
C400 O394 1.261 . S
C401 O396 1.259 . S
C401 O398 1.235 . S
O402 Co392 2.021 . S
O402 C399 1.238 . S
O403 Co397 2.052 . S
O403 C399 1.241 . S
O404 Co392 2.137 . S
O404 C395 1.247 . S
O405 Co392 2.244 . S
O405 C395 1.272 . S
O405 Co397 2.135 . S
Co406 O407 2.216 . S
Co406 O408 2.091 . S
Co406 O410 2.004 . S
Co406 O416 2.021 . S
Co406 O418 2.137 . S
Co406 O419 2.244 . S
O407 Co406 2.216 . S
O407 C414 1.247 . S
O408 Co406 2.091 . S
O408 C414 1.261 . S
C409 O418 1.247 . S
C409 O419 1.272 . S
O410 Co406 2.004 . S
O410 C415 1.259 . S
Co411 O412 2.061 . S
Co411 O417 2.052 . S
Co411 O419 2.135 . S
O412 Co411 2.061 . S
O412 C415 1.235 . S
C413 O416 1.238 . S
C413 O417 1.241 . S
C414 O407 1.247 . S
C414 O408 1.261 . S
C415 O410 1.259 . S
C415 O412 1.235 . S
O416 Co406 2.021 . S
O416 C413 1.238 . S
O417 Co411 2.052 . S
O417 C413 1.241 . S
O418 Co406 2.137 . S
O418 C409 1.247 . S
O419 Co406 2.244 . S
O419 C409 1.272 . S
O419 Co411 2.135 . S
Co420 O421 2.216 . S
Co420 O422 2.091 . S
Co420 O424 2.004 . S
Co420 O430 2.021 . S
Co420 O432 2.137 . S
Co420 O433 2.244 . S
O421 Co420 2.216 . S
O421 C428 1.247 . S
O422 Co420 2.091 . S
O422 C428 1.261 . S
C423 O432 1.247 . S
C423 O433 1.272 . S
O424 Co420 2.004 . S
O424 C429 1.259 . S
Co425 O426 2.061 . S
Co425 O431 2.052 . S
Co425 O433 2.135 . S
O426 Co425 2.061 . S
O426 C429 1.235 . S
C427 O430 1.238 . S
C427 O431 1.241 . S
C428 O421 1.247 . S
C428 O422 1.261 . S
C429 O424 1.259 . S
C429 O426 1.235 . S
O430 Co420 2.021 . S
O430 C427 1.238 . S
O431 Co425 2.052 . S
O431 C427 1.241 . S
O432 Co420 2.137 . S
O432 C423 1.247 . S
O433 Co420 2.244 . S
O433 C423 1.272 . S
O433 Co425 2.135 . S
Co434 O435 2.216 . S
Co434 O436 2.091 . S
Co434 O438 2.004 . S
Co434 O444 2.021 . S
Co434 O446 2.137 . S
Co434 O447 2.244 . S
O435 Co434 2.216 . S
O435 C442 1.247 . S
O436 Co434 2.091 . S
O436 C442 1.261 . S
C437 O446 1.247 . S
C437 O447 1.272 . S
O438 Co434 2.004 . S
O438 C443 1.259 . S
Co439 O440 2.061 . S
Co439 O445 2.052 . S
Co439 O447 2.135 . S
O440 Co439 2.061 . S
O440 C443 1.235 . S
C441 O444 1.238 . S
C441 O445 1.241 . S
C442 O435 1.247 . S
C442 O436 1.261 . S
C443 O438 1.259 . S
C443 O440 1.235 . S
O444 Co434 2.021 . S
O444 C441 1.238 . S
O445 Co439 2.052 . S
O445 C441 1.241 . S
O446 Co434 2.137 . S
O446 C437 1.247 . S
O447 Co434 2.244 . S
O447 C437 1.272 . S
O447 Co439 2.135 . S
H448 C466 0.951 . S
H449 C468 0.951 . S
H450 C470 0.950 . S
H451 C471 0.950 . S
H452 C473 0.950 . S
H453 C476 0.950 . S
H454 C477 0.950 . S
H455 C479 0.950 . S
H456 C480 0.950 . S
H457 C481 0.951 . S
H458 C483 0.951 . S
H459 C485 0.950 . S
H460 C486 0.950 1_556 S
H461 C488 0.950 . S
H462 C491 0.950 . S
H463 C492 0.950 . S
H464 C494 0.950 . S
H465 C495 0.950 1_554 S
C466 H448 0.951 . S
C466 C467 1.366 . S
C466 C468 1.388 . S
C467 C466 1.366 . S
C467 C471 1.385 . S
C468 H449 0.951 . S
C468 C466 1.388 . S
C468 C469 1.366 . S
C469 C468 1.366 . S
C469 C470 1.414 . S
C469 C472 1.499 . S
C470 H450 0.950 . S
C470 C469 1.414 . S
C470 C471 1.374 . S
C471 H451 0.950 . S
C471 C467 1.385 . S
C471 C470 1.374 . S
C472 C469 1.499 . S
C472 C473 1.373 . S
C472 C474 1.389 . S
C473 H452 0.950 . S
C473 C472 1.373 . S
C473 C489 1.377 . S
C474 C472 1.389 . S
C474 C475 1.524 . S
C474 C488 1.377 . S
C475 C474 1.524 . S
C475 C476 1.397 . S
C475 C480 1.363 . S
C476 H453 0.950 . S
C476 C475 1.397 . S
C476 C477 1.334 . S
C477 H454 0.950 . S
C477 C476 1.334 . S
C477 C478 1.287 . S
C478 C477 1.287 . S
C478 C479 1.524 . S
C478 H497 0.913 . S
C479 H455 0.950 . S
C479 C478 1.524 . S
C479 C480 1.415 . S
C480 H456 0.950 . S
C480 C475 1.363 . S
C480 C479 1.415 . S
C481 H457 0.951 . S
C481 C482 1.366 . S
C481 C483 1.388 . S
C482 C481 1.366 . S
C482 C486 1.385 . S
C483 H458 0.951 . S
C483 C481 1.388 . S
C483 C484 1.366 . S
C484 C483 1.366 . S
C484 C485 1.414 1_554 S
C484 C487 1.499 1_554 S
C485 H459 0.950 . S
C485 C484 1.414 1_556 S
C485 C486 1.374 1_556 S
C486 H460 0.950 1_554 S
C486 C482 1.385 . S
C486 C485 1.374 1_554 S
C487 C484 1.499 1_556 S
C487 C488 1.373 . S
C487 C489 1.389 . S
C488 H461 0.950 . S
C488 C474 1.377 . S
C488 C487 1.373 . S
C489 C473 1.377 . S
C489 C487 1.389 . S
C489 C490 1.524 . S
C490 C489 1.524 . S
C490 C491 1.397 . S
C490 C495 1.363 . S
C491 H462 0.950 . S
C491 C490 1.397 . S
C491 C492 1.334 . S
C492 H463 0.950 . S
C492 C491 1.334 . S
C492 C493 1.287 . S
C493 C492 1.287 . S
C493 C494 1.524 1_556 S
C493 H496 0.999 . S
C494 H464 0.950 . S
C494 C493 1.524 1_554 S
C494 C495 1.415 1_554 S
C495 H465 0.950 1_556 S
C495 C490 1.363 . S
C495 C494 1.415 1_556 S
H496 C493 0.999 . S
H497 C478 0.913 . S
H498 C516 0.951 . S
H499 C518 0.951 . S
H500 C520 0.950 . S
H501 C521 0.950 . S
H502 C523 0.950 . S
H503 C526 0.950 . S
H504 C527 0.950 . S
H505 C529 0.950 . S
H506 C530 0.950 . S
H507 C531 0.951 . S
H508 C533 0.951 . S
H509 C535 0.950 . S
H510 C536 0.950 . S
H511 C538 0.950 . S
H512 C541 0.950 . S
H513 C542 0.950 . S
H514 C544 0.950 . S
H515 C545 0.950 . S
C516 H498 0.951 . S
C516 C517 1.366 . S
C516 C518 1.388 . S
C517 C516 1.366 . S
C517 C521 1.385 . S
C518 H499 0.951 . S
C518 C516 1.388 . S
C518 C519 1.366 . S
C519 C518 1.366 . S
C519 C520 1.414 . S
C519 C522 1.499 . S
C520 H500 0.950 . S
C520 C519 1.414 . S
C520 C521 1.374 . S
C521 H501 0.950 . S
C521 C517 1.385 . S
C521 C520 1.374 . S
C522 C519 1.499 . S
C522 C523 1.373 . S
C522 C524 1.389 . S
C523 H502 0.950 . S
C523 C522 1.373 . S
C523 C539 1.377 . S
C524 C522 1.389 . S
C524 C525 1.524 . S
C524 C538 1.377 . S
C525 C524 1.524 . S
C525 C526 1.397 . S
C525 C530 1.363 . S
C526 H503 0.950 . S
C526 C525 1.397 . S
C526 C527 1.334 . S
C527 H504 0.950 . S
C527 C526 1.334 . S
C527 C528 1.287 . S
C528 C527 1.287 . S
C528 C529 1.524 . S
C528 H547 0.913 . S
C529 H505 0.950 . S
C529 C528 1.524 . S
C529 C530 1.415 . S
C530 H506 0.950 . S
C530 C525 1.363 . S
C530 C529 1.415 . S
C531 H507 0.951 . S
C531 C532 1.366 . S
C531 C533 1.388 . S
C532 C531 1.366 . S
C532 C536 1.385 . S
C533 H508 0.951 . S
C533 C531 1.388 . S
C533 C534 1.366 . S
C534 C533 1.366 . S
C534 C535 1.414 . S
C534 C537 1.499 . S
C535 H509 0.950 . S
C535 C534 1.414 . S
C535 C536 1.374 . S
C536 H510 0.950 . S
C536 C532 1.385 . S
C536 C535 1.374 . S
C537 C534 1.499 . S
C537 C538 1.373 . S
C537 C539 1.389 . S
C538 H511 0.950 . S
C538 C524 1.377 . S
C538 C537 1.373 . S
C539 C523 1.377 . S
C539 C537 1.389 . S
C539 C540 1.524 . S
C540 C539 1.524 . S
C540 C541 1.397 . S
C540 C545 1.363 . S
C541 H512 0.950 . S
C541 C540 1.397 . S
C541 C542 1.334 . S
C542 H513 0.950 . S
C542 C541 1.334 . S
C542 C543 1.287 . S
C543 C542 1.287 . S
C543 C544 1.524 . S
C543 H546 0.999 . S
C544 H514 0.950 . S
C544 C543 1.524 . S
C544 C545 1.415 . S
C545 H515 0.950 . S
C545 C540 1.363 . S
C545 C544 1.415 . S
H546 C543 0.999 . S
H547 C528 0.913 . S
H548 C566 0.951 . S
H549 C568 0.951 . S
H550 C570 0.950 . S
H551 C571 0.950 . S
H552 C573 0.950 . S
H553 C576 0.950 . S
H554 C577 0.950 . S
H555 C579 0.950 . S
H556 C580 0.950 . S
H557 C581 0.951 . S
H558 C583 0.951 . S
H559 C585 0.950 . S
H560 C586 0.950 . S
H561 C588 0.950 . S
H562 C591 0.950 . S
H563 C592 0.950 . S
H564 C594 0.950 . S
H565 C595 0.950 . S
C566 H548 0.951 . S
C566 C567 1.366 . S
C566 C568 1.388 . S
C567 C566 1.366 . S
C567 C571 1.385 . S
C568 H549 0.951 . S
C568 C566 1.388 . S
C568 C569 1.366 . S
C569 C568 1.366 . S
C569 C570 1.414 . S
C569 C572 1.499 . S
C570 H550 0.950 . S
C570 C569 1.414 . S
C570 C571 1.374 . S
C571 H551 0.950 . S
C571 C567 1.385 . S
C571 C570 1.374 . S
C572 C569 1.499 . S
C572 C573 1.373 . S
C572 C574 1.389 . S
C573 H552 0.950 . S
C573 C572 1.373 . S
C573 C589 1.377 . S
C574 C572 1.389 . S
C574 C575 1.524 . S
C574 C588 1.377 . S
C575 C574 1.524 . S
C575 C576 1.397 . S
C575 C580 1.363 . S
C576 H553 0.950 . S
C576 C575 1.397 . S
C576 C577 1.334 . S
C577 H554 0.950 . S
C577 C576 1.334 . S
C577 C578 1.287 . S
C578 C577 1.287 . S
C578 C579 1.524 . S
C578 H597 0.913 . S
C579 H555 0.950 . S
C579 C578 1.524 . S
C579 C580 1.415 . S
C580 H556 0.950 . S
C580 C575 1.363 . S
C580 C579 1.415 . S
C581 H557 0.951 . S
C581 C582 1.366 . S
C581 C583 1.388 . S
C582 C581 1.366 . S
C582 C586 1.385 . S
C583 H558 0.951 . S
C583 C581 1.388 . S
C583 C584 1.366 . S
C584 C583 1.366 . S
C584 C585 1.414 . S
C584 C587 1.499 . S
C585 H559 0.950 . S
C585 C584 1.414 . S
C585 C586 1.374 . S
C586 H560 0.950 . S
C586 C582 1.385 . S
C586 C585 1.374 . S
C587 C584 1.499 . S
C587 C588 1.373 . S
C587 C589 1.389 . S
C588 H561 0.950 . S
C588 C574 1.377 . S
C588 C587 1.373 . S
C589 C573 1.377 . S
C589 C587 1.389 . S
C589 C590 1.524 . S
C590 C589 1.524 . S
C590 C591 1.397 . S
C590 C595 1.363 . S
C591 H562 0.950 . S
C591 C590 1.397 . S
C591 C592 1.334 . S
C592 H563 0.950 . S
C592 C591 1.334 . S
C592 C593 1.287 . S
C593 C592 1.287 . S
C593 C594 1.524 . S
C593 H596 0.999 . S
C594 H564 0.950 . S
C594 C593 1.524 . S
C594 C595 1.415 . S
C595 H565 0.950 . S
C595 C590 1.363 . S
C595 C594 1.415 . S
H596 C593 0.999 . S
H597 C578 0.913 . S
H598 C616 0.951 . S
H599 C618 0.951 . S
H600 C620 0.950 . S
H601 C621 0.950 . S
H602 C623 0.950 . S
H603 C626 0.950 . S
H604 C627 0.950 . S
H605 C629 0.950 . S
H606 C630 0.950 . S
H607 C631 0.951 . S
H608 C633 0.951 . S
H609 C635 0.950 . S
H610 C636 0.950 . S
H611 C638 0.950 . S
H612 C641 0.950 . S
H613 C642 0.950 . S
H614 C644 0.950 . S
H615 C645 0.950 . S
C616 H598 0.951 . S
C616 C617 1.366 . S
C616 C618 1.388 . S
C617 C616 1.366 . S
C617 C621 1.385 . S
C618 H599 0.951 . S
C618 C616 1.388 . S
C618 C619 1.366 . S
C619 C618 1.366 . S
C619 C620 1.414 . S
C619 C622 1.499 . S
C620 H600 0.950 . S
C620 C619 1.414 . S
C620 C621 1.374 . S
C621 H601 0.950 . S
C621 C617 1.385 . S
C621 C620 1.374 . S
C622 C619 1.499 . S
C622 C623 1.373 . S
C622 C624 1.389 . S
C623 H602 0.950 . S
C623 C622 1.373 . S
C623 C639 1.377 . S
C624 C622 1.389 . S
C624 C625 1.524 . S
C624 C638 1.377 . S
C625 C624 1.524 . S
C625 C626 1.397 . S
C625 C630 1.363 . S
C626 H603 0.950 . S
C626 C625 1.397 . S
C626 C627 1.334 . S
C627 H604 0.950 . S
C627 C626 1.334 . S
C627 C628 1.287 . S
C628 C627 1.287 . S
C628 C629 1.524 . S
C628 H647 0.913 . S
C629 H605 0.950 . S
C629 C628 1.524 . S
C629 C630 1.415 . S
C630 H606 0.950 . S
C630 C625 1.363 . S
C630 C629 1.415 . S
C631 H607 0.951 . S
C631 C632 1.366 . S
C631 C633 1.388 . S
C632 C631 1.366 . S
C632 C636 1.385 . S
C633 H608 0.951 . S
C633 C631 1.388 . S
C633 C634 1.366 . S
C634 C633 1.366 . S
C634 C635 1.414 . S
C634 C637 1.499 . S
C635 H609 0.950 . S
C635 C634 1.414 . S
C635 C636 1.374 . S
C636 H610 0.950 . S
C636 C632 1.385 . S
C636 C635 1.374 . S
C637 C634 1.499 . S
C637 C638 1.373 . S
C637 C639 1.389 . S
C638 H611 0.950 . S
C638 C624 1.377 . S
C638 C637 1.373 . S
C639 C623 1.377 . S
C639 C637 1.389 . S
C639 C640 1.524 . S
C640 C639 1.524 . S
C640 C641 1.397 . S
C640 C645 1.363 . S
C641 H612 0.950 . S
C641 C640 1.397 . S
C641 C642 1.334 . S
C642 H613 0.950 . S
C642 C641 1.334 . S
C642 C643 1.287 . S
C643 C642 1.287 . S
C643 C644 1.524 . S
C643 H646 0.999 . S
C644 H614 0.950 . S
C644 C643 1.524 . S
C644 C645 1.415 . S
C645 H615 0.950 . S
C645 C640 1.363 . S
C645 C644 1.415 . S
H646 C643 0.999 . S
H647 C628 0.913 . S
H648 C666 0.951 . S
H649 C668 0.951 . S
H650 C670 0.950 . S
H651 C671 0.950 . S
H652 C673 0.950 . S
H653 C676 0.950 . S
H654 C677 0.950 . S
H655 C679 0.950 . S
H656 C680 0.950 . S
H657 C681 0.951 . S
H658 C683 0.951 . S
H659 C685 0.950 . S
H660 C686 0.950 . S
H661 C688 0.950 . S
H662 C691 0.950 . S
H663 C692 0.950 . S
H664 C694 0.950 . S
H665 C695 0.950 . S
C666 H648 0.951 . S
C666 C667 1.366 . S
C666 C668 1.388 . S
C667 C666 1.366 . S
C667 C671 1.385 . S
C668 H649 0.951 . S
C668 C666 1.388 . S
C668 C669 1.366 . S
C669 C668 1.366 . S
C669 C670 1.414 . S
C669 C672 1.499 . S
C670 H650 0.950 . S
C670 C669 1.414 . S
C670 C671 1.374 . S
C671 H651 0.950 . S
C671 C667 1.385 . S
C671 C670 1.374 . S
C672 C669 1.499 . S
C672 C673 1.373 . S
C672 C674 1.389 . S
C673 H652 0.950 . S
C673 C672 1.373 . S
C673 C689 1.377 . S
C674 C672 1.389 . S
C674 C675 1.524 . S
C674 C688 1.377 . S
C675 C674 1.524 . S
C675 C676 1.397 . S
C675 C680 1.363 . S
C676 H653 0.950 . S
C676 C675 1.397 . S
C676 C677 1.334 . S
C677 H654 0.950 . S
C677 C676 1.334 . S
C677 C678 1.287 . S
C678 C677 1.287 . S
C678 C679 1.524 . S
C678 H697 0.913 . S
C679 H655 0.950 . S
C679 C678 1.524 . S
C679 C680 1.415 . S
C680 H656 0.950 . S
C680 C675 1.363 . S
C680 C679 1.415 . S
C681 H657 0.951 . S
C681 C682 1.366 . S
C681 C683 1.388 . S
C682 C681 1.366 . S
C682 C686 1.385 . S
C683 H658 0.951 . S
C683 C681 1.388 . S
C683 C684 1.366 . S
C684 C683 1.366 . S
C684 C685 1.414 . S
C684 C687 1.499 . S
C685 H659 0.950 . S
C685 C684 1.414 . S
C685 C686 1.374 . S
C686 H660 0.950 . S
C686 C682 1.385 . S
C686 C685 1.374 . S
C687 C684 1.499 . S
C687 C688 1.373 . S
C687 C689 1.389 . S
C688 H661 0.950 . S
C688 C674 1.377 . S
C688 C687 1.373 . S
C689 C673 1.377 . S
C689 C687 1.389 . S
C689 C690 1.524 . S
C690 C689 1.524 . S
C690 C691 1.397 . S
C690 C695 1.363 . S
C691 H662 0.950 . S
C691 C690 1.397 . S
C691 C692 1.334 . S
C692 H663 0.950 . S
C692 C691 1.334 . S
C692 C693 1.287 . S
C693 C692 1.287 . S
C693 C694 1.524 . S
C693 H696 0.999 . S
C694 H664 0.950 . S
C694 C693 1.524 . S
C694 C695 1.415 . S
C695 H665 0.950 . S
C695 C690 1.363 . S
C695 C694 1.415 . S
H696 C693 0.999 . S
H697 C678 0.913 . S
H698 C716 0.951 . S
H699 C718 0.951 . S
H700 C720 0.950 . S
H701 C721 0.950 . S
H702 C723 0.950 . S
H703 C726 0.950 . S
H704 C727 0.950 . S
H705 C729 0.950 . S
H706 C730 0.950 . S
H707 C731 0.951 1_556 S
H708 C733 0.951 . S
H709 C735 0.950 . S
H710 C736 0.950 . S
H711 C738 0.950 1_554 S
H712 C741 0.950 1_554 S
H713 C742 0.950 . S
H714 C744 0.950 . S
H715 C745 0.950 . S
C716 H698 0.951 . S
C716 C717 1.366 . S
C716 C718 1.388 . S
C717 C716 1.366 . S
C717 C721 1.385 . S
C718 H699 0.951 . S
C718 C716 1.388 . S
C718 C719 1.366 . S
C719 C718 1.366 . S
C719 C720 1.414 . S
C719 C722 1.499 . S
C720 H700 0.950 . S
C720 C719 1.414 . S
C720 C721 1.374 . S
C721 H701 0.950 . S
C721 C717 1.385 . S
C721 C720 1.374 . S
C722 C719 1.499 . S
C722 C723 1.373 . S
C722 C724 1.389 . S
C723 H702 0.950 . S
C723 C722 1.373 . S
C723 C739 1.377 . S
C724 C722 1.389 . S
C724 C725 1.524 . S
C724 C738 1.377 . S
C725 C724 1.524 . S
C725 C726 1.397 . S
C725 C730 1.363 1_556 S
C726 H703 0.950 . S
C726 C725 1.397 . S
C726 C727 1.334 . S
C727 H704 0.950 . S
C727 C726 1.334 . S
C727 C728 1.272 1_556 S
C728 C727 1.272 1_554 S
C728 C729 1.536 . S
C728 H747 0.916 . S
C729 H705 0.950 . S
C729 C728 1.536 . S
C729 C730 1.415 . S
C730 H706 0.950 . S
C730 C725 1.363 1_554 S
C730 C729 1.415 . S
C731 H707 0.951 1_554 S
C731 C732 1.366 . S
C731 C733 1.388 1_554 S
C732 C731 1.366 . S
C732 C736 1.385 . S
C733 H708 0.951 . S
C733 C731 1.388 1_556 S
C733 C734 1.366 1_556 S
C734 C733 1.366 1_554 S
C734 C735 1.414 . S
C734 C737 1.499 1_554 S
C735 H709 0.950 . S
C735 C734 1.414 . S
C735 C736 1.374 . S
C736 H710 0.950 . S
C736 C732 1.385 . S
C736 C735 1.374 . S
C737 C734 1.499 1_556 S
C737 C738 1.373 . S
C737 C739 1.389 . S
C738 H711 0.950 1_556 S
C738 C724 1.377 . S
C738 C737 1.373 . S
C739 C723 1.377 . S
C739 C737 1.389 . S
C739 C740 1.524 . S
C740 C739 1.524 . S
C740 C741 1.397 . S
C740 C745 1.363 . S
C741 H712 0.950 1_556 S
C741 C740 1.397 . S
C741 C742 1.334 . S
C742 H713 0.950 . S
C742 C741 1.334 . S
C742 C743 1.287 . S
C743 C742 1.287 . S
C743 C744 1.524 . S
C743 H746 0.999 . S
C744 H714 0.950 . S
C744 C743 1.524 . S
C744 C745 1.415 . S
C745 H715 0.950 . S
C745 C740 1.363 . S
C745 C744 1.415 . S
H746 C743 0.999 . S
H747 C728 0.916 . S
H748 C766 0.951 . S
H749 C768 0.951 . S
H750 C770 0.950 . S
H751 C771 0.950 . S
H752 C773 0.950 . S
H753 C776 0.950 . S
H754 C777 0.950 . S
H755 C779 0.950 . S
H756 C780 0.950 . S
H757 C781 0.951 . S
H758 C783 0.951 . S
H759 C785 0.950 . S
H760 C786 0.950 . S
H761 C788 0.950 . S
H762 C791 0.950 . S
H763 C792 0.950 . S
H764 C794 0.950 . S
H765 C795 0.950 . S
C766 H748 0.951 . S
C766 C767 1.366 . S
C766 C768 1.388 . S
C767 C766 1.366 . S
C767 C771 1.385 . S
C768 H749 0.951 . S
C768 C766 1.388 . S
C768 C769 1.366 . S
C769 C768 1.366 . S
C769 C770 1.414 . S
C769 C772 1.499 . S
C770 H750 0.950 . S
C770 C769 1.414 . S
C770 C771 1.374 . S
C771 H751 0.950 . S
C771 C767 1.385 . S
C771 C770 1.374 . S
C772 C769 1.499 . S
C772 C773 1.373 . S
C772 C774 1.389 . S
C773 H752 0.950 . S
C773 C772 1.373 . S
C773 C789 1.377 . S
C774 C772 1.389 . S
C774 C775 1.524 . S
C774 C788 1.377 . S
C775 C774 1.524 . S
C775 C776 1.397 . S
C775 C780 1.363 . S
C776 H753 0.950 . S
C776 C775 1.397 . S
C776 C777 1.334 . S
C777 H754 0.950 . S
C777 C776 1.334 . S
C777 C778 1.287 . S
C778 C777 1.287 . S
C778 C779 1.524 . S
C778 H797 0.913 . S
C779 H755 0.950 . S
C779 C778 1.524 . S
C779 C780 1.415 . S
C780 H756 0.950 . S
C780 C775 1.363 . S
C780 C779 1.415 . S
C781 H757 0.951 . S
C781 C782 1.366 . S
C781 C783 1.388 . S
C782 C781 1.366 . S
C782 C786 1.385 . S
C783 H758 0.951 . S
C783 C781 1.388 . S
C783 C784 1.366 . S
C784 C783 1.366 . S
C784 C785 1.414 . S
C784 C787 1.499 . S
C785 H759 0.950 . S
C785 C784 1.414 . S
C785 C786 1.374 . S
C786 H760 0.950 . S
C786 C782 1.385 . S
C786 C785 1.374 . S
C787 C784 1.499 . S
C787 C788 1.373 . S
C787 C789 1.389 . S
C788 H761 0.950 . S
C788 C774 1.377 . S
C788 C787 1.373 . S
C789 C773 1.377 . S
C789 C787 1.389 . S
C789 C790 1.524 . S
C790 C789 1.524 . S
C790 C791 1.397 . S
C790 C795 1.363 . S
C791 H762 0.950 . S
C791 C790 1.397 . S
C791 C792 1.334 . S
C792 H763 0.950 . S
C792 C791 1.334 . S
C792 C793 1.287 . S
C793 C792 1.287 . S
C793 C794 1.524 . S
C793 H796 0.999 . S
C794 H764 0.950 . S
C794 C793 1.524 . S
C794 C795 1.415 . S
C795 H765 0.950 . S
C795 C790 1.363 . S
C795 C794 1.415 . S
H796 C793 0.999 . S
H797 C778 0.913 . S
H798 C816 0.951 . S
H799 C818 0.951 . S
H800 C820 0.950 . S
H801 C821 0.950 . S
H802 C823 0.950 . S
H803 C826 0.950 . S
H804 C827 0.950 . S
H805 C829 0.950 . S
H806 C830 0.950 . S
H807 C831 0.951 . S
H808 C833 0.951 . S
H809 C835 0.950 . S
H810 C836 0.950 . S
H811 C838 0.950 . S
H812 C841 0.950 . S
H813 C842 0.950 . S
H814 C844 0.950 . S
H815 C845 0.950 . S
C816 H798 0.951 . S
C816 C817 1.366 . S
C816 C818 1.388 . S
C817 C816 1.366 . S
C817 C821 1.385 . S
C818 H799 0.951 . S
C818 C816 1.388 . S
C818 C819 1.366 . S
C819 C818 1.366 . S
C819 C820 1.414 . S
C819 C822 1.499 . S
C820 H800 0.950 . S
C820 C819 1.414 . S
C820 C821 1.374 . S
C821 H801 0.950 . S
C821 C817 1.385 . S
C821 C820 1.374 . S
C822 C819 1.499 . S
C822 C823 1.373 . S
C822 C824 1.389 . S
C823 H802 0.950 . S
C823 C822 1.373 . S
C823 C839 1.377 . S
C824 C822 1.389 . S
C824 C825 1.524 . S
C824 C838 1.377 . S
C825 C824 1.524 . S
C825 C826 1.397 . S
C825 C830 1.363 . S
C826 H803 0.950 . S
C826 C825 1.397 . S
C826 C827 1.334 . S
C827 H804 0.950 . S
C827 C826 1.334 . S
C827 C828 1.287 . S
C828 C827 1.287 . S
C828 C829 1.524 . S
C828 H847 0.913 . S
C829 H805 0.950 . S
C829 C828 1.524 . S
C829 C830 1.415 . S
C830 H806 0.950 . S
C830 C825 1.363 . S
C830 C829 1.415 . S
C831 H807 0.951 . S
C831 C832 1.366 . S
C831 C833 1.388 . S
C832 C831 1.366 . S
C832 C836 1.385 . S
C833 H808 0.951 . S
C833 C831 1.388 . S
C833 C834 1.366 . S
C834 C833 1.366 . S
C834 C835 1.414 . S
C834 C837 1.499 . S
C835 H809 0.950 . S
C835 C834 1.414 . S
C835 C836 1.374 . S
C836 H810 0.950 . S
C836 C832 1.385 . S
C836 C835 1.374 . S
C837 C834 1.499 . S
C837 C838 1.373 . S
C837 C839 1.389 . S
C838 H811 0.950 . S
C838 C824 1.377 . S
C838 C837 1.373 . S
C839 C823 1.377 . S
C839 C837 1.389 . S
C839 C840 1.524 . S
C840 C839 1.524 . S
C840 C841 1.397 . S
C840 C845 1.363 . S
C841 H812 0.950 . S
C841 C840 1.397 . S
C841 C842 1.334 . S
C842 H813 0.950 . S
C842 C841 1.334 . S
C842 C843 1.287 . S
C843 C842 1.287 . S
C843 C844 1.524 . S
C843 H846 0.999 . S
C844 H814 0.950 . S
C844 C843 1.524 . S
C844 C845 1.415 . S
C845 H815 0.950 . S
C845 C840 1.363 . S
C845 C844 1.415 . S
H846 C843 0.999 . S
H847 C828 0.913 . S
H848 C866 0.951 . S
H849 C868 0.951 . S
H850 C870 0.950 . S
H851 C871 0.950 . S
H852 C873 0.950 . S
H853 C876 0.950 . S
H854 C877 0.950 . S
H855 C879 0.950 . S
H856 C880 0.950 . S
H857 C881 0.951 . S
H858 C883 0.951 . S
H859 C885 0.950 . S
H860 C886 0.950 . S
H861 C888 0.950 . S
H862 C891 0.950 . S
H863 C892 0.950 . S
H864 C894 0.950 . S
H865 C895 0.950 . S
C866 H848 0.951 . S
C866 C867 1.366 . S
C866 C868 1.388 . S
C867 C866 1.366 . S
C867 C871 1.385 . S
C868 H849 0.951 . S
C868 C866 1.388 . S
C868 C869 1.366 . S
C869 C868 1.366 . S
C869 C870 1.414 . S
C869 C872 1.499 . S
C870 H850 0.950 . S
C870 C869 1.414 . S
C870 C871 1.374 . S
C871 H851 0.950 . S
C871 C867 1.385 . S
C871 C870 1.374 . S
C872 C869 1.499 . S
C872 C873 1.373 . S
C872 C874 1.389 . S
C873 H852 0.950 . S
C873 C872 1.373 . S
C873 C889 1.377 . S
C874 C872 1.389 . S
C874 C875 1.524 . S
C874 C888 1.377 . S
C875 C874 1.524 . S
C875 C876 1.397 . S
C875 C880 1.363 . S
C876 H853 0.950 . S
C876 C875 1.397 . S
C876 C877 1.334 . S
C877 H854 0.950 . S
C877 C876 1.334 . S
C877 C878 1.287 . S
C878 C877 1.287 . S
C878 C879 1.524 . S
C878 H897 0.913 . S
C879 H855 0.950 . S
C879 C878 1.524 . S
C879 C880 1.415 . S
C880 H856 0.950 . S
C880 C875 1.363 . S
C880 C879 1.415 . S
C881 H857 0.951 . S
C881 C882 1.366 . S
C881 C883 1.388 . S
C882 C881 1.366 . S
C882 C886 1.385 . S
C883 H858 0.951 . S
C883 C881 1.388 . S
C883 C884 1.366 . S
C884 C883 1.366 . S
C884 C885 1.414 . S
C884 C887 1.499 . S
C885 H859 0.950 . S
C885 C884 1.414 . S
C885 C886 1.374 . S
C886 H860 0.950 . S
C886 C882 1.385 . S
C886 C885 1.374 . S
C887 C884 1.499 . S
C887 C888 1.373 . S
C887 C889 1.389 . S
C888 H861 0.950 . S
C888 C874 1.377 . S
C888 C887 1.373 . S
C889 C873 1.377 . S
C889 C887 1.389 . S
C889 C890 1.524 . S
C890 C889 1.524 . S
C890 C891 1.397 . S
C890 C895 1.363 . S
C891 H862 0.950 . S
C891 C890 1.397 . S
C891 C892 1.334 . S
C892 H863 0.950 . S
C892 C891 1.334 . S
C892 C893 1.287 . S
C893 C892 1.287 . S
C893 C894 1.524 . S
C893 H896 0.999 . S
C894 H864 0.950 . S
C894 C893 1.524 . S
C894 C895 1.415 . S
C895 H865 0.950 . S
C895 C890 1.363 . S
C895 C894 1.415 . S
H896 C893 0.999 . S
H897 C878 0.913 . S
H898 C916 0.951 . S
H899 C918 0.951 . S
H900 C920 0.950 . S
H901 C921 0.950 . S
H902 C923 0.950 . S
H903 C926 0.950 . S
H904 C927 0.950 . S
H905 C929 0.950 . S
H906 C930 0.950 . S
H907 C931 0.951 . S
H908 C933 0.951 . S
H909 C935 0.950 . S
H910 C936 0.950 . S
H911 C938 0.950 . S
H912 C941 0.950 . S
H913 C942 0.950 . S
H914 C944 0.950 . S
H915 C945 0.950 . S
C916 H898 0.951 . S
C916 C917 1.366 . S
C916 C918 1.388 . S
C917 C916 1.366 . S
C917 C921 1.385 . S
C918 H899 0.951 . S
C918 C916 1.388 . S
C918 C919 1.366 . S
C919 C918 1.366 . S
C919 C920 1.414 . S
C919 C922 1.499 . S
C920 H900 0.950 . S
C920 C919 1.414 . S
C920 C921 1.374 . S
C921 H901 0.950 . S
C921 C917 1.385 . S
C921 C920 1.374 . S
C922 C919 1.499 . S
C922 C923 1.373 . S
C922 C924 1.389 . S
C923 H902 0.950 . S
C923 C922 1.373 . S
C923 C939 1.377 . S
C924 C922 1.389 . S
C924 C925 1.524 . S
C924 C938 1.377 . S
C925 C924 1.524 . S
C925 C926 1.397 . S
C925 C930 1.363 . S
C926 H903 0.950 . S
C926 C925 1.397 . S
C926 C927 1.334 . S
C927 H904 0.950 . S
C927 C926 1.334 . S
C927 C928 1.287 . S
C928 C927 1.287 . S
C928 C929 1.524 . S
C928 H947 0.913 . S
C929 H905 0.950 . S
C929 C928 1.524 . S
C929 C930 1.415 . S
C930 H906 0.950 . S
C930 C925 1.363 . S
C930 C929 1.415 . S
C931 H907 0.951 . S
C931 C932 1.366 . S
C931 C933 1.388 . S
C932 C931 1.366 . S
C932 C936 1.385 . S
C933 H908 0.951 . S
C933 C931 1.388 . S
C933 C934 1.366 . S
C934 C933 1.366 . S
C934 C935 1.414 . S
C934 C937 1.499 . S
C935 H909 0.950 . S
C935 C934 1.414 . S
C935 C936 1.374 . S
C936 H910 0.950 . S
C936 C932 1.385 . S
C936 C935 1.374 . S
C937 C934 1.499 . S
C937 C938 1.373 . S
C937 C939 1.389 . S
C938 H911 0.950 . S
C938 C924 1.377 . S
C938 C937 1.373 . S
C939 C923 1.377 . S
C939 C937 1.389 . S
C939 C940 1.524 . S
C940 C939 1.524 . S
C940 C941 1.397 . S
C940 C945 1.363 . S
C941 H912 0.950 . S
C941 C940 1.397 . S
C941 C942 1.334 . S
C942 H913 0.950 . S
C942 C941 1.334 . S
C942 C943 1.287 . S
C943 C942 1.287 . S
C943 C944 1.524 . S
C943 H946 0.999 . S
C944 H914 0.950 . S
C944 C943 1.524 . S
C944 C945 1.415 . S
C945 H915 0.950 . S
C945 C940 1.363 . S
C945 C944 1.415 . S
H946 C943 0.999 . S
H947 C928 0.913 . S
H948 C966 0.951 . S
H949 C968 0.951 . S
H950 C970 0.950 . S
H951 C971 0.950 . S
H952 C973 0.950 . S
H953 C976 0.950 . S
H954 C977 0.950 . S
H955 C979 0.950 . S
H956 C980 0.950 . S
H957 C981 0.951 1_556 S
H958 C983 0.951 . S
H959 C985 0.950 . S
H960 C986 0.950 . S
H961 C988 0.950 1_554 S
H962 C991 0.975 . S
H963 C992 0.950 . S
H964 C994 0.950 . S
H965 C995 0.950 . S
C966 H948 0.951 . S
C966 C967 1.366 . S
C966 C968 1.388 . S
C967 C966 1.366 . S
C967 C971 1.385 . S
C968 H949 0.951 . S
C968 C966 1.388 . S
C968 C969 1.366 . S
C969 C968 1.366 . S
C969 C970 1.414 . S
C969 C972 1.499 . S
C970 H950 0.950 . S
C970 C969 1.414 . S
C970 C971 1.374 . S
C971 H951 0.950 . S
C971 C967 1.385 . S
C971 C970 1.374 . S
C972 C969 1.499 . S
C972 C973 1.373 . S
C972 C974 1.389 . S
C973 H952 0.950 . S
C973 C972 1.373 . S
C973 C989 1.377 . S
C974 C972 1.389 . S
C974 C975 1.524 . S
C974 C988 1.377 . S
C975 C974 1.524 . S
C975 C976 1.397 . S
C975 C980 1.363 1_556 S
C976 H953 0.950 . S
C976 C975 1.397 . S
C976 C977 1.334 . S
C977 H954 0.950 . S
C977 C976 1.334 . S
C977 C978 1.287 1_556 S
C978 C977 1.287 1_554 S
C978 C979 1.524 . S
C978 H997 0.913 . S
C979 H955 0.950 . S
C979 C978 1.524 . S
C979 C980 1.415 . S
C980 H956 0.950 . S
C980 C975 1.363 1_554 S
C980 C979 1.415 . S
C981 H957 0.951 1_554 S
C981 C982 1.366 . S
C981 C983 1.388 1_554 S
C982 C981 1.366 . S
C982 C986 1.385 . S
C983 H958 0.951 . S
C983 C981 1.388 1_556 S
C983 C984 1.366 1_556 S
C984 C983 1.366 1_554 S
C984 C985 1.414 . S
C984 C987 1.499 1_554 S
C985 H959 0.950 . S
C985 C984 1.414 . S
C985 C986 1.374 . S
C986 H960 0.950 . S
C986 C982 1.385 . S
C986 C985 1.374 . S
C987 C984 1.499 1_556 S
C987 C988 1.373 . S
C987 C989 1.389 . S
C988 H961 0.950 1_556 S
C988 C974 1.377 . S
C988 C987 1.373 . S
C989 C973 1.377 . S
C989 C987 1.389 . S
C989 C990 1.524 . S
C990 C989 1.524 . S
C990 C991 1.397 . S
C990 C995 1.363 . S
C991 H962 0.975 . S
C991 C990 1.397 . S
C991 C992 1.334 . S
C992 H963 0.950 . S
C992 C991 1.334 . S
C992 C993 1.287 . S
C993 C992 1.287 . S
C993 C994 1.524 . S
C993 H996 0.999 . S
C994 H964 0.950 . S
C994 C993 1.524 . S
C994 C995 1.415 . S
C995 H965 0.950 . S
C995 C990 1.363 . S
C995 C994 1.415 . S
H996 C993 0.999 . S
H997 C978 0.913 . S
H998 C1016 0.951 . S
H999 C1018 0.951 . S
H1000 C1020 0.950 . S
H1001 C1021 0.950 . S
H1002 C1023 0.950 . S
H1003 C1026 0.950 . S
H1004 C1027 0.950 . S
H1005 C1029 0.950 . S
H1006 C1030 0.950 . S
H1007 C1031 0.951 . S
H1008 C1033 0.951 . S
H1009 C1035 0.950 . S
H1010 C1036 0.950 . S
H1011 C1038 0.950 . S
H1012 C1041 0.950 . S
H1013 C1042 0.950 . S
H1014 C1044 0.950 . S
H1015 C1045 0.950 . S
C1016 H998 0.951 . S
C1016 C1017 1.366 . S
C1016 C1018 1.388 . S
C1017 C1016 1.366 . S
C1017 C1021 1.385 . S
C1018 H999 0.951 . S
C1018 C1016 1.388 . S
C1018 C1019 1.366 . S
C1019 C1018 1.366 . S
C1019 C1020 1.414 . S
C1019 C1022 1.499 . S
C1020 H1000 0.950 . S
C1020 C1019 1.414 . S
C1020 C1021 1.374 . S
C1021 H1001 0.950 . S
C1021 C1017 1.385 . S
C1021 C1020 1.374 . S
C1022 C1019 1.499 . S
C1022 C1023 1.373 . S
C1022 C1024 1.389 . S
C1023 H1002 0.950 . S
C1023 C1022 1.373 . S
C1023 C1039 1.377 . S
C1024 C1022 1.389 . S
C1024 C1025 1.524 . S
C1024 C1038 1.377 . S
C1025 C1024 1.524 . S
C1025 C1026 1.397 . S
C1025 C1030 1.363 . S
C1026 H1003 0.950 . S
C1026 C1025 1.397 . S
C1026 C1027 1.334 . S
C1027 H1004 0.950 . S
C1027 C1026 1.334 . S
C1027 C1028 1.287 . S
C1028 C1027 1.287 . S
C1028 C1029 1.524 . S
C1028 H1047 0.913 . S
C1029 H1005 0.950 . S
C1029 C1028 1.524 . S
C1029 C1030 1.415 . S
C1030 H1006 0.950 . S
C1030 C1025 1.363 . S
C1030 C1029 1.415 . S
C1031 H1007 0.951 . S
C1031 C1032 1.366 . S
C1031 C1033 1.388 . S
C1032 C1031 1.366 . S
C1032 C1036 1.385 . S
C1033 H1008 0.951 . S
C1033 C1031 1.388 . S
C1033 C1034 1.366 . S
C1034 C1033 1.366 . S
C1034 C1035 1.414 . S
C1034 C1037 1.499 . S
C1035 H1009 0.950 . S
C1035 C1034 1.414 . S
C1035 C1036 1.374 . S
C1036 H1010 0.950 . S
C1036 C1032 1.385 . S
C1036 C1035 1.374 . S
C1037 C1034 1.499 . S
C1037 C1038 1.373 . S
C1037 C1039 1.389 . S
C1038 H1011 0.950 . S
C1038 C1024 1.377 . S
C1038 C1037 1.373 . S
C1039 C1023 1.377 . S
C1039 C1037 1.389 . S
C1039 C1040 1.524 . S
C1040 C1039 1.524 . S
C1040 C1041 1.397 . S
C1040 C1045 1.363 . S
C1041 H1012 0.950 . S
C1041 C1040 1.397 . S
C1041 C1042 1.334 . S
C1042 H1013 0.950 . S
C1042 C1041 1.334 . S
C1042 C1043 1.287 . S
C1043 C1042 1.287 . S
C1043 C1044 1.524 . S
C1043 H1046 0.999 . S
C1044 H1014 0.950 . S
C1044 C1043 1.524 . S
C1044 C1045 1.415 . S
C1045 H1015 0.950 . S
C1045 C1040 1.363 . S
C1045 C1044 1.415 . S
H1046 C1043 0.999 . S
H1047 C1028 0.913 . S
H1048 C1066 0.951 . S
H1049 C1068 0.951 . S
H1050 C1070 0.950 . S
H1051 C1071 0.950 . S
H1052 C1073 0.950 . S
H1053 C1076 0.950 . S
H1054 C1077 0.950 . S
H1055 C1079 0.950 . S
H1056 C1080 0.950 . S
H1057 C1081 0.951 . S
H1058 C1083 0.951 . S
H1059 C1085 0.950 . S
H1060 C1086 0.950 . S
H1061 C1088 0.950 . S
H1062 C1091 0.950 . S
H1063 C1092 0.950 . S
H1064 C1094 0.950 . S
H1065 C1095 0.950 . S
C1066 H1048 0.951 . S
C1066 C1067 1.366 . S
C1066 C1068 1.388 . S
C1067 C1066 1.366 . S
C1067 C1071 1.385 . S
C1068 H1049 0.951 . S
C1068 C1066 1.388 . S
C1068 C1069 1.366 . S
C1069 C1068 1.366 . S
C1069 C1070 1.414 . S
C1069 C1072 1.499 . S
C1070 H1050 0.950 . S
C1070 C1069 1.414 . S
C1070 C1071 1.374 . S
C1071 H1051 0.950 . S
C1071 C1067 1.385 . S
C1071 C1070 1.374 . S
C1072 C1069 1.499 . S
C1072 C1073 1.373 . S
C1072 C1074 1.389 . S
C1073 H1052 0.950 . S
C1073 C1072 1.373 . S
C1073 C1089 1.377 . S
C1074 C1072 1.389 . S
C1074 C1075 1.524 . S
C1074 C1088 1.377 . S
C1075 C1074 1.524 . S
C1075 C1076 1.397 . S
C1075 C1080 1.363 . S
C1076 H1053 0.950 . S
C1076 C1075 1.397 . S
C1076 C1077 1.334 . S
C1077 H1054 0.950 . S
C1077 C1076 1.334 . S
C1077 C1078 1.287 . S
C1078 C1077 1.287 . S
C1078 C1079 1.524 . S
C1078 H1097 0.913 . S
C1079 H1055 0.950 . S
C1079 C1078 1.524 . S
C1079 C1080 1.415 . S
C1080 H1056 0.950 . S
C1080 C1075 1.363 . S
C1080 C1079 1.415 . S
C1081 H1057 0.951 . S
C1081 C1082 1.366 . S
C1081 C1083 1.388 . S
C1082 C1081 1.366 . S
C1082 C1086 1.385 . S
C1083 H1058 0.951 . S
C1083 C1081 1.388 . S
C1083 C1084 1.366 . S
C1084 C1083 1.366 . S
C1084 C1085 1.414 . S
C1084 C1087 1.499 . S
C1085 H1059 0.950 . S
C1085 C1084 1.414 . S
C1085 C1086 1.374 . S
C1086 H1060 0.950 . S
C1086 C1082 1.385 . S
C1086 C1085 1.374 . S
C1087 C1084 1.499 . S
C1087 C1088 1.373 . S
C1087 C1089 1.389 . S
C1088 H1061 0.950 . S
C1088 C1074 1.377 . S
C1088 C1087 1.373 . S
C1089 C1073 1.377 . S
C1089 C1087 1.389 . S
C1089 C1090 1.524 . S
C1090 C1089 1.524 . S
C1090 C1091 1.397 . S
C1090 C1095 1.363 . S
C1091 H1062 0.950 . S
C1091 C1090 1.397 . S
C1091 C1092 1.334 . S
C1092 H1063 0.950 . S
C1092 C1091 1.334 . S
C1092 C1093 1.287 . S
C1093 C1092 1.287 . S
C1093 C1094 1.524 . S
C1093 H1096 0.999 . S
C1094 H1064 0.950 . S
C1094 C1093 1.524 . S
C1094 C1095 1.415 . S
C1095 H1065 0.950 . S
C1095 C1090 1.363 . S
C1095 C1094 1.415 . S
H1096 C1093 0.999 . S
H1097 C1078 0.913 . S
H1098 C1116 0.951 . S
H1099 C1118 0.951 . S
H1100 C1120 0.950 . S
H1101 C1121 0.950 . S
H1102 C1123 0.950 . S
H1103 C1126 0.950 . S
H1104 C1127 0.950 . S
H1105 C1129 0.950 . S
H1106 C1130 0.950 . S
H1107 C1131 0.951 . S
H1108 C1133 0.951 . S
H1109 C1135 0.950 . S
H1110 C1136 0.950 . S
H1111 C1138 0.950 . S
H1112 C1141 0.950 . S
H1113 C1142 0.950 . S
H1114 C1144 0.950 . S
H1115 C1145 0.950 . S
C1116 H1098 0.951 . S
C1116 C1117 1.366 . S
C1116 C1118 1.388 . S
C1117 C1116 1.366 . S
C1117 C1121 1.385 . S
C1118 H1099 0.951 . S
C1118 C1116 1.388 . S
C1118 C1119 1.366 . S
C1119 C1118 1.366 . S
C1119 C1120 1.414 . S
C1119 C1122 1.499 . S
C1120 H1100 0.950 . S
C1120 C1119 1.414 . S
C1120 C1121 1.374 . S
C1121 H1101 0.950 . S
C1121 C1117 1.385 . S
C1121 C1120 1.374 . S
C1122 C1119 1.499 . S
C1122 C1123 1.373 . S
C1122 C1124 1.389 . S
C1123 H1102 0.950 . S
C1123 C1122 1.373 . S
C1123 C1139 1.377 . S
C1124 C1122 1.389 . S
C1124 C1125 1.524 . S
C1124 C1138 1.377 . S
C1125 C1124 1.524 . S
C1125 C1126 1.397 . S
C1125 C1130 1.363 . S
C1126 H1103 0.950 . S
C1126 C1125 1.397 . S
C1126 C1127 1.334 . S
C1127 H1104 0.950 . S
C1127 C1126 1.334 . S
C1127 C1128 1.287 . S
C1128 C1127 1.287 . S
C1128 C1129 1.524 . S
C1128 H1147 0.913 . S
C1129 H1105 0.950 . S
C1129 C1128 1.524 . S
C1129 C1130 1.415 . S
C1130 H1106 0.950 . S
C1130 C1125 1.363 . S
C1130 C1129 1.415 . S
C1131 H1107 0.951 . S
C1131 C1132 1.366 . S
C1131 C1133 1.388 . S
C1132 C1131 1.366 . S
C1132 C1136 1.385 . S
C1133 H1108 0.951 . S
C1133 C1131 1.388 . S
C1133 C1134 1.366 . S
C1134 C1133 1.366 . S
C1134 C1135 1.414 . S
C1134 C1137 1.499 . S
C1135 H1109 0.950 . S
C1135 C1134 1.414 . S
C1135 C1136 1.374 . S
C1136 H1110 0.950 . S
C1136 C1132 1.385 . S
C1136 C1135 1.374 . S
C1137 C1134 1.499 . S
C1137 C1138 1.373 . S
C1137 C1139 1.389 . S
C1138 H1111 0.950 . S
C1138 C1124 1.377 . S
C1138 C1137 1.373 . S
C1139 C1123 1.377 . S
C1139 C1137 1.389 . S
C1139 C1140 1.524 . S
C1140 C1139 1.524 . S
C1140 C1141 1.397 . S
C1140 C1145 1.363 . S
C1141 H1112 0.950 . S
C1141 C1140 1.397 . S
C1141 C1142 1.334 . S
C1142 H1113 0.950 . S
C1142 C1141 1.334 . S
C1142 C1143 1.287 . S
C1143 C1142 1.287 . S
C1143 C1144 1.524 . S
C1143 H1146 0.999 . S
C1144 H1114 0.950 . S
C1144 C1143 1.524 . S
C1144 C1145 1.415 . S
C1145 H1115 0.950 . S
C1145 C1140 1.363 . S
C1145 C1144 1.415 . S
H1146 C1143 0.999 . S
H1147 C1128 0.913 . S
H1148 C1166 0.951 . S
H1149 C1168 0.951 . S
H1150 C1170 0.950 . S
H1151 C1171 0.950 . S
H1152 C1173 0.950 . S
H1153 C1176 0.950 . S
H1154 C1177 0.950 . S
H1155 C1179 0.950 . S
H1156 C1180 0.950 . S
H1157 C1181 0.951 . S
H1158 C1183 0.951 . S
H1159 C1185 0.950 . S
H1160 C1186 0.950 . S
H1161 C1188 0.950 . S
H1162 C1191 0.950 . S
H1163 C1192 0.950 . S
H1164 C1194 0.950 . S
H1165 C1195 0.950 . S
C1166 H1148 0.951 . S
C1166 C1167 1.366 . S
C1166 C1168 1.388 . S
C1167 C1166 1.366 . S
C1167 C1171 1.385 . S
C1168 H1149 0.951 . S
C1168 C1166 1.388 . S
C1168 C1169 1.366 . S
C1169 C1168 1.366 . S
C1169 C1170 1.414 . S
C1169 C1172 1.499 . S
C1170 H1150 0.950 . S
C1170 C1169 1.414 . S
C1170 C1171 1.374 . S
C1171 H1151 0.950 . S
C1171 C1167 1.385 . S
C1171 C1170 1.374 . S
C1172 C1169 1.499 . S
C1172 C1173 1.373 . S
C1172 C1174 1.389 . S
C1173 H1152 0.950 . S
C1173 C1172 1.373 . S
C1173 C1189 1.377 . S
C1174 C1172 1.389 . S
C1174 C1175 1.524 . S
C1174 C1188 1.377 . S
C1175 C1174 1.524 . S
C1175 C1176 1.397 . S
C1175 C1180 1.363 . S
C1176 H1153 0.950 . S
C1176 C1175 1.397 . S
C1176 C1177 1.334 . S
C1177 H1154 0.950 . S
C1177 C1176 1.334 . S
C1177 C1178 1.287 . S
C1178 C1177 1.287 . S
C1178 C1179 1.524 . S
C1178 H1197 0.913 . S
C1179 H1155 0.950 . S
C1179 C1178 1.524 . S
C1179 C1180 1.415 . S
C1180 H1156 0.950 . S
C1180 C1175 1.363 . S
C1180 C1179 1.415 . S
C1181 H1157 0.951 . S
C1181 C1182 1.366 . S
C1181 C1183 1.388 . S
C1182 C1181 1.366 . S
C1182 C1186 1.385 . S
C1183 H1158 0.951 . S
C1183 C1181 1.388 . S
C1183 C1184 1.366 . S
C1184 C1183 1.366 . S
C1184 C1185 1.414 . S
C1184 C1187 1.499 . S
C1185 H1159 0.950 . S
C1185 C1184 1.414 . S
C1185 C1186 1.374 . S
C1186 H1160 0.950 . S
C1186 C1182 1.385 . S
C1186 C1185 1.374 . S
C1187 C1184 1.499 . S
C1187 C1188 1.373 . S
C1187 C1189 1.389 . S
C1188 H1161 0.950 . S
C1188 C1174 1.377 . S
C1188 C1187 1.373 . S
C1189 C1173 1.377 . S
C1189 C1187 1.389 . S
C1189 C1190 1.524 . S
C1190 C1189 1.524 . S
C1190 C1191 1.397 . S
C1190 C1195 1.363 . S
C1191 H1162 0.950 . S
C1191 C1190 1.397 . S
C1191 C1192 1.334 . S
C1192 H1163 0.950 . S
C1192 C1191 1.334 . S
C1192 C1193 1.287 . S
C1193 C1192 1.287 . S
C1193 C1194 1.524 . S
C1193 H1196 0.999 . S
C1194 H1164 0.950 . S
C1194 C1193 1.524 . S
C1194 C1195 1.415 . S
C1195 H1165 0.950 . S
C1195 C1190 1.363 . S
C1195 C1194 1.415 . S
H1196 C1193 0.999 . S
H1197 C1178 0.913 . S
H1198 C1216 0.951 . S
H1199 C1218 0.951 . S
H1200 C1220 0.950 . S
H1201 C1221 0.950 . S
H1202 C1223 0.950 . S
H1203 C1226 0.950 1_556 S
H1204 C1227 0.950 . S
H1205 C1229 0.950 . S
H1206 C1230 0.950 . S
H1207 C1231 0.951 1_556 S
H1208 C1233 0.951 . S
H1209 C1235 0.950 . S
H1210 C1236 0.950 . S
H1211 C1238 0.950 . S
H1212 C1241 0.950 . S
H1213 C1242 0.950 . S
H1214 C1244 0.950 . S
H1215 C1245 0.950 . S
C1216 H1198 0.951 . S
C1216 C1217 1.366 . S
C1216 C1218 1.388 . S
C1217 C1216 1.366 . S
C1217 C1221 1.385 . S
C1218 H1199 0.951 . S
C1218 C1216 1.388 . S
C1218 C1219 1.366 . S
C1219 C1218 1.366 . S
C1219 C1220 1.414 . S
C1219 C1222 1.499 . S
C1220 H1200 0.950 . S
C1220 C1219 1.414 . S
C1220 C1221 1.374 . S
C1221 H1201 0.950 . S
C1221 C1217 1.385 . S
C1221 C1220 1.374 . S
C1222 C1219 1.499 . S
C1222 C1223 1.373 . S
C1222 C1224 1.389 . S
C1223 H1202 0.950 . S
C1223 C1222 1.373 . S
C1223 C1239 1.377 . S
C1224 C1222 1.389 . S
C1224 C1225 1.524 1_556 S
C1224 C1238 1.377 1_556 S
C1225 C1224 1.524 1_554 S
C1225 C1226 1.397 . S
C1225 C1230 1.363 . S
C1226 H1203 0.950 1_554 S
C1226 C1225 1.397 . S
C1226 C1227 1.334 . S
C1227 H1204 0.950 . S
C1227 C1226 1.334 . S
C1227 C1228 1.287 . S
C1228 C1227 1.287 . S
C1228 C1229 1.524 . S
C1228 H1247 0.913 . S
C1229 H1205 0.950 . S
C1229 C1228 1.524 . S
C1229 C1230 1.415 . S
C1230 H1206 0.950 . S
C1230 C1225 1.363 . S
C1230 C1229 1.415 . S
C1231 H1207 0.951 1_554 S
C1231 C1232 1.366 . S
C1231 C1233 1.388 1_554 S
C1232 C1231 1.366 . S
C1232 C1236 1.385 . S
C1233 H1208 0.951 . S
C1233 C1231 1.388 1_556 S
C1233 C1234 1.366 1_556 S
C1234 C1233 1.366 1_554 S
C1234 C1235 1.414 . S
C1234 C1237 1.499 1_554 S
C1235 H1209 0.950 . S
C1235 C1234 1.414 . S
C1235 C1236 1.374 . S
C1236 H1210 0.950 . S
C1236 C1232 1.385 . S
C1236 C1235 1.374 . S
C1237 C1234 1.499 1_556 S
C1237 C1238 1.373 1_556 S
C1237 C1239 1.389 . S
C1238 H1211 0.950 . S
C1238 C1224 1.377 1_554 S
C1238 C1237 1.373 1_554 S
C1239 C1223 1.377 . S
C1239 C1237 1.389 . S
C1239 C1240 1.524 . S
C1240 C1239 1.524 . S
C1240 C1241 1.397 . S
C1240 C1245 1.363 . S
C1241 H1212 0.950 . S
C1241 C1240 1.397 . S
C1241 C1242 1.334 . S
C1242 H1213 0.950 . S
C1242 C1241 1.334 . S
C1242 C1243 1.287 . S
C1243 C1242 1.287 . S
C1243 C1244 1.524 . S
C1243 H1246 0.999 . S
C1244 H1214 0.950 . S
C1244 C1243 1.524 . S
C1244 C1245 1.415 . S
C1245 H1215 0.950 . S
C1245 C1240 1.363 . S
C1245 C1244 1.415 . S
H1246 C1243 0.999 . S
H1247 C1228 0.913 . S
H1248 C1266 0.951 . S
H1249 C1268 0.951 . S
H1250 C1270 0.950 . S
H1251 C1271 0.950 1_554 S
H1252 C1273 0.950 . S
H1253 C1276 0.950 . S
H1254 C1277 0.950 . S
H1255 C1279 0.950 . S
H1256 C1280 0.950 . S
H1257 C1281 0.951 . S
H1258 C1283 0.951 . S
H1259 C1285 0.950 . S
H1260 C1286 0.950 . S
H1261 C1288 0.950 . S
H1262 C1291 0.950 . S
H1263 C1292 0.950 . S
H1264 C1294 0.950 . S
H1265 C1295 0.950 . S
C1266 H1248 0.951 . S
C1266 C1267 1.366 . S
C1266 C1268 1.388 . S
C1267 C1266 1.366 . S
C1267 C1271 1.385 . S
C1268 H1249 0.951 . S
C1268 C1266 1.388 . S
C1268 C1269 1.366 . S
C1269 C1268 1.366 . S
C1269 C1270 1.414 . S
C1269 C1272 1.499 . S
C1270 H1250 0.950 . S
C1270 C1269 1.414 . S
C1270 C1271 1.374 . S
C1271 H1251 0.950 1_556 S
C1271 C1267 1.385 . S
C1271 C1270 1.374 . S
C1272 C1269 1.499 . S
C1272 C1273 1.373 . S
C1272 C1274 1.389 . S
C1273 H1252 0.950 . S
C1273 C1272 1.373 . S
C1273 C1289 1.377 . S
C1274 C1272 1.389 . S
C1274 C1275 1.524 . S
C1274 C1288 1.377 . S
C1275 C1274 1.524 . S
C1275 C1276 1.397 . S
C1275 C1280 1.363 . S
C1276 H1253 0.950 . S
C1276 C1275 1.397 . S
C1276 C1277 1.334 . S
C1277 H1254 0.950 . S
C1277 C1276 1.334 . S
C1277 C1278 1.287 . S
C1278 C1277 1.287 . S
C1278 C1279 1.524 . S
C1278 H1297 0.913 . S
C1279 H1255 0.950 . S
C1279 C1278 1.524 . S
C1279 C1280 1.415 . S
C1280 H1256 0.950 . S
C1280 C1275 1.363 . S
C1280 C1279 1.415 . S
C1281 H1257 0.951 . S
C1281 C1282 1.366 . S
C1281 C1283 1.388 . S
C1282 C1281 1.366 . S
C1282 C1286 1.385 . S
C1283 H1258 0.951 . S
C1283 C1281 1.388 . S
C1283 C1284 1.366 . S
C1284 C1283 1.366 . S
C1284 C1285 1.414 . S
C1284 C1287 1.499 . S
C1285 H1259 0.950 . S
C1285 C1284 1.414 . S
C1285 C1286 1.374 . S
C1286 H1260 0.950 . S
C1286 C1282 1.385 . S
C1286 C1285 1.374 . S
C1287 C1284 1.499 . S
C1287 C1288 1.373 . S
C1287 C1289 1.389 . S
C1288 H1261 0.950 . S
C1288 C1274 1.377 . S
C1288 C1287 1.373 . S
C1289 C1273 1.377 . S
C1289 C1287 1.389 . S
C1289 C1290 1.524 . S
C1290 C1289 1.524 . S
C1290 C1291 1.397 . S
C1290 C1295 1.363 . S
C1291 H1262 0.950 . S
C1291 C1290 1.397 . S
C1291 C1292 1.334 . S
C1292 H1263 0.950 . S
C1292 C1291 1.334 . S
C1292 C1293 1.287 . S
C1293 C1292 1.287 . S
C1293 C1294 1.524 . S
C1293 H1296 0.999 . S
C1294 H1264 0.950 . S
C1294 C1293 1.524 . S
C1294 C1295 1.415 . S
C1295 H1265 0.950 . S
C1295 C1290 1.363 . S
C1295 C1294 1.415 . S
H1296 C1293 0.999 . S
H1297 C1278 0.913 . S
H1298 C1316 0.951 . S
H1299 C1318 0.951 . S
H1300 C1320 0.950 . S
H1301 C1321 0.950 . S
H1302 C1323 0.950 . S
H1303 C1326 0.950 . S
H1304 C1327 0.950 . S
H1305 C1329 0.950 . S
H1306 C1330 0.950 . S
H1307 C1331 0.951 . S
H1308 C1333 0.951 1_554 S
H1309 C1335 0.950 1_554 S
H1310 C1336 0.950 . S
H1311 C1338 0.950 . S
H1312 C1341 0.950 . S
H1313 C1342 0.950 . S
H1314 C1344 0.950 . S
H1315 C1345 0.950 . S
C1316 H1298 0.951 . S
C1316 C1317 1.366 . S
C1316 C1318 1.388 . S
C1317 C1316 1.366 . S
C1317 C1321 1.385 . S
C1318 H1299 0.951 . S
C1318 C1316 1.388 . S
C1318 C1319 1.366 . S
C1319 C1318 1.366 . S
C1319 C1320 1.414 . S
C1319 C1322 1.499 . S
C1320 H1300 0.950 . S
C1320 C1319 1.414 . S
C1320 C1321 1.374 . S
C1321 H1301 0.950 . S
C1321 C1317 1.385 . S
C1321 C1320 1.374 . S
C1322 C1319 1.499 . S
C1322 C1323 1.373 . S
C1322 C1324 1.389 1_565 S
C1323 H1302 0.950 . S
C1323 C1322 1.373 . S
C1323 C1339 1.377 . S
C1324 C1322 1.389 1_545 S
C1324 C1325 1.524 . S
C1324 C1338 1.377 . S
C1325 C1324 1.524 . S
C1325 C1326 1.397 . S
C1325 C1330 1.363 . S
C1326 H1303 0.950 . S
C1326 C1325 1.397 . S
C1326 C1327 1.334 . S
C1327 H1304 0.950 . S
C1327 C1326 1.334 . S
C1327 C1328 1.287 . S
C1328 C1327 1.287 . S
C1328 C1329 1.524 . S
C1328 H1347 0.913 . S
C1329 H1305 0.950 . S
C1329 C1328 1.524 . S
C1329 C1330 1.415 . S
C1330 H1306 0.950 . S
C1330 C1325 1.363 . S
C1330 C1329 1.415 . S
C1331 H1307 0.951 . S
C1331 C1332 1.366 . S
C1331 C1333 1.388 . S
C1332 C1331 1.366 . S
C1332 C1336 1.385 . S
C1333 H1308 0.951 1_556 S
C1333 C1331 1.388 . S
C1333 C1334 1.366 1_556 S
C1334 C1333 1.366 1_554 S
C1334 C1335 1.414 1_554 S
C1334 C1337 1.499 . S
C1335 H1309 0.950 1_556 S
C1335 C1334 1.414 1_556 S
C1335 C1336 1.374 . S
C1336 H1310 0.950 . S
C1336 C1332 1.385 . S
C1336 C1335 1.374 . S
C1337 C1334 1.499 . S
C1337 C1338 1.373 . S
C1337 C1339 1.389 1_545 S
C1338 H1311 0.950 . S
C1338 C1324 1.377 . S
C1338 C1337 1.373 . S
C1339 C1323 1.377 . S
C1339 C1337 1.389 1_565 S
C1339 C1340 1.524 . S
C1340 C1339 1.524 . S
C1340 C1341 1.397 1_554 S
C1340 C1345 1.363 . S
C1341 H1312 0.950 . S
C1341 C1340 1.397 1_556 S
C1341 C1342 1.334 . S
C1342 H1313 0.950 . S
C1342 C1341 1.334 . S
C1342 C1343 1.287 . S
C1343 C1342 1.287 . S
C1343 C1344 1.524 1_556 S
C1343 H1346 0.999 . S
C1344 H1314 0.950 . S
C1344 C1343 1.524 1_554 S
C1344 C1345 1.415 . S
C1345 H1315 0.950 . S
C1345 C1340 1.363 . S
C1345 C1344 1.415 . S
H1346 C1343 0.999 . S
H1347 C1328 0.913 . S
H1348 C1366 0.951 . S
H1349 C1368 0.951 . S
H1350 C1370 0.950 . S
H1351 C1371 0.950 . S
H1352 C1373 0.950 . S
H1353 C1376 0.950 . S
H1354 C1377 0.950 . S
H1355 C1379 0.950 . S
H1356 C1380 0.950 . S
H1357 C1381 0.951 . S
H1358 C1383 0.951 . S
H1359 C1385 0.950 . S
H1360 C1386 0.950 . S
H1361 C1388 0.950 . S
H1362 C1391 0.950 . S
H1363 C1392 0.950 . S
H1364 C1394 0.950 . S
H1365 C1395 0.950 . S
C1366 H1348 0.951 . S
C1366 C1367 1.366 . S
C1366 C1368 1.388 . S
C1367 C1366 1.366 . S
C1367 C1371 1.385 . S
C1368 H1349 0.951 . S
C1368 C1366 1.388 . S
C1368 C1369 1.366 . S
C1369 C1368 1.366 . S
C1369 C1370 1.414 . S
C1369 C1372 1.499 . S
C1370 H1350 0.950 . S
C1370 C1369 1.414 . S
C1370 C1371 1.374 . S
C1371 H1351 0.950 . S
C1371 C1367 1.385 . S
C1371 C1370 1.374 . S
C1372 C1369 1.499 . S
C1372 C1373 1.373 . S
C1372 C1374 1.389 . S
C1373 H1352 0.950 . S
C1373 C1372 1.373 . S
C1373 C1389 1.377 . S
C1374 C1372 1.389 . S
C1374 C1375 1.524 . S
C1374 C1388 1.377 . S
C1375 C1374 1.524 . S
C1375 C1376 1.397 . S
C1375 C1380 1.363 . S
C1376 H1353 0.950 . S
C1376 C1375 1.397 . S
C1376 C1377 1.334 . S
C1377 H1354 0.950 . S
C1377 C1376 1.334 . S
C1377 C1378 1.287 . S
C1378 C1377 1.287 . S
C1378 C1379 1.524 . S
C1378 H1397 0.913 . S
C1379 H1355 0.950 . S
C1379 C1378 1.524 . S
C1379 C1380 1.415 . S
C1380 H1356 0.950 . S
C1380 C1375 1.363 . S
C1380 C1379 1.415 . S
C1381 H1357 0.951 . S
C1381 C1382 1.366 . S
C1381 C1383 1.388 . S
C1382 C1381 1.366 . S
C1382 C1386 1.385 . S
C1383 H1358 0.951 . S
C1383 C1381 1.388 . S
C1383 C1384 1.366 . S
C1384 C1383 1.366 . S
C1384 C1385 1.414 . S
C1384 C1387 1.499 . S
C1385 H1359 0.950 . S
C1385 C1384 1.414 . S
C1385 C1386 1.374 . S
C1386 H1360 0.950 . S
C1386 C1382 1.385 . S
C1386 C1385 1.374 . S
C1387 C1384 1.499 . S
C1387 C1388 1.373 . S
C1387 C1389 1.389 . S
C1388 H1361 0.950 . S
C1388 C1374 1.377 . S
C1388 C1387 1.373 . S
C1389 C1373 1.377 . S
C1389 C1387 1.389 . S
C1389 C1390 1.524 . S
C1390 C1389 1.524 . S
C1390 C1391 1.397 . S
C1390 C1395 1.363 . S
C1391 H1362 0.950 . S
C1391 C1390 1.397 . S
C1391 C1392 1.334 . S
C1392 H1363 0.950 . S
C1392 C1391 1.334 . S
C1392 C1393 1.287 . S
C1393 C1392 1.287 . S
C1393 C1394 1.524 . S
C1393 H1396 0.999 . S
C1394 H1364 0.950 . S
C1394 C1393 1.524 . S
C1394 C1395 1.415 . S
C1395 H1365 0.950 . S
C1395 C1390 1.363 . S
C1395 C1394 1.415 . S
H1396 C1393 0.999 . S
H1397 C1378 0.913 . S
H1398 C1416 0.951 . S
H1399 C1418 0.951 . S
H1400 C1420 0.950 1_565 S
H1401 C1421 0.950 . S
H1402 C1423 0.950 . S
H1403 C1426 0.950 . S
H1404 C1427 0.950 . S
H1405 C1429 0.950 . S
H1406 C1430 0.950 . S
H1407 C1431 0.951 . S
H1408 C1433 0.951 . S
H1409 C1435 0.950 1_545 S
H1410 C1436 0.950 . S
H1411 C1438 0.950 . S
H1412 C1441 0.988 . S
H1413 C1442 0.950 . S
H1414 C1444 0.950 . S
H1415 C1445 0.950 . S
C1416 H1398 0.951 . S
C1416 C1417 1.366 . S
C1416 C1418 1.388 . S
C1417 C1416 1.366 . S
C1417 C1421 1.385 . S
C1418 H1399 0.951 . S
C1418 C1416 1.388 . S
C1418 C1419 1.366 . S
C1419 C1418 1.366 . S
C1419 C1420 1.414 . S
C1419 C1422 1.499 . S
C1420 H1400 0.950 1_545 S
C1420 C1419 1.414 . S
C1420 C1421 1.374 . S
C1421 H1401 0.950 . S
C1421 C1417 1.385 . S
C1421 C1420 1.374 . S
C1422 C1419 1.499 . S
C1422 C1423 1.373 1_545 S
C1422 C1424 1.389 . S
C1423 H1402 0.950 . S
C1423 C1422 1.373 1_565 S
C1423 C1439 1.377 . S
C1424 C1422 1.389 . S
C1424 C1425 1.524 . S
C1424 C1438 1.377 . S
C1425 C1424 1.524 . S
C1425 C1426 1.397 . S
C1425 C1430 1.363 . S
C1426 H1403 0.950 . S
C1426 C1425 1.397 . S
C1426 C1427 1.334 . S
C1427 H1404 0.950 . S
C1427 C1426 1.334 . S
C1427 C1428 1.287 . S
C1428 C1427 1.287 . S
C1428 C1429 1.524 . S
C1428 H1447 0.913 . S
C1429 H1405 0.950 . S
C1429 C1428 1.524 . S
C1429 C1430 1.415 . S
C1430 H1406 0.950 . S
C1430 C1425 1.363 . S
C1430 C1429 1.415 . S
C1431 H1407 0.951 . S
C1431 C1432 1.366 . S
C1431 C1433 1.388 . S
C1432 C1431 1.366 . S
C1432 C1436 1.385 . S
C1433 H1408 0.951 . S
C1433 C1431 1.388 . S
C1433 C1434 1.366 . S
C1434 C1433 1.366 . S
C1434 C1435 1.414 . S
C1434 C1437 1.499 . S
C1435 H1409 0.950 1_565 S
C1435 C1434 1.414 . S
C1435 C1436 1.374 . S
C1436 H1410 0.950 . S
C1436 C1432 1.385 . S
C1436 C1435 1.374 . S
C1437 C1434 1.499 . S
C1437 C1438 1.373 1_565 S
C1437 C1439 1.389 . S
C1438 H1411 0.950 . S
C1438 C1424 1.377 . S
C1438 C1437 1.373 1_545 S
C1439 C1423 1.377 . S
C1439 C1437 1.389 . S
C1439 C1440 1.524 . S
C1440 C1439 1.524 . S
C1440 C1441 1.397 . S
C1440 C1445 1.363 . S
C1441 H1412 0.988 . S
C1441 C1440 1.397 . S
C1441 C1442 1.334 . S
C1442 H1413 0.950 . S
C1442 C1441 1.334 . S
C1442 C1443 1.287 . S
C1443 C1442 1.287 . S
C1443 C1444 1.524 . S
C1443 H1446 0.999 . S
C1444 H1414 0.950 . S
C1444 C1443 1.524 . S
C1444 C1445 1.415 . S
C1445 H1415 0.950 . S
C1445 C1440 1.363 . S
C1445 C1444 1.415 . S
H1446 C1443 0.999 . S
H1447 C1428 0.913 . S
H1448 C1466 0.951 . S
H1449 C1468 0.951 . S
H1450 C1470 0.950 . S
H1451 C1471 0.950 . S
H1452 C1473 0.950 . S
H1453 C1476 0.950 . S
H1454 C1477 0.950 . S
H1455 C1479 0.950 . S
H1456 C1480 0.950 . S
H1457 C1481 0.951 . S
H1458 C1483 0.951 . S
H1459 C1485 0.950 . S
H1460 C1486 0.950 . S
H1461 C1488 0.950 . S
H1462 C1491 0.950 . S
H1463 C1492 0.950 . S
H1464 C1494 0.950 . S
H1465 C1495 0.950 . S
C1466 H1448 0.951 . S
C1466 C1467 1.366 . S
C1466 C1468 1.388 . S
C1467 C1466 1.366 . S
C1467 C1471 1.385 . S
C1468 H1449 0.951 . S
C1468 C1466 1.388 . S
C1468 C1469 1.366 . S
C1469 C1468 1.366 . S
C1469 C1470 1.414 . S
C1469 C1472 1.499 . S
C1470 H1450 0.950 . S
C1470 C1469 1.414 . S
C1470 C1471 1.374 . S
C1471 H1451 0.950 . S
C1471 C1467 1.385 . S
C1471 C1470 1.374 . S
C1472 C1469 1.499 . S
C1472 C1473 1.373 . S
C1472 C1474 1.389 . S
C1473 H1452 0.950 . S
C1473 C1472 1.373 . S
C1473 C1489 1.377 . S
C1474 C1472 1.389 . S
C1474 C1475 1.524 . S
C1474 C1488 1.377 . S
C1475 C1474 1.524 . S
C1475 C1476 1.397 . S
C1475 C1480 1.363 . S
C1476 H1453 0.950 . S
C1476 C1475 1.397 . S
C1476 C1477 1.334 . S
C1477 H1454 0.950 . S
C1477 C1476 1.334 . S
C1477 C1478 1.287 . S
C1478 C1477 1.287 . S
C1478 C1479 1.524 . S
C1478 H1497 0.913 . S
C1479 H1455 0.950 . S
C1479 C1478 1.524 . S
C1479 C1480 1.415 . S
C1480 H1456 0.950 . S
C1480 C1475 1.363 . S
C1480 C1479 1.415 . S
C1481 H1457 0.951 . S
C1481 C1482 1.366 . S
C1481 C1483 1.388 . S
C1482 C1481 1.366 . S
C1482 C1486 1.385 . S
C1483 H1458 0.951 . S
C1483 C1481 1.388 . S
C1483 C1484 1.366 . S
C1484 C1483 1.366 . S
C1484 C1485 1.414 . S
C1484 C1487 1.499 . S
C1485 H1459 0.950 . S
C1485 C1484 1.414 . S
C1485 C1486 1.374 . S
C1486 H1460 0.950 . S
C1486 C1482 1.385 . S
C1486 C1485 1.374 . S
C1487 C1484 1.499 . S
C1487 C1488 1.373 . S
C1487 C1489 1.389 . S
C1488 H1461 0.950 . S
C1488 C1474 1.377 . S
C1488 C1487 1.373 . S
C1489 C1473 1.377 . S
C1489 C1487 1.389 . S
C1489 C1490 1.524 . S
C1490 C1489 1.524 . S
C1490 C1491 1.397 . S
C1490 C1495 1.363 . S
C1491 H1462 0.950 . S
C1491 C1490 1.397 . S
C1491 C1492 1.334 . S
C1492 H1463 0.950 . S
C1492 C1491 1.334 . S
C1492 C1493 1.287 . S
C1493 C1492 1.287 . S
C1493 C1494 1.524 . S
C1493 H1496 0.999 . S
C1494 H1464 0.950 . S
C1494 C1493 1.524 . S
C1494 C1495 1.415 . S
C1495 H1465 0.950 . S
C1495 C1490 1.363 . S
C1495 C1494 1.415 . S
H1496 C1493 0.999 . S
H1497 C1478 0.913 . S
H1498 C1516 0.951 . S
H1499 C1518 0.951 1_565 S
H1500 C1520 0.950 . S
H1501 C1521 0.950 . S
H1502 C1523 0.950 . S
H1503 C1526 0.950 . S
H1504 C1527 0.950 1_556 S
H1505 C1529 0.950 . S
H1506 C1530 0.950 . S
H1507 C1531 0.951 . S
H1508 C1533 0.951 1_545 S
H1509 C1535 0.950 . S
H1510 C1536 0.950 . S
H1511 C1538 0.950 . S
H1512 C1541 0.950 . S
H1513 C1542 0.950 . S
H1514 C1544 0.950 . S
H1515 C1545 0.950 . S
C1516 H1498 0.951 . S
C1516 C1517 1.366 . S
C1516 C1518 1.388 . S
C1517 C1516 1.366 . S
C1517 C1521 1.385 . S
C1518 H1499 0.951 1_545 S
C1518 C1516 1.388 . S
C1518 C1519 1.366 1_556 S
C1519 C1518 1.366 1_554 S
C1519 C1520 1.414 . S
C1519 C1522 1.499 . S
C1520 H1500 0.950 . S
C1520 C1519 1.414 . S
C1520 C1521 1.374 1_554 S
C1521 H1501 0.950 . S
C1521 C1517 1.385 . S
C1521 C1520 1.374 1_556 S
C1522 C1519 1.499 . S
C1522 C1523 1.373 . S
C1522 C1524 1.389 1_545 S
C1523 H1502 0.950 . S
C1523 C1522 1.373 . S
C1523 C1539 1.377 . S
C1524 C1522 1.389 1_565 S
C1524 C1525 1.524 . S
C1524 C1538 1.377 . S
C1525 C1524 1.524 . S
C1525 C1526 1.397 1_565 S
C1525 C1530 1.363 . S
C1526 H1503 0.950 . S
C1526 C1525 1.397 1_545 S
C1526 C1527 1.334 . S
C1527 H1504 0.950 1_554 S
C1527 C1526 1.334 . S
C1527 C1528 1.290 1_545 S
C1528 C1527 1.290 1_565 S
C1528 C1529 1.529 . S
C1528 H1547 0.902 1_554 S
C1529 H1505 0.950 . S
C1529 C1528 1.529 . S
C1529 C1530 1.415 . S
C1530 H1506 0.950 . S
C1530 C1525 1.363 . S
C1530 C1529 1.415 . S
C1531 H1507 0.951 . S
C1531 C1532 1.366 . S
C1531 C1533 1.388 . S
C1532 C1531 1.366 . S
C1532 C1536 1.385 . S
C1533 H1508 0.951 1_565 S
C1533 C1531 1.388 . S
C1533 C1534 1.366 . S
C1534 C1533 1.366 . S
C1534 C1535 1.414 . S
C1534 C1537 1.499 . S
C1535 H1509 0.950 . S
C1535 C1534 1.414 . S
C1535 C1536 1.374 . S
C1536 H1510 0.950 . S
C1536 C1532 1.385 . S
C1536 C1535 1.374 . S
C1537 C1534 1.499 . S
C1537 C1538 1.373 . S
C1537 C1539 1.389 1_565 S
C1538 H1511 0.950 . S
C1538 C1524 1.377 . S
C1538 C1537 1.373 . S
C1539 C1523 1.377 . S
C1539 C1537 1.389 1_545 S
C1539 C1540 1.524 . S
C1540 C1539 1.524 . S
C1540 C1541 1.397 1_545 S
C1540 C1545 1.363 . S
C1541 H1512 0.950 . S
C1541 C1540 1.397 1_565 S
C1541 C1542 1.334 . S
C1542 H1513 0.950 . S
C1542 C1541 1.334 . S
C1542 C1543 1.287 1_565 S
C1543 C1542 1.287 1_545 S
C1543 C1544 1.524 . S
C1543 H1546 0.999 . S
C1544 H1514 0.950 . S
C1544 C1543 1.524 . S
C1544 C1545 1.415 . S
C1545 H1515 0.950 . S
C1545 C1540 1.363 . S
C1545 C1544 1.415 . S
H1546 C1543 0.999 . S
H1547 C1528 0.902 1_556 S
H1548 C1566 0.951 1_554 S
H1549 C1568 0.951 . S
H1550 C1570 0.950 . S
H1551 C1571 0.950 . S
H1552 C1573 0.950 . S
H1553 C1576 0.950 . S
H1554 C1577 0.950 . S
H1555 C1579 0.950 . S
H1556 C1580 0.950 . S
H1557 C1581 0.951 . S
H1558 C1583 0.951 . S
H1559 C1585 0.950 . S
H1560 C1586 0.950 . S
H1561 C1588 0.950 . S
H1562 C1591 0.950 . S
H1563 C1592 0.950 . S
H1564 C1594 0.950 . S
H1565 C1595 0.950 . S
C1566 H1548 0.951 1_556 S
C1566 C1567 1.366 . S
C1566 C1568 1.388 . S
C1567 C1566 1.366 . S
C1567 C1571 1.385 . S
C1568 H1549 0.951 . S
C1568 C1566 1.388 . S
C1568 C1569 1.366 . S
C1569 C1568 1.366 . S
C1569 C1570 1.414 . S
C1569 C1572 1.499 . S
C1570 H1550 0.950 . S
C1570 C1569 1.414 . S
C1570 C1571 1.374 . S
C1571 H1551 0.950 . S
C1571 C1567 1.385 . S
C1571 C1570 1.374 . S
C1572 C1569 1.499 . S
C1572 C1573 1.373 . S
C1572 C1574 1.389 . S
C1573 H1552 0.950 . S
C1573 C1572 1.373 . S
C1573 C1589 1.377 . S
C1574 C1572 1.389 . S
C1574 C1575 1.524 . S
C1574 C1588 1.377 . S
C1575 C1574 1.524 . S
C1575 C1576 1.397 . S
C1575 C1580 1.363 . S
C1576 H1553 0.950 . S
C1576 C1575 1.397 . S
C1576 C1577 1.334 . S
C1577 H1554 0.950 . S
C1577 C1576 1.334 . S
C1577 C1578 1.287 . S
C1578 C1577 1.287 . S
C1578 C1579 1.524 . S
C1578 H1597 0.913 . S
C1579 H1555 0.950 . S
C1579 C1578 1.524 . S
C1579 C1580 1.415 . S
C1580 H1556 0.950 . S
C1580 C1575 1.363 . S
C1580 C1579 1.415 . S
C1581 H1557 0.951 . S
C1581 C1582 1.366 . S
C1581 C1583 1.388 . S
C1582 C1581 1.366 . S
C1582 C1586 1.385 . S
C1583 H1558 0.951 . S
C1583 C1581 1.388 . S
C1583 C1584 1.366 . S
C1584 C1583 1.366 . S
C1584 C1585 1.414 . S
C1584 C1587 1.499 . S
C1585 H1559 0.950 . S
C1585 C1584 1.414 . S
C1585 C1586 1.374 . S
C1586 H1560 0.950 . S
C1586 C1582 1.385 . S
C1586 C1585 1.374 . S
C1587 C1584 1.499 . S
C1587 C1588 1.373 . S
C1587 C1589 1.389 . S
C1588 H1561 0.950 . S
C1588 C1574 1.377 . S
C1588 C1587 1.373 . S
C1589 C1573 1.377 . S
C1589 C1587 1.389 . S
C1589 C1590 1.524 . S
C1590 C1589 1.524 . S
C1590 C1591 1.397 . S
C1590 C1595 1.363 . S
C1591 H1562 0.950 . S
C1591 C1590 1.397 . S
C1591 C1592 1.334 . S
C1592 H1563 0.950 . S
C1592 C1591 1.334 . S
C1592 C1593 1.287 . S
C1593 C1592 1.287 . S
C1593 C1594 1.524 . S
C1593 H1596 0.999 . S
C1594 H1564 0.950 . S
C1594 C1593 1.524 . S
C1594 C1595 1.415 . S
C1595 H1565 0.950 . S
C1595 C1590 1.363 . S
C1595 C1594 1.415 . S
H1596 C1593 0.999 . S
H1597 C1578 0.913 . S
H1598 C1616 0.951 . S
H1599 C1618 0.951 . S
H1600 C1620 0.950 . S
H1601 C1621 0.950 . S
H1602 C1623 0.950 . S
H1603 C1626 0.950 . S
H1604 C1627 0.950 . S
H1605 C1629 0.950 . S
H1606 C1630 0.950 . S
H1607 C1631 0.951 . S
H1608 C1633 0.951 . S
H1609 C1635 1.007 . S
H1610 C1636 0.950 . S
H1611 C1638 0.950 . S
H1612 C1641 0.950 . S
H1613 C1642 0.950 . S
H1614 C1644 0.950 . S
H1615 C1645 0.950 . S
C1616 H1598 0.951 . S
C1616 C1617 1.366 . S
C1616 C1618 1.388 . S
C1617 C1616 1.366 . S
C1617 C1621 1.385 . S
C1618 H1599 0.951 . S
C1618 C1616 1.388 . S
C1618 C1619 1.366 . S
C1619 C1618 1.366 . S
C1619 C1620 1.414 . S
C1619 C1622 1.499 . S
C1620 H1600 0.950 . S
C1620 C1619 1.414 . S
C1620 C1621 1.374 . S
C1621 H1601 0.950 . S
C1621 C1617 1.385 . S
C1621 C1620 1.374 . S
C1622 C1619 1.499 . S
C1622 C1623 1.373 1_545 S
C1622 C1624 1.389 . S
C1623 H1602 0.950 . S
C1623 C1622 1.373 1_565 S
C1623 C1639 1.377 . S
C1624 C1622 1.389 . S
C1624 C1625 1.524 . S
C1624 C1638 1.377 . S
C1625 C1624 1.524 . S
C1625 C1626 1.397 . S
C1625 C1630 1.363 . S
C1626 H1603 0.950 . S
C1626 C1625 1.397 . S
C1626 C1627 1.334 . S
C1627 H1604 0.950 . S
C1627 C1626 1.334 . S
C1627 C1628 1.287 . S
C1628 C1627 1.287 . S
C1628 C1629 1.524 . S
C1628 H1647 0.913 . S
C1629 H1605 0.950 . S
C1629 C1628 1.524 . S
C1629 C1630 1.415 . S
C1630 H1606 0.950 . S
C1630 C1625 1.363 . S
C1630 C1629 1.415 . S
C1631 H1607 0.951 . S
C1631 C1632 1.366 . S
C1631 C1633 1.388 . S
C1632 C1631 1.366 . S
C1632 C1636 1.385 . S
C1633 H1608 0.951 . S
C1633 C1631 1.388 . S
C1633 C1634 1.366 . S
C1634 C1633 1.366 . S
C1634 C1635 1.414 . S
C1634 C1637 1.499 . S
C1635 H1609 1.007 . S
C1635 C1634 1.414 . S
C1635 C1636 1.374 . S
C1636 H1610 0.950 . S
C1636 C1632 1.385 . S
C1636 C1635 1.374 . S
C1637 C1634 1.499 . S
C1637 C1638 1.373 1_565 S
C1637 C1639 1.389 . S
C1638 H1611 0.950 . S
C1638 C1624 1.377 . S
C1638 C1637 1.373 1_545 S
C1639 C1623 1.377 . S
C1639 C1637 1.389 . S
C1639 C1640 1.524 . S
C1640 C1639 1.524 . S
C1640 C1641 1.397 . S
C1640 C1645 1.363 . S
C1641 H1612 0.950 . S
C1641 C1640 1.397 . S
C1641 C1642 1.334 . S
C1642 H1613 0.950 . S
C1642 C1641 1.334 . S
C1642 C1643 1.287 . S
C1643 C1642 1.287 . S
C1643 C1644 1.524 . S
C1643 H1646 0.999 . S
C1644 H1614 0.950 . S
C1644 C1643 1.524 . S
C1644 C1645 1.415 . S
C1645 H1615 0.950 . S
C1645 C1640 1.363 . S
C1645 C1644 1.415 . S
H1646 C1643 0.999 . S
H1647 C1628 0.913 . S
H1648 C1666 0.951 . S
H1649 C1668 0.951 . S
H1650 C1670 0.950 . S
H1651 C1671 0.950 . S
H1652 C1673 0.950 . S
H1653 C1676 0.950 . S
H1654 C1677 0.950 . S
H1655 C1679 0.950 . S
H1656 C1680 0.950 . S
H1657 C1681 0.951 . S
H1658 C1683 0.951 . S
H1659 C1685 0.950 . S
H1660 C1686 0.950 . S
H1661 C1688 0.950 . S
H1662 C1691 0.950 . S
H1663 C1692 0.950 . S
H1664 C1694 0.950 . S
H1665 C1695 0.950 . S
C1666 H1648 0.951 . S
C1666 C1667 1.366 . S
C1666 C1668 1.388 . S
C1667 C1666 1.366 . S
C1667 C1671 1.385 . S
C1668 H1649 0.951 . S
C1668 C1666 1.388 . S
C1668 C1669 1.366 . S
C1669 C1668 1.366 . S
C1669 C1670 1.414 . S
C1669 C1672 1.499 . S
C1670 H1650 0.950 . S
C1670 C1669 1.414 . S
C1670 C1671 1.374 . S
C1671 H1651 0.950 . S
C1671 C1667 1.385 . S
C1671 C1670 1.374 . S
C1672 C1669 1.499 . S
C1672 C1673 1.373 . S
C1672 C1674 1.389 . S
C1673 H1652 0.950 . S
C1673 C1672 1.373 . S
C1673 C1689 1.377 . S
C1674 C1672 1.389 . S
C1674 C1675 1.524 . S
C1674 C1688 1.377 . S
C1675 C1674 1.524 . S
C1675 C1676 1.397 . S
C1675 C1680 1.363 . S
C1676 H1653 0.950 . S
C1676 C1675 1.397 . S
C1676 C1677 1.334 . S
C1677 H1654 0.950 . S
C1677 C1676 1.334 . S
C1677 C1678 1.287 . S
C1678 C1677 1.287 . S
C1678 C1679 1.524 . S
C1678 H1697 0.913 . S
C1679 H1655 0.950 . S
C1679 C1678 1.524 . S
C1679 C1680 1.415 . S
C1680 H1656 0.950 . S
C1680 C1675 1.363 . S
C1680 C1679 1.415 . S
C1681 H1657 0.951 . S
C1681 C1682 1.366 . S
C1681 C1683 1.388 . S
C1682 C1681 1.366 . S
C1682 C1686 1.385 . S
C1683 H1658 0.951 . S
C1683 C1681 1.388 . S
C1683 C1684 1.366 . S
C1684 C1683 1.366 . S
C1684 C1685 1.414 . S
C1684 C1687 1.499 . S
C1685 H1659 0.950 . S
C1685 C1684 1.414 . S
C1685 C1686 1.374 . S
C1686 H1660 0.950 . S
C1686 C1682 1.385 . S
C1686 C1685 1.374 . S
C1687 C1684 1.499 . S
C1687 C1688 1.373 . S
C1687 C1689 1.389 . S
C1688 H1661 0.950 . S
C1688 C1674 1.377 . S
C1688 C1687 1.373 . S
C1689 C1673 1.377 . S
C1689 C1687 1.389 . S
C1689 C1690 1.524 . S
C1690 C1689 1.524 . S
C1690 C1691 1.397 . S
C1690 C1695 1.363 . S
C1691 H1662 0.950 . S
C1691 C1690 1.397 . S
C1691 C1692 1.334 . S
C1692 H1663 0.950 . S
C1692 C1691 1.334 . S
C1692 C1693 1.287 . S
C1693 C1692 1.287 . S
C1693 C1694 1.524 . S
C1693 H1696 0.999 . S
C1694 H1664 0.950 . S
C1694 C1693 1.524 . S
C1694 C1695 1.415 . S
C1695 H1665 0.950 . S
C1695 C1690 1.363 . S
C1695 C1694 1.415 . S
H1696 C1693 0.999 . S
H1697 C1678 0.913 . S
H1698 C1716 0.951 . S
H1699 C1718 0.951 . S
H1700 C1720 0.950 . S
H1701 C1721 0.950 . S
H1702 C1723 0.950 . S
H1703 C1726 0.950 . S
H1704 C1727 0.950 . S
H1705 C1729 0.950 . S
H1706 C1730 0.950 . S
H1707 C1731 0.951 . S
H1708 C1733 0.951 . S
H1709 C1735 0.950 . S
H1710 C1736 0.950 . S
H1711 C1738 0.950 . S
H1712 C1741 0.950 . S
H1713 C1742 0.950 . S
H1714 C1744 0.950 . S
H1715 C1745 0.950 . S
C1716 H1698 0.951 . S
C1716 C1717 1.366 . S
C1716 C1718 1.388 . S
C1717 C1716 1.366 . S
C1717 C1721 1.385 . S
C1718 H1699 0.951 . S
C1718 C1716 1.388 . S
C1718 C1719 1.366 . S
C1719 C1718 1.366 . S
C1719 C1720 1.414 . S
C1719 C1722 1.499 . S
C1720 H1700 0.950 . S
C1720 C1719 1.414 . S
C1720 C1721 1.374 . S
C1721 H1701 0.950 . S
C1721 C1717 1.385 . S
C1721 C1720 1.374 . S
C1722 C1719 1.499 . S
C1722 C1723 1.373 . S
C1722 C1724 1.389 . S
C1723 H1702 0.950 . S
C1723 C1722 1.373 . S
C1723 C1739 1.377 . S
C1724 C1722 1.389 . S
C1724 C1725 1.524 . S
C1724 C1738 1.377 . S
C1725 C1724 1.524 . S
C1725 C1726 1.397 . S
C1725 C1730 1.363 . S
C1726 H1703 0.950 . S
C1726 C1725 1.397 . S
C1726 C1727 1.334 . S
C1727 H1704 0.950 . S
C1727 C1726 1.334 . S
C1727 C1728 1.287 . S
C1728 C1727 1.287 . S
C1728 C1729 1.524 . S
C1728 H1747 0.913 . S
C1729 H1705 0.950 . S
C1729 C1728 1.524 . S
C1729 C1730 1.415 . S
C1730 H1706 0.950 . S
C1730 C1725 1.363 . S
C1730 C1729 1.415 . S
C1731 H1707 0.951 . S
C1731 C1732 1.366 . S
C1731 C1733 1.388 . S
C1732 C1731 1.366 . S
C1732 C1736 1.385 . S
C1733 H1708 0.951 . S
C1733 C1731 1.388 . S
C1733 C1734 1.366 . S
C1734 C1733 1.366 . S
C1734 C1735 1.414 . S
C1734 C1737 1.499 . S
C1735 H1709 0.950 . S
C1735 C1734 1.414 . S
C1735 C1736 1.374 . S
C1736 H1710 0.950 . S
C1736 C1732 1.385 . S
C1736 C1735 1.374 . S
C1737 C1734 1.499 . S
C1737 C1738 1.373 . S
C1737 C1739 1.389 . S
C1738 H1711 0.950 . S
C1738 C1724 1.377 . S
C1738 C1737 1.373 . S
C1739 C1723 1.377 . S
C1739 C1737 1.389 . S
C1739 C1740 1.524 . S
C1740 C1739 1.524 . S
C1740 C1741 1.397 . S
C1740 C1745 1.363 . S
C1741 H1712 0.950 . S
C1741 C1740 1.397 . S
C1741 C1742 1.334 . S
C1742 H1713 0.950 . S
C1742 C1741 1.334 . S
C1742 C1743 1.287 . S
C1743 C1742 1.287 . S
C1743 C1744 1.524 . S
C1743 H1746 0.999 . S
C1744 H1714 0.950 . S
C1744 C1743 1.524 . S
C1744 C1745 1.415 . S
C1745 H1715 0.950 . S
C1745 C1740 1.363 . S
C1745 C1744 1.415 . S
H1746 C1743 0.999 . S
H1747 C1728 0.913 . S
H1748 C1766 0.951 . S
H1749 C1768 0.951 . S
H1750 C1770 0.950 . S
H1751 C1771 0.950 . S
H1752 C1773 0.950 . S
H1753 C1776 0.950 . S
H1754 C1777 0.950 . S
H1755 C1779 0.950 . S
H1756 C1780 0.950 . S
H1757 C1781 0.946 1_554 S
H1758 C1783 0.951 . S
H1759 C1785 0.950 . S
H1760 C1786 0.950 . S
H1761 C1788 0.950 . S
H1762 C1791 0.950 . S
H1763 C1792 0.950 . S
H1764 C1794 0.950 . S
H1765 C1795 0.950 . S
C1766 H1748 0.951 . S
C1766 C1767 1.366 . S
C1766 C1768 1.388 . S
C1767 C1766 1.366 . S
C1767 C1771 1.385 . S
C1768 H1749 0.951 . S
C1768 C1766 1.388 . S
C1768 C1769 1.366 . S
C1769 C1768 1.366 . S
C1769 C1770 1.414 . S
C1769 C1772 1.499 . S
C1770 H1750 0.950 . S
C1770 C1769 1.414 . S
C1770 C1771 1.374 . S
C1771 H1751 0.950 . S
C1771 C1767 1.385 . S
C1771 C1770 1.374 . S
C1772 C1769 1.499 . S
C1772 C1773 1.373 . S
C1772 C1774 1.389 . S
C1773 H1752 0.950 . S
C1773 C1772 1.373 . S
C1773 C1789 1.377 . S
C1774 C1772 1.389 . S
C1774 C1775 1.524 . S
C1774 C1788 1.377 . S
C1775 C1774 1.524 . S
C1775 C1776 1.397 . S
C1775 C1780 1.363 . S
C1776 H1753 0.950 . S
C1776 C1775 1.397 . S
C1776 C1777 1.334 . S
C1777 H1754 0.950 . S
C1777 C1776 1.334 . S
C1777 C1778 1.287 . S
C1778 C1777 1.287 . S
C1778 C1779 1.524 . S
C1778 H1797 0.913 . S
C1779 H1755 0.950 . S
C1779 C1778 1.524 . S
C1779 C1780 1.415 . S
C1780 H1756 0.950 . S
C1780 C1775 1.363 . S
C1780 C1779 1.415 . S
C1781 H1757 0.946 1_556 S
C1781 C1782 1.366 . S
C1781 C1783 1.388 . S
C1782 C1781 1.366 . S
C1782 C1786 1.385 . S
C1783 H1758 0.951 . S
C1783 C1781 1.388 . S
C1783 C1784 1.366 . S
C1784 C1783 1.366 . S
C1784 C1785 1.414 . S
C1784 C1787 1.499 . S
C1785 H1759 0.950 . S
C1785 C1784 1.414 . S
C1785 C1786 1.374 . S
C1786 H1760 0.950 . S
C1786 C1782 1.385 . S
C1786 C1785 1.374 . S
C1787 C1784 1.499 . S
C1787 C1788 1.373 . S
C1787 C1789 1.389 . S
C1788 H1761 0.950 . S
C1788 C1774 1.377 . S
C1788 C1787 1.373 . S
C1789 C1773 1.377 . S
C1789 C1787 1.389 . S
C1789 C1790 1.524 . S
C1790 C1789 1.524 . S
C1790 C1791 1.397 . S
C1790 C1795 1.363 . S
C1791 H1762 0.950 . S
C1791 C1790 1.397 . S
C1791 C1792 1.334 . S
C1792 H1763 0.950 . S
C1792 C1791 1.334 . S
C1792 C1793 1.287 . S
C1793 C1792 1.287 . S
C1793 C1794 1.524 . S
C1793 H1796 0.999 . S
C1794 H1764 0.950 . S
C1794 C1793 1.524 . S
C1794 C1795 1.415 . S
C1795 H1765 0.950 . S
C1795 C1790 1.363 . S
C1795 C1794 1.415 . S
H1796 C1793 0.999 . S
H1797 C1778 0.913 . S
H1798 C1816 0.951 . S
H1799 C1818 0.951 . S
H1800 C1820 0.950 . S
H1801 C1821 0.950 . S
H1802 C1823 0.950 . S
H1803 C1826 0.950 . S
H1804 C1827 0.950 . S
H1805 C1829 0.950 . S
H1806 C1830 0.950 . S
H1807 C1831 0.951 . S
H1808 C1833 0.951 . S
H1809 C1835 0.950 1_554 S
H1810 C1836 0.950 . S
H1811 C1838 0.950 . S
H1812 C1841 0.949 1_554 S
H1813 C1842 0.950 . S
H1814 C1844 0.950 . S
H1815 C1845 0.950 . S
C1816 H1798 0.951 . S
C1816 C1817 1.366 . S
C1816 C1818 1.388 . S
C1817 C1816 1.366 . S
C1817 C1821 1.385 . S
C1818 H1799 0.951 . S
C1818 C1816 1.388 . S
C1818 C1819 1.366 . S
C1819 C1818 1.366 . S
C1819 C1820 1.414 . S
C1819 C1822 1.499 . S
C1820 H1800 0.950 . S
C1820 C1819 1.414 . S
C1820 C1821 1.374 . S
C1821 H1801 0.950 . S
C1821 C1817 1.385 . S
C1821 C1820 1.374 . S
C1822 C1819 1.499 . S
C1822 C1823 1.373 . S
C1822 C1824 1.389 . S
C1823 H1802 0.950 . S
C1823 C1822 1.373 . S
C1823 C1839 1.377 . S
C1824 C1822 1.389 . S
C1824 C1825 1.524 . S
C1824 C1838 1.377 . S
C1825 C1824 1.524 . S
C1825 C1826 1.397 . S
C1825 C1830 1.363 . S
C1826 H1803 0.950 . S
C1826 C1825 1.397 . S
C1826 C1827 1.334 . S
C1827 H1804 0.950 . S
C1827 C1826 1.334 . S
C1827 C1828 1.287 . S
C1828 C1827 1.287 . S
C1828 C1829 1.524 . S
C1828 H1847 0.913 . S
C1829 H1805 0.950 . S
C1829 C1828 1.524 . S
C1829 C1830 1.415 . S
C1830 H1806 0.950 . S
C1830 C1825 1.363 . S
C1830 C1829 1.415 . S
C1831 H1807 0.951 . S
C1831 C1832 1.366 . S
C1831 C1833 1.388 . S
C1832 C1831 1.366 . S
C1832 C1836 1.385 . S
C1833 H1808 0.951 . S
C1833 C1831 1.388 . S
C1833 C1834 1.366 1_556 S
C1834 C1833 1.366 1_554 S
C1834 C1835 1.414 1_554 S
C1834 C1837 1.499 . S
C1835 H1809 0.950 1_556 S
C1835 C1834 1.414 1_556 S
C1835 C1836 1.374 . S
C1836 H1810 0.950 . S
C1836 C1832 1.385 . S
C1836 C1835 1.374 . S
C1837 C1834 1.499 . S
C1837 C1838 1.373 . S
C1837 C1839 1.389 . S
C1838 H1811 0.950 . S
C1838 C1824 1.377 . S
C1838 C1837 1.373 . S
C1839 C1823 1.377 . S
C1839 C1837 1.389 . S
C1839 C1840 1.524 . S
C1840 C1839 1.524 . S
C1840 C1841 1.397 1_554 S
C1840 C1845 1.363 . S
C1841 H1812 0.949 1_556 S
C1841 C1840 1.397 1_556 S
C1841 C1842 1.334 . S
C1842 H1813 0.950 . S
C1842 C1841 1.334 . S
C1842 C1843 1.287 . S
C1843 C1842 1.287 . S
C1843 C1844 1.524 . S
C1843 H1846 0.999 . S
C1844 H1814 0.950 . S
C1844 C1843 1.524 . S
C1844 C1845 1.415 1_556 S
C1845 H1815 0.950 . S
C1845 C1840 1.363 . S
C1845 C1844 1.415 1_554 S
H1846 C1843 0.999 . S
H1847 C1828 0.913 . S
H1848 C1866 0.951 . S
H1849 C1868 0.951 . S
H1850 C1870 0.950 . S
H1851 C1871 0.950 . S
H1852 C1873 0.950 . S
H1853 C1876 0.950 . S
H1854 C1877 0.950 . S
H1855 C1879 0.950 . S
H1856 C1880 0.950 . S
H1857 C1881 0.951 1_554 S
H1858 C1883 0.951 . S
H1859 C1885 0.950 . S
H1860 C1886 0.950 . S
H1861 C1888 0.950 . S
H1862 C1891 0.950 . S
H1863 C1892 0.950 . S
H1864 C1894 0.950 . S
H1865 C1895 0.950 . S
C1866 H1848 0.951 . S
C1866 C1867 1.366 . S
C1866 C1868 1.388 . S
C1867 C1866 1.366 . S
C1867 C1871 1.385 . S
C1868 H1849 0.951 . S
C1868 C1866 1.388 . S
C1868 C1869 1.366 . S
C1869 C1868 1.366 . S
C1869 C1870 1.414 . S
C1869 C1872 1.499 . S
C1870 H1850 0.950 . S
C1870 C1869 1.414 . S
C1870 C1871 1.374 . S
C1871 H1851 0.950 . S
C1871 C1867 1.385 . S
C1871 C1870 1.374 . S
C1872 C1869 1.499 . S
C1872 C1873 1.373 . S
C1872 C1874 1.389 . S
C1873 H1852 0.950 . S
C1873 C1872 1.373 . S
C1873 C1889 1.377 . S
C1874 C1872 1.389 . S
C1874 C1875 1.524 . S
C1874 C1888 1.377 . S
C1875 C1874 1.524 . S
C1875 C1876 1.397 . S
C1875 C1880 1.363 . S
C1876 H1853 0.950 . S
C1876 C1875 1.397 . S
C1876 C1877 1.334 . S
C1877 H1854 0.950 . S
C1877 C1876 1.334 . S
C1877 C1878 1.287 . S
C1878 C1877 1.287 . S
C1878 C1879 1.524 . S
C1878 H1897 0.913 . S
C1879 H1855 0.950 . S
C1879 C1878 1.524 . S
C1879 C1880 1.415 . S
C1880 H1856 0.950 . S
C1880 C1875 1.363 . S
C1880 C1879 1.415 . S
C1881 H1857 0.951 1_556 S
C1881 C1882 1.366 . S
C1881 C1883 1.388 . S
C1882 C1881 1.366 . S
C1882 C1886 1.385 . S
C1883 H1858 0.951 . S
C1883 C1881 1.388 . S
C1883 C1884 1.366 . S
C1884 C1883 1.366 . S
C1884 C1885 1.414 . S
C1884 C1887 1.499 . S
C1885 H1859 0.950 . S
C1885 C1884 1.414 . S
C1885 C1886 1.374 . S
C1886 H1860 0.950 . S
C1886 C1882 1.385 . S
C1886 C1885 1.374 . S
C1887 C1884 1.499 . S
C1887 C1888 1.373 . S
C1887 C1889 1.389 . S
C1888 H1861 0.950 . S
C1888 C1874 1.377 . S
C1888 C1887 1.373 . S
C1889 C1873 1.377 . S
C1889 C1887 1.389 . S
C1889 C1890 1.524 . S
C1890 C1889 1.524 . S
C1890 C1891 1.397 . S
C1890 C1895 1.363 . S
C1891 H1862 0.950 . S
C1891 C1890 1.397 . S
C1891 C1892 1.334 . S
C1892 H1863 0.950 . S
C1892 C1891 1.334 . S
C1892 C1893 1.287 . S
C1893 C1892 1.287 . S
C1893 C1894 1.524 . S
C1893 H1896 0.999 . S
C1894 H1864 0.950 . S
C1894 C1893 1.524 . S
C1894 C1895 1.415 . S
C1895 H1865 0.950 . S
C1895 C1890 1.363 . S
C1895 C1894 1.415 . S
H1896 C1893 0.999 . S
H1897 C1878 0.913 . S
H1898 C1916 0.951 . S
H1899 C1918 0.951 . S
H1900 C1920 0.950 . S
H1901 C1921 0.950 . S
H1902 C1923 0.950 . S
H1903 C1926 0.950 . S
H1904 C1927 0.950 . S
H1905 C1929 0.950 . S
H1906 C1930 0.950 . S
H1907 C1931 0.951 . S
H1908 C1933 0.951 . S
H1909 C1935 0.950 . S
H1910 C1936 0.950 . S
H1911 C1938 0.950 . S
H1912 C1941 0.950 . S
H1913 C1942 0.950 . S
H1914 C1944 0.950 . S
H1915 C1945 0.950 . S
C1916 H1898 0.951 . S
C1916 C1917 1.366 . S
C1916 C1918 1.388 . S
C1917 C1916 1.366 . S
C1917 C1921 1.385 . S
C1918 H1899 0.951 . S
C1918 C1916 1.388 . S
C1918 C1919 1.366 . S
C1919 C1918 1.366 . S
C1919 C1920 1.414 . S
C1919 C1922 1.499 . S
C1920 H1900 0.950 . S
C1920 C1919 1.414 . S
C1920 C1921 1.374 . S
C1921 H1901 0.950 . S
C1921 C1917 1.385 . S
C1921 C1920 1.374 . S
C1922 C1919 1.499 . S
C1922 C1923 1.373 . S
C1922 C1924 1.389 . S
C1923 H1902 0.950 . S
C1923 C1922 1.373 . S
C1923 C1939 1.377 . S
C1924 C1922 1.389 . S
C1924 C1925 1.524 . S
C1924 C1938 1.377 . S
C1925 C1924 1.524 . S
C1925 C1926 1.397 . S
C1925 C1930 1.363 . S
C1926 H1903 0.950 . S
C1926 C1925 1.397 . S
C1926 C1927 1.334 . S
C1927 H1904 0.950 . S
C1927 C1926 1.334 . S
C1927 C1928 1.287 . S
C1928 C1927 1.287 . S
C1928 C1929 1.524 . S
C1928 H1947 0.913 . S
C1929 H1905 0.950 . S
C1929 C1928 1.524 . S
C1929 C1930 1.415 . S
C1930 H1906 0.950 . S
C1930 C1925 1.363 . S
C1930 C1929 1.415 . S
C1931 H1907 0.951 . S
C1931 C1932 1.366 . S
C1931 C1933 1.388 . S
C1932 C1931 1.366 . S
C1932 C1936 1.385 . S
C1933 H1908 0.951 . S
C1933 C1931 1.388 . S
C1933 C1934 1.366 . S
C1934 C1933 1.366 . S
C1934 C1935 1.414 . S
C1934 C1937 1.499 . S
C1935 H1909 0.950 . S
C1935 C1934 1.414 . S
C1935 C1936 1.374 . S
C1936 H1910 0.950 . S
C1936 C1932 1.385 . S
C1936 C1935 1.374 . S
C1937 C1934 1.499 . S
C1937 C1938 1.373 . S
C1937 C1939 1.389 . S
C1938 H1911 0.950 . S
C1938 C1924 1.377 . S
C1938 C1937 1.373 . S
C1939 C1923 1.377 . S
C1939 C1937 1.389 . S
C1939 C1940 1.524 . S
C1940 C1939 1.524 . S
C1940 C1941 1.397 . S
C1940 C1945 1.363 . S
C1941 H1912 0.950 . S
C1941 C1940 1.397 . S
C1941 C1942 1.334 . S
C1942 H1913 0.950 . S
C1942 C1941 1.334 . S
C1942 C1943 1.287 . S
C1943 C1942 1.287 . S
C1943 C1944 1.524 . S
C1943 H1946 0.999 . S
C1944 H1914 0.950 . S
C1944 C1943 1.524 . S
C1944 C1945 1.415 . S
C1945 H1915 0.950 . S
C1945 C1940 1.363 . S
C1945 C1944 1.415 . S
H1946 C1943 0.999 . S
H1947 C1928 0.913 . S
H1948 C1966 0.951 . S
H1949 C1968 0.951 . S
H1950 C1970 0.950 . S
H1951 C1971 0.950 . S
H1952 C1973 0.950 . S
H1953 C1976 0.950 . S
H1954 C1977 0.950 . S
H1955 C1979 0.950 . S
H1956 C1980 0.950 . S
H1957 C1981 0.951 . S
H1958 C1983 0.951 . S
H1959 C1985 0.950 . S
H1960 C1986 0.950 . S
H1961 C1988 0.950 . S
H1962 C1991 0.950 . S
H1963 C1992 0.950 . S
H1964 C1994 0.950 . S
H1965 C1995 0.950 . S
C1966 H1948 0.951 . S
C1966 C1967 1.366 . S
C1966 C1968 1.388 . S
C1967 C1966 1.366 . S
C1967 C1971 1.385 . S
C1968 H1949 0.951 . S
C1968 C1966 1.388 . S
C1968 C1969 1.366 . S
C1969 C1968 1.366 . S
C1969 C1970 1.414 . S
C1969 C1972 1.499 . S
C1970 H1950 0.950 . S
C1970 C1969 1.414 . S
C1970 C1971 1.374 . S
C1971 H1951 0.950 . S
C1971 C1967 1.385 . S
C1971 C1970 1.374 . S
C1972 C1969 1.499 . S
C1972 C1973 1.373 . S
C1972 C1974 1.389 . S
C1973 H1952 0.950 . S
C1973 C1972 1.373 . S
C1973 C1989 1.377 . S
C1974 C1972 1.389 . S
C1974 C1975 1.524 . S
C1974 C1988 1.377 . S
C1975 C1974 1.524 . S
C1975 C1976 1.397 . S
C1975 C1980 1.363 . S
C1976 H1953 0.950 . S
C1976 C1975 1.397 . S
C1976 C1977 1.334 . S
C1977 H1954 0.950 . S
C1977 C1976 1.334 . S
C1977 C1978 1.287 . S
C1978 C1977 1.287 . S
C1978 C1979 1.524 . S
C1978 H1997 0.913 . S
C1979 H1955 0.950 . S
C1979 C1978 1.524 . S
C1979 C1980 1.415 . S
C1980 H1956 0.950 . S
C1980 C1975 1.363 . S
C1980 C1979 1.415 . S
C1981 H1957 0.951 . S
C1981 C1982 1.366 . S
C1981 C1983 1.388 . S
C1982 C1981 1.366 . S
C1982 C1986 1.385 . S
C1983 H1958 0.951 . S
C1983 C1981 1.388 . S
C1983 C1984 1.366 . S
C1984 C1983 1.366 . S
C1984 C1985 1.414 . S
C1984 C1987 1.499 . S
C1985 H1959 0.950 . S
C1985 C1984 1.414 . S
C1985 C1986 1.374 . S
C1986 H1960 0.950 . S
C1986 C1982 1.385 . S
C1986 C1985 1.374 . S
C1987 C1984 1.499 . S
C1987 C1988 1.373 . S
C1987 C1989 1.389 . S
C1988 H1961 0.950 . S
C1988 C1974 1.377 . S
C1988 C1987 1.373 . S
C1989 C1973 1.377 . S
C1989 C1987 1.389 . S
C1989 C1990 1.524 . S
C1990 C1989 1.524 . S
C1990 C1991 1.397 . S
C1990 C1995 1.363 . S
C1991 H1962 0.950 . S
C1991 C1990 1.397 . S
C1991 C1992 1.334 . S
C1992 H1963 0.950 . S
C1992 C1991 1.334 . S
C1992 C1993 1.287 . S
C1993 C1992 1.287 . S
C1993 C1994 1.524 . S
C1993 H1996 0.999 . S
C1994 H1964 0.950 . S
C1994 C1993 1.524 . S
C1994 C1995 1.415 . S
C1995 H1965 0.950 . S
C1995 C1990 1.363 . S
C1995 C1994 1.415 . S
H1996 C1993 0.999 . S
H1997 C1978 0.913 . S
H1998 C2016 0.951 . S
H1999 C2018 0.951 . S
H2000 C2020 0.950 . S
H2001 C2021 0.950 . S
H2002 C2023 0.950 . S
H2003 C2026 0.950 . S
H2004 C2027 0.950 . S
H2005 C2029 0.950 . S
H2006 C2030 0.950 . S
H2007 C2031 0.951 . S
H2008 C2033 0.951 . S
H2009 C2035 0.950 . S
H2010 C2036 0.950 . S
H2011 C2038 0.950 . S
H2012 C2041 0.950 . S
H2013 C2042 0.950 1_556 S
H2014 C2044 0.950 . S
H2015 C2045 0.950 . S
C2016 H1998 0.951 . S
C2016 C2017 1.366 . S
C2016 C2018 1.388 . S
C2017 C2016 1.366 . S
C2017 C2021 1.385 . S
C2018 H1999 0.951 . S
C2018 C2016 1.388 . S
C2018 C2019 1.366 . S
C2019 C2018 1.366 . S
C2019 C2020 1.414 . S
C2019 C2022 1.499 . S
C2020 H2000 0.950 . S
C2020 C2019 1.414 . S
C2020 C2021 1.374 . S
C2021 H2001 0.950 . S
C2021 C2017 1.385 . S
C2021 C2020 1.374 . S
C2022 C2019 1.499 . S
C2022 C2023 1.373 . S
C2022 C2024 1.389 . S
C2023 H2002 0.950 . S
C2023 C2022 1.373 . S
C2023 C2039 1.377 . S
C2024 C2022 1.389 . S
C2024 C2025 1.524 . S
C2024 C2038 1.377 . S
C2025 C2024 1.524 . S
C2025 C2026 1.397 . S
C2025 C2030 1.363 . S
C2026 H2003 0.950 . S
C2026 C2025 1.397 . S
C2026 C2027 1.334 . S
C2027 H2004 0.950 . S
C2027 C2026 1.334 . S
C2027 C2028 1.287 . S
C2028 C2027 1.287 . S
C2028 C2029 1.524 . S
C2028 H2047 0.913 . S
C2029 H2005 0.950 . S
C2029 C2028 1.524 . S
C2029 C2030 1.415 . S
C2030 H2006 0.950 . S
C2030 C2025 1.363 . S
C2030 C2029 1.415 . S
C2031 H2007 0.951 . S
C2031 C2032 1.366 . S
C2031 C2033 1.388 1_556 S
C2032 C2031 1.366 . S
C2032 C2036 1.385 . S
C2033 H2008 0.951 . S
C2033 C2031 1.388 1_554 S
C2033 C2034 1.366 . S
C2034 C2033 1.366 . S
C2034 C2035 1.414 1_554 S
C2034 C2037 1.499 . S
C2035 H2009 0.950 . S
C2035 C2034 1.414 1_556 S
C2035 C2036 1.374 . S
C2036 H2010 0.950 . S
C2036 C2032 1.385 . S
C2036 C2035 1.374 . S
C2037 C2034 1.499 . S
C2037 C2038 1.373 . S
C2037 C2039 1.389 . S
C2038 H2011 0.950 . S
C2038 C2024 1.377 . S
C2038 C2037 1.373 . S
C2039 C2023 1.377 . S
C2039 C2037 1.389 . S
C2039 C2040 1.524 . S
C2040 C2039 1.524 . S
C2040 C2041 1.397 . S
C2040 C2045 1.363 . S
C2041 H2012 0.950 . S
C2041 C2040 1.397 . S
C2041 C2042 1.334 . S
C2042 H2013 0.950 1_554 S
C2042 C2041 1.334 . S
C2042 C2043 1.287 . S
C2043 C2042 1.287 . S
C2043 C2044 1.524 . S
C2043 H2046 0.999 . S
C2044 H2014 0.950 . S
C2044 C2043 1.524 . S
C2044 C2045 1.415 . S
C2045 H2015 0.950 . S
C2045 C2040 1.363 . S
C2045 C2044 1.415 . S
H2046 C2043 0.999 . S
H2047 C2028 0.913 . S
H2048 C2066 0.951 . S
H2049 C2068 0.951 . S
H2050 C2070 0.950 . S
H2051 C2071 0.950 . S
H2052 C2073 0.950 . S
H2053 C2076 0.950 . S
H2054 C2077 0.950 . S
H2055 C2079 0.950 . S
H2056 C2080 0.950 . S
H2057 C2081 0.951 . S
H2058 C2083 0.951 . S
H2059 C2085 0.950 . S
H2060 C2086 0.950 . S
H2061 C2088 0.950 . S
H2062 C2091 0.950 . S
H2063 C2092 0.950 . S
H2064 C2094 0.950 . S
H2065 C2095 0.950 . S
C2066 H2048 0.951 . S
C2066 C2067 1.366 . S
C2066 C2068 1.388 . S
C2067 C2066 1.366 . S
C2067 C2071 1.385 . S
C2068 H2049 0.951 . S
C2068 C2066 1.388 . S
C2068 C2069 1.366 . S
C2069 C2068 1.366 . S
C2069 C2070 1.414 . S
C2069 C2072 1.499 . S
C2070 H2050 0.950 . S
C2070 C2069 1.414 . S
C2070 C2071 1.374 . S
C2071 H2051 0.950 . S
C2071 C2067 1.385 . S
C2071 C2070 1.374 . S
C2072 C2069 1.499 . S
C2072 C2073 1.373 . S
C2072 C2074 1.389 . S
C2073 H2052 0.950 . S
C2073 C2072 1.373 . S
C2073 C2089 1.377 . S
C2074 C2072 1.389 . S
C2074 C2075 1.524 . S
C2074 C2088 1.377 . S
C2075 C2074 1.524 . S
C2075 C2076 1.397 . S
C2075 C2080 1.363 . S
C2076 H2053 0.950 . S
C2076 C2075 1.397 . S
C2076 C2077 1.334 . S
C2077 H2054 0.950 . S
C2077 C2076 1.334 . S
C2077 C2078 1.287 . S
C2078 C2077 1.287 . S
C2078 C2079 1.524 . S
C2078 H2097 0.913 . S
C2079 H2055 0.950 . S
C2079 C2078 1.524 . S
C2079 C2080 1.415 . S
C2080 H2056 0.950 . S
C2080 C2075 1.363 . S
C2080 C2079 1.415 . S
C2081 H2057 0.951 . S
C2081 C2082 1.366 . S
C2081 C2083 1.388 . S
C2082 C2081 1.366 . S
C2082 C2086 1.385 . S
C2083 H2058 0.951 . S
C2083 C2081 1.388 . S
C2083 C2084 1.366 . S
C2084 C2083 1.366 . S
C2084 C2085 1.414 . S
C2084 C2087 1.499 . S
C2085 H2059 0.950 . S
C2085 C2084 1.414 . S
C2085 C2086 1.374 . S
C2086 H2060 0.950 . S
C2086 C2082 1.385 . S
C2086 C2085 1.374 . S
C2087 C2084 1.499 . S
C2087 C2088 1.373 . S
C2087 C2089 1.389 . S
C2088 H2061 0.950 . S
C2088 C2074 1.377 . S
C2088 C2087 1.373 . S
C2089 C2073 1.377 . S
C2089 C2087 1.389 . S
C2089 C2090 1.524 . S
C2090 C2089 1.524 . S
C2090 C2091 1.397 . S
C2090 C2095 1.363 . S
C2091 H2062 0.950 . S
C2091 C2090 1.397 . S
C2091 C2092 1.334 . S
C2092 H2063 0.950 . S
C2092 C2091 1.334 . S
C2092 C2093 1.287 . S
C2093 C2092 1.287 . S
C2093 C2094 1.524 . S
C2093 H2096 0.999 . S
C2094 H2064 0.950 . S
C2094 C2093 1.524 . S
C2094 C2095 1.415 . S
C2095 H2065 0.950 . S
C2095 C2090 1.363 . S
C2095 C2094 1.415 . S
H2096 C2093 0.999 . S
H2097 C2078 0.913 . S
H2098 C2116 0.951 . S
H2099 C2118 0.951 . S
H2100 C2120 0.950 . S
H2101 C2121 0.950 . S
H2102 C2123 0.950 . S
H2103 C2126 0.950 . S
H2104 C2127 0.950 . S
H2105 C2129 0.950 . S
H2106 C2130 0.950 . S
H2107 C2131 0.951 . S
H2108 C2133 0.951 . S
H2109 C2135 0.950 . S
H2110 C2136 0.950 . S
H2111 C2138 0.950 . S
H2112 C2141 0.950 . S
H2113 C2142 0.950 . S
H2114 C2144 0.950 . S
H2115 C2145 0.950 . S
C2116 H2098 0.951 . S
C2116 C2117 1.366 . S
C2116 C2118 1.388 . S
C2117 C2116 1.366 . S
C2117 C2121 1.385 . S
C2118 H2099 0.951 . S
C2118 C2116 1.388 . S
C2118 C2119 1.366 . S
C2119 C2118 1.366 . S
C2119 C2120 1.414 . S
C2119 C2122 1.499 . S
C2120 H2100 0.950 . S
C2120 C2119 1.414 . S
C2120 C2121 1.374 . S
C2121 H2101 0.950 . S
C2121 C2117 1.385 . S
C2121 C2120 1.374 . S
C2122 C2119 1.499 . S
C2122 C2123 1.373 . S
C2122 C2124 1.389 . S
C2123 H2102 0.950 . S
C2123 C2122 1.373 . S
C2123 C2139 1.377 1_455 S
C2124 C2122 1.389 . S
C2124 C2125 1.524 . S
C2124 C2138 1.377 1_455 S
C2125 C2124 1.524 . S
C2125 C2126 1.397 . S
C2125 C2130 1.363 . S
C2126 H2103 0.950 . S
C2126 C2125 1.397 . S
C2126 C2127 1.334 . S
C2127 H2104 0.950 . S
C2127 C2126 1.334 . S
C2127 C2128 1.287 . S
C2128 C2127 1.287 . S
C2128 C2129 1.524 . S
C2128 H2147 0.913 . S
C2129 H2105 0.950 . S
C2129 C2128 1.524 . S
C2129 C2130 1.415 . S
C2130 H2106 0.950 . S
C2130 C2125 1.363 . S
C2130 C2129 1.415 . S
C2131 H2107 0.951 . S
C2131 C2132 1.366 . S
C2131 C2133 1.388 . S
C2132 C2131 1.366 . S
C2132 C2136 1.385 . S
C2133 H2108 0.951 . S
C2133 C2131 1.388 . S
C2133 C2134 1.366 . S
C2134 C2133 1.366 . S
C2134 C2135 1.414 . S
C2134 C2137 1.499 . S
C2135 H2109 0.950 . S
C2135 C2134 1.414 . S
C2135 C2136 1.374 . S
C2136 H2110 0.950 . S
C2136 C2132 1.385 . S
C2136 C2135 1.374 . S
C2137 C2134 1.499 . S
C2137 C2138 1.373 . S
C2137 C2139 1.389 . S
C2138 H2111 0.950 . S
C2138 C2124 1.377 1_655 S
C2138 C2137 1.373 . S
C2139 C2123 1.377 1_655 S
C2139 C2137 1.389 . S
C2139 C2140 1.524 . S
C2140 C2139 1.524 . S
C2140 C2141 1.397 . S
C2140 C2145 1.363 . S
C2141 H2112 0.950 . S
C2141 C2140 1.397 . S
C2141 C2142 1.334 . S
C2142 H2113 0.950 . S
C2142 C2141 1.334 . S
C2142 C2143 1.287 1_565 S
C2143 C2142 1.287 1_545 S
C2143 C2144 1.524 . S
C2143 H2146 0.999 . S
C2144 H2114 0.950 . S
C2144 C2143 1.524 . S
C2144 C2145 1.415 1_545 S
C2145 H2115 0.950 . S
C2145 C2140 1.363 . S
C2145 C2144 1.415 1_565 S
H2146 C2143 0.999 . S
H2147 C2128 0.913 . S
H2148 C2166 0.951 . S
H2149 C2168 0.951 . S
H2150 C2170 0.950 . S
H2151 C2171 0.950 . S
H2152 C2173 0.950 . S
H2153 C2176 0.950 . S
H2154 C2177 0.950 . S
H2155 C2179 0.950 . S
H2156 C2180 0.950 . S
H2157 C2181 0.951 . S
H2158 C2183 0.951 . S
H2159 C2185 0.950 . S
H2160 C2186 0.950 . S
H2161 C2188 0.950 . S
H2162 C2191 0.950 . S
H2163 C2192 0.950 . S
H2164 C2194 0.950 . S
H2165 C2195 0.950 . S
C2166 H2148 0.951 . S
C2166 C2167 1.366 . S
C2166 C2168 1.388 . S
C2167 C2166 1.366 . S
C2167 C2171 1.385 . S
C2168 H2149 0.951 . S
C2168 C2166 1.388 . S
C2168 C2169 1.366 . S
C2169 C2168 1.366 . S
C2169 C2170 1.414 . S
C2169 C2172 1.499 . S
C2170 H2150 0.950 . S
C2170 C2169 1.414 . S
C2170 C2171 1.374 . S
C2171 H2151 0.950 . S
C2171 C2167 1.385 . S
C2171 C2170 1.374 . S
C2172 C2169 1.499 . S
C2172 C2173 1.373 . S
C2172 C2174 1.389 . S
C2173 H2152 0.950 . S
C2173 C2172 1.373 . S
C2173 C2189 1.377 . S
C2174 C2172 1.389 . S
C2174 C2175 1.524 . S
C2174 C2188 1.377 . S
C2175 C2174 1.524 . S
C2175 C2176 1.397 . S
C2175 C2180 1.363 . S
C2176 H2153 0.950 . S
C2176 C2175 1.397 . S
C2176 C2177 1.334 . S
C2177 H2154 0.950 . S
C2177 C2176 1.334 . S
C2177 C2178 1.287 . S
C2178 C2177 1.287 . S
C2178 C2179 1.524 . S
C2178 H2197 0.913 . S
C2179 H2155 0.950 . S
C2179 C2178 1.524 . S
C2179 C2180 1.415 . S
C2180 H2156 0.950 . S
C2180 C2175 1.363 . S
C2180 C2179 1.415 . S
C2181 H2157 0.951 . S
C2181 C2182 1.366 . S
C2181 C2183 1.388 . S
C2182 C2181 1.366 . S
C2182 C2186 1.385 . S
C2183 H2158 0.951 . S
C2183 C2181 1.388 . S
C2183 C2184 1.366 . S
C2184 C2183 1.366 . S
C2184 C2185 1.414 . S
C2184 C2187 1.499 . S
C2185 H2159 0.950 . S
C2185 C2184 1.414 . S
C2185 C2186 1.374 . S
C2186 H2160 0.950 . S
C2186 C2182 1.385 . S
C2186 C2185 1.374 . S
C2187 C2184 1.499 . S
C2187 C2188 1.373 . S
C2187 C2189 1.389 . S
C2188 H2161 0.950 . S
C2188 C2174 1.377 . S
C2188 C2187 1.373 . S
C2189 C2173 1.377 . S
C2189 C2187 1.389 . S
C2189 C2190 1.524 . S
C2190 C2189 1.524 . S
C2190 C2191 1.397 . S
C2190 C2195 1.363 . S
C2191 H2162 0.950 . S
C2191 C2190 1.397 . S
C2191 C2192 1.334 . S
C2192 H2163 0.950 . S
C2192 C2191 1.334 . S
C2192 C2193 1.287 . S
C2193 C2192 1.287 . S
C2193 C2194 1.524 . S
C2193 H2196 0.999 . S
C2194 H2164 0.950 . S
C2194 C2193 1.524 . S
C2194 C2195 1.415 . S
C2195 H2165 0.950 . S
C2195 C2190 1.363 . S
C2195 C2194 1.415 . S
H2196 C2193 0.999 . S
H2197 C2178 0.913 . S
H2198 C2216 0.951 . S
H2199 C2218 0.951 . S
H2200 C2220 0.950 . S
H2201 C2221 0.950 . S
H2202 C2223 0.950 . S
H2203 C2226 0.950 . S
H2204 C2227 0.950 . S
H2205 C2229 0.950 . S
H2206 C2230 0.950 . S
H2207 C2231 0.951 . S
H2208 C2233 0.951 . S
H2209 C2235 0.950 . S
H2210 C2236 0.950 . S
H2211 C2238 0.950 . S
H2212 C2241 0.950 . S
H2213 C2242 0.950 . S
H2214 C2244 0.950 . S
H2215 C2245 0.950 . S
C2216 H2198 0.951 . S
C2216 C2217 1.366 . S
C2216 C2218 1.388 . S
C2217 C2216 1.366 . S
C2217 C2221 1.385 . S
C2218 H2199 0.951 . S
C2218 C2216 1.388 . S
C2218 C2219 1.366 . S
C2219 C2218 1.366 . S
C2219 C2220 1.414 . S
C2219 C2222 1.499 . S
C2220 H2200 0.950 . S
C2220 C2219 1.414 . S
C2220 C2221 1.374 . S
C2221 H2201 0.950 . S
C2221 C2217 1.385 . S
C2221 C2220 1.374 . S
C2222 C2219 1.499 . S
C2222 C2223 1.373 . S
C2222 C2224 1.389 . S
C2223 H2202 0.950 . S
C2223 C2222 1.373 . S
C2223 C2239 1.377 . S
C2224 C2222 1.389 . S
C2224 C2225 1.524 . S
C2224 C2238 1.377 . S
C2225 C2224 1.524 . S
C2225 C2226 1.397 . S
C2225 C2230 1.363 . S
C2226 H2203 0.950 . S
C2226 C2225 1.397 . S
C2226 C2227 1.334 . S
C2227 H2204 0.950 . S
C2227 C2226 1.334 . S
C2227 C2228 1.287 . S
C2228 C2227 1.287 . S
C2228 C2229 1.524 . S
C2228 H2247 0.913 1_556 S
C2229 H2205 0.950 . S
C2229 C2228 1.524 . S
C2229 C2230 1.415 . S
C2230 H2206 0.950 . S
C2230 C2225 1.363 . S
C2230 C2229 1.415 . S
C2231 H2207 0.951 . S
C2231 C2232 1.366 . S
C2231 C2233 1.388 . S
C2232 C2231 1.366 . S
C2232 C2236 1.385 . S
C2233 H2208 0.951 . S
C2233 C2231 1.388 . S
C2233 C2234 1.366 . S
C2234 C2233 1.366 . S
C2234 C2235 1.414 . S
C2234 C2237 1.499 . S
C2235 H2209 0.950 . S
C2235 C2234 1.414 . S
C2235 C2236 1.374 . S
C2236 H2210 0.950 . S
C2236 C2232 1.385 . S
C2236 C2235 1.374 . S
C2237 C2234 1.499 . S
C2237 C2238 1.373 . S
C2237 C2239 1.389 . S
C2238 H2211 0.950 . S
C2238 C2224 1.377 . S
C2238 C2237 1.373 . S
C2239 C2223 1.377 . S
C2239 C2237 1.389 . S
C2239 C2240 1.524 . S
C2240 C2239 1.524 . S
C2240 C2241 1.397 . S
C2240 C2245 1.363 . S
C2241 H2212 0.950 . S
C2241 C2240 1.397 . S
C2241 C2242 1.334 . S
C2242 H2213 0.950 . S
C2242 C2241 1.334 . S
C2242 C2243 1.287 . S
C2243 C2242 1.287 . S
C2243 C2244 1.524 . S
C2243 H2246 0.999 . S
C2244 H2214 0.950 . S
C2244 C2243 1.524 . S
C2244 C2245 1.415 . S
C2245 H2215 0.950 . S
C2245 C2240 1.363 . S
C2245 C2244 1.415 . S
H2246 C2243 0.999 . S
H2247 C2228 0.913 1_554 S
H2248 C2266 0.951 . S
H2249 C2268 0.951 . S
H2250 C2270 0.950 . S
H2251 C2271 0.950 . S
H2252 C2273 0.950 . S
H2253 C2276 0.950 . S
H2254 C2277 0.950 . S
H2255 C2279 0.950 . S
H2256 C2280 0.950 . S
H2257 C2281 0.951 . S
H2258 C2283 0.951 . S
H2259 C2285 0.950 . S
H2260 C2286 0.950 . S
H2261 C2288 0.950 . S
H2262 C2291 0.950 . S
H2263 C2292 0.950 . S
H2264 C2294 0.950 . S
H2265 C2295 0.950 . S
C2266 H2248 0.951 . S
C2266 C2267 1.366 . S
C2266 C2268 1.388 . S
C2267 C2266 1.366 . S
C2267 C2271 1.385 . S
C2268 H2249 0.951 . S
C2268 C2266 1.388 . S
C2268 C2269 1.366 . S
C2269 C2268 1.366 . S
C2269 C2270 1.414 . S
C2269 C2272 1.499 . S
C2270 H2250 0.950 . S
C2270 C2269 1.414 . S
C2270 C2271 1.374 . S
C2271 H2251 0.950 . S
C2271 C2267 1.385 . S
C2271 C2270 1.374 . S
C2272 C2269 1.499 . S
C2272 C2273 1.373 . S
C2272 C2274 1.389 . S
C2273 H2252 0.950 . S
C2273 C2272 1.373 . S
C2273 C2289 1.377 . S
C2274 C2272 1.389 . S
C2274 C2275 1.524 . S
C2274 C2288 1.377 . S
C2275 C2274 1.524 . S
C2275 C2276 1.397 . S
C2275 C2280 1.363 . S
C2276 H2253 0.950 . S
C2276 C2275 1.397 . S
C2276 C2277 1.334 . S
C2277 H2254 0.950 . S
C2277 C2276 1.334 . S
C2277 C2278 1.287 . S
C2278 C2277 1.287 . S
C2278 C2279 1.524 1_554 S
C2278 H2297 0.913 . S
C2279 H2255 0.950 . S
C2279 C2278 1.524 1_556 S
C2279 C2280 1.415 1_556 S
C2280 H2256 0.950 . S
C2280 C2275 1.363 . S
C2280 C2279 1.415 1_554 S
C2281 H2257 0.951 . S
C2281 C2282 1.366 . S
C2281 C2283 1.388 . S
C2282 C2281 1.366 . S
C2282 C2286 1.385 . S
C2283 H2258 0.951 . S
C2283 C2281 1.388 . S
C2283 C2284 1.366 . S
C2284 C2283 1.366 . S
C2284 C2285 1.414 . S
C2284 C2287 1.499 . S
C2285 H2259 0.950 . S
C2285 C2284 1.414 . S
C2285 C2286 1.374 . S
C2286 H2260 0.950 . S
C2286 C2282 1.385 . S
C2286 C2285 1.374 . S
C2287 C2284 1.499 . S
C2287 C2288 1.373 . S
C2287 C2289 1.389 . S
C2288 H2261 0.950 . S
C2288 C2274 1.377 . S
C2288 C2287 1.373 . S
C2289 C2273 1.377 . S
C2289 C2287 1.389 . S
C2289 C2290 1.524 . S
C2290 C2289 1.524 . S
C2290 C2291 1.397 . S
C2290 C2295 1.363 . S
C2291 H2262 0.950 . S
C2291 C2290 1.397 . S
C2291 C2292 1.334 . S
C2292 H2263 0.950 . S
C2292 C2291 1.334 . S
C2292 C2293 1.287 . S
C2293 C2292 1.287 . S
C2293 C2294 1.524 . S
C2293 H2296 0.999 . S
C2294 H2264 0.950 . S
C2294 C2293 1.524 . S
C2294 C2295 1.415 . S
C2295 H2265 0.950 . S
C2295 C2290 1.363 . S
C2295 C2294 1.415 . S
H2296 C2293 0.999 . S
H2297 C2278 0.913 . S
H2298 C2316 0.951 . S
H2299 C2318 0.951 . S
H2300 C2320 0.950 . S
H2301 C2321 0.950 . S
H2302 C2323 0.950 . S
H2303 C2326 0.950 . S
H2304 C2327 0.950 . S
H2305 C2329 0.950 1_545 S
H2306 C2330 0.950 . S
H2307 C2331 0.951 . S
H2308 C2333 0.951 . S
H2309 C2335 0.950 . S
H2310 C2336 0.950 . S
H2311 C2338 0.950 . S
H2312 C2341 0.950 . S
H2313 C2342 0.950 . S
H2314 C2344 0.950 . S
H2315 C2345 0.950 . S
C2316 H2298 0.951 . S
C2316 C2317 1.366 . S
C2316 C2318 1.388 . S
C2317 C2316 1.366 . S
C2317 C2321 1.385 . S
C2318 H2299 0.951 . S
C2318 C2316 1.388 . S
C2318 C2319 1.366 . S
C2319 C2318 1.366 . S
C2319 C2320 1.414 . S
C2319 C2322 1.499 . S
C2320 H2300 0.950 . S
C2320 C2319 1.414 . S
C2320 C2321 1.374 . S
C2321 H2301 0.950 . S
C2321 C2317 1.385 . S
C2321 C2320 1.374 . S
C2322 C2319 1.499 . S
C2322 C2323 1.373 . S
C2322 C2324 1.389 . S
C2323 H2302 0.950 . S
C2323 C2322 1.373 . S
C2323 C2339 1.377 . S
C2324 C2322 1.389 . S
C2324 C2325 1.524 . S
C2324 C2338 1.377 . S
C2325 C2324 1.524 . S
C2325 C2326 1.397 . S
C2325 C2330 1.363 . S
C2326 H2303 0.950 . S
C2326 C2325 1.397 . S
C2326 C2327 1.334 . S
C2327 H2304 0.950 . S
C2327 C2326 1.334 . S
C2327 C2328 1.287 . S
C2328 C2327 1.287 . S
C2328 C2329 1.524 . S
C2328 H2347 0.913 . S
C2329 H2305 0.950 1_565 S
C2329 C2328 1.524 . S
C2329 C2330 1.415 . S
C2330 H2306 0.950 . S
C2330 C2325 1.363 . S
C2330 C2329 1.415 . S
C2331 H2307 0.951 . S
C2331 C2332 1.366 . S
C2331 C2333 1.388 . S
C2332 C2331 1.366 . S
C2332 C2336 1.385 . S
C2333 H2308 0.951 . S
C2333 C2331 1.388 . S
C2333 C2334 1.366 . S
C2334 C2333 1.366 . S
C2334 C2335 1.414 . S
C2334 C2337 1.499 . S
C2335 H2309 0.950 . S
C2335 C2334 1.414 . S
C2335 C2336 1.374 . S
C2336 H2310 0.950 . S
C2336 C2332 1.385 . S
C2336 C2335 1.374 . S
C2337 C2334 1.499 . S
C2337 C2338 1.373 . S
C2337 C2339 1.389 . S
C2338 H2311 0.950 . S
C2338 C2324 1.377 . S
C2338 C2337 1.373 . S
C2339 C2323 1.377 . S
C2339 C2337 1.389 . S
C2339 C2340 1.524 . S
C2340 C2339 1.524 . S
C2340 C2341 1.397 . S
C2340 C2345 1.363 . S
C2341 H2312 0.950 . S
C2341 C2340 1.397 . S
C2341 C2342 1.334 . S
C2342 H2313 0.950 . S
C2342 C2341 1.334 . S
C2342 C2343 1.287 . S
C2343 C2342 1.287 . S
C2343 C2344 1.524 . S
C2343 H2346 0.999 . S
C2344 H2314 0.950 . S
C2344 C2343 1.524 . S
C2344 C2345 1.415 . S
C2345 H2315 0.950 . S
C2345 C2340 1.363 . S
C2345 C2344 1.415 . S
H2346 C2343 0.999 . S
H2347 C2328 0.913 . S
H2348 C2366 0.951 . S
H2349 C2368 0.951 . S
H2350 C2370 0.950 . S
H2351 C2371 0.950 . S
H2352 C2373 0.950 . S
H2353 C2376 0.950 . S
H2354 C2377 0.950 . S
H2355 C2379 0.950 . S
H2356 C2380 0.950 . S
H2357 C2381 0.951 . S
H2358 C2383 0.951 . S
H2359 C2385 0.950 . S
H2360 C2386 0.950 . S
H2361 C2388 0.950 . S
H2362 C2391 0.950 . S
H2363 C2392 0.950 . S
H2364 C2394 0.950 . S
H2365 C2395 0.950 . S
C2366 H2348 0.951 . S
C2366 C2367 1.366 . S
C2366 C2368 1.388 . S
C2367 C2366 1.366 . S
C2367 C2371 1.385 . S
C2368 H2349 0.951 . S
C2368 C2366 1.388 . S
C2368 C2369 1.366 . S
C2369 C2368 1.366 . S
C2369 C2370 1.414 . S
C2369 C2372 1.499 . S
C2370 H2350 0.950 . S
C2370 C2369 1.414 . S
C2370 C2371 1.374 . S
C2371 H2351 0.950 . S
C2371 C2367 1.385 . S
C2371 C2370 1.374 . S
C2372 C2369 1.499 . S
C2372 C2373 1.373 . S
C2372 C2374 1.389 . S
C2373 H2352 0.950 . S
C2373 C2372 1.373 . S
C2373 C2389 1.377 . S
C2374 C2372 1.389 . S
C2374 C2375 1.524 . S
C2374 C2388 1.377 . S
C2375 C2374 1.524 . S
C2375 C2376 1.397 . S
C2375 C2380 1.363 . S
C2376 H2353 0.950 . S
C2376 C2375 1.397 . S
C2376 C2377 1.334 . S
C2377 H2354 0.950 . S
C2377 C2376 1.334 . S
C2377 C2378 1.287 . S
C2378 C2377 1.287 . S
C2378 C2379 1.524 . S
C2378 H2397 0.913 . S
C2379 H2355 0.950 . S
C2379 C2378 1.524 . S
C2379 C2380 1.415 . S
C2380 H2356 0.950 . S
C2380 C2375 1.363 . S
C2380 C2379 1.415 . S
C2381 H2357 0.951 . S
C2381 C2382 1.366 . S
C2381 C2383 1.388 . S
C2382 C2381 1.366 . S
C2382 C2386 1.385 . S
C2383 H2358 0.951 . S
C2383 C2381 1.388 . S
C2383 C2384 1.366 . S
C2384 C2383 1.366 . S
C2384 C2385 1.414 . S
C2384 C2387 1.499 . S
C2385 H2359 0.950 . S
C2385 C2384 1.414 . S
C2385 C2386 1.374 . S
C2386 H2360 0.950 . S
C2386 C2382 1.385 . S
C2386 C2385 1.374 . S
C2387 C2384 1.499 . S
C2387 C2388 1.373 . S
C2387 C2389 1.389 . S
C2388 H2361 0.950 . S
C2388 C2374 1.377 . S
C2388 C2387 1.373 . S
C2389 C2373 1.377 . S
C2389 C2387 1.389 . S
C2389 C2390 1.524 . S
C2390 C2389 1.524 . S
C2390 C2391 1.397 . S
C2390 C2395 1.363 . S
C2391 H2362 0.950 . S
C2391 C2390 1.397 . S
C2391 C2392 1.334 . S
C2392 H2363 0.950 . S
C2392 C2391 1.334 . S
C2392 C2393 1.287 . S
C2393 C2392 1.287 . S
C2393 C2394 1.524 . S
C2393 H2396 0.999 . S
C2394 H2364 0.950 . S
C2394 C2393 1.524 . S
C2394 C2395 1.415 . S
C2395 H2365 0.950 . S
C2395 C2390 1.363 . S
C2395 C2394 1.415 . S
H2396 C2393 0.999 . S
H2397 C2378 0.913 . S
H2398 C2416 0.951 . S
H2399 C2418 0.951 . S
H2400 C2420 0.950 . S
H2401 C2421 0.950 . S
H2402 C2423 0.950 . S
H2403 C2426 0.950 . S
H2404 C2427 0.950 1_565 S
H2405 C2429 0.950 . S
H2406 C2430 0.950 . S
H2407 C2431 0.951 . S
H2408 C2433 0.951 . S
H2409 C2435 0.950 . S
H2410 C2436 0.950 . S
H2411 C2438 0.950 . S
H2412 C2441 0.950 . S
H2413 C2442 0.950 . S
H2414 C2444 0.950 1_554 S
H2415 C2445 0.950 . S
C2416 H2398 0.951 . S
C2416 C2417 1.366 . S
C2416 C2418 1.388 . S
C2417 C2416 1.366 . S
C2417 C2421 1.385 . S
C2418 H2399 0.951 . S
C2418 C2416 1.388 . S
C2418 C2419 1.366 . S
C2419 C2418 1.366 . S
C2419 C2420 1.414 . S
C2419 C2422 1.499 . S
C2420 H2400 0.950 . S
C2420 C2419 1.414 . S
C2420 C2421 1.374 . S
C2421 H2401 0.950 . S
C2421 C2417 1.385 . S
C2421 C2420 1.374 . S
C2422 C2419 1.499 . S
C2422 C2423 1.373 . S
C2422 C2424 1.389 . S
C2423 H2402 0.950 . S
C2423 C2422 1.373 . S
C2423 C2439 1.377 1_655 S
C2424 C2422 1.389 . S
C2424 C2425 1.524 . S
C2424 C2438 1.377 1_655 S
C2425 C2424 1.524 . S
C2425 C2426 1.397 . S
C2425 C2430 1.363 . S
C2426 H2403 0.950 . S
C2426 C2425 1.397 . S
C2426 C2427 1.334 . S
C2427 H2404 0.950 1_545 S
C2427 C2426 1.334 . S
C2427 C2428 1.287 . S
C2428 C2427 1.287 . S
C2428 C2429 1.524 . S
C2428 H2447 0.879 1_545 S
C2429 H2405 0.950 . S
C2429 C2428 1.524 . S
C2429 C2430 1.415 . S
C2430 H2406 0.950 . S
C2430 C2425 1.363 . S
C2430 C2429 1.415 . S
C2431 H2407 0.951 . S
C2431 C2432 1.366 . S
C2431 C2433 1.388 . S
C2432 C2431 1.366 . S
C2432 C2436 1.385 . S
C2433 H2408 0.951 . S
C2433 C2431 1.388 . S
C2433 C2434 1.366 . S
C2434 C2433 1.366 . S
C2434 C2435 1.414 . S
C2434 C2437 1.499 . S
C2435 H2409 0.950 . S
C2435 C2434 1.414 . S
C2435 C2436 1.374 . S
C2436 H2410 0.950 . S
C2436 C2432 1.385 . S
C2436 C2435 1.374 . S
C2437 C2434 1.499 . S
C2437 C2438 1.373 . S
C2437 C2439 1.389 . S
C2438 H2411 0.950 . S
C2438 C2424 1.377 1_455 S
C2438 C2437 1.373 . S
C2439 C2423 1.377 1_455 S
C2439 C2437 1.389 . S
C2439 C2440 1.524 . S
C2440 C2439 1.524 . S
C2440 C2441 1.397 . S
C2440 C2445 1.363 . S
C2441 H2412 0.950 . S
C2441 C2440 1.397 . S
C2441 C2442 1.334 . S
C2442 H2413 0.950 . S
C2442 C2441 1.334 . S
C2442 C2443 1.287 . S
C2443 C2442 1.287 . S
C2443 C2444 1.524 . S
C2443 H2446 0.999 . S
C2444 H2414 0.950 1_556 S
C2444 C2443 1.524 . S
C2444 C2445 1.415 . S
C2445 H2415 0.950 . S
C2445 C2440 1.363 . S
C2445 C2444 1.415 . S
H2446 C2443 0.999 . S
H2447 C2428 0.879 1_565 S
H2448 C2466 0.951 . S
H2449 C2468 0.951 . S
H2450 C2470 0.950 . S
H2451 C2471 0.950 . S
H2452 C2473 0.950 . S
H2453 C2476 0.950 . S
H2454 C2477 0.950 . S
H2455 C2479 0.950 . S
H2456 C2480 0.950 . S
H2457 C2481 0.951 . S
H2458 C2483 0.951 . S
H2459 C2485 0.950 . S
H2460 C2486 0.950 . S
H2461 C2488 0.950 . S
H2462 C2491 0.950 . S
H2463 C2492 0.950 . S
H2464 C2494 0.950 . S
H2465 C2495 0.950 . S
C2466 H2448 0.951 . S
C2466 C2467 1.366 . S
C2466 C2468 1.388 . S
C2467 C2466 1.366 . S
C2467 C2471 1.385 . S
C2468 H2449 0.951 . S
C2468 C2466 1.388 . S
C2468 C2469 1.366 . S
C2469 C2468 1.366 . S
C2469 C2470 1.414 . S
C2469 C2472 1.499 . S
C2470 H2450 0.950 . S
C2470 C2469 1.414 . S
C2470 C2471 1.374 . S
C2471 H2451 0.950 . S
C2471 C2467 1.385 . S
C2471 C2470 1.374 . S
C2472 C2469 1.499 . S
C2472 C2473 1.373 . S
C2472 C2474 1.389 . S
C2473 H2452 0.950 . S
C2473 C2472 1.373 . S
C2473 C2489 1.377 . S
C2474 C2472 1.389 . S
C2474 C2475 1.524 . S
C2474 C2488 1.377 . S
C2475 C2474 1.524 . S
C2475 C2476 1.397 . S
C2475 C2480 1.363 . S
C2476 H2453 0.950 . S
C2476 C2475 1.397 . S
C2476 C2477 1.334 1_554 S
C2477 H2454 0.950 . S
C2477 C2476 1.334 1_556 S
C2477 C2478 1.287 . S
C2478 C2477 1.287 . S
C2478 C2479 1.524 . S
C2478 H2497 0.913 . S
C2479 H2455 0.950 . S
C2479 C2478 1.524 . S
C2479 C2480 1.415 1_556 S
C2480 H2456 0.950 . S
C2480 C2475 1.363 . S
C2480 C2479 1.415 1_554 S
C2481 H2457 0.951 . S
C2481 C2482 1.366 . S
C2481 C2483 1.388 . S
C2482 C2481 1.366 . S
C2482 C2486 1.385 . S
C2483 H2458 0.951 . S
C2483 C2481 1.388 . S
C2483 C2484 1.366 . S
C2484 C2483 1.366 . S
C2484 C2485 1.414 . S
C2484 C2487 1.499 . S
C2485 H2459 0.950 . S
C2485 C2484 1.414 . S
C2485 C2486 1.374 . S
C2486 H2460 0.950 . S
C2486 C2482 1.385 . S
C2486 C2485 1.374 . S
C2487 C2484 1.499 . S
C2487 C2488 1.373 . S
C2487 C2489 1.389 . S
C2488 H2461 0.950 . S
C2488 C2474 1.377 . S
C2488 C2487 1.373 . S
C2489 C2473 1.377 . S
C2489 C2487 1.389 . S
C2489 C2490 1.524 . S
C2490 C2489 1.524 . S
C2490 C2491 1.397 . S
C2490 C2495 1.363 . S
C2491 H2462 0.950 . S
C2491 C2490 1.397 . S
C2491 C2492 1.334 . S
C2492 H2463 0.950 . S
C2492 C2491 1.334 . S
C2492 C2493 1.287 . S
C2493 C2492 1.287 . S
C2493 C2494 1.524 . S
C2493 H2496 0.999 . S
C2494 H2464 0.950 . S
C2494 C2493 1.524 . S
C2494 C2495 1.415 . S
C2495 H2465 0.950 . S
C2495 C2490 1.363 . S
C2495 C2494 1.415 . S
H2496 C2493 0.999 . S
H2497 C2478 0.913 . S
H2498 C2516 0.951 . S
H2499 C2518 0.951 . S
H2500 C2520 0.950 . S
H2501 C2521 0.950 . S
H2502 C2523 0.950 . S
H2503 C2526 0.950 . S
H2504 C2527 0.950 . S
H2505 C2529 0.950 . S
H2506 C2530 0.950 . S
H2507 C2531 0.951 . S
H2508 C2533 0.951 . S
H2509 C2535 0.950 . S
H2510 C2536 0.950 . S
H2511 C2538 0.950 . S
H2512 C2541 0.950 . S
H2513 C2542 0.950 . S
H2514 C2544 0.950 . S
H2515 C2545 0.950 . S
C2516 H2498 0.951 . S
C2516 C2517 1.366 . S
C2516 C2518 1.388 . S
C2517 C2516 1.366 . S
C2517 C2521 1.385 . S
C2518 H2499 0.951 . S
C2518 C2516 1.388 . S
C2518 C2519 1.366 . S
C2519 C2518 1.366 . S
C2519 C2520 1.414 . S
C2519 C2522 1.499 . S
C2520 H2500 0.950 . S
C2520 C2519 1.414 . S
C2520 C2521 1.374 . S
C2521 H2501 0.950 . S
C2521 C2517 1.385 . S
C2521 C2520 1.374 . S
C2522 C2519 1.499 . S
C2522 C2523 1.373 . S
C2522 C2524 1.389 . S
C2523 H2502 0.950 . S
C2523 C2522 1.373 . S
C2523 C2539 1.377 . S
C2524 C2522 1.389 . S
C2524 C2525 1.524 . S
C2524 C2538 1.377 . S
C2525 C2524 1.524 . S
C2525 C2526 1.397 . S
C2525 C2530 1.363 . S
C2526 H2503 0.950 . S
C2526 C2525 1.397 . S
C2526 C2527 1.334 . S
C2527 H2504 0.950 . S
C2527 C2526 1.334 . S
C2527 C2528 1.287 . S
C2528 C2527 1.287 . S
C2528 C2529 1.524 . S
C2528 H2547 0.913 . S
C2529 H2505 0.950 . S
C2529 C2528 1.524 . S
C2529 C2530 1.415 . S
C2530 H2506 0.950 . S
C2530 C2525 1.363 . S
C2530 C2529 1.415 . S
C2531 H2507 0.951 . S
C2531 C2532 1.366 . S
C2531 C2533 1.388 . S
C2532 C2531 1.366 . S
C2532 C2536 1.385 . S
C2533 H2508 0.951 . S
C2533 C2531 1.388 . S
C2533 C2534 1.366 . S
C2534 C2533 1.366 . S
C2534 C2535 1.414 . S
C2534 C2537 1.499 . S
C2535 H2509 0.950 . S
C2535 C2534 1.414 . S
C2535 C2536 1.374 . S
C2536 H2510 0.950 . S
C2536 C2532 1.385 . S
C2536 C2535 1.374 . S
C2537 C2534 1.499 . S
C2537 C2538 1.373 . S
C2537 C2539 1.389 . S
C2538 H2511 0.950 . S
C2538 C2524 1.377 . S
C2538 C2537 1.373 . S
C2539 C2523 1.377 . S
C2539 C2537 1.389 . S
C2539 C2540 1.524 . S
C2540 C2539 1.524 . S
C2540 C2541 1.397 . S
C2540 C2545 1.363 . S
C2541 H2512 0.950 . S
C2541 C2540 1.397 . S
C2541 C2542 1.334 . S
C2542 H2513 0.950 . S
C2542 C2541 1.334 . S
C2542 C2543 1.287 . S
C2543 C2542 1.287 . S
C2543 C2544 1.524 . S
C2543 H2546 0.999 . S
C2544 H2514 0.950 . S
C2544 C2543 1.524 . S
C2544 C2545 1.415 . S
C2545 H2515 0.950 . S
C2545 C2540 1.363 . S
C2545 C2544 1.415 . S
H2546 C2543 0.999 . S
H2547 C2528 0.913 . S
H2548 C2566 0.951 . S
H2549 C2568 0.951 . S
H2550 C2570 0.950 . S
H2551 C2571 0.950 . S
H2552 C2573 0.950 . S
H2553 C2576 0.950 1_554 S
H2554 C2577 0.950 . S
H2555 C2579 0.950 . S
H2556 C2580 0.950 . S
H2557 C2581 0.951 . S
H2558 C2583 0.951 . S
H2559 C2585 0.950 . S
H2560 C2586 0.950 . S
H2561 C2588 0.950 . S
H2562 C2591 0.950 . S
H2563 C2592 0.950 . S
H2564 C2594 0.950 . S
H2565 C2595 0.950 . S
C2566 H2548 0.951 . S
C2566 C2567 1.366 . S
C2566 C2568 1.388 . S
C2567 C2566 1.366 . S
C2567 C2571 1.385 . S
C2568 H2549 0.951 . S
C2568 C2566 1.388 . S
C2568 C2569 1.366 . S
C2569 C2568 1.366 . S
C2569 C2570 1.414 . S
C2569 C2572 1.499 . S
C2570 H2550 0.950 . S
C2570 C2569 1.414 . S
C2570 C2571 1.374 . S
C2571 H2551 0.950 . S
C2571 C2567 1.385 . S
C2571 C2570 1.374 . S
C2572 C2569 1.499 . S
C2572 C2573 1.373 . S
C2572 C2574 1.389 . S
C2573 H2552 0.950 . S
C2573 C2572 1.373 . S
C2573 C2589 1.377 . S
C2574 C2572 1.389 . S
C2574 C2575 1.524 1_554 S
C2574 C2588 1.377 . S
C2575 C2574 1.524 1_556 S
C2575 C2576 1.397 . S
C2575 C2580 1.363 . S
C2576 H2553 0.950 1_556 S
C2576 C2575 1.397 . S
C2576 C2577 1.334 . S
C2577 H2554 0.950 . S
C2577 C2576 1.334 . S
C2577 C2578 1.287 . S
C2578 C2577 1.287 . S
C2578 C2579 1.524 . S
C2578 H2597 0.913 . S
C2579 H2555 0.950 . S
C2579 C2578 1.524 . S
C2579 C2580 1.415 . S
C2580 H2556 0.950 . S
C2580 C2575 1.363 . S
C2580 C2579 1.415 . S
C2581 H2557 0.951 . S
C2581 C2582 1.366 . S
C2581 C2583 1.388 . S
C2582 C2581 1.366 . S
C2582 C2586 1.385 . S
C2583 H2558 0.951 . S
C2583 C2581 1.388 . S
C2583 C2584 1.366 . S
C2584 C2583 1.366 . S
C2584 C2585 1.414 . S
C2584 C2587 1.499 . S
C2585 H2559 0.950 . S
C2585 C2584 1.414 . S
C2585 C2586 1.374 . S
C2586 H2560 0.950 . S
C2586 C2582 1.385 . S
C2586 C2585 1.374 . S
C2587 C2584 1.499 . S
C2587 C2588 1.373 . S
C2587 C2589 1.389 . S
C2588 H2561 0.950 . S
C2588 C2574 1.377 . S
C2588 C2587 1.373 . S
C2589 C2573 1.377 . S
C2589 C2587 1.389 . S
C2589 C2590 1.524 . S
C2590 C2589 1.524 . S
C2590 C2591 1.397 . S
C2590 C2595 1.363 . S
C2591 H2562 0.950 . S
C2591 C2590 1.397 . S
C2591 C2592 1.334 . S
C2592 H2563 0.950 . S
C2592 C2591 1.334 . S
C2592 C2593 1.287 . S
C2593 C2592 1.287 . S
C2593 C2594 1.524 . S
C2593 H2596 0.999 . S
C2594 H2564 0.950 . S
C2594 C2593 1.524 . S
C2594 C2595 1.415 . S
C2595 H2565 0.950 . S
C2595 C2590 1.363 . S
C2595 C2594 1.415 . S
H2596 C2593 0.999 . S
H2597 C2578 0.913 . S
H2598 C2616 0.951 . S
H2599 C2618 0.951 . S
H2600 C2620 0.950 . S
H2601 C2621 0.950 . S
H2602 C2623 0.950 . S
H2603 C2626 0.950 . S
H2604 C2627 0.950 . S
H2605 C2629 0.950 . S
H2606 C2630 0.950 . S
H2607 C2631 0.951 . S
H2608 C2633 0.951 . S
H2609 C2635 0.950 . S
H2610 C2636 0.950 . S
H2611 C2638 0.950 . S
H2612 C2641 0.950 . S
H2613 C2642 0.950 . S
H2614 C2644 0.950 . S
H2615 C2645 0.950 . S
C2616 H2598 0.951 . S
C2616 C2617 1.366 . S
C2616 C2618 1.388 . S
C2617 C2616 1.366 . S
C2617 C2621 1.385 . S
C2618 H2599 0.951 . S
C2618 C2616 1.388 . S
C2618 C2619 1.366 . S
C2619 C2618 1.366 . S
C2619 C2620 1.414 . S
C2619 C2622 1.499 . S
C2620 H2600 0.950 . S
C2620 C2619 1.414 . S
C2620 C2621 1.374 . S
C2621 H2601 0.950 . S
C2621 C2617 1.385 . S
C2621 C2620 1.374 . S
C2622 C2619 1.499 . S
C2622 C2623 1.373 . S
C2622 C2624 1.389 . S
C2623 H2602 0.950 . S
C2623 C2622 1.373 . S
C2623 C2639 1.377 . S
C2624 C2622 1.389 . S
C2624 C2625 1.524 . S
C2624 C2638 1.377 . S
C2625 C2624 1.524 . S
C2625 C2626 1.397 . S
C2625 C2630 1.363 . S
C2626 H2603 0.950 . S
C2626 C2625 1.397 . S
C2626 C2627 1.334 . S
C2627 H2604 0.950 . S
C2627 C2626 1.334 . S
C2627 C2628 1.287 . S
C2628 C2627 1.287 . S
C2628 C2629 1.524 . S
C2628 H2647 0.913 . S
C2629 H2605 0.950 . S
C2629 C2628 1.524 . S
C2629 C2630 1.415 . S
C2630 H2606 0.950 . S
C2630 C2625 1.363 . S
C2630 C2629 1.415 . S
C2631 H2607 0.951 . S
C2631 C2632 1.366 . S
C2631 C2633 1.388 . S
C2632 C2631 1.366 . S
C2632 C2636 1.385 . S
C2633 H2608 0.951 . S
C2633 C2631 1.388 . S
C2633 C2634 1.366 . S
C2634 C2633 1.366 . S
C2634 C2635 1.414 . S
C2634 C2637 1.499 . S
C2635 H2609 0.950 . S
C2635 C2634 1.414 . S
C2635 C2636 1.374 . S
C2636 H2610 0.950 . S
C2636 C2632 1.385 . S
C2636 C2635 1.374 . S
C2637 C2634 1.499 . S
C2637 C2638 1.373 . S
C2637 C2639 1.389 . S
C2638 H2611 0.950 . S
C2638 C2624 1.377 . S
C2638 C2637 1.373 . S
C2639 C2623 1.377 . S
C2639 C2637 1.389 . S
C2639 C2640 1.524 . S
C2640 C2639 1.524 . S
C2640 C2641 1.397 . S
C2640 C2645 1.363 . S
C2641 H2612 0.950 . S
C2641 C2640 1.397 . S
C2641 C2642 1.334 . S
C2642 H2613 0.950 . S
C2642 C2641 1.334 . S
C2642 C2643 1.287 . S
C2643 C2642 1.287 . S
C2643 C2644 1.524 . S
C2643 H2646 0.999 . S
C2644 H2614 0.950 . S
C2644 C2643 1.524 . S
C2644 C2645 1.415 . S
C2645 H2615 0.950 . S
C2645 C2640 1.363 . S
C2645 C2644 1.415 . S
H2646 C2643 0.999 . S
H2647 C2628 0.913 . S
H2648 C2666 0.951 . S
H2649 C2668 0.951 . S
H2650 C2670 0.950 . S
H2651 C2671 0.950 . S
H2652 C2673 0.950 . S
H2653 C2676 0.950 . S
H2654 C2677 0.950 . S
H2655 C2679 0.950 . S
H2656 C2680 0.950 . S
H2657 C2681 0.951 . S
H2658 C2683 0.951 . S
H2659 C2685 0.950 . S
H2660 C2686 0.950 . S
H2661 C2688 0.950 . S
H2662 C2691 0.950 . S
H2663 C2692 0.950 . S
H2664 C2694 0.950 . S
H2665 C2695 0.950 . S
C2666 H2648 0.951 . S
C2666 C2667 1.366 . S
C2666 C2668 1.388 . S
C2667 C2666 1.366 . S
C2667 C2671 1.385 . S
C2668 H2649 0.951 . S
C2668 C2666 1.388 . S
C2668 C2669 1.366 . S
C2669 C2668 1.366 . S
C2669 C2670 1.414 . S
C2669 C2672 1.499 . S
C2670 H2650 0.950 . S
C2670 C2669 1.414 . S
C2670 C2671 1.374 . S
C2671 H2651 0.950 . S
C2671 C2667 1.385 . S
C2671 C2670 1.374 . S
C2672 C2669 1.499 . S
C2672 C2673 1.373 . S
C2672 C2674 1.389 . S
C2673 H2652 0.950 . S
C2673 C2672 1.373 . S
C2673 C2689 1.377 . S
C2674 C2672 1.389 . S
C2674 C2675 1.524 . S
C2674 C2688 1.377 . S
C2675 C2674 1.524 . S
C2675 C2676 1.397 . S
C2675 C2680 1.363 . S
C2676 H2653 0.950 . S
C2676 C2675 1.397 . S
C2676 C2677 1.334 . S
C2677 H2654 0.950 . S
C2677 C2676 1.334 . S
C2677 C2678 1.287 . S
C2678 C2677 1.287 . S
C2678 C2679 1.524 . S
C2678 H2697 0.913 . S
C2679 H2655 0.950 . S
C2679 C2678 1.524 . S
C2679 C2680 1.415 . S
C2680 H2656 0.950 . S
C2680 C2675 1.363 . S
C2680 C2679 1.415 . S
C2681 H2657 0.951 . S
C2681 C2682 1.366 . S
C2681 C2683 1.388 . S
C2682 C2681 1.366 . S
C2682 C2686 1.385 . S
C2683 H2658 0.951 . S
C2683 C2681 1.388 . S
C2683 C2684 1.366 . S
C2684 C2683 1.366 . S
C2684 C2685 1.414 . S
C2684 C2687 1.499 . S
C2685 H2659 0.950 . S
C2685 C2684 1.414 . S
C2685 C2686 1.374 . S
C2686 H2660 0.950 . S
C2686 C2682 1.385 . S
C2686 C2685 1.374 . S
C2687 C2684 1.499 . S
C2687 C2688 1.373 . S
C2687 C2689 1.389 . S
C2688 H2661 0.950 . S
C2688 C2674 1.377 . S
C2688 C2687 1.373 . S
C2689 C2673 1.377 . S
C2689 C2687 1.389 . S
C2689 C2690 1.524 . S
C2690 C2689 1.524 . S
C2690 C2691 1.397 . S
C2690 C2695 1.363 . S
C2691 H2662 0.950 . S
C2691 C2690 1.397 . S
C2691 C2692 1.334 . S
C2692 H2663 0.950 . S
C2692 C2691 1.334 . S
C2692 C2693 1.287 . S
C2693 C2692 1.287 . S
C2693 C2694 1.524 . S
C2693 H2696 0.999 . S
C2694 H2664 0.950 . S
C2694 C2693 1.524 . S
C2694 C2695 1.415 . S
C2695 H2665 0.950 . S
C2695 C2690 1.363 . S
C2695 C2694 1.415 . S
H2696 C2693 0.999 . S
H2697 C2678 0.913 . S
H2698 C2716 0.951 . S
H2699 C2718 0.951 . S
H2700 C2720 0.950 . S
H2701 C2721 0.950 . S
H2702 C2723 0.950 . S
H2703 C2726 0.950 . S
H2704 C2727 0.950 . S
H2705 C2729 0.950 . S
H2706 C2730 0.950 . S
H2707 C2731 0.951 . S
H2708 C2733 0.951 . S
H2709 C2735 0.950 . S
H2710 C2736 0.950 . S
H2711 C2738 0.950 . S
H2712 C2741 0.950 . S
H2713 C2742 0.950 . S
H2714 C2744 0.950 . S
H2715 C2745 0.950 . S
C2716 H2698 0.951 . S
C2716 C2717 1.366 . S
C2716 C2718 1.388 . S
C2717 C2716 1.366 . S
C2717 C2721 1.385 . S
C2718 H2699 0.951 . S
C2718 C2716 1.388 . S
C2718 C2719 1.366 . S
C2719 C2718 1.366 . S
C2719 C2720 1.414 . S
C2719 C2722 1.499 . S
C2720 H2700 0.950 . S
C2720 C2719 1.414 . S
C2720 C2721 1.374 . S
C2721 H2701 0.950 . S
C2721 C2717 1.385 . S
C2721 C2720 1.374 . S
C2722 C2719 1.499 . S
C2722 C2723 1.373 . S
C2722 C2724 1.389 . S
C2723 H2702 0.950 . S
C2723 C2722 1.373 . S
C2723 C2739 1.377 1_655 S
C2724 C2722 1.389 . S
C2724 C2725 1.524 . S
C2724 C2738 1.377 1_655 S
C2725 C2724 1.524 . S
C2725 C2726 1.397 . S
C2725 C2730 1.363 . S
C2726 H2703 0.950 . S
C2726 C2725 1.397 . S
C2726 C2727 1.334 . S
C2727 H2704 0.950 . S
C2727 C2726 1.334 . S
C2727 C2728 1.287 . S
C2728 C2727 1.287 . S
C2728 C2729 1.524 . S
C2728 H2747 0.913 . S
C2729 H2705 0.950 . S
C2729 C2728 1.524 . S
C2729 C2730 1.415 . S
C2730 H2706 0.950 . S
C2730 C2725 1.363 . S
C2730 C2729 1.415 . S
C2731 H2707 0.951 . S
C2731 C2732 1.366 . S
C2731 C2733 1.388 . S
C2732 C2731 1.366 . S
C2732 C2736 1.385 . S
C2733 H2708 0.951 . S
C2733 C2731 1.388 . S
C2733 C2734 1.366 . S
C2734 C2733 1.366 . S
C2734 C2735 1.414 . S
C2734 C2737 1.499 . S
C2735 H2709 0.950 . S
C2735 C2734 1.414 . S
C2735 C2736 1.374 . S
C2736 H2710 0.950 . S
C2736 C2732 1.385 . S
C2736 C2735 1.374 . S
C2737 C2734 1.499 . S
C2737 C2738 1.373 . S
C2737 C2739 1.389 . S
C2738 H2711 0.950 . S
C2738 C2724 1.377 1_455 S
C2738 C2737 1.373 . S
C2739 C2723 1.377 1_455 S
C2739 C2737 1.389 . S
C2739 C2740 1.524 . S
C2740 C2739 1.524 . S
C2740 C2741 1.397 . S
C2740 C2745 1.363 . S
C2741 H2712 0.950 . S
C2741 C2740 1.397 . S
C2741 C2742 1.334 . S
C2742 H2713 0.950 . S
C2742 C2741 1.334 . S
C2742 C2743 1.287 . S
C2743 C2742 1.287 . S
C2743 C2744 1.524 . S
C2743 H2746 0.999 . S
C2744 H2714 0.950 . S
C2744 C2743 1.524 . S
C2744 C2745 1.415 . S
C2745 H2715 0.950 . S
C2745 C2740 1.363 . S
C2745 C2744 1.415 . S
H2746 C2743 0.999 . S
H2747 C2728 0.913 . S
H2748 C2766 0.951 . S
H2749 C2768 0.951 . S
H2750 C2770 0.950 . S
H2751 C2771 0.950 . S
H2752 C2773 0.950 . S
H2753 C2776 0.950 . S
H2754 C2777 0.950 . S
H2755 C2779 0.950 . S
H2756 C2780 0.950 . S
H2757 C2781 0.951 . S
H2758 C2783 0.951 . S
H2759 C2785 0.950 . S
H2760 C2786 0.950 . S
H2761 C2788 0.950 . S
H2762 C2791 0.950 . S
H2763 C2792 0.950 . S
H2764 C2794 0.950 . S
H2765 C2795 0.950 . S
C2766 H2748 0.951 . S
C2766 C2767 1.366 . S
C2766 C2768 1.388 . S
C2767 C2766 1.366 . S
C2767 C2771 1.385 . S
C2768 H2749 0.951 . S
C2768 C2766 1.388 . S
C2768 C2769 1.366 . S
C2769 C2768 1.366 . S
C2769 C2770 1.414 . S
C2769 C2772 1.499 . S
C2770 H2750 0.950 . S
C2770 C2769 1.414 . S
C2770 C2771 1.374 . S
C2771 H2751 0.950 . S
C2771 C2767 1.385 . S
C2771 C2770 1.374 . S
C2772 C2769 1.499 . S
C2772 C2773 1.373 . S
C2772 C2774 1.389 . S
C2773 H2752 0.950 . S
C2773 C2772 1.373 . S
C2773 C2789 1.377 1_655 S
C2774 C2772 1.389 . S
C2774 C2775 1.524 . S
C2774 C2788 1.377 1_655 S
C2775 C2774 1.524 . S
C2775 C2776 1.397 . S
C2775 C2780 1.363 . S
C2776 H2753 0.950 . S
C2776 C2775 1.397 . S
C2776 C2777 1.334 . S
C2777 H2754 0.950 . S
C2777 C2776 1.334 . S
C2777 C2778 1.287 . S
C2778 C2777 1.287 . S
C2778 C2779 1.524 . S
C2778 H2797 0.913 1_556 S
C2779 H2755 0.950 . S
C2779 C2778 1.524 . S
C2779 C2780 1.415 . S
C2780 H2756 0.950 . S
C2780 C2775 1.363 . S
C2780 C2779 1.415 . S
C2781 H2757 0.951 . S
C2781 C2782 1.366 . S
C2781 C2783 1.388 . S
C2782 C2781 1.366 . S
C2782 C2786 1.385 . S
C2783 H2758 0.951 . S
C2783 C2781 1.388 . S
C2783 C2784 1.366 . S
C2784 C2783 1.366 . S
C2784 C2785 1.414 . S
C2784 C2787 1.499 . S
C2785 H2759 0.950 . S
C2785 C2784 1.414 . S
C2785 C2786 1.374 . S
C2786 H2760 0.950 . S
C2786 C2782 1.385 . S
C2786 C2785 1.374 . S
C2787 C2784 1.499 . S
C2787 C2788 1.373 . S
C2787 C2789 1.389 . S
C2788 H2761 0.950 . S
C2788 C2774 1.377 1_455 S
C2788 C2787 1.373 . S
C2789 C2773 1.377 1_455 S
C2789 C2787 1.389 . S
C2789 C2790 1.524 . S
C2790 C2789 1.524 . S
C2790 C2791 1.397 . S
C2790 C2795 1.363 . S
C2791 H2762 0.950 . S
C2791 C2790 1.397 . S
C2791 C2792 1.334 . S
C2792 H2763 0.950 . S
C2792 C2791 1.334 . S
C2792 C2793 1.287 . S
C2793 C2792 1.287 . S
C2793 C2794 1.524 . S
C2793 H2796 0.999 . S
C2794 H2764 0.950 . S
C2794 C2793 1.524 . S
C2794 C2795 1.415 . S
C2795 H2765 0.950 . S
C2795 C2790 1.363 . S
C2795 C2794 1.415 . S
H2796 C2793 0.999 . S
H2797 C2778 0.913 1_554 S
H2798 C2816 0.951 . S
H2799 C2818 0.951 . S
H2800 C2820 0.950 . S
H2801 C2821 0.950 . S
H2802 C2823 0.950 . S
H2803 C2826 0.950 . S
H2804 C2827 0.950 . S
H2805 C2829 0.950 . S
H2806 C2830 0.950 . S
H2807 C2831 0.951 . S
H2808 C2833 0.951 . S
H2809 C2835 0.950 . S
H2810 C2836 0.950 . S
H2811 C2838 0.950 . S
H2812 C2841 0.950 . S
H2813 C2842 0.950 . S
H2814 C2844 0.950 . S
H2815 C2845 0.950 . S
C2816 H2798 0.951 . S
C2816 C2817 1.366 . S
C2816 C2818 1.388 . S
C2817 C2816 1.366 . S
C2817 C2821 1.385 . S
C2818 H2799 0.951 . S
C2818 C2816 1.388 . S
C2818 C2819 1.366 . S
C2819 C2818 1.366 . S
C2819 C2820 1.414 . S
C2819 C2822 1.499 . S
C2820 H2800 0.950 . S
C2820 C2819 1.414 . S
C2820 C2821 1.374 . S
C2821 H2801 0.950 . S
C2821 C2817 1.385 . S
C2821 C2820 1.374 . S
C2822 C2819 1.499 . S
C2822 C2823 1.373 . S
C2822 C2824 1.389 . S
C2823 H2802 0.950 . S
C2823 C2822 1.373 . S
C2823 C2839 1.377 . S
C2824 C2822 1.389 . S
C2824 C2825 1.524 . S
C2824 C2838 1.377 . S
C2825 C2824 1.524 . S
C2825 C2826 1.397 . S
C2825 C2830 1.363 . S
C2826 H2803 0.950 . S
C2826 C2825 1.397 . S
C2826 C2827 1.334 . S
C2827 H2804 0.950 . S
C2827 C2826 1.334 . S
C2827 C2828 1.287 . S
C2828 C2827 1.287 . S
C2828 C2829 1.524 . S
C2828 H2847 0.913 . S
C2829 H2805 0.950 . S
C2829 C2828 1.524 . S
C2829 C2830 1.415 . S
C2830 H2806 0.950 . S
C2830 C2825 1.363 . S
C2830 C2829 1.415 . S
C2831 H2807 0.951 . S
C2831 C2832 1.366 . S
C2831 C2833 1.388 . S
C2832 C2831 1.366 . S
C2832 C2836 1.385 . S
C2833 H2808 0.951 . S
C2833 C2831 1.388 . S
C2833 C2834 1.366 . S
C2834 C2833 1.366 . S
C2834 C2835 1.414 . S
C2834 C2837 1.499 . S
C2835 H2809 0.950 . S
C2835 C2834 1.414 . S
C2835 C2836 1.374 . S
C2836 H2810 0.950 . S
C2836 C2832 1.385 . S
C2836 C2835 1.374 . S
C2837 C2834 1.499 . S
C2837 C2838 1.373 . S
C2837 C2839 1.389 . S
C2838 H2811 0.950 . S
C2838 C2824 1.377 . S
C2838 C2837 1.373 . S
C2839 C2823 1.377 . S
C2839 C2837 1.389 . S
C2839 C2840 1.524 . S
C2840 C2839 1.524 . S
C2840 C2841 1.397 . S
C2840 C2845 1.363 . S
C2841 H2812 0.950 . S
C2841 C2840 1.397 . S
C2841 C2842 1.334 . S
C2842 H2813 0.950 . S
C2842 C2841 1.334 . S
C2842 C2843 1.287 . S
C2843 C2842 1.287 . S
C2843 C2844 1.524 . S
C2843 H2846 0.999 . S
C2844 H2814 0.950 . S
C2844 C2843 1.524 . S
C2844 C2845 1.415 . S
C2845 H2815 0.950 . S
C2845 C2840 1.363 . S
C2845 C2844 1.415 . S
H2846 C2843 0.999 . S
H2847 C2828 0.913 . S
H2848 C2866 0.951 . S
H2849 C2868 0.951 . S
H2850 C2870 0.950 . S
H2851 C2871 0.950 . S
H2852 C2873 0.950 . S
H2853 C2876 0.950 . S
H2854 C2877 0.950 . S
H2855 C2879 0.950 . S
H2856 C2880 0.950 . S
H2857 C2881 0.951 . S
H2858 C2883 0.951 . S
H2859 C2885 0.950 . S
H2860 C2886 0.950 . S
H2861 C2888 0.950 . S
H2862 C2891 0.950 . S
H2863 C2892 0.950 . S
H2864 C2894 0.950 . S
H2865 C2895 0.950 . S
C2866 H2848 0.951 . S
C2866 C2867 1.366 . S
C2866 C2868 1.388 . S
C2867 C2866 1.366 . S
C2867 C2871 1.385 . S
C2868 H2849 0.951 . S
C2868 C2866 1.388 . S
C2868 C2869 1.366 . S
C2869 C2868 1.366 . S
C2869 C2870 1.414 . S
C2869 C2872 1.499 . S
C2870 H2850 0.950 . S
C2870 C2869 1.414 . S
C2870 C2871 1.374 . S
C2871 H2851 0.950 . S
C2871 C2867 1.385 . S
C2871 C2870 1.374 . S
C2872 C2869 1.499 . S
C2872 C2873 1.373 . S
C2872 C2874 1.389 . S
C2873 H2852 0.950 . S
C2873 C2872 1.373 . S
C2873 C2889 1.377 . S
C2874 C2872 1.389 . S
C2874 C2875 1.524 . S
C2874 C2888 1.377 . S
C2875 C2874 1.524 . S
C2875 C2876 1.397 . S
C2875 C2880 1.363 . S
C2876 H2853 0.950 . S
C2876 C2875 1.397 . S
C2876 C2877 1.334 . S
C2877 H2854 0.950 . S
C2877 C2876 1.334 . S
C2877 C2878 1.287 . S
C2878 C2877 1.287 . S
C2878 C2879 1.524 . S
C2878 H2897 0.913 . S
C2879 H2855 0.950 . S
C2879 C2878 1.524 . S
C2879 C2880 1.415 . S
C2880 H2856 0.950 . S
C2880 C2875 1.363 . S
C2880 C2879 1.415 . S
C2881 H2857 0.951 . S
C2881 C2882 1.366 . S
C2881 C2883 1.388 . S
C2882 C2881 1.366 . S
C2882 C2886 1.385 . S
C2883 H2858 0.951 . S
C2883 C2881 1.388 . S
C2883 C2884 1.366 . S
C2884 C2883 1.366 . S
C2884 C2885 1.414 . S
C2884 C2887 1.499 . S
C2885 H2859 0.950 . S
C2885 C2884 1.414 . S
C2885 C2886 1.374 . S
C2886 H2860 0.950 . S
C2886 C2882 1.385 . S
C2886 C2885 1.374 . S
C2887 C2884 1.499 . S
C2887 C2888 1.373 . S
C2887 C2889 1.389 . S
C2888 H2861 0.950 . S
C2888 C2874 1.377 . S
C2888 C2887 1.373 . S
C2889 C2873 1.377 . S
C2889 C2887 1.389 . S
C2889 C2890 1.524 . S
C2890 C2889 1.524 . S
C2890 C2891 1.397 . S
C2890 C2895 1.363 . S
C2891 H2862 0.950 . S
C2891 C2890 1.397 . S
C2891 C2892 1.334 . S
C2892 H2863 0.950 . S
C2892 C2891 1.334 . S
C2892 C2893 1.287 . S
C2893 C2892 1.287 . S
C2893 C2894 1.524 . S
C2893 H2896 0.999 . S
C2894 H2864 0.950 . S
C2894 C2893 1.524 . S
C2894 C2895 1.415 . S
C2895 H2865 0.950 . S
C2895 C2890 1.363 . S
C2895 C2894 1.415 . S
H2896 C2893 0.999 . S
H2897 C2878 0.913 . S
H2898 C2916 0.951 . S
H2899 C2918 0.951 . S
H2900 C2920 0.950 . S
H2901 C2921 0.950 . S
H2902 C2923 0.950 . S
H2903 C2926 0.950 . S
H2904 C2927 0.950 . S
H2905 C2929 0.950 . S
H2906 C2930 0.950 . S
H2907 C2931 0.951 . S
H2908 C2933 0.951 . S
H2909 C2935 0.950 . S
H2910 C2936 0.950 . S
H2911 C2938 0.950 . S
H2912 C2941 0.950 . S
H2913 C2942 0.950 . S
H2914 C2944 0.950 . S
H2915 C2945 0.950 . S
C2916 H2898 0.951 . S
C2916 C2917 1.366 . S
C2916 C2918 1.388 . S
C2917 C2916 1.366 . S
C2917 C2921 1.385 . S
C2918 H2899 0.951 . S
C2918 C2916 1.388 . S
C2918 C2919 1.366 . S
C2919 C2918 1.366 . S
C2919 C2920 1.414 . S
C2919 C2922 1.499 . S
C2920 H2900 0.950 . S
C2920 C2919 1.414 . S
C2920 C2921 1.374 . S
C2921 H2901 0.950 . S
C2921 C2917 1.385 . S
C2921 C2920 1.374 . S
C2922 C2919 1.499 . S
C2922 C2923 1.373 1_565 S
C2922 C2924 1.389 . S
C2923 H2902 0.950 . S
C2923 C2922 1.373 1_545 S
C2923 C2939 1.377 . S
C2924 C2922 1.389 . S
C2924 C2925 1.524 . S
C2924 C2938 1.377 . S
C2925 C2924 1.524 . S
C2925 C2926 1.397 . S
C2925 C2930 1.363 . S
C2926 H2903 0.950 . S
C2926 C2925 1.397 . S
C2926 C2927 1.334 . S
C2927 H2904 0.950 . S
C2927 C2926 1.334 . S
C2927 C2928 1.287 . S
C2928 C2927 1.287 . S
C2928 C2929 1.524 . S
C2928 H2947 0.913 . S
C2929 H2905 0.950 . S
C2929 C2928 1.524 . S
C2929 C2930 1.415 . S
C2930 H2906 0.950 . S
C2930 C2925 1.363 . S
C2930 C2929 1.415 . S
C2931 H2907 0.951 . S
C2931 C2932 1.366 . S
C2931 C2933 1.388 . S
C2932 C2931 1.366 . S
C2932 C2936 1.385 . S
C2933 H2908 0.951 . S
C2933 C2931 1.388 . S
C2933 C2934 1.366 . S
C2934 C2933 1.366 . S
C2934 C2935 1.414 . S
C2934 C2937 1.499 . S
C2935 H2909 0.950 . S
C2935 C2934 1.414 . S
C2935 C2936 1.374 . S
C2936 H2910 0.950 . S
C2936 C2932 1.385 . S
C2936 C2935 1.374 . S
C2937 C2934 1.499 . S
C2937 C2938 1.373 1_545 S
C2937 C2939 1.389 . S
C2938 H2911 0.950 . S
C2938 C2924 1.377 . S
C2938 C2937 1.373 1_565 S
C2939 C2923 1.377 . S
C2939 C2937 1.389 . S
C2939 C2940 1.524 . S
C2940 C2939 1.524 . S
C2940 C2941 1.397 . S
C2940 C2945 1.363 . S
C2941 H2912 0.950 . S
C2941 C2940 1.397 . S
C2941 C2942 1.334 . S
C2942 H2913 0.950 . S
C2942 C2941 1.334 . S
C2942 C2943 1.287 . S
C2943 C2942 1.287 . S
C2943 C2944 1.524 . S
C2943 H2946 0.999 . S
C2944 H2914 0.950 . S
C2944 C2943 1.524 . S
C2944 C2945 1.415 . S
C2945 H2915 0.950 . S
C2945 C2940 1.363 . S
C2945 C2944 1.415 . S
H2946 C2943 0.999 . S
H2947 C2928 0.913 . S
H2948 C2966 0.951 1_554 S
H2949 C2968 0.951 . S
H2950 C2970 0.950 . S
H2951 C2971 0.950 . S
H2952 C2973 0.950 . S
H2953 C2976 0.950 . S
H2954 C2977 0.950 . S
H2955 C2979 0.950 . S
H2956 C2980 0.950 . S
H2957 C2981 0.951 . S
H2958 C2983 0.951 . S
H2959 C2985 0.950 . S
H2960 C2986 0.950 . S
H2961 C2988 0.950 . S
H2962 C2991 0.950 . S
H2963 C2992 0.950 . S
H2964 C2994 0.950 . S
H2965 C2995 0.950 . S
C2966 H2948 0.951 1_556 S
C2966 C2967 1.366 . S
C2966 C2968 1.388 . S
C2967 C2966 1.366 . S
C2967 C2971 1.385 . S
C2968 H2949 0.951 . S
C2968 C2966 1.388 . S
C2968 C2969 1.366 . S
C2969 C2968 1.366 . S
C2969 C2970 1.414 . S
C2969 C2972 1.499 . S
C2970 H2950 0.950 . S
C2970 C2969 1.414 . S
C2970 C2971 1.374 . S
C2971 H2951 0.950 . S
C2971 C2967 1.385 . S
C2971 C2970 1.374 . S
C2972 C2969 1.499 . S
C2972 C2973 1.373 . S
C2972 C2974 1.389 . S
C2973 H2952 0.950 . S
C2973 C2972 1.373 . S
C2973 C2989 1.377 . S
C2974 C2972 1.389 . S
C2974 C2975 1.524 . S
C2974 C2988 1.377 . S
C2975 C2974 1.524 . S
C2975 C2976 1.397 . S
C2975 C2980 1.363 . S
C2976 H2953 0.950 . S
C2976 C2975 1.397 . S
C2976 C2977 1.334 . S
C2977 H2954 0.950 . S
C2977 C2976 1.334 . S
C2977 C2978 1.287 . S
C2978 C2977 1.287 . S
C2978 C2979 1.524 . S
C2978 H2997 0.913 . S
C2979 H2955 0.950 . S
C2979 C2978 1.524 . S
C2979 C2980 1.415 . S
C2980 H2956 0.950 . S
C2980 C2975 1.363 . S
C2980 C2979 1.415 . S
C2981 H2957 0.951 . S
C2981 C2982 1.366 . S
C2981 C2983 1.388 . S
C2982 C2981 1.366 . S
C2982 C2986 1.385 . S
C2983 H2958 0.951 . S
C2983 C2981 1.388 . S
C2983 C2984 1.366 . S
C2984 C2983 1.366 . S
C2984 C2985 1.414 . S
C2984 C2987 1.499 . S
C2985 H2959 0.950 . S
C2985 C2984 1.414 . S
C2985 C2986 1.374 . S
C2986 H2960 0.950 . S
C2986 C2982 1.385 . S
C2986 C2985 1.374 . S
C2987 C2984 1.499 . S
C2987 C2988 1.373 . S
C2987 C2989 1.389 . S
C2988 H2961 0.950 . S
C2988 C2974 1.377 . S
C2988 C2987 1.373 . S
C2989 C2973 1.377 . S
C2989 C2987 1.389 . S
C2989 C2990 1.524 . S
C2990 C2989 1.524 . S
C2990 C2991 1.397 . S
C2990 C2995 1.363 . S
C2991 H2962 0.950 . S
C2991 C2990 1.397 . S
C2991 C2992 1.334 . S
C2992 H2963 0.950 . S
C2992 C2991 1.334 . S
C2992 C2993 1.287 . S
C2993 C2992 1.287 . S
C2993 C2994 1.524 . S
C2993 H2996 0.999 . S
C2994 H2964 0.950 . S
C2994 C2993 1.524 . S
C2994 C2995 1.415 . S
C2995 H2965 0.950 . S
C2995 C2990 1.363 . S
C2995 C2994 1.415 . S
H2996 C2993 0.999 . S
H2997 C2978 0.913 . S
H2998 C3016 0.951 . S
H2999 C3018 0.951 . S
H3000 C3020 0.950 1_554 S
H3001 C3021 0.950 . S
H3002 C3023 0.960 . S
H3003 C3026 0.950 . S
H3004 C3027 0.950 . S
H3005 C3029 0.950 . S
H3006 C3030 0.950 . S
H3007 C3031 0.951 . S
H3008 C3033 0.951 . S
H3009 C3035 0.950 . S
H3010 C3036 0.950 . S
H3011 C3038 0.950 . S
H3012 C3041 0.950 . S
H3013 C3042 0.950 . S
H3014 C3044 0.950 . S
H3015 C3045 0.950 . S
C3016 H2998 0.951 . S
C3016 C3017 1.366 . S
C3016 C3018 1.388 . S
C3017 C3016 1.366 . S
C3017 C3021 1.385 . S
C3018 H2999 0.951 . S
C3018 C3016 1.388 . S
C3018 C3019 1.366 1_556 S
C3019 C3018 1.366 1_554 S
C3019 C3020 1.414 1_554 S
C3019 C3022 1.499 . S
C3020 H3000 0.950 1_556 S
C3020 C3019 1.414 1_556 S
C3020 C3021 1.374 . S
C3021 H3001 0.950 . S
C3021 C3017 1.385 . S
C3021 C3020 1.374 . S
C3022 C3019 1.499 . S
C3022 C3023 1.333 1_545 S
C3022 C3024 1.389 . S
C3023 H3002 0.960 . S
C3023 C3022 1.333 1_565 S
C3023 C3039 1.413 . S
C3024 C3022 1.389 . S
C3024 C3025 1.524 . S
C3024 C3038 1.377 . S
C3025 C3024 1.524 . S
C3025 C3026 1.397 . S
C3025 C3030 1.363 . S
C3026 H3003 0.950 . S
C3026 C3025 1.397 . S
C3026 C3027 1.334 . S
C3027 H3004 0.950 . S
C3027 C3026 1.334 . S
C3027 C3028 1.287 . S
C3028 C3027 1.287 . S
C3028 C3029 1.524 . S
C3028 H3047 0.913 . S
C3029 H3005 0.950 . S
C3029 C3028 1.524 . S
C3029 C3030 1.415 . S
C3030 H3006 0.950 . S
C3030 C3025 1.363 . S
C3030 C3029 1.415 . S
C3031 H3007 0.951 . S
C3031 C3032 1.366 . S
C3031 C3033 1.388 . S
C3032 C3031 1.366 . S
C3032 C3036 1.385 . S
C3033 H3008 0.951 . S
C3033 C3031 1.388 . S
C3033 C3034 1.366 . S
C3034 C3033 1.366 . S
C3034 C3035 1.414 . S
C3034 C3037 1.499 . S
C3035 H3009 0.950 . S
C3035 C3034 1.414 . S
C3035 C3036 1.374 . S
C3036 H3010 0.950 . S
C3036 C3032 1.385 . S
C3036 C3035 1.374 . S
C3037 C3034 1.499 . S
C3037 C3038 1.373 1_565 S
C3037 C3039 1.389 . S
C3038 H3011 0.950 . S
C3038 C3024 1.377 . S
C3038 C3037 1.373 1_545 S
C3039 C3023 1.413 . S
C3039 C3037 1.389 . S
C3039 C3040 1.524 . S
C3040 C3039 1.524 . S
C3040 C3041 1.397 . S
C3040 C3045 1.363 . S
C3041 H3012 0.950 . S
C3041 C3040 1.397 . S
C3041 C3042 1.334 . S
C3042 H3013 0.950 . S
C3042 C3041 1.334 . S
C3042 C3043 1.287 . S
C3043 C3042 1.287 . S
C3043 C3044 1.524 . S
C3043 H3046 0.999 . S
C3044 H3014 0.950 . S
C3044 C3043 1.524 . S
C3044 C3045 1.415 . S
C3045 H3015 0.950 . S
C3045 C3040 1.363 . S
C3045 C3044 1.415 . S
H3046 C3043 0.999 . S
H3047 C3028 0.913 . S
H3048 C3066 0.951 . S
H3049 C3068 0.951 . S
H3050 C3070 0.950 . S
H3051 C3071 0.950 . S
H3052 C3073 0.950 . S
H3053 C3076 0.950 . S
H3054 C3077 0.950 . S
H3055 C3079 0.950 . S
H3056 C3080 0.950 . S
H3057 C3081 0.951 . S
H3058 C3083 0.951 . S
H3059 C3085 0.950 . S
H3060 C3086 0.950 . S
H3061 C3088 0.950 . S
H3062 C3091 0.950 . S
H3063 C3092 0.950 . S
H3064 C3094 0.950 . S
H3065 C3095 0.950 . S
C3066 H3048 0.951 . S
C3066 C3067 1.366 . S
C3066 C3068 1.388 . S
C3067 C3066 1.366 . S
C3067 C3071 1.385 . S
C3068 H3049 0.951 . S
C3068 C3066 1.388 . S
C3068 C3069 1.366 . S
C3069 C3068 1.366 . S
C3069 C3070 1.414 . S
C3069 C3072 1.499 . S
C3070 H3050 0.950 . S
C3070 C3069 1.414 . S
C3070 C3071 1.374 . S
C3071 H3051 0.950 . S
C3071 C3067 1.385 . S
C3071 C3070 1.374 . S
C3072 C3069 1.499 . S
C3072 C3073 1.373 . S
C3072 C3074 1.389 . S
C3073 H3052 0.950 . S
C3073 C3072 1.373 . S
C3073 C3089 1.377 . S
C3074 C3072 1.389 . S
C3074 C3075 1.524 . S
C3074 C3088 1.377 . S
C3075 C3074 1.524 . S
C3075 C3076 1.397 . S
C3075 C3080 1.363 . S
C3076 H3053 0.950 . S
C3076 C3075 1.397 . S
C3076 C3077 1.334 . S
C3077 H3054 0.950 . S
C3077 C3076 1.334 . S
C3077 C3078 1.287 . S
C3078 C3077 1.287 . S
C3078 C3079 1.524 . S
C3078 H3097 0.913 . S
C3079 H3055 0.950 . S
C3079 C3078 1.524 . S
C3079 C3080 1.415 . S
C3080 H3056 0.950 . S
C3080 C3075 1.363 . S
C3080 C3079 1.415 . S
C3081 H3057 0.951 . S
C3081 C3082 1.366 . S
C3081 C3083 1.388 . S
C3082 C3081 1.366 . S
C3082 C3086 1.385 . S
C3083 H3058 0.951 . S
C3083 C3081 1.388 . S
C3083 C3084 1.366 . S
C3084 C3083 1.366 . S
C3084 C3085 1.414 . S
C3084 C3087 1.499 . S
C3085 H3059 0.950 . S
C3085 C3084 1.414 . S
C3085 C3086 1.374 . S
C3086 H3060 0.950 . S
C3086 C3082 1.385 . S
C3086 C3085 1.374 . S
C3087 C3084 1.499 . S
C3087 C3088 1.373 . S
C3087 C3089 1.389 . S
C3088 H3061 0.950 . S
C3088 C3074 1.377 . S
C3088 C3087 1.373 . S
C3089 C3073 1.377 . S
C3089 C3087 1.389 . S
C3089 C3090 1.524 . S
C3090 C3089 1.524 . S
C3090 C3091 1.397 . S
C3090 C3095 1.363 . S
C3091 H3062 0.950 . S
C3091 C3090 1.397 . S
C3091 C3092 1.334 . S
C3092 H3063 0.950 . S
C3092 C3091 1.334 . S
C3092 C3093 1.287 . S
C3093 C3092 1.287 . S
C3093 C3094 1.524 . S
C3093 H3096 0.999 . S
C3094 H3064 0.950 . S
C3094 C3093 1.524 . S
C3094 C3095 1.415 . S
C3095 H3065 0.950 . S
C3095 C3090 1.363 . S
C3095 C3094 1.415 . S
H3096 C3093 0.999 . S
H3097 C3078 0.913 . S
H3098 C3116 0.951 . S
H3099 C3118 0.951 . S
H3100 C3120 0.950 1_565 S
H3101 C3121 0.950 . S
H3102 C3123 0.950 . S
H3103 C3126 0.950 . S
H3104 C3127 0.950 . S
H3105 C3129 0.950 . S
H3106 C3130 0.950 . S
H3107 C3131 0.951 . S
H3108 C3133 0.951 . S
H3109 C3135 0.950 1_545 S
H3110 C3136 0.950 . S
H3111 C3138 0.950 . S
H3112 C3141 0.950 . S
H3113 C3142 0.950 . S
H3114 C3144 0.950 . S
H3115 C3145 0.950 . S
C3116 H3098 0.951 . S
C3116 C3117 1.366 . S
C3116 C3118 1.388 . S
C3117 C3116 1.366 . S
C3117 C3121 1.385 . S
C3118 H3099 0.951 . S
C3118 C3116 1.388 . S
C3118 C3119 1.366 . S
C3119 C3118 1.366 . S
C3119 C3120 1.414 . S
C3119 C3122 1.499 . S
C3120 H3100 0.950 1_545 S
C3120 C3119 1.414 . S
C3120 C3121 1.374 . S
C3121 H3101 0.950 . S
C3121 C3117 1.385 . S
C3121 C3120 1.374 . S
C3122 C3119 1.499 . S
C3122 C3123 1.373 1_545 S
C3122 C3124 1.389 . S
C3123 H3102 0.950 . S
C3123 C3122 1.373 1_565 S
C3123 C3139 1.377 . S
C3124 C3122 1.389 . S
C3124 C3125 1.524 . S
C3124 C3138 1.377 . S
C3125 C3124 1.524 . S
C3125 C3126 1.397 . S
C3125 C3130 1.363 . S
C3126 H3103 0.950 . S
C3126 C3125 1.397 . S
C3126 C3127 1.334 . S
C3127 H3104 0.950 . S
C3127 C3126 1.334 . S
C3127 C3128 1.287 . S
C3128 C3127 1.287 . S
C3128 C3129 1.524 . S
C3128 H3147 0.913 . S
C3129 H3105 0.950 . S
C3129 C3128 1.524 . S
C3129 C3130 1.415 . S
C3130 H3106 0.950 . S
C3130 C3125 1.363 . S
C3130 C3129 1.415 . S
C3131 H3107 0.951 . S
C3131 C3132 1.366 . S
C3131 C3133 1.388 . S
C3132 C3131 1.366 . S
C3132 C3136 1.385 . S
C3133 H3108 0.951 . S
C3133 C3131 1.388 . S
C3133 C3134 1.366 . S
C3134 C3133 1.366 . S
C3134 C3135 1.414 . S
C3134 C3137 1.499 . S
C3135 H3109 0.950 1_565 S
C3135 C3134 1.414 . S
C3135 C3136 1.374 . S
C3136 H3110 0.950 . S
C3136 C3132 1.385 . S
C3136 C3135 1.374 . S
C3137 C3134 1.499 . S
C3137 C3138 1.373 1_565 S
C3137 C3139 1.389 . S
C3138 H3111 0.950 . S
C3138 C3124 1.377 . S
C3138 C3137 1.373 1_545 S
C3139 C3123 1.377 . S
C3139 C3137 1.389 . S
C3139 C3140 1.524 . S
C3140 C3139 1.524 . S
C3140 C3141 1.397 . S
C3140 C3145 1.363 . S
C3141 H3112 0.950 . S
C3141 C3140 1.397 . S
C3141 C3142 1.334 . S
C3142 H3113 0.950 . S
C3142 C3141 1.334 . S
C3142 C3143 1.287 . S
C3143 C3142 1.287 . S
C3143 C3144 1.524 . S
C3143 H3146 0.999 . S
C3144 H3114 0.950 . S
C3144 C3143 1.524 . S
C3144 C3145 1.415 . S
C3145 H3115 0.950 . S
C3145 C3140 1.363 . S
C3145 C3144 1.415 . S
H3146 C3143 0.999 . S
H3147 C3128 0.913 . S
H3148 C3166 0.951 . S
H3149 C3168 0.951 . S
H3150 C3170 0.950 . S
H3151 C3171 0.950 . S
H3152 C3173 0.950 . S
H3153 C3176 0.950 . S
H3154 C3177 0.950 . S
H3155 C3179 0.950 . S
H3156 C3180 0.950 . S
H3157 C3181 0.951 . S
H3158 C3183 0.951 . S
H3159 C3185 0.950 . S
H3160 C3186 0.950 . S
H3161 C3188 0.950 . S
H3162 C3191 0.950 . S
H3163 C3192 0.950 . S
H3164 C3194 0.950 . S
H3165 C3195 0.950 . S
C3166 H3148 0.951 . S
C3166 C3167 1.366 . S
C3166 C3168 1.388 . S
C3167 C3166 1.366 . S
C3167 C3171 1.385 . S
C3168 H3149 0.951 . S
C3168 C3166 1.388 . S
C3168 C3169 1.366 . S
C3169 C3168 1.366 . S
C3169 C3170 1.414 . S
C3169 C3172 1.499 . S
C3170 H3150 0.950 . S
C3170 C3169 1.414 . S
C3170 C3171 1.374 . S
C3171 H3151 0.950 . S
C3171 C3167 1.385 . S
C3171 C3170 1.374 . S
C3172 C3169 1.499 . S
C3172 C3173 1.373 . S
C3172 C3174 1.389 . S
C3173 H3152 0.950 . S
C3173 C3172 1.373 . S
C3173 C3189 1.377 . S
C3174 C3172 1.389 . S
C3174 C3175 1.524 . S
C3174 C3188 1.377 . S
C3175 C3174 1.524 . S
C3175 C3176 1.397 . S
C3175 C3180 1.363 . S
C3176 H3153 0.950 . S
C3176 C3175 1.397 . S
C3176 C3177 1.334 . S
C3177 H3154 0.950 . S
C3177 C3176 1.334 . S
C3177 C3178 1.287 . S
C3178 C3177 1.287 . S
C3178 C3179 1.524 . S
C3178 H3197 0.913 . S
C3179 H3155 0.950 . S
C3179 C3178 1.524 . S
C3179 C3180 1.415 . S
C3180 H3156 0.950 . S
C3180 C3175 1.363 . S
C3180 C3179 1.415 . S
C3181 H3157 0.951 . S
C3181 C3182 1.366 . S
C3181 C3183 1.388 . S
C3182 C3181 1.366 . S
C3182 C3186 1.385 . S
C3183 H3158 0.951 . S
C3183 C3181 1.388 . S
C3183 C3184 1.366 . S
C3184 C3183 1.366 . S
C3184 C3185 1.414 . S
C3184 C3187 1.499 . S
C3185 H3159 0.950 . S
C3185 C3184 1.414 . S
C3185 C3186 1.374 . S
C3186 H3160 0.950 . S
C3186 C3182 1.385 . S
C3186 C3185 1.374 . S
C3187 C3184 1.499 . S
C3187 C3188 1.373 . S
C3187 C3189 1.389 . S
C3188 H3161 0.950 . S
C3188 C3174 1.377 . S
C3188 C3187 1.373 . S
C3189 C3173 1.377 . S
C3189 C3187 1.389 . S
C3189 C3190 1.524 . S
C3190 C3189 1.524 . S
C3190 C3191 1.397 . S
C3190 C3195 1.363 . S
C3191 H3162 0.950 . S
C3191 C3190 1.397 . S
C3191 C3192 1.334 . S
C3192 H3163 0.950 . S
C3192 C3191 1.334 . S
C3192 C3193 1.287 . S
C3193 C3192 1.287 . S
C3193 C3194 1.524 . S
C3193 H3196 0.999 . S
C3194 H3164 0.950 . S
C3194 C3193 1.524 . S
C3194 C3195 1.415 . S
C3195 H3165 0.950 . S
C3195 C3190 1.363 . S
C3195 C3194 1.415 . S
H3196 C3193 0.999 . S
H3197 C3178 0.913 . S
H3198 C3216 0.951 . S
H3199 C3218 0.951 . S
H3200 C3220 0.950 . S
H3201 C3221 0.950 . S
H3202 C3223 0.950 . S
H3203 C3226 0.950 . S
H3204 C3227 0.950 . S
H3205 C3229 0.950 . S
H3206 C3230 0.950 . S
H3207 C3231 0.951 . S
H3208 C3233 0.951 1_554 S
H3209 C3235 0.950 1_554 S
H3210 C3236 0.950 . S
H3211 C3238 0.950 . S
H3212 C3241 0.950 . S
H3213 C3242 0.950 . S
H3214 C3244 0.950 . S
H3215 C3245 0.950 . S
C3216 H3198 0.951 . S
C3216 C3217 1.366 . S
C3216 C3218 1.388 . S
C3217 C3216 1.366 . S
C3217 C3221 1.385 . S
C3218 H3199 0.951 . S
C3218 C3216 1.388 . S
C3218 C3219 1.366 . S
C3219 C3218 1.366 . S
C3219 C3220 1.414 . S
C3219 C3222 1.499 . S
C3220 H3200 0.950 . S
C3220 C3219 1.414 . S
C3220 C3221 1.374 . S
C3221 H3201 0.950 . S
C3221 C3217 1.385 . S
C3221 C3220 1.374 . S
C3222 C3219 1.499 . S
C3222 C3223 1.373 1_565 S
C3222 C3224 1.389 . S
C3223 H3202 0.950 . S
C3223 C3222 1.373 1_545 S
C3223 C3239 1.377 . S
C3224 C3222 1.389 . S
C3224 C3225 1.524 . S
C3224 C3238 1.377 . S
C3225 C3224 1.524 . S
C3225 C3226 1.397 . S
C3225 C3230 1.363 . S
C3226 H3203 0.950 . S
C3226 C3225 1.397 . S
C3226 C3227 1.334 . S
C3227 H3204 0.950 . S
C3227 C3226 1.334 . S
C3227 C3228 1.287 . S
C3228 C3227 1.287 . S
C3228 C3229 1.524 . S
C3228 H3247 0.913 . S
C3229 H3205 0.950 . S
C3229 C3228 1.524 . S
C3229 C3230 1.415 . S
C3230 H3206 0.950 . S
C3230 C3225 1.363 . S
C3230 C3229 1.415 . S
C3231 H3207 0.951 . S
C3231 C3232 1.366 . S
C3231 C3233 1.388 . S
C3232 C3231 1.366 . S
C3232 C3236 1.385 . S
C3233 H3208 0.951 1_556 S
C3233 C3231 1.388 . S
C3233 C3234 1.366 1_556 S
C3234 C3233 1.366 1_554 S
C3234 C3235 1.414 1_554 S
C3234 C3237 1.499 . S
C3235 H3209 0.950 1_556 S
C3235 C3234 1.414 1_556 S
C3235 C3236 1.374 . S
C3236 H3210 0.950 . S
C3236 C3232 1.385 . S
C3236 C3235 1.374 . S
C3237 C3234 1.499 . S
C3237 C3238 1.373 1_545 S
C3237 C3239 1.389 . S
C3238 H3211 0.950 . S
C3238 C3224 1.377 . S
C3238 C3237 1.373 1_565 S
C3239 C3223 1.377 . S
C3239 C3237 1.389 . S
C3239 C3240 1.524 . S
C3240 C3239 1.524 . S
C3240 C3241 1.397 . S
C3240 C3245 1.363 . S
C3241 H3212 0.950 . S
C3241 C3240 1.397 . S
C3241 C3242 1.334 . S
C3242 H3213 0.950 . S
C3242 C3241 1.334 . S
C3242 C3243 1.287 . S
C3243 C3242 1.287 . S
C3243 C3244 1.524 . S
C3243 H3246 0.999 . S
C3244 H3214 0.950 . S
C3244 C3243 1.524 . S
C3244 C3245 1.415 . S
C3245 H3215 0.950 . S
C3245 C3240 1.363 . S
C3245 C3244 1.415 . S
H3246 C3243 0.999 . S
H3247 C3228 0.913 . S
H3248 C3266 0.951 1_554 S
H3249 C3268 0.951 . S
H3250 C3270 0.950 . S
H3251 C3271 0.950 . S
H3252 C3273 0.950 . S
H3253 C3276 0.950 . S
H3254 C3277 0.950 . S
H3255 C3279 0.950 . S
H3256 C3280 0.950 . S
H3257 C3281 0.951 . S
H3258 C3283 0.951 . S
H3259 C3285 0.950 . S
H3260 C3286 0.950 . S
H3261 C3288 0.950 . S
H3262 C3291 0.950 . S
H3263 C3292 0.950 . S
H3264 C3294 0.950 . S
H3265 C3295 0.950 . S
C3266 H3248 0.951 1_556 S
C3266 C3267 1.366 . S
C3266 C3268 1.388 . S
C3267 C3266 1.366 . S
C3267 C3271 1.385 . S
C3268 H3249 0.951 . S
C3268 C3266 1.388 . S
C3268 C3269 1.366 . S
C3269 C3268 1.366 . S
C3269 C3270 1.414 . S
C3269 C3272 1.499 . S
C3270 H3250 0.950 . S
C3270 C3269 1.414 . S
C3270 C3271 1.374 . S
C3271 H3251 0.950 . S
C3271 C3267 1.385 . S
C3271 C3270 1.374 . S
C3272 C3269 1.499 . S
C3272 C3273 1.373 . S
C3272 C3274 1.389 . S
C3273 H3252 0.950 . S
C3273 C3272 1.373 . S
C3273 C3289 1.377 . S
C3274 C3272 1.389 . S
C3274 C3275 1.524 . S
C3274 C3288 1.377 . S
C3275 C3274 1.524 . S
C3275 C3276 1.397 . S
C3275 C3280 1.363 . S
C3276 H3253 0.950 . S
C3276 C3275 1.397 . S
C3276 C3277 1.334 . S
C3277 H3254 0.950 . S
C3277 C3276 1.334 . S
C3277 C3278 1.287 . S
C3278 C3277 1.287 . S
C3278 C3279 1.524 . S
C3278 H3297 0.913 . S
C3279 H3255 0.950 . S
C3279 C3278 1.524 . S
C3279 C3280 1.415 . S
C3280 H3256 0.950 . S
C3280 C3275 1.363 . S
C3280 C3279 1.415 . S
C3281 H3257 0.951 . S
C3281 C3282 1.366 . S
C3281 C3283 1.388 . S
C3282 C3281 1.366 . S
C3282 C3286 1.385 . S
C3283 H3258 0.951 . S
C3283 C3281 1.388 . S
C3283 C3284 1.366 . S
C3284 C3283 1.366 . S
C3284 C3285 1.414 . S
C3284 C3287 1.499 . S
C3285 H3259 0.950 . S
C3285 C3284 1.414 . S
C3285 C3286 1.374 . S
C3286 H3260 0.950 . S
C3286 C3282 1.385 . S
C3286 C3285 1.374 . S
C3287 C3284 1.499 . S
C3287 C3288 1.373 . S
C3287 C3289 1.389 . S
C3288 H3261 0.950 . S
C3288 C3274 1.377 . S
C3288 C3287 1.373 . S
C3289 C3273 1.377 . S
C3289 C3287 1.389 . S
C3289 C3290 1.524 . S
C3290 C3289 1.524 . S
C3290 C3291 1.397 . S
C3290 C3295 1.363 . S
C3291 H3262 0.950 . S
C3291 C3290 1.397 . S
C3291 C3292 1.334 . S
C3292 H3263 0.950 . S
C3292 C3291 1.334 . S
C3292 C3293 1.287 . S
C3293 C3292 1.287 . S
C3293 C3294 1.524 . S
C3293 H3296 0.999 . S
C3294 H3264 0.950 . S
C3294 C3293 1.524 . S
C3294 C3295 1.415 . S
C3295 H3265 0.950 . S
C3295 C3290 1.363 . S
C3295 C3294 1.415 . S
H3296 C3293 0.999 . S
H3297 C3278 0.913 . S
H3298 C3316 0.951 . S
H3299 C3318 0.951 . S
H3300 C3320 0.950 . S
H3301 C3321 0.950 . S
H3302 C3323 0.950 . S
H3303 C3326 0.950 . S
H3304 C3327 0.950 . S
H3305 C3329 0.950 . S
H3306 C3330 0.950 . S
H3307 C3331 0.951 . S
H3308 C3333 0.951 . S
H3309 C3335 0.950 . S
H3310 C3336 0.950 . S
H3311 C3338 0.950 . S
H3312 C3341 0.950 . S
H3313 C3342 0.950 1_556 S
H3314 C3344 0.950 . S
H3315 C3345 0.950 . S
C3316 H3298 0.951 . S
C3316 C3317 1.366 . S
C3316 C3318 1.388 . S
C3317 C3316 1.366 . S
C3317 C3321 1.385 . S
C3318 H3299 0.951 . S
C3318 C3316 1.388 . S
C3318 C3319 1.366 . S
C3319 C3318 1.366 . S
C3319 C3320 1.414 . S
C3319 C3322 1.499 . S
C3320 H3300 0.950 . S
C3320 C3319 1.414 . S
C3320 C3321 1.374 . S
C3321 H3301 0.950 . S
C3321 C3317 1.385 . S
C3321 C3320 1.374 . S
C3322 C3319 1.499 . S
C3322 C3323 1.373 . S
C3322 C3324 1.389 . S
C3323 H3302 0.950 . S
C3323 C3322 1.373 . S
C3323 C3339 1.377 . S
C3324 C3322 1.389 . S
C3324 C3325 1.524 . S
C3324 C3338 1.377 . S
C3325 C3324 1.524 . S
C3325 C3326 1.397 . S
C3325 C3330 1.363 . S
C3326 H3303 0.950 . S
C3326 C3325 1.397 . S
C3326 C3327 1.334 . S
C3327 H3304 0.950 . S
C3327 C3326 1.334 . S
C3327 C3328 1.287 . S
C3328 C3327 1.287 . S
C3328 C3329 1.524 . S
C3328 H3347 0.913 . S
C3329 H3305 0.950 . S
C3329 C3328 1.524 . S
C3329 C3330 1.415 . S
C3330 H3306 0.950 . S
C3330 C3325 1.363 . S
C3330 C3329 1.415 . S
C3331 H3307 0.951 . S
C3331 C3332 1.366 . S
C3331 C3333 1.388 1_556 S
C3332 C3331 1.366 . S
C3332 C3336 1.385 . S
C3333 H3308 0.951 . S
C3333 C3331 1.388 1_554 S
C3333 C3334 1.366 . S
C3334 C3333 1.366 . S
C3334 C3335 1.414 1_554 S
C3334 C3337 1.499 . S
C3335 H3309 0.950 . S
C3335 C3334 1.414 1_556 S
C3335 C3336 1.374 . S
C3336 H3310 0.950 . S
C3336 C3332 1.385 . S
C3336 C3335 1.374 . S
C3337 C3334 1.499 . S
C3337 C3338 1.373 . S
C3337 C3339 1.389 . S
C3338 H3311 0.950 . S
C3338 C3324 1.377 . S
C3338 C3337 1.373 . S
C3339 C3323 1.377 . S
C3339 C3337 1.389 . S
C3339 C3340 1.524 . S
C3340 C3339 1.524 . S
C3340 C3341 1.397 . S
C3340 C3345 1.363 . S
C3341 H3312 0.950 . S
C3341 C3340 1.397 . S
C3341 C3342 1.334 . S
C3342 H3313 0.950 1_554 S
C3342 C3341 1.334 . S
C3342 C3343 1.287 . S
C3343 C3342 1.287 . S
C3343 C3344 1.524 . S
C3343 H3346 0.999 . S
C3344 H3314 0.950 . S
C3344 C3343 1.524 . S
C3344 C3345 1.415 . S
C3345 H3315 0.950 . S
C3345 C3340 1.363 . S
C3345 C3344 1.415 . S
H3346 C3343 0.999 . S
H3347 C3328 0.913 . S
H3348 C3366 0.951 . S
H3349 C3368 0.951 . S
H3350 C3370 0.950 . S
H3351 C3371 0.950 . S
H3352 C3373 0.950 . S
H3353 C3376 0.950 . S
H3354 C3377 0.950 . S
H3355 C3379 0.950 . S
H3356 C3380 0.950 . S
H3357 C3381 0.951 . S
H3358 C3383 0.951 . S
H3359 C3385 0.950 . S
H3360 C3386 0.950 . S
H3361 C3388 0.950 . S
H3362 C3391 0.950 . S
H3363 C3392 0.950 . S
H3364 C3394 0.950 . S
H3365 C3395 0.950 . S
C3366 H3348 0.951 . S
C3366 C3367 1.366 . S
C3366 C3368 1.388 . S
C3367 C3366 1.366 . S
C3367 C3371 1.385 . S
C3368 H3349 0.951 . S
C3368 C3366 1.388 . S
C3368 C3369 1.366 . S
C3369 C3368 1.366 . S
C3369 C3370 1.414 . S
C3369 C3372 1.499 . S
C3370 H3350 0.950 . S
C3370 C3369 1.414 . S
C3370 C3371 1.374 . S
C3371 H3351 0.950 . S
C3371 C3367 1.385 . S
C3371 C3370 1.374 . S
C3372 C3369 1.499 . S
C3372 C3373 1.373 . S
C3372 C3374 1.389 . S
C3373 H3352 0.950 . S
C3373 C3372 1.373 . S
C3373 C3389 1.377 . S
C3374 C3372 1.389 . S
C3374 C3375 1.524 . S
C3374 C3388 1.377 . S
C3375 C3374 1.524 . S
C3375 C3376 1.397 . S
C3375 C3380 1.363 . S
C3376 H3353 0.950 . S
C3376 C3375 1.397 . S
C3376 C3377 1.334 . S
C3377 H3354 0.950 . S
C3377 C3376 1.334 . S
C3377 C3378 1.287 . S
C3378 C3377 1.287 . S
C3378 C3379 1.524 . S
C3378 H3397 0.913 . S
C3379 H3355 0.950 . S
C3379 C3378 1.524 . S
C3379 C3380 1.415 . S
C3380 H3356 0.950 . S
C3380 C3375 1.363 . S
C3380 C3379 1.415 . S
C3381 H3357 0.951 . S
C3381 C3382 1.366 . S
C3381 C3383 1.388 . S
C3382 C3381 1.366 . S
C3382 C3386 1.385 . S
C3383 H3358 0.951 . S
C3383 C3381 1.388 . S
C3383 C3384 1.366 . S
C3384 C3383 1.366 . S
C3384 C3385 1.414 . S
C3384 C3387 1.499 . S
C3385 H3359 0.950 . S
C3385 C3384 1.414 . S
C3385 C3386 1.374 . S
C3386 H3360 0.950 . S
C3386 C3382 1.385 . S
C3386 C3385 1.374 . S
C3387 C3384 1.499 . S
C3387 C3388 1.373 . S
C3387 C3389 1.389 . S
C3388 H3361 0.950 . S
C3388 C3374 1.377 . S
C3388 C3387 1.373 . S
C3389 C3373 1.377 . S
C3389 C3387 1.389 . S
C3389 C3390 1.524 . S
C3390 C3389 1.524 . S
C3390 C3391 1.397 . S
C3390 C3395 1.363 . S
C3391 H3362 0.950 . S
C3391 C3390 1.397 . S
C3391 C3392 1.334 . S
C3392 H3363 0.950 . S
C3392 C3391 1.334 . S
C3392 C3393 1.287 . S
C3393 C3392 1.287 . S
C3393 C3394 1.524 . S
C3393 H3396 0.999 . S
C3394 H3364 0.950 . S
C3394 C3393 1.524 . S
C3394 C3395 1.415 . S
C3395 H3365 0.950 . S
C3395 C3390 1.363 . S
C3395 C3394 1.415 . S
H3396 C3393 0.999 . S
H3397 C3378 0.913 . S
H3398 C3416 0.951 . S
H3399 C3418 0.951 . S
H3400 C3420 0.950 . S
H3401 C3421 0.950 . S
H3402 C3423 0.950 . S
H3403 C3426 0.950 . S
H3404 C3427 0.950 . S
H3405 C3429 0.950 . S
H3406 C3430 0.950 . S
H3407 C3431 0.951 . S
H3408 C3433 0.951 . S
H3409 C3435 0.950 . S
H3410 C3436 0.950 . S
H3411 C3438 0.950 . S
H3412 C3441 0.950 . S
H3413 C3442 0.950 . S
H3414 C3444 0.950 . S
H3415 C3445 0.950 . S
C3416 H3398 0.951 . S
C3416 C3417 1.366 . S
C3416 C3418 1.388 . S
C3417 C3416 1.366 . S
C3417 C3421 1.385 . S
C3418 H3399 0.951 . S
C3418 C3416 1.388 . S
C3418 C3419 1.366 . S
C3419 C3418 1.366 . S
C3419 C3420 1.414 . S
C3419 C3422 1.499 . S
C3420 H3400 0.950 . S
C3420 C3419 1.414 . S
C3420 C3421 1.374 . S
C3421 H3401 0.950 . S
C3421 C3417 1.385 . S
C3421 C3420 1.374 . S
C3422 C3419 1.499 . S
C3422 C3423 1.373 . S
C3422 C3424 1.389 . S
C3423 H3402 0.950 . S
C3423 C3422 1.373 . S
C3423 C3439 1.377 . S
C3424 C3422 1.389 . S
C3424 C3425 1.524 . S
C3424 C3438 1.377 . S
C3425 C3424 1.524 . S
C3425 C3426 1.397 . S
C3425 C3430 1.363 . S
C3426 H3403 0.950 . S
C3426 C3425 1.397 . S
C3426 C3427 1.334 . S
C3427 H3404 0.950 . S
C3427 C3426 1.334 . S
C3427 C3428 1.287 . S
C3428 C3427 1.287 . S
C3428 C3429 1.524 . S
C3428 H3447 0.913 . S
C3429 H3405 0.950 . S
C3429 C3428 1.524 . S
C3429 C3430 1.415 . S
C3430 H3406 0.950 . S
C3430 C3425 1.363 . S
C3430 C3429 1.415 . S
C3431 H3407 0.951 . S
C3431 C3432 1.366 . S
C3431 C3433 1.388 . S
C3432 C3431 1.366 . S
C3432 C3436 1.385 . S
C3433 H3408 0.951 . S
C3433 C3431 1.388 . S
C3433 C3434 1.366 . S
C3434 C3433 1.366 . S
C3434 C3435 1.414 . S
C3434 C3437 1.499 . S
C3435 H3409 0.950 . S
C3435 C3434 1.414 . S
C3435 C3436 1.374 . S
C3436 H3410 0.950 . S
C3436 C3432 1.385 . S
C3436 C3435 1.374 . S
C3437 C3434 1.499 . S
C3437 C3438 1.373 . S
C3437 C3439 1.389 . S
C3438 H3411 0.950 . S
C3438 C3424 1.377 . S
C3438 C3437 1.373 . S
C3439 C3423 1.377 . S
C3439 C3437 1.389 . S
C3439 C3440 1.524 . S
C3440 C3439 1.524 . S
C3440 C3441 1.397 . S
C3440 C3445 1.363 . S
C3441 H3412 0.950 . S
C3441 C3440 1.397 . S
C3441 C3442 1.334 . S
C3442 H3413 0.950 . S
C3442 C3441 1.334 . S
C3442 C3443 1.287 . S
C3443 C3442 1.287 . S
C3443 C3444 1.524 . S
C3443 H3446 0.999 . S
C3444 H3414 0.950 . S
C3444 C3443 1.524 . S
C3444 C3445 1.415 . S
C3445 H3415 0.950 . S
C3445 C3440 1.363 . S
C3445 C3444 1.415 . S
H3446 C3443 0.999 . S
H3447 C3428 0.913 . S
H3448 C3466 0.951 . S
H3449 C3468 0.951 . S
H3450 C3470 0.950 . S
H3451 C3471 0.950 . S
H3452 C3473 0.950 . S
H3453 C3476 0.950 . S
H3454 C3477 0.950 . S
H3455 C3479 0.950 . S
H3456 C3480 0.950 . S
H3457 C3481 0.951 . S
H3458 C3483 0.951 . S
H3459 C3485 0.950 . S
H3460 C3486 0.950 . S
H3461 C3488 0.950 . S
H3462 C3491 0.950 . S
H3463 C3492 0.950 . S
H3464 C3494 0.950 . S
H3465 C3495 0.950 . S
C3466 H3448 0.951 . S
C3466 C3467 1.366 . S
C3466 C3468 1.388 . S
C3467 C3466 1.366 . S
C3467 C3471 1.385 . S
C3468 H3449 0.951 . S
C3468 C3466 1.388 . S
C3468 C3469 1.366 . S
C3469 C3468 1.366 . S
C3469 C3470 1.414 . S
C3469 C3472 1.499 . S
C3470 H3450 0.950 . S
C3470 C3469 1.414 . S
C3470 C3471 1.374 . S
C3471 H3451 0.950 . S
C3471 C3467 1.385 . S
C3471 C3470 1.374 . S
C3472 C3469 1.499 . S
C3472 C3473 1.373 . S
C3472 C3474 1.389 . S
C3473 H3452 0.950 . S
C3473 C3472 1.373 . S
C3473 C3489 1.377 . S
C3474 C3472 1.389 . S
C3474 C3475 1.524 . S
C3474 C3488 1.377 . S
C3475 C3474 1.524 . S
C3475 C3476 1.397 . S
C3475 C3480 1.363 . S
C3476 H3453 0.950 . S
C3476 C3475 1.397 . S
C3476 C3477 1.334 . S
C3477 H3454 0.950 . S
C3477 C3476 1.334 . S
C3477 C3478 1.287 . S
C3478 C3477 1.287 . S
C3478 C3479 1.524 . S
C3478 H3497 0.913 . S
C3479 H3455 0.950 . S
C3479 C3478 1.524 . S
C3479 C3480 1.415 . S
C3480 H3456 0.950 . S
C3480 C3475 1.363 . S
C3480 C3479 1.415 . S
C3481 H3457 0.951 . S
C3481 C3482 1.366 . S
C3481 C3483 1.388 . S
C3482 C3481 1.366 . S
C3482 C3486 1.385 . S
C3483 H3458 0.951 . S
C3483 C3481 1.388 . S
C3483 C3484 1.366 . S
C3484 C3483 1.366 . S
C3484 C3485 1.414 . S
C3484 C3487 1.499 . S
C3485 H3459 0.950 . S
C3485 C3484 1.414 . S
C3485 C3486 1.374 . S
C3486 H3460 0.950 . S
C3486 C3482 1.385 . S
C3486 C3485 1.374 . S
C3487 C3484 1.499 . S
C3487 C3488 1.373 . S
C3487 C3489 1.389 . S
C3488 H3461 0.950 . S
C3488 C3474 1.377 . S
C3488 C3487 1.373 . S
C3489 C3473 1.377 . S
C3489 C3487 1.389 . S
C3489 C3490 1.524 . S
C3490 C3489 1.524 . S
C3490 C3491 1.397 . S
C3490 C3495 1.363 . S
C3491 H3462 0.950 . S
C3491 C3490 1.397 . S
C3491 C3492 1.334 . S
C3492 H3463 0.950 . S
C3492 C3491 1.334 . S
C3492 C3493 1.287 . S
C3493 C3492 1.287 . S
C3493 C3494 1.524 . S
C3493 H3496 0.999 . S
C3494 H3464 0.950 . S
C3494 C3493 1.524 . S
C3494 C3495 1.415 . S
C3495 H3465 0.950 . S
C3495 C3490 1.363 . S
C3495 C3494 1.415 . S
H3496 C3493 0.999 . S
H3497 C3478 0.913 . S
H3498 C3516 0.951 . S
H3499 C3518 0.951 . S
H3500 C3520 0.950 . S
H3501 C3521 0.950 . S
H3502 C3523 0.950 . S
H3503 C3526 0.950 . S
H3504 C3527 0.950 1_556 S
H3505 C3529 0.950 . S
H3506 C3530 0.950 . S
H3507 C3531 0.951 . S
H3508 C3533 0.951 . S
H3509 C3535 0.950 . S
H3510 C3536 0.950 . S
H3511 C3538 0.950 . S
H3512 C3541 0.950 . S
H3513 C3542 0.950 . S
H3514 C3544 0.950 . S
H3515 C3545 0.950 . S
C3516 H3498 0.951 . S
C3516 C3517 1.366 . S
C3516 C3518 1.388 1_556 S
C3517 C3516 1.366 . S
C3517 C3521 1.385 . S
C3518 H3499 0.951 . S
C3518 C3516 1.388 1_554 S
C3518 C3519 1.366 . S
C3519 C3518 1.366 . S
C3519 C3520 1.414 1_554 S
C3519 C3522 1.499 . S
C3520 H3500 0.950 . S
C3520 C3519 1.414 1_556 S
C3520 C3521 1.374 . S
C3521 H3501 0.950 . S
C3521 C3517 1.385 . S
C3521 C3520 1.374 . S
C3522 C3519 1.499 . S
C3522 C3523 1.373 . S
C3522 C3524 1.389 . S
C3523 H3502 0.950 . S
C3523 C3522 1.373 . S
C3523 C3539 1.377 . S
C3524 C3522 1.389 . S
C3524 C3525 1.524 . S
C3524 C3538 1.377 . S
C3525 C3524 1.524 . S
C3525 C3526 1.397 . S
C3525 C3530 1.363 . S
C3526 H3503 0.950 . S
C3526 C3525 1.397 . S
C3526 C3527 1.334 . S
C3527 H3504 0.950 1_554 S
C3527 C3526 1.334 . S
C3527 C3528 1.287 . S
C3528 C3527 1.287 . S
C3528 C3529 1.524 . S
C3528 H3547 0.913 . S
C3529 H3505 0.950 . S
C3529 C3528 1.524 . S
C3529 C3530 1.415 . S
C3530 H3506 0.950 . S
C3530 C3525 1.363 . S
C3530 C3529 1.415 . S
C3531 H3507 0.951 . S
C3531 C3532 1.366 . S
C3531 C3533 1.388 . S
C3532 C3531 1.366 . S
C3532 C3536 1.385 . S
C3533 H3508 0.951 . S
C3533 C3531 1.388 . S
C3533 C3534 1.366 . S
C3534 C3533 1.366 . S
C3534 C3535 1.414 . S
C3534 C3537 1.499 . S
C3535 H3509 0.950 . S
C3535 C3534 1.414 . S
C3535 C3536 1.374 . S
C3536 H3510 0.950 . S
C3536 C3532 1.385 . S
C3536 C3535 1.374 . S
C3537 C3534 1.499 . S
C3537 C3538 1.373 . S
C3537 C3539 1.389 . S
C3538 H3511 0.950 . S
C3538 C3524 1.377 . S
C3538 C3537 1.373 . S
C3539 C3523 1.377 . S
C3539 C3537 1.389 . S
C3539 C3540 1.524 . S
C3540 C3539 1.524 . S
C3540 C3541 1.397 . S
C3540 C3545 1.363 . S
C3541 H3512 0.950 . S
C3541 C3540 1.397 . S
C3541 C3542 1.334 . S
C3542 H3513 0.950 . S
C3542 C3541 1.334 . S
C3542 C3543 1.287 . S
C3543 C3542 1.287 . S
C3543 C3544 1.524 . S
C3543 H3546 0.999 . S
C3544 H3514 0.950 . S
C3544 C3543 1.524 . S
C3544 C3545 1.415 . S
C3545 H3515 0.950 . S
C3545 C3540 1.363 . S
C3545 C3544 1.415 . S
H3546 C3543 0.999 . S
H3547 C3528 0.913 . S
H3548 C3566 0.951 . S
H3549 C3568 0.951 . S
H3550 C3570 0.950 . S
H3551 C3571 0.950 1_554 S
H3552 C3573 0.950 . S
H3553 C3576 0.950 . S
H3554 C3577 0.950 . S
H3555 C3579 0.950 . S
H3556 C3580 0.950 . S
H3557 C3581 0.951 . S
H3558 C3583 0.951 . S
H3559 C3585 0.950 . S
H3560 C3586 0.950 . S
H3561 C3588 0.950 . S
H3562 C3591 0.950 . S
H3563 C3592 0.950 . S
H3564 C3594 0.950 . S
H3565 C3595 0.950 . S
C3566 H3548 0.951 . S
C3566 C3567 1.366 . S
C3566 C3568 1.388 . S
C3567 C3566 1.366 . S
C3567 C3571 1.385 . S
C3568 H3549 0.951 . S
C3568 C3566 1.388 . S
C3568 C3569 1.366 . S
C3569 C3568 1.366 . S
C3569 C3570 1.414 . S
C3569 C3572 1.499 . S
C3570 H3550 0.950 . S
C3570 C3569 1.414 . S
C3570 C3571 1.374 . S
C3571 H3551 0.950 1_556 S
C3571 C3567 1.385 . S
C3571 C3570 1.374 . S
C3572 C3569 1.499 . S
C3572 C3573 1.373 . S
C3572 C3574 1.389 . S
C3573 H3552 0.950 . S
C3573 C3572 1.373 . S
C3573 C3589 1.377 . S
C3574 C3572 1.389 . S
C3574 C3575 1.524 . S
C3574 C3588 1.377 . S
C3575 C3574 1.524 . S
C3575 C3576 1.397 . S
C3575 C3580 1.363 . S
C3576 H3553 0.950 . S
C3576 C3575 1.397 . S
C3576 C3577 1.334 . S
C3577 H3554 0.950 . S
C3577 C3576 1.334 . S
C3577 C3578 1.287 . S
C3578 C3577 1.287 . S
C3578 C3579 1.524 . S
C3578 H3597 0.913 . S
C3579 H3555 0.950 . S
C3579 C3578 1.524 . S
C3579 C3580 1.415 . S
C3580 H3556 0.950 . S
C3580 C3575 1.363 . S
C3580 C3579 1.415 . S
C3581 H3557 0.951 . S
C3581 C3582 1.366 . S
C3581 C3583 1.388 . S
C3582 C3581 1.366 . S
C3582 C3586 1.385 . S
C3583 H3558 0.951 . S
C3583 C3581 1.388 . S
C3583 C3584 1.366 . S
C3584 C3583 1.366 . S
C3584 C3585 1.414 . S
C3584 C3587 1.499 . S
C3585 H3559 0.950 . S
C3585 C3584 1.414 . S
C3585 C3586 1.374 . S
C3586 H3560 0.950 . S
C3586 C3582 1.385 . S
C3586 C3585 1.374 . S
C3587 C3584 1.499 . S
C3587 C3588 1.373 . S
C3587 C3589 1.389 . S
C3588 H3561 0.950 . S
C3588 C3574 1.377 . S
C3588 C3587 1.373 . S
C3589 C3573 1.377 . S
C3589 C3587 1.389 . S
C3589 C3590 1.524 . S
C3590 C3589 1.524 . S
C3590 C3591 1.397 . S
C3590 C3595 1.363 . S
C3591 H3562 0.950 . S
C3591 C3590 1.397 . S
C3591 C3592 1.334 . S
C3592 H3563 0.950 . S
C3592 C3591 1.334 . S
C3592 C3593 1.287 . S
C3593 C3592 1.287 . S
C3593 C3594 1.524 . S
C3593 H3596 0.999 . S
C3594 H3564 0.950 . S
C3594 C3593 1.524 . S
C3594 C3595 1.415 . S
C3595 H3565 0.950 . S
C3595 C3590 1.363 . S
C3595 C3594 1.415 . S
H3596 C3593 0.999 . S
H3597 C3578 0.913 . S
H3598 C3616 0.951 . S
H3599 C3618 0.951 . S
H3600 C3620 0.950 . S
H3601 C3621 0.950 . S
H3602 C3623 0.950 . S
H3603 C3626 0.950 . S
H3604 C3627 0.950 . S
H3605 C3629 0.950 . S
H3606 C3630 0.950 . S
H3607 C3631 0.951 . S
H3608 C3633 0.951 . S
H3609 C3635 0.950 . S
H3610 C3636 0.950 . S
H3611 C3638 0.950 . S
H3612 C3641 0.950 . S
H3613 C3642 0.950 . S
H3614 C3644 0.950 . S
H3615 C3645 0.950 . S
C3616 H3598 0.951 . S
C3616 C3617 1.366 . S
C3616 C3618 1.388 . S
C3617 C3616 1.366 . S
C3617 C3621 1.385 . S
C3618 H3599 0.951 . S
C3618 C3616 1.388 . S
C3618 C3619 1.366 . S
C3619 C3618 1.366 . S
C3619 C3620 1.414 . S
C3619 C3622 1.499 . S
C3620 H3600 0.950 . S
C3620 C3619 1.414 . S
C3620 C3621 1.374 . S
C3621 H3601 0.950 . S
C3621 C3617 1.385 . S
C3621 C3620 1.374 . S
C3622 C3619 1.499 . S
C3622 C3623 1.373 . S
C3622 C3624 1.389 . S
C3623 H3602 0.950 . S
C3623 C3622 1.373 . S
C3623 C3639 1.377 . S
C3624 C3622 1.389 . S
C3624 C3625 1.524 . S
C3624 C3638 1.377 . S
C3625 C3624 1.524 . S
C3625 C3626 1.397 . S
C3625 C3630 1.363 . S
C3626 H3603 0.950 . S
C3626 C3625 1.397 . S
C3626 C3627 1.334 . S
C3627 H3604 0.950 . S
C3627 C3626 1.334 . S
C3627 C3628 1.287 . S
C3628 C3627 1.287 . S
C3628 C3629 1.524 . S
C3628 H3647 0.913 . S
C3629 H3605 0.950 . S
C3629 C3628 1.524 . S
C3629 C3630 1.415 . S
C3630 H3606 0.950 . S
C3630 C3625 1.363 . S
C3630 C3629 1.415 . S
C3631 H3607 0.951 . S
C3631 C3632 1.366 . S
C3631 C3633 1.388 . S
C3632 C3631 1.366 . S
C3632 C3636 1.385 . S
C3633 H3608 0.951 . S
C3633 C3631 1.388 . S
C3633 C3634 1.366 . S
C3634 C3633 1.366 . S
C3634 C3635 1.414 . S
C3634 C3637 1.499 . S
C3635 H3609 0.950 . S
C3635 C3634 1.414 . S
C3635 C3636 1.374 . S
C3636 H3610 0.950 . S
C3636 C3632 1.385 . S
C3636 C3635 1.374 . S
C3637 C3634 1.499 . S
C3637 C3638 1.373 . S
C3637 C3639 1.389 . S
C3638 H3611 0.950 . S
C3638 C3624 1.377 . S
C3638 C3637 1.373 . S
C3639 C3623 1.377 . S
C3639 C3637 1.389 . S
C3639 C3640 1.524 . S
C3640 C3639 1.524 . S
C3640 C3641 1.397 . S
C3640 C3645 1.363 . S
C3641 H3612 0.950 . S
C3641 C3640 1.397 . S
C3641 C3642 1.334 . S
C3642 H3613 0.950 . S
C3642 C3641 1.334 . S
C3642 C3643 1.287 . S
C3643 C3642 1.287 . S
C3643 C3644 1.524 . S
C3643 H3646 0.999 . S
C3644 H3614 0.950 . S
C3644 C3643 1.524 . S
C3644 C3645 1.415 . S
C3645 H3615 0.950 . S
C3645 C3640 1.363 . S
C3645 C3644 1.415 . S
H3646 C3643 0.999 . S
H3647 C3628 0.913 . S
C467 C106 1.528 . S
C482 C8 1.528 . S
C517 C22 1.528 . S
C532 C64 1.528 . S
C567 C78 1.529 . S
C582 C36 1.529 . S
C617 C50 1.529 . S
C632 C92 1.529 . S
C667 C120 1.528 . S
C682 C218 1.528 . S
C717 C134 1.528 . S
C732 C176 1.528 . S
C767 C148 1.529 . S
C782 C190 1.529 . S
C817 C162 1.529 . S
C832 C204 1.529 . S
C867 C232 1.528 . S
C882 C330 1.528 . S
C917 C246 1.529 . S
C932 C288 1.529 . S
C967 C302 1.529 . S
C982 C260 1.528 . S
C1017 C316 1.528 . S
C1032 C274 1.528 . S
C1067 C344 1.528 . S
C1082 C442 1.528 . S
C1117 C400 1.528 . S
C1132 C358 1.528 . S
C1167 C414 1.529 . S
C1182 C372 1.528 . S
C1217 C386 1.529 . S
C1232 C428 1.529 . S
C1267 C7 0.364 1_556 S
C1282 C91 0.366 . S
C1317 C21 0.366 . S
C1332 C105 0.367 . S
C1367 C63 0.365 . S
C1382 C35 0.368 . S
C1417 C49 0.364 . S
C1432 C77 0.367 . S
C1467 C119 0.365 . S
C1482 C203 0.365 . S
C1517 C133 0.365 . S
C1532 C217 0.367 . S
C1567 C175 0.365 1_556 S
C1582 C147 0.367 . S
C1617 C189 0.365 . S
C1632 C161 0.364 . S
C1667 C231 0.367 . S
C1682 C315 0.366 . S
C1717 C329 0.364 . S
C1732 C245 0.366 . S
C1767 C287 0.366 . S
C1782 C259 0.364 1_556 S
C1817 C273 0.367 . S
C1832 C301 0.366 . S
C1867 C343 0.365 . S
C1882 C427 0.367 1_556 S
C1917 C357 0.367 . S
C1932 C441 0.366 . S
C1967 C399 0.365 . S
C1982 C371 0.367 . S
C2017 C413 0.367 . S
C2032 C385 0.365 . S
C2067 C9 1.532 . S
C2082 C429 1.532 . S
C2117 C23 1.532 . S
C2132 C219 1.532 . S
C2167 C37 1.532 . S
C2182 C401 1.532 . S
C2217 C51 1.532 . S
C2232 C191 1.532 . S
C2267 C65 1.532 . S
C2282 C373 1.532 . S
C2317 C79 1.532 . S
C2332 C163 1.532 . S
C2367 C93 1.532 . S
C2382 C345 1.532 . S
C2417 C135 1.532 . S
C2432 C107 1.532 . S
C2467 C317 1.532 . S
C2482 C121 1.532 . S
C2517 C149 1.532 . S
C2532 C289 1.532 . S
C2567 C261 1.532 . S
C2582 C177 1.532 . S
C2617 C233 1.532 . S
C2632 C205 1.532 . S
C2667 C247 1.532 . S
C2682 C443 1.532 . S
C2717 C275 1.532 . S
C2732 C415 1.532 . S
C2767 C303 1.532 . S
C2782 C387 1.532 . S
C2817 C359 1.532 . S
C2832 C331 1.532 . S
C2867 C3 1.623 . S
C2882 C87 1.623 . S
C2917 C17 1.623 . S
C2932 C101 1.623 . S
C2967 C59 1.623 1_556 S
C2982 C31 1.623 . S
C3017 C45 1.623 . S
C3032 C73 1.624 . S
C3067 C115 1.623 1_556 S
C3082 C199 1.623 . S
C3117 C129 1.623 . S
C3132 C213 1.623 . S
C3167 C171 1.623 . S
C3182 C143 1.623 . S
C3217 C157 1.623 . S
C3232 C185 1.623 . S
C3267 C311 1.623 1_556 S
C3282 C227 1.623 . S
C3317 C325 1.623 . S
C3332 C241 1.623 . S
C3367 C283 1.623 . S
C3382 C255 1.623 . S
C3417 C297 1.623 . S
C3432 C269 1.623 . S
C3467 C423 1.623 . S
C3482 C339 1.623 . S
C3517 C437 1.623 . S
C3532 C353 1.623 . S
C3567 C367 1.623 1_556 S
C3582 C395 1.623 . S
C3617 C409 1.623 . S
C3632 C381 1.623 . S
