# Generated by pormake.
# Topology rkf, (6)-cn, num edge types: 1
# Building blocks:
#     Node 0, Type 0, BuildingBlock: CUWYAW_clean_sbu_0, # of connection points: 6
#     Node 1, Type 0, BuildingBlock: CUWYAW_clean_sbu_0, # of connection points: 6
#     Node 2, Type 0, BuildingBlock: CUWYAW_clean_sbu_0, # of connection points: 6
#     Node 3, Type 0, BuildingBlock: CUWYAW_clean_sbu_0, # of connection points: 6
#     Node 4, Type 0, BuildingBlock: CUWYAW_clean_sbu_0, # of connection points: 6
#     Node 5, Type 0, BuildingBlock: CUWYAW_clean_sbu_0, # of connection points: 6
#     Edge 6, Type (0, 0), BuildingBlock: TEMPAE_clean_linker_10, # of connection points: 2
#     Edge 7, Type (0, 0), BuildingBlock: TEMPAE_clean_linker_10, # of connection points: 2
#     Edge 8, Type (0, 0), BuildingBlock: TEMPAE_clean_linker_10, # of connection points: 2
#     Edge 9, Type (0, 0), BuildingBlock: TEMPAE_clean_linker_10, # of connection points: 2
#     Edge 10, Type (0, 0), BuildingBlock: TEMPAE_clean_linker_10, # of connection points: 2
#     Edge 11, Type (0, 0), BuildingBlock: TEMPAE_clean_linker_10, # of connection points: 2
#     Edge 12, Type (0, 0), BuildingBlock: TEMPAE_clean_linker_10, # of connection points: 2
#     Edge 13, Type (0, 0), BuildingBlock: TEMPAE_clean_linker_10, # of connection points: 2
#     Edge 14, Type (0, 0), BuildingBlock: TEMPAE_clean_linker_10, # of connection points: 2
#     Edge 15, Type (0, 0), BuildingBlock: TEMPAE_clean_linker_10, # of connection points: 2
#     Edge 16, Type (0, 0), BuildingBlock: TEMPAE_clean_linker_10, # of connection points: 2
#     Edge 17, Type (0, 0), BuildingBlock: TEMPAE_clean_linker_10, # of connection points: 2
#     Edge 18, Type (0, 0), BuildingBlock: TEMPAE_clean_linker_10, # of connection points: 2
#     Edge 19, Type (0, 0), BuildingBlock: TEMPAE_clean_linker_10, # of connection points: 2
#     Edge 20, Type (0, 0), BuildingBlock: TEMPAE_clean_linker_10, # of connection points: 2
#     Edge 21, Type (0, 0), BuildingBlock: TEMPAE_clean_linker_10, # of connection points: 2
#     Edge 22, Type (0, 0), BuildingBlock: TEMPAE_clean_linker_10, # of connection points: 2
#     Edge 23, Type (0, 0), BuildingBlock: TEMPAE_clean_linker_10, # of connection points: 2
# Relax obj value: 0.738
# Max RMSD: 0.261
# Mean RMSD: 0.261
data_MOF--net-rkf--node1-CUWYAW_clean_sbu_0--edge1-TEMPAE_clean_linker_10
_symmetry_space_group_name_H-M    P1
_symmetry_Int_Tables_number       1
_symmetry_cell_setting            triclinic
loop_
_symmetry_equiv_pos_as_xyz
'x, y, z'
_cell_length_a     24.979171
_cell_length_b     25.083316
_cell_length_c     46.709932
_cell_angle_alpha  90.430993
_cell_angle_beta   89.678281
_cell_angle_gamma 119.85052
loop_
_atom_site_label
_atom_site_type_symbol
_atom_site_fract_x
_atom_site_fract_y
_atom_site_fract_z
_atom_type_partial_charge
C0 C 0.48939 0.37672 1.11602 0.0
Eu1 Eu 0.40609 0.26666 0.13218 0.0
C2 C 0.51942 0.41273 1.09059 0.0
C3 C 0.56886 0.47283 1.09369 0.0
C4 C 0.59655 0.50883 1.06956 0.0
C5 C 0.57499 0.48492 1.0421 0.0
C6 C 0.52723 0.42337 1.03923 0.0
C7 C 0.49969 0.38756 1.0633 0.0
C8 C 0.44971 0.19983 0.1591 0.0
C9 C 0.34418 0.16289 1.0776 0.0
C10 C 0.25089 0.03275 0.16468 0.0
Eu11 Eu 0.31244 0.14455 0.14564 0.0
C12 C 0.2492 -0.00351 0.18964 0.0
C13 C 0.1998 0.97548 0.20897 0.0
C14 C 0.19532 0.93754 0.23156 0.0
C15 C 0.23992 0.91954 0.23509 0.0
C16 C 0.2896 0.94079 0.21591 0.0
C17 C 0.29434 0.9791 0.19338 0.0
C18 C 0.26842 0.20685 1.11692 0.0
C19 C 0.34909 0.24895 0.19732 0.0
O20 O 0.43127 0.36012 1.11993 0.0
O21 O 0.50109 0.33269 0.12147 0.0
O22 O 0.46259 0.25456 0.16661 0.0
O23 O 0.41187 0.18162 0.1387 0.0
O24 O 0.37841 0.2225 1.08522 0.0
O25 O 0.31817 0.12204 1.09833 0.0
O26 O 0.29954 0.05296 0.14823 0.0
O27 O 0.23233 0.07287 0.16828 0.0
O28 O 0.24861 0.14887 1.11439 0.0
O29 O 0.30675 0.23001 0.13703 0.0
O30 O 0.32436 0.18943 0.19092 0.0
O31 O 0.37966 0.28954 0.17673 0.0
H32 H 0.58504 0.49237 1.11478 0.0
H33 H 0.63321 0.55581 1.07236 0.0
H34 H 0.50849 0.40379 1.01843 0.0
H35 H 0.46189 0.34094 1.06066 0.0
H36 H 0.16401 -0.01254 0.20632 0.0
H37 H 0.15596 0.92089 0.24585 0.0
H38 H 0.3246 0.92766 0.21829 0.0
H39 H 0.33288 -0.00579 0.17872 0.0
C40 C 0.20432 0.49378 0.45055 0.0
Eu41 Eu 0.25223 0.42646 0.46539 0.0
C42 C 0.19142 0.51733 0.42462 0.0
C43 C 0.15908 0.54957 0.42639 0.0
C44 C 0.14576 0.57137 0.40154 0.0
C45 C 0.16511 0.56143 0.3747 0.0
C46 C 0.19932 0.53063 0.37337 0.0
C47 C 0.21236 0.50883 0.39811 0.0
C48 C 0.36431 0.48169 0.4914 0.0
C49 C 0.30464 0.37879 0.40917 0.0
C50 C 0.37116 0.29761 0.48859 0.0
Eu51 Eu 0.3021 0.34509 0.47663 0.0
C52 C 0.42207 0.30542 0.50663 0.0
C53 C 0.436 0.33829 0.53241 0.0
C54 C 0.48574 0.34556 0.54883 0.0
C55 C 0.52246 0.32049 0.53953 0.0
C56 C 0.51029 0.29089 0.51278 0.0
C57 C 0.46033 0.28331 0.49651 0.0
C58 C 0.19235 0.28877 0.44993 0.0
C59 C 0.22973 0.37083 0.53068 0.0
O60 O 0.17149 0.43443 0.4547 0.0
O61 O 0.26276 0.51567 0.45598 0.0
O62 O 0.31941 0.49053 0.49869 0.0
O63 O 0.34843 0.44466 0.47069 0.0
O64 O 0.27189 0.40525 0.41787 0.0
O65 O 0.32695 0.35768 0.42892 0.0
O66 O 0.38608 0.34189 0.47036 0.0
O67 O 0.31661 0.2781 0.5002 0.0
O68 O 0.2353 0.27508 0.44648 0.0
O69 O 0.2051 0.3266 0.47011 0.0
O70 O 0.2703 0.35315 0.52304 0.0
O71 O 0.21053 0.39548 0.51084 0.0
H72 H 0.14321 0.5569 0.4469 0.0
H73 H 0.1189 0.59433 0.40328 0.0
H74 H 0.2134 0.52038 0.35305 0.0
H75 H 0.23768 0.48426 0.39648 0.0
H76 H 0.40773 0.35705 0.54008 0.0
H77 H 0.49307 0.36769 0.56957 0.0
H78 H 0.5378 0.27136 0.50501 0.0
H79 H 0.45098 0.25933 0.47615 0.0
C80 C 0.86561 0.26045 0.78268 0.0
Eu81 Eu -0.02272 0.29797 0.80079 0.0
C82 C 0.83115 0.23133 0.75665 0.0
C83 C 0.77904 0.23567 0.74954 0.0
C84 C 0.74822 0.21079 0.72376 0.0
C85 C 0.76942 0.18137 0.70489 0.0
C86 C 0.82067 0.17562 0.71277 0.0
C87 C 0.85173 0.20113 0.7382 0.0
C88 C 0.0469 0.41412 0.8226 0.0
C89 C 0.07628 0.33152 0.74551 0.0
C90 C 0.22075 0.3866 0.82879 0.0
Eu91 Eu 0.10547 0.33021 0.81352 0.0
C92 C 0.26408 0.42025 0.85211 0.0
C93 C 0.27516 0.38863 0.87377 0.0
C94 C 0.32113 0.42092 0.89393 0.0
C95 C 0.35693 0.48545 0.89287 0.0
C96 C 0.34538 0.51719 0.87143 0.0
C97 C 0.29935 0.48482 0.85118 0.0
C98 C 0.03873 0.21961 0.78846 0.0
C99 C 0.0007 0.26662 0.86644 0.0
O100 O 0.88077 0.2269 0.79822 0.0
O101 O 0.911 0.3167 0.7796 0.0
O102 O -0.00954 0.37622 0.82985 0.0
O103 O 0.06412 0.3885 0.80432 0.0
O104 O 0.01713 0.30402 0.75404 0.0
O105 O 0.12007 0.35191 0.76533 0.0
O106 O 0.19359 0.4139 0.81693 0.0
O107 O 0.18453 0.327 0.8311 0.0
O108 O 0.09748 0.25471 0.78414 0.0
O109 O 0.01988 0.24155 0.80769 0.0
O110 O 0.06069 0.29832 0.85928 0.0
O111 O 0.95885 0.25772 0.84662 0.0
H112 H 0.76293 0.25922 0.76367 0.0
H113 H 0.70896 0.21589 0.71835 0.0
H114 H 0.83723 0.15168 0.69917 0.0
H115 H 0.89215 0.19773 0.74333 0.0
H116 H 0.24954 0.33891 0.87475 0.0
H117 H 0.32991 0.39508 0.90988 0.0
H118 H 0.3722 0.56684 0.87018 0.0
H119 H 0.29231 0.51029 0.8344 0.0
C120 C 0.7167 0.8552 1.11543 0.0
Eu121 Eu 0.78932 0.97194 0.12589 0.0
C122 C 0.7112 0.8134 1.09217 0.0
C123 C 0.68195 0.75001 1.09711 0.0
C124 C 0.68469 0.71077 1.07648 0.0
C125 C 0.71674 0.73459 1.05066 0.0
C126 C 0.74391 0.79805 1.04546 0.0
C127 C 0.74129 0.83712 1.06607 0.0
C128 C 0.74806 0.04892 0.14137 0.0
C129 C 0.85052 0.07311 1.07314 0.0
C130 C 0.95991 0.20283 0.14937 0.0
Eu131 Eu 0.88681 0.08545 0.14173 0.0
C132 C 0.97369 0.25298 0.16967 0.0
C133 C 0.03026 0.28063 0.18413 0.0
C134 C 0.04471 0.32846 0.20337 0.0
C135 C 0.00312 0.34988 0.2082 0.0
C136 C 0.94739 0.32382 0.1931 0.0
C137 C 0.93258 0.27543 0.17397 0.0
C138 C 0.92573 0.00966 1.11743 0.0
C139 C 0.84453 -0.00834 0.19419 0.0
O140 O 0.76776 0.87705 0.13011 0.0
O141 O 0.70241 0.89735 1.10935 0.0
O142 O 0.72811 0.01225 1.11959 0.0
O143 O 0.78818 0.04278 0.15513 0.0
O144 O 0.81945 0.01286 1.07916 0.0
O145 O 0.87493 0.11096 1.09527 0.0
O146 O 0.90745 0.17941 0.13572 0.0
O147 O 0.97379 0.16123 0.15722 0.0
O148 O 0.94811 0.04183 0.1406 0.0
O149 O 0.88264 0.01753 1.10961 0.0
O150 O 0.8753 0.05077 0.18785 0.0
O151 O 0.81085 0.9526 0.17322 0.0
H152 H 0.65898 0.73118 1.11731 0.0
H153 H 0.66312 0.66218 1.08103 0.0
H154 H 0.76998 0.81811 1.02606 0.0
H155 H 0.76496 0.88614 1.06212 0.0
H156 H 0.06315 0.26494 0.18071 0.0
H157 H 0.08826 0.34848 0.21471 0.0
H158 H 0.9147 0.33967 0.19671 0.0
H159 H 0.88888 0.25545 0.1628 0.0
C160 C 0.96477 0.7313 0.45808 0.0
Eu161 Eu 0.92425 0.809 0.46255 0.0
C162 C 0.00201 0.71614 0.43865 0.0
C163 C 0.9744 0.65986 0.42377 0.0
C164 C 0.00815 0.64751 0.40344 0.0
C165 C 0.07008 0.69124 0.39786 0.0
C166 C 0.09872 0.74539 0.41438 0.0
C167 C 0.06508 0.75774 0.43454 0.0
C168 C 0.80676 0.77357 0.47681 0.0
C169 C 0.88858 0.86574 0.40652 0.0
C170 C 0.85928 0.97999 0.47855 0.0
Eu171 Eu 0.90858 0.90996 0.47484 0.0
C172 C 0.81591 -0.01339 0.49738 0.0
C173 C 0.81438 0.97547 0.52675 0.0
C174 C 0.77106 0.97942 0.54417 0.0
C175 C 0.72769 -0.0064 0.5325 0.0
C176 C 0.7287 0.00352 0.50289 0.0
C177 C 0.77255 2e-05 0.48548 0.0
C178 C 0.02427 0.94441 0.45328 0.0
C179 C 0.95591 0.86985 0.53001 0.0
O180 O -0.00618 0.78389 0.47166 0.0
O181 O 0.91046 0.71933 0.44901 0.0
O182 O 0.8224 0.74986 0.45606 0.0
O183 O 0.8534 0.81396 0.49004 0.0
O184 O 0.91645 0.83415 0.41445 0.0
O185 O 0.87499 0.8934 0.42736 0.0
O186 O 0.83499 0.92842 0.46419 0.0
O187 O 0.91394 -0.00428 0.4888 0.0
O188 O 0.01314 0.97046 0.47482 0.0
O189 O 0.9738 0.90095 0.4452 0.0
O190 O 0.92769 0.90017 0.52209 0.0
O191 O 0.96353 0.83557 0.51 0.0
H192 H 0.92613 0.62647 0.42706 0.0
H193 H -0.01492 0.6053 0.39108 0.0
H194 H 0.14603 0.78057 0.4103 0.0
H195 H 0.0881 0.80116 0.44597 0.0
H196 H 0.84689 0.96412 0.53627 0.0
H197 H 0.77299 0.97322 0.56698 0.0
H198 H 0.696 0.0144 0.49324 0.0
H199 H 0.77256 0.00765 0.46267 0.0
C200 C 0.3281 0.07574 0.78689 0.0
Eu201 Eu 0.21752 -0.01589 0.79658 0.0
C202 C 0.36952 0.10551 0.76282 0.0
C203 C 0.34941 0.08623 0.73479 0.0
C204 C 0.38918 0.11517 0.71192 0.0
C205 C 0.44949 0.16379 0.71681 0.0
C206 C 0.4702 0.18152 0.74498 0.0
C207 C 0.43021 0.15249 0.76791 0.0
C208 C 0.20132 0.86973 0.80461 0.0
C209 C 0.12068 0.91785 0.7441 0.0
C210 C 0.00114 0.7891 0.82527 0.0
Eu211 Eu 0.09854 0.89602 0.81659 0.0
C212 C -0.02395 0.74258 0.84774 0.0
C213 C 0.91224 0.70309 0.84906 0.0
C214 C 0.88568 0.66703 0.87323 0.0
C215 C 0.92274 0.67011 0.89648 0.0
C216 C -0.01261 0.70503 0.89368 0.0
C217 C 0.01389 0.74153 0.86953 0.0
C218 C 0.09763 0.0 0.80443 0.0
C219 C 0.1915 -0.01557 0.86711 0.0
O220 O 0.27902 0.08173 0.78857 0.0
O221 O 0.31609 0.01984 0.79206 0.0
O222 O 0.22377 0.90086 0.78128 0.0
O223 O 0.18665 0.89922 0.82176 0.0
O224 O 0.17659 0.96401 0.75069 0.0
O225 O 0.08449 0.88411 0.76589 0.0
O226 O 0.05068 0.79636 0.81215 0.0
O227 O 0.00377 0.84128 0.83151 0.0
O228 O 0.07554 0.96894 0.82789 0.0
O229 O 0.12652 0.97878 0.79045 0.0
O230 O 0.13914 0.93186 0.86225 0.0
O231 O 0.2256 0.01466 0.84453 0.0
H232 H 0.30288 0.04932 0.73063 0.0
H233 H 0.37247 0.10036 0.69033 0.0
H234 H 0.51633 0.21912 0.74918 0.0
H235 H 0.44634 0.1672 0.78959 0.0
H236 H 0.88253 0.70328 0.83228 0.0
H237 H 0.8358 0.6413 0.87469 0.0
H238 H 0.01717 0.70769 0.91105 0.0
H239 H 0.06345 0.7716 0.86869 0.0
C240 C 0.96935 0.03712 1.06873 0.0
C241 C 0.96866 0.01098 1.09539 0.0
C242 C 0.02567 0.0809 1.05683 0.0
C243 C 0.08037 0.09066 1.07002 0.0
C244 C 0.07667 0.04561 1.08942 0.0
C245 C 0.02089 0.00879 1.10364 0.0
C246 C 0.02543 0.12319 1.03416 0.0
C247 C 0.13205 0.04172 1.09841 0.0
C248 C 0.24216 0.22207 1.07 0.0
C249 C 0.2428 0.23645 1.09917 0.0
C250 C 0.18673 0.1767 1.05766 0.0
C251 C 0.13203 0.15452 1.07382 0.0
C252 C 0.13211 0.18841 1.09839 0.0
C253 C 0.18879 0.2312 1.11055 0.0
C254 C 0.18856 0.14731 1.02977 0.0
C255 C 0.07392 0.17359 1.11435 0.0
H256 H 0.92746 0.03277 1.06013 0.0
H257 H 0.01991 -0.01583 0.1228 0.0
H258 H 0.07189 0.1544 1.0253 0.0
H259 H -0.00575 0.0956 1.01646 0.0
H260 H 0.00706 0.1517 1.04348 0.0
H261 H 0.171 0.06599 1.08324 0.0
H262 H 0.14501 0.06035 0.12046 0.0
H263 H 0.12016 -0.00721 1.09929 0.0
H264 H 0.28534 0.23377 1.05952 0.0
H265 H 0.18959 0.24864 0.13197 0.0
H266 H 0.14299 0.12317 1.0191 0.0
H267 H 0.20296 0.1129 1.03403 0.0
H268 H 0.22257 0.1824 1.015 0.0
H269 H 0.08048 0.21351 0.12748 0.0
H270 H 0.0621 0.13467 0.129 0.0
H271 H 0.0348 0.16068 1.09951 0.0
C272 C 0.04511 -0.01593 0.40397 0.0
C273 C 0.06831 0.98376 0.43133 0.0
C274 C 0.06131 0.04013 0.39091 0.0
C275 C 0.10657 0.09443 0.40422 0.0
C276 C 0.14497 0.08999 0.42528 0.0
C277 C 0.12321 0.03468 0.43997 0.0
C278 C 0.02193 0.04085 0.36675 0.0
C279 C 0.20178 0.14528 0.43639 0.0
C280 C 0.15058 0.25878 0.40273 0.0
C281 C 0.13744 0.26134 0.43177 0.0
C282 C 0.13534 0.20194 0.39036 0.0
C283 C 0.09737 0.14833 0.40612 0.0
C284 C 0.06508 0.15274 0.43042 0.0
C285 C 0.08641 0.21035 0.4434 0.0
C286 C 0.16809 0.20111 0.36332 0.0
C287 C 0.01685 0.09685 0.44592 0.0
H288 H 0.00658 0.94288 0.39544 0.0
H289 H 0.1443 0.03371 0.46006 0.0
H290 H -0.02416 0.02937 0.37526 0.0
H291 H 0.04244 0.08614 0.35606 0.0
H292 H 0.01467 0.00508 0.35064 0.0
H293 H 0.2365 0.1326 0.44322 0.0
H294 H 0.22276 0.18136 0.41978 0.0
H295 H 0.18902 0.1629 0.45557 0.0
H296 H 0.18478 0.30014 0.39235 0.0
H297 H 0.07179 0.21293 0.46503 0.0
H298 H 0.14919 0.15439 0.35403 0.0
H299 H 0.21779 0.21958 0.36801 0.0
H300 H 0.1651 0.2318 0.34718 0.0
H301 H -0.016 0.10729 0.45737 0.0
H302 H 0.03987 0.08316 0.46216 0.0
H303 H -0.00954 0.05777 0.43105 0.0
C304 C 0.06303 0.02267 0.75838 0.0
C305 C 0.05688 0.01616 0.78818 0.0
C306 C 0.0173 0.02396 0.7416 0.0
C307 C 0.96685 0.02605 0.75494 0.0
C308 C 0.95586 0.00867 0.78447 0.0
C309 C 0.00253 0.00823 0.80084 0.0
C310 C 0.02209 0.01939 0.70959 0.0
C311 C 0.89351 0.98346 0.79865 0.0
C312 C 0.93611 0.12869 0.77599 0.0
C313 C -0.0015 0.1694 0.76921 0.0
C314 C 0.90291 0.0765 0.75839 0.0
C315 C 0.93778 0.05993 0.7403 0.0
C316 C -0.01802 0.11224 0.72526 0.0
C317 C 0.01947 0.16474 0.74175 0.0
C318 C 0.83365 0.04247 0.75771 0.0
C319 C -0.02007 0.11717 0.69331 0.0
H320 H 0.10225 0.02366 0.74781 0.0
H321 H -0.00575 -0.00275 0.82343 0.0
H322 H 0.05692 0.0647 0.70097 0.0
H323 H 0.03852 -0.0132 0.70414 0.0
H324 H -0.02314 0.00275 0.69901 0.0
H325 H 0.88675 0.94936 0.81539 0.0
H326 H 0.88995 0.02091 0.80965 0.0
H327 H 0.85585 0.95965 0.78287 0.0
H328 H 0.91372 0.13791 0.79371 0.0
H329 H 0.06052 0.20285 0.73259 0.0
H330 H 0.81449 0.03626 0.77972 0.0
H331 H 0.81525 -0.00266 0.74668 0.0
H332 H 0.81793 0.07026 0.74581 0.0
H333 H 0.94805 0.07221 0.68319 0.0
H334 H 0.02701 0.1366 0.68411 0.0
H335 H 0.96342 0.1497 0.68817 0.0
C336 C 0.59526 0.50211 0.98995 0.0
C337 C 0.59269 0.52555 1.0169 0.0
C338 C 0.57842 0.52205 0.9655 0.0
C339 C 0.56093 0.56751 0.96848 0.0
C340 C 0.57479 0.60201 0.99409 0.0
C341 C 0.58881 0.57939 1.01854 0.0
C342 C 0.56798 0.48647 0.93793 0.0
C343 C 0.56395 0.65578 0.99686 0.0
C344 C 0.46678 0.56314 0.90452 0.0
C345 C 0.40767 0.51825 0.91357 0.0
C346 C 0.51741 0.58515 0.92317 0.0
C347 C 0.50842 0.56025 0.951 0.0
C348 C 0.4477 0.51903 0.96087 0.0
C349 C 0.39815 0.49954 0.94211 0.0
C350 C 0.58036 0.63198 0.91225 0.0
C351 C 0.43493 0.49103 0.99047 0.0
H352 H 0.60128 0.46224 0.98857 0.0
H353 H 0.58884 0.59933 1.0392 0.0
H354 H 0.51768 0.45727 0.93402 0.0
H355 H 0.58816 0.51853 0.9197 0.0
H356 H 0.5887 0.45624 0.93847 0.0
H357 H 0.59174 0.68696 1.01457 0.0
H358 H 0.57572 0.68205 0.97656 0.0
H359 H 0.5145 0.63886 1.00158 0.0
H360 H 0.47425 0.57851 0.88249 0.0
H361 H 0.35203 0.46655 0.94933 0.0
H362 H 0.5984 0.60896 0.89798 0.0
H363 H 0.61385 0.65549 0.92982 0.0
H364 H 0.57702 0.66711 0.89925 0.0
H365 H 0.45948 0.46483 0.99336 0.0
H366 H 0.38499 0.45923 0.99434 0.0
H367 H 0.45162 0.5276 1.00706 0.0
C368 C 0.07849 0.55266 0.3452 0.0
C369 C 0.14164 0.57278 0.34776 0.0
C370 C 0.04998 0.53673 0.31835 0.0
C371 C 0.08514 0.53777 0.29435 0.0
C372 C 0.1503 0.56941 0.2961 0.0
C373 C 0.17811 0.58824 0.32297 0.0
C374 C -0.01916 0.508 0.31674 0.0
C375 C 0.18964 0.57191 0.27094 0.0
C376 C 0.03121 0.38538 0.25796 0.0
C377 C 0.01676 0.39627 0.23061 0.0
C378 C 0.05061 0.43037 0.27922 0.0
C379 C 0.05562 0.48795 0.27286 0.0
C380 C 0.03776 0.49807 0.24565 0.0
C381 C 0.01837 0.45172 0.22467 0.0
C382 C 0.06834 0.41678 0.30807 0.0
C383 C 0.04182 0.55834 0.23814 0.0
H384 H 0.04994 0.54249 0.36417 0.0
H385 H 0.22751 0.6068 0.32489 0.0
H386 H 0.96627 0.5157 0.2955 0.0
H387 H 0.95924 0.45767 0.32005 0.0
H388 H 0.96345 0.52691 0.33367 0.0
H389 H 0.23884 0.60737 0.27401 0.0
H390 H 0.18714 0.52666 0.26846 0.0
H391 H 0.1726 0.58142 0.25084 0.0
H392 H 0.02864 0.34181 0.2625 0.0
H393 H 0.00682 0.4597 0.20338 0.0
H394 H 0.04101 0.42277 0.32529 0.0
H395 H 0.11787 0.4491 0.31239 0.0
H396 H 0.06054 0.36921 0.30937 0.0
H397 H 0.03246 0.57961 0.25698 0.0
H398 H 0.0089 0.55226 0.22083 0.0
H399 H 0.08906 0.59072 0.23035 0.0
C400 C 0.67573 0.1268 0.67328 0.0
C401 C 0.74008 0.15774 0.67668 0.0
C402 C 0.64861 0.09794 0.6472 0.0
C403 C 0.68685 0.09813 0.62464 0.0
C404 C 0.75202 0.13275 0.62755 0.0
C405 C 0.77749 0.16346 0.65318 0.0
C406 C 0.5793 0.06586 0.64461 0.0
C407 C 0.79561 0.13469 0.60438 0.0
C408 C 0.66618 0.97146 0.57747 0.0
C409 C 0.68746 0.00509 0.55206 0.0
C410 C 0.65389 -0.00281 0.60154 0.0
C411 C 0.66129 0.05677 0.59947 0.0
C412 C 0.66711 0.08307 0.57215 0.0
C413 C 0.68165 0.05756 0.54862 0.0
C414 C 0.64351 0.96531 0.62998 0.0
C415 C 0.66832 0.1433 0.56845 0.0
H416 H 0.64636 0.12324 0.69119 0.0
H417 H 0.82728 0.18998 0.65526 0.0
H418 H 0.56348 0.05563 0.62205 0.0
H419 H 0.55857 0.02228 0.65681 0.0
H420 H 0.56159 0.0946 0.65439 0.0
H421 H 0.8446 0.15929 0.61136 0.0
H422 H 0.7837 0.08743 0.59785 0.0
H423 H 0.79184 0.15852 0.58527 0.0
H424 H 0.66659 0.92864 0.57959 0.0
H425 H 0.69539 0.08287 0.52871 0.0
H426 H 0.60328 0.96345 0.64104 0.0
H427 H 0.68456 -0.0085 0.64385 0.0
H428 H 0.63512 0.91765 0.62757 0.0
H429 H 0.65111 0.15623 0.58772 0.0
H430 H 0.63969 0.14033 0.54975 0.0
H431 H 0.71622 0.18027 0.56393 0.0
C432 C 0.72604 0.70445 1.00069 0.0
C433 C 0.72734 0.69539 1.03015 0.0
C434 C 0.74921 0.67845 0.98114 0.0
C435 C 0.7745 0.64267 0.99141 0.0
C436 C 0.76842 0.62674 1.02069 0.0
C437 C 0.74547 0.65393 1.03987 0.0
C438 C 0.75204 0.69435 0.94983 0.0
C439 C 0.79117 0.5857 1.03231 0.0
C440 C 0.83548 0.5965 0.92784 0.0
C441 C 0.89357 0.64953 0.92504 0.0
C442 C 0.79794 0.58878 0.95171 0.0
C443 C 0.81895 0.63552 0.97282 0.0
C444 C 0.88087 0.68428 0.97208 0.0
C445 C 0.9175 0.69058 0.9482 0.0
C446 C 0.73375 0.53408 0.95264 0.0
C447 C 0.906 0.73448 0.99458 0.0
H448 H 0.70974 0.73454 0.99301 0.0
H449 H 0.74589 0.64595 1.06261 0.0
H450 H 0.80089 0.72263 0.94298 0.0
H451 H 0.7308 0.65185 0.93664 0.0
H452 H 0.72782 0.7204 0.94531 0.0
H453 H 0.76346 0.55982 1.05122 0.0
H454 H 0.78927 0.55254 1.01593 0.0
H455 H 0.83979 0.61436 1.03933 0.0
H456 H 0.81739 0.56356 0.91036 0.0
H457 H 0.9624 0.73158 0.94641 0.0
H458 H 0.7017 0.54618 0.94205 0.0
H459 H 0.71795 0.52046 0.975 0.0
H460 H 0.73139 0.49418 0.94099 0.0
H461 H 0.88344 0.76281 0.99245 0.0
H462 H 0.95669 0.7652 0.99255 0.0
H463 H 0.8958 0.71442 1.01634 0.0
C464 C 0.16505 0.71134 0.37103 0.0
C465 C 0.10107 0.68817 0.37135 0.0
C466 C 0.19881 0.73421 0.34566 0.0
C467 C 0.16747 0.73448 0.32062 0.0
C468 C 0.10224 0.69969 0.31974 0.0
C469 C 0.06958 0.67721 0.34533 0.0
C470 C 0.26824 0.76671 0.34697 0.0
C471 C 0.06662 0.696 0.29312 0.0
C472 C 0.2164 0.88649 0.28568 0.0
C473 C 0.23266 0.87683 0.25826 0.0
C474 C 0.19926 0.84186 0.30684 0.0
C475 C 0.19876 0.78625 0.30036 0.0
C476 C 0.2204 0.77862 0.27347 0.0
C477 C 0.23684 0.82405 0.25255 0.0
C478 C 0.17795 0.85295 0.33553 0.0
C479 C 0.22279 0.72128 0.26617 0.0
H480 H 0.18937 0.71759 0.39104 0.0
H481 H 0.01995 0.65806 0.34524 0.0
H482 H 0.28875 0.76714 0.32579 0.0
H483 H 0.28592 0.81502 0.35392 0.0
H484 H 0.2838 0.74447 0.36281 0.0
H485 H 0.01918 0.65568 0.29374 0.0
H486 H 0.06288 0.73819 0.29162 0.0
H487 H 0.09025 0.69292 0.27358 0.0
H488 H 0.21481 0.92814 0.29023 0.0
H489 H 0.24982 0.81674 0.23132 0.0
H490 H 0.20432 0.84719 0.35308 0.0
H491 H 0.12841 0.81896 0.33881 0.0
H492 H 0.18379 0.89974 0.33732 0.0
H493 H 0.17596 0.68413 0.26023 0.0
H494 H 0.2383 0.70551 0.28484 0.0
H495 H 0.2542 0.72865 0.24783 0.0
C496 C 0.54897 0.21223 0.68893 0.0
C497 C 0.48778 0.19923 0.69232 0.0
C498 C 0.58288 0.24257 0.66432 0.0
C499 C 0.55429 0.25928 0.64285 0.0
C500 C 0.49351 0.24892 0.64714 0.0
C501 C 0.4614 0.21934 0.67186 0.0
C502 C 0.6481 0.25472 0.66094 0.0
C503 C 0.46088 0.26677 0.62522 0.0
C504 C 0.59576 0.35995 0.58073 0.0
C505 C 0.56321 0.31377 0.56032 0.0
C506 C 0.60676 0.34446 0.60799 0.0
C507 C 0.58331 0.28173 0.61449 0.0
C508 C 0.56457 0.23814 0.59196 0.0
C509 C 0.55488 0.25489 0.56483 0.0
C510 C 0.63166 0.39314 0.63105 0.0
C511 C 0.54145 0.17105 0.59769 0.0
H512 H 0.56953 0.19712 0.70503 0.0
H513 H 0.41474 0.21084 0.67502 0.0
H514 H 0.64801 0.2178 0.64774 0.0
H515 H 0.67772 0.29894 0.64992 0.0
H516 H 0.66895 0.25556 0.68198 0.0
H517 H 0.41384 0.25548 0.63224 0.0
H518 H 0.48776 0.31686 0.62114 0.0
H519 H 0.45645 0.24242 0.60469 0.0
H520 H 0.60513 0.40638 0.57678 0.0
H521 H 0.53154 0.21914 0.54886 0.0
H522 H 0.65463 0.38154 0.64821 0.0
H523 H 0.59295 0.39674 0.64081 0.0
H524 H 0.66494 0.43871 0.62199 0.0
H525 H 0.56939 0.16545 0.61442 0.0
H526 H 0.54241 0.14646 0.57799 0.0
H527 H 0.49301 0.14915 0.60543 0.0
C528 C 0.54901 0.21277 0.17803 0.0
C529 C 0.49188 0.17553 0.16471 0.0
C530 C 0.59394 0.19466 0.17918 0.0
C531 C 0.58104 0.13754 0.16712 0.0
C532 C 0.52167 0.09784 0.15558 0.0
C533 C 0.47797 0.11753 0.15431 0.0
C534 C 0.65662 0.23857 0.19148 0.0
C535 C 0.50546 0.03602 0.143 0.0
C536 C 0.70608 0.11713 0.13115 0.0
C537 C 0.71618 0.08179 0.15111 0.0
C538 C 0.66495 0.13859 0.13692 0.0
C539 C 0.63153 0.12268 0.16302 0.0
C540 C 0.64363 0.08916 0.18386 0.0
C541 C 0.68644 0.06947 0.17773 0.0
C542 C 0.65485 0.17549 1.11435 0.0
C543 C 0.6085 0.07062 0.21176 0.0
H544 H 0.56 0.25762 0.18622 0.0
H545 H 0.43367 0.08838 0.14424 0.0
H546 H 0.69087 0.25802 0.17384 0.0
H547 H 0.65674 0.27714 0.20339 0.0
H548 H 0.67209 0.21423 0.20607 0.0
H549 H 0.45532 0.00747 0.13844 0.0
H550 H 0.53124 0.04268 0.12268 0.0
H551 H 0.51916 0.01051 0.15779 0.0
H552 H 0.7289 0.12613 1.11048 0.0
H553 H 0.69344 0.04102 0.19291 0.0
H554 H 0.65832 0.2177 0.12394 0.0
H555 H 0.60776 0.14797 1.10532 0.0
H556 H 0.68875 0.18902 1.09654 0.0
H557 H 0.60785 0.11039 0.22194 0.0
H558 H 0.62852 0.05162 0.22706 0.0
H559 H 0.55986 0.03507 0.20754 0.0
C560 C 0.44607 0.58019 0.51258 0.0
C561 C 0.42909 0.52367 0.49931 0.0
C562 C 0.50846 0.62528 0.51536 0.0
C563 C 0.55448 0.6129 0.50494 0.0
C564 C 0.53745 0.55363 0.4941 0.0
C565 C 0.47481 0.50985 0.49116 0.0
C566 C 0.5247 0.68772 0.52715 0.0
C567 C 0.58517 0.53794 0.48347 0.0
C568 C 0.69681 0.73302 0.46705 0.0
C569 C 0.74291 0.74473 0.48696 0.0
C570 C 0.63464 0.69368 0.47363 0.0
C571 C 0.61859 0.66391 0.50052 0.0
C572 C 0.6649 0.67849 0.52139 0.0
C573 C 0.72695 0.71947 0.5144 0.0
C574 C 0.58663 0.68071 0.45098 0.0
C575 C 0.64972 0.64731 0.55016 0.0
H576 H 0.41066 0.59073 0.51917 0.0
H577 H 0.46165 0.46574 0.48135 0.0
H578 H 0.56516 0.7055 0.5416 0.0
H579 H 0.53729 0.72061 0.5092 0.0
H580 H 0.48548 0.68657 0.53903 0.0
H581 H 0.56525 0.4877 0.48001 0.0
H582 H 0.60455 0.56161 0.46285 0.0
H583 H 0.62385 0.55405 0.49889 0.0
H584 H 0.70973 0.75272 0.44581 0.0
H585 H 0.76313 0.7281 0.52957 0.0
H586 H 0.54762 0.68447 0.4602 0.0
H587 H 0.56781 0.63304 0.44282 0.0
H588 H 0.60593 0.71271 0.4326 0.0
H589 H 0.60702 0.64397 0.55921 0.0
H590 H 0.68798 0.67194 0.56569 0.0
H591 H 0.64147 0.5998 0.54752 0.0
C592 C 0.03269 0.50613 0.82484 0.0
C593 C 0.07256 0.4818 0.82365 0.0
C594 C 0.05531 0.56976 0.82263 0.0
C595 C 0.11971 0.61052 0.82013 0.0
C596 C 0.16039 0.58634 0.82024 0.0
C597 C 0.13624 0.52224 0.82143 0.0
C598 C 0.01003 0.59311 0.82186 0.0
C599 C 0.22942 0.62813 0.81877 0.0
C600 C 0.1747 0.76628 0.78487 0.0
C601 C 0.18418 0.8045 0.80858 0.0
C602 C 0.15383 0.7032 0.78834 0.0
C603 C 0.14402 0.67802 0.81626 0.0
C604 C 0.15534 0.71703 0.8403 0.0
C605 C 0.17433 0.77952 0.83615 0.0
C606 C 0.14036 0.6631 0.76208 0.0
C607 C 0.14685 0.69275 0.87044 0.0
H608 H -0.01668 0.47515 0.82627 0.0
H609 H 0.16724 0.50377 0.82061 0.0
H610 H 0.01955 0.62633 0.83956 0.0
H611 H 0.01541 0.6179 0.80152 0.0
H612 H 0.96139 0.55542 0.82369 0.0
H613 H 0.25487 0.60276 0.82182 0.0
H614 H 0.24243 0.65125 0.79768 0.0
H615 H 0.24449 0.6646 0.83541 0.0
H616 H 0.18159 0.78528 0.76352 0.0
H617 H 0.18165 0.80899 0.85454 0.0
H618 H 0.09121 0.62624 0.76222 0.0
H619 H 0.16875 0.6404 0.76221 0.0
H620 H 0.14975 0.68954 0.74191 0.0
H621 H 0.09715 0.66118 0.87472 0.0
H622 H 0.16448 0.7302 0.8867 0.0
H623 H 0.17101 0.66606 0.87312 0.0
C624 C 0.29931 0.22871 0.24823 0.0
C625 C 0.34201 0.27005 0.22798 0.0
C626 C 0.29189 0.24731 0.27652 0.0
C627 C 0.32837 0.30946 0.28625 0.0
C628 C 0.37174 0.35135 0.26594 0.0
C629 C 0.37747 0.33172 0.23759 0.0
C630 C 0.24361 0.19988 0.29597 0.0
C631 C 0.41331 0.41759 0.27434 0.0
C632 C 0.27969 0.37236 0.35408 0.0
C633 C 0.3127 0.36582 0.37709 0.0
C634 C 0.28379 0.35433 0.32509 0.0
C635 C 0.32305 0.3298 0.31761 0.0
C636 C 0.35736 0.32451 0.34066 0.0
C637 C 0.35144 0.34158 0.3694 0.0
C638 C 0.24438 0.36012 0.30242 0.0
C639 C 0.40065 0.29999 0.33502 0.0
H640 H 0.27066 0.18109 0.24186 0.0
H641 H 0.4109 0.36514 0.22295 0.0
H642 H 0.2639 0.19996 0.31704 0.0
H643 H 0.20679 0.21159 0.29983 0.0
H644 H 0.22221 0.1528 0.28671 0.0
H645 H 0.44479 0.44503 0.2567 0.0
H646 H 0.38515 0.43869 0.28077 0.0
H647 H 0.44148 0.4202 0.29316 0.0
H648 H 0.24892 0.39007 0.35882 0.0
H649 H 0.37764 0.33541 0.38615 0.0
H650 H 0.21185 0.31392 0.2936 0.0
H651 H 0.27368 0.38844 0.28443 0.0
H652 H 0.21739 0.38111 0.31086 0.0
H653 H 0.37415 0.25184 0.3272 0.0
H654 H 0.42664 0.30114 0.35445 0.0
H655 H 0.43414 0.32732 0.31799 0.0
C656 C 0.21118 0.32467 0.58216 0.0
C657 C 0.20539 0.36349 0.56204 0.0
C658 C 0.18811 0.31729 0.61102 0.0
C659 C 0.159 0.35039 0.62146 0.0
C660 C 0.15347 0.38995 0.60129 0.0
C661 C 0.17557 0.39534 0.57238 0.0
C662 C 0.19471 0.27324 0.63047 0.0
C663 C 0.12457 0.42773 0.6104 0.0
C664 C 0.05488 0.30017 0.69138 0.0
C665 C 0.09547 0.33699 0.71341 0.0
C666 C 0.07443 0.30341 0.66205 0.0
C667 C 0.1365 0.34539 0.65329 0.0
C668 C 0.17718 0.38318 0.67543 0.0
C669 C 0.15682 0.37807 0.70458 0.0
C670 C 0.02842 0.26029 0.64043 0.0
C671 C 0.24309 0.42987 0.66831 0.0
H672 H 0.23332 0.29901 0.57523 0.0
H673 H 0.1702 0.42579 0.55784 0.0
H674 H 0.22472 0.29867 0.64886 0.0
H675 H 0.14892 0.23937 0.63929 0.0
H676 H 0.2148 0.24804 0.61925 0.0
H677 H 0.12366 0.45678 0.59279 0.0
H678 H 0.07661 0.39709 0.61788 0.0
H679 H 0.15066 0.45792 0.62868 0.0
H680 H 0.00766 0.26744 0.69716 0.0
H681 H 0.18965 0.40722 0.72067 0.0
H682 H 0.0424 0.22677 0.63312 0.0
H683 H 0.0278 0.28598 0.62133 0.0
H684 H -0.01904 0.23452 0.64939 0.0
H685 H 0.26739 0.40629 0.65973 0.0
H686 H 0.26883 0.45779 0.68724 0.0
H687 H 0.24416 0.46121 0.65139 0.0
C688 C 0.91723 0.21594 0.9064 0.0
C689 C -0.02111 0.23878 0.89699 0.0
C690 C 0.89542 0.18904 0.93414 0.0
C691 C 0.93483 0.18231 0.95409 0.0
C692 C -0.0029 0.20489 0.94467 0.0
C693 C 0.01804 0.23266 0.91693 0.0
C694 C 0.82938 0.16802 0.94223 0.0
C695 C 0.04197 0.19865 0.96382 0.0
C696 C 0.89653 0.16343 1.03693 0.0
C697 C 0.86782 0.09936 1.04212 0.0
C698 C 0.9174 0.19011 1.00911 0.0
C699 C 0.91139 0.15322 0.98456 0.0
C700 C 0.88227 0.08841 0.98958 0.0
C701 C 0.86078 0.06272 1.01764 0.0
C702 C 0.94654 0.25879 1.00608 0.0
C703 C 0.87516 0.04574 0.96521 0.0
H704 H 0.88535 0.2195 0.89198 0.0
H705 H 0.06549 0.24881 0.9107 0.0
H706 H 0.80468 0.11803 0.94676 0.0
H707 H 0.82802 0.19185 0.9621 0.0
H708 H 0.80429 0.17708 0.92511 0.0
H709 H 0.08947 0.22155 0.95483 0.0
H710 H 0.04323 0.21853 0.98527 0.0
H711 H 0.02638 0.1492 0.96684 0.0
H712 H 0.9033 0.19357 1.05495 0.0
H713 H 0.83989 0.01353 1.02051 0.0
H714 H 0.92185 0.26972 0.9895 0.0
H715 H -0.00489 0.27848 0.99886 0.0
H716 H 0.94596 0.28156 1.02647 0.0
H717 H 0.84858 0.05095 0.94758 0.0
H718 H 0.85144 -0.00318 0.97189 0.0
H719 H 0.92134 0.05811 0.95652 0.0
C720 C 0.81047 0.90973 0.23535 0.0
C721 C 0.84973 0.96999 0.22497 0.0
C722 C 0.8155 0.89067 0.26386 0.0
C723 C 0.86184 0.93155 0.28357 0.0
C724 C 0.90201 -0.00789 0.27304 0.0
C725 C 0.8953 0.01024 0.24469 0.0
C726 C 0.77013 0.82612 0.27305 0.0
C727 C 0.95331 0.03838 0.29179 0.0
C728 C 0.84418 0.90663 0.36753 0.0
C729 C 0.87972 0.8787 0.37461 0.0
C730 C 0.83733 0.92248 0.33876 0.0
C731 C 0.86738 0.91205 0.31502 0.0
C732 C 0.9036 0.88403 0.32197 0.0
C733 C 0.90882 0.86758 0.351 0.0
C734 C 0.79756 0.95112 0.33383 0.0
C735 C 0.93844 0.87248 0.29861 0.0
H736 H 0.77479 0.87708 0.22121 0.0
H737 H 0.92691 0.05677 0.23783 0.0
H738 H 0.79514 0.80169 0.27907 0.0
H739 H 0.74454 0.82742 0.2923 0.0
H740 H 0.73639 0.79943 0.25595 0.0
H741 H -0.01959 0.08377 0.28127 0.0
H742 H 0.93418 0.04476 0.31219 0.0
H743 H -0.01499 0.02098 0.2973 0.0
H744 H 0.82119 0.9165 0.38477 0.0
H745 H 0.9373 0.84717 0.35524 0.0
H746 H 0.76184 0.92422 0.31753 0.0
H747 H 0.82622 -0.00169 0.32536 0.0
H748 H 0.77434 0.95361 0.35373 0.0
H749 H 0.90614 0.84339 0.28155 0.0
H750 H 0.96362 0.84959 0.3067 0.0
H751 H 0.97216 0.91676 0.28865 0.0
C752 C 0.97319 0.91318 0.58237 0.0
C753 C -0.02036 0.8752 0.56153 0.0
C754 C -0.00482 0.91957 0.61136 0.0
C755 C 0.02529 0.88734 0.62126 0.0
C756 C 0.03182 0.8488 0.60038 0.0
C757 C 0.00954 0.84338 0.57145 0.0
C758 C -0.01393 0.9615 0.6316 0.0
C759 C 0.06283 0.81281 0.60864 0.0
C760 C 0.1331 0.94656 0.68982 0.0
C761 C 0.09641 0.90837 0.71254 0.0
C762 C 0.11118 0.94026 0.66083 0.0
C763 C 0.05 0.8943 0.6529 0.0
C764 C 0.01273 0.85555 0.67574 0.0
C765 C 0.0358 0.8629 0.7046 0.0
C766 C 0.15408 0.98384 0.63849 0.0
C767 C 0.94744 0.80588 0.6697 0.0
H768 H 0.95076 0.93868 0.57598 0.0
H769 H 0.01577 0.81376 0.55645 0.0
H770 H 0.95782 0.93487 0.6502 0.0
H771 H 0.03131 -0.00257 0.64007 0.0
H772 H 0.96292 -0.01572 0.62119 0.0
H773 H 0.06438 0.78435 0.59067 0.0
H774 H 0.11071 0.84474 0.61582 0.0
H775 H 0.03797 0.78227 0.62692 0.0
H776 H 0.17968 0.98243 0.69471 0.0
H777 H 0.0056 0.83277 0.72116 0.0
H778 H 0.13391 0.01064 0.62938 0.0
H779 H 0.1596 0.95753 0.62064 0.0
H780 H 0.20038 0.01638 0.6473 0.0
H781 H 0.92033 0.82678 0.66173 0.0
H782 H 0.92414 0.7782 0.68899 0.0
H783 H 0.94716 0.77474 0.65263 0.0
C784 C 0.27785 0.04705 0.90453 0.0
C785 C 0.21424 0.01056 0.89798 0.0
C786 C 0.30065 0.0714 0.93267 0.0
C787 C 0.25983 0.06321 0.95607 0.0
C788 C 0.19517 0.02735 0.9493 0.0
C789 C 0.17387 0.00096 0.92123 0.0
C790 C 0.36963 0.10557 0.93686 0.0
C791 C 0.14642 0.01649 0.97127 0.0
C792 C 0.29734 0.07592 1.03919 0.0
C793 C 0.32804 0.13965 1.04584 0.0
C794 C 0.27726 0.05148 1.01084 0.0
C795 C 0.28441 0.09027 0.98707 0.0
C796 C 0.31583 0.15501 0.99361 0.0
C797 C 0.33795 0.17835 1.02209 0.0
C798 C 0.24775 0.98288 1.00684 0.0
C799 C 0.3253 0.20123 0.97088 0.0
H800 H 0.31085 0.05569 0.88753 0.0
H801 H 0.12465 0.97384 0.91737 0.0
H802 H 0.3884 0.154 0.93017 0.0
H803 H 0.38295 0.10499 0.95942 0.0
H804 H 0.39181 0.0856 0.92316 0.0
H805 H 0.12215 0.96734 0.9775 0.0
H806 H 0.16515 0.04523 0.99072 0.0
H807 H 0.11128 0.02589 0.96178 0.0
H808 H 0.28859 0.044 1.05647 0.0
H809 H 0.36106 0.2275 1.02585 0.0
H810 H 0.25582 0.97048 0.98502 0.0
H811 H 0.19728 0.96153 1.01033 0.0
H812 H 0.26559 0.96275 1.02268 0.0
H813 H 0.3731 0.22167 0.96249 0.0
H814 H 0.3202 0.23941 0.98012 0.0
H815 H 0.29251 0.1806 0.95281 0.0
loop_
_geom_bond_atom_site_label_1
_geom_bond_atom_site_label_2
_geom_bond_distance
_geom_bond_site_symmetry_2
_ccdc_geom_bond_type
C0 Eu1 2.835 . S
C0 C2 1.500 . S
C0 O20 1.257 . S
C0 O21 1.260 . S
Eu1 C0 2.835 . S
Eu1 O20 2.473 . S
Eu1 O21 2.480 . S
Eu1 O22 2.430 . S
Eu1 O23 2.670 1_556 S
Eu1 O24 2.394 . S
Eu1 O29 2.355 1_556 S
Eu1 O31 2.374 1_556 S
C2 C0 1.500 . S
C2 C3 1.377 . S
C2 C7 1.377 . S
C3 C2 1.377 . S
C3 C4 1.395 . S
C3 H32 0.931 . S
C4 C3 1.395 . S
C4 C5 1.383 . S
C4 H33 0.931 . S
C5 C4 1.383 . S
C5 C6 1.394 . S
C6 C5 1.394 . S
C6 C7 1.378 . S
C6 H34 0.931 . S
C7 C2 1.377 . S
C7 C6 1.378 . S
C7 H35 0.931 . S
C8 O22 1.259 1_554 S
C8 O23 1.270 . S
C9 O24 1.251 . S
C9 O25 1.251 . S
C10 Eu11 2.835 . S
C10 C12 1.500 . S
C10 O26 1.257 . S
C10 O27 1.260 . S
Eu11 C10 2.835 . S
Eu11 O23 2.355 . S
Eu11 O25 2.374 1_554 S
Eu11 O26 2.473 . S
Eu11 O27 2.480 . S
Eu11 O28 2.430 . S
Eu11 O29 2.670 . S
Eu11 O30 2.394 . S
C12 C10 1.500 . S
C12 C13 1.377 . S
C12 C17 1.377 . S
C13 C12 1.377 . S
C13 C14 1.395 . S
C13 H36 0.931 . S
C14 C13 1.395 . S
C14 C15 1.383 . S
C14 H37 0.931 . S
C15 C14 1.383 . S
C15 C16 1.394 . S
C16 C15 1.394 . S
C16 C17 1.378 . S
C16 H38 0.931 . S
C17 C12 1.377 . S
C17 C16 1.378 . S
C17 H39 0.931 . S
C18 O28 1.259 . S
C18 O29 1.270 . S
C19 O30 1.251 . S
C19 O31 1.251 . S
O20 C0 1.257 . S
O20 Eu1 2.473 . S
O21 C0 1.260 . S
O21 Eu1 2.480 . S
O22 Eu1 2.430 . S
O22 C8 1.259 1_556 S
O23 Eu1 2.670 1_554 S
O23 C8 1.270 . S
O23 Eu11 2.355 . S
O24 Eu1 2.394 . S
O24 C9 1.251 . S
O25 C9 1.251 . S
O25 Eu11 2.374 1_556 S
O26 C10 1.257 . S
O26 Eu11 2.473 . S
O27 C10 1.260 . S
O27 Eu11 2.480 . S
O28 Eu11 2.430 . S
O28 C18 1.259 . S
O29 Eu1 2.355 1_554 S
O29 Eu11 2.670 . S
O29 C18 1.270 . S
O30 Eu11 2.394 . S
O30 C19 1.251 . S
O31 Eu1 2.374 1_554 S
O31 C19 1.251 . S
H32 C3 0.931 . S
H33 C4 0.931 . S
H34 C6 0.931 . S
H35 C7 0.931 . S
H36 C13 0.931 . S
H37 C14 0.931 . S
H38 C16 0.931 . S
H39 C17 0.931 . S
C40 Eu41 2.835 . S
C40 C42 1.500 . S
C40 O60 1.257 . S
C40 O61 1.260 . S
Eu41 C40 2.835 . S
Eu41 O60 2.473 . S
Eu41 O61 2.480 . S
Eu41 O62 2.430 . S
Eu41 O63 2.670 . S
Eu41 O64 2.394 . S
Eu41 O69 2.355 . S
Eu41 O71 2.374 . S
C42 C40 1.500 . S
C42 C43 1.377 . S
C42 C47 1.377 . S
C43 C42 1.377 . S
C43 C44 1.395 . S
C43 H72 0.931 . S
C44 C43 1.395 . S
C44 C45 1.383 . S
C44 H73 0.931 . S
C45 C44 1.383 . S
C45 C46 1.394 . S
C46 C45 1.394 . S
C46 C47 1.378 . S
C46 H74 0.931 . S
C47 C42 1.377 . S
C47 C46 1.378 . S
C47 H75 0.931 . S
C48 O62 1.259 . S
C48 O63 1.270 . S
C49 O64 1.251 . S
C49 O65 1.251 . S
C50 Eu51 2.835 . S
C50 C52 1.500 . S
C50 O66 1.257 . S
C50 O67 1.260 . S
Eu51 C50 2.835 . S
Eu51 O63 2.355 . S
Eu51 O65 2.374 . S
Eu51 O66 2.473 . S
Eu51 O67 2.480 . S
Eu51 O68 2.430 . S
Eu51 O69 2.670 . S
Eu51 O70 2.394 . S
C52 C50 1.500 . S
C52 C53 1.377 . S
C52 C57 1.377 . S
C53 C52 1.377 . S
C53 C54 1.395 . S
C53 H76 0.931 . S
C54 C53 1.395 . S
C54 C55 1.383 . S
C54 H77 0.931 . S
C55 C54 1.383 . S
C55 C56 1.394 . S
C56 C55 1.394 . S
C56 C57 1.378 . S
C56 H78 0.931 . S
C57 C52 1.377 . S
C57 C56 1.378 . S
C57 H79 0.931 . S
C58 O68 1.259 . S
C58 O69 1.270 . S
C59 O70 1.251 . S
C59 O71 1.251 . S
O60 C40 1.257 . S
O60 Eu41 2.473 . S
O61 C40 1.260 . S
O61 Eu41 2.480 . S
O62 Eu41 2.430 . S
O62 C48 1.259 . S
O63 Eu41 2.670 . S
O63 C48 1.270 . S
O63 Eu51 2.355 . S
O64 Eu41 2.394 . S
O64 C49 1.251 . S
O65 C49 1.251 . S
O65 Eu51 2.374 . S
O66 C50 1.257 . S
O66 Eu51 2.473 . S
O67 C50 1.260 . S
O67 Eu51 2.480 . S
O68 Eu51 2.430 . S
O68 C58 1.259 . S
O69 Eu41 2.355 . S
O69 Eu51 2.670 . S
O69 C58 1.270 . S
O70 Eu51 2.394 . S
O70 C59 1.251 . S
O71 Eu41 2.374 . S
O71 C59 1.251 . S
H72 C43 0.931 . S
H73 C44 0.931 . S
H74 C46 0.931 . S
H75 C47 0.931 . S
H76 C53 0.931 . S
H77 C54 0.931 . S
H78 C56 0.931 . S
H79 C57 0.931 . S
C80 Eu81 2.835 . S
C80 C82 1.500 . S
C80 O100 1.257 . S
C80 O101 1.260 . S
Eu81 C80 2.835 . S
Eu81 O100 2.473 . S
Eu81 O101 2.480 . S
Eu81 O102 2.430 . S
Eu81 O103 2.672 . S
Eu81 O104 2.394 1_655 S
Eu81 O109 2.355 1_655 S
Eu81 O111 2.374 . S
C82 C80 1.500 . S
C82 C83 1.377 . S
C82 C87 1.377 . S
C83 C82 1.377 . S
C83 C84 1.395 . S
C83 H112 0.931 . S
C84 C83 1.395 . S
C84 C85 1.383 . S
C84 H113 0.931 . S
C85 C84 1.383 . S
C85 C86 1.394 . S
C86 C85 1.394 . S
C86 C87 1.378 . S
C86 H114 0.931 . S
C87 C82 1.377 . S
C87 C86 1.378 . S
C87 H115 0.931 . S
C88 O102 1.259 . S
C88 O103 1.276 . S
C89 O104 1.251 . S
C89 O105 1.251 . S
C90 Eu91 2.835 . S
C90 C92 1.500 . S
C90 O106 1.257 . S
C90 O107 1.260 . S
Eu91 C90 2.835 . S
Eu91 O103 2.348 1_455 S
Eu91 O105 2.374 . S
Eu91 O106 2.473 . S
Eu91 O107 2.480 . S
Eu91 O108 2.430 . S
Eu91 O109 2.670 . S
Eu91 O110 2.392 1_455 S
C92 C90 1.500 . S
C92 C93 1.377 . S
C92 C97 1.377 . S
C93 C92 1.377 . S
C93 C94 1.395 . S
C93 H116 0.931 . S
C94 C93 1.395 . S
C94 C95 1.383 . S
C94 H117 0.931 . S
C95 C94 1.383 . S
C95 C96 1.394 . S
C96 C95 1.394 . S
C96 C97 1.378 . S
C96 H118 0.931 . S
C97 C92 1.377 . S
C97 C96 1.378 . S
C97 H119 0.931 . S
C98 O108 1.259 . S
C98 O109 1.270 . S
C99 O110 1.255 . S
C99 O111 1.251 . S
O100 C80 1.257 . S
O100 Eu81 2.473 . S
O101 C80 1.260 . S
O101 Eu81 2.480 . S
O102 Eu81 2.430 . S
O102 C88 1.259 . S
O103 Eu81 2.672 . S
O103 C88 1.276 . S
O103 Eu91 2.348 1_655 S
O104 Eu81 2.394 1_455 S
O104 C89 1.251 . S
O105 C89 1.251 . S
O105 Eu91 2.374 . S
O106 C90 1.257 . S
O106 Eu91 2.473 . S
O107 C90 1.260 . S
O107 Eu91 2.480 . S
O108 Eu91 2.430 . S
O108 C98 1.259 . S
O109 Eu81 2.355 1_455 S
O109 Eu91 2.670 . S
O109 C98 1.270 . S
O110 Eu91 2.392 1_655 S
O110 C99 1.255 . S
O111 Eu81 2.374 . S
O111 C99 1.251 . S
H112 C83 0.931 . S
H113 C84 0.931 . S
H114 C86 0.931 . S
H115 C87 0.931 . S
H116 C93 0.931 . S
H117 C94 0.931 . S
H118 C96 0.931 . S
H119 C97 0.931 . S
C120 Eu121 2.835 . S
C120 C122 1.500 . S
C120 O140 1.257 . S
C120 O141 1.260 . S
Eu121 C120 2.835 . S
Eu121 O140 2.473 . S
Eu121 O141 2.480 . S
Eu121 O142 2.430 . S
Eu121 O143 2.670 1_566 S
Eu121 O144 2.394 1_565 S
Eu121 O149 2.355 1_566 S
Eu121 O151 2.374 1_556 S
C122 C120 1.500 . S
C122 C123 1.377 . S
C122 C127 1.377 . S
C123 C122 1.377 . S
C123 C124 1.395 . S
C123 H152 0.931 . S
C124 C123 1.395 . S
C124 C125 1.383 . S
C124 H153 0.931 . S
C125 C124 1.383 . S
C125 C126 1.394 . S
C126 C125 1.394 . S
C126 C127 1.378 . S
C126 H154 0.931 . S
C127 C122 1.377 . S
C127 C126 1.378 . S
C127 H155 0.931 . S
C128 O142 1.259 1_554 S
C128 O143 1.270 1_565 S
C129 O144 1.251 . S
C129 O145 1.251 . S
C130 Eu131 2.835 . S
C130 C132 1.500 . S
C130 O146 1.257 . S
C130 O147 1.260 . S
Eu131 C130 2.835 . S
Eu131 O143 2.355 . S
Eu131 O145 2.374 1_554 S
Eu131 O146 2.473 . S
Eu131 O147 2.480 . S
Eu131 O148 2.430 . S
Eu131 O149 2.670 . S
Eu131 O150 2.394 . S
C132 C130 1.500 . S
C132 C133 1.377 . S
C132 C137 1.377 . S
C133 C132 1.377 . S
C133 C134 1.395 . S
C133 H156 0.931 . S
C134 C133 1.395 . S
C134 C135 1.383 . S
C134 H157 0.931 . S
C135 C134 1.383 . S
C135 C136 1.394 . S
C136 C135 1.394 . S
C136 C137 1.378 . S
C136 H158 0.931 . S
C137 C132 1.377 . S
C137 C136 1.378 . S
C137 H159 0.931 . S
C138 O148 1.259 . S
C138 O149 1.270 . S
C139 O150 1.251 1_565 S
C139 O151 1.251 . S
O140 C120 1.257 . S
O140 Eu121 2.473 . S
O141 C120 1.260 . S
O141 Eu121 2.480 . S
O142 Eu121 2.430 . S
O142 C128 1.259 1_556 S
O143 Eu121 2.670 1_544 S
O143 C128 1.270 1_545 S
O143 Eu131 2.355 . S
O144 Eu121 2.394 1_545 S
O144 C129 1.251 . S
O145 C129 1.251 . S
O145 Eu131 2.374 1_556 S
O146 C130 1.257 . S
O146 Eu131 2.473 . S
O147 C130 1.260 . S
O147 Eu131 2.480 . S
O148 Eu131 2.430 . S
O148 C138 1.259 . S
O149 Eu121 2.355 1_544 S
O149 Eu131 2.670 . S
O149 C138 1.270 . S
O150 Eu131 2.394 . S
O150 C139 1.251 1_545 S
O151 Eu121 2.374 1_554 S
O151 C139 1.251 . S
H152 C123 0.931 . S
H153 C124 0.931 . S
H154 C126 0.931 . S
H155 C127 0.931 . S
H156 C133 0.931 . S
H157 C134 0.931 . S
H158 C136 0.931 . S
H159 C137 0.931 . S
C160 Eu161 2.835 . S
C160 C162 1.500 . S
C160 O180 1.257 . S
C160 O181 1.262 . S
Eu161 C160 2.835 . S
Eu161 O180 2.473 . S
Eu161 O181 2.477 . S
Eu161 O182 2.430 1_455 S
Eu161 O183 2.670 1_455 S
Eu161 O184 2.394 1_455 S
Eu161 O189 2.355 . S
Eu161 O191 2.374 . S
C162 C160 1.500 . S
C162 C163 1.377 . S
C162 C167 1.377 . S
C163 C162 1.377 . S
C163 C164 1.395 . S
C163 H192 0.931 . S
C164 C163 1.395 . S
C164 C165 1.383 . S
C164 H193 0.931 . S
C165 C164 1.383 . S
C165 C166 1.394 . S
C166 C165 1.394 . S
C166 C167 1.378 . S
C166 H194 0.931 . S
C167 C162 1.377 . S
C167 C166 1.378 . S
C167 H195 0.931 . S
C168 O182 1.259 . S
C168 O183 1.270 . S
C169 O184 1.251 . S
C169 O185 1.251 . S
C170 Eu171 2.835 . S
C170 C172 1.500 . S
C170 O186 1.257 . S
C170 O187 1.260 . S
Eu171 C170 2.835 . S
Eu171 O183 2.355 . S
Eu171 O185 2.374 . S
Eu171 O186 2.473 . S
Eu171 O187 2.480 . S
Eu171 O188 2.430 1_655 S
Eu171 O189 2.670 1_655 S
Eu171 O190 2.394 . S
C172 C170 1.500 . S
C172 C173 1.377 . S
C172 C177 1.377 . S
C173 C172 1.377 . S
C173 C174 1.395 . S
C173 H196 0.931 . S
C174 C173 1.395 . S
C174 C175 1.383 . S
C174 H197 0.931 . S
C175 C174 1.383 . S
C175 C176 1.394 . S
C176 C175 1.394 . S
C176 C177 1.378 . S
C176 H198 0.931 . S
C177 C172 1.377 . S
C177 C176 1.378 . S
C177 H199 0.931 . S
C178 O188 1.259 . S
C178 O189 1.270 . S
C179 O190 1.251 1_455 S
C179 O191 1.251 . S
O180 C160 1.257 . S
O180 Eu161 2.473 . S
O181 C160 1.262 . S
O181 Eu161 2.477 . S
O182 Eu161 2.430 1_655 S
O182 C168 1.259 . S
O183 Eu161 2.670 1_655 S
O183 C168 1.270 . S
O183 Eu171 2.355 . S
O184 Eu161 2.394 1_655 S
O184 C169 1.251 . S
O185 C169 1.251 . S
O185 Eu171 2.374 . S
O186 C170 1.257 . S
O186 Eu171 2.473 . S
O187 C170 1.260 . S
O187 Eu171 2.480 . S
O188 Eu171 2.430 1_455 S
O188 C178 1.259 . S
O189 Eu161 2.355 . S
O189 Eu171 2.670 1_455 S
O189 C178 1.270 . S
O190 Eu171 2.394 . S
O190 C179 1.251 1_655 S
O191 Eu161 2.374 . S
O191 C179 1.251 . S
H192 C163 0.931 . S
H193 C164 0.931 . S
H194 C166 0.931 . S
H195 C167 0.931 . S
H196 C173 0.931 . S
H197 C174 0.931 . S
H198 C176 0.931 . S
H199 C177 0.931 . S
C200 Eu201 2.835 . S
C200 C202 1.500 . S
C200 O220 1.257 . S
C200 O221 1.260 . S
Eu201 C200 2.835 . S
Eu201 O220 2.473 . S
Eu201 O221 2.480 . S
Eu201 O222 2.430 1_545 S
Eu201 O223 2.670 1_545 S
Eu201 O224 2.394 1_545 S
Eu201 O229 2.355 . S
Eu201 O231 2.374 . S
C202 C200 1.500 . S
C202 C203 1.377 . S
C202 C207 1.377 . S
C203 C202 1.377 . S
C203 C204 1.395 . S
C203 H232 0.931 . S
C204 C203 1.395 . S
C204 C205 1.383 . S
C204 H233 0.931 . S
C205 C204 1.383 . S
C205 C206 1.394 . S
C206 C205 1.394 . S
C206 C207 1.378 . S
C206 H234 0.931 . S
C207 C202 1.377 . S
C207 C206 1.378 . S
C207 H235 0.931 . S
C208 O222 1.259 . S
C208 O223 1.270 . S
C209 O224 1.251 . S
C209 O225 1.251 . S
C210 Eu211 2.835 . S
C210 C212 1.500 . S
C210 O226 1.257 . S
C210 O227 1.260 . S
Eu211 C210 2.835 . S
Eu211 O223 2.355 . S
Eu211 O225 2.374 . S
Eu211 O226 2.473 . S
Eu211 O227 2.480 . S
Eu211 O228 2.430 1_565 S
Eu211 O229 2.670 1_565 S
Eu211 O230 2.388 1_565 S
C212 C210 1.500 . S
C212 C213 1.377 . S
C212 C217 1.377 . S
C213 C212 1.377 . S
C213 C214 1.395 . S
C213 H236 0.931 . S
C214 C213 1.395 . S
C214 C215 1.383 . S
C214 H237 0.931 . S
C215 C214 1.383 . S
C215 C216 1.394 . S
C216 C215 1.394 . S
C216 C217 1.378 . S
C216 H238 0.931 . S
C217 C212 1.377 . S
C217 C216 1.378 . S
C217 H239 0.931 . S
C218 O228 1.259 . S
C218 O229 1.270 . S
C219 O230 1.247 . S
C219 O231 1.251 . S
O220 C200 1.257 . S
O220 Eu201 2.473 . S
O221 C200 1.260 . S
O221 Eu201 2.480 . S
O222 Eu201 2.430 1_565 S
O222 C208 1.259 . S
O223 Eu201 2.670 1_565 S
O223 C208 1.270 . S
O223 Eu211 2.355 . S
O224 Eu201 2.394 1_565 S
O224 C209 1.251 . S
O225 C209 1.251 . S
O225 Eu211 2.374 . S
O226 C210 1.257 . S
O226 Eu211 2.473 . S
O227 C210 1.260 . S
O227 Eu211 2.480 . S
O228 Eu211 2.430 1_545 S
O228 C218 1.259 . S
O229 Eu201 2.355 . S
O229 Eu211 2.670 1_545 S
O229 C218 1.270 . S
O230 Eu211 2.388 1_545 S
O230 C219 1.247 . S
O231 Eu201 2.374 . S
O231 C219 1.251 . S
H232 C203 0.931 . S
H233 C204 0.931 . S
H234 C206 0.931 . S
H235 C207 0.931 . S
H236 C213 0.931 . S
H237 C214 0.931 . S
H238 C216 0.931 . S
H239 C217 0.931 . S
C240 C241 1.391 . S
C240 C242 1.394 1_655 S
C240 H256 0.931 . S
C241 C240 1.391 . S
C241 C245 1.376 1_655 S
C242 C240 1.394 1_455 S
C242 C243 1.369 . S
C242 C246 1.531 . S
C243 C242 1.369 . S
C243 C244 1.410 . S
C243 C251 1.503 . S
C244 C243 1.410 . S
C244 C245 1.392 . S
C244 C247 1.511 . S
C245 C241 1.376 1_455 S
C245 C244 1.392 . S
C245 H257 0.929 1_445 S
C246 C242 1.531 . S
C246 H258 0.960 . S
C246 H259 0.962 1_554 S
C246 H260 0.960 . S
C247 C244 1.511 . S
C247 H261 0.961 1_545 S
C247 H262 0.961 . S
C247 H263 0.961 . S
C248 C249 1.370 1_556 S
C248 C250 1.363 . S
C248 H264 0.931 . S
C249 C248 1.370 1_554 S
C249 C253 1.408 . S
C250 C248 1.363 . S
C250 C251 1.370 1_556 S
C250 C254 1.524 . S
C251 C243 1.503 . S
C251 C250 1.370 1_554 S
C251 C252 1.403 . S
C252 C251 1.403 . S
C252 C253 1.404 . S
C252 C255 1.539 . S
C253 C249 1.408 . S
C253 C252 1.404 . S
C253 H265 0.930 . S
C254 C250 1.524 . S
C254 H266 0.956 . S
C254 H267 0.961 . S
C254 H268 0.961 . S
C255 C252 1.539 . S
C255 H269 0.958 . S
C255 H270 0.961 . S
C255 H271 0.960 . S
H256 C240 0.931 . S
H257 C245 0.929 1_665 S
H258 C246 0.960 . S
H259 C246 0.962 1_556 S
H260 C246 0.960 . S
H261 C247 0.961 1_565 S
H262 C247 0.961 . S
H263 C247 0.961 . S
H264 C248 0.931 . S
H265 C253 0.930 . S
H266 C254 0.956 . S
H267 C254 0.961 . S
H268 C254 0.961 . S
H269 C255 0.958 . S
H270 C255 0.961 . S
H271 C255 0.960 . S
C272 C273 1.391 . S
C272 C274 1.394 1_565 S
C272 H288 0.931 . S
C273 C272 1.391 . S
C273 C277 1.376 1_565 S
C274 C272 1.394 1_545 S
C274 C275 1.369 . S
C274 C278 1.531 . S
C275 C274 1.369 . S
C275 C276 1.410 . S
C275 C283 1.503 . S
C276 C275 1.410 . S
C276 C277 1.392 . S
C276 C279 1.511 . S
C277 C273 1.376 1_545 S
C277 C276 1.392 . S
C277 H289 0.929 . S
C278 C274 1.531 . S
C278 H290 0.960 . S
C278 H291 0.962 1_455 S
C278 H292 0.960 1_455 S
C279 C276 1.511 . S
C279 H293 0.961 . S
C279 H294 0.961 . S
C279 H295 0.961 . S
C280 C281 1.370 . S
C280 C282 1.363 . S
C280 H296 0.931 . S
C281 C280 1.370 . S
C281 C285 1.408 . S
C282 C280 1.363 . S
C282 C283 1.370 . S
C282 C286 1.524 . S
C283 C275 1.503 . S
C283 C282 1.370 . S
C283 C284 1.403 . S
C284 C283 1.403 . S
C284 C285 1.404 . S
C284 C287 1.539 . S
C285 C281 1.408 . S
C285 C284 1.404 . S
C285 H297 0.930 . S
C286 C282 1.524 . S
C286 H298 0.956 . S
C286 H299 0.961 . S
C286 H300 0.961 . S
C287 C284 1.539 . S
C287 H301 0.958 . S
C287 H302 0.961 . S
C287 H303 0.960 . S
H288 C272 0.931 . S
H289 C277 0.929 . S
H290 C278 0.960 . S
H291 C278 0.962 1_655 S
H292 C278 0.960 1_655 S
H293 C279 0.961 . S
H294 C279 0.961 . S
H295 C279 0.961 . S
H296 C280 0.931 . S
H297 C285 0.930 . S
H298 C286 0.956 . S
H299 C286 0.961 . S
H300 C286 0.961 . S
H301 C287 0.958 . S
H302 C287 0.961 . S
H303 C287 0.960 . S
C304 C305 1.391 . S
C304 C306 1.394 . S
C304 H320 0.931 . S
C305 C304 1.391 . S
C305 C309 1.376 . S
C306 C304 1.394 . S
C306 C307 1.369 . S
C306 C310 1.531 . S
C307 C306 1.369 . S
C307 C308 1.410 . S
C307 C315 1.503 . S
C308 C307 1.410 . S
C308 C309 1.392 . S
C308 C311 1.511 . S
C309 C305 1.376 . S
C309 C308 1.392 . S
C309 H321 0.929 . S
C310 C306 1.531 . S
C310 H322 0.960 . S
C310 H323 0.962 . S
C310 H324 0.960 . S
C311 C308 1.511 . S
C311 H325 0.961 1_545 S
C311 H326 0.961 . S
C311 H327 0.961 1_545 S
C312 C313 1.370 . S
C312 C314 1.363 . S
C312 H328 0.931 . S
C313 C312 1.370 . S
C313 C317 1.408 . S
C314 C312 1.363 . S
C314 C315 1.370 . S
C314 C318 1.524 . S
C315 C307 1.503 . S
C315 C314 1.370 . S
C315 C316 1.403 . S
C316 C315 1.403 . S
C316 C317 1.404 . S
C316 C319 1.539 . S
C317 C313 1.408 . S
C317 C316 1.404 . S
C317 H329 0.930 1_455 S
C318 C314 1.524 . S
C318 H330 0.956 . S
C318 H331 0.961 . S
C318 H332 0.961 . S
C319 C316 1.539 . S
C319 H333 0.958 . S
C319 H334 0.961 . S
C319 H335 0.960 . S
H320 C304 0.931 . S
H321 C309 0.929 . S
H322 C310 0.960 . S
H323 C310 0.962 . S
H324 C310 0.960 . S
H325 C311 0.961 1_565 S
H326 C311 0.961 . S
H327 C311 0.961 1_565 S
H328 C312 0.931 . S
H329 C317 0.930 1_655 S
H330 C318 0.956 . S
H331 C318 0.961 . S
H332 C318 0.961 . S
H333 C319 0.958 . S
H334 C319 0.961 . S
H335 C319 0.960 . S
C336 C337 1.391 . S
C336 C338 1.394 . S
C336 H352 0.931 . S
C337 C336 1.391 . S
C337 C341 1.376 . S
C338 C336 1.394 . S
C338 C339 1.369 . S
C338 C342 1.531 . S
C339 C338 1.369 . S
C339 C340 1.410 . S
C339 C347 1.503 . S
C340 C339 1.410 . S
C340 C341 1.392 . S
C340 C343 1.511 . S
C341 C337 1.376 . S
C341 C340 1.392 . S
C341 H353 0.929 . S
C342 C338 1.531 . S
C342 H354 0.960 . S
C342 H355 0.962 . S
C342 H356 0.960 . S
C343 C340 1.511 . S
C343 H357 0.961 . S
C343 H358 0.961 . S
C343 H359 0.961 . S
C344 C345 1.370 . S
C344 C346 1.363 . S
C344 H360 0.931 . S
C345 C344 1.370 . S
C345 C349 1.408 . S
C346 C344 1.363 . S
C346 C347 1.370 . S
C346 C350 1.524 . S
C347 C339 1.503 . S
C347 C346 1.370 . S
C347 C348 1.403 . S
C348 C347 1.403 . S
C348 C349 1.404 . S
C348 C351 1.539 . S
C349 C345 1.408 . S
C349 C348 1.404 . S
C349 H361 0.930 . S
C350 C346 1.524 . S
C350 H362 0.956 . S
C350 H363 0.961 . S
C350 H364 0.961 . S
C351 C348 1.539 . S
C351 H365 0.958 . S
C351 H366 0.961 . S
C351 H367 0.960 . S
H352 C336 0.931 . S
H353 C341 0.929 . S
H354 C342 0.960 . S
H355 C342 0.962 . S
H356 C342 0.960 . S
H357 C343 0.961 . S
H358 C343 0.961 . S
H359 C343 0.961 . S
H360 C344 0.931 . S
H361 C349 0.930 . S
H362 C350 0.956 . S
H363 C350 0.961 . S
H364 C350 0.961 . S
H365 C351 0.958 . S
H366 C351 0.961 . S
H367 C351 0.960 . S
C368 C369 1.391 . S
C368 C370 1.394 . S
C368 H384 0.931 . S
C369 C368 1.391 . S
C369 C373 1.376 . S
C370 C368 1.394 . S
C370 C371 1.369 . S
C370 C374 1.531 1_455 S
C371 C370 1.369 . S
C371 C372 1.410 . S
C371 C379 1.503 1_455 S
C372 C371 1.410 . S
C372 C373 1.392 . S
C372 C375 1.511 . S
C373 C369 1.376 . S
C373 C372 1.392 . S
C373 H385 0.929 . S
C374 C370 1.531 1_655 S
C374 H386 0.960 . S
C374 H387 0.962 . S
C374 H388 0.960 . S
C375 C372 1.511 . S
C375 H389 0.961 . S
C375 H390 0.961 . S
C375 H391 0.961 . S
C376 C377 1.370 . S
C376 C378 1.363 . S
C376 H392 0.931 . S
C377 C376 1.370 . S
C377 C381 1.408 . S
C378 C376 1.363 . S
C378 C379 1.370 . S
C378 C382 1.524 . S
C379 C371 1.503 1_655 S
C379 C378 1.370 . S
C379 C380 1.403 . S
C380 C379 1.403 . S
C380 C381 1.404 . S
C380 C383 1.539 . S
C381 C377 1.408 . S
C381 C380 1.404 . S
C381 H393 0.930 . S
C382 C378 1.524 . S
C382 H394 0.956 . S
C382 H395 0.961 1_655 S
C382 H396 0.961 . S
C383 C380 1.539 . S
C383 H397 0.958 . S
C383 H398 0.961 . S
C383 H399 0.960 1_655 S
H384 C368 0.931 . S
H385 C373 0.929 . S
H386 C374 0.960 . S
H387 C374 0.962 . S
H388 C374 0.960 . S
H389 C375 0.961 . S
H390 C375 0.961 . S
H391 C375 0.961 . S
H392 C376 0.931 . S
H393 C381 0.930 . S
H394 C382 0.956 . S
H395 C382 0.961 1_455 S
H396 C382 0.961 . S
H397 C383 0.958 . S
H398 C383 0.961 . S
H399 C383 0.960 1_455 S
C400 C401 1.391 . S
C400 C402 1.394 . S
C400 H416 0.931 . S
C401 C400 1.391 . S
C401 C405 1.376 . S
C402 C400 1.394 . S
C402 C403 1.369 . S
C402 C406 1.531 . S
C403 C402 1.369 . S
C403 C404 1.410 . S
C403 C411 1.503 1_545 S
C404 C403 1.410 . S
C404 C405 1.392 . S
C404 C407 1.511 . S
C405 C401 1.376 . S
C405 C404 1.392 . S
C405 H417 0.929 . S
C406 C402 1.531 . S
C406 H418 0.960 1_545 S
C406 H419 0.962 1_545 S
C406 H420 0.960 . S
C407 C404 1.511 . S
C407 H421 0.961 . S
C407 H422 0.961 . S
C407 H423 0.961 . S
C408 C409 1.370 . S
C408 C410 1.363 . S
C408 H424 0.931 . S
C409 C408 1.370 . S
C409 C413 1.408 . S
C410 C408 1.363 . S
C410 C411 1.370 . S
C410 C414 1.524 . S
C411 C403 1.503 1_565 S
C411 C410 1.370 . S
C411 C412 1.403 . S
C412 C411 1.403 . S
C412 C413 1.404 . S
C412 C415 1.539 1_565 S
C413 C409 1.408 . S
C413 C412 1.404 . S
C413 H425 0.930 . S
C414 C410 1.524 . S
C414 H426 0.956 . S
C414 H427 0.961 . S
C414 H428 0.961 . S
C415 C412 1.539 1_545 S
C415 H429 0.958 . S
C415 H430 0.961 . S
C415 H431 0.960 . S
H416 C400 0.931 . S
H417 C405 0.929 . S
H418 C406 0.960 1_565 S
H419 C406 0.962 1_565 S
H420 C406 0.960 . S
H421 C407 0.961 . S
H422 C407 0.961 . S
H423 C407 0.961 . S
H424 C408 0.931 . S
H425 C413 0.930 . S
H426 C414 0.956 . S
H427 C414 0.961 . S
H428 C414 0.961 . S
H429 C415 0.958 . S
H430 C415 0.961 . S
H431 C415 0.960 . S
C432 C433 1.391 . S
C432 C434 1.394 . S
C432 H448 0.931 . S
C433 C432 1.391 . S
C433 C437 1.376 . S
C434 C432 1.394 . S
C434 C435 1.369 . S
C434 C438 1.531 . S
C435 C434 1.369 . S
C435 C436 1.410 . S
C435 C443 1.503 . S
C436 C435 1.410 . S
C436 C437 1.392 . S
C436 C439 1.511 . S
C437 C433 1.376 . S
C437 C436 1.392 . S
C437 H449 0.929 . S
C438 C434 1.531 . S
C438 H450 0.960 . S
C438 H451 0.962 . S
C438 H452 0.960 . S
C439 C436 1.511 . S
C439 H453 0.961 . S
C439 H454 0.961 . S
C439 H455 0.961 . S
C440 C441 1.370 . S
C440 C442 1.363 1_455 S
C440 H456 0.931 . S
C441 C440 1.370 . S
C441 C445 1.408 . S
C442 C440 1.363 1_655 S
C442 C443 1.370 . S
C442 C446 1.524 . S
C443 C435 1.503 . S
C443 C442 1.370 . S
C443 C444 1.400 1_655 S
C444 C443 1.400 1_455 S
C444 C445 1.411 . S
C444 C447 1.542 . S
C445 C441 1.408 . S
C445 C444 1.411 . S
C445 H457 0.930 . S
C446 C442 1.524 . S
C446 H458 0.956 . S
C446 H459 0.961 . S
C446 H460 0.961 . S
C447 C444 1.542 . S
C447 H461 0.951 1_455 S
C447 H462 0.970 . S
C447 H463 0.951 1_455 S
H448 C432 0.931 . S
H449 C437 0.929 . S
H450 C438 0.960 . S
H451 C438 0.962 . S
H452 C438 0.960 . S
H453 C439 0.961 . S
H454 C439 0.961 . S
H455 C439 0.961 . S
H456 C440 0.931 . S
H457 C445 0.930 . S
H458 C446 0.956 . S
H459 C446 0.961 . S
H460 C446 0.961 . S
H461 C447 0.951 1_655 S
H462 C447 0.970 . S
H463 C447 0.951 1_655 S
C464 C465 1.391 . S
C464 C466 1.394 . S
C464 H480 0.931 . S
C465 C464 1.391 . S
C465 C469 1.376 . S
C466 C464 1.394 . S
C466 C467 1.369 . S
C466 C470 1.531 . S
C467 C466 1.369 . S
C467 C468 1.410 . S
C467 C475 1.503 . S
C468 C467 1.410 . S
C468 C469 1.392 . S
C468 C471 1.511 . S
C469 C465 1.376 . S
C469 C468 1.392 . S
C469 H481 0.929 . S
C470 C466 1.531 . S
C470 H482 0.960 . S
C470 H483 0.962 . S
C470 H484 0.960 . S
C471 C468 1.511 . S
C471 H485 0.961 . S
C471 H486 0.961 1_565 S
C471 H487 0.961 . S
C472 C473 1.370 . S
C472 C474 1.363 1_545 S
C472 H488 0.931 . S
C473 C472 1.370 . S
C473 C477 1.408 . S
C474 C472 1.363 1_565 S
C474 C475 1.370 . S
C474 C478 1.524 . S
C475 C467 1.503 . S
C475 C474 1.370 . S
C475 C476 1.403 . S
C476 C475 1.403 . S
C476 C477 1.404 1_565 S
C476 C479 1.539 . S
C477 C473 1.408 . S
C477 C476 1.404 1_545 S
C477 H489 0.930 . S
C478 C474 1.524 . S
C478 H490 0.956 . S
C478 H491 0.961 . S
C478 H492 0.961 1_565 S
C479 C476 1.539 . S
C479 H493 0.958 . S
C479 H494 0.961 . S
C479 H495 0.960 . S
H480 C464 0.931 . S
H481 C469 0.929 . S
H482 C470 0.960 . S
H483 C470 0.962 . S
H484 C470 0.960 . S
H485 C471 0.961 . S
H486 C471 0.961 1_545 S
H487 C471 0.961 . S
H488 C472 0.931 . S
H489 C477 0.930 . S
H490 C478 0.956 . S
H491 C478 0.961 . S
H492 C478 0.961 1_545 S
H493 C479 0.958 . S
H494 C479 0.961 . S
H495 C479 0.960 . S
C496 C497 1.391 . S
C496 C498 1.394 . S
C496 H512 0.931 . S
C497 C496 1.391 . S
C497 C501 1.376 . S
C498 C496 1.394 . S
C498 C499 1.369 . S
C498 C502 1.531 . S
C499 C498 1.369 . S
C499 C500 1.410 . S
C499 C507 1.503 . S
C500 C499 1.410 . S
C500 C501 1.392 . S
C500 C503 1.511 . S
C501 C497 1.376 . S
C501 C500 1.392 . S
C501 H513 0.929 . S
C502 C498 1.531 . S
C502 H514 0.960 . S
C502 H515 0.962 . S
C502 H516 0.960 . S
C503 C500 1.511 . S
C503 H517 0.961 . S
C503 H518 0.961 . S
C503 H519 0.961 . S
C504 C505 1.370 . S
C504 C506 1.363 . S
C504 H520 0.931 . S
C505 C504 1.370 . S
C505 C509 1.408 . S
C506 C504 1.363 . S
C506 C507 1.370 . S
C506 C510 1.524 . S
C507 C499 1.503 . S
C507 C506 1.370 . S
C507 C508 1.403 . S
C508 C507 1.403 . S
C508 C509 1.404 . S
C508 C511 1.539 . S
C509 C505 1.408 . S
C509 C508 1.404 . S
C509 H521 0.930 . S
C510 C506 1.524 . S
C510 H522 0.956 . S
C510 H523 0.961 . S
C510 H524 0.961 . S
C511 C508 1.539 . S
C511 H525 0.958 . S
C511 H526 0.961 . S
C511 H527 0.960 . S
H512 C496 0.931 . S
H513 C501 0.929 . S
H514 C502 0.960 . S
H515 C502 0.962 . S
H516 C502 0.960 . S
H517 C503 0.961 . S
H518 C503 0.961 . S
H519 C503 0.961 . S
H520 C504 0.931 . S
H521 C509 0.930 . S
H522 C510 0.956 . S
H523 C510 0.961 . S
H524 C510 0.961 . S
H525 C511 0.958 . S
H526 C511 0.961 . S
H527 C511 0.960 . S
C528 C529 1.391 . S
C528 C530 1.394 . S
C528 H544 0.931 . S
C529 C528 1.391 . S
C529 C533 1.376 1_554 S
C530 C528 1.394 . S
C530 C531 1.369 . S
C530 C534 1.531 . S
C531 C530 1.369 . S
C531 C532 1.410 1_554 S
C531 C539 1.503 . S
C532 C531 1.410 1_556 S
C532 C533 1.392 . S
C532 C535 1.511 . S
C533 C529 1.376 1_556 S
C533 C532 1.392 . S
C533 H545 0.929 . S
C534 C530 1.531 . S
C534 H546 0.960 . S
C534 H547 0.962 . S
C534 H548 0.960 . S
C535 C532 1.511 . S
C535 H549 0.961 . S
C535 H550 0.961 . S
C535 H551 0.961 . S
C536 C537 1.370 . S
C536 C538 1.363 . S
C536 H552 0.931 . S
C537 C536 1.370 . S
C537 C541 1.429 . S
C538 C536 1.363 . S
C538 C539 1.370 . S
C538 C542 1.524 . S
C539 C531 1.503 . S
C539 C538 1.370 . S
C539 C540 1.408 . S
C540 C539 1.408 . S
C540 C541 1.403 . S
C540 C543 1.533 1_554 S
C541 C537 1.429 . S
C541 C540 1.403 . S
C541 H553 0.912 1_544 S
C542 C538 1.524 . S
C542 H554 0.956 . S
C542 H555 0.961 . S
C542 H556 0.961 . S
C543 C540 1.533 1_556 S
C543 H557 0.958 . S
C543 H558 0.961 . S
C543 H559 0.960 . S
H544 C528 0.931 . S
H545 C533 0.929 . S
H546 C534 0.960 . S
H547 C534 0.962 . S
H548 C534 0.960 . S
H549 C535 0.961 . S
H550 C535 0.961 . S
H551 C535 0.961 . S
H552 C536 0.931 . S
H553 C541 0.912 1_566 S
H554 C542 0.956 . S
H555 C542 0.961 . S
H556 C542 0.961 . S
H557 C543 0.958 . S
H558 C543 0.961 . S
H559 C543 0.960 . S
C560 C561 1.391 . S
C560 C562 1.394 . S
C560 H576 0.931 . S
C561 C560 1.391 . S
C561 C565 1.376 . S
C562 C560 1.394 . S
C562 C563 1.369 . S
C562 C566 1.531 . S
C563 C562 1.369 . S
C563 C564 1.410 . S
C563 C571 1.503 . S
C564 C563 1.410 . S
C564 C565 1.392 . S
C564 C567 1.511 . S
C565 C561 1.376 . S
C565 C564 1.392 . S
C565 H577 0.929 . S
C566 C562 1.531 . S
C566 H578 0.960 . S
C566 H579 0.962 . S
C566 H580 0.960 . S
C567 C564 1.511 . S
C567 H581 0.961 . S
C567 H582 0.961 . S
C567 H583 0.961 . S
C568 C569 1.370 . S
C568 C570 1.363 . S
C568 H584 0.931 . S
C569 C568 1.370 . S
C569 C573 1.408 . S
C570 C568 1.363 . S
C570 C571 1.370 . S
C570 C574 1.524 . S
C571 C563 1.503 . S
C571 C570 1.370 . S
C571 C572 1.403 . S
C572 C571 1.403 . S
C572 C573 1.404 . S
C572 C575 1.539 . S
C573 C569 1.408 . S
C573 C572 1.404 . S
C573 H585 0.930 . S
C574 C570 1.524 . S
C574 H586 0.956 . S
C574 H587 0.961 . S
C574 H588 0.961 . S
C575 C572 1.539 . S
C575 H589 0.958 . S
C575 H590 0.961 . S
C575 H591 0.960 . S
H576 C560 0.931 . S
H577 C565 0.929 . S
H578 C566 0.960 . S
H579 C566 0.962 . S
H580 C566 0.960 . S
H581 C567 0.961 . S
H582 C567 0.961 . S
H583 C567 0.961 . S
H584 C568 0.931 . S
H585 C573 0.930 . S
H586 C574 0.956 . S
H587 C574 0.961 . S
H588 C574 0.961 . S
H589 C575 0.958 . S
H590 C575 0.961 . S
H591 C575 0.960 . S
C592 C593 1.391 . S
C592 C594 1.394 . S
C592 H608 0.931 1_455 S
C593 C592 1.391 . S
C593 C597 1.376 . S
C594 C592 1.394 . S
C594 C595 1.369 . S
C594 C598 1.531 . S
C595 C594 1.369 . S
C595 C596 1.410 . S
C595 C603 1.503 . S
C596 C595 1.410 . S
C596 C597 1.392 . S
C596 C599 1.511 . S
C597 C593 1.376 . S
C597 C596 1.392 . S
C597 H609 0.929 . S
C598 C594 1.531 . S
C598 H610 0.960 . S
C598 H611 0.962 . S
C598 H612 0.960 1_455 S
C599 C596 1.511 . S
C599 H613 0.961 . S
C599 H614 0.961 . S
C599 H615 0.961 . S
C600 C601 1.370 . S
C600 C602 1.363 . S
C600 H616 0.931 . S
C601 C600 1.370 . S
C601 C605 1.408 . S
C602 C600 1.363 . S
C602 C603 1.370 . S
C602 C606 1.524 . S
C603 C595 1.503 . S
C603 C602 1.370 . S
C603 C604 1.403 . S
C604 C603 1.403 . S
C604 C605 1.404 . S
C604 C607 1.539 . S
C605 C601 1.408 . S
C605 C604 1.404 . S
C605 H617 0.930 . S
C606 C602 1.524 . S
C606 H618 0.956 . S
C606 H619 0.961 . S
C606 H620 0.961 . S
C607 C604 1.539 . S
C607 H621 0.958 . S
C607 H622 0.961 . S
C607 H623 0.960 . S
H608 C592 0.931 1_655 S
H609 C597 0.929 . S
H610 C598 0.960 . S
H611 C598 0.962 . S
H612 C598 0.960 1_655 S
H613 C599 0.961 . S
H614 C599 0.961 . S
H615 C599 0.961 . S
H616 C600 0.931 . S
H617 C605 0.930 . S
H618 C606 0.956 . S
H619 C606 0.961 . S
H620 C606 0.961 . S
H621 C607 0.958 . S
H622 C607 0.961 . S
H623 C607 0.960 . S
C624 C625 1.391 . S
C624 C626 1.394 . S
C624 H640 0.931 . S
C625 C624 1.391 . S
C625 C629 1.376 . S
C626 C624 1.394 . S
C626 C627 1.369 . S
C626 C630 1.531 . S
C627 C626 1.369 . S
C627 C628 1.410 . S
C627 C635 1.503 . S
C628 C627 1.410 . S
C628 C629 1.392 . S
C628 C631 1.511 . S
C629 C625 1.376 . S
C629 C628 1.392 . S
C629 H641 0.929 . S
C630 C626 1.531 . S
C630 H642 0.960 . S
C630 H643 0.962 . S
C630 H644 0.960 . S
C631 C628 1.511 . S
C631 H645 0.961 . S
C631 H646 0.961 . S
C631 H647 0.961 . S
C632 C633 1.370 . S
C632 C634 1.363 . S
C632 H648 0.931 . S
C633 C632 1.370 . S
C633 C637 1.408 . S
C634 C632 1.363 . S
C634 C635 1.370 . S
C634 C638 1.524 . S
C635 C627 1.503 . S
C635 C634 1.370 . S
C635 C636 1.403 . S
C636 C635 1.403 . S
C636 C637 1.404 . S
C636 C639 1.539 . S
C637 C633 1.408 . S
C637 C636 1.404 . S
C637 H649 0.930 . S
C638 C634 1.524 . S
C638 H650 0.956 . S
C638 H651 0.961 . S
C638 H652 0.961 . S
C639 C636 1.539 . S
C639 H653 0.958 . S
C639 H654 0.961 . S
C639 H655 0.960 . S
H640 C624 0.931 . S
H641 C629 0.929 . S
H642 C630 0.960 . S
H643 C630 0.962 . S
H644 C630 0.960 . S
H645 C631 0.961 . S
H646 C631 0.961 . S
H647 C631 0.961 . S
H648 C632 0.931 . S
H649 C637 0.930 . S
H650 C638 0.956 . S
H651 C638 0.961 . S
H652 C638 0.961 . S
H653 C639 0.958 . S
H654 C639 0.961 . S
H655 C639 0.960 . S
C656 C657 1.391 . S
C656 C658 1.394 . S
C656 H672 0.931 . S
C657 C656 1.391 . S
C657 C661 1.376 . S
C658 C656 1.394 . S
C658 C659 1.369 . S
C658 C662 1.531 . S
C659 C658 1.369 . S
C659 C660 1.410 . S
C659 C667 1.503 . S
C660 C659 1.410 . S
C660 C661 1.392 . S
C660 C663 1.511 . S
C661 C657 1.376 . S
C661 C660 1.392 . S
C661 H673 0.929 . S
C662 C658 1.531 . S
C662 H674 0.960 . S
C662 H675 0.962 . S
C662 H676 0.960 . S
C663 C660 1.511 . S
C663 H677 0.961 . S
C663 H678 0.961 . S
C663 H679 0.961 . S
C664 C665 1.370 . S
C664 C666 1.363 . S
C664 H680 0.931 . S
C665 C664 1.370 . S
C665 C669 1.408 . S
C666 C664 1.363 . S
C666 C667 1.370 . S
C666 C670 1.524 . S
C667 C659 1.503 . S
C667 C666 1.370 . S
C667 C668 1.403 . S
C668 C667 1.403 . S
C668 C669 1.404 . S
C668 C671 1.539 . S
C669 C665 1.408 . S
C669 C668 1.404 . S
C669 H681 0.930 . S
C670 C666 1.524 . S
C670 H682 0.956 . S
C670 H683 0.961 . S
C670 H684 0.961 . S
C671 C668 1.539 . S
C671 H685 0.958 . S
C671 H686 0.961 . S
C671 H687 0.960 . S
H672 C656 0.931 . S
H673 C661 0.929 . S
H674 C662 0.960 . S
H675 C662 0.962 . S
H676 C662 0.960 . S
H677 C663 0.961 . S
H678 C663 0.961 . S
H679 C663 0.961 . S
H680 C664 0.931 . S
H681 C669 0.930 . S
H682 C670 0.956 . S
H683 C670 0.961 . S
H684 C670 0.961 . S
H685 C671 0.958 . S
H686 C671 0.961 . S
H687 C671 0.960 . S
C688 C689 1.391 . S
C688 C690 1.394 . S
C688 H704 0.931 . S
C689 C688 1.391 . S
C689 C693 1.376 . S
C690 C688 1.394 . S
C690 C691 1.369 . S
C690 C694 1.531 . S
C691 C690 1.369 . S
C691 C692 1.410 . S
C691 C699 1.503 . S
C692 C691 1.410 . S
C692 C693 1.392 . S
C692 C695 1.511 1_655 S
C693 C689 1.376 . S
C693 C692 1.392 . S
C693 H705 0.929 1_655 S
C694 C690 1.531 . S
C694 H706 0.960 . S
C694 H707 0.962 . S
C694 H708 0.960 . S
C695 C692 1.511 1_455 S
C695 H709 0.961 . S
C695 H710 0.961 . S
C695 H711 0.961 . S
C696 C697 1.370 . S
C696 C698 1.363 . S
C696 H712 0.931 . S
C697 C696 1.370 . S
C697 C701 1.408 . S
C698 C696 1.363 . S
C698 C699 1.370 . S
C698 C702 1.524 . S
C699 C691 1.503 . S
C699 C698 1.370 . S
C699 C700 1.403 . S
C700 C699 1.403 . S
C700 C701 1.404 . S
C700 C703 1.539 . S
C701 C697 1.408 . S
C701 C700 1.404 . S
C701 H713 0.930 . S
C702 C698 1.524 . S
C702 H714 0.956 . S
C702 H715 0.961 . S
C702 H716 0.961 . S
C703 C700 1.539 . S
C703 H717 0.958 . S
C703 H718 0.961 . S
C703 H719 0.960 . S
H704 C688 0.931 . S
H705 C693 0.929 1_455 S
H706 C694 0.960 . S
H707 C694 0.962 . S
H708 C694 0.960 . S
H709 C695 0.961 . S
H710 C695 0.961 . S
H711 C695 0.961 . S
H712 C696 0.931 . S
H713 C701 0.930 . S
H714 C702 0.956 . S
H715 C702 0.961 . S
H716 C702 0.961 . S
H717 C703 0.958 . S
H718 C703 0.961 . S
H719 C703 0.960 . S
C720 C721 1.391 . S
C720 C722 1.394 . S
C720 H736 0.931 . S
C721 C720 1.391 . S
C721 C725 1.376 . S
C722 C720 1.394 . S
C722 C723 1.369 . S
C722 C726 1.531 . S
C723 C722 1.369 . S
C723 C724 1.410 . S
C723 C731 1.503 . S
C724 C723 1.410 . S
C724 C725 1.392 . S
C724 C727 1.511 . S
C725 C721 1.376 . S
C725 C724 1.392 . S
C725 H737 0.929 . S
C726 C722 1.531 . S
C726 H738 0.960 . S
C726 H739 0.962 . S
C726 H740 0.960 . S
C727 C724 1.511 . S
C727 H741 0.961 1_565 S
C727 H742 0.961 . S
C727 H743 0.961 . S
C728 C729 1.370 . S
C728 C730 1.363 . S
C728 H744 0.931 . S
C729 C728 1.370 . S
C729 C733 1.408 . S
C730 C728 1.363 . S
C730 C731 1.370 . S
C730 C734 1.524 . S
C731 C723 1.503 . S
C731 C730 1.370 . S
C731 C732 1.403 . S
C732 C731 1.403 . S
C732 C733 1.404 . S
C732 C735 1.539 . S
C733 C729 1.408 . S
C733 C732 1.404 . S
C733 H745 0.930 . S
C734 C730 1.524 . S
C734 H746 0.956 . S
C734 H747 0.961 . S
C734 H748 0.961 . S
C735 C732 1.539 . S
C735 H749 0.958 . S
C735 H750 0.961 . S
C735 H751 0.960 . S
H736 C720 0.931 . S
H737 C725 0.929 . S
H738 C726 0.960 . S
H739 C726 0.962 . S
H740 C726 0.960 . S
H741 C727 0.961 1_545 S
H742 C727 0.961 . S
H743 C727 0.961 . S
H744 C728 0.931 . S
H745 C733 0.930 . S
H746 C734 0.956 . S
H747 C734 0.961 . S
H748 C734 0.961 . S
H749 C735 0.958 . S
H750 C735 0.961 . S
H751 C735 0.960 . S
C752 C753 1.391 . S
C752 C754 1.394 . S
C752 H768 0.931 . S
C753 C752 1.391 . S
C753 C757 1.376 . S
C754 C752 1.394 . S
C754 C755 1.369 . S
C754 C758 1.531 . S
C755 C754 1.369 . S
C755 C756 1.410 . S
C755 C763 1.503 . S
C756 C755 1.410 . S
C756 C757 1.392 . S
C756 C759 1.511 . S
C757 C753 1.376 . S
C757 C756 1.392 . S
C757 H769 0.929 . S
C758 C754 1.531 . S
C758 H770 0.960 . S
C758 H771 0.961 1_565 S
C758 H772 0.960 . S
C759 C756 1.511 . S
C759 H773 0.961 . S
C759 H774 0.961 . S
C759 H775 0.961 . S
C760 C761 1.370 . S
C760 C762 1.363 . S
C760 H776 0.931 . S
C761 C760 1.370 . S
C761 C765 1.408 . S
C762 C760 1.363 . S
C762 C763 1.370 . S
C762 C766 1.524 . S
C763 C755 1.503 . S
C763 C762 1.370 . S
C763 C764 1.403 . S
C764 C763 1.403 . S
C764 C765 1.404 . S
C764 C767 1.539 1_455 S
C765 C761 1.408 . S
C765 C764 1.404 . S
C765 H777 0.930 . S
C766 C762 1.524 . S
C766 H778 0.956 . S
C766 H779 0.961 . S
C766 H780 0.961 . S
C767 C764 1.539 1_655 S
C767 H781 0.958 . S
C767 H782 0.961 . S
C767 H783 0.960 . S
H768 C752 0.931 . S
H769 C757 0.929 . S
H770 C758 0.960 . S
H771 C758 0.961 1_545 S
H772 C758 0.960 . S
H773 C759 0.961 . S
H774 C759 0.961 . S
H775 C759 0.961 . S
H776 C760 0.931 . S
H777 C765 0.930 . S
H778 C766 0.956 . S
H779 C766 0.961 . S
H780 C766 0.961 . S
H781 C767 0.958 . S
H782 C767 0.961 . S
H783 C767 0.960 . S
C784 C785 1.391 . S
C784 C786 1.394 . S
C784 H800 0.931 . S
C785 C784 1.391 . S
C785 C789 1.376 . S
C786 C784 1.394 . S
C786 C787 1.369 . S
C786 C790 1.531 . S
C787 C786 1.369 . S
C787 C788 1.410 . S
C787 C795 1.503 . S
C788 C787 1.410 . S
C788 C789 1.392 . S
C788 C791 1.511 . S
C789 C785 1.376 . S
C789 C788 1.392 . S
C789 H801 0.929 . S
C790 C786 1.531 . S
C790 H802 0.960 . S
C790 H803 0.962 . S
C790 H804 0.960 . S
C791 C788 1.511 . S
C791 H805 0.961 . S
C791 H806 0.961 . S
C791 H807 0.961 . S
C792 C793 1.370 . S
C792 C794 1.363 . S
C792 H808 0.931 . S
C793 C792 1.370 . S
C793 C797 1.408 . S
C794 C792 1.363 . S
C794 C795 1.370 . S
C794 C798 1.524 . S
C795 C787 1.503 . S
C795 C794 1.370 . S
C795 C796 1.403 . S
C796 C795 1.403 . S
C796 C797 1.404 . S
C796 C799 1.539 . S
C797 C793 1.408 . S
C797 C796 1.404 . S
C797 H809 0.930 . S
C798 C794 1.524 . S
C798 H810 0.956 . S
C798 H811 0.961 . S
C798 H812 0.961 . S
C799 C796 1.539 . S
C799 H813 0.958 . S
C799 H814 0.961 . S
C799 H815 0.960 . S
H800 C784 0.931 . S
H801 C789 0.929 . S
H802 C790 0.960 . S
H803 C790 0.962 . S
H804 C790 0.960 . S
H805 C791 0.961 . S
H806 C791 0.961 . S
H807 C791 0.961 . S
H808 C792 0.931 . S
H809 C797 0.930 . S
H810 C798 0.956 . S
H811 C798 0.961 . S
H812 C798 0.961 . S
H813 C799 0.958 . S
H814 C799 0.961 . S
H815 C799 0.960 . S
C241 C138 0.700 . S
C249 C18 0.729 . S
C273 C178 0.759 . S
C281 C58 0.707 . S
C305 C218 0.731 . S
C313 C98 0.766 . S
C337 C5 0.667 . S
C345 C95 0.795 . S
C369 C45 0.866 . S
C377 C135 0.747 . S
C401 C85 0.833 . S
C409 C175 0.733 . S
C433 C125 0.751 . S
C441 C215 0.748 . S
C465 C165 0.833 . S
C473 C15 0.734 . S
C497 C205 0.842 . S
C505 C55 0.734 . S
C529 C8 1.615 . S
C537 C128 1.643 1_545 S
C561 C48 1.640 . S
C569 C168 1.651 . S
C593 C88 1.639 1_455 S
C601 C208 1.649 . S
C625 C19 4.004 . S
C633 C49 4.068 . S
C657 C59 4.014 . S
C665 C89 4.065 . S
C689 C99 3.997 . S
C697 C129 4.066 . S
C721 C139 4.003 . S
C729 C169 4.065 . S
C753 C179 4.006 . S
C761 C209 4.068 . S
C785 C219 3.996 . S
C793 C9 4.067 . S
