# Generated by pormake.
# Topology qtz-x, (6)-cn, num edge types: 1
# Building blocks:
#     Node 0, Type 0, BuildingBlock: KUMJIN_clean_sbu_1, # of connection points: 6
#     Node 1, Type 0, BuildingBlock: KUMJIN_clean_sbu_1, # of connection points: 6
#     Node 2, Type 0, BuildingBlock: KUMJIN_clean_sbu_1, # of connection points: 6
#     Edge 3, Type (0, 0), BuildingBlock: UVAHIK_clean_linker_0, # of connection points: 2
#     Edge 4, Type (0, 0), BuildingBlock: UVAHIK_clean_linker_0, # of connection points: 2
#     Edge 5, Type (0, 0), BuildingBlock: UVAHIK_clean_linker_0, # of connection points: 2
#     Edge 6, Type (0, 0), BuildingBlock: UVAHIK_clean_linker_0, # of connection points: 2
#     Edge 7, Type (0, 0), BuildingBlock: UVAHIK_clean_linker_0, # of connection points: 2
#     Edge 8, Type (0, 0), BuildingBlock: UVAHIK_clean_linker_0, # of connection points: 2
#     Edge 9, Type (0, 0), BuildingBlock: UVAHIK_clean_linker_0, # of connection points: 2
#     Edge 10, Type (0, 0), BuildingBlock: UVAHIK_clean_linker_0, # of connection points: 2
#     Edge 11, Type (0, 0), BuildingBlock: UVAHIK_clean_linker_0, # of connection points: 2
# Relax obj value: 0.204
# Max RMSD: 0.277
# Mean RMSD: 0.277
data_MOF--net-qtz-x--node1-KUMJIN_clean_sbu_1--edge1-UVAHIK_clean_linker_0
_symmetry_space_group_name_H-M    P1
_symmetry_Int_Tables_number       1
_symmetry_cell_setting            triclinic
loop_
_symmetry_equiv_pos_as_xyz
'x, y, z'
_cell_length_a     19.333238
_cell_length_b     19.386805
_cell_length_c     63.640821
_cell_angle_alpha  89.656235
_cell_angle_beta   90.354424
_cell_angle_gamma 120.23122
loop_
_atom_site_label
_atom_site_type_symbol
_atom_site_fract_x
_atom_site_fract_y
_atom_site_fract_z
_atom_type_partial_charge
Eu0 Eu 0.90618 0.39852 0.14985 0.0
C1 C 0.26784 0.50057 0.16359 0.0
N2 N 0.20017 0.44328 0.17321 0.0
C3 C 0.24923 0.35173 0.17178 0.0
C4 C 0.32843 0.48464 0.15744 0.0
C5 C 0.19179 0.37077 0.1781 0.0
C6 C 0.31757 0.40866 0.16127 0.0
C7 C 0.35044 0.63852 0.15211 0.0
C8 C 0.27886 0.57695 0.16086 0.0
C9 C 0.41006 0.6222 0.14571 0.0
C10 C 0.39899 0.5455 0.1483 0.0
Eu11 Eu 0.11182 0.48619 0.18459 0.0
N12 N 0.22049 0.59167 0.16725 0.0
C13 C 0.36087 0.71532 0.15056 0.0
C14 C 0.23168 0.66693 0.16667 0.0
C15 C 0.30146 0.72966 0.15801 0.0
H16 H 0.14286 0.32839 0.18763 0.0
H17 H 0.30998 0.78925 0.15741 0.0
H18 H 0.87352 0.55146 0.1477 0.0
H19 H 0.71039 0.09229 0.17796 0.0
H20 H 0.18753 0.67895 0.17324 0.0
H21 H 0.41529 0.76429 0.14407 0.0
H22 H 0.83066 0.20164 0.16172 0.0
H23 H 0.24177 0.29384 0.17554 0.0
H24 H 0.46553 0.66884 0.13901 0.0
H25 H 0.44618 0.53428 0.14357 0.0
H26 H 0.77086 0.58393 0.15841 0.0
H27 H 0.36277 0.3942 0.15678 0.0
H28 H 0.60272 0.11498 0.19043 0.0
N29 N 0.81457 0.43615 0.16139 0.0
C30 C 0.74616 0.37767 0.17027 0.0
C31 C 0.76367 0.52614 0.16217 0.0
C32 C 0.68424 0.39231 0.17598 0.0
C33 C 0.82284 0.50849 0.15659 0.0
C34 C 0.69425 0.46797 0.17207 0.0
N35 N 0.79652 0.28891 0.16671 0.0
C36 C 0.78681 0.21424 0.16804 0.0
C37 C 0.66546 0.24005 0.18177 0.0
C38 C 0.73695 0.30221 0.17305 0.0
C39 C 0.65674 0.16423 0.18385 0.0
C40 C 0.71754 0.15127 0.17689 0.0
H41 H 0.64791 0.48138 0.17612 0.0
H42 H 0.56541 0.34082 0.18927 0.0
H43 H 0.54904 0.20769 0.19442 0.0
O44 O 0.82021 0.31562 0.12694 0.0
O45 O 0.90629 0.42829 0.18412 0.0
O46 O -0.00549 0.39602 0.19939 0.0
O47 O 0.88372 0.44503 0.12079 0.0
O48 O 0.95756 0.31647 0.15276 0.0
O49 O 0.03298 0.35039 0.18375 0.0
O50 O 0.13677 0.56154 0.21318 0.0
O51 O 0.11961 0.51116 0.14916 0.0
O52 O 0.01246 0.39869 0.1351 0.0
O53 O 0.20006 0.49826 0.2075 0.0
O54 O 0.05014 0.5587 0.18246 0.0
O55 O -0.00461 0.53142 0.14905 0.0
C56 C 0.92975 0.4017 0.19999 0.0
C57 C 0.78714 0.3595 0.09467 0.0
C58 C 0.72307 0.27591 0.06424 0.0
C59 C 0.69642 0.32843 0.05796 0.0
C60 C 0.76149 0.4121 0.08802 0.0
C61 C 0.71576 0.39615 0.06977 0.0
C62 C 0.76798 0.29141 0.08276 0.0
C63 C 0.99252 0.30027 0.16835 0.0
C64 C 0.83011 0.37361 0.11459 0.0
C65 C 0.61364 0.33071 0.18486 0.0
C66 C 0.60432 0.25487 0.18777 0.0
C67 C 0.08651 0.45801 0.13408 0.0
C68 C 0.21166 0.54663 0.24245 0.0
C69 C 0.26095 0.61703 0.27605 0.0
C70 C 0.27643 0.55714 0.28285 0.0
C71 C 0.22659 0.48691 0.25007 0.0
C72 C 0.22895 0.61215 0.25568 0.0
C73 C 0.25921 0.49265 0.27 0.0
C74 C 0.02417 0.57826 0.16557 0.0
C75 C 0.19237 0.54726 0.21976 0.0
H76 H 0.66363 0.31904 0.04338 0.0
H77 H 0.77571 0.46473 0.09711 0.0
H78 H 0.69612 0.43686 0.06462 0.0
H79 H 0.78931 0.2516 0.0876 0.0
H80 H 0.30257 0.56067 0.29822 0.0
H81 H 0.21585 0.43682 0.24032 0.0
H82 H 0.21944 0.65958 0.25003 0.0
H83 H 0.27233 0.44741 0.27542 0.0
Eu84 Eu 0.72973 0.2046 0.48262 0.0
C85 C 0.46174 0.83876 0.49997 0.0
N86 N 0.47353 0.90733 0.50908 0.0
C87 C 0.33191 0.85692 0.50904 0.0
C88 C 0.38396 0.77724 0.49462 0.0
C89 C 0.40978 0.91563 0.51445 0.0
C90 C 0.31897 0.78777 0.49891 0.0
C91 C 0.51622 0.75681 0.48795 0.0
C92 C 0.52734 0.82862 0.49652 0.0
C93 C 0.43897 0.69625 0.48233 0.0
C94 C 0.37315 0.70655 0.48557 0.0
Eu95 Eu 0.6078 -0.00092 0.51819 0.0
N96 N 0.60194 0.88857 0.50171 0.0
C97 C 0.58301 0.74738 0.48564 0.0
C98 C 0.66659 0.87832 0.50049 0.0
C99 C 0.65836 0.80808 0.49215 0.0
H100 H 0.41797 0.9663 0.5234 0.0
H101 H 0.7099 0.80037 0.49102 0.0
H102 H 0.91426 0.23319 0.47858 0.0
H103 H 0.63308 0.41053 0.50965 0.0
H104 H 0.7242 0.92366 0.50628 0.0
H105 H 0.57677 0.69281 0.47927 0.0
H106 H 0.61696 0.28928 0.49295 0.0
H107 H 0.28175 0.8644 0.51305 0.0
H108 H 0.42936 0.64078 0.47567 0.0
H109 H 0.31383 0.65881 0.48135 0.0
H110 H 0.05223 0.33255 0.48921 0.0
H111 H 0.25839 0.74194 0.49499 0.0
H112 H 0.76515 0.51207 0.52355 0.0
N113 N 0.86206 0.29397 0.49327 0.0
C114 C 0.87501 0.36202 0.50282 0.0
C115 C 0.00287 0.3411 0.4934 0.0
C116 C 0.9531 0.42156 0.50865 0.0
C117 C 0.92456 0.28422 0.48773 0.0
C118 C 0.01716 0.40973 0.50411 0.0
N119 N 0.73619 0.31666 0.49931 0.0
C120 C 0.6736 0.33035 0.50003 0.0
C121 C 0.82293 0.4453 0.51506 0.0
C122 C 0.81037 0.37355 0.506 0.0
C123 C 0.75782 0.45754 0.51682 0.0
C124 C 0.68309 0.4002 0.50907 0.0
H125 H 0.07801 0.45418 0.50826 0.0
H126 H 0.02469 0.53816 0.52281 0.0
H127 H 0.91087 0.55903 0.5284 0.0
O128 O 0.73079 0.28825 0.45942 0.0
O129 O 0.7613 0.20495 0.51674 0.0
O130 O 0.63809 0.1197 0.53082 0.0
O131 O 0.79508 0.22369 0.45312 0.0
O132 O 0.59653 0.15864 0.4861 0.0
O133 O 0.54762 0.07444 0.51569 0.0
O134 O 0.66343 0.98132 0.54688 0.0
O135 O 0.61999 0.98637 0.48267 0.0
O136 O 0.62176 0.09736 0.46891 0.0
O137 O 0.53557 0.91467 0.54246 0.0
O138 O 0.74245 0.05907 0.51632 0.0
O139 O 0.76977 0.11292 0.48278 0.0
C140 C 0.71166 0.1794 0.53261 0.0
C141 C 0.80163 0.31713 0.42655 0.0
C142 C 0.77513 0.37606 0.39609 0.0
C143 C 0.85401 0.40428 0.38921 0.0
C144 C 0.87959 0.34424 0.41936 0.0
C145 C 0.90575 0.38818 0.40077 0.0
C146 C 0.7492 0.33273 0.41485 0.0
C147 C 0.54185 0.11855 0.50057 0.0
C148 C 0.77659 0.2766 0.44681 0.0
C149 C 0.96516 0.49184 0.51822 0.0
C150 C 0.90029 0.50369 0.52141 0.0
C151 C 0.61107 0.02551 0.46681 0.0
C152 C 0.58035 0.91527 0.57738 0.0
C153 C 0.59461 0.8611 0.61112 0.0
C154 C 0.5332 0.87128 0.61937 0.0
C155 C 0.51969 0.92547 0.58626 0.0
C156 C 0.61794 0.88281 0.58997 0.0
C157 C 0.49618 0.90318 0.60705 0.0
C158 C 0.78887 0.08723 0.49978 0.0
C159 C 0.59511 0.92596 0.55438 0.0
H160 H 0.87454 0.43595 0.3744 0.0
H161 H 0.92057 0.33267 0.4283 0.0
H162 H 0.9659 0.40907 0.3952 0.0
H163 H 0.68821 0.31011 0.4201 0.0
H164 H 0.51324 0.8536 0.6354 0.0
H165 H 0.48856 0.94838 0.57693 0.0
H166 H 0.6636 0.87294 0.58326 0.0
H167 H 0.44818 0.90963 0.61358 0.0
Eu168 Eu 0.69593 0.37953 0.81544 0.0
C169 C 0.60682 0.64267 0.83431 0.0
N170 N 0.66454 0.63264 0.84368 0.0
C171 C 0.75768 0.77304 0.8415 0.0
C172 C 0.62288 0.71923 0.82806 0.0
C173 C 0.73898 0.6961 0.84748 0.0
C174 C 0.69938 0.78472 0.83177 0.0
C175 C 0.4719 0.58444 0.8203 0.0
C176 C 0.53236 0.57558 0.83026 0.0
C177 C 0.48736 0.66083 0.81435 0.0
C178 C 0.56264 0.72794 0.81817 0.0
Eu179 Eu 0.627 0.50144 0.85362 0.0
N180 N 0.51938 0.50191 0.83585 0.0
C181 C 0.39741 0.51624 0.81668 0.0
C182 C 0.44583 0.43579 0.83312 0.0
C183 C 0.38423 0.44175 0.82324 0.0
H184 H 0.78357 0.68755 0.85544 0.0
H185 H 0.32616 0.38895 0.82097 0.0
H186 H 0.53916 0.19357 0.81245 0.0
H187 H 0.00545 0.48353 0.83976 0.0
H188 H 0.43315 0.37858 0.83901 0.0
H189 H 0.34937 0.52058 0.80912 0.0
H190 H 0.895 0.49767 0.82564 0.0
H191 H 0.81685 0.8233 0.8445 0.0
H192 H 0.44149 0.66864 0.80672 0.0
H193 H 0.57374 0.78635 0.81335 0.0
H194 H 0.50594 0.05629 0.8218 0.0
H195 H 0.71405 0.84447 0.82716 0.0
H196 H 0.98229 0.35057 0.85018 0.0
N197 N 0.6589 0.24657 0.82334 0.0
C198 C 0.7179 0.23483 0.83109 0.0
C199 C 0.56562 0.10598 0.82461 0.0
C200 C 0.70234 0.1573 0.8361 0.0
C201 C 0.58405 0.18377 0.81967 0.0
C202 C 0.62496 0.09267 0.83291 0.0
N203 N 0.80706 0.37517 0.82974 0.0
C204 C 0.8824 0.4399 0.83103 0.0
C205 C 0.85631 0.28974 0.84207 0.0
C206 C 0.79394 0.30071 0.83431 0.0
C207 C 0.93275 0.35659 0.84439 0.0
C208 C 0.94596 0.43182 0.83864 0.0
H209 H 0.61061 0.03227 0.83663 0.0
H210 H 0.75329 0.08751 0.84802 0.0
H211 H 0.88815 0.20321 0.85303 0.0
O212 O 0.77014 0.42863 0.78773 0.0
O213 O 0.68343 0.34657 0.85007 0.0
O214 O 0.71182 0.46326 0.8667 0.0
O215 O 0.67291 0.30509 0.78781 0.0
O216 O 0.7802 0.51314 0.81862 0.0
O217 O 0.75959 0.545 0.85216 0.0
O218 O 0.5429 0.46516 0.88083 0.0
O219 O 0.65381 0.54044 0.81904 0.0
O220 O 0.61112 0.41991 0.80392 0.0
O221 O 0.65512 0.57888 0.88046 0.0
O222 O 0.54777 0.36593 0.85247 0.0
O223 O 0.56541 0.33999 0.81838 0.0
C224 C 0.70535 0.39248 0.86673 0.0
C225 C 0.7878 0.33801 0.76734 0.0
C226 C 0.8762 0.36541 0.73763 0.0
C227 C 0.87049 0.29061 0.74068 0.0
C228 C 0.78171 0.26329 0.7702 0.0
C229 C 0.82475 0.2407 0.75717 0.0
C230 C 0.83908 0.39038 0.75208 0.0
C231 C 0.80298 0.56054 0.83505 0.0
C232 C 0.73503 0.36045 0.7779 0.0
C233 C 0.76415 0.14663 0.84412 0.0
C234 C 0.84092 0.21257 0.84702 0.0
C235 C 0.63376 0.49566 0.80215 0.0
C236 C 0.57667 0.55361 0.91201 0.0
C237 C 0.49709 0.53172 0.94386 0.0
C238 C 0.5609 0.6012 0.95251 0.0
C239 C 0.63914 0.62306 0.92127 0.0
C240 C 0.50474 0.50753 0.92345 0.0
C241 C 0.63118 0.64643 0.9413 0.0
C242 C 0.5266 0.3178 0.83622 0.0
C243 C 0.59056 0.53113 0.89078 0.0
H244 H 0.89672 0.26816 0.72963 0.0
H245 H 0.74238 0.2218 0.782 0.0
H246 H 0.81898 0.1825 0.75907 0.0
H247 H 0.84386 0.44828 0.75022 0.0
H248 H 0.55613 0.62064 0.96811 0.0
H249 H 0.69508 0.65962 0.9131 0.0
H250 H 0.45584 0.45378 0.91667 0.0
H251 H 0.67993 0.69987 0.9482 0.0
C252 C 0.01482 0.68716 0.14687 0.0
C253 C 0.02408 0.65423 0.16566 0.0
C254 C 0.0082 0.75555 0.14727 0.0
C255 C 0.0564 0.93065 0.1791 0.0
H256 H 0.8862 0.93429 0.14738 0.0
C257 C -0.00509 0.18861 0.18741 0.0
C258 C 0.98501 0.22077 0.1686 0.0
C259 C 0.99315 0.11586 0.18739 0.0
C260 C 0.93435 0.9343 0.15617 0.0
H261 H 0.03716 0.6689 0.19952 0.0
H262 H 0.02714 0.78915 0.20012 0.0
H263 H 0.90031 0.81589 0.14627 0.0
H264 H 0.96107 0.20018 0.13516 0.0
H265 H 0.95866 0.07324 0.13511 0.0
H266 H 0.09133 0.04907 0.1888 0.0
C267 C 0.02423 0.76161 0.18513 0.0
C268 C 0.94246 0.86673 0.15552 0.0
C269 C 0.03002 0.69283 0.18476 0.0
C270 C 0.96942 0.17702 0.1499 0.0
C271 C 0.96765 0.10417 0.14988 0.0
C272 C 0.04851 -0.00182 0.17969 0.0
C273 C 0.01222 0.79297 0.16643 0.0
C274 C 0.00363 0.86444 0.16697 0.0
C275 C 0.98122 0.07374 0.16856 0.0
C276 C 0.98743 0.00074 0.16826 0.0
H277 H 0.01103 0.65915 0.1319 0.0
H278 H 0.00021 0.77935 0.1326 0.0
H279 H 0.10468 0.93076 0.18785 0.0
H280 H 0.00516 0.22019 0.20212 0.0
H281 H 0.00201 0.09295 0.2021 0.0
C282 C 0.46208 0.18181 0.51009 0.0
C283 C 0.46823 0.12201 0.4995 0.0
C284 C 0.39025 0.18258 0.50962 0.0
C285 C 0.17529 0.0449 0.50389 0.0
H286 H 0.16132 0.23624 0.49622 0.0
C287 C 0.88214 0.04431 0.4873 0.0
C288 C 0.86624 0.09145 0.50071 0.0
C289 C 0.95636 0.04881 0.48811 0.0
C290 C 0.16485 0.1827 0.49859 0.0
H291 H 0.4072 0.01789 0.47966 0.0
H292 H 0.2803 0.0173 0.47934 0.0
H293 H 0.29209 0.24477 0.49441 0.0
H294 H 0.9129 0.17982 0.52546 0.0
H295 H 0.04553 0.1915 0.52599 0.0
H296 H 0.04799 0.98272 0.50768 0.0
C297 C 0.33061 0.0637 0.48794 0.0
C298 C 0.2393 0.18747 0.49754 0.0
C299 C 0.40283 0.06393 0.4881 0.0
C300 C 0.92477 0.14312 0.51499 0.0
C301 C 0.00014 0.14992 0.51525 0.0
C302 C 0.10103 0.0401 0.50478 0.0
C303 C 0.32333 0.12244 0.49892 0.0
C304 C 0.24504 0.11843 0.50004 0.0
C305 C 0.01618 0.10246 0.50186 0.0
C306 C 0.09526 0.10879 0.502 0.0
H307 H 0.51214 0.22687 0.51904 0.0
H308 H 0.38618 0.22837 0.51825 0.0
H309 H 0.17821 0.99108 0.50634 0.0
H310 H 0.83693 0.00356 0.47639 0.0
H311 H 0.96767 0.0116 0.4777 0.0
C312 C 0.92584 0.66301 0.85332 0.0
C313 C 0.88218 0.6329 0.83464 0.0
C314 C -0.0008 0.73407 0.85313 0.0
C315 C 0.10513 0.91995 0.82377 0.0
H316 H 0.29111 0.95138 0.85533 0.0
C317 C 0.40617 0.21097 0.81838 0.0
C318 C 0.45127 0.24108 0.83685 0.0
C319 C 0.33813 0.13551 0.81819 0.0
C320 C 0.2393 0.94368 0.84667 0.0
H321 H 0.8807 0.65147 0.80107 0.0
H322 H 0.00893 0.77674 0.80075 0.0
H323 H 0.17108 0.81903 0.85418 0.0
H324 H 0.46106 0.21714 0.86967 0.0
H325 H 0.34018 0.08471 0.86954 0.0
H326 H 0.17199 0.04433 0.81655 0.0
C327 C 0.9865 0.74534 0.81551 0.0
C328 C 0.1709 0.86798 0.84593 0.0
C329 C 0.9136 0.67368 0.81566 0.0
C330 C 0.42652 0.19519 0.85531 0.0
C331 C 0.35817 0.11923 0.85513 0.0
C332 C 0.17311 0.99554 0.82461 0.0
C333 C 0.02947 0.77659 0.83429 0.0
C334 C 0.10327 0.85555 0.83447 0.0
C335 C 0.31343 0.08863 0.83652 0.0
C336 C 0.24097 0.00828 0.83604 0.0
H337 H 0.90293 0.63195 0.86811 0.0
H338 H 0.03091 0.75711 0.86784 0.0
H339 H 0.05327 0.91231 0.81514 0.0
H340 H 0.42418 0.2454 0.80393 0.0
H341 H 0.30574 0.11332 0.80354 0.0
C342 C 0.42511 0.44087 0.97382 0.0
C343 C 0.42448 0.48799 0.95704 0.0
C344 C 0.37498 0.42506 0.99122 0.0
C345 C 0.28471 0.52501 0.0195 0.0
H346 H 0.19529 0.33799 0.05543 0.0
C347 C 0.12344 0.51062 0.09753 0.0
C348 C 0.13005 0.46727 0.11436 0.0
C349 C 0.1542 0.5094 0.07771 0.0
C350 C 0.22088 0.39125 0.04576 0.0
H351 H 0.3674 0.55104 0.94465 0.0
H352 H 0.27817 0.52179 0.97468 0.0
H353 H 0.24954 0.33442 0.02119 0.0
H354 H 0.17352 0.38876 0.12394 0.0
H355 H 0.23027 0.38877 0.08967 0.0
H356 H 0.25883 0.58298 0.04414 0.0
C357 C 0.31804 0.49775 0.97459 0.0
C358 C 0.25152 0.38888 0.02599 0.0
C359 C 0.36803 0.5133 0.95719 0.0
C360 C 0.16893 0.42366 0.11121 0.0
C361 C 0.20023 0.42276 0.09145 0.0
C362 C 0.25476 0.52764 0.03929 0.0
C363 C 0.32372 0.45688 0.99231 0.0
C364 C 0.28433 0.45593 0.01261 0.0
C365 C 0.19233 0.46465 0.07426 0.0
C366 C 0.22287 0.46105 0.05285 0.0
H367 H 0.4694 0.42229 0.97432 0.0
H368 H 0.38137 0.39359 0.00452 0.0
H369 H 0.31096 0.57848 0.00988 0.0
H370 H 0.09205 0.54328 0.09953 0.0
H371 H 0.14559 0.54151 0.06495 0.0
C372 C 0.66359 0.31107 0.37103 0.0
C373 C 0.71847 0.38114 0.38155 0.0
C374 C 0.64749 0.31498 0.34978 0.0
C375 C 0.80122 0.42479 0.31639 0.0
H376 H 0.66261 0.32345 0.26852 0.0
C377 C 0.93255 0.45807 0.23468 0.0
C378 C 0.89366 0.39556 0.22039 0.0
C379 C 0.89733 0.45472 0.25392 0.0
C380 C 0.70203 0.35119 0.28182 0.0
H381 H 0.78077 0.51014 0.38062 0.0
H382 H 0.75127 0.51705 0.3437 0.0
H383 H 0.60397 0.32501 0.30249 0.0
H384 H 0.79004 0.27957 0.21466 0.0
H385 H 0.72852 0.27182 0.24873 0.0
H386 H 0.89862 0.44568 0.29684 0.0
C387 C 0.72267 0.45925 0.35141 0.0
C388 C 0.66838 0.35316 0.30107 0.0
C389 C 0.73975 0.45538 0.37253 0.0
C390 C 0.81998 0.32875 0.22553 0.0
C391 C 0.7849 0.3247 0.24496 0.0
C392 C 0.83448 0.42127 0.29747 0.0
C393 C 0.68611 0.38898 0.33942 0.0
C394 C 0.71811 0.39168 0.31833 0.0
C395 C 0.82295 0.38806 0.25933 0.0
C396 C 0.78568 0.38595 0.2798 0.0
H397 H 0.64509 0.25311 0.37793 0.0
H398 H 0.61751 0.25996 0.34089 0.0
H399 H 0.84064 0.45143 0.32979 0.0
H400 H 0.98938 0.51027 0.23078 0.0
H401 H 0.92787 0.5054 0.26433 0.0
C402 C 0.61028 0.48224 0.76298 0.0
C403 C 0.63865 0.53104 0.78092 0.0
C404 C 0.61611 0.51547 0.74295 0.0
C405 C 0.72359 0.70705 0.7129 0.0
H406 H 0.54338 0.60268 0.67466 0.0
C407 C 0.67587 0.86974 0.64266 0.0
C408 C 0.63074 0.82597 0.62519 0.0
C409 C 0.69038 0.83178 0.65951 0.0
C410 C 0.59519 0.6321 0.68486 0.0
H411 H 0.69627 0.6536 0.79167 0.0
H412 H 0.70606 0.71141 0.75686 0.0
H413 H 0.53929 0.54092 0.70836 0.0
H414 H 0.56959 0.70883 0.61104 0.0
H415 H 0.59643 0.64226 0.64022 0.0
H416 H 0.77913 0.79875 0.6895 0.0
C417 C 0.67972 0.64733 0.75821 0.0
C418 C 0.59264 0.59659 0.70435 0.0
C419 C 0.67341 0.61405 0.77826 0.0
C420 C 0.6053 0.74421 0.62422 0.0
C421 C 0.61965 0.70596 0.64114 0.0
C422 C 0.72631 0.74245 0.69337 0.0
C423 C 0.65104 0.59858 0.74023 0.0
C424 C 0.65616 0.63416 0.71885 0.0
C425 C 0.65945 0.74861 0.65946 0.0
C426 C 0.66149 0.70631 0.67916 0.0
H427 H 0.58346 0.41809 0.76436 0.0
H428 H 0.59406 0.47591 0.72954 0.0
H429 H 0.77448 0.73709 0.7234 0.0
H430 H 0.6953 0.93264 0.64391 0.0
H431 H 0.72092 0.86708 0.67322 0.0
C432 C 0.71877 0.28956 0.88762 0.0
C433 C 0.72682 0.36567 0.8862 0.0
C434 C 0.72984 0.26117 0.90682 0.0
C435 C 0.69716 0.28444 0.96144 0.0
H436 H 0.78849 0.15034 0.97375 0.0
C437 C 0.64144 0.16662 0.03926 0.0
C438 C 0.71521 0.21451 0.04931 0.0
C439 C 0.64001 0.14433 0.01841 0.0
C440 C 0.7618 0.18666 0.9703 0.0
H441 H 0.7595 0.4743 0.90351 0.0
H442 H 0.77788 0.42443 0.9369 0.0
H443 H 0.807 0.2121 0.93871 0.0
H444 H 0.84269 0.25896 0.04782 0.0
H445 H 0.8404 0.22257 0.01123 0.0
H446 H 0.65343 0.26153 0.99274 0.0
C447 C 0.76223 0.3864 0.92321 0.0
C448 C 0.7728 0.22233 0.95042 0.0
C449 C 0.75153 0.41485 0.90405 0.0
C450 C 0.78523 0.22367 0.04013 0.0
C451 C 0.7839 0.20246 0.01914 0.0
C452 C 0.68549 0.24843 0.98098 0.0
C453 C 0.74824 0.30811 0.92496 0.0
C454 C 0.74096 0.27207 0.94594 0.0
C455 C 0.71246 0.17191 0.00758 0.0
C456 C 0.7172 0.19889 0.98563 0.0
H457 H 0.70004 0.25023 0.87421 0.0
H458 H 0.71862 0.20058 0.90774 0.0
H459 H 0.67094 0.3215 0.95841 0.0
H460 H 0.58644 0.15723 0.0463 0.0
H461 H 0.58384 0.11853 0.00986 0.0
C462 C 0.35568 0.75397 0.28983 0.0
C463 C 0.28088 0.6833 0.29093 0.0
C464 C 0.38867 0.80214 0.30772 0.0
C465 C 0.38692 0.76799 0.36386 0.0
H466 H 0.50566 -0.00239 0.37032 0.0
C467 C 0.51796 0.90762 0.44475 0.0
C468 C 0.58147 0.98634 0.44613 0.0
C469 C 0.48292 0.87468 0.42532 0.0
C470 C 0.47428 0.93334 0.36882 0.0
H471 H 0.17915 0.61145 0.31088 0.0
H472 H 0.23589 0.69544 0.34191 0.0
H473 H 0.43833 0.93953 0.3371 0.0
H474 H 0.66091 0.09164 0.42807 0.0
H475 H 0.60454 0.03303 0.39403 0.0
H476 H 0.42573 0.76011 0.39465 0.0
C477 C 0.26951 0.71354 0.32739 0.0
C478 C 0.43479 0.90015 0.34972 0.0
C479 C 0.23651 0.66598 0.30955 0.0
C480 C 0.61162 0.03059 0.4275 0.0
C481 C 0.57823 -0.00298 0.40793 0.0
C482 C 0.4279 0.80087 0.38266 0.0
C483 C 0.3477 0.77966 0.32701 0.0
C484 C 0.38964 0.81698 0.34715 0.0
C485 C 0.51184 0.91888 0.40648 0.0
C486 C 0.47151 0.8842 0.38571 0.0
H487 H 0.39169 0.76797 0.27577 0.0
H488 H 0.44893 0.85285 0.30691 0.0
H489 H 0.35434 0.70363 0.36222 0.0
H490 H 0.49212 0.87265 0.45872 0.0
H491 H 0.43103 0.81532 0.42539 0.0
C492 C 0.85687 0.43746 0.70765 0.0
C493 C 0.9026 0.40744 0.71713 0.0
C494 C 0.8594 0.44902 0.68608 0.0
C495 C 0.92506 0.43771 0.63474 0.0
H496 H 0.72333 0.23796 0.63011 0.0
C497 C 0.82251 0.26332 0.55719 0.0
C498 C 0.74012 0.21833 0.55299 0.0
C499 C 0.84978 0.29983 0.57662 0.0
C500 C 0.77868 0.29469 0.6309 0.0
H501 H -0.00157 0.38213 0.71196 0.0
H502 H -0.00016 0.39911 0.67384 0.0
H503 H 0.76982 0.29903 0.6642 0.0
H504 H 0.62146 0.177 0.56542 0.0
H505 H 0.66863 0.24424 0.59889 0.0
H506 H 0.9331 0.43487 0.60134 0.0
C507 C 0.96244 0.41353 0.68329 0.0
C508 C 0.80546 0.32926 0.65047 0.0
C509 C 0.96054 0.4025 0.70503 0.0
C510 C 0.68535 0.21103 0.56837 0.0
C511 C 0.71259 0.24917 0.58761 0.0
C512 C 0.89723 0.40406 0.61494 0.0
C513 C 0.90702 0.43022 0.6737 0.0
C514 C 0.87887 0.40045 0.6525 0.0
C515 C 0.79518 0.29362 0.59205 0.0
C516 C 0.82397 0.33166 0.61283 0.0
H517 H 0.81131 0.4423 0.7162 0.0
H518 H 0.81615 0.46182 0.67884 0.0
H519 H 0.98213 0.49246 0.6362 0.0
H520 H 0.86602 0.26924 0.5456 0.0
H521 H 0.91362 0.33175 0.57961 0.0
loop_
_geom_bond_atom_site_label_1
_geom_bond_atom_site_label_2
_geom_bond_distance
_geom_bond_site_symmetry_2
_ccdc_geom_bond_type
Eu0 N29 2.600 . S
Eu0 N35 2.562 . S
Eu0 O44 2.462 . S
Eu0 O45 2.373 . S
Eu0 O47 2.432 . S
Eu0 O48 2.291 . S
Eu0 O52 2.335 1_655 S
Eu0 O55 2.372 . S
Eu0 C64 2.787 . S
C1 N2 1.365 . S
C1 C4 1.405 . S
C1 C8 1.448 . S
N2 C1 1.365 . S
N2 C5 1.319 . S
N2 Eu11 2.600 . S
C3 C5 1.397 . S
C3 C6 1.367 . S
C3 H23 0.931 . S
C4 C1 1.405 . S
C4 C6 1.403 . S
C4 C10 1.439 . S
C5 N2 1.319 . S
C5 C3 1.397 . S
C5 H16 0.930 . S
C6 C3 1.367 . S
C6 C4 1.403 . S
C6 H27 0.929 . S
C7 C8 1.430 . S
C7 C9 1.387 . S
C7 C13 1.404 . S
C8 C1 1.448 . S
C8 C7 1.430 . S
C8 N12 1.351 . S
C9 C7 1.387 . S
C9 C10 1.374 . S
C9 H24 0.931 . S
C10 C4 1.439 . S
C10 C9 1.374 . S
C10 H25 0.931 . S
Eu11 N2 2.600 . S
Eu11 N12 2.562 . S
Eu11 O46 2.335 1_455 S
Eu11 O49 2.372 . S
Eu11 O50 2.462 . S
Eu11 O51 2.373 . S
Eu11 O53 2.432 . S
Eu11 O54 2.291 . S
Eu11 C75 2.787 . S
N12 C8 1.351 . S
N12 Eu11 2.562 . S
N12 C14 1.325 . S
C13 C7 1.404 . S
C13 C15 1.366 . S
C13 H21 0.930 . S
C14 N12 1.325 . S
C14 C15 1.416 . S
C14 H20 0.929 . S
C15 C13 1.366 . S
C15 C14 1.416 . S
C15 H17 0.930 . S
H16 C5 0.930 . S
H17 C15 0.930 . S
H18 C33 0.930 . S
H19 C40 0.930 . S
H20 C14 0.929 . S
H21 C13 0.930 . S
H22 C36 0.929 . S
H23 C3 0.931 . S
H24 C9 0.931 . S
H25 C10 0.931 . S
H26 C31 0.931 . S
H27 C6 0.929 . S
H28 C39 0.930 . S
N29 Eu0 2.600 . S
N29 C30 1.365 . S
N29 C33 1.319 . S
C30 N29 1.365 . S
C30 C32 1.405 . S
C30 C38 1.448 . S
C31 H26 0.931 . S
C31 C33 1.397 . S
C31 C34 1.367 . S
C32 C30 1.405 . S
C32 C34 1.403 . S
C32 C65 1.439 . S
C33 H18 0.930 . S
C33 N29 1.319 . S
C33 C31 1.397 . S
C34 C31 1.367 . S
C34 C32 1.403 . S
C34 H41 0.929 . S
N35 Eu0 2.562 . S
N35 C36 1.325 . S
N35 C38 1.351 . S
C36 H22 0.929 . S
C36 N35 1.325 . S
C36 C40 1.416 . S
C37 C38 1.430 . S
C37 C39 1.404 . S
C37 C66 1.387 . S
C38 C30 1.448 . S
C38 N35 1.351 . S
C38 C37 1.430 . S
C39 H28 0.930 . S
C39 C37 1.404 . S
C39 C40 1.366 . S
C40 H19 0.930 . S
C40 C36 1.416 . S
C40 C39 1.366 . S
H41 C34 0.929 . S
H42 C65 0.931 . S
H43 C66 0.931 . S
O44 Eu0 2.462 . S
O44 C64 1.252 . S
O45 Eu0 2.373 . S
O45 C56 1.249 . S
O46 Eu11 2.335 1_655 S
O46 C56 1.264 . S
O47 Eu0 2.432 . S
O47 C64 1.268 . S
O48 Eu0 2.291 . S
O48 C63 1.255 . S
O49 Eu11 2.372 . S
O49 C63 1.257 1_455 S
O50 Eu11 2.462 . S
O50 C75 1.252 . S
O51 Eu11 2.373 . S
O51 C67 1.249 . S
O52 Eu0 2.335 1_455 S
O52 C67 1.264 . S
O53 Eu11 2.432 . S
O53 C75 1.268 . S
O54 Eu11 2.291 . S
O54 C74 1.255 . S
O55 Eu0 2.372 . S
O55 C74 1.257 1_655 S
C56 O45 1.249 . S
C56 O46 1.264 . S
C57 C60 1.382 . S
C57 C62 1.390 . S
C57 C64 1.506 . S
C58 C59 1.398 . S
C58 C62 1.392 . S
C59 C58 1.398 . S
C59 C61 1.372 . S
C59 H76 0.931 . S
C60 C57 1.382 . S
C60 C61 1.390 . S
C60 H77 0.931 . S
C61 C59 1.372 . S
C61 C60 1.390 . S
C61 H78 0.929 . S
C62 C57 1.390 . S
C62 C58 1.392 . S
C62 H79 0.930 . S
C63 O48 1.255 . S
C63 O49 1.257 1_655 S
C64 Eu0 2.787 . S
C64 O44 1.252 . S
C64 O47 1.268 . S
C64 C57 1.506 . S
C65 C32 1.439 . S
C65 H42 0.931 . S
C65 C66 1.374 . S
C66 C37 1.387 . S
C66 H43 0.931 . S
C66 C65 1.374 . S
C67 O51 1.249 . S
C67 O52 1.264 . S
C68 C71 1.382 . S
C68 C72 1.390 . S
C68 C75 1.506 . S
C69 C70 1.398 . S
C69 C72 1.392 . S
C70 C69 1.398 . S
C70 C73 1.372 . S
C70 H80 0.931 . S
C71 C68 1.382 . S
C71 C73 1.390 . S
C71 H81 0.931 . S
C72 C68 1.390 . S
C72 C69 1.392 . S
C72 H82 0.930 . S
C73 C70 1.372 . S
C73 C71 1.390 . S
C73 H83 0.929 . S
C74 O54 1.255 . S
C74 O55 1.257 1_455 S
C75 Eu11 2.787 . S
C75 O50 1.252 . S
C75 O53 1.268 . S
C75 C68 1.506 . S
H76 C59 0.931 . S
H77 C60 0.931 . S
H78 C61 0.929 . S
H79 C62 0.930 . S
H80 C70 0.931 . S
H81 C71 0.931 . S
H82 C72 0.930 . S
H83 C73 0.929 . S
Eu84 N113 2.600 . S
Eu84 N119 2.562 . S
Eu84 O128 2.462 . S
Eu84 O129 2.373 . S
Eu84 O131 2.432 . S
Eu84 O132 2.291 . S
Eu84 O136 2.335 . S
Eu84 O139 2.372 . S
Eu84 C148 2.787 . S
C85 N86 1.365 . S
C85 C88 1.405 . S
C85 C92 1.448 . S
N86 C85 1.365 . S
N86 C89 1.319 . S
N86 Eu95 2.600 1_565 S
C87 C89 1.397 . S
C87 C90 1.367 . S
C87 H107 0.931 . S
C88 C85 1.405 . S
C88 C90 1.403 . S
C88 C94 1.439 . S
C89 N86 1.319 . S
C89 C87 1.397 . S
C89 H100 0.930 . S
C90 C87 1.367 . S
C90 C88 1.403 . S
C90 H111 0.929 . S
C91 C92 1.430 . S
C91 C93 1.387 . S
C91 C97 1.404 . S
C92 C85 1.448 . S
C92 C91 1.430 . S
C92 N96 1.351 . S
C93 C91 1.387 . S
C93 C94 1.374 . S
C93 H108 0.931 . S
C94 C88 1.439 . S
C94 C93 1.374 . S
C94 H109 0.931 . S
Eu95 N86 2.600 1_545 S
Eu95 N96 2.562 1_545 S
Eu95 O130 2.335 . S
Eu95 O133 2.372 . S
Eu95 O134 2.462 1_545 S
Eu95 O135 2.373 . S
Eu95 O137 2.432 1_545 S
Eu95 O138 2.291 . S
Eu95 C159 2.787 1_545 S
N96 C92 1.351 . S
N96 Eu95 2.562 1_565 S
N96 C98 1.325 . S
C97 C91 1.404 . S
C97 C99 1.366 . S
C97 H105 0.930 . S
C98 N96 1.325 . S
C98 C99 1.416 . S
C98 H104 0.929 . S
C99 C97 1.366 . S
C99 C98 1.416 . S
C99 H101 0.930 . S
H100 C89 0.930 . S
H101 C99 0.930 . S
H102 C117 0.930 . S
H103 C124 0.930 . S
H104 C98 0.929 . S
H105 C97 0.930 . S
H106 C120 0.929 . S
H107 C87 0.931 . S
H108 C93 0.931 . S
H109 C94 0.931 . S
H110 C115 0.931 . S
H111 C90 0.929 . S
H112 C123 0.930 . S
N113 Eu84 2.600 . S
N113 C114 1.365 . S
N113 C117 1.319 . S
C114 N113 1.365 . S
C114 C116 1.405 . S
C114 C122 1.448 . S
C115 H110 0.931 . S
C115 C117 1.397 1_455 S
C115 C118 1.367 . S
C116 C114 1.405 . S
C116 C118 1.403 1_655 S
C116 C149 1.439 . S
C117 H102 0.930 . S
C117 N113 1.319 . S
C117 C115 1.397 1_655 S
C118 C115 1.367 . S
C118 C116 1.403 1_455 S
C118 H125 0.929 . S
N119 Eu84 2.562 . S
N119 C120 1.325 . S
N119 C122 1.351 . S
C120 H106 0.929 . S
C120 N119 1.325 . S
C120 C124 1.416 . S
C121 C122 1.430 . S
C121 C123 1.404 . S
C121 C150 1.387 . S
C122 C114 1.448 . S
C122 N119 1.351 . S
C122 C121 1.430 . S
C123 H112 0.930 . S
C123 C121 1.404 . S
C123 C124 1.366 . S
C124 H103 0.930 . S
C124 C120 1.416 . S
C124 C123 1.366 . S
H125 C118 0.929 . S
H126 C149 0.931 1_455 S
H127 C150 0.931 . S
O128 Eu84 2.462 . S
O128 C148 1.252 . S
O129 Eu84 2.373 . S
O129 C140 1.249 . S
O130 Eu95 2.335 . S
O130 C140 1.264 . S
O131 Eu84 2.432 . S
O131 C148 1.268 . S
O132 Eu84 2.291 . S
O132 C147 1.255 . S
O133 Eu95 2.372 . S
O133 C147 1.257 . S
O134 Eu95 2.462 1_565 S
O134 C159 1.252 . S
O135 Eu95 2.373 . S
O135 C151 1.249 . S
O136 Eu84 2.335 . S
O136 C151 1.264 . S
O137 Eu95 2.432 1_565 S
O137 C159 1.268 . S
O138 Eu95 2.291 . S
O138 C158 1.255 . S
O139 Eu84 2.372 . S
O139 C158 1.257 . S
C140 O129 1.249 . S
C140 O130 1.264 . S
C141 C144 1.382 . S
C141 C146 1.390 . S
C141 C148 1.506 . S
C142 C143 1.398 . S
C142 C146 1.392 . S
C143 C142 1.398 . S
C143 C145 1.372 . S
C143 H160 0.931 . S
C144 C141 1.382 . S
C144 C145 1.390 . S
C144 H161 0.931 . S
C145 C143 1.372 . S
C145 C144 1.390 . S
C145 H162 0.929 . S
C146 C141 1.390 . S
C146 C142 1.392 . S
C146 H163 0.930 . S
C147 O132 1.255 . S
C147 O133 1.257 . S
C148 Eu84 2.787 . S
C148 O128 1.252 . S
C148 O131 1.268 . S
C148 C141 1.506 . S
C149 C116 1.439 . S
C149 H126 0.931 1_655 S
C149 C150 1.374 . S
C150 C121 1.387 . S
C150 H127 0.931 . S
C150 C149 1.374 . S
C151 O135 1.249 . S
C151 O136 1.264 . S
C152 C155 1.382 . S
C152 C156 1.390 . S
C152 C159 1.506 . S
C153 C154 1.398 . S
C153 C156 1.392 . S
C154 C153 1.398 . S
C154 C157 1.372 . S
C154 H164 0.931 . S
C155 C152 1.382 . S
C155 C157 1.390 . S
C155 H165 0.931 . S
C156 C152 1.390 . S
C156 C153 1.392 . S
C156 H166 0.930 . S
C157 C154 1.372 . S
C157 C155 1.390 . S
C157 H167 0.929 . S
C158 O138 1.255 . S
C158 O139 1.257 . S
C159 Eu95 2.787 1_565 S
C159 O134 1.252 . S
C159 O137 1.268 . S
C159 C152 1.506 . S
H160 C143 0.931 . S
H161 C144 0.931 . S
H162 C145 0.929 . S
H163 C146 0.930 . S
H164 C154 0.931 . S
H165 C155 0.931 . S
H166 C156 0.930 . S
H167 C157 0.929 . S
Eu168 N197 2.600 . S
Eu168 N203 2.562 . S
Eu168 O212 2.462 . S
Eu168 O213 2.373 . S
Eu168 O215 2.432 . S
Eu168 O216 2.291 . S
Eu168 O220 2.335 . S
Eu168 O223 2.372 . S
Eu168 C232 2.787 . S
C169 N170 1.365 . S
C169 C172 1.405 . S
C169 C176 1.448 . S
N170 C169 1.365 . S
N170 C173 1.319 . S
N170 Eu179 2.600 . S
C171 C173 1.397 . S
C171 C174 1.367 . S
C171 H191 0.931 . S
C172 C169 1.405 . S
C172 C174 1.403 . S
C172 C178 1.439 . S
C173 N170 1.319 . S
C173 C171 1.397 . S
C173 H184 0.930 . S
C174 C171 1.367 . S
C174 C172 1.403 . S
C174 H195 0.929 . S
C175 C176 1.430 . S
C175 C177 1.387 . S
C175 C181 1.404 . S
C176 C169 1.448 . S
C176 C175 1.430 . S
C176 N180 1.351 . S
C177 C175 1.387 . S
C177 C178 1.374 . S
C177 H192 0.931 . S
C178 C172 1.439 . S
C178 C177 1.374 . S
C178 H193 0.931 . S
Eu179 N170 2.600 . S
Eu179 N180 2.562 . S
Eu179 O214 2.335 . S
Eu179 O217 2.372 . S
Eu179 O218 2.462 . S
Eu179 O219 2.373 . S
Eu179 O221 2.432 . S
Eu179 O222 2.291 . S
Eu179 C243 2.787 . S
N180 C176 1.351 . S
N180 Eu179 2.562 . S
N180 C182 1.325 . S
C181 C175 1.404 . S
C181 C183 1.366 . S
C181 H189 0.930 . S
C182 N180 1.325 . S
C182 C183 1.416 . S
C182 H188 0.929 . S
C183 C181 1.366 . S
C183 C182 1.416 . S
C183 H185 0.930 . S
H184 C173 0.930 . S
H185 C183 0.930 . S
H186 C201 0.930 . S
H187 C208 0.930 1_455 S
H188 C182 0.929 . S
H189 C181 0.930 . S
H190 C204 0.929 . S
H191 C171 0.931 . S
H192 C177 0.931 . S
H193 C178 0.931 . S
H194 C199 0.931 . S
H195 C174 0.929 . S
H196 C207 0.930 1_455 S
N197 Eu168 2.600 . S
N197 C198 1.365 . S
N197 C201 1.319 . S
C198 N197 1.365 . S
C198 C200 1.405 . S
C198 C206 1.448 . S
C199 H194 0.931 . S
C199 C201 1.397 . S
C199 C202 1.367 . S
C200 C198 1.405 . S
C200 C202 1.403 . S
C200 C233 1.439 . S
C201 H186 0.930 . S
C201 N197 1.319 . S
C201 C199 1.397 . S
C202 C199 1.367 . S
C202 C200 1.403 . S
C202 H209 0.929 . S
N203 Eu168 2.562 . S
N203 C204 1.325 . S
N203 C206 1.351 . S
C204 H190 0.929 . S
C204 N203 1.325 . S
C204 C208 1.416 . S
C205 C206 1.430 . S
C205 C207 1.404 . S
C205 C234 1.387 . S
C206 C198 1.448 . S
C206 N203 1.351 . S
C206 C205 1.430 . S
C207 H196 0.930 1_655 S
C207 C205 1.404 . S
C207 C208 1.366 . S
C208 H187 0.930 1_655 S
C208 C204 1.416 . S
C208 C207 1.366 . S
H209 C202 0.929 . S
H210 C233 0.931 . S
H211 C234 0.931 . S
O212 Eu168 2.462 . S
O212 C232 1.252 . S
O213 Eu168 2.373 . S
O213 C224 1.249 . S
O214 Eu179 2.335 . S
O214 C224 1.264 . S
O215 Eu168 2.432 . S
O215 C232 1.268 . S
O216 Eu168 2.291 . S
O216 C231 1.255 . S
O217 Eu179 2.372 . S
O217 C231 1.257 . S
O218 Eu179 2.462 . S
O218 C243 1.252 . S
O219 Eu179 2.373 . S
O219 C235 1.249 . S
O220 Eu168 2.335 . S
O220 C235 1.264 . S
O221 Eu179 2.432 . S
O221 C243 1.268 . S
O222 Eu179 2.291 . S
O222 C242 1.255 . S
O223 Eu168 2.372 . S
O223 C242 1.257 . S
C224 O213 1.249 . S
C224 O214 1.264 . S
C225 C228 1.382 . S
C225 C230 1.390 . S
C225 C232 1.506 . S
C226 C227 1.398 . S
C226 C230 1.392 . S
C227 C226 1.398 . S
C227 C229 1.372 . S
C227 H244 0.931 . S
C228 C225 1.382 . S
C228 C229 1.390 . S
C228 H245 0.931 . S
C229 C227 1.372 . S
C229 C228 1.390 . S
C229 H246 0.929 . S
C230 C225 1.390 . S
C230 C226 1.392 . S
C230 H247 0.930 . S
C231 O216 1.255 . S
C231 O217 1.257 . S
C232 Eu168 2.787 . S
C232 O212 1.252 . S
C232 O215 1.268 . S
C232 C225 1.506 . S
C233 C200 1.439 . S
C233 H210 0.931 . S
C233 C234 1.374 . S
C234 C205 1.387 . S
C234 H211 0.931 . S
C234 C233 1.374 . S
C235 O219 1.249 . S
C235 O220 1.264 . S
C236 C239 1.382 . S
C236 C240 1.390 . S
C236 C243 1.506 . S
C237 C238 1.398 . S
C237 C240 1.392 . S
C238 C237 1.398 . S
C238 C241 1.372 . S
C238 H248 0.931 . S
C239 C236 1.382 . S
C239 C241 1.390 . S
C239 H249 0.931 . S
C240 C236 1.390 . S
C240 C237 1.392 . S
C240 H250 0.930 . S
C241 C238 1.372 . S
C241 C239 1.390 . S
C241 H251 0.929 . S
C242 O222 1.255 . S
C242 O223 1.257 . S
C243 Eu179 2.787 . S
C243 O218 1.252 . S
C243 O221 1.268 . S
C243 C236 1.506 . S
H244 C227 0.931 . S
H245 C228 0.931 . S
H246 C229 0.929 . S
H247 C230 0.930 . S
H248 C238 0.931 . S
H249 C239 0.931 . S
H250 C240 0.930 . S
H251 C241 0.929 . S
C252 C253 1.349 1_655 S
C252 C254 1.327 . S
C252 H277 0.950 . S
C253 C252 1.349 1_455 S
C253 C269 1.349 . S
C254 C252 1.327 . S
C254 C273 1.429 1_655 S
C254 H278 0.950 . S
C255 C272 1.574 1_565 S
C255 C274 1.368 . S
C255 H279 0.949 . S
H256 C260 0.949 . S
C257 C258 1.349 1_455 S
C257 C259 1.327 . S
C257 H280 0.950 . S
C258 C257 1.349 1_655 S
C258 C270 1.349 . S
C259 C257 1.327 . S
C259 C275 1.429 1_455 S
C259 H281 0.950 . S
C260 H256 0.949 . S
C260 C268 1.574 . S
C260 C276 1.368 1_565 S
H261 C269 0.950 . S
H262 C267 0.950 . S
H263 C268 0.949 . S
H264 C270 0.950 . S
H265 C271 0.950 . S
H266 C272 0.949 . S
C267 H262 0.950 . S
C267 C269 1.327 . S
C267 C273 1.429 . S
C268 C260 1.574 . S
C268 H263 0.949 . S
C268 C274 1.368 1_655 S
C269 C253 1.349 . S
C269 H261 0.950 . S
C269 C267 1.327 . S
C270 C258 1.349 . S
C270 H264 0.950 . S
C270 C271 1.327 . S
C271 H265 0.950 . S
C271 C270 1.327 . S
C271 C275 1.429 . S
C272 C255 1.574 1_545 S
C272 H266 0.949 . S
C272 C276 1.368 1_455 S
C273 C254 1.429 1_455 S
C273 C267 1.429 . S
C273 C274 1.523 . S
C274 C255 1.368 . S
C274 C268 1.368 1_455 S
C274 C273 1.523 . S
C275 C259 1.429 1_655 S
C275 C271 1.429 . S
C275 C276 1.523 . S
C276 C260 1.368 1_545 S
C276 C272 1.368 1_655 S
C276 C275 1.523 . S
H277 C252 0.950 . S
H278 C254 0.950 . S
H279 C255 0.949 . S
H280 C257 0.950 . S
H281 C259 0.950 . S
C282 C283 1.349 . S
C282 C284 1.327 . S
C282 H307 0.950 . S
C283 C282 1.349 . S
C283 C299 1.349 . S
C284 C282 1.327 . S
C284 C303 1.429 . S
C284 H308 0.950 . S
C285 C302 1.574 . S
C285 C304 1.368 . S
C285 H309 0.949 . S
H286 C290 0.949 . S
C287 C288 1.349 . S
C287 C289 1.327 . S
C287 H310 0.950 1_545 S
C288 C287 1.349 . S
C288 C300 1.349 . S
C289 C287 1.327 . S
C289 C305 1.429 1_655 S
C289 H311 0.950 1_545 S
C290 H286 0.949 . S
C290 C298 1.574 . S
C290 C306 1.368 . S
H291 C299 0.950 . S
H292 C297 0.950 . S
H293 C298 0.949 . S
H294 C300 0.950 . S
H295 C301 0.950 . S
H296 C302 0.949 1_565 S
C297 H292 0.950 . S
C297 C299 1.327 . S
C297 C303 1.429 . S
C298 C290 1.574 . S
C298 H293 0.949 . S
C298 C304 1.368 . S
C299 C283 1.349 . S
C299 H291 0.950 . S
C299 C297 1.327 . S
C300 C288 1.349 . S
C300 H294 0.950 . S
C300 C301 1.327 1_655 S
C301 H295 0.950 . S
C301 C300 1.327 1_455 S
C301 C305 1.429 . S
C302 C285 1.574 . S
C302 H296 0.949 1_545 S
C302 C306 1.368 . S
C303 C284 1.429 . S
C303 C297 1.429 . S
C303 C304 1.523 . S
C304 C285 1.368 . S
C304 C298 1.368 . S
C304 C303 1.523 . S
C305 C289 1.429 1_455 S
C305 C301 1.429 . S
C305 C306 1.523 . S
C306 C290 1.368 . S
C306 C302 1.368 . S
C306 C305 1.523 . S
H307 C282 0.950 . S
H308 C284 0.950 . S
H309 C285 0.949 . S
H310 C287 0.950 1_565 S
H311 C289 0.950 1_565 S
C312 C313 1.349 . S
C312 C314 1.327 1_655 S
C312 H337 0.950 . S
C313 C312 1.349 . S
C313 C329 1.349 . S
C314 C312 1.327 1_455 S
C314 C333 1.429 . S
C314 H338 0.950 . S
C315 C332 1.574 1_565 S
C315 C334 1.368 . S
C315 H339 0.949 . S
H316 C320 0.949 . S
C317 C318 1.349 . S
C317 C319 1.327 . S
C317 H340 0.950 . S
C318 C317 1.349 . S
C318 C330 1.349 . S
C319 C317 1.327 . S
C319 C335 1.429 . S
C319 H341 0.950 . S
C320 H316 0.949 . S
C320 C328 1.574 . S
C320 C336 1.368 1_565 S
H321 C329 0.950 . S
H322 C327 0.950 . S
H323 C328 0.949 . S
H324 C330 0.950 . S
H325 C331 0.950 . S
H326 C332 0.949 . S
C327 H322 0.950 . S
C327 C329 1.327 . S
C327 C333 1.429 1_655 S
C328 C320 1.574 . S
C328 H323 0.949 . S
C328 C334 1.368 . S
C329 C313 1.349 . S
C329 H321 0.950 . S
C329 C327 1.327 . S
C330 C318 1.349 . S
C330 H324 0.950 . S
C330 C331 1.327 . S
C331 H325 0.950 . S
C331 C330 1.327 . S
C331 C335 1.429 . S
C332 C315 1.574 1_545 S
C332 H326 0.949 . S
C332 C336 1.368 . S
C333 C314 1.429 . S
C333 C327 1.429 1_455 S
C333 C334 1.523 . S
C334 C315 1.368 . S
C334 C328 1.368 . S
C334 C333 1.523 . S
C335 C319 1.429 . S
C335 C331 1.429 . S
C335 C336 1.523 . S
C336 C320 1.368 1_545 S
C336 C332 1.368 . S
C336 C335 1.523 . S
H337 C312 0.950 . S
H338 C314 0.950 . S
H339 C315 0.949 . S
H340 C317 0.950 . S
H341 C319 0.950 . S
C342 C343 1.349 . S
C342 C344 1.327 . S
C342 H367 0.950 . S
C343 C342 1.349 . S
C343 C359 1.349 . S
C344 C342 1.327 . S
C344 C363 1.429 . S
C344 H368 0.950 1_556 S
C345 C362 1.574 . S
C345 C364 1.368 . S
C345 H369 0.949 . S
H346 C350 0.949 . S
C347 C348 1.349 . S
C347 C349 1.327 . S
C347 H370 0.950 . S
C348 C347 1.349 . S
C348 C360 1.349 . S
C349 C347 1.327 . S
C349 C365 1.429 . S
C349 H371 0.950 . S
C350 H346 0.949 . S
C350 C358 1.574 . S
C350 C366 1.368 . S
H351 C359 0.950 . S
H352 C357 0.950 . S
H353 C358 0.949 . S
H354 C360 0.950 . S
H355 C361 0.950 . S
H356 C362 0.949 . S
C357 H352 0.950 . S
C357 C359 1.327 . S
C357 C363 1.429 . S
C358 C350 1.574 . S
C358 H353 0.949 . S
C358 C364 1.368 . S
C359 C343 1.349 . S
C359 H351 0.950 . S
C359 C357 1.327 . S
C360 C348 1.349 . S
C360 H354 0.950 . S
C360 C361 1.327 . S
C361 H355 0.950 . S
C361 C360 1.327 . S
C361 C365 1.429 . S
C362 C345 1.574 . S
C362 H356 0.949 . S
C362 C366 1.368 . S
C363 C344 1.429 . S
C363 C357 1.429 . S
C363 C364 1.523 1_556 S
C364 C345 1.368 . S
C364 C358 1.368 . S
C364 C363 1.523 1_554 S
C365 C349 1.429 . S
C365 C361 1.429 . S
C365 C366 1.523 . S
C366 C350 1.368 . S
C366 C362 1.368 . S
C366 C365 1.523 . S
H367 C342 0.950 . S
H368 C344 0.950 1_554 S
H369 C345 0.949 . S
H370 C347 0.950 . S
H371 C349 0.950 . S
C372 C373 1.349 . S
C372 C374 1.327 . S
C372 H397 0.950 . S
C373 C372 1.349 . S
C373 C389 1.349 . S
C374 C372 1.327 . S
C374 C393 1.429 . S
C374 H398 0.950 . S
C375 C392 1.574 . S
C375 C394 1.368 . S
C375 H399 0.949 . S
H376 C380 0.949 . S
C377 C378 1.349 . S
C377 C379 1.327 . S
C377 H400 0.950 . S
C378 C377 1.349 . S
C378 C390 1.349 . S
C379 C377 1.327 . S
C379 C395 1.429 . S
C379 H401 0.950 . S
C380 H376 0.949 . S
C380 C388 1.574 . S
C380 C396 1.368 . S
H381 C389 0.950 . S
H382 C387 0.950 . S
H383 C388 0.949 . S
H384 C390 0.950 . S
H385 C391 0.950 . S
H386 C392 0.949 . S
C387 H382 0.950 . S
C387 C389 1.327 . S
C387 C393 1.429 . S
C388 C380 1.574 . S
C388 H383 0.949 . S
C388 C394 1.368 . S
C389 C373 1.349 . S
C389 H381 0.950 . S
C389 C387 1.327 . S
C390 C378 1.349 . S
C390 H384 0.950 . S
C390 C391 1.327 . S
C391 H385 0.950 . S
C391 C390 1.327 . S
C391 C395 1.429 . S
C392 C375 1.574 . S
C392 H386 0.949 . S
C392 C396 1.368 . S
C393 C374 1.429 . S
C393 C387 1.429 . S
C393 C394 1.523 . S
C394 C375 1.368 . S
C394 C388 1.368 . S
C394 C393 1.523 . S
C395 C379 1.429 . S
C395 C391 1.429 . S
C395 C396 1.523 . S
C396 C380 1.368 . S
C396 C392 1.368 . S
C396 C395 1.523 . S
H397 C372 0.950 . S
H398 C374 0.950 . S
H399 C375 0.949 . S
H400 C377 0.950 . S
H401 C379 0.950 . S
C402 C403 1.349 . S
C402 C404 1.327 . S
C402 H427 0.950 . S
C403 C402 1.349 . S
C403 C419 1.349 . S
C404 C402 1.327 . S
C404 C423 1.429 . S
C404 H428 0.950 . S
C405 C422 1.574 . S
C405 C424 1.368 . S
C405 H429 0.949 . S
H406 C410 0.949 . S
C407 C408 1.349 . S
C407 C409 1.327 . S
C407 H430 0.950 . S
C408 C407 1.349 . S
C408 C420 1.349 . S
C409 C407 1.327 . S
C409 C425 1.429 . S
C409 H431 0.950 . S
C410 H406 0.949 . S
C410 C418 1.574 . S
C410 C426 1.368 . S
H411 C419 0.950 . S
H412 C417 0.950 . S
H413 C418 0.949 . S
H414 C420 0.950 . S
H415 C421 0.950 . S
H416 C422 0.949 . S
C417 H412 0.950 . S
C417 C419 1.327 . S
C417 C423 1.429 . S
C418 C410 1.574 . S
C418 H413 0.949 . S
C418 C424 1.368 . S
C419 C403 1.349 . S
C419 H411 0.950 . S
C419 C417 1.327 . S
C420 C408 1.349 . S
C420 H414 0.950 . S
C420 C421 1.327 . S
C421 H415 0.950 . S
C421 C420 1.327 . S
C421 C425 1.429 . S
C422 C405 1.574 . S
C422 H416 0.949 . S
C422 C426 1.368 . S
C423 C404 1.429 . S
C423 C417 1.429 . S
C423 C424 1.523 . S
C424 C405 1.368 . S
C424 C418 1.368 . S
C424 C423 1.523 . S
C425 C409 1.429 . S
C425 C421 1.429 . S
C425 C426 1.523 . S
C426 C410 1.368 . S
C426 C422 1.368 . S
C426 C425 1.523 . S
H427 C402 0.950 . S
H428 C404 0.950 . S
H429 C405 0.949 . S
H430 C407 0.950 . S
H431 C409 0.950 . S
C432 C433 1.349 . S
C432 C434 1.327 . S
C432 H457 0.950 . S
C433 C432 1.349 . S
C433 C449 1.349 . S
C434 C432 1.327 . S
C434 C453 1.429 . S
C434 H458 0.950 . S
C435 C452 1.574 . S
C435 C454 1.368 . S
C435 H459 0.949 . S
H436 C440 0.949 . S
C437 C438 1.349 . S
C437 C439 1.327 . S
C437 H460 0.950 . S
C438 C437 1.349 . S
C438 C450 1.349 . S
C439 C437 1.327 . S
C439 C455 1.429 . S
C439 H461 0.950 . S
C440 H436 0.949 . S
C440 C448 1.574 . S
C440 C456 1.368 . S
H441 C449 0.950 . S
H442 C447 0.950 . S
H443 C448 0.949 . S
H444 C450 0.950 . S
H445 C451 0.950 . S
H446 C452 0.949 . S
C447 H442 0.950 . S
C447 C449 1.327 . S
C447 C453 1.429 . S
C448 C440 1.574 . S
C448 H443 0.949 . S
C448 C454 1.368 . S
C449 C433 1.349 . S
C449 H441 0.950 . S
C449 C447 1.327 . S
C450 C438 1.349 . S
C450 H444 0.950 . S
C450 C451 1.327 . S
C451 H445 0.950 . S
C451 C450 1.327 . S
C451 C455 1.429 . S
C452 C435 1.574 . S
C452 H446 0.949 . S
C452 C456 1.368 . S
C453 C434 1.429 . S
C453 C447 1.429 . S
C453 C454 1.523 . S
C454 C435 1.368 . S
C454 C448 1.368 . S
C454 C453 1.523 . S
C455 C439 1.429 . S
C455 C451 1.429 . S
C455 C456 1.523 1_554 S
C456 C440 1.368 . S
C456 C452 1.368 . S
C456 C455 1.523 1_556 S
H457 C432 0.950 . S
H458 C434 0.950 . S
H459 C435 0.949 . S
H460 C437 0.950 . S
H461 C439 0.950 . S
C462 C463 1.349 . S
C462 C464 1.327 . S
C462 H487 0.950 . S
C463 C462 1.349 . S
C463 C479 1.349 . S
C464 C462 1.327 . S
C464 C483 1.429 . S
C464 H488 0.950 . S
C465 C482 1.574 . S
C465 C484 1.368 . S
C465 H489 0.949 . S
H466 C470 0.949 . S
C467 C468 1.349 . S
C467 C469 1.327 . S
C467 H490 0.950 . S
C468 C467 1.349 . S
C468 C480 1.349 1_565 S
C469 C467 1.327 . S
C469 C485 1.429 . S
C469 H491 0.950 . S
C470 H466 0.949 . S
C470 C478 1.574 . S
C470 C486 1.368 . S
H471 C479 0.950 . S
H472 C477 0.950 . S
H473 C478 0.949 . S
H474 C480 0.950 . S
H475 C481 0.950 . S
H476 C482 0.949 . S
C477 H472 0.950 . S
C477 C479 1.327 . S
C477 C483 1.429 . S
C478 C470 1.574 . S
C478 H473 0.949 . S
C478 C484 1.368 . S
C479 C463 1.349 . S
C479 H471 0.950 . S
C479 C477 1.327 . S
C480 C468 1.349 1_545 S
C480 H474 0.950 . S
C480 C481 1.327 . S
C481 H475 0.950 . S
C481 C480 1.327 . S
C481 C485 1.429 1_545 S
C482 C465 1.574 . S
C482 H476 0.949 . S
C482 C486 1.368 . S
C483 C464 1.429 . S
C483 C477 1.429 . S
C483 C484 1.523 . S
C484 C465 1.368 . S
C484 C478 1.368 . S
C484 C483 1.523 . S
C485 C469 1.429 . S
C485 C481 1.429 1_565 S
C485 C486 1.523 . S
C486 C470 1.368 . S
C486 C482 1.368 . S
C486 C485 1.523 . S
H487 C462 0.950 . S
H488 C464 0.950 . S
H489 C465 0.949 . S
H490 C467 0.950 . S
H491 C469 0.950 . S
C492 C493 1.349 . S
C492 C494 1.327 . S
C492 H517 0.950 . S
C493 C492 1.349 . S
C493 C509 1.349 . S
C494 C492 1.327 . S
C494 C513 1.429 . S
C494 H518 0.950 . S
C495 C512 1.574 . S
C495 C514 1.368 . S
C495 H519 0.949 . S
H496 C500 0.949 . S
C497 C498 1.349 . S
C497 C499 1.327 . S
C497 H520 0.950 . S
C498 C497 1.349 . S
C498 C510 1.349 . S
C499 C497 1.327 . S
C499 C515 1.429 . S
C499 H521 0.950 . S
C500 H496 0.949 . S
C500 C508 1.574 . S
C500 C516 1.368 . S
H501 C509 0.950 1_455 S
H502 C507 0.950 1_455 S
H503 C508 0.949 . S
H504 C510 0.950 . S
H505 C511 0.950 . S
H506 C512 0.949 . S
C507 H502 0.950 1_655 S
C507 C509 1.327 . S
C507 C513 1.429 . S
C508 C500 1.574 . S
C508 H503 0.949 . S
C508 C514 1.368 . S
C509 C493 1.349 . S
C509 H501 0.950 1_655 S
C509 C507 1.327 . S
C510 C498 1.349 . S
C510 H504 0.950 . S
C510 C511 1.327 . S
C511 H505 0.950 . S
C511 C510 1.327 . S
C511 C515 1.429 . S
C512 C495 1.574 . S
C512 H506 0.949 . S
C512 C516 1.368 . S
C513 C494 1.429 . S
C513 C507 1.429 . S
C513 C514 1.523 . S
C514 C495 1.368 . S
C514 C508 1.368 . S
C514 C513 1.523 . S
C515 C499 1.429 . S
C515 C511 1.429 . S
C515 C516 1.523 . S
C516 C500 1.368 . S
C516 C512 1.368 . S
C516 C515 1.523 . S
H517 C492 0.950 . S
H518 C494 0.950 . S
H519 C495 0.949 . S
H520 C497 0.950 . S
H521 C499 0.950 . S
C253 C74 1.433 . S
C258 C63 1.433 . S
C283 C147 1.433 . S
C288 C158 1.433 . S
C313 C231 1.433 . S
C318 C242 1.433 . S
C343 C237 1.527 . S
C348 C67 1.658 . S
C373 C142 0.858 . S
C378 C56 1.090 . S
C403 C235 1.658 . S
C408 C153 1.527 . S
C433 C224 1.090 . S
C438 C58 0.858 . S
C463 C69 1.527 . S
C468 C151 1.658 1_565 S
C493 C226 0.858 . S
C498 C140 1.090 . S
