# Generated by pormake.
# Topology nfc, (4)-cn, num edge types: 1
# Building blocks:
#     Node 0, Type 0, BuildingBlock: KOZSID_clean_sbu_0, # of connection points: 4
#     Node 1, Type 0, BuildingBlock: KOZSID_clean_sbu_0, # of connection points: 4
#     Node 2, Type 0, BuildingBlock: KOZSID_clean_sbu_0, # of connection points: 4
#     Node 3, Type 0, BuildingBlock: KOZSID_clean_sbu_0, # of connection points: 4
#     Node 4, Type 0, BuildingBlock: KOZSID_clean_sbu_0, # of connection points: 4
#     Node 5, Type 0, BuildingBlock: KOZSID_clean_sbu_0, # of connection points: 4
#     Node 6, Type 0, BuildingBlock: KOZSID_clean_sbu_0, # of connection points: 4
#     Node 7, Type 0, BuildingBlock: KOZSID_clean_sbu_0, # of connection points: 4
#     Node 8, Type 0, BuildingBlock: KOZSID_clean_sbu_0, # of connection points: 4
#     Node 9, Type 0, BuildingBlock: KOZSID_clean_sbu_0, # of connection points: 4
#     Node 10, Type 0, BuildingBlock: KOZSID_clean_sbu_0, # of connection points: 4
#     Node 11, Type 0, BuildingBlock: KOZSID_clean_sbu_0, # of connection points: 4
#     Node 12, Type 0, BuildingBlock: KOZSID_clean_sbu_0, # of connection points: 4
#     Node 13, Type 0, BuildingBlock: KOZSID_clean_sbu_0, # of connection points: 4
#     Node 14, Type 0, BuildingBlock: KOZSID_clean_sbu_0, # of connection points: 4
#     Node 15, Type 0, BuildingBlock: KOZSID_clean_sbu_0, # of connection points: 4
#     Edge 16, Type (0, 0), BuildingBlock: AJUNOK_clean_linker_0, # of connection points: 2
#     Edge 17, Type (0, 0), BuildingBlock: AJUNOK_clean_linker_0, # of connection points: 2
#     Edge 18, Type (0, 0), BuildingBlock: AJUNOK_clean_linker_0, # of connection points: 2
#     Edge 19, Type (0, 0), BuildingBlock: AJUNOK_clean_linker_0, # of connection points: 2
#     Edge 20, Type (0, 0), BuildingBlock: AJUNOK_clean_linker_0, # of connection points: 2
#     Edge 21, Type (0, 0), BuildingBlock: AJUNOK_clean_linker_0, # of connection points: 2
#     Edge 22, Type (0, 0), BuildingBlock: AJUNOK_clean_linker_0, # of connection points: 2
#     Edge 23, Type (0, 0), BuildingBlock: AJUNOK_clean_linker_0, # of connection points: 2
#     Edge 24, Type (0, 0), BuildingBlock: AJUNOK_clean_linker_0, # of connection points: 2
#     Edge 25, Type (0, 0), BuildingBlock: AJUNOK_clean_linker_0, # of connection points: 2
#     Edge 26, Type (0, 0), BuildingBlock: AJUNOK_clean_linker_0, # of connection points: 2
#     Edge 27, Type (0, 0), BuildingBlock: AJUNOK_clean_linker_0, # of connection points: 2
#     Edge 28, Type (0, 0), BuildingBlock: AJUNOK_clean_linker_0, # of connection points: 2
#     Edge 29, Type (0, 0), BuildingBlock: AJUNOK_clean_linker_0, # of connection points: 2
#     Edge 30, Type (0, 0), BuildingBlock: AJUNOK_clean_linker_0, # of connection points: 2
#     Edge 31, Type (0, 0), BuildingBlock: AJUNOK_clean_linker_0, # of connection points: 2
#     Edge 32, Type (0, 0), BuildingBlock: AJUNOK_clean_linker_0, # of connection points: 2
#     Edge 33, Type (0, 0), BuildingBlock: AJUNOK_clean_linker_0, # of connection points: 2
#     Edge 34, Type (0, 0), BuildingBlock: AJUNOK_clean_linker_0, # of connection points: 2
#     Edge 35, Type (0, 0), BuildingBlock: AJUNOK_clean_linker_0, # of connection points: 2
#     Edge 36, Type (0, 0), BuildingBlock: AJUNOK_clean_linker_0, # of connection points: 2
#     Edge 37, Type (0, 0), BuildingBlock: AJUNOK_clean_linker_0, # of connection points: 2
#     Edge 38, Type (0, 0), BuildingBlock: AJUNOK_clean_linker_0, # of connection points: 2
#     Edge 39, Type (0, 0), BuildingBlock: AJUNOK_clean_linker_0, # of connection points: 2
#     Edge 40, Type (0, 0), BuildingBlock: AJUNOK_clean_linker_0, # of connection points: 2
#     Edge 41, Type (0, 0), BuildingBlock: AJUNOK_clean_linker_0, # of connection points: 2
#     Edge 42, Type (0, 0), BuildingBlock: AJUNOK_clean_linker_0, # of connection points: 2
#     Edge 43, Type (0, 0), BuildingBlock: AJUNOK_clean_linker_0, # of connection points: 2
#     Edge 44, Type (0, 0), BuildingBlock: AJUNOK_clean_linker_0, # of connection points: 2
#     Edge 45, Type (0, 0), BuildingBlock: AJUNOK_clean_linker_0, # of connection points: 2
#     Edge 46, Type (0, 0), BuildingBlock: AJUNOK_clean_linker_0, # of connection points: 2
#     Edge 47, Type (0, 0), BuildingBlock: AJUNOK_clean_linker_0, # of connection points: 2
# Relax obj value: 0.094
# Max RMSD: 0.164
# Mean RMSD: 0.121
data_MOF--net-nfc--node1-KOZSID_clean_sbu_0--edge1-AJUNOK_clean_linker_0
_symmetry_space_group_name_H-M    P1
_symmetry_Int_Tables_number       1
_symmetry_cell_setting            triclinic
loop_
_symmetry_equiv_pos_as_xyz
'x, y, z'
_cell_length_a     33.248708
_cell_length_b     33.331095
_cell_length_c     27.688357
_cell_angle_alpha  82.591018
_cell_angle_beta   85.231289
_cell_angle_gamma 83.074372
loop_
_atom_site_label
_atom_site_type_symbol
_atom_site_fract_x
_atom_site_fract_y
_atom_site_fract_z
_atom_type_partial_charge
C0 C 0.96993 0.03904 0.10604 0.0
C1 C 0.94252 0.06945 0.12352 0.0
C2 C 0.92379 0.09068 0.08428 0.0
C3 C 0.94057 0.07269 0.04433 0.0
N4 N 0.96886 0.04095 0.05545 0.0
Co5 Co 1.00151 0.01011 1.00336 0.0
N6 N 0.97698 0.04474 0.94447 0.0
C7 C 0.94943 0.07753 0.94886 0.0
C8 C 0.93674 0.09662 0.90496 0.0
C9 C 0.95706 0.07463 0.87014 0.0
C10 C 0.98097 0.0425 0.89427 0.0
N11 N 0.03336 0.97859 0.95138 0.0
C12 C 0.0314 0.97996 0.90098 0.0
C13 C 0.0553 0.94682 0.88425 0.0
C14 C 0.07354 0.92503 0.92346 0.0
C15 C 0.05946 0.94504 0.96283 0.0
N16 N 0.02685 0.97621 0.06221 0.0
C17 C 0.05542 0.94424 0.05784 0.0
C18 C 0.06893 0.92591 0.10167 0.0
C19 C 0.04842 0.94786 0.13639 0.0
C20 C 0.02356 0.97919 0.11225 0.0
N21 N 0.9586 0.97339 1.00531 0.0
C22 C 0.90858 0.92331 0.97102 0.0
C23 C 0.94441 0.90661 0.9921 0.0
C24 C 0.96843 0.93204 1.01007 0.0
C25 C 0.895 0.96415 0.97456 0.0
C26 C 0.92025 0.9885 0.99258 0.0
N27 N 0.04456 0.04643 1.00142 0.0
C28 C 0.11213 0.05109 0.02405 0.0
C29 C 0.0994 0.08931 0.03882 0.0
C30 C 0.06113 0.10827 0.02728 0.0
C31 C 0.03459 0.08664 1.00734 0.0
C32 C 0.08432 0.03044 1.0046 0.0
H33 H 0.00527 0.10199 1.00051 0.0
H34 H 0.09473 1.00052 0.99586 0.0
H35 H 0.99584 0.91785 0.02491 0.0
H36 H 0.90924 0.01984 0.99292 0.0
C37 C 0.93404 0.08764 0.99529 0.0
C38 C 0.99723 0.01043 0.13943 0.0
C39 C 0.00662 0.01085 0.86702 0.0
C40 C 0.06817 0.9319 0.01168 0.0
H41 H 0.9374 0.07665 0.16065 0.0
H42 H 0.90172 0.11732 0.08465 0.0
H43 H 0.91465 0.1231 0.89895 0.0
H44 H 0.95423 0.0815 0.83126 0.0
H45 H 0.05836 0.93829 0.84766 0.0
H46 H 0.09366 0.89696 0.92351 0.0
H47 H 0.0911 0.89951 0.10776 0.0
H48 H 0.0514 0.94129 0.17528 0.0
H49 H 0.95487 0.87451 0.99233 0.0
H50 H 0.86648 0.97787 0.96033 0.0
H51 H 0.14212 0.0359 0.03113 0.0
H52 H 0.05085 0.13864 0.03647 0.0
C53 C 0.25428 0.81157 0.32607 0.0
C54 C 0.27097 0.84411 0.34018 0.0
C55 C 0.30763 0.84609 0.31447 0.0
C56 C 0.31138 0.81468 0.28642 0.0
N57 N 0.27946 0.79248 0.29283 0.0
Co58 Co 0.27332 0.74332 0.26022 0.0
N59 N 0.32687 0.74715 0.22116 0.0
C60 C 0.35284 0.77523 0.2225 0.0
C61 C 0.38681 0.77074 0.19126 0.0
C62 C 0.38239 0.73778 0.16847 0.0
C63 C 0.34587 0.72393 0.18737 0.0
N64 N 0.26703 0.69437 0.2273 0.0
C65 C 0.2915 0.67625 0.19264 0.0
C66 C 0.27528 0.64308 0.17946 0.0
C67 C 0.23924 0.64028 0.2064 0.0
C68 C 0.23549 0.67167 0.2345 0.0
N69 N 0.21993 0.73936 0.29968 0.0
C70 C 0.19451 0.71058 0.29937 0.0
C71 C 0.15994 0.71587 0.32946 0.0
C72 C 0.16335 0.7501 0.35034 0.0
C73 C 0.2001 0.76369 0.3319 0.0
N74 N 0.24536 0.7786 0.20747 0.0
C75 C 0.21748 0.81298 0.11738 0.0
C76 C 0.19463 0.78684 0.14877 0.0
C77 C 0.20924 0.76982 0.19334 0.0
C78 C 0.25066 0.82689 0.13529 0.0
C79 C 0.26347 0.80994 0.18092 0.0
N80 N 0.3011 0.708 0.31314 0.0
C81 C 0.29163 0.66248 0.38684 0.0
C82 C 0.32051 0.68035 0.40797 0.0
C83 C 0.34574 0.70487 0.37773 0.0
C84 C 0.33539 0.71844 0.33025 0.0
C85 C 0.2831 0.67615 0.3387 0.0
H86 H 0.35335 0.73996 0.30988 0.0
H87 H 0.25948 0.66318 0.32459 0.0
H88 H 0.19222 0.74765 0.21397 0.0
H89 H 0.28967 0.82059 0.19239 0.0
C90 C 0.34425 0.8056 0.25339 0.0
C91 C 0.21428 0.8004 0.34519 0.0
C92 C 0.33046 0.6889 0.17153 0.0
C93 C 0.20298 0.68034 0.26825 0.0
H94 H 0.25793 0.86438 0.36632 0.0
H95 H 0.32895 0.86795 0.31592 0.0
H96 H 0.41172 0.78933 0.18555 0.0
H97 H 0.40358 0.72545 0.14086 0.0
H98 H 0.28821 0.62293 0.15315 0.0
H99 H 0.21828 0.61793 0.20567 0.0
H100 H 0.13486 0.6975 0.33484 0.0
H101 H 0.14098 0.76374 0.37578 0.0
H102 H 0.16797 0.77623 0.13681 0.0
H103 H 0.26909 0.84759 0.11259 0.0
H104 H 0.27252 0.64189 0.40866 0.0
H105 H 0.36983 0.71775 0.39247 0.0
C106 C 0.43768 0.97949 0.58143 0.0
C107 C 0.40487 0.99835 0.6074 0.0
C108 C 0.40833 0.03919 0.60026 0.0
C109 C 0.44288 0.04336 0.57021 0.0
N110 N 0.46177 0.00767 0.55738 0.0
Co111 Co 0.51373 0.00185 0.514 0.0
N112 N 0.51968 0.06221 0.50482 0.0
C113 C 0.49306 0.09094 0.52394 0.0
C114 C 0.50291 0.12982 0.51079 0.0
C115 C 0.53789 0.12592 0.48133 0.0
C116 C 0.54792 0.08468 0.47818 0.0
N117 N 0.56581 0.99601 0.47076 0.0
C118 C 0.59016 0.02412 0.4471 0.0
C119 C 0.62315 0.00517 0.42149 0.0
C120 C 0.61953 0.96437 0.42845 0.0
C121 C 0.58476 0.96029 0.45809 0.0
N122 N 0.50776 0.9415 0.52302 0.0
C123 C 0.53414 0.91281 0.50348 0.0
C124 C 0.52419 0.87394 0.51643 0.0
C125 C 0.48938 0.8778 0.54621 0.0
C126 C 0.47961 0.91902 0.54978 0.0
N127 N 0.482 0.00953 0.45544 0.0
C128 C 0.44938 0.02898 0.36441 0.0
C129 C 0.47607 0.99386 0.37404 0.0
C130 C 0.49163 0.98454 0.41969 0.0
C131 C 0.43609 0.05227 0.40203 0.0
C132 C 0.45244 0.0417 0.44744 0.0
N133 N 0.54541 0.99422 0.57256 0.0
C134 C 0.59124 0.95182 0.62624 0.0
C135 C 0.57927 0.9762 0.66333 0.0
C136 C 0.55287 0.01155 0.65288 0.0
C137 C 0.53662 0.02001 0.60756 0.0
C138 C 0.57431 0.96161 0.58112 0.0
H139 H 0.5158 0.04674 0.60248 0.0
H140 H 0.58417 0.94165 0.55444 0.0
H141 H 0.51273 0.958 0.42438 0.0
H142 H 0.44188 0.06093 0.47467 0.0
C143 C 0.45869 0.08028 0.55362 0.0
C144 C 0.44383 0.93472 0.58042 0.0
C145 C 0.5841 0.0689 0.44813 0.0
C146 C 0.56871 0.92342 0.47421 0.0
H147 H 0.38077 0.98407 0.62921 0.0
H148 H 0.38803 0.06307 0.61531 0.0
H149 H 0.48631 0.1578 0.52096 0.0
H150 H 0.55392 0.1508 0.46361 0.0
H151 H 0.64748 0.01935 0.40005 0.0
H152 H 0.63988 0.94045 0.41354 0.0
H153 H 0.54067 0.84597 0.50606 0.0
H154 H 0.47334 0.85293 0.56392 0.0
H155 H 0.48655 0.97481 0.34558 0.0
H156 H 0.41498 0.07953 0.39575 0.0
H157 H 0.61254 0.92474 0.63235 0.0
H158 H 0.5429 0.03154 0.6805 0.0
C159 C 0.2809 0.15136 0.79992 0.0
C160 C 0.269 0.11291 0.81439 0.0
C161 C 0.22895 0.11516 0.8053 0.0
C162 C 0.21867 0.15469 0.7858 0.0
N163 N 0.24997 0.17758 0.78112 0.0
Co164 Co 0.24775 0.2371 0.75665 0.0
N165 N 0.1871 0.24288 0.7543 0.0
C166 C 0.1625 0.21356 0.76929 0.0
C167 C 0.12227 0.22609 0.7628 0.0
C168 C 0.12115 0.26564 0.74195 0.0
C169 C 0.16095 0.27495 0.73662 0.0
N170 N 0.24591 0.29611 0.7294 0.0
C171 C 0.21455 0.32268 0.71214 0.0
C172 C 0.22738 0.35977 0.69227 0.0
C173 C 0.26831 0.35638 0.69632 0.0
C174 C 0.27816 0.31753 0.71819 0.0
N175 N 0.30804 0.23203 0.76219 0.0
C176 C 0.3325 0.2619 0.75036 0.0
C177 C 0.37172 0.25079 0.76273 0.0
C178 C 0.37211 0.2118 0.78516 0.0
C179 C 0.33296 0.20139 0.78503 0.0
N180 N 0.2548 0.22305 0.68836 0.0
C181 C 0.25992 0.21136 0.58856 0.0
C182 C 0.29119 0.22685 0.60869 0.0
C183 C 0.28786 0.23281 0.65803 0.0
C184 C 0.22737 0.19937 0.62008 0.0
C185 C 0.22571 0.2049 0.66942 0.0
N186 N 0.24104 0.25074 0.82479 0.0
C187 C 0.26089 0.28767 0.88703 0.0
C188 C 0.24536 0.25988 0.92415 0.0
C189 C 0.22569 0.2288 0.91027 0.0
C190 C 0.22283 0.2256 0.86096 0.0
C191 C 0.25859 0.2825 0.83799 0.0
H192 H 0.20708 0.20143 0.85304 0.0
H193 H 0.27227 0.30382 0.81143 0.0
H194 H 0.3122 0.24593 0.67044 0.0
H195 H 0.20002 0.19493 0.69112 0.0
C196 C 0.17883 0.17317 0.78156 0.0
C197 C 0.32056 0.16265 0.80872 0.0
C198 C 0.1726 0.31373 0.71188 0.0
C199 C 0.31721 0.30043 0.72926 0.0
H200 H 0.28683 0.08656 0.83195 0.0
H201 H 0.20899 0.0916 0.81516 0.0
H202 H 0.09702 0.20798 0.76992 0.0
H203 H 0.09432 0.285 0.7303 0.0
H204 H 0.20912 0.3863 0.67577 0.0
H205 H 0.28857 0.37931 0.68415 0.0
H206 H 0.39672 0.26927 0.75744 0.0
H207 H 0.39797 0.19342 0.80094 0.0
H208 H 0.31802 0.23492 0.58642 0.0
H209 H 0.20251 0.18681 0.60659 0.0
H210 H 0.27559 0.31288 0.89567 0.0
H211 H 0.21377 0.20585 0.93706 0.0
C212 C 0.98211 0.98305 0.61511 0.0
C213 C 0.9581 0.95622 0.64296 0.0
C214 C 0.93796 0.93885 0.61125 0.0
C215 C 0.95071 0.95538 0.5654 0.0
N216 N 0.97853 0.98162 0.56547 0.0
Co217 Co 1.00071 0.0131 0.50294 0.0
N218 N 0.97067 0.98726 0.4557 0.0
C219 C 0.94606 0.95816 0.47109 0.0
C220 C 0.93211 0.94155 0.43375 0.0
C221 C 0.94917 0.96075 0.39163 0.0
C222 C 0.97248 0.98885 0.40491 0.0
N223 N 0.02132 0.04591 0.4406 0.0
C224 C 0.01758 0.04483 0.39096 0.0
C225 C 0.03657 0.07593 0.3636 0.0
C226 C 0.05396 0.09568 0.3956 0.0
C227 C 0.04423 0.07651 0.44124 0.0
N228 N 0.03277 0.03718 0.54986 0.0
C229 C 0.05827 0.06551 0.53417 0.0
C230 C 0.07358 0.08097 0.5715 0.0
C231 C 0.05694 0.06156 0.61373 0.0
C232 C 0.0324 0.03444 0.60068 0.0
N233 N 0.04676 0.97003 0.49418 0.0
C234 C 0.10599 0.91142 0.45767 0.0
C235 C 0.11334 0.95202 0.45554 0.0
C236 C 0.08388 0.98044 0.47465 0.0
C237 C 0.06995 0.89996 0.48243 0.0
C238 C 0.04098 0.92957 0.5006 0.0
N239 N 0.95412 0.05639 0.51181 0.0
C240 C 0.92831 0.1169 0.54947 0.0
C241 C 0.88782 0.10896 0.54924 0.0
C242 C 0.88152 0.07616 0.52432 0.0
C243 C 0.91467 0.05013 0.50698 0.0
C244 C 0.96011 0.09175 0.52913 0.0
H245 H 0.9075 0.02476 0.49059 0.0
H246 H 0.98943 0.10115 0.52987 0.0
H247 H 0.09103 0.01108 0.47117 0.0
H248 H 0.01341 0.91943 0.51777 0.0
C249 C 0.93793 0.94645 0.52123 0.0
C250 C 0.00754 0.00893 0.63848 0.0
C251 C 0.9962 0.01558 0.36733 0.0
C252 C 0.06022 0.08268 0.48487 0.0
H253 H 0.95523 0.94978 0.68229 0.0
H254 H 0.9164 0.91674 0.62063 0.0
H255 H 0.91263 0.91744 0.4368 0.0
H256 H 0.94549 0.95388 0.35528 0.0
H257 H 0.03807 0.08349 0.32437 0.0
H258 H 0.0726 0.12042 0.38644 0.0
H259 H 0.09231 0.1057 0.56844 0.0
H260 H 0.06073 0.06855 0.65 0.0
H261 H 0.1413 0.96208 0.43784 0.0
H262 H 0.06314 0.86872 0.48549 0.0
H263 H 0.9365 0.1416 0.56702 0.0
H264 H 0.85155 0.06963 0.51811 0.0
C265 C 0.28528 0.82887 0.69353 0.0
C266 C 0.26617 0.86275 0.66661 0.0
C267 C 0.22533 0.86007 0.67345 0.0
C268 C 0.22139 0.8249 0.70431 0.0
N269 N 0.25725 0.80491 0.71798 0.0
Co270 Co 0.26343 0.75157 0.7622 0.0
N271 N 0.20293 0.74729 0.77182 0.0
C272 C 0.17397 0.77545 0.75263 0.0
C273 C 0.13517 0.76628 0.76593 0.0
C274 C 0.13938 0.73019 0.79573 0.0
C275 C 0.1807 0.71894 0.79896 0.0
N276 N 0.26972 0.69789 0.80582 0.0
C277 C 0.24177 0.67371 0.82992 0.0
C278 C 0.26096 0.63912 0.85547 0.0
C279 C 0.30181 0.64154 0.84806 0.0
C280 C 0.30565 0.67721 0.81815 0.0
N281 N 0.32392 0.75614 0.75327 0.0
C282 C 0.35284 0.72849 0.77348 0.0
C283 C 0.39162 0.73804 0.76104 0.0
C284 C 0.38747 0.77396 0.73095 0.0
C285 C 0.34619 0.78467 0.72657 0.0
N286 N 0.25938 0.78108 0.82017 0.0
C287 C 0.24259 0.80857 0.91148 0.0
C288 C 0.27693 0.78151 0.90256 0.0
C289 C 0.28492 0.7685 0.85674 0.0
C290 C 0.21939 0.82542 0.87282 0.0
C291 C 0.22869 0.81162 0.82725 0.0
N292 N 0.26729 0.72212 0.70413 0.0
C293 C 0.30815 0.6815 0.64818 0.0
C294 C 0.28142 0.69556 0.61204 0.0
C295 C 0.24516 0.71868 0.62434 0.0
C296 C 0.23872 0.73152 0.67039 0.0
C297 C 0.30022 0.69476 0.69416 0.0
H298 H 0.21134 0.7506 0.67684 0.0
H299 H 0.32207 0.68397 0.7201 0.0
H300 H 0.31065 0.7467 0.85263 0.0
H301 H 0.20951 0.82468 0.79913 0.0
C302 C 0.18449 0.80997 0.72168 0.0
C303 C 0.33017 0.82156 0.695 0.0
C304 C 0.19686 0.68154 0.82957 0.0
C305 C 0.34246 0.69294 0.8024 0.0
H306 H 0.28031 0.88704 0.64437 0.0
H307 H 0.20128 0.88137 0.65783 0.0
H308 H 0.10706 0.7839 0.75541 0.0
H309 H 0.11471 0.71418 0.81352 0.0
H310 H 0.24687 0.6146 0.87731 0.0
H311 H 0.3259 0.61993 0.86305 0.0
H312 H 0.41971 0.72055 0.77186 0.0
H313 H 0.41217 0.79007 0.71348 0.0
H314 H 0.29616 0.76857 0.9317 0.0
H315 H 0.19286 0.84704 0.87842 0.0
H316 H 0.33619 0.66262 0.64014 0.0
H317 H 0.22304 0.72896 0.5975 0.0
C318 C 0.42203 0.01808 0.95915 0.0
C319 C 0.3864 0.00256 0.95181 0.0
C320 C 0.38837 0.96419 0.97632 0.0
C321 C 0.42475 0.95859 0.99754 0.0
N322 N 0.44638 0.99087 0.98776 0.0
Co323 Co 0.49955 0.99614 0.01474 0.0
N324 N 0.50216 0.93986 0.05119 0.0
C325 C 0.47638 0.91199 0.04836 0.0
C326 C 0.48635 0.87538 0.07573 0.0
C327 C 0.52081 0.87998 0.09707 0.0
C328 C 0.52991 0.91934 0.08148 0.0
N329 N 0.55082 0.0028 0.04511 0.0
C330 C 0.57258 0.97754 0.07852 0.0
C331 C 0.60543 0.99518 0.09094 0.0
C332 C 0.60448 0.03275 0.06445 0.0
C333 C 0.57116 0.03605 0.0376 0.0
N334 N 0.49844 0.05125 0.97557 0.0
C335 C 0.52818 0.07602 0.97119 0.0
C336 C 0.52015 0.11112 0.9402 0.0
C337 C 0.4831 0.10856 0.92363 0.0
C338 C 0.47044 0.07201 0.94581 0.0
N339 N 0.46867 0.0196 0.07034 0.0
C340 C 0.43777 0.04654 0.15913 0.0
C341 C 0.45896 0.07169 0.12434 0.0
C342 C 0.47425 0.05763 0.08048 0.0
C343 C 0.42817 0.00979 0.14631 0.0
C344 C 0.44342 0.99722 0.1016 0.0
N345 N 0.5309 0.9728 0.95862 0.0
C346 C 0.59017 0.97024 0.90167 0.0
C347 C 0.5701 0.95149 0.86996 0.0
C348 C 0.53157 0.94015 0.8856 0.0
C349 C 0.51309 0.95022 0.93012 0.0
C350 C 0.57016 0.9807 0.94537 0.0
H351 H 0.48366 0.94078 0.93941 0.0
H352 H 0.58687 0.99645 0.96661 0.0
H353 H 0.4924 0.07711 0.05663 0.0
H354 H 0.43636 0.96826 0.0943 0.0
C355 C 0.44082 0.92259 0.02403 0.0
C356 C 0.4315 0.05859 0.93769 0.0
C357 C 0.56467 0.93598 0.09744 0.0
C358 C 0.56039 0.06797 1.00157 0.0
H359 H 0.36165 0.01734 0.93064 0.0
H360 H 0.36611 0.94278 0.97804 0.0
H361 H 0.46991 0.84886 0.08066 0.0
H362 H 0.53706 0.85714 0.12189 0.0
H363 H 0.62827 0.98187 0.11573 0.0
H364 H 0.62615 0.05458 0.06384 0.0
H365 H 0.53845 0.13621 0.93188 0.0
H366 H 0.46693 0.13129 0.8986 0.0
H367 H 0.46653 0.10069 0.13257 0.0
H368 H 0.41201 0.98912 0.17213 0.0
H369 H 0.62039 0.97892 0.89159 0.0
H370 H 0.51427 0.92603 0.86236 0.0
C371 C 0.2197 0.23559 0.35601 0.0
C372 C 0.18709 0.25525 0.38152 0.0
C373 C 0.16836 0.28402 0.34861 0.0
C374 C 0.19049 0.28022 0.30507 0.0
N375 N 0.22152 0.24995 0.30786 0.0
Co376 Co 0.26382 0.23655 0.25477 0.0
N377 N 0.23823 0.28085 0.20712 0.0
C378 C 0.20494 0.30729 0.21561 0.0
C379 C 0.19375 0.33311 0.17513 0.0
C380 C 0.22057 0.32141 0.13814 0.0
C381 C 0.24641 0.28884 0.15835 0.0
N382 N 0.3068 0.22409 0.20189 0.0
C383 C 0.30724 0.23633 0.15311 0.0
C384 C 0.34066 0.21713 0.12837 0.0
C385 C 0.36174 0.19178 0.16259 0.0
C386 C 0.34003 0.1965 0.20616 0.0
N387 N 0.28837 0.19102 0.3019 0.0
C388 C 0.32118 0.1642 0.29275 0.0
C389 C 0.33234 0.13799 0.33295 0.0
C390 C 0.30554 0.1492 0.37021 0.0
C391 C 0.27953 0.18181 0.35048 0.0
N392 N 0.23024 0.19865 0.23191 0.0
C393 C 0.18728 0.15579 0.17659 0.0
C394 C 0.22729 0.1419 0.18681 0.0
C395 C 0.24799 0.16346 0.21482 0.0
C396 C 0.1678 0.18885 0.19887 0.0
C397 C 0.18967 0.20955 0.22658 0.0
N398 N 0.29759 0.27489 0.27742 0.0
C399 C 0.35553 0.28627 0.3191 0.0
C400 C 0.33999 0.3268 0.32216 0.0
C401 C 0.30439 0.34156 0.29937 0.0
C402 C 0.28355 0.31524 0.27816 0.0
C403 C 0.33449 0.26135 0.29585 0.0
H404 H 0.25587 0.32844 0.26342 0.0
H405 H 0.34838 0.23102 0.29431 0.0
H406 H 0.27886 0.15218 0.22023 0.0
H407 H 0.17375 0.23547 0.24126 0.0
C408 C 0.18421 0.30592 0.2617 0.0
C409 C 0.25009 0.2061 0.37993 0.0
C410 C 0.27474 0.26325 0.12907 0.0
C411 C 0.3447 0.16916 0.24859 0.0
H412 H 0.17879 0.25032 0.4203 0.0
H413 H 0.14266 0.30612 0.35593 0.0
H414 H 0.16818 0.35652 0.17244 0.0
H415 H 0.2199 0.33386 0.10008 0.0
H416 H 0.34817 0.2192 0.0895 0.0
H417 H 0.38778 0.16989 0.15588 0.0
H418 H 0.35856 0.1154 0.33562 0.0
H419 H 0.30651 0.1363 0.40805 0.0
H420 H 0.24294 0.11522 0.1721 0.0
H421 H 0.13646 0.20012 0.19275 0.0
H422 H 0.38337 0.27337 0.33556 0.0
H423 H 0.29216 0.37324 0.29827 0.0
C424 C 0.70773 0.32941 0.81977 0.0
C425 C 0.72552 0.3609 0.83494 0.0
C426 C 0.76674 0.35043 0.83086 0.0
C427 C 0.77196 0.31335 0.81328 0.0
N428 N 0.7366 0.30023 0.80527 0.0
Co429 Co 0.73112 0.24737 0.78233 0.0
N430 N 0.78867 0.24106 0.75683 0.0
C431 C 0.8186 0.25852 0.77283 0.0
C432 C 0.85638 0.24386 0.7546 0.0
C433 C 0.84954 0.21553 0.72517 0.0
C434 C 0.80766 0.21558 0.72551 0.0
N435 N 0.72608 0.19406 0.76036 0.0
C436 C 0.75257 0.17152 0.73187 0.0
C437 C 0.74642 0.13067 0.74225 0.0
C438 C 0.71195 0.12877 0.77311 0.0
C439 C 0.70065 0.16802 0.78274 0.0
N440 N 0.67346 0.25326 0.80773 0.0
C441 C 0.65049 0.22232 0.81932 0.0
C442 C 0.61228 0.23466 0.83852 0.0
C443 C 0.6115 0.27578 0.83988 0.0
C444 C 0.64956 0.28628 0.82174 0.0
N445 N 0.71596 0.27512 0.71961 0.0
C446 C 0.70734 0.30066 0.62153 0.0
C447 C 0.68096 0.27469 0.64761 0.0
C448 C 0.6857 0.26234 0.69698 0.0
C449 C 0.73479 0.31735 0.64653 0.0
C450 C 0.73866 0.3041 0.69583 0.0
N451 N 0.7467 0.21909 0.84539 0.0
C452 C 0.73716 0.21155 0.93262 0.0
C453 C 0.76524 0.17672 0.93551 0.0
C454 C 0.78484 0.16387 0.89283 0.0
C455 C 0.77483 0.18534 0.84795 0.0
C456 C 0.72859 0.23247 0.88734 0.0
H457 H 0.78975 0.17437 0.81543 0.0
H458 H 0.7071 0.25936 0.88641 0.0
H459 H 0.66714 0.24003 0.71588 0.0
H460 H 0.76225 0.31477 0.71364 0.0
C461 C 0.80925 0.29179 0.79962 0.0
C462 C 0.6638 0.3258 0.82615 0.0
C463 C 0.78674 0.18788 0.70089 0.0
C464 C 0.66558 0.18263 0.80986 0.0
H465 H 0.71025 0.38796 0.84907 0.0
H466 H 0.79006 0.36791 0.83939 0.0
H467 H 0.88539 0.25287 0.76142 0.0
H468 H 0.87289 0.19646 0.70662 0.0
H469 H 0.76565 0.10466 0.73055 0.0
H470 H 0.69757 0.10189 0.78763 0.0
H471 H 0.58803 0.21599 0.8506 0.0
H472 H 0.58648 0.29538 0.85484 0.0
H473 H 0.65936 0.26134 0.62908 0.0
H474 H 0.75577 0.33733 0.6272 0.0
H475 H 0.72231 0.22287 0.96533 0.0
H476 H 0.8073 0.13742 0.89416 0.0
C477 C 0.7768 0.6665 0.32058 0.0
C478 C 0.76286 0.63016 0.34138 0.0
C479 C 0.72188 0.6347 0.33738 0.0
C480 C 0.71314 0.67346 0.31467 0.0
N481 N 0.74614 0.69366 0.30272 0.0
Co482 Co 0.74621 0.75233 0.27468 0.0
N483 N 0.68554 0.76011 0.27215 0.0
C484 C 0.65998 0.73133 0.28493 0.0
C485 C 0.62052 0.74421 0.27473 0.0
C486 C 0.62104 0.78327 0.25281 0.0
C487 C 0.66093 0.79198 0.25106 0.0
N488 N 0.74608 0.81158 0.24933 0.0
C489 C 0.71544 0.83917 0.23232 0.0
C490 C 0.72878 0.87682 0.21665 0.0
C491 C 0.76951 0.8726 0.22284 0.0
C492 C 0.77868 0.83281 0.24209 0.0
N493 N 0.80702 0.744 0.27445 0.0
C494 C 0.83279 0.77175 0.25716 0.0
C495 C 0.87282 0.75773 0.2631 0.0
C496 C 0.87252 0.71895 0.28619 0.0
C497 C 0.83216 0.71157 0.29325 0.0
N498 N 0.74995 0.7381 0.20669 0.0
C499 C 0.74454 0.72644 0.10815 0.0
C500 C 0.76496 0.75759 0.1205 0.0
C501 C 0.7681 0.76221 0.16934 0.0
C502 C 0.72928 0.6995 0.14643 0.0
C503 C 0.7318 0.70613 0.19499 0.0
N504 N 0.74248 0.76664 0.34267 0.0
C505 C 0.77408 0.79009 0.40795 0.0
C506 C 0.74303 0.77825 0.44203 0.0
C507 C 0.71103 0.76149 0.42504 0.0
C508 C 0.71139 0.75589 0.3757 0.0
C509 C 0.77276 0.7849 0.35891 0.0
H510 H 0.68657 0.74213 0.36533 0.0
H511 H 0.79729 0.79502 0.3351 0.0
H512 H 0.7845 0.78632 0.17579 0.0
H513 H 0.71824 0.68539 0.22235 0.0
C514 C 0.6743 0.69211 0.30488 0.0
C515 C 0.81902 0.6745 0.32094 0.0
C516 C 0.67428 0.83014 0.2267 0.0
C517 C 0.81802 0.81256 0.2444 0.0
H518 H 0.78038 0.60348 0.35871 0.0
H519 H 0.70081 0.61275 0.35062 0.0
H520 H 0.59469 0.72684 0.28108 0.0
H521 H 0.59523 0.80279 0.23851 0.0
H522 H 0.71124 0.90391 0.20031 0.0
H523 H 0.7904 0.89509 0.21149 0.0
H524 H 0.8989 0.77457 0.25453 0.0
H525 H 0.8988 0.69896 0.29837 0.0
H526 H 0.77775 0.77924 0.09264 0.0
H527 H 0.71512 0.67349 0.13927 0.0
H528 H 0.80018 0.80223 0.41903 0.0
H529 H 0.68594 0.75223 0.4498 0.0
C530 C 0.78987 0.3257 0.19526 0.0
C531 C 0.77093 0.36016 0.1692 0.0
C532 C 0.73003 0.35809 0.17659 0.0
C533 C 0.72586 0.32276 0.20702 0.0
N534 N 0.76164 0.30187 0.21952 0.0
Co535 Co 0.76718 0.2497 0.26593 0.0
N536 N 0.70657 0.24552 0.27468 0.0
C537 C 0.67804 0.27243 0.25259 0.0
C538 C 0.63914 0.26297 0.26438 0.0
C539 C 0.64284 0.22778 0.29584 0.0
C540 C 0.68397 0.21741 0.3017 0.0
N541 N 0.77254 0.19827 0.3136 0.0
C542 C 0.74421 0.17496 0.33866 0.0
C543 C 0.7629 0.14257 0.36838 0.0
C544 C 0.80373 0.14554 0.36261 0.0
C545 C 0.80809 0.17938 0.32957 0.0
N546 N 0.8278 0.25308 0.25575 0.0
C547 C 0.85636 0.22523 0.2763 0.0
C548 C 0.89536 0.23316 0.26198 0.0
C549 C 0.8917 0.26819 0.23023 0.0
C550 C 0.85048 0.28029 0.22721 0.0
N551 N 0.76332 0.28198 0.32164 0.0
C552 C 0.74827 0.30626 0.41462 0.0
C553 C 0.78658 0.28818 0.40002 0.0
C554 C 0.79345 0.27634 0.35348 0.0
C555 C 0.71995 0.31815 0.37979 0.0
C556 C 0.72848 0.30636 0.33314 0.0
N557 N 0.77091 0.21698 0.21082 0.0
C558 C 0.80273 0.16131 0.16792 0.0
C559 C 0.77599 0.17226 0.13118 0.0
C560 C 0.7466 0.20547 0.13493 0.0
C561 C 0.74479 0.22738 0.17451 0.0
C562 C 0.79919 0.18364 0.20778 0.0
H563 H 0.72247 0.25301 0.17448 0.0
H564 H 0.81992 0.17362 0.23526 0.0
H565 H 0.82244 0.26043 0.34549 0.0
H566 H 0.70545 0.31523 0.30822 0.0
C567 C 0.68889 0.30745 0.22296 0.0
C568 C 0.83478 0.31785 0.19636 0.0
C569 C 0.69946 0.18137 0.33501 0.0
C570 C 0.84521 0.19299 0.31067 0.0
H571 H 0.78516 0.38453 0.14727 0.0
H572 H 0.70609 0.37979 0.1614 0.0
H573 H 0.61127 0.28005 0.25221 0.0
H574 H 0.61792 0.21194 0.31322 0.0
H575 H 0.74854 0.11891 0.39154 0.0
H576 H 0.82753 0.125 0.37992 0.0
H577 H 0.92324 0.21563 0.27345 0.0
H578 H 0.91669 0.28314 0.21143 0.0
H579 H 0.80989 0.27999 0.42579 0.0
H580 H 0.69031 0.33347 0.38949 0.0
H581 H 0.8263 0.13604 0.16566 0.0
H582 H 0.72601 0.21556 0.1063 0.0
C583 C 0.69657 0.75972 0.87665 0.0
C584 C 0.66642 0.78306 0.9018 0.0
C585 C 0.64958 0.81254 0.8683 0.0
C586 C 0.67053 0.80597 0.82482 0.0
N587 N 0.69924 0.77348 0.82825 0.0
Co588 Co 0.741 0.75714 0.77565 0.0
N589 N 0.71948 0.80363 0.72765 0.0
C590 C 0.68833 0.83254 0.73592 0.0
C591 C 0.67771 0.8578 0.69488 0.0
C592 C 0.70249 0.84335 0.65776 0.0
C593 C 0.72739 0.81029 0.67856 0.0
N594 N 0.78315 0.74122 0.72343 0.0
C595 C 0.78577 0.75477 0.6751 0.0
C596 C 0.81863 0.73447 0.65072 0.0
C597 C 0.83666 0.70607 0.68464 0.0
C598 C 0.81396 0.71079 0.72764 0.0
N599 N 0.76203 0.71004 0.82291 0.0
C600 C 0.79279 0.68079 0.81427 0.0
C601 C 0.80077 0.65293 0.8542 0.0
C602 C 0.77414 0.66568 0.89082 0.0
C603 C 0.75162 0.70087 0.87106 0.0
N604 N 0.70378 0.7229 0.75226 0.0
C605 C 0.65518 0.6806 0.70317 0.0
C606 C 0.69429 0.66387 0.71415 0.0
C607 C 0.71794 0.6854 0.73862 0.0
C608 C 0.63974 0.71752 0.7197 0.0
C609 C 0.66421 0.73771 0.74485 0.0
N610 N 0.77819 0.79159 0.79931 0.0
C611 C 0.8396 0.79676 0.83811 0.0
C612 C 0.82464 0.83555 0.84972 0.0
C613 C 0.78734 0.85297 0.83305 0.0
C614 C 0.76499 0.83081 0.80772 0.0
C615 C 0.81621 0.77564 0.81257 0.0
H616 H 0.73664 0.84576 0.79665 0.0
H617 H 0.82901 0.746 0.80541 0.0
H618 H 0.74808 0.67183 0.74438 0.0
H619 H 0.65095 0.76589 0.75643 0.0
C620 C 0.66679 0.83221 0.78144 0.0
C621 C 0.7239 0.72675 0.90058 0.0
C622 C 0.75586 0.78406 0.65016 0.0
C623 C 0.81655 0.68311 0.77006 0.0
H624 H 0.65842 0.78045 0.94061 0.0
H625 H 0.6264 0.83721 0.87534 0.0
H626 H 0.65339 0.88239 0.69189 0.0
H627 H 0.70098 0.8549 0.61957 0.0
H628 H 0.82736 0.73849 0.612 0.0
H629 H 0.86165 0.68299 0.67807 0.0
H630 H 0.82448 0.62761 0.85699 0.0
H631 H 0.77272 0.65185 0.92842 0.0
H632 H 0.70728 0.63521 0.70186 0.0
H633 H 0.60924 0.7311 0.71239 0.0
H634 H 0.86852 0.78209 0.85017 0.0
H635 H 0.77509 0.88343 0.8402 0.0
C636 C 0.45005 0.52807 0.58284 0.0
C637 C 0.41468 0.54913 0.60107 0.0
C638 C 0.3996 0.57494 0.56284 0.0
C639 C 0.42616 0.56782 0.52351 0.0
N640 N 0.45686 0.53836 0.53419 0.0
Co641 Co 0.50328 0.51926 0.48898 0.0
N642 N 0.48509 0.5618 0.43459 0.0
C643 C 0.45362 0.5915 0.43692 0.0
C644 C 0.44648 0.61387 0.39277 0.0
C645 C 0.47432 0.59685 0.3601 0.0
C646 C 0.49716 0.56501 0.38635 0.0
N647 N 0.54914 0.49947 0.44333 0.0
C648 C 0.55537 0.50932 0.3945 0.0
C649 C 0.58965 0.48695 0.37559 0.0
C650 C 0.60466 0.46074 0.41357 0.0
C651 C 0.57888 0.46879 0.45329 0.0
N652 N 0.52216 0.47747 0.54383 0.0
C653 C 0.55487 0.44909 0.5422 0.0
C654 C 0.56317 0.42811 0.58676 0.0
C655 C 0.53484 0.4448 0.61909 0.0
C656 C 0.51045 0.47489 0.59218 0.0
N657 N 0.4696 0.48094 0.4667 0.0
C658 C 0.42457 0.42842 0.42684 0.0
C659 C 0.46106 0.41376 0.44792 0.0
C660 C 0.48305 0.44038 0.46719 0.0
C661 C 0.41075 0.46965 0.4269 0.0
C662 C 0.43303 0.49487 0.44778 0.0
N663 N 0.53676 0.55746 0.51175 0.0
C664 C 0.59568 0.56616 0.55289 0.0
C665 C 0.57658 0.60251 0.56778 0.0
C666 C 0.5393 0.61832 0.54973 0.0
C667 C 0.52001 0.59539 0.52178 0.0
C668 C 0.57559 0.54457 0.52433 0.0
H669 H 0.49075 0.60804 0.51086 0.0
H670 H 0.59133 0.51666 0.51488 0.0
H671 H 0.51112 0.42755 0.48152 0.0
H672 H 0.42038 0.52576 0.44704 0.0
C673 C 0.42667 0.59228 0.4785 0.0
C674 C 0.47876 0.50267 0.61402 0.0
C675 C 0.52706 0.5359 0.3639 0.0
C676 C 0.57997 0.44626 0.49943 0.0
H677 H 0.40258 0.5478 0.6387 0.0
H678 H 0.37403 0.59808 0.5644 0.0
H679 H 0.42191 0.6376 0.38462 0.0
H680 H 0.47585 0.60568 0.32113 0.0
H681 H 0.6012 0.48806 0.33777 0.0
H682 H 0.63012 0.43731 0.41195 0.0
H683 H 0.58834 0.40515 0.59517 0.0
H684 H 0.53379 0.43675 0.6582 0.0
H685 H 0.47293 0.38195 0.44904 0.0
H686 H 0.38333 0.48292 0.40978 0.0
H687 H 0.62547 0.55381 0.56452 0.0
H688 H 0.52401 0.64702 0.55955 0.0
C689 C 0.94363 0.47625 0.08618 0.0
C690 C 0.91432 0.49419 0.11774 0.0
C691 C 0.92031 0.53434 0.11457 0.0
C692 C 0.95271 0.53906 0.08111 0.0
N693 N 0.9676 0.50454 0.06212 0.0
Co694 Co 0.01697 0.49964 0.01462 0.0
N695 N 0.02364 0.55981 1.00688 0.0
C696 C 0.99905 0.58783 0.02975 0.0
C697 C 0.00849 0.62687 0.01679 0.0
C698 C 0.04109 0.62378 0.98341 0.0
C699 C 0.05026 0.5828 0.9781 0.0
N700 N 0.06749 0.49443 0.96903 0.0
C701 C 0.09129 0.52272 0.94465 0.0
C702 C 0.12407 0.50391 0.91861 0.0
C703 C 0.12092 0.46298 0.9263 0.0
C704 C 0.08662 0.45873 0.95683 0.0
N705 N 0.00857 0.43995 0.01962 0.0
C706 C 0.03325 0.41191 0.99683 0.0
C707 C 0.02172 0.37339 1.00666 0.0
C708 C 0.98761 0.37686 0.03774 0.0
C709 C 0.98 0.41746 0.04547 0.0
N710 N 0.98279 0.5107 0.95872 0.0
C711 C 0.94775 0.53766 0.87075 0.0
C712 C 0.97531 0.50264 0.87517 0.0
C713 C 0.99236 0.48968 0.91934 0.0
C714 C 0.93454 0.55663 0.91204 0.0
C715 C 0.95204 0.54214 0.95605 0.0
N716 N 0.05126 0.48877 0.07136 0.0
C717 C 0.07548 0.43986 0.13761 0.0
C718 C 0.07271 0.47068 0.16746 0.0
C719 C 0.06623 0.51099 0.14657 0.0
C720 C 0.05612 0.51939 0.09833 0.0
C721 C 0.06556 0.44972 0.08922 0.0
H722 H 0.05002 0.55085 0.0852 0.0
H723 H 0.06738 0.4248 0.06833 0.0
H724 H 0.01486 0.46402 0.92006 0.0
H725 H 0.94183 0.55795 0.98676 0.0
C726 C 0.96837 0.57592 0.0645 0.0
C727 C 0.94698 0.43219 0.08055 0.0
C728 C 0.08495 0.56751 0.94563 0.0
C729 C 0.06917 0.42235 0.97053 0.0
H730 H 0.8909 0.47979 0.14072 0.0
H731 H 0.90278 0.55749 0.13402 0.0
H732 H 0.99352 0.65437 0.03016 0.0
H733 H 0.05651 0.64893 0.96523 0.0
H734 H 0.1478 0.51831 0.8962 0.0
H735 H 0.14083 0.43919 0.91055 0.0
H736 H 0.03714 0.34574 0.99413 0.0
H737 H 0.97107 0.35195 0.05421 0.0
H738 H 0.98566 0.48691 0.84372 0.0
H739 H 0.91265 0.58354 0.90977 0.0
H740 H 0.08179 0.40822 0.15247 0.0
H741 H 0.06525 0.53574 0.16863 0.0
C742 C 0.46696 0.60248 1.01059 0.0
C743 C 0.47978 0.64073 1.00886 0.0
C744 C 0.51911 0.63772 0.98976 0.0
C745 C 0.52801 0.59794 0.98091 0.0
N746 N 0.49639 0.5756 0.99206 0.0
Co747 Co 0.49736 0.51549 0.99062 0.0
N748 N 0.55663 0.50973 0.96807 0.0
C749 C 0.58145 0.5396 0.96014 0.0
C750 C 0.61946 0.52726 0.9405 0.0
C751 C 0.61854 0.48742 0.93416 0.0
C752 C 0.57986 0.4778 0.95033 0.0
N753 N 0.49846 0.45528 0.98997 0.0
C754 C 0.5276 0.42831 0.97115 0.0
C755 C 0.51519 0.38967 0.97526 0.0
C756 C 0.47655 0.3925 0.99646 0.0
C757 C 0.46753 0.43255 1.004 0.0
N758 N 0.43785 0.52128 0.01193 0.0
C759 C 0.41309 0.49137 0.01936 0.0
C760 C 0.3743 0.50406 0.03621 0.0
C761 C 0.3745 0.54427 0.04095 0.0
C762 C 0.41359 0.55378 0.02668 0.0
N763 N 0.48423 0.52411 0.92114 0.0
C764 C 0.47669 0.52419 0.82035 0.0
C765 C 0.45111 0.50364 0.85524 0.0
C766 C 0.45562 0.50365 0.90496 0.0
C767 C 0.50451 0.5466 0.83712 0.0
C768 C 0.50673 0.54723 0.88712 0.0
N769 N 0.51068 0.50708 0.06031 0.0
C770 C 0.48927 0.48994 0.14543 0.0
C771 C 0.52028 0.50946 0.16031 0.0
C772 C 0.54784 0.52546 0.12425 0.0
C773 C 0.5425 0.52404 0.07504 0.0
C774 C 0.48572 0.48822 0.09578 0.0
H775 H 0.56394 0.53797 0.04974 0.0
H776 H 0.46164 0.47266 0.08702 0.0
H777 H 0.43651 0.48586 0.92956 0.0
H778 H 0.52809 0.56538 0.89737 0.0
C779 C 0.56663 0.57983 0.96666 0.0
C780 C 0.42738 0.59261 0.03272 0.0
C781 C 0.56576 0.43881 0.94536 0.0
C782 C 0.42862 0.45082 0.01636 0.0
H783 H 0.46282 0.6676 0.02166 0.0
H784 H 0.53937 0.66124 0.985 0.0
H785 H 0.6442 0.54558 0.92974 0.0
H786 H 0.643 0.46805 0.91775 0.0
H787 H 0.53155 0.36266 0.96218 0.0
H788 H 0.45649 0.3688 1.0026 0.0
H789 H 0.34951 0.48572 0.04651 0.0
H790 H 0.34929 0.56382 0.05555 0.0
H791 H 0.42831 0.48662 0.84438 0.0
H792 H 0.5258 0.56242 0.8122 0.0
H793 H 0.46676 0.47728 0.17163 0.0
H794 H 0.57307 0.53993 0.13382 0.0
C795 C 0.9158 0.52373 0.46748 0.0
C796 C 0.87831 0.51144 0.46138 0.0
C797 C 0.87645 0.47465 0.48907 0.0
C798 C 0.91263 0.46662 0.5107 0.0
N799 N 0.93771 0.49589 0.49825 0.0
Co800 Co 0.99217 0.49703 0.52415 0.0
N801 N 0.99095 0.44113 0.56145 0.0
C802 C 0.96103 0.4168 0.56272 0.0
C803 C 0.96885 0.3797 0.5899 0.0
C804 C 0.00628 0.38007 0.60659 0.0
C805 C 0.01919 0.41756 0.58861 0.0
N806 N 0.04567 0.49902 0.55202 0.0
C807 C 0.06804 0.47087 0.58193 0.0
C808 C 0.10309 0.48552 0.59304 0.0
C809 C 0.10275 0.5242 0.56972 0.0
C810 C 0.06773 0.53103 0.54563 0.0
N811 N 0.99474 0.55166 0.48421 0.0
C812 C 0.02547 0.57518 0.48143 0.0
C813 C 0.01984 0.6103 0.44989 0.0
C814 C 0.98329 0.60919 0.43128 0.0
C815 C 0.96848 0.57348 0.453 0.0
N816 N 0.96446 0.52308 0.5804 0.0
C817 C 0.93671 0.55449 0.66806 0.0
C818 C 0.95563 0.57857 0.62997 0.0
C819 C 0.96969 0.5622 0.58701 0.0
C820 C 0.92732 0.51652 0.65911 0.0
C821 C 0.94075 0.50185 0.61506 0.0
N822 N 0.01966 0.47148 0.46819 0.0
C823 C 0.06924 0.47413 0.39963 0.0
C824 C 0.04809 0.44909 0.37683 0.0
C825 C 0.01592 0.43108 0.40303 0.0
C826 C 1.00226 0.44264 0.44861 0.0
C827 C 0.05472 0.48464 0.44551 0.0
H828 H 0.97617 0.42974 0.46601 0.0
H829 H 0.07086 0.50533 0.46058 0.0
H830 H 0.98593 0.5815 0.56074 0.0
H831 H 0.93287 0.47254 0.61107 0.0
C832 C 0.92512 0.43068 0.53998 0.0
C833 C 0.9288 0.56238 0.44383 0.0
C834 C 0.05805 0.42962 0.5995 0.0
C835 C 0.05739 0.56495 0.51205 0.0
H836 H 0.85471 0.52741 0.4392 0.0
H837 H 0.85182 0.45576 0.49256 0.0
H838 H 0.94948 0.35544 0.5971 0.0
H839 H 0.02211 0.35563 0.6298 0.0
H840 H 0.12689 0.46964 0.61498 0.0
H841 H 0.12602 0.5444 0.56897 0.0
H842 H 0.03954 0.63426 0.44213 0.0
H843 H 0.96884 0.63238 0.40528 0.0
H844 H 0.96183 0.60902 0.63433 0.0
H845 H 0.9121 0.4968 0.68713 0.0
H846 H 0.0947 0.48826 0.38057 0.0
H847 H 0.99939 0.41074 0.38674 0.0
C848 C 0.96158 0.01343 0.23033 0.0
C849 C 0.99744 0.01219 0.19776 0.0
C850 C 0.96133 0.01484 0.28275 0.0
C851 C 0.99698 0.01444 0.30875 0.0
H852 H 0.93267 0.01305 0.2152 0.0
H853 H 0.93212 0.01661 0.3032 0.0
S854 S 0.10018 0.01199 0.24344 0.0
N855 N 0.07034 0.01251 0.19852 0.0
N856 N 0.07019 0.01215 0.29409 0.0
C857 C 0.03309 0.01308 0.27663 0.0
C858 C 0.03326 0.01252 0.22305 0.0
C859 C 0.31459 0.64895 0.49523 0.0
C860 C 0.31556 0.68369 0.46067 0.0
C861 C 0.30392 0.65274 0.5447 0.0
C862 C 0.29356 0.69127 0.56052 0.0
H863 H 0.32132 0.61884 0.48379 0.0
H864 H 0.3027 0.6255 0.5705 0.0
S865 S 0.2899 0.79133 0.48405 0.0
N866 N 0.30385 0.75763 0.44547 0.0
N867 N 0.28511 0.76461 0.53828 0.0
C868 C 0.29476 0.72611 0.52634 0.0
C869 C 0.30548 0.72235 0.47639 0.0
C870 C 0.59914 0.9865 0.7923 0.0
C871 C 0.5853 0.95093 0.81803 0.0
C872 C 0.60154 0.99264 0.74133 0.0
C873 C 0.58993 0.96361 0.71427 0.0
H874 H 0.60454 0.01153 0.81139 0.0
H875 H 0.60925 0.02176 0.72311 0.0
S876 S 0.56074 0.86154 0.76367 0.0
N877 N 0.56787 0.88293 0.8124 0.0
N878 N 0.57019 0.89542 0.71635 0.0
C879 C 0.58056 0.92604 0.73919 0.0
C880 C 0.57873 0.9195 0.7912 0.0
C881 C 0.28871 0.27217 0.99001 0.0
C882 C 0.25153 0.262 0.97661 0.0
C883 C 0.29603 0.27281 0.03909 0.0
C884 C 0.26712 0.26182 0.0769 0.0
H885 H 0.31269 0.27931 0.96244 0.0
H886 H 0.32451 0.28213 0.04744 0.0
S887 S 0.16329 0.23727 0.06212 0.0
N888 N 0.18367 0.2453 1.00579 0.0
N889 N 0.19897 0.24299 0.09788 0.0
C890 C 0.22963 0.25224 0.0642 0.0
C891 C 0.22155 0.25296 0.01422 0.0
C892 C 0.97199 0.01375 0.72912 0.0
C893 C 0.008 0.0091 0.69711 0.0
C894 C 0.97176 0.01402 0.78175 0.0
C895 C 0.00753 0.01037 0.80831 0.0
H896 H 0.9429 0.01752 0.71325 0.0
H897 H 0.94252 0.01697 0.80205 0.0
S898 S 0.11126 0.99737 0.74492 0.0
N899 N 0.08136 0.99874 0.69987 0.0
N900 N 0.08099 0.00322 0.79449 0.0
C901 C 0.04379 0.00618 0.77669 0.0
C902 C 0.04401 0.00471 0.72328 0.0
C903 C 0.72025 0.34092 0.48745 0.0
C904 C 0.73583 0.30532 0.46693 0.0
C905 C 0.70966 0.33945 0.53777 0.0
C906 C 0.71343 0.30221 0.56821 0.0
H907 H 0.71725 0.36999 0.46476 0.0
H908 H 0.69904 0.36747 0.55307 0.0
S909 S 0.75139 0.20066 0.53141 0.0
N910 N 0.75317 0.23196 0.48024 0.0
N911 N 0.73348 0.22925 0.57447 0.0
C912 C 0.72797 0.26645 0.54771 0.0
C913 C 0.73906 0.26798 0.49704 0.0
C914 C 0.47047 0.06063 0.23126 0.0
C915 C 0.43492 0.05333 0.21113 0.0
C916 C 0.47347 0.05574 0.2816 0.0
C917 C 0.44105 0.04355 0.31356 0.0
H918 H 0.49747 0.06676 0.2081 0.0
H919 H 0.50231 0.05883 0.29557 0.0
S920 S 0.33896 0.0284 0.28027 0.0
N921 N 0.36455 0.03941 0.22737 0.0
N922 N 0.3707 0.02954 0.32284 0.0
C923 C 0.40412 0.03982 0.29454 0.0
C924 C 0.40094 0.04489 0.243 0.0
C925 C 0.77047 0.73233 0.01977 0.0
C926 C 0.73922 0.72301 0.05571 0.0
C927 C 0.76522 0.73315 0.96996 0.0
C928 C 0.72884 0.72388 0.95395 0.0
H929 H 0.79928 0.73947 0.03003 0.0
H930 H 0.78969 0.74153 0.94363 0.0
S931 S 0.63854 0.69449 0.03177 0.0
N932 N 0.67041 0.70358 0.0707 0.0
N933 N 0.66231 0.70188 0.97714 0.0
C934 C 0.69809 0.71252 0.98905 0.0
C935 C 0.70286 0.71279 0.03986 0.0
C936 C 0.47034 0.47701 0.7033 0.0
C937 C 0.47813 0.50872 0.66648 0.0
C938 C 0.46996 0.48236 0.75272 0.0
C939 C 0.47589 0.52013 0.76734 0.0
H940 H 0.46483 0.44771 0.69383 0.0
H941 H 0.46555 0.45636 0.7796 0.0
S942 S 0.49271 0.61427 0.68396 0.0
N943 N 0.49024 0.57952 0.64722 0.0
N944 N 0.48621 0.59089 0.73989 0.0
C945 C 0.48203 0.55263 0.73049 0.0
C946 C 0.4837 0.54668 0.6802 0.0
C947 C 0.81158 0.16347 1.00239 0.0
C948 C 0.77524 0.15655 0.98399 0.0
C949 C 0.81442 0.16203 0.05278 0.0
C950 C 0.78095 0.15366 0.08543 0.0
H951 H 0.83581 0.175 0.97785 0.0
H952 H 0.84068 0.17271 0.06559 0.0
S953 S 0.68375 0.12273 0.05525 0.0
N954 N 0.70884 0.1328 1.00185 0.0
N955 N 0.71424 0.12988 0.09678 0.0
C956 C 0.7472 0.14038 0.06764 0.0
C957 C 0.74428 0.14196 0.01657 0.0
C958 C 0.09851 0.44437 0.2494 0.0
C959 C 0.06649 0.46128 0.22055 0.0
C960 C 0.0923 0.43879 0.30052 0.0
C961 C 0.05376 0.4492 0.32353 0.0
H962 H 0.12857 0.43675 0.23251 0.0
H963 H 0.11778 0.42713 0.32217 0.0
S964 S 0.96026 0.49344 0.26299 0.0
N965 N 0.99513 0.48713 0.21777 0.0
N966 N 0.98337 0.47682 0.31344 0.0
C967 C 0.0214 0.46488 0.29459 0.0
C968 C 0.0278 0.47083 0.24308 0.0
C969 C 0.73806 0.75048 0.58025 0.0
C970 C 0.75203 0.78401 0.59696 0.0
C971 C 0.73472 0.74918 0.53029 0.0
C972 C 0.74502 0.7815 0.49511 0.0
H973 H 0.7299 0.72496 0.60606 0.0
H974 H 0.72474 0.72222 0.51915 0.0
S975 S 0.78234 0.87675 0.5211 0.0
N976 N 0.77681 0.8499 0.57519 0.0
N977 N 0.76829 0.84893 0.48157 0.0
C978 C 0.75856 0.81551 0.51177 0.0
C979 C 0.76263 0.81638 0.56258 0.0
C980 C 0.53199 0.55253 0.2249 0.0
C981 C 0.52291 0.51499 0.21256 0.0
C982 C 0.53368 0.55907 0.27369 0.0
C983 C 0.52518 0.52881 0.3121 0.0
H984 H 0.53744 0.57732 0.19666 0.0
H985 H 0.5416 0.58806 0.28142 0.0
S986 S 0.50348 0.42424 0.30016 0.0
N987 N 0.50908 0.44594 0.24334 0.0
N988 N 0.50939 0.4594 0.33503 0.0
C989 C 0.51666 0.49104 0.30051 0.0
C990 C 0.51599 0.48393 0.25084 0.0
C991 C 0.21357 0.77957 0.04365 0.0
C992 C 0.21403 0.816 0.06416 0.0
C993 C 0.2206 0.77834 0.99365 0.0
C994 C 0.22835 0.81342 0.96221 0.0
H995 H 0.21076 0.75101 0.06661 0.0
H996 H 0.22201 0.74922 0.97969 0.0
S997 S 0.22657 0.91752 0.996 0.0
N998 N 0.21797 0.88901 0.04844 0.0
N999 N 0.23154 0.88643 0.95341 0.0
C1000 C 0.22577 0.8507 0.98126 0.0
C1001 C 0.21865 0.85201 0.0326 0.0
C1002 C 0.90276 0.54949 0.80173 0.0
C1003 C 0.93838 0.55641 0.82153 0.0
C1004 C 0.90018 0.55397 0.751 0.0
C1005 C 0.93349 0.56467 0.71895 0.0
H1006 H 0.87835 0.53719 0.82524 0.0
H1007 H 0.8734 0.54554 0.7368 0.0
S1008 S 0.03102 0.59208 0.7549 0.0
N1009 N 0.00484 0.58022 0.80698 0.0
N1010 N 1.00122 0.58704 0.71178 0.0
C1011 C 0.96751 0.57589 0.73899 0.0
C1012 C 0.96968 0.57198 0.79042 0.0
C1013 C 0.24439 0.17402 0.46731 0.0
C1014 C 0.25518 0.20633 0.43282 0.0
C1015 C 0.24696 0.17533 0.5175 0.0
C1016 C 0.26012 0.20918 0.53497 0.0
H1017 H 0.23343 0.14784 0.45541 0.0
H1018 H 0.23835 0.14972 0.5428 0.0
S1019 S 0.29129 0.30161 0.45853 0.0
N1020 N 0.27988 0.27259 0.41879 0.0
N1021 N 0.2833 0.27606 0.51289 0.0
C1022 C 0.27114 0.24154 0.5004 0.0
C1023 C 0.2689 0.23991 0.44944 0.0
C1024 C 0.10502 0.11268 0.11919 0.0
C1025 C 0.12288 0.10644 0.07253 0.0
C1026 C 0.12636 0.12784 0.15299 0.0
C1027 C 0.16634 0.13729 0.14131 0.0
H1028 H 0.07438 0.10537 0.12981 0.0
H1029 H 0.11148 0.13212 0.18857 0.0
S1030 S 0.22589 0.12821 0.02287 0.0
N1031 N 0.1822 0.11149 0.01572 0.0
N1032 N 0.22252 0.14061 0.07906 0.0
C1033 C 0.1846 0.1311 0.09467 0.0
C1034 C 0.16279 0.11553 0.06028 0.0
C1035 C 0.14487 0.89308 0.38063 0.0
C1036 C 0.13422 0.88245 0.43059 0.0
C1037 C 0.17061 0.86637 0.35346 0.0
C1038 C 0.18697 0.82811 0.37523 0.0
H1039 H 0.13268 0.92211 0.36216 0.0
H1040 H 0.17769 0.87562 0.31503 0.0
S1041 S 0.17089 0.78647 0.50522 0.0
N1042 N 0.14334 0.83136 0.501 0.0
N1043 N 0.19223 0.78146 0.44994 0.0
C1044 C 0.17722 0.81728 0.42522 0.0
C1045 C 0.15066 0.84432 0.45286 0.0
C1046 C 0.38329 0.87379 0.68807 0.0
C1047 C 0.35886 0.85075 0.66513 0.0
C1048 C 0.40997 0.90058 0.66108 0.0
C1049 C 0.41426 0.90596 0.6093 0.0
H1050 H 0.38174 0.87116 0.72755 0.0
H1051 H 0.42773 0.91711 0.68113 0.0
S1052 S 0.35782 0.85324 0.5306 0.0
N1053 N 0.34159 0.83572 0.58649 0.0
N1054 N 0.39068 0.88538 0.53667 0.0
C1055 C 0.38999 0.88314 0.58602 0.0
C1056 C 0.36279 0.85599 0.61345 0.0
C1057 C 0.37167 0.10127 0.8268 0.0
C1058 C 0.34787 0.13563 0.84251 0.0
C1059 C 0.39852 0.07644 0.85778 0.0
C1060 C 0.40252 0.0852 0.90544 0.0
H1061 H 0.36968 0.09377 0.79022 0.0
H1062 H 0.41647 0.05032 0.84435 0.0
S1063 S 0.34647 0.17124 0.96407 0.0
N1064 N 0.3297 0.17688 0.90878 0.0
N1065 N 0.38004 0.13029 0.96693 0.0
C1066 C 0.37877 0.11937 0.92153 0.0
C1067 C 0.35149 0.14458 0.89006 0.0
C1068 C 0.8464 0.89527 0.95065 0.0
C1069 C 0.88789 0.89953 0.94116 0.0
C1070 C 0.82625 0.87431 0.92096 0.0
C1071 C 0.84688 0.85728 0.88056 0.0
H1072 H 0.82949 0.90811 0.98126 0.0
H1073 H 0.79433 0.87122 0.92982 0.0
S1074 S 0.95488 0.86362 0.83785 0.0
N1075 N 0.94848 0.88717 0.88732 0.0
N1076 N 0.91052 0.84813 0.8312 0.0
C1077 C 0.88828 0.86185 0.87041 0.0
C1078 C 0.90879 0.88296 0.90076 0.0
C1079 C 0.83603 0.19147 0.62509 0.0
C1080 C 0.80428 0.1727 0.65264 0.0
C1081 C 0.8605 0.17238 0.58896 0.0
C1082 C 0.85446 0.13346 0.57767 0.0
H1083 H 0.84306 0.22097 0.6319 0.0
H1084 H 0.88503 0.18833 0.57076 0.0
S1085 S 0.75794 0.08736 0.61199 0.0
N1086 N 0.75463 0.12622 0.64389 0.0
N1087 N 0.8031 0.08633 0.58245 0.0
C1088 C 0.81744 0.11893 0.59708 0.0
C1089 C 0.79156 0.1397 0.63256 0.0
C1090 C 0.64688 0.1286 0.34137 0.0
C1091 C 0.67036 0.15239 0.3646 0.0
C1092 C 0.61977 0.10205 0.36798 0.0
C1093 C 0.61405 0.09759 0.41969 0.0
H1094 H 0.64954 0.13045 0.30193 0.0
H1095 H 0.60282 0.08494 0.34765 0.0
S1096 S 0.66732 0.15268 0.49915 0.0
N1097 N 0.68492 0.1693 0.4435 0.0
N1098 N 0.63523 0.11991 0.49262 0.0
C1099 C 0.63732 0.12118 0.44328 0.0
C1100 C 0.66491 0.14816 0.41624 0.0
C1101 C 0.64768 0.85396 0.14418 0.0
C1102 C 0.64686 0.85838 0.19412 0.0
C1103 C 0.62124 0.87928 0.1131 0.0
C1104 C 0.59309 0.90988 0.13093 0.0
H1105 H 0.66873 0.83056 0.12918 0.0
H1106 H 0.62264 0.87481 0.07491 0.0
S1107 S 0.57888 0.93371 0.25873 0.0
N1108 N 0.61568 0.89558 0.2599 0.0
N1109 N 0.56608 0.9431 0.2016 0.0
C1110 C 0.59217 0.91468 0.1807 0.0
C1111 C 0.61902 0.88892 0.21229 0.0
C1112 C 0.60161 0.66372 0.59347 0.0
C1113 C 0.59463 0.62266 0.60381 0.0
C1114 C 0.62016 0.68266 0.62668 0.0
C1115 C 0.63208 0.66113 0.67124 0.0
H1116 H 0.59363 0.68093 0.55902 0.0
H1117 H 0.62633 0.71397 0.61685 0.0
S1118 S 0.61523 0.55485 0.71824 0.0
N1119 N 0.59733 0.56227 0.66352 0.0
N1120 N 0.63243 0.59794 0.72586 0.0
C1121 C 0.62381 0.62059 0.68279 0.0
C1122 C 0.60497 0.60133 0.64906 0.0
C1123 C 0.61357 0.37545 0.93568 0.0
C1124 C 0.59017 0.41007 0.91417 0.0
C1125 C 0.6369 0.34826 0.90685 0.0
C1126 C 0.63771 0.35482 0.85553 0.0
H1127 H 0.61387 0.36946 0.97505 0.0
H1128 H 0.65468 0.32197 0.92473 0.0
S1129 S 0.58186 0.44105 0.78161 0.0
N1130 N 0.56919 0.44954 0.83871 0.0
N1131 N 0.61324 0.39848 0.78449 0.0
C1132 C 0.61453 0.38934 0.83361 0.0
C1133 C 0.59074 0.41701 0.86297 0.0
C1134 C 0.8649 0.35564 0.11557 0.0
C1135 C 0.86365 0.34736 0.16724 0.0
C1136 C 0.89141 0.38245 0.08829 0.0
C1137 C 0.91848 0.40295 0.11075 0.0
H1138 H 0.8452 0.34101 0.09579 0.0
H1139 H 0.89056 0.3873 0.04894 0.0
S1140 S 0.92831 0.3923 0.24477 0.0
N1141 N 0.89267 0.36297 0.23927 0.0
N1142 N 0.94223 0.41175 0.18879 0.0
C1143 C 0.91764 0.39481 0.1623 0.0
C1144 C 0.89058 0.36766 0.19007 0.0
C1145 C 0.89378 0.58343 0.36548 0.0
C1146 C 0.90083 0.59143 0.4126 0.0
C1147 C 0.86759 0.61049 0.33576 0.0
C1148 C 0.84765 0.64645 0.35217 0.0
H1149 H 0.90862 0.55605 0.35161 0.0
H1150 H 0.86276 0.60323 0.29981 0.0
S1151 S 0.85542 0.68113 0.47254 0.0
N1152 N 0.88544 0.63773 0.4742 0.0
N1153 N 0.83648 0.68845 0.41837 0.0
C1154 C 0.85452 0.65477 0.39903 0.0
C1155 C 0.88104 0.6273 0.42925 0.0
C1156 C 0.40333 0.35049 0.34637 0.0
C1157 C 0.36067 0.35314 0.34936 0.0
C1158 C 0.42364 0.37401 0.37263 0.0
C1159 C 0.40219 0.40154 0.40257 0.0
H1160 H 0.42133 0.33044 0.32302 0.0
H1161 H 0.45646 0.37102 0.36868 0.0
S1162 S 0.29027 0.41745 0.42688 0.0
N1163 N 0.2976 0.3841 0.38698 0.0
N1164 N 0.33596 0.42769 0.43692 0.0
C1165 C 0.35955 0.40384 0.40692 0.0
C1166 C 0.33878 0.38 0.38001 0.0
C1167 C 0.41368 0.61658 0.11528 0.0
C1168 C 0.40343 0.61929 0.06662 0.0
C1169 C 0.39 0.63925 0.14896 0.0
C1170 C 0.35529 0.66529 0.13504 0.0
H1171 H 0.43983 0.59632 0.12749 0.0
H1172 H 0.39864 0.63621 0.18624 0.0
S1173 S 0.31623 0.68384 0.0117 0.0
N1174 N 0.35685 0.65046 1.00595 0.0
N1175 N 0.31239 0.69315 0.06922 0.0
C1176 C 0.34506 0.66861 0.08637 0.0
C1177 C 0.36916 0.64559 0.05212 0.0
C1178 C 0.14323 0.62978 0.83721 0.0
C1179 C 0.16841 0.65234 0.85975 0.0
C1180 C 0.11708 0.60267 0.86459 0.0
C1181 C 0.11409 0.59651 0.91637 0.0
H1182 H 0.14384 0.63299 0.79775 0.0
H1183 H 0.09871 0.58651 0.84486 0.0
S1184 S 0.17306 0.64772 0.9941 0.0
N1185 N 0.18789 0.66603 0.93798 0.0
N1186 N 0.13977 0.61583 0.98857 0.0
C1187 C 0.13913 0.61885 0.93927 0.0
C1188 C 0.16579 0.64631 0.91143 0.0
C1189 C 0.10837 0.36649 0.60881 0.0
C1190 C 0.08695 0.40014 0.62909 0.0
C1191 C 0.13567 0.3385 0.63592 0.0
C1192 C 0.14249 0.34317 0.68427 0.0
H1193 H 0.10408 0.36194 0.57162 0.0
H1194 H 0.15179 0.31318 0.6189 0.0
S1195 S 0.09328 0.42529 0.75462 0.0
N1196 N 0.07376 0.43583 0.70085 0.0
N1197 N 0.12526 0.38354 0.75148 0.0
C1198 C 0.12106 0.37642 0.70506 0.0
C1199 C 0.09324 0.40481 0.67756 0.0
loop_
_geom_bond_atom_site_label_1
_geom_bond_atom_site_label_2
_geom_bond_distance
_geom_bond_site_symmetry_2
_ccdc_geom_bond_type
C0 C1 1.443 . S
C0 N4 1.376 . S
C0 C38 1.389 1_545 S
C1 C0 1.443 . S
C1 C2 1.340 . S
C1 H41 0.951 . S
C2 C1 1.340 . S
C2 C3 1.439 . S
C2 H42 0.950 . S
C3 C2 1.439 . S
C3 N4 1.374 . S
C3 C37 1.395 1_554 S
N4 C0 1.376 . S
N4 C3 1.374 . S
N4 Co5 2.008 1_655 S
Co5 N4 2.008 1_455 S
Co5 N6 1.995 1_454 S
Co5 N11 2.008 1_544 S
Co5 N16 1.995 1_545 S
Co5 N21 2.282 1_444 S
Co5 N27 2.282 . S
N6 Co5 1.995 1_656 S
N6 C7 1.376 . S
N6 C10 1.383 . S
C7 N6 1.376 . S
C7 C8 1.446 . S
C7 C37 1.391 . S
C8 C7 1.446 . S
C8 C9 1.339 . S
C8 H43 0.949 . S
C9 C8 1.339 . S
C9 C10 1.439 . S
C9 H44 0.950 . S
C10 N6 1.383 . S
C10 C9 1.439 . S
C10 C39 1.392 1_655 S
N11 Co5 2.008 1_566 S
N11 C12 1.376 . S
N11 C15 1.374 . S
C12 N11 1.376 . S
C12 C13 1.443 . S
C12 C39 1.389 1_565 S
C13 C12 1.443 . S
C13 C14 1.340 . S
C13 H45 0.951 . S
C14 C13 1.340 . S
C14 C15 1.439 . S
C14 H46 0.950 . S
C15 N11 1.374 . S
C15 C14 1.439 . S
C15 C40 1.395 1_556 S
N16 Co5 1.995 1_565 S
N16 C17 1.376 . S
N16 C20 1.383 . S
C17 N16 1.376 . S
C17 C18 1.446 . S
C17 C40 1.391 . S
C18 C17 1.446 . S
C18 C19 1.339 . S
C18 H47 0.949 . S
C19 C18 1.339 . S
C19 C20 1.439 . S
C19 H48 0.950 . S
C20 N16 1.383 . S
C20 C19 1.439 . S
C20 C38 1.392 1_455 S
N21 Co5 2.282 1_666 S
N21 C24 1.332 . S
N21 C26 1.332 . S
C22 C23 1.386 . S
C22 C25 1.388 . S
C23 C22 1.386 . S
C23 C24 1.382 . S
C23 H49 0.950 . S
C24 N21 1.332 . S
C24 C23 1.382 . S
C24 H35 0.959 . S
C25 C22 1.388 . S
C25 C26 1.382 . S
C25 H50 0.950 . S
C26 N21 1.332 . S
C26 C25 1.382 . S
C26 H36 0.948 1_565 S
N27 Co5 2.282 . S
N27 C31 1.332 . S
N27 C32 1.332 . S
C28 C29 1.388 . S
C28 C32 1.382 . S
C28 H51 0.950 . S
C29 C28 1.388 . S
C29 C30 1.386 . S
C30 C29 1.386 . S
C30 C31 1.382 . S
C30 H52 0.950 . S
C31 N27 1.332 . S
C31 C30 1.382 . S
C31 H33 0.962 . S
C32 N27 1.332 . S
C32 C28 1.382 . S
C32 H34 0.948 1_545 S
H33 C31 0.962 . S
H34 C32 0.948 1_565 S
H35 C24 0.959 . S
H36 C26 0.948 1_545 S
C37 C3 1.395 1_556 S
C37 C7 1.391 . S
C38 C0 1.389 1_565 S
C38 C20 1.392 1_655 S
C39 C10 1.392 1_455 S
C39 C12 1.389 1_545 S
C40 C15 1.395 1_554 S
C40 C17 1.391 . S
H41 C1 0.951 . S
H42 C2 0.950 . S
H43 C8 0.949 . S
H44 C9 0.950 . S
H45 C13 0.951 . S
H46 C14 0.950 . S
H47 C18 0.949 . S
H48 C19 0.950 . S
H49 C23 0.950 . S
H50 C25 0.950 . S
H51 C28 0.950 . S
H52 C30 0.950 . S
C53 C54 1.443 . S
C53 N57 1.376 . S
C53 C91 1.389 . S
C54 C53 1.443 . S
C54 C55 1.340 . S
C54 H94 0.951 . S
C55 C54 1.340 . S
C55 C56 1.439 . S
C55 H95 0.950 . S
C56 C55 1.439 . S
C56 N57 1.374 . S
C56 C90 1.395 . S
N57 C53 1.376 . S
N57 C56 1.374 . S
N57 Co58 2.008 . S
Co58 N57 2.008 . S
Co58 N59 1.995 . S
Co58 N64 2.008 . S
Co58 N69 1.995 . S
Co58 N74 2.282 . S
Co58 N80 2.282 . S
N59 Co58 1.995 . S
N59 C60 1.376 . S
N59 C63 1.383 . S
C60 N59 1.376 . S
C60 C61 1.446 . S
C60 C90 1.391 . S
C61 C60 1.446 . S
C61 C62 1.339 . S
C61 H96 0.949 . S
C62 C61 1.339 . S
C62 C63 1.439 . S
C62 H97 0.950 . S
C63 N59 1.383 . S
C63 C62 1.439 . S
C63 C92 1.392 . S
N64 Co58 2.008 . S
N64 C65 1.376 . S
N64 C68 1.374 . S
C65 N64 1.376 . S
C65 C66 1.443 . S
C65 C92 1.389 . S
C66 C65 1.443 . S
C66 C67 1.340 . S
C66 H98 0.951 . S
C67 C66 1.340 . S
C67 C68 1.439 . S
C67 H99 0.950 . S
C68 N64 1.374 . S
C68 C67 1.439 . S
C68 C93 1.395 . S
N69 Co58 1.995 . S
N69 C70 1.376 . S
N69 C73 1.383 . S
C70 N69 1.376 . S
C70 C71 1.446 . S
C70 C93 1.391 . S
C71 C70 1.446 . S
C71 C72 1.339 . S
C71 H100 0.949 . S
C72 C71 1.339 . S
C72 C73 1.439 . S
C72 H101 0.950 . S
C73 N69 1.383 . S
C73 C72 1.439 . S
C73 C91 1.392 . S
N74 Co58 2.282 . S
N74 C77 1.332 . S
N74 C79 1.332 . S
C75 C76 1.386 . S
C75 C78 1.388 . S
C76 C75 1.386 . S
C76 C77 1.382 . S
C76 H102 0.950 . S
C77 N74 1.332 . S
C77 C76 1.382 . S
C77 H88 0.952 . S
C78 C75 1.388 . S
C78 C79 1.382 . S
C78 H103 0.950 . S
C79 N74 1.332 . S
C79 C78 1.382 . S
C79 H89 0.948 . S
N80 Co58 2.282 . S
N80 C84 1.332 . S
N80 C85 1.332 . S
C81 C82 1.388 . S
C81 C85 1.382 . S
C81 H104 0.950 . S
C82 C81 1.388 . S
C82 C83 1.386 . S
C83 C82 1.386 . S
C83 C84 1.382 . S
C83 H105 0.950 . S
C84 N80 1.332 . S
C84 C83 1.382 . S
C84 H86 0.952 . S
C85 N80 1.332 . S
C85 C81 1.382 . S
C85 H87 0.948 . S
H86 C84 0.952 . S
H87 C85 0.948 . S
H88 C77 0.952 . S
H89 C79 0.948 . S
C90 C56 1.395 . S
C90 C60 1.391 . S
C91 C53 1.389 . S
C91 C73 1.392 . S
C92 C63 1.392 . S
C92 C65 1.389 . S
C93 C68 1.395 . S
C93 C70 1.391 . S
H94 C54 0.951 . S
H95 C55 0.950 . S
H96 C61 0.949 . S
H97 C62 0.950 . S
H98 C66 0.951 . S
H99 C67 0.950 . S
H100 C71 0.949 . S
H101 C72 0.950 . S
H102 C76 0.950 . S
H103 C78 0.950 . S
H104 C81 0.950 . S
H105 C83 0.950 . S
C106 C107 1.443 . S
C106 N110 1.376 1_565 S
C106 C144 1.389 . S
C107 C106 1.443 . S
C107 C108 1.340 1_565 S
C107 H147 0.951 . S
C108 C107 1.340 1_545 S
C108 C109 1.439 . S
C108 H148 0.950 . S
C109 C108 1.439 . S
C109 N110 1.374 . S
C109 C143 1.395 . S
N110 C106 1.376 1_545 S
N110 C109 1.374 . S
N110 Co111 2.008 . S
Co111 N110 2.008 . S
Co111 N112 1.995 . S
Co111 N117 2.008 1_545 S
Co111 N122 1.995 1_545 S
Co111 N127 2.282 1_545 S
Co111 N133 2.282 . S
N112 Co111 1.995 . S
N112 C113 1.376 . S
N112 C116 1.383 . S
C113 N112 1.376 . S
C113 C114 1.446 . S
C113 C143 1.391 . S
C114 C113 1.446 . S
C114 C115 1.339 . S
C114 H149 0.949 . S
C115 C114 1.339 . S
C115 C116 1.439 . S
C115 H150 0.950 . S
C116 N112 1.383 . S
C116 C115 1.439 . S
C116 C145 1.392 . S
N117 Co111 2.008 1_565 S
N117 C118 1.376 1_565 S
N117 C121 1.374 . S
C118 N117 1.376 1_545 S
C118 C119 1.443 . S
C118 C145 1.389 . S
C119 C118 1.443 . S
C119 C120 1.340 1_545 S
C119 H151 0.951 . S
C120 C119 1.340 1_565 S
C120 C121 1.439 . S
C120 H152 0.950 . S
C121 N117 1.374 . S
C121 C120 1.439 . S
C121 C146 1.395 . S
N122 Co111 1.995 1_565 S
N122 C123 1.376 . S
N122 C126 1.383 . S
C123 N122 1.376 . S
C123 C124 1.446 . S
C123 C146 1.391 . S
C124 C123 1.446 . S
C124 C125 1.339 . S
C124 H153 0.949 . S
C125 C124 1.339 . S
C125 C126 1.439 . S
C125 H154 0.950 . S
C126 N122 1.383 . S
C126 C125 1.439 . S
C126 C144 1.392 . S
N127 Co111 2.282 1_565 S
N127 C130 1.332 . S
N127 C132 1.332 1_565 S
C128 C129 1.386 . S
C128 C131 1.388 1_565 S
C129 C128 1.386 . S
C129 C130 1.382 . S
C129 H155 0.950 . S
C130 N127 1.332 . S
C130 C129 1.382 . S
C130 H141 0.952 . S
C131 C128 1.388 1_545 S
C131 C132 1.382 . S
C131 H156 0.950 . S
C132 N127 1.332 1_545 S
C132 C131 1.382 . S
C132 H142 0.948 . S
N133 Co111 2.282 . S
N133 C137 1.332 . S
N133 C138 1.332 1_545 S
C134 C135 1.388 1_565 S
C134 C138 1.382 . S
C134 H157 0.950 . S
C135 C134 1.388 1_545 S
C135 C136 1.386 . S
C136 C135 1.386 . S
C136 C137 1.382 . S
C136 H158 0.950 . S
C137 N133 1.332 . S
C137 C136 1.382 . S
C137 H139 0.952 . S
C138 N133 1.332 1_565 S
C138 C134 1.382 . S
C138 H140 0.948 . S
H139 C137 0.952 . S
H140 C138 0.948 . S
H141 C130 0.952 . S
H142 C132 0.948 . S
C143 C109 1.395 . S
C143 C113 1.391 . S
C144 C106 1.389 . S
C144 C126 1.392 . S
C145 C116 1.392 . S
C145 C118 1.389 . S
C146 C121 1.395 . S
C146 C123 1.391 . S
H147 C107 0.951 . S
H148 C108 0.950 . S
H149 C114 0.949 . S
H150 C115 0.950 . S
H151 C119 0.951 . S
H152 C120 0.950 . S
H153 C124 0.949 . S
H154 C125 0.950 . S
H155 C129 0.950 . S
H156 C131 0.950 . S
H157 C134 0.950 . S
H158 C136 0.950 . S
C159 C160 1.443 . S
C159 N163 1.376 . S
C159 C197 1.389 . S
C160 C159 1.443 . S
C160 C161 1.340 . S
C160 H200 0.951 . S
C161 C160 1.340 . S
C161 C162 1.439 . S
C161 H201 0.950 . S
C162 C161 1.439 . S
C162 N163 1.374 . S
C162 C196 1.395 . S
N163 C159 1.376 . S
N163 C162 1.374 . S
N163 Co164 2.008 . S
Co164 N163 2.008 . S
Co164 N165 1.995 . S
Co164 N170 2.008 . S
Co164 N175 1.995 . S
Co164 N180 2.282 . S
Co164 N186 2.282 . S
N165 Co164 1.995 . S
N165 C166 1.376 . S
N165 C169 1.383 . S
C166 N165 1.376 . S
C166 C167 1.446 . S
C166 C196 1.391 . S
C167 C166 1.446 . S
C167 C168 1.339 . S
C167 H202 0.949 . S
C168 C167 1.339 . S
C168 C169 1.439 . S
C168 H203 0.950 . S
C169 N165 1.383 . S
C169 C168 1.439 . S
C169 C198 1.392 . S
N170 Co164 2.008 . S
N170 C171 1.376 . S
N170 C174 1.374 . S
C171 N170 1.376 . S
C171 C172 1.443 . S
C171 C198 1.389 . S
C172 C171 1.443 . S
C172 C173 1.340 . S
C172 H204 0.951 . S
C173 C172 1.340 . S
C173 C174 1.439 . S
C173 H205 0.950 . S
C174 N170 1.374 . S
C174 C173 1.439 . S
C174 C199 1.395 . S
N175 Co164 1.995 . S
N175 C176 1.376 . S
N175 C179 1.383 . S
C176 N175 1.376 . S
C176 C177 1.446 . S
C176 C199 1.391 . S
C177 C176 1.446 . S
C177 C178 1.339 . S
C177 H206 0.949 . S
C178 C177 1.339 . S
C178 C179 1.439 . S
C178 H207 0.950 . S
C179 N175 1.383 . S
C179 C178 1.439 . S
C179 C197 1.392 . S
N180 Co164 2.282 . S
N180 C183 1.332 . S
N180 C185 1.332 . S
C181 C182 1.386 . S
C181 C184 1.388 . S
C182 C181 1.386 . S
C182 C183 1.382 . S
C182 H208 0.950 . S
C183 N180 1.332 . S
C183 C182 1.382 . S
C183 H194 0.952 . S
C184 C181 1.388 . S
C184 C185 1.382 . S
C184 H209 0.950 . S
C185 N180 1.332 . S
C185 C184 1.382 . S
C185 H195 0.948 . S
N186 Co164 2.282 . S
N186 C190 1.332 . S
N186 C191 1.332 . S
C187 C188 1.388 . S
C187 C191 1.382 . S
C187 H210 0.950 . S
C188 C187 1.388 . S
C188 C189 1.386 . S
C189 C188 1.386 . S
C189 C190 1.382 . S
C189 H211 0.950 . S
C190 N186 1.332 . S
C190 C189 1.382 . S
C190 H192 0.952 . S
C191 N186 1.332 . S
C191 C187 1.382 . S
C191 H193 0.948 . S
H192 C190 0.952 . S
H193 C191 0.948 . S
H194 C183 0.952 . S
H195 C185 0.948 . S
C196 C162 1.395 . S
C196 C166 1.391 . S
C197 C159 1.389 . S
C197 C179 1.392 . S
C198 C169 1.392 . S
C198 C171 1.389 . S
C199 C174 1.395 . S
C199 C176 1.391 . S
H200 C160 0.951 . S
H201 C161 0.950 . S
H202 C167 0.949 . S
H203 C168 0.950 . S
H204 C172 0.951 . S
H205 C173 0.950 . S
H206 C177 0.949 . S
H207 C178 0.950 . S
H208 C182 0.950 . S
H209 C184 0.950 . S
H210 C187 0.950 . S
H211 C189 0.950 . S
C212 C213 1.443 . S
C212 N216 1.376 . S
C212 C250 1.389 1_655 S
C213 C212 1.443 . S
C213 C214 1.340 . S
C213 H253 0.951 . S
C214 C213 1.340 . S
C214 C215 1.439 . S
C214 H254 0.950 . S
C215 C214 1.439 . S
C215 N216 1.374 . S
C215 C249 1.395 . S
N216 C212 1.376 . S
N216 C215 1.374 . S
N216 Co217 2.008 1_665 S
Co217 N216 2.008 1_445 S
Co217 N218 1.995 1_445 S
Co217 N223 2.008 . S
Co217 N228 1.995 . S
Co217 N233 2.282 1_545 S
Co217 N239 2.282 1_455 S
N218 Co217 1.995 1_665 S
N218 C219 1.376 . S
N218 C222 1.383 . S
C219 N218 1.376 . S
C219 C220 1.446 . S
C219 C249 1.391 . S
C220 C219 1.446 . S
C220 C221 1.339 . S
C220 H255 0.949 . S
C221 C220 1.339 . S
C221 C222 1.439 . S
C221 H256 0.950 . S
C222 N218 1.383 . S
C222 C221 1.439 . S
C222 C251 1.392 1_565 S
N223 Co217 2.008 . S
N223 C224 1.376 . S
N223 C227 1.374 . S
C224 N223 1.376 . S
C224 C225 1.443 . S
C224 C251 1.389 1_455 S
C225 C224 1.443 . S
C225 C226 1.340 . S
C225 H257 0.951 . S
C226 C225 1.340 . S
C226 C227 1.439 . S
C226 H258 0.950 . S
C227 N223 1.374 . S
C227 C226 1.439 . S
C227 C252 1.395 . S
N228 Co217 1.995 . S
N228 C229 1.376 . S
N228 C232 1.383 . S
C229 N228 1.376 . S
C229 C230 1.446 . S
C229 C252 1.391 . S
C230 C229 1.446 . S
C230 C231 1.339 . S
C230 H259 0.949 . S
C231 C230 1.339 . S
C231 C232 1.439 . S
C231 H260 0.950 . S
C232 N228 1.383 . S
C232 C231 1.439 . S
C232 C250 1.392 1_545 S
N233 Co217 2.282 1_565 S
N233 C236 1.332 . S
N233 C238 1.332 . S
C234 C235 1.386 . S
C234 C237 1.388 . S
C235 C234 1.386 . S
C235 C236 1.382 . S
C235 H261 0.950 . S
C236 N233 1.332 . S
C236 C235 1.382 . S
C236 H247 0.952 . S
C237 C234 1.388 . S
C237 C238 1.382 . S
C237 H262 0.950 . S
C238 N233 1.332 . S
C238 C237 1.382 . S
C238 H248 0.948 . S
N239 Co217 2.282 1_655 S
N239 C243 1.332 . S
N239 C244 1.332 . S
C240 C241 1.388 . S
C240 C244 1.382 . S
C240 H263 0.950 . S
C241 C240 1.388 . S
C241 C242 1.386 . S
C242 C241 1.386 . S
C242 C243 1.382 . S
C242 H264 0.950 . S
C243 N239 1.332 . S
C243 C242 1.382 . S
C243 H245 0.952 . S
C244 N239 1.332 . S
C244 C240 1.382 . S
C244 H246 0.948 . S
H245 C243 0.952 . S
H246 C244 0.948 . S
H247 C236 0.952 . S
H248 C238 0.948 . S
C249 C215 1.395 . S
C249 C219 1.391 . S
C250 C212 1.389 1_455 S
C250 C232 1.392 1_565 S
C251 C222 1.392 1_545 S
C251 C224 1.389 1_655 S
C252 C227 1.395 . S
C252 C229 1.391 . S
H253 C213 0.951 . S
H254 C214 0.950 . S
H255 C220 0.949 . S
H256 C221 0.950 . S
H257 C225 0.951 . S
H258 C226 0.950 . S
H259 C230 0.949 . S
H260 C231 0.950 . S
H261 C235 0.950 . S
H262 C237 0.950 . S
H263 C240 0.950 . S
H264 C242 0.950 . S
C265 C266 1.443 . S
C265 N269 1.376 . S
C265 C303 1.389 . S
C266 C265 1.443 . S
C266 C267 1.340 . S
C266 H306 0.951 . S
C267 C266 1.340 . S
C267 C268 1.439 . S
C267 H307 0.950 . S
C268 C267 1.439 . S
C268 N269 1.374 . S
C268 C302 1.395 . S
N269 C265 1.376 . S
N269 C268 1.374 . S
N269 Co270 2.008 . S
Co270 N269 2.008 . S
Co270 N271 1.995 . S
Co270 N276 2.008 . S
Co270 N281 1.995 . S
Co270 N286 2.282 . S
Co270 N292 2.282 . S
N271 Co270 1.995 . S
N271 C272 1.376 . S
N271 C275 1.383 . S
C272 N271 1.376 . S
C272 C273 1.446 . S
C272 C302 1.391 . S
C273 C272 1.446 . S
C273 C274 1.339 . S
C273 H308 0.949 . S
C274 C273 1.339 . S
C274 C275 1.439 . S
C274 H309 0.950 . S
C275 N271 1.383 . S
C275 C274 1.439 . S
C275 C304 1.392 . S
N276 Co270 2.008 . S
N276 C277 1.376 . S
N276 C280 1.374 . S
C277 N276 1.376 . S
C277 C278 1.443 . S
C277 C304 1.389 . S
C278 C277 1.443 . S
C278 C279 1.340 . S
C278 H310 0.951 . S
C279 C278 1.340 . S
C279 C280 1.439 . S
C279 H311 0.950 . S
C280 N276 1.374 . S
C280 C279 1.439 . S
C280 C305 1.395 . S
N281 Co270 1.995 . S
N281 C282 1.376 . S
N281 C285 1.383 . S
C282 N281 1.376 . S
C282 C283 1.446 . S
C282 C305 1.391 . S
C283 C282 1.446 . S
C283 C284 1.339 . S
C283 H312 0.949 . S
C284 C283 1.339 . S
C284 C285 1.439 . S
C284 H313 0.950 . S
C285 N281 1.383 . S
C285 C284 1.439 . S
C285 C303 1.392 . S
N286 Co270 2.282 . S
N286 C289 1.332 . S
N286 C291 1.332 . S
C287 C288 1.386 . S
C287 C290 1.388 . S
C288 C287 1.386 . S
C288 C289 1.382 . S
C288 H314 0.950 . S
C289 N286 1.332 . S
C289 C288 1.382 . S
C289 H300 0.952 . S
C290 C287 1.388 . S
C290 C291 1.382 . S
C290 H315 0.950 . S
C291 N286 1.332 . S
C291 C290 1.382 . S
C291 H301 0.948 . S
N292 Co270 2.282 . S
N292 C296 1.332 . S
N292 C297 1.332 . S
C293 C294 1.388 . S
C293 C297 1.382 . S
C293 H316 0.950 . S
C294 C293 1.388 . S
C294 C295 1.386 . S
C295 C294 1.386 . S
C295 C296 1.382 . S
C295 H317 0.950 . S
C296 N292 1.332 . S
C296 C295 1.382 . S
C296 H298 0.952 . S
C297 N292 1.332 . S
C297 C293 1.382 . S
C297 H299 0.948 . S
H298 C296 0.952 . S
H299 C297 0.948 . S
H300 C289 0.952 . S
H301 C291 0.948 . S
C302 C268 1.395 . S
C302 C272 1.391 . S
C303 C265 1.389 . S
C303 C285 1.392 . S
C304 C275 1.392 . S
C304 C277 1.389 . S
C305 C280 1.395 . S
C305 C282 1.391 . S
H306 C266 0.951 . S
H307 C267 0.950 . S
H308 C273 0.949 . S
H309 C274 0.950 . S
H310 C278 0.951 . S
H311 C279 0.950 . S
H312 C283 0.949 . S
H313 C284 0.950 . S
H314 C288 0.950 . S
H315 C290 0.950 . S
H316 C293 0.950 . S
H317 C295 0.950 . S
C318 C319 1.443 . S
C318 N322 1.375 . S
C318 C356 1.389 . S
C319 C318 1.443 . S
C319 C320 1.340 1_545 S
C319 H359 0.951 . S
C320 C319 1.340 1_565 S
C320 C321 1.439 . S
C320 H360 0.950 . S
C321 C320 1.439 . S
C321 N322 1.376 1_565 S
C321 C355 1.395 1_556 S
N322 C318 1.375 . S
N322 C321 1.376 1_545 S
N322 Co323 2.008 1_556 S
Co323 N322 2.008 1_554 S
Co323 N324 1.995 1_545 S
Co323 N329 2.008 . S
Co323 N334 1.995 1_554 S
Co323 N339 2.283 . S
Co323 N345 2.282 1_544 S
N324 Co323 1.995 1_565 S
N324 C325 1.376 . S
N324 C328 1.383 . S
C325 N324 1.376 . S
C325 C326 1.446 . S
C325 C355 1.391 . S
C326 C325 1.446 . S
C326 C327 1.339 . S
C326 H361 0.949 . S
C327 C326 1.339 . S
C327 C328 1.439 . S
C327 H362 0.950 . S
C328 N324 1.383 . S
C328 C327 1.439 . S
C328 C357 1.392 . S
N329 Co323 2.008 . S
N329 C330 1.375 1_545 S
N329 C333 1.376 . S
C330 N329 1.375 1_565 S
C330 C331 1.443 . S
C330 C357 1.389 . S
C331 C330 1.443 . S
C331 C332 1.340 1_565 S
C331 H363 0.951 . S
C332 C331 1.340 1_545 S
C332 C333 1.439 . S
C332 H364 0.950 . S
C333 N329 1.376 . S
C333 C332 1.439 . S
C333 C358 1.395 1_554 S
N334 Co323 1.995 1_556 S
N334 C335 1.376 . S
N334 C338 1.383 . S
C335 N334 1.376 . S
C335 C336 1.446 . S
C335 C358 1.391 . S
C336 C335 1.446 . S
C336 C337 1.339 . S
C336 H365 0.949 . S
C337 C336 1.339 . S
C337 C338 1.439 . S
C337 H366 0.950 . S
C338 N334 1.383 . S
C338 C337 1.439 . S
C338 C356 1.392 . S
N339 Co323 2.283 . S
N339 C342 1.332 . S
N339 C344 1.332 1_545 S
C340 C341 1.386 . S
C340 C343 1.388 1_545 S
C341 C340 1.386 . S
C341 C342 1.382 . S
C341 H367 0.950 . S
C342 N339 1.332 . S
C342 C341 1.382 . S
C342 H353 0.952 . S
C343 C340 1.388 1_565 S
C343 C344 1.382 . S
C343 H368 0.950 . S
C344 N339 1.332 1_565 S
C344 C343 1.382 . S
C344 H354 0.948 . S
N345 Co323 2.282 1_566 S
N345 C349 1.332 . S
N345 C350 1.332 1_565 S
C346 C347 1.388 1_545 S
C346 C350 1.382 . S
C346 H369 0.950 . S
C347 C346 1.388 1_565 S
C347 C348 1.386 . S
C348 C347 1.386 . S
C348 C349 1.382 . S
C348 H370 0.950 . S
C349 N345 1.332 . S
C349 C348 1.382 . S
C349 H351 0.952 . S
C350 N345 1.332 1_545 S
C350 C346 1.382 . S
C350 H352 0.948 . S
H351 C349 0.952 . S
H352 C350 0.948 . S
H353 C342 0.952 . S
H354 C344 0.948 . S
C355 C321 1.395 1_554 S
C355 C325 1.391 . S
C356 C318 1.389 . S
C356 C338 1.392 . S
C357 C328 1.392 . S
C357 C330 1.389 . S
C358 C333 1.395 1_556 S
C358 C335 1.391 . S
H359 C319 0.951 . S
H360 C320 0.950 . S
H361 C326 0.949 . S
H362 C327 0.950 . S
H363 C331 0.951 . S
H364 C332 0.950 . S
H365 C336 0.949 . S
H366 C337 0.950 . S
H367 C341 0.950 . S
H368 C343 0.950 . S
H369 C346 0.950 . S
H370 C348 0.950 . S
C371 C372 1.443 . S
C371 N375 1.376 . S
C371 C409 1.389 . S
C372 C371 1.443 . S
C372 C373 1.340 . S
C372 H412 0.951 . S
C373 C372 1.340 . S
C373 C374 1.439 . S
C373 H413 0.950 . S
C374 C373 1.439 . S
C374 N375 1.374 . S
C374 C408 1.395 . S
N375 C371 1.376 . S
N375 C374 1.374 . S
N375 Co376 2.008 . S
Co376 N375 2.008 . S
Co376 N377 1.995 . S
Co376 N382 2.008 . S
Co376 N387 1.995 . S
Co376 N392 2.282 . S
Co376 N398 2.282 . S
N377 Co376 1.995 . S
N377 C378 1.376 . S
N377 C381 1.383 . S
C378 N377 1.376 . S
C378 C379 1.446 . S
C378 C408 1.391 . S
C379 C378 1.446 . S
C379 C380 1.339 . S
C379 H414 0.949 . S
C380 C379 1.339 . S
C380 C381 1.439 . S
C380 H415 0.950 . S
C381 N377 1.383 . S
C381 C380 1.439 . S
C381 C410 1.392 . S
N382 Co376 2.008 . S
N382 C383 1.376 . S
N382 C386 1.374 . S
C383 N382 1.376 . S
C383 C384 1.443 . S
C383 C410 1.389 . S
C384 C383 1.443 . S
C384 C385 1.340 . S
C384 H416 0.951 . S
C385 C384 1.340 . S
C385 C386 1.439 . S
C385 H417 0.950 . S
C386 N382 1.374 . S
C386 C385 1.439 . S
C386 C411 1.395 . S
N387 Co376 1.995 . S
N387 C388 1.376 . S
N387 C391 1.383 . S
C388 N387 1.376 . S
C388 C389 1.446 . S
C388 C411 1.391 . S
C389 C388 1.446 . S
C389 C390 1.339 . S
C389 H418 0.949 . S
C390 C389 1.339 . S
C390 C391 1.439 . S
C390 H419 0.950 . S
C391 N387 1.383 . S
C391 C390 1.439 . S
C391 C409 1.392 . S
N392 Co376 2.282 . S
N392 C395 1.332 . S
N392 C397 1.332 . S
C393 C394 1.386 . S
C393 C396 1.388 . S
C394 C393 1.386 . S
C394 C395 1.382 . S
C394 H420 0.950 . S
C395 N392 1.332 . S
C395 C394 1.382 . S
C395 H406 0.952 . S
C396 C393 1.388 . S
C396 C397 1.382 . S
C396 H421 0.950 . S
C397 N392 1.332 . S
C397 C396 1.382 . S
C397 H407 0.948 . S
N398 Co376 2.282 . S
N398 C402 1.332 . S
N398 C403 1.332 . S
C399 C400 1.388 . S
C399 C403 1.382 . S
C399 H422 0.950 . S
C400 C399 1.388 . S
C400 C401 1.386 . S
C401 C400 1.386 . S
C401 C402 1.382 . S
C401 H423 0.950 . S
C402 N398 1.332 . S
C402 C401 1.382 . S
C402 H404 0.952 . S
C403 N398 1.332 . S
C403 C399 1.382 . S
C403 H405 0.948 . S
H404 C402 0.952 . S
H405 C403 0.948 . S
H406 C395 0.952 . S
H407 C397 0.948 . S
C408 C374 1.395 . S
C408 C378 1.391 . S
C409 C371 1.389 . S
C409 C391 1.392 . S
C410 C381 1.392 . S
C410 C383 1.389 . S
C411 C386 1.395 . S
C411 C388 1.391 . S
H412 C372 0.951 . S
H413 C373 0.950 . S
H414 C379 0.949 . S
H415 C380 0.950 . S
H416 C384 0.951 . S
H417 C385 0.950 . S
H418 C389 0.949 . S
H419 C390 0.950 . S
H420 C394 0.950 . S
H421 C396 0.950 . S
H422 C399 0.950 . S
H423 C401 0.950 . S
C424 C425 1.443 . S
C424 N428 1.376 . S
C424 C462 1.389 . S
C425 C424 1.443 . S
C425 C426 1.340 . S
C425 H465 0.951 . S
C426 C425 1.340 . S
C426 C427 1.439 . S
C426 H466 0.950 . S
C427 C426 1.439 . S
C427 N428 1.374 . S
C427 C461 1.395 . S
N428 C424 1.376 . S
N428 C427 1.374 . S
N428 Co429 2.008 . S
Co429 N428 2.008 . S
Co429 N430 1.995 . S
Co429 N435 2.008 . S
Co429 N440 1.995 . S
Co429 N445 2.282 . S
Co429 N451 2.282 . S
N430 Co429 1.995 . S
N430 C431 1.376 . S
N430 C434 1.383 . S
C431 N430 1.376 . S
C431 C432 1.446 . S
C431 C461 1.391 . S
C432 C431 1.446 . S
C432 C433 1.339 . S
C432 H467 0.949 . S
C433 C432 1.339 . S
C433 C434 1.439 . S
C433 H468 0.950 . S
C434 N430 1.383 . S
C434 C433 1.439 . S
C434 C463 1.392 . S
N435 Co429 2.008 . S
N435 C436 1.376 . S
N435 C439 1.374 . S
C436 N435 1.376 . S
C436 C437 1.443 . S
C436 C463 1.389 . S
C437 C436 1.443 . S
C437 C438 1.340 . S
C437 H469 0.951 . S
C438 C437 1.340 . S
C438 C439 1.439 . S
C438 H470 0.950 . S
C439 N435 1.374 . S
C439 C438 1.439 . S
C439 C464 1.395 . S
N440 Co429 1.995 . S
N440 C441 1.376 . S
N440 C444 1.383 . S
C441 N440 1.376 . S
C441 C442 1.446 . S
C441 C464 1.391 . S
C442 C441 1.446 . S
C442 C443 1.339 . S
C442 H471 0.949 . S
C443 C442 1.339 . S
C443 C444 1.439 . S
C443 H472 0.950 . S
C444 N440 1.383 . S
C444 C443 1.439 . S
C444 C462 1.392 . S
N445 Co429 2.282 . S
N445 C448 1.332 . S
N445 C450 1.332 . S
C446 C447 1.386 . S
C446 C449 1.388 . S
C447 C446 1.386 . S
C447 C448 1.382 . S
C447 H473 0.950 . S
C448 N445 1.332 . S
C448 C447 1.382 . S
C448 H459 0.952 . S
C449 C446 1.388 . S
C449 C450 1.382 . S
C449 H474 0.950 . S
C450 N445 1.332 . S
C450 C449 1.382 . S
C450 H460 0.948 . S
N451 Co429 2.282 . S
N451 C455 1.332 . S
N451 C456 1.332 . S
C452 C453 1.388 . S
C452 C456 1.382 . S
C452 H475 0.950 . S
C453 C452 1.388 . S
C453 C454 1.386 . S
C454 C453 1.386 . S
C454 C455 1.382 . S
C454 H476 0.950 . S
C455 N451 1.332 . S
C455 C454 1.382 . S
C455 H457 0.952 . S
C456 N451 1.332 . S
C456 C452 1.382 . S
C456 H458 0.948 . S
H457 C455 0.952 . S
H458 C456 0.948 . S
H459 C448 0.952 . S
H460 C450 0.948 . S
C461 C427 1.395 . S
C461 C431 1.391 . S
C462 C424 1.389 . S
C462 C444 1.392 . S
C463 C434 1.392 . S
C463 C436 1.389 . S
C464 C439 1.395 . S
C464 C441 1.391 . S
H465 C425 0.951 . S
H466 C426 0.950 . S
H467 C432 0.949 . S
H468 C433 0.950 . S
H469 C437 0.951 . S
H470 C438 0.950 . S
H471 C442 0.949 . S
H472 C443 0.950 . S
H473 C447 0.950 . S
H474 C449 0.950 . S
H475 C452 0.950 . S
H476 C454 0.950 . S
C477 C478 1.443 . S
C477 N481 1.376 . S
C477 C515 1.389 . S
C478 C477 1.443 . S
C478 C479 1.340 . S
C478 H518 0.951 . S
C479 C478 1.340 . S
C479 C480 1.439 . S
C479 H519 0.950 . S
C480 C479 1.439 . S
C480 N481 1.374 . S
C480 C514 1.395 . S
N481 C477 1.376 . S
N481 C480 1.374 . S
N481 Co482 2.008 . S
Co482 N481 2.008 . S
Co482 N483 1.995 . S
Co482 N488 2.008 . S
Co482 N493 1.995 . S
Co482 N498 2.282 . S
Co482 N504 2.282 . S
N483 Co482 1.995 . S
N483 C484 1.376 . S
N483 C487 1.383 . S
C484 N483 1.376 . S
C484 C485 1.446 . S
C484 C514 1.391 . S
C485 C484 1.446 . S
C485 C486 1.339 . S
C485 H520 0.949 . S
C486 C485 1.339 . S
C486 C487 1.439 . S
C486 H521 0.950 . S
C487 N483 1.383 . S
C487 C486 1.439 . S
C487 C516 1.392 . S
N488 Co482 2.008 . S
N488 C489 1.376 . S
N488 C492 1.374 . S
C489 N488 1.376 . S
C489 C490 1.443 . S
C489 C516 1.389 . S
C490 C489 1.443 . S
C490 C491 1.340 . S
C490 H522 0.951 . S
C491 C490 1.340 . S
C491 C492 1.439 . S
C491 H523 0.950 . S
C492 N488 1.374 . S
C492 C491 1.439 . S
C492 C517 1.395 . S
N493 Co482 1.995 . S
N493 C494 1.376 . S
N493 C497 1.383 . S
C494 N493 1.376 . S
C494 C495 1.446 . S
C494 C517 1.391 . S
C495 C494 1.446 . S
C495 C496 1.339 . S
C495 H524 0.949 . S
C496 C495 1.339 . S
C496 C497 1.439 . S
C496 H525 0.950 . S
C497 N493 1.383 . S
C497 C496 1.439 . S
C497 C515 1.392 . S
N498 Co482 2.282 . S
N498 C501 1.332 . S
N498 C503 1.332 . S
C499 C500 1.386 . S
C499 C502 1.388 . S
C500 C499 1.386 . S
C500 C501 1.382 . S
C500 H526 0.950 . S
C501 N498 1.332 . S
C501 C500 1.382 . S
C501 H512 0.952 . S
C502 C499 1.388 . S
C502 C503 1.382 . S
C502 H527 0.950 . S
C503 N498 1.332 . S
C503 C502 1.382 . S
C503 H513 0.948 . S
N504 Co482 2.282 . S
N504 C508 1.332 . S
N504 C509 1.332 . S
C505 C506 1.388 . S
C505 C509 1.382 . S
C505 H528 0.950 . S
C506 C505 1.388 . S
C506 C507 1.386 . S
C507 C506 1.386 . S
C507 C508 1.382 . S
C507 H529 0.950 . S
C508 N504 1.332 . S
C508 C507 1.382 . S
C508 H510 0.952 . S
C509 N504 1.332 . S
C509 C505 1.382 . S
C509 H511 0.948 . S
H510 C508 0.952 . S
H511 C509 0.948 . S
H512 C501 0.952 . S
H513 C503 0.948 . S
C514 C480 1.395 . S
C514 C484 1.391 . S
C515 C477 1.389 . S
C515 C497 1.392 . S
C516 C487 1.392 . S
C516 C489 1.389 . S
C517 C492 1.395 . S
C517 C494 1.391 . S
H518 C478 0.951 . S
H519 C479 0.950 . S
H520 C485 0.949 . S
H521 C486 0.950 . S
H522 C490 0.951 . S
H523 C491 0.950 . S
H524 C495 0.949 . S
H525 C496 0.950 . S
H526 C500 0.950 . S
H527 C502 0.950 . S
H528 C505 0.950 . S
H529 C507 0.950 . S
C530 C531 1.443 . S
C530 N534 1.376 . S
C530 C568 1.389 . S
C531 C530 1.443 . S
C531 C532 1.340 . S
C531 H571 0.951 . S
C532 C531 1.340 . S
C532 C533 1.439 . S
C532 H572 0.950 . S
C533 C532 1.439 . S
C533 N534 1.374 . S
C533 C567 1.395 . S
N534 C530 1.376 . S
N534 C533 1.374 . S
N534 Co535 2.008 . S
Co535 N534 2.008 . S
Co535 N536 1.995 . S
Co535 N541 2.008 . S
Co535 N546 1.995 . S
Co535 N551 2.282 . S
Co535 N557 2.282 . S
N536 Co535 1.995 . S
N536 C537 1.376 . S
N536 C540 1.383 . S
C537 N536 1.376 . S
C537 C538 1.446 . S
C537 C567 1.391 . S
C538 C537 1.446 . S
C538 C539 1.339 . S
C538 H573 0.949 . S
C539 C538 1.339 . S
C539 C540 1.439 . S
C539 H574 0.950 . S
C540 N536 1.383 . S
C540 C539 1.439 . S
C540 C569 1.392 . S
N541 Co535 2.008 . S
N541 C542 1.376 . S
N541 C545 1.374 . S
C542 N541 1.376 . S
C542 C543 1.443 . S
C542 C569 1.389 . S
C543 C542 1.443 . S
C543 C544 1.340 . S
C543 H575 0.951 . S
C544 C543 1.340 . S
C544 C545 1.439 . S
C544 H576 0.950 . S
C545 N541 1.374 . S
C545 C544 1.439 . S
C545 C570 1.395 . S
N546 Co535 1.995 . S
N546 C547 1.376 . S
N546 C550 1.383 . S
C547 N546 1.376 . S
C547 C548 1.446 . S
C547 C570 1.391 . S
C548 C547 1.446 . S
C548 C549 1.339 . S
C548 H577 0.949 . S
C549 C548 1.339 . S
C549 C550 1.439 . S
C549 H578 0.950 . S
C550 N546 1.383 . S
C550 C549 1.439 . S
C550 C568 1.392 . S
N551 Co535 2.282 . S
N551 C554 1.332 . S
N551 C556 1.332 . S
C552 C553 1.386 . S
C552 C555 1.388 . S
C553 C552 1.386 . S
C553 C554 1.382 . S
C553 H579 0.950 . S
C554 N551 1.332 . S
C554 C553 1.382 . S
C554 H565 0.952 . S
C555 C552 1.388 . S
C555 C556 1.382 . S
C555 H580 0.950 . S
C556 N551 1.332 . S
C556 C555 1.382 . S
C556 H566 0.948 . S
N557 Co535 2.282 . S
N557 C561 1.332 . S
N557 C562 1.332 . S
C558 C559 1.388 . S
C558 C562 1.382 . S
C558 H581 0.950 . S
C559 C558 1.388 . S
C559 C560 1.386 . S
C560 C559 1.386 . S
C560 C561 1.382 . S
C560 H582 0.950 . S
C561 N557 1.332 . S
C561 C560 1.382 . S
C561 H563 0.952 . S
C562 N557 1.332 . S
C562 C558 1.382 . S
C562 H564 0.948 . S
H563 C561 0.952 . S
H564 C562 0.948 . S
H565 C554 0.952 . S
H566 C556 0.948 . S
C567 C533 1.395 . S
C567 C537 1.391 . S
C568 C530 1.389 . S
C568 C550 1.392 . S
C569 C540 1.392 . S
C569 C542 1.389 . S
C570 C545 1.395 . S
C570 C547 1.391 . S
H571 C531 0.951 . S
H572 C532 0.950 . S
H573 C538 0.949 . S
H574 C539 0.950 . S
H575 C543 0.951 . S
H576 C544 0.950 . S
H577 C548 0.949 . S
H578 C549 0.950 . S
H579 C553 0.950 . S
H580 C555 0.950 . S
H581 C558 0.950 . S
H582 C560 0.950 . S
C583 C584 1.443 . S
C583 N587 1.376 . S
C583 C621 1.389 . S
C584 C583 1.443 . S
C584 C585 1.340 . S
C584 H624 0.951 . S
C585 C584 1.340 . S
C585 C586 1.439 . S
C585 H625 0.950 . S
C586 C585 1.439 . S
C586 N587 1.374 . S
C586 C620 1.395 . S
N587 C583 1.376 . S
N587 C586 1.374 . S
N587 Co588 2.008 . S
Co588 N587 2.008 . S
Co588 N589 1.995 . S
Co588 N594 2.008 . S
Co588 N599 1.995 . S
Co588 N604 2.282 . S
Co588 N610 2.282 . S
N589 Co588 1.995 . S
N589 C590 1.376 . S
N589 C593 1.383 . S
C590 N589 1.376 . S
C590 C591 1.446 . S
C590 C620 1.391 . S
C591 C590 1.446 . S
C591 C592 1.339 . S
C591 H626 0.949 . S
C592 C591 1.339 . S
C592 C593 1.439 . S
C592 H627 0.950 . S
C593 N589 1.383 . S
C593 C592 1.439 . S
C593 C622 1.392 . S
N594 Co588 2.008 . S
N594 C595 1.376 . S
N594 C598 1.374 . S
C595 N594 1.376 . S
C595 C596 1.443 . S
C595 C622 1.389 . S
C596 C595 1.443 . S
C596 C597 1.340 . S
C596 H628 0.951 . S
C597 C596 1.340 . S
C597 C598 1.439 . S
C597 H629 0.950 . S
C598 N594 1.374 . S
C598 C597 1.439 . S
C598 C623 1.395 . S
N599 Co588 1.995 . S
N599 C600 1.376 . S
N599 C603 1.383 . S
C600 N599 1.376 . S
C600 C601 1.446 . S
C600 C623 1.391 . S
C601 C600 1.446 . S
C601 C602 1.339 . S
C601 H630 0.949 . S
C602 C601 1.339 . S
C602 C603 1.439 . S
C602 H631 0.950 . S
C603 N599 1.383 . S
C603 C602 1.439 . S
C603 C621 1.392 . S
N604 Co588 2.282 . S
N604 C607 1.332 . S
N604 C609 1.332 . S
C605 C606 1.386 . S
C605 C608 1.388 . S
C606 C605 1.386 . S
C606 C607 1.382 . S
C606 H632 0.950 . S
C607 N604 1.332 . S
C607 C606 1.382 . S
C607 H618 0.952 . S
C608 C605 1.388 . S
C608 C609 1.382 . S
C608 H633 0.950 . S
C609 N604 1.332 . S
C609 C608 1.382 . S
C609 H619 0.948 . S
N610 Co588 2.282 . S
N610 C614 1.332 . S
N610 C615 1.332 . S
C611 C612 1.388 . S
C611 C615 1.382 . S
C611 H634 0.950 . S
C612 C611 1.388 . S
C612 C613 1.386 . S
C613 C612 1.386 . S
C613 C614 1.382 . S
C613 H635 0.950 . S
C614 N610 1.332 . S
C614 C613 1.382 . S
C614 H616 0.952 . S
C615 N610 1.332 . S
C615 C611 1.382 . S
C615 H617 0.948 . S
H616 C614 0.952 . S
H617 C615 0.948 . S
H618 C607 0.952 . S
H619 C609 0.948 . S
C620 C586 1.395 . S
C620 C590 1.391 . S
C621 C583 1.389 . S
C621 C603 1.392 . S
C622 C593 1.392 . S
C622 C595 1.389 . S
C623 C598 1.395 . S
C623 C600 1.391 . S
H624 C584 0.951 . S
H625 C585 0.950 . S
H626 C591 0.949 . S
H627 C592 0.950 . S
H628 C596 0.951 . S
H629 C597 0.950 . S
H630 C601 0.949 . S
H631 C602 0.950 . S
H632 C606 0.950 . S
H633 C608 0.950 . S
H634 C611 0.950 . S
H635 C613 0.950 . S
C636 C637 1.443 . S
C636 N640 1.376 . S
C636 C674 1.389 . S
C637 C636 1.443 . S
C637 C638 1.340 . S
C637 H677 0.951 . S
C638 C637 1.340 . S
C638 C639 1.439 . S
C638 H678 0.950 . S
C639 C638 1.439 . S
C639 N640 1.374 . S
C639 C673 1.395 . S
N640 C636 1.376 . S
N640 C639 1.374 . S
N640 Co641 2.008 . S
Co641 N640 2.008 . S
Co641 N642 1.995 . S
Co641 N647 2.008 . S
Co641 N652 1.995 . S
Co641 N657 2.282 . S
Co641 N663 2.282 . S
N642 Co641 1.995 . S
N642 C643 1.376 . S
N642 C646 1.383 . S
C643 N642 1.376 . S
C643 C644 1.446 . S
C643 C673 1.391 . S
C644 C643 1.446 . S
C644 C645 1.339 . S
C644 H679 0.949 . S
C645 C644 1.339 . S
C645 C646 1.439 . S
C645 H680 0.950 . S
C646 N642 1.383 . S
C646 C645 1.439 . S
C646 C675 1.392 . S
N647 Co641 2.008 . S
N647 C648 1.376 . S
N647 C651 1.374 . S
C648 N647 1.376 . S
C648 C649 1.443 . S
C648 C675 1.389 . S
C649 C648 1.443 . S
C649 C650 1.340 . S
C649 H681 0.951 . S
C650 C649 1.340 . S
C650 C651 1.439 . S
C650 H682 0.950 . S
C651 N647 1.374 . S
C651 C650 1.439 . S
C651 C676 1.395 . S
N652 Co641 1.995 . S
N652 C653 1.376 . S
N652 C656 1.383 . S
C653 N652 1.376 . S
C653 C654 1.446 . S
C653 C676 1.391 . S
C654 C653 1.446 . S
C654 C655 1.339 . S
C654 H683 0.949 . S
C655 C654 1.339 . S
C655 C656 1.439 . S
C655 H684 0.950 . S
C656 N652 1.383 . S
C656 C655 1.439 . S
C656 C674 1.392 . S
N657 Co641 2.282 . S
N657 C660 1.332 . S
N657 C662 1.332 . S
C658 C659 1.386 . S
C658 C661 1.388 . S
C659 C658 1.386 . S
C659 C660 1.382 . S
C659 H685 0.950 . S
C660 N657 1.332 . S
C660 C659 1.382 . S
C660 H671 0.952 . S
C661 C658 1.388 . S
C661 C662 1.382 . S
C661 H686 0.950 . S
C662 N657 1.332 . S
C662 C661 1.382 . S
C662 H672 0.948 . S
N663 Co641 2.282 . S
N663 C667 1.332 . S
N663 C668 1.332 . S
C664 C665 1.388 . S
C664 C668 1.382 . S
C664 H687 0.950 . S
C665 C664 1.388 . S
C665 C666 1.386 . S
C666 C665 1.386 . S
C666 C667 1.382 . S
C666 H688 0.950 . S
C667 N663 1.332 . S
C667 C666 1.382 . S
C667 H669 0.952 . S
C668 N663 1.332 . S
C668 C664 1.382 . S
C668 H670 0.948 . S
H669 C667 0.952 . S
H670 C668 0.948 . S
H671 C660 0.952 . S
H672 C662 0.948 . S
C673 C639 1.395 . S
C673 C643 1.391 . S
C674 C636 1.389 . S
C674 C656 1.392 . S
C675 C646 1.392 . S
C675 C648 1.389 . S
C676 C651 1.395 . S
C676 C653 1.391 . S
H677 C637 0.951 . S
H678 C638 0.950 . S
H679 C644 0.949 . S
H680 C645 0.950 . S
H681 C649 0.951 . S
H682 C650 0.950 . S
H683 C654 0.949 . S
H684 C655 0.950 . S
H685 C659 0.950 . S
H686 C661 0.950 . S
H687 C664 0.950 . S
H688 C666 0.950 . S
C689 C690 1.443 . S
C689 N693 1.376 . S
C689 C727 1.389 . S
C690 C689 1.443 . S
C690 C691 1.340 . S
C690 H730 0.951 . S
C691 C690 1.340 . S
C691 C692 1.439 . S
C691 H731 0.950 . S
C692 C691 1.439 . S
C692 N693 1.374 . S
C692 C726 1.395 . S
N693 C689 1.376 . S
N693 C692 1.374 . S
N693 Co694 2.008 1_655 S
Co694 N693 2.008 1_455 S
Co694 N695 1.995 1_454 S
Co694 N700 2.008 1_554 S
Co694 N705 1.995 . S
Co694 N710 2.282 1_454 S
Co694 N716 2.283 . S
N695 Co694 1.995 1_656 S
N695 C696 1.376 . S
N695 C699 1.383 1_655 S
C696 N695 1.376 . S
C696 C697 1.446 . S
C696 C726 1.391 1_556 S
C697 C696 1.446 . S
C697 C698 1.339 1_655 S
C697 H732 0.949 . S
C698 C697 1.339 1_455 S
C698 C699 1.439 . S
C698 H733 0.950 . S
C699 N695 1.383 1_455 S
C699 C698 1.439 . S
C699 C728 1.392 . S
N700 Co694 2.008 1_556 S
N700 C701 1.376 . S
N700 C704 1.374 . S
C701 N700 1.376 . S
C701 C702 1.443 . S
C701 C728 1.389 . S
C702 C701 1.443 . S
C702 C703 1.340 . S
C702 H734 0.951 . S
C703 C702 1.340 . S
C703 C704 1.439 . S
C703 H735 0.950 . S
C704 N700 1.374 . S
C704 C703 1.439 . S
C704 C729 1.395 . S
N705 Co694 1.995 . S
N705 C706 1.376 . S
N705 C709 1.383 1_455 S
C706 N705 1.376 . S
C706 C707 1.446 . S
C706 C729 1.391 1_554 S
C707 C706 1.446 . S
C707 C708 1.339 1_455 S
C707 H736 0.949 . S
C708 C707 1.339 1_655 S
C708 C709 1.439 . S
C708 H737 0.950 . S
C709 N705 1.383 1_655 S
C709 C708 1.439 . S
C709 C727 1.392 . S
N710 Co694 2.282 1_656 S
N710 C713 1.332 1_655 S
N710 C715 1.332 . S
C711 C712 1.386 1_655 S
C711 C714 1.388 . S
C712 C711 1.386 1_455 S
C712 C713 1.382 . S
C712 H738 0.950 . S
C713 N710 1.332 1_455 S
C713 C712 1.382 . S
C713 H724 0.952 . S
C714 C711 1.388 . S
C714 C715 1.382 . S
C714 H739 0.950 . S
C715 N710 1.332 . S
C715 C714 1.382 . S
C715 H725 0.948 . S
N716 Co694 2.283 . S
N716 C720 1.332 1_455 S
N716 C721 1.332 . S
C717 C718 1.388 . S
C717 C721 1.382 . S
C717 H740 0.950 . S
C718 C717 1.388 . S
C718 C719 1.386 1_455 S
C719 C718 1.386 1_655 S
C719 C720 1.382 . S
C719 H741 0.950 . S
C720 N716 1.332 1_655 S
C720 C719 1.382 . S
C720 H722 0.952 . S
C721 N716 1.332 . S
C721 C717 1.382 . S
C721 H723 0.948 . S
H722 C720 0.952 . S
H723 C721 0.948 . S
H724 C713 0.952 . S
H725 C715 0.948 . S
C726 C692 1.395 . S
C726 C696 1.391 1_554 S
C727 C689 1.389 . S
C727 C709 1.392 . S
C728 C699 1.392 . S
C728 C701 1.389 . S
C729 C704 1.395 . S
C729 C706 1.391 1_556 S
H730 C690 0.951 . S
H731 C691 0.950 . S
H732 C697 0.949 . S
H733 C698 0.950 . S
H734 C702 0.951 . S
H735 C703 0.950 . S
H736 C707 0.949 . S
H737 C708 0.950 . S
H738 C712 0.950 . S
H739 C714 0.950 . S
H740 C717 0.950 . S
H741 C719 0.950 . S
C742 C743 1.443 . S
C742 N746 1.376 . S
C742 C780 1.389 . S
C743 C742 1.443 . S
C743 C744 1.340 . S
C743 H783 0.951 . S
C744 C743 1.340 . S
C744 C745 1.439 . S
C744 H784 0.950 . S
C745 C744 1.439 . S
C745 N746 1.374 . S
C745 C779 1.395 1_554 S
N746 C742 1.376 . S
N746 C745 1.374 . S
N746 Co747 2.008 . S
Co747 N746 2.008 . S
Co747 N748 1.995 1_554 S
Co747 N753 2.008 1_554 S
Co747 N758 1.995 . S
Co747 N763 2.282 1_554 S
Co747 N769 2.282 . S
N748 Co747 1.995 1_556 S
N748 C749 1.376 . S
N748 C752 1.383 . S
C749 N748 1.376 . S
C749 C750 1.446 . S
C749 C779 1.391 . S
C750 C749 1.446 . S
C750 C751 1.339 . S
C750 H785 0.949 . S
C751 C750 1.339 . S
C751 C752 1.439 . S
C751 H786 0.950 . S
C752 N748 1.383 . S
C752 C751 1.439 . S
C752 C781 1.392 . S
N753 Co747 2.008 1_556 S
N753 C754 1.376 . S
N753 C757 1.374 . S
C754 N753 1.376 . S
C754 C755 1.443 . S
C754 C781 1.389 . S
C755 C754 1.443 . S
C755 C756 1.340 . S
C755 H787 0.951 . S
C756 C755 1.340 . S
C756 C757 1.439 . S
C756 H788 0.950 . S
C757 N753 1.374 . S
C757 C756 1.439 . S
C757 C782 1.395 1_556 S
N758 Co747 1.995 . S
N758 C759 1.376 . S
N758 C762 1.383 . S
C759 N758 1.376 . S
C759 C760 1.446 . S
C759 C782 1.391 . S
C760 C759 1.446 . S
C760 C761 1.339 . S
C760 H789 0.949 . S
C761 C760 1.339 . S
C761 C762 1.439 . S
C761 H790 0.950 . S
C762 N758 1.383 . S
C762 C761 1.439 . S
C762 C780 1.392 . S
N763 Co747 2.282 1_556 S
N763 C766 1.332 . S
N763 C768 1.332 . S
C764 C765 1.386 . S
C764 C767 1.388 . S
C765 C764 1.386 . S
C765 C766 1.382 . S
C765 H791 0.950 . S
C766 N763 1.332 . S
C766 C765 1.382 . S
C766 H777 0.952 . S
C767 C764 1.388 . S
C767 C768 1.382 . S
C767 H792 0.950 . S
C768 N763 1.332 . S
C768 C767 1.382 . S
C768 H778 0.948 . S
N769 Co747 2.282 . S
N769 C773 1.332 . S
N769 C774 1.332 . S
C770 C771 1.388 . S
C770 C774 1.382 . S
C770 H793 0.950 . S
C771 C770 1.388 . S
C771 C772 1.386 . S
C772 C771 1.386 . S
C772 C773 1.382 . S
C772 H794 0.950 . S
C773 N769 1.332 . S
C773 C772 1.382 . S
C773 H775 0.952 . S
C774 N769 1.332 . S
C774 C770 1.382 . S
C774 H776 0.948 . S
H775 C773 0.952 . S
H776 C774 0.948 . S
H777 C766 0.952 . S
H778 C768 0.948 . S
C779 C745 1.395 1_556 S
C779 C749 1.391 . S
C780 C742 1.389 . S
C780 C762 1.392 . S
C781 C752 1.392 . S
C781 C754 1.389 . S
C782 C757 1.395 1_554 S
C782 C759 1.391 . S
H783 C743 0.951 . S
H784 C744 0.950 . S
H785 C750 0.949 . S
H786 C751 0.950 . S
H787 C755 0.951 . S
H788 C756 0.950 . S
H789 C760 0.949 . S
H790 C761 0.950 . S
H791 C765 0.950 . S
H792 C767 0.950 . S
H793 C770 0.950 . S
H794 C772 0.950 . S
C795 C796 1.443 . S
C795 N799 1.376 . S
C795 C833 1.389 . S
C796 C795 1.443 . S
C796 C797 1.340 . S
C796 H836 0.951 . S
C797 C796 1.340 . S
C797 C798 1.439 . S
C797 H837 0.950 . S
C798 C797 1.439 . S
C798 N799 1.374 . S
C798 C832 1.395 . S
N799 C795 1.376 . S
N799 C798 1.374 . S
N799 Co800 2.008 1_655 S
Co800 N799 2.008 1_455 S
Co800 N801 1.995 . S
Co800 N806 2.008 . S
Co800 N811 1.995 1_455 S
Co800 N816 2.282 1_455 S
Co800 N822 2.282 . S
N801 Co800 1.995 . S
N801 C802 1.376 1_455 S
N801 C805 1.383 . S
C802 N801 1.376 1_655 S
C802 C803 1.446 . S
C802 C832 1.391 . S
C803 C802 1.446 . S
C803 C804 1.339 1_655 S
C803 H838 0.949 . S
C804 C803 1.339 1_455 S
C804 C805 1.439 . S
C804 H839 0.950 . S
C805 N801 1.383 . S
C805 C804 1.439 . S
C805 C834 1.392 . S
N806 Co800 2.008 . S
N806 C807 1.376 . S
N806 C810 1.374 . S
C807 N806 1.376 . S
C807 C808 1.443 . S
C807 C834 1.389 . S
C808 C807 1.443 . S
C808 C809 1.340 . S
C808 H840 0.951 . S
C809 C808 1.340 . S
C809 C810 1.439 . S
C809 H841 0.950 . S
C810 N806 1.374 . S
C810 C809 1.439 . S
C810 C835 1.395 . S
N811 Co800 1.995 1_655 S
N811 C812 1.376 1_655 S
N811 C815 1.383 . S
C812 N811 1.376 1_455 S
C812 C813 1.446 . S
C812 C835 1.391 . S
C813 C812 1.446 . S
C813 C814 1.339 1_455 S
C813 H842 0.949 . S
C814 C813 1.339 1_655 S
C814 C815 1.439 . S
C814 H843 0.950 . S
C815 N811 1.383 . S
C815 C814 1.439 . S
C815 C833 1.392 . S
N816 Co800 2.282 1_655 S
N816 C819 1.332 1_655 S
N816 C821 1.332 . S
C817 C818 1.386 1_655 S
C817 C820 1.388 . S
C818 C817 1.386 1_455 S
C818 C819 1.382 . S
C818 H844 0.950 . S
C819 N816 1.332 1_455 S
C819 C818 1.382 . S
C819 H830 0.952 . S
C820 C817 1.388 . S
C820 C821 1.382 . S
C820 H845 0.950 . S
C821 N816 1.332 . S
C821 C820 1.382 . S
C821 H831 0.948 . S
N822 Co800 2.282 . S
N822 C826 1.332 1_455 S
N822 C827 1.332 . S
C823 C824 1.388 . S
C823 C827 1.382 . S
C823 H846 0.950 . S
C824 C823 1.388 . S
C824 C825 1.386 1_455 S
C825 C824 1.386 1_655 S
C825 C826 1.382 . S
C825 H847 0.950 . S
C826 N822 1.332 1_655 S
C826 C825 1.382 . S
C826 H828 0.952 . S
C827 N822 1.332 . S
C827 C823 1.382 . S
C827 H829 0.948 . S
H828 C826 0.952 . S
H829 C827 0.948 . S
H830 C819 0.952 . S
H831 C821 0.948 . S
C832 C798 1.395 . S
C832 C802 1.391 . S
C833 C795 1.389 . S
C833 C815 1.392 . S
C834 C805 1.392 . S
C834 C807 1.389 . S
C835 C810 1.395 . S
C835 C812 1.391 . S
H836 C796 0.951 . S
H837 C797 0.950 . S
H838 C803 0.949 . S
H839 C804 0.950 . S
H840 C808 0.951 . S
H841 C809 0.950 . S
H842 C813 0.949 . S
H843 C814 0.950 . S
H844 C818 0.950 . S
H845 C820 0.950 . S
H846 C823 0.950 . S
H847 C825 0.950 . S
C848 C849 1.369 1_545 S
C848 C850 1.419 . S
C848 H852 0.930 . S
C849 C848 1.369 1_565 S
C849 C858 1.429 1_655 S
C850 C848 1.419 . S
C850 C851 1.363 . S
C850 H853 0.929 . S
C851 C850 1.363 . S
C851 C857 1.428 1_645 S
H852 C848 0.930 . S
H853 C850 0.929 . S
S854 N855 1.613 . S
S854 N856 1.610 . S
N855 S854 1.613 . S
N855 C858 1.350 . S
N856 S854 1.610 . S
N856 C857 1.351 . S
C857 C851 1.428 1_465 S
C857 N856 1.351 . S
C857 C858 1.434 . S
C858 C849 1.429 1_455 S
C858 N855 1.350 . S
C858 C857 1.434 . S
C859 C860 1.369 . S
C859 C861 1.419 . S
C859 H863 0.930 . S
C860 C859 1.369 . S
C860 C869 1.429 . S
C861 C859 1.419 . S
C861 C862 1.363 . S
C861 H864 0.929 . S
C862 C861 1.363 . S
C862 C868 1.428 . S
H863 C859 0.930 . S
H864 C861 0.929 . S
S865 N866 1.613 . S
S865 N867 1.610 . S
N866 S865 1.613 . S
N866 C869 1.350 . S
N867 S865 1.610 . S
N867 C868 1.351 . S
C868 C862 1.428 . S
C868 N867 1.351 . S
C868 C869 1.434 . S
C869 C860 1.429 . S
C869 N866 1.350 . S
C869 C868 1.434 . S
C870 C871 1.369 1_545 S
C870 C872 1.419 . S
C870 H874 0.930 . S
C871 C870 1.369 1_565 S
C871 C880 1.429 . S
C872 C870 1.419 . S
C872 C873 1.363 . S
C872 H875 0.929 . S
C873 C872 1.363 . S
C873 C879 1.428 1_545 S
H874 C870 0.930 . S
H875 C872 0.929 . S
S876 N877 1.613 . S
S876 N878 1.610 . S
N877 S876 1.613 . S
N877 C880 1.350 . S
N878 S876 1.610 . S
N878 C879 1.351 . S
C879 C873 1.428 1_565 S
C879 N878 1.351 . S
C879 C880 1.434 . S
C880 C871 1.429 . S
C880 N877 1.350 . S
C880 C879 1.434 . S
C881 C882 1.369 . S
C881 C883 1.419 1_556 S
C881 H885 0.930 . S
C882 C881 1.369 . S
C882 C891 1.429 1_556 S
C883 C881 1.419 1_554 S
C883 C884 1.363 . S
C883 H886 0.929 . S
C884 C883 1.363 . S
C884 C890 1.428 . S
H885 C881 0.930 . S
H886 C883 0.929 . S
S887 N888 1.613 1_554 S
S887 N889 1.610 . S
N888 S887 1.613 1_556 S
N888 C891 1.350 1_556 S
N889 S887 1.610 . S
N889 C890 1.351 . S
C890 C884 1.428 . S
C890 N889 1.351 . S
C890 C891 1.434 . S
C891 C882 1.429 1_554 S
C891 N888 1.350 1_554 S
C891 C890 1.434 . S
C892 C893 1.369 1_655 S
C892 C894 1.419 1_565 S
C892 H896 0.930 . S
C893 C892 1.369 1_455 S
C893 C902 1.429 . S
C894 C892 1.419 1_545 S
C894 C895 1.363 1_655 S
C894 H897 0.929 . S
C895 C894 1.363 1_455 S
C895 C901 1.428 . S
H896 C892 0.930 . S
H897 C894 0.929 . S
S898 N899 1.613 . S
S898 N900 1.610 1_565 S
N899 S898 1.613 . S
N899 C902 1.350 . S
N900 S898 1.610 1_545 S
N900 C901 1.351 . S
C901 C895 1.428 . S
C901 N900 1.351 . S
C901 C902 1.434 1_545 S
C902 C893 1.429 . S
C902 N899 1.350 . S
C902 C901 1.434 1_565 S
C903 C904 1.369 . S
C903 C905 1.419 . S
C903 H907 0.930 . S
C904 C903 1.369 . S
C904 C913 1.429 . S
C905 C903 1.419 . S
C905 C906 1.363 . S
C905 H908 0.929 . S
C906 C905 1.363 . S
C906 C912 1.428 . S
H907 C903 0.930 . S
H908 C905 0.929 . S
S909 N910 1.613 . S
S909 N911 1.610 . S
N910 S909 1.613 . S
N910 C913 1.350 . S
N911 S909 1.610 . S
N911 C912 1.351 . S
C912 C906 1.428 . S
C912 N911 1.351 . S
C912 C913 1.434 . S
C913 C904 1.429 . S
C913 N910 1.350 . S
C913 C912 1.434 . S
C914 C915 1.369 1_565 S
C914 C916 1.419 . S
C914 H918 0.930 . S
C915 C914 1.369 1_545 S
C915 C924 1.429 . S
C916 C914 1.419 . S
C916 C917 1.363 . S
C916 H919 0.929 . S
C917 C916 1.363 . S
C917 C923 1.428 1_565 S
H918 C914 0.930 . S
H919 C916 0.929 . S
S920 N921 1.613 . S
S920 N922 1.610 . S
N921 S920 1.613 . S
N921 C924 1.350 . S
N922 S920 1.610 . S
N922 C923 1.351 . S
C923 C917 1.428 1_545 S
C923 N922 1.351 . S
C923 C924 1.434 . S
C924 C915 1.429 . S
C924 N921 1.350 . S
C924 C923 1.434 . S
C925 C926 1.369 1_556 S
C925 C927 1.419 . S
C925 H929 0.930 . S
C926 C925 1.369 1_554 S
C926 C935 1.429 . S
C927 C925 1.419 . S
C927 C928 1.363 . S
C927 H930 0.929 . S
C928 C927 1.363 . S
C928 C934 1.428 . S
H929 C925 0.930 . S
H930 C927 0.929 . S
S931 N932 1.613 . S
S931 N933 1.610 1_554 S
N932 S931 1.613 . S
N932 C935 1.350 . S
N933 S931 1.610 1_556 S
N933 C934 1.351 . S
C934 C928 1.428 . S
C934 N933 1.351 . S
C934 C935 1.434 1_556 S
C935 C926 1.429 . S
C935 N932 1.350 . S
C935 C934 1.434 1_554 S
C936 C937 1.369 . S
C936 C938 1.419 . S
C936 H940 0.930 . S
C937 C936 1.369 . S
C937 C946 1.429 . S
C938 C936 1.419 . S
C938 C939 1.363 . S
C938 H941 0.929 . S
C939 C938 1.363 . S
C939 C945 1.428 . S
H940 C936 0.930 . S
H941 C938 0.929 . S
S942 N943 1.613 . S
S942 N944 1.610 . S
N943 S942 1.613 . S
N943 C946 1.350 . S
N944 S942 1.610 . S
N944 C945 1.351 . S
C945 C939 1.428 . S
C945 N944 1.351 . S
C945 C946 1.434 . S
C946 C937 1.429 . S
C946 N943 1.350 . S
C946 C945 1.434 . S
C947 C948 1.369 . S
C947 C949 1.419 1_556 S
C947 H951 0.930 . S
C948 C947 1.369 . S
C948 C957 1.429 . S
C949 C947 1.419 1_554 S
C949 C950 1.363 . S
C949 H952 0.929 . S
C950 C949 1.363 . S
C950 C956 1.428 . S
H951 C947 0.930 . S
H952 C949 0.929 . S
S953 N954 1.613 1_554 S
S953 N955 1.610 . S
N954 S953 1.613 1_556 S
N954 C957 1.350 . S
N955 S953 1.610 . S
N955 C956 1.351 . S
C956 C950 1.428 . S
C956 N955 1.351 . S
C956 C957 1.434 1_554 S
C957 C948 1.429 . S
C957 N954 1.350 . S
C957 C956 1.434 1_556 S
C958 C959 1.369 . S
C958 C960 1.419 . S
C958 H962 0.930 . S
C959 C958 1.369 . S
C959 C968 1.429 1_455 S
C960 C958 1.419 . S
C960 C961 1.363 . S
C960 H963 0.929 . S
C961 C960 1.363 . S
C961 C967 1.428 1_455 S
H962 C958 0.930 . S
H963 C960 0.929 . S
S964 N965 1.613 . S
S964 N966 1.610 . S
N965 S964 1.613 . S
N965 C968 1.350 . S
N966 S964 1.610 . S
N966 C967 1.351 . S
C967 C961 1.428 1_655 S
C967 N966 1.351 . S
C967 C968 1.434 . S
C968 C959 1.429 1_655 S
C968 N965 1.350 . S
C968 C967 1.434 . S
C969 C970 1.369 . S
C969 C971 1.419 . S
C969 H973 0.930 . S
C970 C969 1.369 . S
C970 C979 1.429 . S
C971 C969 1.419 . S
C971 C972 1.363 . S
C971 H974 0.929 . S
C972 C971 1.363 . S
C972 C978 1.428 . S
H973 C969 0.930 . S
H974 C971 0.929 . S
S975 N976 1.613 . S
S975 N977 1.610 . S
N976 S975 1.613 . S
N976 C979 1.350 . S
N977 S975 1.610 . S
N977 C978 1.351 . S
C978 C972 1.428 . S
C978 N977 1.351 . S
C978 C979 1.434 . S
C979 C970 1.429 . S
C979 N976 1.350 . S
C979 C978 1.434 . S
C980 C981 1.369 . S
C980 C982 1.419 . S
C980 H984 0.930 . S
C981 C980 1.369 . S
C981 C990 1.429 . S
C982 C980 1.419 . S
C982 C983 1.363 . S
C982 H985 0.929 . S
C983 C982 1.363 . S
C983 C989 1.428 . S
H984 C980 0.930 . S
H985 C982 0.929 . S
S986 N987 1.613 . S
S986 N988 1.610 . S
N987 S986 1.613 . S
N987 C990 1.350 . S
N988 S986 1.610 . S
N988 C989 1.351 . S
C989 C983 1.428 . S
C989 N988 1.351 . S
C989 C990 1.434 . S
C990 C981 1.429 . S
C990 N987 1.350 . S
C990 C989 1.434 . S
C991 C992 1.369 . S
C991 C993 1.419 1_554 S
C991 H995 0.930 . S
C992 C991 1.369 . S
C992 C1001 1.429 . S
C993 C991 1.419 1_556 S
C993 C994 1.363 . S
C993 H996 0.929 . S
C994 C993 1.363 . S
C994 C1000 1.428 . S
H995 C991 0.930 . S
H996 C993 0.929 . S
S997 N998 1.613 1_556 S
S997 N999 1.610 . S
N998 S997 1.613 1_554 S
N998 C1001 1.350 . S
N999 S997 1.610 . S
N999 C1000 1.351 . S
C1000 C994 1.428 . S
C1000 N999 1.351 . S
C1000 C1001 1.434 1_556 S
C1001 C992 1.429 . S
C1001 N998 1.350 . S
C1001 C1000 1.434 1_554 S
C1002 C1003 1.369 . S
C1002 C1004 1.419 . S
C1002 H1006 0.930 . S
C1003 C1002 1.369 . S
C1003 C1012 1.429 1_655 S
C1004 C1002 1.419 . S
C1004 C1005 1.363 . S
C1004 H1007 0.929 . S
C1005 C1004 1.363 . S
C1005 C1011 1.428 1_655 S
H1006 C1002 0.930 . S
H1007 C1004 0.929 . S
S1008 N1009 1.613 . S
S1008 N1010 1.610 . S
N1009 S1008 1.613 . S
N1009 C1012 1.350 . S
N1010 S1008 1.610 . S
N1010 C1011 1.351 . S
C1011 C1005 1.428 1_455 S
C1011 N1010 1.351 . S
C1011 C1012 1.434 . S
C1012 C1003 1.429 1_455 S
C1012 N1009 1.350 . S
C1012 C1011 1.434 . S
C1013 C1014 1.369 . S
C1013 C1015 1.419 . S
C1013 H1017 0.930 . S
C1014 C1013 1.369 . S
C1014 C1023 1.429 . S
C1015 C1013 1.419 . S
C1015 C1016 1.363 . S
C1015 H1018 0.929 . S
C1016 C1015 1.363 . S
C1016 C1022 1.428 . S
H1017 C1013 0.930 . S
H1018 C1015 0.929 . S
S1019 N1020 1.613 . S
S1019 N1021 1.610 . S
N1020 S1019 1.613 . S
N1020 C1023 1.350 . S
N1021 S1019 1.610 . S
N1021 C1022 1.351 . S
C1022 C1016 1.428 . S
C1022 N1021 1.351 . S
C1022 C1023 1.434 . S
C1023 C1014 1.429 . S
C1023 N1020 1.350 . S
C1023 C1022 1.434 . S
C1024 C1025 1.369 . S
C1024 C1026 1.419 . S
C1024 H1028 0.930 . S
C1025 C1024 1.369 . S
C1025 C1034 1.429 . S
C1026 C1024 1.419 . S
C1026 C1027 1.363 . S
C1026 H1029 0.929 . S
C1027 C1026 1.363 . S
C1027 C1033 1.428 . S
H1028 C1024 0.930 . S
H1029 C1026 0.929 . S
S1030 N1031 1.613 . S
S1030 N1032 1.610 . S
N1031 S1030 1.613 . S
N1031 C1034 1.350 . S
N1032 S1030 1.610 . S
N1032 C1033 1.351 . S
C1033 C1027 1.428 . S
C1033 N1032 1.351 . S
C1033 C1034 1.434 . S
C1034 C1025 1.429 . S
C1034 N1031 1.350 . S
C1034 C1033 1.434 . S
C1035 C1036 1.369 . S
C1035 C1037 1.419 . S
C1035 H1039 0.930 . S
C1036 C1035 1.369 . S
C1036 C1045 1.429 . S
C1037 C1035 1.419 . S
C1037 C1038 1.363 . S
C1037 H1040 0.929 . S
C1038 C1037 1.363 . S
C1038 C1044 1.428 . S
H1039 C1035 0.930 . S
H1040 C1037 0.929 . S
S1041 N1042 1.613 . S
S1041 N1043 1.610 . S
N1042 S1041 1.613 . S
N1042 C1045 1.350 . S
N1043 S1041 1.610 . S
N1043 C1044 1.351 . S
C1044 C1038 1.428 . S
C1044 N1043 1.351 . S
C1044 C1045 1.434 . S
C1045 C1036 1.429 . S
C1045 N1042 1.350 . S
C1045 C1044 1.434 . S
C1046 C1047 1.369 . S
C1046 C1048 1.419 . S
C1046 H1050 0.930 . S
C1047 C1046 1.369 . S
C1047 C1056 1.429 . S
C1048 C1046 1.419 . S
C1048 C1049 1.363 . S
C1048 H1051 0.929 . S
C1049 C1048 1.363 . S
C1049 C1055 1.428 . S
H1050 C1046 0.930 . S
H1051 C1048 0.929 . S
S1052 N1053 1.613 . S
S1052 N1054 1.610 . S
N1053 S1052 1.613 . S
N1053 C1056 1.350 . S
N1054 S1052 1.610 . S
N1054 C1055 1.351 . S
C1055 C1049 1.428 . S
C1055 N1054 1.351 . S
C1055 C1056 1.434 . S
C1056 C1047 1.429 . S
C1056 N1053 1.350 . S
C1056 C1055 1.434 . S
C1057 C1058 1.369 . S
C1057 C1059 1.419 . S
C1057 H1061 0.930 . S
C1058 C1057 1.369 . S
C1058 C1067 1.429 . S
C1059 C1057 1.419 . S
C1059 C1060 1.363 . S
C1059 H1062 0.929 . S
C1060 C1059 1.363 . S
C1060 C1066 1.428 . S
H1061 C1057 0.930 . S
H1062 C1059 0.929 . S
S1063 N1064 1.613 . S
S1063 N1065 1.610 . S
N1064 S1063 1.613 . S
N1064 C1067 1.350 . S
N1065 S1063 1.610 . S
N1065 C1066 1.351 . S
C1066 C1060 1.428 . S
C1066 N1065 1.351 . S
C1066 C1067 1.434 . S
C1067 C1058 1.429 . S
C1067 N1064 1.350 . S
C1067 C1066 1.434 . S
C1068 C1069 1.369 . S
C1068 C1070 1.419 . S
C1068 H1072 0.930 . S
C1069 C1068 1.369 . S
C1069 C1078 1.429 . S
C1070 C1068 1.419 . S
C1070 C1071 1.363 . S
C1070 H1073 0.929 . S
C1071 C1070 1.363 . S
C1071 C1077 1.428 . S
H1072 C1068 0.930 . S
H1073 C1070 0.929 . S
S1074 N1075 1.613 . S
S1074 N1076 1.610 . S
N1075 S1074 1.613 . S
N1075 C1078 1.350 . S
N1076 S1074 1.610 . S
N1076 C1077 1.351 . S
C1077 C1071 1.428 . S
C1077 N1076 1.351 . S
C1077 C1078 1.434 . S
C1078 C1069 1.429 . S
C1078 N1075 1.350 . S
C1078 C1077 1.434 . S
C1079 C1080 1.369 . S
C1079 C1081 1.419 . S
C1079 H1083 0.930 . S
C1080 C1079 1.369 . S
C1080 C1089 1.429 . S
C1081 C1079 1.419 . S
C1081 C1082 1.363 . S
C1081 H1084 0.929 . S
C1082 C1081 1.363 . S
C1082 C1088 1.428 . S
H1083 C1079 0.930 . S
H1084 C1081 0.929 . S
S1085 N1086 1.613 . S
S1085 N1087 1.610 . S
N1086 S1085 1.613 . S
N1086 C1089 1.350 . S
N1087 S1085 1.610 . S
N1087 C1088 1.351 . S
C1088 C1082 1.428 . S
C1088 N1087 1.351 . S
C1088 C1089 1.434 . S
C1089 C1080 1.429 . S
C1089 N1086 1.350 . S
C1089 C1088 1.434 . S
C1090 C1091 1.369 . S
C1090 C1092 1.419 . S
C1090 H1094 0.930 . S
C1091 C1090 1.369 . S
C1091 C1100 1.429 . S
C1092 C1090 1.419 . S
C1092 C1093 1.363 . S
C1092 H1095 0.929 . S
C1093 C1092 1.363 . S
C1093 C1099 1.428 . S
H1094 C1090 0.930 . S
H1095 C1092 0.929 . S
S1096 N1097 1.613 . S
S1096 N1098 1.610 . S
N1097 S1096 1.613 . S
N1097 C1100 1.350 . S
N1098 S1096 1.610 . S
N1098 C1099 1.351 . S
C1099 C1093 1.428 . S
C1099 N1098 1.351 . S
C1099 C1100 1.434 . S
C1100 C1091 1.429 . S
C1100 N1097 1.350 . S
C1100 C1099 1.434 . S
C1101 C1102 1.369 . S
C1101 C1103 1.419 . S
C1101 H1105 0.930 . S
C1102 C1101 1.369 . S
C1102 C1111 1.429 . S
C1103 C1101 1.419 . S
C1103 C1104 1.363 . S
C1103 H1106 0.929 . S
C1104 C1103 1.363 . S
C1104 C1110 1.428 . S
H1105 C1101 0.930 . S
H1106 C1103 0.929 . S
S1107 N1108 1.613 . S
S1107 N1109 1.610 . S
N1108 S1107 1.613 . S
N1108 C1111 1.350 . S
N1109 S1107 1.610 . S
N1109 C1110 1.351 . S
C1110 C1104 1.428 . S
C1110 N1109 1.351 . S
C1110 C1111 1.434 . S
C1111 C1102 1.429 . S
C1111 N1108 1.350 . S
C1111 C1110 1.434 . S
C1112 C1113 1.369 . S
C1112 C1114 1.419 . S
C1112 H1116 0.930 . S
C1113 C1112 1.369 . S
C1113 C1122 1.429 . S
C1114 C1112 1.419 . S
C1114 C1115 1.363 . S
C1114 H1117 0.929 . S
C1115 C1114 1.363 . S
C1115 C1121 1.428 . S
H1116 C1112 0.930 . S
H1117 C1114 0.929 . S
S1118 N1119 1.613 . S
S1118 N1120 1.610 . S
N1119 S1118 1.613 . S
N1119 C1122 1.350 . S
N1120 S1118 1.610 . S
N1120 C1121 1.351 . S
C1121 C1115 1.428 . S
C1121 N1120 1.351 . S
C1121 C1122 1.434 . S
C1122 C1113 1.429 . S
C1122 N1119 1.350 . S
C1122 C1121 1.434 . S
C1123 C1124 1.369 . S
C1123 C1125 1.419 . S
C1123 H1127 0.930 . S
C1124 C1123 1.369 . S
C1124 C1133 1.429 . S
C1125 C1123 1.419 . S
C1125 C1126 1.363 . S
C1125 H1128 0.929 . S
C1126 C1125 1.363 . S
C1126 C1132 1.428 . S
H1127 C1123 0.930 . S
H1128 C1125 0.929 . S
S1129 N1130 1.613 . S
S1129 N1131 1.610 . S
N1130 S1129 1.613 . S
N1130 C1133 1.350 . S
N1131 S1129 1.610 . S
N1131 C1132 1.351 . S
C1132 C1126 1.428 . S
C1132 N1131 1.351 . S
C1132 C1133 1.434 . S
C1133 C1124 1.429 . S
C1133 N1130 1.350 . S
C1133 C1132 1.434 . S
C1134 C1135 1.369 . S
C1134 C1136 1.419 . S
C1134 H1138 0.930 . S
C1135 C1134 1.369 . S
C1135 C1144 1.429 . S
C1136 C1134 1.419 . S
C1136 C1137 1.363 . S
C1136 H1139 0.929 . S
C1137 C1136 1.363 . S
C1137 C1143 1.428 . S
H1138 C1134 0.930 . S
H1139 C1136 0.929 . S
S1140 N1141 1.613 . S
S1140 N1142 1.610 . S
N1141 S1140 1.613 . S
N1141 C1144 1.350 . S
N1142 S1140 1.610 . S
N1142 C1143 1.351 . S
C1143 C1137 1.428 . S
C1143 N1142 1.351 . S
C1143 C1144 1.434 . S
C1144 C1135 1.429 . S
C1144 N1141 1.350 . S
C1144 C1143 1.434 . S
C1145 C1146 1.369 . S
C1145 C1147 1.419 . S
C1145 H1149 0.930 . S
C1146 C1145 1.369 . S
C1146 C1155 1.429 . S
C1147 C1145 1.419 . S
C1147 C1148 1.363 . S
C1147 H1150 0.929 . S
C1148 C1147 1.363 . S
C1148 C1154 1.428 . S
H1149 C1145 0.930 . S
H1150 C1147 0.929 . S
S1151 N1152 1.613 . S
S1151 N1153 1.610 . S
N1152 S1151 1.613 . S
N1152 C1155 1.350 . S
N1153 S1151 1.610 . S
N1153 C1154 1.351 . S
C1154 C1148 1.428 . S
C1154 N1153 1.351 . S
C1154 C1155 1.434 . S
C1155 C1146 1.429 . S
C1155 N1152 1.350 . S
C1155 C1154 1.434 . S
C1156 C1157 1.369 . S
C1156 C1158 1.419 . S
C1156 H1160 0.930 . S
C1157 C1156 1.369 . S
C1157 C1166 1.429 . S
C1158 C1156 1.419 . S
C1158 C1159 1.363 . S
C1158 H1161 0.929 . S
C1159 C1158 1.363 . S
C1159 C1165 1.428 . S
H1160 C1156 0.930 . S
H1161 C1158 0.929 . S
S1162 N1163 1.613 . S
S1162 N1164 1.610 . S
N1163 S1162 1.613 . S
N1163 C1166 1.350 . S
N1164 S1162 1.610 . S
N1164 C1165 1.351 . S
C1165 C1159 1.428 . S
C1165 N1164 1.351 . S
C1165 C1166 1.434 . S
C1166 C1157 1.429 . S
C1166 N1163 1.350 . S
C1166 C1165 1.434 . S
C1167 C1168 1.369 . S
C1167 C1169 1.419 . S
C1167 H1171 0.930 . S
C1168 C1167 1.369 . S
C1168 C1177 1.429 . S
C1169 C1167 1.419 . S
C1169 C1170 1.363 . S
C1169 H1172 0.929 . S
C1170 C1169 1.363 . S
C1170 C1176 1.428 . S
H1171 C1167 0.930 . S
H1172 C1169 0.929 . S
S1173 N1174 1.613 . S
S1173 N1175 1.610 . S
N1174 S1173 1.613 . S
N1174 C1177 1.350 . S
N1175 S1173 1.610 . S
N1175 C1176 1.351 . S
C1176 C1170 1.428 . S
C1176 N1175 1.351 . S
C1176 C1177 1.434 . S
C1177 C1168 1.429 . S
C1177 N1174 1.350 . S
C1177 C1176 1.434 . S
C1178 C1179 1.369 . S
C1178 C1180 1.419 . S
C1178 H1182 0.930 . S
C1179 C1178 1.369 . S
C1179 C1188 1.429 . S
C1180 C1178 1.419 . S
C1180 C1181 1.363 . S
C1180 H1183 0.929 . S
C1181 C1180 1.363 . S
C1181 C1187 1.428 . S
H1182 C1178 0.930 . S
H1183 C1180 0.929 . S
S1184 N1185 1.613 . S
S1184 N1186 1.610 . S
N1185 S1184 1.613 . S
N1185 C1188 1.350 . S
N1186 S1184 1.610 . S
N1186 C1187 1.351 . S
C1187 C1181 1.428 . S
C1187 N1186 1.351 . S
C1187 C1188 1.434 . S
C1188 C1179 1.429 . S
C1188 N1185 1.350 . S
C1188 C1187 1.434 . S
C1189 C1190 1.369 . S
C1189 C1191 1.419 . S
C1189 H1193 0.930 . S
C1190 C1189 1.369 . S
C1190 C1199 1.429 . S
C1191 C1189 1.419 . S
C1191 C1192 1.363 . S
C1191 H1194 0.929 . S
C1192 C1191 1.363 . S
C1192 C1198 1.428 . S
H1193 C1189 0.930 . S
H1194 C1191 0.929 . S
S1195 N1196 1.613 . S
S1195 N1197 1.610 . S
N1196 S1195 1.613 . S
N1196 C1199 1.350 . S
N1197 S1195 1.610 . S
N1197 C1198 1.351 . S
C1198 C1192 1.428 . S
C1198 N1197 1.351 . S
C1198 C1199 1.434 . S
C1199 C1190 1.429 . S
C1199 N1196 1.350 . S
C1199 C1198 1.434 . S
C849 C38 2.273 . S
C851 C251 2.275 . S
C860 C82 0.744 . S
C862 C294 0.746 . S
C871 C347 0.659 . S
C873 C135 0.644 . S
C882 C188 1.458 . S
C884 C410 1.458 . S
C893 C250 2.277 . S
C895 C39 2.272 . S
C904 C552 0.751 . S
C906 C446 0.739 . S
C915 C340 0.659 . S
C917 C128 0.644 . S
C926 C499 1.455 . S
C928 C621 1.460 . S
C937 C674 1.500 . S
C939 C764 1.502 . S
C948 C453 0.620 . S
C950 C559 0.624 . S
C959 C718 0.644 . S
C961 C824 0.640 . S
C970 C622 1.478 . S
C972 C506 1.479 . S
C981 C771 1.502 . S
C983 C675 1.500 . S
C992 C75 0.624 . S
C994 C287 0.623 . S
C1003 C711 0.636 . S
C1005 C817 0.646 . S
C1014 C409 1.477 . S
C1016 C181 1.478 . S
C1025 C29 1.287 . S
C1027 C393 1.291 . S
C1036 C234 1.493 . S
C1038 C91 1.491 . S
C1047 C303 2.001 . S
C1049 C144 2.005 . S
C1058 C197 1.678 . S
C1060 C356 1.679 . S
C1069 C22 1.288 . S
C1071 C612 1.291 . S
C1080 C463 1.494 . S
C1082 C241 1.490 . S
C1091 C569 2.001 . S
C1093 C145 2.002 . S
C1102 C516 1.681 . S
C1104 C357 1.680 . S
C1113 C665 1.314 . S
C1115 C605 1.319 . S
C1124 C781 1.541 . S
C1126 C462 1.542 . S
C1135 C568 2.009 . S
C1137 C727 2.010 . S
C1146 C833 1.680 . S
C1148 C515 1.678 . S
C1157 C400 1.319 . S
C1159 C658 1.316 . S
C1168 C780 1.546 . S
C1170 C92 1.537 . S
C1179 C304 2.009 . S
C1181 C728 2.006 . S
C1190 C834 1.676 . S
C1192 C198 1.678 . S
