# Generated by pormake.
# Topology unh, (4)-cn, num edge types: 1
# Building blocks:
#     Node 0, Type 0, BuildingBlock: CEKHIL_clean_sbu_0, # of connection points: 4
#     Node 1, Type 0, BuildingBlock: CEKHIL_clean_sbu_0, # of connection points: 4
#     Node 2, Type 0, BuildingBlock: CEKHIL_clean_sbu_0, # of connection points: 4
#     Node 3, Type 0, BuildingBlock: CEKHIL_clean_sbu_0, # of connection points: 4
#     Node 4, Type 0, BuildingBlock: CEKHIL_clean_sbu_0, # of connection points: 4
#     Node 5, Type 0, BuildingBlock: CEKHIL_clean_sbu_0, # of connection points: 4
#     Edge 6, Type (0, 0), BuildingBlock: FUNLAD_clean_linker_1, # of connection points: 2
#     Edge 7, Type (0, 0), BuildingBlock: FUNLAD_clean_linker_1, # of connection points: 2
#     Edge 8, Type (0, 0), BuildingBlock: FUNLAD_clean_linker_1, # of connection points: 2
#     Edge 9, Type (0, 0), BuildingBlock: FUNLAD_clean_linker_1, # of connection points: 2
#     Edge 10, Type (0, 0), BuildingBlock: FUNLAD_clean_linker_1, # of connection points: 2
#     Edge 11, Type (0, 0), BuildingBlock: FUNLAD_clean_linker_1, # of connection points: 2
#     Edge 12, Type (0, 0), BuildingBlock: FUNLAD_clean_linker_1, # of connection points: 2
#     Edge 13, Type (0, 0), BuildingBlock: FUNLAD_clean_linker_1, # of connection points: 2
#     Edge 14, Type (0, 0), BuildingBlock: FUNLAD_clean_linker_1, # of connection points: 2
#     Edge 15, Type (0, 0), BuildingBlock: FUNLAD_clean_linker_1, # of connection points: 2
#     Edge 16, Type (0, 0), BuildingBlock: FUNLAD_clean_linker_1, # of connection points: 2
#     Edge 17, Type (0, 0), BuildingBlock: FUNLAD_clean_linker_1, # of connection points: 2
# Relax obj value: 0.073
# Max RMSD: 0.185
# Mean RMSD: 0.184
data_MOF--net-unh--node1-CEKHIL_clean_sbu_0--edge1-FUNLAD_clean_linker_1
_symmetry_space_group_name_H-M    P1
_symmetry_Int_Tables_number       1
_symmetry_cell_setting            triclinic
loop_
_symmetry_equiv_pos_as_xyz
'x, y, z'
_cell_length_a     43.485476
_cell_length_b     43.484948
_cell_length_c     22.917313
_cell_angle_alpha  90.249916
_cell_angle_beta   89.787817
_cell_angle_gamma 120.0011
loop_
_atom_site_label
_atom_site_type_symbol
_atom_site_fract_x
_atom_site_fract_y
_atom_site_fract_z
_atom_type_partial_charge
Co0 Co 0.13248 0.55947 0.12631 0.0
O1 O 0.0928 0.52906 0.1757 0.0
O2 O 0.10293 0.58063 0.14093 0.0
C3 C 0.17409 0.55649 0.18065 0.0
O4 O 0.17185 0.59883 0.07641 0.0
Co5 Co 0.17608 0.53025 0.06374 0.0
O6 O 0.21129 0.58126 0.0547 0.0
C7 C 0.10896 0.51818 0.01107 0.0
C8 C 0.08356 0.55312 0.1735 0.0
C9 C 0.20215 0.60485 0.05616 0.0
O10 O 0.10429 0.53488 0.05366 0.0
O11 O 0.13534 0.51292 0.00758 0.0
O12 O 0.16293 0.57817 0.19462 0.0
O13 O 0.15752 0.53493 0.13802 0.0
Co14 Co 0.57343 0.12717 0.26695 0.0
O15 O 0.56191 0.08788 0.31833 0.0
O16 O 0.5227 0.10097 0.28238 0.0
C17 C 0.61861 0.1686 0.32118 0.0
O18 O 0.57609 0.1666 0.21484 0.0
Co19 Co 0.64657 0.16506 0.20557 0.0
O20 O 0.63307 0.20121 0.18712 0.0
C21 C 0.59014 0.09698 0.15785 0.0
C22 C 0.52937 0.08124 0.31663 0.0
C23 C 0.60113 0.19471 0.19034 0.0
O24 O 0.56813 0.09677 0.19594 0.0
O25 O 0.62316 0.12045 0.15711 0.0
O26 O 0.58597 0.15906 0.33329 0.0
O27 O 0.62313 0.15034 0.28061 0.0
Co28 Co 0.46103 0.58434 0.43711 0.0
O29 O 0.49568 0.58764 0.49252 0.0
O30 O 0.44789 0.53747 0.46614 0.0
C31 C 0.45461 0.62852 0.47623 0.0
O32 O 0.41837 0.57078 0.38378 0.0
Co33 Co 0.47824 0.64499 0.35303 0.0
O34 O 0.42626 0.62071 0.34163 0.0
C35 C 0.50306 0.59532 0.32327 0.0
C36 C 0.47615 0.55358 0.49857 0.0
C37 C 0.40685 0.58795 0.35385 0.0
O38 O 0.48891 0.57872 0.37099 0.0
O39 O 0.50266 0.62337 0.30783 0.0
O40 O 0.43759 0.59659 0.4969 0.0
O41 O 0.47784 0.63416 0.43568 0.0
Co42 Co 0.87051 0.43524 0.63019 0.0
O43 O 0.9064 0.46817 0.68341 0.0
O44 O 0.90078 0.41692 0.65473 0.0
C45 C 0.82409 0.43528 0.67525 0.0
O46 O 0.83666 0.39347 0.57849 0.0
Co47 Co 0.82793 0.45731 0.55212 0.0
O48 O 0.79929 0.40636 0.53162 0.0
C49 C 0.90042 0.47661 0.51618 0.0
C50 C 0.91705 0.44518 0.6871 0.0
C51 C 0.80996 0.38482 0.5447 0.0
O52 O 0.90244 0.46 0.56102 0.0
O53 O 0.87352 0.48031 0.50593 0.0
O54 O 0.83679 0.4158 0.69375 0.0
O55 O 0.84152 0.45686 0.63289 0.0
Co56 Co 0.41216 0.87255 0.76575 0.0
O57 O 0.41084 0.90887 0.81267 0.0
O58 O 0.45934 0.90596 0.795 0.0
C59 C 0.36457 0.82655 0.80959 0.0
O60 O 0.42398 0.83864 0.7213 0.0
Co61 Co 0.34933 0.82299 0.6853 0.0
O62 O 0.37587 0.79749 0.67297 0.0
C63 C 0.40121 0.8956 0.64535 0.0
C64 C 0.44443 0.92156 0.8219 0.0
C65 C 0.4081 0.8107 0.68881 0.0
O66 O 0.42002 0.90136 0.69191 0.0
O67 O 0.3716 0.86714 0.63654 0.0
O68 O 0.39593 0.84042 0.83266 0.0
O69 O 0.36234 0.84217 0.76332 0.0
Co70 Co 0.54641 0.41614 0.93367 0.0
O71 O 0.51593 0.42363 0.98568 0.0
O72 O 0.56891 0.46607 0.9572 0.0
C73 C 0.54065 0.36749 0.97936 0.0
O74 O 0.58508 0.41695 0.88056 0.0
Co75 Co 0.51156 0.3459 0.86105 0.0
O76 O 0.56093 0.36414 0.83357 0.0
C77 C 0.4993 0.40392 0.82741 0.0
C78 C 0.54043 0.45666 0.98831 0.0
C79 C 0.5871 0.39482 0.84504 0.0
O80 O 0.5231 0.42481 0.8641 0.0
O81 O 0.48809 0.37061 0.82416 0.0
O82 O 0.56331 0.39906 0.99811 0.0
O83 O 0.52 0.3664 0.9382 0.0
H84 H 0.09635 0.50767 0.91785 0.0
C85 C 0.08496 0.50744 0.96025 0.0
H86 H 0.03935 0.49797 0.00671 0.0
H87 H 0.95323 0.5215 0.8119 0.0
H88 H 0.95735 0.56187 0.88808 0.0
H89 H 0.99506 0.57228 0.97432 0.0
H90 H 0.02808 0.5416 0.98555 0.0
C91 C 0.05056 0.49832 0.9641 0.0
C92 C 0.02816 0.49203 0.91082 0.0
C93 C 0.01017 0.51148 0.90356 0.0
C94 C 0.98983 0.50684 0.85224 0.0
C95 C 0.97035 0.52495 0.84837 0.0
C96 C 0.97225 0.54815 0.89211 0.0
C97 C 0.99338 0.55391 0.94073 0.0
C98 C 0.01213 0.5359 0.94666 0.0
H99 H 0.93995 0.42434 0.75036 0.0
C100 C 0.943 0.44863 0.73168 0.0
H101 H 0.97044 0.50427 0.73267 0.0
H102 H 0.05033 0.44302 0.91585 0.0
H103 H 0.05191 0.40739 0.83546 0.0
H104 H 0.02862 0.40989 0.73865 0.0
H105 H 0.0018 0.44639 0.72281 0.0
C106 C 0.96792 0.48043 0.75239 0.0
C107 C 0.98923 0.48447 0.80622 0.0
C108 C 0.00842 0.46612 0.81262 0.0
C109 C 0.02562 0.46792 0.86639 0.0
C110 C 0.03981 0.44517 0.87436 0.0
C111 C 0.04049 0.42423 0.82878 0.0
C112 C 0.02713 0.42542 0.77444 0.0
C113 C 0.01133 0.44613 0.76617 0.0
H114 H 0.45012 0.9649 0.87931 0.0
C115 C 0.46321 0.95042 0.86508 0.0
H116 H 0.5049 0.94017 0.88181 0.0
H117 H 0.55744 0.09552 0.01699 0.0
H118 H 0.56513 0.12017 0.91986 0.0
H119 H 0.54714 0.08138 0.83297 0.0
H120 H 0.52087 0.01757 0.84277 0.0
C121 C 0.49295 0.95625 0.89256 0.0
C122 C 0.50668 0.98034 0.9446 0.0
C123 C 0.52296 0.0177 0.9382 0.0
C124 C 0.53447 0.04022 0.98837 0.0
C125 C 0.54925 0.07726 0.98053 0.0
C126 C 0.55364 0.09177 0.92497 0.0
C127 C 0.54342 0.06992 0.87605 0.0
C128 C 0.52824 0.03332 0.88232 0.0
H129 H 0.59676 0.07058 0.08016 0.0
C130 C 0.57711 0.07052 0.10972 0.0
H131 H 0.52222 0.04809 0.12685 0.0
H132 H 0.47672 0.91004 0.97285 0.0
H133 H 0.47005 0.88547 0.06991 0.0
H134 H 0.49117 0.92454 0.15643 0.0
H135 H 0.51901 0.9885 0.14646 0.0
C136 C 0.54245 0.0489 0.0979 0.0
C137 C 0.53063 0.02547 0.04497 0.0
C138 C 0.51463 0.98816 0.05127 0.0
C139 C 0.50273 0.96562 1.00118 0.0
C140 C 0.48653 0.92844 0.00917 0.0
C141 C 0.48248 0.91396 0.06469 0.0
C142 C 0.49434 0.93595 0.11341 0.0
C143 C 0.51025 0.97262 0.10707 0.0
H144 H 0.52872 0.56358 0.30361 0.0
C145 C 0.51915 0.57997 0.28408 0.0
H146 H 0.50822 0.59791 0.20589 0.0
H147 H 0.5997 0.5716 0.02368 0.0
H148 H 0.6253 0.6355 0.01948 0.0
H149 H 0.60869 0.66691 0.09168 0.0
H150 H 0.56603 0.63462 0.16807 0.0
C151 C 0.51822 0.5819 0.22542 0.0
C152 C 0.53034 0.5627 0.185 0.0
C153 C 0.55619 0.58201 0.1414 0.0
C154 C 0.56648 0.56396 0.10043 0.0
C155 C 0.59133 0.58394 0.05633 0.0
C156 C 0.60623 0.62066 0.05338 0.0
C157 C 0.59684 0.63833 0.09398 0.0
C158 C 0.57218 0.61942 0.13754 0.0
H159 H 0.50742 0.47425 0.03357 0.0
C160 C 0.53482 0.48113 0.02594 0.0
H161 H 0.58803 0.51417 0.0519 0.0
H162 H 0.47492 0.51536 0.25418 0.0
H163 H 0.45406 0.45269 0.26462 0.0
H164 H 0.47991 0.42363 0.20562 0.0
H165 H 0.52562 0.45693 0.13389 0.0
C166 C 0.56054 0.50731 0.05797 0.0
C167 C 0.55172 0.52663 0.10374 0.0
C168 C 0.52761 0.50763 0.14969 0.0
C169 C 0.51534 0.52519 0.18795 0.0
C170 C 0.48759 0.50431 0.22759 0.0
C171 C 0.47494 0.46807 0.2335 0.0
C172 C 0.48929 0.45166 0.2 0.0
C173 C 0.51526 0.47104 0.15851 0.0
H174 H 0.95343 0.48859 0.48476 0.0
C175 C 0.93002 0.49018 0.47335 0.0
H176 H 0.90381 0.50126 0.40624 0.0
H177 H 0.07229 0.58152 0.31373 0.0
H178 H 0.08389 0.62346 0.39209 0.0
H179 H 0.0368 0.6142 0.46204 0.0
H180 H 0.97785 0.56252 0.45452 0.0
C181 C 0.9278 0.50134 0.41956 0.0
C182 C 0.95553 0.50907 0.37411 0.0
C183 C 0.98954 0.53997 0.37777 0.0
C184 C 0.0164 0.54593 0.33604 0.0
C185 C 0.05057 0.57613 0.34282 0.0
C186 C 0.05766 0.60039 0.38787 0.0
C187 C 0.03117 0.59514 0.42735 0.0
C188 C 0.99749 0.56531 0.42265 0.0
H189 H 0.04624 0.5705 0.20503 0.0
C190 C 0.05385 0.55034 0.20954 0.0
H191 H 0.04508 0.50417 0.25379 0.0
H192 H 0.89278 0.44802 0.3525 0.0
H193 H 0.8803 0.40712 0.27198 0.0
H194 H 0.92618 0.41823 0.19827 0.0
H195 H 0.9849 0.4703 0.2047 0.0
C196 C 0.03779 0.52462 0.24998 0.0
C197 C 0.00891 0.52141 0.2896 0.0
C198 C 0.97444 0.49123 0.2848 0.0
C199 C 0.9478 0.48506 0.32697 0.0
C200 C 0.91391 0.45425 0.32147 0.0
C201 C 0.90638 0.43049 0.27548 0.0
C202 C 0.93222 0.43672 0.23403 0.0
C203 C 0.96587 0.46666 0.23838 0.0
H204 H 0.48684 0.06583 0.38163 0.0
C205 C 0.50331 0.05703 0.35983 0.0
H206 H 0.52064 0.02011 0.35506 0.0
H207 H 0.50661 0.96343 0.60582 0.0
H208 H 0.56777 0.98374 0.58046 0.0
H209 H 0.5941 0.01832 0.49089 0.0
H210 H 0.55926 0.03191 0.42549 0.0
C211 C 0.50394 0.02802 0.37853 0.0
C212 C 0.48795 0.0098 0.43541 0.0
C213 C 0.50955 0.00408 0.47553 0.0
C214 C 0.49492 0.98574 0.52894 0.0
C215 C 0.51647 0.97821 0.56573 0.0
C216 C 0.55172 0.98964 0.55166 0.0
C217 C 0.5665 0.00899 0.50116 0.0
C218 C 0.54592 0.01633 0.4636 0.0
H219 H 0.40174 0.91117 0.5542 0.0
C220 C 0.41503 0.92083 0.596 0.0
H221 H 0.45755 0.96336 0.63994 0.0
H222 H 0.4361 0.00877 0.36559 0.0
H223 H 0.37702 0.99453 0.39586 0.0
H224 H 0.35603 0.97427 0.49613 0.0
H225 H 0.3935 0.96644 0.56565 0.0
C226 C 0.4436 0.95358 0.59875 0.0
C227 C 0.45933 0.975 0.54436 0.0
C228 C 0.43849 0.98283 0.50613 0.0
C229 C 0.45197 0.99809 0.45027 0.0
C230 C 0.42857 0.00056 0.41025 0.0
C231 C 0.39432 0.99193 0.42681 0.0
C232 C 0.38241 0.98028 0.4831 0.0
C233 C 0.40407 0.9756 0.5224 0.0
H234 H 0.46238 0.40007 0.75838 0.0
C235 C 0.48554 0.41866 0.78343 0.0
H236 H 0.52743 0.47174 0.78986 0.0
H237 H 0.51313 0.49272 0.51827 0.0
H238 H 0.56415 0.48421 0.51762 0.0
H239 H 0.58303 0.46716 0.60735 0.0
H240 H 0.55082 0.45824 0.69813 0.0
C241 C 0.50283 0.45306 0.76825 0.0
C242 C 0.49215 0.46503 0.71514 0.0
C243 C 0.51181 0.47104 0.66279 0.0
C244 C 0.50139 0.48163 0.61133 0.0
C245 C 0.52058 0.48587 0.55907 0.0
C246 C 0.54976 0.48077 0.55796 0.0
C247 C 0.56035 0.47111 0.60845 0.0
C248 C 0.54164 0.46614 0.6603 0.0
H249 H 0.51061 0.55081 0.56561 0.0
C250 C 0.48536 0.53531 0.54328 0.0
H251 H 0.4369 0.48675 0.54132 0.0
H252 H 0.44896 0.45594 0.80826 0.0
H253 H 0.3978 0.46431 0.80906 0.0
H254 H 0.38005 0.48335 0.72029 0.0
H255 H 0.41323 0.49406 0.63016 0.0
C256 C 0.46306 0.50196 0.56087 0.0
C257 C 0.47191 0.48722 0.61274 0.0
C258 C 0.45188 0.48059 0.6649 0.0
C259 C 0.46206 0.46955 0.71617 0.0
C260 C 0.4421 0.46391 0.76795 0.0
C261 C 0.41277 0.46876 0.76908 0.0
C262 C 0.40279 0.4795 0.7191 0.0
C263 C 0.42206 0.4855 0.66758 0.0
H264 H 0.21837 0.57918 0.24293 0.0
C265 C 0.20556 0.55903 0.20927 0.0
H266 H 0.20787 0.51921 0.15953 0.0
H267 H 0.37523 0.59508 0.19681 0.0
H268 H 0.37121 0.60227 0.09269 0.0
H269 H 0.31335 0.58346 0.04623 0.0
H270 H 0.25915 0.55708 0.10348 0.0
C271 C 0.21952 0.53863 0.19449 0.0
C272 C 0.25351 0.54523 0.2213 0.0
C273 C 0.28485 0.56015 0.18708 0.0
C274 C 0.31827 0.57154 0.21406 0.0
C275 C 0.34921 0.58655 0.17879 0.0
C276 C 0.34727 0.5907 0.11892 0.0
C277 C 0.3147 0.58007 0.09275 0.0
C278 C 0.28378 0.56496 0.12617 0.0
H279 H 0.3546 0.54012 0.33558 0.0
C280 C 0.37012 0.56879 0.33078 0.0
H281 H 0.3718 0.61482 0.29767 0.0
H282 H 0.19789 0.51118 0.29699 0.0
H283 H 0.20164 0.50427 0.4014 0.0
H284 H 0.25978 0.52767 0.4496 0.0
H285 H 0.31437 0.55743 0.39382 0.0
C286 C 0.35598 0.58625 0.30364 0.0
C287 C 0.32038 0.56825 0.27531 0.0
C288 C 0.28877 0.55158 0.30912 0.0
C289 C 0.25526 0.53942 0.28177 0.0
C290 C 0.22403 0.52194 0.31601 0.0
C291 C 0.2258 0.51764 0.37586 0.0
C292 C 0.25854 0.53072 0.40296 0.0
C293 C 0.28973 0.54762 0.37027 0.0
H294 H 0.63958 0.21317 0.3824 0.0
C295 C 0.6475 0.19892 0.3524 0.0
H296 H 0.69099 0.1962 0.31681 0.0
H297 H 0.7937 0.36049 0.37765 0.0
H298 H 0.79882 0.36 0.27219 0.0
H299 H 0.76264 0.30504 0.21574 0.0
H300 H 0.72143 0.2501 0.26444 0.0
C301 C 0.68212 0.20933 0.34738 0.0
C302 C 0.70876 0.24067 0.3818 0.0
C303 C 0.73288 0.27244 0.35275 0.0
C304 C 0.75326 0.3043 0.38527 0.0
C305 C 0.77711 0.3357 0.35503 0.0
C306 C 0.7804 0.33576 0.29453 0.0
C307 C 0.76007 0.3048 0.26276 0.0
C308 C 0.73649 0.27345 0.29126 0.0
H309 H 0.80126 0.33065 0.52901 0.0
C310 C 0.79207 0.34897 0.51779 0.0
H311 H 0.75761 0.35793 0.46517 0.0
H312 H 0.67225 0.18269 0.45177 0.0
H313 H 0.66708 0.18277 0.55735 0.0
H314 H 0.69829 0.23872 0.61327 0.0
H315 H 0.73543 0.29464 0.56439 0.0
C316 C 0.7658 0.33915 0.47847 0.0
C317 C 0.74927 0.30447 0.44678 0.0
C318 C 0.72689 0.27214 0.47623 0.0
C319 C 0.70741 0.24009 0.44375 0.0
C320 C 0.68639 0.20794 0.47424 0.0
C321 C 0.68339 0.20759 0.53479 0.0
C322 C 0.70107 0.23907 0.56628 0.0
C323 C 0.72251 0.27104 0.5376 0.0
H324 H 0.45626 0.80561 0.67886 0.0
C325 C 0.42877 0.79457 0.66549 0.0
H326 H 0.38787 0.75822 0.61021 0.0
H327 H 0.46797 0.72908 0.41538 0.0
H328 H 0.45213 0.76824 0.36514 0.0
H329 H 0.42939 0.80176 0.41978 0.0
H330 H 0.42207 0.79615 0.52497 0.0
C331 C 0.41481 0.7681 0.62568 0.0
C332 C 0.43555 0.75374 0.59557 0.0
C333 C 0.44066 0.75801 0.53424 0.0
C334 C 0.45429 0.73908 0.50271 0.0
C335 C 0.45795 0.74301 0.44138 0.0
C336 C 0.449 0.76542 0.41203 0.0
C337 C 0.43616 0.78427 0.4428 0.0
C338 C 0.43195 0.78069 0.50313 0.0
H339 H 0.42478 0.6465 0.52947 0.0
C340 C 0.44826 0.65599 0.50206 0.0
H341 H 0.49451 0.70158 0.4718 0.0
H342 H 0.43041 0.73998 0.71307 0.0
H343 H 0.45076 0.70468 0.76364 0.0
H344 H 0.47868 0.67577 0.70969 0.0
H345 H 0.48568 0.68141 0.60443 0.0
C346 C 0.47081 0.69112 0.49876 0.0
C347 C 0.46305 0.71605 0.53252 0.0
C348 C 0.46113 0.71442 0.59445 0.0
C349 C 0.44656 0.73253 0.6259 0.0
C350 C 0.44243 0.72798 0.68713 0.0
C351 C 0.45388 0.70762 0.71675 0.0
C352 C 0.46949 0.69124 0.68636 0.0
C353 C 0.47311 0.69448 0.62595 0.0
H354 H 0.61733 0.38779 0.77497 0.0
C355 C 0.62015 0.40429 0.81269 0.0
H356 H 0.65691 0.44654 0.86562 0.0
H357 H 0.73458 0.37518 0.69835 0.0
H358 H 0.69739 0.3205 0.75058 0.0
H359 H 0.65663 0.31802 0.82804 0.0
H360 H 0.65156 0.36972 0.85126 0.0
C361 C 0.65306 0.42936 0.82852 0.0
C362 C 0.6847 0.43384 0.79456 0.0
C363 C 0.69017 0.40451 0.78604 0.0
C364 C 0.71645 0.40702 0.746 0.0
C365 C 0.71744 0.37573 0.73213 0.0
C366 C 0.69587 0.34398 0.76125 0.0
C367 C 0.67276 0.34251 0.80451 0.0
C368 C 0.66983 0.37231 0.81693 0.0
H369 H 0.78993 0.42444 0.75155 0.0
C370 C 0.79456 0.43512 0.70754 0.0
H371 H 0.77602 0.45514 0.64121 0.0
H372 H 0.68241 0.49544 0.80145 0.0
H373 H 0.7231 0.55159 0.75571 0.0
H374 H 0.77278 0.55778 0.6949 0.0
H375 H 0.78177 0.50773 0.67849 0.0
C376 C 0.77182 0.44435 0.68506 0.0
C377 C 0.74073 0.44025 0.72034 0.0
C378 C 0.73626 0.47001 0.73079 0.0
C379 C 0.70799 0.46667 0.76718 0.0
C380 C 0.70362 0.49657 0.77504 0.0
C381 C 0.72679 0.52898 0.74903 0.0
C382 C 0.75475 0.53246 0.71473 0.0
C383 C 0.75959 0.50346 0.70562 0.0
H384 H 0.30774 0.78539 0.81317 0.0
C385 C 0.33304 0.79583 0.83552 0.0
H386 H 0.35965 0.79266 0.90996 0.0
H387 H 0.23097 0.71438 0.08019 0.0
H388 H 0.26127 0.77367 0.12222 0.0
H389 H 0.31027 0.82353 0.06949 0.0
H390 H 0.32947 0.81449 0.97462 0.0
C391 C 0.33471 0.78128 0.88628 0.0
C392 C 0.30263 0.75167 0.91482 0.0
C393 C 0.29125 0.75748 0.96988 0.0
C394 C 0.26268 0.7288 1.00012 0.0
C395 C 0.25241 0.73528 0.05541 0.0
C396 C 0.26954 0.76916 0.07996 0.0
C397 C 0.29715 0.79723 0.05028 0.0
C398 C 0.30798 0.79164 0.9959 0.0
H399 H 0.2538 0.64352 0.01935 0.0
C400 C 0.22744 0.63922 0.02925 0.0
H401 H 0.19298 0.66006 0.01907 0.0
H402 H 0.31831 0.73024 0.81146 0.0
H403 H 0.28569 0.67188 0.7675 0.0
H404 H 0.23332 0.62353 0.81657 0.0
H405 H 0.21374 0.6332 0.91065 0.0
C406 C 0.21901 0.66329 0.01043 0.0
C407 C 0.24541 0.69432 0.97535 0.0
C408 C 0.25538 0.68891 0.9188 0.0
C409 C 0.28455 0.71732 0.88915 0.0
C410 C 0.29546 0.71023 0.83485 0.0
C411 C 0.2771 0.6767 0.80923 0.0
C412 C 0.2477 0.64945 0.83695 0.0
C413 C 0.23688 0.6553 0.8911 0.0
H414 H 0.51832 0.30946 0.98599 0.0
C415 C 0.53843 0.33498 0.00327 0.0
H416 H 0.57965 0.36167 0.06439 0.0
H417 H 0.53859 0.23848 0.24201 0.0
H418 H 0.52407 0.27731 0.2972 0.0
H419 H 0.52384 0.32804 0.24988 0.0
H420 H 0.53837 0.34045 0.14724 0.0
C421 C 0.56032 0.33625 0.04567 0.0
C422 C 0.55725 0.30353 0.07211 0.0
C423 C 0.54795 0.29616 0.13192 0.0
C424 C 0.5476 0.26661 0.1591 0.0
C425 C 0.53905 0.26043 0.21917 0.0
C426 C 0.53063 0.28249 0.25135 0.0
C427 C 0.53053 0.31107 0.22471 0.0
C428 C 0.53903 0.31794 0.16576 0.0
H429 H 0.61604 0.24424 0.14372 0.0
C430 C 0.59357 0.22071 0.16231 0.0
H431 H 0.53799 0.19389 0.17592 0.0
H432 H 0.57846 0.31088 0.95743 0.0
H433 H 0.58988 0.27025 0.90154 0.0
H434 H 0.58443 0.21639 0.94692 0.0
H435 H 0.56834 0.20337 0.04906 0.0
C436 C 0.56098 0.21658 0.15679 0.0
C437 C 0.55643 0.24437 0.12645 0.0
C438 C 0.56386 0.25058 0.0659 0.0
C439 C 0.56519 0.28068 0.039 0.0
C440 C 0.57542 0.28762 0.97958 0.0
C441 C 0.58232 0.26461 0.94699 0.0
C442 C 0.5794 0.23438 0.97259 0.0
C443 C 0.57035 0.22734 0.03133 0.0
loop_
_geom_bond_atom_site_label_1
_geom_bond_atom_site_label_2
_geom_bond_distance
_geom_bond_site_symmetry_2
_ccdc_geom_bond_type
Co0 O1 2.216 . S
Co0 O2 2.091 . S
Co0 O4 2.004 . S
Co0 O10 2.021 . S
Co0 O12 2.137 . S
Co0 O13 2.244 . S
O1 Co0 2.216 . S
O1 C8 1.247 . S
O2 Co0 2.091 . S
O2 C8 1.261 . S
C3 O12 1.247 . S
C3 O13 1.272 . S
O4 Co0 2.004 . S
O4 C9 1.259 . S
Co5 O6 2.061 . S
Co5 O11 2.052 . S
Co5 O13 2.135 1_556 S
O6 Co5 2.061 . S
O6 C9 1.235 1_556 S
C7 O10 1.238 1_556 S
C7 O11 1.241 . S
C8 O1 1.247 . S
C8 O2 1.261 . S
C9 O4 1.259 . S
C9 O6 1.235 1_554 S
O10 Co0 2.021 . S
O10 C7 1.238 1_554 S
O11 Co5 2.052 . S
O11 C7 1.241 . S
O12 Co0 2.137 . S
O12 C3 1.247 . S
O13 Co0 2.244 . S
O13 C3 1.272 . S
O13 Co5 2.135 1_554 S
Co14 O15 2.216 . S
Co14 O16 2.091 . S
Co14 O18 2.004 . S
Co14 O24 2.021 . S
Co14 O26 2.137 . S
Co14 O27 2.244 . S
O15 Co14 2.216 . S
O15 C22 1.247 . S
O16 Co14 2.091 . S
O16 C22 1.261 . S
C17 O26 1.247 . S
C17 O27 1.272 . S
O18 Co14 2.004 . S
O18 C23 1.259 . S
Co19 O20 2.061 . S
Co19 O25 2.052 . S
Co19 O27 2.135 . S
O20 Co19 2.061 . S
O20 C23 1.235 . S
C21 O24 1.238 . S
C21 O25 1.241 . S
C22 O15 1.247 . S
C22 O16 1.261 . S
C23 O18 1.259 . S
C23 O20 1.235 . S
O24 Co14 2.021 . S
O24 C21 1.238 . S
O25 Co19 2.052 . S
O25 C21 1.241 . S
O26 Co14 2.137 . S
O26 C17 1.247 . S
O27 Co14 2.244 . S
O27 C17 1.272 . S
O27 Co19 2.135 . S
Co28 O29 2.216 . S
Co28 O30 2.091 . S
Co28 O32 2.004 . S
Co28 O38 2.021 . S
Co28 O40 2.137 . S
Co28 O41 2.244 . S
O29 Co28 2.216 . S
O29 C36 1.247 . S
O30 Co28 2.091 . S
O30 C36 1.261 . S
C31 O40 1.247 . S
C31 O41 1.272 . S
O32 Co28 2.004 . S
O32 C37 1.259 . S
Co33 O34 2.061 . S
Co33 O39 2.052 . S
Co33 O41 2.135 . S
O34 Co33 2.061 . S
O34 C37 1.235 . S
C35 O38 1.238 . S
C35 O39 1.241 . S
C36 O29 1.247 . S
C36 O30 1.261 . S
C37 O32 1.259 . S
C37 O34 1.235 . S
O38 Co28 2.021 . S
O38 C35 1.238 . S
O39 Co33 2.052 . S
O39 C35 1.241 . S
O40 Co28 2.137 . S
O40 C31 1.247 . S
O41 Co28 2.244 . S
O41 C31 1.272 . S
O41 Co33 2.135 . S
Co42 O43 2.216 . S
Co42 O44 2.091 . S
Co42 O46 2.004 . S
Co42 O52 2.021 . S
Co42 O54 2.137 . S
Co42 O55 2.244 . S
O43 Co42 2.216 . S
O43 C50 1.247 . S
O44 Co42 2.091 . S
O44 C50 1.261 . S
C45 O54 1.247 . S
C45 O55 1.272 . S
O46 Co42 2.004 . S
O46 C51 1.259 . S
Co47 O48 2.061 . S
Co47 O53 2.052 . S
Co47 O55 2.135 . S
O48 Co47 2.061 . S
O48 C51 1.235 . S
C49 O52 1.238 . S
C49 O53 1.241 . S
C50 O43 1.247 . S
C50 O44 1.261 . S
C51 O46 1.259 . S
C51 O48 1.235 . S
O52 Co42 2.021 . S
O52 C49 1.238 . S
O53 Co47 2.052 . S
O53 C49 1.241 . S
O54 Co42 2.137 . S
O54 C45 1.247 . S
O55 Co42 2.244 . S
O55 C45 1.272 . S
O55 Co47 2.135 . S
Co56 O57 2.216 . S
Co56 O58 2.091 . S
Co56 O60 2.004 . S
Co56 O66 2.021 . S
Co56 O68 2.137 . S
Co56 O69 2.244 . S
O57 Co56 2.216 . S
O57 C64 1.247 . S
O58 Co56 2.091 . S
O58 C64 1.261 . S
C59 O68 1.247 . S
C59 O69 1.272 . S
O60 Co56 2.004 . S
O60 C65 1.259 . S
Co61 O62 2.061 . S
Co61 O67 2.052 . S
Co61 O69 2.135 . S
O62 Co61 2.061 . S
O62 C65 1.235 . S
C63 O66 1.238 . S
C63 O67 1.241 . S
C64 O57 1.247 . S
C64 O58 1.261 . S
C65 O60 1.259 . S
C65 O62 1.235 . S
O66 Co56 2.021 . S
O66 C63 1.238 . S
O67 Co61 2.052 . S
O67 C63 1.241 . S
O68 Co56 2.137 . S
O68 C59 1.247 . S
O69 Co56 2.244 . S
O69 C59 1.272 . S
O69 Co61 2.135 . S
Co70 O71 2.216 . S
Co70 O72 2.091 . S
Co70 O74 2.004 . S
Co70 O80 2.021 . S
Co70 O82 2.137 . S
Co70 O83 2.244 . S
O71 Co70 2.216 . S
O71 C78 1.247 1_556 S
O72 Co70 2.091 . S
O72 C78 1.261 1_556 S
C73 O82 1.247 . S
C73 O83 1.272 . S
O74 Co70 2.004 . S
O74 C79 1.259 . S
Co75 O76 2.061 . S
Co75 O81 2.052 . S
Co75 O83 2.135 . S
O76 Co75 2.061 . S
O76 C79 1.235 . S
C77 O80 1.238 . S
C77 O81 1.241 . S
C78 O71 1.247 1_554 S
C78 O72 1.261 1_554 S
C79 O74 1.259 . S
C79 O76 1.235 . S
O80 Co70 2.021 . S
O80 C77 1.238 . S
O81 Co75 2.052 . S
O81 C77 1.241 . S
O82 Co70 2.137 . S
O82 C73 1.247 . S
O83 Co70 2.244 . S
O83 C73 1.272 . S
O83 Co75 2.135 . S
H84 C85 0.951 . S
C85 H84 0.951 . S
C85 C91 1.265 . S
H86 C91 0.950 . S
H87 C95 0.949 . S
H88 C96 0.950 . S
H89 C97 0.951 . S
H90 C98 0.951 . S
C91 C85 1.265 . S
C91 H86 0.950 . S
C91 C92 1.478 . S
C92 C91 1.478 . S
C92 C93 1.397 . S
C92 C109 1.394 . S
C93 C92 1.397 . S
C93 C94 1.438 1_455 S
C93 C98 1.429 . S
C94 C93 1.438 1_655 S
C94 C95 1.428 . S
C94 C107 1.394 . S
C95 H87 0.949 . S
C95 C94 1.428 . S
C95 C96 1.345 . S
C96 H88 0.950 . S
C96 C95 1.345 . S
C96 C97 1.424 1_655 S
C97 H89 0.951 . S
C97 C96 1.424 1_455 S
C97 C98 1.347 . S
C98 H90 0.951 . S
C98 C93 1.429 . S
C98 C97 1.347 . S
H99 C100 0.951 . S
C100 H99 0.951 . S
C100 C106 1.265 . S
H101 C106 0.950 . S
H102 C110 0.949 . S
H103 C111 0.950 . S
H104 C112 0.961 1_655 S
H105 C113 0.951 . S
C106 C100 1.265 . S
C106 H101 0.950 . S
C106 C107 1.478 . S
C107 C94 1.394 . S
C107 C106 1.478 . S
C107 C108 1.397 . S
C108 C107 1.397 . S
C108 C109 1.438 1_655 S
C108 C113 1.429 . S
C109 C92 1.394 . S
C109 C108 1.438 1_455 S
C109 C110 1.428 . S
C110 H102 0.949 . S
C110 C109 1.428 . S
C110 C111 1.345 . S
C111 H103 0.950 . S
C111 C110 1.345 . S
C111 C112 1.424 . S
C112 H104 0.961 1_455 S
C112 C111 1.424 . S
C112 C113 1.347 1_455 S
C113 H105 0.951 . S
C113 C108 1.429 . S
C113 C112 1.347 1_655 S
H114 C115 0.951 . S
C115 H114 0.951 . S
C115 C121 1.265 . S
H116 C121 0.950 . S
H117 C125 0.949 1_554 S
H118 C126 0.950 . S
H119 C127 0.951 . S
H120 C128 0.951 . S
C121 C115 1.265 . S
C121 H116 0.950 . S
C121 C122 1.478 . S
C122 C121 1.478 . S
C122 C123 1.397 1_565 S
C122 C139 1.394 1_556 S
C123 C122 1.397 1_545 S
C123 C124 1.453 . S
C123 C128 1.429 . S
C124 C123 1.453 . S
C124 C125 1.431 . S
C124 C137 1.377 1_556 S
C125 H117 0.949 1_556 S
C125 C124 1.431 . S
C125 C126 1.345 . S
C126 H118 0.950 . S
C126 C125 1.345 . S
C126 C127 1.424 . S
C127 H119 0.951 . S
C127 C126 1.424 . S
C127 C128 1.347 . S
C128 H120 0.951 . S
C128 C123 1.429 . S
C128 C127 1.347 . S
H129 C130 0.951 . S
C130 H129 0.951 . S
C130 C136 1.265 . S
H131 C136 0.950 . S
H132 C140 0.949 1_556 S
H133 C141 0.950 . S
H134 C142 0.951 . S
H135 C143 0.951 . S
C136 C130 1.265 . S
C136 H131 0.950 . S
C136 C137 1.478 . S
C137 C124 1.377 1_554 S
C137 C136 1.478 . S
C137 C138 1.397 1_545 S
C138 C137 1.397 1_565 S
C138 C139 1.438 . S
C138 C143 1.429 . S
C139 C122 1.394 1_554 S
C139 C138 1.438 . S
C139 C140 1.428 . S
C140 H132 0.949 1_554 S
C140 C139 1.428 . S
C140 C141 1.345 . S
C141 H133 0.950 . S
C141 C140 1.345 . S
C141 C142 1.424 . S
C142 H134 0.951 . S
C142 C141 1.424 . S
C142 C143 1.347 . S
C143 H135 0.951 . S
C143 C138 1.429 . S
C143 C142 1.347 . S
H144 C145 0.951 . S
C145 H144 0.951 . S
C145 C151 1.265 . S
H146 C151 0.950 . S
H147 C155 0.949 . S
H148 C156 0.950 . S
H149 C157 0.951 . S
H150 C158 0.951 . S
C151 C145 1.265 . S
C151 H146 0.950 . S
C151 C152 1.478 . S
C152 C151 1.478 . S
C152 C153 1.397 . S
C152 C169 1.394 . S
C153 C152 1.397 . S
C153 C154 1.438 . S
C153 C158 1.429 . S
C154 C153 1.438 . S
C154 C155 1.428 . S
C154 C167 1.394 . S
C155 H147 0.949 . S
C155 C154 1.428 . S
C155 C156 1.345 . S
C156 H148 0.950 . S
C156 C155 1.345 . S
C156 C157 1.424 . S
C157 H149 0.951 . S
C157 C156 1.424 . S
C157 C158 1.347 . S
C158 H150 0.951 . S
C158 C153 1.429 . S
C158 C157 1.347 . S
H159 C160 0.951 . S
C160 H159 0.951 . S
C160 C166 1.265 . S
H161 C166 0.950 . S
H162 C170 0.949 . S
H163 C171 0.950 . S
H164 C172 0.951 . S
H165 C173 0.951 . S
C166 C160 1.265 . S
C166 H161 0.950 . S
C166 C167 1.478 . S
C167 C154 1.394 . S
C167 C166 1.478 . S
C167 C168 1.397 . S
C168 C167 1.397 . S
C168 C169 1.438 . S
C168 C173 1.429 . S
C169 C152 1.394 . S
C169 C168 1.438 . S
C169 C170 1.428 . S
C170 H162 0.949 . S
C170 C169 1.428 . S
C170 C171 1.345 . S
C171 H163 0.950 . S
C171 C170 1.345 . S
C171 C172 1.424 . S
C172 H164 0.951 . S
C172 C171 1.424 . S
C172 C173 1.347 . S
C173 H165 0.951 . S
C173 C168 1.429 . S
C173 C172 1.347 . S
H174 C175 0.951 . S
C175 H174 0.951 . S
C175 C181 1.265 . S
H176 C181 0.950 . S
H177 C185 0.949 . S
H178 C186 0.950 . S
H179 C187 0.951 . S
H180 C188 0.951 . S
C181 C175 1.265 . S
C181 H176 0.950 . S
C181 C182 1.478 . S
C182 C181 1.478 . S
C182 C183 1.397 . S
C182 C199 1.394 . S
C183 C182 1.397 . S
C183 C184 1.438 1_655 S
C183 C188 1.429 . S
C184 C183 1.438 1_455 S
C184 C185 1.428 . S
C184 C197 1.394 . S
C185 H177 0.949 . S
C185 C184 1.428 . S
C185 C186 1.345 . S
C186 H178 0.950 . S
C186 C185 1.345 . S
C186 C187 1.424 . S
C187 H179 0.951 . S
C187 C186 1.424 . S
C187 C188 1.347 1_455 S
C188 H180 0.951 . S
C188 C183 1.429 . S
C188 C187 1.347 1_655 S
H189 C190 0.951 . S
C190 H189 0.951 . S
C190 C196 1.265 . S
H191 C196 0.950 . S
H192 C200 0.949 . S
H193 C201 0.950 . S
H194 C202 0.951 . S
H195 C203 0.951 . S
C196 C190 1.265 . S
C196 H191 0.950 . S
C196 C197 1.478 . S
C197 C184 1.394 . S
C197 C196 1.478 . S
C197 C198 1.393 1_455 S
C198 C197 1.393 1_655 S
C198 C199 1.452 . S
C198 C203 1.419 1_655 S
C199 C182 1.394 . S
C199 C198 1.452 . S
C199 C200 1.428 . S
C200 H192 0.949 . S
C200 C199 1.428 . S
C200 C201 1.345 . S
C201 H193 0.950 . S
C201 C200 1.345 . S
C201 C202 1.424 . S
C202 H194 0.951 . S
C202 C201 1.424 . S
C202 C203 1.347 1_655 S
C203 H195 0.951 . S
C203 C198 1.419 1_455 S
C203 C202 1.347 1_455 S
H204 C205 0.951 . S
C205 H204 0.951 . S
C205 C211 1.265 . S
H206 C211 0.950 . S
H207 C215 0.949 . S
H208 C216 0.950 . S
H209 C217 0.951 . S
H210 C218 0.951 . S
C211 C205 1.265 . S
C211 H206 0.950 . S
C211 C212 1.478 . S
C212 C211 1.478 . S
C212 C213 1.397 1_545 S
C212 C229 1.394 . S
C213 C212 1.397 1_565 S
C213 C214 1.438 . S
C213 C218 1.429 . S
C214 C213 1.438 . S
C214 C215 1.428 . S
C214 C227 1.394 . S
C215 H207 0.949 . S
C215 C214 1.428 . S
C215 C216 1.345 . S
C216 H208 0.950 . S
C216 C215 1.345 . S
C216 C217 1.424 . S
C217 H209 0.951 . S
C217 C216 1.424 . S
C217 C218 1.347 . S
C218 H210 0.951 . S
C218 C213 1.429 . S
C218 C217 1.347 . S
H219 C220 0.951 . S
C220 H219 0.951 . S
C220 C226 1.265 . S
H221 C226 0.950 . S
H222 C230 0.949 . S
H223 C231 0.950 . S
H224 C232 0.951 . S
H225 C233 0.951 . S
C226 C220 1.265 . S
C226 H221 0.950 . S
C226 C227 1.478 . S
C227 C214 1.394 . S
C227 C226 1.478 . S
C227 C228 1.397 1_565 S
C228 C227 1.397 1_545 S
C228 C229 1.438 . S
C228 C233 1.429 . S
C229 C212 1.394 . S
C229 C228 1.438 . S
C229 C230 1.428 . S
C230 H222 0.949 . S
C230 C229 1.428 . S
C230 C231 1.345 . S
C231 H223 0.950 . S
C231 C230 1.345 . S
C231 C232 1.424 . S
C232 H224 0.951 . S
C232 C231 1.424 . S
C232 C233 1.347 . S
C233 H225 0.951 . S
C233 C228 1.429 . S
C233 C232 1.347 . S
H234 C235 0.951 . S
C235 H234 0.951 . S
C235 C241 1.265 . S
H236 C241 0.950 . S
H237 C245 0.949 . S
H238 C246 0.950 . S
H239 C247 0.951 . S
H240 C248 0.951 . S
C241 C235 1.265 . S
C241 H236 0.950 . S
C241 C242 1.478 . S
C242 C241 1.478 . S
C242 C243 1.397 . S
C242 C259 1.394 . S
C243 C242 1.397 . S
C243 C244 1.438 . S
C243 C248 1.429 . S
C244 C243 1.438 . S
C244 C245 1.428 . S
C244 C257 1.394 . S
C245 H237 0.949 . S
C245 C244 1.428 . S
C245 C246 1.345 . S
C246 H238 0.950 . S
C246 C245 1.345 . S
C246 C247 1.424 . S
C247 H239 0.951 . S
C247 C246 1.424 . S
C247 C248 1.347 . S
C248 H240 0.951 . S
C248 C243 1.429 . S
C248 C247 1.347 . S
H249 C250 0.951 . S
C250 H249 0.951 . S
C250 C256 1.265 . S
H251 C256 0.950 . S
H252 C260 0.949 . S
H253 C261 0.950 . S
H254 C262 0.951 . S
H255 C263 0.951 . S
C256 C250 1.265 . S
C256 H251 0.950 . S
C256 C257 1.478 . S
C257 C244 1.394 . S
C257 C256 1.478 . S
C257 C258 1.397 . S
C258 C257 1.397 . S
C258 C259 1.438 . S
C258 C263 1.429 . S
C259 C242 1.394 . S
C259 C258 1.438 . S
C259 C260 1.428 . S
C260 H252 0.949 . S
C260 C259 1.428 . S
C260 C261 1.345 . S
C261 H253 0.950 . S
C261 C260 1.345 . S
C261 C262 1.424 . S
C262 H254 0.951 . S
C262 C261 1.424 . S
C262 C263 1.347 . S
C263 H255 0.951 . S
C263 C258 1.429 . S
C263 C262 1.347 . S
H264 C265 0.951 . S
C265 H264 0.951 . S
C265 C271 1.265 . S
H266 C271 0.950 . S
H267 C275 0.949 . S
H268 C276 0.950 . S
H269 C277 0.951 . S
H270 C278 0.951 . S
C271 C265 1.265 . S
C271 H266 0.950 . S
C271 C272 1.478 . S
C272 C271 1.478 . S
C272 C273 1.397 . S
C272 C289 1.394 . S
C273 C272 1.397 . S
C273 C274 1.438 . S
C273 C278 1.429 . S
C274 C273 1.438 . S
C274 C275 1.428 . S
C274 C287 1.394 . S
C275 H267 0.949 . S
C275 C274 1.428 . S
C275 C276 1.345 . S
C276 H268 0.950 . S
C276 C275 1.345 . S
C276 C277 1.424 . S
C277 H269 0.951 . S
C277 C276 1.424 . S
C277 C278 1.347 . S
C278 H270 0.951 . S
C278 C273 1.429 . S
C278 C277 1.347 . S
H279 C280 0.951 . S
C280 H279 0.951 . S
C280 C286 1.265 . S
H281 C286 0.950 . S
H282 C290 0.949 . S
H283 C291 0.950 . S
H284 C292 0.951 . S
H285 C293 0.951 . S
C286 C280 1.265 . S
C286 H281 0.950 . S
C286 C287 1.478 . S
C287 C274 1.394 . S
C287 C286 1.478 . S
C287 C288 1.397 . S
C288 C287 1.397 . S
C288 C289 1.438 . S
C288 C293 1.429 . S
C289 C272 1.394 . S
C289 C288 1.438 . S
C289 C290 1.428 . S
C290 H282 0.949 . S
C290 C289 1.428 . S
C290 C291 1.345 . S
C291 H283 0.950 . S
C291 C290 1.345 . S
C291 C292 1.424 . S
C292 H284 0.951 . S
C292 C291 1.424 . S
C292 C293 1.347 . S
C293 H285 0.951 . S
C293 C288 1.429 . S
C293 C292 1.347 . S
H294 C295 0.951 . S
C295 H294 0.951 . S
C295 C301 1.265 . S
H296 C301 0.950 . S
H297 C305 0.949 . S
H298 C306 0.950 . S
H299 C307 0.951 . S
H300 C308 0.951 . S
C301 C295 1.265 . S
C301 H296 0.950 . S
C301 C302 1.478 . S
C302 C301 1.478 . S
C302 C303 1.397 . S
C302 C319 1.394 . S
C303 C302 1.397 . S
C303 C304 1.438 . S
C303 C308 1.429 . S
C304 C303 1.438 . S
C304 C305 1.428 . S
C304 C317 1.394 . S
C305 H297 0.949 . S
C305 C304 1.428 . S
C305 C306 1.345 . S
C306 H298 0.950 . S
C306 C305 1.345 . S
C306 C307 1.424 . S
C307 H299 0.951 . S
C307 C306 1.424 . S
C307 C308 1.347 . S
C308 H300 0.951 . S
C308 C303 1.429 . S
C308 C307 1.347 . S
H309 C310 0.951 . S
C310 H309 0.951 . S
C310 C316 1.265 . S
H311 C316 0.950 . S
H312 C320 0.949 . S
H313 C321 0.950 . S
H314 C322 0.951 . S
H315 C323 0.951 . S
C316 C310 1.265 . S
C316 H311 0.950 . S
C316 C317 1.478 . S
C317 C304 1.394 . S
C317 C316 1.478 . S
C317 C318 1.397 . S
C318 C317 1.397 . S
C318 C319 1.438 . S
C318 C323 1.429 . S
C319 C302 1.394 . S
C319 C318 1.438 . S
C319 C320 1.428 . S
C320 H312 0.949 . S
C320 C319 1.428 . S
C320 C321 1.345 . S
C321 H313 0.950 . S
C321 C320 1.345 . S
C321 C322 1.424 . S
C322 H314 0.951 . S
C322 C321 1.424 . S
C322 C323 1.347 . S
C323 H315 0.951 . S
C323 C318 1.429 . S
C323 C322 1.347 . S
H324 C325 0.951 . S
C325 H324 0.951 . S
C325 C331 1.265 . S
H326 C331 0.950 . S
H327 C335 0.949 . S
H328 C336 0.950 . S
H329 C337 0.951 . S
H330 C338 0.951 . S
C331 C325 1.265 . S
C331 H326 0.950 . S
C331 C332 1.478 . S
C332 C331 1.478 . S
C332 C333 1.397 . S
C332 C349 1.394 . S
C333 C332 1.397 . S
C333 C334 1.438 . S
C333 C338 1.429 . S
C334 C333 1.438 . S
C334 C335 1.428 . S
C334 C347 1.394 . S
C335 H327 0.949 . S
C335 C334 1.428 . S
C335 C336 1.345 . S
C336 H328 0.950 . S
C336 C335 1.345 . S
C336 C337 1.424 . S
C337 H329 0.951 . S
C337 C336 1.424 . S
C337 C338 1.347 . S
C338 H330 0.951 . S
C338 C333 1.429 . S
C338 C337 1.347 . S
H339 C340 0.951 . S
C340 H339 0.951 . S
C340 C346 1.265 . S
H341 C346 0.950 . S
H342 C350 0.949 . S
H343 C351 0.950 . S
H344 C352 0.951 . S
H345 C353 0.951 . S
C346 C340 1.265 . S
C346 H341 0.950 . S
C346 C347 1.478 . S
C347 C334 1.394 . S
C347 C346 1.478 . S
C347 C348 1.397 . S
C348 C347 1.397 . S
C348 C349 1.438 . S
C348 C353 1.429 . S
C349 C332 1.394 . S
C349 C348 1.438 . S
C349 C350 1.428 . S
C350 H342 0.949 . S
C350 C349 1.428 . S
C350 C351 1.345 . S
C351 H343 0.950 . S
C351 C350 1.345 . S
C351 C352 1.424 . S
C352 H344 0.951 . S
C352 C351 1.424 . S
C352 C353 1.347 . S
C353 H345 0.951 . S
C353 C348 1.429 . S
C353 C352 1.347 . S
H354 C355 0.951 . S
C355 H354 0.951 . S
C355 C361 1.265 . S
H356 C361 0.950 . S
H357 C365 0.949 . S
H358 C366 0.950 . S
H359 C367 0.951 . S
H360 C368 0.951 . S
C361 C355 1.265 . S
C361 H356 0.950 . S
C361 C362 1.478 . S
C362 C361 1.478 . S
C362 C363 1.397 . S
C362 C379 1.394 . S
C363 C362 1.397 . S
C363 C364 1.438 . S
C363 C368 1.429 . S
C364 C363 1.438 . S
C364 C365 1.428 . S
C364 C377 1.394 . S
C365 H357 0.949 . S
C365 C364 1.428 . S
C365 C366 1.345 . S
C366 H358 0.950 . S
C366 C365 1.345 . S
C366 C367 1.424 . S
C367 H359 0.951 . S
C367 C366 1.424 . S
C367 C368 1.347 . S
C368 H360 0.951 . S
C368 C363 1.429 . S
C368 C367 1.347 . S
H369 C370 0.951 . S
C370 H369 0.951 . S
C370 C376 1.265 . S
H371 C376 0.950 . S
H372 C380 0.949 . S
H373 C381 0.950 . S
H374 C382 0.951 . S
H375 C383 0.951 . S
C376 C370 1.265 . S
C376 H371 0.950 . S
C376 C377 1.478 . S
C377 C364 1.394 . S
C377 C376 1.478 . S
C377 C378 1.397 . S
C378 C377 1.397 . S
C378 C379 1.438 . S
C378 C383 1.429 . S
C379 C362 1.394 . S
C379 C378 1.438 . S
C379 C380 1.428 . S
C380 H372 0.949 . S
C380 C379 1.428 . S
C380 C381 1.345 . S
C381 H373 0.950 . S
C381 C380 1.345 . S
C381 C382 1.424 . S
C382 H374 0.951 . S
C382 C381 1.424 . S
C382 C383 1.347 . S
C383 H375 0.951 . S
C383 C378 1.429 . S
C383 C382 1.347 . S
H384 C385 0.951 . S
C385 H384 0.951 . S
C385 C391 1.265 . S
H386 C391 0.950 . S
H387 C395 0.949 . S
H388 C396 0.950 . S
H389 C397 0.951 . S
H390 C398 0.951 . S
C391 C385 1.265 . S
C391 H386 0.950 . S
C391 C392 1.478 . S
C392 C391 1.478 . S
C392 C393 1.397 . S
C392 C409 1.394 . S
C393 C392 1.397 . S
C393 C394 1.438 . S
C393 C398 1.429 . S
C394 C393 1.438 . S
C394 C395 1.428 1_556 S
C394 C407 1.394 . S
C395 H387 0.949 . S
C395 C394 1.428 1_554 S
C395 C396 1.345 . S
C396 H388 0.950 . S
C396 C395 1.345 . S
C396 C397 1.424 . S
C397 H389 0.951 . S
C397 C396 1.424 . S
C397 C398 1.347 1_554 S
C398 H390 0.951 . S
C398 C393 1.429 . S
C398 C397 1.347 1_556 S
H399 C400 0.951 . S
C400 H399 0.951 . S
C400 C406 1.265 1_554 S
H401 C406 0.950 . S
H402 C410 0.949 . S
H403 C411 0.950 . S
H404 C412 0.951 . S
H405 C413 0.951 . S
C406 C400 1.265 1_556 S
C406 H401 0.950 . S
C406 C407 1.478 . S
C407 C394 1.394 . S
C407 C406 1.478 . S
C407 C408 1.397 . S
C408 C407 1.397 . S
C408 C409 1.438 . S
C408 C413 1.429 . S
C409 C392 1.394 . S
C409 C408 1.438 . S
C409 C410 1.428 . S
C410 H402 0.949 . S
C410 C409 1.428 . S
C410 C411 1.345 . S
C411 H403 0.950 . S
C411 C410 1.345 . S
C411 C412 1.424 . S
C412 H404 0.951 . S
C412 C411 1.424 . S
C412 C413 1.347 . S
C413 H405 0.951 . S
C413 C408 1.429 . S
C413 C412 1.347 . S
H414 C415 0.951 . S
C415 H414 0.951 . S
C415 C421 1.265 1_556 S
H416 C421 0.950 . S
H417 C425 0.949 . S
H418 C426 0.950 . S
H419 C427 0.951 . S
H420 C428 0.951 . S
C421 C415 1.265 1_554 S
C421 H416 0.950 . S
C421 C422 1.478 . S
C422 C421 1.478 . S
C422 C423 1.397 . S
C422 C439 1.394 . S
C423 C422 1.397 . S
C423 C424 1.438 . S
C423 C428 1.429 . S
C424 C423 1.438 . S
C424 C425 1.428 . S
C424 C437 1.394 . S
C425 H417 0.949 . S
C425 C424 1.428 . S
C425 C426 1.345 . S
C426 H418 0.950 . S
C426 C425 1.345 . S
C426 C427 1.424 . S
C427 H419 0.951 . S
C427 C426 1.424 . S
C427 C428 1.347 . S
C428 H420 0.951 . S
C428 C423 1.429 . S
C428 C427 1.347 . S
H429 C430 0.951 . S
C430 H429 0.951 . S
C430 C436 1.265 . S
H431 C436 0.950 . S
H432 C440 0.949 . S
H433 C441 0.950 . S
H434 C442 0.951 . S
H435 C443 0.951 . S
C436 C430 1.265 . S
C436 H431 0.950 . S
C436 C437 1.478 . S
C437 C424 1.394 . S
C437 C436 1.478 . S
C437 C438 1.397 . S
C438 C437 1.397 . S
C438 C439 1.438 . S
C438 C443 1.429 . S
C439 C422 1.394 . S
C439 C438 1.438 . S
C439 C440 1.428 1_554 S
C440 H432 0.949 . S
C440 C439 1.428 1_556 S
C440 C441 1.345 . S
C441 H433 0.950 . S
C441 C440 1.345 . S
C441 C442 1.424 . S
C442 H434 0.951 . S
C442 C441 1.424 . S
C442 C443 1.347 1_556 S
C443 H435 0.951 . S
C443 C438 1.429 . S
C443 C442 1.347 1_554 S
C85 C7 1.263 . S
C100 C50 1.294 . S
C115 C64 1.291 . S
C130 C21 1.287 . S
C145 C35 1.322 . S
C160 C78 1.307 . S
C175 C49 1.315 . S
C190 C8 1.321 . S
C205 C22 1.294 . S
C220 C63 1.262 . S
C235 C77 1.297 . S
C250 C36 1.293 . S
C265 C3 1.194 . S
C280 C37 1.194 . S
C295 C17 1.186 . S
C310 C51 1.225 . S
C325 C65 1.256 . S
C340 C31 1.203 . S
C355 C79 1.177 . S
C370 C45 1.204 . S
C385 C59 1.259 . S
C400 C9 1.191 . S
C415 C73 1.249 . S
C430 C23 1.152 . S
