# Generated by pormake.
# Topology uow, (4)-cn, num edge types: 1
# Building blocks:
#     Node 0, Type 0, BuildingBlock: QUQFOY_clean_sbu_3, # of connection points: 4
#     Node 1, Type 0, BuildingBlock: QUQFOY_clean_sbu_3, # of connection points: 4
#     Node 2, Type 0, BuildingBlock: QUQFOY_clean_sbu_3, # of connection points: 4
#     Node 3, Type 0, BuildingBlock: QUQFOY_clean_sbu_3, # of connection points: 4
#     Node 4, Type 0, BuildingBlock: QUQFOY_clean_sbu_3, # of connection points: 4
#     Node 5, Type 0, BuildingBlock: QUQFOY_clean_sbu_3, # of connection points: 4
#     Node 6, Type 0, BuildingBlock: QUQFOY_clean_sbu_3, # of connection points: 4
#     Node 7, Type 0, BuildingBlock: QUQFOY_clean_sbu_3, # of connection points: 4
#     Node 8, Type 0, BuildingBlock: QUQFOY_clean_sbu_3, # of connection points: 4
#     Node 9, Type 0, BuildingBlock: QUQFOY_clean_sbu_3, # of connection points: 4
#     Node 10, Type 0, BuildingBlock: QUQFOY_clean_sbu_3, # of connection points: 4
#     Node 11, Type 0, BuildingBlock: QUQFOY_clean_sbu_3, # of connection points: 4
#     Node 12, Type 0, BuildingBlock: QUQFOY_clean_sbu_3, # of connection points: 4
#     Node 13, Type 0, BuildingBlock: QUQFOY_clean_sbu_3, # of connection points: 4
#     Node 14, Type 0, BuildingBlock: QUQFOY_clean_sbu_3, # of connection points: 4
#     Node 15, Type 0, BuildingBlock: QUQFOY_clean_sbu_3, # of connection points: 4
#     Node 16, Type 0, BuildingBlock: QUQFOY_clean_sbu_3, # of connection points: 4
#     Node 17, Type 0, BuildingBlock: QUQFOY_clean_sbu_3, # of connection points: 4
#     Node 18, Type 0, BuildingBlock: QUQFOY_clean_sbu_3, # of connection points: 4
#     Node 19, Type 0, BuildingBlock: QUQFOY_clean_sbu_3, # of connection points: 4
#     Node 20, Type 0, BuildingBlock: QUQFOY_clean_sbu_3, # of connection points: 4
#     Node 21, Type 0, BuildingBlock: QUQFOY_clean_sbu_3, # of connection points: 4
#     Node 22, Type 0, BuildingBlock: QUQFOY_clean_sbu_3, # of connection points: 4
#     Node 23, Type 0, BuildingBlock: QUQFOY_clean_sbu_3, # of connection points: 4
#     Node 24, Type 0, BuildingBlock: QUQFOY_clean_sbu_3, # of connection points: 4
#     Node 25, Type 0, BuildingBlock: QUQFOY_clean_sbu_3, # of connection points: 4
#     Node 26, Type 0, BuildingBlock: QUQFOY_clean_sbu_3, # of connection points: 4
#     Node 27, Type 0, BuildingBlock: QUQFOY_clean_sbu_3, # of connection points: 4
#     Node 28, Type 0, BuildingBlock: QUQFOY_clean_sbu_3, # of connection points: 4
#     Node 29, Type 0, BuildingBlock: QUQFOY_clean_sbu_3, # of connection points: 4
#     Node 30, Type 0, BuildingBlock: QUQFOY_clean_sbu_3, # of connection points: 4
#     Node 31, Type 0, BuildingBlock: QUQFOY_clean_sbu_3, # of connection points: 4
#     Edge 32, Type (0, 0), BuildingBlock: ZUJKAS_clean_linker_0, # of connection points: 2
#     Edge 33, Type (0, 0), BuildingBlock: ZUJKAS_clean_linker_0, # of connection points: 2
#     Edge 34, Type (0, 0), BuildingBlock: ZUJKAS_clean_linker_0, # of connection points: 2
#     Edge 35, Type (0, 0), BuildingBlock: ZUJKAS_clean_linker_0, # of connection points: 2
#     Edge 36, Type (0, 0), BuildingBlock: ZUJKAS_clean_linker_0, # of connection points: 2
#     Edge 37, Type (0, 0), BuildingBlock: ZUJKAS_clean_linker_0, # of connection points: 2
#     Edge 38, Type (0, 0), BuildingBlock: ZUJKAS_clean_linker_0, # of connection points: 2
#     Edge 39, Type (0, 0), BuildingBlock: ZUJKAS_clean_linker_0, # of connection points: 2
#     Edge 40, Type (0, 0), BuildingBlock: ZUJKAS_clean_linker_0, # of connection points: 2
#     Edge 41, Type (0, 0), BuildingBlock: ZUJKAS_clean_linker_0, # of connection points: 2
#     Edge 42, Type (0, 0), BuildingBlock: ZUJKAS_clean_linker_0, # of connection points: 2
#     Edge 43, Type (0, 0), BuildingBlock: ZUJKAS_clean_linker_0, # of connection points: 2
#     Edge 44, Type (0, 0), BuildingBlock: ZUJKAS_clean_linker_0, # of connection points: 2
#     Edge 45, Type (0, 0), BuildingBlock: ZUJKAS_clean_linker_0, # of connection points: 2
#     Edge 46, Type (0, 0), BuildingBlock: ZUJKAS_clean_linker_0, # of connection points: 2
#     Edge 47, Type (0, 0), BuildingBlock: ZUJKAS_clean_linker_0, # of connection points: 2
#     Edge 48, Type (0, 0), BuildingBlock: ZUJKAS_clean_linker_0, # of connection points: 2
#     Edge 49, Type (0, 0), BuildingBlock: ZUJKAS_clean_linker_0, # of connection points: 2
#     Edge 50, Type (0, 0), BuildingBlock: ZUJKAS_clean_linker_0, # of connection points: 2
#     Edge 51, Type (0, 0), BuildingBlock: ZUJKAS_clean_linker_0, # of connection points: 2
#     Edge 52, Type (0, 0), BuildingBlock: ZUJKAS_clean_linker_0, # of connection points: 2
#     Edge 53, Type (0, 0), BuildingBlock: ZUJKAS_clean_linker_0, # of connection points: 2
#     Edge 54, Type (0, 0), BuildingBlock: ZUJKAS_clean_linker_0, # of connection points: 2
#     Edge 55, Type (0, 0), BuildingBlock: ZUJKAS_clean_linker_0, # of connection points: 2
#     Edge 56, Type (0, 0), BuildingBlock: ZUJKAS_clean_linker_0, # of connection points: 2
#     Edge 57, Type (0, 0), BuildingBlock: ZUJKAS_clean_linker_0, # of connection points: 2
#     Edge 58, Type (0, 0), BuildingBlock: ZUJKAS_clean_linker_0, # of connection points: 2
#     Edge 59, Type (0, 0), BuildingBlock: ZUJKAS_clean_linker_0, # of connection points: 2
#     Edge 60, Type (0, 0), BuildingBlock: ZUJKAS_clean_linker_0, # of connection points: 2
#     Edge 61, Type (0, 0), BuildingBlock: ZUJKAS_clean_linker_0, # of connection points: 2
#     Edge 62, Type (0, 0), BuildingBlock: ZUJKAS_clean_linker_0, # of connection points: 2
#     Edge 63, Type (0, 0), BuildingBlock: ZUJKAS_clean_linker_0, # of connection points: 2
#     Edge 64, Type (0, 0), BuildingBlock: ZUJKAS_clean_linker_0, # of connection points: 2
#     Edge 65, Type (0, 0), BuildingBlock: ZUJKAS_clean_linker_0, # of connection points: 2
#     Edge 66, Type (0, 0), BuildingBlock: ZUJKAS_clean_linker_0, # of connection points: 2
#     Edge 67, Type (0, 0), BuildingBlock: ZUJKAS_clean_linker_0, # of connection points: 2
#     Edge 68, Type (0, 0), BuildingBlock: ZUJKAS_clean_linker_0, # of connection points: 2
#     Edge 69, Type (0, 0), BuildingBlock: ZUJKAS_clean_linker_0, # of connection points: 2
#     Edge 70, Type (0, 0), BuildingBlock: ZUJKAS_clean_linker_0, # of connection points: 2
#     Edge 71, Type (0, 0), BuildingBlock: ZUJKAS_clean_linker_0, # of connection points: 2
#     Edge 72, Type (0, 0), BuildingBlock: ZUJKAS_clean_linker_0, # of connection points: 2
#     Edge 73, Type (0, 0), BuildingBlock: ZUJKAS_clean_linker_0, # of connection points: 2
#     Edge 74, Type (0, 0), BuildingBlock: ZUJKAS_clean_linker_0, # of connection points: 2
#     Edge 75, Type (0, 0), BuildingBlock: ZUJKAS_clean_linker_0, # of connection points: 2
#     Edge 76, Type (0, 0), BuildingBlock: ZUJKAS_clean_linker_0, # of connection points: 2
#     Edge 77, Type (0, 0), BuildingBlock: ZUJKAS_clean_linker_0, # of connection points: 2
#     Edge 78, Type (0, 0), BuildingBlock: ZUJKAS_clean_linker_0, # of connection points: 2
#     Edge 79, Type (0, 0), BuildingBlock: ZUJKAS_clean_linker_0, # of connection points: 2
#     Edge 80, Type (0, 0), BuildingBlock: ZUJKAS_clean_linker_0, # of connection points: 2
#     Edge 81, Type (0, 0), BuildingBlock: ZUJKAS_clean_linker_0, # of connection points: 2
#     Edge 82, Type (0, 0), BuildingBlock: ZUJKAS_clean_linker_0, # of connection points: 2
#     Edge 83, Type (0, 0), BuildingBlock: ZUJKAS_clean_linker_0, # of connection points: 2
#     Edge 84, Type (0, 0), BuildingBlock: ZUJKAS_clean_linker_0, # of connection points: 2
#     Edge 85, Type (0, 0), BuildingBlock: ZUJKAS_clean_linker_0, # of connection points: 2
#     Edge 86, Type (0, 0), BuildingBlock: ZUJKAS_clean_linker_0, # of connection points: 2
#     Edge 87, Type (0, 0), BuildingBlock: ZUJKAS_clean_linker_0, # of connection points: 2
#     Edge 88, Type (0, 0), BuildingBlock: ZUJKAS_clean_linker_0, # of connection points: 2
#     Edge 89, Type (0, 0), BuildingBlock: ZUJKAS_clean_linker_0, # of connection points: 2
#     Edge 90, Type (0, 0), BuildingBlock: ZUJKAS_clean_linker_0, # of connection points: 2
#     Edge 91, Type (0, 0), BuildingBlock: ZUJKAS_clean_linker_0, # of connection points: 2
#     Edge 92, Type (0, 0), BuildingBlock: ZUJKAS_clean_linker_0, # of connection points: 2
#     Edge 93, Type (0, 0), BuildingBlock: ZUJKAS_clean_linker_0, # of connection points: 2
#     Edge 94, Type (0, 0), BuildingBlock: ZUJKAS_clean_linker_0, # of connection points: 2
#     Edge 95, Type (0, 0), BuildingBlock: ZUJKAS_clean_linker_0, # of connection points: 2
# Relax obj value: 0.099
# Max RMSD: 0.129
# Mean RMSD: 0.129
data_MOF--net-uow--node1-QUQFOY_clean_sbu_3--edge1-ZUJKAS_clean_linker_0
_symmetry_space_group_name_H-M    P1
_symmetry_Int_Tables_number       1
_symmetry_cell_setting            triclinic
loop_
_symmetry_equiv_pos_as_xyz
'x, y, z'
_cell_length_a     83.44948
_cell_length_b     83.466181
_cell_length_c     52.745692
_cell_angle_alpha  89.915114
_cell_angle_beta   89.942714
_cell_angle_gamma 89.99958
loop_
_atom_site_label
_atom_site_type_symbol
_atom_site_fract_x
_atom_site_fract_y
_atom_site_fract_z
_atom_type_partial_charge
C0 C 0.01381 0.3588 0.30092 0.0
O1 O 0.01398 0.349 0.28258 0.0
Cd2 Cd 0.03615 0.34073 0.2589 0.0
O3 O 0.02575 0.36768 0.30615 0.0
Cd4 Cd 0.05068 0.37471 0.28331 0.0
C5 C 0.06382 0.34323 0.30977 0.0
O6 O 0.04435 0.3646 0.24166 0.0
O7 O 0.06941 0.3692 0.24907 0.0
O8 O 0.03835 0.40026 0.27816 0.0
C9 C 0.05863 0.36471 0.23378 0.0
O10 O 0.05458 0.3373 0.29312 0.0
C11 C 0.05094 0.40813 0.2832 0.0
O12 O 0.0657 0.35825 0.31225 0.0
O13 O 0.06331 0.40037 0.29012 0.0
C14 C 0.8718 0.77748 0.55427 0.0
O15 O 0.88073 0.77713 0.53481 0.0
Cd16 Cd 0.8882 0.79976 0.51128 0.0
O17 O 0.86367 0.78985 0.55998 0.0
Cd18 Cd 0.85696 0.81507 0.53759 0.0
C19 C 0.88853 0.82719 0.56313 0.0
O20 O 0.86486 0.80972 0.49406 0.0
O21 O 0.8646 0.83455 0.50541 0.0
O22 O 0.83261 0.80284 0.52812 0.0
C23 C 0.86652 0.82428 0.48798 0.0
O24 O 0.89314 0.81772 0.54577 0.0
C25 C 0.82379 0.81412 0.53598 0.0
O26 O 0.87373 0.83001 0.56679 0.0
O27 O 0.83045 0.82599 0.54687 0.0
C28 C 0.45447 0.61737 0.80693 0.0
O29 O 0.45165 0.62795 0.79029 0.0
Cd30 Cd 0.43005 0.63542 0.76544 0.0
O31 O 0.44409 0.60677 0.81238 0.0
Cd32 Cd 0.41834 0.60165 0.7907 0.0
C33 C 0.40336 0.63341 0.81629 0.0
O34 O 0.42343 0.61119 0.7479 0.0
O35 O 0.39861 0.60807 0.75773 0.0
O36 O 0.43026 0.5771 0.78194 0.0
C37 C 0.40897 0.61154 0.74098 0.0
O38 O 0.41079 0.64 0.79801 0.0
C39 C 0.4187 0.56843 0.78931 0.0
O40 O 0.40458 0.61851 0.82103 0.0
O41 O 0.40664 0.57537 0.79929 0.0
C42 C 0.61452 0.19931 0.04724 0.0
O43 O 0.6052 0.19789 0.02842 0.0
Cd44 Cd 0.59807 0.17546 0.00498 0.0
O45 O 0.62376 0.18791 0.05377 0.0
Cd46 Cd 0.62987 0.16245 0.03126 0.0
C47 C 0.5982 0.14889 0.05675 0.0
O48 O 0.62202 0.16721 -0.0124 0.0
O49 O 0.6218 0.14253 -0.00016 0.0
O50 O 0.6543 0.17456 0.02261 0.0
C51 C 0.62057 0.15242 0.99452 0.0
O52 O 0.59226 0.15733 0.03903 0.0
C53 C 0.66295 0.16267 0.02855 0.0
O54 O 0.61321 0.1481 0.06063 0.0
O55 O 0.65615 0.15057 0.03866 0.0
C56 C 0.01397 0.61781 0.17787 0.0
O57 O 0.01609 0.62825 0.19497 0.0
Cd58 Cd 0.0376 0.63611 0.21977 0.0
O59 O 0.02492 0.60781 0.17222 0.0
Cd60 Cd 0.05075 0.60212 0.19432 0.0
C61 C 0.06451 0.63377 0.16845 0.0
O62 O 0.04467 0.61175 0.23638 0.0
O63 O 0.06982 0.60868 0.22811 0.0
O64 O 0.03883 0.57721 0.20255 0.0
C65 C 0.05896 0.61207 0.24402 0.0
O66 O 0.05583 0.63977 0.18574 0.0
C67 C 0.0505 0.56872 0.19516 0.0
O68 O 0.06555 0.61873 0.16506 0.0
O69 O 0.06262 0.57594 0.18588 0.0
C70 C 0.61456 0.77736 0.43056 0.0
O71 O 0.60416 0.77765 0.44819 0.0
Cd72 Cd 0.59515 0.79976 0.47177 0.0
O73 O 0.62337 0.78939 0.4253 0.0
Cd74 Cd 0.62979 0.81542 0.44566 0.0
C75 C 0.60041 0.82765 0.42051 0.0
O76 O 0.61936 0.8085 0.4882 0.0
O77 O 0.62283 0.83368 0.48047 0.0
O78 O 0.65507 0.80376 0.45527 0.0
C79 C 0.61917 0.82275 0.49614 0.0
O80 O 0.59858 0.81788 0.43846 0.0
C81 C 0.66329 0.81558 0.44774 0.0
O82 O 0.61456 0.8311 0.41363 0.0
O83 O 0.65596 0.82732 0.43769 0.0
C84 C 0.45537 0.3601 0.68612 0.0
O85 O 0.45518 0.35085 0.70521 0.0
Cd86 Cd 0.43284 0.34186 0.72735 0.0
O87 O 0.44319 0.36827 0.67947 0.0
Cd88 Cd 0.41735 0.37511 0.69971 0.0
C89 C 0.40555 0.34402 0.67448 0.0
O90 O 0.42297 0.36536 0.74242 0.0
O91 O 0.39803 0.36848 0.73308 0.0
O92 O 0.42961 0.40058 0.70535 0.0
C93 C 0.4085 0.36442 0.74924 0.0
O94 O 0.41477 0.34052 0.69271 0.0
C95 C 0.41702 0.40843 0.7003 0.0
O96 O 0.40323 0.35859 0.66839 0.0
O97 O 0.40466 0.40074 0.69323 0.0
C98 C 0.87265 0.19921 0.93662 0.0
O99 O 0.88286 0.19739 0.95415 0.0
Cd100 Cd 0.88981 0.17567 0.97951 0.0
O101 O 0.86269 0.18821 0.93122 0.0
Cd102 Cd 0.85688 0.1629 0.95384 0.0
C103 C 0.8889 0.14857 0.92914 0.0
O104 O 0.86555 0.16821 0.99688 0.0
O105 O 0.86423 0.14332 0.98634 0.0
O106 O 0.83144 0.17469 0.96016 0.0
C107 C 0.86665 0.15387 -0.00913 0.0
O108 O 0.89512 0.1566 0.947 0.0
C109 C 0.82364 0.16225 0.95421 0.0
O110 O 0.87396 0.14888 0.92445 0.0
O111 O 0.83135 0.15002 0.94659 0.0
C112 C 0.96424 0.61701 0.6851 0.0
O113 O 0.96232 0.62708 0.70279 0.0
Cd114 Cd 0.94012 0.63439 0.72662 0.0
O115 O 0.95317 0.60721 0.67919 0.0
Cd116 Cd 0.92722 0.60166 0.70084 0.0
C117 C 0.9135 0.63373 0.67504 0.0
O118 O 0.93284 0.61008 0.7436 0.0
O119 O 0.90784 0.60879 0.73392 0.0
O120 O 0.93928 0.57664 0.70744 0.0
C121 C 0.91845 0.61123 0.75065 0.0
O122 O 0.92187 0.63981 0.69268 0.0
C123 C 0.92727 0.5684 0.70079 0.0
O124 O 0.91292 0.61869 0.67135 0.0
O125 O 0.91493 0.57581 0.69278 0.0
C126 C 0.1053 0.19973 0.43223 0.0
O127 O 0.09518 0.19816 0.45002 0.0
Cd128 Cd 0.08684 0.17631 0.47395 0.0
O129 O 0.1149 0.18849 0.42634 0.0
Cd130 Cd 0.12063 0.1626 0.44778 0.0
C131 C 0.08858 0.14943 0.42231 0.0
O132 O 0.11087 0.16835 0.48986 0.0
O133 O 0.11522 0.1434 0.48191 0.0
O134 O 0.1457 0.17504 0.45335 0.0
C135 C 0.11084 0.15404 0.49755 0.0
O136 O 0.08281 0.15816 0.43975 0.0
C137 C 0.15374 0.16257 0.44844 0.0
O138 O 0.10358 0.14826 0.4185 0.0
O139 O 0.14632 0.15007 0.44125 0.0
C140 C 0.52317 0.35926 0.17763 0.0
O141 O 0.52565 0.34896 0.19486 0.0
Cd142 Cd 0.54768 0.34158 0.21915 0.0
O143 O 0.53362 0.36982 0.17231 0.0
Cd144 Cd 0.55915 0.37531 0.19446 0.0
C145 C 0.57392 0.3433 0.16798 0.0
O146 O 0.55452 0.36569 0.23723 0.0
O147 O 0.57929 0.36902 0.22651 0.0
O148 O 0.54798 0.40118 0.2007 0.0
C149 C 0.56911 0.36565 0.24349 0.0
O150 O 0.56658 0.33621 0.18589 0.0
C151 C 0.56055 0.40858 0.19404 0.0
O152 O 0.57293 0.35835 0.16449 0.0
O153 O 0.57247 0.40045 0.1863 0.0
C154 C 0.36353 0.77761 0.93625 0.0
O155 O 0.37405 0.77941 0.95333 0.0
Cd156 Cd 0.38109 0.80124 0.97835 0.0
O157 O 0.35339 0.78852 0.93125 0.0
Cd158 Cd 0.3476 0.81375 0.95364 0.0
C159 C 0.37952 0.8283 0.92806 0.0
O160 O 0.35669 0.80787 0.99624 0.0
O161 O 0.3541 0.83289 0.98707 0.0
O162 O 0.32172 0.80224 0.95864 0.0
C163 C 0.35702 0.82244 -0.00895 0.0
O164 O 0.38618 0.82047 0.94582 0.0
C165 C 0.31425 0.81498 0.95308 0.0
O166 O 0.36453 0.82768 0.92396 0.0
O167 O 0.32236 0.82717 0.94637 0.0
C168 C 0.96475 0.36006 0.8066 0.0
O169 O 0.96449 0.34975 0.78903 0.0
Cd170 Cd 0.94174 0.34238 0.76607 0.0
O171 O 0.95279 0.36897 0.81132 0.0
Cd172 Cd 0.92749 0.37463 0.7895 0.0
C173 C 0.91392 0.34332 0.81646 0.0
O174 O 0.93316 0.36585 0.74674 0.0
O175 O 0.90816 0.36603 0.75757 0.0
O176 O 0.93953 0.39956 0.78213 0.0
C177 C 0.91866 0.36426 0.74043 0.0
O178 O 0.92233 0.33707 0.79895 0.0
C179 C 0.92754 0.40798 0.78835 0.0
O180 O 0.91369 0.35834 0.82028 0.0
O181 O 0.91517 0.40073 0.79667 0.0
C182 C 0.36335 0.19915 0.55496 0.0
O183 O 0.37355 0.1991 0.53704 0.0
Cd184 Cd 0.38244 0.17706 0.51311 0.0
O185 O 0.35462 0.18701 0.56005 0.0
Cd186 Cd 0.34768 0.16116 0.5391 0.0
C187 C 0.37703 0.14841 0.56345 0.0
O188 O 0.35844 0.1679 0.49663 0.0
O189 O 0.35446 0.14289 0.50461 0.0
O190 O 0.32323 0.17383 0.52921 0.0
C191 C 0.3589 0.15356 0.48897 0.0
O192 O 0.37853 0.15845 0.5458 0.0
C193 C 0.31428 0.16234 0.53592 0.0
O194 O 0.36294 0.14463 0.5703 0.0
O195 O 0.32085 0.15024 0.54629 0.0
C196 C 0.52312 0.6173 0.29998 0.0
O197 O 0.52516 0.62772 0.28274 0.0
Cd198 Cd 0.54667 0.63635 0.25842 0.0
O199 O 0.53421 0.60751 0.306 0.0
Cd200 Cd 0.56059 0.60186 0.28572 0.0
C201 C 0.57334 0.63248 0.31119 0.0
O202 O 0.55484 0.61225 0.24316 0.0
O203 O 0.57969 0.60766 0.2514 0.0
O204 O 0.54788 0.57769 0.27643 0.0
C205 C 0.56918 0.61216 0.23559 0.0
O206 O 0.56426 0.63605 0.29291 0.0
C207 C 0.55945 0.56869 0.28259 0.0
O208 O 0.57529 0.61788 0.31731 0.0
O209 O 0.57171 0.57516 0.29267 0.0
C210 C 0.10575 0.77715 0.04567 0.0
O211 O 0.09594 0.77851 0.02747 0.0
Cd212 Cd 0.08778 0.80109 0.00521 0.0
O213 O 0.11483 0.78865 0.05221 0.0
Cd214 Cd 0.12067 0.81457 0.03145 0.0
C215 C 0.08912 0.82798 0.05701 0.0
O216 O 0.11151 0.8098 -0.01152 0.0
O217 O 0.11393 0.83466 -0.00079 0.0
O218 O 0.14496 0.80212 0.02281 0.0
C219 C 0.11092 0.8242 0.99479 0.0
O220 O 0.08348 0.81969 0.03893 0.0
C221 C 0.15385 0.81369 0.02927 0.0
O222 O 0.10402 0.82826 0.06201 0.0
O223 O 0.14721 0.82592 0.03922 0.0
C224 C 0.52349 0.86909 0.806 0.0
O225 O 0.5259 0.85918 0.78822 0.0
Cd226 Cd 0.54734 0.85173 0.76327 0.0
O227 O 0.53428 0.87902 0.81263 0.0
Cd228 Cd 0.56049 0.88484 0.7918 0.0
C229 C 0.57444 0.85417 0.81562 0.0
O230 O 0.55491 0.87624 0.74799 0.0
O231 O 0.57973 0.87783 0.75858 0.0
O232 O 0.54834 0.91004 0.78488 0.0
C233 C 0.56943 0.87535 0.74141 0.0
O234 O 0.56532 0.85081 0.79731 0.0
C235 C 0.56074 0.91812 0.79013 0.0
O236 O 0.576 0.86869 0.82245 0.0
O237 O 0.57302 0.91063 0.79812 0.0
C238 C 0.36186 0.26754 0.04849 0.0
O239 O 0.37263 0.26756 0.03151 0.0
Cd240 Cd 0.38087 0.28992 0.00751 0.0
O241 O 0.35274 0.2795 0.0521 0.0
Cd242 Cd 0.34722 0.30466 0.02978 0.0
C243 C 0.37896 0.31779 0.0575 0.0
O244 O 0.3576 0.29874 -0.01178 0.0
O245 O 0.35337 0.32375 -0.00362 0.0
O246 O 0.3217 0.29298 0.02339 0.0
C247 C 0.35791 0.31295 0.99332 0.0
O248 O 0.38563 0.30877 0.0412 0.0
C249 C 0.31399 0.30538 0.0299 0.0
O250 O 0.36382 0.31898 0.05934 0.0
O251 O 0.32182 0.31749 0.03763 0.0
C252 C 0.96454 0.10686 0.29928 0.0
O253 O 0.96492 0.11486 0.27893 0.0
Cd254 Cd 0.94214 0.12342 0.25951 0.0
O255 O 0.95184 0.0997 0.30667 0.0
Cd256 Cd 0.92621 0.09246 0.28464 0.0
C257 C 0.91417 0.123 0.31078 0.0
O258 O 0.93273 0.10032 0.24162 0.0
O259 O 0.90753 0.10074 0.25073 0.0
O260 O 0.93835 0.06788 0.27516 0.0
C261 C 0.91852 0.10234 0.23431 0.0
O262 O 0.92426 0.12659 0.29379 0.0
C263 C 0.92696 0.05911 0.28276 0.0
O264 O 0.90975 0.10854 0.31346 0.0
O265 O 0.91504 0.06583 0.29341 0.0
C266 C 0.10632 0.70938 0.55495 0.0
O267 O 0.09647 0.71 0.53671 0.0
Cd268 Cd 0.08866 0.68734 0.51307 0.0
O269 O 0.11458 0.69693 0.55948 0.0
Cd270 Cd 0.12064 0.67193 0.53695 0.0
C271 C 0.08881 0.65919 0.56313 0.0
O272 O 0.11182 0.67745 0.49412 0.0
O273 O 0.11364 0.6525 0.50484 0.0
O274 O 0.14491 0.68427 0.52776 0.0
C275 C 0.11078 0.66287 0.48782 0.0
O276 O 0.08296 0.66859 0.54656 0.0
C277 C 0.15384 0.67314 0.53582 0.0
O278 O 0.10383 0.65732 0.56583 0.0
O279 O 0.14725 0.66108 0.5464 0.0
C280 C 0.52288 0.10766 0.684 0.0
O281 O 0.52217 0.11695 0.70296 0.0
Cd282 Cd 0.54469 0.12481 0.72643 0.0
O283 O 0.53543 0.09964 0.6787 0.0
Cd284 Cd 0.56093 0.09262 0.70038 0.0
C285 C 0.57244 0.12291 0.67393 0.0
O286 O 0.55426 0.10112 0.74328 0.0
O287 O 0.57941 0.1007 0.7338 0.0
O288 O 0.54861 0.06743 0.70713 0.0
C289 C 0.5686 0.10285 0.75036 0.0
O290 O 0.56275 0.12623 0.69165 0.0
C291 C 0.56065 0.05913 0.70074 0.0
O292 O 0.57623 0.10843 0.66969 0.0
O293 O 0.573 0.06655 0.69276 0.0
C294 C 0.1047 0.26831 0.93724 0.0
O295 O 0.09488 0.27042 0.9553 0.0
Cd296 Cd 0.08741 0.2918 0.98068 0.0
O297 O 0.11446 0.2793 0.93065 0.0
Cd298 Cd 0.12078 0.30528 0.95205 0.0
C299 C 0.08969 0.31911 0.92861 0.0
O300 O 0.11191 0.29943 0.9953 0.0
O301 O 0.11487 0.32435 0.98595 0.0
O302 O 0.14503 0.29268 0.96114 0.0
C303 C 0.11156 0.31401 -0.01003 0.0
O304 O 0.0859 0.30985 0.94662 0.0
C305 C 0.15399 0.30402 0.95388 0.0
O306 O 0.10432 0.32119 0.92278 0.0
O307 O 0.1474 0.31616 0.94357 0.0
C308 C 0.96352 0.86847 0.17651 0.0
O309 O 0.96209 0.85848 0.19448 0.0
Cd310 Cd 0.94051 0.85125 0.21943 0.0
O311 O 0.95225 0.87807 0.17076 0.0
Cd312 Cd 0.92694 0.88454 0.19297 0.0
C313 C 0.91271 0.85373 0.1683 0.0
O314 O 0.93303 0.87555 0.23588 0.0
O315 O 0.90789 0.87686 0.22669 0.0
O316 O 0.93941 0.90891 0.20288 0.0
C317 C 0.91869 0.87456 0.2432 0.0
O318 O 0.9217 0.849 0.18615 0.0
C319 C 0.9282 0.91784 0.1951 0.0
O320 O 0.91183 0.86851 0.16259 0.0
O321 O 0.91611 0.9113 0.18466 0.0
C322 C 0.36386 0.70847 0.42984 0.0
O323 O 0.37419 0.70751 0.44739 0.0
Cd324 Cd 0.3822 0.68565 0.47177 0.0
O325 O 0.35426 0.69705 0.42492 0.0
Cd326 Cd 0.3477 0.67205 0.44761 0.0
C327 C 0.37953 0.65832 0.42126 0.0
O328 O 0.35798 0.67844 0.48894 0.0
O329 O 0.35319 0.65335 0.4824 0.0
O330 O 0.32242 0.68388 0.45534 0.0
C331 C 0.35763 0.66432 0.49741 0.0
O332 O 0.38611 0.66696 0.43808 0.0
C333 C 0.31435 0.67189 0.4481 0.0
O334 O 0.36442 0.65747 0.41861 0.0
O335 O 0.32183 0.65991 0.43904 0.0
C336 C 0.45436 0.1076 0.17919 0.0
O337 O 0.45295 0.11727 0.19758 0.0
Cd338 Cd 0.43066 0.12499 0.22091 0.0
O339 O 0.44289 0.09841 0.17267 0.0
Cd340 Cd 0.41667 0.09231 0.19361 0.0
C341 C 0.40393 0.12351 0.16807 0.0
O342 O 0.42239 0.10086 0.23667 0.0
O343 O 0.39733 0.09972 0.22696 0.0
O344 O 0.42865 0.06785 0.20344 0.0
C345 C 0.408 0.10193 0.24367 0.0
O346 O 0.41301 0.12794 0.18599 0.0
C347 C 0.41728 0.05908 0.1958 0.0
O348 O 0.4016 0.10873 0.16367 0.0
O349 O 0.40546 0.06579 0.18483 0.0
C350 C 0.61509 0.7095 0.93692 0.0
O351 O 0.60496 0.70969 0.95484 0.0
Cd352 Cd 0.59662 0.68722 0.97844 0.0
O353 O 0.62383 0.69738 0.93238 0.0
Cd354 Cd 0.63009 0.67228 0.95435 0.0
C355 C 0.59832 0.65977 0.92764 0.0
O356 O 0.61984 0.67744 0.99641 0.0
O357 O 0.62391 0.6526 0.98656 0.0
O358 O 0.65528 0.68439 0.96093 0.0
C359 C 0.61943 0.66302 -0.00972 0.0
O360 O 0.59219 0.6685 0.94481 0.0
C361 C 0.66346 0.67231 0.95424 0.0
O362 O 0.61337 0.65868 0.9243 0.0
O363 O 0.65596 0.66004 0.94626 0.0
C364 C 0.01354 0.86973 0.68363 0.0
O365 O 0.01305 0.86076 0.70304 0.0
Cd366 Cd 0.03544 0.85239 0.72617 0.0
O367 O 0.02603 0.87768 0.67777 0.0
Cd368 Cd 0.0514 0.88456 0.69971 0.0
C369 C 0.06349 0.85379 0.67411 0.0
O370 O 0.04536 0.87565 0.74284 0.0
O371 O 0.07035 0.87743 0.73295 0.0
O372 O 0.03939 0.90921 0.70859 0.0
C373 C 0.05982 0.87434 0.7496 0.0
O374 O 0.05378 0.85017 0.69171 0.0
C375 C 0.05118 0.91772 0.70171 0.0
O376 O 0.06685 0.86838 0.66971 0.0
O377 O 0.06304 0.91075 0.69128 0.0
C378 C 0.87199 0.26725 0.43054 0.0
O379 O 0.88171 0.2668 0.44897 0.0
Cd380 Cd 0.88916 0.28919 0.47287 0.0
O381 O 0.86363 0.27959 0.4255 0.0
Cd382 Cd 0.85711 0.30514 0.44643 0.0
C383 C 0.88774 0.31769 0.42157 0.0
O384 O 0.86544 0.2988 0.48984 0.0
O385 O 0.86493 0.32383 0.4796 0.0
O386 O 0.83136 0.29313 0.45128 0.0
C387 C 0.86694 0.31325 0.49658 0.0
O388 O 0.89112 0.30806 0.43933 0.0
C389 C 0.82368 0.30585 0.44645 0.0
O390 O 0.87321 0.32003 0.41543 0.0
O391 O 0.83159 0.31825 0.44018 0.0
C392 C 0.45498 0.86945 0.30158 0.0
O393 O 0.45534 0.85977 0.28309 0.0
Cd394 Cd 0.43324 0.8512 0.25951 0.0
O395 O 0.44262 0.87772 0.30685 0.0
Cd396 Cd 0.41751 0.8842 0.28448 0.0
C397 C 0.40449 0.85345 0.30994 0.0
O398 O 0.42388 0.87464 0.24198 0.0
O399 O 0.39869 0.87699 0.25075 0.0
O400 O 0.4303 0.90918 0.27772 0.0
C401 C 0.40951 0.87377 0.23468 0.0
O402 O 0.41398 0.84896 0.29256 0.0
C403 C 0.41807 0.91754 0.28279 0.0
O404 O 0.40275 0.86821 0.31516 0.0
O405 O 0.40546 0.91039 0.29028 0.0
C406 C 0.8728 0.70921 0.0479 0.0
O407 O 0.88261 0.70917 0.02953 0.0
Cd408 Cd 0.89038 0.68691 0.00592 0.0
O409 O 0.86408 0.69715 0.0531 0.0
Cd410 Cd 0.8576 0.67203 0.03064 0.0
C411 C 0.88887 0.65939 0.05711 0.0
O412 O 0.86651 0.67842 -0.01165 0.0
O413 O 0.86614 0.65321 -0.00245 0.0
O414 O 0.83269 0.68438 0.02351 0.0
C415 C 0.8682 0.66395 0.99367 0.0
O416 O 0.89457 0.66815 0.0396 0.0
C417 C 0.82413 0.67237 0.02921 0.0
O418 O 0.87389 0.6582 0.06111 0.0
O419 O 0.83127 0.65989 0.03735 0.0
C420 C 0.01349 0.10757 0.80728 0.0
O421 O 0.01591 0.11813 0.79042 0.0
Cd422 Cd 0.0369 0.12612 0.76461 0.0
O423 O 0.02402 0.09704 0.81234 0.0
Cd424 Cd 0.04956 0.09191 0.79025 0.0
C425 C 0.06347 0.12426 0.81563 0.0
O426 O 0.0435 0.10171 0.7483 0.0
O427 O 0.06853 0.09759 0.75573 0.0
O428 O 0.03784 0.06643 0.78436 0.0
C429 C 0.0577 0.10162 0.74015 0.0
O430 O 0.0557 0.13066 0.79759 0.0
C431 C 0.05048 0.05877 0.78976 0.0
O432 O 0.06313 0.10927 0.82001 0.0
O433 O 0.0627 0.06658 0.79713 0.0
C434 C 0.61517 0.26774 0.55401 0.0
O435 O 0.60568 0.26726 0.53527 0.0
Cd436 Cd 0.59759 0.28971 0.51161 0.0
O437 O 0.62333 0.28017 0.55923 0.0
Cd438 Cd 0.63012 0.30537 0.53695 0.0
C439 C 0.59869 0.31782 0.56263 0.0
O440 O 0.62096 0.29948 0.49446 0.0
O441 O 0.62353 0.32448 0.50389 0.0
O442 O 0.65437 0.29254 0.52915 0.0
C443 C 0.61996 0.31395 0.48755 0.0
O444 O 0.59368 0.3082 0.54577 0.0
C445 C 0.66331 0.30411 0.53548 0.0
O446 O 0.61355 0.32041 0.5659 0.0
O447 O 0.6567 0.31651 0.54491 0.0
H448 H 0.07296 0.38137 0.19687 0.0
H449 H 0.08056 0.37175 0.15471 0.0
H450 H 0.06193 0.32488 0.1732 0.0
H451 H 0.05353 0.33484 0.21502 0.0
H452 H 0.10177 0.34777 0.14517 0.0
H453 H 0.04225 0.33283 0.10378 0.0
H454 H 0.04467 0.34708 0.12924 0.0
H455 H 0.04575 0.32597 0.13559 0.0
C456 C 0.07036 0.36908 0.19168 0.0
C457 C 0.06269 0.3588 0.2087 0.0
C458 C 0.07465 0.36361 0.16774 0.0
C459 C 0.07158 0.3477 0.16079 0.0
C460 C 0.06396 0.33733 0.17799 0.0
H461 H 0.09907 0.29419 0.0264 0.0
H462 H 0.08986 0.30184 0.06886 0.0
C463 C 0.05931 0.34294 0.2018 0.0
C464 C 0.07731 0.34185 0.13609 0.0
H465 H 0.06504 0.32585 0.07995 0.0
C466 C 0.09376 0.34297 0.13088 0.0
C467 C 0.06675 0.33572 0.11757 0.0
C468 C 0.04885 0.33541 0.1216 0.0
C469 C 0.09999 0.33802 0.10755 0.0
C470 C 0.08946 0.33172 0.08916 0.0
C471 C 0.07303 0.33049 0.09439 0.0
C472 C 0.09515 0.32702 0.06387 0.0
C473 C 0.11779 0.33936 0.10283 0.0
C474 C 0.10076 0.33875 0.04706 0.0
C475 C 0.10599 0.33447 0.02295 0.0
C476 C 0.10566 0.3184 0.01528 0.0
C477 C 0.09967 0.30666 0.03198 0.0
C478 C 0.09441 0.31098 0.05615 0.0
H479 H 0.12449 0.34269 0.12023 0.0
H480 H 0.12253 0.32782 0.09554 0.0
H481 H 0.1201 0.34867 0.08824 0.0
H482 H 0.10101 0.35125 0.05257 0.0
H483 H 0.11037 0.34377 0.01038 0.0
H484 H 0.92251 0.88987 0.2875 0.0
H485 H 0.91515 0.88014 0.32987 0.0
H486 H 0.8996 0.8353 0.29745 0.0
H487 H 0.90694 0.84512 0.25498 0.0
H488 H 0.88384 0.87089 0.34334 0.0
H489 H 0.92718 0.82097 0.35803 0.0
H490 H 0.93136 0.83775 0.33738 0.0
H491 H 0.91789 0.82226 0.32736 0.0
C492 C 0.91762 0.87791 0.28959 0.0
C493 C 0.91494 0.86829 0.26833 0.0
C494 C 0.91348 0.87237 0.31365 0.0
C495 C 0.90696 0.857 0.31672 0.0
C496 C 0.9048 0.84713 0.29545 0.0
H497 H 0.86499 0.80701 0.44436 0.0
H498 H 0.8745 0.81522 0.40228 0.0
C499 C 0.90879 0.85277 0.2713 0.0
C500 C 0.90126 0.85187 0.34192 0.0
H501 H 0.90678 0.82399 0.38841 0.0
C502 C 0.88888 0.86068 0.35329 0.0
C503 C 0.90792 0.83856 0.3547 0.0
C504 C 0.9219 0.82935 0.34394 0.0
C505 C 0.88282 0.85641 0.37712 0.0
C506 C 0.88938 0.843 0.38975 0.0
C507 C 0.90174 0.83417 0.37841 0.0
C508 C 0.88375 0.83805 0.415 0.0
C509 C 0.86921 0.86598 0.38834 0.0
C510 C 0.88626 0.84803 0.43596 0.0
C511 C 0.8807 0.84349 0.4598 0.0
C512 C 0.87276 0.82881 0.46301 0.0
C513 C 0.8709 0.81849 0.44222 0.0
C514 C 0.87629 0.82315 0.41828 0.0
H515 H 0.86423 0.87481 0.37467 0.0
H516 H 0.85944 0.85784 0.3946 0.0
H517 H 0.8735 0.87263 0.40521 0.0
H518 H 0.89251 0.85933 0.43385 0.0
H519 H 0.88268 0.85143 0.47573 0.0
H520 H 0.37881 0.61677 0.72335 0.0
H521 H 0.37109 0.62714 0.68181 0.0
H522 H 0.4209 0.63252 0.66157 0.0
H523 H 0.42878 0.62188 0.70301 0.0
H524 H 0.37835 0.65649 0.65961 0.0
H525 H 0.40295 0.606 0.60254 0.0
H526 H 0.39758 0.60387 0.63555 0.0
H527 H 0.41574 0.61399 0.62682 0.0
C528 C 0.38813 0.62004 0.71 0.0
C529 C 0.40437 0.6182 0.71618 0.0
C530 C 0.3837 0.62599 0.68634 0.0
C531 C 0.39543 0.6302 0.6685 0.0
C532 C 0.41169 0.6289 0.67488 0.0
H533 H 0.38815 0.66678 0.51469 0.0
H534 H 0.3977 0.65993 0.55754 0.0
C535 C 0.41615 0.6229 0.69856 0.0
C536 C 0.39052 0.63619 0.64339 0.0
H537 H 0.39189 0.62768 0.58021 0.0
C538 C 0.38132 0.65024 0.64222 0.0
C539 C 0.3943 0.62783 0.62087 0.0
C540 C 0.40307 0.61202 0.62132 0.0
C541 C 0.37594 0.6563 0.61896 0.0
C542 C 0.37997 0.64809 0.59647 0.0
C543 C 0.38913 0.63404 0.5976 0.0
C544 C 0.37418 0.65341 0.57154 0.0
C545 C 0.36616 0.6715 0.61848 0.0
C546 C 0.35791 0.65185 0.56548 0.0
C547 C 0.35257 0.65543 0.54113 0.0
C548 C 0.36342 0.66071 0.52275 0.0
C549 C 0.37967 0.66266 0.52883 0.0
C550 C 0.38507 0.65883 0.55314 0.0
H551 H 0.36548 0.67727 0.63742 0.0
H552 H 0.37142 0.68012 0.60474 0.0
H553 H 0.35379 0.66878 0.61215 0.0
H554 H 0.34942 0.64747 0.57942 0.0
H555 H 0.33998 0.65406 0.53662 0.0
H556 H 0.55166 0.09885 0.79377 0.0
H557 H 0.55879 0.10857 0.83614 0.0
H558 H 0.60075 0.13165 0.8051 0.0
H559 H 0.59368 0.12196 0.7628 0.0
H560 H 0.58837 0.10103 0.86071 0.0
H561 H 0.58059 0.16692 0.84882 0.0
H562 H 0.56951 0.15251 0.83025 0.0
H563 H 0.5902 0.1564 0.82329 0.0
C564 C 0.5623 0.10614 0.79605 0.0
C565 C 0.57231 0.10948 0.77532 0.0
C566 C 0.56634 0.11166 0.82013 0.0
C567 C 0.5802 0.12089 0.82356 0.0
C568 C 0.5899 0.12469 0.80269 0.0
H569 H 0.63353 0.1585 0.94879 0.0
H570 H 0.62327 0.14989 0.90739 0.0
C571 C 0.58597 0.11902 0.77867 0.0
C572 C 0.58515 0.12559 0.84923 0.0
H573 H 0.59293 0.15802 0.88636 0.0
C574 C 0.58922 0.11347 0.8665 0.0
C575 C 0.58631 0.14183 0.85642 0.0
C576 C 0.58134 0.15522 0.83887 0.0
C577 C 0.59473 0.11721 0.89085 0.0
C578 C 0.59607 0.13347 0.89791 0.0
C579 C 0.5919 0.14557 0.88069 0.0
C580 C 0.6022 0.1383 0.92286 0.0
C581 C 0.59966 0.10383 0.90848 0.0
C582 C 0.59351 0.13488 0.94498 0.0
C583 C 0.59951 0.1395 0.96853 0.0
C584 C 0.61408 0.14781 0.96999 0.0
C585 C 0.62238 0.15188 0.94785 0.0
C586 C 0.61656 0.14698 0.92438 0.0
H587 H 0.59947 0.09195 0.899 0.0
H588 H 0.6119 0.10607 0.91589 0.0
H589 H 0.59136 0.10335 0.92491 0.0
H590 H 0.58212 0.12868 0.944 0.0
H591 H 0.59274 0.13674 0.98554 0.0
H592 H 0.06023 0.59515 0.28702 0.0
H593 H 0.06767 0.6049 0.32921 0.0
H594 H 0.07368 0.65261 0.29886 0.0
H595 H 0.06592 0.64281 0.25662 0.0
H596 H 0.09706 0.61874 0.3404 0.0
H597 H 0.04695 0.66051 0.36286 0.0
H598 H 0.04481 0.64399 0.34101 0.0
H599 H 0.05521 0.66182 0.33144 0.0
C600 C 0.06302 0.60772 0.28957 0.0
C601 C 0.06279 0.61826 0.269 0.0
C602 C 0.0672 0.61328 0.31351 0.0
C603 C 0.07106 0.62947 0.31708 0.0
C604 C 0.07046 0.64013 0.29649 0.0
H605 H 0.1089 0.68147 0.44549 0.0
H606 H 0.09985 0.67321 0.4033 0.0
C607 C 0.06624 0.63455 0.27248 0.0
C608 C 0.07687 0.6348 0.34199 0.0
H609 H 0.06872 0.66 0.39111 0.0
C610 C 0.09087 0.62773 0.35157 0.0
C611 C 0.06867 0.64648 0.35637 0.0
C612 C 0.05301 0.6536 0.34761 0.0
C613 C 0.09701 0.63216 0.3752 0.0
C614 C 0.08889 0.64397 0.38941 0.0
C615 C 0.07494 0.65108 0.37985 0.0
C616 C 0.09446 0.64886 0.41461 0.0
C617 C 0.11227 0.62446 0.38458 0.0
C618 C 0.09398 0.63796 0.4348 0.0
C619 C 0.09925 0.64257 0.45872 0.0
C620 C 0.10487 0.6582 0.46277 0.0
C621 C 0.10478 0.66929 0.44272 0.0
C622 C 0.09966 0.66461 0.41871 0.0
H623 H 0.11808 0.61696 0.36981 0.0
H624 H 0.12086 0.63381 0.39084 0.0
H625 H 0.10959 0.61669 0.40113 0.0
H626 H 0.0895 0.62591 0.43205 0.0
H627 H 0.09884 0.63392 0.47404 0.0
H628 H 0.63657 0.82351 0.53901 0.0
H629 H 0.6273 0.83109 0.58154 0.0
H630 H 0.57954 0.83829 0.55227 0.0
H631 H 0.58882 0.83042 0.5098 0.0
H632 H 0.61399 0.86066 0.59403 0.0
H633 H 0.57114 0.81133 0.6157 0.0
H634 H 0.58764 0.80897 0.59382 0.0
H635 H 0.57004 0.8198 0.58441 0.0
C636 C 0.62407 0.82656 0.54188 0.0
C637 C 0.61335 0.82654 0.52151 0.0
C638 C 0.6188 0.83086 0.56603 0.0
C639 C 0.60272 0.83505 0.57006 0.0
C640 C 0.59192 0.83477 0.54964 0.0
H641 H 0.55089 0.87344 0.69894 0.0
H642 H 0.55916 0.86415 0.6568 0.0
C643 C 0.59721 0.83045 0.52546 0.0
C644 C 0.59755 0.84078 0.59525 0.0
H645 H 0.57195 0.83295 0.6442 0.0
C646 C 0.60485 0.85458 0.60508 0.0
C647 C 0.58564 0.83277 0.60952 0.0
C648 C 0.5782 0.81733 0.60054 0.0
C649 C 0.60041 0.86073 0.62877 0.0
C650 C 0.58837 0.85281 0.64289 0.0
C651 C 0.58106 0.83903 0.63308 0.0
C652 C 0.58341 0.85844 0.66818 0.0
C653 C 0.60832 0.87583 0.63829 0.0
C654 C 0.59421 0.85786 0.68848 0.0
C655 C 0.5896 0.86327 0.71238 0.0
C656 C 0.57405 0.86917 0.71637 0.0
C657 C 0.56302 0.86913 0.69625 0.0
C658 C 0.56771 0.86386 0.67225 0.0
H659 H 0.61601 0.88153 0.62362 0.0
H660 H 0.59909 0.88457 0.6445 0.0
H661 H 0.61595 0.87299 0.6549 0.0
H662 H 0.60622 0.85321 0.68583 0.0
H663 H 0.5982 0.86278 0.72773 0.0
H664 H 0.38142 0.29764 0.96696 0.0
H665 H 0.39213 0.30517 0.92522 0.0
H666 H 0.35911 0.34494 0.92215 0.0
H667 H 0.34903 0.33798 0.96423 0.0
H668 H 0.37523 0.30742 0.87978 0.0
H669 H 0.40061 0.36703 0.90499 0.0
H670 H 0.39801 0.35122 0.92807 0.0
H671 H 0.3811 0.36274 0.91751 0.0
C672 C 0.37659 0.30805 0.95735 0.0
C673 C 0.36447 0.31731 0.96858 0.0
C674 C 0.3827 0.31233 0.93365 0.0
C675 C 0.3766 0.32579 0.92095 0.0
C676 C 0.36433 0.33485 0.93207 0.0
H677 H 0.38305 0.37208 0.77807 0.0
H678 H 0.37559 0.36069 0.81916 0.0
C679 C 0.3585 0.3308 0.95594 0.0
C680 C 0.38255 0.33006 0.89556 0.0
H681 H 0.39864 0.36086 0.8616 0.0
C682 C 0.38058 0.319 0.87579 0.0
C683 C 0.38941 0.34522 0.89058 0.0
C684 C 0.39255 0.35723 0.91138 0.0
C685 C 0.38486 0.32294 0.85085 0.0
C686 C 0.39134 0.33824 0.84587 0.0
C687 C 0.39361 0.34915 0.86569 0.0
C688 C 0.39514 0.34368 0.82006 0.0
C689 C 0.38183 0.31109 0.82984 0.0
C690 C 0.40867 0.33787 0.80726 0.0
C691 C 0.41313 0.34459 0.78403 0.0
C692 C 0.40393 0.35701 0.77336 0.0
C693 C 0.39022 0.36246 0.78594 0.0
C694 C 0.38594 0.35596 0.80928 0.0
H695 H 0.37563 0.30013 0.83673 0.0
H696 H 0.37444 0.31675 0.8148 0.0
H697 H 0.3934 0.30751 0.82113 0.0
H698 H 0.41598 0.32851 0.81557 0.0
H699 H 0.42371 0.34012 0.77447 0.0
H700 H 0.8832 0.12677 0.00246 0.0
H701 H 0.89391 0.11903 0.04391 0.0
H702 H 0.87707 0.16357 0.07567 0.0
H703 H 0.86629 0.17137 0.03425 0.0
H704 H 0.91623 0.1349 0.07552 0.0
H705 H 0.85643 0.12941 0.12184 0.0
H706 H 0.85917 0.12751 0.08801 0.0
H707 H 0.85968 0.1469 0.10261 0.0
C708 C 0.88166 0.13483 0.01836 0.0
C709 C 0.87355 0.14945 0.01546 0.0
C710 C 0.88785 0.13045 0.04191 0.0
C711 C 0.88586 0.14055 0.06287 0.0
C712 C 0.87833 0.15545 0.05979 0.0
H713 H 0.90779 0.13215 0.22243 0.0
H714 H 0.90209 0.14248 0.17963 0.0
C715 C 0.87226 0.15991 0.03618 0.0
C716 C 0.89166 0.13547 0.08799 0.0
H717 H 0.87906 0.12617 0.14771 0.0
C718 C 0.90815 0.13298 0.09135 0.0
C719 C 0.88098 0.13281 0.10838 0.0
C720 C 0.86306 0.13415 0.10516 0.0
C721 C 0.91432 0.12822 0.1149 0.0
C722 C 0.90366 0.12595 0.13542 0.0
C723 C 0.88717 0.12826 0.13196 0.0
C724 C 0.90917 0.12063 0.16056 0.0
C725 C 0.93215 0.12602 0.11789 0.0
C726 C 0.91523 0.10509 0.16374 0.0
C727 C 0.91856 0.09931 0.18795 0.0
C728 C 0.9154 0.10881 0.20917 0.0
C729 C 0.90983 0.12454 0.20612 0.0
C730 C 0.90674 0.13044 0.18183 0.0
H731 H 0.93889 0.13 0.10082 0.0
H732 H 0.93648 0.13286 0.13459 0.0
H733 H 0.93489 0.11319 0.12122 0.0
H734 H 0.91689 0.09726 0.14759 0.0
H735 H 0.92311 0.08722 0.19017 0.0
H736 H 0.93754 0.61246 0.79228 0.0
H737 H 0.93051 0.62283 0.83425 0.0
H738 H 0.88415 0.63714 0.806 0.0
H739 H 0.89084 0.62622 0.76433 0.0
H740 H 0.92116 0.6531 0.85001 0.0
H741 H 0.87182 0.60924 0.86591 0.0
H742 H 0.88804 0.6056 0.84395 0.0
H743 H 0.872 0.61892 0.83553 0.0
C744 C 0.9258 0.61771 0.79514 0.0
C745 C 0.9145 0.61809 0.77543 0.0
C746 C 0.92185 0.62366 0.81901 0.0
C747 C 0.90664 0.63024 0.8233 0.0
C748 C 0.89571 0.63151 0.80322 0.0
H749 H 0.85523 0.67048 0.9483 0.0
H750 H 0.86623 0.66368 0.90652 0.0
C751 C 0.89955 0.62532 0.77948 0.0
C752 C 0.90211 0.6357 0.84883 0.0
H753 H 0.87457 0.62996 0.89569 0.0
C754 C 0.91105 0.64801 0.86013 0.0
C755 C 0.88898 0.62887 0.8619 0.0
C756 C 0.8797 0.61484 0.85139 0.0
C757 C 0.90686 0.65403 0.88402 0.0
C758 C 0.89347 0.64748 0.89669 0.0
C759 C 0.88473 0.63501 0.8856 0.0
C760 C 0.88807 0.65338 0.92147 0.0
C761 C 0.91636 0.66764 0.89525 0.0
C762 C 0.89683 0.64984 0.94346 0.0
C763 C 0.8904 0.65338 0.96723 0.0
C764 C 0.87525 0.66056 0.96902 0.0
C765 C 0.86687 0.66477 0.94707 0.0
C766 C 0.87315 0.661 0.92337 0.0
H767 H 0.92556 0.6723 0.8819 0.0
H768 H 0.9082 0.67757 0.90064 0.0
H769 H 0.92249 0.66348 0.91273 0.0
H770 H 0.90832 0.64383 0.94223 0.0
H771 H 0.89713 0.6504 0.98416 0.0
H772 H 0.08406 0.16628 0.52003 0.0
H773 H 0.07306 0.15879 0.56165 0.0
H774 H 0.11153 0.1248 0.57158 0.0
H775 H 0.12241 0.13213 0.53006 0.0
H776 H 0.06375 0.12716 0.57894 0.0
H777 H 0.11404 0.15199 0.6361 0.0
H778 H 0.10883 0.15977 0.60519 0.0
H779 H 0.11946 0.14116 0.60799 0.0
C780 C 0.09017 0.1573 0.53127 0.0
C781 C 0.1041 0.14977 0.5222 0.0
C782 C 0.08388 0.15302 0.55488 0.0
C783 C 0.0917 0.14149 0.56975 0.0
C784 C 0.10552 0.13393 0.5605 0.0
H785 H 0.08256 0.09282 0.71057 0.0
H786 H 0.089 0.10266 0.66805 0.0
C787 C 0.11165 0.13801 0.53682 0.0
C788 C 0.08537 0.137 0.59481 0.0
H789 H 0.09545 0.13559 0.65733 0.0
C790 C 0.07051 0.12918 0.59619 0.0
C791 C 0.09435 0.13964 0.61709 0.0
C792 C 0.11001 0.14869 0.61672 0.0
C793 C 0.06463 0.1234 0.61938 0.0
C794 C 0.07385 0.1257 0.64153 0.0
C795 C 0.0885 0.13384 0.64018 0.0
C796 C 0.06901 0.11914 0.66628 0.0
C797 C 0.04905 0.11424 0.61993 0.0
C798 C 0.05569 0.12529 0.67925 0.0
C799 C 0.0519 0.11955 0.70339 0.0
C800 C 0.06158 0.10782 0.7149 0.0
C801 C 0.07499 0.10189 0.70202 0.0
C802 C 0.07861 0.10743 0.67779 0.0
H803 H 0.04415 0.11221 0.60062 0.0
H804 H 0.05082 0.10247 0.62936 0.0
H805 H 0.04004 0.121 0.63109 0.0
H806 H 0.04843 0.13466 0.67088 0.0
H807 H 0.04161 0.12445 0.71322 0.0
H808 H 0.61598 0.34393 0.46888 0.0
H809 H 0.60573 0.3515 0.42731 0.0
H810 H 0.5983 0.30169 0.40895 0.0
H811 H 0.60826 0.29397 0.4509 0.0
H812 H 0.61994 0.34186 0.38213 0.0
H813 H 0.55602 0.32273 0.38686 0.0
H814 H 0.56748 0.32777 0.41477 0.0
H815 H 0.5707 0.30898 0.39909 0.0
C816 C 0.61202 0.33458 0.45611 0.0
C817 C 0.61309 0.31838 0.46293 0.0
C818 C 0.60615 0.33893 0.43244 0.0
C819 C 0.60118 0.32716 0.41527 0.0
C820 C 0.60185 0.31094 0.42218 0.0
H821 H 0.57156 0.33452 0.25787 0.0
H822 H 0.58035 0.32454 0.2996 0.0
C823 C 0.60769 0.30656 0.44598 0.0
C824 C 0.59655 0.33195 0.38947 0.0
H825 H 0.56541 0.33254 0.34776 0.0
C826 C 0.60803 0.33984 0.37455 0.0
C827 C 0.58099 0.3293 0.37992 0.0
C828 C 0.56799 0.32184 0.39595 0.0
C829 C 0.60434 0.34516 0.3501 0.0
C830 C 0.58882 0.34238 0.34044 0.0
C831 C 0.57737 0.3344 0.35527 0.0
C832 C 0.584 0.34821 0.3153 0.0
C833 C 0.61711 0.35349 0.33464 0.0
C834 C 0.58294 0.36473 0.31077 0.0
C835 C 0.57813 0.37036 0.28714 0.0
C836 C 0.5741 0.35953 0.26803 0.0
C837 C 0.57478 0.34298 0.27257 0.0
C838 C 0.57976 0.33733 0.2962 0.0
H839 H 0.62905 0.35299 0.34391 0.0
H840 H 0.61799 0.34794 0.31556 0.0
H841 H 0.61387 0.36627 0.33202 0.0
H842 H 0.58574 0.37326 0.32558 0.0
H843 H 0.57742 0.38316 0.28383 0.0
H844 H 0.40533 0.84258 0.2219 0.0
H845 H 0.39758 0.83216 0.17999 0.0
H846 H 0.39678 0.88044 0.15051 0.0
H847 H 0.4048 0.89072 0.19212 0.0
H848 H 0.36934 0.84046 0.15303 0.0
H849 H 0.42377 0.85724 0.09778 0.0
H850 H 0.42433 0.85353 0.13153 0.0
H851 H 0.41628 0.87198 0.11952 0.0
C852 C 0.40362 0.85084 0.20627 0.0
C853 C 0.40554 0.86737 0.20981 0.0
C854 C 0.39922 0.84494 0.1825 0.0
C855 C 0.39685 0.85554 0.16216 0.0
C856 C 0.39891 0.87206 0.16584 0.0
H857 H 0.36219 0.85229 0.00989 0.0
H858 H 0.37144 0.85931 0.05237 0.0
C859 C 0.40334 0.87793 0.18952 0.0
C860 C 0.39142 0.84949 0.13737 0.0
H861 H 0.4014 0.84832 0.07472 0.0
C862 C 0.37641 0.84197 0.13592 0.0
C863 C 0.40067 0.85164 0.11517 0.0
C864 C 0.41721 0.85893 0.11592 0.0
C865 C 0.37022 0.83683 0.1126 0.0
C866 C 0.3794 0.83924 0.09041 0.0
C867 C 0.39446 0.84658 0.0919 0.0
C868 C 0.3734 0.83476 0.0652 0.0
C869 C 0.35372 0.82946 0.11162 0.0
C870 C 0.37181 0.81862 0.0584 0.0
C871 C 0.36656 0.81456 0.03413 0.0
C872 C 0.36283 0.82663 0.01646 0.0
C873 C 0.36476 0.84277 0.02324 0.0
C874 C 0.37003 0.84679 0.04744 0.0
H875 H 0.3476 0.82976 0.13033 0.0
H876 H 0.34622 0.8359 0.09754 0.0
H877 H 0.35464 0.81679 0.10545 0.0
H878 H 0.37475 0.8092 0.07176 0.0
H879 H 0.3654 0.80202 0.02926 0.0
H880 H 0.90479 0.33557 0.7308 0.0
H881 H 0.8973 0.32494 0.68899 0.0
H882 H 0.91541 0.368 0.65363 0.0
H883 H 0.92366 0.37814 0.69518 0.0
H884 H 0.87576 0.33933 0.65607 0.0
H885 H 0.93548 0.33411 0.60946 0.0
H886 H 0.933 0.33321 0.64347 0.0
H887 H 0.93201 0.3521 0.62719 0.0
C888 C 0.90723 0.3426 0.71395 0.0
C889 C 0.91455 0.35767 0.71578 0.0
C890 C 0.90304 0.33656 0.69023 0.0
C891 C 0.906 0.34562 0.66829 0.0
C892 C 0.91344 0.36064 0.67027 0.0
H893 H 0.87989 0.34155 0.51165 0.0
H894 H 0.88866 0.34882 0.55432 0.0
C895 C 0.91797 0.3665 0.6939 0.0
C896 C 0.90034 0.33989 0.64349 0.0
H897 H 0.91276 0.33102 0.58357 0.0
C898 C 0.88384 0.33731 0.64027 0.0
C899 C 0.91096 0.33743 0.62299 0.0
C900 C 0.92886 0.33922 0.62585 0.0
C901 C 0.87763 0.33257 0.61679 0.0
C902 C 0.88826 0.33035 0.59626 0.0
C903 C 0.90473 0.33281 0.59951 0.0
C904 C 0.88254 0.32591 0.57091 0.0
C905 C 0.85977 0.33052 0.61378 0.0
C906 C 0.8766 0.31049 0.56626 0.0
C907 C 0.87171 0.30626 0.54189 0.0
C908 C 0.87259 0.31746 0.52204 0.0
C909 C 0.87882 0.33279 0.52673 0.0
C910 C 0.88383 0.33696 0.55101 0.0
H911 H 0.85308 0.33403 0.63113 0.0
H912 H 0.85544 0.33786 0.5976 0.0
H913 H 0.857 0.31781 0.60953 0.0
H914 H 0.87587 0.30174 0.58141 0.0
H915 H 0.86708 0.29431 0.53866 0.0
H916 H 0.40824 0.08554 0.28738 0.0
H917 H 0.4011 0.09552 0.32962 0.0
H918 H 0.39328 0.1427 0.29832 0.0
H919 H 0.39994 0.1325 0.25581 0.0
H920 H 0.41486 0.11958 0.35783 0.0
H921 H 0.35124 0.1343 0.33598 0.0
H922 H 0.36266 0.11992 0.31787 0.0
H923 H 0.36588 0.141 0.31334 0.0
C924 C 0.40482 0.09798 0.28964 0.0
C925 C 0.40409 0.1082 0.26866 0.0
C926 C 0.40082 0.10368 0.31363 0.0
C927 C 0.39625 0.11971 0.3169 0.0
C928 C 0.39624 0.13015 0.29598 0.0
H929 H 0.3659 0.17344 0.44922 0.0
H930 H 0.37681 0.16572 0.40777 0.0
C931 C 0.40007 0.12438 0.27187 0.0
C932 C 0.39172 0.12547 0.34236 0.0
H933 H 0.36076 0.14128 0.37636 0.0
C934 C 0.40305 0.12436 0.36192 0.0
C935 C 0.37622 0.13147 0.34757 0.0
C936 C 0.36321 0.13166 0.32772 0.0
C937 C 0.39936 0.12937 0.3866 0.0
C938 C 0.384 0.13568 0.39164 0.0
C939 C 0.37264 0.13672 0.37214 0.0
C940 C 0.37909 0.14061 0.4173 0.0
C941 C 0.41195 0.12812 0.40701 0.0
C942 C 0.37686 0.12901 0.43619 0.0
C943 C 0.37052 0.13332 0.45965 0.0
C944 C 0.36629 0.1493 0.46456 0.0
C945 C 0.36899 0.16101 0.44586 0.0
C946 C 0.37524 0.15665 0.42228 0.0
H947 H 0.42384 0.12465 0.39927 0.0
H948 H 0.41311 0.13974 0.41707 0.0
H949 H 0.4083 0.11896 0.42115 0.0
H950 H 0.37954 0.11653 0.43251 0.0
H951 H 0.36872 0.12408 0.47381 0.0
H952 H 0.59283 0.60132 0.2055 0.0
H953 H 0.60025 0.61102 0.16331 0.0
H954 H 0.56288 0.64668 0.16713 0.0
H955 H 0.55528 0.63684 0.20942 0.0
H956 H 0.57992 0.61205 0.12081 0.0
H957 H 0.60321 0.67257 0.14589 0.0
H958 H 0.60295 0.65612 0.16819 0.0
H959 H 0.58472 0.66642 0.16052 0.0
C960 C 0.58633 0.61133 0.1974 0.0
C961 C 0.5736 0.61839 0.21056 0.0
C962 C 0.59053 0.61683 0.17338 0.0
C963 C 0.58227 0.62969 0.1624 0.0
C964 C 0.56954 0.63689 0.17555 0.0
H965 H 0.594 0.6757 0.01569 0.0
H966 H 0.58341 0.66677 0.05688 0.0
C967 C 0.56515 0.6312 0.19951 0.0
C968 C 0.58655 0.63489 0.13658 0.0
H969 H 0.60221 0.66597 0.1027 0.0
C970 C 0.58475 0.62385 0.11676 0.0
C971 C 0.59298 0.65023 0.13162 0.0
C972 C 0.59623 0.66205 0.15261 0.0
C973 C 0.58914 0.6278 0.09192 0.0
C974 C 0.59538 0.64321 0.08694 0.0
C975 C 0.59713 0.65428 0.1067 0.0
C976 C 0.60094 0.64788 0.06155 0.0
C977 C 0.58689 0.61558 0.07115 0.0
C978 C 0.61427 0.64022 0.05088 0.0
C979 C 0.62011 0.64509 0.02741 0.0
C980 C 0.61298 0.65797 0.01471 0.0
C981 C 0.59972 0.6658 0.02542 0.0
C982 C 0.59366 0.66069 0.04873 0.0
H983 H 0.58 0.60496 0.07772 0.0
H984 H 0.58056 0.62108 0.0548 0.0
H985 H 0.59874 0.61136 0.06437 0.0
H986 H 0.62032 0.63064 0.06092 0.0
H987 H 0.63045 0.63905 0.01946 0.0
H988 H 0.08977 0.87013 0.76825 0.0
H989 H 0.09727 0.85993 0.8099 0.0
H990 H 0.0474 0.85315 0.82871 0.0
H991 H 0.03974 0.86308 0.78668 0.0
H992 H 0.08797 0.87423 0.85516 0.0
H993 H 0.06788 0.81061 0.85102 0.0
H994 H 0.07302 0.82196 0.82297 0.0
H995 H 0.05433 0.82549 0.83883 0.0
C996 C 0.08038 0.86633 0.78113 0.0
C997 C 0.06419 0.86756 0.77437 0.0
C998 C 0.08469 0.86049 0.80487 0.0
C999 C 0.0729 0.85569 0.82219 0.0
C1000 C 0.05667 0.85655 0.81537 0.0
H1001 H 0.07987 0.82675 0.98009 0.0
H1002 H 0.07013 0.83511 0.938 0.0
C1003 C 0.05233 0.86238 0.79151 0.0
C1004 C 0.07769 0.851 0.84801 0.0
H1005 H 0.07797 0.81988 0.88993 0.0
C1006 C 0.0858 0.86235 0.86281 0.0
C1007 C 0.07486 0.83548 0.85771 0.0
C1008 C 0.06715 0.82259 0.84185 0.0
C1009 C 0.09114 0.8586 0.88724 0.0
C1010 C 0.08817 0.84312 0.89702 0.0
C1011 C 0.07999 0.83179 0.88233 0.0
C1012 C 0.0939 0.83829 0.92227 0.0
C1013 C 0.09966 0.87126 0.90256 0.0
C1014 C 0.11039 0.83703 0.9269 0.0
C1015 C 0.11588 0.83244 0.95074 0.0
C1016 C 0.10494 0.82892 0.97002 0.0
C1017 C 0.08842 0.82968 0.96532 0.0
C1018 C 0.08291 0.8344 0.94147 0.0
H1019 H 0.09937 0.88319 0.89317 0.0
H1020 H 0.0941 0.87229 0.92162 0.0
H1021 H 0.11239 0.86782 0.9052 0.0
H1022 H 0.119 0.83953 0.91203 0.0
H1023 H 0.12866 0.83157 0.95411 0.0
H1024 H 0.09526 0.33572 0.31593 0.0
H1025 H 0.10494 0.31062 0.3351 0.0
H1026 H 0.05687 0.29964 0.36002 0.0
H1027 H 0.04725 0.32442 0.34068 0.0
H1028 H 0.102 0.2998 0.3858 0.0
H1029 H 0.0682 0.25944 0.32056 0.0
H1030 H 0.07387 0.2795 0.31122 0.0
H1031 H 0.05782 0.27642 0.33337 0.0
C1032 C 0.08699 0.32816 0.32634 0.0
C1033 C 0.07067 0.33191 0.32748 0.0
C1034 C 0.09239 0.31378 0.33677 0.0
C1035 C 0.08147 0.3032 0.3482 0.0
C1036 C 0.06534 0.30749 0.35061 0.0
H1037 H 0.07888 0.21701 0.42569 0.0
H1038 H 0.07605 0.24279 0.40576 0.0
C1039 C 0.05996 0.32175 0.34019 0.0
C1040 C 0.08706 0.2879 0.35845 0.0
H1041 H 0.08255 0.24752 0.35359 0.0
C1042 C 0.09801 0.28832 0.37854 0.0
C1043 C 0.08144 0.27308 0.34905 0.0
C1044 C 0.06974 0.27195 0.3273 0.0
C1045 C 0.10335 0.27419 0.38997 0.0
C1046 C 0.09784 0.2594 0.38051 0.0
C1047 C 0.08701 0.25898 0.36022 0.0
C1048 C 0.1008 0.24432 0.39386 0.0
C1049 C 0.11406 0.27517 0.41292 0.0
C1050 C 0.11578 0.23662 0.39353 0.0
C1051 C 0.11756 0.22164 0.40532 0.0
C1052 C 0.1043 0.21455 0.41743 0.0
C1053 C 0.0894 0.2223 0.41699 0.0
C1054 C 0.08771 0.23705 0.4056 0.0
H1055 H 0.11688 0.28774 0.4182 0.0
H1056 H 0.10817 0.2692 0.42929 0.0
H1057 H 0.12546 0.26875 0.40911 0.0
H1058 H 0.12593 0.24211 0.38408 0.0
H1059 H 0.12917 0.21583 0.40545 0.0
H1060 H 0.91187 0.80939 0.58223 0.0
H1061 H 0.93662 0.81864 0.60144 0.0
H1062 H 0.91888 0.86722 0.6003 0.0
H1063 H 0.89374 0.85787 0.58062 0.0
H1064 H 0.95728 0.84043 0.57811 0.0
H1065 H 0.9366 0.86079 0.67311 0.0
H1066 H 0.92606 0.84597 0.65461 0.0
H1067 H 0.92453 0.86678 0.64648 0.0
C1068 C 0.91307 0.82201 0.58668 0.0
C1069 C 0.90099 0.83296 0.58017 0.0
C1070 C 0.92723 0.82725 0.59746 0.0
C1071 C 0.92948 0.84354 0.60225 0.0
C1072 C 0.91715 0.85454 0.59695 0.0
H1073 H -0.00678 0.89283 0.6649 0.0
H1074 H 0.98737 0.88744 0.64144 0.0
C1075 C 0.90282 0.84924 0.58598 0.0
C1076 C 0.94515 0.84889 0.61163 0.0
H1077 H 0.9636 0.86578 0.66252 0.0
C1078 C 0.95869 0.84613 0.59644 0.0
C1079 C 0.94686 0.85582 0.63582 0.0
C1080 C 0.93281 0.85743 0.65365 0.0
C1081 C 0.97399 0.85056 0.60466 0.0
C1082 C 0.97563 0.85803 0.62852 0.0
C1083 C 0.96212 0.86057 0.64384 0.0
C1084 C 0.99143 0.86185 0.63909 0.0
C1085 C 0.98827 0.8473 0.58783 0.0
C1086 C -0.01731 0.84928 0.64495 0.0
C1087 C -0.00321 0.85234 0.65786 0.0
C1088 C 0.00053 0.86794 0.66553 0.0
C1089 C -0.00948 0.88074 0.6588 0.0
C1090 C 0.99548 0.87766 0.64567 0.0
H1091 H 0.98464 0.84403 0.56825 0.0
H1092 H 0.99622 0.85796 0.58701 0.0
H1093 H 0.99532 0.83718 0.59569 0.0
H1094 H -0.02044 0.83699 0.64065 0.0
H1095 H 0.00442 0.84235 0.66304 0.0
H1096 H 0.37142 0.7497 0.95701 0.0
H1097 H 0.37689 0.72478 0.93556 0.0
H1098 H 0.35968 0.74488 0.86518 0.0
H1099 H 0.35493 0.77074 0.88672 0.0
H1100 H 0.35696 0.70523 0.91146 0.0
H1101 H 0.40428 0.7277 0.84553 0.0
H1102 H 0.39927 0.73793 0.87463 0.0
H1103 H 0.38605 0.7391 0.84792 0.0
C1104 C 0.3688 0.7489 0.93692 0.0
C1105 C 0.36322 0.76218 0.9233 0.0
C1106 C 0.37192 0.73465 0.92473 0.0
C1107 C 0.36916 0.73322 0.89874 0.0
C1108 C 0.36238 0.74606 0.88517 0.0
H1109 H 0.38134 0.65408 0.8004 0.0
H1110 H 0.37341 0.67846 0.82246 0.0
C1111 C 0.35942 0.76063 0.89747 0.0
C1112 C 0.37316 0.71792 0.88672 0.0
H1113 H 0.3983 0.70014 0.84435 0.0
C1114 C 0.36596 0.7041 0.8967 0.0
C1115 C 0.38524 0.71662 0.86805 0.0
C1116 C 0.3943 0.73107 0.85842 0.0
C1117 C 0.37028 0.68891 0.88818 0.0
C1118 C 0.38192 0.68761 0.86901 0.0
C1119 C 0.3893 0.70138 0.85908 0.0
C1120 C 0.38546 0.67214 0.85734 0.0
C1121 C 0.36209 0.67435 0.89914 0.0
C1122 C 0.39425 0.66036 0.87028 0.0
C1123 C 0.39858 0.64625 0.85781 0.0
C1124 C 0.39419 0.64411 0.83239 0.0
C1125 C 0.38452 0.65547 0.8202 0.0
C1126 C 0.38025 0.66945 0.83256 0.0
H1127 H 0.3527 0.67757 0.91319 0.0
H1128 H 0.3565 0.66726 0.8837 0.0
H1129 H 0.37106 0.6666 0.90865 0.0
H1130 H 0.39839 0.66242 0.88947 0.0
H1131 H 0.40643 0.63778 0.86718 0.0
H1132 H 0.58973 0.11765 0.06085 0.0
H1133 H 0.56459 0.10814 0.08004 0.0
H1134 H 0.55532 0.15569 0.10867 0.0
H1135 H 0.58019 0.16517 0.08921 0.0
H1136 H 0.5545 0.10974 0.13116 0.0
H1137 H 0.51429 0.14655 0.06971 0.0
H1138 H 0.53408 0.14065 0.05937 0.0
H1139 H 0.5317 0.15605 0.08277 0.0
C1140 C 0.58254 0.12582 0.07205 0.0
C1141 C 0.58684 0.14195 0.07429 0.0
C1142 C 0.56814 0.12052 0.08252 0.0
C1143 C 0.55802 0.13137 0.09506 0.0
C1144 C 0.56282 0.14729 0.09845 0.0
H1145 H 0.47283 0.13347 0.17528 0.0
H1146 H 0.49854 0.13618 0.15507 0.0
C1147 C 0.57713 0.15257 0.08796 0.0
C1148 C 0.54268 0.12586 0.10537 0.0
H1149 H 0.50235 0.13136 0.10185 0.0
C1150 C 0.54304 0.11423 0.12453 0.0
C1151 C 0.52789 0.13207 0.09677 0.0
C1152 C 0.52684 0.14447 0.07596 0.0
C1153 C 0.5289 0.1088 0.13586 0.0
C1154 C 0.51413 0.11494 0.12725 0.0
C1155 C 0.51377 0.12644 0.10784 0.0
C1156 C 0.49911 0.11192 0.14083 0.0
C1157 C 0.52985 0.09728 0.15784 0.0
C1158 C 0.49091 0.09724 0.13937 0.0
C1159 C 0.47593 0.09554 0.15127 0.0
C1160 C 0.46933 0.10855 0.16464 0.0
C1161 C 0.47768 0.12313 0.16553 0.0
C1162 C 0.49241 0.12474 0.15399 0.0
H1163 H 0.54241 0.09394 0.16247 0.0
H1164 H 0.52427 0.10276 0.17486 0.0
H1165 H 0.52306 0.08622 0.15332 0.0
H1166 H 0.49597 0.08729 0.12891 0.0
H1167 H 0.46971 0.08416 0.15039 0.0
H1168 H 0.0959 0.64054 0.15938 0.0
H1169 H 0.10546 0.66567 0.14006 0.0
H1170 H 0.05679 0.67824 0.12068 0.0
H1171 H 0.04733 0.6534 0.13996 0.0
H1172 H 0.10053 0.67721 0.08997 0.0
H1173 H 0.07096 0.71752 0.16034 0.0
H1174 H 0.07643 0.69717 0.16829 0.0
H1175 H 0.05954 0.70104 0.14817 0.0
C1176 C 0.08744 0.64845 0.15011 0.0
C1177 C 0.07102 0.64512 0.15048 0.0
C1178 C 0.09279 0.66284 0.13963 0.0
C1179 C 0.08171 0.67386 0.12975 0.0
C1180 C 0.06541 0.67003 0.12887 0.0
H1181 H 0.07883 0.76151 0.05543 0.0
H1182 H 0.0756 0.73567 0.07537 0.0
C1183 C 0.06011 0.65573 0.13924 0.0
C1184 C 0.08725 0.68914 0.1194 0.0
H1185 H 0.08412 0.72953 0.12613 0.0
C1186 C 0.09722 0.68869 0.09806 0.0
C1187 C 0.08248 0.70396 0.12991 0.0
C1188 C 0.07182 0.70507 0.153 0.0
C1189 C 0.10244 0.70283 0.0865 0.0
C1190 C 0.09779 0.71761 0.09709 0.0
C1191 C 0.08792 0.71805 0.11858 0.0
C1192 C 0.10075 0.73281 0.08411 0.0
C1193 C 0.11206 0.70188 0.06234 0.0
C1194 C 0.11607 0.73978 0.08284 0.0
C1195 C 0.11802 0.75475 0.07115 0.0
C1196 C 0.10461 0.76252 0.06072 0.0
C1197 C 0.08939 0.75559 0.06289 0.0
C1198 C 0.0875 0.74084 0.07424 0.0
H1199 H 0.11414 0.68931 0.05623 0.0
H1200 H 0.1057 0.70836 0.04694 0.0
H1201 H 0.12384 0.70778 0.0651 0.0
H1202 H 0.12635 0.7337 0.09088 0.0
H1203 H 0.12987 0.75997 0.06964 0.0
H1204 H 0.4577 0.86381 0.35211 0.0
H1205 H 0.48299 0.85787 0.37419 0.0
H1206 H 0.50935 0.87039 0.30651 0.0
H1207 H 0.48431 0.87655 0.28484 0.0
H1208 H 0.50434 0.83387 0.3565 0.0
H1209 H 0.53458 0.89319 0.36098 0.0
H1210 H 0.51307 0.89105 0.35932 0.0
H1211 H 0.5251 0.88866 0.33133 0.0
C1212 C 0.46899 0.86593 0.3425 0.0
C1213 C 0.46932 0.87065 0.31701 0.0
C1214 C 0.48333 0.86235 0.3549 0.0
C1215 C 0.49795 0.86377 0.34191 0.0
C1216 C 0.4982 0.8695 0.31694 0.0
H1217 H 0.59699 0.83821 0.37146 0.0
H1218 H 0.57154 0.8452 0.35056 0.0
C1219 C 0.48396 0.87302 0.30462 0.0
C1220 C 0.51293 0.85816 0.35348 0.0
H1221 H 0.55054 0.87044 0.369 0.0
C1222 C 0.51442 0.84184 0.35954 0.0
C1223 C 0.52601 0.86862 0.35699 0.0
C1224 C 0.52465 0.88638 0.35204 0.0
C1225 C 0.52884 0.83571 0.36904 0.0
C1226 C 0.54196 0.84622 0.37226 0.0
C1227 C 0.54046 0.86245 0.36604 0.0
C1228 C 0.55702 0.84103 0.38398 0.0
C1229 C 0.53009 0.81808 0.3752 0.0
C1230 C 0.55712 0.83692 0.40966 0.0
C1231 C 0.57145 0.8331 0.42148 0.0
C1232 C 0.58597 0.83352 0.40789 0.0
C1233 C 0.58596 0.83799 0.3823 0.0
C1234 C 0.57149 0.84174 0.37037 0.0
H1235 H 0.51954 0.81123 0.36833 0.0
H1236 H 0.54112 0.81297 0.36664 0.0
H1237 H 0.53092 0.81646 0.39604 0.0
H1238 H 0.54613 0.83686 0.42062 0.0
H1239 H 0.57115 0.82978 0.44135 0.0
H1240 H 0.36539 0.2026 0.6063 0.0
H1241 H 0.37081 0.22801 0.62842 0.0
H1242 H 0.36485 0.25366 0.55793 0.0
H1243 H 0.35915 0.22858 0.5362 0.0
H1244 H 0.39701 0.24789 0.61484 0.0
H1245 H 0.33953 0.28119 0.60634 0.0
H1246 H 0.34059 0.25957 0.60604 0.0
H1247 H 0.34576 0.27088 0.57819 0.0
C1248 C 0.36461 0.21379 0.59594 0.0
C1249 C 0.36193 0.21384 0.56969 0.0
C1250 C 0.36788 0.22819 0.60842 0.0
C1251 C 0.36817 0.24264 0.59474 0.0
C1252 C 0.36441 0.24268 0.56888 0.0
H1253 H 0.39744 0.34103 0.62382 0.0
H1254 H 0.39013 0.31564 0.60272 0.0
C1255 C 0.36118 0.22839 0.55649 0.0
C1256 C 0.37363 0.25759 0.60666 0.0
H1257 H 0.36236 0.29619 0.6174 0.0
C1258 C 0.38943 0.25843 0.6157 0.0
C1259 C 0.36371 0.27128 0.60738 0.0
C1260 C 0.34641 0.27073 0.59919 0.0
C1261 C 0.39561 0.27281 0.6253 0.0
C1262 C 0.38569 0.28655 0.62548 0.0
C1263 C 0.36996 0.28566 0.61654 0.0
C1264 C 0.3907 0.30162 0.6373 0.0
C1265 C 0.41267 0.27333 0.63478 0.0
C1266 C 0.39253 0.30203 0.66356 0.0
C1267 C 0.39617 0.31631 0.67545 0.0
C1268 C 0.39826 0.33046 0.66133 0.0
C1269 C 0.39577 0.33029 0.63505 0.0
C1270 C 0.39193 0.31583 0.62305 0.0
H1271 H 0.41941 0.26226 0.62996 0.0
H1272 H 0.41903 0.28383 0.6266 0.0
H1273 H 0.41271 0.27468 0.6557 0.0
H1274 H 0.39104 0.2913 0.6749 0.0
H1275 H 0.39783 0.31616 0.69584 0.0
H1276 H 0.00197 0.08844 0.84675 0.0
H1277 H 0.99546 0.09241 0.86939 0.0
H1278 H 0.98554 0.13358 0.8224 0.0
H1279 H -0.00945 0.12938 0.79931 0.0
H1280 H 0.98509 0.12104 0.89547 0.0
H1281 H 0.94514 0.10904 0.81318 0.0
H1282 H 0.96508 0.1007 0.81546 0.0
H1283 H 0.96219 0.12123 0.80606 0.0
C1284 C -0.00591 0.09812 0.84112 0.0
C1285 C -0.00172 0.10855 0.82117 0.0
C1286 C -0.02045 0.10039 0.85403 0.0
C1287 C 0.98856 0.11305 0.84695 0.0
C1288 C 0.99297 0.12343 0.8275 0.0
H1289 H 0.90197 0.16137 0.88768 0.0
H1290 H 0.92822 0.15375 0.87065 0.0
C1291 C -0.01217 0.12103 0.81446 0.0
C1292 C 0.97339 0.11623 0.85989 0.0
H1293 H 0.93407 0.12342 0.8473 0.0
C1294 C 0.97381 0.12115 0.88528 0.0
C1295 C 0.95891 0.11694 0.84601 0.0
C1296 C 0.95773 0.11159 0.81873 0.0
C1297 C 0.95996 0.12693 0.89718 0.0
C1298 C 0.94557 0.12761 0.88314 0.0
C1299 C 0.94522 0.1228 0.85782 0.0
C1300 C 0.93036 0.1326 0.89424 0.0
C1301 C 0.96088 0.13283 0.92417 0.0
C1302 C 0.92276 0.12272 0.91202 0.0
C1303 C 0.9077 0.12685 0.92123 0.0
C1304 C 0.90013 0.14076 0.91246 0.0
C1305 C 0.90741 0.15022 0.89377 0.0
C1306 C 0.92251 0.14617 0.8847 0.0
H1307 H 0.9734 0.13318 0.93131 0.0
H1308 H 0.95563 0.14503 0.92555 0.0
H1309 H 0.95379 0.12481 0.93667 0.0
H1310 H 0.92857 0.11197 0.91898 0.0
H1311 H 0.90243 0.1198 0.93638 0.0
H1312 H 0.88202 0.64079 0.6668 0.0
H1313 H 0.87238 0.66573 0.6469 0.0
H1314 H 0.92108 0.67819 0.62745 0.0
H1315 H 0.93046 0.65314 0.64584 0.0
H1316 H 0.88195 0.69689 0.66203 0.0
H1317 H 0.89869 0.68587 0.56121 0.0
H1318 H 0.89544 0.66971 0.58345 0.0
H1319 H 0.91364 0.6812 0.58443 0.0
C1320 C 0.89043 0.64852 0.657 0.0
C1321 C 0.90684 0.64502 0.65698 0.0
C1322 C 0.88503 0.66283 0.64618 0.0
C1323 C 0.89603 0.67362 0.63544 0.0
C1324 C 0.91236 0.66981 0.63492 0.0
H1325 H 0.89913 0.76616 0.57258 0.0
H1326 H 0.90327 0.74124 0.59565 0.0
C1327 C 0.91768 0.65549 0.64525 0.0
C1328 C 0.89065 0.68917 0.62553 0.0
H1329 H 0.89037 0.71197 0.57199 0.0
C1330 C 0.8835 0.70014 0.64226 0.0
C1331 C 0.89309 0.69337 0.59988 0.0
C1332 C 0.90054 0.68192 0.58111 0.0
C1333 C 0.87881 0.71538 0.63389 0.0
C1334 C 0.88123 0.7195 0.60826 0.0
C1335 C 0.88835 0.70854 0.59159 0.0
C1336 C 0.87803 0.73567 0.59862 0.0
C1337 C 0.8719 0.72724 0.65245 0.0
C1338 C 0.86236 0.74091 0.59346 0.0
C1339 C 0.85995 0.75531 0.58032 0.0
C1340 C 0.87326 0.76421 0.5721 0.0
C1341 C 0.88876 0.75932 0.57863 0.0
C1342 C 0.89113 0.74517 0.59179 0.0
H1343 H 0.87166 0.72248 0.67213 0.0
H1344 H 0.87906 0.73846 0.65214 0.0
H1345 H 0.85949 0.73037 0.64674 0.0
H1346 H 0.85216 0.73354 0.59849 0.0
H1347 H 0.8479 0.75895 0.57528 0.0
H1348 H 0.97695 0.1349 0.31152 0.0
H1349 H -0.01705 0.14005 0.33279 0.0
H1350 H -0.01102 0.08933 0.34624 0.0
H1351 H 0.98278 0.08403 0.32362 0.0
H1352 H -0.00861 0.13373 0.38072 0.0
H1353 H 0.03153 0.1021 0.3126 0.0
H1354 H 0.01184 0.10914 0.30389 0.0
H1355 H 0.01398 0.09147 0.32303 0.0
C1356 C 0.98359 0.12484 0.31918 0.0
C1357 C 0.97811 0.10911 0.3161 0.0
C1358 C 0.99796 0.12779 0.33123 0.0
C1359 C -0.01213 0.11506 0.34065 0.0
C1360 C -0.01783 0.09925 0.33855 0.0
H1361 H 0.07867 0.11859 0.41863 0.0
H1362 H 0.05272 0.11042 0.40068 0.0
C1363 C 0.98684 0.09625 0.32616 0.0
C1364 C 0.00314 0.11883 0.353 0.0
H1365 H 0.04354 0.11464 0.34719 0.0
C1366 C 0.00282 0.12945 0.3736 0.0
C1367 C 0.01793 0.1136 0.34299 0.0
C1368 C 0.01898 0.10355 0.31929 0.0
C1369 C 0.017 0.13485 0.38475 0.0
C1370 C 0.03173 0.12911 0.37525 0.0
C1371 C 0.03208 0.11861 0.35463 0.0
C1372 C 0.04713 0.13399 0.38592 0.0
C1373 C 0.0161 0.14649 0.40659 0.0
C1374 C 0.05264 0.14964 0.38226 0.0
C1375 C 0.06751 0.15408 0.39165 0.0
C1376 C 0.07696 0.14295 0.40482 0.0
C1377 C 0.07176 0.12711 0.40764 0.0
C1378 C 0.05686 0.12262 0.39804 0.0
H1379 H 0.00356 0.14891 0.41255 0.0
H1380 H 0.02287 0.14169 0.42305 0.0
H1381 H 0.02168 0.15804 0.40106 0.0
H1382 H 0.04535 0.15843 0.37249 0.0
H1383 H 0.07119 0.1665 0.39016 0.0
H1384 H 0.63591 0.21269 0.0819 0.0
H1385 H 0.632 0.23823 0.10495 0.0
H1386 H 0.58644 0.24455 0.06765 0.0
H1387 H 0.58971 0.2195 0.04609 0.0
H1388 H 0.62603 0.2695 0.08343 0.0
H1389 H 0.57329 0.24986 0.14014 0.0
H1390 H 0.58824 0.23599 0.12857 0.0
H1391 H 0.57306 0.24365 0.10766 0.0
C1392 C 0.625 0.21949 0.07908 0.0
C1393 C 0.6131 0.21409 0.06222 0.0
C1394 C 0.62281 0.23401 0.0921 0.0
C1395 C 0.60869 0.24293 0.08845 0.0
C1396 C 0.59714 0.23758 0.07137 0.0
H1397 H 0.56187 0.33107 0.12516 0.0
H1398 H 0.57148 0.30651 0.10464 0.0
C1399 C 0.59919 0.22328 0.05876 0.0
C1400 C 0.60575 0.25825 0.10135 0.0
H1401 H 0.57714 0.27792 0.13544 0.0
C1402 C 0.61559 0.27132 0.09535 0.0
C1403 C 0.59181 0.26054 0.11624 0.0
C1404 C 0.58104 0.24676 0.12372 0.0
C1405 C 0.61162 0.2868 0.10337 0.0
C1406 C 0.5976 0.2891 0.11785 0.0
C1407 C 0.58785 0.27602 0.12416 0.0
C1408 C 0.59305 0.30499 0.12728 0.0
C1409 C 0.62198 0.30076 0.09549 0.0
C1410 C 0.60228 0.31232 0.14618 0.0
C1411 C 0.59691 0.32635 0.1576 0.0
C1412 C 0.58231 0.33312 0.15016 0.0
C1413 C 0.57349 0.32628 0.13036 0.0
C1414 C 0.57881 0.31219 0.11901 0.0
H1415 H 0.63105 0.29729 0.08108 0.0
H1416 H 0.61444 0.31055 0.08766 0.0
H1417 H 0.62836 0.30553 0.1123 0.0
H1418 H 0.61312 0.30668 0.15311 0.0
H1419 H 0.60349 0.3312 0.17355 0.0
H1420 H 0.38929 0.81727 0.88299 0.0
H1421 H 0.41483 0.82452 0.86297 0.0
H1422 H 0.42049 0.86322 0.91645 0.0
H1423 H 0.39523 0.85566 0.93684 0.0
H1424 H 0.42333 0.85329 0.84154 0.0
H1425 H 0.46333 0.83983 0.92323 0.0
H1426 H 0.4444 0.8298 0.91817 0.0
H1427 H 0.44483 0.84969 0.93101 0.0
C1428 C 0.39573 0.82772 0.88966 0.0
C1429 C 0.39028 0.83631 0.91077 0.0
C1430 C 0.41042 0.83157 0.87874 0.0
C1431 C 0.41964 0.84406 0.88887 0.0
C1432 C 0.41369 0.85324 0.90897 0.0
H1433 H 0.51023 0.8888 0.84343 0.0
H1434 H 0.48374 0.88487 0.86375 0.0
C1435 C 0.3991 0.84929 0.92002 0.0
C1436 C 0.43491 0.84843 0.87715 0.0
H1437 H 0.47454 0.85447 0.88932 0.0
C1438 C 0.43454 0.85359 0.85195 0.0
C1439 C 0.44945 0.84848 0.89088 0.0
C1440 C 0.45067 0.84152 0.91725 0.0
C1441 C 0.44829 0.85944 0.84018 0.0
C1442 C 0.46272 0.86016 0.85417 0.0
C1443 C 0.46321 0.8546 0.87923 0.0
C1444 C 0.47792 0.86379 0.84166 0.0
C1445 C 0.44729 0.86481 0.81287 0.0
C1446 C 0.48316 0.85316 0.82316 0.0
C1447 C 0.4978 0.85535 0.81173 0.0
C1448 C 0.50787 0.86807 0.81883 0.0
C1449 C 0.50272 0.87888 0.83761 0.0
C1450 C 0.48769 0.87669 0.84909 0.0
H1451 H 0.43469 0.86654 0.80664 0.0
H1452 H 0.45397 0.87618 0.81009 0.0
H1453 H 0.45272 0.85558 0.80043 0.0
H1454 H 0.47602 0.84285 0.81785 0.0
H1455 H 0.50125 0.84666 0.7975 0.0
H1456 H 0.85941 0.207 0.88981 0.0
H1457 H 0.86412 0.23224 0.86636 0.0
H1458 H 0.89073 0.25075 0.92997 0.0
H1459 H 0.88618 0.22629 0.9531 0.0
H1460 H 0.85765 0.26516 0.88191 0.0
H1461 H 0.92329 0.25457 0.87248 0.0
H1462 H 0.90891 0.23842 0.87469 0.0
H1463 H 0.91462 0.24937 0.90252 0.0
C1464 C 0.86617 0.21654 0.89868 0.0
C1465 C 0.87289 0.21452 0.92293 0.0
C1466 C 0.86892 0.23081 0.8853 0.0
C1467 C 0.8784 0.2429 0.89618 0.0
C1468 C 0.88399 0.24124 0.92094 0.0
H1469 H 0.91622 0.33708 0.86699 0.0
H1470 H 0.9064 0.31239 0.88743 0.0
C1471 C 0.88127 0.22724 0.93415 0.0
C1472 C 0.88232 0.25771 0.88259 0.0
H1473 H 0.91405 0.28105 0.86535 0.0
C1474 C 0.86992 0.26857 0.87779 0.0
C1475 C 0.89843 0.26207 0.87784 0.0
C1476 C 0.91211 0.25049 0.88195 0.0
C1477 C 0.87326 0.28402 0.869 0.0
C1478 C 0.88934 0.28852 0.86481 0.0
C1479 C 0.90175 0.27754 0.86909 0.0
C1480 C 0.89342 0.30427 0.85431 0.0
C1481 C 0.85965 0.29565 0.86506 0.0
C1482 C 0.88892 0.30786 0.82942 0.0
C1483 C 0.89421 0.3219 0.8181 0.0
C1484 C 0.90423 0.33238 0.8314 0.0
C1485 C 0.90809 0.32929 0.85678 0.0
C1486 C 0.90274 0.31516 0.86822 0.0
H1487 H 0.84824 0.29119 0.87332 0.0
H1488 H 0.86257 0.30742 0.87368 0.0
H1489 H 0.85777 0.29756 0.84446 0.0
H1490 H 0.88205 0.2994 0.81829 0.0
H1491 H 0.89148 0.32398 0.79827 0.0
H1492 H 0.52011 0.12117 0.63781 0.0
H1493 H 0.49476 0.12719 0.61624 0.0
H1494 H 0.46918 0.0993 0.67216 0.0
H1495 H 0.49446 0.09385 0.69424 0.0
H1496 H 0.47139 0.10811 0.59591 0.0
H1497 H 0.4466 0.1424 0.67754 0.0
H1498 H 0.46785 0.13963 0.67259 0.0
H1499 H 0.45589 0.12361 0.6852 0.0
C1500 C 0.50908 0.11602 0.64498 0.0
C1501 C 0.50899 0.10708 0.66745 0.0
C1502 C 0.49466 0.1196 0.63292 0.0
C1503 C 0.48013 0.11413 0.6432 0.0
C1504 C 0.48025 0.10409 0.66453 0.0
H1505 H 0.38016 0.12548 0.60094 0.0
H1506 H 0.40551 0.11597 0.61959 0.0
C1507 C 0.49463 0.10073 0.67679 0.0
C1508 C 0.46485 0.11884 0.63151 0.0
H1509 H 0.42928 0.13754 0.64333 0.0
C1510 C 0.46216 0.11454 0.60623 0.0
C1511 C 0.45303 0.12747 0.64506 0.0
C1512 C 0.45595 0.13371 0.67152 0.0
C1513 C 0.44768 0.11821 0.59423 0.0
C1514 C 0.43565 0.1263 0.60805 0.0
C1515 C 0.43843 0.13089 0.63319 0.0
C1516 C 0.4205 0.13117 0.5962 0.0
C1517 C 0.44525 0.11319 0.56704 0.0
C1518 C 0.42075 0.14289 0.57732 0.0
C1519 C 0.40652 0.14824 0.5668 0.0
C1520 C 0.39169 0.14211 0.57516 0.0
C1521 C 0.3914 0.13037 0.5942 0.0
C1522 C 0.40581 0.12495 0.60474 0.0
H1523 H 0.45493 0.10512 0.56024 0.0
H1524 H 0.43355 0.107 0.56492 0.0
H1525 H 0.4451 0.12394 0.55465 0.0
H1526 H 0.43195 0.1481 0.57098 0.0
H1527 H 0.40723 0.15737 0.55222 0.0
H1528 H 0.61843 0.74824 0.45059 0.0
H1529 H 0.61288 0.72283 0.42959 0.0
H1530 H 0.60739 0.7476 0.35821 0.0
H1531 H 0.61334 0.7732 0.3793 0.0
H1532 H 0.5827 0.71812 0.40492 0.0
H1533 H 0.63494 0.70814 0.34073 0.0
H1534 H 0.63649 0.72011 0.36911 0.0
H1535 H 0.62634 0.72788 0.34176 0.0
C1536 C 0.61657 0.74814 0.43026 0.0
C1537 C 0.61614 0.76248 0.41645 0.0
C1538 C 0.61327 0.73371 0.41838 0.0
C1539 C 0.60956 0.73347 0.39256 0.0
C1540 C 0.61034 0.74764 0.37821 0.0
H1541 H 0.57752 0.66191 0.29263 0.0
H1542 H 0.58393 0.68604 0.31541 0.0
C1543 C 0.61382 0.76217 0.39013 0.0
C1544 C 0.60387 0.71845 0.38137 0.0
H1545 H 0.61416 0.68936 0.33945 0.0
C1546 C 0.58956 0.71173 0.39066 0.0
C1547 C 0.61289 0.71035 0.36283 0.0
C1548 C 0.62857 0.71687 0.35301 0.0
C1549 C 0.58402 0.69696 0.38167 0.0
C1550 C 0.5932 0.68885 0.36328 0.0
C1551 C 0.60737 0.69565 0.35391 0.0
C1552 C 0.58771 0.67407 0.35127 0.0
C1553 C 0.56827 0.69036 0.39112 0.0
C1554 C 0.58792 0.65928 0.36406 0.0
C1555 C 0.58403 0.64519 0.35101 0.0
C1556 C 0.58007 0.64601 0.32519 0.0
C1557 C 0.58039 0.66087 0.31261 0.0
C1558 C 0.58393 0.67474 0.32557 0.0
H1559 H 0.56235 0.69851 0.40489 0.0
H1560 H 0.56006 0.68835 0.37487 0.0
H1561 H 0.57027 0.6786 0.40046 0.0
H1562 H 0.59118 0.65867 0.3839 0.0
H1563 H 0.58371 0.63388 0.3611 0.0
H1564 H 0.06785 0.84818 0.03775 0.0
H1565 H 0.04255 0.85579 0.0574 0.0
H1566 H 0.05768 0.83385 0.12759 0.0
H1567 H 0.08329 0.82624 0.10777 0.0
H1568 H 0.02012 0.83356 0.07901 0.0
H1569 H 0.04255 0.8789 0.1481 0.0
H1570 H 0.05364 0.87379 0.11983 0.0
H1571 H 0.05298 0.86011 0.14609 0.0
C1572 C 0.06601 0.8456 0.0577 0.0
C1573 C 0.07747 0.83699 0.07156 0.0
C1574 C 0.0515 0.84965 0.06868 0.0
C1575 C 0.04836 0.8453 0.09377 0.0
C1576 C 0.0601 0.8374 0.1082 0.0
H1577 H 0.99112 0.85643 0.19345 0.0
H1578 H -0.00429 0.85051 0.16947 0.0
C1579 C 0.07474 0.83332 0.09712 0.0
C1580 C 0.03271 0.84931 0.10456 0.0
H1581 H 0.01504 0.87386 0.14753 0.0
C1582 C 0.0189 0.84239 0.09396 0.0
C1583 C 0.03138 0.86086 0.12385 0.0
C1584 C 0.04587 0.86895 0.13514 0.0
C1585 C 0.00362 0.84664 0.10268 0.0
C1586 C 0.00238 0.85825 0.122 0.0
C1587 C 0.01619 0.86518 0.13233 0.0
C1588 C -0.01274 0.86163 0.13492 0.0
C1589 C -0.01097 0.83831 0.09213 0.0
C1590 C 0.99398 0.87029 0.12342 0.0
C1591 C 0.97995 0.87352 0.13715 0.0
C1592 C 0.9786 0.86809 0.16233 0.0
C1593 C 0.99161 0.86037 0.17388 0.0
C1594 C -0.01396 0.85693 0.16022 0.0
H1595 H -0.00782 0.82935 0.07738 0.0
H1596 H -0.01752 0.83216 0.10768 0.0
H1597 H -0.01922 0.84726 0.08368 0.0
H1598 H 0.99506 0.8744 0.10401 0.0
H1599 H 0.97011 0.87968 0.12797 0.0
H1600 H 0.63077 0.73695 0.94641 0.0
H1601 H 0.62548 0.76276 0.92575 0.0
H1602 H 0.595 0.7391 0.87131 0.0
H1603 H 0.60016 0.71331 0.89223 0.0
H1604 H 0.62935 0.77295 0.87516 0.0
H1605 H 0.56477 0.7723 0.90291 0.0
H1606 H 0.57977 0.76131 0.92046 0.0
H1607 H 0.57308 0.75416 0.89021 0.0
C1608 C 0.62332 0.73731 0.9296 0.0
C1609 C 0.61586 0.72343 0.92063 0.0
C1610 C 0.62018 0.75196 0.91804 0.0
C1611 C 0.60947 0.75275 0.89763 0.0
C1612 C 0.60294 0.73867 0.88752 0.0
H1613 H 0.57051 0.82323 0.80334 0.0
H1614 H 0.58041 0.79989 0.8247 0.0
C1615 C 0.60611 0.724 0.89908 0.0
C1616 C 0.6051 0.7684 0.88709 0.0
H1617 H 0.57372 0.79382 0.87803 0.0
C1618 C 0.61724 0.77764 0.87598 0.0
C1619 C 0.58924 0.77429 0.88832 0.0
C1620 C 0.57592 0.76511 0.90122 0.0
C1621 C 0.61386 0.7926 0.86536 0.0
C1622 C 0.59804 0.79844 0.86644 0.0
C1623 C 0.5859 0.78927 0.87774 0.0
C1624 C 0.59335 0.81313 0.85325 0.0
C1625 C 0.62696 0.80172 0.85196 0.0
C1626 C 0.59757 0.82839 0.86229 0.0
C1627 C 0.5918 0.84214 0.85004 0.0
C1628 C 0.58182 0.84052 0.82878 0.0
C1629 C 0.57811 0.82509 0.81972 0.0
C1630 C 0.58375 0.8116 0.83185 0.0
H1631 H 0.63854 0.79514 0.85204 0.0
H1632 H 0.62341 0.80404 0.832 0.0
H1633 H 0.62876 0.81349 0.86128 0.0
H1634 H 0.60498 0.82961 0.87903 0.0
H1635 H 0.59487 0.85387 0.85734 0.0
H1636 H 0.50445 0.33332 0.17747 0.0
H1637 H 0.47949 0.32918 0.15617 0.0
H1638 H 0.48251 0.37625 0.12258 0.0
H1639 H 0.50844 0.3807 0.14426 0.0
H1640 H 0.45277 0.3481 0.16446 0.0
H1641 H 0.47134 0.34429 0.06308 0.0
H1642 H 0.4849 0.34013 0.08893 0.0
H1643 H 0.47938 0.3604 0.08191 0.0
C1644 C 0.50001 0.34295 0.16562 0.0
C1645 C 0.50835 0.35747 0.1629 0.0
C1646 C 0.4857 0.34045 0.15334 0.0
C1647 C 0.47924 0.35237 0.13796 0.0
C1648 C 0.48752 0.36689 0.13438 0.0
H1649 H 0.38888 0.34868 0.05937 0.0
H1650 H 0.41344 0.35769 0.08078 0.0
C1651 C 0.50219 0.36943 0.14678 0.0
C1652 C 0.46335 0.34937 0.1272 0.0
H1653 H 0.44397 0.3402 0.07236 0.0
C1654 C 0.45072 0.34664 0.14428 0.0
C1655 C 0.46112 0.34675 0.10106 0.0
C1656 C 0.47487 0.3479 0.08255 0.0
C1657 C 0.43572 0.34159 0.1358 0.0
C1658 C 0.43328 0.33968 0.10956 0.0
C1659 C 0.44593 0.34219 0.09244 0.0
C1660 C 0.41762 0.33499 0.09953 0.0
C1661 C 0.42259 0.3384 0.15485 0.0
C1662 C 0.41178 0.31951 0.10389 0.0
C1663 C 0.39767 0.31459 0.09236 0.0
C1664 C 0.38946 0.325 0.07608 0.0
C1665 C 0.39485 0.34073 0.07258 0.0
C1666 C 0.40894 0.34573 0.08435 0.0
H1667 H 0.42608 0.34195 0.17437 0.0
H1668 H 0.41155 0.34499 0.14942 0.0
H1669 H 0.41969 0.32543 0.15508 0.0
H1670 H 0.41854 0.31101 0.11514 0.0
H1671 H 0.39386 0.30224 0.0945 0.0
H1672 H 0.85381 0.24072 0.43584 0.0
H1673 H 0.85903 0.21487 0.41519 0.0
H1674 H 0.8953 0.23713 0.36852 0.0
H1675 H 0.89021 0.26287 0.38938 0.0
H1676 H 0.85885 0.20585 0.36334 0.0
H1677 H 0.9204 0.20154 0.40424 0.0
H1678 H 0.90475 0.21313 0.41919 0.0
H1679 H 0.91446 0.22048 0.39112 0.0
C1680 C 0.86255 0.24006 0.42066 0.0
C1681 C 0.8716 0.25351 0.41386 0.0
C1682 C 0.86564 0.22538 0.40915 0.0
C1683 C 0.87788 0.22415 0.39103 0.0
C1684 C 0.88612 0.23788 0.38301 0.0
H1685 H 0.92062 0.1539 0.30176 0.0
H1686 H 0.9099 0.17713 0.32176 0.0
C1687 C 0.88303 0.25253 0.3945 0.0
C1688 C 0.88208 0.20846 0.38059 0.0
H1689 H 0.91246 0.18142 0.37592 0.0
C1690 C 0.87048 0.20035 0.36634 0.0
C1691 C 0.89735 0.20157 0.38452 0.0
C1692 C 0.90998 0.20952 0.40069 0.0
C1693 C 0.87386 0.18552 0.35535 0.0
C1694 C 0.88903 0.17863 0.35936 0.0
C1695 C 0.90068 0.18672 0.37356 0.0
C1696 C 0.89388 0.164 0.34633 0.0
C1697 C 0.86159 0.17766 0.33849 0.0
C1698 C 0.88795 0.14882 0.3532 0.0
C1699 C 0.89425 0.13502 0.34175 0.0
C1700 C 0.90651 0.13659 0.32362 0.0
C1701 C 0.91158 0.152 0.31622 0.0
C1702 C 0.9054 0.16547 0.32747 0.0
H1703 H 0.85059 0.18504 0.33639 0.0
H1704 H 0.86681 0.17553 0.31942 0.0
H1705 H 0.85818 0.16585 0.34652 0.0
H1706 H 0.87885 0.14768 0.36774 0.0
H1707 H 0.88979 0.12334 0.34724 0.0
H1708 H 0.07989 0.62797 0.56506 0.0
H1709 H 0.0548 0.61821 0.58414 0.0
H1710 H 0.04655 0.66492 0.61673 0.0
H1711 H 0.07132 0.67467 0.59732 0.0
H1712 H 0.04509 0.61825 0.63545 0.0
H1713 H 0.00504 0.65782 0.57817 0.0
H1714 H 0.02461 0.65189 0.56685 0.0
H1715 H 0.02275 0.66656 0.5915 0.0
C1716 C 0.07293 0.63588 0.57706 0.0
C1717 C 0.07746 0.65188 0.58037 0.0
C1718 C 0.05856 0.63045 0.58749 0.0
C1719 C 0.04872 0.64103 0.60113 0.0
C1720 C 0.0538 0.65675 0.60564 0.0
H1721 H 0.98377 0.64229 0.68382 0.0
H1722 H -0.00984 0.64497 0.6634 0.0
C1723 C 0.06806 0.66217 0.59514 0.0
C1724 C 0.03337 0.63545 0.61134 0.0
H1725 H -0.00688 0.64192 0.60946 0.0
C1726 C 0.03367 0.62319 0.62951 0.0
C1727 C 0.01862 0.64223 0.60368 0.0
C1728 C 0.0176 0.65531 0.58391 0.0
C1729 C 0.01953 0.61771 0.6408 0.0
C1730 C 0.00482 0.62444 0.63313 0.0
C1731 C 0.0045 0.63656 0.6147 0.0
C1732 C -0.0101 0.6213 0.64689 0.0
C1733 C 0.02044 0.60548 0.6618 0.0
C1734 C -0.01872 0.60692 0.64431 0.0
C1735 C 0.98553 0.60521 0.65634 0.0
C1736 C 0.97938 0.61791 0.67093 0.0
C1737 C 0.9882 0.63216 0.67309 0.0
C1738 C -0.0163 0.63377 0.66142 0.0
H1739 H 0.03296 0.60171 0.6658 0.0
H1740 H 0.01517 0.61053 0.6794 0.0
H1741 H 0.01334 0.59475 0.6566 0.0
H1742 H -0.01404 0.59725 0.63281 0.0
H1743 H 0.97895 0.59409 0.65443 0.0
H1744 H 0.59171 0.26218 0.58696 0.0
H1745 H 0.58591 0.23666 0.60783 0.0
H1746 H 0.63047 0.21735 0.57961 0.0
H1747 H 0.63633 0.2431 0.55873 0.0
H1748 H 0.58282 0.20836 0.57912 0.0
H1749 H 0.62892 0.20304 0.6549 0.0
H1750 H 0.62218 0.22209 0.64258 0.0
H1751 H 0.63577 0.21001 0.62446 0.0
C1752 C 0.60051 0.25264 0.58609 0.0
C1753 C 0.61449 0.25443 0.57171 0.0
C1754 C 0.59714 0.2381 0.59775 0.0
C1755 C 0.60778 0.22524 0.59522 0.0
C1756 C 0.62226 0.22728 0.58199 0.0
H1757 H 0.59935 0.12561 0.64325 0.0
H1758 H 0.60794 0.15019 0.62084 0.0
C1759 C 0.62564 0.24191 0.57026 0.0
C1760 C 0.60298 0.20938 0.6046 0.0
H1761 H 0.61259 0.1805 0.6476 0.0
C1762 C 0.58935 0.20219 0.59399 0.0
C1763 C 0.61141 0.20163 0.62424 0.0
C1764 C 0.62532 0.20958 0.63745 0.0
C1765 C 0.58405 0.18719 0.60235 0.0
C1766 C 0.59281 0.17923 0.6215 0.0
C1767 C 0.60631 0.18649 0.63228 0.0
C1768 C 0.58726 0.16406 0.63244 0.0
C1769 C 0.56921 0.17993 0.59067 0.0
C1770 C 0.57295 0.16397 0.64607 0.0
C1771 C 0.56806 0.15022 0.65838 0.0
C1772 C 0.57756 0.1363 0.65787 0.0
C1773 C 0.59182 0.13617 0.64377 0.0
C1774 C 0.5967 0.15012 0.63115 0.0
H1775 H 0.56545 0.18639 0.57323 0.0
H1776 H 0.5713 0.16713 0.58597 0.0
H1777 H 0.55915 0.1805 0.6044 0.0
H1778 H 0.56574 0.17472 0.64783 0.0
H1779 H 0.55692 0.1507 0.66891 0.0
H1780 H 0.98796 0.38269 0.81317 0.0
H1781 H -0.00523 0.37791 0.83411 0.0
H1782 H 0.99746 0.33133 0.85847 0.0
H1783 H 0.97188 0.33593 0.83728 0.0
H1784 H 0.00232 0.36885 0.8855 0.0
H1785 H 0.01821 0.3201 0.81761 0.0
H1786 H 0.00462 0.3361 0.80917 0.0
H1787 H -0.00186 0.32025 0.82981 0.0
C1788 C 0.9899 0.37165 0.82357 0.0
C1789 C 0.97825 0.35958 0.82378 0.0
C1790 C -0.01453 0.36887 0.8352 0.0
C1791 C -0.01155 0.35406 0.84695 0.0
C1792 C 0.99546 0.3426 0.84876 0.0
H1793 H 0.06173 0.30442 0.92204 0.0
H1794 H 0.03753 0.31504 0.90362 0.0
C1795 C 0.98087 0.34531 0.83706 0.0
C1796 C 0.00429 0.35038 0.85725 0.0
H1797 H 0.03533 0.32415 0.85211 0.0
C1798 C 0.00973 0.35929 0.87801 0.0
C1799 C 0.01361 0.33765 0.8475 0.0
C1800 C 0.00846 0.32798 0.82472 0.0
C1801 C 0.02427 0.35556 0.88977 0.0
C1802 C 0.03358 0.34291 0.87995 0.0
C1803 C 0.02816 0.33404 0.85914 0.0
C1804 C 0.04829 0.3375 0.89228 0.0
C1805 C 0.02917 0.36451 0.91333 0.0
C1806 C 0.06242 0.34666 0.89159 0.0
C1807 C 0.07652 0.34062 0.90241 0.0
C1808 C 0.07633 0.32543 0.91379 0.0
C1809 C 0.06219 0.31628 0.91364 0.0
C1810 C 0.0483 0.3223 0.90323 0.0
H1811 H 0.02 0.37339 0.91931 0.0
H1812 H 0.03118 0.35591 0.9291 0.0
H1813 H 0.04061 0.37091 0.90985 0.0
H1814 H 0.06252 0.35836 0.88268 0.0
H1815 H 0.08727 0.34788 0.90251 0.0
H1816 H 0.86672 0.73818 0.02913 0.0
H1817 H 0.87221 0.76368 0.04987 0.0
H1818 H 0.88207 0.73881 0.12 0.0
H1819 H 0.87687 0.71301 0.09885 0.0
H1820 H 0.85888 0.77789 0.0917 0.0
H1821 H 0.92357 0.76433 0.10814 0.0
H1822 H 0.91215 0.75458 0.08351 0.0
H1823 H 0.90922 0.74906 0.11605 0.0
C1824 C 0.86973 0.73824 0.04912 0.0
C1825 C 0.87154 0.72387 0.0625 0.0
C1826 C 0.87298 0.75271 0.06085 0.0
C1827 C 0.87805 0.75297 0.08611 0.0
C1828 C 0.87863 0.73869 0.1002 0.0
H1829 H 0.9038 0.82572 0.188 0.0
H1830 H 0.89543 0.80199 0.16551 0.0
C1831 C 0.87536 0.72408 0.08837 0.0
C1832 C 0.8826 0.76837 0.09734 0.0
H1833 H 0.91398 0.7893 0.1219 0.0
C1834 C 0.87094 0.78044 0.09823 0.0
C1835 C 0.89843 0.77156 0.10543 0.0
C1836 C 0.91165 0.75928 0.10318 0.0
C1837 C 0.87456 0.79562 0.10767 0.0
C1838 C 0.89023 0.79874 0.11611 0.0
C1839 C 0.902 0.78675 0.11505 0.0
C1840 C 0.89416 0.81372 0.12903 0.0
C1841 C 0.8615 0.80804 0.10958 0.0
C1842 C 0.89579 0.82827 0.1158 0.0
C1843 C 0.90075 0.84207 0.12867 0.0
C1844 C 0.90408 0.84117 0.15471 0.0
C1845 C 0.90146 0.82674 0.16785 0.0
C1846 C 0.89674 0.81312 0.1551 0.0
H1847 H 0.84974 0.80345 0.10292 0.0
H1848 H 0.86025 0.81202 0.12957 0.0
H1849 H 0.86474 0.81869 0.09804 0.0
H1850 H 0.89378 0.82876 0.09553 0.0
H1851 H 0.90282 0.85304 0.11818 0.0
H1852 H 0.39139 0.6286 0.42573 0.0
H1853 H 0.41681 0.6198 0.40707 0.0
H1854 H 0.4185 0.66288 0.3617 0.0
H1855 H 0.39325 0.67179 0.38082 0.0
H1856 H 0.42405 0.6151 0.35596 0.0
H1857 H 0.46226 0.66378 0.39615 0.0
H1858 H 0.44391 0.65752 0.41147 0.0
H1859 H 0.4432 0.66922 0.38294 0.0
C1860 C 0.39691 0.63578 0.41098 0.0
C1861 C 0.39032 0.6505 0.40386 0.0
C1862 C 0.41152 0.63099 0.40083 0.0
C1863 C 0.4196 0.64093 0.3836 0.0
C1864 C 0.41256 0.65528 0.37547 0.0
H1865 H 0.49951 0.63845 0.29188 0.0
H1866 H 0.47446 0.64112 0.31355 0.0
C1867 C 0.39798 0.66009 0.38571 0.0
C1868 C 0.435 0.63572 0.37322 0.0
H1869 H 0.47456 0.64524 0.36909 0.0
C1870 C 0.43517 0.62153 0.35911 0.0
C1871 C 0.44932 0.64437 0.3773 0.0
C1872 C 0.44981 0.65954 0.39286 0.0
C1873 C 0.44934 0.6158 0.34837 0.0
C1874 C 0.46363 0.62439 0.35239 0.0
C1875 C 0.46352 0.63853 0.36675 0.0
C1876 C 0.47819 0.62075 0.33813 0.0
C1877 C 0.44885 0.60118 0.33169 0.0
C1878 C 0.48845 0.60804 0.3446 0.0
C1879 C 0.50321 0.60638 0.33206 0.0
C1880 C 0.50756 0.61748 0.31311 0.0
C1881 C 0.49676 0.62969 0.30641 0.0
C1882 C 0.48231 0.63129 0.31873 0.0
H1883 H 0.43662 0.59596 0.33039 0.0
H1884 H 0.45298 0.60436 0.3123 0.0
H1885 H 0.45713 0.59193 0.33924 0.0
H1886 H 0.48526 0.5998 0.35966 0.0
H1887 H 0.51122 0.59675 0.33741 0.0
H1888 H 0.37439 0.12652 0.14473 0.0
H1889 H 0.36442 0.15111 0.12384 0.0
H1890 H 0.4101 0.17394 0.13681 0.0
H1891 H 0.42026 0.14963 0.15568 0.0
H1892 H 0.36274 0.1818 0.14655 0.0
H1893 H 0.40387 0.18355 0.06331 0.0
H1894 H 0.39922 0.16517 0.07992 0.0
H1895 H 0.41318 0.17926 0.09312 0.0
C1896 C 0.38236 0.13664 0.14214 0.0
C1897 C 0.39806 0.13625 0.15154 0.0
C1898 C 0.37666 0.15065 0.13061 0.0
C1899 C 0.38669 0.16414 0.12843 0.0
C1900 C 0.40236 0.16352 0.13757 0.0
H1901 H 0.38481 0.26116 0.08182 0.0
H1902 H 0.38895 0.23584 0.10415 0.0
C1903 C 0.40808 0.14963 0.14852 0.0
C1904 C 0.38082 0.17924 0.11763 0.0
H1905 H 0.38919 0.20708 0.0723 0.0
C1906 C 0.36826 0.18722 0.13 0.0
C1907 C 0.38845 0.18636 0.0965 0.0
C1908 C 0.40185 0.17812 0.0823 0.0
C1909 C 0.36316 0.20235 0.12179 0.0
C1910 C 0.37082 0.20942 0.10077 0.0
C1911 C 0.38335 0.20144 0.08839 0.0
C1912 C 0.36656 0.22545 0.0917 0.0
C1913 C 0.3501 0.21098 0.13603 0.0
C1914 C 0.3523 0.228 0.07818 0.0
C1915 C 0.34988 0.24252 0.06554 0.0
C1916 C 0.36182 0.25431 0.06633 0.0
C1917 C 0.37551 0.25211 0.08122 0.0
C1918 C 0.37788 0.23773 0.09384 0.0
H1919 H 0.34643 0.20448 0.15349 0.0
H1920 H 0.35419 0.2232 0.1413 0.0
H1921 H 0.33945 0.21233 0.12361 0.0
H1922 H 0.34357 0.21848 0.07618 0.0
H1923 H 0.33934 0.24409 0.05382 0.0
H1924 H 0.47804 0.63789 0.7955 0.0
H1925 H 0.5025 0.64272 0.81779 0.0
H1926 H 0.49165 0.60446 0.87014 0.0
H1927 H 0.46621 0.59934 0.84749 0.0
H1928 H 0.50354 0.65153 0.86949 0.0
H1929 H 0.53906 0.59711 0.84476 0.0
H1930 H 0.52274 0.60416 0.82528 0.0
H1931 H 0.51861 0.59446 0.85493 0.0
C1932 C 0.48064 0.63031 0.81166 0.0
C1933 C 0.46996 0.61839 0.81999 0.0
C1934 C 0.49473 0.63317 0.82436 0.0
C1935 C 0.49867 0.6241 0.8456 0.0
C1936 C 0.48858 0.6116 0.85368 0.0
H1937 H 0.58135 0.63381 0.93946 0.0
H1938 H 0.55552 0.62687 0.92056 0.0
C1939 C 0.47415 0.60871 0.84083 0.0
C1940 C 0.51328 0.6285 0.85916 0.0
H1941 H 0.55186 0.61698 0.86836 0.0
C1942 C 0.5141 0.64395 0.86966 0.0
C1943 C 0.52701 0.61873 0.85827 0.0
C1944 C 0.52699 0.60271 0.8451 0.0
C1945 C 0.52844 0.64981 0.87968 0.0
C1946 C 0.54206 0.63979 0.87928 0.0
C1947 C 0.54122 0.62444 0.86875 0.0
C1948 C 0.55732 0.64448 0.89053 0.0
C1949 C 0.52889 0.66646 0.89082 0.0
C1950 C 0.56696 0.65615 0.87903 0.0
C1951 C 0.58185 0.65983 0.88946 0.0
C1952 C 0.58707 0.65177 0.91126 0.0
C1953 C 0.57769 0.63965 0.92203 0.0
C1954 C 0.56286 0.63602 0.9117 0.0
H1955 H 0.51699 0.67242 0.89026 0.0
H1956 H 0.53304 0.66587 0.9108 0.0
H1957 H 0.53754 0.67399 0.88015 0.0
H1958 H 0.56288 0.66254 0.86236 0.0
H1959 H 0.58873 0.66968 0.88165 0.0
H1960 H 0.09136 0.85177 0.64536 0.0
H1961 H 0.10141 0.82732 0.6242 0.0
H1962 H 0.05965 0.80143 0.64979 0.0
H1963 H 0.0493 0.82533 0.66919 0.0
H1964 H 0.1078 0.79735 0.64766 0.0
H1965 H 0.05929 0.79029 0.57608 0.0
H1966 H 0.06426 0.80945 0.58992 0.0
H1967 H 0.0527 0.79505 0.6075 0.0
C1968 C 0.08423 0.84093 0.64576 0.0
C1969 C 0.06956 0.84044 0.65882 0.0
C1970 C 0.08998 0.82702 0.63395 0.0
C1971 C 0.08103 0.81274 0.63504 0.0
C1972 C 0.06647 0.81241 0.64803 0.0
H1973 H 0.08604 0.71451 0.59324 0.0
H1974 H 0.08181 0.73999 0.6152 0.0
C1975 C 0.06069 0.82613 0.65938 0.0
C1976 C 0.08694 0.79781 0.62364 0.0
H1977 H 0.07627 0.76806 0.58285 0.0
C1978 C 0.10112 0.79106 0.63312 0.0
C1979 C 0.07789 0.78954 0.60516 0.0
C1980 C 0.06275 0.79647 0.59389 0.0
C1981 C 0.10642 0.77604 0.62475 0.0
C1982 C 0.09729 0.76776 0.60651 0.0
C1983 C 0.08318 0.77455 0.59692 0.0
C1984 C 0.10191 0.75185 0.59726 0.0
C1985 C 0.12136 0.7688 0.63599 0.0
C1986 C 0.11494 0.75009 0.58065 0.0
C1987 C 0.11737 0.73554 0.56821 0.0
C1988 C 0.10675 0.72281 0.57237 0.0
C1989 C 0.0944 0.72425 0.59015 0.0
C1990 C 0.09196 0.73874 0.60253 0.0
H1991 H 0.12613 0.77602 0.65196 0.0
H1992 H 0.11883 0.75647 0.64287 0.0
H1993 H 0.13075 0.76793 0.62115 0.0
H1994 H 0.12257 0.76021 0.57618 0.0
H1995 H 0.12683 0.73457 0.55419 0.0
H1996 H 0.91702 0.321 0.44118 0.0
H1997 H 0.9413 0.32899 0.41993 0.0
H1998 H 0.91447 0.33963 0.35206 0.0
H1999 H 0.88949 0.33127 0.3735 0.0
H2000 H 0.95376 0.31477 0.3755 0.0
H2001 H 0.94181 0.38023 0.36557 0.0
H2002 H 0.93225 0.36816 0.38965 0.0
H2003 H 0.92599 0.36659 0.35722 0.0
C2004 C 0.91611 0.32514 0.42175 0.0
C2005 C 0.90136 0.32534 0.40884 0.0
C2006 C 0.93006 0.32965 0.40968 0.0
C2007 C 0.92961 0.33476 0.38455 0.0
C2008 C 0.9149 0.33572 0.37164 0.0
H2009 H -0.01575 0.36309 0.28323 0.0
H2010 H 0.97862 0.35615 0.30508 0.0
C2011 C 0.9007 0.33106 0.38383 0.0
C2012 C 0.94482 0.33893 0.3723 0.0
H2013 H 0.96624 0.37064 0.35014 0.0
C2014 C 0.95654 0.32695 0.36981 0.0
C2015 C 0.94835 0.35488 0.36556 0.0
C2016 C 0.93654 0.36829 0.36971 0.0
C2017 C 0.97175 0.33055 0.36015 0.0
C2018 C 0.97513 0.34652 0.35309 0.0
C2019 C 0.96345 0.35843 0.35572 0.0
C2020 C 0.99021 0.3511 0.34091 0.0
C2021 C 0.98388 0.31728 0.35682 0.0
C2022 C -0.0145 0.35136 0.35442 0.0
C2023 C -0.00031 0.35555 0.342 0.0
C2024 C -0.0007 0.35936 0.3161 0.0
C2025 C -0.01533 0.36015 0.30324 0.0
C2026 C 0.98979 0.35602 0.31556 0.0
H2027 H 0.97903 0.3054 0.36246 0.0
H2028 H 0.98776 0.31672 0.33669 0.0
H2029 H 0.99465 0.31979 0.36847 0.0
H2030 H -0.01416 0.34798 0.37425 0.0
H2031 H 0.01098 0.35477 0.35205 0.0
H2032 H 0.393 0.82727 0.28813 0.0
H2033 H 0.38553 0.80245 0.30887 0.0
H2034 H 0.39006 0.82524 0.38193 0.0
H2035 H 0.39787 0.85052 0.36093 0.0
H2036 H 0.40502 0.78555 0.34443 0.0
H2037 H 0.34538 0.8037 0.38274 0.0
H2038 H 0.3544 0.81363 0.35584 0.0
H2039 H 0.36195 0.81718 0.38717 0.0
C2040 C 0.39203 0.82714 0.30864 0.0
C2041 C 0.39592 0.84071 0.32305 0.0
C2042 C 0.38796 0.81292 0.32038 0.0
C2043 C 0.38738 0.8121 0.34676 0.0
C2044 C 0.39042 0.82583 0.36142 0.0
H2045 H 0.36661 0.73767 0.44929 0.0
H2046 H 0.37331 0.76205 0.42651 0.0
C2047 C 0.39464 0.84023 0.34954 0.0
C2048 C 0.38345 0.7967 0.35846 0.0
H2049 H 0.35381 0.77748 0.39051 0.0
C2050 C 0.39386 0.78369 0.35458 0.0
C2051 C 0.36879 0.79447 0.3712 0.0
C2052 C 0.35688 0.80791 0.37445 0.0
C2053 C 0.39001 0.76841 0.36373 0.0
C2054 C 0.37534 0.76631 0.37665 0.0
C2055 C 0.36497 0.77928 0.38031 0.0
C2056 C 0.37116 0.75131 0.38935 0.0
C2057 C 0.40178 0.75484 0.36038 0.0
C2058 C 0.36703 0.73747 0.37574 0.0
C2059 C 0.36315 0.72341 0.38883 0.0
C2060 C 0.36349 0.72333 0.41544 0.0
C2061 C 0.3665 0.73751 0.42874 0.0
C2062 C 0.37045 0.75135 0.41581 0.0
H2063 H 0.41286 0.7587 0.35041 0.0
H2064 H 0.40509 0.74986 0.3792 0.0
H2065 H 0.39615 0.74505 0.3493 0.0
H2066 H 0.3671 0.73751 0.3552 0.0
H2067 H 0.36084 0.7125 0.37833 0.0
H2068 H -0.01225 0.63296 0.19439 0.0
H2069 H 0.98248 0.63814 0.17195 0.0
H2070 H 0.9983 0.6083 0.1101 0.0
H2071 H 0.0046 0.60314 0.13267 0.0
H2072 H 0.98244 0.65319 0.12279 0.0
H2073 H 0.95082 0.5944 0.12864 0.0
H2074 H 0.96583 0.60024 0.15145 0.0
H2075 H 0.97173 0.59453 0.12003 0.0
C2076 C -0.01377 0.62736 0.17603 0.0
C2077 C -0.00163 0.61804 0.16495 0.0
C2078 C 0.99133 0.63036 0.1633 0.0
C2079 C 0.98883 0.62387 0.13935 0.0
C2080 C -0.01891 0.61353 0.12862 0.0
H2081 H 0.90902 0.63698 0.04138 0.0
H2082 H 0.93472 0.6307 0.06104 0.0
C2083 C -0.00447 0.61057 0.14146 0.0
C2084 C 0.97429 0.62874 0.12589 0.0
H2085 H 0.93708 0.61572 0.11002 0.0
C2086 C 0.97253 0.64502 0.11963 0.0
C2087 C 0.96139 0.61807 0.12276 0.0
C2088 C 0.96237 0.60083 0.13114 0.0
C2089 C 0.95808 0.65088 0.1099 0.0
C2090 C 0.9453 0.64005 0.10641 0.0
C2091 C 0.94707 0.62386 0.11272 0.0
C2092 C 0.93014 0.64474 0.09474 0.0
C2093 C 0.95664 0.6684 0.10309 0.0
C2094 C 0.91899 0.65423 0.1078 0.0
C2095 C 0.90418 0.65759 0.09674 0.0
C2096 C 0.90055 0.65135 0.07277 0.0
C2097 C 0.91148 0.64138 0.06031 0.0
C2098 C 0.92623 0.63815 0.07118 0.0
H2099 H 0.96798 0.67506 0.10643 0.0
H2100 H 0.95327 0.66964 0.08282 0.0
H2101 H 0.94703 0.67404 0.11456 0.0
H2102 H 0.92183 0.65915 0.12625 0.0
H2103 H 0.89606 0.66584 0.10605 0.0
H2104 H 0.08454 0.24438 0.94873 0.0
H2105 H 0.07998 0.21985 0.9266 0.0
H2106 H 0.1176 0.23135 0.87348 0.0
H2107 H 0.1225 0.25687 0.89604 0.0
H2108 H 0.0707 0.21894 0.87491 0.0
H2109 H 0.12559 0.18376 0.89831 0.0
H2110 H 0.11858 0.1999 0.91816 0.0
H2111 H 0.12795 0.20429 0.88834 0.0
C2112 C 0.09206 0.24193 0.93244 0.0
C2113 C 0.10371 0.25285 0.9239 0.0
C2114 C 0.08935 0.22778 0.91982 0.0
C2115 C 0.09828 0.22399 0.89838 0.0
C2116 C 0.11055 0.2343 0.89007 0.0
H2117 H 0.08917 0.14166 0.80427 0.0
H2118 H 0.0955 0.16754 0.82334 0.0
C2119 C 0.11329 0.2488 0.90285 0.0
C2120 C 0.09388 0.20936 0.8848 0.0
H2121 H 0.10554 0.17083 0.87537 0.0
C2122 C 0.07835 0.20843 0.8746 0.0
C2123 C 0.10373 0.19567 0.88549 0.0
C2124 C 0.11987 0.19578 0.89825 0.0
C2125 C 0.07248 0.19405 0.86467 0.0
C2126 C 0.08257 0.18049 0.8649 0.0
C2127 C 0.098 0.18143 0.87515 0.0
C2128 C 0.07801 0.16524 0.85343 0.0
C2129 C 0.05576 0.19351 0.8538 0.0
C2130 C 0.06656 0.15529 0.86487 0.0
C2131 C 0.06322 0.14034 0.85431 0.0
C2132 C 0.07137 0.13538 0.83242 0.0
C2133 C 0.08327 0.14509 0.82177 0.0
C2134 C 0.08653 0.15997 0.83217 0.0
H2135 H 0.04969 0.20535 0.85464 0.0
H2136 H 0.05625 0.18949 0.83376 0.0
H2137 H 0.04839 0.18472 0.86447 0.0
H2138 H 0.06011 0.15916 0.88161 0.0
H2139 H 0.05351 0.13323 0.86205 0.0
H2140 H 0.57766 0.29996 0.58725 0.0
H2141 H 0.55274 0.30894 0.60646 0.0
H2142 H 0.56697 0.35819 0.5952 0.0
H2143 H 0.59195 0.34908 0.57468 0.0
H2144 H 0.54861 0.32734 0.64827 0.0
H2145 H 0.52203 0.35655 0.56308 0.0
H2146 H 0.53675 0.34074 0.56109 0.0
H2147 H 0.54282 0.36073 0.56906 0.0
C2148 C 0.57559 0.31272 0.58936 0.0
C2149 C 0.58661 0.3239 0.57989 0.0
C2150 C 0.56134 0.3178 0.60003 0.0
C2151 C 0.55799 0.33416 0.60168 0.0
C2152 C 0.56933 0.34548 0.59345 0.0
H2153 H 0.47682 0.38306 0.67056 0.0
H2154 H 0.50301 0.37729 0.65059 0.0
C2155 C 0.58367 0.34035 0.5824 0.0
C2156 C 0.54282 0.33918 0.61313 0.0
H2157 H 0.50804 0.35917 0.6014 0.0
C2158 C 0.53976 0.33439 0.63814 0.0
C2159 C 0.53122 0.34793 0.5994 0.0
C2160 C 0.5332 0.3517 0.5716 0.0
C2161 C 0.52547 0.33856 0.65017 0.0
C2162 C 0.5142 0.34791 0.63677 0.0
C2163 C 0.51711 0.35248 0.61168 0.0
C2164 C 0.49858 0.35178 0.64758 0.0
C2165 C 0.52258 0.33306 0.67708 0.0
C2166 C 0.48747 0.33946 0.65087 0.0
C2167 C 0.47272 0.34274 0.6616 0.0
C2168 C 0.46895 0.35835 0.66924 0.0
C2169 C 0.47962 0.37097 0.66455 0.0
C2170 C 0.49451 0.36765 0.65361 0.0
H2171 H 0.53333 0.32725 0.68548 0.0
H2172 H 0.51906 0.3434 0.68907 0.0
H2173 H 0.51261 0.32427 0.6775 0.0
H2174 H 0.49035 0.32724 0.64561 0.0
H2175 H 0.46451 0.33291 0.66509 0.0
H2176 H 0.0754 0.42345 0.2604 0.0
H2177 H 0.07532 0.45087 0.24389 0.0
H2178 H 0.02774 0.45798 0.27397 0.0
H2179 H 0.02772 0.43043 0.29032 0.0
H2180 H 0.05227 0.4636 0.20903 0.0
H2181 H 0.05338 0.49683 0.30065 0.0
H2182 H 0.06113 0.47672 0.29751 0.0
H2183 H 0.03991 0.48008 0.29839 0.0
C2184 C 0.06514 0.43106 0.26412 0.0
C2185 C 0.05173 0.42515 0.27713 0.0
C2186 C 0.06504 0.44658 0.25446 0.0
C2187 C 0.05164 0.4564 0.25814 0.0
C2188 C 0.03828 0.45058 0.27142 0.0
H2189 H 0.02585 0.55134 0.21408 0.0
H2190 H 0.02631 0.52338 0.22715 0.0
C2191 C 0.03829 0.43496 0.28075 0.0
C2192 C 0.05148 0.47259 0.24729 0.0
H2193 H 0.05044 0.51205 0.26336 0.0
C2194 C 0.05195 0.47423 0.22082 0.0
C2195 C 0.05109 0.48628 0.26292 0.0
C2196 C 0.05145 0.48502 0.29146 0.0
C2197 C 0.05179 0.4894 0.20948 0.0
C2198 C 0.05121 0.50305 0.22513 0.0
C2199 C 0.05082 0.50141 0.25157 0.0
C2200 C 0.05062 0.51927 0.21454 0.0
C2201 C 0.05179 0.4908 0.18096 0.0
C2202 C 0.06415 0.52599 0.20289 0.0
C2203 C 0.06397 0.54202 0.19533 0.0
C2204 C 0.05026 0.55139 0.19954 0.0
C2205 C 0.03658 0.54439 0.2105 0.0
C2206 C 0.03679 0.52845 0.21802 0.0
H2207 H 0.05083 0.47894 0.17154 0.0
H2208 H 0.04164 0.49845 0.17469 0.0
H2209 H 0.06303 0.49663 0.17456 0.0
H2210 H 0.07499 0.51902 0.20048 0.0
H2211 H 0.07469 0.54719 0.18713 0.0
H2212 H 0.79797 0.82384 0.56402 0.0
H2213 H 0.76982 0.82384 0.54997 0.0
H2214 H 0.78454 0.80609 0.47671 0.0
H2215 H 0.81223 0.80523 0.49102 0.0
H2216 H 0.75701 0.84053 0.50961 0.0
H2217 H 0.74925 0.77504 0.49363 0.0
H2218 H 0.76403 0.78305 0.51518 0.0
H2219 H 0.76749 0.78347 0.48156 0.0
C2220 C 0.79503 0.81978 0.5451 0.0
C2221 C 0.807 0.8143 0.52868 0.0
C2222 C 0.77908 0.81976 0.53712 0.0
C2223 C 0.77517 0.81452 0.51259 0.0
C2224 C 0.78727 0.80952 0.49602 0.0
H2225 H 0.6903 0.8112 0.41951 0.0
H2226 H 0.71807 0.81208 0.43538 0.0
C2227 C 0.80304 0.80916 0.50416 0.0
C2228 C 0.75855 0.81505 0.50362 0.0
H2229 H 0.72906 0.79208 0.47781 0.0
C2230 C 0.7508 0.82994 0.5029 0.0
C2231 C 0.75067 0.80116 0.49475 0.0
C2232 C 0.75819 0.78474 0.49646 0.0
C2233 C 0.73531 0.83137 0.49306 0.0
C2234 C 0.72757 0.81754 0.48377 0.0
C2235 C 0.73526 0.80264 0.48467 0.0
C2236 C 0.71121 0.81811 0.47381 0.0
C2237 C 0.72747 0.84764 0.49208 0.0
C2238 C 0.69843 0.821 0.49038 0.0
C2239 C 0.68279 0.82043 0.48143 0.0
C2240 C 0.67983 0.81702 0.45587 0.0
C2241 C 0.69254 0.81412 0.4392 0.0
C2242 C 0.70825 0.8146 0.44822 0.0
H2243 H 0.73592 0.85741 0.49713 0.0
H2244 H 0.72265 0.84994 0.47279 0.0
H2245 H 0.71728 0.84799 0.50558 0.0
H2246 H 0.70054 0.82333 0.5103 0.0
H2247 H 0.67297 0.82245 0.49452 0.0
H2248 H 0.39782 0.42055 0.73595 0.0
H2249 H 0.39827 0.44784 0.75296 0.0
H2250 H 0.43535 0.46056 0.69947 0.0
H2251 H 0.43505 0.43308 0.68266 0.0
H2252 H 0.42563 0.4639 0.77379 0.0
H2253 H 0.40055 0.49532 0.68926 0.0
H2254 H 0.39655 0.47445 0.69577 0.0
H2255 H 0.41575 0.48046 0.68374 0.0
C2256 C 0.40572 0.42936 0.72744 0.0
C2257 C 0.41601 0.42515 0.70755 0.0
C2258 C 0.4061 0.44478 0.7373 0.0
C2259 C 0.41661 0.45615 0.72707 0.0
C2260 C 0.42695 0.45193 0.70717 0.0
H2261 H 0.43891 0.55335 0.75745 0.0
H2262 H 0.43844 0.52541 0.74482 0.0
C2263 C 0.42675 0.43639 0.69757 0.0
C2264 C 0.41694 0.47234 0.7377 0.0
H2265 H 0.409 0.51129 0.72337 0.0
C2266 C 0.42193 0.47429 0.7629 0.0
C2267 C 0.41203 0.48571 0.72327 0.0
C2268 C 0.40581 0.48399 0.69655 0.0
C2269 C 0.4224 0.4895 0.774 0.0
C2270 C 0.41765 0.50283 0.75944 0.0
C2271 C 0.41259 0.50088 0.73432 0.0
C2272 C 0.41862 0.51914 0.76933 0.0
C2273 C 0.42841 0.49136 0.8008 0.0
C2274 C 0.40757 0.52468 0.78734 0.0
C2275 C 0.40771 0.54076 0.79459 0.0
C2276 C 0.41898 0.55126 0.78391 0.0
C2277 C 0.43022 0.54548 0.76629 0.0
C2278 C 0.42998 0.52956 0.75898 0.0
H2279 H 0.43261 0.47983 0.80897 0.0
H2280 H 0.43842 0.50011 0.80124 0.0
H2281 H 0.41867 0.49613 0.81298 0.0
H2282 H 0.3986 0.5167 0.79517 0.0
H2283 H 0.3989 0.54501 0.80809 0.0
H2284 H 0.79915 0.17847 0.93244 0.0
H2285 H 0.77126 0.17923 0.94763 0.0
H2286 H 0.7833 0.14604 -0.0053 0.0
H2287 H 0.81106 0.14501 0.99195 0.0
H2288 H 0.75049 0.15232 0.9528 0.0
H2289 H 0.761 0.18275 0.03287 0.0
H2290 H 0.77401 0.18553 0.00581 0.0
H2291 H 0.77507 0.16742 0.02413 0.0
C2292 C 0.79565 0.17116 0.94851 0.0
C2293 C 0.80681 0.16132 0.96072 0.0
C2294 C 0.77992 0.17172 0.95728 0.0
C2295 C 0.77548 0.16278 0.9787 0.0
C2296 C 0.7867 0.15298 0.9909 0.0
H2297 H 0.68737 0.14377 0.04614 0.0
H2298 H 0.71486 0.14283 0.02926 0.0
C2299 C 0.80234 0.15226 0.98193 0.0
C2300 C 0.75887 0.16295 0.98754 0.0
H2301 H 0.73537 0.17194 0.02591 0.0
C2302 C 0.74711 0.15665 0.97145 0.0
C2303 C 0.75467 0.16884 -0.0007 0.0
C2304 C 0.76678 0.17664 0.01654 0.0
C2305 C 0.73117 0.15557 0.97935 0.0
C2306 C 0.72708 0.16108 -0.00865 0.0
C2307 C 0.73877 0.16758 0.0073 0.0
C2308 C 0.71058 0.16087 0.00051 0.0
C2309 C 0.71885 0.14847 0.96171 0.0
C2310 C 0.69953 0.17155 -0.0099 0.0
C2311 C 0.68415 0.17231 -0.00011 0.0
C2312 C 0.67961 0.16235 0.02018 0.0
C2313 C 0.69069 0.15159 0.03059 0.0
C2314 C 0.70623 0.15098 0.02091 0.0
H2315 H 0.72439 0.14315 0.94451 0.0
H2316 H 0.71183 0.13909 0.97173 0.0
H2317 H 0.71037 0.15794 0.95557 0.0
H2318 H 0.70292 0.17924 0.98717 0.0
H2319 H 0.67573 0.18054 -0.00878 0.0
H2320 H 0.95347 0.42614 0.77727 0.0
H2321 H 0.9536 0.45365 0.76182 0.0
H2322 H 0.9022 0.45585 0.77024 0.0
H2323 H 0.90197 0.42831 0.78628 0.0
H2324 H 0.93742 0.46434 0.71863 0.0
H2325 H 0.91737 0.49675 0.80534 0.0
H2326 H 0.92715 0.47745 0.80654 0.0
H2327 H 0.90649 0.47887 0.79742 0.0
C2328 C 0.94222 0.43259 0.77639 0.0
C2329 C 0.9277 0.4252 0.78316 0.0
C2330 C 0.94233 0.44824 0.76743 0.0
C2331 C 0.92795 0.4567 0.76521 0.0
C2332 C 0.91345 0.44952 0.77242 0.0
H2333 H 0.90154 0.54883 0.70696 0.0
H2334 H 0.90216 0.52083 0.72094 0.0
C2335 C 0.91333 0.43385 0.78159 0.0
C2336 C 0.92811 0.47285 0.75431 0.0
H2337 H 0.9193 0.51174 0.76757 0.0
C2338 C 0.93352 0.47475 0.72928 0.0
C2339 C 0.92315 0.48627 0.76851 0.0
C2340 C 0.91832 0.48486 0.79601 0.0
C2341 C 0.93373 0.48985 0.71781 0.0
C2342 C 0.92834 0.50317 0.73182 0.0
C2343 C 0.92316 0.50132 0.75692 0.0
C2344 C 0.92804 0.51926 0.72089 0.0
C2345 C 0.93932 0.4915 0.6907 0.0
C2346 C 0.94242 0.52735 0.71621 0.0
C2347 C 0.9421 0.54321 0.70823 0.0
C2348 C 0.92739 0.55112 0.70491 0.0
C2349 C 0.91299 0.54284 0.7089 0.0
C2350 C 0.91333 0.52697 0.71702 0.0
H2351 H 0.94147 0.47968 0.68163 0.0
H2352 H 0.93029 0.49819 0.67942 0.0
H2353 H 0.95066 0.49842 0.69012 0.0
H2354 H 0.95385 0.52158 0.71961 0.0
H2355 H 0.95336 0.54944 0.70547 0.0
H2356 H 0.28936 0.1467 0.55888 0.0
H2357 H 0.26132 0.14629 0.54449 0.0
H2358 H 0.2736 0.17758 0.48224 0.0
H2359 H 0.30136 0.17806 0.49635 0.0
H2360 H 0.24076 0.17351 0.53719 0.0
H2361 H 0.25083 0.14018 0.44705 0.0
H2362 H 0.26398 0.13822 0.47408 0.0
H2363 H 0.26497 0.15572 0.45431 0.0
C2364 C 0.28598 0.15346 0.54217 0.0
C2365 C 0.29737 0.16247 0.52878 0.0
C2366 C 0.27009 0.1532 0.53398 0.0
C2367 C 0.26562 0.16166 0.51211 0.0
C2368 C 0.27696 0.17076 0.4989 0.0
H2369 H 0.17851 0.18005 0.43018 0.0
H2370 H 0.20573 0.18108 0.448 0.0
C2371 C 0.29273 0.17117 0.50718 0.0
C2372 C 0.24896 0.16155 0.50343 0.0
H2373 H 0.22538 0.15151 0.45329 0.0
C2374 C 0.2373 0.16858 0.51898 0.0
C2375 C 0.24471 0.15518 0.47957 0.0
C2376 C 0.25671 0.14678 0.46278 0.0
C2377 C 0.22135 0.16964 0.51102 0.0
C2378 C 0.21721 0.16348 0.48701 0.0
C2379 C 0.22883 0.15637 0.47157 0.0
C2380 C 0.20076 0.16376 0.47759 0.0
C2381 C 0.20914 0.17762 0.5279 0.0
C2382 C 0.18936 0.15343 0.48817 0.0
C2383 C 0.17416 0.15246 0.47755 0.0
C2384 C 0.1703 0.16188 0.45642 0.0
C2385 C 0.18158 0.17242 0.44608 0.0
C2386 C 0.1969 0.17317 0.45642 0.0
H2387 H 0.21472 0.18319 0.54486 0.0
H2388 H 0.20258 0.18698 0.51712 0.0
H2389 H 0.20024 0.16864 0.53441 0.0
H2390 H 0.19229 0.146 0.50438 0.0
H2391 H 0.16528 0.14471 0.48623 0.0
H2392 H 0.54156 0.55595 0.24535 0.0
H2393 H 0.54186 0.5285 0.23002 0.0
H2394 H 0.57727 0.51611 0.28631 0.0
H2395 H 0.57704 0.54385 0.302 0.0
H2396 H 0.56923 0.51244 0.21123 0.0
H2397 H 0.54207 0.48146 0.2946 0.0
H2398 H 0.53823 0.50228 0.28743 0.0
H2399 H 0.55708 0.49642 0.30083 0.0
C2400 C 0.5492 0.54733 0.25485 0.0
C2401 C 0.55913 0.55186 0.27512 0.0
C2402 C 0.54941 0.53172 0.24593 0.0
C2403 C 0.5594 0.52038 0.25732 0.0
C2404 C 0.56929 0.52477 0.27766 0.0
H2405 H 0.58135 0.42241 0.22579 0.0
H2406 H 0.58106 0.45034 0.24007 0.0
C2407 C 0.56921 0.54052 0.28651 0.0
C2408 C 0.55986 0.50412 0.247 0.0
H2409 H 0.5512 0.46527 0.26103 0.0
C2410 C 0.56528 0.50209 0.22203 0.0
C2411 C 0.55447 0.49085 0.26121 0.0
C2412 C 0.54751 0.49275 0.28746 0.0
C2413 C 0.56579 0.48689 0.211 0.0
C2414 C 0.56076 0.47359 0.22543 0.0
C2415 C 0.55517 0.47563 0.25027 0.0
C2416 C 0.56159 0.45731 0.21534 0.0
C2417 C 0.57205 0.48502 0.18431 0.0
C2418 C 0.55067 0.45223 0.19686 0.0
C2419 C 0.55072 0.43632 0.18893 0.0
C2420 C 0.56191 0.42559 0.19908 0.0
C2421 C 0.57302 0.43076 0.21719 0.0
C2422 C 0.57277 0.44656 0.22546 0.0
H2423 H 0.57659 0.49649 0.17638 0.0
H2424 H 0.58186 0.47603 0.18397 0.0
H2425 H 0.56233 0.48056 0.17184 0.0
H2426 H 0.54183 0.46043 0.18924 0.0
H2427 H 0.54187 0.4323 0.17534 0.0
H2428 H 0.1675 0.79407 -0.00495 0.0
H2429 H 0.19498 0.79436 0.99231 0.0
H2430 H 0.20582 0.83342 0.03073 0.0
H2431 H 0.17808 0.83303 0.04646 0.0
H2432 H 0.21003 0.82108 0.96957 0.0
H2433 H 0.24174 0.80017 0.04384 0.0
H2434 H 0.22107 0.79524 0.03739 0.0
H2435 H 0.22629 0.81498 0.04792 0.0
C2436 C 0.17578 0.80254 0.00346 0.0
C2437 C 0.17079 0.8134 0.02222 0.0
C2438 C 0.19139 0.80283 -0.00547 0.0
C2439 C 0.20231 0.81385 0.00439 0.0
C2440 C 0.19749 0.82466 0.02329 0.0
H2441 H 0.29961 0.83708 0.9818 0.0
H2442 H 0.27168 0.83666 0.99621 0.0
C2443 C 0.18173 0.82446 0.03217 0.0
C2444 C 0.21856 0.81433 -0.00604 0.0
H2445 H 0.25767 0.80784 0.00899 0.0
C2446 C 0.22049 0.81814 0.98085 0.0
C2447 C 0.23199 0.81025 0.00883 0.0
C2448 C 0.23029 0.8048 0.03599 0.0
C2449 C 0.23569 0.81851 0.9697 0.0
C2450 C 0.24914 0.81481 0.98474 0.0
C2451 C 0.2472 0.81081 -0.00225 0.0
C2452 C 0.26541 0.8156 0.97448 0.0
C2453 C 0.23738 0.82321 0.94219 0.0
C2454 C 0.2709 0.80383 0.95766 0.0
C2455 C 0.28682 0.80397 0.94969 0.0
C2456 C 0.29716 0.81606 0.95808 0.0
C2457 C 0.29157 0.828 0.97449 0.0
C2458 C 0.27576 0.82768 0.98286 0.0
H2459 H 0.22576 0.82687 0.93368 0.0
H2460 H 0.24602 0.83326 0.94033 0.0
H2461 H 0.24219 0.81295 0.93121 0.0
H2462 H 0.26302 0.79431 0.95141 0.0
H2463 H 0.29114 0.7945 0.93742 0.0
H2464 H 0.58674 0.93525 0.77579 0.0
H2465 H 0.5869 0.96268 0.75927 0.0
H2466 H 0.53589 0.96602 0.77172 0.0
H2467 H 0.53566 0.93867 0.78841 0.0
H2468 H 0.56879 0.97382 0.71723 0.0
H2469 H 0.55306 -0.01277 0.8061 0.0
H2470 H 0.56285 0.98699 0.80621 0.0
H2471 H 0.54188 0.98882 0.79923 0.0
C2472 C 0.57568 0.94205 0.7757 0.0
C2473 C 0.56126 0.93513 0.78388 0.0
C2474 C 0.57575 0.95757 0.76603 0.0
C2475 C 0.56146 0.96633 0.76479 0.0
C2476 C 0.54707 0.95948 0.77312 0.0
H2477 H 0.53491 0.04037 0.71108 0.0
H2478 H 0.53524 0.01241 0.72471 0.0
C2479 C 0.54696 0.94393 0.78261 0.0
C2480 C 0.56152 0.98249 0.75394 0.0
H2481 H 0.5539 0.00231 0.76832 0.0
C2482 C 0.56571 0.98431 0.72835 0.0
C2483 C 0.55747 0.99598 0.7687 0.0
C2484 C 0.55375 0.99459 0.79664 0.0
C2485 C 0.56539 -0.0198 0.71692 0.0
C2486 C 0.56115 -0.00635 0.7316 0.0
C2487 C 0.55701 -0.00817 0.75721 0.0
C2488 C 0.56091 0.00982 0.72083 0.0
C2489 C 0.56952 -0.01829 0.68916 0.0
C2490 C 0.57526 0.01738 0.71395 0.0
C2491 C 0.57512 0.03329 0.70593 0.0
C2492 C 0.56064 0.04181 0.7051 0.0
C2493 C 0.54624 0.03403 0.71143 0.0
C2494 C 0.54639 0.01813 0.71926 0.0
H2495 H 0.57113 0.98909 0.67983 0.0
H2496 H 0.56013 -0.01129 0.67916 0.0
H2497 H 0.58102 -0.01174 0.68704 0.0
H2498 H 0.58661 0.01115 0.71563 0.0
H2499 H 0.5864 0.03911 0.70155 0.0
H2500 H 0.30247 0.32233 -0.00872 0.0
H2501 H 0.27511 0.32165 0.98731 0.0
H2502 H 0.26113 0.2897 0.03512 0.0
H2503 H 0.28873 0.29012 0.05155 0.0
H2504 H 0.258 0.29371 0.97188 0.0
H2505 H 0.2278 0.32628 0.03856 0.0
H2506 H 0.24881 0.32888 0.0314 0.0
H2507 H 0.24202 0.31099 0.04693 0.0
C2508 C 0.29338 0.31556 0.00134 0.0
C2509 C 0.29727 0.30671 0.02303 0.0
C2510 C 0.27789 0.31512 -0.00821 0.0
C2511 C 0.26616 0.30596 0.00405 0.0
C2512 C 0.27005 0.29708 0.02581 0.0
H2513 H 0.16791 0.28569 0.98964 0.0
H2514 H 0.1958 0.28593 -0.00996 0.0
C2515 C 0.28566 0.29736 0.0352 0.0
C2516 C 0.24994 0.30547 -0.00642 0.0
H2517 H 0.21139 0.31602 0.00624 0.0
C2518 C 0.24778 0.29859 0.98201 0.0
C2519 C 0.23683 0.31194 0.00698 0.0
C2520 C 0.23888 0.32004 0.03234 0.0
C2521 C 0.23255 0.29797 0.97102 0.0
C2522 C 0.21945 0.30428 0.98459 0.0
C2523 C 0.22162 0.31122 -0.00393 0.0
C2524 C 0.20311 0.30339 0.97481 0.0
C2525 C 0.2304 0.2902 0.94544 0.0
C2526 C 0.19813 0.31338 0.95492 0.0
C2527 C 0.18208 0.31349 0.94752 0.0
C2528 C 0.17106 0.30348 0.95986 0.0
C2529 C 0.17624 0.29332 0.97948 0.0
C2530 C 0.19214 0.29335 0.98698 0.0
H2531 H 0.24174 0.28496 0.93813 0.0
H2532 H 0.22122 0.2806 0.94672 0.0
H2533 H 0.22605 0.29921 0.93159 0.0
H2534 H 0.20655 0.32136 0.94567 0.0
H2535 H 0.17828 0.32146 0.93246 0.0
H2536 H 0.93076 0.04916 0.2353 0.0
H2537 H 0.93082 0.02166 0.21972 0.0
H2538 H 0.92331 0.00436 0.29603 0.0
H2539 H 0.92245 0.03218 0.31156 0.0
H2540 H 0.95164 -0.00244 0.23348 0.0
H2541 H 0.88855 -0.01902 0.25658 0.0
H2542 H 0.89477 0.0015 0.25187 0.0
H2543 H 0.89961 -0.00876 0.2808 0.0
C2544 C 0.92897 0.03944 0.24867 0.0
C2545 C 0.92648 0.04254 0.27449 0.0
C2546 C 0.92903 0.02382 0.23978 0.0
C2547 C 0.92685 0.0111 0.2567 0.0
C2548 C 0.92457 0.01414 0.28266 0.0
H2549 H 0.92877 0.92872 0.24241 0.0
H2550 H 0.93009 0.95662 0.25632 0.0
C2551 C 0.92414 0.02989 0.29152 0.0
C2552 C 0.92742 -0.00535 0.247 0.0
H2553 H 0.90552 0.97998 0.2405 0.0
C2554 C 0.94149 -0.01051 0.23489 0.0
C2555 C 0.91406 -0.01565 0.24876 0.0
C2556 C 0.89833 -0.01025 0.26001 0.0
C2557 C 0.943 0.99325 0.22491 0.0
C2558 C 0.92972 0.98291 0.22712 0.0
C2559 C 0.91564 0.9881 0.23902 0.0
C2560 C 0.93026 0.96633 0.21826 0.0
C2561 C 0.95847 0.98787 0.21279 0.0
C2562 C 0.92974 0.96277 0.19227 0.0
C2563 C 0.92868 0.94686 0.18431 0.0
C2564 C 0.92828 0.93458 0.20239 0.0
C2565 C 0.929 0.93818 0.22829 0.0
C2566 C 0.92986 0.95399 0.23621 0.0
H2567 H 0.96797 0.99717 0.21393 0.0
H2568 H 0.96282 0.97679 0.22221 0.0
H2569 H 0.95637 0.985 0.19253 0.0
H2570 H 0.92985 0.97229 0.17829 0.0
H2571 H 0.92837 0.94413 0.16424 0.0
H2572 H 0.30418 0.66205 0.49326 0.0
H2573 H 0.27666 0.66239 0.50938 0.0
H2574 H 0.26015 0.68069 0.43738 0.0
H2575 H 0.28781 0.68008 0.42108 0.0
H2576 H 0.2566 0.68939 0.51279 0.0
H2577 H 0.23055 0.64224 0.45034 0.0
H2578 H 0.25167 0.64306 0.45771 0.0
H2579 H 0.24316 0.65699 0.43555 0.0
C2580 C 0.29455 0.66578 0.48079 0.0
C2581 C 0.29775 0.67062 0.45586 0.0
C2582 C 0.27897 0.66609 0.49001 0.0
C2583 C 0.26646 0.6713 0.47438 0.0
C2584 C 0.26968 0.67627 0.44943 0.0
H2585 H 0.16657 0.68576 0.49384 0.0
H2586 H 0.19459 0.68606 0.48114 0.0
C2587 C 0.28534 0.67591 0.44015 0.0
C2588 C 0.25013 0.67187 0.4846 0.0
H2589 H 0.21294 0.65578 0.47764 0.0
C2590 C 0.24703 0.68201 0.50525 0.0
C2591 C 0.23784 0.66213 0.47465 0.0
C2592 C 0.24089 0.65039 0.45345 0.0
C2593 C 0.23172 0.68286 0.51599 0.0
C2594 C 0.21945 0.67324 0.50581 0.0
C2595 C 0.22255 0.66307 0.48529 0.0
C2596 C 0.20296 0.67416 0.51508 0.0
C2597 C 0.22857 0.6943 0.53753 0.0
C2598 C 0.19858 0.66724 0.53834 0.0
C2599 C 0.18247 0.66684 0.54556 0.0
C2600 C 0.17085 0.67359 0.52964 0.0
C2601 C 0.17541 0.68071 0.50661 0.0
C2602 C 0.19134 0.68089 0.4993 0.0
H2603 H 0.23929 0.70158 0.54234 0.0
H2604 H 0.21858 0.7025 0.53244 0.0
H2605 H 0.22484 0.6875 0.55463 0.0
H2606 H 0.20753 0.66182 0.55049 0.0
H2607 H 0.1791 0.66132 0.56339 0.0
H2608 H 0.40579 0.03356 0.16881 0.0
H2609 H 0.40569 0.00537 0.1828 0.0
H2610 H 0.42827 0.01916 0.25306 0.0
H2611 H 0.42841 0.04701 0.23933 0.0
H2612 H 0.43304 -0.01339 0.19809 0.0
H2613 H 0.38899 -0.00624 0.27674 0.0
H2614 H 0.38946 0.00698 0.24959 0.0
H2615 H 0.40415 0.00895 0.27423 0.0
C2616 C 0.41062 0.03046 0.18723 0.0
C2617 C 0.41712 0.04224 0.20303 0.0
C2618 C 0.41059 0.01449 0.19516 0.0
C2619 C 0.4167 0.0104 0.21909 0.0
C2620 C 0.42325 0.02221 0.23474 0.0
H2621 H 0.43122 0.94339 0.30607 0.0
H2622 H 0.43245 0.97081 0.28881 0.0
C2623 C 0.42347 0.03802 0.22675 0.0
C2624 C 0.41674 -0.00628 0.22768 0.0
H2625 H 0.40312 0.98847 0.27439 0.0
C2626 C 0.42633 -0.0173 0.2146 0.0
C2627 C 0.40803 -0.0111 0.24934 0.0
C2628 C 0.39697 0.00019 0.26326 0.0
C2629 C 0.42795 0.98607 0.22295 0.0
C2630 C 0.41942 0.98135 0.24484 0.0
C2631 C 0.40978 0.99235 0.25779 0.0
C2632 C 0.41975 0.96487 0.2543 0.0
C2633 C 0.43866 0.97459 0.2088 0.0
C2634 C 0.41194 0.95281 0.24068 0.0
C2635 C 0.41089 0.93745 0.25074 0.0
C2636 C 0.41764 0.93407 0.27445 0.0
C2637 C 0.42565 0.94603 0.28799 0.0
C2638 C 0.42652 0.96149 0.27805 0.0
H2639 H 0.4458 0.98069 0.19383 0.0
H2640 H 0.44697 0.96856 0.2222 0.0
H2641 H 0.43126 0.96519 0.19967 0.0
H2642 H 0.40647 0.95534 0.22248 0.0
H2643 H 0.40507 0.92812 0.23983 0.0
H2644 H 0.80641 0.69822 0.01584 0.0
H2645 H 0.77893 0.69836 0.00031 0.0
H2646 H 0.77582 0.64733 0.01254 0.0
H2647 H 0.80334 0.64709 0.02862 0.0
H2648 H 0.76788 0.68096 0.97092 0.0
H2649 H 0.73512 0.66417 0.04653 0.0
H2650 H 0.75456 0.6737 0.04696 0.0
H2651 H 0.75284 0.65281 0.0394 0.0
C2652 C 0.79978 0.68706 0.01576 0.0
C2653 C 0.80693 0.67264 0.02364 0.0
C2654 C 0.78414 0.68718 0.00674 0.0
C2655 C 0.7754 0.67291 0.00559 0.0
C2656 C 0.78235 0.65852 0.01386 0.0
H2657 H 0.6826 0.64643 0.96196 0.0
H2658 H 0.71062 0.64685 0.97578 0.0
C2659 C 0.79802 0.6584 0.02305 0.0
C2660 C 0.75921 0.67303 -0.00528 0.0
H2661 H 0.72014 0.66526 0.00872 0.0
C2662 C 0.75742 0.67755 0.98189 0.0
C2663 C 0.74569 0.6687 0.00929 0.0
C2664 C 0.74702 0.66467 0.03712 0.0
C2665 C 0.7423 0.67767 0.97045 0.0
C2666 C 0.72887 0.67294 0.98487 0.0
C2667 C 0.73062 0.66863 -0.00224 0.0
C2668 C 0.71272 0.67267 0.97402 0.0
C2669 C 0.74075 0.68248 0.94296 0.0
C2670 C 0.70489 0.68707 0.96841 0.0
C2671 C 0.68898 0.68686 0.96059 0.0
C2672 C 0.68078 0.67224 0.95827 0.0
C2673 C 0.6888 0.6578 0.96313 0.0
C2674 C 0.7047 0.65804 0.97117 0.0
H2675 H 0.75261 0.68417 0.93373 0.0
H2676 H 0.73393 0.67323 0.93239 0.0
H2677 H 0.734 0.69389 0.94155 0.0
H2678 H 0.71089 0.69846 0.97097 0.0
H2679 H 0.68295 0.69815 0.95713 0.0
H2680 H 0.06841 0.04719 0.75214 0.0
H2681 H 0.06795 0.01989 0.73525 0.0
H2682 H 0.03448 0.006 0.79382 0.0
H2683 H 0.03423 0.03366 0.80976 0.0
H2684 H 0.07673 -0.00736 0.7606 0.0
H2685 H 0.0127 -0.01135 0.73103 0.0
H2686 H 0.02315 0.00754 0.73353 0.0
H2687 H 0.01652 -0.00273 0.76158 0.0
C2688 C 0.06115 0.03818 0.7615 0.0
C2689 C 0.05169 0.0421 0.78252 0.0
C2690 C 0.06075 0.02274 0.75175 0.0
C2691 C 0.05103 0.0111 0.76314 0.0
C2692 C 0.04173 0.01499 0.78445 0.0
H2693 H 0.03722 0.93032 0.7429 0.0
H2694 H 0.03903 0.95776 0.75809 0.0
C2695 C 0.04182 0.03058 0.79381 0.0
C2696 C 0.05138 -0.00533 0.75344 0.0
H2697 H 0.02845 0.98444 0.72847 0.0
C2698 C 0.06614 -0.01337 0.75339 0.0
C2699 C 0.0375 -0.01296 0.7441 0.0
C2700 C 0.02157 -0.00446 0.74232 0.0
C2701 C 0.0677 0.99015 0.74458 0.0
C2702 C 0.05378 0.98248 0.73559 0.0
C2703 C 0.03904 0.99052 0.7355 0.0
C2704 C 0.05396 0.96584 0.72706 0.0
C2705 C 0.08365 0.98166 0.74578 0.0
C2706 C 0.06181 0.96147 0.70458 0.0
C2707 C 0.06094 0.94572 0.69592 0.0
C2708 C 0.05188 0.93445 0.70943 0.0
C2709 C 0.04401 0.93893 0.73187 0.0
C2710 C 0.04514 0.9545 0.74071 0.0
H2711 H 0.09298 0.98899 0.7553 0.0
H2712 H 0.08234 0.97013 0.75612 0.0
H2713 H 0.08784 0.97889 0.72631 0.0
H2714 H 0.0684 0.97028 0.69363 0.0
H2715 H 0.06711 0.9424 0.67862 0.0
H2716 H 0.67696 0.28434 0.50147 0.0
H2717 H 0.70438 0.28481 0.48609 0.0
H2718 H 0.71532 0.32369 0.53707 0.0
H2719 H 0.68759 0.32331 0.55283 0.0
H2720 H 0.71946 0.31156 0.46331 0.0
H2721 H 0.7512 0.29041 0.55011 0.0
H2722 H 0.73052 0.28551 0.54367 0.0
H2723 H 0.73578 0.30524 0.55423 0.0
C2724 C 0.68525 0.2928 0.50987 0.0
C2725 C 0.68028 0.30368 0.52861 0.0
C2726 C 0.70085 0.2931 0.50089 0.0
C2727 C 0.71178 0.30413 0.51071 0.0
C2728 C 0.70699 0.31493 0.52964 0.0
H2729 H 0.80895 0.3277 0.47549 0.0
H2730 H 0.78105 0.32715 0.48996 0.0
C2731 C 0.69124 0.31473 0.53856 0.0
C2732 C 0.72803 0.30461 0.50026 0.0
H2733 H 0.76714 0.29812 0.51531 0.0
C2734 C 0.72992 0.30862 0.47459 0.0
C2735 C 0.74146 0.30052 0.51512 0.0
C2736 C 0.73975 0.29506 0.54228 0.0
C2737 C 0.74513 0.30899 0.46345 0.0
C2738 C 0.75857 0.30526 0.47849 0.0
C2739 C 0.75667 0.30109 0.50405 0.0
C2740 C 0.77486 0.30606 0.46826 0.0
C2741 C 0.74683 0.3137 0.43595 0.0
C2742 C 0.7804 0.29428 0.4515 0.0
C2743 C 0.79633 0.29447 0.4435 0.0
C2744 C 0.80661 0.30665 0.45181 0.0
C2745 C 0.80096 0.31855 0.46825 0.0
C2746 C 0.78517 0.31817 0.47663 0.0
H2747 H 0.73521 0.31735 0.42743 0.0
H2748 H 0.75546 0.32377 0.43412 0.0
H2749 H 0.75166 0.30346 0.42496 0.0
H2750 H 0.77255 0.28473 0.44525 0.0
H2751 H 0.80068 0.28503 0.43122 0.0
loop_
_geom_bond_atom_site_label_1
_geom_bond_atom_site_label_2
_geom_bond_distance
_geom_bond_site_symmetry_2
_ccdc_geom_bond_type
C0 O1 1.306 . S
C0 O3 1.160 . S
O1 C0 1.306 . S
O1 Cd2 2.228 . S
Cd2 O1 2.228 . S
Cd2 O6 2.273 . S
Cd2 O10 2.277 . S
O3 C0 1.160 . S
O3 Cd4 2.203 . S
Cd4 O3 2.203 . S
Cd4 O6 2.411 . S
Cd4 O7 2.333 . S
Cd4 O8 2.352 . S
Cd4 O12 2.277 . S
Cd4 O13 2.356 . S
C5 O10 1.209 . S
C5 O12 1.226 . S
O6 Cd2 2.273 . S
O6 Cd4 2.411 . S
O6 C9 1.320 . S
O7 Cd4 2.333 . S
O7 C9 1.214 . S
O8 Cd4 2.352 . S
O8 C11 1.258 . S
C9 O6 1.320 . S
C9 O7 1.214 . S
O10 Cd2 2.277 . S
O10 C5 1.209 . S
C11 O8 1.258 . S
C11 O13 1.282 . S
O12 Cd4 2.277 . S
O12 C5 1.226 . S
O13 Cd4 2.356 . S
O13 C11 1.282 . S
C14 O15 1.306 . S
C14 O17 1.160 . S
O15 C14 1.306 . S
O15 Cd16 2.228 . S
Cd16 O15 2.228 . S
Cd16 O20 2.273 . S
Cd16 O24 2.277 . S
O17 C14 1.160 . S
O17 Cd18 2.203 . S
Cd18 O17 2.203 . S
Cd18 O20 2.411 . S
Cd18 O21 2.333 . S
Cd18 O22 2.352 . S
Cd18 O26 2.277 . S
Cd18 O27 2.356 . S
C19 O24 1.209 . S
C19 O26 1.226 . S
O20 Cd16 2.273 . S
O20 Cd18 2.411 . S
O20 C23 1.320 . S
O21 Cd18 2.333 . S
O21 C23 1.214 . S
O22 Cd18 2.352 . S
O22 C25 1.258 . S
C23 O20 1.320 . S
C23 O21 1.214 . S
O24 Cd16 2.277 . S
O24 C19 1.209 . S
C25 O22 1.258 . S
C25 O27 1.282 . S
O26 Cd18 2.277 . S
O26 C19 1.226 . S
O27 Cd18 2.356 . S
O27 C25 1.282 . S
C28 O29 1.306 . S
C28 O31 1.160 . S
O29 C28 1.306 . S
O29 Cd30 2.228 . S
Cd30 O29 2.228 . S
Cd30 O34 2.273 . S
Cd30 O38 2.277 . S
O31 C28 1.160 . S
O31 Cd32 2.203 . S
Cd32 O31 2.203 . S
Cd32 O34 2.411 . S
Cd32 O35 2.333 . S
Cd32 O36 2.352 . S
Cd32 O40 2.277 . S
Cd32 O41 2.356 . S
C33 O38 1.209 . S
C33 O40 1.226 . S
O34 Cd30 2.273 . S
O34 Cd32 2.411 . S
O34 C37 1.320 . S
O35 Cd32 2.333 . S
O35 C37 1.214 . S
O36 Cd32 2.352 . S
O36 C39 1.258 . S
C37 O34 1.320 . S
C37 O35 1.214 . S
O38 Cd30 2.277 . S
O38 C33 1.209 . S
C39 O36 1.258 . S
C39 O41 1.282 . S
O40 Cd32 2.277 . S
O40 C33 1.226 . S
O41 Cd32 2.356 . S
O41 C39 1.282 . S
C42 O43 1.306 . S
C42 O45 1.160 . S
O43 C42 1.306 . S
O43 Cd44 2.228 . S
Cd44 O43 2.228 . S
Cd44 O48 2.273 . S
Cd44 O52 2.277 . S
O45 C42 1.160 . S
O45 Cd46 2.203 . S
Cd46 O45 2.203 . S
Cd46 O48 2.411 . S
Cd46 O49 2.333 . S
Cd46 O50 2.352 . S
Cd46 O54 2.277 . S
Cd46 O55 2.356 . S
C47 O52 1.209 . S
C47 O54 1.226 . S
O48 Cd44 2.273 . S
O48 Cd46 2.411 . S
O48 C51 1.320 1_554 S
O49 Cd46 2.333 . S
O49 C51 1.214 1_554 S
O50 Cd46 2.352 . S
O50 C53 1.258 . S
C51 O48 1.320 1_556 S
C51 O49 1.214 1_556 S
O52 Cd44 2.277 . S
O52 C47 1.209 . S
C53 O50 1.258 . S
C53 O55 1.282 . S
O54 Cd46 2.277 . S
O54 C47 1.226 . S
O55 Cd46 2.356 . S
O55 C53 1.282 . S
C56 O57 1.306 . S
C56 O59 1.160 . S
O57 C56 1.306 . S
O57 Cd58 2.228 . S
Cd58 O57 2.228 . S
Cd58 O62 2.273 . S
Cd58 O66 2.277 . S
O59 C56 1.160 . S
O59 Cd60 2.203 . S
Cd60 O59 2.203 . S
Cd60 O62 2.411 . S
Cd60 O63 2.333 . S
Cd60 O64 2.352 . S
Cd60 O68 2.277 . S
Cd60 O69 2.356 . S
C61 O66 1.209 . S
C61 O68 1.226 . S
O62 Cd58 2.273 . S
O62 Cd60 2.411 . S
O62 C65 1.320 . S
O63 Cd60 2.333 . S
O63 C65 1.214 . S
O64 Cd60 2.352 . S
O64 C67 1.258 . S
C65 O62 1.320 . S
C65 O63 1.214 . S
O66 Cd58 2.277 . S
O66 C61 1.209 . S
C67 O64 1.258 . S
C67 O69 1.282 . S
O68 Cd60 2.277 . S
O68 C61 1.226 . S
O69 Cd60 2.356 . S
O69 C67 1.282 . S
C70 O71 1.306 . S
C70 O73 1.160 . S
O71 C70 1.306 . S
O71 Cd72 2.228 . S
Cd72 O71 2.228 . S
Cd72 O76 2.273 . S
Cd72 O80 2.277 . S
O73 C70 1.160 . S
O73 Cd74 2.203 . S
Cd74 O73 2.203 . S
Cd74 O76 2.411 . S
Cd74 O77 2.333 . S
Cd74 O78 2.352 . S
Cd74 O82 2.277 . S
Cd74 O83 2.356 . S
C75 O80 1.209 . S
C75 O82 1.226 . S
O76 Cd72 2.273 . S
O76 Cd74 2.411 . S
O76 C79 1.320 . S
O77 Cd74 2.333 . S
O77 C79 1.214 . S
O78 Cd74 2.352 . S
O78 C81 1.258 . S
C79 O76 1.320 . S
C79 O77 1.214 . S
O80 Cd72 2.277 . S
O80 C75 1.209 . S
C81 O78 1.258 . S
C81 O83 1.282 . S
O82 Cd74 2.277 . S
O82 C75 1.226 . S
O83 Cd74 2.356 . S
O83 C81 1.282 . S
C84 O85 1.306 . S
C84 O87 1.160 . S
O85 C84 1.306 . S
O85 Cd86 2.228 . S
Cd86 O85 2.228 . S
Cd86 O90 2.273 . S
Cd86 O94 2.277 . S
O87 C84 1.160 . S
O87 Cd88 2.203 . S
Cd88 O87 2.203 . S
Cd88 O90 2.411 . S
Cd88 O91 2.333 . S
Cd88 O92 2.352 . S
Cd88 O96 2.277 . S
Cd88 O97 2.356 . S
C89 O94 1.209 . S
C89 O96 1.226 . S
O90 Cd86 2.273 . S
O90 Cd88 2.411 . S
O90 C93 1.320 . S
O91 Cd88 2.333 . S
O91 C93 1.214 . S
O92 Cd88 2.352 . S
O92 C95 1.258 . S
C93 O90 1.320 . S
C93 O91 1.214 . S
O94 Cd86 2.277 . S
O94 C89 1.209 . S
C95 O92 1.258 . S
C95 O97 1.282 . S
O96 Cd88 2.277 . S
O96 C89 1.226 . S
O97 Cd88 2.356 . S
O97 C95 1.282 . S
C98 O99 1.306 . S
C98 O101 1.160 . S
O99 C98 1.306 . S
O99 Cd100 2.228 . S
Cd100 O99 2.228 . S
Cd100 O104 2.273 . S
Cd100 O108 2.277 . S
O101 C98 1.160 . S
O101 Cd102 2.203 . S
Cd102 O101 2.203 . S
Cd102 O104 2.411 . S
Cd102 O105 2.333 . S
Cd102 O106 2.352 . S
Cd102 O110 2.277 . S
Cd102 O111 2.356 . S
C103 O108 1.209 . S
C103 O110 1.226 . S
O104 Cd100 2.273 . S
O104 Cd102 2.411 . S
O104 C107 1.320 1_556 S
O105 Cd102 2.333 . S
O105 C107 1.214 1_556 S
O106 Cd102 2.352 . S
O106 C109 1.258 . S
C107 O104 1.320 1_554 S
C107 O105 1.214 1_554 S
O108 Cd100 2.277 . S
O108 C103 1.209 . S
C109 O106 1.258 . S
C109 O111 1.282 . S
O110 Cd102 2.277 . S
O110 C103 1.226 . S
O111 Cd102 2.356 . S
O111 C109 1.282 . S
C112 O113 1.306 . S
C112 O115 1.160 . S
O113 C112 1.306 . S
O113 Cd114 2.228 . S
Cd114 O113 2.228 . S
Cd114 O118 2.273 . S
Cd114 O122 2.277 . S
O115 C112 1.160 . S
O115 Cd116 2.203 . S
Cd116 O115 2.203 . S
Cd116 O118 2.411 . S
Cd116 O119 2.333 . S
Cd116 O120 2.352 . S
Cd116 O124 2.277 . S
Cd116 O125 2.356 . S
C117 O122 1.209 . S
C117 O124 1.226 . S
O118 Cd114 2.273 . S
O118 Cd116 2.411 . S
O118 C121 1.320 . S
O119 Cd116 2.333 . S
O119 C121 1.214 . S
O120 Cd116 2.352 . S
O120 C123 1.258 . S
C121 O118 1.320 . S
C121 O119 1.214 . S
O122 Cd114 2.277 . S
O122 C117 1.209 . S
C123 O120 1.258 . S
C123 O125 1.282 . S
O124 Cd116 2.277 . S
O124 C117 1.226 . S
O125 Cd116 2.356 . S
O125 C123 1.282 . S
C126 O127 1.306 . S
C126 O129 1.160 . S
O127 C126 1.306 . S
O127 Cd128 2.228 . S
Cd128 O127 2.228 . S
Cd128 O132 2.273 . S
Cd128 O136 2.277 . S
O129 C126 1.160 . S
O129 Cd130 2.203 . S
Cd130 O129 2.203 . S
Cd130 O132 2.411 . S
Cd130 O133 2.333 . S
Cd130 O134 2.352 . S
Cd130 O138 2.277 . S
Cd130 O139 2.356 . S
C131 O136 1.209 . S
C131 O138 1.226 . S
O132 Cd128 2.273 . S
O132 Cd130 2.411 . S
O132 C135 1.320 . S
O133 Cd130 2.333 . S
O133 C135 1.214 . S
O134 Cd130 2.352 . S
O134 C137 1.258 . S
C135 O132 1.320 . S
C135 O133 1.214 . S
O136 Cd128 2.277 . S
O136 C131 1.209 . S
C137 O134 1.258 . S
C137 O139 1.282 . S
O138 Cd130 2.277 . S
O138 C131 1.226 . S
O139 Cd130 2.356 . S
O139 C137 1.282 . S
C140 O141 1.306 . S
C140 O143 1.160 . S
O141 C140 1.306 . S
O141 Cd142 2.228 . S
Cd142 O141 2.228 . S
Cd142 O146 2.273 . S
Cd142 O150 2.277 . S
O143 C140 1.160 . S
O143 Cd144 2.203 . S
Cd144 O143 2.203 . S
Cd144 O146 2.411 . S
Cd144 O147 2.333 . S
Cd144 O148 2.352 . S
Cd144 O152 2.277 . S
Cd144 O153 2.356 . S
C145 O150 1.209 . S
C145 O152 1.226 . S
O146 Cd142 2.273 . S
O146 Cd144 2.411 . S
O146 C149 1.320 . S
O147 Cd144 2.333 . S
O147 C149 1.214 . S
O148 Cd144 2.352 . S
O148 C151 1.258 . S
C149 O146 1.320 . S
C149 O147 1.214 . S
O150 Cd142 2.277 . S
O150 C145 1.209 . S
C151 O148 1.258 . S
C151 O153 1.282 . S
O152 Cd144 2.277 . S
O152 C145 1.226 . S
O153 Cd144 2.356 . S
O153 C151 1.282 . S
C154 O155 1.306 . S
C154 O157 1.160 . S
O155 C154 1.306 . S
O155 Cd156 2.228 . S
Cd156 O155 2.228 . S
Cd156 O160 2.273 . S
Cd156 O164 2.277 . S
O157 C154 1.160 . S
O157 Cd158 2.203 . S
Cd158 O157 2.203 . S
Cd158 O160 2.411 . S
Cd158 O161 2.333 . S
Cd158 O162 2.352 . S
Cd158 O166 2.277 . S
Cd158 O167 2.356 . S
C159 O164 1.209 . S
C159 O166 1.226 . S
O160 Cd156 2.273 . S
O160 Cd158 2.411 . S
O160 C163 1.320 1_556 S
O161 Cd158 2.333 . S
O161 C163 1.214 1_556 S
O162 Cd158 2.352 . S
O162 C165 1.258 . S
C163 O160 1.320 1_554 S
C163 O161 1.214 1_554 S
O164 Cd156 2.277 . S
O164 C159 1.209 . S
C165 O162 1.258 . S
C165 O167 1.282 . S
O166 Cd158 2.277 . S
O166 C159 1.226 . S
O167 Cd158 2.356 . S
O167 C165 1.282 . S
C168 O169 1.306 . S
C168 O171 1.160 . S
O169 C168 1.306 . S
O169 Cd170 2.228 . S
Cd170 O169 2.228 . S
Cd170 O174 2.273 . S
Cd170 O178 2.277 . S
O171 C168 1.160 . S
O171 Cd172 2.203 . S
Cd172 O171 2.203 . S
Cd172 O174 2.411 . S
Cd172 O175 2.333 . S
Cd172 O176 2.352 . S
Cd172 O180 2.277 . S
Cd172 O181 2.356 . S
C173 O178 1.209 . S
C173 O180 1.226 . S
O174 Cd170 2.273 . S
O174 Cd172 2.411 . S
O174 C177 1.320 . S
O175 Cd172 2.333 . S
O175 C177 1.214 . S
O176 Cd172 2.352 . S
O176 C179 1.258 . S
C177 O174 1.320 . S
C177 O175 1.214 . S
O178 Cd170 2.277 . S
O178 C173 1.209 . S
C179 O176 1.258 . S
C179 O181 1.282 . S
O180 Cd172 2.277 . S
O180 C173 1.226 . S
O181 Cd172 2.356 . S
O181 C179 1.282 . S
C182 O183 1.306 . S
C182 O185 1.160 . S
O183 C182 1.306 . S
O183 Cd184 2.228 . S
Cd184 O183 2.228 . S
Cd184 O188 2.273 . S
Cd184 O192 2.277 . S
O185 C182 1.160 . S
O185 Cd186 2.203 . S
Cd186 O185 2.203 . S
Cd186 O188 2.411 . S
Cd186 O189 2.333 . S
Cd186 O190 2.352 . S
Cd186 O194 2.277 . S
Cd186 O195 2.356 . S
C187 O192 1.209 . S
C187 O194 1.226 . S
O188 Cd184 2.273 . S
O188 Cd186 2.411 . S
O188 C191 1.320 . S
O189 Cd186 2.333 . S
O189 C191 1.214 . S
O190 Cd186 2.352 . S
O190 C193 1.258 . S
C191 O188 1.320 . S
C191 O189 1.214 . S
O192 Cd184 2.277 . S
O192 C187 1.209 . S
C193 O190 1.258 . S
C193 O195 1.282 . S
O194 Cd186 2.277 . S
O194 C187 1.226 . S
O195 Cd186 2.356 . S
O195 C193 1.282 . S
C196 O197 1.306 . S
C196 O199 1.160 . S
O197 C196 1.306 . S
O197 Cd198 2.228 . S
Cd198 O197 2.228 . S
Cd198 O202 2.273 . S
Cd198 O206 2.277 . S
O199 C196 1.160 . S
O199 Cd200 2.203 . S
Cd200 O199 2.203 . S
Cd200 O202 2.411 . S
Cd200 O203 2.333 . S
Cd200 O204 2.352 . S
Cd200 O208 2.277 . S
Cd200 O209 2.356 . S
C201 O206 1.209 . S
C201 O208 1.226 . S
O202 Cd198 2.273 . S
O202 Cd200 2.411 . S
O202 C205 1.320 . S
O203 Cd200 2.333 . S
O203 C205 1.214 . S
O204 Cd200 2.352 . S
O204 C207 1.258 . S
C205 O202 1.320 . S
C205 O203 1.214 . S
O206 Cd198 2.277 . S
O206 C201 1.209 . S
C207 O204 1.258 . S
C207 O209 1.282 . S
O208 Cd200 2.277 . S
O208 C201 1.226 . S
O209 Cd200 2.356 . S
O209 C207 1.282 . S
C210 O211 1.306 . S
C210 O213 1.160 . S
O211 C210 1.306 . S
O211 Cd212 2.228 . S
Cd212 O211 2.228 . S
Cd212 O216 2.273 . S
Cd212 O220 2.277 . S
O213 C210 1.160 . S
O213 Cd214 2.203 . S
Cd214 O213 2.203 . S
Cd214 O216 2.411 . S
Cd214 O217 2.333 . S
Cd214 O218 2.352 . S
Cd214 O222 2.277 . S
Cd214 O223 2.356 . S
C215 O220 1.209 . S
C215 O222 1.226 . S
O216 Cd212 2.273 . S
O216 Cd214 2.411 . S
O216 C219 1.320 1_554 S
O217 Cd214 2.333 . S
O217 C219 1.214 1_554 S
O218 Cd214 2.352 . S
O218 C221 1.258 . S
C219 O216 1.320 1_556 S
C219 O217 1.214 1_556 S
O220 Cd212 2.277 . S
O220 C215 1.209 . S
C221 O218 1.258 . S
C221 O223 1.282 . S
O222 Cd214 2.277 . S
O222 C215 1.226 . S
O223 Cd214 2.356 . S
O223 C221 1.282 . S
C224 O225 1.306 . S
C224 O227 1.160 . S
O225 C224 1.306 . S
O225 Cd226 2.228 . S
Cd226 O225 2.228 . S
Cd226 O230 2.273 . S
Cd226 O234 2.277 . S
O227 C224 1.160 . S
O227 Cd228 2.203 . S
Cd228 O227 2.203 . S
Cd228 O230 2.411 . S
Cd228 O231 2.333 . S
Cd228 O232 2.352 . S
Cd228 O236 2.277 . S
Cd228 O237 2.356 . S
C229 O234 1.209 . S
C229 O236 1.226 . S
O230 Cd226 2.273 . S
O230 Cd228 2.411 . S
O230 C233 1.320 . S
O231 Cd228 2.333 . S
O231 C233 1.214 . S
O232 Cd228 2.352 . S
O232 C235 1.258 . S
C233 O230 1.320 . S
C233 O231 1.214 . S
O234 Cd226 2.277 . S
O234 C229 1.209 . S
C235 O232 1.258 . S
C235 O237 1.282 . S
O236 Cd228 2.277 . S
O236 C229 1.226 . S
O237 Cd228 2.356 . S
O237 C235 1.282 . S
C238 O239 1.306 . S
C238 O241 1.160 . S
O239 C238 1.306 . S
O239 Cd240 2.228 . S
Cd240 O239 2.228 . S
Cd240 O244 2.273 . S
Cd240 O248 2.277 . S
O241 C238 1.160 . S
O241 Cd242 2.203 . S
Cd242 O241 2.203 . S
Cd242 O244 2.411 . S
Cd242 O245 2.333 . S
Cd242 O246 2.352 . S
Cd242 O250 2.277 . S
Cd242 O251 2.356 . S
C243 O248 1.209 . S
C243 O250 1.226 . S
O244 Cd240 2.273 . S
O244 Cd242 2.411 . S
O244 C247 1.320 1_554 S
O245 Cd242 2.333 . S
O245 C247 1.214 1_554 S
O246 Cd242 2.352 . S
O246 C249 1.258 . S
C247 O244 1.320 1_556 S
C247 O245 1.214 1_556 S
O248 Cd240 2.277 . S
O248 C243 1.209 . S
C249 O246 1.258 . S
C249 O251 1.282 . S
O250 Cd242 2.277 . S
O250 C243 1.226 . S
O251 Cd242 2.356 . S
O251 C249 1.282 . S
C252 O253 1.306 . S
C252 O255 1.160 . S
O253 C252 1.306 . S
O253 Cd254 2.228 . S
Cd254 O253 2.228 . S
Cd254 O258 2.273 . S
Cd254 O262 2.277 . S
O255 C252 1.160 . S
O255 Cd256 2.203 . S
Cd256 O255 2.203 . S
Cd256 O258 2.411 . S
Cd256 O259 2.333 . S
Cd256 O260 2.352 . S
Cd256 O264 2.277 . S
Cd256 O265 2.356 . S
C257 O262 1.209 . S
C257 O264 1.226 . S
O258 Cd254 2.273 . S
O258 Cd256 2.411 . S
O258 C261 1.320 . S
O259 Cd256 2.333 . S
O259 C261 1.214 . S
O260 Cd256 2.352 . S
O260 C263 1.258 . S
C261 O258 1.320 . S
C261 O259 1.214 . S
O262 Cd254 2.277 . S
O262 C257 1.209 . S
C263 O260 1.258 . S
C263 O265 1.282 . S
O264 Cd256 2.277 . S
O264 C257 1.226 . S
O265 Cd256 2.356 . S
O265 C263 1.282 . S
C266 O267 1.306 . S
C266 O269 1.160 . S
O267 C266 1.306 . S
O267 Cd268 2.228 . S
Cd268 O267 2.228 . S
Cd268 O272 2.273 . S
Cd268 O276 2.277 . S
O269 C266 1.160 . S
O269 Cd270 2.203 . S
Cd270 O269 2.203 . S
Cd270 O272 2.411 . S
Cd270 O273 2.333 . S
Cd270 O274 2.352 . S
Cd270 O278 2.277 . S
Cd270 O279 2.356 . S
C271 O276 1.209 . S
C271 O278 1.226 . S
O272 Cd268 2.273 . S
O272 Cd270 2.411 . S
O272 C275 1.320 . S
O273 Cd270 2.333 . S
O273 C275 1.214 . S
O274 Cd270 2.352 . S
O274 C277 1.258 . S
C275 O272 1.320 . S
C275 O273 1.214 . S
O276 Cd268 2.277 . S
O276 C271 1.209 . S
C277 O274 1.258 . S
C277 O279 1.282 . S
O278 Cd270 2.277 . S
O278 C271 1.226 . S
O279 Cd270 2.356 . S
O279 C277 1.282 . S
C280 O281 1.306 . S
C280 O283 1.160 . S
O281 C280 1.306 . S
O281 Cd282 2.228 . S
Cd282 O281 2.228 . S
Cd282 O286 2.273 . S
Cd282 O290 2.277 . S
O283 C280 1.160 . S
O283 Cd284 2.203 . S
Cd284 O283 2.203 . S
Cd284 O286 2.411 . S
Cd284 O287 2.333 . S
Cd284 O288 2.352 . S
Cd284 O292 2.277 . S
Cd284 O293 2.356 . S
C285 O290 1.209 . S
C285 O292 1.226 . S
O286 Cd282 2.273 . S
O286 Cd284 2.411 . S
O286 C289 1.320 . S
O287 Cd284 2.333 . S
O287 C289 1.214 . S
O288 Cd284 2.352 . S
O288 C291 1.258 . S
C289 O286 1.320 . S
C289 O287 1.214 . S
O290 Cd282 2.277 . S
O290 C285 1.209 . S
C291 O288 1.258 . S
C291 O293 1.282 . S
O292 Cd284 2.277 . S
O292 C285 1.226 . S
O293 Cd284 2.356 . S
O293 C291 1.282 . S
C294 O295 1.306 . S
C294 O297 1.160 . S
O295 C294 1.306 . S
O295 Cd296 2.228 . S
Cd296 O295 2.228 . S
Cd296 O300 2.273 . S
Cd296 O304 2.277 . S
O297 C294 1.160 . S
O297 Cd298 2.203 . S
Cd298 O297 2.203 . S
Cd298 O300 2.411 . S
Cd298 O301 2.333 . S
Cd298 O302 2.352 . S
Cd298 O306 2.277 . S
Cd298 O307 2.356 . S
C299 O304 1.209 . S
C299 O306 1.226 . S
O300 Cd296 2.273 . S
O300 Cd298 2.411 . S
O300 C303 1.320 1_556 S
O301 Cd298 2.333 . S
O301 C303 1.214 1_556 S
O302 Cd298 2.352 . S
O302 C305 1.258 . S
C303 O300 1.320 1_554 S
C303 O301 1.214 1_554 S
O304 Cd296 2.277 . S
O304 C299 1.209 . S
C305 O302 1.258 . S
C305 O307 1.282 . S
O306 Cd298 2.277 . S
O306 C299 1.226 . S
O307 Cd298 2.356 . S
O307 C305 1.282 . S
C308 O309 1.306 . S
C308 O311 1.160 . S
O309 C308 1.306 . S
O309 Cd310 2.228 . S
Cd310 O309 2.228 . S
Cd310 O314 2.273 . S
Cd310 O318 2.277 . S
O311 C308 1.160 . S
O311 Cd312 2.203 . S
Cd312 O311 2.203 . S
Cd312 O314 2.411 . S
Cd312 O315 2.333 . S
Cd312 O316 2.352 . S
Cd312 O320 2.277 . S
Cd312 O321 2.356 . S
C313 O318 1.209 . S
C313 O320 1.226 . S
O314 Cd310 2.273 . S
O314 Cd312 2.411 . S
O314 C317 1.320 . S
O315 Cd312 2.333 . S
O315 C317 1.214 . S
O316 Cd312 2.352 . S
O316 C319 1.258 . S
C317 O314 1.320 . S
C317 O315 1.214 . S
O318 Cd310 2.277 . S
O318 C313 1.209 . S
C319 O316 1.258 . S
C319 O321 1.282 . S
O320 Cd312 2.277 . S
O320 C313 1.226 . S
O321 Cd312 2.356 . S
O321 C319 1.282 . S
C322 O323 1.306 . S
C322 O325 1.160 . S
O323 C322 1.306 . S
O323 Cd324 2.228 . S
Cd324 O323 2.228 . S
Cd324 O328 2.273 . S
Cd324 O332 2.277 . S
O325 C322 1.160 . S
O325 Cd326 2.203 . S
Cd326 O325 2.203 . S
Cd326 O328 2.411 . S
Cd326 O329 2.333 . S
Cd326 O330 2.352 . S
Cd326 O334 2.277 . S
Cd326 O335 2.356 . S
C327 O332 1.209 . S
C327 O334 1.226 . S
O328 Cd324 2.273 . S
O328 Cd326 2.411 . S
O328 C331 1.320 . S
O329 Cd326 2.333 . S
O329 C331 1.214 . S
O330 Cd326 2.352 . S
O330 C333 1.258 . S
C331 O328 1.320 . S
C331 O329 1.214 . S
O332 Cd324 2.277 . S
O332 C327 1.209 . S
C333 O330 1.258 . S
C333 O335 1.282 . S
O334 Cd326 2.277 . S
O334 C327 1.226 . S
O335 Cd326 2.356 . S
O335 C333 1.282 . S
C336 O337 1.306 . S
C336 O339 1.160 . S
O337 C336 1.306 . S
O337 Cd338 2.228 . S
Cd338 O337 2.228 . S
Cd338 O342 2.273 . S
Cd338 O346 2.277 . S
O339 C336 1.160 . S
O339 Cd340 2.203 . S
Cd340 O339 2.203 . S
Cd340 O342 2.411 . S
Cd340 O343 2.333 . S
Cd340 O344 2.352 . S
Cd340 O348 2.277 . S
Cd340 O349 2.356 . S
C341 O346 1.209 . S
C341 O348 1.226 . S
O342 Cd338 2.273 . S
O342 Cd340 2.411 . S
O342 C345 1.320 . S
O343 Cd340 2.333 . S
O343 C345 1.214 . S
O344 Cd340 2.352 . S
O344 C347 1.258 . S
C345 O342 1.320 . S
C345 O343 1.214 . S
O346 Cd338 2.277 . S
O346 C341 1.209 . S
C347 O344 1.258 . S
C347 O349 1.282 . S
O348 Cd340 2.277 . S
O348 C341 1.226 . S
O349 Cd340 2.356 . S
O349 C347 1.282 . S
C350 O351 1.306 . S
C350 O353 1.160 . S
O351 C350 1.306 . S
O351 Cd352 2.228 . S
Cd352 O351 2.228 . S
Cd352 O356 2.273 . S
Cd352 O360 2.277 . S
O353 C350 1.160 . S
O353 Cd354 2.203 . S
Cd354 O353 2.203 . S
Cd354 O356 2.411 . S
Cd354 O357 2.333 . S
Cd354 O358 2.352 . S
Cd354 O362 2.277 . S
Cd354 O363 2.356 . S
C355 O360 1.209 . S
C355 O362 1.226 . S
O356 Cd352 2.273 . S
O356 Cd354 2.411 . S
O356 C359 1.320 1_556 S
O357 Cd354 2.333 . S
O357 C359 1.214 1_556 S
O358 Cd354 2.352 . S
O358 C361 1.258 . S
C359 O356 1.320 1_554 S
C359 O357 1.214 1_554 S
O360 Cd352 2.277 . S
O360 C355 1.209 . S
C361 O358 1.258 . S
C361 O363 1.282 . S
O362 Cd354 2.277 . S
O362 C355 1.226 . S
O363 Cd354 2.356 . S
O363 C361 1.282 . S
C364 O365 1.306 . S
C364 O367 1.160 . S
O365 C364 1.306 . S
O365 Cd366 2.228 . S
Cd366 O365 2.228 . S
Cd366 O370 2.273 . S
Cd366 O374 2.277 . S
O367 C364 1.160 . S
O367 Cd368 2.203 . S
Cd368 O367 2.203 . S
Cd368 O370 2.411 . S
Cd368 O371 2.333 . S
Cd368 O372 2.352 . S
Cd368 O376 2.277 . S
Cd368 O377 2.356 . S
C369 O374 1.209 . S
C369 O376 1.226 . S
O370 Cd366 2.273 . S
O370 Cd368 2.411 . S
O370 C373 1.320 . S
O371 Cd368 2.333 . S
O371 C373 1.214 . S
O372 Cd368 2.352 . S
O372 C375 1.258 . S
C373 O370 1.320 . S
C373 O371 1.214 . S
O374 Cd366 2.277 . S
O374 C369 1.209 . S
C375 O372 1.258 . S
C375 O377 1.282 . S
O376 Cd368 2.277 . S
O376 C369 1.226 . S
O377 Cd368 2.356 . S
O377 C375 1.282 . S
C378 O379 1.306 . S
C378 O381 1.160 . S
O379 C378 1.306 . S
O379 Cd380 2.228 . S
Cd380 O379 2.228 . S
Cd380 O384 2.273 . S
Cd380 O388 2.277 . S
O381 C378 1.160 . S
O381 Cd382 2.203 . S
Cd382 O381 2.203 . S
Cd382 O384 2.411 . S
Cd382 O385 2.333 . S
Cd382 O386 2.352 . S
Cd382 O390 2.277 . S
Cd382 O391 2.356 . S
C383 O388 1.209 . S
C383 O390 1.226 . S
O384 Cd380 2.273 . S
O384 Cd382 2.411 . S
O384 C387 1.320 . S
O385 Cd382 2.333 . S
O385 C387 1.214 . S
O386 Cd382 2.352 . S
O386 C389 1.258 . S
C387 O384 1.320 . S
C387 O385 1.214 . S
O388 Cd380 2.277 . S
O388 C383 1.209 . S
C389 O386 1.258 . S
C389 O391 1.282 . S
O390 Cd382 2.277 . S
O390 C383 1.226 . S
O391 Cd382 2.356 . S
O391 C389 1.282 . S
C392 O393 1.306 . S
C392 O395 1.160 . S
O393 C392 1.306 . S
O393 Cd394 2.228 . S
Cd394 O393 2.228 . S
Cd394 O398 2.273 . S
Cd394 O402 2.277 . S
O395 C392 1.160 . S
O395 Cd396 2.203 . S
Cd396 O395 2.203 . S
Cd396 O398 2.411 . S
Cd396 O399 2.333 . S
Cd396 O400 2.352 . S
Cd396 O404 2.277 . S
Cd396 O405 2.356 . S
C397 O402 1.209 . S
C397 O404 1.226 . S
O398 Cd394 2.273 . S
O398 Cd396 2.411 . S
O398 C401 1.320 . S
O399 Cd396 2.333 . S
O399 C401 1.214 . S
O400 Cd396 2.352 . S
O400 C403 1.258 . S
C401 O398 1.320 . S
C401 O399 1.214 . S
O402 Cd394 2.277 . S
O402 C397 1.209 . S
C403 O400 1.258 . S
C403 O405 1.282 . S
O404 Cd396 2.277 . S
O404 C397 1.226 . S
O405 Cd396 2.356 . S
O405 C403 1.282 . S
C406 O407 1.306 . S
C406 O409 1.160 . S
O407 C406 1.306 . S
O407 Cd408 2.228 . S
Cd408 O407 2.228 . S
Cd408 O412 2.273 . S
Cd408 O416 2.277 . S
O409 C406 1.160 . S
O409 Cd410 2.203 . S
Cd410 O409 2.203 . S
Cd410 O412 2.411 . S
Cd410 O413 2.333 . S
Cd410 O414 2.352 . S
Cd410 O418 2.277 . S
Cd410 O419 2.356 . S
C411 O416 1.209 . S
C411 O418 1.226 . S
O412 Cd408 2.273 . S
O412 Cd410 2.411 . S
O412 C415 1.320 1_554 S
O413 Cd410 2.333 . S
O413 C415 1.214 1_554 S
O414 Cd410 2.352 . S
O414 C417 1.258 . S
C415 O412 1.320 1_556 S
C415 O413 1.214 1_556 S
O416 Cd408 2.277 . S
O416 C411 1.209 . S
C417 O414 1.258 . S
C417 O419 1.282 . S
O418 Cd410 2.277 . S
O418 C411 1.226 . S
O419 Cd410 2.356 . S
O419 C417 1.282 . S
C420 O421 1.306 . S
C420 O423 1.160 . S
O421 C420 1.306 . S
O421 Cd422 2.228 . S
Cd422 O421 2.228 . S
Cd422 O426 2.273 . S
Cd422 O430 2.277 . S
O423 C420 1.160 . S
O423 Cd424 2.203 . S
Cd424 O423 2.203 . S
Cd424 O426 2.411 . S
Cd424 O427 2.333 . S
Cd424 O428 2.352 . S
Cd424 O432 2.277 . S
Cd424 O433 2.356 . S
C425 O430 1.209 . S
C425 O432 1.226 . S
O426 Cd422 2.273 . S
O426 Cd424 2.411 . S
O426 C429 1.320 . S
O427 Cd424 2.333 . S
O427 C429 1.214 . S
O428 Cd424 2.352 . S
O428 C431 1.258 . S
C429 O426 1.320 . S
C429 O427 1.214 . S
O430 Cd422 2.277 . S
O430 C425 1.209 . S
C431 O428 1.258 . S
C431 O433 1.282 . S
O432 Cd424 2.277 . S
O432 C425 1.226 . S
O433 Cd424 2.356 . S
O433 C431 1.282 . S
C434 O435 1.306 . S
C434 O437 1.160 . S
O435 C434 1.306 . S
O435 Cd436 2.228 . S
Cd436 O435 2.228 . S
Cd436 O440 2.273 . S
Cd436 O444 2.277 . S
O437 C434 1.160 . S
O437 Cd438 2.203 . S
Cd438 O437 2.203 . S
Cd438 O440 2.411 . S
Cd438 O441 2.333 . S
Cd438 O442 2.352 . S
Cd438 O446 2.277 . S
Cd438 O447 2.356 . S
C439 O444 1.209 . S
C439 O446 1.226 . S
O440 Cd436 2.273 . S
O440 Cd438 2.411 . S
O440 C443 1.320 . S
O441 Cd438 2.333 . S
O441 C443 1.214 . S
O442 Cd438 2.352 . S
O442 C445 1.258 . S
C443 O440 1.320 . S
C443 O441 1.214 . S
O444 Cd436 2.277 . S
O444 C439 1.209 . S
C445 O442 1.258 . S
C445 O447 1.282 . S
O446 Cd438 2.277 . S
O446 C439 1.226 . S
O447 Cd438 2.356 . S
O447 C445 1.282 . S
H448 C456 0.929 . S
H449 C458 0.930 . S
H450 C460 0.930 . S
H451 C463 0.929 . S
H452 C466 0.930 . S
H453 C468 0.960 . S
H454 C468 0.960 . S
H455 C468 0.960 . S
C456 H448 0.929 . S
C456 C457 1.377 . S
C456 C458 1.384 . S
C457 C456 1.377 . S
C457 C463 1.390 . S
C458 H449 0.930 . S
C458 C456 1.384 . S
C458 C459 1.372 . S
C459 C458 1.372 . S
C459 C460 1.400 . S
C459 C464 1.490 . S
C460 H450 0.930 . S
C460 C459 1.400 . S
C460 C463 1.386 . S
H461 C477 0.930 . S
H462 C478 0.931 . S
C463 H451 0.929 . S
C463 C457 1.390 . S
C463 C460 1.386 . S
C464 C459 1.490 . S
C464 C466 1.395 . S
C464 C467 1.403 . S
H465 C471 0.930 . S
C466 H452 0.930 . S
C466 C464 1.395 . S
C466 C469 1.403 . S
C467 C464 1.403 . S
C467 C468 1.524 . S
C467 C471 1.400 . S
C468 H453 0.960 . S
C468 H454 0.960 . S
C468 H455 0.960 . S
C468 C467 1.524 . S
C469 C466 1.403 . S
C469 C470 1.392 . S
C469 C473 1.495 . S
C470 C469 1.392 . S
C470 C471 1.385 . S
C470 C472 1.478 . S
C471 H465 0.930 . S
C471 C467 1.400 . S
C471 C470 1.385 . S
C472 C470 1.478 . S
C472 C474 1.381 . S
C472 C478 1.383 . S
C473 C469 1.495 . S
C473 H479 0.959 . S
C473 H480 0.961 . S
C473 H481 0.960 . S
C474 C472 1.381 . S
C474 C475 1.394 . S
C474 H482 0.930 . S
C475 C474 1.394 . S
C475 C476 1.383 . S
C475 H483 0.929 . S
C476 C475 1.383 . S
C476 C477 1.377 . S
C477 H461 0.930 . S
C477 C476 1.377 . S
C477 C478 1.379 . S
C478 H462 0.931 . S
C478 C472 1.383 . S
C478 C477 1.379 . S
H479 C473 0.959 . S
H480 C473 0.961 . S
H481 C473 0.960 . S
H482 C474 0.930 . S
H483 C475 0.929 . S
H484 C492 0.929 . S
H485 C494 0.930 . S
H486 C496 0.930 . S
H487 C499 0.929 . S
H488 C502 0.930 . S
H489 C504 0.960 . S
H490 C504 0.960 . S
H491 C504 0.960 . S
C492 H484 0.929 . S
C492 C493 1.377 . S
C492 C494 1.384 . S
C493 C492 1.377 . S
C493 C499 1.390 . S
C494 H485 0.930 . S
C494 C492 1.384 . S
C494 C495 1.372 . S
C495 C494 1.372 . S
C495 C496 1.400 . S
C495 C500 1.490 . S
C496 H486 0.930 . S
C496 C495 1.400 . S
C496 C499 1.386 . S
H497 C513 0.930 . S
H498 C514 0.931 . S
C499 H487 0.929 . S
C499 C493 1.390 . S
C499 C496 1.386 . S
C500 C495 1.490 . S
C500 C502 1.395 . S
C500 C503 1.403 . S
H501 C507 0.930 . S
C502 H488 0.930 . S
C502 C500 1.395 . S
C502 C505 1.403 . S
C503 C500 1.403 . S
C503 C504 1.524 . S
C503 C507 1.400 . S
C504 H489 0.960 . S
C504 H490 0.960 . S
C504 H491 0.960 . S
C504 C503 1.524 . S
C505 C502 1.403 . S
C505 C506 1.392 . S
C505 C509 1.495 . S
C506 C505 1.392 . S
C506 C507 1.385 . S
C506 C508 1.478 . S
C507 H501 0.930 . S
C507 C503 1.400 . S
C507 C506 1.385 . S
C508 C506 1.478 . S
C508 C510 1.381 . S
C508 C514 1.383 . S
C509 C505 1.495 . S
C509 H515 0.959 . S
C509 H516 0.961 . S
C509 H517 0.960 . S
C510 C508 1.381 . S
C510 C511 1.394 . S
C510 H518 0.930 . S
C511 C510 1.394 . S
C511 C512 1.383 . S
C511 H519 0.929 . S
C512 C511 1.383 . S
C512 C513 1.377 . S
C513 H497 0.930 . S
C513 C512 1.377 . S
C513 C514 1.379 . S
C514 H498 0.931 . S
C514 C508 1.383 . S
C514 C513 1.379 . S
H515 C509 0.959 . S
H516 C509 0.961 . S
H517 C509 0.960 . S
H518 C510 0.930 . S
H519 C511 0.929 . S
H520 C528 0.929 . S
H521 C530 0.930 . S
H522 C532 0.930 . S
H523 C535 0.929 . S
H524 C538 0.930 . S
H525 C540 0.960 . S
H526 C540 0.960 . S
H527 C540 0.960 . S
C528 H520 0.929 . S
C528 C529 1.377 . S
C528 C530 1.384 . S
C529 C528 1.377 . S
C529 C535 1.390 . S
C530 H521 0.930 . S
C530 C528 1.384 . S
C530 C531 1.372 . S
C531 C530 1.372 . S
C531 C532 1.400 . S
C531 C536 1.490 . S
C532 H522 0.930 . S
C532 C531 1.400 . S
C532 C535 1.386 . S
H533 C549 0.930 . S
H534 C550 0.931 . S
C535 H523 0.929 . S
C535 C529 1.390 . S
C535 C532 1.386 . S
C536 C531 1.490 . S
C536 C538 1.395 . S
C536 C539 1.403 . S
H537 C543 0.930 . S
C538 H524 0.930 . S
C538 C536 1.395 . S
C538 C541 1.403 . S
C539 C536 1.403 . S
C539 C540 1.524 . S
C539 C543 1.400 . S
C540 H525 0.960 . S
C540 H526 0.960 . S
C540 H527 0.960 . S
C540 C539 1.524 . S
C541 C538 1.403 . S
C541 C542 1.392 . S
C541 C545 1.495 . S
C542 C541 1.392 . S
C542 C543 1.385 . S
C542 C544 1.478 . S
C543 H537 0.930 . S
C543 C539 1.400 . S
C543 C542 1.385 . S
C544 C542 1.478 . S
C544 C546 1.381 . S
C544 C550 1.383 . S
C545 C541 1.495 . S
C545 H551 0.959 . S
C545 H552 0.961 . S
C545 H553 0.960 . S
C546 C544 1.381 . S
C546 C547 1.394 . S
C546 H554 0.930 . S
C547 C546 1.394 . S
C547 C548 1.383 . S
C547 H555 0.929 . S
C548 C547 1.383 . S
C548 C549 1.377 . S
C549 H533 0.930 . S
C549 C548 1.377 . S
C549 C550 1.379 . S
C550 H534 0.931 . S
C550 C544 1.383 . S
C550 C549 1.379 . S
H551 C545 0.959 . S
H552 C545 0.961 . S
H553 C545 0.960 . S
H554 C546 0.930 . S
H555 C547 0.929 . S
H556 C564 0.929 . S
H557 C566 0.930 . S
H558 C568 0.930 . S
H559 C571 0.929 . S
H560 C574 0.930 . S
H561 C576 0.960 . S
H562 C576 0.960 . S
H563 C576 0.960 . S
C564 H556 0.929 . S
C564 C565 1.377 . S
C564 C566 1.384 . S
C565 C564 1.377 . S
C565 C571 1.390 . S
C566 H557 0.930 . S
C566 C564 1.384 . S
C566 C567 1.372 . S
C567 C566 1.372 . S
C567 C568 1.400 . S
C567 C572 1.490 . S
C568 H558 0.930 . S
C568 C567 1.400 . S
C568 C571 1.386 . S
H569 C585 0.930 . S
H570 C586 0.931 . S
C571 H559 0.929 . S
C571 C565 1.390 . S
C571 C568 1.386 . S
C572 C567 1.490 . S
C572 C574 1.395 . S
C572 C575 1.403 . S
H573 C579 0.930 . S
C574 H560 0.930 . S
C574 C572 1.395 . S
C574 C577 1.403 . S
C575 C572 1.403 . S
C575 C576 1.524 . S
C575 C579 1.400 . S
C576 H561 0.960 . S
C576 H562 0.960 . S
C576 H563 0.960 . S
C576 C575 1.524 . S
C577 C574 1.403 . S
C577 C578 1.392 . S
C577 C581 1.495 . S
C578 C577 1.392 . S
C578 C579 1.385 . S
C578 C580 1.478 . S
C579 H573 0.930 . S
C579 C575 1.400 . S
C579 C578 1.385 . S
C580 C578 1.478 . S
C580 C582 1.381 . S
C580 C586 1.383 . S
C581 C577 1.495 . S
C581 H587 0.959 . S
C581 H588 0.961 . S
C581 H589 0.960 . S
C582 C580 1.381 . S
C582 C583 1.394 . S
C582 H590 0.930 . S
C583 C582 1.394 . S
C583 C584 1.383 . S
C583 H591 0.929 . S
C584 C583 1.383 . S
C584 C585 1.377 . S
C585 H569 0.930 . S
C585 C584 1.377 . S
C585 C586 1.379 . S
C586 H570 0.931 . S
C586 C580 1.383 . S
C586 C585 1.379 . S
H587 C581 0.959 . S
H588 C581 0.961 . S
H589 C581 0.960 . S
H590 C582 0.930 . S
H591 C583 0.929 . S
H592 C600 0.929 . S
H593 C602 0.930 . S
H594 C604 0.930 . S
H595 C607 0.929 . S
H596 C610 0.930 . S
H597 C612 0.960 . S
H598 C612 0.960 . S
H599 C612 0.960 . S
C600 H592 0.929 . S
C600 C601 1.377 . S
C600 C602 1.384 . S
C601 C600 1.377 . S
C601 C607 1.390 . S
C602 H593 0.930 . S
C602 C600 1.384 . S
C602 C603 1.372 . S
C603 C602 1.372 . S
C603 C604 1.400 . S
C603 C608 1.490 . S
C604 H594 0.930 . S
C604 C603 1.400 . S
C604 C607 1.386 . S
H605 C621 0.930 . S
H606 C622 0.931 . S
C607 H595 0.929 . S
C607 C601 1.390 . S
C607 C604 1.386 . S
C608 C603 1.490 . S
C608 C610 1.395 . S
C608 C611 1.403 . S
H609 C615 0.930 . S
C610 H596 0.930 . S
C610 C608 1.395 . S
C610 C613 1.403 . S
C611 C608 1.403 . S
C611 C612 1.524 . S
C611 C615 1.400 . S
C612 H597 0.960 . S
C612 H598 0.960 . S
C612 H599 0.960 . S
C612 C611 1.524 . S
C613 C610 1.403 . S
C613 C614 1.392 . S
C613 C617 1.495 . S
C614 C613 1.392 . S
C614 C615 1.385 . S
C614 C616 1.478 . S
C615 H609 0.930 . S
C615 C611 1.400 . S
C615 C614 1.385 . S
C616 C614 1.478 . S
C616 C618 1.381 . S
C616 C622 1.383 . S
C617 C613 1.495 . S
C617 H623 0.959 . S
C617 H624 0.961 . S
C617 H625 0.960 . S
C618 C616 1.381 . S
C618 C619 1.394 . S
C618 H626 0.930 . S
C619 C618 1.394 . S
C619 C620 1.383 . S
C619 H627 0.929 . S
C620 C619 1.383 . S
C620 C621 1.377 . S
C621 H605 0.930 . S
C621 C620 1.377 . S
C621 C622 1.379 . S
C622 H606 0.931 . S
C622 C616 1.383 . S
C622 C621 1.379 . S
H623 C617 0.959 . S
H624 C617 0.961 . S
H625 C617 0.960 . S
H626 C618 0.930 . S
H627 C619 0.929 . S
H628 C636 0.929 . S
H629 C638 0.930 . S
H630 C640 0.930 . S
H631 C643 0.929 . S
H632 C646 0.930 . S
H633 C648 0.960 . S
H634 C648 0.960 . S
H635 C648 0.960 . S
C636 H628 0.929 . S
C636 C637 1.377 . S
C636 C638 1.384 . S
C637 C636 1.377 . S
C637 C643 1.390 . S
C638 H629 0.930 . S
C638 C636 1.384 . S
C638 C639 1.372 . S
C639 C638 1.372 . S
C639 C640 1.400 . S
C639 C644 1.490 . S
C640 H630 0.930 . S
C640 C639 1.400 . S
C640 C643 1.386 . S
H641 C657 0.930 . S
H642 C658 0.931 . S
C643 H631 0.929 . S
C643 C637 1.390 . S
C643 C640 1.386 . S
C644 C639 1.490 . S
C644 C646 1.395 . S
C644 C647 1.403 . S
H645 C651 0.930 . S
C646 H632 0.930 . S
C646 C644 1.395 . S
C646 C649 1.403 . S
C647 C644 1.403 . S
C647 C648 1.524 . S
C647 C651 1.400 . S
C648 H633 0.960 . S
C648 H634 0.960 . S
C648 H635 0.960 . S
C648 C647 1.524 . S
C649 C646 1.403 . S
C649 C650 1.392 . S
C649 C653 1.495 . S
C650 C649 1.392 . S
C650 C651 1.385 . S
C650 C652 1.478 . S
C651 H645 0.930 . S
C651 C647 1.400 . S
C651 C650 1.385 . S
C652 C650 1.478 . S
C652 C654 1.381 . S
C652 C658 1.383 . S
C653 C649 1.495 . S
C653 H659 0.959 . S
C653 H660 0.961 . S
C653 H661 0.960 . S
C654 C652 1.381 . S
C654 C655 1.394 . S
C654 H662 0.930 . S
C655 C654 1.394 . S
C655 C656 1.383 . S
C655 H663 0.929 . S
C656 C655 1.383 . S
C656 C657 1.377 . S
C657 H641 0.930 . S
C657 C656 1.377 . S
C657 C658 1.379 . S
C658 H642 0.931 . S
C658 C652 1.383 . S
C658 C657 1.379 . S
H659 C653 0.959 . S
H660 C653 0.961 . S
H661 C653 0.960 . S
H662 C654 0.930 . S
H663 C655 0.929 . S
H664 C672 0.929 . S
H665 C674 0.930 . S
H666 C676 0.930 . S
H667 C679 0.929 . S
H668 C682 0.930 . S
H669 C684 0.960 . S
H670 C684 0.960 . S
H671 C684 0.960 . S
C672 H664 0.929 . S
C672 C673 1.377 . S
C672 C674 1.384 . S
C673 C672 1.377 . S
C673 C679 1.390 . S
C674 H665 0.930 . S
C674 C672 1.384 . S
C674 C675 1.372 . S
C675 C674 1.372 . S
C675 C676 1.400 . S
C675 C680 1.490 . S
C676 H666 0.930 . S
C676 C675 1.400 . S
C676 C679 1.386 . S
H677 C693 0.930 . S
H678 C694 0.931 . S
C679 H667 0.929 . S
C679 C673 1.390 . S
C679 C676 1.386 . S
C680 C675 1.490 . S
C680 C682 1.395 . S
C680 C683 1.403 . S
H681 C687 0.930 . S
C682 H668 0.930 . S
C682 C680 1.395 . S
C682 C685 1.403 . S
C683 C680 1.403 . S
C683 C684 1.524 . S
C683 C687 1.400 . S
C684 H669 0.960 . S
C684 H670 0.960 . S
C684 H671 0.960 . S
C684 C683 1.524 . S
C685 C682 1.403 . S
C685 C686 1.392 . S
C685 C689 1.495 . S
C686 C685 1.392 . S
C686 C687 1.385 . S
C686 C688 1.478 . S
C687 H681 0.930 . S
C687 C683 1.400 . S
C687 C686 1.385 . S
C688 C686 1.478 . S
C688 C690 1.381 . S
C688 C694 1.383 . S
C689 C685 1.495 . S
C689 H695 0.959 . S
C689 H696 0.961 . S
C689 H697 0.960 . S
C690 C688 1.381 . S
C690 C691 1.394 . S
C690 H698 0.930 . S
C691 C690 1.394 . S
C691 C692 1.383 . S
C691 H699 0.929 . S
C692 C691 1.383 . S
C692 C693 1.377 . S
C693 H677 0.930 . S
C693 C692 1.377 . S
C693 C694 1.379 . S
C694 H678 0.931 . S
C694 C688 1.383 . S
C694 C693 1.379 . S
H695 C689 0.959 . S
H696 C689 0.961 . S
H697 C689 0.960 . S
H698 C690 0.930 . S
H699 C691 0.929 . S
H700 C708 0.929 . S
H701 C710 0.930 . S
H702 C712 0.930 . S
H703 C715 0.929 . S
H704 C718 0.930 . S
H705 C720 0.960 . S
H706 C720 0.960 . S
H707 C720 0.960 . S
C708 H700 0.929 . S
C708 C709 1.377 . S
C708 C710 1.384 . S
C709 C708 1.377 . S
C709 C715 1.390 . S
C710 H701 0.930 . S
C710 C708 1.384 . S
C710 C711 1.372 . S
C711 C710 1.372 . S
C711 C712 1.400 . S
C711 C716 1.490 . S
C712 H702 0.930 . S
C712 C711 1.400 . S
C712 C715 1.386 . S
H713 C729 0.930 . S
H714 C730 0.931 . S
C715 H703 0.929 . S
C715 C709 1.390 . S
C715 C712 1.386 . S
C716 C711 1.490 . S
C716 C718 1.395 . S
C716 C719 1.403 . S
H717 C723 0.930 . S
C718 H704 0.930 . S
C718 C716 1.395 . S
C718 C721 1.403 . S
C719 C716 1.403 . S
C719 C720 1.524 . S
C719 C723 1.400 . S
C720 H705 0.960 . S
C720 H706 0.960 . S
C720 H707 0.960 . S
C720 C719 1.524 . S
C721 C718 1.403 . S
C721 C722 1.392 . S
C721 C725 1.495 . S
C722 C721 1.392 . S
C722 C723 1.385 . S
C722 C724 1.478 . S
C723 H717 0.930 . S
C723 C719 1.400 . S
C723 C722 1.385 . S
C724 C722 1.478 . S
C724 C726 1.381 . S
C724 C730 1.383 . S
C725 C721 1.495 . S
C725 H731 0.959 . S
C725 H732 0.961 . S
C725 H733 0.960 . S
C726 C724 1.381 . S
C726 C727 1.394 . S
C726 H734 0.930 . S
C727 C726 1.394 . S
C727 C728 1.383 . S
C727 H735 0.929 . S
C728 C727 1.383 . S
C728 C729 1.377 . S
C729 H713 0.930 . S
C729 C728 1.377 . S
C729 C730 1.379 . S
C730 H714 0.931 . S
C730 C724 1.383 . S
C730 C729 1.379 . S
H731 C725 0.959 . S
H732 C725 0.961 . S
H733 C725 0.960 . S
H734 C726 0.930 . S
H735 C727 0.929 . S
H736 C744 0.929 . S
H737 C746 0.930 . S
H738 C748 0.930 . S
H739 C751 0.929 . S
H740 C754 0.930 . S
H741 C756 0.960 . S
H742 C756 0.960 . S
H743 C756 0.960 . S
C744 H736 0.929 . S
C744 C745 1.377 . S
C744 C746 1.384 . S
C745 C744 1.377 . S
C745 C751 1.390 . S
C746 H737 0.930 . S
C746 C744 1.384 . S
C746 C747 1.372 . S
C747 C746 1.372 . S
C747 C748 1.400 . S
C747 C752 1.490 . S
C748 H738 0.930 . S
C748 C747 1.400 . S
C748 C751 1.386 . S
H749 C765 0.930 . S
H750 C766 0.931 . S
C751 H739 0.929 . S
C751 C745 1.390 . S
C751 C748 1.386 . S
C752 C747 1.490 . S
C752 C754 1.395 . S
C752 C755 1.403 . S
H753 C759 0.930 . S
C754 H740 0.930 . S
C754 C752 1.395 . S
C754 C757 1.403 . S
C755 C752 1.403 . S
C755 C756 1.524 . S
C755 C759 1.400 . S
C756 H741 0.960 . S
C756 H742 0.960 . S
C756 H743 0.960 . S
C756 C755 1.524 . S
C757 C754 1.403 . S
C757 C758 1.392 . S
C757 C761 1.495 . S
C758 C757 1.392 . S
C758 C759 1.385 . S
C758 C760 1.478 . S
C759 H753 0.930 . S
C759 C755 1.400 . S
C759 C758 1.385 . S
C760 C758 1.478 . S
C760 C762 1.381 . S
C760 C766 1.383 . S
C761 C757 1.495 . S
C761 H767 0.959 . S
C761 H768 0.961 . S
C761 H769 0.960 . S
C762 C760 1.381 . S
C762 C763 1.394 . S
C762 H770 0.930 . S
C763 C762 1.394 . S
C763 C764 1.383 . S
C763 H771 0.929 . S
C764 C763 1.383 . S
C764 C765 1.377 . S
C765 H749 0.930 . S
C765 C764 1.377 . S
C765 C766 1.379 . S
C766 H750 0.931 . S
C766 C760 1.383 . S
C766 C765 1.379 . S
H767 C761 0.959 . S
H768 C761 0.961 . S
H769 C761 0.960 . S
H770 C762 0.930 . S
H771 C763 0.929 . S
H772 C780 0.929 . S
H773 C782 0.930 . S
H774 C784 0.930 . S
H775 C787 0.929 . S
H776 C790 0.930 . S
H777 C792 0.960 . S
H778 C792 0.960 . S
H779 C792 0.960 . S
C780 H772 0.929 . S
C780 C781 1.377 . S
C780 C782 1.384 . S
C781 C780 1.377 . S
C781 C787 1.390 . S
C782 H773 0.930 . S
C782 C780 1.384 . S
C782 C783 1.372 . S
C783 C782 1.372 . S
C783 C784 1.400 . S
C783 C788 1.490 . S
C784 H774 0.930 . S
C784 C783 1.400 . S
C784 C787 1.386 . S
H785 C801 0.930 . S
H786 C802 0.931 . S
C787 H775 0.929 . S
C787 C781 1.390 . S
C787 C784 1.386 . S
C788 C783 1.490 . S
C788 C790 1.395 . S
C788 C791 1.403 . S
H789 C795 0.930 . S
C790 H776 0.930 . S
C790 C788 1.395 . S
C790 C793 1.403 . S
C791 C788 1.403 . S
C791 C792 1.524 . S
C791 C795 1.400 . S
C792 H777 0.960 . S
C792 H778 0.960 . S
C792 H779 0.960 . S
C792 C791 1.524 . S
C793 C790 1.403 . S
C793 C794 1.392 . S
C793 C797 1.495 . S
C794 C793 1.392 . S
C794 C795 1.385 . S
C794 C796 1.478 . S
C795 H789 0.930 . S
C795 C791 1.400 . S
C795 C794 1.385 . S
C796 C794 1.478 . S
C796 C798 1.381 . S
C796 C802 1.383 . S
C797 C793 1.495 . S
C797 H803 0.959 . S
C797 H804 0.961 . S
C797 H805 0.960 . S
C798 C796 1.381 . S
C798 C799 1.394 . S
C798 H806 0.930 . S
C799 C798 1.394 . S
C799 C800 1.383 . S
C799 H807 0.929 . S
C800 C799 1.383 . S
C800 C801 1.377 . S
C801 H785 0.930 . S
C801 C800 1.377 . S
C801 C802 1.379 . S
C802 H786 0.931 . S
C802 C796 1.383 . S
C802 C801 1.379 . S
H803 C797 0.959 . S
H804 C797 0.961 . S
H805 C797 0.960 . S
H806 C798 0.930 . S
H807 C799 0.929 . S
H808 C816 0.929 . S
H809 C818 0.930 . S
H810 C820 0.930 . S
H811 C823 0.929 . S
H812 C826 0.930 . S
H813 C828 0.960 . S
H814 C828 0.960 . S
H815 C828 0.960 . S
C816 H808 0.929 . S
C816 C817 1.377 . S
C816 C818 1.384 . S
C817 C816 1.377 . S
C817 C823 1.390 . S
C818 H809 0.930 . S
C818 C816 1.384 . S
C818 C819 1.372 . S
C819 C818 1.372 . S
C819 C820 1.400 . S
C819 C824 1.490 . S
C820 H810 0.930 . S
C820 C819 1.400 . S
C820 C823 1.386 . S
H821 C837 0.930 . S
H822 C838 0.931 . S
C823 H811 0.929 . S
C823 C817 1.390 . S
C823 C820 1.386 . S
C824 C819 1.490 . S
C824 C826 1.395 . S
C824 C827 1.403 . S
H825 C831 0.930 . S
C826 H812 0.930 . S
C826 C824 1.395 . S
C826 C829 1.403 . S
C827 C824 1.403 . S
C827 C828 1.524 . S
C827 C831 1.400 . S
C828 H813 0.960 . S
C828 H814 0.960 . S
C828 H815 0.960 . S
C828 C827 1.524 . S
C829 C826 1.403 . S
C829 C830 1.392 . S
C829 C833 1.495 . S
C830 C829 1.392 . S
C830 C831 1.385 . S
C830 C832 1.478 . S
C831 H825 0.930 . S
C831 C827 1.400 . S
C831 C830 1.385 . S
C832 C830 1.478 . S
C832 C834 1.381 . S
C832 C838 1.383 . S
C833 C829 1.495 . S
C833 H839 0.959 . S
C833 H840 0.961 . S
C833 H841 0.960 . S
C834 C832 1.381 . S
C834 C835 1.394 . S
C834 H842 0.930 . S
C835 C834 1.394 . S
C835 C836 1.383 . S
C835 H843 0.929 . S
C836 C835 1.383 . S
C836 C837 1.377 . S
C837 H821 0.930 . S
C837 C836 1.377 . S
C837 C838 1.379 . S
C838 H822 0.931 . S
C838 C832 1.383 . S
C838 C837 1.379 . S
H839 C833 0.959 . S
H840 C833 0.961 . S
H841 C833 0.960 . S
H842 C834 0.930 . S
H843 C835 0.929 . S
H844 C852 0.929 . S
H845 C854 0.930 . S
H846 C856 0.930 . S
H847 C859 0.929 . S
H848 C862 0.930 . S
H849 C864 0.960 . S
H850 C864 0.960 . S
H851 C864 0.960 . S
C852 H844 0.929 . S
C852 C853 1.377 . S
C852 C854 1.384 . S
C853 C852 1.377 . S
C853 C859 1.390 . S
C854 H845 0.930 . S
C854 C852 1.384 . S
C854 C855 1.372 . S
C855 C854 1.372 . S
C855 C856 1.400 . S
C855 C860 1.490 . S
C856 H846 0.930 . S
C856 C855 1.400 . S
C856 C859 1.386 . S
H857 C873 0.930 . S
H858 C874 0.931 . S
C859 H847 0.929 . S
C859 C853 1.390 . S
C859 C856 1.386 . S
C860 C855 1.490 . S
C860 C862 1.395 . S
C860 C863 1.403 . S
H861 C867 0.930 . S
C862 H848 0.930 . S
C862 C860 1.395 . S
C862 C865 1.403 . S
C863 C860 1.403 . S
C863 C864 1.524 . S
C863 C867 1.400 . S
C864 H849 0.960 . S
C864 H850 0.960 . S
C864 H851 0.960 . S
C864 C863 1.524 . S
C865 C862 1.403 . S
C865 C866 1.392 . S
C865 C869 1.495 . S
C866 C865 1.392 . S
C866 C867 1.385 . S
C866 C868 1.478 . S
C867 H861 0.930 . S
C867 C863 1.400 . S
C867 C866 1.385 . S
C868 C866 1.478 . S
C868 C870 1.381 . S
C868 C874 1.383 . S
C869 C865 1.495 . S
C869 H875 0.959 . S
C869 H876 0.961 . S
C869 H877 0.960 . S
C870 C868 1.381 . S
C870 C871 1.394 . S
C870 H878 0.930 . S
C871 C870 1.394 . S
C871 C872 1.383 . S
C871 H879 0.929 . S
C872 C871 1.383 . S
C872 C873 1.377 . S
C873 H857 0.930 . S
C873 C872 1.377 . S
C873 C874 1.379 . S
C874 H858 0.931 . S
C874 C868 1.383 . S
C874 C873 1.379 . S
H875 C869 0.959 . S
H876 C869 0.961 . S
H877 C869 0.960 . S
H878 C870 0.930 . S
H879 C871 0.929 . S
H880 C888 0.929 . S
H881 C890 0.930 . S
H882 C892 0.930 . S
H883 C895 0.929 . S
H884 C898 0.930 . S
H885 C900 0.960 . S
H886 C900 0.960 . S
H887 C900 0.960 . S
C888 H880 0.929 . S
C888 C889 1.377 . S
C888 C890 1.384 . S
C889 C888 1.377 . S
C889 C895 1.390 . S
C890 H881 0.930 . S
C890 C888 1.384 . S
C890 C891 1.372 . S
C891 C890 1.372 . S
C891 C892 1.400 . S
C891 C896 1.490 . S
C892 H882 0.930 . S
C892 C891 1.400 . S
C892 C895 1.386 . S
H893 C909 0.930 . S
H894 C910 0.931 . S
C895 H883 0.929 . S
C895 C889 1.390 . S
C895 C892 1.386 . S
C896 C891 1.490 . S
C896 C898 1.395 . S
C896 C899 1.403 . S
H897 C903 0.930 . S
C898 H884 0.930 . S
C898 C896 1.395 . S
C898 C901 1.403 . S
C899 C896 1.403 . S
C899 C900 1.524 . S
C899 C903 1.400 . S
C900 H885 0.960 . S
C900 H886 0.960 . S
C900 H887 0.960 . S
C900 C899 1.524 . S
C901 C898 1.403 . S
C901 C902 1.392 . S
C901 C905 1.495 . S
C902 C901 1.392 . S
C902 C903 1.385 . S
C902 C904 1.478 . S
C903 H897 0.930 . S
C903 C899 1.400 . S
C903 C902 1.385 . S
C904 C902 1.478 . S
C904 C906 1.381 . S
C904 C910 1.383 . S
C905 C901 1.495 . S
C905 H911 0.959 . S
C905 H912 0.961 . S
C905 H913 0.960 . S
C906 C904 1.381 . S
C906 C907 1.394 . S
C906 H914 0.930 . S
C907 C906 1.394 . S
C907 C908 1.383 . S
C907 H915 0.929 . S
C908 C907 1.383 . S
C908 C909 1.377 . S
C909 H893 0.930 . S
C909 C908 1.377 . S
C909 C910 1.379 . S
C910 H894 0.931 . S
C910 C904 1.383 . S
C910 C909 1.379 . S
H911 C905 0.959 . S
H912 C905 0.961 . S
H913 C905 0.960 . S
H914 C906 0.930 . S
H915 C907 0.929 . S
H916 C924 0.929 . S
H917 C926 0.930 . S
H918 C928 0.930 . S
H919 C931 0.929 . S
H920 C934 0.930 . S
H921 C936 0.960 . S
H922 C936 0.960 . S
H923 C936 0.960 . S
C924 H916 0.929 . S
C924 C925 1.377 . S
C924 C926 1.384 . S
C925 C924 1.377 . S
C925 C931 1.390 . S
C926 H917 0.930 . S
C926 C924 1.384 . S
C926 C927 1.372 . S
C927 C926 1.372 . S
C927 C928 1.400 . S
C927 C932 1.490 . S
C928 H918 0.930 . S
C928 C927 1.400 . S
C928 C931 1.386 . S
H929 C945 0.930 . S
H930 C946 0.931 . S
C931 H919 0.929 . S
C931 C925 1.390 . S
C931 C928 1.386 . S
C932 C927 1.490 . S
C932 C934 1.395 . S
C932 C935 1.403 . S
H933 C939 0.930 . S
C934 H920 0.930 . S
C934 C932 1.395 . S
C934 C937 1.403 . S
C935 C932 1.403 . S
C935 C936 1.524 . S
C935 C939 1.400 . S
C936 H921 0.960 . S
C936 H922 0.960 . S
C936 H923 0.960 . S
C936 C935 1.524 . S
C937 C934 1.403 . S
C937 C938 1.392 . S
C937 C941 1.495 . S
C938 C937 1.392 . S
C938 C939 1.385 . S
C938 C940 1.478 . S
C939 H933 0.930 . S
C939 C935 1.400 . S
C939 C938 1.385 . S
C940 C938 1.478 . S
C940 C942 1.381 . S
C940 C946 1.383 . S
C941 C937 1.495 . S
C941 H947 0.959 . S
C941 H948 0.961 . S
C941 H949 0.960 . S
C942 C940 1.381 . S
C942 C943 1.394 . S
C942 H950 0.930 . S
C943 C942 1.394 . S
C943 C944 1.383 . S
C943 H951 0.929 . S
C944 C943 1.383 . S
C944 C945 1.377 . S
C945 H929 0.930 . S
C945 C944 1.377 . S
C945 C946 1.379 . S
C946 H930 0.931 . S
C946 C940 1.383 . S
C946 C945 1.379 . S
H947 C941 0.959 . S
H948 C941 0.961 . S
H949 C941 0.960 . S
H950 C942 0.930 . S
H951 C943 0.929 . S
H952 C960 0.929 . S
H953 C962 0.930 . S
H954 C964 0.930 . S
H955 C967 0.929 . S
H956 C970 0.930 . S
H957 C972 0.960 . S
H958 C972 0.960 . S
H959 C972 0.960 . S
C960 H952 0.929 . S
C960 C961 1.377 . S
C960 C962 1.384 . S
C961 C960 1.377 . S
C961 C967 1.390 . S
C962 H953 0.930 . S
C962 C960 1.384 . S
C962 C963 1.372 . S
C963 C962 1.372 . S
C963 C964 1.400 . S
C963 C968 1.490 . S
C964 H954 0.930 . S
C964 C963 1.400 . S
C964 C967 1.386 . S
H965 C981 0.930 . S
H966 C982 0.931 . S
C967 H955 0.929 . S
C967 C961 1.390 . S
C967 C964 1.386 . S
C968 C963 1.490 . S
C968 C970 1.395 . S
C968 C971 1.403 . S
H969 C975 0.930 . S
C970 H956 0.930 . S
C970 C968 1.395 . S
C970 C973 1.403 . S
C971 C968 1.403 . S
C971 C972 1.524 . S
C971 C975 1.400 . S
C972 H957 0.960 . S
C972 H958 0.960 . S
C972 H959 0.960 . S
C972 C971 1.524 . S
C973 C970 1.403 . S
C973 C974 1.392 . S
C973 C977 1.495 . S
C974 C973 1.392 . S
C974 C975 1.385 . S
C974 C976 1.478 . S
C975 H969 0.930 . S
C975 C971 1.400 . S
C975 C974 1.385 . S
C976 C974 1.478 . S
C976 C978 1.381 . S
C976 C982 1.383 . S
C977 C973 1.495 . S
C977 H983 0.959 . S
C977 H984 0.961 . S
C977 H985 0.960 . S
C978 C976 1.381 . S
C978 C979 1.394 . S
C978 H986 0.930 . S
C979 C978 1.394 . S
C979 C980 1.383 . S
C979 H987 0.929 . S
C980 C979 1.383 . S
C980 C981 1.377 . S
C981 H965 0.930 . S
C981 C980 1.377 . S
C981 C982 1.379 . S
C982 H966 0.931 . S
C982 C976 1.383 . S
C982 C981 1.379 . S
H983 C977 0.959 . S
H984 C977 0.961 . S
H985 C977 0.960 . S
H986 C978 0.930 . S
H987 C979 0.929 . S
H988 C996 0.929 . S
H989 C998 0.930 . S
H990 C1000 0.930 . S
H991 C1003 0.929 . S
H992 C1006 0.930 . S
H993 C1008 0.960 . S
H994 C1008 0.960 . S
H995 C1008 0.960 . S
C996 H988 0.929 . S
C996 C997 1.377 . S
C996 C998 1.384 . S
C997 C996 1.377 . S
C997 C1003 1.390 . S
C998 H989 0.930 . S
C998 C996 1.384 . S
C998 C999 1.372 . S
C999 C998 1.372 . S
C999 C1000 1.400 . S
C999 C1004 1.490 . S
C1000 H990 0.930 . S
C1000 C999 1.400 . S
C1000 C1003 1.386 . S
H1001 C1017 0.930 . S
H1002 C1018 0.931 . S
C1003 H991 0.929 . S
C1003 C997 1.390 . S
C1003 C1000 1.386 . S
C1004 C999 1.490 . S
C1004 C1006 1.395 . S
C1004 C1007 1.403 . S
H1005 C1011 0.930 . S
C1006 H992 0.930 . S
C1006 C1004 1.395 . S
C1006 C1009 1.403 . S
C1007 C1004 1.403 . S
C1007 C1008 1.524 . S
C1007 C1011 1.400 . S
C1008 H993 0.960 . S
C1008 H994 0.960 . S
C1008 H995 0.960 . S
C1008 C1007 1.524 . S
C1009 C1006 1.403 . S
C1009 C1010 1.392 . S
C1009 C1013 1.495 . S
C1010 C1009 1.392 . S
C1010 C1011 1.385 . S
C1010 C1012 1.478 . S
C1011 H1005 0.930 . S
C1011 C1007 1.400 . S
C1011 C1010 1.385 . S
C1012 C1010 1.478 . S
C1012 C1014 1.381 . S
C1012 C1018 1.383 . S
C1013 C1009 1.495 . S
C1013 H1019 0.959 . S
C1013 H1020 0.961 . S
C1013 H1021 0.960 . S
C1014 C1012 1.381 . S
C1014 C1015 1.394 . S
C1014 H1022 0.930 . S
C1015 C1014 1.394 . S
C1015 C1016 1.383 . S
C1015 H1023 0.929 . S
C1016 C1015 1.383 . S
C1016 C1017 1.377 . S
C1017 H1001 0.930 . S
C1017 C1016 1.377 . S
C1017 C1018 1.379 . S
C1018 H1002 0.931 . S
C1018 C1012 1.383 . S
C1018 C1017 1.379 . S
H1019 C1013 0.959 . S
H1020 C1013 0.961 . S
H1021 C1013 0.960 . S
H1022 C1014 0.930 . S
H1023 C1015 0.929 . S
H1024 C1032 0.929 . S
H1025 C1034 0.930 . S
H1026 C1036 0.930 . S
H1027 C1039 0.929 . S
H1028 C1042 0.930 . S
H1029 C1044 0.960 . S
H1030 C1044 0.960 . S
H1031 C1044 0.960 . S
C1032 H1024 0.929 . S
C1032 C1033 1.377 . S
C1032 C1034 1.384 . S
C1033 C1032 1.377 . S
C1033 C1039 1.390 . S
C1034 H1025 0.930 . S
C1034 C1032 1.384 . S
C1034 C1035 1.372 . S
C1035 C1034 1.372 . S
C1035 C1036 1.400 . S
C1035 C1040 1.490 . S
C1036 H1026 0.930 . S
C1036 C1035 1.400 . S
C1036 C1039 1.386 . S
H1037 C1053 0.930 . S
H1038 C1054 0.931 . S
C1039 H1027 0.929 . S
C1039 C1033 1.390 . S
C1039 C1036 1.386 . S
C1040 C1035 1.490 . S
C1040 C1042 1.395 . S
C1040 C1043 1.403 . S
H1041 C1047 0.930 . S
C1042 H1028 0.930 . S
C1042 C1040 1.395 . S
C1042 C1045 1.403 . S
C1043 C1040 1.403 . S
C1043 C1044 1.524 . S
C1043 C1047 1.400 . S
C1044 H1029 0.960 . S
C1044 H1030 0.960 . S
C1044 H1031 0.960 . S
C1044 C1043 1.524 . S
C1045 C1042 1.403 . S
C1045 C1046 1.392 . S
C1045 C1049 1.495 . S
C1046 C1045 1.392 . S
C1046 C1047 1.385 . S
C1046 C1048 1.478 . S
C1047 H1041 0.930 . S
C1047 C1043 1.400 . S
C1047 C1046 1.385 . S
C1048 C1046 1.478 . S
C1048 C1050 1.381 . S
C1048 C1054 1.383 . S
C1049 C1045 1.495 . S
C1049 H1055 0.959 . S
C1049 H1056 0.961 . S
C1049 H1057 0.960 . S
C1050 C1048 1.381 . S
C1050 C1051 1.394 . S
C1050 H1058 0.930 . S
C1051 C1050 1.394 . S
C1051 C1052 1.383 . S
C1051 H1059 0.929 . S
C1052 C1051 1.383 . S
C1052 C1053 1.377 . S
C1053 H1037 0.930 . S
C1053 C1052 1.377 . S
C1053 C1054 1.379 . S
C1054 H1038 0.931 . S
C1054 C1048 1.383 . S
C1054 C1053 1.379 . S
H1055 C1049 0.959 . S
H1056 C1049 0.961 . S
H1057 C1049 0.960 . S
H1058 C1050 0.930 . S
H1059 C1051 0.929 . S
H1060 C1068 0.929 . S
H1061 C1070 0.930 . S
H1062 C1072 0.930 . S
H1063 C1075 0.929 . S
H1064 C1078 0.930 . S
H1065 C1080 0.960 . S
H1066 C1080 0.960 . S
H1067 C1080 0.960 . S
C1068 H1060 0.929 . S
C1068 C1069 1.377 . S
C1068 C1070 1.384 . S
C1069 C1068 1.377 . S
C1069 C1075 1.390 . S
C1070 H1061 0.930 . S
C1070 C1068 1.384 . S
C1070 C1071 1.372 . S
C1071 C1070 1.372 . S
C1071 C1072 1.400 . S
C1071 C1076 1.490 . S
C1072 H1062 0.930 . S
C1072 C1071 1.400 . S
C1072 C1075 1.386 . S
H1073 C1089 0.930 . S
H1074 C1090 0.931 . S
C1075 H1063 0.929 . S
C1075 C1069 1.390 . S
C1075 C1072 1.386 . S
C1076 C1071 1.490 . S
C1076 C1078 1.395 . S
C1076 C1079 1.403 . S
H1077 C1083 0.930 . S
C1078 H1064 0.930 . S
C1078 C1076 1.395 . S
C1078 C1081 1.403 . S
C1079 C1076 1.403 . S
C1079 C1080 1.524 . S
C1079 C1083 1.400 . S
C1080 H1065 0.960 . S
C1080 H1066 0.960 . S
C1080 H1067 0.960 . S
C1080 C1079 1.524 . S
C1081 C1078 1.403 . S
C1081 C1082 1.392 . S
C1081 C1085 1.495 . S
C1082 C1081 1.392 . S
C1082 C1083 1.385 . S
C1082 C1084 1.478 . S
C1083 H1077 0.930 . S
C1083 C1079 1.400 . S
C1083 C1082 1.385 . S
C1084 C1082 1.478 . S
C1084 C1086 1.381 1_655 S
C1084 C1090 1.383 . S
C1085 C1081 1.495 . S
C1085 H1091 0.959 . S
C1085 H1092 0.961 . S
C1085 H1093 0.968 . S
C1086 C1084 1.381 1_455 S
C1086 C1087 1.394 . S
C1086 H1094 0.930 . S
C1087 C1086 1.394 . S
C1087 C1088 1.383 . S
C1087 H1095 0.929 . S
C1088 C1087 1.383 . S
C1088 C1089 1.377 . S
C1089 H1073 0.930 . S
C1089 C1088 1.377 . S
C1089 C1090 1.379 1_455 S
C1090 H1074 0.931 . S
C1090 C1084 1.383 . S
C1090 C1089 1.379 1_655 S
H1091 C1085 0.959 . S
H1092 C1085 0.961 . S
H1093 C1085 0.968 . S
H1094 C1086 0.930 . S
H1095 C1087 0.929 . S
H1096 C1104 0.929 . S
H1097 C1106 0.930 . S
H1098 C1108 0.930 . S
H1099 C1111 0.929 . S
H1100 C1114 0.930 . S
H1101 C1116 0.960 . S
H1102 C1116 0.960 . S
H1103 C1116 0.960 . S
C1104 H1096 0.929 . S
C1104 C1105 1.377 . S
C1104 C1106 1.384 . S
C1105 C1104 1.377 . S
C1105 C1111 1.390 . S
C1106 H1097 0.930 . S
C1106 C1104 1.384 . S
C1106 C1107 1.372 . S
C1107 C1106 1.372 . S
C1107 C1108 1.400 . S
C1107 C1112 1.490 . S
C1108 H1098 0.930 . S
C1108 C1107 1.400 . S
C1108 C1111 1.386 . S
H1109 C1125 0.930 . S
H1110 C1126 0.931 . S
C1111 H1099 0.929 . S
C1111 C1105 1.390 . S
C1111 C1108 1.386 . S
C1112 C1107 1.490 . S
C1112 C1114 1.395 . S
C1112 C1115 1.403 . S
H1113 C1119 0.930 . S
C1114 H1100 0.930 . S
C1114 C1112 1.395 . S
C1114 C1117 1.403 . S
C1115 C1112 1.403 . S
C1115 C1116 1.524 . S
C1115 C1119 1.400 . S
C1116 H1101 0.960 . S
C1116 H1102 0.960 . S
C1116 H1103 0.960 . S
C1116 C1115 1.524 . S
C1117 C1114 1.403 . S
C1117 C1118 1.392 . S
C1117 C1121 1.495 . S
C1118 C1117 1.392 . S
C1118 C1119 1.385 . S
C1118 C1120 1.478 . S
C1119 H1113 0.930 . S
C1119 C1115 1.400 . S
C1119 C1118 1.385 . S
C1120 C1118 1.478 . S
C1120 C1122 1.381 . S
C1120 C1126 1.383 . S
C1121 C1117 1.495 . S
C1121 H1127 0.959 . S
C1121 H1128 0.961 . S
C1121 H1129 0.960 . S
C1122 C1120 1.381 . S
C1122 C1123 1.394 . S
C1122 H1130 0.930 . S
C1123 C1122 1.394 . S
C1123 C1124 1.383 . S
C1123 H1131 0.929 . S
C1124 C1123 1.383 . S
C1124 C1125 1.377 . S
C1125 H1109 0.930 . S
C1125 C1124 1.377 . S
C1125 C1126 1.379 . S
C1126 H1110 0.931 . S
C1126 C1120 1.383 . S
C1126 C1125 1.379 . S
H1127 C1121 0.959 . S
H1128 C1121 0.961 . S
H1129 C1121 0.960 . S
H1130 C1122 0.930 . S
H1131 C1123 0.929 . S
H1132 C1140 0.929 . S
H1133 C1142 0.930 . S
H1134 C1144 0.930 . S
H1135 C1147 0.929 . S
H1136 C1150 0.930 . S
H1137 C1152 0.960 . S
H1138 C1152 0.960 . S
H1139 C1152 0.960 . S
C1140 H1132 0.929 . S
C1140 C1141 1.377 . S
C1140 C1142 1.384 . S
C1141 C1140 1.377 . S
C1141 C1147 1.390 . S
C1142 H1133 0.930 . S
C1142 C1140 1.384 . S
C1142 C1143 1.372 . S
C1143 C1142 1.372 . S
C1143 C1144 1.400 . S
C1143 C1148 1.490 . S
C1144 H1134 0.930 . S
C1144 C1143 1.400 . S
C1144 C1147 1.386 . S
H1145 C1161 0.930 . S
H1146 C1162 0.931 . S
C1147 H1135 0.929 . S
C1147 C1141 1.390 . S
C1147 C1144 1.386 . S
C1148 C1143 1.490 . S
C1148 C1150 1.395 . S
C1148 C1151 1.403 . S
H1149 C1155 0.930 . S
C1150 H1136 0.930 . S
C1150 C1148 1.395 . S
C1150 C1153 1.403 . S
C1151 C1148 1.403 . S
C1151 C1152 1.524 . S
C1151 C1155 1.400 . S
C1152 H1137 0.960 . S
C1152 H1138 0.960 . S
C1152 H1139 0.960 . S
C1152 C1151 1.524 . S
C1153 C1150 1.403 . S
C1153 C1154 1.392 . S
C1153 C1157 1.495 . S
C1154 C1153 1.392 . S
C1154 C1155 1.385 . S
C1154 C1156 1.478 . S
C1155 H1149 0.930 . S
C1155 C1151 1.400 . S
C1155 C1154 1.385 . S
C1156 C1154 1.478 . S
C1156 C1158 1.381 . S
C1156 C1162 1.383 . S
C1157 C1153 1.495 . S
C1157 H1163 0.959 . S
C1157 H1164 0.961 . S
C1157 H1165 0.960 . S
C1158 C1156 1.381 . S
C1158 C1159 1.394 . S
C1158 H1166 0.930 . S
C1159 C1158 1.394 . S
C1159 C1160 1.383 . S
C1159 H1167 0.929 . S
C1160 C1159 1.383 . S
C1160 C1161 1.377 . S
C1161 H1145 0.930 . S
C1161 C1160 1.377 . S
C1161 C1162 1.379 . S
C1162 H1146 0.931 . S
C1162 C1156 1.383 . S
C1162 C1161 1.379 . S
H1163 C1157 0.959 . S
H1164 C1157 0.961 . S
H1165 C1157 0.960 . S
H1166 C1158 0.930 . S
H1167 C1159 0.929 . S
H1168 C1176 0.929 . S
H1169 C1178 0.930 . S
H1170 C1180 0.930 . S
H1171 C1183 0.929 . S
H1172 C1186 0.930 . S
H1173 C1188 0.960 . S
H1174 C1188 0.960 . S
H1175 C1188 0.960 . S
C1176 H1168 0.929 . S
C1176 C1177 1.377 . S
C1176 C1178 1.384 . S
C1177 C1176 1.377 . S
C1177 C1183 1.390 . S
C1178 H1169 0.930 . S
C1178 C1176 1.384 . S
C1178 C1179 1.372 . S
C1179 C1178 1.372 . S
C1179 C1180 1.400 . S
C1179 C1184 1.490 . S
C1180 H1170 0.930 . S
C1180 C1179 1.400 . S
C1180 C1183 1.386 . S
H1181 C1197 0.930 . S
H1182 C1198 0.931 . S
C1183 H1171 0.929 . S
C1183 C1177 1.390 . S
C1183 C1180 1.386 . S
C1184 C1179 1.490 . S
C1184 C1186 1.395 . S
C1184 C1187 1.403 . S
H1185 C1191 0.930 . S
C1186 H1172 0.930 . S
C1186 C1184 1.395 . S
C1186 C1189 1.403 . S
C1187 C1184 1.403 . S
C1187 C1188 1.524 . S
C1187 C1191 1.400 . S
C1188 H1173 0.960 . S
C1188 H1174 0.960 . S
C1188 H1175 0.960 . S
C1188 C1187 1.524 . S
C1189 C1186 1.403 . S
C1189 C1190 1.392 . S
C1189 C1193 1.495 . S
C1190 C1189 1.392 . S
C1190 C1191 1.385 . S
C1190 C1192 1.478 . S
C1191 H1185 0.930 . S
C1191 C1187 1.400 . S
C1191 C1190 1.385 . S
C1192 C1190 1.478 . S
C1192 C1194 1.381 . S
C1192 C1198 1.383 . S
C1193 C1189 1.495 . S
C1193 H1199 0.959 . S
C1193 H1200 0.961 . S
C1193 H1201 0.960 . S
C1194 C1192 1.381 . S
C1194 C1195 1.394 . S
C1194 H1202 0.930 . S
C1195 C1194 1.394 . S
C1195 C1196 1.383 . S
C1195 H1203 0.929 . S
C1196 C1195 1.383 . S
C1196 C1197 1.377 . S
C1197 H1181 0.930 . S
C1197 C1196 1.377 . S
C1197 C1198 1.379 . S
C1198 H1182 0.931 . S
C1198 C1192 1.383 . S
C1198 C1197 1.379 . S
H1199 C1193 0.959 . S
H1200 C1193 0.961 . S
H1201 C1193 0.960 . S
H1202 C1194 0.930 . S
H1203 C1195 0.929 . S
H1204 C1212 0.929 . S
H1205 C1214 0.930 . S
H1206 C1216 0.930 . S
H1207 C1219 0.929 . S
H1208 C1222 0.930 . S
H1209 C1224 0.960 . S
H1210 C1224 0.960 . S
H1211 C1224 0.960 . S
C1212 H1204 0.929 . S
C1212 C1213 1.377 . S
C1212 C1214 1.384 . S
C1213 C1212 1.377 . S
C1213 C1219 1.390 . S
C1214 H1205 0.930 . S
C1214 C1212 1.384 . S
C1214 C1215 1.372 . S
C1215 C1214 1.372 . S
C1215 C1216 1.400 . S
C1215 C1220 1.490 . S
C1216 H1206 0.930 . S
C1216 C1215 1.400 . S
C1216 C1219 1.386 . S
H1217 C1233 0.930 . S
H1218 C1234 0.931 . S
C1219 H1207 0.929 . S
C1219 C1213 1.390 . S
C1219 C1216 1.386 . S
C1220 C1215 1.490 . S
C1220 C1222 1.395 . S
C1220 C1223 1.403 . S
H1221 C1227 0.930 . S
C1222 H1208 0.930 . S
C1222 C1220 1.395 . S
C1222 C1225 1.403 . S
C1223 C1220 1.403 . S
C1223 C1224 1.524 . S
C1223 C1227 1.400 . S
C1224 H1209 0.960 . S
C1224 H1210 0.960 . S
C1224 H1211 0.960 . S
C1224 C1223 1.524 . S
C1225 C1222 1.403 . S
C1225 C1226 1.392 . S
C1225 C1229 1.495 . S
C1226 C1225 1.392 . S
C1226 C1227 1.385 . S
C1226 C1228 1.478 . S
C1227 H1221 0.930 . S
C1227 C1223 1.400 . S
C1227 C1226 1.385 . S
C1228 C1226 1.478 . S
C1228 C1230 1.381 . S
C1228 C1234 1.383 . S
C1229 C1225 1.495 . S
C1229 H1235 0.959 . S
C1229 H1236 0.961 . S
C1229 H1237 0.960 . S
C1230 C1228 1.381 . S
C1230 C1231 1.394 . S
C1230 H1238 0.930 . S
C1231 C1230 1.394 . S
C1231 C1232 1.383 . S
C1231 H1239 0.929 . S
C1232 C1231 1.383 . S
C1232 C1233 1.377 . S
C1233 H1217 0.930 . S
C1233 C1232 1.377 . S
C1233 C1234 1.379 . S
C1234 H1218 0.931 . S
C1234 C1228 1.383 . S
C1234 C1233 1.379 . S
H1235 C1229 0.959 . S
H1236 C1229 0.961 . S
H1237 C1229 0.960 . S
H1238 C1230 0.930 . S
H1239 C1231 0.929 . S
H1240 C1248 0.929 . S
H1241 C1250 0.930 . S
H1242 C1252 0.930 . S
H1243 C1255 0.929 . S
H1244 C1258 0.930 . S
H1245 C1260 0.960 . S
H1246 C1260 0.960 . S
H1247 C1260 0.960 . S
C1248 H1240 0.929 . S
C1248 C1249 1.377 . S
C1248 C1250 1.384 . S
C1249 C1248 1.377 . S
C1249 C1255 1.390 . S
C1250 H1241 0.930 . S
C1250 C1248 1.384 . S
C1250 C1251 1.372 . S
C1251 C1250 1.372 . S
C1251 C1252 1.400 . S
C1251 C1256 1.490 . S
C1252 H1242 0.930 . S
C1252 C1251 1.400 . S
C1252 C1255 1.386 . S
H1253 C1269 0.930 . S
H1254 C1270 0.931 . S
C1255 H1243 0.929 . S
C1255 C1249 1.390 . S
C1255 C1252 1.386 . S
C1256 C1251 1.490 . S
C1256 C1258 1.395 . S
C1256 C1259 1.403 . S
H1257 C1263 0.930 . S
C1258 H1244 0.930 . S
C1258 C1256 1.395 . S
C1258 C1261 1.403 . S
C1259 C1256 1.403 . S
C1259 C1260 1.524 . S
C1259 C1263 1.400 . S
C1260 H1245 0.960 . S
C1260 H1246 0.960 . S
C1260 H1247 0.960 . S
C1260 C1259 1.524 . S
C1261 C1258 1.403 . S
C1261 C1262 1.392 . S
C1261 C1265 1.495 . S
C1262 C1261 1.392 . S
C1262 C1263 1.385 . S
C1262 C1264 1.478 . S
C1263 H1257 0.930 . S
C1263 C1259 1.400 . S
C1263 C1262 1.385 . S
C1264 C1262 1.478 . S
C1264 C1266 1.381 . S
C1264 C1270 1.383 . S
C1265 C1261 1.495 . S
C1265 H1271 0.959 . S
C1265 H1272 0.961 . S
C1265 H1273 0.960 . S
C1266 C1264 1.381 . S
C1266 C1267 1.394 . S
C1266 H1274 0.930 . S
C1267 C1266 1.394 . S
C1267 C1268 1.383 . S
C1267 H1275 0.929 . S
C1268 C1267 1.383 . S
C1268 C1269 1.377 . S
C1269 H1253 0.930 . S
C1269 C1268 1.377 . S
C1269 C1270 1.379 . S
C1270 H1254 0.931 . S
C1270 C1264 1.383 . S
C1270 C1269 1.379 . S
H1271 C1265 0.959 . S
H1272 C1265 0.961 . S
H1273 C1265 0.960 . S
H1274 C1266 0.930 . S
H1275 C1267 0.929 . S
H1276 C1284 0.929 . S
H1277 C1286 0.930 1_655 S
H1278 C1288 0.930 . S
H1279 C1291 0.929 . S
H1280 C1294 0.930 . S
H1281 C1296 0.960 . S
H1282 C1296 0.960 . S
H1283 C1296 0.960 . S
C1284 H1276 0.929 . S
C1284 C1285 1.377 . S
C1284 C1286 1.384 . S
C1285 C1284 1.377 . S
C1285 C1291 1.390 . S
C1286 H1277 0.930 1_455 S
C1286 C1284 1.384 . S
C1286 C1287 1.372 1_455 S
C1287 C1286 1.372 1_655 S
C1287 C1288 1.400 . S
C1287 C1292 1.490 . S
C1288 H1278 0.930 . S
C1288 C1287 1.400 . S
C1288 C1291 1.386 1_655 S
H1289 C1305 0.930 . S
H1290 C1306 0.931 . S
C1291 H1279 0.929 . S
C1291 C1285 1.390 . S
C1291 C1288 1.386 1_455 S
C1292 C1287 1.490 . S
C1292 C1294 1.395 . S
C1292 C1295 1.403 . S
H1293 C1299 0.930 . S
C1294 H1280 0.930 . S
C1294 C1292 1.395 . S
C1294 C1297 1.403 . S
C1295 C1292 1.403 . S
C1295 C1296 1.524 . S
C1295 C1299 1.400 . S
C1296 H1281 0.960 . S
C1296 H1282 0.960 . S
C1296 H1283 0.960 . S
C1296 C1295 1.524 . S
C1297 C1294 1.403 . S
C1297 C1298 1.392 . S
C1297 C1301 1.495 . S
C1298 C1297 1.392 . S
C1298 C1299 1.385 . S
C1298 C1300 1.478 . S
C1299 H1293 0.930 . S
C1299 C1295 1.400 . S
C1299 C1298 1.385 . S
C1300 C1298 1.478 . S
C1300 C1302 1.381 . S
C1300 C1306 1.383 . S
C1301 C1297 1.495 . S
C1301 H1307 0.959 . S
C1301 H1308 0.961 . S
C1301 H1309 0.960 . S
C1302 C1300 1.381 . S
C1302 C1303 1.394 . S
C1302 H1310 0.930 . S
C1303 C1302 1.394 . S
C1303 C1304 1.383 . S
C1303 H1311 0.929 . S
C1304 C1303 1.383 . S
C1304 C1305 1.377 . S
C1305 H1289 0.930 . S
C1305 C1304 1.377 . S
C1305 C1306 1.379 . S
C1306 H1290 0.931 . S
C1306 C1300 1.383 . S
C1306 C1305 1.379 . S
H1307 C1301 0.959 . S
H1308 C1301 0.961 . S
H1309 C1301 0.960 . S
H1310 C1302 0.930 . S
H1311 C1303 0.929 . S
H1312 C1320 0.929 . S
H1313 C1322 0.930 . S
H1314 C1324 0.930 . S
H1315 C1327 0.929 . S
H1316 C1330 0.930 . S
H1317 C1332 0.960 . S
H1318 C1332 0.960 . S
H1319 C1332 0.960 . S
C1320 H1312 0.929 . S
C1320 C1321 1.377 . S
C1320 C1322 1.384 . S
C1321 C1320 1.377 . S
C1321 C1327 1.390 . S
C1322 H1313 0.930 . S
C1322 C1320 1.384 . S
C1322 C1323 1.372 . S
C1323 C1322 1.372 . S
C1323 C1324 1.400 . S
C1323 C1328 1.490 . S
C1324 H1314 0.930 . S
C1324 C1323 1.400 . S
C1324 C1327 1.386 . S
H1325 C1341 0.930 . S
H1326 C1342 0.931 . S
C1327 H1315 0.929 . S
C1327 C1321 1.390 . S
C1327 C1324 1.386 . S
C1328 C1323 1.490 . S
C1328 C1330 1.395 . S
C1328 C1331 1.403 . S
H1329 C1335 0.930 . S
C1330 H1316 0.930 . S
C1330 C1328 1.395 . S
C1330 C1333 1.403 . S
C1331 C1328 1.403 . S
C1331 C1332 1.524 . S
C1331 C1335 1.400 . S
C1332 H1317 0.960 . S
C1332 H1318 0.960 . S
C1332 H1319 0.960 . S
C1332 C1331 1.524 . S
C1333 C1330 1.403 . S
C1333 C1334 1.392 . S
C1333 C1337 1.495 . S
C1334 C1333 1.392 . S
C1334 C1335 1.385 . S
C1334 C1336 1.478 . S
C1335 H1329 0.930 . S
C1335 C1331 1.400 . S
C1335 C1334 1.385 . S
C1336 C1334 1.478 . S
C1336 C1338 1.381 . S
C1336 C1342 1.383 . S
C1337 C1333 1.495 . S
C1337 H1343 0.959 . S
C1337 H1344 0.961 . S
C1337 H1345 0.960 . S
C1338 C1336 1.381 . S
C1338 C1339 1.394 . S
C1338 H1346 0.930 . S
C1339 C1338 1.394 . S
C1339 C1340 1.383 . S
C1339 H1347 0.929 . S
C1340 C1339 1.383 . S
C1340 C1341 1.377 . S
C1341 H1325 0.930 . S
C1341 C1340 1.377 . S
C1341 C1342 1.379 . S
C1342 H1326 0.931 . S
C1342 C1336 1.383 . S
C1342 C1341 1.379 . S
H1343 C1337 0.959 . S
H1344 C1337 0.961 . S
H1345 C1337 0.960 . S
H1346 C1338 0.930 . S
H1347 C1339 0.929 . S
H1348 C1356 0.929 . S
H1349 C1358 0.935 . S
H1350 C1360 0.930 . S
H1351 C1363 0.929 . S
H1352 C1366 0.930 . S
H1353 C1368 0.960 . S
H1354 C1368 0.960 . S
H1355 C1368 0.960 . S
C1356 H1348 0.929 . S
C1356 C1357 1.377 . S
C1356 C1358 1.384 . S
C1357 C1356 1.377 . S
C1357 C1363 1.390 . S
C1358 H1349 0.935 . S
C1358 C1356 1.384 . S
C1358 C1359 1.372 1_655 S
C1359 C1358 1.372 1_455 S
C1359 C1360 1.400 . S
C1359 C1364 1.490 . S
C1360 H1350 0.930 . S
C1360 C1359 1.400 . S
C1360 C1363 1.386 1_455 S
H1361 C1377 0.930 . S
H1362 C1378 0.931 . S
C1363 H1351 0.929 . S
C1363 C1357 1.390 . S
C1363 C1360 1.386 1_655 S
C1364 C1359 1.490 . S
C1364 C1366 1.395 . S
C1364 C1367 1.403 . S
H1365 C1371 0.930 . S
C1366 H1352 0.930 . S
C1366 C1364 1.395 . S
C1366 C1369 1.403 . S
C1367 C1364 1.403 . S
C1367 C1368 1.524 . S
C1367 C1371 1.400 . S
C1368 H1353 0.960 . S
C1368 H1354 0.960 . S
C1368 H1355 0.960 . S
C1368 C1367 1.524 . S
C1369 C1366 1.403 . S
C1369 C1370 1.392 . S
C1369 C1373 1.495 . S
C1370 C1369 1.392 . S
C1370 C1371 1.385 . S
C1370 C1372 1.478 . S
C1371 H1365 0.930 . S
C1371 C1367 1.400 . S
C1371 C1370 1.385 . S
C1372 C1370 1.478 . S
C1372 C1374 1.381 . S
C1372 C1378 1.383 . S
C1373 C1369 1.495 . S
C1373 H1379 0.959 . S
C1373 H1380 0.961 . S
C1373 H1381 0.960 . S
C1374 C1372 1.381 . S
C1374 C1375 1.394 . S
C1374 H1382 0.930 . S
C1375 C1374 1.394 . S
C1375 C1376 1.383 . S
C1375 H1383 0.929 . S
C1376 C1375 1.383 . S
C1376 C1377 1.377 . S
C1377 H1361 0.930 . S
C1377 C1376 1.377 . S
C1377 C1378 1.379 . S
C1378 H1362 0.931 . S
C1378 C1372 1.383 . S
C1378 C1377 1.379 . S
H1379 C1373 0.959 . S
H1380 C1373 0.961 . S
H1381 C1373 0.960 . S
H1382 C1374 0.930 . S
H1383 C1375 0.929 . S
H1384 C1392 0.929 . S
H1385 C1394 0.930 . S
H1386 C1396 0.930 . S
H1387 C1399 0.929 . S
H1388 C1402 0.930 . S
H1389 C1404 0.960 . S
H1390 C1404 0.960 . S
H1391 C1404 0.960 . S
C1392 H1384 0.929 . S
C1392 C1393 1.377 . S
C1392 C1394 1.384 . S
C1393 C1392 1.377 . S
C1393 C1399 1.390 . S
C1394 H1385 0.930 . S
C1394 C1392 1.384 . S
C1394 C1395 1.372 . S
C1395 C1394 1.372 . S
C1395 C1396 1.400 . S
C1395 C1400 1.490 . S
C1396 H1386 0.930 . S
C1396 C1395 1.400 . S
C1396 C1399 1.386 . S
H1397 C1413 0.930 . S
H1398 C1414 0.931 . S
C1399 H1387 0.929 . S
C1399 C1393 1.390 . S
C1399 C1396 1.386 . S
C1400 C1395 1.490 . S
C1400 C1402 1.395 . S
C1400 C1403 1.403 . S
H1401 C1407 0.930 . S
C1402 H1388 0.930 . S
C1402 C1400 1.395 . S
C1402 C1405 1.403 . S
C1403 C1400 1.403 . S
C1403 C1404 1.524 . S
C1403 C1407 1.400 . S
C1404 H1389 0.960 . S
C1404 H1390 0.960 . S
C1404 H1391 0.960 . S
C1404 C1403 1.524 . S
C1405 C1402 1.403 . S
C1405 C1406 1.392 . S
C1405 C1409 1.495 . S
C1406 C1405 1.392 . S
C1406 C1407 1.385 . S
C1406 C1408 1.478 . S
C1407 H1401 0.930 . S
C1407 C1403 1.400 . S
C1407 C1406 1.385 . S
C1408 C1406 1.478 . S
C1408 C1410 1.381 . S
C1408 C1414 1.383 . S
C1409 C1405 1.495 . S
C1409 H1415 0.959 . S
C1409 H1416 0.961 . S
C1409 H1417 0.960 . S
C1410 C1408 1.381 . S
C1410 C1411 1.394 . S
C1410 H1418 0.930 . S
C1411 C1410 1.394 . S
C1411 C1412 1.383 . S
C1411 H1419 0.929 . S
C1412 C1411 1.383 . S
C1412 C1413 1.377 . S
C1413 H1397 0.930 . S
C1413 C1412 1.377 . S
C1413 C1414 1.379 . S
C1414 H1398 0.931 . S
C1414 C1408 1.383 . S
C1414 C1413 1.379 . S
H1415 C1409 0.959 . S
H1416 C1409 0.961 . S
H1417 C1409 0.960 . S
H1418 C1410 0.930 . S
H1419 C1411 0.929 . S
H1420 C1428 0.929 . S
H1421 C1430 0.930 . S
H1422 C1432 0.930 . S
H1423 C1435 0.929 . S
H1424 C1438 0.930 . S
H1425 C1440 0.960 . S
H1426 C1440 0.960 . S
H1427 C1440 0.960 . S
C1428 H1420 0.929 . S
C1428 C1429 1.377 . S
C1428 C1430 1.384 . S
C1429 C1428 1.377 . S
C1429 C1435 1.390 . S
C1430 H1421 0.930 . S
C1430 C1428 1.384 . S
C1430 C1431 1.372 . S
C1431 C1430 1.372 . S
C1431 C1432 1.400 . S
C1431 C1436 1.490 . S
C1432 H1422 0.930 . S
C1432 C1431 1.400 . S
C1432 C1435 1.386 . S
H1433 C1449 0.930 . S
H1434 C1450 0.931 . S
C1435 H1423 0.929 . S
C1435 C1429 1.390 . S
C1435 C1432 1.386 . S
C1436 C1431 1.490 . S
C1436 C1438 1.395 . S
C1436 C1439 1.403 . S
H1437 C1443 0.930 . S
C1438 H1424 0.930 . S
C1438 C1436 1.395 . S
C1438 C1441 1.403 . S
C1439 C1436 1.403 . S
C1439 C1440 1.524 . S
C1439 C1443 1.400 . S
C1440 H1425 0.960 . S
C1440 H1426 0.960 . S
C1440 H1427 0.960 . S
C1440 C1439 1.524 . S
C1441 C1438 1.403 . S
C1441 C1442 1.392 . S
C1441 C1445 1.495 . S
C1442 C1441 1.392 . S
C1442 C1443 1.385 . S
C1442 C1444 1.478 . S
C1443 H1437 0.930 . S
C1443 C1439 1.400 . S
C1443 C1442 1.385 . S
C1444 C1442 1.478 . S
C1444 C1446 1.381 . S
C1444 C1450 1.383 . S
C1445 C1441 1.495 . S
C1445 H1451 0.959 . S
C1445 H1452 0.961 . S
C1445 H1453 0.960 . S
C1446 C1444 1.381 . S
C1446 C1447 1.394 . S
C1446 H1454 0.930 . S
C1447 C1446 1.394 . S
C1447 C1448 1.383 . S
C1447 H1455 0.929 . S
C1448 C1447 1.383 . S
C1448 C1449 1.377 . S
C1449 H1433 0.930 . S
C1449 C1448 1.377 . S
C1449 C1450 1.379 . S
C1450 H1434 0.931 . S
C1450 C1444 1.383 . S
C1450 C1449 1.379 . S
H1451 C1445 0.959 . S
H1452 C1445 0.961 . S
H1453 C1445 0.960 . S
H1454 C1446 0.930 . S
H1455 C1447 0.929 . S
H1456 C1464 0.929 . S
H1457 C1466 0.930 . S
H1458 C1468 0.930 . S
H1459 C1471 0.929 . S
H1460 C1474 0.930 . S
H1461 C1476 0.960 . S
H1462 C1476 0.960 . S
H1463 C1476 0.960 . S
C1464 H1456 0.929 . S
C1464 C1465 1.377 . S
C1464 C1466 1.384 . S
C1465 C1464 1.377 . S
C1465 C1471 1.390 . S
C1466 H1457 0.930 . S
C1466 C1464 1.384 . S
C1466 C1467 1.372 . S
C1467 C1466 1.372 . S
C1467 C1468 1.400 . S
C1467 C1472 1.490 . S
C1468 H1458 0.930 . S
C1468 C1467 1.400 . S
C1468 C1471 1.386 . S
H1469 C1485 0.930 . S
H1470 C1486 0.931 . S
C1471 H1459 0.929 . S
C1471 C1465 1.390 . S
C1471 C1468 1.386 . S
C1472 C1467 1.490 . S
C1472 C1474 1.395 . S
C1472 C1475 1.403 . S
H1473 C1479 0.930 . S
C1474 H1460 0.930 . S
C1474 C1472 1.395 . S
C1474 C1477 1.403 . S
C1475 C1472 1.403 . S
C1475 C1476 1.524 . S
C1475 C1479 1.400 . S
C1476 H1461 0.960 . S
C1476 H1462 0.960 . S
C1476 H1463 0.960 . S
C1476 C1475 1.524 . S
C1477 C1474 1.403 . S
C1477 C1478 1.392 . S
C1477 C1481 1.495 . S
C1478 C1477 1.392 . S
C1478 C1479 1.385 . S
C1478 C1480 1.478 . S
C1479 H1473 0.930 . S
C1479 C1475 1.400 . S
C1479 C1478 1.385 . S
C1480 C1478 1.478 . S
C1480 C1482 1.381 . S
C1480 C1486 1.383 . S
C1481 C1477 1.495 . S
C1481 H1487 0.959 . S
C1481 H1488 0.961 . S
C1481 H1489 0.960 . S
C1482 C1480 1.381 . S
C1482 C1483 1.394 . S
C1482 H1490 0.930 . S
C1483 C1482 1.394 . S
C1483 C1484 1.383 . S
C1483 H1491 0.929 . S
C1484 C1483 1.383 . S
C1484 C1485 1.377 . S
C1485 H1469 0.930 . S
C1485 C1484 1.377 . S
C1485 C1486 1.379 . S
C1486 H1470 0.931 . S
C1486 C1480 1.383 . S
C1486 C1485 1.379 . S
H1487 C1481 0.959 . S
H1488 C1481 0.961 . S
H1489 C1481 0.960 . S
H1490 C1482 0.930 . S
H1491 C1483 0.929 . S
H1492 C1500 0.929 . S
H1493 C1502 0.930 . S
H1494 C1504 0.930 . S
H1495 C1507 0.929 . S
H1496 C1510 0.930 . S
H1497 C1512 0.960 . S
H1498 C1512 0.960 . S
H1499 C1512 0.960 . S
C1500 H1492 0.929 . S
C1500 C1501 1.377 . S
C1500 C1502 1.384 . S
C1501 C1500 1.377 . S
C1501 C1507 1.390 . S
C1502 H1493 0.930 . S
C1502 C1500 1.384 . S
C1502 C1503 1.372 . S
C1503 C1502 1.372 . S
C1503 C1504 1.400 . S
C1503 C1508 1.490 . S
C1504 H1494 0.930 . S
C1504 C1503 1.400 . S
C1504 C1507 1.386 . S
H1505 C1521 0.930 . S
H1506 C1522 0.931 . S
C1507 H1495 0.929 . S
C1507 C1501 1.390 . S
C1507 C1504 1.386 . S
C1508 C1503 1.490 . S
C1508 C1510 1.395 . S
C1508 C1511 1.403 . S
H1509 C1515 0.930 . S
C1510 H1496 0.930 . S
C1510 C1508 1.395 . S
C1510 C1513 1.403 . S
C1511 C1508 1.403 . S
C1511 C1512 1.524 . S
C1511 C1515 1.400 . S
C1512 H1497 0.960 . S
C1512 H1498 0.960 . S
C1512 H1499 0.960 . S
C1512 C1511 1.524 . S
C1513 C1510 1.403 . S
C1513 C1514 1.392 . S
C1513 C1517 1.495 . S
C1514 C1513 1.392 . S
C1514 C1515 1.385 . S
C1514 C1516 1.478 . S
C1515 H1509 0.930 . S
C1515 C1511 1.400 . S
C1515 C1514 1.385 . S
C1516 C1514 1.478 . S
C1516 C1518 1.381 . S
C1516 C1522 1.383 . S
C1517 C1513 1.495 . S
C1517 H1523 0.959 . S
C1517 H1524 0.961 . S
C1517 H1525 0.960 . S
C1518 C1516 1.381 . S
C1518 C1519 1.394 . S
C1518 H1526 0.930 . S
C1519 C1518 1.394 . S
C1519 C1520 1.383 . S
C1519 H1527 0.929 . S
C1520 C1519 1.383 . S
C1520 C1521 1.377 . S
C1521 H1505 0.930 . S
C1521 C1520 1.377 . S
C1521 C1522 1.379 . S
C1522 H1506 0.931 . S
C1522 C1516 1.383 . S
C1522 C1521 1.379 . S
H1523 C1517 0.959 . S
H1524 C1517 0.961 . S
H1525 C1517 0.960 . S
H1526 C1518 0.930 . S
H1527 C1519 0.929 . S
H1528 C1536 0.929 . S
H1529 C1538 0.930 . S
H1530 C1540 0.930 . S
H1531 C1543 0.929 . S
H1532 C1546 0.930 . S
H1533 C1548 0.960 . S
H1534 C1548 0.960 . S
H1535 C1548 0.960 . S
C1536 H1528 0.929 . S
C1536 C1537 1.377 . S
C1536 C1538 1.384 . S
C1537 C1536 1.377 . S
C1537 C1543 1.390 . S
C1538 H1529 0.930 . S
C1538 C1536 1.384 . S
C1538 C1539 1.372 . S
C1539 C1538 1.372 . S
C1539 C1540 1.400 . S
C1539 C1544 1.490 . S
C1540 H1530 0.930 . S
C1540 C1539 1.400 . S
C1540 C1543 1.386 . S
H1541 C1557 0.930 . S
H1542 C1558 0.931 . S
C1543 H1531 0.929 . S
C1543 C1537 1.390 . S
C1543 C1540 1.386 . S
C1544 C1539 1.490 . S
C1544 C1546 1.395 . S
C1544 C1547 1.403 . S
H1545 C1551 0.930 . S
C1546 H1532 0.930 . S
C1546 C1544 1.395 . S
C1546 C1549 1.403 . S
C1547 C1544 1.403 . S
C1547 C1548 1.524 . S
C1547 C1551 1.400 . S
C1548 H1533 0.960 . S
C1548 H1534 0.960 . S
C1548 H1535 0.960 . S
C1548 C1547 1.524 . S
C1549 C1546 1.403 . S
C1549 C1550 1.392 . S
C1549 C1553 1.495 . S
C1550 C1549 1.392 . S
C1550 C1551 1.385 . S
C1550 C1552 1.478 . S
C1551 H1545 0.930 . S
C1551 C1547 1.400 . S
C1551 C1550 1.385 . S
C1552 C1550 1.478 . S
C1552 C1554 1.381 . S
C1552 C1558 1.383 . S
C1553 C1549 1.495 . S
C1553 H1559 0.959 . S
C1553 H1560 0.961 . S
C1553 H1561 0.960 . S
C1554 C1552 1.381 . S
C1554 C1555 1.394 . S
C1554 H1562 0.930 . S
C1555 C1554 1.394 . S
C1555 C1556 1.383 . S
C1555 H1563 0.929 . S
C1556 C1555 1.383 . S
C1556 C1557 1.377 . S
C1557 H1541 0.930 . S
C1557 C1556 1.377 . S
C1557 C1558 1.379 . S
C1558 H1542 0.931 . S
C1558 C1552 1.383 . S
C1558 C1557 1.379 . S
H1559 C1553 0.959 . S
H1560 C1553 0.961 . S
H1561 C1553 0.960 . S
H1562 C1554 0.930 . S
H1563 C1555 0.929 . S
H1564 C1572 0.929 . S
H1565 C1574 0.930 . S
H1566 C1576 0.930 . S
H1567 C1579 0.929 . S
H1568 C1582 0.930 . S
H1569 C1584 0.960 . S
H1570 C1584 0.960 . S
H1571 C1584 0.960 . S
C1572 H1564 0.929 . S
C1572 C1573 1.377 . S
C1572 C1574 1.384 . S
C1573 C1572 1.377 . S
C1573 C1579 1.390 . S
C1574 H1565 0.930 . S
C1574 C1572 1.384 . S
C1574 C1575 1.372 . S
C1575 C1574 1.372 . S
C1575 C1576 1.400 . S
C1575 C1580 1.490 . S
C1576 H1566 0.930 . S
C1576 C1575 1.400 . S
C1576 C1579 1.386 . S
H1577 C1593 0.930 . S
H1578 C1594 0.931 . S
C1579 H1567 0.929 . S
C1579 C1573 1.390 . S
C1579 C1576 1.386 . S
C1580 C1575 1.490 . S
C1580 C1582 1.395 . S
C1580 C1583 1.403 . S
H1581 C1587 0.930 . S
C1582 H1568 0.930 . S
C1582 C1580 1.395 . S
C1582 C1585 1.403 . S
C1583 C1580 1.403 . S
C1583 C1584 1.524 . S
C1583 C1587 1.400 . S
C1584 H1569 0.960 . S
C1584 H1570 0.960 . S
C1584 H1571 0.960 . S
C1584 C1583 1.524 . S
C1585 C1582 1.403 . S
C1585 C1586 1.392 . S
C1585 C1589 1.495 . S
C1586 C1585 1.392 . S
C1586 C1587 1.385 . S
C1586 C1588 1.478 . S
C1587 H1581 0.930 . S
C1587 C1583 1.400 . S
C1587 C1586 1.385 . S
C1588 C1586 1.478 . S
C1588 C1590 1.381 1_455 S
C1588 C1594 1.383 . S
C1589 C1585 1.495 . S
C1589 H1595 0.959 . S
C1589 H1596 0.961 . S
C1589 H1597 0.971 . S
C1590 C1588 1.381 1_655 S
C1590 C1591 1.394 . S
C1590 H1598 0.930 . S
C1591 C1590 1.394 . S
C1591 C1592 1.383 . S
C1591 H1599 0.929 . S
C1592 C1591 1.383 . S
C1592 C1593 1.377 . S
C1593 H1577 0.930 . S
C1593 C1592 1.377 . S
C1593 C1594 1.379 1_655 S
C1594 H1578 0.931 . S
C1594 C1588 1.383 . S
C1594 C1593 1.379 1_455 S
H1595 C1589 0.959 . S
H1596 C1589 0.961 . S
H1597 C1589 0.971 . S
H1598 C1590 0.930 . S
H1599 C1591 0.929 . S
H1600 C1608 0.929 . S
H1601 C1610 0.930 . S
H1602 C1612 0.930 . S
H1603 C1615 0.929 . S
H1604 C1618 0.930 . S
H1605 C1620 0.960 . S
H1606 C1620 0.960 . S
H1607 C1620 0.960 . S
C1608 H1600 0.929 . S
C1608 C1609 1.377 . S
C1608 C1610 1.384 . S
C1609 C1608 1.377 . S
C1609 C1615 1.390 . S
C1610 H1601 0.930 . S
C1610 C1608 1.384 . S
C1610 C1611 1.372 . S
C1611 C1610 1.372 . S
C1611 C1612 1.400 . S
C1611 C1616 1.490 . S
C1612 H1602 0.930 . S
C1612 C1611 1.400 . S
C1612 C1615 1.386 . S
H1613 C1629 0.930 . S
H1614 C1630 0.931 . S
C1615 H1603 0.929 . S
C1615 C1609 1.390 . S
C1615 C1612 1.386 . S
C1616 C1611 1.490 . S
C1616 C1618 1.395 . S
C1616 C1619 1.403 . S
H1617 C1623 0.930 . S
C1618 H1604 0.930 . S
C1618 C1616 1.395 . S
C1618 C1621 1.403 . S
C1619 C1616 1.403 . S
C1619 C1620 1.524 . S
C1619 C1623 1.400 . S
C1620 H1605 0.960 . S
C1620 H1606 0.960 . S
C1620 H1607 0.960 . S
C1620 C1619 1.524 . S
C1621 C1618 1.403 . S
C1621 C1622 1.392 . S
C1621 C1625 1.495 . S
C1622 C1621 1.392 . S
C1622 C1623 1.385 . S
C1622 C1624 1.478 . S
C1623 H1617 0.930 . S
C1623 C1619 1.400 . S
C1623 C1622 1.385 . S
C1624 C1622 1.478 . S
C1624 C1626 1.381 . S
C1624 C1630 1.383 . S
C1625 C1621 1.495 . S
C1625 H1631 0.959 . S
C1625 H1632 0.961 . S
C1625 H1633 0.960 . S
C1626 C1624 1.381 . S
C1626 C1627 1.394 . S
C1626 H1634 0.930 . S
C1627 C1626 1.394 . S
C1627 C1628 1.383 . S
C1627 H1635 0.929 . S
C1628 C1627 1.383 . S
C1628 C1629 1.377 . S
C1629 H1613 0.930 . S
C1629 C1628 1.377 . S
C1629 C1630 1.379 . S
C1630 H1614 0.931 . S
C1630 C1624 1.383 . S
C1630 C1629 1.379 . S
H1631 C1625 0.959 . S
H1632 C1625 0.961 . S
H1633 C1625 0.960 . S
H1634 C1626 0.930 . S
H1635 C1627 0.929 . S
H1636 C1644 0.929 . S
H1637 C1646 0.930 . S
H1638 C1648 0.930 . S
H1639 C1651 0.929 . S
H1640 C1654 0.930 . S
H1641 C1656 0.960 . S
H1642 C1656 0.960 . S
H1643 C1656 0.960 . S
C1644 H1636 0.929 . S
C1644 C1645 1.377 . S
C1644 C1646 1.384 . S
C1645 C1644 1.377 . S
C1645 C1651 1.390 . S
C1646 H1637 0.930 . S
C1646 C1644 1.384 . S
C1646 C1647 1.372 . S
C1647 C1646 1.372 . S
C1647 C1648 1.400 . S
C1647 C1652 1.490 . S
C1648 H1638 0.930 . S
C1648 C1647 1.400 . S
C1648 C1651 1.386 . S
H1649 C1665 0.930 . S
H1650 C1666 0.931 . S
C1651 H1639 0.929 . S
C1651 C1645 1.390 . S
C1651 C1648 1.386 . S
C1652 C1647 1.490 . S
C1652 C1654 1.395 . S
C1652 C1655 1.403 . S
H1653 C1659 0.930 . S
C1654 H1640 0.930 . S
C1654 C1652 1.395 . S
C1654 C1657 1.403 . S
C1655 C1652 1.403 . S
C1655 C1656 1.524 . S
C1655 C1659 1.400 . S
C1656 H1641 0.960 . S
C1656 H1642 0.960 . S
C1656 H1643 0.960 . S
C1656 C1655 1.524 . S
C1657 C1654 1.403 . S
C1657 C1658 1.392 . S
C1657 C1661 1.495 . S
C1658 C1657 1.392 . S
C1658 C1659 1.385 . S
C1658 C1660 1.478 . S
C1659 H1653 0.930 . S
C1659 C1655 1.400 . S
C1659 C1658 1.385 . S
C1660 C1658 1.478 . S
C1660 C1662 1.381 . S
C1660 C1666 1.383 . S
C1661 C1657 1.495 . S
C1661 H1667 0.959 . S
C1661 H1668 0.961 . S
C1661 H1669 0.960 . S
C1662 C1660 1.381 . S
C1662 C1663 1.394 . S
C1662 H1670 0.930 . S
C1663 C1662 1.394 . S
C1663 C1664 1.383 . S
C1663 H1671 0.929 . S
C1664 C1663 1.383 . S
C1664 C1665 1.377 . S
C1665 H1649 0.930 . S
C1665 C1664 1.377 . S
C1665 C1666 1.379 . S
C1666 H1650 0.931 . S
C1666 C1660 1.383 . S
C1666 C1665 1.379 . S
H1667 C1661 0.959 . S
H1668 C1661 0.961 . S
H1669 C1661 0.960 . S
H1670 C1662 0.930 . S
H1671 C1663 0.929 . S
H1672 C1680 0.929 . S
H1673 C1682 0.930 . S
H1674 C1684 0.930 . S
H1675 C1687 0.929 . S
H1676 C1690 0.930 . S
H1677 C1692 0.960 . S
H1678 C1692 0.960 . S
H1679 C1692 0.960 . S
C1680 H1672 0.929 . S
C1680 C1681 1.377 . S
C1680 C1682 1.384 . S
C1681 C1680 1.377 . S
C1681 C1687 1.390 . S
C1682 H1673 0.930 . S
C1682 C1680 1.384 . S
C1682 C1683 1.372 . S
C1683 C1682 1.372 . S
C1683 C1684 1.400 . S
C1683 C1688 1.490 . S
C1684 H1674 0.930 . S
C1684 C1683 1.400 . S
C1684 C1687 1.386 . S
H1685 C1701 0.930 . S
H1686 C1702 0.931 . S
C1687 H1675 0.929 . S
C1687 C1681 1.390 . S
C1687 C1684 1.386 . S
C1688 C1683 1.490 . S
C1688 C1690 1.395 . S
C1688 C1691 1.403 . S
H1689 C1695 0.930 . S
C1690 H1676 0.930 . S
C1690 C1688 1.395 . S
C1690 C1693 1.403 . S
C1691 C1688 1.403 . S
C1691 C1692 1.524 . S
C1691 C1695 1.400 . S
C1692 H1677 0.960 . S
C1692 H1678 0.960 . S
C1692 H1679 0.960 . S
C1692 C1691 1.524 . S
C1693 C1690 1.403 . S
C1693 C1694 1.392 . S
C1693 C1697 1.495 . S
C1694 C1693 1.392 . S
C1694 C1695 1.385 . S
C1694 C1696 1.478 . S
C1695 H1689 0.930 . S
C1695 C1691 1.400 . S
C1695 C1694 1.385 . S
C1696 C1694 1.478 . S
C1696 C1698 1.381 . S
C1696 C1702 1.383 . S
C1697 C1693 1.495 . S
C1697 H1703 0.959 . S
C1697 H1704 0.961 . S
C1697 H1705 0.960 . S
C1698 C1696 1.381 . S
C1698 C1699 1.394 . S
C1698 H1706 0.930 . S
C1699 C1698 1.394 . S
C1699 C1700 1.383 . S
C1699 H1707 0.929 . S
C1700 C1699 1.383 . S
C1700 C1701 1.377 . S
C1701 H1685 0.930 . S
C1701 C1700 1.377 . S
C1701 C1702 1.379 . S
C1702 H1686 0.931 . S
C1702 C1696 1.383 . S
C1702 C1701 1.379 . S
H1703 C1697 0.959 . S
H1704 C1697 0.961 . S
H1705 C1697 0.960 . S
H1706 C1698 0.930 . S
H1707 C1699 0.929 . S
H1708 C1716 0.929 . S
H1709 C1718 0.930 . S
H1710 C1720 0.930 . S
H1711 C1723 0.929 . S
H1712 C1726 0.930 . S
H1713 C1728 0.960 . S
H1714 C1728 0.960 . S
H1715 C1728 0.960 . S
C1716 H1708 0.929 . S
C1716 C1717 1.377 . S
C1716 C1718 1.384 . S
C1717 C1716 1.377 . S
C1717 C1723 1.390 . S
C1718 H1709 0.930 . S
C1718 C1716 1.384 . S
C1718 C1719 1.372 . S
C1719 C1718 1.372 . S
C1719 C1720 1.400 . S
C1719 C1724 1.490 . S
C1720 H1710 0.930 . S
C1720 C1719 1.400 . S
C1720 C1723 1.386 . S
H1721 C1737 0.930 . S
H1722 C1738 0.945 . S
C1723 H1711 0.929 . S
C1723 C1717 1.390 . S
C1723 C1720 1.386 . S
C1724 C1719 1.490 . S
C1724 C1726 1.395 . S
C1724 C1727 1.403 . S
H1725 C1731 0.930 . S
C1726 H1712 0.930 . S
C1726 C1724 1.395 . S
C1726 C1729 1.403 . S
C1727 C1724 1.403 . S
C1727 C1728 1.524 . S
C1727 C1731 1.400 . S
C1728 H1713 0.960 . S
C1728 H1714 0.960 . S
C1728 H1715 0.960 . S
C1728 C1727 1.524 . S
C1729 C1726 1.403 . S
C1729 C1730 1.392 . S
C1729 C1733 1.495 . S
C1730 C1729 1.392 . S
C1730 C1731 1.385 . S
C1730 C1732 1.478 . S
C1731 H1725 0.930 . S
C1731 C1727 1.400 . S
C1731 C1730 1.385 . S
C1732 C1730 1.478 . S
C1732 C1734 1.381 . S
C1732 C1738 1.399 . S
C1733 C1729 1.495 . S
C1733 H1739 0.959 . S
C1733 H1740 0.961 . S
C1733 H1741 0.960 . S
C1734 C1732 1.381 . S
C1734 C1735 1.394 1_455 S
C1734 H1742 0.930 . S
C1735 C1734 1.394 1_655 S
C1735 C1736 1.383 . S
C1735 H1743 0.929 . S
C1736 C1735 1.383 . S
C1736 C1737 1.377 . S
C1737 H1721 0.930 . S
C1737 C1736 1.377 . S
C1737 C1738 1.350 1_655 S
C1738 H1722 0.945 . S
C1738 C1732 1.399 . S
C1738 C1737 1.350 1_455 S
H1739 C1733 0.959 . S
H1740 C1733 0.961 . S
H1741 C1733 0.960 . S
H1742 C1734 0.930 . S
H1743 C1735 0.929 . S
H1744 C1752 0.929 . S
H1745 C1754 0.930 . S
H1746 C1756 0.930 . S
H1747 C1759 0.929 . S
H1748 C1762 0.930 . S
H1749 C1764 0.960 . S
H1750 C1764 0.960 . S
H1751 C1764 0.960 . S
C1752 H1744 0.929 . S
C1752 C1753 1.377 . S
C1752 C1754 1.384 . S
C1753 C1752 1.377 . S
C1753 C1759 1.390 . S
C1754 H1745 0.930 . S
C1754 C1752 1.384 . S
C1754 C1755 1.372 . S
C1755 C1754 1.372 . S
C1755 C1756 1.400 . S
C1755 C1760 1.490 . S
C1756 H1746 0.930 . S
C1756 C1755 1.400 . S
C1756 C1759 1.386 . S
H1757 C1773 0.930 . S
H1758 C1774 0.931 . S
C1759 H1747 0.929 . S
C1759 C1753 1.390 . S
C1759 C1756 1.386 . S
C1760 C1755 1.490 . S
C1760 C1762 1.395 . S
C1760 C1763 1.403 . S
H1761 C1767 0.930 . S
C1762 H1748 0.930 . S
C1762 C1760 1.395 . S
C1762 C1765 1.403 . S
C1763 C1760 1.403 . S
C1763 C1764 1.524 . S
C1763 C1767 1.400 . S
C1764 H1749 0.960 . S
C1764 H1750 0.960 . S
C1764 H1751 0.960 . S
C1764 C1763 1.524 . S
C1765 C1762 1.403 . S
C1765 C1766 1.392 . S
C1765 C1769 1.495 . S
C1766 C1765 1.392 . S
C1766 C1767 1.385 . S
C1766 C1768 1.478 . S
C1767 H1761 0.930 . S
C1767 C1763 1.400 . S
C1767 C1766 1.385 . S
C1768 C1766 1.478 . S
C1768 C1770 1.381 . S
C1768 C1774 1.383 . S
C1769 C1765 1.495 . S
C1769 H1775 0.959 . S
C1769 H1776 0.961 . S
C1769 H1777 0.960 . S
C1770 C1768 1.381 . S
C1770 C1771 1.394 . S
C1770 H1778 0.930 . S
C1771 C1770 1.394 . S
C1771 C1772 1.383 . S
C1771 H1779 0.929 . S
C1772 C1771 1.383 . S
C1772 C1773 1.377 . S
C1773 H1757 0.930 . S
C1773 C1772 1.377 . S
C1773 C1774 1.379 . S
C1774 H1758 0.931 . S
C1774 C1768 1.383 . S
C1774 C1773 1.379 . S
H1775 C1769 0.959 . S
H1776 C1769 0.961 . S
H1777 C1769 0.960 . S
H1778 C1770 0.930 . S
H1779 C1771 0.929 . S
H1780 C1788 0.929 . S
H1781 C1790 0.930 . S
H1782 C1792 0.930 . S
H1783 C1795 0.929 . S
H1784 C1798 0.930 . S
H1785 C1800 0.960 . S
H1786 C1800 0.960 . S
H1787 C1800 0.960 . S
C1788 H1780 0.929 . S
C1788 C1789 1.377 . S
C1788 C1790 1.384 1_655 S
C1789 C1788 1.377 . S
C1789 C1795 1.390 . S
C1790 H1781 0.930 . S
C1790 C1788 1.384 1_455 S
C1790 C1791 1.372 . S
C1791 C1790 1.372 . S
C1791 C1792 1.400 1_455 S
C1791 C1796 1.490 . S
C1792 H1782 0.930 . S
C1792 C1791 1.400 1_655 S
C1792 C1795 1.386 . S
H1793 C1809 0.930 . S
H1794 C1810 0.931 . S
C1795 H1783 0.929 . S
C1795 C1789 1.390 . S
C1795 C1792 1.386 . S
C1796 C1791 1.490 . S
C1796 C1798 1.395 . S
C1796 C1799 1.403 . S
H1797 C1803 0.930 . S
C1798 H1784 0.930 . S
C1798 C1796 1.395 . S
C1798 C1801 1.403 . S
C1799 C1796 1.403 . S
C1799 C1800 1.524 . S
C1799 C1803 1.400 . S
C1800 H1785 0.960 . S
C1800 H1786 0.960 . S
C1800 H1787 0.960 . S
C1800 C1799 1.524 . S
C1801 C1798 1.403 . S
C1801 C1802 1.392 . S
C1801 C1805 1.495 . S
C1802 C1801 1.392 . S
C1802 C1803 1.385 . S
C1802 C1804 1.478 . S
C1803 H1797 0.930 . S
C1803 C1799 1.400 . S
C1803 C1802 1.385 . S
C1804 C1802 1.478 . S
C1804 C1806 1.381 . S
C1804 C1810 1.383 . S
C1805 C1801 1.495 . S
C1805 H1811 0.959 . S
C1805 H1812 0.961 . S
C1805 H1813 0.960 . S
C1806 C1804 1.381 . S
C1806 C1807 1.394 . S
C1806 H1814 0.930 . S
C1807 C1806 1.394 . S
C1807 C1808 1.383 . S
C1807 H1815 0.929 . S
C1808 C1807 1.383 . S
C1808 C1809 1.377 . S
C1809 H1793 0.930 . S
C1809 C1808 1.377 . S
C1809 C1810 1.379 . S
C1810 H1794 0.931 . S
C1810 C1804 1.383 . S
C1810 C1809 1.379 . S
H1811 C1805 0.959 . S
H1812 C1805 0.961 . S
H1813 C1805 0.960 . S
H1814 C1806 0.930 . S
H1815 C1807 0.929 . S
H1816 C1824 0.929 . S
H1817 C1826 0.930 . S
H1818 C1828 0.930 . S
H1819 C1831 0.929 . S
H1820 C1834 0.930 . S
H1821 C1836 0.960 . S
H1822 C1836 0.960 . S
H1823 C1836 0.960 . S
C1824 H1816 0.929 . S
C1824 C1825 1.377 . S
C1824 C1826 1.384 . S
C1825 C1824 1.377 . S
C1825 C1831 1.390 . S
C1826 H1817 0.930 . S
C1826 C1824 1.384 . S
C1826 C1827 1.372 . S
C1827 C1826 1.372 . S
C1827 C1828 1.400 . S
C1827 C1832 1.490 . S
C1828 H1818 0.930 . S
C1828 C1827 1.400 . S
C1828 C1831 1.386 . S
H1829 C1845 0.930 . S
H1830 C1846 0.931 . S
C1831 H1819 0.929 . S
C1831 C1825 1.390 . S
C1831 C1828 1.386 . S
C1832 C1827 1.490 . S
C1832 C1834 1.395 . S
C1832 C1835 1.403 . S
H1833 C1839 0.930 . S
C1834 H1820 0.930 . S
C1834 C1832 1.395 . S
C1834 C1837 1.403 . S
C1835 C1832 1.403 . S
C1835 C1836 1.524 . S
C1835 C1839 1.400 . S
C1836 H1821 0.960 . S
C1836 H1822 0.960 . S
C1836 H1823 0.960 . S
C1836 C1835 1.524 . S
C1837 C1834 1.403 . S
C1837 C1838 1.392 . S
C1837 C1841 1.495 . S
C1838 C1837 1.392 . S
C1838 C1839 1.385 . S
C1838 C1840 1.478 . S
C1839 H1833 0.930 . S
C1839 C1835 1.400 . S
C1839 C1838 1.385 . S
C1840 C1838 1.478 . S
C1840 C1842 1.381 . S
C1840 C1846 1.383 . S
C1841 C1837 1.495 . S
C1841 H1847 0.959 . S
C1841 H1848 0.961 . S
C1841 H1849 0.960 . S
C1842 C1840 1.381 . S
C1842 C1843 1.394 . S
C1842 H1850 0.930 . S
C1843 C1842 1.394 . S
C1843 C1844 1.383 . S
C1843 H1851 0.929 . S
C1844 C1843 1.383 . S
C1844 C1845 1.377 . S
C1845 H1829 0.930 . S
C1845 C1844 1.377 . S
C1845 C1846 1.379 . S
C1846 H1830 0.931 . S
C1846 C1840 1.383 . S
C1846 C1845 1.379 . S
H1847 C1841 0.959 . S
H1848 C1841 0.961 . S
H1849 C1841 0.960 . S
H1850 C1842 0.930 . S
H1851 C1843 0.929 . S
H1852 C1860 0.929 . S
H1853 C1862 0.930 . S
H1854 C1864 0.930 . S
H1855 C1867 0.929 . S
H1856 C1870 0.930 . S
H1857 C1872 0.960 . S
H1858 C1872 0.960 . S
H1859 C1872 0.960 . S
C1860 H1852 0.929 . S
C1860 C1861 1.377 . S
C1860 C1862 1.384 . S
C1861 C1860 1.377 . S
C1861 C1867 1.390 . S
C1862 H1853 0.930 . S
C1862 C1860 1.384 . S
C1862 C1863 1.372 . S
C1863 C1862 1.372 . S
C1863 C1864 1.400 . S
C1863 C1868 1.490 . S
C1864 H1854 0.930 . S
C1864 C1863 1.400 . S
C1864 C1867 1.386 . S
H1865 C1881 0.930 . S
H1866 C1882 0.931 . S
C1867 H1855 0.929 . S
C1867 C1861 1.390 . S
C1867 C1864 1.386 . S
C1868 C1863 1.490 . S
C1868 C1870 1.395 . S
C1868 C1871 1.403 . S
H1869 C1875 0.930 . S
C1870 H1856 0.930 . S
C1870 C1868 1.395 . S
C1870 C1873 1.403 . S
C1871 C1868 1.403 . S
C1871 C1872 1.524 . S
C1871 C1875 1.400 . S
C1872 H1857 0.960 . S
C1872 H1858 0.960 . S
C1872 H1859 0.960 . S
C1872 C1871 1.524 . S
C1873 C1870 1.403 . S
C1873 C1874 1.392 . S
C1873 C1877 1.495 . S
C1874 C1873 1.392 . S
C1874 C1875 1.385 . S
C1874 C1876 1.478 . S
C1875 H1869 0.930 . S
C1875 C1871 1.400 . S
C1875 C1874 1.385 . S
C1876 C1874 1.478 . S
C1876 C1878 1.381 . S
C1876 C1882 1.383 . S
C1877 C1873 1.495 . S
C1877 H1883 0.959 . S
C1877 H1884 0.961 . S
C1877 H1885 0.960 . S
C1878 C1876 1.381 . S
C1878 C1879 1.394 . S
C1878 H1886 0.930 . S
C1879 C1878 1.394 . S
C1879 C1880 1.383 . S
C1879 H1887 0.929 . S
C1880 C1879 1.383 . S
C1880 C1881 1.377 . S
C1881 H1865 0.930 . S
C1881 C1880 1.377 . S
C1881 C1882 1.379 . S
C1882 H1866 0.931 . S
C1882 C1876 1.383 . S
C1882 C1881 1.379 . S
H1883 C1877 0.959 . S
H1884 C1877 0.961 . S
H1885 C1877 0.960 . S
H1886 C1878 0.930 . S
H1887 C1879 0.929 . S
H1888 C1896 0.929 . S
H1889 C1898 0.930 . S
H1890 C1900 0.930 . S
H1891 C1903 0.929 . S
H1892 C1906 0.930 . S
H1893 C1908 0.960 . S
H1894 C1908 0.960 . S
H1895 C1908 0.960 . S
C1896 H1888 0.929 . S
C1896 C1897 1.377 . S
C1896 C1898 1.384 . S
C1897 C1896 1.377 . S
C1897 C1903 1.390 . S
C1898 H1889 0.930 . S
C1898 C1896 1.384 . S
C1898 C1899 1.372 . S
C1899 C1898 1.372 . S
C1899 C1900 1.400 . S
C1899 C1904 1.490 . S
C1900 H1890 0.930 . S
C1900 C1899 1.400 . S
C1900 C1903 1.386 . S
H1901 C1917 0.930 . S
H1902 C1918 0.931 . S
C1903 H1891 0.929 . S
C1903 C1897 1.390 . S
C1903 C1900 1.386 . S
C1904 C1899 1.490 . S
C1904 C1906 1.395 . S
C1904 C1907 1.403 . S
H1905 C1911 0.930 . S
C1906 H1892 0.930 . S
C1906 C1904 1.395 . S
C1906 C1909 1.403 . S
C1907 C1904 1.403 . S
C1907 C1908 1.524 . S
C1907 C1911 1.400 . S
C1908 H1893 0.960 . S
C1908 H1894 0.960 . S
C1908 H1895 0.960 . S
C1908 C1907 1.524 . S
C1909 C1906 1.403 . S
C1909 C1910 1.392 . S
C1909 C1913 1.495 . S
C1910 C1909 1.392 . S
C1910 C1911 1.385 . S
C1910 C1912 1.478 . S
C1911 H1905 0.930 . S
C1911 C1907 1.400 . S
C1911 C1910 1.385 . S
C1912 C1910 1.478 . S
C1912 C1914 1.381 . S
C1912 C1918 1.383 . S
C1913 C1909 1.495 . S
C1913 H1919 0.959 . S
C1913 H1920 0.961 . S
C1913 H1921 0.960 . S
C1914 C1912 1.381 . S
C1914 C1915 1.394 . S
C1914 H1922 0.930 . S
C1915 C1914 1.394 . S
C1915 C1916 1.383 . S
C1915 H1923 0.929 . S
C1916 C1915 1.383 . S
C1916 C1917 1.377 . S
C1917 H1901 0.930 . S
C1917 C1916 1.377 . S
C1917 C1918 1.379 . S
C1918 H1902 0.931 . S
C1918 C1912 1.383 . S
C1918 C1917 1.379 . S
H1919 C1913 0.959 . S
H1920 C1913 0.961 . S
H1921 C1913 0.960 . S
H1922 C1914 0.930 . S
H1923 C1915 0.929 . S
H1924 C1932 0.929 . S
H1925 C1934 0.930 . S
H1926 C1936 0.930 . S
H1927 C1939 0.929 . S
H1928 C1942 0.930 . S
H1929 C1944 0.960 . S
H1930 C1944 0.960 . S
H1931 C1944 0.960 . S
C1932 H1924 0.929 . S
C1932 C1933 1.377 . S
C1932 C1934 1.384 . S
C1933 C1932 1.377 . S
C1933 C1939 1.390 . S
C1934 H1925 0.930 . S
C1934 C1932 1.384 . S
C1934 C1935 1.372 . S
C1935 C1934 1.372 . S
C1935 C1936 1.400 . S
C1935 C1940 1.490 . S
C1936 H1926 0.930 . S
C1936 C1935 1.400 . S
C1936 C1939 1.386 . S
H1937 C1953 0.930 . S
H1938 C1954 0.931 . S
C1939 H1927 0.929 . S
C1939 C1933 1.390 . S
C1939 C1936 1.386 . S
C1940 C1935 1.490 . S
C1940 C1942 1.395 . S
C1940 C1943 1.403 . S
H1941 C1947 0.930 . S
C1942 H1928 0.930 . S
C1942 C1940 1.395 . S
C1942 C1945 1.403 . S
C1943 C1940 1.403 . S
C1943 C1944 1.524 . S
C1943 C1947 1.400 . S
C1944 H1929 0.960 . S
C1944 H1930 0.960 . S
C1944 H1931 0.960 . S
C1944 C1943 1.524 . S
C1945 C1942 1.403 . S
C1945 C1946 1.392 . S
C1945 C1949 1.495 . S
C1946 C1945 1.392 . S
C1946 C1947 1.385 . S
C1946 C1948 1.478 . S
C1947 H1941 0.930 . S
C1947 C1943 1.400 . S
C1947 C1946 1.385 . S
C1948 C1946 1.478 . S
C1948 C1950 1.381 . S
C1948 C1954 1.383 . S
C1949 C1945 1.495 . S
C1949 H1955 0.959 . S
C1949 H1956 0.961 . S
C1949 H1957 0.960 . S
C1950 C1948 1.381 . S
C1950 C1951 1.394 . S
C1950 H1958 0.930 . S
C1951 C1950 1.394 . S
C1951 C1952 1.383 . S
C1951 H1959 0.929 . S
C1952 C1951 1.383 . S
C1952 C1953 1.377 . S
C1953 H1937 0.930 . S
C1953 C1952 1.377 . S
C1953 C1954 1.379 . S
C1954 H1938 0.931 . S
C1954 C1948 1.383 . S
C1954 C1953 1.379 . S
H1955 C1949 0.959 . S
H1956 C1949 0.961 . S
H1957 C1949 0.960 . S
H1958 C1950 0.930 . S
H1959 C1951 0.929 . S
H1960 C1968 0.929 . S
H1961 C1970 0.930 . S
H1962 C1972 0.930 . S
H1963 C1975 0.929 . S
H1964 C1978 0.930 . S
H1965 C1980 0.960 . S
H1966 C1980 0.960 . S
H1967 C1980 0.960 . S
C1968 H1960 0.929 . S
C1968 C1969 1.377 . S
C1968 C1970 1.384 . S
C1969 C1968 1.377 . S
C1969 C1975 1.390 . S
C1970 H1961 0.930 . S
C1970 C1968 1.384 . S
C1970 C1971 1.372 . S
C1971 C1970 1.372 . S
C1971 C1972 1.400 . S
C1971 C1976 1.490 . S
C1972 H1962 0.930 . S
C1972 C1971 1.400 . S
C1972 C1975 1.386 . S
H1973 C1989 0.930 . S
H1974 C1990 0.931 . S
C1975 H1963 0.929 . S
C1975 C1969 1.390 . S
C1975 C1972 1.386 . S
C1976 C1971 1.490 . S
C1976 C1978 1.395 . S
C1976 C1979 1.403 . S
H1977 C1983 0.930 . S
C1978 H1964 0.930 . S
C1978 C1976 1.395 . S
C1978 C1981 1.403 . S
C1979 C1976 1.403 . S
C1979 C1980 1.524 . S
C1979 C1983 1.400 . S
C1980 H1965 0.960 . S
C1980 H1966 0.960 . S
C1980 H1967 0.960 . S
C1980 C1979 1.524 . S
C1981 C1978 1.403 . S
C1981 C1982 1.392 . S
C1981 C1985 1.495 . S
C1982 C1981 1.392 . S
C1982 C1983 1.385 . S
C1982 C1984 1.478 . S
C1983 H1977 0.930 . S
C1983 C1979 1.400 . S
C1983 C1982 1.385 . S
C1984 C1982 1.478 . S
C1984 C1986 1.381 . S
C1984 C1990 1.383 . S
C1985 C1981 1.495 . S
C1985 H1991 0.959 . S
C1985 H1992 0.961 . S
C1985 H1993 0.960 . S
C1986 C1984 1.381 . S
C1986 C1987 1.394 . S
C1986 H1994 0.930 . S
C1987 C1986 1.394 . S
C1987 C1988 1.383 . S
C1987 H1995 0.929 . S
C1988 C1987 1.383 . S
C1988 C1989 1.377 . S
C1989 H1973 0.930 . S
C1989 C1988 1.377 . S
C1989 C1990 1.379 . S
C1990 H1974 0.931 . S
C1990 C1984 1.383 . S
C1990 C1989 1.379 . S
H1991 C1985 0.959 . S
H1992 C1985 0.961 . S
H1993 C1985 0.960 . S
H1994 C1986 0.930 . S
H1995 C1987 0.929 . S
H1996 C2004 0.929 . S
H1997 C2006 0.930 . S
H1998 C2008 0.930 . S
H1999 C2011 0.929 . S
H2000 C2014 0.930 . S
H2001 C2016 0.960 . S
H2002 C2016 0.960 . S
H2003 C2016 0.960 . S
C2004 H1996 0.929 . S
C2004 C2005 1.377 . S
C2004 C2006 1.384 . S
C2005 C2004 1.377 . S
C2005 C2011 1.390 . S
C2006 H1997 0.930 . S
C2006 C2004 1.384 . S
C2006 C2007 1.372 . S
C2007 C2006 1.372 . S
C2007 C2008 1.400 . S
C2007 C2012 1.490 . S
C2008 H1998 0.930 . S
C2008 C2007 1.400 . S
C2008 C2011 1.386 . S
H2009 C2025 0.930 . S
H2010 C2026 0.931 . S
C2011 H1999 0.929 . S
C2011 C2005 1.390 . S
C2011 C2008 1.386 . S
C2012 C2007 1.490 . S
C2012 C2014 1.395 . S
C2012 C2015 1.403 . S
H2013 C2019 0.930 . S
C2014 H2000 0.930 . S
C2014 C2012 1.395 . S
C2014 C2017 1.403 . S
C2015 C2012 1.403 . S
C2015 C2016 1.524 . S
C2015 C2019 1.400 . S
C2016 H2001 0.960 . S
C2016 H2002 0.960 . S
C2016 H2003 0.960 . S
C2016 C2015 1.524 . S
C2017 C2014 1.403 . S
C2017 C2018 1.392 . S
C2017 C2021 1.495 . S
C2018 C2017 1.392 . S
C2018 C2019 1.385 . S
C2018 C2020 1.478 . S
C2019 H2013 0.930 . S
C2019 C2015 1.400 . S
C2019 C2018 1.385 . S
C2020 C2018 1.478 . S
C2020 C2022 1.381 1_655 S
C2020 C2026 1.383 . S
C2021 C2017 1.495 . S
C2021 H2027 0.959 . S
C2021 H2028 0.961 . S
C2021 H2029 0.960 . S
C2022 C2020 1.381 1_455 S
C2022 C2023 1.394 . S
C2022 H2030 0.930 . S
C2023 C2022 1.394 . S
C2023 C2024 1.383 . S
C2023 H2031 0.929 . S
C2024 C2023 1.383 . S
C2024 C2025 1.377 . S
C2025 H2009 0.930 . S
C2025 C2024 1.377 . S
C2025 C2026 1.379 1_455 S
C2026 H2010 0.931 . S
C2026 C2020 1.383 . S
C2026 C2025 1.379 1_655 S
H2027 C2021 0.959 . S
H2028 C2021 0.961 . S
H2029 C2021 0.960 . S
H2030 C2022 0.930 . S
H2031 C2023 0.929 . S
H2032 C2040 0.929 . S
H2033 C2042 0.930 . S
H2034 C2044 0.930 . S
H2035 C2047 0.929 . S
H2036 C2050 0.930 . S
H2037 C2052 0.960 . S
H2038 C2052 0.960 . S
H2039 C2052 0.960 . S
C2040 H2032 0.929 . S
C2040 C2041 1.377 . S
C2040 C2042 1.384 . S
C2041 C2040 1.377 . S
C2041 C2047 1.390 . S
C2042 H2033 0.930 . S
C2042 C2040 1.384 . S
C2042 C2043 1.372 . S
C2043 C2042 1.372 . S
C2043 C2044 1.400 . S
C2043 C2048 1.490 . S
C2044 H2034 0.930 . S
C2044 C2043 1.400 . S
C2044 C2047 1.386 . S
H2045 C2061 0.930 . S
H2046 C2062 0.931 . S
C2047 H2035 0.929 . S
C2047 C2041 1.390 . S
C2047 C2044 1.386 . S
C2048 C2043 1.490 . S
C2048 C2050 1.395 . S
C2048 C2051 1.403 . S
H2049 C2055 0.930 . S
C2050 H2036 0.930 . S
C2050 C2048 1.395 . S
C2050 C2053 1.403 . S
C2051 C2048 1.403 . S
C2051 C2052 1.524 . S
C2051 C2055 1.400 . S
C2052 H2037 0.960 . S
C2052 H2038 0.960 . S
C2052 H2039 0.960 . S
C2052 C2051 1.524 . S
C2053 C2050 1.403 . S
C2053 C2054 1.392 . S
C2053 C2057 1.495 . S
C2054 C2053 1.392 . S
C2054 C2055 1.385 . S
C2054 C2056 1.478 . S
C2055 H2049 0.930 . S
C2055 C2051 1.400 . S
C2055 C2054 1.385 . S
C2056 C2054 1.478 . S
C2056 C2058 1.381 . S
C2056 C2062 1.383 . S
C2057 C2053 1.495 . S
C2057 H2063 0.959 . S
C2057 H2064 0.961 . S
C2057 H2065 0.960 . S
C2058 C2056 1.381 . S
C2058 C2059 1.394 . S
C2058 H2066 0.930 . S
C2059 C2058 1.394 . S
C2059 C2060 1.383 . S
C2059 H2067 0.929 . S
C2060 C2059 1.383 . S
C2060 C2061 1.377 . S
C2061 H2045 0.930 . S
C2061 C2060 1.377 . S
C2061 C2062 1.379 . S
C2062 H2046 0.931 . S
C2062 C2056 1.383 . S
C2062 C2061 1.379 . S
H2063 C2057 0.959 . S
H2064 C2057 0.961 . S
H2065 C2057 0.960 . S
H2066 C2058 0.930 . S
H2067 C2059 0.929 . S
H2068 C2076 0.929 . S
H2069 C2078 0.930 . S
H2070 C2080 0.930 1_655 S
H2071 C2083 0.929 . S
H2072 C2086 0.930 . S
H2073 C2088 0.960 . S
H2074 C2088 0.960 . S
H2075 C2088 0.960 . S
C2076 H2068 0.929 . S
C2076 C2077 1.377 . S
C2076 C2078 1.384 1_455 S
C2077 C2076 1.377 . S
C2077 C2083 1.390 . S
C2078 H2069 0.930 . S
C2078 C2076 1.384 1_655 S
C2078 C2079 1.372 . S
C2079 C2078 1.372 . S
C2079 C2080 1.400 1_655 S
C2079 C2084 1.490 . S
C2080 H2070 0.930 1_455 S
C2080 C2079 1.400 1_455 S
C2080 C2083 1.386 . S
H2081 C2097 0.930 . S
H2082 C2098 0.931 . S
C2083 H2071 0.929 . S
C2083 C2077 1.390 . S
C2083 C2080 1.386 . S
C2084 C2079 1.490 . S
C2084 C2086 1.395 . S
C2084 C2087 1.403 . S
H2085 C2091 0.930 . S
C2086 H2072 0.930 . S
C2086 C2084 1.395 . S
C2086 C2089 1.403 . S
C2087 C2084 1.403 . S
C2087 C2088 1.524 . S
C2087 C2091 1.400 . S
C2088 H2073 0.960 . S
C2088 H2074 0.960 . S
C2088 H2075 0.960 . S
C2088 C2087 1.524 . S
C2089 C2086 1.403 . S
C2089 C2090 1.392 . S
C2089 C2093 1.495 . S
C2090 C2089 1.392 . S
C2090 C2091 1.385 . S
C2090 C2092 1.478 . S
C2091 H2085 0.930 . S
C2091 C2087 1.400 . S
C2091 C2090 1.385 . S
C2092 C2090 1.478 . S
C2092 C2094 1.381 . S
C2092 C2098 1.383 . S
C2093 C2089 1.495 . S
C2093 H2099 0.959 . S
C2093 H2100 0.961 . S
C2093 H2101 0.960 . S
C2094 C2092 1.381 . S
C2094 C2095 1.394 . S
C2094 H2102 0.930 . S
C2095 C2094 1.394 . S
C2095 C2096 1.383 . S
C2095 H2103 0.929 . S
C2096 C2095 1.383 . S
C2096 C2097 1.377 . S
C2097 H2081 0.930 . S
C2097 C2096 1.377 . S
C2097 C2098 1.379 . S
C2098 H2082 0.931 . S
C2098 C2092 1.383 . S
C2098 C2097 1.379 . S
H2099 C2093 0.959 . S
H2100 C2093 0.961 . S
H2101 C2093 0.960 . S
H2102 C2094 0.930 . S
H2103 C2095 0.929 . S
H2104 C2112 0.929 . S
H2105 C2114 0.930 . S
H2106 C2116 0.930 . S
H2107 C2119 0.929 . S
H2108 C2122 0.930 . S
H2109 C2124 0.960 . S
H2110 C2124 0.960 . S
H2111 C2124 0.960 . S
C2112 H2104 0.929 . S
C2112 C2113 1.377 . S
C2112 C2114 1.384 . S
C2113 C2112 1.377 . S
C2113 C2119 1.390 . S
C2114 H2105 0.930 . S
C2114 C2112 1.384 . S
C2114 C2115 1.372 . S
C2115 C2114 1.372 . S
C2115 C2116 1.400 . S
C2115 C2120 1.490 . S
C2116 H2106 0.930 . S
C2116 C2115 1.400 . S
C2116 C2119 1.386 . S
H2117 C2133 0.930 . S
H2118 C2134 0.931 . S
C2119 H2107 0.929 . S
C2119 C2113 1.390 . S
C2119 C2116 1.386 . S
C2120 C2115 1.490 . S
C2120 C2122 1.395 . S
C2120 C2123 1.403 . S
H2121 C2127 0.930 . S
C2122 H2108 0.930 . S
C2122 C2120 1.395 . S
C2122 C2125 1.403 . S
C2123 C2120 1.403 . S
C2123 C2124 1.524 . S
C2123 C2127 1.400 . S
C2124 H2109 0.960 . S
C2124 H2110 0.960 . S
C2124 H2111 0.960 . S
C2124 C2123 1.524 . S
C2125 C2122 1.403 . S
C2125 C2126 1.392 . S
C2125 C2129 1.495 . S
C2126 C2125 1.392 . S
C2126 C2127 1.385 . S
C2126 C2128 1.478 . S
C2127 H2121 0.930 . S
C2127 C2123 1.400 . S
C2127 C2126 1.385 . S
C2128 C2126 1.478 . S
C2128 C2130 1.381 . S
C2128 C2134 1.383 . S
C2129 C2125 1.495 . S
C2129 H2135 0.959 . S
C2129 H2136 0.961 . S
C2129 H2137 0.960 . S
C2130 C2128 1.381 . S
C2130 C2131 1.394 . S
C2130 H2138 0.930 . S
C2131 C2130 1.394 . S
C2131 C2132 1.383 . S
C2131 H2139 0.929 . S
C2132 C2131 1.383 . S
C2132 C2133 1.377 . S
C2133 H2117 0.930 . S
C2133 C2132 1.377 . S
C2133 C2134 1.379 . S
C2134 H2118 0.931 . S
C2134 C2128 1.383 . S
C2134 C2133 1.379 . S
H2135 C2129 0.959 . S
H2136 C2129 0.961 . S
H2137 C2129 0.960 . S
H2138 C2130 0.930 . S
H2139 C2131 0.929 . S
H2140 C2148 0.929 . S
H2141 C2150 0.930 . S
H2142 C2152 0.930 . S
H2143 C2155 0.929 . S
H2144 C2158 0.930 . S
H2145 C2160 0.960 . S
H2146 C2160 0.960 . S
H2147 C2160 0.960 . S
C2148 H2140 0.929 . S
C2148 C2149 1.377 . S
C2148 C2150 1.384 . S
C2149 C2148 1.377 . S
C2149 C2155 1.390 . S
C2150 H2141 0.930 . S
C2150 C2148 1.384 . S
C2150 C2151 1.372 . S
C2151 C2150 1.372 . S
C2151 C2152 1.400 . S
C2151 C2156 1.490 . S
C2152 H2142 0.930 . S
C2152 C2151 1.400 . S
C2152 C2155 1.386 . S
H2153 C2169 0.930 . S
H2154 C2170 0.931 . S
C2155 H2143 0.929 . S
C2155 C2149 1.390 . S
C2155 C2152 1.386 . S
C2156 C2151 1.490 . S
C2156 C2158 1.395 . S
C2156 C2159 1.403 . S
H2157 C2163 0.930 . S
C2158 H2144 0.930 . S
C2158 C2156 1.395 . S
C2158 C2161 1.403 . S
C2159 C2156 1.403 . S
C2159 C2160 1.524 . S
C2159 C2163 1.400 . S
C2160 H2145 0.960 . S
C2160 H2146 0.960 . S
C2160 H2147 0.960 . S
C2160 C2159 1.524 . S
C2161 C2158 1.403 . S
C2161 C2162 1.392 . S
C2161 C2165 1.495 . S
C2162 C2161 1.392 . S
C2162 C2163 1.385 . S
C2162 C2164 1.478 . S
C2163 H2157 0.930 . S
C2163 C2159 1.400 . S
C2163 C2162 1.385 . S
C2164 C2162 1.478 . S
C2164 C2166 1.381 . S
C2164 C2170 1.383 . S
C2165 C2161 1.495 . S
C2165 H2171 0.959 . S
C2165 H2172 0.961 . S
C2165 H2173 0.960 . S
C2166 C2164 1.381 . S
C2166 C2167 1.394 . S
C2166 H2174 0.930 . S
C2167 C2166 1.394 . S
C2167 C2168 1.383 . S
C2167 H2175 0.929 . S
C2168 C2167 1.383 . S
C2168 C2169 1.377 . S
C2169 H2153 0.930 . S
C2169 C2168 1.377 . S
C2169 C2170 1.379 . S
C2170 H2154 0.931 . S
C2170 C2164 1.383 . S
C2170 C2169 1.379 . S
H2171 C2165 0.959 . S
H2172 C2165 0.961 . S
H2173 C2165 0.960 . S
H2174 C2166 0.930 . S
H2175 C2167 0.929 . S
H2176 C2184 0.929 . S
H2177 C2186 0.930 . S
H2178 C2188 0.930 . S
H2179 C2191 0.929 . S
H2180 C2194 0.930 . S
H2181 C2196 0.960 . S
H2182 C2196 0.960 . S
H2183 C2196 0.960 . S
C2184 H2176 0.929 . S
C2184 C2185 1.377 . S
C2184 C2186 1.384 . S
C2185 C2184 1.377 . S
C2185 C2191 1.390 . S
C2186 H2177 0.930 . S
C2186 C2184 1.384 . S
C2186 C2187 1.372 . S
C2187 C2186 1.372 . S
C2187 C2188 1.400 . S
C2187 C2192 1.490 . S
C2188 H2178 0.930 . S
C2188 C2187 1.400 . S
C2188 C2191 1.386 . S
H2189 C2205 0.930 . S
H2190 C2206 0.931 . S
C2191 H2179 0.929 . S
C2191 C2185 1.390 . S
C2191 C2188 1.386 . S
C2192 C2187 1.490 . S
C2192 C2194 1.395 . S
C2192 C2195 1.403 . S
H2193 C2199 0.930 . S
C2194 H2180 0.930 . S
C2194 C2192 1.395 . S
C2194 C2197 1.403 . S
C2195 C2192 1.403 . S
C2195 C2196 1.524 . S
C2195 C2199 1.400 . S
C2196 H2181 0.960 . S
C2196 H2182 0.960 . S
C2196 H2183 0.960 . S
C2196 C2195 1.524 . S
C2197 C2194 1.403 . S
C2197 C2198 1.392 . S
C2197 C2201 1.495 . S
C2198 C2197 1.392 . S
C2198 C2199 1.385 . S
C2198 C2200 1.478 . S
C2199 H2193 0.930 . S
C2199 C2195 1.400 . S
C2199 C2198 1.385 . S
C2200 C2198 1.478 . S
C2200 C2202 1.381 . S
C2200 C2206 1.383 . S
C2201 C2197 1.495 . S
C2201 H2207 0.959 . S
C2201 H2208 0.961 . S
C2201 H2209 0.960 . S
C2202 C2200 1.381 . S
C2202 C2203 1.394 . S
C2202 H2210 0.930 . S
C2203 C2202 1.394 . S
C2203 C2204 1.383 . S
C2203 H2211 0.929 . S
C2204 C2203 1.383 . S
C2204 C2205 1.377 . S
C2205 H2189 0.930 . S
C2205 C2204 1.377 . S
C2205 C2206 1.379 . S
C2206 H2190 0.931 . S
C2206 C2200 1.383 . S
C2206 C2205 1.379 . S
H2207 C2201 0.959 . S
H2208 C2201 0.961 . S
H2209 C2201 0.960 . S
H2210 C2202 0.930 . S
H2211 C2203 0.929 . S
H2212 C2220 0.929 . S
H2213 C2222 0.930 . S
H2214 C2224 0.930 . S
H2215 C2227 0.929 . S
H2216 C2230 0.930 . S
H2217 C2232 0.960 . S
H2218 C2232 0.960 . S
H2219 C2232 0.960 . S
C2220 H2212 0.929 . S
C2220 C2221 1.377 . S
C2220 C2222 1.384 . S
C2221 C2220 1.377 . S
C2221 C2227 1.390 . S
C2222 H2213 0.930 . S
C2222 C2220 1.384 . S
C2222 C2223 1.372 . S
C2223 C2222 1.372 . S
C2223 C2224 1.400 . S
C2223 C2228 1.490 . S
C2224 H2214 0.930 . S
C2224 C2223 1.400 . S
C2224 C2227 1.386 . S
H2225 C2241 0.930 . S
H2226 C2242 0.931 . S
C2227 H2215 0.929 . S
C2227 C2221 1.390 . S
C2227 C2224 1.386 . S
C2228 C2223 1.490 . S
C2228 C2230 1.395 . S
C2228 C2231 1.403 . S
H2229 C2235 0.930 . S
C2230 H2216 0.930 . S
C2230 C2228 1.395 . S
C2230 C2233 1.403 . S
C2231 C2228 1.403 . S
C2231 C2232 1.524 . S
C2231 C2235 1.400 . S
C2232 H2217 0.960 . S
C2232 H2218 0.960 . S
C2232 H2219 0.960 . S
C2232 C2231 1.524 . S
C2233 C2230 1.403 . S
C2233 C2234 1.392 . S
C2233 C2237 1.495 . S
C2234 C2233 1.392 . S
C2234 C2235 1.385 . S
C2234 C2236 1.478 . S
C2235 H2229 0.930 . S
C2235 C2231 1.400 . S
C2235 C2234 1.385 . S
C2236 C2234 1.478 . S
C2236 C2238 1.381 . S
C2236 C2242 1.383 . S
C2237 C2233 1.495 . S
C2237 H2243 0.959 . S
C2237 H2244 0.961 . S
C2237 H2245 0.960 . S
C2238 C2236 1.381 . S
C2238 C2239 1.394 . S
C2238 H2246 0.930 . S
C2239 C2238 1.394 . S
C2239 C2240 1.383 . S
C2239 H2247 0.929 . S
C2240 C2239 1.383 . S
C2240 C2241 1.377 . S
C2241 H2225 0.930 . S
C2241 C2240 1.377 . S
C2241 C2242 1.379 . S
C2242 H2226 0.931 . S
C2242 C2236 1.383 . S
C2242 C2241 1.379 . S
H2243 C2237 0.959 . S
H2244 C2237 0.961 . S
H2245 C2237 0.960 . S
H2246 C2238 0.930 . S
H2247 C2239 0.929 . S
H2248 C2256 0.929 . S
H2249 C2258 0.930 . S
H2250 C2260 0.930 . S
H2251 C2263 0.929 . S
H2252 C2266 0.930 . S
H2253 C2268 0.960 . S
H2254 C2268 0.960 . S
H2255 C2268 0.960 . S
C2256 H2248 0.929 . S
C2256 C2257 1.377 . S
C2256 C2258 1.384 . S
C2257 C2256 1.377 . S
C2257 C2263 1.390 . S
C2258 H2249 0.930 . S
C2258 C2256 1.384 . S
C2258 C2259 1.372 . S
C2259 C2258 1.372 . S
C2259 C2260 1.400 . S
C2259 C2264 1.490 . S
C2260 H2250 0.930 . S
C2260 C2259 1.400 . S
C2260 C2263 1.386 . S
H2261 C2277 0.930 . S
H2262 C2278 0.931 . S
C2263 H2251 0.929 . S
C2263 C2257 1.390 . S
C2263 C2260 1.386 . S
C2264 C2259 1.490 . S
C2264 C2266 1.395 . S
C2264 C2267 1.403 . S
H2265 C2271 0.930 . S
C2266 H2252 0.930 . S
C2266 C2264 1.395 . S
C2266 C2269 1.403 . S
C2267 C2264 1.403 . S
C2267 C2268 1.524 . S
C2267 C2271 1.400 . S
C2268 H2253 0.960 . S
C2268 H2254 0.960 . S
C2268 H2255 0.960 . S
C2268 C2267 1.524 . S
C2269 C2266 1.403 . S
C2269 C2270 1.392 . S
C2269 C2273 1.495 . S
C2270 C2269 1.392 . S
C2270 C2271 1.385 . S
C2270 C2272 1.478 . S
C2271 H2265 0.930 . S
C2271 C2267 1.400 . S
C2271 C2270 1.385 . S
C2272 C2270 1.478 . S
C2272 C2274 1.381 . S
C2272 C2278 1.383 . S
C2273 C2269 1.495 . S
C2273 H2279 0.959 . S
C2273 H2280 0.961 . S
C2273 H2281 0.960 . S
C2274 C2272 1.381 . S
C2274 C2275 1.394 . S
C2274 H2282 0.930 . S
C2275 C2274 1.394 . S
C2275 C2276 1.383 . S
C2275 H2283 0.929 . S
C2276 C2275 1.383 . S
C2276 C2277 1.377 . S
C2277 H2261 0.930 . S
C2277 C2276 1.377 . S
C2277 C2278 1.379 . S
C2278 H2262 0.931 . S
C2278 C2272 1.383 . S
C2278 C2277 1.379 . S
H2279 C2273 0.959 . S
H2280 C2273 0.961 . S
H2281 C2273 0.960 . S
H2282 C2274 0.930 . S
H2283 C2275 0.929 . S
H2284 C2292 0.929 . S
H2285 C2294 0.930 . S
H2286 C2296 0.930 1_554 S
H2287 C2299 0.929 . S
H2288 C2302 0.930 . S
H2289 C2304 0.960 . S
H2290 C2304 0.960 . S
H2291 C2304 0.960 . S
C2292 H2284 0.929 . S
C2292 C2293 1.377 . S
C2292 C2294 1.384 . S
C2293 C2292 1.377 . S
C2293 C2299 1.390 . S
C2294 H2285 0.930 . S
C2294 C2292 1.384 . S
C2294 C2295 1.372 . S
C2295 C2294 1.372 . S
C2295 C2296 1.400 . S
C2295 C2300 1.490 . S
C2296 H2286 0.930 1_556 S
C2296 C2295 1.400 . S
C2296 C2299 1.386 . S
H2297 C2313 0.930 . S
H2298 C2314 0.931 . S
C2299 H2287 0.929 . S
C2299 C2293 1.390 . S
C2299 C2296 1.386 . S
C2300 C2295 1.490 . S
C2300 C2302 1.395 . S
C2300 C2303 1.403 1_556 S
H2301 C2307 0.930 . S
C2302 H2288 0.930 . S
C2302 C2300 1.395 . S
C2302 C2305 1.403 . S
C2303 C2300 1.403 1_554 S
C2303 C2304 1.524 . S
C2303 C2307 1.400 . S
C2304 H2289 0.960 . S
C2304 H2290 0.960 . S
C2304 H2291 0.960 . S
C2304 C2303 1.524 . S
C2305 C2302 1.403 . S
C2305 C2306 1.392 1_556 S
C2305 C2309 1.495 . S
C2306 C2305 1.392 1_554 S
C2306 C2307 1.385 . S
C2306 C2308 1.478 . S
C2307 H2301 0.930 . S
C2307 C2303 1.400 . S
C2307 C2306 1.385 . S
C2308 C2306 1.478 . S
C2308 C2310 1.381 . S
C2308 C2314 1.383 . S
C2309 C2305 1.495 . S
C2309 H2315 0.959 . S
C2309 H2316 0.961 . S
C2309 H2317 0.960 . S
C2310 C2308 1.381 . S
C2310 C2311 1.394 . S
C2310 H2318 0.930 1_554 S
C2311 C2310 1.394 . S
C2311 C2312 1.383 . S
C2311 H2319 0.929 . S
C2312 C2311 1.383 . S
C2312 C2313 1.377 . S
C2313 H2297 0.930 . S
C2313 C2312 1.377 . S
C2313 C2314 1.379 . S
C2314 H2298 0.931 . S
C2314 C2308 1.383 . S
C2314 C2313 1.379 . S
H2315 C2309 0.959 . S
H2316 C2309 0.961 . S
H2317 C2309 0.960 . S
H2318 C2310 0.930 1_556 S
H2319 C2311 0.929 . S
H2320 C2328 0.929 . S
H2321 C2330 0.930 . S
H2322 C2332 0.930 . S
H2323 C2335 0.929 . S
H2324 C2338 0.930 . S
H2325 C2340 0.960 . S
H2326 C2340 0.960 . S
H2327 C2340 0.960 . S
C2328 H2320 0.929 . S
C2328 C2329 1.377 . S
C2328 C2330 1.384 . S
C2329 C2328 1.377 . S
C2329 C2335 1.390 . S
C2330 H2321 0.930 . S
C2330 C2328 1.384 . S
C2330 C2331 1.372 . S
C2331 C2330 1.372 . S
C2331 C2332 1.400 . S
C2331 C2336 1.490 . S
C2332 H2322 0.930 . S
C2332 C2331 1.400 . S
C2332 C2335 1.386 . S
H2333 C2349 0.930 . S
H2334 C2350 0.931 . S
C2335 H2323 0.929 . S
C2335 C2329 1.390 . S
C2335 C2332 1.386 . S
C2336 C2331 1.490 . S
C2336 C2338 1.395 . S
C2336 C2339 1.403 . S
H2337 C2343 0.930 . S
C2338 H2324 0.930 . S
C2338 C2336 1.395 . S
C2338 C2341 1.403 . S
C2339 C2336 1.403 . S
C2339 C2340 1.524 . S
C2339 C2343 1.400 . S
C2340 H2325 0.960 . S
C2340 H2326 0.960 . S
C2340 H2327 0.960 . S
C2340 C2339 1.524 . S
C2341 C2338 1.403 . S
C2341 C2342 1.392 . S
C2341 C2345 1.495 . S
C2342 C2341 1.392 . S
C2342 C2343 1.385 . S
C2342 C2344 1.478 . S
C2343 H2337 0.930 . S
C2343 C2339 1.400 . S
C2343 C2342 1.385 . S
C2344 C2342 1.478 . S
C2344 C2346 1.381 . S
C2344 C2350 1.383 . S
C2345 C2341 1.495 . S
C2345 H2351 0.959 . S
C2345 H2352 0.961 . S
C2345 H2353 0.960 . S
C2346 C2344 1.381 . S
C2346 C2347 1.394 . S
C2346 H2354 0.930 . S
C2347 C2346 1.394 . S
C2347 C2348 1.383 . S
C2347 H2355 0.929 . S
C2348 C2347 1.383 . S
C2348 C2349 1.377 . S
C2349 H2333 0.930 . S
C2349 C2348 1.377 . S
C2349 C2350 1.379 . S
C2350 H2334 0.931 . S
C2350 C2344 1.383 . S
C2350 C2349 1.379 . S
H2351 C2345 0.959 . S
H2352 C2345 0.961 . S
H2353 C2345 0.960 . S
H2354 C2346 0.930 . S
H2355 C2347 0.929 . S
H2356 C2364 0.929 . S
H2357 C2366 0.930 . S
H2358 C2368 0.930 . S
H2359 C2371 0.929 . S
H2360 C2374 0.930 . S
H2361 C2376 0.960 . S
H2362 C2376 0.960 . S
H2363 C2376 0.960 . S
C2364 H2356 0.929 . S
C2364 C2365 1.377 . S
C2364 C2366 1.384 . S
C2365 C2364 1.377 . S
C2365 C2371 1.390 . S
C2366 H2357 0.930 . S
C2366 C2364 1.384 . S
C2366 C2367 1.372 . S
C2367 C2366 1.372 . S
C2367 C2368 1.400 . S
C2367 C2372 1.490 . S
C2368 H2358 0.930 . S
C2368 C2367 1.400 . S
C2368 C2371 1.386 . S
H2369 C2385 0.930 . S
H2370 C2386 0.931 . S
C2371 H2359 0.929 . S
C2371 C2365 1.390 . S
C2371 C2368 1.386 . S
C2372 C2367 1.490 . S
C2372 C2374 1.395 . S
C2372 C2375 1.403 . S
H2373 C2379 0.930 . S
C2374 H2360 0.930 . S
C2374 C2372 1.395 . S
C2374 C2377 1.403 . S
C2375 C2372 1.403 . S
C2375 C2376 1.524 . S
C2375 C2379 1.400 . S
C2376 H2361 0.960 . S
C2376 H2362 0.960 . S
C2376 H2363 0.960 . S
C2376 C2375 1.524 . S
C2377 C2374 1.403 . S
C2377 C2378 1.392 . S
C2377 C2381 1.495 . S
C2378 C2377 1.392 . S
C2378 C2379 1.385 . S
C2378 C2380 1.478 . S
C2379 H2373 0.930 . S
C2379 C2375 1.400 . S
C2379 C2378 1.385 . S
C2380 C2378 1.478 . S
C2380 C2382 1.381 . S
C2380 C2386 1.383 . S
C2381 C2377 1.495 . S
C2381 H2387 0.959 . S
C2381 H2388 0.961 . S
C2381 H2389 0.960 . S
C2382 C2380 1.381 . S
C2382 C2383 1.394 . S
C2382 H2390 0.930 . S
C2383 C2382 1.394 . S
C2383 C2384 1.383 . S
C2383 H2391 0.929 . S
C2384 C2383 1.383 . S
C2384 C2385 1.377 . S
C2385 H2369 0.930 . S
C2385 C2384 1.377 . S
C2385 C2386 1.379 . S
C2386 H2370 0.931 . S
C2386 C2380 1.383 . S
C2386 C2385 1.379 . S
H2387 C2381 0.959 . S
H2388 C2381 0.961 . S
H2389 C2381 0.960 . S
H2390 C2382 0.930 . S
H2391 C2383 0.929 . S
H2392 C2400 0.929 . S
H2393 C2402 0.930 . S
H2394 C2404 0.930 . S
H2395 C2407 0.929 . S
H2396 C2410 0.930 . S
H2397 C2412 0.960 . S
H2398 C2412 0.960 . S
H2399 C2412 0.960 . S
C2400 H2392 0.929 . S
C2400 C2401 1.377 . S
C2400 C2402 1.384 . S
C2401 C2400 1.377 . S
C2401 C2407 1.390 . S
C2402 H2393 0.930 . S
C2402 C2400 1.384 . S
C2402 C2403 1.372 . S
C2403 C2402 1.372 . S
C2403 C2404 1.400 . S
C2403 C2408 1.490 . S
C2404 H2394 0.930 . S
C2404 C2403 1.400 . S
C2404 C2407 1.386 . S
H2405 C2421 0.930 . S
H2406 C2422 0.931 . S
C2407 H2395 0.929 . S
C2407 C2401 1.390 . S
C2407 C2404 1.386 . S
C2408 C2403 1.490 . S
C2408 C2410 1.395 . S
C2408 C2411 1.403 . S
H2409 C2415 0.930 . S
C2410 H2396 0.930 . S
C2410 C2408 1.395 . S
C2410 C2413 1.403 . S
C2411 C2408 1.403 . S
C2411 C2412 1.524 . S
C2411 C2415 1.400 . S
C2412 H2397 0.960 . S
C2412 H2398 0.960 . S
C2412 H2399 0.960 . S
C2412 C2411 1.524 . S
C2413 C2410 1.403 . S
C2413 C2414 1.392 . S
C2413 C2417 1.495 . S
C2414 C2413 1.392 . S
C2414 C2415 1.385 . S
C2414 C2416 1.478 . S
C2415 H2409 0.930 . S
C2415 C2411 1.400 . S
C2415 C2414 1.385 . S
C2416 C2414 1.478 . S
C2416 C2418 1.381 . S
C2416 C2422 1.383 . S
C2417 C2413 1.495 . S
C2417 H2423 0.959 . S
C2417 H2424 0.961 . S
C2417 H2425 0.960 . S
C2418 C2416 1.381 . S
C2418 C2419 1.394 . S
C2418 H2426 0.930 . S
C2419 C2418 1.394 . S
C2419 C2420 1.383 . S
C2419 H2427 0.929 . S
C2420 C2419 1.383 . S
C2420 C2421 1.377 . S
C2421 H2405 0.930 . S
C2421 C2420 1.377 . S
C2421 C2422 1.379 . S
C2422 H2406 0.931 . S
C2422 C2416 1.383 . S
C2422 C2421 1.379 . S
H2423 C2417 0.959 . S
H2424 C2417 0.961 . S
H2425 C2417 0.960 . S
H2426 C2418 0.930 . S
H2427 C2419 0.929 . S
H2428 C2436 0.929 . S
H2429 C2438 0.930 1_556 S
H2430 C2440 0.930 . S
H2431 C2443 0.929 . S
H2432 C2446 0.930 . S
H2433 C2448 0.960 . S
H2434 C2448 0.960 . S
H2435 C2448 0.960 . S
C2436 H2428 0.929 . S
C2436 C2437 1.377 . S
C2436 C2438 1.384 . S
C2437 C2436 1.377 . S
C2437 C2443 1.390 . S
C2438 H2429 0.930 1_554 S
C2438 C2436 1.384 . S
C2438 C2439 1.372 . S
C2439 C2438 1.372 . S
C2439 C2440 1.400 . S
C2439 C2444 1.490 . S
C2440 H2430 0.930 . S
C2440 C2439 1.400 . S
C2440 C2443 1.386 . S
H2441 C2457 0.930 . S
H2442 C2458 0.931 . S
C2443 H2431 0.929 . S
C2443 C2437 1.390 . S
C2443 C2440 1.386 . S
C2444 C2439 1.490 . S
C2444 C2446 1.395 1_554 S
C2444 C2447 1.403 . S
H2445 C2451 0.930 . S
C2446 H2432 0.930 . S
C2446 C2444 1.395 1_556 S
C2446 C2449 1.403 . S
C2447 C2444 1.403 . S
C2447 C2448 1.524 . S
C2447 C2451 1.400 . S
C2448 H2433 0.960 . S
C2448 H2434 0.960 . S
C2448 H2435 0.960 . S
C2448 C2447 1.524 . S
C2449 C2446 1.403 . S
C2449 C2450 1.392 . S
C2449 C2453 1.495 . S
C2450 C2449 1.392 . S
C2450 C2451 1.385 1_556 S
C2450 C2452 1.478 . S
C2451 H2445 0.930 . S
C2451 C2447 1.400 . S
C2451 C2450 1.385 1_554 S
C2452 C2450 1.478 . S
C2452 C2454 1.381 . S
C2452 C2458 1.383 . S
C2453 C2449 1.495 . S
C2453 H2459 0.959 . S
C2453 H2460 0.961 . S
C2453 H2461 0.960 . S
C2454 C2452 1.381 . S
C2454 C2455 1.394 . S
C2454 H2462 0.930 . S
C2455 C2454 1.394 . S
C2455 C2456 1.383 . S
C2455 H2463 0.929 . S
C2456 C2455 1.383 . S
C2456 C2457 1.377 . S
C2457 H2441 0.930 . S
C2457 C2456 1.377 . S
C2457 C2458 1.379 . S
C2458 H2442 0.931 . S
C2458 C2452 1.383 . S
C2458 C2457 1.379 . S
H2459 C2453 0.959 . S
H2460 C2453 0.961 . S
H2461 C2453 0.960 . S
H2462 C2454 0.930 . S
H2463 C2455 0.929 . S
H2464 C2472 0.929 . S
H2465 C2474 0.930 . S
H2466 C2476 0.930 . S
H2467 C2479 0.929 . S
H2468 C2482 0.930 . S
H2469 C2484 0.960 1_545 S
H2470 C2484 0.960 . S
H2471 C2484 0.960 . S
C2472 H2464 0.929 . S
C2472 C2473 1.377 . S
C2472 C2474 1.384 . S
C2473 C2472 1.377 . S
C2473 C2479 1.390 . S
C2474 H2465 0.930 . S
C2474 C2472 1.384 . S
C2474 C2475 1.372 . S
C2475 C2474 1.372 . S
C2475 C2476 1.400 . S
C2475 C2480 1.490 . S
C2476 H2466 0.930 . S
C2476 C2475 1.400 . S
C2476 C2479 1.386 . S
H2477 C2493 0.930 . S
H2478 C2494 0.931 . S
C2479 H2467 0.929 . S
C2479 C2473 1.390 . S
C2479 C2476 1.386 . S
C2480 C2475 1.490 . S
C2480 C2482 1.395 . S
C2480 C2483 1.403 . S
H2481 C2487 0.930 . S
C2482 H2468 0.930 . S
C2482 C2480 1.395 . S
C2482 C2485 1.403 1_565 S
C2483 C2480 1.403 . S
C2483 C2484 1.524 . S
C2483 C2487 1.400 1_565 S
C2484 H2469 0.960 1_565 S
C2484 H2470 0.960 . S
C2484 H2471 0.960 . S
C2484 C2483 1.524 . S
C2485 C2482 1.403 1_545 S
C2485 C2486 1.392 . S
C2485 C2489 1.495 . S
C2486 C2485 1.392 . S
C2486 C2487 1.385 . S
C2486 C2488 1.478 . S
C2487 H2481 0.930 . S
C2487 C2483 1.400 1_545 S
C2487 C2486 1.385 . S
C2488 C2486 1.478 . S
C2488 C2490 1.381 . S
C2488 C2494 1.383 . S
C2489 C2485 1.495 . S
C2489 H2495 0.959 1_545 S
C2489 H2496 0.961 . S
C2489 H2497 0.960 . S
C2490 C2488 1.381 . S
C2490 C2491 1.394 . S
C2490 H2498 0.930 . S
C2491 C2490 1.394 . S
C2491 C2492 1.383 . S
C2491 H2499 0.929 . S
C2492 C2491 1.383 . S
C2492 C2493 1.377 . S
C2493 H2477 0.930 . S
C2493 C2492 1.377 . S
C2493 C2494 1.379 . S
C2494 H2478 0.931 . S
C2494 C2488 1.383 . S
C2494 C2493 1.379 . S
H2495 C2489 0.959 1_565 S
H2496 C2489 0.961 . S
H2497 C2489 0.960 . S
H2498 C2490 0.930 . S
H2499 C2491 0.929 . S
H2500 C2508 0.929 . S
H2501 C2510 0.930 1_556 S
H2502 C2512 0.930 . S
H2503 C2515 0.929 . S
H2504 C2518 0.930 . S
H2505 C2520 0.960 . S
H2506 C2520 0.960 . S
H2507 C2520 0.960 . S
C2508 H2500 0.929 . S
C2508 C2509 1.377 . S
C2508 C2510 1.384 . S
C2509 C2508 1.377 . S
C2509 C2515 1.390 . S
C2510 H2501 0.930 1_554 S
C2510 C2508 1.384 . S
C2510 C2511 1.372 . S
C2511 C2510 1.372 . S
C2511 C2512 1.400 . S
C2511 C2516 1.490 . S
C2512 H2502 0.930 . S
C2512 C2511 1.400 . S
C2512 C2515 1.386 . S
H2513 C2529 0.930 . S
H2514 C2530 0.931 1_554 S
C2515 H2503 0.929 . S
C2515 C2509 1.390 . S
C2515 C2512 1.386 . S
C2516 C2511 1.490 . S
C2516 C2518 1.395 1_554 S
C2516 C2519 1.403 . S
H2517 C2523 0.930 . S
C2518 H2504 0.930 . S
C2518 C2516 1.395 1_556 S
C2518 C2521 1.403 . S
C2519 C2516 1.403 . S
C2519 C2520 1.524 . S
C2519 C2523 1.400 . S
C2520 H2505 0.960 . S
C2520 H2506 0.960 . S
C2520 H2507 0.960 . S
C2520 C2519 1.524 . S
C2521 C2518 1.403 . S
C2521 C2522 1.392 . S
C2521 C2525 1.495 . S
C2522 C2521 1.392 . S
C2522 C2523 1.385 1_556 S
C2522 C2524 1.478 . S
C2523 H2517 0.930 . S
C2523 C2519 1.400 . S
C2523 C2522 1.385 1_554 S
C2524 C2522 1.478 . S
C2524 C2526 1.381 . S
C2524 C2530 1.383 . S
C2525 C2521 1.495 . S
C2525 H2531 0.959 . S
C2525 H2532 0.961 . S
C2525 H2533 0.960 . S
C2526 C2524 1.381 . S
C2526 C2527 1.394 . S
C2526 H2534 0.930 . S
C2527 C2526 1.394 . S
C2527 C2528 1.383 . S
C2527 H2535 0.929 . S
C2528 C2527 1.383 . S
C2528 C2529 1.377 . S
C2529 H2513 0.930 . S
C2529 C2528 1.377 . S
C2529 C2530 1.379 . S
C2530 H2514 0.931 1_556 S
C2530 C2524 1.383 . S
C2530 C2529 1.379 . S
H2531 C2525 0.959 . S
H2532 C2525 0.961 . S
H2533 C2525 0.960 . S
H2534 C2526 0.930 . S
H2535 C2527 0.929 . S
H2536 C2544 0.929 . S
H2537 C2546 0.930 . S
H2538 C2548 0.930 . S
H2539 C2551 0.929 . S
H2540 C2554 0.930 . S
H2541 C2556 0.960 . S
H2542 C2556 0.960 . S
H2543 C2556 0.960 . S
C2544 H2536 0.929 . S
C2544 C2545 1.377 . S
C2544 C2546 1.384 . S
C2545 C2544 1.377 . S
C2545 C2551 1.390 . S
C2546 H2537 0.930 . S
C2546 C2544 1.384 . S
C2546 C2547 1.372 . S
C2547 C2546 1.372 . S
C2547 C2548 1.400 . S
C2547 C2552 1.490 . S
C2548 H2538 0.930 . S
C2548 C2547 1.400 . S
C2548 C2551 1.386 . S
H2549 C2565 0.930 . S
H2550 C2566 0.931 . S
C2551 H2539 0.929 . S
C2551 C2545 1.390 . S
C2551 C2548 1.386 . S
C2552 C2547 1.490 . S
C2552 C2554 1.395 . S
C2552 C2555 1.403 . S
H2553 C2559 0.930 . S
C2554 H2540 0.930 . S
C2554 C2552 1.395 . S
C2554 C2557 1.403 1_545 S
C2555 C2552 1.403 . S
C2555 C2556 1.524 . S
C2555 C2559 1.400 1_545 S
C2556 H2541 0.960 . S
C2556 H2542 0.960 . S
C2556 H2543 0.960 . S
C2556 C2555 1.524 . S
C2557 C2554 1.403 1_565 S
C2557 C2558 1.392 . S
C2557 C2561 1.495 . S
C2558 C2557 1.392 . S
C2558 C2559 1.385 . S
C2558 C2560 1.478 . S
C2559 H2553 0.930 . S
C2559 C2555 1.400 1_565 S
C2559 C2558 1.385 . S
C2560 C2558 1.478 . S
C2560 C2562 1.381 . S
C2560 C2566 1.383 . S
C2561 C2557 1.495 . S
C2561 H2567 0.959 . S
C2561 H2568 0.961 . S
C2561 H2569 0.960 . S
C2562 C2560 1.381 . S
C2562 C2563 1.394 . S
C2562 H2570 0.930 . S
C2563 C2562 1.394 . S
C2563 C2564 1.383 . S
C2563 H2571 0.929 . S
C2564 C2563 1.383 . S
C2564 C2565 1.377 . S
C2565 H2549 0.930 . S
C2565 C2564 1.377 . S
C2565 C2566 1.379 . S
C2566 H2550 0.931 . S
C2566 C2560 1.383 . S
C2566 C2565 1.379 . S
H2567 C2561 0.959 . S
H2568 C2561 0.961 . S
H2569 C2561 0.960 . S
H2570 C2562 0.930 . S
H2571 C2563 0.929 . S
H2572 C2580 0.929 . S
H2573 C2582 0.930 . S
H2574 C2584 0.930 . S
H2575 C2587 0.929 . S
H2576 C2590 0.930 . S
H2577 C2592 0.960 . S
H2578 C2592 0.960 . S
H2579 C2592 0.960 . S
C2580 H2572 0.929 . S
C2580 C2581 1.377 . S
C2580 C2582 1.384 . S
C2581 C2580 1.377 . S
C2581 C2587 1.390 . S
C2582 H2573 0.930 . S
C2582 C2580 1.384 . S
C2582 C2583 1.372 . S
C2583 C2582 1.372 . S
C2583 C2584 1.400 . S
C2583 C2588 1.490 . S
C2584 H2574 0.930 . S
C2584 C2583 1.400 . S
C2584 C2587 1.386 . S
H2585 C2601 0.930 . S
H2586 C2602 0.931 . S
C2587 H2575 0.929 . S
C2587 C2581 1.390 . S
C2587 C2584 1.386 . S
C2588 C2583 1.490 . S
C2588 C2590 1.395 . S
C2588 C2591 1.403 . S
H2589 C2595 0.930 . S
C2590 H2576 0.930 . S
C2590 C2588 1.395 . S
C2590 C2593 1.403 . S
C2591 C2588 1.403 . S
C2591 C2592 1.524 . S
C2591 C2595 1.400 . S
C2592 H2577 0.960 . S
C2592 H2578 0.960 . S
C2592 H2579 0.960 . S
C2592 C2591 1.524 . S
C2593 C2590 1.403 . S
C2593 C2594 1.392 . S
C2593 C2597 1.495 . S
C2594 C2593 1.392 . S
C2594 C2595 1.385 . S
C2594 C2596 1.478 . S
C2595 H2589 0.930 . S
C2595 C2591 1.400 . S
C2595 C2594 1.385 . S
C2596 C2594 1.478 . S
C2596 C2598 1.381 . S
C2596 C2602 1.383 . S
C2597 C2593 1.495 . S
C2597 H2603 0.959 . S
C2597 H2604 0.961 . S
C2597 H2605 0.960 . S
C2598 C2596 1.381 . S
C2598 C2599 1.394 . S
C2598 H2606 0.930 . S
C2599 C2598 1.394 . S
C2599 C2600 1.383 . S
C2599 H2607 0.929 . S
C2600 C2599 1.383 . S
C2600 C2601 1.377 . S
C2601 H2585 0.930 . S
C2601 C2600 1.377 . S
C2601 C2602 1.379 . S
C2602 H2586 0.931 . S
C2602 C2596 1.383 . S
C2602 C2601 1.379 . S
H2603 C2597 0.959 . S
H2604 C2597 0.961 . S
H2605 C2597 0.960 . S
H2606 C2598 0.930 . S
H2607 C2599 0.929 . S
H2608 C2616 0.929 . S
H2609 C2618 0.930 . S
H2610 C2620 0.930 . S
H2611 C2623 0.929 . S
H2612 C2626 0.930 . S
H2613 C2628 0.960 . S
H2614 C2628 0.960 . S
H2615 C2628 0.960 . S
C2616 H2608 0.929 . S
C2616 C2617 1.377 . S
C2616 C2618 1.384 . S
C2617 C2616 1.377 . S
C2617 C2623 1.390 . S
C2618 H2609 0.930 . S
C2618 C2616 1.384 . S
C2618 C2619 1.372 . S
C2619 C2618 1.372 . S
C2619 C2620 1.400 . S
C2619 C2624 1.490 . S
C2620 H2610 0.930 . S
C2620 C2619 1.400 . S
C2620 C2623 1.386 . S
H2621 C2637 0.930 . S
H2622 C2638 0.931 . S
C2623 H2611 0.929 . S
C2623 C2617 1.390 . S
C2623 C2620 1.386 . S
C2624 C2619 1.490 . S
C2624 C2626 1.395 . S
C2624 C2627 1.403 . S
H2625 C2631 0.930 . S
C2626 H2612 0.930 . S
C2626 C2624 1.395 . S
C2626 C2629 1.403 1_545 S
C2627 C2624 1.403 . S
C2627 C2628 1.524 . S
C2627 C2631 1.400 1_545 S
C2628 H2613 0.960 . S
C2628 H2614 0.960 . S
C2628 H2615 0.960 . S
C2628 C2627 1.524 . S
C2629 C2626 1.403 1_565 S
C2629 C2630 1.392 . S
C2629 C2633 1.495 . S
C2630 C2629 1.392 . S
C2630 C2631 1.385 . S
C2630 C2632 1.478 . S
C2631 H2625 0.930 . S
C2631 C2627 1.400 1_565 S
C2631 C2630 1.385 . S
C2632 C2630 1.478 . S
C2632 C2634 1.381 . S
C2632 C2638 1.383 . S
C2633 C2629 1.495 . S
C2633 H2639 0.959 . S
C2633 H2640 0.961 . S
C2633 H2641 0.960 . S
C2634 C2632 1.381 . S
C2634 C2635 1.394 . S
C2634 H2642 0.930 . S
C2635 C2634 1.394 . S
C2635 C2636 1.383 . S
C2635 H2643 0.929 . S
C2636 C2635 1.383 . S
C2636 C2637 1.377 . S
C2637 H2621 0.930 . S
C2637 C2636 1.377 . S
C2637 C2638 1.379 . S
C2638 H2622 0.931 . S
C2638 C2632 1.383 . S
C2638 C2637 1.379 . S
H2639 C2633 0.959 . S
H2640 C2633 0.961 . S
H2641 C2633 0.960 . S
H2642 C2634 0.930 . S
H2643 C2635 0.929 . S
H2644 C2652 0.929 . S
H2645 C2654 0.930 . S
H2646 C2656 0.930 . S
H2647 C2659 0.929 . S
H2648 C2662 0.930 . S
H2649 C2664 0.960 . S
H2650 C2664 0.960 . S
H2651 C2664 0.960 . S
C2652 H2644 0.929 . S
C2652 C2653 1.377 . S
C2652 C2654 1.384 . S
C2653 C2652 1.377 . S
C2653 C2659 1.390 . S
C2654 H2645 0.930 . S
C2654 C2652 1.384 . S
C2654 C2655 1.372 . S
C2655 C2654 1.372 . S
C2655 C2656 1.400 . S
C2655 C2660 1.490 . S
C2656 H2646 0.930 . S
C2656 C2655 1.400 . S
C2656 C2659 1.386 . S
H2657 C2673 0.930 . S
H2658 C2674 0.931 . S
C2659 H2647 0.929 . S
C2659 C2653 1.390 . S
C2659 C2656 1.386 . S
C2660 C2655 1.490 . S
C2660 C2662 1.395 1_554 S
C2660 C2663 1.403 . S
H2661 C2667 0.930 . S
C2662 H2648 0.930 . S
C2662 C2660 1.395 1_556 S
C2662 C2665 1.403 . S
C2663 C2660 1.403 . S
C2663 C2664 1.524 . S
C2663 C2667 1.400 . S
C2664 H2649 0.960 . S
C2664 H2650 0.960 . S
C2664 H2651 0.960 . S
C2664 C2663 1.524 . S
C2665 C2662 1.403 . S
C2665 C2666 1.392 . S
C2665 C2669 1.495 . S
C2666 C2665 1.392 . S
C2666 C2667 1.385 1_556 S
C2666 C2668 1.478 . S
C2667 H2661 0.930 . S
C2667 C2663 1.400 . S
C2667 C2666 1.385 1_554 S
C2668 C2666 1.478 . S
C2668 C2670 1.381 . S
C2668 C2674 1.383 . S
C2669 C2665 1.495 . S
C2669 H2675 0.959 . S
C2669 H2676 0.961 . S
C2669 H2677 0.960 . S
C2670 C2668 1.381 . S
C2670 C2671 1.394 . S
C2670 H2678 0.930 . S
C2671 C2670 1.394 . S
C2671 C2672 1.383 . S
C2671 H2679 0.929 . S
C2672 C2671 1.383 . S
C2672 C2673 1.377 . S
C2673 H2657 0.930 . S
C2673 C2672 1.377 . S
C2673 C2674 1.379 . S
C2674 H2658 0.931 . S
C2674 C2668 1.383 . S
C2674 C2673 1.379 . S
H2675 C2669 0.959 . S
H2676 C2669 0.961 . S
H2677 C2669 0.960 . S
H2678 C2670 0.930 . S
H2679 C2671 0.929 . S
H2680 C2688 0.929 . S
H2681 C2690 0.930 . S
H2682 C2692 0.930 . S
H2683 C2695 0.929 . S
H2684 C2698 0.930 . S
H2685 C2700 0.960 . S
H2686 C2700 0.960 . S
H2687 C2700 0.960 . S
C2688 H2680 0.929 . S
C2688 C2689 1.377 . S
C2688 C2690 1.384 . S
C2689 C2688 1.377 . S
C2689 C2695 1.390 . S
C2690 H2681 0.930 . S
C2690 C2688 1.384 . S
C2690 C2691 1.372 . S
C2691 C2690 1.372 . S
C2691 C2692 1.400 . S
C2691 C2696 1.490 . S
C2692 H2682 0.930 . S
C2692 C2691 1.400 . S
C2692 C2695 1.386 . S
H2693 C2709 0.930 . S
H2694 C2710 0.931 . S
C2695 H2683 0.929 . S
C2695 C2689 1.390 . S
C2695 C2692 1.386 . S
C2696 C2691 1.490 . S
C2696 C2698 1.395 . S
C2696 C2699 1.403 . S
H2697 C2703 0.930 . S
C2698 H2684 0.930 . S
C2698 C2696 1.395 . S
C2698 C2701 1.403 1_545 S
C2699 C2696 1.403 . S
C2699 C2700 1.524 . S
C2699 C2703 1.400 1_545 S
C2700 H2685 0.960 . S
C2700 H2686 0.960 . S
C2700 H2687 0.960 . S
C2700 C2699 1.524 . S
C2701 C2698 1.403 1_565 S
C2701 C2702 1.392 . S
C2701 C2705 1.495 . S
C2702 C2701 1.392 . S
C2702 C2703 1.385 . S
C2702 C2704 1.478 . S
C2703 H2697 0.930 . S
C2703 C2699 1.400 1_565 S
C2703 C2702 1.385 . S
C2704 C2702 1.478 . S
C2704 C2706 1.381 . S
C2704 C2710 1.383 . S
C2705 C2701 1.495 . S
C2705 H2711 0.959 . S
C2705 H2712 0.961 . S
C2705 H2713 0.960 . S
C2706 C2704 1.381 . S
C2706 C2707 1.394 . S
C2706 H2714 0.930 . S
C2707 C2706 1.394 . S
C2707 C2708 1.383 . S
C2707 H2715 0.929 . S
C2708 C2707 1.383 . S
C2708 C2709 1.377 . S
C2709 H2693 0.930 . S
C2709 C2708 1.377 . S
C2709 C2710 1.379 . S
C2710 H2694 0.931 . S
C2710 C2704 1.383 . S
C2710 C2709 1.379 . S
H2711 C2705 0.959 . S
H2712 C2705 0.961 . S
H2713 C2705 0.960 . S
H2714 C2706 0.930 . S
H2715 C2707 0.929 . S
H2716 C2724 0.929 . S
H2717 C2726 0.930 . S
H2718 C2728 0.930 . S
H2719 C2731 0.929 . S
H2720 C2734 0.930 . S
H2721 C2736 0.960 . S
H2722 C2736 0.960 . S
H2723 C2736 0.960 . S
C2724 H2716 0.929 . S
C2724 C2725 1.377 . S
C2724 C2726 1.384 . S
C2725 C2724 1.377 . S
C2725 C2731 1.390 . S
C2726 H2717 0.930 . S
C2726 C2724 1.384 . S
C2726 C2727 1.372 . S
C2727 C2726 1.372 . S
C2727 C2728 1.400 . S
C2727 C2732 1.490 . S
C2728 H2718 0.930 . S
C2728 C2727 1.400 . S
C2728 C2731 1.386 . S
H2729 C2745 0.930 . S
H2730 C2746 0.931 . S
C2731 H2719 0.929 . S
C2731 C2725 1.390 . S
C2731 C2728 1.386 . S
C2732 C2727 1.490 . S
C2732 C2734 1.395 . S
C2732 C2735 1.403 . S
H2733 C2739 0.930 . S
C2734 H2720 0.930 . S
C2734 C2732 1.395 . S
C2734 C2737 1.403 . S
C2735 C2732 1.403 . S
C2735 C2736 1.524 . S
C2735 C2739 1.400 . S
C2736 H2721 0.960 . S
C2736 H2722 0.960 . S
C2736 H2723 0.960 . S
C2736 C2735 1.524 . S
C2737 C2734 1.403 . S
C2737 C2738 1.392 . S
C2737 C2741 1.495 . S
C2738 C2737 1.392 . S
C2738 C2739 1.385 . S
C2738 C2740 1.478 . S
C2739 H2733 0.930 . S
C2739 C2735 1.400 . S
C2739 C2738 1.385 . S
C2740 C2738 1.478 . S
C2740 C2742 1.381 . S
C2740 C2746 1.383 . S
C2741 C2737 1.495 . S
C2741 H2747 0.959 . S
C2741 H2748 0.961 . S
C2741 H2749 0.960 . S
C2742 C2740 1.381 . S
C2742 C2743 1.394 . S
C2742 H2750 0.930 . S
C2743 C2742 1.394 . S
C2743 C2744 1.383 . S
C2743 H2751 0.929 . S
C2744 C2743 1.383 . S
C2744 C2745 1.377 . S
C2745 H2729 0.930 . S
C2745 C2744 1.377 . S
C2745 C2746 1.379 . S
C2746 H2730 0.931 . S
C2746 C2740 1.383 . S
C2746 C2745 1.379 . S
H2747 C2741 0.959 . S
H2748 C2741 0.961 . S
H2749 C2741 0.960 . S
H2750 C2742 0.930 . S
H2751 C2743 0.929 . S
C457 C9 1.331 . S
C476 C303 1.323 . S
C493 C317 1.331 . S
C512 C23 1.321 . S
C529 C37 1.329 . S
C548 C331 1.331 . S
C565 C289 1.332 . S
C584 C51 1.322 . S
C601 C65 1.331 . S
C620 C275 1.321 . S
C637 C79 1.331 . S
C656 C233 1.321 . S
C673 C247 1.332 . S
C692 C93 1.330 . S
C709 C107 1.329 . S
C728 C261 1.333 . S
C745 C121 1.330 . S
C764 C415 1.335 . S
C781 C135 1.332 . S
C800 C429 1.330 . S
C817 C443 1.331 . S
C836 C149 1.322 . S
C853 C401 1.332 . S
C872 C163 1.325 . S
C889 C177 1.332 . S
C908 C387 1.323 . S
C925 C345 1.329 . S
C944 C191 1.331 . S
C961 C205 1.330 . S
C980 C359 1.325 . S
C997 C373 1.331 . S
C1016 C219 1.321 . S
C1033 C5 1.281 . S
C1052 C126 1.292 . S
C1069 C19 1.281 . S
C1088 C364 1.279 . S
C1105 C154 1.281 . S
C1124 C33 1.299 . S
C1141 C47 1.281 . S
C1160 C336 1.293 . S
C1177 C61 1.281 . S
C1196 C210 1.290 . S
C1213 C392 1.287 . S
C1232 C75 1.261 . S
C1249 C182 1.288 . S
C1268 C89 1.260 . S
C1285 C420 1.289 . S
C1304 C103 1.263 . S
C1321 C117 1.286 . S
C1340 C14 1.288 . S
C1357 C252 1.283 . S
C1376 C131 1.260 . S
C1393 C42 1.286 . S
C1412 C145 1.299 . S
C1429 C159 1.278 . S
C1448 C224 1.287 . S
C1465 C98 1.284 . S
C1484 C173 1.297 . S
C1501 C280 1.281 . S
C1520 C187 1.277 . S
C1537 C70 1.288 . S
C1556 C201 1.270 . S
C1573 C215 1.284 . S
C1592 C308 1.270 . S
C1609 C350 1.284 . S
C1628 C229 1.291 . S
C1645 C140 1.282 . S
C1664 C243 1.292 . S
C1681 C378 1.285 . S
C1700 C257 1.289 . S
C1717 C271 1.281 . S
C1736 C112 1.294 . S
C1753 C434 1.284 . S
C1772 C285 1.275 . S
C1789 C168 1.286 . S
C1808 C299 1.282 . S
C1825 C406 1.282 . S
C1844 C313 1.297 . S
C1861 C327 1.280 . S
C1880 C196 1.296 . S
C1897 C341 1.285 . S
C1916 C238 1.295 . S
C1933 C28 1.285 . S
C1952 C355 1.259 . S
C1969 C369 1.285 . S
C1988 C266 1.298 . S
C2005 C383 1.282 . S
C2024 C0 1.264 . S
C2041 C397 1.283 . S
C2060 C322 1.266 . S
C2077 C56 1.286 . S
C2096 C411 1.260 . S
C2113 C294 1.285 . S
C2132 C425 1.259 . S
C2149 C439 1.277 . S
C2168 C84 1.275 . S
C2185 C11 1.179 . S
C2204 C67 1.194 . S
C2221 C25 1.181 . S
C2240 C81 1.173 . S
C2257 C95 1.178 . S
C2276 C39 1.192 . S
C2293 C109 1.178 . S
C2312 C53 1.160 . S
C2329 C179 1.181 . S
C2348 C123 1.193 . S
C2365 C193 1.178 . S
C2384 C137 1.161 . S
C2401 C207 1.178 . S
C2420 C151 1.191 . S
C2437 C221 1.179 . S
C2456 C165 1.192 . S
C2473 C235 1.180 . S
C2492 C291 1.193 . S
C2509 C249 1.178 . S
C2528 C305 1.192 . S
C2545 C263 1.175 . S
C2564 C319 1.182 . S
C2581 C333 1.177 . S
C2600 C277 1.189 . S
C2617 C347 1.179 . S
C2636 C403 1.164 . S
C2653 C417 1.181 . S
C2672 C361 1.193 . S
C2689 C431 1.174 . S
C2708 C375 1.170 . S
C2725 C445 1.179 . S
C2744 C389 1.192 . S
