# Generated by pormake.
# Topology soe, (5)-cn, num edge types: 1
# Building blocks:
#     Node 0, Type 0, BuildingBlock: XOMCOT_clean_sbu_0, # of connection points: 5
#     Node 1, Type 0, BuildingBlock: XOMCOT_clean_sbu_0, # of connection points: 5
#     Node 2, Type 0, BuildingBlock: XOMCOT_clean_sbu_0, # of connection points: 5
#     Node 3, Type 0, BuildingBlock: XOMCOT_clean_sbu_0, # of connection points: 5
#     Node 4, Type 0, BuildingBlock: XOMCOT_clean_sbu_0, # of connection points: 5
#     Node 5, Type 0, BuildingBlock: XOMCOT_clean_sbu_0, # of connection points: 5
#     Node 6, Type 0, BuildingBlock: XOMCOT_clean_sbu_0, # of connection points: 5
#     Node 7, Type 0, BuildingBlock: XOMCOT_clean_sbu_0, # of connection points: 5
#     Edge 8, Type (0, 0), None
#     Edge 9, Type (0, 0), None
#     Edge 10, Type (0, 0), None
#     Edge 11, Type (0, 0), None
#     Edge 12, Type (0, 0), None
#     Edge 13, Type (0, 0), None
#     Edge 14, Type (0, 0), None
#     Edge 15, Type (0, 0), None
#     Edge 16, Type (0, 0), None
#     Edge 17, Type (0, 0), None
#     Edge 18, Type (0, 0), None
#     Edge 19, Type (0, 0), None
#     Edge 20, Type (0, 0), None
#     Edge 21, Type (0, 0), None
#     Edge 22, Type (0, 0), None
#     Edge 23, Type (0, 0), None
#     Edge 24, Type (0, 0), None
#     Edge 25, Type (0, 0), None
#     Edge 26, Type (0, 0), None
#     Edge 27, Type (0, 0), None
# Relax obj value: 0.050
# Max RMSD: 0.069
# Mean RMSD: 0.069
data_MOF--net-soe--node1-XOMCOT_clean_sbu_0--edge1-none
_symmetry_space_group_name_H-M    P1
_symmetry_Int_Tables_number       1
_symmetry_cell_setting            triclinic
loop_
_symmetry_equiv_pos_as_xyz
'x, y, z'
_cell_length_a     30.949444
_cell_length_b     19.558794
_cell_length_c     9.1986379
_cell_angle_alpha  90.003166
_cell_angle_beta   90.00447
_cell_angle_gamma 89.99989
loop_
_atom_site_label
_atom_site_type_symbol
_atom_site_fract_x
_atom_site_fract_y
_atom_site_fract_z
_atom_type_partial_charge
Co0 Co 0.07309 0.12997 0.15411 0.0
C1 C 0.09017 0.12651 0.8451 0.0
C2 C 0.05151 0.21336 0.9016 0.0
C3 C 0.04734 0.20196 0.75456 0.0
N4 N 0.07839 0.16602 0.95904 0.0
N5 N 0.07107 0.14654 0.72074 0.0
H6 H 0.10726 0.07876 0.85644 0.0
H7 H 0.03138 0.24746 0.9647 0.0
C8 C 0.09077 0.28386 0.22149 0.0
O9 O 0.09825 0.3031 0.08725 0.0
N10 N 0.06688 0.09404 0.34883 0.0
C11 C 0.08874 1.04142 0.40897 0.0
C12 C 0.09069 1.05114 0.55753 0.0
C13 C 0.05406 0.13299 0.46202 0.0
N14 N 0.06951 0.10949 0.58906 0.0
C15 C 0.14726 1.0448 0.10912 0.0
C16 C 0.20926 0.1341 0.21104 0.0
C17 C 0.22208 0.0694 0.16202 0.0
C18 C 0.19042 1.02447 0.11105 0.0
C19 C 0.16557 0.15229 0.20878 0.0
N20 N 0.1349 0.10801 0.15746 0.0
H21 H 0.12374 1.00864 0.06988 0.0
H22 H 0.15726 0.20187 0.25 0.0
H23 H 0.10572 1.00228 0.34912 0.0
H24 H 0.03785 0.18162 0.45012 0.0
O25 O 0.05122 1.04602 0.06868 0.0
O26 O 0.01067 0.13425 0.13229 0.0
O27 O 0.08246 0.22178 0.25217 0.0
C28 C 0.01352 0.07479 0.06929 0.0
H29 H 0.02518 0.22793 0.68228 0.0
H30 H 0.10899 1.0206 0.63379 0.0
H31 H 0.23275 0.17012 0.25293 0.0
H32 H 0.19896 0.97415 0.07106 0.0
Co33 Co 0.41721 0.9885 0.15409 0.0
C34 C 0.40013 0.99196 0.84508 0.0
C35 C 0.43878 0.90511 0.90158 0.0
C36 C 0.44296 0.9165 0.75454 0.0
N37 N 0.41191 0.95245 0.95902 0.0
N38 N 0.41923 0.97193 0.72072 0.0
H39 H 0.38304 1.03972 0.85642 0.0
H40 H 0.45891 0.871 0.96468 0.0
C41 C 0.39953 0.83461 0.22146 0.0
O42 O 0.39205 0.81537 0.08722 0.0
N43 N 0.42343 1.02443 0.34882 0.0
C44 C 0.40157 0.07705 0.40897 0.0
C45 C 0.39961 0.06733 0.55753 0.0
C46 C 0.43624 0.98548 0.46201 0.0
N47 N 0.4208 1.00898 0.58906 0.0
C48 C 0.34304 0.07367 0.10911 0.0
C49 C 0.28105 0.98436 0.21102 0.0
C50 C 0.26822 1.04906 0.16201 0.0
C51 C 0.29987 0.09399 0.11104 0.0
C52 C 0.32474 0.96618 0.20876 0.0
N53 N 0.3554 1.01045 0.15744 0.0
H54 H 0.36655 0.10983 0.06987 0.0
H55 H 0.33304 0.9166 0.24997 0.0
H56 H 0.38459 0.1162 0.34912 0.0
H57 H 0.45246 0.93686 0.45012 0.0
O58 O 0.43907 0.07245 0.06869 0.0
O59 O 0.47963 0.98423 0.13228 0.0
O60 O 0.40785 0.89669 0.25214 0.0
C61 C 0.47677 1.04369 0.06929 0.0
H62 H 0.46511 0.89053 0.68227 0.0
H63 H 0.38131 0.09787 0.63378 0.0
H64 H 0.25755 0.94834 0.25291 0.0
H65 H 0.29133 0.14431 0.07106 0.0
Co66 Co 0.07309 0.4885 0.40813 0.0
C67 C 0.09017 0.49196 0.71714 0.0
C68 C 0.05152 0.40511 0.66062 0.0
C69 C 0.04734 0.4165 0.80767 0.0
N70 N 0.07839 0.45245 0.6032 0.0
N71 N 0.07107 0.47193 0.8415 0.0
H72 H 0.10726 0.53972 0.70582 0.0
H73 H 0.03139 0.371 0.59751 0.0
C74 C 0.09078 0.33462 0.34075 0.0
O75 O 0.09827 0.31538 0.47499 0.0
N76 N 0.06687 0.52443 0.21341 0.0
C77 C 0.08873 0.57705 0.15328 0.0
C78 C 0.09068 0.56733 1.00472 0.0
C79 C 0.05405 0.48548 0.10021 0.0
N80 N 0.0695 0.50898 0.97318 0.0
C81 C 0.14726 0.57366 0.45317 0.0
C82 C 0.20925 0.48438 0.35113 0.0
C83 C 0.22207 0.54907 0.40021 0.0
C84 C 0.19042 0.59399 0.45124 0.0
C85 C 0.16556 0.46619 0.35339 0.0
N86 N 0.1349 0.51046 0.40478 0.0
H87 H 0.12375 0.60981 0.49246 0.0
H88 H 0.15725 0.41663 0.31211 0.0
H89 H 0.10571 0.61619 0.21314 0.0
H90 H 0.03784 0.43685 0.11209 0.0
O91 O 0.05122 0.57246 0.49354 0.0
O92 O 0.01067 0.48422 0.42994 0.0
O93 O 0.08245 0.39669 0.31008 0.0
C94 C 0.01352 0.54369 0.49294 0.0
H95 H 0.02519 0.39053 0.87993 0.0
H96 H 0.10899 0.59787 0.92848 0.0
H97 H 0.23274 0.44837 0.30918 0.0
H98 H 0.19896 0.6443 0.49128 0.0
Co99 Co 0.4172 0.62997 0.40812 0.0
C100 C 0.40012 0.62652 0.71712 0.0
C101 C 0.43879 0.71336 0.66064 0.0
C102 C 0.44296 0.70196 0.80768 0.0
N103 N 0.41191 0.66603 0.60319 0.0
N104 N 0.41923 0.64654 0.84149 0.0
H105 H 0.38303 0.57876 0.70577 0.0
H106 H 0.45892 0.74746 0.59755 0.0
C107 C 0.39953 0.78386 0.34073 0.0
O108 O 0.39208 0.80312 0.47498 0.0
N109 N 0.42342 0.59404 0.21339 0.0
C110 C 0.40156 0.54142 0.15323 0.0
C111 C 0.3996 0.55115 1.00467 0.0
C112 C 0.43624 0.63299 0.10021 0.0
N113 N 0.42079 0.60949 0.97315 0.0
C114 C 0.34304 0.54479 0.45305 0.0
C115 C 0.28104 0.63412 0.35126 0.0
C116 C 0.26822 0.56941 0.40021 0.0
C117 C 0.29987 0.52446 0.45112 0.0
C118 C 0.32473 0.65231 0.35352 0.0
N119 N 0.35539 0.60801 0.40476 0.0
H120 H 0.36655 0.50863 0.49224 0.0
H121 H 0.33303 0.7019 0.31237 0.0
H122 H 0.38458 0.50227 0.21307 0.0
H123 H 0.45245 0.68161 0.11211 0.0
O124 O 0.43907 0.54602 0.49353 0.0
O125 O 0.47963 0.63425 0.42993 0.0
O126 O 0.40784 0.72178 0.31005 0.0
C127 C 0.47677 0.57479 0.49293 0.0
H128 H 0.46512 0.72792 0.87996 0.0
H129 H 0.3813 0.5206 0.92841 0.0
H130 H 0.25754 0.67015 0.30943 0.0
H131 H 0.29133 0.47414 0.49106 0.0
Co132 Co 0.9172 0.9885 0.90812 0.0
C133 C 0.90012 0.99196 0.21712 0.0
C134 C 0.93878 0.90512 0.16062 0.0
C135 C 0.94295 0.91651 0.30767 0.0
N136 N 0.9119 0.95245 0.10319 0.0
N137 N 0.91922 0.97194 0.34149 0.0
H138 H 0.88303 1.03972 0.20579 0.0
H139 H 0.95891 0.87101 0.09753 0.0
C140 C 0.89952 0.83462 0.84073 0.0
O141 O 0.89204 0.81538 0.97498 0.0
N142 N 0.92342 1.02443 0.7134 0.0
C143 C 0.90156 0.07706 0.65326 0.0
C144 C 0.8996 0.06733 0.50469 0.0
C145 C 0.93623 0.98549 0.60021 0.0
N146 N 0.92079 1.00898 0.47317 0.0
C147 C 0.84304 0.07368 0.9531 0.0
C148 C 0.78104 0.98438 0.85118 0.0
C149 C 0.76822 1.04908 0.9002 0.0
C150 C 0.79987 0.09401 0.95118 0.0
C151 C 0.82473 0.96619 0.85344 0.0
N152 N 0.85539 1.01047 0.90476 0.0
H153 H 0.86655 0.10984 0.99235 0.0
H154 H 0.83303 0.91661 0.81222 0.0
H155 H 0.88458 0.1162 0.71311 0.0
H156 H 0.95244 0.93686 0.61211 0.0
O157 O 0.93907 0.07246 0.99355 0.0
O158 O 0.97962 0.98422 0.92994 0.0
O159 O 0.90784 0.89669 0.81005 0.0
C160 C 0.97677 1.04368 0.99296 0.0
H161 H 0.96511 0.89054 0.37995 0.0
H162 H 0.8813 0.09787 0.42844 0.0
H163 H 0.75754 0.94835 0.80929 0.0
H164 H 0.79133 0.14432 0.99117 0.0
Co165 Co 0.57309 0.12998 0.90813 0.0
C166 C 0.59017 0.12652 0.21714 0.0
C167 C 0.55151 0.21337 0.16064 0.0
C168 C 0.54734 0.20197 0.30768 0.0
N169 N 0.57839 0.16603 0.10321 0.0
N170 N 0.57107 0.14654 0.34151 0.0
H171 H 0.60726 0.07876 0.20581 0.0
H172 H 0.53139 0.24748 0.09754 0.0
C173 C 0.59076 0.28386 0.84076 0.0
O174 O 0.59825 0.30311 0.975 0.0
N175 N 0.56686 0.09404 0.7134 0.0
C176 C 0.58872 1.04142 0.65326 0.0
C177 C 0.59068 1.05115 0.5047 0.0
C178 C 0.55405 0.13299 0.60021 0.0
N179 N 0.5695 0.1095 0.47317 0.0
C180 C 0.64725 1.04481 0.95312 0.0
C181 C 0.70925 0.13411 0.8512 0.0
C182 C 0.72207 0.06941 0.90021 0.0
C183 C 0.69042 1.02448 0.95118 0.0
C184 C 0.66556 0.1523 0.85346 0.0
N185 N 0.6349 0.10802 0.90478 0.0
H186 H 0.62374 1.00865 0.99235 0.0
H187 H 0.65725 0.20187 0.81224 0.0
H188 H 0.6057 1.00228 0.71311 0.0
H189 H 0.53784 0.18162 0.61211 0.0
O190 O 0.55122 1.04602 0.99354 0.0
O191 O 0.51066 0.13425 0.92995 0.0
O192 O 0.58244 0.22179 0.81009 0.0
C193 C 0.51352 0.0748 0.99296 0.0
H194 H 0.52519 0.22795 0.37996 0.0
H195 H 0.60899 1.02061 0.42845 0.0
H196 H 0.73274 0.17014 0.80931 0.0
H197 H 0.69896 0.97417 0.99116 0.0
Co198 Co 0.9172 0.62998 0.65409 0.0
C199 C 0.90013 0.62651 0.34507 0.0
C200 C 0.93878 0.71337 0.4016 0.0
C201 C 0.94295 0.70198 0.25455 0.0
N202 N 0.9119 0.66603 0.45902 0.0
N203 N 0.91923 0.64654 0.22072 0.0
H204 H 0.88304 0.57875 0.35639 0.0
H205 H 0.9589 0.74748 0.4647 0.0
C206 C 0.89951 0.78386 0.72147 0.0
O207 O 0.89202 0.80309 0.58723 0.0
N208 N 0.92343 0.59405 0.84881 0.0
C209 C 0.90157 0.54142 0.90894 0.0
C210 C 0.89961 0.55115 0.0575 0.0
C211 C 0.93624 0.633 0.96201 0.0
N212 N 0.92079 0.6095 0.08904 0.0
C213 C 0.84304 0.54481 0.60905 0.0
C214 C 0.78105 0.63409 0.7111 0.0
C215 C 0.76822 0.5694 0.66201 0.0
C216 C 0.79987 0.52448 0.61098 0.0
C217 C 0.82474 0.65228 0.70883 0.0
N218 N 0.85539 0.60802 0.65744 0.0
H219 H 0.86655 0.50866 0.56976 0.0
H220 H 0.83304 0.70185 0.75012 0.0
H221 H 0.88459 0.50228 0.84907 0.0
H222 H 0.95245 0.68163 0.95013 0.0
O223 O 0.93907 0.54602 0.56867 0.0
O224 O 0.97963 0.63425 0.63228 0.0
O225 O 0.90785 0.72179 0.75214 0.0
C226 C 0.97677 0.5748 0.56926 0.0
H227 H 0.9651 0.72795 0.18229 0.0
H228 H 0.88131 0.52061 0.13374 0.0
H229 H 0.75756 0.67011 0.75304 0.0
H230 H 0.79133 0.47418 0.57094 0.0
Co231 Co 0.57309 0.4885 0.6541 0.0
C232 C 0.59017 0.49196 0.3451 0.0
C233 C 0.55151 0.40512 0.40158 0.0
C234 C 0.54734 0.41651 0.25454 0.0
N235 N 0.57839 0.45245 0.45903 0.0
N236 N 0.57107 0.47194 0.22073 0.0
H237 H 0.60727 0.53971 0.35645 0.0
H238 H 0.53137 0.37102 0.46467 0.0
C239 C 0.59076 0.33461 0.72149 0.0
O240 O 0.59822 0.31536 0.58724 0.0
N241 N 0.56687 0.52444 0.84883 0.0
C242 C 0.58874 0.57706 0.90899 0.0
C243 C 0.59069 0.56733 0.05755 0.0
C244 C 0.55406 0.48549 0.96201 0.0
N245 N 0.5695 0.50898 0.08906 0.0
C246 C 0.64725 0.57368 0.60918 0.0
C247 C 0.70926 0.48436 0.71097 0.0
C248 C 0.72207 0.54907 0.66201 0.0
C249 C 0.69042 0.59401 0.61111 0.0
C250 C 0.66557 0.46617 0.7087 0.0
N251 N 0.6349 0.51046 0.65746 0.0
H252 H 0.62374 0.60985 0.56998 0.0
H253 H 0.65727 0.41658 0.74986 0.0
H254 H 0.60571 0.6162 0.84915 0.0
H255 H 0.53784 0.43686 0.95011 0.0
O256 O 0.55122 0.57245 0.56868 0.0
O257 O 0.51067 0.48423 0.63228 0.0
O258 O 0.58246 0.3967 0.75216 0.0
C259 C 0.51352 0.54368 0.56927 0.0
H260 H 0.52518 0.39055 0.18225 0.0
H261 H 0.60899 0.59787 0.13381 0.0
H262 H 0.73275 0.44832 0.7528 0.0
H263 H 0.69896 0.64433 0.57117 0.0
loop_
_geom_bond_atom_site_label_1
_geom_bond_atom_site_label_2
_geom_bond_distance
_geom_bond_site_symmetry_2
_ccdc_geom_bond_type
Co0 N4 2.148 1_554 S
Co0 N10 2.128 . S
Co0 N20 2.194 . S
Co0 O25 2.351 . S
Co0 O26 2.155 . S
Co0 O27 2.096 . S
C1 N4 1.301 . S
C1 N5 1.328 . S
C1 H6 0.930 . S
C2 C3 1.333 . S
C2 N4 1.317 . S
C2 H7 0.930 . S
C3 C2 1.333 . S
C3 N5 1.350 . S
C3 H29 0.931 . S
N4 Co0 2.148 1_556 S
N4 C1 1.301 . S
N4 C2 1.317 . S
N5 C1 1.328 . S
N5 C3 1.350 . S
H6 C1 0.930 . S
H7 C2 0.930 . S
C8 O9 1.224 . S
C8 O27 1.247 . S
O9 C8 1.224 . S
N10 Co0 2.128 . S
N10 C11 1.355 . S
N10 C13 1.311 . S
C11 N10 1.355 . S
C11 C12 1.363 . S
C11 H23 0.929 1_545 S
C12 C11 1.363 . S
C12 N14 1.375 . S
C12 H30 0.931 1_545 S
C13 N10 1.311 . S
C13 N14 1.347 . S
C13 H24 0.929 . S
N14 C12 1.375 . S
N14 C13 1.347 . S
C15 C18 1.365 1_545 S
C15 N20 1.328 . S
C15 H21 0.929 1_545 S
C16 C17 1.362 . S
C16 C19 1.378 . S
C16 H31 0.929 . S
C17 C16 1.362 . S
C17 C18 1.366 1_545 S
C18 C15 1.365 1_565 S
C18 C17 1.366 1_565 S
C18 H32 0.930 . S
C19 C16 1.378 . S
C19 N20 1.315 . S
C19 H22 0.930 . S
N20 Co0 2.194 . S
N20 C15 1.328 . S
N20 C19 1.315 . S
H21 C15 0.929 1_565 S
H22 C19 0.930 . S
H23 C11 0.929 1_565 S
H24 C13 0.929 . S
O25 Co0 2.351 . S
O25 C28 1.244 . S
O26 Co0 2.155 . S
O26 C28 1.240 . S
O27 Co0 2.096 . S
O27 C8 1.247 . S
C28 O25 1.244 . S
C28 O26 1.240 . S
H29 C3 0.931 . S
H30 C12 0.931 1_565 S
H31 C16 0.929 . S
H32 C18 0.930 . S
Co33 N37 2.148 1_554 S
Co33 N43 2.128 . S
Co33 N53 2.194 . S
Co33 O58 2.351 . S
Co33 O59 2.155 . S
Co33 O60 2.096 . S
C34 N37 1.301 . S
C34 N38 1.328 . S
C34 H39 0.930 . S
C35 C36 1.333 . S
C35 N37 1.317 . S
C35 H40 0.930 . S
C36 C35 1.333 . S
C36 N38 1.350 . S
C36 H62 0.931 . S
N37 Co33 2.148 1_556 S
N37 C34 1.301 . S
N37 C35 1.317 . S
N38 C34 1.328 . S
N38 C36 1.350 . S
H39 C34 0.930 . S
H40 C35 0.930 . S
C41 O42 1.224 . S
C41 O60 1.247 . S
O42 C41 1.224 . S
N43 Co33 2.128 . S
N43 C44 1.355 . S
N43 C46 1.311 . S
C44 N43 1.355 . S
C44 C45 1.363 . S
C44 H56 0.929 1_565 S
C45 C44 1.363 . S
C45 N47 1.375 . S
C45 H63 0.931 1_565 S
C46 N43 1.311 . S
C46 N47 1.347 . S
C46 H57 0.929 . S
N47 C45 1.375 . S
N47 C46 1.347 . S
C48 C51 1.365 1_565 S
C48 N53 1.328 . S
C48 H54 0.929 1_565 S
C49 C50 1.362 . S
C49 C52 1.378 . S
C49 H64 0.929 . S
C50 C49 1.362 . S
C50 C51 1.366 1_565 S
C51 C48 1.365 1_545 S
C51 C50 1.366 1_545 S
C51 H65 0.930 . S
C52 C49 1.378 . S
C52 N53 1.315 . S
C52 H55 0.930 . S
N53 Co33 2.194 . S
N53 C48 1.328 . S
N53 C52 1.315 . S
H54 C48 0.929 1_545 S
H55 C52 0.930 . S
H56 C44 0.929 1_545 S
H57 C46 0.929 . S
O58 Co33 2.351 . S
O58 C61 1.244 . S
O59 Co33 2.155 . S
O59 C61 1.240 . S
O60 Co33 2.096 . S
O60 C41 1.247 . S
C61 O58 1.244 . S
C61 O59 1.240 . S
H62 C36 0.931 . S
H63 C45 0.931 1_545 S
H64 C49 0.929 . S
H65 C51 0.930 . S
Co66 N70 2.148 . S
Co66 N76 2.128 . S
Co66 N86 2.194 . S
Co66 O91 2.351 . S
Co66 O92 2.155 . S
Co66 O93 2.096 . S
C67 N70 1.301 . S
C67 N71 1.328 . S
C67 H72 0.930 . S
C68 C69 1.333 . S
C68 N70 1.317 . S
C68 H73 0.930 . S
C69 C68 1.333 . S
C69 N71 1.350 . S
C69 H95 0.931 . S
N70 Co66 2.148 . S
N70 C67 1.301 . S
N70 C68 1.317 . S
N71 C67 1.328 . S
N71 C69 1.350 . S
H72 C67 0.930 . S
H73 C68 0.930 . S
C74 O75 1.224 . S
C74 O93 1.247 . S
O75 C74 1.224 . S
N76 Co66 2.128 . S
N76 C77 1.355 . S
N76 C79 1.311 . S
C77 N76 1.355 . S
C77 C78 1.363 1_554 S
C77 H89 0.929 . S
C78 C77 1.363 1_556 S
C78 N80 1.375 . S
C78 H96 0.931 . S
C79 N76 1.311 . S
C79 N80 1.347 1_554 S
C79 H90 0.929 . S
N80 C78 1.375 . S
N80 C79 1.347 1_556 S
C81 C84 1.365 . S
C81 N86 1.328 . S
C81 H87 0.929 . S
C82 C83 1.362 . S
C82 C85 1.378 . S
C82 H97 0.929 . S
C83 C82 1.362 . S
C83 C84 1.366 . S
C84 C81 1.365 . S
C84 C83 1.366 . S
C84 H98 0.930 . S
C85 C82 1.378 . S
C85 N86 1.315 . S
C85 H88 0.930 . S
N86 Co66 2.194 . S
N86 C81 1.328 . S
N86 C85 1.315 . S
H87 C81 0.929 . S
H88 C85 0.930 . S
H89 C77 0.929 . S
H90 C79 0.929 . S
O91 Co66 2.351 . S
O91 C94 1.244 . S
O92 Co66 2.155 . S
O92 C94 1.240 . S
O93 Co66 2.096 . S
O93 C74 1.247 . S
C94 O91 1.244 . S
C94 O92 1.240 . S
H95 C69 0.931 . S
H96 C78 0.931 . S
H97 C82 0.929 . S
H98 C84 0.930 . S
Co99 N103 2.148 . S
Co99 N109 2.128 . S
Co99 N119 2.194 . S
Co99 O124 2.351 . S
Co99 O125 2.155 . S
Co99 O126 2.096 . S
C100 N103 1.301 . S
C100 N104 1.328 . S
C100 H105 0.930 . S
C101 C102 1.333 . S
C101 N103 1.317 . S
C101 H106 0.930 . S
C102 C101 1.333 . S
C102 N104 1.350 . S
C102 H128 0.931 . S
N103 Co99 2.148 . S
N103 C100 1.301 . S
N103 C101 1.317 . S
N104 C100 1.328 . S
N104 C102 1.350 . S
H105 C100 0.930 . S
H106 C101 0.930 . S
C107 O108 1.224 . S
C107 O126 1.247 . S
O108 C107 1.224 . S
N109 Co99 2.128 . S
N109 C110 1.355 . S
N109 C112 1.311 . S
C110 N109 1.355 . S
C110 C111 1.363 1_554 S
C110 H122 0.929 . S
C111 C110 1.363 1_556 S
C111 N113 1.375 . S
C111 H129 0.931 . S
C112 N109 1.311 . S
C112 N113 1.347 1_554 S
C112 H123 0.929 . S
N113 C111 1.375 . S
N113 C112 1.347 1_556 S
C114 C117 1.365 . S
C114 N119 1.328 . S
C114 H120 0.929 . S
C115 C116 1.362 . S
C115 C118 1.378 . S
C115 H130 0.929 . S
C116 C115 1.362 . S
C116 C117 1.366 . S
C117 C114 1.365 . S
C117 C116 1.366 . S
C117 H131 0.930 . S
C118 C115 1.378 . S
C118 N119 1.315 . S
C118 H121 0.930 . S
N119 Co99 2.194 . S
N119 C114 1.328 . S
N119 C118 1.315 . S
H120 C114 0.929 . S
H121 C118 0.930 . S
H122 C110 0.929 . S
H123 C112 0.929 . S
O124 Co99 2.351 . S
O124 C127 1.244 . S
O125 Co99 2.155 . S
O125 C127 1.240 . S
O126 Co99 2.096 . S
O126 C107 1.247 . S
C127 O124 1.244 . S
C127 O125 1.240 . S
H128 C102 0.931 . S
H129 C111 0.931 . S
H130 C115 0.929 . S
H131 C117 0.930 . S
Co132 N136 2.148 1_556 S
Co132 N142 2.128 . S
Co132 N152 2.194 . S
Co132 O157 2.351 . S
Co132 O158 2.155 . S
Co132 O159 2.096 . S
C133 N136 1.301 . S
C133 N137 1.328 . S
C133 H138 0.930 . S
C134 C135 1.333 . S
C134 N136 1.317 . S
C134 H139 0.930 . S
C135 C134 1.333 . S
C135 N137 1.350 . S
C135 H161 0.931 . S
N136 Co132 2.148 1_554 S
N136 C133 1.301 . S
N136 C134 1.317 . S
N137 C133 1.328 . S
N137 C135 1.350 . S
H138 C133 0.930 . S
H139 C134 0.930 . S
C140 O141 1.224 . S
C140 O159 1.247 . S
O141 C140 1.224 . S
N142 Co132 2.128 . S
N142 C143 1.355 . S
N142 C145 1.311 . S
C143 N142 1.355 . S
C143 C144 1.363 . S
C143 H155 0.929 1_565 S
C144 C143 1.363 . S
C144 N146 1.375 . S
C144 H162 0.931 1_565 S
C145 N142 1.311 . S
C145 N146 1.347 . S
C145 H156 0.929 . S
N146 C144 1.375 . S
N146 C145 1.347 . S
C147 C150 1.365 1_565 S
C147 N152 1.328 . S
C147 H153 0.929 1_565 S
C148 C149 1.362 . S
C148 C151 1.378 . S
C148 H163 0.929 . S
C149 C148 1.362 . S
C149 C150 1.366 1_565 S
C150 C147 1.365 1_545 S
C150 C149 1.366 1_545 S
C150 H164 0.930 . S
C151 C148 1.378 . S
C151 N152 1.315 . S
C151 H154 0.930 . S
N152 Co132 2.194 . S
N152 C147 1.328 . S
N152 C151 1.315 . S
H153 C147 0.929 1_545 S
H154 C151 0.930 . S
H155 C143 0.929 1_545 S
H156 C145 0.929 . S
O157 Co132 2.351 . S
O157 C160 1.244 . S
O158 Co132 2.155 . S
O158 C160 1.240 . S
O159 Co132 2.096 . S
O159 C140 1.247 . S
C160 O157 1.244 . S
C160 O158 1.240 . S
H161 C135 0.931 . S
H162 C144 0.931 1_545 S
H163 C148 0.929 . S
H164 C150 0.930 . S
Co165 N169 2.148 1_556 S
Co165 N175 2.128 . S
Co165 N185 2.194 . S
Co165 O190 2.351 . S
Co165 O191 2.155 . S
Co165 O192 2.096 . S
C166 N169 1.301 . S
C166 N170 1.328 . S
C166 H171 0.930 . S
C167 C168 1.333 . S
C167 N169 1.317 . S
C167 H172 0.930 . S
C168 C167 1.333 . S
C168 N170 1.350 . S
C168 H194 0.931 . S
N169 Co165 2.148 1_554 S
N169 C166 1.301 . S
N169 C167 1.317 . S
N170 C166 1.328 . S
N170 C168 1.350 . S
H171 C166 0.930 . S
H172 C167 0.930 . S
C173 O174 1.224 . S
C173 O192 1.247 . S
O174 C173 1.224 . S
N175 Co165 2.128 . S
N175 C176 1.355 . S
N175 C178 1.311 . S
C176 N175 1.355 . S
C176 C177 1.363 . S
C176 H188 0.929 1_545 S
C177 C176 1.363 . S
C177 N179 1.375 . S
C177 H195 0.931 1_545 S
C178 N175 1.311 . S
C178 N179 1.347 . S
C178 H189 0.929 . S
N179 C177 1.375 . S
N179 C178 1.347 . S
C180 C183 1.365 1_545 S
C180 N185 1.328 . S
C180 H186 0.929 1_545 S
C181 C182 1.362 . S
C181 C184 1.378 . S
C181 H196 0.929 . S
C182 C181 1.362 . S
C182 C183 1.366 1_545 S
C183 C180 1.365 1_565 S
C183 C182 1.366 1_565 S
C183 H197 0.930 . S
C184 C181 1.378 . S
C184 N185 1.315 . S
C184 H187 0.930 . S
N185 Co165 2.194 . S
N185 C180 1.328 . S
N185 C184 1.315 . S
H186 C180 0.929 1_565 S
H187 C184 0.930 . S
H188 C176 0.929 1_565 S
H189 C178 0.929 . S
O190 Co165 2.351 . S
O190 C193 1.244 . S
O191 Co165 2.155 . S
O191 C193 1.240 . S
O192 Co165 2.096 . S
O192 C173 1.247 . S
C193 O190 1.244 . S
C193 O191 1.240 . S
H194 C168 0.931 . S
H195 C177 0.931 1_565 S
H196 C181 0.929 . S
H197 C183 0.930 . S
Co198 N202 2.148 . S
Co198 N208 2.128 . S
Co198 N218 2.194 . S
Co198 O223 2.351 . S
Co198 O224 2.155 . S
Co198 O225 2.096 . S
C199 N202 1.301 . S
C199 N203 1.328 . S
C199 H204 0.930 . S
C200 C201 1.333 . S
C200 N202 1.317 . S
C200 H205 0.930 . S
C201 C200 1.333 . S
C201 N203 1.350 . S
C201 H227 0.931 . S
N202 Co198 2.148 . S
N202 C199 1.301 . S
N202 C200 1.317 . S
N203 C199 1.328 . S
N203 C201 1.350 . S
H204 C199 0.930 . S
H205 C200 0.930 . S
C206 O207 1.224 . S
C206 O225 1.247 . S
O207 C206 1.224 . S
N208 Co198 2.128 . S
N208 C209 1.355 . S
N208 C211 1.311 . S
C209 N208 1.355 . S
C209 C210 1.363 1_556 S
C209 H221 0.929 . S
C210 C209 1.363 1_554 S
C210 N212 1.375 . S
C210 H228 0.931 . S
C211 N208 1.311 . S
C211 N212 1.347 1_556 S
C211 H222 0.929 . S
N212 C210 1.375 . S
N212 C211 1.347 1_554 S
C213 C216 1.365 . S
C213 N218 1.328 . S
C213 H219 0.929 . S
C214 C215 1.362 . S
C214 C217 1.378 . S
C214 H229 0.929 . S
C215 C214 1.362 . S
C215 C216 1.366 . S
C216 C213 1.365 . S
C216 C215 1.366 . S
C216 H230 0.930 . S
C217 C214 1.378 . S
C217 N218 1.315 . S
C217 H220 0.930 . S
N218 Co198 2.194 . S
N218 C213 1.328 . S
N218 C217 1.315 . S
H219 C213 0.929 . S
H220 C217 0.930 . S
H221 C209 0.929 . S
H222 C211 0.929 . S
O223 Co198 2.351 . S
O223 C226 1.244 . S
O224 Co198 2.155 . S
O224 C226 1.240 . S
O225 Co198 2.096 . S
O225 C206 1.247 . S
C226 O223 1.244 . S
C226 O224 1.240 . S
H227 C201 0.931 . S
H228 C210 0.931 . S
H229 C214 0.929 . S
H230 C216 0.930 . S
Co231 N235 2.148 . S
Co231 N241 2.128 . S
Co231 N251 2.194 . S
Co231 O256 2.351 . S
Co231 O257 2.155 . S
Co231 O258 2.096 . S
C232 N235 1.301 . S
C232 N236 1.328 . S
C232 H237 0.930 . S
C233 C234 1.333 . S
C233 N235 1.317 . S
C233 H238 0.930 . S
C234 C233 1.333 . S
C234 N236 1.350 . S
C234 H260 0.931 . S
N235 Co231 2.148 . S
N235 C232 1.301 . S
N235 C233 1.317 . S
N236 C232 1.328 . S
N236 C234 1.350 . S
H237 C232 0.930 . S
H238 C233 0.930 . S
C239 O240 1.224 . S
C239 O258 1.247 . S
O240 C239 1.224 . S
N241 Co231 2.128 . S
N241 C242 1.355 . S
N241 C244 1.311 . S
C242 N241 1.355 . S
C242 C243 1.363 1_556 S
C242 H254 0.929 . S
C243 C242 1.363 1_554 S
C243 N245 1.375 . S
C243 H261 0.931 . S
C244 N241 1.311 . S
C244 N245 1.347 1_556 S
C244 H255 0.929 . S
N245 C243 1.375 . S
N245 C244 1.347 1_554 S
C246 C249 1.365 . S
C246 N251 1.328 . S
C246 H252 0.929 . S
C247 C248 1.362 . S
C247 C250 1.378 . S
C247 H262 0.929 . S
C248 C247 1.362 . S
C248 C249 1.366 . S
C249 C246 1.365 . S
C249 C248 1.366 . S
C249 H263 0.930 . S
C250 C247 1.378 . S
C250 N251 1.315 . S
C250 H253 0.930 . S
N251 Co231 2.194 . S
N251 C246 1.328 . S
N251 C250 1.315 . S
H252 C246 0.929 . S
H253 C250 0.930 . S
H254 C242 0.929 . S
H255 C244 0.929 . S
O256 Co231 2.351 . S
O256 C259 1.244 . S
O257 Co231 2.155 . S
O257 C259 1.240 . S
O258 Co231 2.096 . S
O258 C239 1.247 . S
C259 O256 1.244 . S
C259 O257 1.240 . S
H260 C234 0.931 . S
H261 C243 0.931 . S
H262 C247 0.929 . S
H263 C249 0.930 . S
C50 C17 1.556 1_565 S
C83 C116 1.556 . S
C182 C149 1.556 1_545 S
C215 C248 1.556 . S
C160 C28 1.730 1_666 S
C61 C193 1.730 1_564 S
C94 C226 1.730 1_455 S
C127 C259 1.730 . S
N5 N14 1.664 . S
N47 N38 1.664 . S
N71 N80 1.664 . S
N113 N104 1.664 . S
N137 N146 1.664 . S
N179 N170 1.664 . S
N203 N212 1.664 . S
N236 N245 1.664 . S
C8 C74 1.656 . S
C41 C107 1.656 . S
C140 C206 1.656 . S
C173 C239 1.656 . S
