# Generated by pormake.
# Topology hbo, (4)-cn, num edge types: 1
# Building blocks:
#     Node 0, Type 0, BuildingBlock: ICAMEG_clean_sbu_1, # of connection points: 4
#     Node 1, Type 0, BuildingBlock: ICAMEG_clean_sbu_1, # of connection points: 4
#     Node 2, Type 0, BuildingBlock: ICAMEG_clean_sbu_1, # of connection points: 4
#     Node 3, Type 0, BuildingBlock: ICAMEG_clean_sbu_1, # of connection points: 4
#     Node 4, Type 0, BuildingBlock: ICAMEG_clean_sbu_1, # of connection points: 4
#     Node 5, Type 0, BuildingBlock: ICAMEG_clean_sbu_1, # of connection points: 4
#     Node 6, Type 0, BuildingBlock: ICAMEG_clean_sbu_1, # of connection points: 4
#     Node 7, Type 0, BuildingBlock: ICAMEG_clean_sbu_1, # of connection points: 4
#     Node 8, Type 0, BuildingBlock: ICAMEG_clean_sbu_1, # of connection points: 4
#     Node 9, Type 0, BuildingBlock: ICAMEG_clean_sbu_1, # of connection points: 4
#     Node 10, Type 0, BuildingBlock: ICAMEG_clean_sbu_1, # of connection points: 4
#     Node 11, Type 0, BuildingBlock: ICAMEG_clean_sbu_1, # of connection points: 4
#     Node 12, Type 0, BuildingBlock: ICAMEG_clean_sbu_1, # of connection points: 4
#     Node 13, Type 0, BuildingBlock: ICAMEG_clean_sbu_1, # of connection points: 4
#     Node 14, Type 0, BuildingBlock: ICAMEG_clean_sbu_1, # of connection points: 4
#     Node 15, Type 0, BuildingBlock: ICAMEG_clean_sbu_1, # of connection points: 4
#     Node 16, Type 0, BuildingBlock: ICAMEG_clean_sbu_1, # of connection points: 4
#     Node 17, Type 0, BuildingBlock: ICAMEG_clean_sbu_1, # of connection points: 4
#     Node 18, Type 0, BuildingBlock: ICAMEG_clean_sbu_1, # of connection points: 4
#     Node 19, Type 0, BuildingBlock: ICAMEG_clean_sbu_1, # of connection points: 4
#     Node 20, Type 0, BuildingBlock: ICAMEG_clean_sbu_1, # of connection points: 4
#     Node 21, Type 0, BuildingBlock: ICAMEG_clean_sbu_1, # of connection points: 4
#     Node 22, Type 0, BuildingBlock: ICAMEG_clean_sbu_1, # of connection points: 4
#     Node 23, Type 0, BuildingBlock: ICAMEG_clean_sbu_1, # of connection points: 4
#     Edge 24, Type (0, 0), BuildingBlock: AJUNOK_clean_linker_0, # of connection points: 2
#     Edge 25, Type (0, 0), BuildingBlock: AJUNOK_clean_linker_0, # of connection points: 2
#     Edge 26, Type (0, 0), BuildingBlock: AJUNOK_clean_linker_0, # of connection points: 2
#     Edge 27, Type (0, 0), BuildingBlock: AJUNOK_clean_linker_0, # of connection points: 2
#     Edge 28, Type (0, 0), BuildingBlock: AJUNOK_clean_linker_0, # of connection points: 2
#     Edge 29, Type (0, 0), BuildingBlock: AJUNOK_clean_linker_0, # of connection points: 2
#     Edge 30, Type (0, 0), BuildingBlock: AJUNOK_clean_linker_0, # of connection points: 2
#     Edge 31, Type (0, 0), BuildingBlock: AJUNOK_clean_linker_0, # of connection points: 2
#     Edge 32, Type (0, 0), BuildingBlock: AJUNOK_clean_linker_0, # of connection points: 2
#     Edge 33, Type (0, 0), BuildingBlock: AJUNOK_clean_linker_0, # of connection points: 2
#     Edge 34, Type (0, 0), BuildingBlock: AJUNOK_clean_linker_0, # of connection points: 2
#     Edge 35, Type (0, 0), BuildingBlock: AJUNOK_clean_linker_0, # of connection points: 2
#     Edge 36, Type (0, 0), BuildingBlock: AJUNOK_clean_linker_0, # of connection points: 2
#     Edge 37, Type (0, 0), BuildingBlock: AJUNOK_clean_linker_0, # of connection points: 2
#     Edge 38, Type (0, 0), BuildingBlock: AJUNOK_clean_linker_0, # of connection points: 2
#     Edge 39, Type (0, 0), BuildingBlock: AJUNOK_clean_linker_0, # of connection points: 2
#     Edge 40, Type (0, 0), BuildingBlock: AJUNOK_clean_linker_0, # of connection points: 2
#     Edge 41, Type (0, 0), BuildingBlock: AJUNOK_clean_linker_0, # of connection points: 2
#     Edge 42, Type (0, 0), BuildingBlock: AJUNOK_clean_linker_0, # of connection points: 2
#     Edge 43, Type (0, 0), BuildingBlock: AJUNOK_clean_linker_0, # of connection points: 2
#     Edge 44, Type (0, 0), BuildingBlock: AJUNOK_clean_linker_0, # of connection points: 2
#     Edge 45, Type (0, 0), BuildingBlock: AJUNOK_clean_linker_0, # of connection points: 2
#     Edge 46, Type (0, 0), BuildingBlock: AJUNOK_clean_linker_0, # of connection points: 2
#     Edge 47, Type (0, 0), BuildingBlock: AJUNOK_clean_linker_0, # of connection points: 2
#     Edge 48, Type (0, 0), BuildingBlock: AJUNOK_clean_linker_0, # of connection points: 2
#     Edge 49, Type (0, 0), BuildingBlock: AJUNOK_clean_linker_0, # of connection points: 2
#     Edge 50, Type (0, 0), BuildingBlock: AJUNOK_clean_linker_0, # of connection points: 2
#     Edge 51, Type (0, 0), BuildingBlock: AJUNOK_clean_linker_0, # of connection points: 2
#     Edge 52, Type (0, 0), BuildingBlock: AJUNOK_clean_linker_0, # of connection points: 2
#     Edge 53, Type (0, 0), BuildingBlock: AJUNOK_clean_linker_0, # of connection points: 2
#     Edge 54, Type (0, 0), BuildingBlock: AJUNOK_clean_linker_0, # of connection points: 2
#     Edge 55, Type (0, 0), BuildingBlock: AJUNOK_clean_linker_0, # of connection points: 2
#     Edge 56, Type (0, 0), BuildingBlock: AJUNOK_clean_linker_0, # of connection points: 2
#     Edge 57, Type (0, 0), BuildingBlock: AJUNOK_clean_linker_0, # of connection points: 2
#     Edge 58, Type (0, 0), BuildingBlock: AJUNOK_clean_linker_0, # of connection points: 2
#     Edge 59, Type (0, 0), BuildingBlock: AJUNOK_clean_linker_0, # of connection points: 2
#     Edge 60, Type (0, 0), BuildingBlock: AJUNOK_clean_linker_0, # of connection points: 2
#     Edge 61, Type (0, 0), BuildingBlock: AJUNOK_clean_linker_0, # of connection points: 2
#     Edge 62, Type (0, 0), BuildingBlock: AJUNOK_clean_linker_0, # of connection points: 2
#     Edge 63, Type (0, 0), BuildingBlock: AJUNOK_clean_linker_0, # of connection points: 2
#     Edge 64, Type (0, 0), BuildingBlock: AJUNOK_clean_linker_0, # of connection points: 2
#     Edge 65, Type (0, 0), BuildingBlock: AJUNOK_clean_linker_0, # of connection points: 2
#     Edge 66, Type (0, 0), BuildingBlock: AJUNOK_clean_linker_0, # of connection points: 2
#     Edge 67, Type (0, 0), BuildingBlock: AJUNOK_clean_linker_0, # of connection points: 2
#     Edge 68, Type (0, 0), BuildingBlock: AJUNOK_clean_linker_0, # of connection points: 2
#     Edge 69, Type (0, 0), BuildingBlock: AJUNOK_clean_linker_0, # of connection points: 2
#     Edge 70, Type (0, 0), BuildingBlock: AJUNOK_clean_linker_0, # of connection points: 2
#     Edge 71, Type (0, 0), BuildingBlock: AJUNOK_clean_linker_0, # of connection points: 2
# Relax obj value: 0.139
# Max RMSD: 0.174
# Mean RMSD: 0.174
data_MOF--net-hbo--node1-ICAMEG_clean_sbu_1--edge1-AJUNOK_clean_linker_0
_symmetry_space_group_name_H-M    P1
_symmetry_Int_Tables_number       1
_symmetry_cell_setting            triclinic
loop_
_symmetry_equiv_pos_as_xyz
'x, y, z'
_cell_length_a     42.501281
_cell_length_b     42.476823
_cell_length_c     42.481616
_cell_angle_alpha  89.98869
_cell_angle_beta   89.991827
_cell_angle_gamma 90.014121
loop_
_atom_site_label
_atom_site_type_symbol
_atom_site_fract_x
_atom_site_fract_y
_atom_site_fract_z
_atom_type_partial_charge
Co0 Co 0.17296 0.37453 0.27652 0.0
Co1 Co 0.1244 0.32945 0.23092 0.0
O2 O 0.13346 0.3679 0.25435 0.0
C3 C 0.16673 0.43303 0.23824 0.0
O4 O 0.16199 0.41567 0.21312 0.0
C5 C 0.06654 0.33681 0.27031 0.0
O6 O 0.08357 0.33653 0.2961 0.0
O7 O 0.13385 0.30328 0.2688 0.0
O8 O 0.17494 0.32934 0.28919 0.0
H9 H 0.1442 0.21881 0.1939 0.0
H10 H 0.11763 0.41449 0.29078 0.0
O11 O 0.17172 0.42005 0.26481 0.0
H12 H 0.14646 0.36487 0.39169 0.0
H13 H 0.24863 0.43507 0.34483 0.0
H14 H 0.23285 0.33909 0.28151 0.0
H15 H 0.1772 0.35413 0.34366 0.0
H16 H 0.19806 0.42542 0.31801 0.0
O17 O 0.07937 0.33328 0.24348 0.0
H18 H 0.15641 0.26794 0.22223 0.0
H19 H 0.07081 0.30868 0.19052 0.0
H20 H 0.28366 0.34766 0.30813 0.0
H21 H 0.08636 0.4261 0.3383 0.0
H22 H 0.29183 0.39598 0.34004 0.0
H23 H 0.1007 0.40116 0.38921 0.0
O24 O 0.19708 0.36477 0.23762 0.0
H25 H 0.07928 0.42243 0.17329 0.0
H26 H 0.14218 0.32545 0.16303 0.0
H27 H 0.13275 0.35845 0.11623 0.0
H28 H 0.10102 0.40731 0.12117 0.0
H29 H 0.08952 0.38887 0.21952 0.0
H30 H 0.05753 0.25984 0.16208 0.0
H31 H 0.09441 0.2145 0.16358 0.0
O32 O 0.16902 0.3252 0.21704 0.0
C33 C 0.1575 0.30498 0.2873 0.0
C34 C 0.12797 0.23843 0.193 0.0
C35 C 0.0793 0.26143 0.17521 0.0
N36 N 0.11439 0.2912 0.208 0.0
C37 C 0.13479 0.26636 0.20893 0.0
C38 C 0.08689 0.28899 0.19146 0.0
C39 C 0.10001 0.23601 0.17603 0.0
C40 C 0.12414 0.40371 0.31289 0.0
N41 N 0.14928 0.38374 0.31446 0.0
C42 C 0.10629 0.4103 0.3397 0.0
C43 C 0.11432 0.39627 0.36824 0.0
C44 C 0.13998 0.37589 0.36965 0.0
C45 C 0.15726 0.36983 0.34235 0.0
C46 C 0.24535 0.41393 0.331 0.0
C47 C 0.23612 0.36008 0.29552 0.0
C48 C 0.2168 0.40839 0.31568 0.0
N49 N 0.21247 0.38169 0.29827 0.0
C50 C 0.26499 0.36484 0.31047 0.0
C51 C 0.26957 0.39197 0.32833 0.0
C52 C 0.19391 0.34183 0.2185 0.0
C53 C 0.09296 0.40109 0.17078 0.0
C54 C 0.12828 0.34662 0.16538 0.0
C55 C 0.12303 0.36522 0.13878 0.0
C56 C 0.10522 0.39263 0.14156 0.0
N57 N 0.11599 0.35495 0.19392 0.0
C58 C 0.09869 0.38189 0.19685 0.0
Co59 Co 0.17579 0.62375 0.72688 0.0
Co60 Co 0.12413 0.66507 0.77354 0.0
O61 O 0.13581 0.62797 0.74908 0.0
C62 C 0.17288 0.5657 0.76591 0.0
O63 O 0.16495 0.58298 0.79026 0.0
C64 C 0.06722 0.65851 0.73201 0.0
O65 O 0.08462 0.65995 0.70649 0.0
O66 O 0.13419 0.69342 0.73727 0.0
O67 O 0.17437 0.66861 0.71364 0.0
H68 H 0.13858 0.77465 0.81572 0.0
H69 H 0.12347 0.57947 0.71389 0.0
O70 O 0.17813 0.57851 0.73933 0.0
H71 H 0.14698 0.62995 0.61203 0.0
H72 H 0.25429 0.56806 0.65768 0.0
H73 H 0.23309 0.66316 0.72076 0.0
H74 H 0.17756 0.64354 0.65944 0.0
H75 H 0.20377 0.57427 0.68559 0.0
O76 O 0.07972 0.66069 0.75911 0.0
H77 H 0.15326 0.72739 0.78547 0.0
H78 H 0.06865 0.68203 0.81336 0.0
H79 H 0.28379 0.65806 0.693 0.0
H80 H 0.09247 0.56498 0.667 0.0
H81 H 0.29466 0.61022 0.66118 0.0
H82 H 0.10412 0.59035 0.61562 0.0
O83 O 0.19997 0.63592 0.76528 0.0
H84 H 0.07818 0.56823 0.8236 0.0
H85 H 0.1377 0.66588 0.84272 0.0
H86 H 0.127 0.62995 0.88697 0.0
H87 H 0.09693 0.58068 0.87755 0.0
H88 H 0.0899 0.60466 0.77999 0.0
H89 H 0.05289 0.72894 0.84365 0.0
H90 H 0.08805 0.77565 0.8451 0.0
O91 O 0.16797 0.6702 0.78941 0.0
C92 C 0.15675 0.69258 0.71736 0.0
C93 C 0.12308 0.75443 0.81534 0.0
C94 C 0.07497 0.72879 0.83096 0.0
N95 N 0.11191 0.70189 0.79772 0.0
C96 C 0.13129 0.72756 0.7983 0.0
C97 C 0.08397 0.70232 0.81366 0.0
C98 C 0.09472 0.75498 0.83178 0.0
C99 C 0.12883 0.59045 0.69157 0.0
N100 N 0.15239 0.61224 0.68939 0.0
C101 C 0.11113 0.58222 0.66512 0.0
C102 C 0.11765 0.59649 0.63631 0.0
C103 C 0.14169 0.61873 0.63428 0.0
C104 C 0.15887 0.62639 0.66123 0.0
C105 C 0.24982 0.58902 0.67146 0.0
C106 C 0.23758 0.64233 0.70686 0.0
C107 C 0.2213 0.59261 0.6874 0.0
N108 N 0.21544 0.61909 0.70471 0.0
C109 C 0.26637 0.63955 0.69124 0.0
C110 C 0.27246 0.61269 0.67342 0.0
C111 C 0.19462 0.6569 0.78614 0.0
C112 C 0.09131 0.58962 0.82803 0.0
C113 C 0.12499 0.64441 0.83837 0.0
C114 C 0.11878 0.6242 0.86356 0.0
C115 C 0.10187 0.5966 0.85827 0.0
N116 N 0.11466 0.6374 0.80874 0.0
C117 C 0.09797 0.6104 0.80343 0.0
Co118 Co 0.82696 0.62808 0.27384 0.0
Co119 Co 0.87629 0.67163 0.22605 0.0
O120 O 0.86647 0.63409 0.25093 0.0
C121 C 0.83094 0.57101 0.23363 0.0
O122 O 0.83884 0.58889 0.20969 0.0
C123 C 0.93163 0.66653 0.26911 0.0
O124 O 0.91308 0.65805 0.29232 0.0
O125 O 0.86398 0.6999 0.26157 0.0
O126 O 0.82745 0.67251 0.28808 0.0
H127 H 0.85589 0.77972 0.18251 0.0
H128 H 0.88028 0.58446 0.28479 0.0
O129 O 0.82545 0.58318 0.26043 0.0
H130 H 0.85824 0.63249 0.38813 0.0
H131 H 0.75148 0.56877 0.34349 0.0
H132 H 0.76872 0.66567 0.28192 0.0
H133 H 0.82644 0.64654 0.34168 0.0
H134 H 0.80123 0.57698 0.31472 0.0
O135 O 0.92061 0.67146 0.2417 0.0
H136 H 0.84375 0.73207 0.21333 0.0
H137 H 0.93052 0.69089 0.1857 0.0
H138 H 0.71877 0.65857 0.31058 0.0
H139 H 0.91248 0.56948 0.3307 0.0
H140 H 0.70988 0.60981 0.34163 0.0
H141 H 0.90159 0.59363 0.38282 0.0
O142 O 0.80147 0.64043 0.23632 0.0
H143 H 0.93031 0.57778 0.17867 0.0
H144 H 0.86215 0.66909 0.15709 0.0
H145 H 0.8755 0.63268 0.11394 0.0
H146 H 0.90983 0.58658 0.12463 0.0
H147 H 0.91606 0.61468 0.22116 0.0
H148 H 0.94375 0.73823 0.15479 0.0
H149 H 0.90624 0.78305 0.15297 0.0
O150 O 0.8325 0.67355 0.20947 0.0
C151 C 0.84301 0.69758 0.283 0.0
C152 C 0.87242 0.76034 0.18306 0.0
C153 C 0.92172 0.73706 0.16752 0.0
N154 N 0.88635 0.70867 0.20125 0.0
C155 C 0.86565 0.73327 0.20044 0.0
C156 C 0.91413 0.71034 0.18512 0.0
C157 C 0.90067 0.76219 0.16651 0.0
C158 C 0.87522 0.59486 0.30744 0.0
N159 N 0.85144 0.61629 0.31055 0.0
C160 C 0.89361 0.58638 0.33333 0.0
C161 C 0.88752 0.59998 0.36256 0.0
C162 C 0.86322 0.6218 0.36555 0.0
C163 C 0.84535 0.62975 0.33913 0.0
C164 C 0.75508 0.59012 0.33005 0.0
C165 C 0.7651 0.64445 0.2955 0.0
C166 C 0.78316 0.59485 0.31363 0.0
N167 N 0.78793 0.62182 0.29674 0.0
C168 C 0.73673 0.64053 0.31162 0.0
C169 C 0.73176 0.61316 0.32902 0.0
C170 C 0.80606 0.66032 0.21424 0.0
C171 C 0.91536 0.5978 0.1737 0.0
C172 C 0.8769 0.64904 0.16196 0.0
C173 C 0.88452 0.62855 0.1374 0.0
C174 C 0.90382 0.60272 0.1434 0.0
N175 N 0.8882 0.64401 0.19164 0.0
C176 C 0.90729 0.61884 0.19765 0.0
Co177 Co 0.878 0.33203 0.7734 0.0
Co178 Co 0.82709 0.37361 0.72608 0.0
O179 O 0.86657 0.36928 0.74902 0.0
C180 C 0.93398 0.34009 0.73155 0.0
O181 O 0.91573 0.34015 0.70661 0.0
C182 C 0.82895 0.43077 0.76632 0.0
O183 O 0.83677 0.413 0.79035 0.0
O184 O 0.80236 0.36063 0.76376 0.0
O185 O 0.83405 0.32687 0.78903 0.0
H186 H 0.71998 0.33913 0.68971 0.0
H187 H 0.91276 0.39211 0.78051 0.0
O188 O 0.92237 0.33644 0.75891 0.0
H189 H 0.87366 0.36682 0.8868 0.0
H190 H 0.94901 0.26801 0.84353 0.0
H191 H 0.84882 0.26967 0.78506 0.0
H192 H 0.86319 0.33119 0.84224 0.0
H193 H 0.93332 0.315 0.81327 0.0
O194 O 0.82415 0.41856 0.73938 0.0
H195 H 0.77023 0.3339 0.71824 0.0
H196 H 0.79946 0.42366 0.68521 0.0
H197 H 0.86343 0.22233 0.81525 0.0
H198 H 0.92423 0.42821 0.82445 0.0
H199 H 0.91388 0.22128 0.84477 0.0
H200 H 0.90447 0.41576 0.87804 0.0
O201 O 0.86822 0.30382 0.73702 0.0
H202 H 0.91102 0.43419 0.6689 0.0
H203 H 0.82679 0.35507 0.65828 0.0
H204 H 0.85816 0.36979 0.61172 0.0
H205 H 0.9006 0.40968 0.61685 0.0
H206 H 0.87924 0.41856 0.71491 0.0
H207 H 0.74938 0.43 0.65655 0.0
H208 H 0.70929 0.38748 0.65859 0.0
O209 O 0.82912 0.32901 0.71203 0.0
C210 C 0.80741 0.33997 0.785 0.0
C211 C 0.73729 0.3578 0.68858 0.0
C212 C 0.75378 0.40882 0.67001 0.0
N213 N 0.78782 0.37838 0.70327 0.0
C214 C 0.76583 0.35494 0.70462 0.0
C215 C 0.78205 0.40514 0.68636 0.0
C216 C 0.7313 0.38494 0.67115 0.0
C217 C 0.90432 0.38634 0.8038 0.0
N218 N 0.88727 0.3595 0.80877 0.0
C219 C 0.91081 0.40694 0.82858 0.0
C220 C 0.89968 0.39997 0.85863 0.0
C221 C 0.88235 0.37255 0.86354 0.0
C222 C 0.87634 0.3525 0.83819 0.0
C223 C 0.92696 0.26819 0.83079 0.0
C224 C 0.87074 0.26948 0.79797 0.0
C225 C 0.918 0.2947 0.81352 0.0
N226 N 0.89011 0.29515 0.79751 0.0
C227 C 0.87892 0.24256 0.81497 0.0
C228 C 0.90723 0.24198 0.83149 0.0
C229 C 0.84648 0.30493 0.71626 0.0
C230 C 0.89255 0.41683 0.66634 0.0
C231 C 0.84529 0.37234 0.66073 0.0
C232 C 0.86292 0.38065 0.63426 0.0
C233 C 0.88671 0.40305 0.63716 0.0
N234 N 0.8511 0.38601 0.68927 0.0
C235 C 0.87441 0.40797 0.69229 0.0
Co236 Co 0.22946 0.12514 0.32828 0.0
Co237 Co 0.27745 0.17403 0.37196 0.0
O238 O 0.25512 0.13428 0.36539 0.0
C239 C 0.27257 0.06954 0.33268 0.0
O240 O 0.29571 0.08771 0.34206 0.0
C241 C 0.2389 0.1672 0.4299 0.0
O242 O 0.21456 0.16017 0.41223 0.0
O243 O 0.23907 0.1991 0.36173 0.0
O244 O 0.21225 0.16881 0.32791 0.0
H245 H 0.311 0.28412 0.34449 0.0
H246 H 0.22641 0.08434 0.38468 0.0
O247 O 0.24546 0.08093 0.32708 0.0
H248 H 0.11807 0.12274 0.36916 0.0
H249 H 0.15797 0.05848 0.26113 0.0
H250 H 0.21506 0.15923 0.26911 0.0
H251 H 0.16025 0.13759 0.33222 0.0
H252 H 0.18954 0.07081 0.30825 0.0
O253 O 0.26534 0.17352 0.41732 0.0
H254 H 0.28323 0.23381 0.33632 0.0
H255 H 0.3193 0.19869 0.4227 0.0
H256 H 0.1835 0.14803 0.22175 0.0
H257 H 0.18493 0.06856 0.42208 0.0
H258 H 0.15469 0.0973 0.21751 0.0
H259 H 0.13033 0.08795 0.41455 0.0
O260 O 0.26424 0.13858 0.29966 0.0
H261 H 0.33807 0.08813 0.42614 0.0
H262 H 0.34449 0.17642 0.35103 0.0
H263 H 0.39203 0.14523 0.36255 0.0
H264 H 0.38902 0.10076 0.40042 0.0
H265 H 0.29102 0.11971 0.41367 0.0
H266 H 0.34727 0.24874 0.43195 0.0
H267 H 0.3433 0.29184 0.39261 0.0
O268 O 0.29034 0.17549 0.32696 0.0
C269 C 0.21669 0.19481 0.34215 0.0
C270 C 0.31297 0.2655 0.36178 0.0
C271 C 0.33328 0.24566 0.41088 0.0
N272 N 0.29973 0.21329 0.37895 0.0
C273 C 0.29735 0.23693 0.35725 0.0
C274 C 0.31731 0.2174 0.40557 0.0
C275 C 0.33106 0.26982 0.38879 0.0
C276 C 0.20266 0.09267 0.38108 0.0
N277 N 0.1958 0.11205 0.35633 0.0
C278 C 0.17929 0.08372 0.4024 0.0
C279 C 0.14867 0.09465 0.39818 0.0
C280 C 0.14179 0.11421 0.37276 0.0
C281 C 0.1658 0.12272 0.35198 0.0
C282 C 0.17036 0.08068 0.26272 0.0
C283 C 0.20245 0.13718 0.26755 0.0
C284 C 0.18835 0.08776 0.28931 0.0
N285 N 0.20404 0.11577 0.2915 0.0
C286 C 0.18467 0.13094 0.24062 0.0
C287 C 0.16854 0.10247 0.23825 0.0
C288 C 0.28507 0.16019 0.30173 0.0
C289 C 0.3397 0.1075 0.40967 0.0
C290 C 0.34293 0.15701 0.3674 0.0
C291 C 0.36996 0.13949 0.37391 0.0
C292 C 0.36827 0.11457 0.39519 0.0
N293 N 0.315 0.14995 0.38172 0.0
C294 C 0.31317 0.12556 0.40262 0.0
Co295 Co 0.32241 0.77706 0.87854 0.0
Co296 Co 0.37123 0.73028 0.83424 0.0
O297 O 0.36169 0.75404 0.87246 0.0
C298 C 0.32696 0.73745 0.93609 0.0
O299 O 0.33522 0.71356 0.91833 0.0
C300 C 0.42905 0.77021 0.84085 0.0
O301 O 0.41186 0.7959 0.84085 0.0
O302 O 0.36159 0.76761 0.80735 0.0
O303 O 0.32196 0.79049 0.83357 0.0
H304 H 0.35168 0.69124 0.72426 0.0
H305 H 0.37655 0.78903 0.92075 0.0
O306 O 0.32159 0.76431 0.92389 0.0
H307 H 0.35313 0.89135 0.87116 0.0
H308 H 0.24756 0.84721 0.9379 0.0
H309 H 0.2635 0.78417 0.84177 0.0
H310 H 0.32119 0.8445 0.85872 0.0
H311 H 0.29752 0.81902 0.92906 0.0
O312 O 0.41623 0.7433 0.83773 0.0
H313 H 0.33934 0.72041 0.77285 0.0
H314 H 0.42509 0.68986 0.81415 0.0
H315 H 0.21333 0.81225 0.84946 0.0
H316 H 0.40895 0.83535 0.93408 0.0
H317 H 0.20506 0.84399 0.89788 0.0
H318 H 0.39733 0.88696 0.90915 0.0
O319 O 0.2973 0.73907 0.86739 0.0
H320 H 0.41921 0.67412 0.92664 0.0
H321 H 0.35321 0.66237 0.83191 0.0
H322 H 0.3638 0.61605 0.86526 0.0
H323 H 0.39713 0.62174 0.91295 0.0
H324 H 0.4077 0.71989 0.89284 0.0
H325 H 0.43851 0.66062 0.76585 0.0
H326 H 0.40162 0.6611 0.7205 0.0
O327 O 0.32671 0.71606 0.83017 0.0
C328 C 0.33887 0.78722 0.80901 0.0
C329 C 0.36793 0.69079 0.74388 0.0
C330 C 0.41669 0.67367 0.7672 0.0
N331 N 0.38144 0.70684 0.79636 0.0
C332 C 0.36103 0.7072 0.77151 0.0
C333 C 0.40901 0.69039 0.79445 0.0
C334 C 0.39597 0.67393 0.74177 0.0
C335 C 0.37121 0.81147 0.91 0.0
N336 N 0.34692 0.8141 0.88911 0.0
C337 C 0.3897 0.83758 0.91755 0.0
C338 C 0.38319 0.86652 0.90353 0.0
C339 C 0.35841 0.869 0.8822 0.0
C340 C 0.34045 0.84237 0.87518 0.0
C341 C 0.25086 0.83345 0.91672 0.0
C342 C 0.26017 0.79808 0.86281 0.0
C343 C 0.27906 0.81734 0.91165 0.0
N344 N 0.2834 0.7999 0.88497 0.0
C345 C 0.23167 0.81388 0.86707 0.0
C346 C 0.22704 0.83165 0.89425 0.0
C347 C 0.30104 0.71899 0.84537 0.0
C348 C 0.40478 0.6713 0.90585 0.0
C349 C 0.36765 0.66507 0.85267 0.0
C350 C 0.37362 0.63873 0.87143 0.0
C351 C 0.39234 0.64194 0.89818 0.0
N352 N 0.38008 0.69377 0.86025 0.0
C353 C 0.39831 0.69711 0.88652 0.0
Co354 Co 0.77368 0.87699 0.33141 0.0
Co355 Co 0.72703 0.82661 0.37442 0.0
O356 O 0.74949 0.86642 0.36913 0.0
C357 C 0.7321 0.9333 0.33841 0.0
O358 O 0.70728 0.91507 0.34108 0.0
C359 C 0.76582 0.83112 0.43264 0.0
O360 O 0.78972 0.8408 0.41563 0.0
O361 O 0.76539 0.80213 0.36287 0.0
O362 O 0.78939 0.83301 0.32748 0.0
H363 H 0.69404 0.71735 0.34331 0.0
H364 H 0.78106 0.91441 0.38978 0.0
O365 O 0.75924 0.92141 0.33436 0.0
H366 H 0.88714 0.87396 0.366 0.0
H367 H 0.84359 0.94611 0.265 0.0
H368 H 0.78462 0.84624 0.2697 0.0
H369 H 0.84246 0.86196 0.33106 0.0
H370 H 0.81378 0.93168 0.31268 0.0
O371 O 0.73947 0.82503 0.41976 0.0
H372 H 0.72159 0.76804 0.33686 0.0
H373 H 0.6846 0.80036 0.42392 0.0
H374 H 0.8143 0.85961 0.22168 0.0
H375 H 0.82512 0.9274 0.4252 0.0
H376 H 0.84408 0.90988 0.2191 0.0
H377 H 0.87862 0.907 0.41348 0.0
O378 O 0.7372 0.86637 0.30365 0.0
H379 H 0.66778 0.9117 0.43122 0.0
H380 H 0.65958 0.82492 0.3546 0.0
H381 H 0.61248 0.85632 0.3673 0.0
H382 H 0.6164 0.90006 0.40591 0.0
H383 H 0.71436 0.87986 0.4176 0.0
H384 H 0.65691 0.74988 0.43151 0.0
H385 H 0.66145 0.70799 0.39096 0.0
O386 O 0.71363 0.8269 0.32955 0.0
C387 C 0.78621 0.80683 0.3417 0.0
C388 C 0.69185 0.73542 0.36114 0.0
C389 C 0.67104 0.75367 0.41065 0.0
N390 N 0.70471 0.78714 0.37999 0.0
C391 C 0.70736 0.7642 0.3576 0.0
C392 C 0.68686 0.78217 0.40629 0.0
C393 C 0.67359 0.73018 0.38788 0.0
C394 C 0.8043 0.90561 0.38438 0.0
N395 N 0.80912 0.88725 0.3584 0.0
C396 C 0.82915 0.91298 0.40459 0.0
C397 C 0.85914 0.90148 0.39803 0.0
C398 C 0.86392 0.8829 0.37142 0.0
C399 C 0.83849 0.87599 0.35179 0.0
C400 C 0.83073 0.92412 0.26584 0.0
C401 C 0.79762 0.8681 0.26884 0.0
C402 C 0.81373 0.91587 0.29275 0.0
N403 N 0.79757 0.88807 0.29405 0.0
C404 C 0.81434 0.87557 0.24154 0.0
C405 C 0.83101 0.90378 0.24011 0.0
C406 C 0.71721 0.84395 0.30515 0.0
C407 C 0.66576 0.89266 0.41442 0.0
C408 C 0.66151 0.84397 0.37132 0.0
C409 C 0.63474 0.86162 0.37849 0.0
C410 C 0.63695 0.88614 0.40017 0.0
N411 N 0.68968 0.85048 0.38541 0.0
C412 C 0.69202 0.87448 0.4067 0.0
Co413 Co 0.67299 0.22313 0.87414 0.0
Co414 Co 0.62933 0.26888 0.82413 0.0
O415 O 0.63519 0.24692 0.86391 0.0
C416 C 0.66585 0.26378 0.93117 0.0
O417 O 0.66613 0.28939 0.91385 0.0
C418 C 0.57042 0.23127 0.83063 0.0
O419 O 0.58716 0.20559 0.83451 0.0
O420 O 0.63981 0.22994 0.79996 0.0
O421 O 0.67734 0.20815 0.82997 0.0
H422 H 0.65864 0.30144 0.71422 0.0
H423 H 0.61285 0.21472 0.90846 0.0
O424 O 0.66921 0.23682 0.91866 0.0
H425 H 0.6417 0.10857 0.87159 0.0
H426 H 0.74058 0.15436 0.94322 0.0
H427 H 0.73467 0.21282 0.84312 0.0
H428 H 0.67596 0.15401 0.86056 0.0
H429 H 0.69249 0.18349 0.92892 0.0
O430 O 0.58386 0.2574 0.82489 0.0
H431 H 0.66604 0.27433 0.76499 0.0
H432 H 0.57867 0.30999 0.79792 0.0
H433 H 0.78306 0.18374 0.85634 0.0
H434 H 0.57805 0.16991 0.92048 0.0
H435 H 0.78626 0.15424 0.90674 0.0
H436 H 0.59233 0.11634 0.90191 0.0
O437 O 0.70005 0.26026 0.86397 0.0
H438 H 0.57748 0.33053 0.91077 0.0
H439 H 0.64868 0.33633 0.81933 0.0
H440 H 0.63733 0.38444 0.84973 0.0
H441 H 0.60138 0.38175 0.89575 0.0
H442 H 0.58974 0.28295 0.87989 0.0
H443 H 0.57016 0.33724 0.74737 0.0
H444 H 0.61039 0.33317 0.70514 0.0
O445 O 0.67435 0.28155 0.82304 0.0
C446 C 0.66224 0.21032 0.80418 0.0
C447 C 0.64095 0.30343 0.73245 0.0
C448 C 0.59127 0.32348 0.75104 0.0
N449 N 0.62285 0.2906 0.78445 0.0
C450 C 0.64503 0.28818 0.76128 0.0
C451 C 0.59616 0.30788 0.77958 0.0
C452 C 0.61386 0.3212 0.72736 0.0
C453 C 0.61934 0.19149 0.90039 0.0
N454 N 0.64647 0.18706 0.88367 0.0
C455 C 0.59948 0.1662 0.90723 0.0
C456 C 0.60749 0.13617 0.89679 0.0
C457 C 0.63516 0.1318 0.87974 0.0
C458 C 0.65443 0.15766 0.87336 0.0
C459 C 0.73947 0.16711 0.92119 0.0
C460 C 0.73578 0.1999 0.86502 0.0
C461 C 0.71233 0.18375 0.91301 0.0
N462 N 0.71069 0.19975 0.88513 0.0
C463 C 0.7633 0.18354 0.87241 0.0
C464 C 0.76508 0.16703 0.9007 0.0
C465 C 0.69852 0.27919 0.84062 0.0
C466 C 0.59311 0.33203 0.89071 0.0
C467 C 0.63314 0.33493 0.83939 0.0
C468 C 0.62673 0.36227 0.85648 0.0
C469 C 0.60655 0.36075 0.88229 0.0
N470 N 0.61972 0.30688 0.84766 0.0
C471 C 0.60008 0.30518 0.87307 0.0
Co472 Co 0.26908 0.82791 0.62762 0.0
Co473 Co 0.22216 0.87462 0.67505 0.0
O474 O 0.24556 0.86663 0.63613 0.0
C475 C 0.22723 0.83486 0.57113 0.0
O476 O 0.20464 0.84649 0.58867 0.0
C477 C 0.26497 0.93008 0.67039 0.0
O478 O 0.2878 0.91172 0.66061 0.0
O479 O 0.25857 0.86101 0.70152 0.0
O480 O 0.28584 0.82731 0.67144 0.0
H481 H 0.18294 0.84889 0.78365 0.0
H482 H 0.27568 0.88339 0.58592 0.0
O483 O 0.25348 0.82701 0.58322 0.0
H484 H 0.38273 0.86197 0.6251 0.0
H485 H 0.33763 0.75612 0.5627 0.0
H486 H 0.27974 0.76844 0.66254 0.0
H487 H 0.33826 0.82818 0.64072 0.0
H488 H 0.30846 0.80501 0.57401 0.0
O489 O 0.23784 0.91887 0.67631 0.0
H490 H 0.21203 0.83925 0.73437 0.0
H491 H 0.18241 0.9277 0.69838 0.0
H492 H 0.30891 0.71932 0.65237 0.0
H493 H 0.3195 0.9176 0.5693 0.0
H494 H 0.33811 0.7129 0.60211 0.0
H495 H 0.37349 0.90706 0.58903 0.0
O496 O 0.23274 0.8012 0.64107 0.0
H497 H 0.17112 0.93473 0.58695 0.0
H498 H 0.15317 0.86057 0.67432 0.0
H499 H 0.10853 0.8766 0.64096 0.0
H500 H 0.11736 0.91405 0.59692 0.0
H501 H 0.21514 0.91763 0.62066 0.0
H502 H 0.15327 0.93847 0.74741 0.0
H503 H 0.15329 0.89883 0.79042 0.0
O504 O 0.20559 0.8308 0.67531 0.0
C505 C 0.28079 0.84116 0.69754 0.0
C506 C 0.1827 0.86633 0.76507 0.0
C507 C 0.16605 0.9166 0.74473 0.0
N508 N 0.19882 0.88283 0.71346 0.0
C509 C 0.19909 0.86098 0.73708 0.0
C510 C 0.18267 0.91041 0.71705 0.0
C511 C 0.16608 0.89436 0.76885 0.0
C512 C 0.29913 0.87851 0.59446 0.0
N513 N 0.30436 0.85384 0.61445 0.0
C514 C 0.32384 0.89803 0.58502 0.0
C515 C 0.35411 0.89213 0.59614 0.0
C516 C 0.3593 0.86688 0.61642 0.0
C517 C 0.334 0.8479 0.62538 0.0
C518 C 0.32505 0.75865 0.5847 0.0
C519 C 0.29252 0.7659 0.64068 0.0
C520 C 0.30841 0.78625 0.5912 0.0
N521 N 0.29251 0.78965 0.61897 0.0
C522 C 0.30894 0.738 0.63503 0.0
C523 C 0.3253 0.73441 0.60682 0.0
C524 C 0.21067 0.80487 0.66118 0.0
C525 C 0.16696 0.9184 0.60607 0.0
C526 C 0.15726 0.87652 0.65503 0.0
C527 C 0.13186 0.8857 0.63631 0.0
C528 C 0.13682 0.90676 0.61165 0.0
N529 N 0.18677 0.88798 0.64941 0.0
C530 C 0.19178 0.90872 0.62532 0.0
Co531 Co 0.62661 0.73012 0.17315 0.0
Co532 Co 0.67152 0.77693 0.12439 0.0
O533 O 0.63353 0.75264 0.13361 0.0
C534 C 0.56879 0.7695 0.16668 0.0
O535 O 0.58635 0.7937 0.15888 0.0
C536 C 0.66654 0.73409 0.06888 0.0
O537 O 0.65974 0.71048 0.08763 0.0
O538 O 0.699 0.74089 0.13683 0.0
O539 O 0.6713 0.7162 0.17434 0.0
H540 H 0.77991 0.81873 0.14641 0.0
H541 H 0.58502 0.7181 0.11845 0.0
O542 O 0.58141 0.74307 0.17304 0.0
H543 H 0.63363 0.61562 0.14307 0.0
H544 H 0.56561 0.66085 0.24762 0.0
H545 H 0.66233 0.72324 0.23273 0.0
H546 H 0.6457 0.66247 0.17514 0.0
H547 H 0.5752 0.68897 0.19772 0.0
O548 O 0.67126 0.76151 0.08001 0.0
H549 H 0.73161 0.7887 0.15784 0.0
H550 H 0.69241 0.81656 0.07019 0.0
H551 H 0.65382 0.69529 0.28288 0.0
H552 H 0.57211 0.6718 0.08589 0.0
H553 H 0.60514 0.66382 0.29058 0.0
H554 H 0.59658 0.62012 0.09807 0.0
O555 O 0.63783 0.76818 0.19837 0.0
H556 H 0.57915 0.82629 0.06961 0.0
H557 H 0.67041 0.84597 0.13835 0.0
H558 H 0.63513 0.88991 0.12463 0.0
H559 H 0.58905 0.88018 0.08999 0.0
H560 H 0.61492 0.783 0.08424 0.0
H561 H 0.74043 0.84669 0.05767 0.0
H562 H 0.78456 0.84801 0.09599 0.0
O563 O 0.67321 0.79332 0.16836 0.0
C564 C 0.69648 0.72034 0.15863 0.0
C565 C 0.76082 0.81842 0.12955 0.0
C566 C 0.73867 0.83407 0.07974 0.0
N567 N 0.70912 0.80103 0.1148 0.0
C568 C 0.73336 0.80151 0.13592 0.0
C569 C 0.71157 0.8169 0.08692 0.0
C570 C 0.76341 0.83481 0.10125 0.0
C571 C 0.59551 0.69562 0.1241 0.0
N572 N 0.616 0.69298 0.14876 0.0
C573 C 0.58821 0.66951 0.1055 0.0
C574 C 0.60199 0.64054 0.11231 0.0
C575 C 0.6228 0.63801 0.13754 0.0
C576 C 0.62961 0.66464 0.15558 0.0
C577 C 0.58691 0.67448 0.24454 0.0
C578 C 0.64115 0.7095 0.23584 0.0
C579 C 0.59242 0.69053 0.21637 0.0
N580 N 0.61933 0.70768 0.21228 0.0
C581 C 0.63643 0.69376 0.26432 0.0
C582 C 0.60911 0.67614 0.26863 0.0
C583 C 0.65868 0.78947 0.19431 0.0
C584 C 0.59915 0.83084 0.0847 0.0
C585 C 0.65034 0.84151 0.12352 0.0
C586 C 0.6305 0.86651 0.11567 0.0
C587 C 0.60469 0.86106 0.09619 0.0
N588 N 0.6447 0.81191 0.1123 0.0
C589 C 0.61955 0.80643 0.09301 0.0
Co590 Co 0.73563 0.17143 0.62616 0.0
Co591 Co 0.78238 0.12325 0.67122 0.0
O592 O 0.75827 0.13211 0.63321 0.0
C593 C 0.77374 0.16515 0.56729 0.0
O594 O 0.79974 0.16244 0.58376 0.0
C595 C 0.73989 0.06782 0.66635 0.0
O596 O 0.71616 0.0869 0.66115 0.0
O597 O 0.74592 0.13503 0.69828 0.0
O598 O 0.72241 0.17356 0.67097 0.0
H599 H 0.82317 0.1457 0.77994 0.0
H600 H 0.72291 0.11436 0.58799 0.0
O601 O 0.7475 0.16983 0.58089 0.0
H602 H 0.62065 0.14354 0.63436 0.0
H603 H 0.66626 0.24525 0.5645 0.0
H604 H 0.72924 0.23159 0.66102 0.0
H605 H 0.66798 0.17538 0.64495 0.0
H606 H 0.69427 0.19542 0.5746 0.0
O607 O 0.76749 0.07871 0.6705 0.0
H608 H 0.79346 0.15687 0.73138 0.0
H609 H 0.8222 0.06938 0.69247 0.0
H610 H 0.70137 0.28168 0.652 0.0
H611 H 0.67612 0.08203 0.57649 0.0
H612 H 0.6696 0.28876 0.60343 0.0
H613 H 0.62453 0.09651 0.59983 0.0
O614 O 0.77399 0.19662 0.63623 0.0
H615 H 0.83352 0.0695 0.5792 0.0
H616 H 0.85121 0.13794 0.67113 0.0
H617 H 0.89582 0.12463 0.63655 0.0
H618 H 0.88712 0.09008 0.59018 0.0
H619 H 0.78955 0.08374 0.61429 0.0
H620 H 0.85199 0.0571 0.74076 0.0
H621 H 0.85272 0.09549 0.78487 0.0
O622 O 0.79807 0.1675 0.6731 0.0
C623 C 0.72581 0.15721 0.69584 0.0
C624 C 0.82312 0.12882 0.76086 0.0
C625 C 0.83925 0.07908 0.73888 0.0
N626 N 0.80623 0.11389 0.70903 0.0
C627 C 0.80639 0.13504 0.73326 0.0
C628 C 0.82225 0.08611 0.71163 0.0
C629 C 0.83965 0.10063 0.76362 0.0
C630 C 0.70048 0.12104 0.59795 0.0
N631 N 0.69815 0.14695 0.61687 0.0
C632 C 0.67409 0.10255 0.59146 0.0
C633 C 0.64517 0.11066 0.6046 0.0
C634 C 0.64298 0.13703 0.62399 0.0
C635 C 0.66989 0.15495 0.62995 0.0
C636 C 0.68001 0.24244 0.58576 0.0
C637 C 0.71534 0.23441 0.63989 0.0
C638 C 0.69602 0.21431 0.59155 0.0
N639 N 0.71329 0.21053 0.61843 0.0
C640 C 0.69967 0.26287 0.63489 0.0
C641 C 0.68188 0.26684 0.60762 0.0
C642 C 0.7947 0.19307 0.65776 0.0
C643 C 0.83762 0.08457 0.59932 0.0
C644 C 0.84719 0.1232 0.6509 0.0
C645 C 0.87257 0.11557 0.63146 0.0
C646 C 0.86768 0.09616 0.60548 0.0
N647 N 0.81778 0.11179 0.64471 0.0
C648 C 0.81283 0.09267 0.61932 0.0
Co649 Co 0.372 0.27575 0.16662 0.0
Co650 Co 0.32405 0.22913 0.12061 0.0
O651 O 0.36273 0.25274 0.12798 0.0
C652 C 0.42977 0.23549 0.16048 0.0
O653 O 0.41292 0.20961 0.15907 0.0
C654 C 0.3279 0.27165 0.06478 0.0
O655 O 0.33565 0.2953 0.08309 0.0
O656 O 0.29754 0.26545 0.13459 0.0
O657 O 0.32788 0.29087 0.16956 0.0
H658 H 0.2167 0.18787 0.1482 0.0
H659 H 0.40819 0.28454 0.10762 0.0
O660 O 0.41665 0.26209 0.16425 0.0
H661 H 0.37203 0.39083 0.13682 0.0
H662 H 0.43841 0.34384 0.2376 0.0
H663 H 0.33898 0.28489 0.22739 0.0
H664 H 0.35969 0.34517 0.17032 0.0
H665 H 0.42606 0.31517 0.18868 0.0
O666 O 0.32254 0.24454 0.07633 0.0
H667 H 0.26563 0.21775 0.15708 0.0
H668 H 0.29995 0.19009 0.06734 0.0
H669 H 0.3502 0.3136 0.27654 0.0
H670 H 0.42165 0.32956 0.07365 0.0
H671 H 0.40023 0.34336 0.28189 0.0
H672 H 0.40336 0.38319 0.08804 0.0
O673 O 0.36078 0.23833 0.1931 0.0
H674 H 0.41343 0.17894 0.06173 0.0
H675 H 0.32436 0.15982 0.13341 0.0
H676 H 0.35818 0.11544 0.11766 0.0
H677 H 0.40311 0.12486 0.08146 0.0
H678 H 0.37918 0.22266 0.07847 0.0
H679 H 0.25122 0.16018 0.05733 0.0
H680 H 0.20926 0.15878 0.09802 0.0
O681 O 0.32446 0.21278 0.16449 0.0
C682 C 0.3017 0.28651 0.15569 0.0
C683 C 0.23483 0.18824 0.13031 0.0
C684 C 0.2542 0.17273 0.0793 0.0
N685 N 0.28572 0.20552 0.11284 0.0
C686 C 0.26263 0.20508 0.13522 0.0
C687 C 0.2817 0.1898 0.08506 0.0
C688 C 0.23067 0.17194 0.10215 0.0
C689 C 0.40019 0.30778 0.11416 0.0
N690 N 0.38273 0.31209 0.14086 0.0
C691 C 0.40788 0.33321 0.09478 0.0
C692 C 0.3976 0.36327 0.10285 0.0
C693 C 0.37996 0.36755 0.13016 0.0
C694 C 0.37274 0.34155 0.14896 0.0
C695 C 0.41651 0.33099 0.23553 0.0
C696 C 0.36073 0.29792 0.22944 0.0
C697 C 0.40944 0.3146 0.20793 0.0
N698 N 0.38171 0.29853 0.20506 0.0
C699 C 0.36699 0.31406 0.25738 0.0
C700 C 0.39507 0.33073 0.26037 0.0
C701 C 0.33982 0.21692 0.18989 0.0
C702 C 0.39396 0.17452 0.07754 0.0
C703 C 0.34402 0.16417 0.11804 0.0
C704 C 0.36301 0.13891 0.10899 0.0
C705 C 0.38818 0.1442 0.08864 0.0
N706 N 0.34985 0.19386 0.10715 0.0
C707 C 0.37443 0.19919 0.08708 0.0
Co708 Co 0.87178 0.66959 0.76884 0.0
Co709 Co 0.8252 0.62284 0.72198 0.0
O710 O 0.86318 0.6304 0.74651 0.0
C711 C 0.93033 0.66156 0.73051 0.0
O712 O 0.91353 0.66059 0.70459 0.0
C713 C 0.82768 0.56729 0.76469 0.0
O714 O 0.8338 0.58599 0.78851 0.0
O715 O 0.79812 0.6364 0.75791 0.0
O716 O 0.82693 0.67369 0.78175 0.0
H717 H 0.71851 0.64988 0.67876 0.0
H718 H 0.90765 0.61117 0.78217 0.0
O719 O 0.91714 0.66589 0.75706 0.0
H720 H 0.86165 0.64271 0.88392 0.0
H721 H 0.93656 0.74099 0.83785 0.0
H722 H 0.83934 0.73112 0.77529 0.0
H723 H 0.85253 0.67458 0.83627 0.0
H724 H 0.92435 0.69157 0.80994 0.0
O725 O 0.82377 0.57848 0.73719 0.0
H726 H 0.76692 0.65909 0.70933 0.0
H727 H 0.80207 0.56942 0.68252 0.0
H728 H 0.85049 0.78085 0.80303 0.0
H729 H 0.9177 0.57881 0.82929 0.0
H730 H 0.89942 0.78603 0.8346 0.0
H731 H 0.89453 0.59448 0.88063 0.0
O732 O 0.86274 0.69513 0.73031 0.0
H733 H 0.91608 0.56509 0.67325 0.0
H734 H 0.8266 0.63582 0.65273 0.0
H735 H 0.86138 0.62057 0.60892 0.0
H736 H 0.90653 0.58485 0.61905 0.0
H737 H 0.88083 0.58132 0.71639 0.0
H738 H 0.75385 0.55907 0.65193 0.0
H739 H 0.71171 0.59954 0.64979 0.0
O740 O 0.8255 0.66682 0.70585 0.0
C741 C 0.80124 0.65872 0.77784 0.0
C742 C 0.73672 0.63208 0.67945 0.0
C743 C 0.75654 0.5811 0.66444 0.0
N744 N 0.78738 0.61488 0.69762 0.0
C745 C 0.76423 0.63719 0.69666 0.0
C746 C 0.78374 0.58704 0.6819 0.0
C747 C 0.73291 0.60382 0.66323 0.0
C748 C 0.89785 0.61839 0.8045 0.0
N749 N 0.87988 0.64499 0.80651 0.0
C750 C 0.90348 0.59988 0.83107 0.0
C751 C 0.89043 0.60865 0.85985 0.0
C752 C 0.87197 0.63569 0.86171 0.0
C753 C 0.86685 0.65364 0.83463 0.0
C754 C 0.91517 0.73902 0.82417 0.0
C755 C 0.86063 0.73313 0.78906 0.0
C756 C 0.90818 0.71113 0.80822 0.0
N757 N 0.88112 0.70842 0.79104 0.0
C758 C 0.86684 0.76138 0.80468 0.0
C759 C 0.89431 0.76428 0.82236 0.0
C760 C 0.84137 0.692 0.70934 0.0
C761 C 0.89652 0.5807 0.66853 0.0
C762 C 0.84634 0.62066 0.65739 0.0
C763 C 0.86588 0.61189 0.63245 0.0
C764 C 0.89117 0.59182 0.63814 0.0
N765 N 0.85176 0.60976 0.68714 0.0
C766 C 0.87644 0.58994 0.69286 0.0
Co767 Co 0.8217 0.37609 0.27085 0.0
Co768 Co 0.87372 0.33354 0.22637 0.0
O769 O 0.8624 0.37096 0.25042 0.0
C770 C 0.8281 0.43424 0.23302 0.0
O771 O 0.83514 0.41653 0.20871 0.0
C772 C 0.92999 0.33987 0.26851 0.0
O773 O 0.91224 0.33816 0.29376 0.0
O774 O 0.86296 0.30588 0.26286 0.0
O775 O 0.82052 0.33075 0.28248 0.0
H776 H 0.85958 0.2232 0.18602 0.0
H777 H 0.87472 0.41801 0.28813 0.0
O778 O 0.82195 0.4217 0.25956 0.0
H779 H 0.84447 0.36441 0.38658 0.0
H780 H 0.74191 0.43314 0.33739 0.0
H781 H 0.76265 0.33884 0.27298 0.0
H782 H 0.81593 0.3537 0.33718 0.0
H783 H 0.79358 0.42555 0.31202 0.0
O784 O 0.91795 0.33779 0.24119 0.0
H785 H 0.84492 0.27078 0.21577 0.0
H786 H 0.9291 0.31617 0.18677 0.0
H787 H 0.71077 0.34537 0.29808 0.0
H788 H 0.90375 0.42961 0.33707 0.0
H789 H 0.70012 0.39281 0.33056 0.0
H790 H 0.88868 0.40267 0.38673 0.0
O791 O 0.79927 0.36604 0.231 0.0
H792 H 0.92103 0.42899 0.17487 0.0
H793 H 0.85962 0.33214 0.15739 0.0
H794 H 0.87094 0.3672 0.11257 0.0
H795 H 0.90197 0.41602 0.12116 0.0
H796 H 0.90867 0.3935 0.21909 0.0
H797 H 0.94488 0.26894 0.15695 0.0
H798 H 0.90991 0.22207 0.15628 0.0
O799 O 0.82988 0.32849 0.21024 0.0
C800 C 0.83863 0.30698 0.28047 0.0
C801 C 0.87499 0.24349 0.18605 0.0
C802 C 0.92286 0.26916 0.16975 0.0
N803 N 0.88594 0.29636 0.20278 0.0
C804 C 0.86677 0.27054 0.20281 0.0
C805 C 0.91383 0.29581 0.18675 0.0
C806 C 0.90323 0.24287 0.16938 0.0
C807 C 0.86787 0.4064 0.30971 0.0
N808 N 0.84353 0.38539 0.30985 0.0
C809 C 0.88445 0.41297 0.33732 0.0
C810 C 0.87601 0.39782 0.36517 0.0
C811 C 0.85122 0.37634 0.3651 0.0
C812 C 0.83518 0.37034 0.33704 0.0
C813 C 0.74628 0.41236 0.32331 0.0
C814 C 0.75827 0.35948 0.28718 0.0
C815 C 0.77546 0.40799 0.30881 0.0
N816 N 0.78117 0.38174 0.29112 0.0
C817 C 0.72881 0.36308 0.30129 0.0
C818 C 0.72284 0.38971 0.31948 0.0
C819 C 0.80404 0.34363 0.21157 0.0
C820 C 0.90757 0.40774 0.1708 0.0
C821 C 0.87291 0.35339 0.16136 0.0
C822 C 0.87938 0.37312 0.13586 0.0
C823 C 0.89682 0.40048 0.14068 0.0
N824 N 0.88356 0.36062 0.19083 0.0
C825 C 0.90061 0.38747 0.19573 0.0
Co826 Co 0.17814 0.37376 0.71898 0.0
Co827 Co 0.12967 0.32549 0.76134 0.0
O828 O 0.13911 0.36595 0.74173 0.0
C829 C 0.17406 0.42904 0.76196 0.0
O830 O 0.16769 0.41009 0.78552 0.0
C831 C 0.07047 0.3374 0.7252 0.0
O832 O 0.0865 0.33873 0.6988 0.0
O833 O 0.13711 0.30299 0.72074 0.0
O834 O 0.17875 0.32971 0.70244 0.0
H835 H 0.14746 0.21116 0.78646 0.0
H836 H 0.12295 0.41542 0.71084 0.0
O837 O 0.1787 0.41807 0.73448 0.0
H838 H 0.14732 0.37623 0.60436 0.0
H839 H 0.25239 0.43766 0.65211 0.0
H840 H 0.23747 0.33817 0.71006 0.0
H841 H 0.1799 0.36073 0.64976 0.0
H842 H 0.20276 0.42712 0.68033 0.0
O843 O 0.08428 0.33168 0.75115 0.0
H844 H 0.15992 0.26244 0.76239 0.0
H845 H 0.07725 0.30229 0.80196 0.0
H846 H 0.2873 0.3476 0.6819 0.0
H847 H 0.08988 0.43189 0.66609 0.0
H848 H 0.29501 0.39765 0.65262 0.0
H849 H 0.10192 0.41217 0.61238 0.0
O850 O 0.20328 0.35998 0.75618 0.0
H851 H 0.08826 0.41236 0.83017 0.0
H852 H 0.15092 0.3147 0.82743 0.0
H853 H 0.1441 0.34286 0.87773 0.0
H854 H 0.11247 0.39201 0.87934 0.0
H855 H 0.09602 0.38366 0.78032 0.0
H856 H 0.06374 0.25134 0.82629 0.0
H857 H 0.09902 0.20534 0.81869 0.0
O858 O 0.1746 0.31863 0.77248 0.0
C859 C 0.16092 0.30556 0.7025 0.0
C860 C 0.13191 0.23103 0.78999 0.0
C861 C 0.0849 0.25357 0.81229 0.0
N862 N 0.11938 0.28538 0.78075 0.0
C863 C 0.13888 0.26017 0.77645 0.0
C864 C 0.09262 0.28234 0.79834 0.0
C865 C 0.10472 0.22778 0.80804 0.0
C866 C 0.12845 0.40685 0.68752 0.0
N867 N 0.15331 0.38697 0.68295 0.0
C868 C 0.10959 0.41621 0.66228 0.0
C869 C 0.11633 0.40511 0.63216 0.0
C870 C 0.14177 0.38492 0.62766 0.0
C871 C 0.16007 0.37604 0.65348 0.0
C872 C 0.24929 0.41574 0.66473 0.0
C873 C 0.24058 0.35997 0.69729 0.0
C874 C 0.22128 0.40968 0.68083 0.0
N875 N 0.21712 0.38195 0.69662 0.0
C876 C 0.26889 0.3652 0.68143 0.0
C877 C 0.2732 0.39328 0.66502 0.0
C878 C 0.19979 0.33481 0.77218 0.0
C879 C 0.1019 0.39085 0.82983 0.0
C880 C 0.13709 0.33605 0.82794 0.0
C881 C 0.1333 0.35189 0.8565 0.0
C882 C 0.11555 0.37946 0.85738 0.0
N883 N 0.12345 0.34725 0.80104 0.0
C884 C 0.10621 0.37438 0.8017 0.0
Co885 Co 0.12538 0.67621 0.23399 0.0
Co886 Co 0.16981 0.62737 0.28111 0.0
O887 O 0.13173 0.63684 0.25706 0.0
C888 C 0.06762 0.67072 0.27355 0.0
O889 O 0.08485 0.66092 0.29723 0.0
C890 C 0.16392 0.57042 0.24002 0.0
O891 O 0.15937 0.58844 0.21531 0.0
O892 O 0.19709 0.63839 0.24439 0.0
O893 O 0.17002 0.67646 0.21988 0.0
H894 H 0.27929 0.64809 0.32066 0.0
H895 H 0.08286 0.62203 0.223 0.0
O896 O 0.08023 0.67727 0.24717 0.0
H897 H 0.13141 0.64429 0.11994 0.0
H898 H 0.06556 0.75053 0.1636 0.0
H899 H 0.16194 0.73522 0.22637 0.0
H900 H 0.14423 0.67685 0.16624 0.0
H901 H 0.07453 0.70081 0.19223 0.0
O902 O 0.16816 0.58262 0.26703 0.0
H903 H 0.23077 0.6598 0.29114 0.0
H904 H 0.19005 0.57389 0.32211 0.0
H905 H 0.15411 0.78516 0.19782 0.0
H906 H 0.06918 0.589 0.17725 0.0
H907 H 0.10559 0.79309 0.1662 0.0
H908 H 0.09361 0.59999 0.12528 0.0
O909 O 0.13718 0.7018 0.27164 0.0
H910 H 0.07761 0.5748 0.33321 0.0
H911 H 0.16999 0.64282 0.34986 0.0
H912 H 0.13548 0.63024 0.39473 0.0
H913 H 0.08889 0.59588 0.38656 0.0
H914 H 0.11256 0.58844 0.28894 0.0
H915 H 0.23827 0.56108 0.35174 0.0
H916 H 0.28329 0.59839 0.35124 0.0
O917 O 0.17268 0.67165 0.29637 0.0
C918 C 0.19488 0.66021 0.22381 0.0
C919 C 0.25983 0.63166 0.32111 0.0
C920 C 0.23682 0.58281 0.33851 0.0
N921 N 0.20755 0.61759 0.30493 0.0
C922 C 0.23225 0.63818 0.30448 0.0
C923 C 0.20961 0.59013 0.32158 0.0
C924 C 0.26206 0.60376 0.33823 0.0
C925 C 0.09336 0.62714 0.2004 0.0
N926 N 0.11422 0.65143 0.19728 0.0
C927 C 0.08562 0.60828 0.1746 0.0
C928 C 0.09937 0.61444 0.14546 0.0
C929 C 0.1206 0.63927 0.14246 0.0
C930 C 0.12783 0.65759 0.16878 0.0
C931 C 0.0868 0.74736 0.17729 0.0
C932 C 0.14083 0.73843 0.21255 0.0
C933 C 0.09195 0.7193 0.19364 0.0
N934 N 0.11872 0.71511 0.21097 0.0
C935 C 0.1365 0.76679 0.19648 0.0
C936 C 0.10927 0.77122 0.17875 0.0
C937 C 0.15841 0.69772 0.29253 0.0
C938 C 0.09782 0.5898 0.33708 0.0
C939 C 0.14961 0.62827 0.34604 0.0
C940 C 0.13023 0.621 0.37158 0.0
C941 C 0.10414 0.60168 0.36699 0.0
N942 N 0.14323 0.61665 0.31675 0.0
C943 C 0.11777 0.59754 0.31212 0.0
Co944 Co 0.77267 0.87289 0.67226 0.0
Co945 Co 0.72339 0.82787 0.62626 0.0
O946 O 0.74826 0.86595 0.63381 0.0
C947 C 0.73402 0.93121 0.66702 0.0
O948 O 0.70921 0.91408 0.66026 0.0
C949 C 0.76342 0.83259 0.56899 0.0
O950 O 0.78742 0.84045 0.58678 0.0
O951 O 0.76007 0.80062 0.63663 0.0
O952 O 0.78606 0.82799 0.67342 0.0
H953 H 0.68398 0.71906 0.65082 0.0
H954 H 0.78324 0.91395 0.61686 0.0
O955 O 0.76048 0.9182 0.67223 0.0
H956 H 0.8859 0.8643 0.63824 0.0
H957 H 0.84522 0.93381 0.74357 0.0
H958 H 0.78128 0.83765 0.73189 0.0
H959 H 0.84001 0.8527 0.6718 0.0
H960 H 0.8155 0.92394 0.69469 0.0
O961 O 0.73642 0.82779 0.58105 0.0
H962 H 0.71399 0.76778 0.66055 0.0
H963 H 0.6803 0.80686 0.57491 0.0
H964 H 0.81082 0.84645 0.78105 0.0
H965 H 0.82862 0.92646 0.58288 0.0
H966 H 0.84305 0.89486 0.78715 0.0
H967 H 0.88039 0.90148 0.59344 0.0
O968 O 0.73549 0.86277 0.69894 0.0
H969 H 0.66989 0.919 0.57326 0.0
H970 H 0.65585 0.82944 0.6458 0.0
H971 H 0.61088 0.8643 0.63442 0.0
H972 H 0.61776 0.90947 0.59791 0.0
H973 H 0.7143 0.88366 0.58547 0.0
H974 H 0.65011 0.75844 0.56411 0.0
H975 H 0.65179 0.71414 0.60226 0.0
O976 O 0.70938 0.82644 0.67108 0.0
C977 C 0.78143 0.80298 0.65759 0.0
C978 C 0.68299 0.73823 0.63405 0.0
C979 C 0.66401 0.76032 0.58537 0.0
N980 N 0.69884 0.79017 0.61835 0.0
C981 C 0.69987 0.76591 0.63946 0.0
C982 C 0.68121 0.78764 0.59157 0.0
C983 C 0.66496 0.73547 0.60678 0.0
C984 C 0.80576 0.9032 0.62177 0.0
N985 N 0.80898 0.88269 0.64634 0.0
C986 C 0.83134 0.91028 0.60238 0.0
C987 C 0.86037 0.89622 0.60829 0.0
C988 C 0.86347 0.87533 0.6334 0.0
C989 C 0.83736 0.86878 0.65227 0.0
C990 C 0.83128 0.91262 0.74119 0.0
C991 C 0.79542 0.85867 0.73426 0.0
C992 C 0.81433 0.90695 0.71359 0.0
N993 N 0.79673 0.8802 0.71039 0.0
C994 C 0.81203 0.86356 0.7622 0.0
C995 C 0.83007 0.89075 0.76562 0.0
C996 C 0.71405 0.84191 0.69633 0.0
C997 C 0.66658 0.89934 0.58913 0.0
C998 C 0.65906 0.84907 0.62994 0.0
C999 C 0.63348 0.86869 0.62352 0.0
C1000 C 0.63735 0.89401 0.60301 0.0
N1001 N 0.68766 0.85445 0.61623 0.0
C1002 C 0.6916 0.87918 0.59603 0.0
Co1003 Co 0.66934 0.22532 0.12621 0.0
Co1004 Co 0.62462 0.27668 0.1696 0.0
O1005 O 0.63189 0.25087 0.1325 0.0
C1006 C 0.6658 0.26351 0.06773 0.0
O1007 O 0.66509 0.28928 0.08478 0.0
C1008 C 0.56643 0.23804 0.16495 0.0
O1009 O 0.58369 0.2124 0.16458 0.0
O1010 O 0.6336 0.24037 0.19791 0.0
O1011 O 0.67025 0.21315 0.17138 0.0
H1012 H 0.64998 0.32124 0.27624 0.0
H1013 H 0.61166 0.21593 0.08804 0.0
O1014 O 0.66868 0.23668 0.08077 0.0
H1015 H 0.63354 0.11272 0.13642 0.0
H1016 H 0.73844 0.1503 0.06579 0.0
H1017 H 0.72827 0.21436 0.16204 0.0
H1018 H 0.6684 0.15802 0.14646 0.0
H1019 H 0.69076 0.18205 0.07516 0.0
O1020 O 0.57924 0.26496 0.16807 0.0
H1021 H 0.65934 0.28892 0.229 0.0
H1022 H 0.57273 0.31958 0.18962 0.0
H1023 H 0.77615 0.18271 0.15379 0.0
H1024 H 0.57636 0.1712 0.07708 0.0
H1025 H 0.7815 0.15041 0.10534 0.0
H1026 H 0.58718 0.11912 0.10139 0.0
O1027 O 0.69719 0.26191 0.13551 0.0
H1028 H 0.5766 0.32985 0.07546 0.0
H1029 H 0.64484 0.34397 0.16825 0.0
H1030 H 0.63517 0.38893 0.13283 0.0
H1031 H 0.60073 0.38205 0.0861 0.0
H1032 H 0.58718 0.28546 0.11133 0.0
H1033 H 0.56223 0.35193 0.23667 0.0
H1034 H 0.60108 0.35299 0.28035 0.0
O1035 O 0.6697 0.28917 0.17138 0.0
C1036 C 0.65438 0.21874 0.1962 0.0
C1037 C 0.63289 0.32101 0.25735 0.0
C1038 C 0.5836 0.33816 0.23517 0.0
N1039 N 0.61661 0.30234 0.20655 0.0
C1040 C 0.63809 0.30282 0.23048 0.0
C1041 C 0.58961 0.31968 0.20865 0.0
C1042 C 0.60543 0.33878 0.25966 0.0
C1043 C 0.61671 0.19328 0.09846 0.0
N1044 N 0.64229 0.18953 0.11758 0.0
C1045 C 0.59655 0.16806 0.09228 0.0
C1046 C 0.60262 0.13887 0.10596 0.0
C1047 C 0.62862 0.13527 0.12561 0.0
C1048 C 0.64826 0.16102 0.13126 0.0
C1049 C 0.73639 0.16428 0.087 0.0
C1050 C 0.73029 0.2002 0.141 0.0
C1051 C 0.70949 0.1824 0.09237 0.0
N1052 N 0.70668 0.19999 0.11916 0.0
C1053 C 0.75752 0.18239 0.13641 0.0
C1054 C 0.76053 0.16432 0.10921 0.0
C1055 C 0.69492 0.28363 0.15614 0.0
C1056 C 0.59155 0.33319 0.09582 0.0
C1057 C 0.62989 0.34076 0.14794 0.0
C1058 C 0.62446 0.36632 0.12799 0.0
C1059 C 0.60512 0.36245 0.10178 0.0
N1060 N 0.61632 0.31218 0.14206 0.0
C1061 C 0.59752 0.30817 0.11629 0.0
Co1062 Co 0.22652 0.12326 0.66856 0.0
Co1063 Co 0.27943 0.16653 0.62454 0.0
O1064 O 0.25322 0.1293 0.6315 0.0
C1065 C 0.26664 0.06597 0.66726 0.0
O1066 O 0.29079 0.08343 0.65913 0.0
C1067 C 0.24017 0.16315 0.56682 0.0
O1068 O 0.21549 0.15774 0.58461 0.0
O1069 O 0.24367 0.19519 0.63439 0.0
O1070 O 0.21266 0.16802 0.66729 0.0
H1071 H 0.32365 0.27292 0.65132 0.0
H1072 H 0.22033 0.08038 0.61392 0.0
O1073 O 0.23955 0.07816 0.67111 0.0
H1074 H 0.11611 0.1299 0.626 0.0
H1075 H 0.15013 0.06359 0.73683 0.0
H1076 H 0.21343 0.16032 0.72624 0.0
H1077 H 0.15918 0.14253 0.66278 0.0
H1078 H 0.18294 0.07236 0.68973 0.0
O1079 O 0.26718 0.16699 0.5792 0.0
H1080 H 0.29126 0.22554 0.6599 0.0
H1081 H 0.3232 0.18681 0.57343 0.0
H1082 H 0.18069 0.15269 0.77354 0.0
H1083 H 0.17785 0.06692 0.57671 0.0
H1084 H 0.14879 0.10398 0.7791 0.0
H1085 H 0.12534 0.09186 0.58255 0.0
O1086 O 0.26164 0.13469 0.69742 0.0
H1087 H 0.33105 0.07429 0.57155 0.0
H1088 H 0.34647 0.16268 0.64519 0.0
H1089 H 0.39064 0.12673 0.63407 0.0
H1090 H 0.38309 0.08218 0.59697 0.0
H1091 H 0.28743 0.11064 0.58356 0.0
H1092 H 0.35572 0.23395 0.56375 0.0
H1093 H 0.35616 0.27737 0.60292 0.0
O1094 O 0.2925 0.16708 0.66948 0.0
C1095 C 0.22005 0.19321 0.65282 0.0
C1096 C 0.32373 0.25412 0.63411 0.0
C1097 C 0.34167 0.23227 0.58493 0.0
N1098 N 0.30542 0.20337 0.61724 0.0
C1099 C 0.30551 0.22718 0.63888 0.0
C1100 C 0.32313 0.20569 0.59049 0.0
C1101 C 0.34193 0.25662 0.60693 0.0
C1102 C 0.19744 0.09108 0.61681 0.0
N1103 N 0.19222 0.11212 0.64056 0.0
C1104 C 0.17352 0.08346 0.5956 0.0
C1105 C 0.14407 0.0975 0.59886 0.0
C1106 C 0.13889 0.11887 0.62321 0.0
C1107 C 0.16339 0.12598 0.64394 0.0
C1108 C 0.16388 0.08493 0.73466 0.0
C1109 C 0.19942 0.13918 0.72835 0.0
C1110 C 0.18256 0.08999 0.70808 0.0
N1111 N 0.2 0.11686 0.70519 0.0
C1112 C 0.181 0.13495 0.75525 0.0
C1113 C 0.16314 0.1076 0.75837 0.0
C1114 C 0.285 0.15339 0.69507 0.0
C1115 C 0.33466 0.09366 0.58769 0.0
C1116 C 0.34295 0.14328 0.62911 0.0
C1117 C 0.36808 0.12305 0.62284 0.0
C1118 C 0.36383 0.09807 0.602 0.0
N1119 N 0.31442 0.13881 0.61497 0.0
C1120 C 0.31009 0.1144 0.59448 0.0
Co1121 Co 0.32603 0.77411 0.13087 0.0
Co1122 Co 0.3754 0.72599 0.17383 0.0
O1123 O 0.36527 0.75058 0.13616 0.0
C1124 C 0.32911 0.735 0.07257 0.0
O1125 O 0.33902 0.71098 0.0893 0.0
C1126 C 0.43179 0.76748 0.16669 0.0
O1127 O 0.41341 0.79159 0.16078 0.0
O1128 O 0.36477 0.76218 0.20201 0.0
O1129 O 0.32709 0.78786 0.17555 0.0
H1130 H 0.35635 0.68397 0.28276 0.0
H1131 H 0.37906 0.78476 0.0869 0.0
O1132 O 0.32357 0.76138 0.08563 0.0
H1133 H 0.35969 0.88772 0.13687 0.0
H1134 H 0.2512 0.84631 0.07389 0.0
H1135 H 0.26798 0.78169 0.16886 0.0
H1136 H 0.32682 0.84177 0.15022 0.0
H1137 H 0.30077 0.81702 0.08126 0.0
O1138 O 0.4201 0.74039 0.17193 0.0
H1139 H 0.34387 0.71454 0.23505 0.0
H1140 H 0.42943 0.6851 0.19257 0.0
H1141 H 0.21822 0.81087 0.16265 0.0
H1142 H 0.41235 0.83016 0.07266 0.0
H1143 H 0.20955 0.84343 0.11484 0.0
H1144 H 0.40282 0.88206 0.09781 0.0
O1145 O 0.30038 0.73661 0.14306 0.0
H1146 H 0.42651 0.67552 0.07991 0.0
H1147 H 0.35975 0.65732 0.17297 0.0
H1148 H 0.37173 0.61306 0.13746 0.0
H1149 H 0.40543 0.62202 0.09052 0.0
H1150 H 0.41354 0.71917 0.1159 0.0
H1151 H 0.44298 0.65443 0.23997 0.0
H1152 H 0.40624 0.65363 0.28545 0.0
O1153 O 0.3312 0.71054 0.17705 0.0
C1154 C 0.3434 0.78324 0.20024 0.0
C1155 C 0.37253 0.68408 0.26308 0.0
C1156 C 0.42117 0.66754 0.23908 0.0
N1157 N 0.38583 0.70152 0.21098 0.0
C1158 C 0.36557 0.7013 0.23596 0.0
C1159 C 0.41341 0.68503 0.21234 0.0
C1160 C 0.40053 0.66708 0.26458 0.0
C1161 C 0.37456 0.80735 0.09771 0.0
N1162 N 0.35095 0.81062 0.11929 0.0
C1163 C 0.39357 0.83294 0.08964 0.0
C1164 C 0.38825 0.86204 0.1038 0.0
C1165 C 0.36407 0.86522 0.12574 0.0
C1166 C 0.34558 0.83909 0.13328 0.0
C1167 C 0.25469 0.8322 0.09482 0.0
C1168 C 0.26444 0.79589 0.14804 0.0
C1169 C 0.28266 0.81547 0.09906 0.0
N1170 N 0.28725 0.79762 0.12543 0.0
C1171 C 0.23619 0.81233 0.14464 0.0
C1172 C 0.23134 0.83058 0.11781 0.0
C1173 C 0.30481 0.71505 0.16357 0.0
C1174 C 0.41181 0.67131 0.10029 0.0
C1175 C 0.3741 0.66147 0.15249 0.0
C1176 C 0.38099 0.63628 0.13253 0.0
C1177 C 0.39994 0.64131 0.10623 0.0
N1178 N 0.38575 0.69084 0.14649 0.0
C1179 C 0.40446 0.69591 0.12082 0.0
Co1180 Co 0.72789 0.17495 0.37442 0.0
Co1181 Co 0.76866 0.12799 0.3237 0.0
O1182 O 0.74985 0.13593 0.36468 0.0
C1183 C 0.76994 0.16708 0.43051 0.0
O1184 O 0.79495 0.16506 0.41247 0.0
C1185 C 0.73059 0.07024 0.33428 0.0
O1186 O 0.70564 0.08793 0.33863 0.0
O1187 O 0.72804 0.13725 0.30235 0.0
O1188 O 0.71132 0.17853 0.33055 0.0
H1189 H 0.79193 0.15037 0.20983 0.0
H1190 H 0.71819 0.1162 0.41081 0.0
O1191 O 0.74293 0.17202 0.41864 0.0
H1192 H 0.61224 0.14814 0.37613 0.0
H1193 H 0.66347 0.2474 0.44275 0.0
H1194 H 0.7202 0.23633 0.3421 0.0
H1195 H 0.65857 0.18036 0.3629 0.0
H1196 H 0.69031 0.1977 0.42938 0.0
O1197 O 0.75704 0.08271 0.32772 0.0
H1198 H 0.76896 0.16091 0.26203 0.0
H1199 H 0.80795 0.07602 0.29757 0.0
H1200 H 0.69339 0.28629 0.35437 0.0
H1201 H 0.6725 0.08342 0.42497 0.0
H1202 H 0.66473 0.29206 0.40501 0.0
H1203 H 0.61903 0.09926 0.40751 0.0
O1204 O 0.76576 0.19988 0.36203 0.0
H1205 H 0.83759 0.07896 0.40635 0.0
H1206 H 0.83493 0.14898 0.31378 0.0
H1207 H 0.88533 0.13939 0.34089 0.0
H1208 H 0.88689 0.10408 0.38749 0.0
H1209 H 0.78764 0.08943 0.37872 0.0
H1210 H 0.83121 0.0644 0.24565 0.0
H1211 H 0.82335 0.10178 0.20136 0.0
O1212 O 0.78077 0.17309 0.31895 0.0
C1213 C 0.71032 0.16123 0.30605 0.0
C1214 C 0.79562 0.13394 0.22896 0.0
C1215 C 0.81761 0.08567 0.24906 0.0
N1216 N 0.78724 0.11922 0.28289 0.0
C1217 C 0.78273 0.13984 0.25861 0.0
C1218 C 0.80431 0.09233 0.27838 0.0
C1219 C 0.8132 0.10666 0.22422 0.0
C1220 C 0.695 0.1234 0.40326 0.0
N1221 N 0.69112 0.15027 0.38599 0.0
C1222 C 0.66921 0.10467 0.4113 0.0
C1223 C 0.63923 0.11355 0.40148 0.0
C1224 C 0.63542 0.14095 0.38385 0.0
C1225 C 0.66178 0.15907 0.37625 0.0
C1226 C 0.67582 0.24515 0.42058 0.0
C1227 C 0.70767 0.23858 0.36413 0.0
C1228 C 0.69115 0.21709 0.41293 0.0
N1229 N 0.70658 0.21399 0.38486 0.0
C1230 C 0.69259 0.26697 0.37097 0.0
C1231 C 0.67653 0.2702 0.39939 0.0
C1232 C 0.7812 0.1975 0.33637 0.0
C1233 C 0.83723 0.09431 0.38602 0.0
C1234 C 0.83539 0.13366 0.33409 0.0
C1235 C 0.86402 0.12827 0.34931 0.0
C1236 C 0.86488 0.10844 0.37544 0.0
N1237 N 0.8084 0.11963 0.34455 0.0
C1238 C 0.80904 0.10023 0.3702 0.0
Co1239 Co 0.37417 0.26691 0.8245 0.0
Co1240 Co 0.32784 0.22351 0.87445 0.0
O1241 O 0.36609 0.24733 0.86531 0.0
C1242 C 0.43343 0.23058 0.83458 0.0
O1243 O 0.41704 0.20463 0.83827 0.0
C1244 C 0.33166 0.26799 0.92867 0.0
O1245 O 0.33857 0.29115 0.90941 0.0
O1246 O 0.30104 0.25931 0.86016 0.0
O1247 O 0.32912 0.27812 0.81943 0.0
H1248 H 0.21941 0.18194 0.85199 0.0
H1249 H 0.41142 0.28582 0.88041 0.0
O1250 O 0.4197 0.25651 0.82863 0.0
H1251 H 0.36003 0.3831 0.84344 0.0
H1252 H 0.43675 0.33215 0.74775 0.0
H1253 H 0.34155 0.2675 0.76271 0.0
H1254 H 0.35193 0.33294 0.81534 0.0
H1255 H 0.42535 0.30795 0.79927 0.0
O1256 O 0.32734 0.24024 0.91827 0.0
H1257 H 0.26798 0.21153 0.84059 0.0
H1258 H 0.3059 0.18541 0.92929 0.0
H1259 H 0.35194 0.29142 0.71089 0.0
H1260 H 0.42043 0.33553 0.90901 0.0
H1261 H 0.39986 0.32402 0.70313 0.0
H1262 H 0.39456 0.38462 0.89059 0.0
O1263 O 0.36607 0.22639 0.80221 0.0
H1264 H 0.41827 0.17489 0.933 0.0
H1265 H 0.32873 0.15417 0.8623 0.0
H1266 H 0.36297 0.11023 0.87849 0.0
H1267 H 0.40811 0.12047 0.91419 0.0
H1268 H 0.38357 0.21816 0.9159 0.0
H1269 H 0.25759 0.15576 0.94183 0.0
H1270 H 0.21398 0.15375 0.90295 0.0
O1271 O 0.32688 0.20586 0.83092 0.0
C1272 C 0.30408 0.27642 0.83567 0.0
C1273 C 0.23826 0.18257 0.86911 0.0
C1274 C 0.2597 0.16789 0.91952 0.0
N1275 N 0.28988 0.19998 0.8841 0.0
C1276 C 0.26586 0.19925 0.86275 0.0
C1277 C 0.28697 0.18477 0.91231 0.0
C1278 C 0.23524 0.16677 0.8977 0.0
C1279 C 0.40038 0.30716 0.87203 0.0
N1280 N 0.38141 0.30652 0.84607 0.0
C1281 C 0.40545 0.3352 0.88841 0.0
C1282 C 0.39088 0.36272 0.8781 0.0
C1283 C 0.37149 0.36188 0.85165 0.0
C1284 C 0.36696 0.3334 0.83587 0.0
C1285 C 0.41581 0.31799 0.75083 0.0
C1286 C 0.3624 0.28172 0.75959 0.0
C1287 C 0.40928 0.30413 0.77993 0.0
N1288 N 0.3828 0.28632 0.78404 0.0
C1289 C 0.36818 0.29517 0.73015 0.0
C1290 C 0.39508 0.31343 0.72581 0.0
C1291 C 0.34349 0.20688 0.80597 0.0
C1292 C 0.39866 0.17012 0.91746 0.0
C1293 C 0.34843 0.15884 0.87758 0.0
C1294 C 0.36768 0.13385 0.88681 0.0
C1295 C 0.39297 0.1396 0.90687 0.0
N1296 N 0.35413 0.18871 0.88807 0.0
C1297 C 0.37888 0.19451 0.90776 0.0
Co1298 Co 0.27609 0.83231 0.38051 0.0
Co1299 Co 0.23014 0.87707 0.33044 0.0
O1300 O 0.25252 0.87063 0.37027 0.0
C1301 C 0.23238 0.83903 0.43525 0.0
O1302 O 0.20986 0.84858 0.41639 0.0
C1303 C 0.27178 0.93348 0.3349 0.0
O1304 O 0.29455 0.91571 0.34582 0.0
O1305 O 0.26757 0.86357 0.30554 0.0
O1306 O 0.2933 0.82986 0.33689 0.0
H1307 H 0.19461 0.84739 0.22159 0.0
H1308 H 0.28241 0.88877 0.42082 0.0
O1309 O 0.25973 0.83297 0.42463 0.0
H1310 H 0.38946 0.86713 0.38169 0.0
H1311 H 0.34371 0.76337 0.44931 0.0
H1312 H 0.28743 0.77149 0.34815 0.0
H1313 H 0.34514 0.83273 0.36697 0.0
H1314 H 0.31473 0.81173 0.43551 0.0
O1315 O 0.24499 0.92169 0.32847 0.0
H1316 H 0.22218 0.83963 0.27206 0.0
H1317 H 0.19039 0.92878 0.30427 0.0
H1318 H 0.31635 0.72283 0.36086 0.0
H1319 H 0.3261 0.92363 0.43648 0.0
H1320 H 0.34474 0.71852 0.4118 0.0
H1321 H 0.38008 0.91296 0.41678 0.0
O1322 O 0.23999 0.80513 0.36781 0.0
H1323 H 0.17415 0.93826 0.4147 0.0
H1324 H 0.1619 0.86023 0.32965 0.0
H1325 H 0.11559 0.87591 0.3609 0.0
H1326 H 0.12155 0.91526 0.40373 0.0
H1327 H 0.21991 0.92165 0.38308 0.0
H1328 H 0.16274 0.93766 0.25401 0.0
H1329 H 0.16465 0.89673 0.21228 0.0
O1330 O 0.21448 0.83293 0.33095 0.0
C1331 C 0.28915 0.84324 0.31039 0.0
C1332 C 0.19355 0.86538 0.2396 0.0
C1333 C 0.17569 0.91605 0.25779 0.0
N1334 N 0.20785 0.8837 0.29112 0.0
C1335 C 0.20907 0.8611 0.26826 0.0
C1336 C 0.19147 0.91094 0.28617 0.0
C1337 C 0.17677 0.89308 0.23439 0.0
C1338 C 0.30587 0.88383 0.41236 0.0
N1339 N 0.3112 0.85874 0.39295 0.0
C1340 C 0.3305 0.90372 0.42122 0.0
C1341 C 0.36077 0.89775 0.41011 0.0
C1342 C 0.36604 0.87206 0.39039 0.0
C1343 C 0.34082 0.85273 0.38199 0.0
C1344 C 0.3315 0.76498 0.42701 0.0
C1345 C 0.29988 0.76989 0.37028 0.0
C1346 C 0.31499 0.79228 0.41909 0.0
N1347 N 0.29951 0.7945 0.39098 0.0
C1348 C 0.31616 0.74223 0.37738 0.0
C1349 C 0.33206 0.73982 0.40596 0.0
C1350 C 0.21882 0.80778 0.34667 0.0
C1351 C 0.17124 0.92116 0.39605 0.0
C1352 C 0.16472 0.87724 0.34835 0.0
C1353 C 0.13839 0.8861 0.3659 0.0
C1354 C 0.14174 0.9082 0.38991 0.0
N1355 N 0.19357 0.89009 0.35447 0.0
C1356 C 0.19704 0.91176 0.37798 0.0
Co1357 Co 0.62316 0.72985 0.83091 0.0
Co1358 Co 0.6737 0.77408 0.87631 0.0
O1359 O 0.6342 0.7517 0.86977 0.0
C1360 C 0.56597 0.77073 0.83959 0.0
O1361 O 0.58317 0.79643 0.83953 0.0
C1362 C 0.66973 0.7316 0.93233 0.0
O1363 O 0.6612 0.70812 0.91416 0.0
O1364 O 0.69856 0.73697 0.86144 0.0
O1365 O 0.6671 0.71445 0.82552 0.0
H1366 H 0.78151 0.81192 0.84583 0.0
H1367 H 0.58876 0.71936 0.89072 0.0
O1368 O 0.57864 0.74389 0.83573 0.0
H1369 H 0.62523 0.61421 0.85798 0.0
H1370 H 0.55288 0.66409 0.7616 0.0
H1371 H 0.65317 0.72208 0.76835 0.0
H1372 H 0.6364 0.66083 0.82536 0.0
H1373 H 0.56792 0.69134 0.81058 0.0
O1374 O 0.67575 0.75849 0.92058 0.0
H1375 H 0.73134 0.78381 0.83823 0.0
H1376 H 0.70071 0.81186 0.92918 0.0
H1377 H 0.6392 0.69491 0.71903 0.0
H1378 H 0.57653 0.67334 0.92385 0.0
H1379 H 0.58873 0.66562 0.71543 0.0
H1380 H 0.59496 0.62028 0.90764 0.0
O1381 O 0.63375 0.76786 0.80499 0.0
H1382 H 0.58697 0.8265 0.93718 0.0
H1383 H 0.67605 0.84367 0.86509 0.0
H1384 H 0.64413 0.88898 0.88204 0.0
H1385 H 0.59919 0.88055 0.91848 0.0
H1386 H 0.61934 0.78186 0.9192 0.0
H1387 H 0.75075 0.83993 0.93794 0.0
H1388 H 0.79149 0.84025 0.896 0.0
O1389 O 0.67266 0.79072 0.83247 0.0
C1390 C 0.6936 0.71725 0.83924 0.0
C1391 C 0.76392 0.81201 0.86426 0.0
C1392 C 0.74667 0.8277 0.91597 0.0
N1393 N 0.71301 0.79634 0.88315 0.0
C1394 C 0.73542 0.7962 0.86007 0.0
C1395 C 0.71843 0.81165 0.91093 0.0
C1396 C 0.76951 0.82788 0.89242 0.0
C1397 C 0.59665 0.69633 0.88332 0.0
N1398 N 0.61338 0.69285 0.85605 0.0
C1399 C 0.58973 0.67036 0.90226 0.0
C1400 C 0.60011 0.64062 0.89318 0.0
C1401 C 0.61713 0.63721 0.86535 0.0
C1402 C 0.62359 0.66373 0.84702 0.0
C1403 C 0.57495 0.67675 0.76289 0.0
C1404 C 0.63121 0.70932 0.76702 0.0
C1405 C 0.58355 0.69233 0.79053 0.0
N1406 N 0.61149 0.70818 0.79241 0.0
C1407 C 0.6234 0.69401 0.739 0.0
C1408 C 0.59508 0.6776 0.737 0.0
C1409 C 0.656 0.788 0.80768 0.0
C1410 C 0.60641 0.83049 0.92122 0.0
C1411 C 0.65631 0.83975 0.88042 0.0
C1412 C 0.63843 0.86553 0.89022 0.0
C1413 C 0.61327 0.86079 0.9107 0.0
N1414 N 0.6494 0.81007 0.89069 0.0
C1415 C 0.62486 0.80529 0.91095 0.0
C1416 C 0.17222 0.51791 0.26462 0.0
C1417 C 0.16458 0.53549 0.23758 0.0
C1418 C 0.17297 0.48513 0.26421 0.0
C1419 C 0.16609 0.468 0.23673 0.0
H1420 H 0.17773 0.52945 0.28665 0.0
H1421 H 0.17898 0.47322 0.28593 0.0
S1422 S 0.14432 0.50231 0.15931 0.0
N1423 N 0.1498 0.53321 0.18228 0.0
N1424 N 0.15117 0.4711 0.18148 0.0
C1425 C 0.15843 0.48507 0.20931 0.0
C1426 C 0.15769 0.51884 0.20974 0.0
C1427 C 0.98261 0.66538 0.70259 0.0
C1428 C 0.96505 0.65774 0.72967 0.0
C1429 C 0.01576 0.66454 0.7029 0.0
C1430 C 0.03239 0.65584 0.73024 0.0
H1431 H 0.97075 0.67314 0.68141 0.0
H1432 H 0.02838 0.67177 0.68196 0.0
S1433 S 0.99721 0.62895 0.80578 0.0
N1434 N 0.96685 0.63813 0.78346 0.0
N1435 N 0.02844 0.63596 0.78388 0.0
C1436 C 0.01492 0.64639 0.7568 0.0
C1437 C 0.98146 0.6475 0.75656 0.0
C1438 C 0.81265 0.48646 0.25435 0.0
C1439 C 0.82753 0.46903 0.23049 0.0
C1440 C 0.81325 0.51928 0.25442 0.0
C1441 C 0.82883 0.53632 0.23066 0.0
H1442 H 0.80059 0.4747 0.2735 0.0
H1443 H 0.80163 0.53133 0.27364 0.0
S1444 S 0.87087 0.50211 0.16216 0.0
N1445 N 0.85767 0.47124 0.1818 0.0
N1446 N 0.85891 0.53333 0.18202 0.0
C1447 C 0.84312 0.51935 0.20607 0.0
C1448 C 0.84246 0.48564 0.20596 0.0
C1449 C 0.01739 0.33479 0.6989 0.0
C1450 C 0.03584 0.34165 0.72557 0.0
C1451 C 0.98429 0.33544 0.70044 0.0
C1452 C 0.96864 0.34305 0.72866 0.0
H1453 H 0.02851 0.3277 0.67708 0.0
H1454 H 0.97094 0.3288 0.67975 0.0
S1455 S 0.00632 0.36778 0.80366 0.0
N1456 N 0.03591 0.35962 0.77996 0.0
N1457 N 0.97434 0.36119 0.78274 0.0
C1458 C 0.98696 0.35179 0.75485 0.0
C1459 C 0.02039 0.35098 0.75333 0.0
C1460 C 0.19135 0.4817 0.74335 0.0
C1461 C 0.17562 0.46364 0.76622 0.0
C1462 C 0.19108 0.51451 0.74429 0.0
C1463 C 0.17504 0.53093 0.76814 0.0
H1464 H 0.20371 0.47043 0.7241 0.0
H1465 H 0.20322 0.52707 0.72571 0.0
S1466 S 0.1312 0.49491 0.83461 0.0
N1467 N 0.14448 0.46454 0.81426 0.0
N1468 N 0.14395 0.52665 0.81607 0.0
C1469 C 0.16014 0.5133 0.79195 0.0
C1470 C 0.16043 0.47957 0.79098 0.0
C1471 C 0.98285 0.65022 0.29394 0.0
C1472 C 0.96586 0.67048 0.27397 0.0
C1473 C 0.01596 0.6513 0.29504 0.0
C1474 C 0.03294 0.67268 0.27622 0.0
H1475 H 0.97062 0.6325 0.30762 0.0
H1476 H 0.02832 0.63433 0.30952 0.0
S1477 S 0.99905 0.73454 0.22467 0.0
N1478 N 0.96826 0.71523 0.23838 0.0
N1479 N 0.03004 0.71725 0.24042 0.0
C1480 C 0.016 0.6944 0.25791 0.0
C1481 C 0.98256 0.6933 0.25679 0.0
C1482 C 0.80985 0.51506 0.7456 0.0
C1483 C 0.8258 0.5327 0.76861 0.0
C1484 C 0.81018 0.48224 0.74595 0.0
C1485 C 0.82648 0.46543 0.76934 0.0
H1486 H 0.79737 0.52666 0.72663 0.0
H1487 H 0.79795 0.46997 0.72723 0.0
S1488 S 0.87074 0.50031 0.83611 0.0
N1489 N 0.85727 0.53101 0.81641 0.0
N1490 N 0.85789 0.46889 0.81712 0.0
C1491 C 0.84148 0.48265 0.79338 0.0
C1492 C 0.84114 0.51637 0.79301 0.0
C1493 C 0.98119 0.33288 0.29777 0.0
C1494 C 0.9647 0.34286 0.27079 0.0
C1495 C 0.01433 0.33204 0.29815 0.0
C1496 C 0.03193 0.34104 0.27153 0.0
H1497 H 0.96847 0.3245 0.31822 0.0
H1498 H 0.02614 0.32312 0.31891 0.0
S1499 S 5e-05 0.37371 0.1969 0.0
N1500 N 0.96876 0.36546 0.21827 0.0
N1501 N 0.03033 0.36353 0.21887 0.0
C1502 C 0.01564 0.35274 0.24519 0.0
C1503 C 0.98222 0.35375 0.24486 0.0
C1504 C 0.26214 0.17907 0.51501 0.0
C1505 C 0.23745 0.16515 0.53209 0.0
C1506 C 0.26179 0.18012 0.4822 0.0
C1507 C 0.23675 0.16725 0.46477 0.0
H1508 H 0.28223 0.18919 0.52701 0.0
H1509 H 0.28166 0.19097 0.47047 0.0
S1510 S 0.16586 0.12845 0.49805 0.0
N1511 N 0.18678 0.13862 0.5292 0.0
N1512 N 0.18613 0.14051 0.46714 0.0
C1513 C 0.21144 0.15379 0.48145 0.0
C1514 C 0.21179 0.15277 0.51517 0.0
C1515 C 0.34463 0.71309 0.98706 0.0
C1516 C 0.32477 0.73399 0.9707 0.0
C1517 C 0.34511 0.71243 0.0202 0.0
C1518 C 0.32569 0.73259 0.03794 0.0
H1519 H 0.36082 0.69813 0.97425 0.0
H1520 H 0.36169 0.69701 0.03194 0.0
S1521 S 0.26553 0.78745 0.00619 0.0
N1522 N 0.28254 0.77234 0.97472 0.0
N1523 N 0.28327 0.77099 0.03656 0.0
C1524 C 0.30439 0.75207 0.02173 0.0
C1525 C 0.30397 0.7528 0.98822 0.0
C1526 C 0.78831 0.84875 0.48448 0.0
C1527 C 0.76832 0.82864 0.46731 0.0
C1528 C 0.78769 0.84916 0.51761 0.0
C1529 C 0.767 0.82953 0.53449 0.0
H1530 H 0.80354 0.86517 0.47227 0.0
H1531 H 0.80248 0.86585 0.52999 0.0
S1532 S 0.71415 0.76873 0.50072 0.0
N1533 N 0.73038 0.78585 0.46986 0.0
N1534 N 0.72913 0.78674 0.5317 0.0
C1535 C 0.74841 0.80803 0.51758 0.0
C1536 C 0.74909 0.80756 0.48409 0.0
C1537 C 0.67115 0.29211 0.01607 0.0
C1538 C 0.6629 0.26483 0.03304 0.0
C1539 C 0.67098 0.29228 0.98293 0.0
C1540 C 0.66245 0.2652 0.96583 0.0
H1541 H 0.67883 0.31306 0.0284 0.0
H1542 H 0.67865 0.3133 0.9707 0.0
S1543 S 0.63406 0.18943 0.99929 0.0
N1544 N 0.64271 0.21127 0.03015 0.0
N1545 N 0.64206 0.21168 0.96854 0.0
C1546 C 0.6524 0.23848 0.98268 0.0
C1547 C 0.65272 0.23826 0.01611 0.0
C1548 C 0.20808 0.85655 0.48636 0.0
C1549 C 0.2268 0.83511 0.46939 0.0
C1550 C 0.20672 0.85544 0.51948 0.0
C1551 C 0.22397 0.83279 0.53648 0.0
H1552 H 0.19576 0.87523 0.47412 0.0
H1553 H 0.19345 0.87335 0.53185 0.0
S1554 S 0.27145 0.76778 0.50255 0.0
N1555 N 0.25929 0.7881 0.47176 0.0
N1556 N 0.25662 0.78588 0.53355 0.0
C1557 C 0.24078 0.80989 0.51952 0.0
C1558 C 0.24223 0.81109 0.48608 0.0
C1559 C 0.6872 0.75166 0.01714 0.0
C1560 C 0.66926 0.72982 0.03436 0.0
C1561 C 0.68815 0.75092 0.98433 0.0
C1562 C 0.67113 0.72836 0.96708 0.0
H1563 H 0.70032 0.76999 0.02905 0.0
H1564 H 0.70192 0.76877 0.9724 0.0
S1565 S 0.6218 0.66462 0.00084 0.0
N1566 N 0.63522 0.68384 0.03188 0.0
N1567 N 0.63689 0.68251 0.96976 0.0
C1568 C 0.65413 0.7054 0.98392 0.0
C1569 C 0.65322 0.70613 0.01766 0.0
C1570 C 0.80118 0.16907 0.51472 0.0
C1571 C 0.7739 0.1627 0.53247 0.0
C1572 C 0.80027 0.16953 0.48156 0.0
C1573 C 0.77206 0.1636 0.46519 0.0
H1574 H 0.82306 0.17475 0.52648 0.0
H1575 H 0.82148 0.17556 0.46876 0.0
S1576 S 0.6953 0.14102 0.5007 0.0
N1577 N 0.7188 0.14708 0.53092 0.0
N1578 N 0.71712 0.14785 0.46939 0.0
C1579 C 0.74515 0.15556 0.48278 0.0
C1580 C 0.74606 0.15514 0.5162 0.0
C1581 C 0.30858 0.25299 0.01301 0.0
C1582 C 0.32634 0.27505 0.03013 0.0
C1583 C 0.30961 0.25201 0.98024 0.0
C1584 C 0.32841 0.27308 0.96297 0.0
H1585 H 0.29425 0.23565 0.02504 0.0
H1586 H 0.296 0.234 0.96838 0.0
S1587 S 0.3778 0.33694 0.99621 0.0
N1588 N 0.362 0.31978 0.02735 0.0
N1589 N 0.36388 0.31797 0.96523 0.0
C1590 C 0.34507 0.29642 0.97954 0.0
C1591 C 0.34405 0.2974 0.01324 0.0
C1592 C 0.51502 0.20856 0.16795 0.0
C1593 C 0.53179 0.23639 0.16123 0.0
C1594 C 0.48191 0.20781 0.16662 0.0
C1595 C 0.4646 0.23485 0.15845 0.0
H1596 H 0.52745 0.18752 0.17521 0.0
H1597 H 0.46984 0.18629 0.17305 0.0
S1598 S 0.49761 0.31223 0.13409 0.0
N1599 N 0.52855 0.29063 0.14298 0.0
N1600 N 0.46705 0.28917 0.1402 0.0
C1601 C 0.48131 0.26224 0.15004 0.0
C1602 C 0.5147 0.26304 0.15152 0.0
C1603 C 0.51395 0.79918 0.83537 0.0
C1604 C 0.53123 0.77201 0.8433 0.0
C1605 C 0.48078 0.79902 0.83562 0.0
C1606 C 0.46385 0.77167 0.8438 0.0
H1607 H 0.52606 0.82032 0.82784 0.0
H1608 H 0.46838 0.82005 0.8283 0.0
S1609 S 0.49807 0.69588 0.87107 0.0
N1610 N 0.52871 0.71819 0.86285 0.0
N1611 N 0.4671 0.71788 0.86329 0.0
C1612 C 0.48098 0.745 0.85341 0.0
C1613 C 0.51446 0.74517 0.85317 0.0
C1614 C 0.75777 0.98581 0.33972 0.0
C1615 C 0.72973 0.96815 0.33943 0.0
C1616 C 0.75745 0.01856 0.33858 0.0
C1617 C 0.72906 0.03548 0.33725 0.0
H1618 H 0.78051 0.97434 0.3405 0.0
H1619 H 0.77991 0.03063 0.33854 0.0
S1620 S 0.6488 0.00096 0.33808 0.0
N1621 N 0.6725 0.97015 0.33923 0.0
N1622 N 0.67188 0.03226 0.33726 0.0
C1623 C 0.70066 0.01839 0.33804 0.0
C1624 C 0.70099 0.98465 0.3391 0.0
C1625 C 0.48547 0.20222 0.8322 0.0
C1626 C 0.46832 0.23032 0.83615 0.0
C1627 C 0.51857 0.20243 0.83102 0.0
C1628 C 0.53561 0.23075 0.83364 0.0
H1629 H 0.47327 0.18004 0.82918 0.0
H1630 H 0.53081 0.18038 0.82726 0.0
S1631 S 0.50192 0.3102 0.84847 0.0
N1632 N 0.47114 0.28677 0.84574 0.0
N1633 N 0.53271 0.28723 0.84323 0.0
C1634 C 0.51868 0.25877 0.83891 0.0
C1635 C 0.48522 0.25853 0.84024 0.0
C1636 C 0.29522 0.98511 0.35202 0.0
C1637 C 0.27602 0.96788 0.3312 0.0
C1638 C 0.29553 0.01827 0.35141 0.0
C1639 C 0.27665 0.03506 0.32997 0.0
H1640 H 0.30883 0.97301 0.36987 0.0
H1641 H 0.3093 0.03078 0.36885 0.0
S1642 S 0.22704 0.00079 0.26678 0.0
N1643 N 0.24119 0.97005 0.28585 0.0
N1644 N 0.24175 0.03192 0.28475 0.0
C1645 C 0.25921 0.01796 0.30766 0.0
C1646 C 0.2589 0.98447 0.30827 0.0
C1647 C 0.51698 0.74789 0.18327 0.0
C1648 C 0.53393 0.77181 0.16786 0.0
C1649 C 0.48417 0.74739 0.18324 0.0
C1650 C 0.46655 0.7708 0.16781 0.0
H1651 H 0.52912 0.72899 0.19534 0.0
H1652 H 0.47256 0.72816 0.19531 0.0
S1653 S 0.49922 0.83933 0.12457 0.0
N1654 N 0.53057 0.82017 0.1373 0.0
N1655 N 0.46846 0.81922 0.13729 0.0
C1656 C 0.483 0.79547 0.153 0.0
C1657 C 0.51675 0.79598 0.15301 0.0
C1658 C 0.75684 0.98235 0.68374 0.0
C1659 C 0.73244 0.96605 0.66841 0.0
C1660 C 0.75832 0.01512 0.68348 0.0
C1661 C 0.73544 0.03328 0.66796 0.0
H1662 H 0.77539 0.96971 0.69582 0.0
H1663 H 0.77792 0.02627 0.69538 0.0
S1664 S 0.66582 0.00243 0.6252 0.0
N1665 N 0.6841 0.97059 0.63805 0.0
N1666 N 0.68685 0.03267 0.63769 0.0
C1667 C 0.71019 0.01751 0.65341 0.0
C1668 C 0.70869 0.9838 0.65361 0.0
C1669 C 0.2898 0.01394 0.65142 0.0
C1670 C 0.27 0.0316 0.67125 0.0
C1671 C 0.28945 0.9808 0.65223 0.0
C1672 C 0.26937 0.96452 0.67297 0.0
H1673 H 0.30441 0.0257 0.63413 0.0
H1674 H 0.30376 0.96794 0.63549 0.0
S1675 S 0.2177 0.00021 0.73372 0.0
N1676 N 0.23311 0.03052 0.71495 0.0
N1677 N 0.23268 0.96866 0.71672 0.0
C1678 C 0.2513 0.98209 0.69442 0.0
C1679 C 0.25155 0.01555 0.69349 0.0
C1680 C 0.19267 0.27948 0.32715 0.0
C1681 C 0.16775 0.27672 0.30537 0.0
C1682 C 0.2069 0.25295 0.34055 0.0
C1683 C 0.19713 0.22233 0.33257 0.0
H1684 H 0.20235 0.30231 0.33303 0.0
H1685 H 0.22682 0.25661 0.35602 0.0
S1686 S 0.12971 0.20211 0.28042 0.0
N1687 N 0.13128 0.2409 0.27962 0.0
N1688 N 0.15846 0.19102 0.30401 0.0
C1689 C 0.17078 0.21927 0.31252 0.0
C1690 C 0.15598 0.24641 0.29918 0.0
C1691 C 0.27807 0.67696 0.81088 0.0
C1692 C 0.27378 0.69979 0.83463 0.0
C1693 C 0.25246 0.66182 0.79668 0.0
C1694 C 0.22134 0.66901 0.80536 0.0
H1695 H 0.30139 0.67144 0.80221 0.0
H1696 H 0.2572 0.64545 0.77772 0.0
S1697 S 0.19729 0.72396 0.86926 0.0
N1698 N 0.23601 0.72615 0.86863 0.0
N1699 N 0.18795 0.69845 0.84156 0.0
C1700 C 0.2168 0.69038 0.83043 0.0
C1701 C 0.24295 0.70553 0.84516 0.0
C1702 C 0.81126 0.72272 0.32577 0.0
C1703 C 0.83364 0.72584 0.30141 0.0
C1704 C 0.79753 0.74903 0.34002 0.0
C1705 C 0.80538 0.77973 0.33046 0.0
H1706 H 0.8031 0.69973 0.33314 0.0
H1707 H 0.77948 0.74508 0.35758 0.0
S1708 S 0.86624 0.80101 0.27105 0.0
N1709 N 0.86586 0.7622 0.27113 0.0
N1710 N 0.83981 0.81167 0.2974 0.0
C1711 C 0.82939 0.78324 0.30769 0.0
C1712 C 0.84359 0.75634 0.29335 0.0
C1713 C 0.74948 0.33602 0.79438 0.0
C1714 C 0.78022 0.32807 0.80363 0.0
C1715 C 0.72332 0.3212 0.8077 0.0
C1716 C 0.72654 0.29796 0.83122 0.0
H1717 H 0.74545 0.35273 0.77555 0.0
H1718 H 0.7004 0.3273 0.79843 0.0
S1719 S 0.80162 0.27177 0.86729 0.0
N1720 N 0.81221 0.29751 0.84021 0.0
N1721 N 0.76287 0.27033 0.86573 0.0
C1722 C 0.75696 0.29146 0.84245 0.0
C1723 C 0.78378 0.3063 0.82854 0.0
C1724 C 0.2021 0.74651 0.66237 0.0
C1725 C 0.19225 0.77678 0.67144 0.0
C1726 C 0.18911 0.71949 0.67604 0.0
C1727 C 0.16545 0.72137 0.6993 0.0
H1728 H 0.22117 0.74351 0.64572 0.0
H1729 H 0.19881 0.69697 0.66914 0.0
S1730 S 0.12769 0.79476 0.72794 0.0
N1731 N 0.15472 0.80682 0.70281 0.0
N1732 N 0.13004 0.75601 0.72794 0.0
C1733 C 0.15357 0.75133 0.70679 0.0
C1734 C 0.16704 0.77898 0.69306 0.0
C1735 C 0.72152 0.67866 0.19211 0.0
C1736 C 0.72455 0.7017 0.16835 0.0
C1737 C 0.74785 0.66391 0.20533 0.0
C1738 C 0.77854 0.6716 0.19558 0.0
H1739 H 0.69864 0.67268 0.20161 0.0
H1740 H 0.74403 0.64746 0.22443 0.0
S1741 S 0.79936 0.72713 0.13101 0.0
N1742 N 0.76066 0.72888 0.1332 0.0
N1743 N 0.81013 0.70151 0.15812 0.0
C1744 C 0.78183 0.69306 0.17035 0.0
C1745 C 0.75491 0.70798 0.15674 0.0
C1746 C 0.80356 0.25136 0.65905 0.0
C1747 C 0.81298 0.22105 0.66845 0.0
C1748 C 0.81593 0.27832 0.67341 0.0
C1749 C 0.83856 0.2763 0.69765 0.0
H1750 H 0.7852 0.25444 0.64164 0.0
H1751 H 0.8065 0.30089 0.66626 0.0
S1752 S 0.87528 0.20274 0.72727 0.0
N1753 N 0.84927 0.19083 0.70103 0.0
N1754 N 0.87287 0.24149 0.72744 0.0
C1755 C 0.85019 0.24629 0.7054 0.0
C1756 C 0.83732 0.21873 0.69099 0.0
C1757 C 0.21752 0.30693 0.17717 0.0
C1758 C 0.22108 0.33185 0.19886 0.0
C1759 C 0.24347 0.29374 0.16169 0.0
C1760 C 0.27416 0.30467 0.16745 0.0
H1761 H 0.19462 0.29659 0.17288 0.0
H1762 H 0.23948 0.27378 0.14634 0.0
S1763 S 0.2959 0.3723 0.21879 0.0
N1764 N 0.25741 0.36931 0.22242 0.0
N1765 N 0.30609 0.34417 0.1941 0.0
C1766 C 0.27778 0.3309 0.18756 0.0
C1767 C 0.25131 0.34457 0.20303 0.0
C1768 C 0.33892 0.20781 0.24828 0.0
C1769 C 0.32997 0.19815 0.21791 0.0
C1770 C 0.32544 0.19427 0.27519 0.0
C1771 C 0.30253 0.17028 0.27302 0.0
H1772 H 0.3553 0.22708 0.25143 0.0
H1773 H 0.33228 0.20369 0.29787 0.0
S1774 S 0.27418 0.13314 0.19917 0.0
N1775 N 0.29898 0.16062 0.18748 0.0
N1776 N 0.27418 0.13504 0.23792 0.0
C1777 C 0.29506 0.15879 0.2429 0.0
C1778 C 0.30861 0.17274 0.21545 0.0
C1779 C 0.30436 0.82718 0.78266 0.0
C1780 C 0.32889 0.8049 0.78039 0.0
C1781 C 0.29025 0.84014 0.75582 0.0
C1782 C 0.29981 0.83128 0.72538 0.0
H1783 H 0.29492 0.83384 0.80538 0.0
H1784 H 0.27066 0.8561 0.75914 0.0
S1785 S 0.36611 0.77726 0.7063 0.0
N1786 N 0.36468 0.77752 0.74509 0.0
N1787 N 0.33777 0.8011 0.69471 0.0
C1788 C 0.32573 0.8106 0.72276 0.0
C1789 C 0.34037 0.79768 0.75018 0.0
C1790 C 0.67532 0.81149 0.27923 0.0
C1791 C 0.69873 0.83495 0.27673 0.0
C1792 C 0.66095 0.79851 0.25256 0.0
C1793 C 0.66951 0.80809 0.22205 0.0
H1794 H 0.6688 0.80198 0.30195 0.0
H1795 H 0.64417 0.77963 0.25603 0.0
S1796 S 0.72618 0.87202 0.20249 0.0
N1797 N 0.72697 0.8699 0.24125 0.0
N1798 N 0.70059 0.84513 0.19113 0.0
C1799 C 0.69132 0.83306 0.21925 0.0
C1800 C 0.70572 0.84656 0.24652 0.0
C1801 C 0.68234 0.18882 0.72006 0.0
C1802 C 0.70647 0.16626 0.72354 0.0
C1803 C 0.6665 0.20126 0.74612 0.0
C1804 C 0.6744 0.19206 0.7769 0.0
H1805 H 0.67628 0.19797 0.69707 0.0
H1806 H 0.64912 0.21944 0.74205 0.0
S1807 S 0.73285 0.13054 0.79878 0.0
N1808 N 0.73488 0.13259 0.76008 0.0
N1809 N 0.70583 0.15641 0.80907 0.0
C1810 C 0.69707 0.16801 0.7806 0.0
C1811 C 0.71291 0.15503 0.75397 0.0
C1812 C 0.82395 0.77721 0.68947 0.0
C1813 C 0.80048 0.77483 0.66607 0.0
C1814 C 0.83897 0.75047 0.70159 0.0
C1815 C 0.831 0.72011 0.6911 0.0
H1816 H 0.82996 0.79982 0.69961 0.0
H1817 H 0.85564 0.75365 0.7206 0.0
S1818 S 0.77495 0.70124 0.62643 0.0
N1819 N 0.7731 0.73984 0.62994 0.0
N1820 N 0.80086 0.68969 0.6529 0.0
C1821 C 0.80935 0.7176 0.66598 0.0
C1822 C 0.79422 0.74488 0.65345 0.0
C1823 C 0.72016 0.32744 0.18628 0.0
C1824 C 0.72327 0.30198 0.16522 0.0
C1825 C 0.74646 0.34214 0.19951 0.0
C1826 C 0.77712 0.33185 0.19255 0.0
H1827 H 0.69715 0.33547 0.19373 0.0
H1828 H 0.74249 0.36069 0.21653 0.0
S1829 S 0.79848 0.26908 0.13531 0.0
N1830 N 0.75969 0.26959 0.13515 0.0
N1831 N 0.80913 0.29671 0.1604 0.0
C1832 C 0.78068 0.30782 0.16987 0.0
C1833 C 0.75381 0.29304 0.15611 0.0
C1834 C 0.16052 0.2474 0.69196 0.0
C1835 C 0.17167 0.27761 0.68421 0.0
C1836 C 0.1753 0.22025 0.68039 0.0
C1837 C 0.20159 0.2221 0.66017 0.0
H1838 H 0.14135 0.24451 0.70848 0.0
H1839 H 0.16673 0.19766 0.68853 0.0
S1840 S 0.23631 0.29556 0.62785 0.0
N1841 N 0.20814 0.30762 0.65164 0.0
N1842 N 0.23526 0.2568 0.62945 0.0
C1843 C 0.21116 0.25212 0.64998 0.0
C1844 C 0.19636 0.27977 0.66206 0.0
C1845 C 0.22014 0.69303 0.18172 0.0
C1846 C 0.22302 0.66953 0.20505 0.0
C1847 C 0.24656 0.70616 0.16702 0.0
C1848 C 0.27721 0.69661 0.17509 0.0
H1849 H 0.19729 0.70242 0.17548 0.0
H1850 H 0.24283 0.72504 0.1503 0.0
S1851 S 0.2977 0.63269 0.23148 0.0
N1852 N 0.25897 0.63472 0.23282 0.0
N1853 N 0.30862 0.65962 0.20574 0.0
C1854 C 0.28037 0.67164 0.19687 0.0
C1855 C 0.25335 0.65805 0.21166 0.0
C1856 C 0.83611 0.26691 0.32365 0.0
C1857 C 0.82634 0.27772 0.29393 0.0
C1858 C 0.82105 0.2411 0.33801 0.0
C1859 C 0.79602 0.22565 0.32285 0.0
H1860 H 0.85498 0.2788 0.33599 0.0
H1861 H 0.82913 0.23303 0.36081 0.0
S1862 S 0.7605 0.24665 0.24592 0.0
N1863 N 0.78934 0.27226 0.25074 0.0
N1864 N 0.76137 0.22381 0.27738 0.0
C1865 C 0.78601 0.23658 0.29333 0.0
C1866 C 0.80109 0.2627 0.27895 0.0
C1867 C 0.24183 0.33595 0.81336 0.0
C1868 C 0.22703 0.32079 0.78796 0.0
C1869 C 0.2662 0.32095 0.83 0.0
C1870 C 0.27613 0.29056 0.8215 0.0
H1871 H 0.23426 0.3592 0.82059 0.0
H1872 H 0.27764 0.33327 0.84917 0.0
S1873 S 0.24627 0.24214 0.7554 0.0
N1874 N 0.22476 0.27452 0.7544 0.0
N1875 N 0.27072 0.24668 0.78527 0.0
C1876 C 0.26183 0.27555 0.79585 0.0
C1877 C 0.23711 0.2906 0.77917 0.0
C1878 C 0.17634 0.78255 0.31431 0.0
C1879 C 0.19992 0.77969 0.33754 0.0
C1880 C 0.16157 0.75605 0.30137 0.0
C1881 C 0.16987 0.72541 0.31083 0.0
H1882 H 0.16998 0.80541 0.305 0.0
H1883 H 0.14463 0.7597 0.28267 0.0
S1884 S 0.22699 0.70504 0.3741 0.0
N1885 N 0.22812 0.74378 0.37209 0.0
N1886 N 0.20104 0.69407 0.34742 0.0
C1887 C 0.19192 0.72231 0.33553 0.0
C1888 C 0.20673 0.74937 0.34896 0.0
C1889 C 0.77737 0.69269 0.81985 0.0
C1890 C 0.77345 0.66974 0.79614 0.0
C1891 C 0.75153 0.70667 0.83481 0.0
C1892 C 0.72051 0.69862 0.82655 0.0
H1893 H 0.80063 0.70078 0.82639 0.0
H1894 H 0.75603 0.7249 0.85206 0.0
S1895 S 0.69722 0.63759 0.76805 0.0
N1896 N 0.736 0.63764 0.76712 0.0
N1897 N 0.68752 0.66433 0.79445 0.0
C1898 C 0.71626 0.6746 0.80391 0.0
C1899 C 0.74265 0.66007 0.78896 0.0
C1900 C 0.67201 0.80927 0.72228 0.0
C1901 C 0.69533 0.83285 0.72461 0.0
C1902 C 0.65759 0.7965 0.74914 0.0
C1903 C 0.66608 0.8065 0.77955 0.0
H1904 H 0.66567 0.79952 0.6996 0.0
H1905 H 0.64097 0.77745 0.74597 0.0
S1906 S 0.7222 0.87111 0.79846 0.0
N1907 N 0.72314 0.86848 0.75977 0.0
N1908 N 0.69676 0.84418 0.81 0.0
C1909 C 0.68768 0.83166 0.78203 0.0
C1910 C 0.7021 0.84489 0.75469 0.0
C1911 C 0.69674 0.1605 0.24878 0.0
C1912 C 0.69087 0.17223 0.27915 0.0
C1913 C 0.68337 0.17462 0.22222 0.0
C1914 C 0.66308 0.20076 0.22487 0.0
H1915 H 0.71314 0.14134 0.24517 0.0
H1916 H 0.69015 0.16567 0.19935 0.0
S1917 S 0.63565 0.23712 0.29943 0.0
N1918 N 0.66046 0.20943 0.3105 0.0
N1919 N 0.63445 0.23503 0.26069 0.0
C1920 C 0.65477 0.21094 0.25523 0.0
C1921 C 0.66889 0.19694 0.28231 0.0
C1922 C 0.32893 0.18272 0.72137 0.0
C1923 C 0.30314 0.16194 0.72379 0.0
C1924 C 0.3435 0.19525 0.74815 0.0
C1925 C 0.33276 0.18783 0.77858 0.0
H1926 H 0.33727 0.19054 0.69859 0.0
H1927 H 0.36222 0.21221 0.74476 0.0
S1928 S 0.26944 0.13049 0.79809 0.0
N1929 N 0.27019 0.13134 0.75929 0.0
N1930 N 0.29722 0.15506 0.80951 0.0
C1931 C 0.30858 0.16518 0.78138 0.0
C1932 C 0.29386 0.15224 0.75407 0.0
C1933 C 0.29908 0.84073 0.25233 0.0
C1934 C 0.30785 0.83177 0.28298 0.0
C1935 C 0.31206 0.82609 0.22585 0.0
C1936 C 0.33464 0.80189 0.22863 0.0
H1937 H 0.28083 0.85813 0.24859 0.0
H1938 H 0.30318 0.83307 0.203 0.0
S1939 S 0.36953 0.77297 0.30335 0.0
N1940 N 0.3434 0.79947 0.3144 0.0
N1941 N 0.36796 0.7723 0.26456 0.0
C1942 C 0.34548 0.79437 0.259 0.0
C1943 C 0.33207 0.80918 0.28612 0.0
loop_
_geom_bond_atom_site_label_1
_geom_bond_atom_site_label_2
_geom_bond_distance
_geom_bond_site_symmetry_2
_ccdc_geom_bond_type
Co0 O2 2.143 . S
Co0 O8 2.074 . S
Co0 O11 2.093 . S
Co0 O24 2.097 . S
Co0 N41 2.151 . S
Co0 N49 2.214 . S
Co1 O2 2.160 . S
Co1 O7 2.058 . S
Co1 O17 2.057 . S
Co1 O32 2.037 . S
Co1 N36 2.145 . S
Co1 N57 2.257 . S
O2 Co0 2.143 . S
O2 Co1 2.160 . S
C3 O4 1.278 . S
C3 O11 1.224 . S
O4 C3 1.278 . S
C5 O6 1.245 . S
C5 O17 1.232 . S
O6 C5 1.245 . S
O7 Co1 2.058 . S
O7 C33 1.269 . S
O8 Co0 2.074 . S
O8 C33 1.257 . S
H9 C34 0.930 . S
H10 C40 0.930 . S
O11 Co0 2.093 . S
O11 C3 1.224 . S
H12 C44 0.929 . S
H13 C46 0.930 . S
H14 C47 0.930 . S
H15 C45 0.929 . S
H16 C48 0.928 . S
O17 Co1 2.057 . S
O17 C5 1.232 . S
H18 C37 0.929 . S
H19 C38 0.929 . S
H20 C50 0.931 . S
H21 C42 0.929 . S
H22 C51 0.930 . S
H23 C43 0.931 . S
O24 Co0 2.097 . S
O24 C52 1.214 . S
H25 C53 0.929 . S
H26 C54 0.929 . S
H27 C55 0.930 . S
H28 C56 0.929 . S
H29 C58 0.930 . S
H30 C35 0.930 . S
H31 C39 0.930 . S
O32 Co1 2.037 . S
O32 C52 1.234 . S
C33 O7 1.269 . S
C33 O8 1.257 . S
C34 H9 0.930 . S
C34 C37 1.388 . S
C34 C39 1.418 . S
C35 H30 0.930 . S
C35 C38 1.404 . S
C35 C39 1.353 . S
N36 Co1 2.145 . S
N36 C37 1.397 . S
N36 C38 1.334 . S
C37 H18 0.929 . S
C37 C34 1.388 . S
C37 N36 1.397 . S
C38 H19 0.929 . S
C38 C35 1.404 . S
C38 N36 1.334 . S
C39 H31 0.930 . S
C39 C34 1.418 . S
C39 C35 1.353 . S
C40 H10 0.930 . S
C40 N41 1.330 . S
C40 C42 1.446 . S
N41 Co0 2.151 . S
N41 C40 1.330 . S
N41 C45 1.418 . S
C42 H21 0.929 . S
C42 C40 1.446 . S
C42 C43 1.332 . S
C43 H23 0.931 . S
C43 C42 1.332 . S
C43 C44 1.267 . S
C44 H12 0.929 . S
C44 C43 1.267 . S
C44 C45 1.251 . S
C45 H15 0.929 . S
C45 N41 1.418 . S
C45 C44 1.251 . S
C46 H13 0.930 . S
C46 C48 1.406 . S
C46 C51 1.261 . S
C47 H14 0.930 . S
C47 N49 1.325 . S
C47 C50 1.357 . S
C48 H16 0.928 . S
C48 C46 1.406 . S
C48 N49 1.261 . S
N49 Co0 2.214 . S
N49 C47 1.325 . S
N49 C48 1.261 . S
C50 H20 0.931 . S
C50 C47 1.357 . S
C50 C51 1.312 . S
C51 H22 0.930 . S
C51 C46 1.261 . S
C51 C50 1.312 . S
C52 O24 1.214 . S
C52 O32 1.234 . S
C53 H25 0.929 . S
C53 C56 1.391 . S
C53 C58 1.391 . S
C54 H26 0.929 . S
C54 C55 1.390 . S
C54 N57 1.391 . S
C55 H27 0.930 . S
C55 C54 1.390 . S
C55 C56 1.392 . S
C56 H28 0.929 . S
C56 C53 1.391 . S
C56 C55 1.392 . S
N57 Co1 2.257 . S
N57 C54 1.391 . S
N57 C58 1.388 . S
C58 H29 0.930 . S
C58 C53 1.391 . S
C58 N57 1.388 . S
Co59 O61 2.143 . S
Co59 O67 2.074 . S
Co59 O70 2.093 . S
Co59 O83 2.097 . S
Co59 N100 2.151 . S
Co59 N108 2.214 . S
Co60 O61 2.160 . S
Co60 O66 2.058 . S
Co60 O76 2.057 . S
Co60 O91 2.037 . S
Co60 N95 2.145 . S
Co60 N116 2.257 . S
O61 Co59 2.143 . S
O61 Co60 2.160 . S
C62 O63 1.278 . S
C62 O70 1.224 . S
O63 C62 1.278 . S
C64 O65 1.245 . S
C64 O76 1.232 . S
O65 C64 1.245 . S
O66 Co60 2.058 . S
O66 C92 1.269 . S
O67 Co59 2.074 . S
O67 C92 1.257 . S
H68 C93 0.930 . S
H69 C99 0.930 . S
O70 Co59 2.093 . S
O70 C62 1.224 . S
H71 C103 0.929 . S
H72 C105 0.930 . S
H73 C106 0.930 . S
H74 C104 0.929 . S
H75 C107 0.928 . S
O76 Co60 2.057 . S
O76 C64 1.232 . S
H77 C96 0.929 . S
H78 C97 0.929 . S
H79 C109 0.931 . S
H80 C101 0.929 . S
H81 C110 0.930 . S
H82 C102 0.931 . S
O83 Co59 2.097 . S
O83 C111 1.214 . S
H84 C112 0.929 . S
H85 C113 0.929 . S
H86 C114 0.930 . S
H87 C115 0.929 . S
H88 C117 0.930 . S
H89 C94 0.930 . S
H90 C98 0.930 . S
O91 Co60 2.037 . S
O91 C111 1.234 . S
C92 O66 1.269 . S
C92 O67 1.257 . S
C93 H68 0.930 . S
C93 C96 1.388 . S
C93 C98 1.418 . S
C94 H89 0.930 . S
C94 C97 1.404 . S
C94 C98 1.353 . S
N95 Co60 2.145 . S
N95 C96 1.397 . S
N95 C97 1.334 . S
C96 H77 0.929 . S
C96 C93 1.388 . S
C96 N95 1.397 . S
C97 H78 0.929 . S
C97 C94 1.404 . S
C97 N95 1.334 . S
C98 H90 0.930 . S
C98 C93 1.418 . S
C98 C94 1.353 . S
C99 H69 0.930 . S
C99 N100 1.330 . S
C99 C101 1.446 . S
N100 Co59 2.151 . S
N100 C99 1.330 . S
N100 C104 1.418 . S
C101 H80 0.929 . S
C101 C99 1.446 . S
C101 C102 1.332 . S
C102 H82 0.931 . S
C102 C101 1.332 . S
C102 C103 1.267 . S
C103 H71 0.929 . S
C103 C102 1.267 . S
C103 C104 1.251 . S
C104 H74 0.929 . S
C104 N100 1.418 . S
C104 C103 1.251 . S
C105 H72 0.930 . S
C105 C107 1.406 . S
C105 C110 1.261 . S
C106 H73 0.930 . S
C106 N108 1.325 . S
C106 C109 1.357 . S
C107 H75 0.928 . S
C107 C105 1.406 . S
C107 N108 1.261 . S
N108 Co59 2.214 . S
N108 C106 1.325 . S
N108 C107 1.261 . S
C109 H79 0.931 . S
C109 C106 1.357 . S
C109 C110 1.312 . S
C110 H81 0.930 . S
C110 C105 1.261 . S
C110 C109 1.312 . S
C111 O83 1.214 . S
C111 O91 1.234 . S
C112 H84 0.929 . S
C112 C115 1.391 . S
C112 C117 1.391 . S
C113 H85 0.929 . S
C113 C114 1.390 . S
C113 N116 1.391 . S
C114 H86 0.930 . S
C114 C113 1.390 . S
C114 C115 1.392 . S
C115 H87 0.929 . S
C115 C112 1.391 . S
C115 C114 1.392 . S
N116 Co60 2.257 . S
N116 C113 1.391 . S
N116 C117 1.388 . S
C117 H88 0.930 . S
C117 C112 1.391 . S
C117 N116 1.388 . S
Co118 O120 2.143 . S
Co118 O126 2.074 . S
Co118 O129 2.093 . S
Co118 O142 2.097 . S
Co118 N159 2.151 . S
Co118 N167 2.214 . S
Co119 O120 2.160 . S
Co119 O125 2.058 . S
Co119 O135 2.057 . S
Co119 O150 2.037 . S
Co119 N154 2.145 . S
Co119 N175 2.257 . S
O120 Co118 2.143 . S
O120 Co119 2.160 . S
C121 O122 1.278 . S
C121 O129 1.224 . S
O122 C121 1.278 . S
C123 O124 1.245 . S
C123 O135 1.232 . S
O124 C123 1.245 . S
O125 Co119 2.058 . S
O125 C151 1.269 . S
O126 Co118 2.074 . S
O126 C151 1.257 . S
H127 C152 0.930 . S
H128 C158 0.930 . S
O129 Co118 2.093 . S
O129 C121 1.224 . S
H130 C162 0.929 . S
H131 C164 0.930 . S
H132 C165 0.930 . S
H133 C163 0.929 . S
H134 C166 0.928 . S
O135 Co119 2.057 . S
O135 C123 1.232 . S
H136 C155 0.929 . S
H137 C156 0.929 . S
H138 C168 0.931 . S
H139 C160 0.929 . S
H140 C169 0.930 . S
H141 C161 0.931 . S
O142 Co118 2.097 . S
O142 C170 1.214 . S
H143 C171 0.929 . S
H144 C172 0.929 . S
H145 C173 0.930 . S
H146 C174 0.929 . S
H147 C176 0.930 . S
H148 C153 0.930 . S
H149 C157 0.930 . S
O150 Co119 2.037 . S
O150 C170 1.234 . S
C151 O125 1.269 . S
C151 O126 1.257 . S
C152 H127 0.930 . S
C152 C155 1.388 . S
C152 C157 1.418 . S
C153 H148 0.930 . S
C153 C156 1.404 . S
C153 C157 1.353 . S
N154 Co119 2.145 . S
N154 C155 1.397 . S
N154 C156 1.334 . S
C155 H136 0.929 . S
C155 C152 1.388 . S
C155 N154 1.397 . S
C156 H137 0.929 . S
C156 C153 1.404 . S
C156 N154 1.334 . S
C157 H149 0.930 . S
C157 C152 1.418 . S
C157 C153 1.353 . S
C158 H128 0.930 . S
C158 N159 1.330 . S
C158 C160 1.446 . S
N159 Co118 2.151 . S
N159 C158 1.330 . S
N159 C163 1.418 . S
C160 H139 0.929 . S
C160 C158 1.446 . S
C160 C161 1.332 . S
C161 H141 0.931 . S
C161 C160 1.332 . S
C161 C162 1.267 . S
C162 H130 0.929 . S
C162 C161 1.267 . S
C162 C163 1.251 . S
C163 H133 0.929 . S
C163 N159 1.418 . S
C163 C162 1.251 . S
C164 H131 0.930 . S
C164 C166 1.406 . S
C164 C169 1.261 . S
C165 H132 0.930 . S
C165 N167 1.325 . S
C165 C168 1.357 . S
C166 H134 0.928 . S
C166 C164 1.406 . S
C166 N167 1.261 . S
N167 Co118 2.214 . S
N167 C165 1.325 . S
N167 C166 1.261 . S
C168 H138 0.931 . S
C168 C165 1.357 . S
C168 C169 1.312 . S
C169 H140 0.930 . S
C169 C164 1.261 . S
C169 C168 1.312 . S
C170 O142 1.214 . S
C170 O150 1.234 . S
C171 H143 0.929 . S
C171 C174 1.391 . S
C171 C176 1.391 . S
C172 H144 0.929 . S
C172 C173 1.390 . S
C172 N175 1.391 . S
C173 H145 0.930 . S
C173 C172 1.390 . S
C173 C174 1.392 . S
C174 H146 0.929 . S
C174 C171 1.391 . S
C174 C173 1.392 . S
N175 Co119 2.257 . S
N175 C172 1.391 . S
N175 C176 1.388 . S
C176 H147 0.930 . S
C176 C171 1.391 . S
C176 N175 1.388 . S
Co177 O179 2.143 . S
Co177 O185 2.074 . S
Co177 O188 2.093 . S
Co177 O201 2.097 . S
Co177 N218 2.151 . S
Co177 N226 2.214 . S
Co178 O179 2.160 . S
Co178 O184 2.058 . S
Co178 O194 2.057 . S
Co178 O209 2.037 . S
Co178 N213 2.145 . S
Co178 N234 2.257 . S
O179 Co177 2.143 . S
O179 Co178 2.160 . S
C180 O181 1.278 . S
C180 O188 1.224 . S
O181 C180 1.278 . S
C182 O183 1.245 . S
C182 O194 1.232 . S
O183 C182 1.245 . S
O184 Co178 2.058 . S
O184 C210 1.269 . S
O185 Co177 2.074 . S
O185 C210 1.257 . S
H186 C211 0.930 . S
H187 C217 0.930 . S
O188 Co177 2.093 . S
O188 C180 1.224 . S
H189 C221 0.929 . S
H190 C223 0.930 . S
H191 C224 0.930 . S
H192 C222 0.929 . S
H193 C225 0.928 . S
O194 Co178 2.057 . S
O194 C182 1.232 . S
H195 C214 0.929 . S
H196 C215 0.929 . S
H197 C227 0.931 . S
H198 C219 0.929 . S
H199 C228 0.930 . S
H200 C220 0.931 . S
O201 Co177 2.097 . S
O201 C229 1.214 . S
H202 C230 0.929 . S
H203 C231 0.929 . S
H204 C232 0.930 . S
H205 C233 0.929 . S
H206 C235 0.930 . S
H207 C212 0.930 . S
H208 C216 0.930 . S
O209 Co178 2.037 . S
O209 C229 1.234 . S
C210 O184 1.269 . S
C210 O185 1.257 . S
C211 H186 0.930 . S
C211 C214 1.388 . S
C211 C216 1.418 . S
C212 H207 0.930 . S
C212 C215 1.404 . S
C212 C216 1.353 . S
N213 Co178 2.145 . S
N213 C214 1.397 . S
N213 C215 1.334 . S
C214 H195 0.929 . S
C214 C211 1.388 . S
C214 N213 1.397 . S
C215 H196 0.929 . S
C215 C212 1.404 . S
C215 N213 1.334 . S
C216 H208 0.930 . S
C216 C211 1.418 . S
C216 C212 1.353 . S
C217 H187 0.930 . S
C217 N218 1.330 . S
C217 C219 1.446 . S
N218 Co177 2.151 . S
N218 C217 1.330 . S
N218 C222 1.418 . S
C219 H198 0.929 . S
C219 C217 1.446 . S
C219 C220 1.332 . S
C220 H200 0.931 . S
C220 C219 1.332 . S
C220 C221 1.267 . S
C221 H189 0.929 . S
C221 C220 1.267 . S
C221 C222 1.251 . S
C222 H192 0.929 . S
C222 N218 1.418 . S
C222 C221 1.251 . S
C223 H190 0.930 . S
C223 C225 1.406 . S
C223 C228 1.261 . S
C224 H191 0.930 . S
C224 N226 1.325 . S
C224 C227 1.357 . S
C225 H193 0.928 . S
C225 C223 1.406 . S
C225 N226 1.261 . S
N226 Co177 2.214 . S
N226 C224 1.325 . S
N226 C225 1.261 . S
C227 H197 0.931 . S
C227 C224 1.357 . S
C227 C228 1.312 . S
C228 H199 0.930 . S
C228 C223 1.261 . S
C228 C227 1.312 . S
C229 O201 1.214 . S
C229 O209 1.234 . S
C230 H202 0.929 . S
C230 C233 1.391 . S
C230 C235 1.391 . S
C231 H203 0.929 . S
C231 C232 1.390 . S
C231 N234 1.391 . S
C232 H204 0.930 . S
C232 C231 1.390 . S
C232 C233 1.392 . S
C233 H205 0.929 . S
C233 C230 1.391 . S
C233 C232 1.392 . S
N234 Co178 2.257 . S
N234 C231 1.391 . S
N234 C235 1.388 . S
C235 H206 0.930 . S
C235 C230 1.391 . S
C235 N234 1.388 . S
Co236 O238 2.143 . S
Co236 O244 2.074 . S
Co236 O247 2.093 . S
Co236 O260 2.097 . S
Co236 N277 2.151 . S
Co236 N285 2.214 . S
Co237 O238 2.160 . S
Co237 O243 2.058 . S
Co237 O253 2.057 . S
Co237 O268 2.037 . S
Co237 N272 2.145 . S
Co237 N293 2.257 . S
O238 Co236 2.143 . S
O238 Co237 2.160 . S
C239 O240 1.278 . S
C239 O247 1.224 . S
O240 C239 1.278 . S
C241 O242 1.245 . S
C241 O253 1.232 . S
O242 C241 1.245 . S
O243 Co237 2.058 . S
O243 C269 1.269 . S
O244 Co236 2.074 . S
O244 C269 1.257 . S
H245 C270 0.930 . S
H246 C276 0.930 . S
O247 Co236 2.093 . S
O247 C239 1.224 . S
H248 C280 0.929 . S
H249 C282 0.930 . S
H250 C283 0.930 . S
H251 C281 0.929 . S
H252 C284 0.928 . S
O253 Co237 2.057 . S
O253 C241 1.232 . S
H254 C273 0.929 . S
H255 C274 0.929 . S
H256 C286 0.931 . S
H257 C278 0.929 . S
H258 C287 0.930 . S
H259 C279 0.931 . S
O260 Co236 2.097 . S
O260 C288 1.214 . S
H261 C289 0.929 . S
H262 C290 0.929 . S
H263 C291 0.930 . S
H264 C292 0.929 . S
H265 C294 0.930 . S
H266 C271 0.930 . S
H267 C275 0.930 . S
O268 Co237 2.037 . S
O268 C288 1.234 . S
C269 O243 1.269 . S
C269 O244 1.257 . S
C270 H245 0.930 . S
C270 C273 1.388 . S
C270 C275 1.418 . S
C271 H266 0.930 . S
C271 C274 1.404 . S
C271 C275 1.353 . S
N272 Co237 2.145 . S
N272 C273 1.397 . S
N272 C274 1.334 . S
C273 H254 0.929 . S
C273 C270 1.388 . S
C273 N272 1.397 . S
C274 H255 0.929 . S
C274 C271 1.404 . S
C274 N272 1.334 . S
C275 H267 0.930 . S
C275 C270 1.418 . S
C275 C271 1.353 . S
C276 H246 0.930 . S
C276 N277 1.330 . S
C276 C278 1.446 . S
N277 Co236 2.151 . S
N277 C276 1.330 . S
N277 C281 1.418 . S
C278 H257 0.929 . S
C278 C276 1.446 . S
C278 C279 1.332 . S
C279 H259 0.931 . S
C279 C278 1.332 . S
C279 C280 1.267 . S
C280 H248 0.929 . S
C280 C279 1.267 . S
C280 C281 1.251 . S
C281 H251 0.929 . S
C281 N277 1.418 . S
C281 C280 1.251 . S
C282 H249 0.930 . S
C282 C284 1.406 . S
C282 C287 1.261 . S
C283 H250 0.930 . S
C283 N285 1.325 . S
C283 C286 1.357 . S
C284 H252 0.928 . S
C284 C282 1.406 . S
C284 N285 1.261 . S
N285 Co236 2.214 . S
N285 C283 1.325 . S
N285 C284 1.261 . S
C286 H256 0.931 . S
C286 C283 1.357 . S
C286 C287 1.312 . S
C287 H258 0.930 . S
C287 C282 1.261 . S
C287 C286 1.312 . S
C288 O260 1.214 . S
C288 O268 1.234 . S
C289 H261 0.929 . S
C289 C292 1.391 . S
C289 C294 1.391 . S
C290 H262 0.929 . S
C290 C291 1.390 . S
C290 N293 1.391 . S
C291 H263 0.930 . S
C291 C290 1.390 . S
C291 C292 1.392 . S
C292 H264 0.929 . S
C292 C289 1.391 . S
C292 C291 1.392 . S
N293 Co237 2.257 . S
N293 C290 1.391 . S
N293 C294 1.388 . S
C294 H265 0.930 . S
C294 C289 1.391 . S
C294 N293 1.388 . S
Co295 O297 2.143 . S
Co295 O303 2.074 . S
Co295 O306 2.093 . S
Co295 O319 2.097 . S
Co295 N336 2.151 . S
Co295 N344 2.214 . S
Co296 O297 2.160 . S
Co296 O302 2.058 . S
Co296 O312 2.057 . S
Co296 O327 2.037 . S
Co296 N331 2.145 . S
Co296 N352 2.257 . S
O297 Co295 2.143 . S
O297 Co296 2.160 . S
C298 O299 1.278 . S
C298 O306 1.224 . S
O299 C298 1.278 . S
C300 O301 1.245 . S
C300 O312 1.232 . S
O301 C300 1.245 . S
O302 Co296 2.058 . S
O302 C328 1.269 . S
O303 Co295 2.074 . S
O303 C328 1.257 . S
H304 C329 0.930 . S
H305 C335 0.930 . S
O306 Co295 2.093 . S
O306 C298 1.224 . S
H307 C339 0.929 . S
H308 C341 0.930 . S
H309 C342 0.930 . S
H310 C340 0.929 . S
H311 C343 0.928 . S
O312 Co296 2.057 . S
O312 C300 1.232 . S
H313 C332 0.929 . S
H314 C333 0.929 . S
H315 C345 0.931 . S
H316 C337 0.929 . S
H317 C346 0.930 . S
H318 C338 0.931 . S
O319 Co295 2.097 . S
O319 C347 1.214 . S
H320 C348 0.929 . S
H321 C349 0.929 . S
H322 C350 0.930 . S
H323 C351 0.929 . S
H324 C353 0.930 . S
H325 C330 0.930 . S
H326 C334 0.930 . S
O327 Co296 2.037 . S
O327 C347 1.234 . S
C328 O302 1.269 . S
C328 O303 1.257 . S
C329 H304 0.930 . S
C329 C332 1.388 . S
C329 C334 1.418 . S
C330 H325 0.930 . S
C330 C333 1.404 . S
C330 C334 1.353 . S
N331 Co296 2.145 . S
N331 C332 1.397 . S
N331 C333 1.334 . S
C332 H313 0.929 . S
C332 C329 1.388 . S
C332 N331 1.397 . S
C333 H314 0.929 . S
C333 C330 1.404 . S
C333 N331 1.334 . S
C334 H326 0.930 . S
C334 C329 1.418 . S
C334 C330 1.353 . S
C335 H305 0.930 . S
C335 N336 1.330 . S
C335 C337 1.446 . S
N336 Co295 2.151 . S
N336 C335 1.330 . S
N336 C340 1.418 . S
C337 H316 0.929 . S
C337 C335 1.446 . S
C337 C338 1.332 . S
C338 H318 0.931 . S
C338 C337 1.332 . S
C338 C339 1.267 . S
C339 H307 0.929 . S
C339 C338 1.267 . S
C339 C340 1.251 . S
C340 H310 0.929 . S
C340 N336 1.418 . S
C340 C339 1.251 . S
C341 H308 0.930 . S
C341 C343 1.406 . S
C341 C346 1.261 . S
C342 H309 0.930 . S
C342 N344 1.325 . S
C342 C345 1.357 . S
C343 H311 0.928 . S
C343 C341 1.406 . S
C343 N344 1.261 . S
N344 Co295 2.214 . S
N344 C342 1.325 . S
N344 C343 1.261 . S
C345 H315 0.931 . S
C345 C342 1.357 . S
C345 C346 1.312 . S
C346 H317 0.930 . S
C346 C341 1.261 . S
C346 C345 1.312 . S
C347 O319 1.214 . S
C347 O327 1.234 . S
C348 H320 0.929 . S
C348 C351 1.391 . S
C348 C353 1.391 . S
C349 H321 0.929 . S
C349 C350 1.390 . S
C349 N352 1.391 . S
C350 H322 0.930 . S
C350 C349 1.390 . S
C350 C351 1.392 . S
C351 H323 0.929 . S
C351 C348 1.391 . S
C351 C350 1.392 . S
N352 Co296 2.257 . S
N352 C349 1.391 . S
N352 C353 1.388 . S
C353 H324 0.930 . S
C353 C348 1.391 . S
C353 N352 1.388 . S
Co354 O356 2.143 . S
Co354 O362 2.074 . S
Co354 O365 2.093 . S
Co354 O378 2.097 . S
Co354 N395 2.151 . S
Co354 N403 2.214 . S
Co355 O356 2.160 . S
Co355 O361 2.058 . S
Co355 O371 2.057 . S
Co355 O386 2.037 . S
Co355 N390 2.145 . S
Co355 N411 2.257 . S
O356 Co354 2.143 . S
O356 Co355 2.160 . S
C357 O358 1.278 . S
C357 O365 1.224 . S
O358 C357 1.278 . S
C359 O360 1.245 . S
C359 O371 1.232 . S
O360 C359 1.245 . S
O361 Co355 2.058 . S
O361 C387 1.269 . S
O362 Co354 2.074 . S
O362 C387 1.257 . S
H363 C388 0.930 . S
H364 C394 0.930 . S
O365 Co354 2.093 . S
O365 C357 1.224 . S
H366 C398 0.929 . S
H367 C400 0.930 . S
H368 C401 0.930 . S
H369 C399 0.929 . S
H370 C402 0.928 . S
O371 Co355 2.057 . S
O371 C359 1.232 . S
H372 C391 0.929 . S
H373 C392 0.929 . S
H374 C404 0.931 . S
H375 C396 0.929 . S
H376 C405 0.930 . S
H377 C397 0.931 . S
O378 Co354 2.097 . S
O378 C406 1.214 . S
H379 C407 0.929 . S
H380 C408 0.929 . S
H381 C409 0.930 . S
H382 C410 0.929 . S
H383 C412 0.930 . S
H384 C389 0.930 . S
H385 C393 0.930 . S
O386 Co355 2.037 . S
O386 C406 1.234 . S
C387 O361 1.269 . S
C387 O362 1.257 . S
C388 H363 0.930 . S
C388 C391 1.388 . S
C388 C393 1.418 . S
C389 H384 0.930 . S
C389 C392 1.404 . S
C389 C393 1.353 . S
N390 Co355 2.145 . S
N390 C391 1.397 . S
N390 C392 1.334 . S
C391 H372 0.929 . S
C391 C388 1.388 . S
C391 N390 1.397 . S
C392 H373 0.929 . S
C392 C389 1.404 . S
C392 N390 1.334 . S
C393 H385 0.930 . S
C393 C388 1.418 . S
C393 C389 1.353 . S
C394 H364 0.930 . S
C394 N395 1.330 . S
C394 C396 1.446 . S
N395 Co354 2.151 . S
N395 C394 1.330 . S
N395 C399 1.418 . S
C396 H375 0.929 . S
C396 C394 1.446 . S
C396 C397 1.332 . S
C397 H377 0.931 . S
C397 C396 1.332 . S
C397 C398 1.267 . S
C398 H366 0.929 . S
C398 C397 1.267 . S
C398 C399 1.251 . S
C399 H369 0.929 . S
C399 N395 1.418 . S
C399 C398 1.251 . S
C400 H367 0.930 . S
C400 C402 1.406 . S
C400 C405 1.261 . S
C401 H368 0.930 . S
C401 N403 1.325 . S
C401 C404 1.357 . S
C402 H370 0.928 . S
C402 C400 1.406 . S
C402 N403 1.261 . S
N403 Co354 2.214 . S
N403 C401 1.325 . S
N403 C402 1.261 . S
C404 H374 0.931 . S
C404 C401 1.357 . S
C404 C405 1.312 . S
C405 H376 0.930 . S
C405 C400 1.261 . S
C405 C404 1.312 . S
C406 O378 1.214 . S
C406 O386 1.234 . S
C407 H379 0.929 . S
C407 C410 1.391 . S
C407 C412 1.391 . S
C408 H380 0.929 . S
C408 C409 1.390 . S
C408 N411 1.391 . S
C409 H381 0.930 . S
C409 C408 1.390 . S
C409 C410 1.392 . S
C410 H382 0.929 . S
C410 C407 1.391 . S
C410 C409 1.392 . S
N411 Co355 2.257 . S
N411 C408 1.391 . S
N411 C412 1.388 . S
C412 H383 0.930 . S
C412 C407 1.391 . S
C412 N411 1.388 . S
Co413 O415 2.143 . S
Co413 O421 2.074 . S
Co413 O424 2.093 . S
Co413 O437 2.097 . S
Co413 N454 2.151 . S
Co413 N462 2.214 . S
Co414 O415 2.160 . S
Co414 O420 2.058 . S
Co414 O430 2.057 . S
Co414 O445 2.037 . S
Co414 N449 2.145 . S
Co414 N470 2.257 . S
O415 Co413 2.143 . S
O415 Co414 2.160 . S
C416 O417 1.278 . S
C416 O424 1.224 . S
O417 C416 1.278 . S
C418 O419 1.245 . S
C418 O430 1.232 . S
O419 C418 1.245 . S
O420 Co414 2.058 . S
O420 C446 1.269 . S
O421 Co413 2.074 . S
O421 C446 1.257 . S
H422 C447 0.930 . S
H423 C453 0.930 . S
O424 Co413 2.093 . S
O424 C416 1.224 . S
H425 C457 0.929 . S
H426 C459 0.930 . S
H427 C460 0.930 . S
H428 C458 0.929 . S
H429 C461 0.928 . S
O430 Co414 2.057 . S
O430 C418 1.232 . S
H431 C450 0.929 . S
H432 C451 0.929 . S
H433 C463 0.931 . S
H434 C455 0.929 . S
H435 C464 0.930 . S
H436 C456 0.931 . S
O437 Co413 2.097 . S
O437 C465 1.214 . S
H438 C466 0.929 . S
H439 C467 0.929 . S
H440 C468 0.930 . S
H441 C469 0.929 . S
H442 C471 0.930 . S
H443 C448 0.930 . S
H444 C452 0.930 . S
O445 Co414 2.037 . S
O445 C465 1.234 . S
C446 O420 1.269 . S
C446 O421 1.257 . S
C447 H422 0.930 . S
C447 C450 1.388 . S
C447 C452 1.418 . S
C448 H443 0.930 . S
C448 C451 1.404 . S
C448 C452 1.353 . S
N449 Co414 2.145 . S
N449 C450 1.397 . S
N449 C451 1.334 . S
C450 H431 0.929 . S
C450 C447 1.388 . S
C450 N449 1.397 . S
C451 H432 0.929 . S
C451 C448 1.404 . S
C451 N449 1.334 . S
C452 H444 0.930 . S
C452 C447 1.418 . S
C452 C448 1.353 . S
C453 H423 0.930 . S
C453 N454 1.330 . S
C453 C455 1.446 . S
N454 Co413 2.151 . S
N454 C453 1.330 . S
N454 C458 1.418 . S
C455 H434 0.929 . S
C455 C453 1.446 . S
C455 C456 1.332 . S
C456 H436 0.931 . S
C456 C455 1.332 . S
C456 C457 1.267 . S
C457 H425 0.929 . S
C457 C456 1.267 . S
C457 C458 1.251 . S
C458 H428 0.929 . S
C458 N454 1.418 . S
C458 C457 1.251 . S
C459 H426 0.930 . S
C459 C461 1.406 . S
C459 C464 1.261 . S
C460 H427 0.930 . S
C460 N462 1.325 . S
C460 C463 1.357 . S
C461 H429 0.928 . S
C461 C459 1.406 . S
C461 N462 1.261 . S
N462 Co413 2.214 . S
N462 C460 1.325 . S
N462 C461 1.261 . S
C463 H433 0.931 . S
C463 C460 1.357 . S
C463 C464 1.312 . S
C464 H435 0.930 . S
C464 C459 1.261 . S
C464 C463 1.312 . S
C465 O437 1.214 . S
C465 O445 1.234 . S
C466 H438 0.929 . S
C466 C469 1.391 . S
C466 C471 1.391 . S
C467 H439 0.929 . S
C467 C468 1.390 . S
C467 N470 1.391 . S
C468 H440 0.930 . S
C468 C467 1.390 . S
C468 C469 1.392 . S
C469 H441 0.929 . S
C469 C466 1.391 . S
C469 C468 1.392 . S
N470 Co414 2.257 . S
N470 C467 1.391 . S
N470 C471 1.388 . S
C471 H442 0.930 . S
C471 C466 1.391 . S
C471 N470 1.388 . S
Co472 O474 2.143 . S
Co472 O480 2.074 . S
Co472 O483 2.093 . S
Co472 O496 2.097 . S
Co472 N513 2.151 . S
Co472 N521 2.214 . S
Co473 O474 2.160 . S
Co473 O479 2.058 . S
Co473 O489 2.057 . S
Co473 O504 2.037 . S
Co473 N508 2.145 . S
Co473 N529 2.257 . S
O474 Co472 2.143 . S
O474 Co473 2.160 . S
C475 O476 1.278 . S
C475 O483 1.224 . S
O476 C475 1.278 . S
C477 O478 1.245 . S
C477 O489 1.232 . S
O478 C477 1.245 . S
O479 Co473 2.058 . S
O479 C505 1.269 . S
O480 Co472 2.074 . S
O480 C505 1.257 . S
H481 C506 0.930 . S
H482 C512 0.930 . S
O483 Co472 2.093 . S
O483 C475 1.224 . S
H484 C516 0.929 . S
H485 C518 0.930 . S
H486 C519 0.930 . S
H487 C517 0.929 . S
H488 C520 0.928 . S
O489 Co473 2.057 . S
O489 C477 1.232 . S
H490 C509 0.929 . S
H491 C510 0.929 . S
H492 C522 0.931 . S
H493 C514 0.929 . S
H494 C523 0.930 . S
H495 C515 0.931 . S
O496 Co472 2.097 . S
O496 C524 1.214 . S
H497 C525 0.929 . S
H498 C526 0.929 . S
H499 C527 0.930 . S
H500 C528 0.929 . S
H501 C530 0.930 . S
H502 C507 0.930 . S
H503 C511 0.930 . S
O504 Co473 2.037 . S
O504 C524 1.234 . S
C505 O479 1.269 . S
C505 O480 1.257 . S
C506 H481 0.930 . S
C506 C509 1.388 . S
C506 C511 1.418 . S
C507 H502 0.930 . S
C507 C510 1.404 . S
C507 C511 1.353 . S
N508 Co473 2.145 . S
N508 C509 1.397 . S
N508 C510 1.334 . S
C509 H490 0.929 . S
C509 C506 1.388 . S
C509 N508 1.397 . S
C510 H491 0.929 . S
C510 C507 1.404 . S
C510 N508 1.334 . S
C511 H503 0.930 . S
C511 C506 1.418 . S
C511 C507 1.353 . S
C512 H482 0.930 . S
C512 N513 1.330 . S
C512 C514 1.446 . S
N513 Co472 2.151 . S
N513 C512 1.330 . S
N513 C517 1.418 . S
C514 H493 0.929 . S
C514 C512 1.446 . S
C514 C515 1.332 . S
C515 H495 0.931 . S
C515 C514 1.332 . S
C515 C516 1.267 . S
C516 H484 0.929 . S
C516 C515 1.267 . S
C516 C517 1.251 . S
C517 H487 0.929 . S
C517 N513 1.418 . S
C517 C516 1.251 . S
C518 H485 0.930 . S
C518 C520 1.406 . S
C518 C523 1.261 . S
C519 H486 0.930 . S
C519 N521 1.325 . S
C519 C522 1.357 . S
C520 H488 0.928 . S
C520 C518 1.406 . S
C520 N521 1.261 . S
N521 Co472 2.214 . S
N521 C519 1.325 . S
N521 C520 1.261 . S
C522 H492 0.931 . S
C522 C519 1.357 . S
C522 C523 1.312 . S
C523 H494 0.930 . S
C523 C518 1.261 . S
C523 C522 1.312 . S
C524 O496 1.214 . S
C524 O504 1.234 . S
C525 H497 0.929 . S
C525 C528 1.391 . S
C525 C530 1.391 . S
C526 H498 0.929 . S
C526 C527 1.390 . S
C526 N529 1.391 . S
C527 H499 0.930 . S
C527 C526 1.390 . S
C527 C528 1.392 . S
C528 H500 0.929 . S
C528 C525 1.391 . S
C528 C527 1.392 . S
N529 Co473 2.257 . S
N529 C526 1.391 . S
N529 C530 1.388 . S
C530 H501 0.930 . S
C530 C525 1.391 . S
C530 N529 1.388 . S
Co531 O533 2.143 . S
Co531 O539 2.074 . S
Co531 O542 2.093 . S
Co531 O555 2.097 . S
Co531 N572 2.151 . S
Co531 N580 2.214 . S
Co532 O533 2.160 . S
Co532 O538 2.058 . S
Co532 O548 2.057 . S
Co532 O563 2.037 . S
Co532 N567 2.145 . S
Co532 N588 2.257 . S
O533 Co531 2.143 . S
O533 Co532 2.160 . S
C534 O535 1.278 . S
C534 O542 1.224 . S
O535 C534 1.278 . S
C536 O537 1.245 . S
C536 O548 1.232 . S
O537 C536 1.245 . S
O538 Co532 2.058 . S
O538 C564 1.269 . S
O539 Co531 2.074 . S
O539 C564 1.257 . S
H540 C565 0.930 . S
H541 C571 0.930 . S
O542 Co531 2.093 . S
O542 C534 1.224 . S
H543 C575 0.929 . S
H544 C577 0.930 . S
H545 C578 0.930 . S
H546 C576 0.929 . S
H547 C579 0.928 . S
O548 Co532 2.057 . S
O548 C536 1.232 . S
H549 C568 0.929 . S
H550 C569 0.929 . S
H551 C581 0.931 . S
H552 C573 0.929 . S
H553 C582 0.930 . S
H554 C574 0.931 . S
O555 Co531 2.097 . S
O555 C583 1.214 . S
H556 C584 0.929 . S
H557 C585 0.929 . S
H558 C586 0.930 . S
H559 C587 0.929 . S
H560 C589 0.930 . S
H561 C566 0.930 . S
H562 C570 0.930 . S
O563 Co532 2.037 . S
O563 C583 1.234 . S
C564 O538 1.269 . S
C564 O539 1.257 . S
C565 H540 0.930 . S
C565 C568 1.388 . S
C565 C570 1.418 . S
C566 H561 0.930 . S
C566 C569 1.404 . S
C566 C570 1.353 . S
N567 Co532 2.145 . S
N567 C568 1.397 . S
N567 C569 1.334 . S
C568 H549 0.929 . S
C568 C565 1.388 . S
C568 N567 1.397 . S
C569 H550 0.929 . S
C569 C566 1.404 . S
C569 N567 1.334 . S
C570 H562 0.930 . S
C570 C565 1.418 . S
C570 C566 1.353 . S
C571 H541 0.930 . S
C571 N572 1.330 . S
C571 C573 1.446 . S
N572 Co531 2.151 . S
N572 C571 1.330 . S
N572 C576 1.418 . S
C573 H552 0.929 . S
C573 C571 1.446 . S
C573 C574 1.332 . S
C574 H554 0.931 . S
C574 C573 1.332 . S
C574 C575 1.267 . S
C575 H543 0.929 . S
C575 C574 1.267 . S
C575 C576 1.251 . S
C576 H546 0.929 . S
C576 N572 1.418 . S
C576 C575 1.251 . S
C577 H544 0.930 . S
C577 C579 1.406 . S
C577 C582 1.261 . S
C578 H545 0.930 . S
C578 N580 1.325 . S
C578 C581 1.357 . S
C579 H547 0.928 . S
C579 C577 1.406 . S
C579 N580 1.261 . S
N580 Co531 2.214 . S
N580 C578 1.325 . S
N580 C579 1.261 . S
C581 H551 0.931 . S
C581 C578 1.357 . S
C581 C582 1.312 . S
C582 H553 0.930 . S
C582 C577 1.261 . S
C582 C581 1.312 . S
C583 O555 1.214 . S
C583 O563 1.234 . S
C584 H556 0.929 . S
C584 C587 1.391 . S
C584 C589 1.391 . S
C585 H557 0.929 . S
C585 C586 1.390 . S
C585 N588 1.391 . S
C586 H558 0.930 . S
C586 C585 1.390 . S
C586 C587 1.392 . S
C587 H559 0.929 . S
C587 C584 1.391 . S
C587 C586 1.392 . S
N588 Co532 2.257 . S
N588 C585 1.391 . S
N588 C589 1.388 . S
C589 H560 0.930 . S
C589 C584 1.391 . S
C589 N588 1.388 . S
Co590 O592 2.143 . S
Co590 O598 2.074 . S
Co590 O601 2.093 . S
Co590 O614 2.097 . S
Co590 N631 2.151 . S
Co590 N639 2.214 . S
Co591 O592 2.160 . S
Co591 O597 2.058 . S
Co591 O607 2.057 . S
Co591 O622 2.037 . S
Co591 N626 2.145 . S
Co591 N647 2.257 . S
O592 Co590 2.143 . S
O592 Co591 2.160 . S
C593 O594 1.278 . S
C593 O601 1.224 . S
O594 C593 1.278 . S
C595 O596 1.245 . S
C595 O607 1.232 . S
O596 C595 1.245 . S
O597 Co591 2.058 . S
O597 C623 1.269 . S
O598 Co590 2.074 . S
O598 C623 1.257 . S
H599 C624 0.930 . S
H600 C630 0.930 . S
O601 Co590 2.093 . S
O601 C593 1.224 . S
H602 C634 0.929 . S
H603 C636 0.930 . S
H604 C637 0.930 . S
H605 C635 0.929 . S
H606 C638 0.928 . S
O607 Co591 2.057 . S
O607 C595 1.232 . S
H608 C627 0.929 . S
H609 C628 0.929 . S
H610 C640 0.931 . S
H611 C632 0.929 . S
H612 C641 0.930 . S
H613 C633 0.931 . S
O614 Co590 2.097 . S
O614 C642 1.214 . S
H615 C643 0.929 . S
H616 C644 0.929 . S
H617 C645 0.930 . S
H618 C646 0.929 . S
H619 C648 0.930 . S
H620 C625 0.930 . S
H621 C629 0.930 . S
O622 Co591 2.037 . S
O622 C642 1.234 . S
C623 O597 1.269 . S
C623 O598 1.257 . S
C624 H599 0.930 . S
C624 C627 1.388 . S
C624 C629 1.418 . S
C625 H620 0.930 . S
C625 C628 1.404 . S
C625 C629 1.353 . S
N626 Co591 2.145 . S
N626 C627 1.397 . S
N626 C628 1.334 . S
C627 H608 0.929 . S
C627 C624 1.388 . S
C627 N626 1.397 . S
C628 H609 0.929 . S
C628 C625 1.404 . S
C628 N626 1.334 . S
C629 H621 0.930 . S
C629 C624 1.418 . S
C629 C625 1.353 . S
C630 H600 0.930 . S
C630 N631 1.330 . S
C630 C632 1.446 . S
N631 Co590 2.151 . S
N631 C630 1.330 . S
N631 C635 1.418 . S
C632 H611 0.929 . S
C632 C630 1.446 . S
C632 C633 1.332 . S
C633 H613 0.931 . S
C633 C632 1.332 . S
C633 C634 1.267 . S
C634 H602 0.929 . S
C634 C633 1.267 . S
C634 C635 1.251 . S
C635 H605 0.929 . S
C635 N631 1.418 . S
C635 C634 1.251 . S
C636 H603 0.930 . S
C636 C638 1.406 . S
C636 C641 1.261 . S
C637 H604 0.930 . S
C637 N639 1.325 . S
C637 C640 1.357 . S
C638 H606 0.928 . S
C638 C636 1.406 . S
C638 N639 1.261 . S
N639 Co590 2.214 . S
N639 C637 1.325 . S
N639 C638 1.261 . S
C640 H610 0.931 . S
C640 C637 1.357 . S
C640 C641 1.312 . S
C641 H612 0.930 . S
C641 C636 1.261 . S
C641 C640 1.312 . S
C642 O614 1.214 . S
C642 O622 1.234 . S
C643 H615 0.929 . S
C643 C646 1.391 . S
C643 C648 1.391 . S
C644 H616 0.929 . S
C644 C645 1.390 . S
C644 N647 1.391 . S
C645 H617 0.930 . S
C645 C644 1.390 . S
C645 C646 1.392 . S
C646 H618 0.929 . S
C646 C643 1.391 . S
C646 C645 1.392 . S
N647 Co591 2.257 . S
N647 C644 1.391 . S
N647 C648 1.388 . S
C648 H619 0.930 . S
C648 C643 1.391 . S
C648 N647 1.388 . S
Co649 O651 2.143 . S
Co649 O657 2.074 . S
Co649 O660 2.093 . S
Co649 O673 2.097 . S
Co649 N690 2.151 . S
Co649 N698 2.214 . S
Co650 O651 2.160 . S
Co650 O656 2.058 . S
Co650 O666 2.057 . S
Co650 O681 2.037 . S
Co650 N685 2.145 . S
Co650 N706 2.257 . S
O651 Co649 2.143 . S
O651 Co650 2.160 . S
C652 O653 1.278 . S
C652 O660 1.224 . S
O653 C652 1.278 . S
C654 O655 1.245 . S
C654 O666 1.232 . S
O655 C654 1.245 . S
O656 Co650 2.058 . S
O656 C682 1.269 . S
O657 Co649 2.074 . S
O657 C682 1.257 . S
H658 C683 0.930 . S
H659 C689 0.930 . S
O660 Co649 2.093 . S
O660 C652 1.224 . S
H661 C693 0.929 . S
H662 C695 0.930 . S
H663 C696 0.930 . S
H664 C694 0.929 . S
H665 C697 0.928 . S
O666 Co650 2.057 . S
O666 C654 1.232 . S
H667 C686 0.929 . S
H668 C687 0.929 . S
H669 C699 0.931 . S
H670 C691 0.929 . S
H671 C700 0.930 . S
H672 C692 0.931 . S
O673 Co649 2.097 . S
O673 C701 1.214 . S
H674 C702 0.929 . S
H675 C703 0.929 . S
H676 C704 0.930 . S
H677 C705 0.929 . S
H678 C707 0.930 . S
H679 C684 0.930 . S
H680 C688 0.930 . S
O681 Co650 2.037 . S
O681 C701 1.234 . S
C682 O656 1.269 . S
C682 O657 1.257 . S
C683 H658 0.930 . S
C683 C686 1.388 . S
C683 C688 1.418 . S
C684 H679 0.930 . S
C684 C687 1.404 . S
C684 C688 1.353 . S
N685 Co650 2.145 . S
N685 C686 1.397 . S
N685 C687 1.334 . S
C686 H667 0.929 . S
C686 C683 1.388 . S
C686 N685 1.397 . S
C687 H668 0.929 . S
C687 C684 1.404 . S
C687 N685 1.334 . S
C688 H680 0.930 . S
C688 C683 1.418 . S
C688 C684 1.353 . S
C689 H659 0.930 . S
C689 N690 1.330 . S
C689 C691 1.446 . S
N690 Co649 2.151 . S
N690 C689 1.330 . S
N690 C694 1.418 . S
C691 H670 0.929 . S
C691 C689 1.446 . S
C691 C692 1.332 . S
C692 H672 0.931 . S
C692 C691 1.332 . S
C692 C693 1.267 . S
C693 H661 0.929 . S
C693 C692 1.267 . S
C693 C694 1.251 . S
C694 H664 0.929 . S
C694 N690 1.418 . S
C694 C693 1.251 . S
C695 H662 0.930 . S
C695 C697 1.406 . S
C695 C700 1.261 . S
C696 H663 0.930 . S
C696 N698 1.325 . S
C696 C699 1.357 . S
C697 H665 0.928 . S
C697 C695 1.406 . S
C697 N698 1.261 . S
N698 Co649 2.214 . S
N698 C696 1.325 . S
N698 C697 1.261 . S
C699 H669 0.931 . S
C699 C696 1.357 . S
C699 C700 1.312 . S
C700 H671 0.930 . S
C700 C695 1.261 . S
C700 C699 1.312 . S
C701 O673 1.214 . S
C701 O681 1.234 . S
C702 H674 0.929 . S
C702 C705 1.391 . S
C702 C707 1.391 . S
C703 H675 0.929 . S
C703 C704 1.390 . S
C703 N706 1.391 . S
C704 H676 0.930 . S
C704 C703 1.390 . S
C704 C705 1.392 . S
C705 H677 0.929 . S
C705 C702 1.391 . S
C705 C704 1.392 . S
N706 Co650 2.257 . S
N706 C703 1.391 . S
N706 C707 1.388 . S
C707 H678 0.930 . S
C707 C702 1.391 . S
C707 N706 1.388 . S
Co708 O710 2.143 . S
Co708 O716 2.074 . S
Co708 O719 2.093 . S
Co708 O732 2.097 . S
Co708 N749 2.151 . S
Co708 N757 2.214 . S
Co709 O710 2.160 . S
Co709 O715 2.058 . S
Co709 O725 2.057 . S
Co709 O740 2.037 . S
Co709 N744 2.145 . S
Co709 N765 2.257 . S
O710 Co708 2.143 . S
O710 Co709 2.160 . S
C711 O712 1.278 . S
C711 O719 1.224 . S
O712 C711 1.278 . S
C713 O714 1.245 . S
C713 O725 1.232 . S
O714 C713 1.245 . S
O715 Co709 2.058 . S
O715 C741 1.269 . S
O716 Co708 2.074 . S
O716 C741 1.257 . S
H717 C742 0.930 . S
H718 C748 0.930 . S
O719 Co708 2.093 . S
O719 C711 1.224 . S
H720 C752 0.929 . S
H721 C754 0.930 . S
H722 C755 0.930 . S
H723 C753 0.929 . S
H724 C756 0.928 . S
O725 Co709 2.057 . S
O725 C713 1.232 . S
H726 C745 0.929 . S
H727 C746 0.929 . S
H728 C758 0.931 . S
H729 C750 0.929 . S
H730 C759 0.930 . S
H731 C751 0.931 . S
O732 Co708 2.097 . S
O732 C760 1.214 . S
H733 C761 0.929 . S
H734 C762 0.929 . S
H735 C763 0.930 . S
H736 C764 0.929 . S
H737 C766 0.930 . S
H738 C743 0.930 . S
H739 C747 0.930 . S
O740 Co709 2.037 . S
O740 C760 1.234 . S
C741 O715 1.269 . S
C741 O716 1.257 . S
C742 H717 0.930 . S
C742 C745 1.388 . S
C742 C747 1.418 . S
C743 H738 0.930 . S
C743 C746 1.404 . S
C743 C747 1.353 . S
N744 Co709 2.145 . S
N744 C745 1.397 . S
N744 C746 1.334 . S
C745 H726 0.929 . S
C745 C742 1.388 . S
C745 N744 1.397 . S
C746 H727 0.929 . S
C746 C743 1.404 . S
C746 N744 1.334 . S
C747 H739 0.930 . S
C747 C742 1.418 . S
C747 C743 1.353 . S
C748 H718 0.930 . S
C748 N749 1.330 . S
C748 C750 1.446 . S
N749 Co708 2.151 . S
N749 C748 1.330 . S
N749 C753 1.418 . S
C750 H729 0.929 . S
C750 C748 1.446 . S
C750 C751 1.332 . S
C751 H731 0.931 . S
C751 C750 1.332 . S
C751 C752 1.267 . S
C752 H720 0.929 . S
C752 C751 1.267 . S
C752 C753 1.251 . S
C753 H723 0.929 . S
C753 N749 1.418 . S
C753 C752 1.251 . S
C754 H721 0.930 . S
C754 C756 1.406 . S
C754 C759 1.261 . S
C755 H722 0.930 . S
C755 N757 1.325 . S
C755 C758 1.357 . S
C756 H724 0.928 . S
C756 C754 1.406 . S
C756 N757 1.261 . S
N757 Co708 2.214 . S
N757 C755 1.325 . S
N757 C756 1.261 . S
C758 H728 0.931 . S
C758 C755 1.357 . S
C758 C759 1.312 . S
C759 H730 0.930 . S
C759 C754 1.261 . S
C759 C758 1.312 . S
C760 O732 1.214 . S
C760 O740 1.234 . S
C761 H733 0.929 . S
C761 C764 1.391 . S
C761 C766 1.391 . S
C762 H734 0.929 . S
C762 C763 1.390 . S
C762 N765 1.391 . S
C763 H735 0.930 . S
C763 C762 1.390 . S
C763 C764 1.392 . S
C764 H736 0.929 . S
C764 C761 1.391 . S
C764 C763 1.392 . S
N765 Co709 2.257 . S
N765 C762 1.391 . S
N765 C766 1.388 . S
C766 H737 0.930 . S
C766 C761 1.391 . S
C766 N765 1.388 . S
Co767 O769 2.143 . S
Co767 O775 2.074 . S
Co767 O778 2.093 . S
Co767 O791 2.097 . S
Co767 N808 2.151 . S
Co767 N816 2.214 . S
Co768 O769 2.160 . S
Co768 O774 2.058 . S
Co768 O784 2.057 . S
Co768 O799 2.037 . S
Co768 N803 2.145 . S
Co768 N824 2.257 . S
O769 Co767 2.143 . S
O769 Co768 2.160 . S
C770 O771 1.278 . S
C770 O778 1.224 . S
O771 C770 1.278 . S
C772 O773 1.245 . S
C772 O784 1.232 . S
O773 C772 1.245 . S
O774 Co768 2.058 . S
O774 C800 1.269 . S
O775 Co767 2.074 . S
O775 C800 1.257 . S
H776 C801 0.930 . S
H777 C807 0.930 . S
O778 Co767 2.093 . S
O778 C770 1.224 . S
H779 C811 0.929 . S
H780 C813 0.930 . S
H781 C814 0.930 . S
H782 C812 0.929 . S
H783 C815 0.928 . S
O784 Co768 2.057 . S
O784 C772 1.232 . S
H785 C804 0.929 . S
H786 C805 0.929 . S
H787 C817 0.931 . S
H788 C809 0.929 . S
H789 C818 0.930 . S
H790 C810 0.931 . S
O791 Co767 2.097 . S
O791 C819 1.214 . S
H792 C820 0.929 . S
H793 C821 0.929 . S
H794 C822 0.930 . S
H795 C823 0.929 . S
H796 C825 0.930 . S
H797 C802 0.930 . S
H798 C806 0.930 . S
O799 Co768 2.037 . S
O799 C819 1.234 . S
C800 O774 1.269 . S
C800 O775 1.257 . S
C801 H776 0.930 . S
C801 C804 1.388 . S
C801 C806 1.418 . S
C802 H797 0.930 . S
C802 C805 1.404 . S
C802 C806 1.353 . S
N803 Co768 2.145 . S
N803 C804 1.397 . S
N803 C805 1.334 . S
C804 H785 0.929 . S
C804 C801 1.388 . S
C804 N803 1.397 . S
C805 H786 0.929 . S
C805 C802 1.404 . S
C805 N803 1.334 . S
C806 H798 0.930 . S
C806 C801 1.418 . S
C806 C802 1.353 . S
C807 H777 0.930 . S
C807 N808 1.330 . S
C807 C809 1.446 . S
N808 Co767 2.151 . S
N808 C807 1.330 . S
N808 C812 1.418 . S
C809 H788 0.929 . S
C809 C807 1.446 . S
C809 C810 1.332 . S
C810 H790 0.931 . S
C810 C809 1.332 . S
C810 C811 1.267 . S
C811 H779 0.929 . S
C811 C810 1.267 . S
C811 C812 1.251 . S
C812 H782 0.929 . S
C812 N808 1.418 . S
C812 C811 1.251 . S
C813 H780 0.930 . S
C813 C815 1.406 . S
C813 C818 1.261 . S
C814 H781 0.930 . S
C814 N816 1.325 . S
C814 C817 1.357 . S
C815 H783 0.928 . S
C815 C813 1.406 . S
C815 N816 1.261 . S
N816 Co767 2.214 . S
N816 C814 1.325 . S
N816 C815 1.261 . S
C817 H787 0.931 . S
C817 C814 1.357 . S
C817 C818 1.312 . S
C818 H789 0.930 . S
C818 C813 1.261 . S
C818 C817 1.312 . S
C819 O791 1.214 . S
C819 O799 1.234 . S
C820 H792 0.929 . S
C820 C823 1.391 . S
C820 C825 1.391 . S
C821 H793 0.929 . S
C821 C822 1.390 . S
C821 N824 1.391 . S
C822 H794 0.930 . S
C822 C821 1.390 . S
C822 C823 1.392 . S
C823 H795 0.929 . S
C823 C820 1.391 . S
C823 C822 1.392 . S
N824 Co768 2.257 . S
N824 C821 1.391 . S
N824 C825 1.388 . S
C825 H796 0.930 . S
C825 C820 1.391 . S
C825 N824 1.388 . S
Co826 O828 2.143 . S
Co826 O834 2.074 . S
Co826 O837 2.093 . S
Co826 O850 2.097 . S
Co826 N867 2.151 . S
Co826 N875 2.214 . S
Co827 O828 2.160 . S
Co827 O833 2.058 . S
Co827 O843 2.057 . S
Co827 O858 2.037 . S
Co827 N862 2.145 . S
Co827 N883 2.257 . S
O828 Co826 2.143 . S
O828 Co827 2.160 . S
C829 O830 1.278 . S
C829 O837 1.224 . S
O830 C829 1.278 . S
C831 O832 1.245 . S
C831 O843 1.232 . S
O832 C831 1.245 . S
O833 Co827 2.058 . S
O833 C859 1.269 . S
O834 Co826 2.074 . S
O834 C859 1.257 . S
H835 C860 0.930 . S
H836 C866 0.930 . S
O837 Co826 2.093 . S
O837 C829 1.224 . S
H838 C870 0.929 . S
H839 C872 0.930 . S
H840 C873 0.930 . S
H841 C871 0.929 . S
H842 C874 0.928 . S
O843 Co827 2.057 . S
O843 C831 1.232 . S
H844 C863 0.929 . S
H845 C864 0.929 . S
H846 C876 0.931 . S
H847 C868 0.929 . S
H848 C877 0.930 . S
H849 C869 0.931 . S
O850 Co826 2.097 . S
O850 C878 1.214 . S
H851 C879 0.929 . S
H852 C880 0.929 . S
H853 C881 0.930 . S
H854 C882 0.929 . S
H855 C884 0.930 . S
H856 C861 0.930 . S
H857 C865 0.930 . S
O858 Co827 2.037 . S
O858 C878 1.234 . S
C859 O833 1.269 . S
C859 O834 1.257 . S
C860 H835 0.930 . S
C860 C863 1.388 . S
C860 C865 1.418 . S
C861 H856 0.930 . S
C861 C864 1.404 . S
C861 C865 1.353 . S
N862 Co827 2.145 . S
N862 C863 1.397 . S
N862 C864 1.334 . S
C863 H844 0.929 . S
C863 C860 1.388 . S
C863 N862 1.397 . S
C864 H845 0.929 . S
C864 C861 1.404 . S
C864 N862 1.334 . S
C865 H857 0.930 . S
C865 C860 1.418 . S
C865 C861 1.353 . S
C866 H836 0.930 . S
C866 N867 1.330 . S
C866 C868 1.446 . S
N867 Co826 2.151 . S
N867 C866 1.330 . S
N867 C871 1.418 . S
C868 H847 0.929 . S
C868 C866 1.446 . S
C868 C869 1.332 . S
C869 H849 0.931 . S
C869 C868 1.332 . S
C869 C870 1.267 . S
C870 H838 0.929 . S
C870 C869 1.267 . S
C870 C871 1.251 . S
C871 H841 0.929 . S
C871 N867 1.418 . S
C871 C870 1.251 . S
C872 H839 0.930 . S
C872 C874 1.406 . S
C872 C877 1.261 . S
C873 H840 0.930 . S
C873 N875 1.325 . S
C873 C876 1.357 . S
C874 H842 0.928 . S
C874 C872 1.406 . S
C874 N875 1.261 . S
N875 Co826 2.214 . S
N875 C873 1.325 . S
N875 C874 1.261 . S
C876 H846 0.931 . S
C876 C873 1.357 . S
C876 C877 1.312 . S
C877 H848 0.930 . S
C877 C872 1.261 . S
C877 C876 1.312 . S
C878 O850 1.214 . S
C878 O858 1.234 . S
C879 H851 0.929 . S
C879 C882 1.391 . S
C879 C884 1.391 . S
C880 H852 0.929 . S
C880 C881 1.390 . S
C880 N883 1.391 . S
C881 H853 0.930 . S
C881 C880 1.390 . S
C881 C882 1.392 . S
C882 H854 0.929 . S
C882 C879 1.391 . S
C882 C881 1.392 . S
N883 Co827 2.257 . S
N883 C880 1.391 . S
N883 C884 1.388 . S
C884 H855 0.930 . S
C884 C879 1.391 . S
C884 N883 1.388 . S
Co885 O887 2.143 . S
Co885 O893 2.074 . S
Co885 O896 2.093 . S
Co885 O909 2.097 . S
Co885 N926 2.151 . S
Co885 N934 2.214 . S
Co886 O887 2.160 . S
Co886 O892 2.058 . S
Co886 O902 2.057 . S
Co886 O917 2.037 . S
Co886 N921 2.145 . S
Co886 N942 2.257 . S
O887 Co885 2.143 . S
O887 Co886 2.160 . S
C888 O889 1.278 . S
C888 O896 1.224 . S
O889 C888 1.278 . S
C890 O891 1.245 . S
C890 O902 1.232 . S
O891 C890 1.245 . S
O892 Co886 2.058 . S
O892 C918 1.269 . S
O893 Co885 2.074 . S
O893 C918 1.257 . S
H894 C919 0.930 . S
H895 C925 0.930 . S
O896 Co885 2.093 . S
O896 C888 1.224 . S
H897 C929 0.929 . S
H898 C931 0.930 . S
H899 C932 0.930 . S
H900 C930 0.929 . S
H901 C933 0.928 . S
O902 Co886 2.057 . S
O902 C890 1.232 . S
H903 C922 0.929 . S
H904 C923 0.929 . S
H905 C935 0.931 . S
H906 C927 0.929 . S
H907 C936 0.930 . S
H908 C928 0.931 . S
O909 Co885 2.097 . S
O909 C937 1.214 . S
H910 C938 0.929 . S
H911 C939 0.929 . S
H912 C940 0.930 . S
H913 C941 0.929 . S
H914 C943 0.930 . S
H915 C920 0.930 . S
H916 C924 0.930 . S
O917 Co886 2.037 . S
O917 C937 1.234 . S
C918 O892 1.269 . S
C918 O893 1.257 . S
C919 H894 0.930 . S
C919 C922 1.388 . S
C919 C924 1.418 . S
C920 H915 0.930 . S
C920 C923 1.404 . S
C920 C924 1.353 . S
N921 Co886 2.145 . S
N921 C922 1.397 . S
N921 C923 1.334 . S
C922 H903 0.929 . S
C922 C919 1.388 . S
C922 N921 1.397 . S
C923 H904 0.929 . S
C923 C920 1.404 . S
C923 N921 1.334 . S
C924 H916 0.930 . S
C924 C919 1.418 . S
C924 C920 1.353 . S
C925 H895 0.930 . S
C925 N926 1.330 . S
C925 C927 1.446 . S
N926 Co885 2.151 . S
N926 C925 1.330 . S
N926 C930 1.418 . S
C927 H906 0.929 . S
C927 C925 1.446 . S
C927 C928 1.332 . S
C928 H908 0.931 . S
C928 C927 1.332 . S
C928 C929 1.267 . S
C929 H897 0.929 . S
C929 C928 1.267 . S
C929 C930 1.251 . S
C930 H900 0.929 . S
C930 N926 1.418 . S
C930 C929 1.251 . S
C931 H898 0.930 . S
C931 C933 1.406 . S
C931 C936 1.261 . S
C932 H899 0.930 . S
C932 N934 1.325 . S
C932 C935 1.357 . S
C933 H901 0.928 . S
C933 C931 1.406 . S
C933 N934 1.261 . S
N934 Co885 2.214 . S
N934 C932 1.325 . S
N934 C933 1.261 . S
C935 H905 0.931 . S
C935 C932 1.357 . S
C935 C936 1.312 . S
C936 H907 0.930 . S
C936 C931 1.261 . S
C936 C935 1.312 . S
C937 O909 1.214 . S
C937 O917 1.234 . S
C938 H910 0.929 . S
C938 C941 1.391 . S
C938 C943 1.391 . S
C939 H911 0.929 . S
C939 C940 1.390 . S
C939 N942 1.391 . S
C940 H912 0.930 . S
C940 C939 1.390 . S
C940 C941 1.392 . S
C941 H913 0.929 . S
C941 C938 1.391 . S
C941 C940 1.392 . S
N942 Co886 2.257 . S
N942 C939 1.391 . S
N942 C943 1.388 . S
C943 H914 0.930 . S
C943 C938 1.391 . S
C943 N942 1.388 . S
Co944 O946 2.143 . S
Co944 O952 2.074 . S
Co944 O955 2.093 . S
Co944 O968 2.097 . S
Co944 N985 2.151 . S
Co944 N993 2.214 . S
Co945 O946 2.160 . S
Co945 O951 2.058 . S
Co945 O961 2.057 . S
Co945 O976 2.037 . S
Co945 N980 2.145 . S
Co945 N1001 2.257 . S
O946 Co944 2.143 . S
O946 Co945 2.160 . S
C947 O948 1.278 . S
C947 O955 1.224 . S
O948 C947 1.278 . S
C949 O950 1.245 . S
C949 O961 1.232 . S
O950 C949 1.245 . S
O951 Co945 2.058 . S
O951 C977 1.269 . S
O952 Co944 2.074 . S
O952 C977 1.257 . S
H953 C978 0.930 . S
H954 C984 0.930 . S
O955 Co944 2.093 . S
O955 C947 1.224 . S
H956 C988 0.929 . S
H957 C990 0.930 . S
H958 C991 0.930 . S
H959 C989 0.929 . S
H960 C992 0.928 . S
O961 Co945 2.057 . S
O961 C949 1.232 . S
H962 C981 0.929 . S
H963 C982 0.929 . S
H964 C994 0.931 . S
H965 C986 0.929 . S
H966 C995 0.930 . S
H967 C987 0.931 . S
O968 Co944 2.097 . S
O968 C996 1.214 . S
H969 C997 0.929 . S
H970 C998 0.929 . S
H971 C999 0.930 . S
H972 C1000 0.929 . S
H973 C1002 0.930 . S
H974 C979 0.930 . S
H975 C983 0.930 . S
O976 Co945 2.037 . S
O976 C996 1.234 . S
C977 O951 1.269 . S
C977 O952 1.257 . S
C978 H953 0.930 . S
C978 C981 1.388 . S
C978 C983 1.418 . S
C979 H974 0.930 . S
C979 C982 1.404 . S
C979 C983 1.353 . S
N980 Co945 2.145 . S
N980 C981 1.397 . S
N980 C982 1.334 . S
C981 H962 0.929 . S
C981 C978 1.388 . S
C981 N980 1.397 . S
C982 H963 0.929 . S
C982 C979 1.404 . S
C982 N980 1.334 . S
C983 H975 0.930 . S
C983 C978 1.418 . S
C983 C979 1.353 . S
C984 H954 0.930 . S
C984 N985 1.330 . S
C984 C986 1.446 . S
N985 Co944 2.151 . S
N985 C984 1.330 . S
N985 C989 1.418 . S
C986 H965 0.929 . S
C986 C984 1.446 . S
C986 C987 1.332 . S
C987 H967 0.931 . S
C987 C986 1.332 . S
C987 C988 1.267 . S
C988 H956 0.929 . S
C988 C987 1.267 . S
C988 C989 1.251 . S
C989 H959 0.929 . S
C989 N985 1.418 . S
C989 C988 1.251 . S
C990 H957 0.930 . S
C990 C992 1.406 . S
C990 C995 1.261 . S
C991 H958 0.930 . S
C991 N993 1.325 . S
C991 C994 1.357 . S
C992 H960 0.928 . S
C992 C990 1.406 . S
C992 N993 1.261 . S
N993 Co944 2.214 . S
N993 C991 1.325 . S
N993 C992 1.261 . S
C994 H964 0.931 . S
C994 C991 1.357 . S
C994 C995 1.312 . S
C995 H966 0.930 . S
C995 C990 1.261 . S
C995 C994 1.312 . S
C996 O968 1.214 . S
C996 O976 1.234 . S
C997 H969 0.929 . S
C997 C1000 1.391 . S
C997 C1002 1.391 . S
C998 H970 0.929 . S
C998 C999 1.390 . S
C998 N1001 1.391 . S
C999 H971 0.930 . S
C999 C998 1.390 . S
C999 C1000 1.392 . S
C1000 H972 0.929 . S
C1000 C997 1.391 . S
C1000 C999 1.392 . S
N1001 Co945 2.257 . S
N1001 C998 1.391 . S
N1001 C1002 1.388 . S
C1002 H973 0.930 . S
C1002 C997 1.391 . S
C1002 N1001 1.388 . S
Co1003 O1005 2.143 . S
Co1003 O1011 2.074 . S
Co1003 O1014 2.093 . S
Co1003 O1027 2.097 . S
Co1003 N1044 2.151 . S
Co1003 N1052 2.214 . S
Co1004 O1005 2.160 . S
Co1004 O1010 2.058 . S
Co1004 O1020 2.057 . S
Co1004 O1035 2.037 . S
Co1004 N1039 2.145 . S
Co1004 N1060 2.257 . S
O1005 Co1003 2.143 . S
O1005 Co1004 2.160 . S
C1006 O1007 1.278 . S
C1006 O1014 1.224 . S
O1007 C1006 1.278 . S
C1008 O1009 1.245 . S
C1008 O1020 1.232 . S
O1009 C1008 1.245 . S
O1010 Co1004 2.058 . S
O1010 C1036 1.269 . S
O1011 Co1003 2.074 . S
O1011 C1036 1.257 . S
H1012 C1037 0.930 . S
H1013 C1043 0.930 . S
O1014 Co1003 2.093 . S
O1014 C1006 1.224 . S
H1015 C1047 0.929 . S
H1016 C1049 0.930 . S
H1017 C1050 0.930 . S
H1018 C1048 0.929 . S
H1019 C1051 0.928 . S
O1020 Co1004 2.057 . S
O1020 C1008 1.232 . S
H1021 C1040 0.929 . S
H1022 C1041 0.929 . S
H1023 C1053 0.931 . S
H1024 C1045 0.929 . S
H1025 C1054 0.930 . S
H1026 C1046 0.931 . S
O1027 Co1003 2.097 . S
O1027 C1055 1.214 . S
H1028 C1056 0.929 . S
H1029 C1057 0.929 . S
H1030 C1058 0.930 . S
H1031 C1059 0.929 . S
H1032 C1061 0.930 . S
H1033 C1038 0.930 . S
H1034 C1042 0.930 . S
O1035 Co1004 2.037 . S
O1035 C1055 1.234 . S
C1036 O1010 1.269 . S
C1036 O1011 1.257 . S
C1037 H1012 0.930 . S
C1037 C1040 1.388 . S
C1037 C1042 1.418 . S
C1038 H1033 0.930 . S
C1038 C1041 1.404 . S
C1038 C1042 1.353 . S
N1039 Co1004 2.145 . S
N1039 C1040 1.397 . S
N1039 C1041 1.334 . S
C1040 H1021 0.929 . S
C1040 C1037 1.388 . S
C1040 N1039 1.397 . S
C1041 H1022 0.929 . S
C1041 C1038 1.404 . S
C1041 N1039 1.334 . S
C1042 H1034 0.930 . S
C1042 C1037 1.418 . S
C1042 C1038 1.353 . S
C1043 H1013 0.930 . S
C1043 N1044 1.330 . S
C1043 C1045 1.446 . S
N1044 Co1003 2.151 . S
N1044 C1043 1.330 . S
N1044 C1048 1.418 . S
C1045 H1024 0.929 . S
C1045 C1043 1.446 . S
C1045 C1046 1.332 . S
C1046 H1026 0.931 . S
C1046 C1045 1.332 . S
C1046 C1047 1.267 . S
C1047 H1015 0.929 . S
C1047 C1046 1.267 . S
C1047 C1048 1.251 . S
C1048 H1018 0.929 . S
C1048 N1044 1.418 . S
C1048 C1047 1.251 . S
C1049 H1016 0.930 . S
C1049 C1051 1.406 . S
C1049 C1054 1.261 . S
C1050 H1017 0.930 . S
C1050 N1052 1.325 . S
C1050 C1053 1.357 . S
C1051 H1019 0.928 . S
C1051 C1049 1.406 . S
C1051 N1052 1.261 . S
N1052 Co1003 2.214 . S
N1052 C1050 1.325 . S
N1052 C1051 1.261 . S
C1053 H1023 0.931 . S
C1053 C1050 1.357 . S
C1053 C1054 1.312 . S
C1054 H1025 0.930 . S
C1054 C1049 1.261 . S
C1054 C1053 1.312 . S
C1055 O1027 1.214 . S
C1055 O1035 1.234 . S
C1056 H1028 0.929 . S
C1056 C1059 1.391 . S
C1056 C1061 1.391 . S
C1057 H1029 0.929 . S
C1057 C1058 1.390 . S
C1057 N1060 1.391 . S
C1058 H1030 0.930 . S
C1058 C1057 1.390 . S
C1058 C1059 1.392 . S
C1059 H1031 0.929 . S
C1059 C1056 1.391 . S
C1059 C1058 1.392 . S
N1060 Co1004 2.257 . S
N1060 C1057 1.391 . S
N1060 C1061 1.388 . S
C1061 H1032 0.930 . S
C1061 C1056 1.391 . S
C1061 N1060 1.388 . S
Co1062 O1064 2.143 . S
Co1062 O1070 2.074 . S
Co1062 O1073 2.093 . S
Co1062 O1086 2.097 . S
Co1062 N1103 2.151 . S
Co1062 N1111 2.214 . S
Co1063 O1064 2.160 . S
Co1063 O1069 2.058 . S
Co1063 O1079 2.057 . S
Co1063 O1094 2.037 . S
Co1063 N1098 2.145 . S
Co1063 N1119 2.257 . S
O1064 Co1062 2.143 . S
O1064 Co1063 2.160 . S
C1065 O1066 1.278 . S
C1065 O1073 1.224 . S
O1066 C1065 1.278 . S
C1067 O1068 1.245 . S
C1067 O1079 1.232 . S
O1068 C1067 1.245 . S
O1069 Co1063 2.058 . S
O1069 C1095 1.269 . S
O1070 Co1062 2.074 . S
O1070 C1095 1.257 . S
H1071 C1096 0.930 . S
H1072 C1102 0.930 . S
O1073 Co1062 2.093 . S
O1073 C1065 1.224 . S
H1074 C1106 0.929 . S
H1075 C1108 0.930 . S
H1076 C1109 0.930 . S
H1077 C1107 0.929 . S
H1078 C1110 0.928 . S
O1079 Co1063 2.057 . S
O1079 C1067 1.232 . S
H1080 C1099 0.929 . S
H1081 C1100 0.929 . S
H1082 C1112 0.931 . S
H1083 C1104 0.929 . S
H1084 C1113 0.930 . S
H1085 C1105 0.931 . S
O1086 Co1062 2.097 . S
O1086 C1114 1.214 . S
H1087 C1115 0.929 . S
H1088 C1116 0.929 . S
H1089 C1117 0.930 . S
H1090 C1118 0.929 . S
H1091 C1120 0.930 . S
H1092 C1097 0.930 . S
H1093 C1101 0.930 . S
O1094 Co1063 2.037 . S
O1094 C1114 1.234 . S
C1095 O1069 1.269 . S
C1095 O1070 1.257 . S
C1096 H1071 0.930 . S
C1096 C1099 1.388 . S
C1096 C1101 1.418 . S
C1097 H1092 0.930 . S
C1097 C1100 1.404 . S
C1097 C1101 1.353 . S
N1098 Co1063 2.145 . S
N1098 C1099 1.397 . S
N1098 C1100 1.334 . S
C1099 H1080 0.929 . S
C1099 C1096 1.388 . S
C1099 N1098 1.397 . S
C1100 H1081 0.929 . S
C1100 C1097 1.404 . S
C1100 N1098 1.334 . S
C1101 H1093 0.930 . S
C1101 C1096 1.418 . S
C1101 C1097 1.353 . S
C1102 H1072 0.930 . S
C1102 N1103 1.330 . S
C1102 C1104 1.446 . S
N1103 Co1062 2.151 . S
N1103 C1102 1.330 . S
N1103 C1107 1.418 . S
C1104 H1083 0.929 . S
C1104 C1102 1.446 . S
C1104 C1105 1.332 . S
C1105 H1085 0.931 . S
C1105 C1104 1.332 . S
C1105 C1106 1.267 . S
C1106 H1074 0.929 . S
C1106 C1105 1.267 . S
C1106 C1107 1.251 . S
C1107 H1077 0.929 . S
C1107 N1103 1.418 . S
C1107 C1106 1.251 . S
C1108 H1075 0.930 . S
C1108 C1110 1.406 . S
C1108 C1113 1.261 . S
C1109 H1076 0.930 . S
C1109 N1111 1.325 . S
C1109 C1112 1.357 . S
C1110 H1078 0.928 . S
C1110 C1108 1.406 . S
C1110 N1111 1.261 . S
N1111 Co1062 2.214 . S
N1111 C1109 1.325 . S
N1111 C1110 1.261 . S
C1112 H1082 0.931 . S
C1112 C1109 1.357 . S
C1112 C1113 1.312 . S
C1113 H1084 0.930 . S
C1113 C1108 1.261 . S
C1113 C1112 1.312 . S
C1114 O1086 1.214 . S
C1114 O1094 1.234 . S
C1115 H1087 0.929 . S
C1115 C1118 1.391 . S
C1115 C1120 1.391 . S
C1116 H1088 0.929 . S
C1116 C1117 1.390 . S
C1116 N1119 1.391 . S
C1117 H1089 0.930 . S
C1117 C1116 1.390 . S
C1117 C1118 1.392 . S
C1118 H1090 0.929 . S
C1118 C1115 1.391 . S
C1118 C1117 1.392 . S
N1119 Co1063 2.257 . S
N1119 C1116 1.391 . S
N1119 C1120 1.388 . S
C1120 H1091 0.930 . S
C1120 C1115 1.391 . S
C1120 N1119 1.388 . S
Co1121 O1123 2.143 . S
Co1121 O1129 2.074 . S
Co1121 O1132 2.093 . S
Co1121 O1145 2.097 . S
Co1121 N1162 2.151 . S
Co1121 N1170 2.214 . S
Co1122 O1123 2.160 . S
Co1122 O1128 2.058 . S
Co1122 O1138 2.057 . S
Co1122 O1153 2.037 . S
Co1122 N1157 2.145 . S
Co1122 N1178 2.257 . S
O1123 Co1121 2.143 . S
O1123 Co1122 2.160 . S
C1124 O1125 1.278 . S
C1124 O1132 1.224 . S
O1125 C1124 1.278 . S
C1126 O1127 1.245 . S
C1126 O1138 1.232 . S
O1127 C1126 1.245 . S
O1128 Co1122 2.058 . S
O1128 C1154 1.269 . S
O1129 Co1121 2.074 . S
O1129 C1154 1.257 . S
H1130 C1155 0.930 . S
H1131 C1161 0.930 . S
O1132 Co1121 2.093 . S
O1132 C1124 1.224 . S
H1133 C1165 0.929 . S
H1134 C1167 0.930 . S
H1135 C1168 0.930 . S
H1136 C1166 0.929 . S
H1137 C1169 0.928 . S
O1138 Co1122 2.057 . S
O1138 C1126 1.232 . S
H1139 C1158 0.929 . S
H1140 C1159 0.929 . S
H1141 C1171 0.931 . S
H1142 C1163 0.929 . S
H1143 C1172 0.930 . S
H1144 C1164 0.931 . S
O1145 Co1121 2.097 . S
O1145 C1173 1.214 . S
H1146 C1174 0.929 . S
H1147 C1175 0.929 . S
H1148 C1176 0.930 . S
H1149 C1177 0.929 . S
H1150 C1179 0.930 . S
H1151 C1156 0.930 . S
H1152 C1160 0.930 . S
O1153 Co1122 2.037 . S
O1153 C1173 1.234 . S
C1154 O1128 1.269 . S
C1154 O1129 1.257 . S
C1155 H1130 0.930 . S
C1155 C1158 1.388 . S
C1155 C1160 1.418 . S
C1156 H1151 0.930 . S
C1156 C1159 1.404 . S
C1156 C1160 1.353 . S
N1157 Co1122 2.145 . S
N1157 C1158 1.397 . S
N1157 C1159 1.334 . S
C1158 H1139 0.929 . S
C1158 C1155 1.388 . S
C1158 N1157 1.397 . S
C1159 H1140 0.929 . S
C1159 C1156 1.404 . S
C1159 N1157 1.334 . S
C1160 H1152 0.930 . S
C1160 C1155 1.418 . S
C1160 C1156 1.353 . S
C1161 H1131 0.930 . S
C1161 N1162 1.330 . S
C1161 C1163 1.446 . S
N1162 Co1121 2.151 . S
N1162 C1161 1.330 . S
N1162 C1166 1.418 . S
C1163 H1142 0.929 . S
C1163 C1161 1.446 . S
C1163 C1164 1.332 . S
C1164 H1144 0.931 . S
C1164 C1163 1.332 . S
C1164 C1165 1.267 . S
C1165 H1133 0.929 . S
C1165 C1164 1.267 . S
C1165 C1166 1.251 . S
C1166 H1136 0.929 . S
C1166 N1162 1.418 . S
C1166 C1165 1.251 . S
C1167 H1134 0.930 . S
C1167 C1169 1.406 . S
C1167 C1172 1.261 . S
C1168 H1135 0.930 . S
C1168 N1170 1.325 . S
C1168 C1171 1.357 . S
C1169 H1137 0.928 . S
C1169 C1167 1.406 . S
C1169 N1170 1.261 . S
N1170 Co1121 2.214 . S
N1170 C1168 1.325 . S
N1170 C1169 1.261 . S
C1171 H1141 0.931 . S
C1171 C1168 1.357 . S
C1171 C1172 1.312 . S
C1172 H1143 0.930 . S
C1172 C1167 1.261 . S
C1172 C1171 1.312 . S
C1173 O1145 1.214 . S
C1173 O1153 1.234 . S
C1174 H1146 0.929 . S
C1174 C1177 1.391 . S
C1174 C1179 1.391 . S
C1175 H1147 0.929 . S
C1175 C1176 1.390 . S
C1175 N1178 1.391 . S
C1176 H1148 0.930 . S
C1176 C1175 1.390 . S
C1176 C1177 1.392 . S
C1177 H1149 0.929 . S
C1177 C1174 1.391 . S
C1177 C1176 1.392 . S
N1178 Co1122 2.257 . S
N1178 C1175 1.391 . S
N1178 C1179 1.388 . S
C1179 H1150 0.930 . S
C1179 C1174 1.391 . S
C1179 N1178 1.388 . S
Co1180 O1182 2.143 . S
Co1180 O1188 2.074 . S
Co1180 O1191 2.093 . S
Co1180 O1204 2.097 . S
Co1180 N1221 2.151 . S
Co1180 N1229 2.214 . S
Co1181 O1182 2.160 . S
Co1181 O1187 2.058 . S
Co1181 O1197 2.057 . S
Co1181 O1212 2.037 . S
Co1181 N1216 2.145 . S
Co1181 N1237 2.257 . S
O1182 Co1180 2.143 . S
O1182 Co1181 2.160 . S
C1183 O1184 1.278 . S
C1183 O1191 1.224 . S
O1184 C1183 1.278 . S
C1185 O1186 1.245 . S
C1185 O1197 1.232 . S
O1186 C1185 1.245 . S
O1187 Co1181 2.058 . S
O1187 C1213 1.269 . S
O1188 Co1180 2.074 . S
O1188 C1213 1.257 . S
H1189 C1214 0.930 . S
H1190 C1220 0.930 . S
O1191 Co1180 2.093 . S
O1191 C1183 1.224 . S
H1192 C1224 0.929 . S
H1193 C1226 0.930 . S
H1194 C1227 0.930 . S
H1195 C1225 0.929 . S
H1196 C1228 0.928 . S
O1197 Co1181 2.057 . S
O1197 C1185 1.232 . S
H1198 C1217 0.929 . S
H1199 C1218 0.929 . S
H1200 C1230 0.931 . S
H1201 C1222 0.929 . S
H1202 C1231 0.930 . S
H1203 C1223 0.931 . S
O1204 Co1180 2.097 . S
O1204 C1232 1.214 . S
H1205 C1233 0.929 . S
H1206 C1234 0.929 . S
H1207 C1235 0.930 . S
H1208 C1236 0.929 . S
H1209 C1238 0.930 . S
H1210 C1215 0.930 . S
H1211 C1219 0.930 . S
O1212 Co1181 2.037 . S
O1212 C1232 1.234 . S
C1213 O1187 1.269 . S
C1213 O1188 1.257 . S
C1214 H1189 0.930 . S
C1214 C1217 1.388 . S
C1214 C1219 1.418 . S
C1215 H1210 0.930 . S
C1215 C1218 1.404 . S
C1215 C1219 1.353 . S
N1216 Co1181 2.145 . S
N1216 C1217 1.397 . S
N1216 C1218 1.334 . S
C1217 H1198 0.929 . S
C1217 C1214 1.388 . S
C1217 N1216 1.397 . S
C1218 H1199 0.929 . S
C1218 C1215 1.404 . S
C1218 N1216 1.334 . S
C1219 H1211 0.930 . S
C1219 C1214 1.418 . S
C1219 C1215 1.353 . S
C1220 H1190 0.930 . S
C1220 N1221 1.330 . S
C1220 C1222 1.446 . S
N1221 Co1180 2.151 . S
N1221 C1220 1.330 . S
N1221 C1225 1.418 . S
C1222 H1201 0.929 . S
C1222 C1220 1.446 . S
C1222 C1223 1.332 . S
C1223 H1203 0.931 . S
C1223 C1222 1.332 . S
C1223 C1224 1.267 . S
C1224 H1192 0.929 . S
C1224 C1223 1.267 . S
C1224 C1225 1.251 . S
C1225 H1195 0.929 . S
C1225 N1221 1.418 . S
C1225 C1224 1.251 . S
C1226 H1193 0.930 . S
C1226 C1228 1.406 . S
C1226 C1231 1.261 . S
C1227 H1194 0.930 . S
C1227 N1229 1.325 . S
C1227 C1230 1.357 . S
C1228 H1196 0.928 . S
C1228 C1226 1.406 . S
C1228 N1229 1.261 . S
N1229 Co1180 2.214 . S
N1229 C1227 1.325 . S
N1229 C1228 1.261 . S
C1230 H1200 0.931 . S
C1230 C1227 1.357 . S
C1230 C1231 1.312 . S
C1231 H1202 0.930 . S
C1231 C1226 1.261 . S
C1231 C1230 1.312 . S
C1232 O1204 1.214 . S
C1232 O1212 1.234 . S
C1233 H1205 0.929 . S
C1233 C1236 1.391 . S
C1233 C1238 1.391 . S
C1234 H1206 0.929 . S
C1234 C1235 1.390 . S
C1234 N1237 1.391 . S
C1235 H1207 0.930 . S
C1235 C1234 1.390 . S
C1235 C1236 1.392 . S
C1236 H1208 0.929 . S
C1236 C1233 1.391 . S
C1236 C1235 1.392 . S
N1237 Co1181 2.257 . S
N1237 C1234 1.391 . S
N1237 C1238 1.388 . S
C1238 H1209 0.930 . S
C1238 C1233 1.391 . S
C1238 N1237 1.388 . S
Co1239 O1241 2.143 . S
Co1239 O1247 2.074 . S
Co1239 O1250 2.093 . S
Co1239 O1263 2.097 . S
Co1239 N1280 2.151 . S
Co1239 N1288 2.214 . S
Co1240 O1241 2.160 . S
Co1240 O1246 2.058 . S
Co1240 O1256 2.057 . S
Co1240 O1271 2.037 . S
Co1240 N1275 2.145 . S
Co1240 N1296 2.257 . S
O1241 Co1239 2.143 . S
O1241 Co1240 2.160 . S
C1242 O1243 1.278 . S
C1242 O1250 1.224 . S
O1243 C1242 1.278 . S
C1244 O1245 1.245 . S
C1244 O1256 1.232 . S
O1245 C1244 1.245 . S
O1246 Co1240 2.058 . S
O1246 C1272 1.269 . S
O1247 Co1239 2.074 . S
O1247 C1272 1.257 . S
H1248 C1273 0.930 . S
H1249 C1279 0.930 . S
O1250 Co1239 2.093 . S
O1250 C1242 1.224 . S
H1251 C1283 0.929 . S
H1252 C1285 0.930 . S
H1253 C1286 0.930 . S
H1254 C1284 0.929 . S
H1255 C1287 0.928 . S
O1256 Co1240 2.057 . S
O1256 C1244 1.232 . S
H1257 C1276 0.929 . S
H1258 C1277 0.929 . S
H1259 C1289 0.931 . S
H1260 C1281 0.929 . S
H1261 C1290 0.930 . S
H1262 C1282 0.931 . S
O1263 Co1239 2.097 . S
O1263 C1291 1.214 . S
H1264 C1292 0.929 . S
H1265 C1293 0.929 . S
H1266 C1294 0.930 . S
H1267 C1295 0.929 . S
H1268 C1297 0.930 . S
H1269 C1274 0.930 . S
H1270 C1278 0.930 . S
O1271 Co1240 2.037 . S
O1271 C1291 1.234 . S
C1272 O1246 1.269 . S
C1272 O1247 1.257 . S
C1273 H1248 0.930 . S
C1273 C1276 1.388 . S
C1273 C1278 1.418 . S
C1274 H1269 0.930 . S
C1274 C1277 1.404 . S
C1274 C1278 1.353 . S
N1275 Co1240 2.145 . S
N1275 C1276 1.397 . S
N1275 C1277 1.334 . S
C1276 H1257 0.929 . S
C1276 C1273 1.388 . S
C1276 N1275 1.397 . S
C1277 H1258 0.929 . S
C1277 C1274 1.404 . S
C1277 N1275 1.334 . S
C1278 H1270 0.930 . S
C1278 C1273 1.418 . S
C1278 C1274 1.353 . S
C1279 H1249 0.930 . S
C1279 N1280 1.330 . S
C1279 C1281 1.446 . S
N1280 Co1239 2.151 . S
N1280 C1279 1.330 . S
N1280 C1284 1.418 . S
C1281 H1260 0.929 . S
C1281 C1279 1.446 . S
C1281 C1282 1.332 . S
C1282 H1262 0.931 . S
C1282 C1281 1.332 . S
C1282 C1283 1.267 . S
C1283 H1251 0.929 . S
C1283 C1282 1.267 . S
C1283 C1284 1.251 . S
C1284 H1254 0.929 . S
C1284 N1280 1.418 . S
C1284 C1283 1.251 . S
C1285 H1252 0.930 . S
C1285 C1287 1.406 . S
C1285 C1290 1.261 . S
C1286 H1253 0.930 . S
C1286 N1288 1.325 . S
C1286 C1289 1.357 . S
C1287 H1255 0.928 . S
C1287 C1285 1.406 . S
C1287 N1288 1.261 . S
N1288 Co1239 2.214 . S
N1288 C1286 1.325 . S
N1288 C1287 1.261 . S
C1289 H1259 0.931 . S
C1289 C1286 1.357 . S
C1289 C1290 1.312 . S
C1290 H1261 0.930 . S
C1290 C1285 1.261 . S
C1290 C1289 1.312 . S
C1291 O1263 1.214 . S
C1291 O1271 1.234 . S
C1292 H1264 0.929 . S
C1292 C1295 1.391 . S
C1292 C1297 1.391 . S
C1293 H1265 0.929 . S
C1293 C1294 1.390 . S
C1293 N1296 1.391 . S
C1294 H1266 0.930 . S
C1294 C1293 1.390 . S
C1294 C1295 1.392 . S
C1295 H1267 0.929 . S
C1295 C1292 1.391 . S
C1295 C1294 1.392 . S
N1296 Co1240 2.257 . S
N1296 C1293 1.391 . S
N1296 C1297 1.388 . S
C1297 H1268 0.930 . S
C1297 C1292 1.391 . S
C1297 N1296 1.388 . S
Co1298 O1300 2.143 . S
Co1298 O1306 2.074 . S
Co1298 O1309 2.093 . S
Co1298 O1322 2.097 . S
Co1298 N1339 2.151 . S
Co1298 N1347 2.214 . S
Co1299 O1300 2.160 . S
Co1299 O1305 2.058 . S
Co1299 O1315 2.057 . S
Co1299 O1330 2.037 . S
Co1299 N1334 2.145 . S
Co1299 N1355 2.257 . S
O1300 Co1298 2.143 . S
O1300 Co1299 2.160 . S
C1301 O1302 1.278 . S
C1301 O1309 1.224 . S
O1302 C1301 1.278 . S
C1303 O1304 1.245 . S
C1303 O1315 1.232 . S
O1304 C1303 1.245 . S
O1305 Co1299 2.058 . S
O1305 C1331 1.269 . S
O1306 Co1298 2.074 . S
O1306 C1331 1.257 . S
H1307 C1332 0.930 . S
H1308 C1338 0.930 . S
O1309 Co1298 2.093 . S
O1309 C1301 1.224 . S
H1310 C1342 0.929 . S
H1311 C1344 0.930 . S
H1312 C1345 0.930 . S
H1313 C1343 0.929 . S
H1314 C1346 0.928 . S
O1315 Co1299 2.057 . S
O1315 C1303 1.232 . S
H1316 C1335 0.929 . S
H1317 C1336 0.929 . S
H1318 C1348 0.931 . S
H1319 C1340 0.929 . S
H1320 C1349 0.930 . S
H1321 C1341 0.931 . S
O1322 Co1298 2.097 . S
O1322 C1350 1.214 . S
H1323 C1351 0.929 . S
H1324 C1352 0.929 . S
H1325 C1353 0.930 . S
H1326 C1354 0.929 . S
H1327 C1356 0.930 . S
H1328 C1333 0.930 . S
H1329 C1337 0.930 . S
O1330 Co1299 2.037 . S
O1330 C1350 1.234 . S
C1331 O1305 1.269 . S
C1331 O1306 1.257 . S
C1332 H1307 0.930 . S
C1332 C1335 1.388 . S
C1332 C1337 1.418 . S
C1333 H1328 0.930 . S
C1333 C1336 1.404 . S
C1333 C1337 1.353 . S
N1334 Co1299 2.145 . S
N1334 C1335 1.397 . S
N1334 C1336 1.334 . S
C1335 H1316 0.929 . S
C1335 C1332 1.388 . S
C1335 N1334 1.397 . S
C1336 H1317 0.929 . S
C1336 C1333 1.404 . S
C1336 N1334 1.334 . S
C1337 H1329 0.930 . S
C1337 C1332 1.418 . S
C1337 C1333 1.353 . S
C1338 H1308 0.930 . S
C1338 N1339 1.330 . S
C1338 C1340 1.446 . S
N1339 Co1298 2.151 . S
N1339 C1338 1.330 . S
N1339 C1343 1.418 . S
C1340 H1319 0.929 . S
C1340 C1338 1.446 . S
C1340 C1341 1.332 . S
C1341 H1321 0.931 . S
C1341 C1340 1.332 . S
C1341 C1342 1.267 . S
C1342 H1310 0.929 . S
C1342 C1341 1.267 . S
C1342 C1343 1.251 . S
C1343 H1313 0.929 . S
C1343 N1339 1.418 . S
C1343 C1342 1.251 . S
C1344 H1311 0.930 . S
C1344 C1346 1.406 . S
C1344 C1349 1.261 . S
C1345 H1312 0.930 . S
C1345 N1347 1.325 . S
C1345 C1348 1.357 . S
C1346 H1314 0.928 . S
C1346 C1344 1.406 . S
C1346 N1347 1.261 . S
N1347 Co1298 2.214 . S
N1347 C1345 1.325 . S
N1347 C1346 1.261 . S
C1348 H1318 0.931 . S
C1348 C1345 1.357 . S
C1348 C1349 1.312 . S
C1349 H1320 0.930 . S
C1349 C1344 1.261 . S
C1349 C1348 1.312 . S
C1350 O1322 1.214 . S
C1350 O1330 1.234 . S
C1351 H1323 0.929 . S
C1351 C1354 1.391 . S
C1351 C1356 1.391 . S
C1352 H1324 0.929 . S
C1352 C1353 1.390 . S
C1352 N1355 1.391 . S
C1353 H1325 0.930 . S
C1353 C1352 1.390 . S
C1353 C1354 1.392 . S
C1354 H1326 0.929 . S
C1354 C1351 1.391 . S
C1354 C1353 1.392 . S
N1355 Co1299 2.257 . S
N1355 C1352 1.391 . S
N1355 C1356 1.388 . S
C1356 H1327 0.930 . S
C1356 C1351 1.391 . S
C1356 N1355 1.388 . S
Co1357 O1359 2.143 . S
Co1357 O1365 2.074 . S
Co1357 O1368 2.093 . S
Co1357 O1381 2.097 . S
Co1357 N1398 2.151 . S
Co1357 N1406 2.214 . S
Co1358 O1359 2.160 . S
Co1358 O1364 2.058 . S
Co1358 O1374 2.057 . S
Co1358 O1389 2.037 . S
Co1358 N1393 2.145 . S
Co1358 N1414 2.257 . S
O1359 Co1357 2.143 . S
O1359 Co1358 2.160 . S
C1360 O1361 1.278 . S
C1360 O1368 1.224 . S
O1361 C1360 1.278 . S
C1362 O1363 1.245 . S
C1362 O1374 1.232 . S
O1363 C1362 1.245 . S
O1364 Co1358 2.058 . S
O1364 C1390 1.269 . S
O1365 Co1357 2.074 . S
O1365 C1390 1.257 . S
H1366 C1391 0.930 . S
H1367 C1397 0.930 . S
O1368 Co1357 2.093 . S
O1368 C1360 1.224 . S
H1369 C1401 0.929 . S
H1370 C1403 0.930 . S
H1371 C1404 0.930 . S
H1372 C1402 0.929 . S
H1373 C1405 0.928 . S
O1374 Co1358 2.057 . S
O1374 C1362 1.232 . S
H1375 C1394 0.929 . S
H1376 C1395 0.929 . S
H1377 C1407 0.931 . S
H1378 C1399 0.929 . S
H1379 C1408 0.930 . S
H1380 C1400 0.931 . S
O1381 Co1357 2.097 . S
O1381 C1409 1.214 . S
H1382 C1410 0.929 . S
H1383 C1411 0.929 . S
H1384 C1412 0.930 . S
H1385 C1413 0.929 . S
H1386 C1415 0.930 . S
H1387 C1392 0.930 . S
H1388 C1396 0.930 . S
O1389 Co1358 2.037 . S
O1389 C1409 1.234 . S
C1390 O1364 1.269 . S
C1390 O1365 1.257 . S
C1391 H1366 0.930 . S
C1391 C1394 1.388 . S
C1391 C1396 1.418 . S
C1392 H1387 0.930 . S
C1392 C1395 1.404 . S
C1392 C1396 1.353 . S
N1393 Co1358 2.145 . S
N1393 C1394 1.397 . S
N1393 C1395 1.334 . S
C1394 H1375 0.929 . S
C1394 C1391 1.388 . S
C1394 N1393 1.397 . S
C1395 H1376 0.929 . S
C1395 C1392 1.404 . S
C1395 N1393 1.334 . S
C1396 H1388 0.930 . S
C1396 C1391 1.418 . S
C1396 C1392 1.353 . S
C1397 H1367 0.930 . S
C1397 N1398 1.330 . S
C1397 C1399 1.446 . S
N1398 Co1357 2.151 . S
N1398 C1397 1.330 . S
N1398 C1402 1.418 . S
C1399 H1378 0.929 . S
C1399 C1397 1.446 . S
C1399 C1400 1.332 . S
C1400 H1380 0.931 . S
C1400 C1399 1.332 . S
C1400 C1401 1.267 . S
C1401 H1369 0.929 . S
C1401 C1400 1.267 . S
C1401 C1402 1.251 . S
C1402 H1372 0.929 . S
C1402 N1398 1.418 . S
C1402 C1401 1.251 . S
C1403 H1370 0.930 . S
C1403 C1405 1.406 . S
C1403 C1408 1.261 . S
C1404 H1371 0.930 . S
C1404 N1406 1.325 . S
C1404 C1407 1.357 . S
C1405 H1373 0.928 . S
C1405 C1403 1.406 . S
C1405 N1406 1.261 . S
N1406 Co1357 2.214 . S
N1406 C1404 1.325 . S
N1406 C1405 1.261 . S
C1407 H1377 0.931 . S
C1407 C1404 1.357 . S
C1407 C1408 1.312 . S
C1408 H1379 0.930 . S
C1408 C1403 1.261 . S
C1408 C1407 1.312 . S
C1409 O1381 1.214 . S
C1409 O1389 1.234 . S
C1410 H1382 0.929 . S
C1410 C1413 1.391 . S
C1410 C1415 1.391 . S
C1411 H1383 0.929 . S
C1411 C1412 1.390 . S
C1411 N1414 1.391 . S
C1412 H1384 0.930 . S
C1412 C1411 1.390 . S
C1412 C1413 1.392 . S
C1413 H1385 0.929 . S
C1413 C1410 1.391 . S
C1413 C1412 1.392 . S
N1414 Co1358 2.257 . S
N1414 C1411 1.391 . S
N1414 C1415 1.388 . S
C1415 H1386 0.930 . S
C1415 C1410 1.391 . S
C1415 N1414 1.388 . S
C1416 C1417 1.369 . S
C1416 C1418 1.419 . S
C1416 H1420 0.930 . S
C1417 C1416 1.369 . S
C1417 C1426 1.429 . S
C1418 C1416 1.419 . S
C1418 C1419 1.363 . S
C1418 H1421 0.929 . S
C1419 C1418 1.363 . S
C1419 C1425 1.428 . S
H1420 C1416 0.930 . S
H1421 C1418 0.929 . S
S1422 N1423 1.613 . S
S1422 N1424 1.610 . S
N1423 S1422 1.613 . S
N1423 C1426 1.350 . S
N1424 S1422 1.610 . S
N1424 C1425 1.351 . S
C1425 C1419 1.428 . S
C1425 N1424 1.351 . S
C1425 C1426 1.434 . S
C1426 C1417 1.429 . S
C1426 N1423 1.350 . S
C1426 C1425 1.434 . S
C1427 C1428 1.369 . S
C1427 C1429 1.419 1_655 S
C1427 H1431 0.930 . S
C1428 C1427 1.369 . S
C1428 C1437 1.429 . S
C1429 C1427 1.419 1_455 S
C1429 C1430 1.363 . S
C1429 H1432 0.929 . S
C1430 C1429 1.363 . S
C1430 C1436 1.428 . S
H1431 C1427 0.930 . S
H1432 C1429 0.929 . S
S1433 N1434 1.616 1_455 S
S1433 N1435 1.607 . S
N1434 S1433 1.616 1_655 S
N1434 C1437 1.350 . S
N1435 S1433 1.607 . S
N1435 C1436 1.351 . S
C1436 C1430 1.428 . S
C1436 N1435 1.351 . S
C1436 C1437 1.434 1_455 S
C1437 C1428 1.429 . S
C1437 N1434 1.350 . S
C1437 C1436 1.434 1_655 S
C1438 C1439 1.369 . S
C1438 C1440 1.419 . S
C1438 H1442 0.930 . S
C1439 C1438 1.369 . S
C1439 C1448 1.429 . S
C1440 C1438 1.419 . S
C1440 C1441 1.363 . S
C1440 H1443 0.929 . S
C1441 C1440 1.363 . S
C1441 C1447 1.428 . S
H1442 C1438 0.930 . S
H1443 C1440 0.929 . S
S1444 N1445 1.613 . S
S1444 N1446 1.610 . S
N1445 S1444 1.613 . S
N1445 C1448 1.350 . S
N1446 S1444 1.610 . S
N1446 C1447 1.351 . S
C1447 C1441 1.428 . S
C1447 N1446 1.351 . S
C1447 C1448 1.434 . S
C1448 C1439 1.429 . S
C1448 N1445 1.350 . S
C1448 C1447 1.434 . S
C1449 C1450 1.369 . S
C1449 C1451 1.419 1_455 S
C1449 H1453 0.930 . S
C1450 C1449 1.369 . S
C1450 C1459 1.429 . S
C1451 C1449 1.419 1_655 S
C1451 C1452 1.363 . S
C1451 H1454 0.929 . S
C1452 C1451 1.363 . S
C1452 C1458 1.428 . S
H1453 C1449 0.930 . S
H1454 C1451 0.929 . S
S1455 N1456 1.609 1_655 S
S1455 N1457 1.614 . S
N1456 S1455 1.609 1_455 S
N1456 C1459 1.350 . S
N1457 S1455 1.614 . S
N1457 C1458 1.351 . S
C1458 C1452 1.428 . S
C1458 N1457 1.351 . S
C1458 C1459 1.434 1_655 S
C1459 C1450 1.429 . S
C1459 N1456 1.350 . S
C1459 C1458 1.434 1_455 S
C1460 C1461 1.369 . S
C1460 C1462 1.419 . S
C1460 H1464 0.930 . S
C1461 C1460 1.369 . S
C1461 C1470 1.429 . S
C1462 C1460 1.419 . S
C1462 C1463 1.363 . S
C1462 H1465 0.929 . S
C1463 C1462 1.363 . S
C1463 C1469 1.428 . S
H1464 C1460 0.930 . S
H1465 C1462 0.929 . S
S1466 N1467 1.613 . S
S1466 N1468 1.610 . S
N1467 S1466 1.613 . S
N1467 C1470 1.350 . S
N1468 S1466 1.610 . S
N1468 C1469 1.351 . S
C1469 C1463 1.428 . S
C1469 N1468 1.351 . S
C1469 C1470 1.434 . S
C1470 C1461 1.429 . S
C1470 N1467 1.350 . S
C1470 C1469 1.434 . S
C1471 C1472 1.369 . S
C1471 C1473 1.419 1_655 S
C1471 H1475 0.930 . S
C1472 C1471 1.369 . S
C1472 C1481 1.429 . S
C1473 C1471 1.419 1_455 S
C1473 C1474 1.363 . S
C1473 H1476 0.929 . S
C1474 C1473 1.363 . S
C1474 C1480 1.428 . S
H1475 C1471 0.930 . S
H1476 C1473 0.929 . S
S1477 N1478 1.602 1_455 S
S1477 N1479 1.622 . S
N1478 S1477 1.602 1_655 S
N1478 C1481 1.350 . S
N1479 S1477 1.622 . S
N1479 C1480 1.351 . S
C1480 C1474 1.428 . S
C1480 N1479 1.351 . S
C1480 C1481 1.434 1_455 S
C1481 C1472 1.429 . S
C1481 N1478 1.350 . S
C1481 C1480 1.434 1_655 S
C1482 C1483 1.369 . S
C1482 C1484 1.419 . S
C1482 H1486 0.930 . S
C1483 C1482 1.369 . S
C1483 C1492 1.429 . S
C1484 C1482 1.419 . S
C1484 C1485 1.363 . S
C1484 H1487 0.929 . S
C1485 C1484 1.363 . S
C1485 C1491 1.428 . S
H1486 C1482 0.930 . S
H1487 C1484 0.929 . S
S1488 N1489 1.613 . S
S1488 N1490 1.610 . S
N1489 S1488 1.613 . S
N1489 C1492 1.350 . S
N1490 S1488 1.610 . S
N1490 C1491 1.351 . S
C1491 C1485 1.428 . S
C1491 N1490 1.351 . S
C1491 C1492 1.434 . S
C1492 C1483 1.429 . S
C1492 N1489 1.350 . S
C1492 C1491 1.434 . S
C1493 C1494 1.369 . S
C1493 C1495 1.419 1_655 S
C1493 H1497 0.930 . S
C1494 C1493 1.369 . S
C1494 C1503 1.429 . S
C1495 C1493 1.419 1_455 S
C1495 C1496 1.363 . S
C1495 H1498 0.929 . S
C1496 C1495 1.363 . S
C1496 C1502 1.428 . S
H1497 C1493 0.930 . S
H1498 C1495 0.929 . S
S1499 N1500 1.613 . S
S1499 N1501 1.610 1_655 S
N1500 S1499 1.613 . S
N1500 C1503 1.350 . S
N1501 S1499 1.610 1_455 S
N1501 C1502 1.351 . S
C1502 C1496 1.428 . S
C1502 N1501 1.351 . S
C1502 C1503 1.434 1_455 S
C1503 C1494 1.429 . S
C1503 N1500 1.350 . S
C1503 C1502 1.434 1_655 S
C1504 C1505 1.369 . S
C1504 C1506 1.419 . S
C1504 H1508 0.930 . S
C1505 C1504 1.369 . S
C1505 C1514 1.429 . S
C1506 C1504 1.419 . S
C1506 C1507 1.363 . S
C1506 H1509 0.929 . S
C1507 C1506 1.363 . S
C1507 C1513 1.428 . S
H1508 C1504 0.930 . S
H1509 C1506 0.929 . S
S1510 N1511 1.613 . S
S1510 N1512 1.610 . S
N1511 S1510 1.613 . S
N1511 C1514 1.350 . S
N1512 S1510 1.610 . S
N1512 C1513 1.351 . S
C1513 C1507 1.428 . S
C1513 N1512 1.351 . S
C1513 C1514 1.434 . S
C1514 C1505 1.429 . S
C1514 N1511 1.350 . S
C1514 C1513 1.434 . S
C1515 C1516 1.369 . S
C1515 C1517 1.419 1_556 S
C1515 H1519 0.930 . S
C1516 C1515 1.369 . S
C1516 C1525 1.429 . S
C1517 C1515 1.419 1_554 S
C1517 C1518 1.363 . S
C1517 H1520 0.929 . S
C1518 C1517 1.363 . S
C1518 C1524 1.428 . S
H1519 C1515 0.930 . S
H1520 C1517 0.929 . S
S1521 N1522 1.614 . S
S1521 N1523 1.609 1_556 S
N1522 S1521 1.614 . S
N1522 C1525 1.350 . S
N1523 S1521 1.609 1_554 S
N1523 C1524 1.351 . S
C1524 C1518 1.428 . S
C1524 N1523 1.351 . S
C1524 C1525 1.434 1_554 S
C1525 C1516 1.429 . S
C1525 N1522 1.350 . S
C1525 C1524 1.434 1_556 S
C1526 C1527 1.369 . S
C1526 C1528 1.419 . S
C1526 H1530 0.930 . S
C1527 C1526 1.369 . S
C1527 C1536 1.429 . S
C1528 C1526 1.419 . S
C1528 C1529 1.363 . S
C1528 H1531 0.929 . S
C1529 C1528 1.363 . S
C1529 C1535 1.428 . S
H1530 C1526 0.930 . S
H1531 C1528 0.929 . S
S1532 N1533 1.613 . S
S1532 N1534 1.610 . S
N1533 S1532 1.613 . S
N1533 C1536 1.350 . S
N1534 S1532 1.610 . S
N1534 C1535 1.351 . S
C1535 C1529 1.428 . S
C1535 N1534 1.351 . S
C1535 C1536 1.434 . S
C1536 C1527 1.429 . S
C1536 N1533 1.350 . S
C1536 C1535 1.434 . S
C1537 C1538 1.369 . S
C1537 C1539 1.419 1_554 S
C1537 H1541 0.930 . S
C1538 C1537 1.369 . S
C1538 C1547 1.429 . S
C1539 C1537 1.419 1_556 S
C1539 C1540 1.363 . S
C1539 H1542 0.929 . S
C1540 C1539 1.363 . S
C1540 C1546 1.428 . S
H1541 C1537 0.930 . S
H1542 C1539 0.929 . S
S1543 N1544 1.617 . S
S1543 N1545 1.607 1_554 S
N1544 S1543 1.617 . S
N1544 C1547 1.350 . S
N1545 S1543 1.607 1_556 S
N1545 C1546 1.351 . S
C1546 C1540 1.428 . S
C1546 N1545 1.351 . S
C1546 C1547 1.434 1_556 S
C1547 C1538 1.429 . S
C1547 N1544 1.350 . S
C1547 C1546 1.434 1_554 S
C1548 C1549 1.369 . S
C1548 C1550 1.419 . S
C1548 H1552 0.930 . S
C1549 C1548 1.369 . S
C1549 C1558 1.429 . S
C1550 C1548 1.419 . S
C1550 C1551 1.363 . S
C1550 H1553 0.929 . S
C1551 C1550 1.363 . S
C1551 C1557 1.428 . S
H1552 C1548 0.930 . S
H1553 C1550 0.929 . S
S1554 N1555 1.613 . S
S1554 N1556 1.610 . S
N1555 S1554 1.613 . S
N1555 C1558 1.350 . S
N1556 S1554 1.610 . S
N1556 C1557 1.351 . S
C1557 C1551 1.428 . S
C1557 N1556 1.351 . S
C1557 C1558 1.434 . S
C1558 C1549 1.429 . S
C1558 N1555 1.350 . S
C1558 C1557 1.434 . S
C1559 C1560 1.369 . S
C1559 C1561 1.419 1_554 S
C1559 H1563 0.930 . S
C1560 C1559 1.369 . S
C1560 C1569 1.429 . S
C1561 C1559 1.419 1_556 S
C1561 C1562 1.363 . S
C1561 H1564 0.929 . S
C1562 C1561 1.363 . S
C1562 C1568 1.428 . S
H1563 C1559 0.930 . S
H1564 C1561 0.929 . S
S1565 N1566 1.612 1_556 S
S1565 N1567 1.612 . S
N1566 S1565 1.612 1_554 S
N1566 C1569 1.350 . S
N1567 S1565 1.612 . S
N1567 C1568 1.351 . S
C1568 C1562 1.428 . S
C1568 N1567 1.351 . S
C1568 C1569 1.434 1_556 S
C1569 C1560 1.429 . S
C1569 N1566 1.350 . S
C1569 C1568 1.434 1_554 S
C1570 C1571 1.369 . S
C1570 C1572 1.419 . S
C1570 H1574 0.930 . S
C1571 C1570 1.369 . S
C1571 C1580 1.429 . S
C1572 C1570 1.419 . S
C1572 C1573 1.363 . S
C1572 H1575 0.929 . S
C1573 C1572 1.363 . S
C1573 C1579 1.428 . S
H1574 C1570 0.930 . S
H1575 C1572 0.929 . S
S1576 N1577 1.613 . S
S1576 N1578 1.610 . S
N1577 S1576 1.613 . S
N1577 C1580 1.350 . S
N1578 S1576 1.610 . S
N1578 C1579 1.351 . S
C1579 C1573 1.428 . S
C1579 N1578 1.351 . S
C1579 C1580 1.434 . S
C1580 C1571 1.429 . S
C1580 N1577 1.350 . S
C1580 C1579 1.434 . S
C1581 C1582 1.369 . S
C1581 C1583 1.419 1_554 S
C1581 H1585 0.930 . S
C1582 C1581 1.369 . S
C1582 C1591 1.429 . S
C1583 C1581 1.419 1_556 S
C1583 C1584 1.363 . S
C1583 H1586 0.929 . S
C1584 C1583 1.363 . S
C1584 C1590 1.428 . S
H1585 C1581 0.930 . S
H1586 C1583 0.929 . S
S1587 N1588 1.616 1_556 S
S1587 N1589 1.607 . S
N1588 S1587 1.616 1_554 S
N1588 C1591 1.350 . S
N1589 S1587 1.607 . S
N1589 C1590 1.351 . S
C1590 C1584 1.428 . S
C1590 N1589 1.351 . S
C1590 C1591 1.434 1_556 S
C1591 C1582 1.429 . S
C1591 N1588 1.350 . S
C1591 C1590 1.434 1_554 S
C1592 C1593 1.369 . S
C1592 C1594 1.419 . S
C1592 H1596 0.930 . S
C1593 C1592 1.369 . S
C1593 C1602 1.429 . S
C1594 C1592 1.419 . S
C1594 C1595 1.363 . S
C1594 H1597 0.929 . S
C1595 C1594 1.363 . S
C1595 C1601 1.428 . S
H1596 C1592 0.930 . S
H1597 C1594 0.929 . S
S1598 N1599 1.613 . S
S1598 N1600 1.610 . S
N1599 S1598 1.613 . S
N1599 C1602 1.350 . S
N1600 S1598 1.610 . S
N1600 C1601 1.351 . S
C1601 C1595 1.428 . S
C1601 N1600 1.351 . S
C1601 C1602 1.434 . S
C1602 C1593 1.429 . S
C1602 N1599 1.350 . S
C1602 C1601 1.434 . S
C1603 C1604 1.369 . S
C1603 C1605 1.419 . S
C1603 H1607 0.930 . S
C1604 C1603 1.369 . S
C1604 C1613 1.429 . S
C1605 C1603 1.419 . S
C1605 C1606 1.363 . S
C1605 H1608 0.929 . S
C1606 C1605 1.363 . S
C1606 C1612 1.428 . S
H1607 C1603 0.930 . S
H1608 C1605 0.929 . S
S1609 N1610 1.613 . S
S1609 N1611 1.610 . S
N1610 S1609 1.613 . S
N1610 C1613 1.350 . S
N1611 S1609 1.610 . S
N1611 C1612 1.351 . S
C1612 C1606 1.428 . S
C1612 N1611 1.351 . S
C1612 C1613 1.434 . S
C1613 C1604 1.429 . S
C1613 N1610 1.350 . S
C1613 C1612 1.434 . S
C1614 C1615 1.369 . S
C1614 C1616 1.419 1_565 S
C1614 H1618 0.930 . S
C1615 C1614 1.369 . S
C1615 C1624 1.429 . S
C1616 C1614 1.419 1_545 S
C1616 C1617 1.363 . S
C1616 H1619 0.929 . S
C1617 C1616 1.363 . S
C1617 C1623 1.428 . S
H1618 C1614 0.930 . S
H1619 C1616 0.929 . S
S1620 N1621 1.617 . S
S1620 N1622 1.607 1_565 S
N1621 S1620 1.617 . S
N1621 C1624 1.350 . S
N1622 S1620 1.607 1_545 S
N1622 C1623 1.351 . S
C1623 C1617 1.428 . S
C1623 N1622 1.351 . S
C1623 C1624 1.434 1_545 S
C1624 C1615 1.429 . S
C1624 N1621 1.350 . S
C1624 C1623 1.434 1_565 S
C1625 C1626 1.369 . S
C1625 C1627 1.419 . S
C1625 H1629 0.930 . S
C1626 C1625 1.369 . S
C1626 C1635 1.429 . S
C1627 C1625 1.419 . S
C1627 C1628 1.363 . S
C1627 H1630 0.929 . S
C1628 C1627 1.363 . S
C1628 C1634 1.428 . S
H1629 C1625 0.930 . S
H1630 C1627 0.929 . S
S1631 N1632 1.613 . S
S1631 N1633 1.610 . S
N1632 S1631 1.613 . S
N1632 C1635 1.350 . S
N1633 S1631 1.610 . S
N1633 C1634 1.351 . S
C1634 C1628 1.428 . S
C1634 N1633 1.351 . S
C1634 C1635 1.434 . S
C1635 C1626 1.429 . S
C1635 N1632 1.350 . S
C1635 C1634 1.434 . S
C1636 C1637 1.369 . S
C1636 C1638 1.419 1_565 S
C1636 H1640 0.930 . S
C1637 C1636 1.369 . S
C1637 C1646 1.429 . S
C1638 C1636 1.419 1_545 S
C1638 C1639 1.363 . S
C1638 H1641 0.929 . S
C1639 C1638 1.363 . S
C1639 C1645 1.428 . S
H1640 C1636 0.930 . S
H1641 C1638 0.929 . S
S1642 N1643 1.611 1_545 S
S1642 N1644 1.613 . S
N1643 S1642 1.611 1_565 S
N1643 C1646 1.350 . S
N1644 S1642 1.613 . S
N1644 C1645 1.351 . S
C1645 C1639 1.428 . S
C1645 N1644 1.351 . S
C1645 C1646 1.434 1_545 S
C1646 C1637 1.429 . S
C1646 N1643 1.350 . S
C1646 C1645 1.434 1_565 S
C1647 C1648 1.369 . S
C1647 C1649 1.419 . S
C1647 H1651 0.930 . S
C1648 C1647 1.369 . S
C1648 C1657 1.429 . S
C1649 C1647 1.419 . S
C1649 C1650 1.363 . S
C1649 H1652 0.929 . S
C1650 C1649 1.363 . S
C1650 C1656 1.428 . S
H1651 C1647 0.930 . S
H1652 C1649 0.929 . S
S1653 N1654 1.613 . S
S1653 N1655 1.610 . S
N1654 S1653 1.613 . S
N1654 C1657 1.350 . S
N1655 S1653 1.610 . S
N1655 C1656 1.351 . S
C1656 C1650 1.428 . S
C1656 N1655 1.351 . S
C1656 C1657 1.434 . S
C1657 C1648 1.429 . S
C1657 N1654 1.350 . S
C1657 C1656 1.434 . S
C1658 C1659 1.369 . S
C1658 C1660 1.419 1_565 S
C1658 H1662 0.930 . S
C1659 C1658 1.369 . S
C1659 C1668 1.429 . S
C1660 C1658 1.419 1_545 S
C1660 C1661 1.363 . S
C1660 H1663 0.929 . S
C1661 C1660 1.363 . S
C1661 C1667 1.428 . S
H1662 C1658 0.930 . S
H1663 C1660 0.929 . S
S1664 N1665 1.627 . S
S1664 N1666 1.597 1_565 S
N1665 S1664 1.627 . S
N1665 C1668 1.350 . S
N1666 S1664 1.597 1_545 S
N1666 C1667 1.351 . S
C1667 C1661 1.428 . S
C1667 N1666 1.351 . S
C1667 C1668 1.434 1_545 S
C1668 C1659 1.429 . S
C1668 N1665 1.350 . S
C1668 C1667 1.434 1_565 S
C1669 C1670 1.369 . S
C1669 C1671 1.419 1_545 S
C1669 H1673 0.930 . S
C1670 C1669 1.369 . S
C1670 C1679 1.429 . S
C1671 C1669 1.419 1_565 S
C1671 C1672 1.363 . S
C1671 H1674 0.929 . S
C1672 C1671 1.363 . S
C1672 C1678 1.428 . S
H1673 C1669 0.930 . S
H1674 C1671 0.929 . S
S1675 N1676 1.612 . S
S1675 N1677 1.611 1_545 S
N1676 S1675 1.612 . S
N1676 C1679 1.350 . S
N1677 S1675 1.611 1_565 S
N1677 C1678 1.351 . S
C1678 C1672 1.428 . S
C1678 N1677 1.351 . S
C1678 C1679 1.434 1_565 S
C1679 C1670 1.429 . S
C1679 N1676 1.350 . S
C1679 C1678 1.434 1_545 S
C1680 C1681 1.369 . S
C1680 C1682 1.419 . S
C1680 H1684 0.930 . S
C1681 C1680 1.369 . S
C1681 C1690 1.429 . S
C1682 C1680 1.419 . S
C1682 C1683 1.363 . S
C1682 H1685 0.929 . S
C1683 C1682 1.363 . S
C1683 C1689 1.428 . S
H1684 C1680 0.930 . S
H1685 C1682 0.929 . S
S1686 N1687 1.613 . S
S1686 N1688 1.610 . S
N1687 S1686 1.613 . S
N1687 C1690 1.350 . S
N1688 S1686 1.610 . S
N1688 C1689 1.351 . S
C1689 C1683 1.428 . S
C1689 N1688 1.351 . S
C1689 C1690 1.434 . S
C1690 C1681 1.429 . S
C1690 N1687 1.350 . S
C1690 C1689 1.434 . S
C1691 C1692 1.369 . S
C1691 C1693 1.419 . S
C1691 H1695 0.930 . S
C1692 C1691 1.369 . S
C1692 C1701 1.429 . S
C1693 C1691 1.419 . S
C1693 C1694 1.363 . S
C1693 H1696 0.929 . S
C1694 C1693 1.363 . S
C1694 C1700 1.428 . S
H1695 C1691 0.930 . S
H1696 C1693 0.929 . S
S1697 N1698 1.613 . S
S1697 N1699 1.610 . S
N1698 S1697 1.613 . S
N1698 C1701 1.350 . S
N1699 S1697 1.610 . S
N1699 C1700 1.351 . S
C1700 C1694 1.428 . S
C1700 N1699 1.351 . S
C1700 C1701 1.434 . S
C1701 C1692 1.429 . S
C1701 N1698 1.350 . S
C1701 C1700 1.434 . S
C1702 C1703 1.369 . S
C1702 C1704 1.419 . S
C1702 H1706 0.930 . S
C1703 C1702 1.369 . S
C1703 C1712 1.429 . S
C1704 C1702 1.419 . S
C1704 C1705 1.363 . S
C1704 H1707 0.929 . S
C1705 C1704 1.363 . S
C1705 C1711 1.428 . S
H1706 C1702 0.930 . S
H1707 C1704 0.929 . S
S1708 N1709 1.613 . S
S1708 N1710 1.610 . S
N1709 S1708 1.613 . S
N1709 C1712 1.350 . S
N1710 S1708 1.610 . S
N1710 C1711 1.351 . S
C1711 C1705 1.428 . S
C1711 N1710 1.351 . S
C1711 C1712 1.434 . S
C1712 C1703 1.429 . S
C1712 N1709 1.350 . S
C1712 C1711 1.434 . S
C1713 C1714 1.369 . S
C1713 C1715 1.419 . S
C1713 H1717 0.930 . S
C1714 C1713 1.369 . S
C1714 C1723 1.429 . S
C1715 C1713 1.419 . S
C1715 C1716 1.363 . S
C1715 H1718 0.929 . S
C1716 C1715 1.363 . S
C1716 C1722 1.428 . S
H1717 C1713 0.930 . S
H1718 C1715 0.929 . S
S1719 N1720 1.613 . S
S1719 N1721 1.610 . S
N1720 S1719 1.613 . S
N1720 C1723 1.350 . S
N1721 S1719 1.610 . S
N1721 C1722 1.351 . S
C1722 C1716 1.428 . S
C1722 N1721 1.351 . S
C1722 C1723 1.434 . S
C1723 C1714 1.429 . S
C1723 N1720 1.350 . S
C1723 C1722 1.434 . S
C1724 C1725 1.369 . S
C1724 C1726 1.419 . S
C1724 H1728 0.930 . S
C1725 C1724 1.369 . S
C1725 C1734 1.429 . S
C1726 C1724 1.419 . S
C1726 C1727 1.363 . S
C1726 H1729 0.929 . S
C1727 C1726 1.363 . S
C1727 C1733 1.428 . S
H1728 C1724 0.930 . S
H1729 C1726 0.929 . S
S1730 N1731 1.613 . S
S1730 N1732 1.610 . S
N1731 S1730 1.613 . S
N1731 C1734 1.350 . S
N1732 S1730 1.610 . S
N1732 C1733 1.351 . S
C1733 C1727 1.428 . S
C1733 N1732 1.351 . S
C1733 C1734 1.434 . S
C1734 C1725 1.429 . S
C1734 N1731 1.350 . S
C1734 C1733 1.434 . S
C1735 C1736 1.369 . S
C1735 C1737 1.419 . S
C1735 H1739 0.930 . S
C1736 C1735 1.369 . S
C1736 C1745 1.429 . S
C1737 C1735 1.419 . S
C1737 C1738 1.363 . S
C1737 H1740 0.929 . S
C1738 C1737 1.363 . S
C1738 C1744 1.428 . S
H1739 C1735 0.930 . S
H1740 C1737 0.929 . S
S1741 N1742 1.613 . S
S1741 N1743 1.610 . S
N1742 S1741 1.613 . S
N1742 C1745 1.350 . S
N1743 S1741 1.610 . S
N1743 C1744 1.351 . S
C1744 C1738 1.428 . S
C1744 N1743 1.351 . S
C1744 C1745 1.434 . S
C1745 C1736 1.429 . S
C1745 N1742 1.350 . S
C1745 C1744 1.434 . S
C1746 C1747 1.369 . S
C1746 C1748 1.419 . S
C1746 H1750 0.930 . S
C1747 C1746 1.369 . S
C1747 C1756 1.429 . S
C1748 C1746 1.419 . S
C1748 C1749 1.363 . S
C1748 H1751 0.929 . S
C1749 C1748 1.363 . S
C1749 C1755 1.428 . S
H1750 C1746 0.930 . S
H1751 C1748 0.929 . S
S1752 N1753 1.613 . S
S1752 N1754 1.610 . S
N1753 S1752 1.613 . S
N1753 C1756 1.350 . S
N1754 S1752 1.610 . S
N1754 C1755 1.351 . S
C1755 C1749 1.428 . S
C1755 N1754 1.351 . S
C1755 C1756 1.434 . S
C1756 C1747 1.429 . S
C1756 N1753 1.350 . S
C1756 C1755 1.434 . S
C1757 C1758 1.369 . S
C1757 C1759 1.419 . S
C1757 H1761 0.930 . S
C1758 C1757 1.369 . S
C1758 C1767 1.429 . S
C1759 C1757 1.419 . S
C1759 C1760 1.363 . S
C1759 H1762 0.929 . S
C1760 C1759 1.363 . S
C1760 C1766 1.428 . S
H1761 C1757 0.930 . S
H1762 C1759 0.929 . S
S1763 N1764 1.613 . S
S1763 N1765 1.610 . S
N1764 S1763 1.613 . S
N1764 C1767 1.350 . S
N1765 S1763 1.610 . S
N1765 C1766 1.351 . S
C1766 C1760 1.428 . S
C1766 N1765 1.351 . S
C1766 C1767 1.434 . S
C1767 C1758 1.429 . S
C1767 N1764 1.350 . S
C1767 C1766 1.434 . S
C1768 C1769 1.369 . S
C1768 C1770 1.419 . S
C1768 H1772 0.930 . S
C1769 C1768 1.369 . S
C1769 C1778 1.429 . S
C1770 C1768 1.419 . S
C1770 C1771 1.363 . S
C1770 H1773 0.929 . S
C1771 C1770 1.363 . S
C1771 C1777 1.428 . S
H1772 C1768 0.930 . S
H1773 C1770 0.929 . S
S1774 N1775 1.613 . S
S1774 N1776 1.610 . S
N1775 S1774 1.613 . S
N1775 C1778 1.350 . S
N1776 S1774 1.610 . S
N1776 C1777 1.351 . S
C1777 C1771 1.428 . S
C1777 N1776 1.351 . S
C1777 C1778 1.434 . S
C1778 C1769 1.429 . S
C1778 N1775 1.350 . S
C1778 C1777 1.434 . S
C1779 C1780 1.369 . S
C1779 C1781 1.419 . S
C1779 H1783 0.930 . S
C1780 C1779 1.369 . S
C1780 C1789 1.429 . S
C1781 C1779 1.419 . S
C1781 C1782 1.363 . S
C1781 H1784 0.929 . S
C1782 C1781 1.363 . S
C1782 C1788 1.428 . S
H1783 C1779 0.930 . S
H1784 C1781 0.929 . S
S1785 N1786 1.613 . S
S1785 N1787 1.610 . S
N1786 S1785 1.613 . S
N1786 C1789 1.350 . S
N1787 S1785 1.610 . S
N1787 C1788 1.351 . S
C1788 C1782 1.428 . S
C1788 N1787 1.351 . S
C1788 C1789 1.434 . S
C1789 C1780 1.429 . S
C1789 N1786 1.350 . S
C1789 C1788 1.434 . S
C1790 C1791 1.369 . S
C1790 C1792 1.419 . S
C1790 H1794 0.930 . S
C1791 C1790 1.369 . S
C1791 C1800 1.429 . S
C1792 C1790 1.419 . S
C1792 C1793 1.363 . S
C1792 H1795 0.929 . S
C1793 C1792 1.363 . S
C1793 C1799 1.428 . S
H1794 C1790 0.930 . S
H1795 C1792 0.929 . S
S1796 N1797 1.613 . S
S1796 N1798 1.610 . S
N1797 S1796 1.613 . S
N1797 C1800 1.350 . S
N1798 S1796 1.610 . S
N1798 C1799 1.351 . S
C1799 C1793 1.428 . S
C1799 N1798 1.351 . S
C1799 C1800 1.434 . S
C1800 C1791 1.429 . S
C1800 N1797 1.350 . S
C1800 C1799 1.434 . S
C1801 C1802 1.369 . S
C1801 C1803 1.419 . S
C1801 H1805 0.930 . S
C1802 C1801 1.369 . S
C1802 C1811 1.429 . S
C1803 C1801 1.419 . S
C1803 C1804 1.363 . S
C1803 H1806 0.929 . S
C1804 C1803 1.363 . S
C1804 C1810 1.428 . S
H1805 C1801 0.930 . S
H1806 C1803 0.929 . S
S1807 N1808 1.613 . S
S1807 N1809 1.610 . S
N1808 S1807 1.613 . S
N1808 C1811 1.350 . S
N1809 S1807 1.610 . S
N1809 C1810 1.351 . S
C1810 C1804 1.428 . S
C1810 N1809 1.351 . S
C1810 C1811 1.434 . S
C1811 C1802 1.429 . S
C1811 N1808 1.350 . S
C1811 C1810 1.434 . S
C1812 C1813 1.369 . S
C1812 C1814 1.419 . S
C1812 H1816 0.930 . S
C1813 C1812 1.369 . S
C1813 C1822 1.429 . S
C1814 C1812 1.419 . S
C1814 C1815 1.363 . S
C1814 H1817 0.929 . S
C1815 C1814 1.363 . S
C1815 C1821 1.428 . S
H1816 C1812 0.930 . S
H1817 C1814 0.929 . S
S1818 N1819 1.613 . S
S1818 N1820 1.610 . S
N1819 S1818 1.613 . S
N1819 C1822 1.350 . S
N1820 S1818 1.610 . S
N1820 C1821 1.351 . S
C1821 C1815 1.428 . S
C1821 N1820 1.351 . S
C1821 C1822 1.434 . S
C1822 C1813 1.429 . S
C1822 N1819 1.350 . S
C1822 C1821 1.434 . S
C1823 C1824 1.369 . S
C1823 C1825 1.419 . S
C1823 H1827 0.930 . S
C1824 C1823 1.369 . S
C1824 C1833 1.429 . S
C1825 C1823 1.419 . S
C1825 C1826 1.363 . S
C1825 H1828 0.929 . S
C1826 C1825 1.363 . S
C1826 C1832 1.428 . S
H1827 C1823 0.930 . S
H1828 C1825 0.929 . S
S1829 N1830 1.613 . S
S1829 N1831 1.610 . S
N1830 S1829 1.613 . S
N1830 C1833 1.350 . S
N1831 S1829 1.610 . S
N1831 C1832 1.351 . S
C1832 C1826 1.428 . S
C1832 N1831 1.351 . S
C1832 C1833 1.434 . S
C1833 C1824 1.429 . S
C1833 N1830 1.350 . S
C1833 C1832 1.434 . S
C1834 C1835 1.369 . S
C1834 C1836 1.419 . S
C1834 H1838 0.930 . S
C1835 C1834 1.369 . S
C1835 C1844 1.429 . S
C1836 C1834 1.419 . S
C1836 C1837 1.363 . S
C1836 H1839 0.929 . S
C1837 C1836 1.363 . S
C1837 C1843 1.428 . S
H1838 C1834 0.930 . S
H1839 C1836 0.929 . S
S1840 N1841 1.613 . S
S1840 N1842 1.610 . S
N1841 S1840 1.613 . S
N1841 C1844 1.350 . S
N1842 S1840 1.610 . S
N1842 C1843 1.351 . S
C1843 C1837 1.428 . S
C1843 N1842 1.351 . S
C1843 C1844 1.434 . S
C1844 C1835 1.429 . S
C1844 N1841 1.350 . S
C1844 C1843 1.434 . S
C1845 C1846 1.369 . S
C1845 C1847 1.419 . S
C1845 H1849 0.930 . S
C1846 C1845 1.369 . S
C1846 C1855 1.429 . S
C1847 C1845 1.419 . S
C1847 C1848 1.363 . S
C1847 H1850 0.929 . S
C1848 C1847 1.363 . S
C1848 C1854 1.428 . S
H1849 C1845 0.930 . S
H1850 C1847 0.929 . S
S1851 N1852 1.613 . S
S1851 N1853 1.610 . S
N1852 S1851 1.613 . S
N1852 C1855 1.350 . S
N1853 S1851 1.610 . S
N1853 C1854 1.351 . S
C1854 C1848 1.428 . S
C1854 N1853 1.351 . S
C1854 C1855 1.434 . S
C1855 C1846 1.429 . S
C1855 N1852 1.350 . S
C1855 C1854 1.434 . S
C1856 C1857 1.369 . S
C1856 C1858 1.419 . S
C1856 H1860 0.930 . S
C1857 C1856 1.369 . S
C1857 C1866 1.429 . S
C1858 C1856 1.419 . S
C1858 C1859 1.363 . S
C1858 H1861 0.929 . S
C1859 C1858 1.363 . S
C1859 C1865 1.428 . S
H1860 C1856 0.930 . S
H1861 C1858 0.929 . S
S1862 N1863 1.613 . S
S1862 N1864 1.610 . S
N1863 S1862 1.613 . S
N1863 C1866 1.350 . S
N1864 S1862 1.610 . S
N1864 C1865 1.351 . S
C1865 C1859 1.428 . S
C1865 N1864 1.351 . S
C1865 C1866 1.434 . S
C1866 C1857 1.429 . S
C1866 N1863 1.350 . S
C1866 C1865 1.434 . S
C1867 C1868 1.369 . S
C1867 C1869 1.419 . S
C1867 H1871 0.930 . S
C1868 C1867 1.369 . S
C1868 C1877 1.429 . S
C1869 C1867 1.419 . S
C1869 C1870 1.363 . S
C1869 H1872 0.929 . S
C1870 C1869 1.363 . S
C1870 C1876 1.428 . S
H1871 C1867 0.930 . S
H1872 C1869 0.929 . S
S1873 N1874 1.613 . S
S1873 N1875 1.610 . S
N1874 S1873 1.613 . S
N1874 C1877 1.350 . S
N1875 S1873 1.610 . S
N1875 C1876 1.351 . S
C1876 C1870 1.428 . S
C1876 N1875 1.351 . S
C1876 C1877 1.434 . S
C1877 C1868 1.429 . S
C1877 N1874 1.350 . S
C1877 C1876 1.434 . S
C1878 C1879 1.369 . S
C1878 C1880 1.419 . S
C1878 H1882 0.930 . S
C1879 C1878 1.369 . S
C1879 C1888 1.429 . S
C1880 C1878 1.419 . S
C1880 C1881 1.363 . S
C1880 H1883 0.929 . S
C1881 C1880 1.363 . S
C1881 C1887 1.428 . S
H1882 C1878 0.930 . S
H1883 C1880 0.929 . S
S1884 N1885 1.613 . S
S1884 N1886 1.610 . S
N1885 S1884 1.613 . S
N1885 C1888 1.350 . S
N1886 S1884 1.610 . S
N1886 C1887 1.351 . S
C1887 C1881 1.428 . S
C1887 N1886 1.351 . S
C1887 C1888 1.434 . S
C1888 C1879 1.429 . S
C1888 N1885 1.350 . S
C1888 C1887 1.434 . S
C1889 C1890 1.369 . S
C1889 C1891 1.419 . S
C1889 H1893 0.930 . S
C1890 C1889 1.369 . S
C1890 C1899 1.429 . S
C1891 C1889 1.419 . S
C1891 C1892 1.363 . S
C1891 H1894 0.929 . S
C1892 C1891 1.363 . S
C1892 C1898 1.428 . S
H1893 C1889 0.930 . S
H1894 C1891 0.929 . S
S1895 N1896 1.613 . S
S1895 N1897 1.610 . S
N1896 S1895 1.613 . S
N1896 C1899 1.350 . S
N1897 S1895 1.610 . S
N1897 C1898 1.351 . S
C1898 C1892 1.428 . S
C1898 N1897 1.351 . S
C1898 C1899 1.434 . S
C1899 C1890 1.429 . S
C1899 N1896 1.350 . S
C1899 C1898 1.434 . S
C1900 C1901 1.369 . S
C1900 C1902 1.419 . S
C1900 H1904 0.930 . S
C1901 C1900 1.369 . S
C1901 C1910 1.429 . S
C1902 C1900 1.419 . S
C1902 C1903 1.363 . S
C1902 H1905 0.929 . S
C1903 C1902 1.363 . S
C1903 C1909 1.428 . S
H1904 C1900 0.930 . S
H1905 C1902 0.929 . S
S1906 N1907 1.613 . S
S1906 N1908 1.610 . S
N1907 S1906 1.613 . S
N1907 C1910 1.350 . S
N1908 S1906 1.610 . S
N1908 C1909 1.351 . S
C1909 C1903 1.428 . S
C1909 N1908 1.351 . S
C1909 C1910 1.434 . S
C1910 C1901 1.429 . S
C1910 N1907 1.350 . S
C1910 C1909 1.434 . S
C1911 C1912 1.369 . S
C1911 C1913 1.419 . S
C1911 H1915 0.930 . S
C1912 C1911 1.369 . S
C1912 C1921 1.429 . S
C1913 C1911 1.419 . S
C1913 C1914 1.363 . S
C1913 H1916 0.929 . S
C1914 C1913 1.363 . S
C1914 C1920 1.428 . S
H1915 C1911 0.930 . S
H1916 C1913 0.929 . S
S1917 N1918 1.613 . S
S1917 N1919 1.610 . S
N1918 S1917 1.613 . S
N1918 C1921 1.350 . S
N1919 S1917 1.610 . S
N1919 C1920 1.351 . S
C1920 C1914 1.428 . S
C1920 N1919 1.351 . S
C1920 C1921 1.434 . S
C1921 C1912 1.429 . S
C1921 N1918 1.350 . S
C1921 C1920 1.434 . S
C1922 C1923 1.369 . S
C1922 C1924 1.419 . S
C1922 H1926 0.930 . S
C1923 C1922 1.369 . S
C1923 C1932 1.429 . S
C1924 C1922 1.419 . S
C1924 C1925 1.363 . S
C1924 H1927 0.929 . S
C1925 C1924 1.363 . S
C1925 C1931 1.428 . S
H1926 C1922 0.930 . S
H1927 C1924 0.929 . S
S1928 N1929 1.613 . S
S1928 N1930 1.610 . S
N1929 S1928 1.613 . S
N1929 C1932 1.350 . S
N1930 S1928 1.610 . S
N1930 C1931 1.351 . S
C1931 C1925 1.428 . S
C1931 N1930 1.351 . S
C1931 C1932 1.434 . S
C1932 C1923 1.429 . S
C1932 N1929 1.350 . S
C1932 C1931 1.434 . S
C1933 C1934 1.369 . S
C1933 C1935 1.419 . S
C1933 H1937 0.930 . S
C1934 C1933 1.369 . S
C1934 C1943 1.429 . S
C1935 C1933 1.419 . S
C1935 C1936 1.363 . S
C1935 H1938 0.929 . S
C1936 C1935 1.363 . S
C1936 C1942 1.428 . S
H1937 C1933 0.930 . S
H1938 C1935 0.929 . S
S1939 N1940 1.613 . S
S1939 N1941 1.610 . S
N1940 S1939 1.613 . S
N1940 C1943 1.350 . S
N1941 S1939 1.610 . S
N1941 C1942 1.351 . S
C1942 C1936 1.428 . S
C1942 N1941 1.351 . S
C1942 C1943 1.434 . S
C1943 C1934 1.429 . S
C1943 N1940 1.350 . S
C1943 C1942 1.434 . S
C1417 C890 1.432 . S
C1419 C3 1.430 . S
C1428 C711 1.433 . S
C1430 C64 1.436 . S
C1439 C770 1.437 . S
C1441 C121 1.437 . S
C1450 C831 1.436 . S
C1452 C180 1.434 . S
C1461 C829 1.437 . S
C1463 C62 1.438 . S
C1472 C123 1.438 . S
C1474 C888 1.435 . S
C1483 C713 1.429 . S
C1485 C182 1.429 . S
C1494 C772 1.433 . S
C1496 C5 1.433 . S
C1505 C1067 1.427 . S
C1507 C241 1.427 . S
C1516 C298 1.441 . S
C1518 C1124 1.441 . S
C1527 C359 1.428 . S
C1529 C949 1.428 . S
C1538 C1006 1.441 . S
C1540 C416 1.441 . S
C1549 C1301 1.440 . S
C1551 C475 1.440 . S
C1560 C536 1.427 . S
C1562 C1362 1.427 . S
C1571 C593 1.441 . S
C1573 C1183 1.441 . S
C1582 C654 1.427 . S
C1584 C1244 1.427 . S
C1593 C1008 1.434 . S
C1595 C652 1.431 . S
C1604 C1360 1.433 . S
C1606 C300 1.436 . S
C1615 C357 1.434 . S
C1617 C1185 1.437 . S
C1626 C1242 1.434 . S
C1628 C418 1.436 . S
C1637 C1303 1.435 . S
C1639 C239 1.432 . S
C1648 C534 1.433 . S
C1650 C1126 1.435 . S
C1659 C947 1.430 . S
C1661 C595 1.432 . S
C1670 C1065 1.434 . S
C1672 C477 1.437 . S
C1681 C33 1.168 . S
C1683 C269 1.167 . S
C1692 C347 1.178 . S
C1694 C111 1.178 . S
C1703 C151 1.170 . S
C1705 C387 1.170 . S
C1714 C210 1.170 . S
C1716 C465 1.175 . S
C1725 C524 1.176 . S
C1727 C92 1.169 . S
C1736 C564 1.170 . S
C1738 C170 1.175 . S
C1747 C642 1.172 . S
C1749 C229 1.173 . S
C1758 C52 1.172 . S
C1760 C682 1.166 . S
C1769 C701 1.171 . S
C1771 C288 1.171 . S
C1780 C328 1.170 . S
C1782 C505 1.170 . S
C1791 C406 1.172 . S
C1793 C583 1.171 . S
C1802 C623 1.170 . S
C1804 C446 1.170 . S
C1813 C977 1.166 . S
C1815 C760 1.172 . S
C1824 C1055 1.174 . S
C1826 C819 1.174 . S
C1835 C859 1.168 . S
C1837 C1095 1.168 . S
C1846 C918 1.171 . S
C1848 C1173 1.176 . S
C1857 C800 1.167 . S
C1859 C1232 1.174 . S
C1868 C878 1.172 . S
C1870 C1272 1.165 . S
C1879 C1350 1.174 . S
C1881 C937 1.174 . S
C1890 C741 1.163 . S
C1892 C1390 1.164 . S
C1901 C996 1.172 . S
C1903 C1409 1.172 . S
C1912 C1213 1.173 . S
C1914 C1036 1.173 . S
C1923 C1114 1.168 . S
C1925 C1291 1.169 . S
C1934 C1331 1.172 . S
C1936 C1154 1.171 . S
