# Generated by pormake.
# Topology wme, (6)-cn, num edge types: 1
# Building blocks:
#     Node 0, Type 0, BuildingBlock: GEDQOX_clean_sbu_0, # of connection points: 6
#     Node 1, Type 0, BuildingBlock: GEDQOX_clean_sbu_0, # of connection points: 6
#     Node 2, Type 0, BuildingBlock: GEDQOX_clean_sbu_0, # of connection points: 6
#     Node 3, Type 0, BuildingBlock: GEDQOX_clean_sbu_0, # of connection points: 6
#     Node 4, Type 0, BuildingBlock: GEDQOX_clean_sbu_0, # of connection points: 6
#     Node 5, Type 0, BuildingBlock: GEDQOX_clean_sbu_0, # of connection points: 6
#     Node 6, Type 0, BuildingBlock: GEDQOX_clean_sbu_0, # of connection points: 6
#     Node 7, Type 0, BuildingBlock: GEDQOX_clean_sbu_0, # of connection points: 6
#     Node 8, Type 0, BuildingBlock: GEDQOX_clean_sbu_0, # of connection points: 6
#     Node 9, Type 0, BuildingBlock: GEDQOX_clean_sbu_0, # of connection points: 6
#     Node 10, Type 0, BuildingBlock: GEDQOX_clean_sbu_0, # of connection points: 6
#     Node 11, Type 0, BuildingBlock: GEDQOX_clean_sbu_0, # of connection points: 6
#     Edge 12, Type (0, 0), None
#     Edge 13, Type (0, 0), None
#     Edge 14, Type (0, 0), None
#     Edge 15, Type (0, 0), None
#     Edge 16, Type (0, 0), None
#     Edge 17, Type (0, 0), None
#     Edge 18, Type (0, 0), None
#     Edge 19, Type (0, 0), None
#     Edge 20, Type (0, 0), None
#     Edge 21, Type (0, 0), None
#     Edge 22, Type (0, 0), None
#     Edge 23, Type (0, 0), None
#     Edge 24, Type (0, 0), None
#     Edge 25, Type (0, 0), None
#     Edge 26, Type (0, 0), None
#     Edge 27, Type (0, 0), None
#     Edge 28, Type (0, 0), None
#     Edge 29, Type (0, 0), None
#     Edge 30, Type (0, 0), None
#     Edge 31, Type (0, 0), None
#     Edge 32, Type (0, 0), None
#     Edge 33, Type (0, 0), None
#     Edge 34, Type (0, 0), None
#     Edge 35, Type (0, 0), None
#     Edge 36, Type (0, 0), None
#     Edge 37, Type (0, 0), None
#     Edge 38, Type (0, 0), None
#     Edge 39, Type (0, 0), None
#     Edge 40, Type (0, 0), None
#     Edge 41, Type (0, 0), None
#     Edge 42, Type (0, 0), None
#     Edge 43, Type (0, 0), None
#     Edge 44, Type (0, 0), None
#     Edge 45, Type (0, 0), None
#     Edge 46, Type (0, 0), None
#     Edge 47, Type (0, 0), None
# Relax obj value: 0.124
# Max RMSD: 0.282
# Mean RMSD: 0.282
data_MOF--net-wme--node1-GEDQOX_clean_sbu_0--edge1-none
_symmetry_space_group_name_H-M    P1
_symmetry_Int_Tables_number       1
_symmetry_cell_setting            triclinic
loop_
_symmetry_equiv_pos_as_xyz
'x, y, z'
_cell_length_a     22.508482
_cell_length_b     22.461074
_cell_length_c     22.154685
_cell_angle_alpha  90.940304
_cell_angle_beta   89.543374
_cell_angle_gamma 119.89789
loop_
_atom_site_label
_atom_site_type_symbol
_atom_site_fract_x
_atom_site_fract_y
_atom_site_fract_z
_atom_type_partial_charge
Nd0 Nd 0.3975 0.45126 0.10641 0.0
Nd1 Nd 0.25675 0.36594 0.07127 0.0
C2 C 0.52261 0.55156 0.13366 0.0
C3 C 0.55611 0.62537 0.1153 0.0
C4 C 0.52744 0.66687 0.13041 0.0
C5 C 0.55669 0.73445 0.10924 0.0
C6 C 0.61528 0.76276 0.07184 0.0
C7 C 0.64296 0.72065 0.05556 0.0
C8 C 0.61385 0.65308 0.07703 0.0
C9 C 0.39159 0.39967 -0.00967 0.0
C10 C 0.31028 0.52135 0.06401 0.0
C11 C 0.12638 0.30043 0.0393 0.0
C12 C 1.06361 0.252 0.072 0.0
C13 C 1.06391 0.20386 0.11133 0.0
C14 C 1.00383 0.15703 0.14079 0.0
C15 C 0.94215 0.15762 0.13225 0.0
C16 C 0.94343 0.20948 0.09651 0.0
C17 C 1.00364 0.25612 0.06652 0.0
C18 C 0.26424 0.38173 0.19256 0.0
C19 C 0.33213 0.28757 0.1246 0.0
O20 O 0.47199 0.52862 0.17241 0.0
O21 O 0.50996 0.50779 0.08971 0.0
O22 O 0.42558 0.46424 0.00507 0.0
O23 O 0.35106 0.3674 0.03236 0.0
O24 O 0.35496 0.52541 0.10362 0.0
O25 O 0.28347 0.46767 0.02782 0.0
O26 O 0.1691 0.27938 0.02307 0.0
O27 O 0.15743 0.36273 0.06138 0.0
O28 O 0.22674 0.32516 0.1639 0.0
O29 O 0.30015 0.43141 0.15758 0.0
O30 O 0.28253 0.28238 0.08951 0.0
O31 O 0.38216 0.34835 0.14413 0.0
H32 H 0.48227 0.64725 0.15869 0.0
H33 H 0.53415 0.76521 0.12345 0.0
H34 H 0.68863 0.7406 0.02789 0.0
H35 H 0.63665 0.62231 0.06365 0.0
H36 H 0.10995 0.20072 0.11763 0.0
H37 H 1.00449 0.1169 0.16669 0.0
H38 H 0.89678 0.2107 0.08769 0.0
H39 H 1.00278 0.29398 0.0374 0.0
Nd40 Nd 1.01394 0.3565 0.6047 0.0
Nd41 Nd 0.95692 0.21882 0.56692 0.0
C42 C 1.04231 0.48189 0.63597 0.0
C43 C 1.00163 0.51534 0.61947 0.0
C44 C 0.93398 0.49001 0.64002 0.0
C45 C 0.89438 0.51817 0.61972 0.0
C46 C 0.92075 0.57167 0.5775 0.0
C47 C 0.98766 0.59554 0.55565 0.0
C48 C 1.02761 0.56812 0.57666 0.0
C49 C 1.06089 0.35257 0.48874 0.0
C50 C 0.85714 0.27484 0.56003 0.0
C51 C 0.89184 0.08928 0.53089 0.0
C52 C 0.87986 1.02781 0.56364 0.0
C53 C 0.92834 1.03173 0.60537 0.0
C54 C 0.9179 0.97299 0.63509 0.0
C55 C 0.85888 0.90941 0.62361 0.0
C56 C 0.80741 0.90691 0.58637 0.0
C57 C 0.81791 0.96586 0.55649 0.0
C58 C 0.94362 0.22289 0.68848 0.0
C59 C 0.10791 0.28737 0.62514 0.0
O60 O 1.01572 0.43107 0.67397 0.0
O61 O 1.07164 0.46917 0.59074 0.0
O62 O 1.02985 0.38609 0.50394 0.0
O63 O 1.05229 0.31124 0.52995 0.0
O64 O 0.89845 0.31849 0.60054 0.0
O65 O 0.88295 0.24728 0.52347 0.0
O66 O 0.95496 0.13243 0.51476 0.0
O67 O 0.86078 0.11996 0.55408 0.0
O68 O 0.96422 0.18638 0.65994 0.0
O69 O 0.9325 0.26048 0.65342 0.0
O70 O 1.06338 0.23874 0.58883 0.0
O71 O 0.09857 0.33837 0.64459 0.0
H72 H 0.91133 0.44814 0.67161 0.0
H73 H 0.8433 0.49873 0.638 0.0
H74 H 1.0102 0.63703 0.52366 0.0
H75 H 1.07895 0.58795 0.55892 0.0
H76 H 0.97576 0.07947 0.61296 0.0
H77 H 0.959 0.97586 0.66244 0.0
H78 H 0.76242 0.85814 0.57532 0.0
H79 H 0.77901 0.96241 0.52585 0.0
Nd80 Nd 0.71635 0.99547 0.1071 0.0
Nd81 Nd 0.80475 0.94421 0.08277 0.0
C82 C 0.6161 1.0185 0.13708 0.0
C83 C 0.54333 0.97559 0.11683 0.0
C84 C 0.50196 0.90834 0.13805 0.0
C85 C 0.4356 0.86619 0.11541 0.0
C86 C 0.40835 0.88974 0.07072 0.0
C87 C 0.45047 0.95618 0.04807 0.0
C88 C 0.51688 0.99857 0.07099 0.0
C89 C 0.77259 1.04116 -0.00586 0.0
C90 C 0.65359 0.83853 0.05993 0.0
C91 C 0.90027 0.91266 0.05582 0.0
C92 C 0.93816 0.88785 0.09215 0.0
C93 C 0.98879 0.93175 0.13342 0.0
C94 C 1.03269 0.91209 0.15894 0.0
C95 C 1.02671 0.84838 0.14385 0.0
C96 C 0.97041 0.80097 0.10935 0.0
C97 C 0.92673 0.82083 0.08313 0.0
C98 C 0.74188 0.89497 0.19264 0.0
C99 C 0.8763 0.09383 0.1435 0.0
O100 O 0.63982 0.99068 0.17427 0.0
O101 O 0.66031 1.05281 0.095 0.0
O102 O 0.70731 1.00915 0.00533 0.0
O103 O 0.80398 1.03504 0.03829 0.0
O104 O 0.64457 0.87846 0.09799 0.0
O105 O 0.7109 0.86655 0.02904 0.0
O106 O 0.91355 0.97551 0.06547 0.0
O107 O 0.83525 0.87011 0.04777 0.0
O108 O 0.75294 0.85948 0.15269 0.0
O109 O 0.76392 0.9555 0.17421 0.0
O110 O 0.87915 1.03692 0.13858 0.0
O111 O 0.81719 0.09263 0.13655 0.0
H112 H 0.52069 0.88796 0.17233 0.0
H113 H 0.40478 0.8156 0.13437 0.0
H114 H 0.43135 0.97657 0.01414 0.0
H115 H 0.54768 1.04953 0.05274 0.0
H116 H 0.99805 0.98322 0.14256 0.0
H117 H 1.07666 0.95007 0.18437 0.0
H118 H 0.96576 0.75225 0.09575 0.0
H119 H 0.88727 0.78553 0.0523 0.0
Nd120 Nd 0.79994 0.68419 0.60761 0.0
Nd121 Nd 0.93771 0.76485 0.57476 0.0
C122 C 0.67444 0.58694 0.63516 0.0
C123 C 0.64165 0.51246 0.61808 0.0
C124 C 0.66809 0.47109 0.6381 0.0
C125 C 0.64027 0.40282 0.6175 0.0
C126 C 0.5859 0.3741 0.57553 0.0
C127 C 0.56087 0.41617 0.55421 0.0
C128 C 0.58808 0.48413 0.57544 0.0
C129 C 0.80622 0.7325 0.49129 0.0
C130 C 0.88362 0.60979 0.56481 0.0
C131 C 1.068 0.82678 0.54363 0.0
C132 C 0.1302 0.87673 0.57611 0.0
C133 C 0.12847 0.92444 0.61674 0.0
C134 C 0.1888 0.97488 0.64397 0.0
C135 C 0.25154 0.97807 0.63126 0.0
C136 C 0.25188 0.92591 0.5957 0.0
C137 C 0.19149 0.8756 0.56806 0.0
C138 C 0.93039 0.75213 0.69635 0.0
C139 C 0.8657 0.84807 0.62622 0.0
O140 O 0.72435 0.61204 0.67464 0.0
O141 O 0.68785 0.62806 0.59009 0.0
O142 O 0.77245 0.66833 0.50598 0.0
O143 O 0.84631 0.76606 0.53361 0.0
O144 O 0.83985 0.60769 0.60498 0.0
O145 O 0.91048 0.66263 0.52909 0.0
O146 O 1.02608 0.84759 0.5258 0.0
O147 O 1.03631 0.76606 0.56731 0.0
O148 O 0.96611 0.80842 0.668 0.0
O149 O 0.89483 0.70169 0.66089 0.0
O150 O 0.91554 0.85137 0.59216 0.0
O151 O 0.81515 0.78817 0.6453 0.0
H152 H 0.71053 0.49142 0.66957 0.0
H153 H 0.66061 0.37202 0.63544 0.0
H154 H 0.51863 0.396 0.52253 0.0
H155 H 0.56736 0.51487 0.55812 0.0
H156 H 1.08128 0.92511 0.62488 0.0
H157 H 0.18758 1.01553 0.67002 0.0
H158 H 0.29989 0.92849 0.58371 0.0
H159 H 0.19336 0.83808 0.53792 0.0
Nd160 Nd 0.17855 0.77238 0.10912 0.0
Nd161 Nd 0.23762 0.91008 0.07126 0.0
C162 C 0.15037 0.64823 0.14031 0.0
C163 C 0.19114 0.61471 0.12285 0.0
C164 C 0.25956 0.64191 0.14167 0.0
C165 C 0.29942 0.61401 0.11996 0.0
C166 C 0.27251 0.55892 0.07796 0.0
C167 C 0.20477 0.53313 0.05782 0.0
C168 C 0.16458 0.56029 0.08029 0.0
C169 C 0.12736 0.77357 -0.00448 0.0
C170 C 0.33324 0.85083 0.0575 0.0
C171 C 0.30341 1.03917 0.03764 0.0
C172 C 0.31683 0.10246 0.07012 0.0
C173 C 0.2686 0.10197 0.11098 0.0
C174 C 0.27927 0.16318 0.13792 0.0
C175 C 0.33841 0.22572 0.1247 0.0
C176 C 0.38974 0.22505 0.08873 0.0
C177 C 0.37895 0.16369 0.06154 0.0
C178 C 0.25634 0.90866 0.19167 0.0
C179 C 1.09074 0.84748 0.13636 0.0
O180 O 0.17744 0.70035 0.17828 0.0
O181 O 0.12021 0.65925 0.09557 0.0
O182 O 0.15675 0.73849 0.009 0.0
O183 O 0.13892 0.81708 0.03698 0.0
O184 O 0.29348 0.80893 0.09913 0.0
O185 O 0.30614 0.87719 0.02245 0.0
O186 O 0.24001 0.99626 0.02151 0.0
O187 O 0.33427 1.00849 0.05983 0.0
O188 O 0.2366 0.9462 0.16531 0.0
O189 O 0.26388 0.86882 0.15509 0.0
O190 O 0.13375 0.89357 0.09832 0.0
O191 O 0.09833 0.79538 0.15381 0.0
H192 H 0.28266 0.68509 0.17296 0.0
H193 H 0.35116 0.63498 0.13693 0.0
H194 H 0.18186 0.49045 0.02601 0.0
H195 H 0.11262 0.53907 0.06379 0.0
H196 H 0.22104 1.05496 0.1196 0.0
H197 H 0.23829 0.16266 0.16439 0.0
H198 H 0.43476 0.2728 0.07632 0.0
H199 H 0.41748 0.16473 0.03125 0.0
Nd200 Nd 0.47535 0.14241 0.6094 0.0
Nd201 Nd 0.39332 0.19665 0.5722 0.0
C202 C 0.57345 0.11685 0.63982 0.0
C203 C 0.64678 0.15743 0.62071 0.0
C204 C 0.68882 0.22617 0.63958 0.0
C205 C 0.75566 0.26557 0.61697 0.0
C206 C 0.78221 0.23784 0.57412 0.0
C207 C 0.73936 0.16984 0.55381 0.0
C208 C 0.67287 0.13013 0.57709 0.0
C209 C 0.42522 0.09171 0.49434 0.0
C210 C 0.54808 0.29835 0.56305 0.0
C211 C 0.32775 0.26038 0.53946 0.0
C212 C 0.27719 0.27226 0.57182 0.0
C213 C 0.22783 0.22168 0.60923 0.0
C214 C 0.17704 0.23155 0.63609 0.0
C215 C 0.17516 0.29222 0.6263 0.0
C216 C 0.22877 0.34562 0.59424 0.0
C217 C 0.27947 0.33559 0.567 0.0
C218 C 0.40834 0.21123 0.69315 0.0
C219 C 0.31284 1.04606 0.63025 0.0
O220 O 0.54967 0.14535 0.67756 0.0
O221 O 0.5304 0.08411 0.59632 0.0
O222 O 0.48954 0.12283 0.50886 0.0
O223 O 0.39229 0.10138 0.53552 0.0
O224 O 0.55129 0.2585 0.60369 0.0
O225 O 0.49478 0.27085 0.52722 0.0
O226 O 0.30875 0.19738 0.5219 0.0
O227 O 0.38899 0.29222 0.56263 0.0
O228 O 0.35144 0.1877 0.66476 0.0
O229 O 0.45817 0.22364 0.65829 0.0
O230 O 0.30835 0.08918 0.59341 0.0
O231 O 0.37318 1.05726 0.65006 0.0
H232 H 0.67012 0.24983 0.67172 0.0
H233 H 0.78716 0.31753 0.63411 0.0
H234 H 0.75788 0.14627 0.52139 0.0
H235 H 0.64149 0.07788 0.56055 0.0
H236 H 0.22635 0.17317 0.61515 0.0
H237 H 0.13542 0.18916 0.65963 0.0
H238 H 0.22734 0.39204 0.58459 0.0
H239 H 0.31832 0.37588 0.53954 0.0
Nd240 Nd 0.71671 0.754 0.3423 0.0
Nd241 Nd 0.80533 0.89359 0.3664 0.0
C242 C 0.61637 0.63075 0.31251 0.0
C243 C 0.54361 0.60092 0.3328 0.0
C244 C 0.50216 0.62675 0.31159 0.0
C245 C 0.43578 0.6025 0.33422 0.0
C246 C 0.4086 0.5517 0.37887 0.0
C247 C 0.4508 0.52742 0.4015 0.0
C248 C 0.51723 0.55149 0.3786 0.0
C249 C 0.77318 0.76461 0.45511 0.0
C250 C 0.65418 0.84845 0.38944 0.0
C251 C 0.90116 1.02052 0.39322 0.0
C252 C 0.93883 0.0833 0.35699 0.0
C253 C 0.98949 0.09024 0.31566 0.0
C254 C 1.03325 0.15388 0.29027 0.0
C255 C 1.0271 0.21147 0.30556 0.0
C256 C 0.97078 0.20239 0.34014 0.0
C257 C 0.92724 0.13877 0.36622 0.0
C258 C 0.74213 0.88001 0.25676 0.0
C259 C 0.87654 0.81524 0.30562 0.0
O260 O 0.64001 0.6822 0.27527 0.0
O261 O 0.66064 0.6407 0.35457 0.0
O262 O 0.70784 0.73153 0.44411 0.0
O263 O 0.80455 0.80203 0.41095 0.0
O264 O 0.645 0.79935 0.3515 0.0
O265 O 0.71162 0.87779 0.42017 0.0
O266 O 0.91429 0.97092 0.38311 0.0
O267 O 0.83621 0.99814 0.40173 0.0
O268 O 0.75339 0.92665 0.29667 0.0
O269 O 0.76407 0.84137 0.27507 0.0
O270 O 0.87927 0.87496 0.31016 0.0
O271 O 0.81746 0.75743 0.31284 0.0
H272 H 0.52084 0.66586 0.27733 0.0
H273 H 0.4049 0.62224 0.31526 0.0
H274 H 0.43174 0.48792 0.43541 0.0
H275 H 0.54809 0.53135 0.39684 0.0
H276 H 0.9989 1.04815 0.30638 0.0
H277 H 1.07724 0.16001 0.26477 0.0
H278 H 0.96601 0.24634 0.3539 0.0
H279 H 0.88777 0.13446 0.39712 0.0
Nd280 Nd 1.0137 0.69007 0.84491 0.0
Nd281 Nd 0.95656 0.77068 0.8826 0.0
C282 C 1.04209 0.59301 0.81373 0.0
C283 C 1.00139 0.5189 0.83015 0.0
C284 C 0.93379 0.47663 0.80947 0.0
C285 C 0.89417 0.40888 0.82968 0.0
C286 C 0.92048 0.3817 0.87196 0.0
C287 C 0.98734 0.42469 0.89394 0.0
C288 C 1.0273 0.49204 0.87301 0.0
C289 C 1.06075 0.74107 0.96076 0.0
C290 C 0.85689 0.61499 0.8895 0.0
C291 C 0.89138 0.83511 0.91856 0.0
C292 C 0.87946 0.88464 0.88579 0.0
C293 C 0.92801 0.92915 0.84413 0.0
C294 C 0.91763 0.97749 0.81438 0.0
C295 C 0.85862 0.98213 0.82577 0.0
C296 C 0.80709 0.93321 0.86293 0.0
C297 C 0.81752 0.88473 0.89284 0.0
C298 C 0.94331 0.75334 0.76104 0.0
C299 C 0.10756 0.85311 0.82443 0.0
O300 O 1.01559 0.61732 0.77566 0.0
O301 O 1.07134 0.635 0.85901 0.0
O302 O 1.02974 0.6765 0.94568 0.0
O303 O 1.05202 0.77375 0.91959 0.0
O304 O 0.89821 0.61265 0.84899 0.0
O305 O 0.88267 0.66834 0.92606 0.0
O306 O 0.95447 0.85501 0.93481 0.0
O307 O 0.86037 0.77342 0.89529 0.0
O308 O 0.96382 0.81041 0.7896 0.0
O309 O 0.93225 0.70464 0.79609 0.0
O310 O 1.06296 0.85721 0.86067 0.0
O311 O 0.09832 0.79279 0.80504 0.0
H312 H 0.91118 0.49589 0.77783 0.0
H313 H 0.84314 0.3773 0.8113 0.0
H314 H 1.00983 0.40571 0.92598 0.0
H315 H 1.07861 0.52351 0.89086 0.0
H316 H 0.97544 0.92878 0.83662 0.0
H317 H 0.95878 1.01569 0.78709 0.0
H318 H 0.76209 0.93705 0.87391 0.0
H319 H 0.77857 0.84931 0.92343 0.0
Nd320 Nd 0.39765 0.97921 0.34303 0.0
Nd321 Nd 0.25703 0.92389 0.37829 0.0
C322 C 0.52275 1.00407 0.31557 0.0
C323 C 0.55639 0.96387 0.33396 0.0
C324 C 0.52764 0.89365 0.31914 0.0
C325 C 0.55701 0.85543 0.34036 0.0
C326 C 0.6158 0.88587 0.37752 0.0
C327 C 0.64357 0.95571 0.39353 0.0
C328 C 0.61434 0.99407 0.372 0.0
C329 C 0.39208 1.02503 0.45904 0.0
C330 C 0.3106 0.822 0.38547 0.0
C331 C 0.12669 0.85908 0.4103 0.0
C332 C 1.0639 0.84466 0.37752 0.0
C333 C 1.06414 0.89302 0.33813 0.0
C334 C 1.00406 0.87968 0.30855 0.0
C335 C 0.94245 0.81741 0.31705 0.0
C336 C 0.94378 0.76691 0.35289 0.0
C337 C 1.004 0.78057 0.38298 0.0
C338 C 0.26425 0.91551 0.25698 0.0
C339 C 0.33222 0.07752 0.32492 0.0
O340 O 0.47201 0.97625 0.27693 0.0
O341 O 0.51018 1.03529 0.35949 0.0
O342 O 0.42605 0.99439 0.44432 0.0
O343 O 0.35135 1.01672 0.41717 0.0
O344 O 0.35521 0.86256 0.34583 0.0
O345 O 0.28387 0.84893 0.4217 0.0
O346 O 0.16936 0.92285 0.42645 0.0
O347 O 0.15781 0.82783 0.38832 0.0
O348 O 0.22685 0.9347 0.28571 0.0
O349 O 0.30025 0.90174 0.29191 0.0
O350 O 0.28273 1.03321 0.36011 0.0
O351 O 0.38218 0.06669 0.3053 0.0
H352 H 0.48231 0.86798 0.29103 0.0
H353 H 0.53439 0.80206 0.32636 0.0
H354 H 0.6894 0.98155 0.42101 0.0
H355 H 0.6372 1.04769 0.38517 0.0
H356 H 0.11013 0.94219 0.33185 0.0
H357 H 1.00467 0.92041 0.28259 0.0
H358 H 0.89718 0.71904 0.36166 0.0
H359 H 1.00318 0.74191 0.41215 0.0
Nd360 Nd 0.47499 0.36549 0.8402 0.0
Nd361 Nd 0.39301 0.22926 0.87727 0.0
C362 C 0.57304 0.48911 0.80987 0.0
C363 C 0.6464 0.52188 0.82895 0.0
C364 C 0.68852 0.49526 0.81001 0.0
C365 C 0.75541 0.52276 0.83257 0.0
C366 C 0.78194 0.57701 0.87543 0.0
C367 C 0.73902 0.6021 0.8958 0.0
C368 C 0.67247 0.57525 0.87258 0.0
C369 C 0.42475 0.36608 0.9551 0.0
C370 C 0.54781 0.2823 0.88659 0.0
C371 C 0.32743 0.09998 0.90996 0.0
C372 C 0.27684 1.03753 0.87765 0.0
C373 C 0.22742 1.0387 0.84025 0.0
C374 C 0.1766 0.97803 0.81346 0.0
C375 C 0.17478 0.91552 0.8233 0.0
C376 C 0.22844 0.91576 0.85538 0.0
C377 C 0.27916 0.97651 0.88255 0.0
C378 C 0.40827 0.22975 0.75637 0.0
C379 C 0.31248 0.29938 0.81914 0.0
O380 O 0.54928 0.43688 0.77209 0.0
O381 O 0.53001 0.47877 0.85338 0.0
O382 O 0.48911 0.39922 0.94074 0.0
O383 O 0.39182 0.32343 0.91396 0.0
O384 O 0.551 0.32538 0.846 0.0
O385 O 0.49446 0.25646 0.92234 0.0
O386 O 0.30843 0.144 0.92751 0.0
O387 O 0.38864 0.12933 0.88677 0.0
O388 O 0.35129 0.19643 0.78463 0.0
O389 O 0.45801 0.26716 0.7913 0.0
O390 O 0.308 0.25174 0.85593 0.0
O391 O 0.37283 0.3485 0.79941 0.0
H392 H 0.66984 0.45293 0.77786 0.0
H393 H 0.78697 0.50235 0.81539 0.0
H394 H 0.75752 0.64417 0.92822 0.0
H395 H 0.64104 0.59607 0.88916 0.0
H396 H 0.2259 0.08571 0.83427 0.0
H397 H 0.13494 0.97877 0.78991 0.0
H398 H 0.22706 0.86795 0.86507 0.0
H399 H 0.31804 0.97508 0.91002 0.0
Nd400 Nd 0.17872 0.43924 0.34052 0.0
Nd401 Nd 0.23794 0.36069 0.3783 0.0
C402 C 0.15051 0.53525 0.30941 0.0
C403 C 0.19133 0.60953 0.3268 0.0
C404 C 0.25967 0.65069 0.30782 0.0
C405 C 0.29958 0.71844 0.32946 0.0
C406 C 0.27281 0.74668 0.37155 0.0
C407 C 0.20515 0.70479 0.39186 0.0
C408 C 0.1649 0.63745 0.36945 0.0
C409 C 0.12748 0.38676 0.45398 0.0
C410 C 0.33348 0.51546 0.39207 0.0
C411 C 0.30381 0.29739 0.41189 0.0
C412 C 0.31713 0.24745 0.37942 0.0
C413 C 0.26878 0.19971 0.33864 0.0
C414 C 0.27935 0.14911 0.31169 0.0
C415 C 0.33851 0.14564 0.32482 0.0
C416 C 0.38995 0.19763 0.36071 0.0
C417 C 0.37925 0.24827 0.3879 0.0
C418 C 0.25653 0.38077 0.25789 0.0
C419 C 1.09105 0.27642 0.31314 0.0
O420 O 0.17745 0.51012 0.27138 0.0
O421 O 0.12047 0.49416 0.3542 0.0
O422 O 0.15685 0.45123 0.44065 0.0
O423 O 0.13915 0.35485 0.41256 0.0
O424 O 0.29367 0.51758 0.35045 0.0
O425 O 0.30646 0.46204 0.42713 0.0
O426 O 0.24045 0.277 0.42812 0.0
O427 O 0.33462 0.35887 0.38964 0.0
O428 O 0.23693 0.32354 0.28427 0.0
O429 O 0.26406 0.42814 0.29447 0.0
O430 O 0.13412 0.27334 0.35114 0.0
O431 O 0.09852 0.33608 0.29577 0.0
H432 H 0.28267 0.63055 0.27645 0.0
H433 H 0.35126 0.74917 0.31236 0.0
H434 H 0.18234 0.7246 0.42375 0.0
H435 H 0.11301 0.60676 0.38608 0.0
H436 H 0.22121 0.19922 0.33008 0.0
H437 H 0.2383 0.10867 0.28529 0.0
H438 H 0.43499 0.19486 0.37305 0.0
H439 H 0.41787 0.28576 0.41814 0.0
Nd440 Nd 0.79978 0.14848 0.84168 0.0
Nd441 Nd 0.93738 0.20539 0.87472 0.0
C442 C 0.67431 0.12029 0.81393 0.0
C443 C 0.64147 0.16191 0.83115 0.0
C444 C 0.66799 0.22981 0.81144 0.0
C445 C 0.64014 0.27019 0.83219 0.0
C446 C 0.58565 0.24437 0.87402 0.0
C447 C 0.56055 0.17719 0.89506 0.0
C448 C 0.58779 0.1365 0.87367 0.0
C449 C 0.80567 0.10626 0.95794 0.0
C450 C 0.88335 0.30647 0.88459 0.0
C451 C 1.06765 0.27364 0.90595 0.0
C452 C 0.12984 0.28594 0.8734 0.0
C453 C 0.12814 0.23654 0.83272 0.0
C454 C 0.18845 0.2465 0.80541 0.0
C455 C 0.25114 0.30607 0.81807 0.0
C456 C 0.25147 0.35853 0.8537 0.0
C457 C 0.19108 0.34837 0.88142 0.0
C458 C 0.93037 0.21095 0.75312 0.0
C459 C 0.86549 1.0503 0.82318 0.0
O460 O 0.72432 0.14528 0.77458 0.0
O461 O 0.68763 0.09236 0.85889 0.0
O462 O 0.772 0.1368 0.94325 0.0
O463 O 0.84598 0.11284 0.91581 0.0
O464 O 0.83962 0.26485 0.84437 0.0
O465 O 0.91016 0.28044 0.92035 0.0
O466 O 1.02576 0.2109 0.92367 0.0
O467 O 1.03592 0.30273 0.88239 0.0
O468 O 0.9659 0.19017 0.78155 0.0
O469 O 0.89472 0.22581 0.78848 0.0
O470 O 0.91523 0.09673 0.85738 0.0
O471 O 0.81503 1.05976 0.80396 0.0
H472 H 0.71051 0.25203 0.78008 0.0
H473 H 0.66055 0.32142 0.81447 0.0
H474 H 0.51822 0.155 0.92663 0.0
H475 H 0.56701 0.08497 0.89077 0.0
H476 H 1.08099 0.18868 0.82463 0.0
H477 H 0.18728 0.20466 0.77932 0.0
H478 H 0.29945 0.40394 0.86567 0.0
H479 H 0.19293 0.38772 0.9116 0.0
loop_
_geom_bond_atom_site_label_1
_geom_bond_atom_site_label_2
_geom_bond_distance
_geom_bond_site_symmetry_2
_ccdc_geom_bond_type
Nd0 C2 2.836 . S
Nd0 O20 2.500 . S
Nd0 O21 2.492 . S
Nd0 O22 2.487 1_554 S
Nd0 O23 2.682 . S
Nd0 O24 2.410 . S
Nd0 O29 2.414 . S
Nd0 O31 2.424 . S
Nd1 C11 2.836 . S
Nd1 O23 2.414 . S
Nd1 O25 2.424 . S
Nd1 O26 2.500 . S
Nd1 O27 2.492 . S
Nd1 O28 2.487 . S
Nd1 O29 2.682 . S
Nd1 O30 2.410 . S
C2 Nd0 2.836 . S
C2 C3 1.498 . S
C2 O20 1.258 . S
C2 O21 1.239 . S
C3 C2 1.498 . S
C3 C4 1.366 . S
C3 C8 1.407 . S
C4 C3 1.366 . S
C4 C5 1.392 . S
C4 H32 0.930 . S
C5 C4 1.392 . S
C5 C6 1.398 . S
C5 H33 0.929 . S
C6 C5 1.398 . S
C6 C7 1.352 . S
C7 C6 1.352 . S
C7 C8 1.384 . S
C7 H34 0.930 . S
C8 C3 1.407 . S
C8 C7 1.384 . S
C8 H35 0.929 . S
C9 O22 1.241 . S
C9 O23 1.273 1_556 S
C10 O24 1.251 . S
C10 O25 1.268 . S
C11 Nd1 2.836 . S
C11 C12 1.498 1_455 S
C11 O26 1.258 . S
C11 O27 1.239 . S
C12 C11 1.498 1_655 S
C12 C13 1.366 . S
C12 C17 1.407 . S
C13 C12 1.366 . S
C13 C14 1.392 1_545 S
C13 H36 0.930 1_554 S
C14 C13 1.392 1_565 S
C14 C15 1.398 . S
C14 H37 0.929 1_554 S
C15 C14 1.398 . S
C15 C16 1.352 1_565 S
C16 C15 1.352 1_545 S
C16 C17 1.384 . S
C16 H38 0.930 1_545 S
C17 C12 1.407 . S
C17 C16 1.384 . S
C17 H39 0.929 . S
C18 O28 1.241 . S
C18 O29 1.273 . S
C19 O30 1.251 . S
C19 O31 1.268 . S
O20 Nd0 2.500 . S
O20 C2 1.258 . S
O21 Nd0 2.492 . S
O21 C2 1.239 . S
O22 Nd0 2.487 1_556 S
O22 C9 1.241 . S
O23 Nd0 2.682 . S
O23 Nd1 2.414 . S
O23 C9 1.273 1_554 S
O24 Nd0 2.410 . S
O24 C10 1.251 . S
O25 Nd1 2.424 . S
O25 C10 1.268 . S
O26 Nd1 2.500 . S
O26 C11 1.258 . S
O27 Nd1 2.492 . S
O27 C11 1.239 . S
O28 Nd1 2.487 . S
O28 C18 1.241 . S
O29 Nd0 2.414 . S
O29 Nd1 2.682 . S
O29 C18 1.273 . S
O30 Nd1 2.410 . S
O30 C19 1.251 . S
O31 Nd0 2.424 . S
O31 C19 1.268 . S
H32 C4 0.930 . S
H33 C5 0.929 . S
H34 C7 0.930 . S
H35 C8 0.929 . S
H36 C13 0.930 1_556 S
H37 C14 0.929 1_556 S
H38 C16 0.930 1_565 S
H39 C17 0.929 . S
Nd40 C42 2.836 . S
Nd40 O60 2.500 . S
Nd40 O61 2.492 . S
Nd40 O62 2.487 . S
Nd40 O63 2.682 . S
Nd40 O64 2.410 . S
Nd40 O69 2.414 . S
Nd40 O71 2.424 . S
Nd41 C51 2.836 . S
Nd41 O63 2.414 . S
Nd41 O65 2.424 . S
Nd41 O66 2.500 . S
Nd41 O67 2.492 . S
Nd41 O68 2.487 . S
Nd41 O69 2.682 . S
Nd41 O70 2.410 . S
C42 Nd40 2.836 . S
C42 C43 1.498 . S
C42 O60 1.258 . S
C42 O61 1.239 . S
C43 C42 1.498 . S
C43 C44 1.366 . S
C43 C48 1.407 . S
C44 C43 1.366 . S
C44 C45 1.392 . S
C44 H72 0.930 . S
C45 C44 1.392 . S
C45 C46 1.398 . S
C45 H73 0.929 . S
C46 C45 1.398 . S
C46 C47 1.352 . S
C47 C46 1.352 . S
C47 C48 1.384 . S
C47 H74 0.930 . S
C48 C43 1.407 . S
C48 C47 1.384 . S
C48 H75 0.929 . S
C49 O62 1.241 . S
C49 O63 1.273 . S
C50 O64 1.251 . S
C50 O65 1.268 . S
C51 Nd41 2.836 . S
C51 C52 1.498 1_545 S
C51 O66 1.258 . S
C51 O67 1.239 . S
C52 C51 1.498 1_565 S
C52 C53 1.366 . S
C52 C57 1.407 . S
C53 C52 1.366 . S
C53 C54 1.392 . S
C53 H76 0.930 . S
C54 C53 1.392 . S
C54 C55 1.398 . S
C54 H77 0.929 . S
C55 C54 1.398 . S
C55 C56 1.352 . S
C56 C55 1.352 . S
C56 C57 1.384 . S
C56 H78 0.930 . S
C57 C52 1.407 . S
C57 C56 1.384 . S
C57 H79 0.929 . S
C58 O68 1.241 . S
C58 O69 1.273 . S
C59 O70 1.251 . S
C59 O71 1.268 . S
O60 Nd40 2.500 . S
O60 C42 1.258 . S
O61 Nd40 2.492 . S
O61 C42 1.239 . S
O62 Nd40 2.487 . S
O62 C49 1.241 . S
O63 Nd40 2.682 . S
O63 Nd41 2.414 . S
O63 C49 1.273 . S
O64 Nd40 2.410 . S
O64 C50 1.251 . S
O65 Nd41 2.424 . S
O65 C50 1.268 . S
O66 Nd41 2.500 . S
O66 C51 1.258 . S
O67 Nd41 2.492 . S
O67 C51 1.239 . S
O68 Nd41 2.487 . S
O68 C58 1.241 . S
O69 Nd40 2.414 . S
O69 Nd41 2.682 . S
O69 C58 1.273 . S
O70 Nd41 2.410 . S
O70 C59 1.251 . S
O71 Nd40 2.424 . S
O71 C59 1.268 . S
H72 C44 0.930 . S
H73 C45 0.929 . S
H74 C47 0.930 . S
H75 C48 0.929 . S
H76 C53 0.930 . S
H77 C54 0.929 . S
H78 C56 0.930 . S
H79 C57 0.929 . S
Nd80 C82 2.836 . S
Nd80 O100 2.500 . S
Nd80 O101 2.492 . S
Nd80 O102 2.487 1_554 S
Nd80 O103 2.682 . S
Nd80 O104 2.410 . S
Nd80 O109 2.414 . S
Nd80 O111 2.424 . S
Nd81 C91 2.836 . S
Nd81 O103 2.414 . S
Nd81 O105 2.424 . S
Nd81 O106 2.500 . S
Nd81 O107 2.492 . S
Nd81 O108 2.487 . S
Nd81 O109 2.682 . S
Nd81 O110 2.410 . S
C82 Nd80 2.836 . S
C82 C83 1.498 . S
C82 O100 1.258 . S
C82 O101 1.239 . S
C83 C82 1.498 . S
C83 C84 1.366 . S
C83 C88 1.407 . S
C84 C83 1.366 . S
C84 C85 1.392 . S
C84 H112 0.930 . S
C85 C84 1.392 . S
C85 C86 1.398 . S
C85 H113 0.929 . S
C86 C85 1.398 . S
C86 C87 1.352 . S
C87 C86 1.352 . S
C87 C88 1.384 . S
C87 H114 0.930 . S
C88 C83 1.407 . S
C88 C87 1.384 . S
C88 H115 0.929 . S
C89 O102 1.241 . S
C89 O103 1.273 1_556 S
C90 O104 1.251 . S
C90 O105 1.268 . S
C91 Nd81 2.836 . S
C91 C92 1.498 . S
C91 O106 1.258 . S
C91 O107 1.239 . S
C92 C91 1.498 . S
C92 C93 1.366 . S
C92 C97 1.407 . S
C93 C92 1.366 . S
C93 C94 1.392 1_655 S
C93 H116 0.930 1_554 S
C94 C93 1.392 1_455 S
C94 C95 1.398 . S
C94 H117 0.929 1_554 S
C95 C94 1.398 . S
C95 C96 1.352 1_455 S
C96 C95 1.352 1_655 S
C96 C97 1.384 . S
C96 H118 0.930 1_655 S
C97 C92 1.407 . S
C97 C96 1.384 . S
C97 H119 0.929 . S
C98 O108 1.241 . S
C98 O109 1.273 . S
C99 O110 1.251 . S
C99 O111 1.268 . S
O100 Nd80 2.500 . S
O100 C82 1.258 . S
O101 Nd80 2.492 . S
O101 C82 1.239 . S
O102 Nd80 2.487 1_556 S
O102 C89 1.241 . S
O103 Nd80 2.682 . S
O103 Nd81 2.414 . S
O103 C89 1.273 1_554 S
O104 Nd80 2.410 . S
O104 C90 1.251 . S
O105 Nd81 2.424 . S
O105 C90 1.268 . S
O106 Nd81 2.500 . S
O106 C91 1.258 . S
O107 Nd81 2.492 . S
O107 C91 1.239 . S
O108 Nd81 2.487 . S
O108 C98 1.241 . S
O109 Nd80 2.414 . S
O109 Nd81 2.682 . S
O109 C98 1.273 . S
O110 Nd81 2.410 . S
O110 C99 1.251 . S
O111 Nd80 2.424 . S
O111 C99 1.268 . S
H112 C84 0.930 . S
H113 C85 0.929 . S
H114 C87 0.930 . S
H115 C88 0.929 . S
H116 C93 0.930 1_556 S
H117 C94 0.929 1_556 S
H118 C96 0.930 1_455 S
H119 C97 0.929 . S
Nd120 C122 2.836 . S
Nd120 O140 2.500 . S
Nd120 O141 2.492 . S
Nd120 O142 2.487 . S
Nd120 O143 2.682 . S
Nd120 O144 2.410 . S
Nd120 O149 2.414 . S
Nd120 O151 2.424 . S
Nd121 C131 2.836 . S
Nd121 O143 2.414 . S
Nd121 O145 2.424 . S
Nd121 O146 2.500 . S
Nd121 O147 2.492 . S
Nd121 O148 2.487 . S
Nd121 O149 2.682 . S
Nd121 O150 2.410 . S
C122 Nd120 2.836 . S
C122 C123 1.498 . S
C122 O140 1.258 . S
C122 O141 1.239 . S
C123 C122 1.498 . S
C123 C124 1.366 . S
C123 C128 1.407 . S
C124 C123 1.366 . S
C124 C125 1.392 . S
C124 H152 0.930 . S
C125 C124 1.392 . S
C125 C126 1.398 . S
C125 H153 0.929 . S
C126 C125 1.398 . S
C126 C127 1.352 . S
C127 C126 1.352 . S
C127 C128 1.384 . S
C127 H154 0.930 . S
C128 C123 1.407 . S
C128 C127 1.384 . S
C128 H155 0.929 . S
C129 O142 1.241 . S
C129 O143 1.273 . S
C130 O144 1.251 . S
C130 O145 1.268 . S
C131 Nd121 2.836 . S
C131 C132 1.498 1_655 S
C131 O146 1.258 . S
C131 O147 1.239 . S
C132 C131 1.498 1_455 S
C132 C133 1.366 . S
C132 C137 1.407 . S
C133 C132 1.366 . S
C133 C134 1.392 1_565 S
C133 H156 0.930 . S
C134 C133 1.392 1_545 S
C134 C135 1.398 . S
C134 H157 0.929 . S
C135 C134 1.398 . S
C135 C136 1.352 1_545 S
C136 C135 1.352 1_565 S
C136 C137 1.384 . S
C136 H158 0.930 1_565 S
C137 C132 1.407 . S
C137 C136 1.384 . S
C137 H159 0.929 . S
C138 O148 1.241 . S
C138 O149 1.273 . S
C139 O150 1.251 . S
C139 O151 1.268 . S
O140 Nd120 2.500 . S
O140 C122 1.258 . S
O141 Nd120 2.492 . S
O141 C122 1.239 . S
O142 Nd120 2.487 . S
O142 C129 1.241 . S
O143 Nd120 2.682 . S
O143 Nd121 2.414 . S
O143 C129 1.273 . S
O144 Nd120 2.410 . S
O144 C130 1.251 . S
O145 Nd121 2.424 . S
O145 C130 1.268 . S
O146 Nd121 2.500 . S
O146 C131 1.258 . S
O147 Nd121 2.492 . S
O147 C131 1.239 . S
O148 Nd121 2.487 . S
O148 C138 1.241 . S
O149 Nd120 2.414 . S
O149 Nd121 2.682 . S
O149 C138 1.273 . S
O150 Nd121 2.410 . S
O150 C139 1.251 . S
O151 Nd120 2.424 . S
O151 C139 1.268 . S
H152 C124 0.930 . S
H153 C125 0.929 . S
H154 C127 0.930 . S
H155 C128 0.929 . S
H156 C133 0.930 . S
H157 C134 0.929 . S
H158 C136 0.930 1_545 S
H159 C137 0.929 . S
Nd160 C162 2.836 . S
Nd160 O180 2.500 . S
Nd160 O181 2.492 . S
Nd160 O182 2.487 1_554 S
Nd160 O183 2.682 . S
Nd160 O184 2.410 . S
Nd160 O189 2.414 . S
Nd160 O191 2.424 . S
Nd161 C171 2.836 . S
Nd161 O183 2.414 . S
Nd161 O185 2.424 . S
Nd161 O186 2.500 . S
Nd161 O187 2.492 . S
Nd161 O188 2.487 . S
Nd161 O189 2.682 . S
Nd161 O190 2.410 . S
C162 Nd160 2.836 . S
C162 C163 1.498 . S
C162 O180 1.258 . S
C162 O181 1.239 . S
C163 C162 1.498 . S
C163 C164 1.366 . S
C163 C168 1.407 . S
C164 C163 1.366 . S
C164 C165 1.392 . S
C164 H192 0.930 . S
C165 C164 1.392 . S
C165 C166 1.398 . S
C165 H193 0.929 . S
C166 C165 1.398 . S
C166 C167 1.352 . S
C167 C166 1.352 . S
C167 C168 1.384 . S
C167 H194 0.930 . S
C168 C163 1.407 . S
C168 C167 1.384 . S
C168 H195 0.929 . S
C169 O182 1.241 . S
C169 O183 1.273 1_556 S
C170 O184 1.251 . S
C170 O185 1.268 . S
C171 Nd161 2.836 . S
C171 C172 1.498 1_565 S
C171 O186 1.258 . S
C171 O187 1.239 . S
C172 C171 1.498 1_545 S
C172 C173 1.366 . S
C172 C177 1.407 . S
C173 C172 1.366 . S
C173 C174 1.392 . S
C173 H196 0.930 1_554 S
C174 C173 1.392 . S
C174 C175 1.398 . S
C174 H197 0.929 1_554 S
C175 C174 1.398 . S
C175 C176 1.352 . S
C176 C175 1.352 . S
C176 C177 1.384 . S
C176 H198 0.930 . S
C177 C172 1.407 . S
C177 C176 1.384 . S
C177 H199 0.929 . S
C178 O188 1.241 . S
C178 O189 1.273 . S
C179 O190 1.251 . S
C179 O191 1.268 . S
O180 Nd160 2.500 . S
O180 C162 1.258 . S
O181 Nd160 2.492 . S
O181 C162 1.239 . S
O182 Nd160 2.487 1_556 S
O182 C169 1.241 . S
O183 Nd160 2.682 . S
O183 Nd161 2.414 . S
O183 C169 1.273 1_554 S
O184 Nd160 2.410 . S
O184 C170 1.251 . S
O185 Nd161 2.424 . S
O185 C170 1.268 . S
O186 Nd161 2.500 . S
O186 C171 1.258 . S
O187 Nd161 2.492 . S
O187 C171 1.239 . S
O188 Nd161 2.487 . S
O188 C178 1.241 . S
O189 Nd160 2.414 . S
O189 Nd161 2.682 . S
O189 C178 1.273 . S
O190 Nd161 2.410 . S
O190 C179 1.251 . S
O191 Nd160 2.424 . S
O191 C179 1.268 . S
H192 C164 0.930 . S
H193 C165 0.929 . S
H194 C167 0.930 . S
H195 C168 0.929 . S
H196 C173 0.930 1_556 S
H197 C174 0.929 1_556 S
H198 C176 0.930 . S
H199 C177 0.929 . S
Nd200 C202 2.836 . S
Nd200 O220 2.500 . S
Nd200 O221 2.492 . S
Nd200 O222 2.487 . S
Nd200 O223 2.682 . S
Nd200 O224 2.410 . S
Nd200 O229 2.414 . S
Nd200 O231 2.424 . S
Nd201 C211 2.836 . S
Nd201 O223 2.414 . S
Nd201 O225 2.424 . S
Nd201 O226 2.500 . S
Nd201 O227 2.492 . S
Nd201 O228 2.487 . S
Nd201 O229 2.682 . S
Nd201 O230 2.410 . S
C202 Nd200 2.836 . S
C202 C203 1.498 . S
C202 O220 1.258 . S
C202 O221 1.239 . S
C203 C202 1.498 . S
C203 C204 1.366 . S
C203 C208 1.407 . S
C204 C203 1.366 . S
C204 C205 1.392 . S
C204 H232 0.930 . S
C205 C204 1.392 . S
C205 C206 1.398 . S
C205 H233 0.929 . S
C206 C205 1.398 . S
C206 C207 1.352 . S
C207 C206 1.352 . S
C207 C208 1.384 . S
C207 H234 0.930 . S
C208 C203 1.407 . S
C208 C207 1.384 . S
C208 H235 0.929 . S
C209 O222 1.241 . S
C209 O223 1.273 . S
C210 O224 1.251 . S
C210 O225 1.268 . S
C211 Nd201 2.836 . S
C211 C212 1.498 . S
C211 O226 1.258 . S
C211 O227 1.239 . S
C212 C211 1.498 . S
C212 C213 1.366 . S
C212 C217 1.407 . S
C213 C212 1.366 . S
C213 C214 1.392 1_455 S
C213 H236 0.930 . S
C214 C213 1.392 1_655 S
C214 C215 1.398 . S
C214 H237 0.929 . S
C215 C214 1.398 . S
C215 C216 1.352 1_655 S
C216 C215 1.352 1_455 S
C216 C217 1.384 . S
C216 H238 0.930 1_455 S
C217 C212 1.407 . S
C217 C216 1.384 . S
C217 H239 0.929 . S
C218 O228 1.241 . S
C218 O229 1.273 . S
C219 O230 1.251 . S
C219 O231 1.268 . S
O220 Nd200 2.500 . S
O220 C202 1.258 . S
O221 Nd200 2.492 . S
O221 C202 1.239 . S
O222 Nd200 2.487 . S
O222 C209 1.241 . S
O223 Nd200 2.682 . S
O223 Nd201 2.414 . S
O223 C209 1.273 . S
O224 Nd200 2.410 . S
O224 C210 1.251 . S
O225 Nd201 2.424 . S
O225 C210 1.268 . S
O226 Nd201 2.500 . S
O226 C211 1.258 . S
O227 Nd201 2.492 . S
O227 C211 1.239 . S
O228 Nd201 2.487 . S
O228 C218 1.241 . S
O229 Nd200 2.414 . S
O229 Nd201 2.682 . S
O229 C218 1.273 . S
O230 Nd201 2.410 . S
O230 C219 1.251 . S
O231 Nd200 2.424 . S
O231 C219 1.268 . S
H232 C204 0.930 . S
H233 C205 0.929 . S
H234 C207 0.930 . S
H235 C208 0.929 . S
H236 C213 0.930 . S
H237 C214 0.929 . S
H238 C216 0.930 1_655 S
H239 C217 0.929 . S
Nd240 C242 2.836 . S
Nd240 O260 2.500 . S
Nd240 O261 2.492 . S
Nd240 O262 2.487 . S
Nd240 O263 2.682 . S
Nd240 O264 2.410 . S
Nd240 O269 2.414 . S
Nd240 O271 2.424 . S
Nd241 C251 2.836 . S
Nd241 O263 2.414 . S
Nd241 O265 2.424 . S
Nd241 O266 2.500 . S
Nd241 O267 2.492 . S
Nd241 O268 2.487 . S
Nd241 O269 2.682 . S
Nd241 O270 2.410 . S
C242 Nd240 2.836 . S
C242 C243 1.498 . S
C242 O260 1.258 . S
C242 O261 1.239 . S
C243 C242 1.498 . S
C243 C244 1.366 . S
C243 C248 1.407 . S
C244 C243 1.366 . S
C244 C245 1.392 . S
C244 H272 0.930 . S
C245 C244 1.392 . S
C245 C246 1.398 . S
C245 H273 0.929 . S
C246 C245 1.398 . S
C246 C247 1.352 . S
C247 C246 1.352 . S
C247 C248 1.384 . S
C247 H274 0.930 . S
C248 C243 1.407 . S
C248 C247 1.384 . S
C248 H275 0.929 . S
C249 O262 1.241 . S
C249 O263 1.273 . S
C250 O264 1.251 . S
C250 O265 1.268 . S
C251 Nd241 2.836 . S
C251 C252 1.498 1_565 S
C251 O266 1.258 . S
C251 O267 1.239 . S
C252 C251 1.498 1_545 S
C252 C253 1.366 . S
C252 C257 1.407 . S
C253 C252 1.366 . S
C253 C254 1.392 1_655 S
C253 H276 0.930 . S
C254 C253 1.392 1_455 S
C254 C255 1.398 . S
C254 H277 0.929 . S
C255 C254 1.398 . S
C255 C256 1.352 1_455 S
C256 C255 1.352 1_655 S
C256 C257 1.384 . S
C256 H278 0.930 1_655 S
C257 C252 1.407 . S
C257 C256 1.384 . S
C257 H279 0.929 . S
C258 O268 1.241 . S
C258 O269 1.273 . S
C259 O270 1.251 . S
C259 O271 1.268 . S
O260 Nd240 2.500 . S
O260 C242 1.258 . S
O261 Nd240 2.492 . S
O261 C242 1.239 . S
O262 Nd240 2.487 . S
O262 C249 1.241 . S
O263 Nd240 2.682 . S
O263 Nd241 2.414 . S
O263 C249 1.273 . S
O264 Nd240 2.410 . S
O264 C250 1.251 . S
O265 Nd241 2.424 . S
O265 C250 1.268 . S
O266 Nd241 2.500 . S
O266 C251 1.258 . S
O267 Nd241 2.492 . S
O267 C251 1.239 . S
O268 Nd241 2.487 . S
O268 C258 1.241 . S
O269 Nd240 2.414 . S
O269 Nd241 2.682 . S
O269 C258 1.273 . S
O270 Nd241 2.410 . S
O270 C259 1.251 . S
O271 Nd240 2.424 . S
O271 C259 1.268 . S
H272 C244 0.930 . S
H273 C245 0.929 . S
H274 C247 0.930 . S
H275 C248 0.929 . S
H276 C253 0.930 . S
H277 C254 0.929 . S
H278 C256 0.930 1_455 S
H279 C257 0.929 . S
Nd280 C282 2.836 . S
Nd280 O300 2.500 . S
Nd280 O301 2.492 . S
Nd280 O302 2.487 1_556 S
Nd280 O303 2.682 . S
Nd280 O304 2.410 . S
Nd280 O309 2.414 . S
Nd280 O311 2.424 . S
Nd281 C291 2.836 . S
Nd281 O303 2.414 . S
Nd281 O305 2.424 . S
Nd281 O306 2.500 . S
Nd281 O307 2.492 . S
Nd281 O308 2.487 . S
Nd281 O309 2.682 . S
Nd281 O310 2.410 . S
C282 Nd280 2.836 . S
C282 C283 1.498 . S
C282 O300 1.258 . S
C282 O301 1.239 . S
C283 C282 1.498 . S
C283 C284 1.366 . S
C283 C288 1.407 . S
C284 C283 1.366 . S
C284 C285 1.392 . S
C284 H312 0.930 . S
C285 C284 1.392 . S
C285 C286 1.398 . S
C285 H313 0.929 . S
C286 C285 1.398 . S
C286 C287 1.352 . S
C287 C286 1.352 . S
C287 C288 1.384 . S
C287 H314 0.930 . S
C288 C283 1.407 . S
C288 C287 1.384 . S
C288 H315 0.929 . S
C289 O302 1.241 . S
C289 O303 1.273 1_554 S
C290 O304 1.251 . S
C290 O305 1.268 . S
C291 Nd281 2.836 . S
C291 C292 1.498 . S
C291 O306 1.258 . S
C291 O307 1.239 . S
C292 C291 1.498 . S
C292 C293 1.366 . S
C292 C297 1.407 . S
C293 C292 1.366 . S
C293 C294 1.392 1_565 S
C293 H316 0.930 1_556 S
C294 C293 1.392 1_545 S
C294 C295 1.398 . S
C294 H317 0.929 1_556 S
C295 C294 1.398 . S
C295 C296 1.352 1_545 S
C296 C295 1.352 1_565 S
C296 C297 1.384 . S
C296 H318 0.930 1_565 S
C297 C292 1.407 . S
C297 C296 1.384 . S
C297 H319 0.929 . S
C298 O308 1.241 . S
C298 O309 1.273 . S
C299 O310 1.251 . S
C299 O311 1.268 . S
O300 Nd280 2.500 . S
O300 C282 1.258 . S
O301 Nd280 2.492 . S
O301 C282 1.239 . S
O302 Nd280 2.487 1_554 S
O302 C289 1.241 . S
O303 Nd280 2.682 . S
O303 Nd281 2.414 . S
O303 C289 1.273 1_556 S
O304 Nd280 2.410 . S
O304 C290 1.251 . S
O305 Nd281 2.424 . S
O305 C290 1.268 . S
O306 Nd281 2.500 . S
O306 C291 1.258 . S
O307 Nd281 2.492 . S
O307 C291 1.239 . S
O308 Nd281 2.487 . S
O308 C298 1.241 . S
O309 Nd280 2.414 . S
O309 Nd281 2.682 . S
O309 C298 1.273 . S
O310 Nd281 2.410 . S
O310 C299 1.251 . S
O311 Nd280 2.424 . S
O311 C299 1.268 . S
H312 C284 0.930 . S
H313 C285 0.929 . S
H314 C287 0.930 . S
H315 C288 0.929 . S
H316 C293 0.930 1_554 S
H317 C294 0.929 1_554 S
H318 C296 0.930 1_545 S
H319 C297 0.929 . S
Nd320 C322 2.836 . S
Nd320 O340 2.500 . S
Nd320 O341 2.492 . S
Nd320 O342 2.487 . S
Nd320 O343 2.682 . S
Nd320 O344 2.410 . S
Nd320 O349 2.414 . S
Nd320 O351 2.424 . S
Nd321 C331 2.836 . S
Nd321 O343 2.414 . S
Nd321 O345 2.424 . S
Nd321 O346 2.500 . S
Nd321 O347 2.492 . S
Nd321 O348 2.487 . S
Nd321 O349 2.682 . S
Nd321 O350 2.410 . S
C322 Nd320 2.836 . S
C322 C323 1.498 . S
C322 O340 1.258 . S
C322 O341 1.239 . S
C323 C322 1.498 . S
C323 C324 1.366 . S
C323 C328 1.407 . S
C324 C323 1.366 . S
C324 C325 1.392 . S
C324 H352 0.930 . S
C325 C324 1.392 . S
C325 C326 1.398 . S
C325 H353 0.929 . S
C326 C325 1.398 . S
C326 C327 1.352 . S
C327 C326 1.352 . S
C327 C328 1.384 . S
C327 H354 0.930 . S
C328 C323 1.407 . S
C328 C327 1.384 . S
C328 H355 0.929 . S
C329 O342 1.241 . S
C329 O343 1.273 . S
C330 O344 1.251 . S
C330 O345 1.268 . S
C331 Nd321 2.836 . S
C331 C332 1.498 1_455 S
C331 O346 1.258 . S
C331 O347 1.239 . S
C332 C331 1.498 1_655 S
C332 C333 1.366 . S
C332 C337 1.407 . S
C333 C332 1.366 . S
C333 C334 1.392 . S
C333 H356 0.930 . S
C334 C333 1.392 . S
C334 C335 1.398 . S
C334 H357 0.929 . S
C335 C334 1.398 . S
C335 C336 1.352 . S
C336 C335 1.352 . S
C336 C337 1.384 . S
C336 H358 0.930 . S
C337 C332 1.407 . S
C337 C336 1.384 . S
C337 H359 0.929 . S
C338 O348 1.241 . S
C338 O349 1.273 . S
C339 O350 1.251 . S
C339 O351 1.268 . S
O340 Nd320 2.500 . S
O340 C322 1.258 . S
O341 Nd320 2.492 . S
O341 C322 1.239 . S
O342 Nd320 2.487 . S
O342 C329 1.241 . S
O343 Nd320 2.682 . S
O343 Nd321 2.414 . S
O343 C329 1.273 . S
O344 Nd320 2.410 . S
O344 C330 1.251 . S
O345 Nd321 2.424 . S
O345 C330 1.268 . S
O346 Nd321 2.500 . S
O346 C331 1.258 . S
O347 Nd321 2.492 . S
O347 C331 1.239 . S
O348 Nd321 2.487 . S
O348 C338 1.241 . S
O349 Nd320 2.414 . S
O349 Nd321 2.682 . S
O349 C338 1.273 . S
O350 Nd321 2.410 . S
O350 C339 1.251 . S
O351 Nd320 2.424 . S
O351 C339 1.268 . S
H352 C324 0.930 . S
H353 C325 0.929 . S
H354 C327 0.930 . S
H355 C328 0.929 . S
H356 C333 0.930 . S
H357 C334 0.929 . S
H358 C336 0.930 . S
H359 C337 0.929 . S
Nd360 C362 2.836 . S
Nd360 O380 2.500 . S
Nd360 O381 2.492 . S
Nd360 O382 2.487 1_556 S
Nd360 O383 2.682 . S
Nd360 O384 2.410 . S
Nd360 O389 2.414 . S
Nd360 O391 2.424 . S
Nd361 C371 2.836 . S
Nd361 O383 2.414 . S
Nd361 O385 2.424 . S
Nd361 O386 2.500 . S
Nd361 O387 2.492 . S
Nd361 O388 2.487 . S
Nd361 O389 2.682 . S
Nd361 O390 2.410 . S
C362 Nd360 2.836 . S
C362 C363 1.498 . S
C362 O380 1.258 . S
C362 O381 1.239 . S
C363 C362 1.498 . S
C363 C364 1.366 . S
C363 C368 1.407 . S
C364 C363 1.366 . S
C364 C365 1.392 . S
C364 H392 0.930 . S
C365 C364 1.392 . S
C365 C366 1.398 . S
C365 H393 0.929 . S
C366 C365 1.398 . S
C366 C367 1.352 . S
C367 C366 1.352 . S
C367 C368 1.384 . S
C367 H394 0.930 . S
C368 C363 1.407 . S
C368 C367 1.384 . S
C368 H395 0.929 . S
C369 O382 1.241 . S
C369 O383 1.273 1_554 S
C370 O384 1.251 . S
C370 O385 1.268 . S
C371 Nd361 2.836 . S
C371 C372 1.498 1_545 S
C371 O386 1.258 . S
C371 O387 1.239 . S
C372 C371 1.498 1_565 S
C372 C373 1.366 . S
C372 C377 1.407 . S
C373 C372 1.366 . S
C373 C374 1.392 1_455 S
C373 H396 0.930 1_556 S
C374 C373 1.392 1_655 S
C374 C375 1.398 . S
C374 H397 0.929 1_556 S
C375 C374 1.398 . S
C375 C376 1.352 1_655 S
C376 C375 1.352 1_455 S
C376 C377 1.384 . S
C376 H398 0.930 1_455 S
C377 C372 1.407 . S
C377 C376 1.384 . S
C377 H399 0.929 . S
C378 O388 1.241 . S
C378 O389 1.273 . S
C379 O390 1.251 . S
C379 O391 1.268 . S
O380 Nd360 2.500 . S
O380 C362 1.258 . S
O381 Nd360 2.492 . S
O381 C362 1.239 . S
O382 Nd360 2.487 1_554 S
O382 C369 1.241 . S
O383 Nd360 2.682 . S
O383 Nd361 2.414 . S
O383 C369 1.273 1_556 S
O384 Nd360 2.410 . S
O384 C370 1.251 . S
O385 Nd361 2.424 . S
O385 C370 1.268 . S
O386 Nd361 2.500 . S
O386 C371 1.258 . S
O387 Nd361 2.492 . S
O387 C371 1.239 . S
O388 Nd361 2.487 . S
O388 C378 1.241 . S
O389 Nd360 2.414 . S
O389 Nd361 2.682 . S
O389 C378 1.273 . S
O390 Nd361 2.410 . S
O390 C379 1.251 . S
O391 Nd360 2.424 . S
O391 C379 1.268 . S
H392 C364 0.930 . S
H393 C365 0.929 . S
H394 C367 0.930 . S
H395 C368 0.929 . S
H396 C373 0.930 1_554 S
H397 C374 0.929 1_554 S
H398 C376 0.930 1_655 S
H399 C377 0.929 . S
Nd400 C402 2.836 . S
Nd400 O420 2.500 . S
Nd400 O421 2.492 . S
Nd400 O422 2.487 . S
Nd400 O423 2.682 . S
Nd400 O424 2.410 . S
Nd400 O429 2.414 . S
Nd400 O431 2.424 . S
Nd401 C411 2.836 . S
Nd401 O423 2.414 . S
Nd401 O425 2.424 . S
Nd401 O426 2.500 . S
Nd401 O427 2.492 . S
Nd401 O428 2.487 . S
Nd401 O429 2.682 . S
Nd401 O430 2.410 . S
C402 Nd400 2.836 . S
C402 C403 1.498 . S
C402 O420 1.258 . S
C402 O421 1.239 . S
C403 C402 1.498 . S
C403 C404 1.366 . S
C403 C408 1.407 . S
C404 C403 1.366 . S
C404 C405 1.392 . S
C404 H432 0.930 . S
C405 C404 1.392 . S
C405 C406 1.398 . S
C405 H433 0.929 . S
C406 C405 1.398 . S
C406 C407 1.352 . S
C407 C406 1.352 . S
C407 C408 1.384 . S
C407 H434 0.930 . S
C408 C403 1.407 . S
C408 C407 1.384 . S
C408 H435 0.929 . S
C409 O422 1.241 . S
C409 O423 1.273 . S
C410 O424 1.251 . S
C410 O425 1.268 . S
C411 Nd401 2.836 . S
C411 C412 1.498 . S
C411 O426 1.258 . S
C411 O427 1.239 . S
C412 C411 1.498 . S
C412 C413 1.366 . S
C412 C417 1.407 . S
C413 C412 1.366 . S
C413 C414 1.392 1_545 S
C413 H436 0.930 . S
C414 C413 1.392 1_565 S
C414 C415 1.398 . S
C414 H437 0.929 . S
C415 C414 1.398 . S
C415 C416 1.352 1_565 S
C416 C415 1.352 1_545 S
C416 C417 1.384 . S
C416 H438 0.930 1_545 S
C417 C412 1.407 . S
C417 C416 1.384 . S
C417 H439 0.929 . S
C418 O428 1.241 . S
C418 O429 1.273 . S
C419 O430 1.251 . S
C419 O431 1.268 . S
O420 Nd400 2.500 . S
O420 C402 1.258 . S
O421 Nd400 2.492 . S
O421 C402 1.239 . S
O422 Nd400 2.487 . S
O422 C409 1.241 . S
O423 Nd400 2.682 . S
O423 Nd401 2.414 . S
O423 C409 1.273 . S
O424 Nd400 2.410 . S
O424 C410 1.251 . S
O425 Nd401 2.424 . S
O425 C410 1.268 . S
O426 Nd401 2.500 . S
O426 C411 1.258 . S
O427 Nd401 2.492 . S
O427 C411 1.239 . S
O428 Nd401 2.487 . S
O428 C418 1.241 . S
O429 Nd400 2.414 . S
O429 Nd401 2.682 . S
O429 C418 1.273 . S
O430 Nd401 2.410 . S
O430 C419 1.251 . S
O431 Nd400 2.424 . S
O431 C419 1.268 . S
H432 C404 0.930 . S
H433 C405 0.929 . S
H434 C407 0.930 . S
H435 C408 0.929 . S
H436 C413 0.930 . S
H437 C414 0.929 . S
H438 C416 0.930 1_565 S
H439 C417 0.929 . S
Nd440 C442 2.836 . S
Nd440 O460 2.500 . S
Nd440 O461 2.492 . S
Nd440 O462 2.487 1_556 S
Nd440 O463 2.682 . S
Nd440 O464 2.410 . S
Nd440 O469 2.414 . S
Nd440 O471 2.424 . S
Nd441 C451 2.836 . S
Nd441 O463 2.414 . S
Nd441 O465 2.424 . S
Nd441 O466 2.500 . S
Nd441 O467 2.492 . S
Nd441 O468 2.487 . S
Nd441 O469 2.682 . S
Nd441 O470 2.410 . S
C442 Nd440 2.836 . S
C442 C443 1.498 . S
C442 O460 1.258 . S
C442 O461 1.239 . S
C443 C442 1.498 . S
C443 C444 1.366 . S
C443 C448 1.407 . S
C444 C443 1.366 . S
C444 C445 1.392 . S
C444 H472 0.930 . S
C445 C444 1.392 . S
C445 C446 1.398 . S
C445 H473 0.929 . S
C446 C445 1.398 . S
C446 C447 1.352 . S
C447 C446 1.352 . S
C447 C448 1.384 . S
C447 H474 0.930 . S
C448 C443 1.407 . S
C448 C447 1.384 . S
C448 H475 0.929 . S
C449 O462 1.241 . S
C449 O463 1.273 1_554 S
C450 O464 1.251 . S
C450 O465 1.268 . S
C451 Nd441 2.836 . S
C451 C452 1.498 1_655 S
C451 O466 1.258 . S
C451 O467 1.239 . S
C452 C451 1.498 1_455 S
C452 C453 1.366 . S
C452 C457 1.407 . S
C453 C452 1.366 . S
C453 C454 1.392 . S
C453 H476 0.930 1_556 S
C454 C453 1.392 . S
C454 C455 1.398 . S
C454 H477 0.929 1_556 S
C455 C454 1.398 . S
C455 C456 1.352 . S
C456 C455 1.352 . S
C456 C457 1.384 . S
C456 H478 0.930 . S
C457 C452 1.407 . S
C457 C456 1.384 . S
C457 H479 0.929 . S
C458 O468 1.241 . S
C458 O469 1.273 . S
C459 O470 1.251 . S
C459 O471 1.268 . S
O460 Nd440 2.500 . S
O460 C442 1.258 . S
O461 Nd440 2.492 . S
O461 C442 1.239 . S
O462 Nd440 2.487 1_554 S
O462 C449 1.241 . S
O463 Nd440 2.682 . S
O463 Nd441 2.414 . S
O463 C449 1.273 1_556 S
O464 Nd440 2.410 . S
O464 C450 1.251 . S
O465 Nd441 2.424 . S
O465 C450 1.268 . S
O466 Nd441 2.500 . S
O466 C451 1.258 . S
O467 Nd441 2.492 . S
O467 C451 1.239 . S
O468 Nd441 2.487 . S
O468 C458 1.241 . S
O469 Nd440 2.414 . S
O469 Nd441 2.682 . S
O469 C458 1.273 . S
O470 Nd441 2.410 . S
O470 C459 1.251 . S
O471 Nd440 2.424 . S
O471 C459 1.268 . S
H472 C444 0.930 . S
H473 C445 0.929 . S
H474 C447 0.930 . S
H475 C448 0.929 . S
H476 C453 0.930 1_554 S
H477 C454 0.929 1_554 S
H478 C456 0.930 . S
H479 C457 0.929 . S
C175 C19 2.541 . S
C215 C59 2.541 . S
C99 C15 2.541 . S
C139 C55 2.541 . S
C179 C95 2.541 . S
C135 C219 2.541 . S
C335 C259 2.541 . S
C299 C375 2.541 . S
C415 C339 2.541 . S
C379 C455 2.541 . S
C419 C255 2.541 . S
C295 C459 2.541 . S
C166 C10 2.484 . S
C50 C206 2.483 . S
C90 C6 2.484 . S
C130 C46 2.483 . S
C86 C170 2.484 . S
C126 C210 2.484 . S
C326 C250 2.484 . S
C290 C366 2.484 . S
C330 C406 2.484 . S
C446 C370 2.483 . S
C410 C246 2.484 . S
C286 C450 2.483 . S
C418 C18 2.286 . S
C58 C458 2.286 . S
C98 C258 2.286 . S
C138 C298 2.286 . S
C178 C338 2.286 . S
C378 C218 2.286 . S
C369 C9 3.831 1_554 S
C409 C49 3.831 1_455 S
C89 C449 3.831 1_566 S
C129 C249 3.831 . S
C289 C169 3.830 1_654 S
C329 C209 3.831 1_565 S
