# Generated by pormake.
# Topology ske, (6)-cn, num edge types: 1
# Building blocks:
#     Node 0, Type 0, BuildingBlock: KUMBOL_clean_sbu_0, # of connection points: 6
#     Node 1, Type 0, BuildingBlock: KUMBOL_clean_sbu_0, # of connection points: 6
#     Node 2, Type 0, BuildingBlock: KUMBOL_clean_sbu_0, # of connection points: 6
#     Node 3, Type 0, BuildingBlock: KUMBOL_clean_sbu_0, # of connection points: 6
#     Node 4, Type 0, BuildingBlock: KUMBOL_clean_sbu_0, # of connection points: 6
#     Node 5, Type 0, BuildingBlock: KUMBOL_clean_sbu_0, # of connection points: 6
#     Node 6, Type 0, BuildingBlock: KUMBOL_clean_sbu_0, # of connection points: 6
#     Node 7, Type 0, BuildingBlock: KUMBOL_clean_sbu_0, # of connection points: 6
#     Edge 8, Type (0, 0), BuildingBlock: CIFDUS_clean_linker_0, # of connection points: 2
#     Edge 9, Type (0, 0), BuildingBlock: CIFDUS_clean_linker_0, # of connection points: 2
#     Edge 10, Type (0, 0), BuildingBlock: CIFDUS_clean_linker_0, # of connection points: 2
#     Edge 11, Type (0, 0), BuildingBlock: CIFDUS_clean_linker_0, # of connection points: 2
#     Edge 12, Type (0, 0), BuildingBlock: CIFDUS_clean_linker_0, # of connection points: 2
#     Edge 13, Type (0, 0), BuildingBlock: CIFDUS_clean_linker_0, # of connection points: 2
#     Edge 14, Type (0, 0), BuildingBlock: CIFDUS_clean_linker_0, # of connection points: 2
#     Edge 15, Type (0, 0), BuildingBlock: CIFDUS_clean_linker_0, # of connection points: 2
#     Edge 16, Type (0, 0), BuildingBlock: CIFDUS_clean_linker_0, # of connection points: 2
#     Edge 17, Type (0, 0), BuildingBlock: CIFDUS_clean_linker_0, # of connection points: 2
#     Edge 18, Type (0, 0), BuildingBlock: CIFDUS_clean_linker_0, # of connection points: 2
#     Edge 19, Type (0, 0), BuildingBlock: CIFDUS_clean_linker_0, # of connection points: 2
#     Edge 20, Type (0, 0), BuildingBlock: CIFDUS_clean_linker_0, # of connection points: 2
#     Edge 21, Type (0, 0), BuildingBlock: CIFDUS_clean_linker_0, # of connection points: 2
#     Edge 22, Type (0, 0), BuildingBlock: CIFDUS_clean_linker_0, # of connection points: 2
#     Edge 23, Type (0, 0), BuildingBlock: CIFDUS_clean_linker_0, # of connection points: 2
#     Edge 24, Type (0, 0), BuildingBlock: CIFDUS_clean_linker_0, # of connection points: 2
#     Edge 25, Type (0, 0), BuildingBlock: CIFDUS_clean_linker_0, # of connection points: 2
#     Edge 26, Type (0, 0), BuildingBlock: CIFDUS_clean_linker_0, # of connection points: 2
#     Edge 27, Type (0, 0), BuildingBlock: CIFDUS_clean_linker_0, # of connection points: 2
#     Edge 28, Type (0, 0), BuildingBlock: CIFDUS_clean_linker_0, # of connection points: 2
#     Edge 29, Type (0, 0), BuildingBlock: CIFDUS_clean_linker_0, # of connection points: 2
#     Edge 30, Type (0, 0), BuildingBlock: CIFDUS_clean_linker_0, # of connection points: 2
#     Edge 31, Type (0, 0), BuildingBlock: CIFDUS_clean_linker_0, # of connection points: 2
# Relax obj value: 0.114
# Max RMSD: 0.192
# Mean RMSD: 0.186
data_MOF--net-ske--node1-KUMBOL_clean_sbu_0--edge1-CIFDUS_clean_linker_0
_symmetry_space_group_name_H-M    P1
_symmetry_Int_Tables_number       1
_symmetry_cell_setting            triclinic
loop_
_symmetry_equiv_pos_as_xyz
'x, y, z'
_cell_length_a     91.309657
_cell_length_b     26.695465
_cell_length_c     12.609992
_cell_angle_alpha  90.783334
_cell_angle_beta   89.092058
_cell_angle_gamma 115.7253
loop_
_atom_site_label
_atom_site_type_symbol
_atom_site_fract_x
_atom_site_fract_y
_atom_site_fract_z
_atom_type_partial_charge
Gd0 Gd 0.15428 0.27317 0.59237 0.0
Gd1 Gd 0.11063 0.22608 0.61463 0.0
C2 C 0.08939 0.27607 0.90707 0.0
C3 C 0.08822 0.208 0.03661 0.0
C4 C 0.09854 0.20616 0.85787 0.0
C5 C 0.09621 0.25232 0.83185 0.0
C6 C 0.09413 0.18262 0.95992 0.0
C7 C 0.08589 0.25475 1.01032 0.0
C8 C 0.0856 0.31896 0.87508 0.0
C9 C 0.0877 0.33488 0.76904 0.0
N10 N 0.09956 0.27166 0.73114 0.0
C11 C 0.09424 0.3095 0.69732 0.0
H12 H 0.09531 0.32089 0.61466 0.0
C13 C 0.10568 0.13471 0.80319 0.0
N14 N 0.10467 0.18329 0.78284 0.0
C15 C 0.10133 0.10964 0.90263 0.0
C16 C 0.09568 0.13397 0.98177 0.0
H17 H 0.10953 0.11414 0.74321 0.0
H18 H 0.08088 0.27298 0.0694 0.0
H19 H 0.15178 0.1705 0.42735 0.0
H20 H 0.08035 0.33822 0.93042 0.0
H21 H 0.08409 0.36616 0.74213 0.0
H22 H 0.08509 0.19111 0.11584 0.0
H23 H 0.17951 0.4056 0.65145 0.0
H24 H 0.17192 0.24021 0.12611 0.0
H25 H 0.15893 0.15843 0.2428 0.0
H26 H 0.19464 0.43617 0.19281 0.0
H27 H 0.10231 0.07143 0.918 0.0
H28 H 0.09241 0.11462 0.05896 0.0
H29 H 0.18443 0.34414 0.10655 0.0
H30 H 0.19681 0.49267 0.55745 0.0
N31 N 0.16046 0.25821 0.41607 0.0
C32 C 0.16886 0.24579 0.20741 0.0
C33 C 0.16159 0.19957 0.27313 0.0
C34 C 0.17275 0.29887 0.24888 0.0
C35 C 0.16863 0.3038 0.35557 0.0
C36 C 0.15746 0.20659 0.37782 0.0
N37 N 0.17192 0.35738 0.50987 0.0
C38 C 0.1744 0.35534 0.40395 0.0
C39 C 0.19045 0.45446 0.5131 0.0
C40 C 0.192 0.45394 0.40277 0.0
C41 C 0.1807 0.40519 0.56601 0.0
C42 C 0.18438 0.40362 0.34713 0.0
H43 H 0.19974 0.49198 0.36205 0.0
O44 O 0.17555 0.30051 0.69436 0.0
O45 O 0.13305 0.24289 0.70912 0.0
O46 O 0.12241 0.31954 0.62502 0.0
O47 O 0.14911 0.3478 0.5654 0.0
O48 O 0.15378 0.31401 0.74917 0.0
O49 O 0.16885 0.22663 0.60042 0.0
O50 O 0.08969 0.14657 0.59171 0.0
O51 O 0.131 0.23824 0.49862 0.0
O52 O 0.14191 0.17992 0.61078 0.0
O53 O 0.11515 0.15261 0.56104 0.0
O54 O 0.11456 0.268 0.4545 0.0
O55 O 0.08898 0.22139 0.53578 0.0
C56 C 0.13948 0.27996 0.78134 0.0
C57 C 0.18724 0.39946 0.2383 0.0
C58 C 0.18145 0.34706 0.18921 0.0
C59 C 0.1796 0.26147 0.66399 0.0
C60 C 0.1969 0.27864 0.634 0.0
C61 C 0.20366 0.31361 0.54697 0.0
C62 C 0.20672 0.25943 0.69065 0.0
C63 C 0.2232 0.27553 0.66062 0.0
C64 C 0.21982 0.32965 0.51695 0.0
C65 C 0.2295 0.31086 0.57287 0.0
C66 C 0.13661 0.35786 0.59275 0.0
C67 C 0.12716 0.26158 0.42288 0.0
C68 C 0.08064 0.16863 0.55399 0.0
C69 C 0.06396 0.15006 0.59967 0.0
C70 C 0.05693 0.10075 0.65875 0.0
C71 C 0.05458 0.17951 0.58037 0.0
C72 C 0.03838 0.15942 0.61847 0.0
C73 C 0.04102 0.08112 0.69724 0.0
C74 C 0.03178 0.10995 0.677 0.0
C75 C 0.12769 0.14168 0.57918 0.0
H76 H 0.19644 0.32828 0.50151 0.0
H77 H 0.20155 0.23236 0.75797 0.0
H78 H 0.22483 0.35646 0.44917 0.0
H79 H 0.24188 0.32314 0.54555 0.0
H80 H 0.06368 0.07689 0.6747 0.0
H81 H 0.05973 0.21728 0.53407 0.0
H82 H 0.03578 0.04314 0.7427 0.0
H83 H 0.01949 0.09386 0.70843 0.0
Gd84 Gd 0.8584 0.20983 0.54638 0.0
Gd85 Gd 0.90295 0.2686 0.56506 0.0
C86 C 0.93012 0.34052 0.87181 0.0
C87 C 0.94499 0.43858 0.82964 0.0
C88 C 0.92749 0.37346 0.69817 0.0
C89 C 0.92329 0.33037 0.76969 0.0
C90 C 0.93862 0.42789 0.72674 0.0
C91 C 0.94074 0.395 0.90206 0.0
C92 C 0.92641 0.2954 0.93954 0.0
C93 C 0.91655 0.24164 0.90359 0.0
N94 N 0.91306 0.27815 0.73797 0.0
C95 C 0.91014 0.23365 0.80138 0.0
H96 H 0.90255 0.19192 0.77415 0.0
C97 C 0.92618 0.40193 0.52305 0.0
N98 N 0.92113 0.36177 0.59934 0.0
C99 C 0.93719 0.4565 0.54768 0.0
C100 C 0.9433 0.4697 0.65029 0.0
H101 H 0.9215 0.39215 0.44358 0.0
H102 H 0.94599 0.40368 0.98047 0.0
H103 H 0.85808 0.29023 0.34445 0.0
H104 H 0.93136 0.30149 1.01873 0.0
H105 H 0.91384 0.20636 0.9546 0.0
H106 H 0.95345 0.48021 0.85333 0.0
H107 H 0.83975 0.08432 0.65758 0.0
H108 H 0.83137 0.18474 0.08917 0.0
H109 H 0.84749 0.27889 0.16299 0.0
H110 H 0.81082 0.0021 0.23734 0.0
H111 H 0.94092 0.48835 0.48757 0.0
H112 H 0.95184 0.51201 0.66912 0.0
H113 H 0.81793 0.08136 0.11711 0.0
H114 H 0.82146 0.98792 0.60484 0.0
N115 N 0.8485 0.20326 0.37298 0.0
C116 C 0.83601 0.18943 0.16905 0.0
C117 C 0.84507 0.24263 0.21054 0.0
C118 C 0.83268 0.14295 0.23221 0.0
C119 C 0.83911 0.15136 0.33541 0.0
C120 C 0.85106 0.24885 0.31371 0.0
N121 N 0.84076 0.11714 0.50346 0.0
C122 C 0.83513 0.10681 0.40275 0.0
C123 C 0.82526 0.02094 0.54713 0.0
C124 C 0.8199 0.00925 0.44257 0.0
C125 C 0.83558 0.07555 0.5768 0.0
C126 C 0.82461 0.05255 0.36925 0.0
H127 H 0.81185 0.96696 0.41992 0.0
O128 O 0.83832 0.19128 0.65808 0.0
O129 O 0.87966 0.24644 0.65542 0.0
O130 O 0.89074 0.17455 0.59098 0.0
O131 O 0.8662 0.14332 0.50194 0.0
O132 O 0.85944 0.18141 0.71456 0.0
O133 O 0.84425 0.25771 0.54541 0.0
O134 O 0.92017 0.27403 0.44024 0.0
O135 O 0.88167 0.23198 0.45675 0.0
O136 O 0.87059 0.3031 0.51803 0.0
O137 O 0.89571 0.33787 0.60155 0.0
O138 O 0.90197 0.29639 0.39621 0.0
O139 O 0.91988 0.23128 0.58497 0.0
C140 C 0.87392 0.21731 0.73798 0.0
C141 C 0.81879 0.04357 0.26496 0.0
C142 C 0.82283 0.0887 0.19652 0.0
C143 C 0.8341 0.22802 0.61894 0.0
C144 C 0.8166 0.20892 0.59706 0.0
C145 C 0.80903 0.16809 0.51947 0.0
C146 C 0.80734 0.2314 0.65349 0.0
C147 C 0.7906 0.213 0.63224 0.0
C148 C 0.7926 0.14998 0.49754 0.0
C149 C 0.78345 0.17224 0.55304 0.0
C150 C 0.8783 0.13501 0.54125 0.0
C151 C 0.88739 0.26077 0.37362 0.0
C152 C 0.92746 0.25084 0.49571 0.0
C153 C 0.94554 0.27951 0.49718 0.0
C154 C 0.95372 0.33593 0.47018 0.0
C155 C 0.95477 0.24999 0.51967 0.0
C156 C 0.97202 0.27625 0.51273 0.0
C157 C 0.97062 0.36218 0.46384 0.0
C158 C 0.97968 0.33271 0.48352 0.0
C159 C 0.8833 0.34434 0.56173 0.0
H160 H 0.81578 0.15019 0.47555 0.0
H161 H 0.81312 0.26258 0.71434 0.0
H162 H 0.78695 0.11868 0.4368 0.0
H163 H 0.77079 0.15801 0.53258 0.0
H164 H 0.9471 0.35969 0.45142 0.0
H165 H 0.94844 0.20668 0.54183 0.0
H166 H 0.97674 0.40548 0.44132 0.0
H167 H 0.99273 0.35433 0.47307 0.0
Gd168 Gd 0.10859 0.71729 0.5244 0.0
Gd169 Gd 0.15306 0.7756 0.5419 0.0
C170 C 0.17936 0.84301 0.85426 0.0
C171 C 0.19367 0.94209 0.81942 0.0
C172 C 0.17697 0.87864 0.68309 0.0
C173 C 0.17282 0.83439 0.75136 0.0
C174 C 0.18772 0.93285 0.71544 0.0
C175 C 0.18949 0.89723 0.88874 0.0
C176 C 0.17588 0.79672 0.91827 0.0
C177 C 0.16657 0.74346 0.87785 0.0
N178 N 0.16318 0.78249 0.71487 0.0
C179 C 0.16048 0.73703 0.77492 0.0
H180 H 0.15328 0.6956 0.74506 0.0
C181 C 0.17637 0.90934 0.50884 0.0
N182 N 0.17116 0.86808 0.58285 0.0
C183 C 0.18694 0.96388 0.53733 0.0
C184 C 0.1925 0.97583 0.64141 0.0
H185 H 0.17205 0.90044 0.42841 0.0
H186 H 0.19449 0.90474 0.9679 0.0
H187 H 0.10905 0.79496 0.31673 0.0
H188 H 0.1806 0.80156 0.99795 0.0
H189 H 0.16403 0.70732 0.92603 0.0
H190 H 0.20183 0.98352 0.84614 0.0
H191 H 0.08987 0.59354 0.64436 0.0
H192 H 0.08008 0.6866 0.07126 0.0
H193 H 0.09772 0.78138 0.13651 0.0
H194 H 0.0578 0.50724 0.23419 0.0
H195 H 0.19077 -0.00335 0.47906 0.0
H196 H 0.20074 0.01808 0.66317 0.0
H197 H 0.06534 0.58429 0.10816 0.0
H198 H 0.07031 0.49759 0.59946 0.0
N199 N 0.09845 0.70858 0.35169 0.0
C200 C 0.08506 0.69231 0.15035 0.0
C201 C 0.09498 0.74587 0.18694 0.0
C202 C 0.0813 0.64689 0.21734 0.0
C203 C 0.08817 0.65655 0.31937 0.0
C204 C 0.1014 0.75338 0.28903 0.0
N205 N 0.09031 0.6244 0.48899 0.0
C206 C 0.08393 0.61316 0.3902 0.0
C207 C 0.0741 0.52963 0.53971 0.0
C208 C 0.06799 0.51685 0.43705 0.0
C209 C 0.08519 0.58403 0.56486 0.0
C210 C 0.07272 0.55893 0.36111 0.0
H211 H 0.05939 0.47467 0.41783 0.0
O212 O 0.09116 0.71021 0.64874 0.0
O213 O 0.1299 0.75414 0.63246 0.0
O214 O 0.14081 0.68256 0.57184 0.0
O215 O 0.11576 0.64782 0.48765 0.0
O216 O 0.10965 0.68933 0.69282 0.0
O217 O 0.09196 0.75586 0.5068 0.0
O218 O 0.17257 0.79218 0.42652 0.0
O219 O 0.13177 0.73902 0.43347 0.0
O220 O 0.12082 0.81152 0.49956 0.0
O221 O 0.1456 0.84285 0.58596 0.0
O222 O 0.15187 0.80442 0.37434 0.0
O223 O 0.16717 0.72764 0.54291 0.0
C224 C 0.12419 0.72517 0.71539 0.0
C225 C 0.06633 0.54871 0.25828 0.0
C226 C 0.07062 0.59259 0.1865 0.0
C227 C 0.08409 0.73462 0.59445 0.0
C228 C 0.06605 0.70625 0.59007 0.0
C229 C 0.05761 0.64989 0.61778 0.0
C230 C 0.05705 0.73589 0.56296 0.0
C231 C 0.03985 0.70966 0.56592 0.0
C232 C 0.04067 0.62374 0.61925 0.0
C233 C 0.03184 0.65335 0.59419 0.0
C234 C 0.12814 0.64131 0.52786 0.0
C235 C 0.13742 0.76832 0.35102 0.0
C236 C 0.17691 0.75596 0.46646 0.0
C237 C 0.19449 0.77512 0.48407 0.0
C238 C 0.20224 0.81249 0.56662 0.0
C239 C 0.20366 0.75633 0.41769 0.0
C240 C 0.22053 0.77498 0.43359 0.0
C241 C 0.21886 0.83131 0.58268 0.0
C242 C 0.22797 0.81295 0.51671 0.0
C243 C 0.13345 0.85119 0.54764 0.0
H244 H 0.06406 0.62598 0.63987 0.0
H245 H 0.06339 0.77944 0.54215 0.0
H246 H 0.03434 0.58035 0.64075 0.0
H247 H 0.01868 0.63196 0.59581 0.0
H248 H 0.1955 0.82729 0.61857 0.0
H249 H 0.19762 0.72689 0.35464 0.0
H250 H 0.22473 0.86051 0.64627 0.0
H251 H 0.24091 0.82924 0.53 0.0
Gd252 Gd 0.90157 0.76084 0.47505 0.0
Gd253 Gd 0.85799 0.71412 0.49674 0.0
C254 C 0.83972 0.69077 0.84077 0.0
C255 C 0.82502 0.59031 0.85338 0.0
C256 C 0.83781 0.63331 0.68683 0.0
C257 C 0.84376 0.68511 0.73422 0.0
C258 C 0.82778 0.58546 0.74462 0.0
C259 C 0.83097 0.643 0.90142 0.0
C260 C 0.84371 0.74415 0.88105 0.0
C261 C 0.851 0.78993 0.81431 0.0
N262 N 0.85196 0.73028 0.67275 0.0
C263 C 0.85505 0.78218 0.70981 0.0
H264 H 0.8607 0.81792 0.65944 0.0
C265 C 0.83127 0.5826 0.52577 0.0
N266 N 0.84017 0.63065 0.58092 0.0
C267 C 0.82148 0.53373 0.57968 0.0
C268 C 0.82001 0.53488 0.69 0.0
H269 H 0.83241 0.58166 0.44035 0.0
H270 H 0.82804 0.64647 0.98399 0.0
H271 H 0.91669 0.66537 0.47454 0.0
H272 H 0.84071 0.75028 0.96217 0.0
H273 H 0.85373 0.83129 0.84367 0.0
H274 H 0.81759 0.55394 0.89961 0.0
H275 H 0.90307 0.87343 0.34685 0.0
H276 H 0.93122 0.64703 0.15814 0.0
H277 H 0.92754 0.61919 0.34649 0.0
H278 H 0.92691 0.79509 0.9733 0.0
H279 H 0.81501 0.49531 0.5361 0.0
H280 H 0.81223 0.49716 0.73148 0.0
H281 H 0.93086 0.71266 1.0194 0.0
H282 H 0.91025 0.91596 0.17192 0.0
N283 N 0.91252 0.71493 0.35831 0.0
C284 C 0.92612 0.66668 0.21373 0.0
C285 C 0.92406 0.65083 0.3198 0.0
C286 C 0.92249 0.70996 0.182 0.0
C287 C 0.91584 0.73414 0.2575 0.0
C288 C 0.91772 0.67672 0.39186 0.0
N289 N 0.90761 0.80367 0.30682 0.0
C290 C 0.91364 0.78053 0.23162 0.0
C291 C 0.91111 0.87753 0.18715 0.0
C292 C 0.91661 0.85288 0.10779 0.0
C293 C 0.90676 0.85252 0.28665 0.0
C294 C 0.91803 0.80399 0.1295 0.0
H295 H 0.91988 0.87218 1.03054 0.0
O296 O 0.92235 0.84052 0.49952 0.0
O297 O 0.8812 0.74887 0.59113 0.0
O298 O 0.87041 0.80717 0.47596 0.0
O299 O 0.897 0.83426 0.52859 0.0
O300 O 0.89761 0.71885 0.63502 0.0
O301 O 0.9233 0.76563 0.55275 0.0
O302 O 0.83658 0.68603 0.3959 0.0
O303 O 0.8792 0.74394 0.38015 0.0
O304 O 0.88977 0.66727 0.46677 0.0
O305 O 0.86293 0.63907 0.52331 0.0
O306 O 0.85853 0.67264 0.34067 0.0
O307 O 0.84376 0.76154 0.48557 0.0
C308 C 0.88504 0.72542 0.6667 0.0
C309 C 0.9238 0.77827 0.05259 0.0
C310 C 0.92597 0.73121 0.07869 0.0
C311 C 0.9315 0.81862 0.53625 0.0
C312 C 0.94823 0.83811 0.49117 0.0
C313 C 0.9547 0.88501 0.4255 0.0
C314 C 0.9582 0.81195 0.51831 0.0
C315 C 0.97458 0.83304 0.48244 0.0
C316 C 0.97074 0.90592 0.38931 0.0
C317 C 0.98064 0.88075 0.41819 0.0
C318 C 0.88455 0.84534 0.50883 0.0
C319 C 0.87282 0.70664 0.30829 0.0
C320 C 0.8328 0.72597 0.42405 0.0
C321 C 0.81564 0.71002 0.45525 0.0
C322 C 0.80947 0.68162 0.55033 0.0
C323 C 0.80542 0.72413 0.39144 0.0
C324 C 0.78909 0.70976 0.42261 0.0
C325 C 0.79341 0.6669 0.58121 0.0
C326 C 0.78329 0.68062 0.51809 0.0
C327 C 0.87547 0.62894 0.49752 0.0
H328 H 0.94746 0.90625 0.40312 0.0
H329 H 0.95314 0.77528 0.5675 0.0
H330 H 0.97564 0.94253 0.3399 0.0
H331 H 0.99319 0.89974 0.39153 0.0
H332 H 0.81705 0.67093 0.60104 0.0
H333 H 0.81026 0.7469 0.31877 0.0
H334 H 0.78876 0.64461 0.65451 0.0
H335 H 0.7708 0.6676 0.54366 0.0
Gd336 Gd 0.65292 0.78139 0.07621 0.0
Gd337 Gd 0.60937 0.73648 0.09629 0.0
C338 C 0.59222 0.78185 0.41275 0.0
C339 C 0.58911 0.70462 0.52461 0.0
C340 C 0.59781 0.70741 0.34 0.0
C341 C 0.59724 0.75786 0.32732 0.0
C342 C 0.59331 0.67956 0.43834 0.0
C343 C 0.58864 0.75582 0.51198 0.0
C344 C 0.59031 0.8302 0.39503 0.0
C345 C 0.5923 0.85132 0.29276 0.0
N346 N 0.60068 0.78192 0.23023 0.0
C347 C 0.59695 0.82549 0.21052 0.0
H348 H 0.59755 0.84089 0.13095 0.0
C349 C 0.60091 0.63173 0.26267 0.0
N350 N 0.60228 0.68471 0.25577 0.0
C351 C 0.59668 0.60282 0.35834 0.0
C352 C 0.59311 0.62718 0.44716 0.0
H353 H 0.60239 0.60994 0.1945 0.0
H354 H 0.58502 0.77412 0.57862 0.0
H355 H 0.64915 0.67598 0.91482 0.0
H356 H 0.58653 0.8499 0.45853 0.0
H357 H 0.58999 0.88696 0.27672 0.0
H358 H 0.58596 0.68432 0.60101 0.0
H359 H 0.67959 0.91307 0.13 0.0
H360 H 0.66886 0.74104 0.61011 0.0
H361 H 0.65551 0.66084 0.73013 0.0
H362 H 0.69351 0.93773 0.66953 0.0
H363 H 0.59588 0.56125 0.36287 0.0
H364 H 0.5898 0.60463 0.52121 0.0
H365 H 0.68222 0.84476 0.58659 0.0
H366 H 0.69736 -0.00176 1.03242 0.0
N367 N 0.65844 0.76367 0.90005 0.0
C368 C 0.6661 0.7479 0.69137 0.0
C369 C 0.65861 0.70257 0.75894 0.0
C370 C 0.67059 0.80171 0.73098 0.0
C371 C 0.66685 0.80831 0.83773 0.0
C372 C 0.65487 0.71129 0.86362 0.0
N373 N 0.67113 0.86375 0.99032 0.0
C374 C 0.67325 0.86036 0.88428 0.0
C375 C 0.69053 0.95987 0.98956 0.0
C376 C 0.69171 0.95813 0.87915 0.0
C377 C 0.68052 0.91164 0.0445 0.0
C378 C 0.68347 0.90751 0.82544 0.0
H379 H 0.69966 0.99533 0.83685 0.0
O380 O 0.67423 0.80785 0.1776 0.0
O381 O 0.63162 0.75304 0.1927 0.0
O382 O 0.62145 0.83029 0.09194 0.0
O383 O 0.64889 0.85827 0.05247 0.0
O384 O 0.65249 0.82426 0.23036 0.0
O385 O 0.66688 0.73298 0.08582 0.0
O386 O 0.58812 0.66092 0.05297 0.0
O387 O 0.62977 0.74759 0.981 0.0
O388 O 0.63993 0.6892 0.1048 0.0
O389 O 0.61413 0.66349 0.03904 0.0
O390 O 0.61359 0.77823 0.93596 0.0
O391 O 0.58761 0.74028 0.03606 0.0
C392 C 0.63817 0.79085 0.26346 0.0
C393 C 0.68594 0.90186 0.71654 0.0
C394 C 0.67953 0.84893 0.66934 0.0
C395 C 0.67786 0.76775 0.14824 0.0
C396 C 0.695 0.78326 0.11723 0.0
C397 C 0.70121 0.81129 1.02185 0.0
C398 C 0.70518 0.76909 0.18144 0.0
C399 C 0.72149 0.78309 0.1504 0.0
C400 C 0.71726 0.82574 0.9912 0.0
C401 C 0.72734 0.81201 0.05474 0.0
C402 C 0.63617 0.86865 0.06931 0.0
C403 C 0.62613 0.77132 0.90498 0.0
C404 C 0.57921 0.68668 1.03254 0.0
C405 C 0.56231 0.66346 0.0762 0.0
C406 C 0.55612 0.6143 0.1355 0.0
C407 C 0.55187 0.68845 0.05276 0.0
C408 C 0.53528 0.66389 0.0854 0.0
C409 C 0.53989 0.58986 0.16828 0.0
C410 C 0.52953 0.61379 0.14256 0.0
C411 C 0.62624 0.65151 0.06532 0.0
H412 H 0.69366 0.82189 0.9707 0.0
H413 H 0.7003 0.74653 0.25429 0.0
H414 H 0.72194 0.84779 0.91771 0.0
H415 H 0.73982 0.82482 1.02928 0.0
H416 H 0.56373 0.594 0.15516 0.0
H417 H 0.55678 0.72692 1.00879 0.0
H418 H 0.53521 0.55145 0.21244 0.0
H419 H 0.51689 0.59193 0.16614 0.0
Gd420 Gd 0.35264 0.69484 1.02688 0.0
Gd421 Gd 0.39728 0.7642 0.04752 0.0
C422 C 0.4232 0.84393 0.35431 0.0
C423 C 0.43598 0.9421 0.30985 0.0
C424 C 0.41977 0.87328 0.17916 0.0
C425 C 0.41647 0.83134 0.25197 0.0
C426 C 0.42981 0.92906 0.20662 0.0
C427 C 0.43268 0.89962 0.38355 0.0
C428 C 0.42058 0.80006 0.42313 0.0
C429 C 0.41189 0.74528 0.38804 0.0
N430 N 0.40731 0.77798 0.22116 0.0
C431 C 0.40552 0.73494 0.28563 0.0
H432 H 0.39881 0.69245 0.25901 0.0
C433 C 0.41812 0.89848 1.00213 0.0
N434 N 0.41371 0.85923 0.07995 0.0
C435 C 0.42799 0.95438 1.02567 0.0
C436 C 0.4337 0.96986 0.12871 0.0
H437 H 0.41372 0.88686 0.92238 0.0
H438 H 0.43783 0.91014 0.46213 0.0
H439 H 0.35002 0.76714 0.81751 0.0
H440 H 0.42551 0.80798 0.50248 0.0
H441 H 0.41005 0.71103 0.43988 0.0
H442 H 0.44361 0.98476 0.33272 0.0
H443 H 0.33692 0.57124 0.14823 0.0
H444 H 0.32334 0.65235 0.57393 0.0
H445 H 0.33858 0.74905 0.6382 0.0
H446 H 0.30628 0.47482 0.73899 0.0
H447 H 0.43116 0.98549 0.96444 0.0
H448 H 0.44137 0.01319 0.14668 0.0
H449 H 0.31148 0.55002 0.61186 0.0
H450 H 0.31986 0.47269 0.10464 0.0
N451 N 0.34184 0.68153 0.85469 0.0
C452 C 0.32838 0.66001 0.65297 0.0
C453 C 0.33692 0.71463 0.68908 0.0
C454 C 0.32606 0.61594 0.72038 0.0
C455 C 0.33295 0.62823 0.82232 0.0
C456 C 0.34341 0.72468 0.79117 0.0
N457 N 0.33616 0.59989 0.9926 0.0
C458 C 0.32996 0.58603 0.8937 0.0
C459 C 0.32264 0.50413 0.04445 0.0
C460 C 0.31664 0.48902 0.94194 0.0
C461 C 0.33228 0.5601 0.06893 0.0
C462 C 0.32011 0.53021 0.86536 0.0
H463 H 0.30914 0.44564 0.92327 0.0
O464 O 0.33305 0.6763 0.14241 0.0
O465 O 0.37369 0.7371 0.13671 0.0
O466 O 0.38657 0.67008 0.07377 0.0
O467 O 0.36217 0.63324 0.98215 0.0
O468 O 0.35442 0.66852 0.19526 0.0
O469 O 0.33735 0.73847 1.02262 0.0
O470 O 0.41631 0.77706 0.93098 0.0
O471 O 0.37629 0.72287 0.9389 0.0
O472 O 0.36319 0.78628 0.988 0.0
O473 O 0.38789 0.82931 0.07554 0.0
O474 O 0.3962 0.78775 0.87562 0.0
O475 O 0.41426 0.72735 0.06915 0.0
C476 C 0.36842 0.70744 0.21917 0.0
C477 C 0.31377 0.51749 0.76254 0.0
C478 C 0.31675 0.5603 0.69016 0.0
C479 C 0.32797 0.71018 0.10047 0.0
C480 C 0.31029 0.6881 0.08393 0.0
C481 C 0.30277 0.64947 1.0027 0.0
C482 C 0.30079 0.70566 0.14994 0.0
C483 C 0.28385 0.68475 0.13481 0.0
C484 C 0.28606 0.62854 0.98727 0.0
C485 C 0.27664 0.64589 0.05269 0.0
C486 C 0.37472 0.62855 1.02325 0.0
C487 C 0.38179 0.75047 0.8542 0.0
C488 C 0.423 0.7516 0.98607 0.0
C489 C 0.44093 0.78071 0.99934 0.0
C490 C 0.44912 0.8388 0.98932 0.0
C491 C 0.45013 0.75054 1.01786 0.0
C492 C 0.46731 0.77822 1.02324 0.0
C493 C 0.46601 0.86621 0.99576 0.0
C494 C 0.47505 0.83628 1.01182 0.0
C495 C 0.37502 0.83063 1.0307 0.0
H496 H 0.30977 0.63541 0.95128 0.0
H497 H 0.30664 0.73595 0.21212 0.0
H498 H 0.28037 0.5985 0.92458 0.0
H499 H 0.26366 0.62814 0.03992 0.0
H500 H 0.44252 0.86319 0.97513 0.0
H501 H 0.44398 0.70572 1.02575 0.0
H502 H 0.47214 0.91096 0.98769 0.0
H503 H 0.48816 0.85872 1.01691 0.0
Gd504 Gd 0.61175 0.23378 0.99094 0.0
Gd505 Gd 0.65621 0.29344 1.00852 0.0
C506 C 0.68179 0.35976 0.32322 0.0
C507 C 0.6955 0.45928 0.29169 0.0
C508 C 0.67929 0.39627 0.15321 0.0
C509 C 0.6754 0.35153 0.21997 0.0
C510 C 0.6897 0.45052 0.18733 0.0
C511 C 0.69154 0.41398 0.35955 0.0
C512 C 0.67854 0.31314 0.38581 0.0
C513 C 0.66959 0.26001 0.34372 0.0
N514 N 0.6661 0.29967 0.18183 0.0
C515 C 0.66362 0.25398 0.24052 0.0
H516 H 0.65667 0.21266 0.20928 0.0
C517 C 0.67884 0.42795 0.97951 0.0
N518 N 0.67369 0.38615 0.05241 0.0
C519 C 0.68906 0.48256 1.00982 0.0
C520 C 0.69436 0.49403 0.11453 0.0
H521 H 0.67471 0.41933 0.89862 0.0
H522 H 0.69642 0.42117 0.43902 0.0
H523 H 0.61206 0.31174 0.7838 0.0
H524 H 0.68317 0.31768 0.46572 0.0
H525 H 0.66722 0.22365 0.39083 0.0
H526 H 0.70339 0.50074 0.31978 0.0
H527 H 0.5931 0.10985 0.11007 0.0
H528 H 0.58316 0.20365 0.53797 0.0
H529 H 0.60073 0.29836 0.60376 0.0
H530 H 0.56098 0.02404 0.69986 0.0
H531 H 0.69282 0.51575 0.95248 0.0
H532 H 0.70234 0.53632 0.13766 0.0
H533 H 0.56848 0.10127 0.57428 0.0
H534 H 0.57355 0.01396 0.06486 0.0
N535 N 0.60155 0.2253 0.81836 0.0
C536 C 0.58814 0.20925 0.61703 0.0
C537 C 0.59802 0.26278 0.65394 0.0
C538 C 0.58442 0.16375 0.68372 0.0
C539 C 0.59129 0.17329 0.78571 0.0
C540 C 0.60445 0.27017 0.75601 0.0
N541 N 0.59349 0.14094 0.95497 0.0
C542 C 0.58709 0.12981 0.85623 0.0
C543 C 0.57732 0.04607 1.00528 0.0
C544 C 0.57118 0.03342 0.90264 0.0
C545 C 0.5884 0.10046 1.0306 0.0
C546 C 0.5759 0.0756 0.82693 0.0
H547 H 0.56259 0.99126 0.88326 0.0
O548 O 0.59441 0.22587 0.11638 0.0
O549 O 0.63304 0.27109 0.09921 0.0
O550 O 0.64426 0.19963 1.03506 0.0
O551 O 0.619 0.16485 0.95318 0.0
O552 O 0.61298 0.20535 0.15874 0.0
O553 O 0.59504 0.27208 0.97548 0.0
O554 O 0.67632 0.31312 0.8966 0.0
O555 O 0.63497 0.25624 0.90001 0.0
O556 O 0.62356 0.32774 0.96535 0.0
O557 O 0.64825 0.35997 0.05261 0.0
O558 O 0.65498 0.32192 0.84067 0.0
O559 O 0.67065 0.24653 1.00862 0.0
C560 C 0.62744 0.2417 0.18174 0.0
C561 C 0.56949 0.0655 0.72412 0.0
C562 C 0.57376 0.10947 0.65261 0.0
C563 C 0.58726 0.25037 0.06317 0.0
C564 C 0.56925 0.22181 0.05922 0.0
C565 C 0.56085 0.16531 0.08601 0.0
C566 C 0.56025 0.25151 1.0332 0.0
C567 C 0.54307 0.2252 0.03615 0.0
C568 C 0.54391 0.13904 0.08735 0.0
C569 C 0.53506 0.16871 0.06321 0.0
C570 C 0.6314 0.15824 0.9926 0.0
C571 C 0.64056 0.28551 0.81748 0.0
C572 C 0.68071 0.27667 0.93513 0.0
C573 C 0.69824 0.29632 0.95652 0.0
C574 C 0.7058 0.33735 1.0338 0.0
C575 C 0.70755 0.27409 0.89993 0.0
C576 C 0.72432 0.29288 0.92075 0.0
C577 C 0.72226 0.3559 0.05523 0.0
C578 C 0.73146 0.33387 0.9996 0.0
C579 C 0.63595 0.36763 1.01464 0.0
H580 H 0.56732 0.14141 0.10751 0.0
H581 H 0.56657 0.29521 1.01338 0.0
H582 H 0.5376 0.09554 0.10811 0.0
H583 H 0.52191 0.14732 0.06489 0.0
H584 H 0.69901 0.35505 0.07787 0.0
H585 H 0.70178 0.24276 0.83933 0.0
H586 H 0.7279 0.38737 0.11572 0.0
H587 H 0.74414 0.34841 1.01977 0.0
Gd588 Gd 0.40614 0.27283 0.96516 0.0
Gd589 Gd 0.36225 0.21516 0.98705 0.0
C590 C 0.34214 0.17982 0.32606 0.0
C591 C 0.32942 0.07883 0.33019 0.0
C592 C 0.34247 0.12755 0.16862 0.0
C593 C 0.34701 0.17793 0.21993 0.0
C594 C 0.33309 0.0774 0.2219 0.0
C595 C 0.33392 0.13005 0.38223 0.0
C596 C 0.34481 0.23137 0.37037 0.0
C597 C 0.35161 0.27895 0.30773 0.0
N598 N 0.35473 0.22505 0.16273 0.0
C599 C 0.35652 0.275 0.20345 0.0
H600 H 0.3619 0.31215 0.15638 0.0
C601 C 0.33846 0.08026 1.00411 0.0
N602 N 0.34574 0.12798 0.06332 0.0
C603 C 0.32935 0.02929 0.05356 0.0
C604 C 0.32693 0.02769 0.16336 0.0
H605 H 0.34038 0.08144 0.91917 0.0
H606 H 0.33035 0.13068 0.4644 0.0
H607 H 0.42445 0.18694 0.97231 0.0
H608 H 0.34116 0.2346 0.45137 0.0
H609 H 0.35333 0.31884 0.34021 0.0
H610 H 0.32245 0.04072 0.37302 0.0
H611 H 0.40371 0.37724 0.83005 0.0
H612 H 0.44092 0.1721 0.65942 0.0
H613 H 0.43753 0.14605 0.84873 0.0
H614 H 0.43205 0.30879 0.46509 0.0
H615 H 0.32418 0.99135 1.00697 0.0
H616 H 0.31969 0.98826 0.20135 0.0
H617 H 0.43872 0.23273 0.51673 0.0
H618 H 0.41035 0.41887 0.65378 0.0
N619 N 0.41889 0.23139 0.85255 0.0
C620 C 0.43487 0.18933 0.71302 0.0
C621 C 0.43297 0.17448 0.81966 0.0
C622 C 0.42977 0.22867 0.67815 0.0
C623 C 0.42194 0.24986 0.75117 0.0
C624 C 0.42538 0.1973 0.88916 0.0
N625 N 0.41113 0.31336 0.79519 0.0
C626 C 0.41824 0.2928 0.72223 0.0
C627 C 0.41253 0.38315 0.67161 0.0
C628 C 0.41924 0.36112 0.59463 0.0
C629 C 0.40859 0.35882 0.77188 0.0
C630 C 0.42223 0.31554 0.61937 0.0
H631 H 0.42216 0.3798 0.51673 0.0
O632 O 0.42594 0.35561 0.98119 0.0
O633 O 0.38541 0.25619 0.08099 0.0
O634 O 0.37269 0.30853 0.97373 0.0
O635 O 0.40001 0.34295 1.01612 0.0
O636 O 0.40333 0.23346 0.12698 0.0
O637 O 0.42817 0.28539 0.04846 0.0
O638 O 0.34103 0.18404 0.8841 0.0
O639 O 0.38339 0.24972 0.87056 0.0
O640 O 0.39625 0.17963 0.95711 0.0
O641 O 0.36969 0.14635 1.0228 0.0
O642 O 0.36383 0.17527 0.83104 0.0
O643 O 0.34662 0.25769 0.97719 0.0
C644 C 0.3901 0.23584 0.15765 0.0
C645 C 0.4292 0.29252 0.54488 0.0
C646 C 0.43293 0.24906 0.57414 0.0
C647 C 0.43564 0.3378 1.02457 0.0
C648 C 0.45246 0.35848 0.98083 0.0
C649 C 0.45912 0.40751 0.92103 0.0
C650 C 0.46232 0.33133 1.00349 0.0
C651 C 0.47874 0.35336 0.96891 0.0
C652 C 0.47522 0.42924 0.88562 0.0
C653 C 0.485 0.40288 0.90995 0.0
C654 C 0.3867 0.3496 1.00104 0.0
C655 C 0.37776 0.21199 0.79878 0.0
C656 C 0.33626 0.22156 0.91333 0.0
C657 C 0.31883 0.2021 0.94205 0.0
C658 C 0.31205 0.16452 1.02535 0.0
C659 C 0.30897 0.2222 0.88852 0.0
C660 C 0.29241 0.20469 0.9182 0.0
C661 C 0.29583 0.14715 0.05525 0.0
C662 C 0.28611 0.16706 1.00272 0.0
C663 C 0.38277 0.1397 0.99506 0.0
H664 H 0.45196 0.42964 0.90269 0.0
H665 H 0.45716 0.29312 0.04832 0.0
H666 H 0.48025 0.46736 0.84051 0.0
H667 H 0.49759 0.42228 0.88427 0.0
H668 H 0.31931 0.14886 0.06804 0.0
H669 H 0.31418 0.2511 0.82381 0.0
H670 H 0.29079 0.11844 0.12033 0.0
H671 H 0.27369 0.15364 1.03013 0.0
H672 H 0.2556 0.33254 0.70785 0.0
H673 H 0.21495 0.17095 0.73867 0.0
H674 H 0.2327 0.13493 0.81771 0.0
H675 H 0.2599 0.1482 0.87271 0.0
H676 H 0.30052 0.31005 0.84361 0.0
H677 H 0.28277 0.34615 0.76515 0.0
C678 C 0.25058 0.28931 0.73127 0.0
C679 C 0.23384 0.25462 0.71668 0.0
C680 C 0.26094 0.26856 0.77549 0.0
C681 C 0.22765 0.199 0.74983 0.0
C682 C 0.23786 0.17816 0.7942 0.0
C683 C 0.26492 0.19157 0.85026 0.0
C684 C 0.28167 0.22615 0.86464 0.0
C685 C 0.25454 0.21244 0.80678 0.0
C686 C 0.28783 0.28196 0.83244 0.0
C687 C 0.27762 0.30287 0.7884 0.0
H688 H 0.7558 0.34841 0.85083 0.0
H689 H 0.71576 0.18451 0.86148 0.0
H690 H 0.73275 0.14561 0.77579 0.0
H691 H 0.75914 0.15757 0.70215 0.0
H692 H 0.7992 0.32141 0.69163 0.0
H693 H 0.78221 0.36037 0.77725 0.0
C694 C 0.75078 0.30407 0.83529 0.0
C695 C 0.73445 0.26954 0.86308 0.0
C696 C 0.76071 0.28178 0.78741 0.0
C697 C 0.72816 0.21233 0.83996 0.0
C698 C 0.73794 0.18993 0.79178 0.0
C699 C 0.76417 0.20191 0.71774 0.0
C700 C 0.7805 0.23641 0.68997 0.0
C701 C 0.75424 0.2242 0.76562 0.0
C702 C 0.7868 0.29362 0.71312 0.0
C703 C 0.77702 0.31605 0.76126 0.0
H704 H 0.25865 0.7077 0.07785 0.0
H705 H 0.28579 0.70104 0.35013 0.0
H706 H 0.26848 0.72703 0.46589 0.0
H707 H 0.24535 0.74999 0.49047 0.0
H708 H 0.21837 0.75778 0.21811 0.0
H709 H 0.2355 0.73082 0.10252 0.0
C710 C 0.26072 0.7115 0.16262 0.0
C711 C 0.27357 0.70238 0.20492 0.0
C712 C 0.25061 0.72598 0.22901 0.0
C713 C 0.27619 0.70851 0.31492 0.0
C714 C 0.26619 0.72294 0.3814 0.0
C715 C 0.24327 0.74631 0.40571 0.0
C716 C 0.23054 0.7561 0.36343 0.0
C717 C 0.25335 0.73169 0.33935 0.0
C718 C 0.22789 0.74985 0.25344 0.0
C719 C 0.23779 0.7349 0.18701 0.0
H720 H 0.74451 0.74909 0.08372 0.0
H721 H 0.72378 0.78544 0.36777 0.0
H722 H 0.74289 0.76712 0.47565 0.0
H723 H 0.76599 0.74338 0.48954 0.0
H724 H 0.78675 0.70725 0.20539 0.0
H725 H 0.7676 0.72538 0.09758 0.0
C726 C 0.74421 0.75354 0.16919 0.0
C727 C 0.73263 0.76889 0.217 0.0
C728 C 0.75544 0.74379 0.2309 0.0
C729 C 0.73232 0.77307 0.3283 0.0
C730 C 0.74339 0.76309 0.39018 0.0
C731 C 0.76629 0.73896 0.40406 0.0
C732 C 0.7779 0.72375 0.35618 0.0
C733 C 0.75505 0.74869 0.34236 0.0
C734 C 0.77819 0.71954 0.24489 0.0
C735 C 0.76711 0.72941 0.18305 0.0
H736 H 0.11256 0.8914 0.47161 0.0
H737 H 0.15559 0.93746 0.66101 0.0
H738 H 0.15765 0.03036 0.68469 0.0
H739 H 0.14746 0.09904 0.65366 0.0
H740 H 0.10377 0.05472 0.47304 0.0
H741 H 0.10163 0.9607 0.4457 0.0
C742 C 0.12239 0.92179 0.51791 0.0
C743 C 0.13413 0.90744 0.56203 0.0
C744 C 0.12334 0.97551 0.53375 0.0
C745 C 0.14664 0.94733 0.62318 0.0
C746 C 0.14777 0.00063 0.63784 0.0
C747 C 0.13745 0.06897 0.6081 0.0
C748 C 0.12585 0.08404 0.56509 0.0
C749 C 0.13624 0.01522 0.59336 0.0
C750 C 0.11287 0.04418 0.50733 0.0
C751 C 0.11166 0.99045 0.49137 0.0
H752 H 0.86106 0.37572 0.47959 0.0
H753 H 0.90626 0.43991 0.65061 0.0
H754 H 0.9078 0.53324 0.64479 0.0
H755 H 0.89648 0.59717 0.58961 0.0
H756 H 0.85077 0.53295 0.42659 0.0
H757 H 0.84898 0.43876 0.43358 0.0
C758 C 0.87126 0.40998 0.51584 0.0
C759 C 0.88378 0.40073 0.56282 0.0
C760 C 0.87187 0.46352 0.51463 0.0
C761 C 0.89671 0.44578 0.61089 0.0
C762 C 0.89754 0.49925 0.60849 0.0
C763 C 0.88618 0.56247 0.55525 0.0
C764 C 0.87381 0.57175 0.5071 0.0
C765 C 0.88526 0.50867 0.55983 0.0
C766 C 0.86033 0.52655 0.46506 0.0
C767 C 0.85939 0.47285 0.46831 0.0
H768 H 0.8651 0.88835 0.43055 0.0
H769 H 0.90805 0.93184 0.61854 0.0
H770 H 0.91 0.02558 0.64662 0.0
H771 H 0.89902 0.09472 0.61981 0.0
H772 H 0.85677 0.04956 0.42317 0.0
H773 H 0.85495 0.95704 0.39817 0.0
C774 C 0.87491 0.9182 0.47783 0.0
C775 C 0.88636 0.90296 0.52278 0.0
C776 C 0.876 0.97177 0.49307 0.0
C777 C 0.89909 0.94252 0.58273 0.0
C778 C 0.90017 -0.00392 0.59914 0.0
C779 C 0.88942 0.06461 0.57164 0.0
C780 C 0.87779 0.07904 0.52595 0.0
C781 C 0.88863 0.01114 0.55506 0.0
C782 C 0.8656 0.03956 0.46231 0.0
C783 C 0.86461 0.98649 0.44688 0.0
H784 H 0.15048 0.61054 0.60995 0.0
H785 H 0.10519 0.54529 0.43997 0.0
H786 H 0.10387 0.45221 0.44575 0.0
H787 H 0.11544 0.38887 0.50048 0.0
H788 H 0.16117 0.45425 0.66347 0.0
H789 H 0.16274 0.54814 0.65616 0.0
C790 C 0.1403 0.57611 0.57392 0.0
C791 C 0.12771 0.585 0.52708 0.0
C792 C 0.13982 0.52276 0.57523 0.0
C793 C 0.1148 0.53971 0.47941 0.0
C794 C 0.1141 0.48639 0.48182 0.0
C795 C 0.1257 0.42375 0.53478 0.0
C796 C 0.13814 0.4149 0.58291 0.0
C797 C 0.12647 0.47738 0.53022 0.0
C798 C 0.15157 0.46033 0.62489 0.0
C799 C 0.15238 0.51385 0.6215 0.0
H800 H 0.64656 0.61054 0.13821 0.0
H801 H 0.60294 0.56379 0.95566 0.0
H802 H 0.60205 0.47174 0.92227 0.0
H803 H 0.61417 0.40517 0.94257 0.0
H804 H 0.65742 0.45426 0.13095 0.0
H805 H 0.65803 0.54482 0.16244 0.0
C806 C 0.6368 0.58038 0.09109 0.0
C807 C 0.62486 0.59431 0.04927 0.0
C808 C 0.6364 0.52795 0.0721 0.0
C809 C 0.61227 0.55423 0.98916 0.0
C810 C 0.6118 0.50164 0.96968 0.0
C811 C 0.62375 0.43573 0.99024 0.0
C812 C 0.63595 0.42288 1.03213 0.0
C813 C 0.62389 0.48811 1.01022 0.0
C814 C 0.64811 0.46298 0.095 0.0
C815 C 0.64841 0.51491 0.11412 0.0
H816 H 0.39586 0.93337 0.10736 0.0
H817 H 0.35109 0.84847 0.93524 0.0
H818 H 0.34908 0.93547 0.91396 0.0
H819 H 0.36061 0.03692 0.93591 0.0
H820 H 0.40583 0.12302 0.10032 0.0
H821 H 0.40738 0.03501 0.12982 0.0
C822 C 0.38579 0.93392 0.06397 0.0
C823 C 0.37386 0.88423 1.0215 0.0
C824 C 0.38483 0.98461 0.04975 0.0
C825 C 0.3606 0.88584 0.96827 0.0
C826 C 0.3594 0.93575 0.95576 0.0
C827 C 0.37063 0.03612 0.97949 0.0
C828 C 0.38307 0.08603 1.01584 0.0
C829 C 0.3715 0.98547 0.9952 0.0
C830 C 0.39623 0.0849 0.07033 0.0
C831 C 0.39707 0.03463 0.08775 0.0
H832 H 0.36558 0.38532 0.92374 0.0
H833 H 0.40937 0.43971 0.10714 0.0
H834 H 0.40963 0.53134 0.13183 0.0
H835 H 0.39698 0.59549 0.10271 0.0
H836 H 0.35399 0.53948 0.90949 0.0
H837 H 0.35378 0.44907 0.88894 0.0
C838 C 0.37518 0.41708 0.96944 0.0
C839 C 0.38736 0.40563 1.01408 0.0
C840 C 0.37533 0.46941 0.98238 0.0
C841 C 0.39985 0.44757 0.07174 0.0
C842 C 0.39997 0.49989 0.08615 0.0
C843 C 0.38758 0.56348 0.05625 0.0
C844 C 0.37528 0.57419 1.01022 0.0
C845 C 0.38772 0.51125 0.04207 0.0
C846 C 0.36335 0.53234 0.94875 0.0
C847 C 0.36327 0.48047 0.93591 0.0
H848 H 0.65299 0.12452 0.0787 0.0
H849 H 0.60825 0.06349 0.90321 0.0
H850 H 0.60559 0.96901 0.91438 0.0
H851 H 0.61569 0.90286 0.97603 0.0
H852 H 0.6613 0.96374 0.13987 0.0
H853 H 0.66409 0.05905 0.12925 0.0
C854 C 0.64266 0.09068 0.04255 0.0
C855 C 0.63055 0.10127 0.99317 0.0
C856 C 0.64143 0.03628 0.04649 0.0
C857 C 0.61746 0.0567 0.94512 0.0
C858 C 0.61599 0.00249 0.95055 0.0
C859 C 0.62623 0.93709 1.00941 0.0
C860 C 0.63826 0.92644 0.05892 0.0
C861 C 0.62781 0.9917 1.0019 0.0
C862 C 0.65198 0.97107 0.10037 0.0
C863 C 0.65351 0.02549 0.09492 0.0
H864 H 0.13221 0.33807 0.26645 0.0
H865 H 0.12528 0.16983 0.31101 0.0
H866 H 0.12818 0.15921 0.11915 0.0
H867 H 0.13387 0.1996 0.93589 0.0
H868 H 0.13689 0.36333 0.891 0.0
H869 H 0.13456 0.3741 0.08278 0.0
C870 C 0.13158 0.29932 0.23431 0.0
C871 C 0.12976 0.25617 0.30512 0.0
C872 C 0.13245 0.29261 0.12237 0.0
C873 C 0.12787 0.20515 0.26026 0.0
C874 C 0.12926 0.19877 0.14974 0.0
C875 C 0.13342 0.23681 0.96766 0.0
C876 C 0.13489 0.27975 0.89713 0.0
C877 C 0.13174 0.24241 0.07953 0.0
C878 C 0.13525 0.32887 0.94189 0.0
C879 C 0.13404 0.33524 0.05223 0.0
H880 H 0.8943 0.32709 0.19892 0.0
H881 H 0.8713 0.1549 0.29017 0.0
H882 H 0.86529 0.12693 0.10409 0.0
H883 H 0.86671 0.15112 0.91303 0.0
H884 H 0.89008 0.32322 0.82124 0.0
H885 H 0.89589 0.35127 1.00763 0.0
C886 C 0.88784 0.28341 0.17815 0.0
C887 C 0.88277 0.24332 0.26002 0.0
C888 C 0.88465 0.26753 0.06979 0.0
C889 C 0.87484 0.18689 0.23045 0.0
C890 C 0.87155 0.17082 0.12333 0.0
C891 C 0.87317 0.1948 0.93376 0.0
C892 C 0.87831 0.23485 0.85184 0.0
C893 C 0.87638 0.2107 0.04206 0.0
C894 C 0.88636 0.2913 0.88124 0.0
C895 C 0.88957 0.30739 0.98843 0.0
H896 H 0.14489 0.83451 0.17601 0.0
H897 H 0.12107 0.66246 0.26776 0.0
H898 H 0.11527 0.63451 0.08131 0.0
H899 H 0.11701 0.65879 0.89005 0.0
H900 H 0.14061 0.83092 0.79874 0.0
H901 H 0.14657 0.85877 0.98492 0.0
C902 C 0.13833 0.79086 0.15526 0.0
C903 C 0.13305 0.7508 0.23716 0.0
C904 C 0.13517 0.77502 0.04693 0.0
C905 C 0.12489 0.69439 0.20775 0.0
C906 C 0.12169 0.67836 0.10054 0.0
C907 C 0.12359 0.70243 0.91084 0.0
C908 C 0.1288 0.74253 0.82899 0.0
C909 C 0.12676 0.71824 1.01919 0.0
C910 C 0.13692 0.79892 0.85851 0.0
C911 C 0.14019 0.81492 0.96566 0.0
H912 H 0.87992 0.64873 0.82281 0.0
H913 H 0.88699 0.81716 0.77889 0.0
H914 H 0.88411 0.82765 0.97079 0.0
H915 H 0.87845 0.78718 0.15399 0.0
H916 H 0.87525 0.62316 0.19815 0.0
H917 H 0.87753 0.61249 1.0063 0.0
C918 C 0.88058 0.68749 0.8551 0.0
C919 C 0.88244 0.73075 0.78447 0.0
C920 C 0.87971 0.69412 0.96706 0.0
C921 C 0.88437 0.78176 0.82951 0.0
C922 C 0.883 0.78808 0.94005 0.0
C923 C 0.87883 0.7499 0.12202 0.0
C924 C 0.87733 0.70685 0.19236 0.0
C925 C 0.88048 0.74435 1.01011 0.0
C926 C 0.87691 0.65769 0.14738 0.0
C927 C 0.87809 0.65137 0.03701 0.0
H928 H 0.63082 0.70781 0.416 0.0
H929 H 0.63808 0.87698 0.37636 0.0
H930 H 0.63627 0.8876 0.56838 0.0
H931 H 0.63299 0.84979 0.75065 0.0
H932 H 0.62255 0.67793 0.79167 0.0
H933 H 0.62493 0.66711 0.59925 0.0
C934 C 0.63158 0.74651 0.4492 0.0
C935 C 0.63403 0.79101 0.37998 0.0
C936 C 0.63027 0.75222 0.56144 0.0
C937 C 0.6357 0.84149 0.42627 0.0
C938 C 0.63478 0.84775 0.53674 0.0
C939 C 0.6315 0.81017 0.71761 0.0
C940 C 0.62872 0.76574 0.78738 0.0
C941 C 0.63221 0.80367 0.60561 0.0
C942 C 0.62578 0.71389 0.74153 0.0
C943 C 0.6269 0.70748 0.63075 0.0
H944 H 0.38707 0.81684 0.6815 0.0
H945 H 0.36673 0.64437 0.77024 0.0
H946 H 0.36099 0.61657 0.58379 0.0
H947 H 0.36221 0.64113 0.39309 0.0
H948 H 0.38251 0.81357 0.30405 0.0
H949 H 0.38789 0.84141 0.49098 0.0
C950 C 0.38121 0.77311 0.66011 0.0
C951 C 0.37688 0.73279 0.74126 0.0
C952 C 0.37813 0.75742 0.55167 0.0
C953 C 0.3697 0.67638 0.71103 0.0
C954 C 0.36658 0.66047 0.60372 0.0
C955 C 0.36789 0.68486 0.41455 0.0
C956 C 0.37239 0.72518 0.33329 0.0
C957 C 0.37078 0.70056 0.52309 0.0
C958 C 0.37937 0.7816 0.36359 0.0
C959 C 0.38232 0.79751 0.47103 0.0
H960 H 0.62041 0.17544 0.35665 0.0
H961 H 0.64326 0.34762 0.26526 0.0
H962 H 0.64914 0.3757 0.45138 0.0
H963 H 0.6477 0.35159 0.64242 0.0
H964 H 0.62441 0.17952 0.73446 0.0
H965 H 0.61866 0.15136 0.54806 0.0
C966 C 0.6268 0.21914 0.37742 0.0
C967 C 0.63188 0.25921 0.29552 0.0
C968 C 0.6299 0.23508 0.48579 0.0
C969 C 0.63972 0.31567 0.32505 0.0
C970 C 0.64293 0.33179 0.43217 0.0
C971 C 0.64127 0.30789 0.62175 0.0
C972 C 0.63616 0.26787 0.70371 0.0
C973 C 0.6381 0.29194 0.51347 0.0
C974 C 0.62812 0.21141 0.67441 0.0
C975 C 0.62495 0.19526 0.56722 0.0
H976 H 0.38717 0.16094 0.31266 0.0
H977 H 0.3887 0.32265 0.27045 0.0
H978 H 0.38512 0.33073 0.46235 0.0
H979 H 0.38061 0.28991 0.64502 0.0
H980 H 0.38316 0.13426 0.68778 0.0
H981 H 0.38591 0.12542 0.49577 0.0
C982 C 0.38644 0.19759 0.3453 0.0
C983 C 0.38691 0.23929 0.2751 0.0
C984 C 0.38526 0.2032 0.45729 0.0
C985 C 0.38712 0.28802 0.32065 0.0
C986 C 0.38536 0.29306 0.43119 0.0
C987 C 0.38236 0.25507 0.61273 0.0
C988 C 0.38236 0.21389 0.68269 0.0
C989 C 0.38427 0.25071 0.50079 0.0
C990 C 0.38364 0.16748 0.6373 0.0
C991 C 0.38509 0.16218 0.52685 0.0
H992 H 0.00714 0.11669 0.5481 0.0
H993 H 0.0468 0.27014 0.64773 0.0
H994 H 0.02958 0.31876 0.62968 0.0
H995 H 1.00314 0.31698 0.59119 0.0
H996 H 0.96411 0.16511 0.47621 0.0
H997 H 0.98098 0.11625 0.4998 0.0
C998 C 0.01202 0.16083 0.56568 0.0
C999 C 0.02825 0.18973 0.59943 0.0
C1000 C 1.00207 0.18861 0.55436 0.0
C1001 C 0.03443 0.24702 0.62074 0.0
C1002 C 0.02453 0.27471 0.61121 0.0
C1003 C 0.99828 0.27344 0.56907 0.0
C1004 C 0.98217 0.24533 0.53147 0.0
C1005 C 0.00831 0.24587 0.57855 0.0
C1006 C 0.97622 0.18822 0.50718 0.0
C1007 C 0.98598 0.16017 0.51938 0.0
H1008 H 1.00022 0.82914 0.36963 0.0
H1009 H 0.97401 0.7779 0.66736 0.0
H1010 H 0.99174 0.73595 0.71833 0.0
H1011 H 0.01488 0.71401 0.68002 0.0
H1012 H 0.0425 0.77206 0.39032 0.0
H1013 H 0.02449 0.81349 0.33727 0.0
C1014 C 0.99846 0.80987 0.44674 0.0
C1015 C 0.98552 0.80686 0.51371 0.0
C1016 C 0.00915 0.78756 0.4779 0.0
C1017 C 0.98345 0.78005 0.61212 0.0
C1018 C 0.99377 0.7565 0.64231 0.0
C1019 C 0.017 0.73602 0.60549 0.0
C1020 C 0.02999 0.73981 0.53895 0.0
C1021 C 0.00665 0.75999 0.57592 0.0
C1022 C 0.03268 0.76893 0.44322 0.0
C1023 C 0.0223 0.79222 0.41258 0.0
H1024 H 0.50785 0.65614 0.19504 0.0
H1025 H 0.53637 0.72851 0.91267 0.0
H1026 H 0.51803 0.76919 0.86933 0.0
H1027 H 0.49377 0.78466 0.91032 0.0
H1028 H 0.46387 0.7051 0.18201 0.0
H1029 H 0.48243 0.66453 0.22725 0.0
C1030 C 0.51002 0.67966 0.12252 0.0
C1031 C 0.52383 0.689 0.05819 0.0
C1032 C 0.49896 0.70122 0.09502 0.0
C1033 C 0.5263 0.72132 0.96624 0.0
C1034 C 0.51562 0.7442 0.9402 0.0
C1035 C 0.49125 0.75801 0.97895 0.0
C1036 C 0.47745 0.748 0.0429 0.0
C1037 C 0.50193 0.73451 1.00397 0.0
C1038 C 0.4743 0.71308 0.13104 0.0
C1039 C 0.485 0.69029 0.15736 0.0
H1040 H 0.50412 0.35021 0.85252 0.0
H1041 H 0.478 0.29534 0.14957 0.0
H1042 H 0.49543 0.25135 0.1953 0.0
H1043 H 0.51827 0.22874 0.15269 0.0
H1044 H 0.54578 0.28956 0.86346 0.0
H1045 H 0.52806 0.33303 0.81541 0.0
C1046 C 0.50232 0.32954 0.92823 0.0
C1047 C 0.4895 0.32611 0.99668 0.0
C1048 C 0.51281 0.30586 0.95625 0.0
C1049 C 0.48736 0.29777 0.09336 0.0
C1050 C 0.49749 0.27304 0.1205 0.0
C1051 C 0.5204 0.25169 0.07927 0.0
C1052 C 0.53327 0.25576 1.01143 0.0
C1053 C 0.51024 0.27679 0.05264 0.0
C1054 C 0.53602 0.28617 0.91725 0.0
C1055 C 0.52582 0.31066 0.8895 0.0
loop_
_geom_bond_atom_site_label_1
_geom_bond_atom_site_label_2
_geom_bond_distance
_geom_bond_site_symmetry_2
_ccdc_geom_bond_type
Gd0 N31 2.661 . S
Gd0 N37 2.601 . S
Gd0 O44 2.545 . S
Gd0 O45 2.606 . S
Gd0 O47 2.429 . S
Gd0 O48 2.545 . S
Gd0 O49 2.412 . S
Gd0 O51 2.362 . S
Gd0 O52 2.324 . S
Gd0 C59 2.828 . S
Gd1 N10 2.661 . S
Gd1 N14 2.601 . S
Gd1 O45 2.362 . S
Gd1 O46 2.324 . S
Gd1 O50 2.545 . S
Gd1 O51 2.606 . S
Gd1 O53 2.429 . S
Gd1 O54 2.545 . S
Gd1 O55 2.412 . S
Gd1 C68 2.828 . S
C2 C5 1.417 . S
C2 C7 1.431 . S
C2 C8 1.412 . S
C3 C6 1.437 . S
C3 C7 1.317 . S
C3 H22 0.929 . S
C4 C5 1.426 . S
C4 C6 1.413 . S
C4 N14 1.359 . S
C5 C2 1.417 . S
C5 C4 1.426 . S
C5 N10 1.350 . S
C6 C3 1.437 . S
C6 C4 1.413 . S
C6 C16 1.391 . S
C7 C2 1.431 . S
C7 C3 1.317 . S
C7 H18 0.930 . S
C8 C2 1.412 . S
C8 C9 1.355 . S
C8 H20 0.930 . S
C9 C8 1.355 . S
C9 C11 1.402 . S
C9 H21 0.930 . S
N10 Gd1 2.661 . S
N10 C5 1.350 . S
N10 C11 1.307 . S
C11 C9 1.402 . S
C11 N10 1.307 . S
C11 H12 0.930 . S
H12 C11 0.930 . S
C13 N14 1.334 . S
C13 C15 1.394 . S
C13 H17 0.930 . S
N14 Gd1 2.601 . S
N14 C4 1.359 . S
N14 C13 1.334 . S
C15 C13 1.394 . S
C15 C16 1.359 . S
C15 H27 0.930 . S
C16 C6 1.391 . S
C16 C15 1.359 . S
C16 H28 0.929 . S
H17 C13 0.930 . S
H18 C7 0.930 . S
H19 C36 0.930 . S
H20 C8 0.930 . S
H21 C9 0.930 . S
H22 C3 0.929 . S
H23 C41 0.930 . S
H24 C32 0.930 . S
H25 C33 0.930 . S
H26 C57 0.929 . S
H27 C15 0.930 . S
H28 C16 0.929 . S
H29 C58 0.930 1_556 S
H30 C39 0.930 . S
N31 Gd0 2.661 . S
N31 C35 1.350 . S
N31 C36 1.307 . S
C32 H24 0.930 . S
C32 C33 1.355 . S
C32 C34 1.412 . S
C33 H25 0.930 . S
C33 C32 1.355 . S
C33 C36 1.402 . S
C34 C32 1.412 . S
C34 C35 1.417 . S
C34 C58 1.431 . S
C35 N31 1.350 . S
C35 C34 1.417 . S
C35 C38 1.426 . S
C36 H19 0.930 . S
C36 N31 1.307 . S
C36 C33 1.402 . S
N37 Gd0 2.601 . S
N37 C38 1.359 . S
N37 C41 1.334 . S
C38 C35 1.426 . S
C38 N37 1.359 . S
C38 C42 1.413 . S
C39 H30 0.930 . S
C39 C40 1.359 . S
C39 C41 1.394 . S
C40 C39 1.359 . S
C40 C42 1.391 . S
C40 H43 0.929 . S
C41 H23 0.930 . S
C41 N37 1.334 . S
C41 C39 1.394 . S
C42 C38 1.413 . S
C42 C40 1.391 . S
C42 C57 1.437 . S
H43 C40 0.929 . S
O44 Gd0 2.545 . S
O44 C59 1.258 . S
O45 Gd0 2.606 . S
O45 Gd1 2.362 . S
O45 C56 1.284 . S
O46 Gd1 2.324 . S
O46 C66 1.254 . S
O47 Gd0 2.429 . S
O47 C66 1.268 . S
O48 Gd0 2.545 . S
O48 C56 1.250 . S
O49 Gd0 2.412 . S
O49 C59 1.252 . S
O50 Gd1 2.545 . S
O50 C68 1.258 . S
O51 Gd0 2.362 . S
O51 Gd1 2.606 . S
O51 C67 1.284 . S
O52 Gd0 2.324 . S
O52 C75 1.254 . S
O53 Gd1 2.429 . S
O53 C75 1.268 . S
O54 Gd1 2.545 . S
O54 C67 1.250 . S
O55 Gd1 2.412 . S
O55 C68 1.252 . S
C56 O45 1.284 . S
C56 O48 1.250 . S
C57 H26 0.929 . S
C57 C42 1.437 . S
C57 C58 1.317 . S
C58 H29 0.930 1_554 S
C58 C34 1.431 . S
C58 C57 1.317 . S
C59 Gd0 2.828 . S
C59 O44 1.258 . S
C59 O49 1.252 . S
C59 C60 1.497 . S
C60 C59 1.497 . S
C60 C61 1.395 . S
C60 C62 1.380 . S
C61 C60 1.395 . S
C61 C64 1.398 . S
C61 H76 0.930 . S
C62 C60 1.380 . S
C62 C63 1.391 . S
C62 H77 0.930 . S
C63 C62 1.391 . S
C63 C65 1.387 . S
C64 C61 1.398 . S
C64 C65 1.380 . S
C64 H78 0.930 . S
C65 C63 1.387 . S
C65 C64 1.380 . S
C65 H79 0.930 . S
C66 O46 1.254 . S
C66 O47 1.268 . S
C67 O51 1.284 . S
C67 O54 1.250 . S
C68 Gd1 2.828 . S
C68 O50 1.258 . S
C68 O55 1.252 . S
C68 C69 1.497 . S
C69 C68 1.497 . S
C69 C70 1.395 . S
C69 C71 1.380 . S
C70 C69 1.395 . S
C70 C73 1.398 . S
C70 H80 0.930 . S
C71 C69 1.380 . S
C71 C72 1.391 . S
C71 H81 0.930 . S
C72 C71 1.391 . S
C72 C74 1.387 . S
C73 C70 1.398 . S
C73 C74 1.380 . S
C73 H82 0.930 . S
C74 C72 1.387 . S
C74 C73 1.380 . S
C74 H83 0.930 . S
C75 O52 1.254 . S
C75 O53 1.268 . S
H76 C61 0.930 . S
H77 C62 0.930 . S
H78 C64 0.930 . S
H79 C65 0.930 . S
H80 C70 0.930 . S
H81 C71 0.930 . S
H82 C73 0.930 . S
H83 C74 0.930 . S
Gd84 N115 2.661 . S
Gd84 N121 2.601 . S
Gd84 O128 2.545 . S
Gd84 O129 2.606 . S
Gd84 O131 2.429 . S
Gd84 O132 2.545 . S
Gd84 O133 2.412 . S
Gd84 O135 2.362 . S
Gd84 O136 2.324 . S
Gd84 C143 2.828 . S
Gd85 N94 2.661 . S
Gd85 N98 2.601 . S
Gd85 O129 2.362 . S
Gd85 O130 2.324 . S
Gd85 O134 2.545 . S
Gd85 O135 2.606 . S
Gd85 O137 2.429 . S
Gd85 O138 2.545 . S
Gd85 O139 2.412 . S
Gd85 C152 2.828 . S
C86 C89 1.417 . S
C86 C91 1.431 . S
C86 C92 1.412 . S
C87 C90 1.437 . S
C87 C91 1.317 . S
C87 H106 0.929 . S
C88 C89 1.426 . S
C88 C90 1.413 . S
C88 N98 1.359 . S
C89 C86 1.417 . S
C89 C88 1.426 . S
C89 N94 1.350 . S
C90 C87 1.437 . S
C90 C88 1.413 . S
C90 C100 1.391 . S
C91 C86 1.431 . S
C91 C87 1.317 . S
C91 H102 0.930 . S
C92 C86 1.412 . S
C92 C93 1.355 . S
C92 H104 0.930 . S
C93 C92 1.355 . S
C93 C95 1.402 . S
C93 H105 0.930 . S
N94 Gd85 2.661 . S
N94 C89 1.350 . S
N94 C95 1.307 . S
C95 C93 1.402 . S
C95 N94 1.307 . S
C95 H96 0.930 . S
H96 C95 0.930 . S
C97 N98 1.334 . S
C97 C99 1.394 . S
C97 H101 0.930 . S
N98 Gd85 2.601 . S
N98 C88 1.359 . S
N98 C97 1.334 . S
C99 C97 1.394 . S
C99 C100 1.359 . S
C99 H111 0.930 . S
C100 C90 1.391 . S
C100 C99 1.359 . S
C100 H112 0.929 . S
H101 C97 0.930 . S
H102 C91 0.930 . S
H103 C120 0.930 . S
H104 C92 0.930 . S
H105 C93 0.930 . S
H106 C87 0.929 . S
H107 C125 0.930 . S
H108 C116 0.930 . S
H109 C117 0.930 . S
H110 C141 0.929 . S
H111 C99 0.930 . S
H112 C100 0.929 . S
H113 C142 0.930 1_556 S
H114 C123 0.930 1_565 S
N115 Gd84 2.661 . S
N115 C119 1.350 . S
N115 C120 1.307 . S
C116 H108 0.930 . S
C116 C117 1.355 . S
C116 C118 1.412 . S
C117 H109 0.930 . S
C117 C116 1.355 . S
C117 C120 1.402 . S
C118 C116 1.412 . S
C118 C119 1.417 . S
C118 C142 1.431 . S
C119 N115 1.350 . S
C119 C118 1.417 . S
C119 C122 1.426 . S
C120 H103 0.930 . S
C120 N115 1.307 . S
C120 C117 1.402 . S
N121 Gd84 2.601 . S
N121 C122 1.359 . S
N121 C125 1.334 . S
C122 C119 1.426 . S
C122 N121 1.359 . S
C122 C126 1.413 . S
C123 H114 0.930 1_545 S
C123 C124 1.359 . S
C123 C125 1.394 . S
C124 C123 1.359 . S
C124 C126 1.391 . S
C124 H127 0.929 . S
C125 H107 0.930 . S
C125 N121 1.334 . S
C125 C123 1.394 . S
C126 C122 1.413 . S
C126 C124 1.391 . S
C126 C141 1.437 . S
H127 C124 0.929 . S
O128 Gd84 2.545 . S
O128 C143 1.258 . S
O129 Gd84 2.606 . S
O129 Gd85 2.362 . S
O129 C140 1.284 . S
O130 Gd85 2.324 . S
O130 C150 1.254 . S
O131 Gd84 2.429 . S
O131 C150 1.268 . S
O132 Gd84 2.545 . S
O132 C140 1.250 . S
O133 Gd84 2.412 . S
O133 C143 1.252 . S
O134 Gd85 2.545 . S
O134 C152 1.258 . S
O135 Gd84 2.362 . S
O135 Gd85 2.606 . S
O135 C151 1.284 . S
O136 Gd84 2.324 . S
O136 C159 1.254 . S
O137 Gd85 2.429 . S
O137 C159 1.268 . S
O138 Gd85 2.545 . S
O138 C151 1.250 . S
O139 Gd85 2.412 . S
O139 C152 1.252 . S
C140 O129 1.284 . S
C140 O132 1.250 . S
C141 H110 0.929 . S
C141 C126 1.437 . S
C141 C142 1.317 . S
C142 H113 0.930 1_554 S
C142 C118 1.431 . S
C142 C141 1.317 . S
C143 Gd84 2.828 . S
C143 O128 1.258 . S
C143 O133 1.252 . S
C143 C144 1.497 . S
C144 C143 1.497 . S
C144 C145 1.395 . S
C144 C146 1.380 . S
C145 C144 1.395 . S
C145 C148 1.398 . S
C145 H160 0.930 . S
C146 C144 1.380 . S
C146 C147 1.391 . S
C146 H161 0.930 . S
C147 C146 1.391 . S
C147 C149 1.387 . S
C148 C145 1.398 . S
C148 C149 1.380 . S
C148 H162 0.930 . S
C149 C147 1.387 . S
C149 C148 1.380 . S
C149 H163 0.930 . S
C150 O130 1.254 . S
C150 O131 1.268 . S
C151 O135 1.284 . S
C151 O138 1.250 . S
C152 Gd85 2.828 . S
C152 O134 1.258 . S
C152 O139 1.252 . S
C152 C153 1.497 . S
C153 C152 1.497 . S
C153 C154 1.395 . S
C153 C155 1.380 . S
C154 C153 1.395 . S
C154 C157 1.398 . S
C154 H164 0.930 . S
C155 C153 1.380 . S
C155 C156 1.391 . S
C155 H165 0.930 . S
C156 C155 1.391 . S
C156 C158 1.387 . S
C157 C154 1.398 . S
C157 C158 1.380 . S
C157 H166 0.930 . S
C158 C156 1.387 . S
C158 C157 1.380 . S
C158 H167 0.930 . S
C159 O136 1.254 . S
C159 O137 1.268 . S
H160 C145 0.930 . S
H161 C146 0.930 . S
H162 C148 0.930 . S
H163 C149 0.930 . S
H164 C154 0.930 . S
H165 C155 0.930 . S
H166 C157 0.930 . S
H167 C158 0.930 . S
Gd168 N199 2.661 . S
Gd168 N205 2.601 . S
Gd168 O212 2.545 . S
Gd168 O213 2.606 . S
Gd168 O215 2.429 . S
Gd168 O216 2.545 . S
Gd168 O217 2.412 . S
Gd168 O219 2.362 . S
Gd168 O220 2.324 . S
Gd168 C227 2.828 . S
Gd169 N178 2.661 . S
Gd169 N182 2.601 . S
Gd169 O213 2.362 . S
Gd169 O214 2.324 . S
Gd169 O218 2.545 . S
Gd169 O219 2.606 . S
Gd169 O221 2.429 . S
Gd169 O222 2.545 . S
Gd169 O223 2.412 . S
Gd169 C236 2.828 . S
C170 C173 1.417 . S
C170 C175 1.431 . S
C170 C176 1.412 . S
C171 C174 1.437 . S
C171 C175 1.317 . S
C171 H190 0.929 . S
C172 C173 1.426 . S
C172 C174 1.413 . S
C172 N182 1.359 . S
C173 C170 1.417 . S
C173 C172 1.426 . S
C173 N178 1.350 . S
C174 C171 1.437 . S
C174 C172 1.413 . S
C174 C184 1.391 . S
C175 C170 1.431 . S
C175 C171 1.317 . S
C175 H186 0.930 1_556 S
C176 C170 1.412 . S
C176 C177 1.355 . S
C176 H188 0.930 . S
C177 C176 1.355 . S
C177 C179 1.402 . S
C177 H189 0.930 . S
N178 Gd169 2.661 . S
N178 C173 1.350 . S
N178 C179 1.307 . S
C179 C177 1.402 . S
C179 N178 1.307 . S
C179 H180 0.930 . S
H180 C179 0.930 . S
C181 N182 1.334 . S
C181 C183 1.394 . S
C181 H185 0.930 . S
N182 Gd169 2.601 . S
N182 C172 1.359 . S
N182 C181 1.334 . S
C183 C181 1.394 . S
C183 C184 1.359 . S
C183 H195 0.930 1_565 S
C184 C174 1.391 . S
C184 C183 1.359 . S
C184 H196 0.929 . S
H185 C181 0.930 . S
H186 C175 0.930 1_554 S
H187 C204 0.930 . S
H188 C176 0.930 . S
H189 C177 0.930 . S
H190 C171 0.929 . S
H191 C209 0.930 . S
H192 C200 0.930 . S
H193 C201 0.930 . S
H194 C225 0.929 . S
H195 C183 0.930 1_545 S
H196 C184 0.929 . S
H197 C226 0.930 . S
H198 C207 0.930 . S
N199 Gd168 2.661 . S
N199 C203 1.350 . S
N199 C204 1.307 . S
C200 H192 0.930 . S
C200 C201 1.355 . S
C200 C202 1.412 . S
C201 H193 0.930 . S
C201 C200 1.355 . S
C201 C204 1.402 . S
C202 C200 1.412 . S
C202 C203 1.417 . S
C202 C226 1.431 . S
C203 N199 1.350 . S
C203 C202 1.417 . S
C203 C206 1.426 . S
C204 H187 0.930 . S
C204 N199 1.307 . S
C204 C201 1.402 . S
N205 Gd168 2.601 . S
N205 C206 1.359 . S
N205 C209 1.334 . S
C206 C203 1.426 . S
C206 N205 1.359 . S
C206 C210 1.413 . S
C207 H198 0.930 . S
C207 C208 1.359 . S
C207 C209 1.394 . S
C208 C207 1.359 . S
C208 C210 1.391 . S
C208 H211 0.929 . S
C209 H191 0.930 . S
C209 N205 1.334 . S
C209 C207 1.394 . S
C210 C206 1.413 . S
C210 C208 1.391 . S
C210 C225 1.437 . S
H211 C208 0.929 . S
O212 Gd168 2.545 . S
O212 C227 1.258 . S
O213 Gd168 2.606 . S
O213 Gd169 2.362 . S
O213 C224 1.284 . S
O214 Gd169 2.324 . S
O214 C234 1.254 . S
O215 Gd168 2.429 . S
O215 C234 1.268 . S
O216 Gd168 2.545 . S
O216 C224 1.250 . S
O217 Gd168 2.412 . S
O217 C227 1.252 . S
O218 Gd169 2.545 . S
O218 C236 1.258 . S
O219 Gd168 2.362 . S
O219 Gd169 2.606 . S
O219 C235 1.284 . S
O220 Gd168 2.324 . S
O220 C243 1.254 . S
O221 Gd169 2.429 . S
O221 C243 1.268 . S
O222 Gd169 2.545 . S
O222 C235 1.250 . S
O223 Gd169 2.412 . S
O223 C236 1.252 . S
C224 O213 1.284 . S
C224 O216 1.250 . S
C225 H194 0.929 . S
C225 C210 1.437 . S
C225 C226 1.317 . S
C226 H197 0.930 . S
C226 C202 1.431 . S
C226 C225 1.317 . S
C227 Gd168 2.828 . S
C227 O212 1.258 . S
C227 O217 1.252 . S
C227 C228 1.497 . S
C228 C227 1.497 . S
C228 C229 1.395 . S
C228 C230 1.380 . S
C229 C228 1.395 . S
C229 C232 1.398 . S
C229 H244 0.930 . S
C230 C228 1.380 . S
C230 C231 1.391 . S
C230 H245 0.930 . S
C231 C230 1.391 . S
C231 C233 1.387 . S
C232 C229 1.398 . S
C232 C233 1.380 . S
C232 H246 0.930 . S
C233 C231 1.387 . S
C233 C232 1.380 . S
C233 H247 0.930 . S
C234 O214 1.254 . S
C234 O215 1.268 . S
C235 O219 1.284 . S
C235 O222 1.250 . S
C236 Gd169 2.828 . S
C236 O218 1.258 . S
C236 O223 1.252 . S
C236 C237 1.497 . S
C237 C236 1.497 . S
C237 C238 1.395 . S
C237 C239 1.380 . S
C238 C237 1.395 . S
C238 C241 1.398 . S
C238 H248 0.930 . S
C239 C237 1.380 . S
C239 C240 1.391 . S
C239 H249 0.930 . S
C240 C239 1.391 . S
C240 C242 1.387 . S
C241 C238 1.398 . S
C241 C242 1.380 . S
C241 H250 0.930 . S
C242 C240 1.387 . S
C242 C241 1.380 . S
C242 H251 0.930 . S
C243 O220 1.254 . S
C243 O221 1.268 . S
H244 C229 0.930 . S
H245 C230 0.930 . S
H246 C232 0.930 . S
H247 C233 0.930 . S
H248 C238 0.930 . S
H249 C239 0.930 . S
H250 C241 0.930 . S
H251 C242 0.930 . S
Gd252 N283 2.661 . S
Gd252 N289 2.601 . S
Gd252 O296 2.545 . S
Gd252 O297 2.606 . S
Gd252 O299 2.429 . S
Gd252 O300 2.545 . S
Gd252 O301 2.412 . S
Gd252 O303 2.362 . S
Gd252 O304 2.324 . S
Gd252 C311 2.828 . S
Gd253 N262 2.661 . S
Gd253 N266 2.601 . S
Gd253 O297 2.362 . S
Gd253 O298 2.324 . S
Gd253 O302 2.545 . S
Gd253 O303 2.606 . S
Gd253 O305 2.429 . S
Gd253 O306 2.545 . S
Gd253 O307 2.412 . S
Gd253 C320 2.828 . S
C254 C257 1.417 . S
C254 C259 1.431 . S
C254 C260 1.412 . S
C255 C258 1.437 . S
C255 C259 1.317 . S
C255 H274 0.929 . S
C256 C257 1.426 . S
C256 C258 1.413 . S
C256 N266 1.359 . S
C257 C254 1.417 . S
C257 C256 1.426 . S
C257 N262 1.350 . S
C258 C255 1.437 . S
C258 C256 1.413 . S
C258 C268 1.391 . S
C259 C254 1.431 . S
C259 C255 1.317 . S
C259 H270 0.930 1_556 S
C260 C254 1.412 . S
C260 C261 1.355 . S
C260 H272 0.930 . S
C261 C260 1.355 . S
C261 C263 1.402 . S
C261 H273 0.930 . S
N262 Gd253 2.661 . S
N262 C257 1.350 . S
N262 C263 1.307 . S
C263 C261 1.402 . S
C263 N262 1.307 . S
C263 H264 0.930 . S
H264 C263 0.930 . S
C265 N266 1.334 . S
C265 C267 1.394 . S
C265 H269 0.930 . S
N266 Gd253 2.601 . S
N266 C256 1.359 . S
N266 C265 1.334 . S
C267 C265 1.394 . S
C267 C268 1.359 . S
C267 H279 0.930 . S
C268 C258 1.391 . S
C268 C267 1.359 . S
C268 H280 0.929 . S
H269 C265 0.930 . S
H270 C259 0.930 1_554 S
H271 C288 0.930 . S
H272 C260 0.930 . S
H273 C261 0.930 . S
H274 C255 0.929 . S
H275 C293 0.930 . S
H276 C284 0.930 . S
H277 C285 0.930 . S
H278 C309 0.929 . S
H279 C267 0.930 . S
H280 C268 0.929 . S
H281 C310 0.930 . S
H282 C291 0.930 . S
N283 Gd252 2.661 . S
N283 C287 1.350 . S
N283 C288 1.307 . S
C284 H276 0.930 . S
C284 C285 1.355 . S
C284 C286 1.412 . S
C285 H277 0.930 . S
C285 C284 1.355 . S
C285 C288 1.402 . S
C286 C284 1.412 . S
C286 C287 1.417 . S
C286 C310 1.431 . S
C287 N283 1.350 . S
C287 C286 1.417 . S
C287 C290 1.426 . S
C288 H271 0.930 . S
C288 N283 1.307 . S
C288 C285 1.402 . S
N289 Gd252 2.601 . S
N289 C290 1.359 . S
N289 C293 1.334 . S
C290 C287 1.426 . S
C290 N289 1.359 . S
C290 C294 1.413 . S
C291 H282 0.930 . S
C291 C292 1.359 . S
C291 C293 1.394 . S
C292 C291 1.359 . S
C292 C294 1.391 . S
C292 H295 0.929 . S
C293 H275 0.930 . S
C293 N289 1.334 . S
C293 C291 1.394 . S
C294 C290 1.413 . S
C294 C292 1.391 . S
C294 C309 1.437 . S
H295 C292 0.929 . S
O296 Gd252 2.545 . S
O296 C311 1.258 . S
O297 Gd252 2.606 . S
O297 Gd253 2.362 . S
O297 C308 1.284 . S
O298 Gd253 2.324 . S
O298 C318 1.254 . S
O299 Gd252 2.429 . S
O299 C318 1.268 . S
O300 Gd252 2.545 . S
O300 C308 1.250 . S
O301 Gd252 2.412 . S
O301 C311 1.252 . S
O302 Gd253 2.545 . S
O302 C320 1.258 . S
O303 Gd252 2.362 . S
O303 Gd253 2.606 . S
O303 C319 1.284 . S
O304 Gd252 2.324 . S
O304 C327 1.254 . S
O305 Gd253 2.429 . S
O305 C327 1.268 . S
O306 Gd253 2.545 . S
O306 C319 1.250 . S
O307 Gd253 2.412 . S
O307 C320 1.252 . S
C308 O297 1.284 . S
C308 O300 1.250 . S
C309 H278 0.929 . S
C309 C294 1.437 . S
C309 C310 1.317 . S
C310 H281 0.930 . S
C310 C286 1.431 . S
C310 C309 1.317 . S
C311 Gd252 2.828 . S
C311 O296 1.258 . S
C311 O301 1.252 . S
C311 C312 1.497 . S
C312 C311 1.497 . S
C312 C313 1.395 . S
C312 C314 1.380 . S
C313 C312 1.395 . S
C313 C316 1.398 . S
C313 H328 0.930 . S
C314 C312 1.380 . S
C314 C315 1.391 . S
C314 H329 0.930 . S
C315 C314 1.391 . S
C315 C317 1.387 . S
C316 C313 1.398 . S
C316 C317 1.380 . S
C316 H330 0.930 . S
C317 C315 1.387 . S
C317 C316 1.380 . S
C317 H331 0.930 . S
C318 O298 1.254 . S
C318 O299 1.268 . S
C319 O303 1.284 . S
C319 O306 1.250 . S
C320 Gd253 2.828 . S
C320 O302 1.258 . S
C320 O307 1.252 . S
C320 C321 1.497 . S
C321 C320 1.497 . S
C321 C322 1.395 . S
C321 C323 1.380 . S
C322 C321 1.395 . S
C322 C325 1.398 . S
C322 H332 0.930 . S
C323 C321 1.380 . S
C323 C324 1.391 . S
C323 H333 0.930 . S
C324 C323 1.391 . S
C324 C326 1.387 . S
C325 C322 1.398 . S
C325 C326 1.380 . S
C325 H334 0.930 . S
C326 C324 1.387 . S
C326 C325 1.380 . S
C326 H335 0.930 . S
C327 O304 1.254 . S
C327 O305 1.268 . S
H328 C313 0.930 . S
H329 C314 0.930 . S
H330 C316 0.930 . S
H331 C317 0.930 . S
H332 C322 0.930 . S
H333 C323 0.930 . S
H334 C325 0.930 . S
H335 C326 0.930 . S
Gd336 N367 2.661 . S
Gd336 N373 2.601 . S
Gd336 O380 2.545 1_556 S
Gd336 O381 2.606 1_556 S
Gd336 O383 2.429 1_556 S
Gd336 O384 2.545 1_556 S
Gd336 O385 2.412 1_556 S
Gd336 O387 2.362 . S
Gd336 O388 2.324 . S
Gd336 C395 2.828 1_556 S
Gd337 N346 2.661 . S
Gd337 N350 2.601 . S
Gd337 O381 2.362 . S
Gd337 O382 2.324 . S
Gd337 O386 2.545 1_554 S
Gd337 O387 2.606 1_554 S
Gd337 O389 2.429 1_554 S
Gd337 O390 2.545 1_554 S
Gd337 O391 2.412 1_554 S
Gd337 C404 2.828 1_554 S
C338 C341 1.417 . S
C338 C343 1.431 . S
C338 C344 1.412 . S
C339 C342 1.437 . S
C339 C343 1.317 . S
C339 H358 0.929 . S
C340 C341 1.426 . S
C340 C342 1.413 . S
C340 N350 1.359 . S
C341 C338 1.417 . S
C341 C340 1.426 . S
C341 N346 1.350 . S
C342 C339 1.437 . S
C342 C340 1.413 . S
C342 C352 1.391 . S
C343 C338 1.431 . S
C343 C339 1.317 . S
C343 H354 0.930 . S
C344 C338 1.412 . S
C344 C345 1.355 . S
C344 H356 0.930 . S
C345 C344 1.355 . S
C345 C347 1.402 . S
C345 H357 0.930 . S
N346 Gd337 2.661 . S
N346 C341 1.350 . S
N346 C347 1.307 . S
C347 C345 1.402 . S
C347 N346 1.307 . S
C347 H348 0.930 . S
H348 C347 0.930 . S
C349 N350 1.334 . S
C349 C351 1.394 . S
C349 H353 0.930 . S
N350 Gd337 2.601 . S
N350 C340 1.359 . S
N350 C349 1.334 . S
C351 C349 1.394 . S
C351 C352 1.359 . S
C351 H363 0.930 . S
C352 C342 1.391 . S
C352 C351 1.359 . S
C352 H364 0.929 . S
H353 C349 0.930 . S
H354 C343 0.930 . S
H355 C372 0.930 . S
H356 C344 0.930 . S
H357 C345 0.930 . S
H358 C339 0.929 . S
H359 C377 0.930 . S
H360 C368 0.930 . S
H361 C369 0.930 . S
H362 C393 0.929 . S
H363 C351 0.930 . S
H364 C352 0.929 . S
H365 C394 0.930 . S
H366 C375 0.930 1_545 S
N367 Gd336 2.661 . S
N367 C371 1.350 . S
N367 C372 1.307 . S
C368 H360 0.930 . S
C368 C369 1.355 . S
C368 C370 1.412 . S
C369 H361 0.930 . S
C369 C368 1.355 . S
C369 C372 1.402 . S
C370 C368 1.412 . S
C370 C371 1.417 . S
C370 C394 1.431 . S
C371 N367 1.350 . S
C371 C370 1.417 . S
C371 C374 1.426 . S
C372 H355 0.930 . S
C372 N367 1.307 . S
C372 C369 1.402 . S
N373 Gd336 2.601 . S
N373 C374 1.359 . S
N373 C377 1.334 . S
C374 C371 1.426 . S
C374 N373 1.359 . S
C374 C378 1.413 . S
C375 H366 0.930 1_565 S
C375 C376 1.359 . S
C375 C377 1.394 . S
C376 C375 1.359 . S
C376 C378 1.391 . S
C376 H379 0.929 . S
C377 H359 0.930 . S
C377 N373 1.334 . S
C377 C375 1.394 . S
C378 C374 1.413 . S
C378 C376 1.391 . S
C378 C393 1.437 . S
H379 C376 0.929 . S
O380 Gd336 2.545 1_554 S
O380 C395 1.258 . S
O381 Gd336 2.606 1_554 S
O381 Gd337 2.362 . S
O381 C392 1.284 . S
O382 Gd337 2.324 . S
O382 C402 1.254 1_554 S
O383 Gd336 2.429 1_554 S
O383 C402 1.268 1_554 S
O384 Gd336 2.545 1_554 S
O384 C392 1.250 . S
O385 Gd336 2.412 1_554 S
O385 C395 1.252 . S
O386 Gd337 2.545 1_556 S
O386 C404 1.258 . S
O387 Gd336 2.362 . S
O387 Gd337 2.606 1_556 S
O387 C403 1.284 . S
O388 Gd336 2.324 . S
O388 C411 1.254 1_556 S
O389 Gd337 2.429 1_556 S
O389 C411 1.268 1_556 S
O390 Gd337 2.545 1_556 S
O390 C403 1.250 . S
O391 Gd337 2.412 1_556 S
O391 C404 1.252 . S
C392 O381 1.284 . S
C392 O384 1.250 . S
C393 H362 0.929 . S
C393 C378 1.437 . S
C393 C394 1.317 . S
C394 H365 0.930 . S
C394 C370 1.431 . S
C394 C393 1.317 . S
C395 Gd336 2.828 1_554 S
C395 O380 1.258 . S
C395 O385 1.252 . S
C395 C396 1.497 . S
C396 C395 1.497 . S
C396 C397 1.395 . S
C396 C398 1.380 . S
C397 C396 1.395 . S
C397 C400 1.398 . S
C397 H412 0.930 . S
C398 C396 1.380 . S
C398 C399 1.391 . S
C398 H413 0.930 . S
C399 C398 1.391 . S
C399 C401 1.387 . S
C400 C397 1.398 . S
C400 C401 1.380 . S
C400 H414 0.930 . S
C401 C399 1.387 . S
C401 C400 1.380 . S
C401 H415 0.930 . S
C402 O382 1.254 1_556 S
C402 O383 1.268 1_556 S
C403 O387 1.284 . S
C403 O390 1.250 . S
C404 Gd337 2.828 1_556 S
C404 O386 1.258 . S
C404 O391 1.252 . S
C404 C405 1.497 . S
C405 C404 1.497 . S
C405 C406 1.395 . S
C405 C407 1.380 . S
C406 C405 1.395 . S
C406 C409 1.398 . S
C406 H416 0.930 . S
C407 C405 1.380 . S
C407 C408 1.391 . S
C407 H417 0.930 . S
C408 C407 1.391 . S
C408 C410 1.387 . S
C409 C406 1.398 . S
C409 C410 1.380 . S
C409 H418 0.930 . S
C410 C408 1.387 . S
C410 C409 1.380 . S
C410 H419 0.930 . S
C411 O388 1.254 1_554 S
C411 O389 1.268 1_554 S
H412 C397 0.930 . S
H413 C398 0.930 . S
H414 C400 0.930 . S
H415 C401 0.930 . S
H416 C406 0.930 . S
H417 C407 0.930 . S
H418 C409 0.930 . S
H419 C410 0.930 . S
Gd420 N451 2.661 . S
Gd420 N457 2.601 . S
Gd420 O464 2.545 1_556 S
Gd420 O465 2.606 1_556 S
Gd420 O467 2.429 1_556 S
Gd420 O468 2.545 1_556 S
Gd420 O469 2.412 1_556 S
Gd420 O471 2.362 . S
Gd420 O472 2.324 . S
Gd420 C479 2.828 1_556 S
Gd421 N430 2.661 . S
Gd421 N434 2.601 . S
Gd421 O465 2.362 . S
Gd421 O466 2.324 . S
Gd421 O470 2.545 1_554 S
Gd421 O471 2.606 1_554 S
Gd421 O473 2.429 1_554 S
Gd421 O474 2.545 1_554 S
Gd421 O475 2.412 1_554 S
Gd421 C488 2.828 1_554 S
C422 C425 1.417 . S
C422 C427 1.431 . S
C422 C428 1.412 . S
C423 C426 1.437 . S
C423 C427 1.317 . S
C423 H442 0.929 . S
C424 C425 1.426 . S
C424 C426 1.413 . S
C424 N434 1.359 . S
C425 C422 1.417 . S
C425 C424 1.426 . S
C425 N430 1.350 . S
C426 C423 1.437 . S
C426 C424 1.413 . S
C426 C436 1.391 . S
C427 C422 1.431 . S
C427 C423 1.317 . S
C427 H438 0.930 . S
C428 C422 1.412 . S
C428 C429 1.355 . S
C428 H440 0.930 . S
C429 C428 1.355 . S
C429 C431 1.402 . S
C429 H441 0.930 . S
N430 Gd421 2.661 . S
N430 C425 1.350 . S
N430 C431 1.307 . S
C431 C429 1.402 . S
C431 N430 1.307 . S
C431 H432 0.930 . S
H432 C431 0.930 . S
C433 N434 1.334 . S
C433 C435 1.394 . S
C433 H437 0.930 . S
N434 Gd421 2.601 . S
N434 C424 1.359 . S
N434 C433 1.334 . S
C435 C433 1.394 . S
C435 C436 1.359 . S
C435 H447 0.930 . S
C436 C426 1.391 . S
C436 C435 1.359 . S
C436 H448 0.929 . S
H437 C433 0.930 . S
H438 C427 0.930 . S
H439 C456 0.930 . S
H440 C428 0.930 . S
H441 C429 0.930 . S
H442 C423 0.929 . S
H443 C461 0.930 . S
H444 C452 0.930 . S
H445 C453 0.930 . S
H446 C477 0.929 . S
H447 C435 0.930 . S
H448 C436 0.929 . S
H449 C478 0.930 . S
H450 C459 0.930 . S
N451 Gd420 2.661 . S
N451 C455 1.350 . S
N451 C456 1.307 . S
C452 H444 0.930 . S
C452 C453 1.355 . S
C452 C454 1.412 . S
C453 H445 0.930 . S
C453 C452 1.355 . S
C453 C456 1.402 . S
C454 C452 1.412 . S
C454 C455 1.417 . S
C454 C478 1.431 . S
C455 N451 1.350 . S
C455 C454 1.417 . S
C455 C458 1.426 . S
C456 H439 0.930 . S
C456 N451 1.307 . S
C456 C453 1.402 . S
N457 Gd420 2.601 . S
N457 C458 1.359 . S
N457 C461 1.334 . S
C458 C455 1.426 . S
C458 N457 1.359 . S
C458 C462 1.413 . S
C459 H450 0.930 . S
C459 C460 1.359 . S
C459 C461 1.394 . S
C460 C459 1.359 . S
C460 C462 1.391 . S
C460 H463 0.929 . S
C461 H443 0.930 . S
C461 N457 1.334 . S
C461 C459 1.394 . S
C462 C458 1.413 . S
C462 C460 1.391 . S
C462 C477 1.437 . S
H463 C460 0.929 . S
O464 Gd420 2.545 1_554 S
O464 C479 1.258 . S
O465 Gd420 2.606 1_554 S
O465 Gd421 2.362 . S
O465 C476 1.284 . S
O466 Gd421 2.324 . S
O466 C486 1.254 1_554 S
O467 Gd420 2.429 1_554 S
O467 C486 1.268 1_554 S
O468 Gd420 2.545 1_554 S
O468 C476 1.250 . S
O469 Gd420 2.412 1_554 S
O469 C479 1.252 . S
O470 Gd421 2.545 1_556 S
O470 C488 1.258 . S
O471 Gd420 2.362 . S
O471 Gd421 2.606 1_556 S
O471 C487 1.284 . S
O472 Gd420 2.324 . S
O472 C495 1.254 1_556 S
O473 Gd421 2.429 1_556 S
O473 C495 1.268 1_556 S
O474 Gd421 2.545 1_556 S
O474 C487 1.250 . S
O475 Gd421 2.412 1_556 S
O475 C488 1.252 . S
C476 O465 1.284 . S
C476 O468 1.250 . S
C477 H446 0.929 . S
C477 C462 1.437 . S
C477 C478 1.317 . S
C478 H449 0.930 . S
C478 C454 1.431 . S
C478 C477 1.317 . S
C479 Gd420 2.828 1_554 S
C479 O464 1.258 . S
C479 O469 1.252 . S
C479 C480 1.497 . S
C480 C479 1.497 . S
C480 C481 1.395 . S
C480 C482 1.380 . S
C481 C480 1.395 . S
C481 C484 1.398 . S
C481 H496 0.930 . S
C482 C480 1.380 . S
C482 C483 1.391 . S
C482 H497 0.930 . S
C483 C482 1.391 . S
C483 C485 1.387 . S
C484 C481 1.398 . S
C484 C485 1.380 . S
C484 H498 0.930 . S
C485 C483 1.387 . S
C485 C484 1.380 . S
C485 H499 0.930 . S
C486 O466 1.254 1_556 S
C486 O467 1.268 1_556 S
C487 O471 1.284 . S
C487 O474 1.250 . S
C488 Gd421 2.828 1_556 S
C488 O470 1.258 . S
C488 O475 1.252 . S
C488 C489 1.497 . S
C489 C488 1.497 . S
C489 C490 1.395 . S
C489 C491 1.380 . S
C490 C489 1.395 . S
C490 C493 1.398 . S
C490 H500 0.930 . S
C491 C489 1.380 . S
C491 C492 1.391 . S
C491 H501 0.930 . S
C492 C491 1.391 . S
C492 C494 1.387 . S
C493 C490 1.398 . S
C493 C494 1.380 . S
C493 H502 0.930 . S
C494 C492 1.387 . S
C494 C493 1.380 . S
C494 H503 0.930 . S
C495 O472 1.254 1_554 S
C495 O473 1.268 1_554 S
H496 C481 0.930 . S
H497 C482 0.930 . S
H498 C484 0.930 . S
H499 C485 0.930 . S
H500 C490 0.930 . S
H501 C491 0.930 . S
H502 C493 0.930 . S
H503 C494 0.930 . S
Gd504 N535 2.661 . S
Gd504 N541 2.601 . S
Gd504 O548 2.545 1_556 S
Gd504 O549 2.606 1_556 S
Gd504 O551 2.429 1_556 S
Gd504 O552 2.545 1_556 S
Gd504 O553 2.412 1_556 S
Gd504 O555 2.362 . S
Gd504 O556 2.324 . S
Gd504 C563 2.828 1_556 S
Gd505 N514 2.661 . S
Gd505 N518 2.601 . S
Gd505 O549 2.362 . S
Gd505 O550 2.324 . S
Gd505 O554 2.545 1_554 S
Gd505 O555 2.606 1_554 S
Gd505 O557 2.429 1_554 S
Gd505 O558 2.545 1_554 S
Gd505 O559 2.412 1_554 S
Gd505 C572 2.828 1_554 S
C506 C509 1.417 . S
C506 C511 1.431 . S
C506 C512 1.412 . S
C507 C510 1.437 . S
C507 C511 1.317 . S
C507 H526 0.929 . S
C508 C509 1.426 . S
C508 C510 1.413 . S
C508 N518 1.359 . S
C509 C506 1.417 . S
C509 C508 1.426 . S
C509 N514 1.350 . S
C510 C507 1.437 . S
C510 C508 1.413 . S
C510 C520 1.391 . S
C511 C506 1.431 . S
C511 C507 1.317 . S
C511 H522 0.930 . S
C512 C506 1.412 . S
C512 C513 1.355 . S
C512 H524 0.930 . S
C513 C512 1.355 . S
C513 C515 1.402 . S
C513 H525 0.930 . S
N514 Gd505 2.661 . S
N514 C509 1.350 . S
N514 C515 1.307 . S
C515 C513 1.402 . S
C515 N514 1.307 . S
C515 H516 0.930 . S
H516 C515 0.930 . S
C517 N518 1.334 . S
C517 C519 1.394 . S
C517 H521 0.930 . S
N518 Gd505 2.601 . S
N518 C508 1.359 . S
N518 C517 1.334 . S
C519 C517 1.394 . S
C519 C520 1.359 . S
C519 H531 0.930 . S
C520 C510 1.391 . S
C520 C519 1.359 . S
C520 H532 0.929 . S
H521 C517 0.930 . S
H522 C511 0.930 . S
H523 C540 0.930 . S
H524 C512 0.930 . S
H525 C513 0.930 . S
H526 C507 0.929 . S
H527 C545 0.930 . S
H528 C536 0.930 . S
H529 C537 0.930 . S
H530 C561 0.929 . S
H531 C519 0.930 . S
H532 C520 0.929 . S
H533 C562 0.930 . S
H534 C543 0.930 . S
N535 Gd504 2.661 . S
N535 C539 1.350 . S
N535 C540 1.307 . S
C536 H528 0.930 . S
C536 C537 1.355 . S
C536 C538 1.412 . S
C537 H529 0.930 . S
C537 C536 1.355 . S
C537 C540 1.402 . S
C538 C536 1.412 . S
C538 C539 1.417 . S
C538 C562 1.431 . S
C539 N535 1.350 . S
C539 C538 1.417 . S
C539 C542 1.426 . S
C540 H523 0.930 . S
C540 N535 1.307 . S
C540 C537 1.402 . S
N541 Gd504 2.601 . S
N541 C542 1.359 . S
N541 C545 1.334 . S
C542 C539 1.426 . S
C542 N541 1.359 . S
C542 C546 1.413 . S
C543 H534 0.930 . S
C543 C544 1.359 . S
C543 C545 1.394 . S
C544 C543 1.359 . S
C544 C546 1.391 . S
C544 H547 0.929 . S
C545 H527 0.930 . S
C545 N541 1.334 . S
C545 C543 1.394 . S
C546 C542 1.413 . S
C546 C544 1.391 . S
C546 C561 1.437 . S
H547 C544 0.929 . S
O548 Gd504 2.545 1_554 S
O548 C563 1.258 . S
O549 Gd504 2.606 1_554 S
O549 Gd505 2.362 . S
O549 C560 1.284 . S
O550 Gd505 2.324 . S
O550 C570 1.254 1_554 S
O551 Gd504 2.429 1_554 S
O551 C570 1.268 1_554 S
O552 Gd504 2.545 1_554 S
O552 C560 1.250 . S
O553 Gd504 2.412 1_554 S
O553 C563 1.252 . S
O554 Gd505 2.545 1_556 S
O554 C572 1.258 . S
O555 Gd504 2.362 . S
O555 Gd505 2.606 1_556 S
O555 C571 1.284 . S
O556 Gd504 2.324 . S
O556 C579 1.254 1_556 S
O557 Gd505 2.429 1_556 S
O557 C579 1.268 1_556 S
O558 Gd505 2.545 1_556 S
O558 C571 1.250 . S
O559 Gd505 2.412 1_556 S
O559 C572 1.252 . S
C560 O549 1.284 . S
C560 O552 1.250 . S
C561 H530 0.929 . S
C561 C546 1.437 . S
C561 C562 1.317 . S
C562 H533 0.930 . S
C562 C538 1.431 . S
C562 C561 1.317 . S
C563 Gd504 2.828 1_554 S
C563 O548 1.258 . S
C563 O553 1.252 . S
C563 C564 1.497 . S
C564 C563 1.497 . S
C564 C565 1.395 . S
C564 C566 1.380 . S
C565 C564 1.395 . S
C565 C568 1.398 . S
C565 H580 0.930 . S
C566 C564 1.380 . S
C566 C567 1.391 . S
C566 H581 0.930 . S
C567 C566 1.391 . S
C567 C569 1.387 . S
C568 C565 1.398 . S
C568 C569 1.380 . S
C568 H582 0.930 . S
C569 C567 1.387 . S
C569 C568 1.380 . S
C569 H583 0.930 . S
C570 O550 1.254 1_556 S
C570 O551 1.268 1_556 S
C571 O555 1.284 . S
C571 O558 1.250 . S
C572 Gd505 2.828 1_556 S
C572 O554 1.258 . S
C572 O559 1.252 . S
C572 C573 1.497 . S
C573 C572 1.497 . S
C573 C574 1.395 . S
C573 C575 1.380 . S
C574 C573 1.395 . S
C574 C577 1.398 . S
C574 H584 0.930 . S
C575 C573 1.380 . S
C575 C576 1.391 . S
C575 H585 0.930 . S
C576 C575 1.391 . S
C576 C578 1.387 . S
C577 C574 1.398 . S
C577 C578 1.380 . S
C577 H586 0.930 . S
C578 C576 1.387 . S
C578 C577 1.380 . S
C578 H587 0.930 . S
C579 O556 1.254 1_554 S
C579 O557 1.268 1_554 S
H580 C565 0.930 . S
H581 C566 0.930 . S
H582 C568 0.930 . S
H583 C569 0.930 . S
H584 C574 0.930 . S
H585 C575 0.930 . S
H586 C577 0.930 . S
H587 C578 0.930 . S
Gd588 N619 2.661 . S
Gd588 N625 2.601 . S
Gd588 O632 2.545 1_556 S
Gd588 O633 2.606 1_556 S
Gd588 O635 2.429 1_556 S
Gd588 O636 2.545 1_556 S
Gd588 O637 2.412 1_556 S
Gd588 O639 2.362 . S
Gd588 O640 2.324 . S
Gd588 C647 2.828 1_556 S
Gd589 N598 2.661 . S
Gd589 N602 2.601 . S
Gd589 O633 2.362 . S
Gd589 O634 2.324 . S
Gd589 O638 2.545 1_554 S
Gd589 O639 2.606 1_554 S
Gd589 O641 2.429 1_554 S
Gd589 O642 2.545 1_554 S
Gd589 O643 2.412 1_554 S
Gd589 C656 2.828 1_554 S
C590 C593 1.417 . S
C590 C595 1.431 . S
C590 C596 1.412 . S
C591 C594 1.437 . S
C591 C595 1.317 . S
C591 H610 0.929 . S
C592 C593 1.426 . S
C592 C594 1.413 . S
C592 N602 1.359 . S
C593 C590 1.417 . S
C593 C592 1.426 . S
C593 N598 1.350 . S
C594 C591 1.437 . S
C594 C592 1.413 . S
C594 C604 1.391 . S
C595 C590 1.431 . S
C595 C591 1.317 . S
C595 H606 0.930 . S
C596 C590 1.412 . S
C596 C597 1.355 . S
C596 H608 0.930 . S
C597 C596 1.355 . S
C597 C599 1.402 . S
C597 H609 0.930 . S
N598 Gd589 2.661 . S
N598 C593 1.350 . S
N598 C599 1.307 . S
C599 C597 1.402 . S
C599 N598 1.307 . S
C599 H600 0.930 . S
H600 C599 0.930 . S
C601 N602 1.334 . S
C601 C603 1.394 . S
C601 H605 0.930 . S
N602 Gd589 2.601 . S
N602 C592 1.359 . S
N602 C601 1.334 . S
C603 C601 1.394 . S
C603 C604 1.359 . S
C603 H615 0.930 1_545 S
C604 C594 1.391 . S
C604 C603 1.359 . S
C604 H616 0.929 . S
H605 C601 0.930 . S
H606 C595 0.930 . S
H607 C624 0.930 . S
H608 C596 0.930 . S
H609 C597 0.930 . S
H610 C591 0.929 . S
H611 C629 0.930 . S
H612 C620 0.930 . S
H613 C621 0.930 . S
H614 C645 0.929 . S
H615 C603 0.930 1_565 S
H616 C604 0.929 . S
H617 C646 0.930 . S
H618 C627 0.930 . S
N619 Gd588 2.661 . S
N619 C623 1.350 . S
N619 C624 1.307 . S
C620 H612 0.930 . S
C620 C621 1.355 . S
C620 C622 1.412 . S
C621 H613 0.930 . S
C621 C620 1.355 . S
C621 C624 1.402 . S
C622 C620 1.412 . S
C622 C623 1.417 . S
C622 C646 1.431 . S
C623 N619 1.350 . S
C623 C622 1.417 . S
C623 C626 1.426 . S
C624 H607 0.930 . S
C624 N619 1.307 . S
C624 C621 1.402 . S
N625 Gd588 2.601 . S
N625 C626 1.359 . S
N625 C629 1.334 . S
C626 C623 1.426 . S
C626 N625 1.359 . S
C626 C630 1.413 . S
C627 H618 0.930 . S
C627 C628 1.359 . S
C627 C629 1.394 . S
C628 C627 1.359 . S
C628 C630 1.391 . S
C628 H631 0.929 . S
C629 H611 0.930 . S
C629 N625 1.334 . S
C629 C627 1.394 . S
C630 C626 1.413 . S
C630 C628 1.391 . S
C630 C645 1.437 . S
H631 C628 0.929 . S
O632 Gd588 2.545 1_554 S
O632 C647 1.258 . S
O633 Gd588 2.606 1_554 S
O633 Gd589 2.362 . S
O633 C644 1.284 . S
O634 Gd589 2.324 . S
O634 C654 1.254 1_554 S
O635 Gd588 2.429 1_554 S
O635 C654 1.268 1_554 S
O636 Gd588 2.545 1_554 S
O636 C644 1.250 . S
O637 Gd588 2.412 1_554 S
O637 C647 1.252 . S
O638 Gd589 2.545 1_556 S
O638 C656 1.258 . S
O639 Gd588 2.362 . S
O639 Gd589 2.606 1_556 S
O639 C655 1.284 . S
O640 Gd588 2.324 . S
O640 C663 1.254 1_556 S
O641 Gd589 2.429 1_556 S
O641 C663 1.268 1_556 S
O642 Gd589 2.545 1_556 S
O642 C655 1.250 . S
O643 Gd589 2.412 1_556 S
O643 C656 1.252 . S
C644 O633 1.284 . S
C644 O636 1.250 . S
C645 H614 0.929 . S
C645 C630 1.437 . S
C645 C646 1.317 . S
C646 H617 0.930 . S
C646 C622 1.431 . S
C646 C645 1.317 . S
C647 Gd588 2.828 1_554 S
C647 O632 1.258 . S
C647 O637 1.252 . S
C647 C648 1.497 . S
C648 C647 1.497 . S
C648 C649 1.395 . S
C648 C650 1.380 . S
C649 C648 1.395 . S
C649 C652 1.398 . S
C649 H664 0.930 . S
C650 C648 1.380 . S
C650 C651 1.391 . S
C650 H665 0.930 . S
C651 C650 1.391 . S
C651 C653 1.387 . S
C652 C649 1.398 . S
C652 C653 1.380 . S
C652 H666 0.930 . S
C653 C651 1.387 . S
C653 C652 1.380 . S
C653 H667 0.930 . S
C654 O634 1.254 1_556 S
C654 O635 1.268 1_556 S
C655 O639 1.284 . S
C655 O642 1.250 . S
C656 Gd589 2.828 1_556 S
C656 O638 1.258 . S
C656 O643 1.252 . S
C656 C657 1.497 . S
C657 C656 1.497 . S
C657 C658 1.395 . S
C657 C659 1.380 . S
C658 C657 1.395 . S
C658 C661 1.398 . S
C658 H668 0.930 . S
C659 C657 1.380 . S
C659 C660 1.391 . S
C659 H669 0.930 . S
C660 C659 1.391 . S
C660 C662 1.387 . S
C661 C658 1.398 . S
C661 C662 1.380 . S
C661 H670 0.930 . S
C662 C660 1.387 . S
C662 C661 1.380 . S
C662 H671 0.930 . S
C663 O640 1.254 1_554 S
C663 O641 1.268 1_554 S
H664 C649 0.930 . S
H665 C650 0.930 . S
H666 C652 0.930 . S
H667 C653 0.930 . S
H668 C658 0.930 . S
H669 C659 0.930 . S
H670 C661 0.930 . S
H671 C662 0.930 . S
H672 C678 0.930 . S
H673 C681 0.930 . S
H674 C682 0.930 . S
H675 C683 0.930 . S
H676 C686 0.930 . S
H677 C687 0.930 . S
C678 H672 0.930 . S
C678 C679 1.355 . S
C678 C680 1.415 . S
C679 C678 1.355 . S
C679 C681 1.419 . S
C680 C678 1.415 . S
C680 C685 1.425 . S
C680 C687 1.409 . S
C681 H673 0.930 . S
C681 C679 1.419 . S
C681 C682 1.362 . S
C682 H674 0.930 . S
C682 C681 1.362 . S
C682 C685 1.409 . S
C683 H675 0.930 . S
C683 C684 1.355 . S
C683 C685 1.415 . S
C684 C683 1.355 . S
C684 C686 1.419 . S
C685 C680 1.425 . S
C685 C682 1.409 . S
C685 C683 1.415 . S
C686 H676 0.930 . S
C686 C684 1.419 . S
C686 C687 1.362 . S
C687 H677 0.930 . S
C687 C680 1.409 . S
C687 C686 1.362 . S
H688 C694 0.930 . S
H689 C697 0.930 . S
H690 C698 0.930 . S
H691 C699 0.930 . S
H692 C702 0.930 . S
H693 C703 0.930 . S
C694 H688 0.930 . S
C694 C695 1.355 . S
C694 C696 1.415 . S
C695 C694 1.355 . S
C695 C697 1.419 . S
C696 C694 1.415 . S
C696 C701 1.425 . S
C696 C703 1.409 . S
C697 H689 0.930 . S
C697 C695 1.419 . S
C697 C698 1.362 . S
C698 H690 0.930 . S
C698 C697 1.362 . S
C698 C701 1.409 . S
C699 H691 0.930 . S
C699 C700 1.355 . S
C699 C701 1.415 . S
C700 C699 1.355 . S
C700 C702 1.419 . S
C701 C696 1.425 . S
C701 C698 1.409 . S
C701 C699 1.415 . S
C702 H692 0.930 . S
C702 C700 1.419 . S
C702 C703 1.362 . S
C703 H693 0.930 . S
C703 C696 1.409 . S
C703 C702 1.362 . S
H704 C710 0.930 . S
H705 C713 0.930 . S
H706 C714 0.930 . S
H707 C715 0.930 . S
H708 C718 0.930 . S
H709 C719 0.930 . S
C710 H704 0.930 . S
C710 C711 1.355 . S
C710 C712 1.415 . S
C711 C710 1.355 . S
C711 C713 1.419 . S
C712 C710 1.415 . S
C712 C717 1.425 . S
C712 C719 1.409 . S
C713 H705 0.930 . S
C713 C711 1.419 . S
C713 C714 1.362 . S
C714 H706 0.930 . S
C714 C713 1.362 . S
C714 C717 1.409 . S
C715 H707 0.930 . S
C715 C716 1.355 . S
C715 C717 1.415 . S
C716 C715 1.355 . S
C716 C718 1.419 . S
C717 C712 1.425 . S
C717 C714 1.409 . S
C717 C715 1.415 . S
C718 H708 0.930 . S
C718 C716 1.419 . S
C718 C719 1.362 . S
C719 H709 0.930 . S
C719 C712 1.409 . S
C719 C718 1.362 . S
H720 C726 0.930 . S
H721 C729 0.930 . S
H722 C730 0.930 . S
H723 C731 0.930 . S
H724 C734 0.930 . S
H725 C735 0.930 . S
C726 H720 0.930 . S
C726 C727 1.355 . S
C726 C728 1.415 . S
C727 C726 1.355 . S
C727 C729 1.419 . S
C728 C726 1.415 . S
C728 C733 1.425 . S
C728 C735 1.409 . S
C729 H721 0.930 . S
C729 C727 1.419 . S
C729 C730 1.362 . S
C730 H722 0.930 . S
C730 C729 1.362 . S
C730 C733 1.409 . S
C731 H723 0.930 . S
C731 C732 1.355 . S
C731 C733 1.415 . S
C732 C731 1.355 . S
C732 C734 1.419 . S
C733 C728 1.425 . S
C733 C730 1.409 . S
C733 C731 1.415 . S
C734 H724 0.930 . S
C734 C732 1.419 . S
C734 C735 1.362 . S
C735 H725 0.930 . S
C735 C728 1.409 . S
C735 C734 1.362 . S
H736 C742 0.930 . S
H737 C745 0.930 . S
H738 C746 0.930 . S
H739 C747 0.930 . S
H740 C750 0.930 . S
H741 C751 0.930 . S
C742 H736 0.930 . S
C742 C743 1.355 . S
C742 C744 1.415 . S
C743 C742 1.355 . S
C743 C745 1.419 . S
C744 C742 1.415 . S
C744 C749 1.425 1_565 S
C744 C751 1.409 . S
C745 H737 0.930 . S
C745 C743 1.419 . S
C745 C746 1.362 1_565 S
C746 H738 0.930 . S
C746 C745 1.362 1_545 S
C746 C749 1.409 . S
C747 H739 0.930 . S
C747 C748 1.355 . S
C747 C749 1.415 . S
C748 C747 1.355 . S
C748 C750 1.419 . S
C749 C744 1.425 1_545 S
C749 C746 1.409 . S
C749 C747 1.415 . S
C750 H740 0.930 . S
C750 C748 1.419 . S
C750 C751 1.362 1_545 S
C751 H741 0.930 . S
C751 C744 1.409 . S
C751 C750 1.362 1_565 S
H752 C758 0.930 . S
H753 C761 0.930 . S
H754 C762 0.930 . S
H755 C763 0.930 . S
H756 C766 0.930 . S
H757 C767 0.930 . S
C758 H752 0.930 . S
C758 C759 1.355 . S
C758 C760 1.415 . S
C759 C758 1.355 . S
C759 C761 1.419 . S
C760 C758 1.415 . S
C760 C765 1.425 . S
C760 C767 1.409 . S
C761 H753 0.930 . S
C761 C759 1.419 . S
C761 C762 1.362 . S
C762 H754 0.930 . S
C762 C761 1.362 . S
C762 C765 1.409 . S
C763 H755 0.930 . S
C763 C764 1.355 . S
C763 C765 1.415 . S
C764 C763 1.355 . S
C764 C766 1.419 . S
C765 C760 1.425 . S
C765 C762 1.409 . S
C765 C763 1.415 . S
C766 H756 0.930 . S
C766 C764 1.419 . S
C766 C767 1.362 . S
C767 H757 0.930 . S
C767 C760 1.409 . S
C767 C766 1.362 . S
H768 C774 0.930 . S
H769 C777 0.930 . S
H770 C778 0.930 1_545 S
H771 C779 0.930 . S
H772 C782 0.930 . S
H773 C783 0.930 . S
C774 H768 0.930 . S
C774 C775 1.355 . S
C774 C776 1.415 . S
C775 C774 1.355 . S
C775 C777 1.419 . S
C776 C774 1.415 . S
C776 C781 1.425 1_565 S
C776 C783 1.409 . S
C777 H769 0.930 . S
C777 C775 1.419 . S
C777 C778 1.362 . S
C778 H770 0.930 1_565 S
C778 C777 1.362 . S
C778 C781 1.409 1_565 S
C779 H771 0.930 . S
C779 C780 1.355 . S
C779 C781 1.415 . S
C780 C779 1.355 . S
C780 C782 1.419 . S
C781 C776 1.425 1_545 S
C781 C778 1.409 1_545 S
C781 C779 1.415 . S
C782 H772 0.930 . S
C782 C780 1.419 . S
C782 C783 1.362 1_545 S
C783 H773 0.930 . S
C783 C776 1.409 . S
C783 C782 1.362 1_565 S
H784 C790 0.930 . S
H785 C793 0.930 . S
H786 C794 0.930 . S
H787 C795 0.930 . S
H788 C798 0.930 . S
H789 C799 0.930 . S
C790 H784 0.930 . S
C790 C791 1.355 . S
C790 C792 1.415 . S
C791 C790 1.355 . S
C791 C793 1.419 . S
C792 C790 1.415 . S
C792 C797 1.425 . S
C792 C799 1.409 . S
C793 H785 0.930 . S
C793 C791 1.419 . S
C793 C794 1.362 . S
C794 H786 0.930 . S
C794 C793 1.362 . S
C794 C797 1.409 . S
C795 H787 0.930 . S
C795 C796 1.355 . S
C795 C797 1.415 . S
C796 C795 1.355 . S
C796 C798 1.419 . S
C797 C792 1.425 . S
C797 C794 1.409 . S
C797 C795 1.415 . S
C798 H788 0.930 . S
C798 C796 1.419 . S
C798 C799 1.362 . S
C799 H789 0.930 . S
C799 C792 1.409 . S
C799 C798 1.362 . S
H800 C806 0.930 . S
H801 C809 0.930 . S
H802 C810 0.930 . S
H803 C811 0.930 1_556 S
H804 C814 0.930 . S
H805 C815 0.930 . S
C806 H800 0.930 . S
C806 C807 1.355 . S
C806 C808 1.415 . S
C807 C806 1.355 . S
C807 C809 1.419 1_554 S
C808 C806 1.415 . S
C808 C813 1.425 . S
C808 C815 1.409 . S
C809 H801 0.930 . S
C809 C807 1.419 1_556 S
C809 C810 1.362 . S
C810 H802 0.930 . S
C810 C809 1.362 . S
C810 C813 1.409 1_556 S
C811 H803 0.930 1_554 S
C811 C812 1.355 . S
C811 C813 1.415 . S
C812 C811 1.355 . S
C812 C814 1.419 . S
C813 C808 1.425 . S
C813 C810 1.409 1_554 S
C813 C811 1.415 . S
C814 H804 0.930 . S
C814 C812 1.419 . S
C814 C815 1.362 . S
C815 H805 0.930 . S
C815 C808 1.409 . S
C815 C814 1.362 . S
H816 C822 0.930 . S
H817 C825 0.930 . S
H818 C826 0.930 1_556 S
H819 C827 0.930 1_556 S
H820 C830 0.930 . S
H821 C831 0.930 . S
C822 H816 0.930 . S
C822 C823 1.355 . S
C822 C824 1.415 . S
C823 C822 1.355 . S
C823 C825 1.419 . S
C824 C822 1.415 . S
C824 C829 1.425 . S
C824 C831 1.409 1_565 S
C825 H817 0.930 . S
C825 C823 1.419 . S
C825 C826 1.362 . S
C826 H818 0.930 1_554 S
C826 C825 1.362 . S
C826 C829 1.409 . S
C827 H819 0.930 1_554 S
C827 C828 1.355 . S
C827 C829 1.415 1_545 S
C828 C827 1.355 . S
C828 C830 1.419 . S
C829 C824 1.425 . S
C829 C826 1.409 . S
C829 C827 1.415 1_565 S
C830 H820 0.930 . S
C830 C828 1.419 . S
C830 C831 1.362 . S
C831 H821 0.930 . S
C831 C824 1.409 1_545 S
C831 C830 1.362 . S
H832 C838 0.930 . S
H833 C841 0.930 . S
H834 C842 0.930 . S
H835 C843 0.930 . S
H836 C846 0.930 . S
H837 C847 0.930 . S
C838 H832 0.930 . S
C838 C839 1.355 . S
C838 C840 1.415 . S
C839 C838 1.355 . S
C839 C841 1.419 . S
C840 C838 1.415 . S
C840 C845 1.425 . S
C840 C847 1.409 . S
C841 H833 0.930 . S
C841 C839 1.419 . S
C841 C842 1.362 . S
C842 H834 0.930 . S
C842 C841 1.362 . S
C842 C845 1.409 . S
C843 H835 0.930 . S
C843 C844 1.355 . S
C843 C845 1.415 . S
C844 C843 1.355 . S
C844 C846 1.419 . S
C845 C840 1.425 . S
C845 C842 1.409 . S
C845 C843 1.415 . S
C846 H836 0.930 . S
C846 C844 1.419 . S
C846 C847 1.362 . S
C847 H837 0.930 . S
C847 C840 1.409 . S
C847 C846 1.362 . S
H848 C854 0.930 . S
H849 C857 0.930 . S
H850 C858 0.930 1_565 S
H851 C859 0.930 . S
H852 C862 0.930 . S
H853 C863 0.930 . S
C854 H848 0.930 . S
C854 C855 1.355 . S
C854 C856 1.415 . S
C855 C854 1.355 . S
C855 C857 1.419 1_556 S
C856 C854 1.415 . S
C856 C861 1.425 1_545 S
C856 C863 1.409 . S
C857 H849 0.930 . S
C857 C855 1.419 1_554 S
C857 C858 1.362 . S
C858 H850 0.930 1_545 S
C858 C857 1.362 . S
C858 C861 1.409 1_544 S
C859 H851 0.930 . S
C859 C860 1.355 1_554 S
C859 C861 1.415 1_554 S
C860 C859 1.355 1_556 S
C860 C862 1.419 . S
C861 C856 1.425 1_565 S
C861 C858 1.409 1_566 S
C861 C859 1.415 1_556 S
C862 H852 0.930 . S
C862 C860 1.419 . S
C862 C863 1.362 1_565 S
C863 H853 0.930 . S
C863 C856 1.409 . S
C863 C862 1.362 1_545 S
H864 C870 0.930 . S
H865 C873 0.930 . S
H866 C874 0.930 . S
H867 C875 0.930 . S
H868 C878 0.930 . S
H869 C879 0.930 . S
C870 H864 0.930 . S
C870 C871 1.355 . S
C870 C872 1.415 1_554 S
C871 C870 1.355 . S
C871 C873 1.419 . S
C872 C870 1.415 1_556 S
C872 C877 1.425 . S
C872 C879 1.409 . S
C873 H865 0.930 . S
C873 C871 1.419 . S
C873 C874 1.362 . S
C874 H866 0.930 . S
C874 C873 1.362 . S
C874 C877 1.409 1_554 S
C875 H867 0.930 . S
C875 C876 1.355 . S
C875 C877 1.415 . S
C876 C875 1.355 . S
C876 C878 1.419 . S
C877 C872 1.425 . S
C877 C874 1.409 1_556 S
C877 C875 1.415 . S
C878 H868 0.930 . S
C878 C876 1.419 . S
C878 C879 1.362 . S
C879 H869 0.930 . S
C879 C872 1.409 . S
C879 C878 1.362 . S
H880 C886 0.930 . S
H881 C889 0.930 . S
H882 C890 0.930 . S
H883 C891 0.930 . S
H884 C894 0.930 . S
H885 C895 0.930 . S
C886 H880 0.930 . S
C886 C887 1.355 . S
C886 C888 1.415 1_554 S
C887 C886 1.355 . S
C887 C889 1.419 . S
C888 C886 1.415 1_556 S
C888 C893 1.425 . S
C888 C895 1.409 . S
C889 H881 0.930 . S
C889 C887 1.419 . S
C889 C890 1.362 . S
C890 H882 0.930 . S
C890 C889 1.362 . S
C890 C893 1.409 1_554 S
C891 H883 0.930 . S
C891 C892 1.355 . S
C891 C893 1.415 . S
C892 C891 1.355 . S
C892 C894 1.419 . S
C893 C888 1.425 . S
C893 C890 1.409 1_556 S
C893 C891 1.415 . S
C894 H884 0.930 . S
C894 C892 1.419 . S
C894 C895 1.362 . S
C895 H885 0.930 . S
C895 C888 1.409 . S
C895 C894 1.362 . S
H896 C902 0.930 . S
H897 C905 0.930 . S
H898 C906 0.930 . S
H899 C907 0.930 . S
H900 C910 0.930 . S
H901 C911 0.930 . S
C902 H896 0.930 . S
C902 C903 1.355 . S
C902 C904 1.415 . S
C903 C902 1.355 . S
C903 C905 1.419 . S
C904 C902 1.415 . S
C904 C909 1.425 . S
C904 C911 1.409 1_554 S
C905 H897 0.930 . S
C905 C903 1.419 . S
C905 C906 1.362 . S
C906 H898 0.930 . S
C906 C905 1.362 . S
C906 C909 1.409 . S
C907 H899 0.930 . S
C907 C908 1.355 . S
C907 C909 1.415 1_556 S
C908 C907 1.355 . S
C908 C910 1.419 . S
C909 C904 1.425 . S
C909 C906 1.409 . S
C909 C907 1.415 1_554 S
C910 H900 0.930 . S
C910 C908 1.419 . S
C910 C911 1.362 . S
C911 H901 0.930 . S
C911 C904 1.409 1_556 S
C911 C910 1.362 . S
H912 C918 0.930 . S
H913 C921 0.930 . S
H914 C922 0.930 . S
H915 C923 0.930 . S
H916 C926 0.930 . S
H917 C927 0.930 . S
C918 H912 0.930 . S
C918 C919 1.355 . S
C918 C920 1.415 1_556 S
C919 C918 1.355 . S
C919 C921 1.419 . S
C920 C918 1.415 1_554 S
C920 C925 1.425 . S
C920 C927 1.409 . S
C921 H913 0.930 . S
C921 C919 1.419 . S
C921 C922 1.362 . S
C922 H914 0.930 . S
C922 C921 1.362 . S
C922 C925 1.409 1_556 S
C923 H915 0.930 . S
C923 C924 1.355 . S
C923 C925 1.415 . S
C924 C923 1.355 . S
C924 C926 1.419 . S
C925 C920 1.425 . S
C925 C922 1.409 1_554 S
C925 C923 1.415 . S
C926 H916 0.930 . S
C926 C924 1.419 . S
C926 C927 1.362 . S
C927 H917 0.930 . S
C927 C920 1.409 . S
C927 C926 1.362 . S
H928 C934 0.930 . S
H929 C937 0.930 . S
H930 C938 0.930 . S
H931 C939 0.930 . S
H932 C942 0.930 . S
H933 C943 0.930 . S
C934 H928 0.930 . S
C934 C935 1.355 . S
C934 C936 1.415 . S
C935 C934 1.355 . S
C935 C937 1.419 . S
C936 C934 1.415 . S
C936 C941 1.425 . S
C936 C943 1.409 . S
C937 H929 0.930 . S
C937 C935 1.419 . S
C937 C938 1.362 . S
C938 H930 0.930 . S
C938 C937 1.362 . S
C938 C941 1.409 . S
C939 H931 0.930 . S
C939 C940 1.355 . S
C939 C941 1.415 . S
C940 C939 1.355 . S
C940 C942 1.419 . S
C941 C936 1.425 . S
C941 C938 1.409 . S
C941 C939 1.415 . S
C942 H932 0.930 . S
C942 C940 1.419 . S
C942 C943 1.362 . S
C943 H933 0.930 . S
C943 C936 1.409 . S
C943 C942 1.362 . S
H944 C950 0.930 . S
H945 C953 0.930 . S
H946 C954 0.930 . S
H947 C955 0.930 . S
H948 C958 0.930 . S
H949 C959 0.930 . S
C950 H944 0.930 . S
C950 C951 1.355 . S
C950 C952 1.415 . S
C951 C950 1.355 . S
C951 C953 1.419 . S
C952 C950 1.415 . S
C952 C957 1.425 . S
C952 C959 1.409 . S
C953 H945 0.930 . S
C953 C951 1.419 . S
C953 C954 1.362 . S
C954 H946 0.930 . S
C954 C953 1.362 . S
C954 C957 1.409 . S
C955 H947 0.930 . S
C955 C956 1.355 . S
C955 C957 1.415 . S
C956 C955 1.355 . S
C956 C958 1.419 . S
C957 C952 1.425 . S
C957 C954 1.409 . S
C957 C955 1.415 . S
C958 H948 0.930 . S
C958 C956 1.419 . S
C958 C959 1.362 . S
C959 H949 0.930 . S
C959 C952 1.409 . S
C959 C958 1.362 . S
H960 C966 0.930 . S
H961 C969 0.930 . S
H962 C970 0.930 . S
H963 C971 0.930 . S
H964 C974 0.930 . S
H965 C975 0.930 . S
C966 H960 0.930 . S
C966 C967 1.355 . S
C966 C968 1.415 . S
C967 C966 1.355 . S
C967 C969 1.419 . S
C968 C966 1.415 . S
C968 C973 1.425 . S
C968 C975 1.409 . S
C969 H961 0.930 . S
C969 C967 1.419 . S
C969 C970 1.362 . S
C970 H962 0.930 . S
C970 C969 1.362 . S
C970 C973 1.409 . S
C971 H963 0.930 . S
C971 C972 1.355 . S
C971 C973 1.415 . S
C972 C971 1.355 . S
C972 C974 1.419 . S
C973 C968 1.425 . S
C973 C970 1.409 . S
C973 C971 1.415 . S
C974 H964 0.930 . S
C974 C972 1.419 . S
C974 C975 1.362 . S
C975 H965 0.930 . S
C975 C968 1.409 . S
C975 C974 1.362 . S
H976 C982 0.930 . S
H977 C985 0.930 . S
H978 C986 0.930 . S
H979 C987 0.930 . S
H980 C990 0.930 . S
H981 C991 0.930 . S
C982 H976 0.930 . S
C982 C983 1.355 . S
C982 C984 1.415 . S
C983 C982 1.355 . S
C983 C985 1.419 . S
C984 C982 1.415 . S
C984 C989 1.425 . S
C984 C991 1.409 . S
C985 H977 0.930 . S
C985 C983 1.419 . S
C985 C986 1.362 . S
C986 H978 0.930 . S
C986 C985 1.362 . S
C986 C989 1.409 . S
C987 H979 0.930 . S
C987 C988 1.355 . S
C987 C989 1.415 . S
C988 C987 1.355 . S
C988 C990 1.419 . S
C989 C984 1.425 . S
C989 C986 1.409 . S
C989 C987 1.415 . S
C990 H980 0.930 . S
C990 C988 1.419 . S
C990 C991 1.362 . S
C991 H981 0.930 . S
C991 C984 1.409 . S
C991 C990 1.362 . S
H992 C998 0.930 . S
H993 C1001 0.930 . S
H994 C1002 0.930 . S
H995 C1003 0.930 . S
H996 C1006 0.930 . S
H997 C1007 0.930 . S
C998 H992 0.930 . S
C998 C999 1.355 . S
C998 C1000 1.439 . S
C999 C998 1.355 . S
C999 C1001 1.419 . S
C1000 C998 1.439 . S
C1000 C1005 1.409 1_455 S
C1000 C1007 1.393 1_455 S
C1001 H993 0.930 . S
C1001 C999 1.419 . S
C1001 C1002 1.362 . S
C1002 H994 0.930 . S
C1002 C1001 1.362 . S
C1002 C1005 1.393 1_455 S
C1003 H995 0.930 . S
C1003 C1004 1.355 . S
C1003 C1005 1.439 . S
C1004 C1003 1.355 . S
C1004 C1006 1.419 . S
C1005 C1000 1.409 1_655 S
C1005 C1002 1.393 1_655 S
C1005 C1003 1.439 . S
C1006 H996 0.930 . S
C1006 C1004 1.419 . S
C1006 C1007 1.362 . S
C1007 H997 0.930 . S
C1007 C1000 1.393 1_655 S
C1007 C1006 1.362 . S
H1008 C1014 0.930 . S
H1009 C1017 0.930 . S
H1010 C1018 0.913 1_455 S
H1011 C1019 0.930 . S
H1012 C1022 0.930 . S
H1013 C1023 0.913 1_655 S
C1014 H1008 0.930 . S
C1014 C1015 1.355 . S
C1014 C1016 1.415 . S
C1015 C1014 1.355 . S
C1015 C1017 1.419 . S
C1016 C1014 1.415 . S
C1016 C1021 1.425 1_655 S
C1016 C1023 1.370 1_655 S
C1017 H1009 0.930 . S
C1017 C1015 1.419 . S
C1017 C1018 1.420 . S
C1018 H1010 0.913 1_655 S
C1018 C1017 1.420 . S
C1018 C1021 1.370 1_655 S
C1019 H1011 0.930 . S
C1019 C1020 1.355 . S
C1019 C1021 1.415 . S
C1020 C1019 1.355 . S
C1020 C1022 1.419 . S
C1021 C1016 1.425 1_455 S
C1021 C1018 1.370 1_455 S
C1021 C1019 1.415 . S
C1022 H1012 0.930 . S
C1022 C1020 1.419 . S
C1022 C1023 1.421 . S
C1023 H1013 0.913 1_455 S
C1023 C1016 1.370 1_455 S
C1023 C1022 1.421 . S
H1024 C1030 0.930 . S
H1025 C1033 0.930 . S
H1026 C1034 0.930 . S
H1027 C1035 0.930 . S
H1028 C1038 0.930 . S
H1029 C1039 0.930 . S
C1030 H1024 0.930 . S
C1030 C1031 1.355 . S
C1030 C1032 1.415 . S
C1031 C1030 1.355 . S
C1031 C1033 1.419 . S
C1032 C1030 1.415 . S
C1032 C1037 1.425 . S
C1032 C1039 1.409 . S
C1033 H1025 0.930 . S
C1033 C1031 1.419 . S
C1033 C1034 1.362 . S
C1034 H1026 0.930 . S
C1034 C1033 1.362 . S
C1034 C1037 1.409 . S
C1035 H1027 0.930 . S
C1035 C1036 1.355 . S
C1035 C1037 1.415 . S
C1036 C1035 1.355 . S
C1036 C1038 1.419 . S
C1037 C1032 1.425 . S
C1037 C1034 1.409 . S
C1037 C1035 1.415 . S
C1038 H1028 0.930 . S
C1038 C1036 1.419 . S
C1038 C1039 1.362 . S
C1039 H1029 0.930 . S
C1039 C1032 1.409 . S
C1039 C1038 1.362 . S
H1040 C1046 0.930 . S
H1041 C1049 0.930 . S
H1042 C1050 0.930 . S
H1043 C1051 0.930 . S
H1044 C1054 0.930 . S
H1045 C1055 0.930 . S
C1046 H1040 0.930 . S
C1046 C1047 1.355 . S
C1046 C1048 1.415 . S
C1047 C1046 1.355 . S
C1047 C1049 1.419 . S
C1048 C1046 1.415 . S
C1048 C1053 1.425 . S
C1048 C1055 1.409 . S
C1049 H1041 0.930 . S
C1049 C1047 1.419 . S
C1049 C1050 1.362 . S
C1050 H1042 0.930 . S
C1050 C1049 1.362 . S
C1050 C1053 1.409 . S
C1051 H1043 0.930 . S
C1051 C1052 1.355 . S
C1051 C1053 1.415 . S
C1052 C1051 1.355 . S
C1052 C1054 1.419 . S
C1053 C1048 1.425 . S
C1053 C1050 1.409 . S
C1053 C1051 1.415 . S
C1054 H1044 0.930 . S
C1054 C1052 1.419 . S
C1054 C1055 1.362 . S
C1055 H1045 0.930 . S
C1055 C1048 1.409 . S
C1055 C1054 1.362 . S
C679 C63 1.407 . S
C684 C660 1.407 . S
C695 C576 1.395 . S
C700 C147 1.394 . S
C711 C483 1.501 . S
C716 C240 1.501 . S
C727 C399 1.498 . S
C732 C324 1.497 . S
C743 C243 1.483 . S
C748 C75 1.558 . S
C759 C159 1.579 . S
C764 C327 1.444 . S
C775 C318 1.549 . S
C780 C150 1.510 . S
C791 C234 1.583 . S
C796 C66 1.444 . S
C807 C411 1.440 . S
C812 C579 1.478 . S
C823 C495 1.476 . S
C828 C663 1.467 . S
C839 C654 1.470 . S
C844 C486 1.446 . S
C855 C570 1.455 . S
C860 C402 1.460 . S
C871 C67 1.864 . S
C876 C56 1.864 . S
C887 C151 1.898 . S
C892 C140 1.898 . S
C903 C235 1.896 . S
C908 C224 1.896 . S
C919 C308 1.881 . S
C924 C319 1.881 . S
C935 C392 1.869 . S
C940 C403 1.869 . S
C951 C487 1.914 . S
C956 C476 1.914 . S
C967 C560 1.904 . S
C972 C571 1.904 . S
C983 C644 1.886 . S
C988 C655 1.886 . S
C999 C72 1.745 . S
C1004 C156 1.773 . S
C1015 C315 1.720 . S
C1020 C231 1.672 . S
C1031 C408 1.773 . S
C1036 C492 1.752 . S
C1047 C651 1.737 . S
C1052 C567 1.683 . S
