# Generated by pormake.
# Topology gis, (4)-cn, num edge types: 1
# Building blocks:
#     Node 0, Type 0, BuildingBlock: UXUYUI_clean_sbu_0, # of connection points: 4
#     Node 1, Type 0, BuildingBlock: UXUYUI_clean_sbu_0, # of connection points: 4
#     Node 2, Type 0, BuildingBlock: UXUYUI_clean_sbu_0, # of connection points: 4
#     Node 3, Type 0, BuildingBlock: UXUYUI_clean_sbu_0, # of connection points: 4
#     Node 4, Type 0, BuildingBlock: UXUYUI_clean_sbu_0, # of connection points: 4
#     Node 5, Type 0, BuildingBlock: UXUYUI_clean_sbu_0, # of connection points: 4
#     Node 6, Type 0, BuildingBlock: UXUYUI_clean_sbu_0, # of connection points: 4
#     Node 7, Type 0, BuildingBlock: UXUYUI_clean_sbu_0, # of connection points: 4
#     Node 8, Type 0, BuildingBlock: UXUYUI_clean_sbu_0, # of connection points: 4
#     Node 9, Type 0, BuildingBlock: UXUYUI_clean_sbu_0, # of connection points: 4
#     Node 10, Type 0, BuildingBlock: UXUYUI_clean_sbu_0, # of connection points: 4
#     Node 11, Type 0, BuildingBlock: UXUYUI_clean_sbu_0, # of connection points: 4
#     Node 12, Type 0, BuildingBlock: UXUYUI_clean_sbu_0, # of connection points: 4
#     Node 13, Type 0, BuildingBlock: UXUYUI_clean_sbu_0, # of connection points: 4
#     Node 14, Type 0, BuildingBlock: UXUYUI_clean_sbu_0, # of connection points: 4
#     Node 15, Type 0, BuildingBlock: UXUYUI_clean_sbu_0, # of connection points: 4
#     Edge 16, Type (0, 0), BuildingBlock: KIFKEQ_clean_linker_1, # of connection points: 2
#     Edge 17, Type (0, 0), BuildingBlock: KIFKEQ_clean_linker_1, # of connection points: 2
#     Edge 18, Type (0, 0), BuildingBlock: KIFKEQ_clean_linker_1, # of connection points: 2
#     Edge 19, Type (0, 0), BuildingBlock: KIFKEQ_clean_linker_1, # of connection points: 2
#     Edge 20, Type (0, 0), BuildingBlock: KIFKEQ_clean_linker_1, # of connection points: 2
#     Edge 21, Type (0, 0), BuildingBlock: KIFKEQ_clean_linker_1, # of connection points: 2
#     Edge 22, Type (0, 0), BuildingBlock: KIFKEQ_clean_linker_1, # of connection points: 2
#     Edge 23, Type (0, 0), BuildingBlock: KIFKEQ_clean_linker_1, # of connection points: 2
#     Edge 24, Type (0, 0), BuildingBlock: KIFKEQ_clean_linker_1, # of connection points: 2
#     Edge 25, Type (0, 0), BuildingBlock: KIFKEQ_clean_linker_1, # of connection points: 2
#     Edge 26, Type (0, 0), BuildingBlock: KIFKEQ_clean_linker_1, # of connection points: 2
#     Edge 27, Type (0, 0), BuildingBlock: KIFKEQ_clean_linker_1, # of connection points: 2
#     Edge 28, Type (0, 0), BuildingBlock: KIFKEQ_clean_linker_1, # of connection points: 2
#     Edge 29, Type (0, 0), BuildingBlock: KIFKEQ_clean_linker_1, # of connection points: 2
#     Edge 30, Type (0, 0), BuildingBlock: KIFKEQ_clean_linker_1, # of connection points: 2
#     Edge 31, Type (0, 0), BuildingBlock: KIFKEQ_clean_linker_1, # of connection points: 2
#     Edge 32, Type (0, 0), BuildingBlock: KIFKEQ_clean_linker_1, # of connection points: 2
#     Edge 33, Type (0, 0), BuildingBlock: KIFKEQ_clean_linker_1, # of connection points: 2
#     Edge 34, Type (0, 0), BuildingBlock: KIFKEQ_clean_linker_1, # of connection points: 2
#     Edge 35, Type (0, 0), BuildingBlock: KIFKEQ_clean_linker_1, # of connection points: 2
#     Edge 36, Type (0, 0), BuildingBlock: KIFKEQ_clean_linker_1, # of connection points: 2
#     Edge 37, Type (0, 0), BuildingBlock: KIFKEQ_clean_linker_1, # of connection points: 2
#     Edge 38, Type (0, 0), BuildingBlock: KIFKEQ_clean_linker_1, # of connection points: 2
#     Edge 39, Type (0, 0), BuildingBlock: KIFKEQ_clean_linker_1, # of connection points: 2
#     Edge 40, Type (0, 0), BuildingBlock: KIFKEQ_clean_linker_1, # of connection points: 2
#     Edge 41, Type (0, 0), BuildingBlock: KIFKEQ_clean_linker_1, # of connection points: 2
#     Edge 42, Type (0, 0), BuildingBlock: KIFKEQ_clean_linker_1, # of connection points: 2
#     Edge 43, Type (0, 0), BuildingBlock: KIFKEQ_clean_linker_1, # of connection points: 2
#     Edge 44, Type (0, 0), BuildingBlock: KIFKEQ_clean_linker_1, # of connection points: 2
#     Edge 45, Type (0, 0), BuildingBlock: KIFKEQ_clean_linker_1, # of connection points: 2
#     Edge 46, Type (0, 0), BuildingBlock: KIFKEQ_clean_linker_1, # of connection points: 2
#     Edge 47, Type (0, 0), BuildingBlock: KIFKEQ_clean_linker_1, # of connection points: 2
# Relax obj value: 0.245
# Max RMSD: 0.177
# Mean RMSD: 0.176
data_MOF--net-gis--node1-UXUYUI_clean_sbu_0--edge1-KIFKEQ_clean_linker_1
_symmetry_space_group_name_H-M    P1
_symmetry_Int_Tables_number       1
_symmetry_cell_setting            triclinic
loop_
_symmetry_equiv_pos_as_xyz
'x, y, z'
_cell_length_a     68.028915
_cell_length_b     68.038998
_cell_length_c     72.557837
_cell_angle_alpha  90.005755
_cell_angle_beta   90.00256
_cell_angle_gamma 89.983175
loop_
_atom_site_label
_atom_site_type_symbol
_atom_site_fract_x
_atom_site_fract_y
_atom_site_fract_z
_atom_type_partial_charge
Li0 Li 0.16818 0.6077 0.12045 0.0
Li1 Li 0.17405 0.57813 0.13847 0.0
Li2 Li 0.17026 0.57542 0.1049 0.0
Li3 Li 0.14191 0.58175 0.12487 0.0
C4 C 0.2061 0.59758 0.10874 0.0
N5 N 0.23609 0.61385 0.08809 0.0
C6 C 0.22515 0.59856 0.1159 0.0
C7 C 0.20233 0.60477 0.09107 0.0
C8 C 0.24011 0.60687 0.10525 0.0
C9 C 0.21767 0.61296 0.08084 0.0
C10 C 0.15714 0.6032 0.16156 0.0
C11 C 0.14961 0.597 0.19351 0.0
N12 N 0.16329 0.61055 0.19856 0.0
C13 C 0.17095 0.61722 0.16705 0.0
C14 C 0.14623 0.59313 0.17487 0.0
C15 C 0.17391 0.62067 0.18583 0.0
C16 C 0.15582 0.64633 0.11603 0.0
N17 N 0.17212 0.63519 0.11883 0.0
C18 C 0.19217 0.6639 0.12116 0.0
C19 C 0.19008 0.6435 0.12146 0.0
C20 C 0.17554 0.67578 0.1185 0.0
C21 C 0.15719 0.66678 0.11583 0.0
H22 H 0.1417 0.63928 0.1142 0.0
H23 H 0.20272 0.63437 0.12424 0.0
C24 C 0.18479 0.55169 0.16743 0.0
N25 N 0.1886 0.56909 0.15895 0.0
C26 C 0.19587 0.54589 0.18268 0.0
C27 C 0.21479 0.57583 0.17984 0.0
C28 C 0.20339 0.58101 0.16468 0.0
C29 C 0.21105 0.55808 0.18909 0.0
H30 H 0.17323 0.54229 0.16238 0.0
H31 H 0.20613 0.5947 0.15757 0.0
C32 C 0.14229 0.60014 0.08526 0.0
N33 N 0.12649 0.60885 0.05111 0.0
C34 C 0.12666 0.58907 0.07831 0.0
C35 C 0.14958 0.61594 0.075 0.0
C36 C 0.11897 0.59361 0.06097 0.0
C37 C 0.14148 0.62003 0.05773 0.0
C38 C 0.14818 0.54207 0.1283 0.0
C39 C 0.14692 0.52662 0.11565 0.0
C40 C 0.1378 0.54095 0.14489 0.0
C41 C 0.13515 0.51037 0.11976 0.0
C42 C 0.12619 0.52446 0.14849 0.0
N43 N 0.1251 0.50965 0.13595 0.0
C44 C 0.19726 0.55774 0.0797 0.0
C45 C 0.16338 0.55301 0.07346 0.0
C46 C 0.2024 0.546 0.06468 0.0
N47 N 0.178 0.56118 0.08364 0.0
C48 C 0.16783 0.54097 0.05852 0.0
C49 C 0.18755 0.53731 0.05406 0.0
H50 H 0.20865 0.56363 0.08845 0.0
H51 H 0.14824 0.55524 0.07737 0.0
C52 C 0.10468 0.59263 0.13719 0.0
N53 N 0.11435 0.57849 0.12756 0.0
C54 C 0.08429 0.59184 0.13904 0.0
C55 C 0.08421 0.56172 0.12134 0.0
C56 C 0.10458 0.56327 0.11957 0.0
C57 C 0.07385 0.57624 0.13103 0.0
H58 H 0.11282 0.60467 0.14322 0.0
H59 H 0.11252 0.55249 0.11156 0.0
O60 O 0.19126 0.58975 0.11913 0.0
O61 O 0.15432 0.59935 0.14325 0.0
O62 O 0.14981 0.59611 0.10236 0.0
O63 O 0.15942 0.55821 0.12437 0.0
H64 H 0.22834 0.59302 0.12955 0.0
H65 H 0.18779 0.60378 0.08524 0.0
H66 H 0.25491 0.60778 0.11063 0.0
H67 H 0.21494 0.61855 0.06712 0.0
H68 H 0.14135 0.58924 0.20396 0.0
H69 H 0.1795 0.62517 0.15693 0.0
H70 H 0.13523 0.58249 0.17085 0.0
H71 H 0.18468 0.63136 0.19028 0.0
H72 H 0.20651 0.67033 0.12356 0.0
H73 H 0.14405 0.67547 0.11364 0.0
H74 H 0.19267 0.53199 0.1893 0.0
H75 H 0.22614 0.58582 0.1845 0.0
H76 H 0.12061 0.577 0.08614 0.0
H77 H 0.16128 0.62507 0.08034 0.0
H78 H 0.10698 0.58503 0.05537 0.0
H79 H 0.14705 0.63215 0.04962 0.0
H80 H 0.15498 0.52712 0.10282 0.0
H81 H 0.1386 0.55276 0.15481 0.0
H82 H 0.13402 0.49833 0.11008 0.0
H83 H 0.11801 0.52347 0.16124 0.0
H84 H 0.21777 0.5432 0.06178 0.0
H85 H 0.15599 0.53444 0.05064 0.0
H86 H 0.07674 0.60329 0.14664 0.0
H87 H 0.07658 0.54963 0.11476 0.0
Li88 Li 0.6394 0.91945 0.37004 0.0
Li89 Li 0.67068 0.92578 0.38504 0.0
Li90 Li 0.6688 0.92101 0.35198 0.0
Li91 Li 0.66423 0.8937 0.37311 0.0
C92 C 0.66237 0.95818 0.35661 0.0
N93 N 0.6752 0.98915 0.33509 0.0
C94 C 0.67865 0.96929 0.36204 0.0
C95 C 0.65264 0.96281 0.34019 0.0
C96 C 0.68488 0.98491 0.35099 0.0
C97 C 0.65936 0.97851 0.3295 0.0
C98 C 0.64853 0.91165 0.41106 0.0
C99 C 0.66167 0.91011 0.44191 0.0
N100 N 0.64731 0.92256 0.44774 0.0
C101 C 0.63389 0.92441 0.41736 0.0
C102 C 0.66252 0.90439 0.42344 0.0
C103 C 0.63352 0.92974 0.43595 0.0
C104 C 0.60044 0.91093 0.37964 0.0
N105 N 0.61188 0.92417 0.37061 0.0
C106 C 0.58356 0.94196 0.36062 0.0
C107 C 0.60392 0.93969 0.36147 0.0
C108 C 0.57139 0.92833 0.36958 0.0
C109 C 0.58003 0.9128 0.37939 0.0
H110 H 0.60721 0.89869 0.38673 0.0
H111 H 0.61335 0.95006 0.35452 0.0
C112 C 0.69984 0.93617 0.41187 0.0
N113 N 0.68221 0.94076 0.40417 0.0
C114 C 0.70693 0.94709 0.42678 0.0
C115 C 0.67788 0.96752 0.42497 0.0
C116 C 0.67135 0.9562 0.41024 0.0
C117 C 0.6958 0.96292 0.43354 0.0
H118 H 0.70823 0.9239 0.40665 0.0
H119 H 0.65738 0.95944 0.4038 0.0
C120 C 0.63081 0.89388 0.34482 0.0
N121 N 0.59393 0.88141 0.33388 0.0
C122 C 0.6229 0.87648 0.3519 0.0
C123 C 0.61992 0.90494 0.33218 0.0
C124 C 0.60426 0.87041 0.34617 0.0
C125 C 0.6013 0.8984 0.32684 0.0
C126 C 0.70197 0.8955 0.36834 0.0
C127 C 0.70867 0.88925 0.35109 0.0
C128 C 0.70878 0.88616 0.38427 0.0
C129 C 0.72206 0.87372 0.35008 0.0
C130 C 0.72214 0.87065 0.38267 0.0
N131 N 0.72845 0.86481 0.36575 0.0
C132 C 0.6981 0.93729 0.32955 0.0
C133 C 0.67068 0.92473 0.31317 0.0
C134 C 0.70737 0.94245 0.31311 0.0
N135 N 0.68017 0.9285 0.32925 0.0
C136 C 0.67932 0.92978 0.29642 0.0
C137 C 0.69805 0.93852 0.29622 0.0
H138 H 0.70534 0.93993 0.34259 0.0
H139 H 0.65653 0.91758 0.31334 0.0
C140 C 0.66678 0.85691 0.39204 0.0
N141 N 0.66818 0.86617 0.37549 0.0
C142 C 0.66898 0.83653 0.3931 0.0
C143 C 0.67394 0.8357 0.36011 0.0
C144 C 0.67178 0.85606 0.3597 0.0
C145 C 0.67237 0.82566 0.37695 0.0
H146 H 0.66362 0.86527 0.40433 0.0
H147 H 0.67268 0.86385 0.34673 0.0
O148 O 0.65629 0.94255 0.36705 0.0
O149 O 0.64946 0.90668 0.3928 0.0
O150 O 0.64881 0.90038 0.35067 0.0
O151 O 0.68851 0.91038 0.36961 0.0
H152 H 0.68658 0.96579 0.37452 0.0
H153 H 0.64035 0.95408 0.33548 0.0
H154 H 0.69749 0.99359 0.35502 0.0
H155 H 0.65206 0.98214 0.3167 0.0
H156 H 0.67251 0.90475 0.4516 0.0
H157 H 0.6231 0.93039 0.40796 0.0
H158 H 0.67416 0.89479 0.41876 0.0
H159 H 0.62233 0.93967 0.441 0.0
H160 H 0.57737 0.95421 0.35305 0.0
H161 H 0.57108 0.90191 0.38633 0.0
H162 H 0.72087 0.94316 0.43297 0.0
H163 H 0.66868 0.97938 0.42995 0.0
H164 H 0.6309 0.86788 0.36193 0.0
H165 H 0.62553 0.9187 0.3269 0.0
H166 H 0.59795 0.85701 0.35159 0.0
H167 H 0.59266 0.90692 0.3172 0.0
H168 H 0.7034 0.89611 0.3386 0.0
H169 H 0.70351 0.89056 0.39771 0.0
H170 H 0.72731 0.86868 0.33682 0.0
H171 H 0.72741 0.8632 0.39488 0.0
H172 H 0.72193 0.94884 0.31363 0.0
H173 H 0.67149 0.92669 0.28375 0.0
H174 H 0.66741 0.82929 0.40631 0.0
H175 H 0.6767 0.82787 0.34737 0.0
Li176 Li 0.32763 0.42579 0.60314 0.0
Li177 Li 0.35669 0.41988 0.62287 0.0
Li178 Li 0.33304 0.39279 0.61587 0.0
Li179 Li 0.32423 0.41873 0.6366 0.0
C180 C 0.35452 0.40539 0.58073 0.0
N181 N 0.36334 0.40133 0.54377 0.0
C182 C 0.37347 0.40946 0.57435 0.0
C183 C 0.34005 0.39931 0.56832 0.0
C184 C 0.37764 0.4073 0.55561 0.0
C185 C 0.34479 0.39732 0.54969 0.0
C186 C 0.34771 0.45832 0.62739 0.0
C187 C 0.36986 0.47759 0.64606 0.0
N188 N 0.36951 0.49207 0.63314 0.0
C189 C 0.34744 0.47347 0.61438 0.0
C190 C 0.3589 0.46047 0.64343 0.0
C191 C 0.3586 0.49038 0.61751 0.0
C192 C 0.29933 0.44656 0.58246 0.0
N193 N 0.31866 0.44155 0.58342 0.0
C194 C 0.32606 0.46148 0.55729 0.0
C195 C 0.33204 0.44884 0.5713 0.0
C196 C 0.30614 0.46654 0.55574 0.0
C197 C 0.29263 0.45887 0.56841 0.0
H198 H 0.28916 0.4411 0.59271 0.0
H199 H 0.34742 0.44522 0.57281 0.0
C200 C 0.39506 0.4122 0.63468 0.0
N201 N 0.38396 0.4253 0.62514 0.0
C202 C 0.4154 0.41452 0.6357 0.0
C203 C 0.41251 0.44389 0.61716 0.0
C204 C 0.39225 0.4408 0.61624 0.0
C205 C 0.42445 0.43053 0.62684 0.0
H206 H 0.38815 0.39965 0.64111 0.0
H207 H 0.38319 0.45062 0.60819 0.0
C208 C 0.29494 0.39449 0.60947 0.0
N209 N 0.26848 0.36655 0.59708 0.0
C210 C 0.28929 0.37893 0.62091 0.0
C211 C 0.28716 0.3957 0.59166 0.0
C212 C 0.27591 0.36499 0.61441 0.0
C213 C 0.27379 0.38149 0.58567 0.0
C214 C 0.34466 0.3966 0.65836 0.0
C215 C 0.33145 0.38279 0.66543 0.0
C216 C 0.35634 0.40752 0.67044 0.0
C217 C 0.32994 0.38034 0.6845 0.0
C218 C 0.3544 0.40466 0.68942 0.0
N219 N 0.34134 0.39126 0.696 0.0
C220 C 0.34074 0.3537 0.62459 0.0
C221 C 0.32321 0.35684 0.59653 0.0
C222 C 0.33945 0.3333 0.62371 0.0
N223 N 0.33218 0.36505 0.61144 0.0
C224 C 0.32165 0.33641 0.59504 0.0
C225 C 0.32949 0.32443 0.60897 0.0
H226 H 0.34841 0.36049 0.63595 0.0
H227 H 0.31675 0.36607 0.58607 0.0
C228 C 0.31327 0.44281 0.66684 0.0
N229 N 0.30937 0.42572 0.65786 0.0
C230 C 0.30252 0.44804 0.68247 0.0
C231 C 0.28376 0.4181 0.67916 0.0
C232 C 0.29479 0.41353 0.66358 0.0
C233 C 0.28757 0.43555 0.68884 0.0
H234 H 0.32464 0.45246 0.66186 0.0
H235 H 0.29186 0.40013 0.65622 0.0
O236 O 0.35009 0.40789 0.59896 0.0
O237 O 0.33696 0.44158 0.62448 0.0
O238 O 0.30795 0.40842 0.61566 0.0
O239 O 0.34609 0.39946 0.63972 0.0
H240 H 0.38481 0.41429 0.58378 0.0
H241 H 0.32523 0.39652 0.57297 0.0
H242 H 0.39224 0.41041 0.55047 0.0
H243 H 0.33371 0.39271 0.53991 0.0
H244 H 0.37868 0.47936 0.65836 0.0
H245 H 0.33864 0.47228 0.60205 0.0
H246 H 0.35924 0.44897 0.65368 0.0
H247 H 0.35856 0.50219 0.60752 0.0
H248 H 0.33686 0.4672 0.54772 0.0
H249 H 0.27719 0.46269 0.56767 0.0
H250 H 0.42394 0.4035 0.64289 0.0
H251 H 0.4187 0.45653 0.61022 0.0
H252 H 0.29557 0.37724 0.63446 0.0
H253 H 0.29152 0.40731 0.5824 0.0
H254 H 0.27155 0.35283 0.6231 0.0
H255 H 0.26771 0.38228 0.57192 0.0
H256 H 0.32227 0.3742 0.65633 0.0
H257 H 0.36684 0.41807 0.66526 0.0
H258 H 0.31967 0.36981 0.69014 0.0
H259 H 0.36331 0.41307 0.69893 0.0
H260 H 0.34615 0.32455 0.63448 0.0
H261 H 0.31389 0.3301 0.58342 0.0
H262 H 0.30577 0.46177 0.68939 0.0
H263 H 0.27259 0.40787 0.68375 0.0
Li264 Li 0.82729 0.10812 0.86861 0.0
Li265 Li 0.81889 0.07986 0.85199 0.0
Li266 Li 0.82479 0.07766 0.88604 0.0
Li267 Li 0.85185 0.08315 0.86297 0.0
C268 C 0.7901 0.10513 0.87903 0.0
N269 N 0.76337 0.13248 0.89195 0.0
C270 C 0.78177 0.11885 0.86699 0.0
C271 C 0.78478 0.10531 0.89764 0.0
C272 C 0.76831 0.13257 0.87379 0.0
C273 C 0.77124 0.11924 0.9039 0.0
C274 C 0.83424 0.10034 0.82639 0.0
C275 C 0.83894 0.08805 0.79551 0.0
N276 N 0.82409 0.0998 0.7895 0.0
C277 C 0.81911 0.11239 0.81988 0.0
C278 C 0.84432 0.08814 0.81409 0.0
C279 C 0.81418 0.11188 0.80119 0.0
C280 C 0.83165 0.14717 0.85678 0.0
N281 N 0.8248 0.13609 0.87097 0.0
C282 C 0.81642 0.16503 0.88798 0.0
C283 C 0.81753 0.1446 0.88652 0.0
C284 C 0.82307 0.17682 0.87336 0.0
C285 C 0.83085 0.16762 0.85765 0.0
H286 H 0.83807 0.14014 0.84487 0.0
H287 H 0.81272 0.13555 0.89788 0.0
C288 C 0.80992 0.05325 0.82315 0.0
N289 N 0.80325 0.06904 0.83277 0.0
C290 C 0.79936 0.04616 0.80808 0.0
C291 C 0.77491 0.07129 0.81352 0.0
C292 C 0.7859 0.07781 0.82852 0.0
C293 C 0.78175 0.05541 0.8029 0.0
H294 H 0.82364 0.04642 0.82691 0.0
H295 H 0.78088 0.09024 0.83644 0.0
C296 C 0.85435 0.11237 0.89512 0.0
N297 N 0.86979 0.14523 0.91211 0.0
C298 C 0.86846 0.12376 0.88609 0.0
C299 C 0.84818 0.11757 0.91283 0.0
C300 C 0.87606 0.14036 0.8949 0.0
C301 C 0.85615 0.13427 0.92118 0.0
C302 C 0.84645 0.04403 0.86501 0.0
C303 C 0.84823 0.03146 0.88015 0.0
C304 C 0.85743 0.04029 0.84909 0.0
C305 C 0.86118 0.01555 0.87924 0.0
C306 C 0.87025 0.02425 0.84872 0.0
N307 N 0.87185 0.01232 0.86368 0.0
C308 C 0.80216 0.05519 0.91124 0.0
C309 C 0.83489 0.06281 0.92008 0.0
C310 C 0.79984 0.04321 0.92673 0.0
N311 N 0.81954 0.0645 0.90822 0.0
C312 C 0.83334 0.05075 0.9355 0.0
C313 C 0.81577 0.04057 0.93875 0.0
H314 H 0.79037 0.05657 0.90131 0.0
H315 H 0.84863 0.07012 0.91705 0.0
C316 C 0.8892 0.08698 0.84584 0.0
N317 N 0.87914 0.07861 0.85998 0.0
C318 C 0.9095 0.08436 0.84439 0.0
C319 C 0.9086 0.0646 0.87208 0.0
C320 C 0.88839 0.06777 0.87309 0.0
C321 C 0.91949 0.07309 0.85768 0.0
H322 H 0.88155 0.09607 0.83596 0.0
H323 H 0.88005 0.06168 0.88442 0.0
O324 O 0.80325 0.09149 0.87265 0.0
O325 O 0.83887 0.10019 0.84476 0.0
O326 O 0.84638 0.09637 0.88655 0.0
O327 O 0.83394 0.0598 0.86574 0.0
H328 H 0.78588 0.11918 0.85261 0.0
H329 H 0.79116 0.09497 0.90722 0.0
H330 H 0.76187 0.14335 0.86464 0.0
H331 H 0.76705 0.11958 0.91828 0.0
H332 H 0.84652 0.07857 0.78588 0.0
H333 H 0.81106 0.12184 0.82918 0.0
H334 H 0.85602 0.07868 0.81885 0.0
H335 H 0.8024 0.12102 0.796 0.0
H336 H 0.81032 0.17149 0.90036 0.0
H337 H 0.83663 0.17613 0.84626 0.0
H338 H 0.80503 0.03371 0.80044 0.0
H339 H 0.76157 0.07907 0.8099 0.0
H340 H 0.87329 0.11995 0.87233 0.0
H341 H 0.83719 0.10893 0.91995 0.0
H342 H 0.88689 0.1494 0.88804 0.0
H343 H 0.85144 0.13855 0.93484 0.0
H344 H 0.83964 0.03384 0.89247 0.0
H345 H 0.85638 0.04989 0.83728 0.0
H346 H 0.86273 0.00575 0.89089 0.0
H347 H 0.87897 0.02134 0.83656 0.0
H348 H 0.78615 0.0354 0.92883 0.0
H349 H 0.84589 0.049 0.94455 0.0
H350 H 0.91733 0.09156 0.8333 0.0
H351 H 0.9156 0.05565 0.88253 0.0
Li352 Li 0.14193 0.41382 0.87147 0.0
Li353 Li 0.17172 0.41859 0.89054 0.0
Li354 Li 0.17462 0.41831 0.85769 0.0
Li355 Li 0.1673 0.38839 0.87496 0.0
C356 C 0.15239 0.45328 0.86365 0.0
N357 N 0.13721 0.48562 0.84554 0.0
C358 C 0.15654 0.47222 0.87 0.0
C359 C 0.14044 0.45078 0.84815 0.0
C360 C 0.14877 0.48839 0.86062 0.0
C361 C 0.13292 0.46732 0.83918 0.0
C362 C 0.14392 0.38296 0.90283 0.0
C363 C 0.15048 0.35528 0.92268 0.0
N364 N 0.13236 0.34793 0.91876 0.0
C365 C 0.12533 0.3752 0.89909 0.0
C366 C 0.15656 0.37301 0.91482 0.0
C367 C 0.11977 0.35745 0.90725 0.0
C368 C 0.10403 0.40566 0.85859 0.0
N369 N 0.11467 0.41839 0.86898 0.0
C370 C 0.08596 0.43717 0.87591 0.0
C371 C 0.10615 0.43392 0.87761 0.0
C372 C 0.07445 0.42412 0.86543 0.0
C373 C 0.08379 0.4082 0.8567 0.0
H374 H 0.11126 0.39335 0.85202 0.0
H375 H 0.11506 0.44381 0.88577 0.0
C376 C 0.19215 0.44786 0.90962 0.0
N377 N 0.18094 0.43151 0.91184 0.0
C378 C 0.1985 0.45846 0.92494 0.0
C379 C 0.18146 0.43525 0.9445 0.0
C380 C 0.17562 0.42499 0.9288 0.0
C381 C 0.19289 0.45236 0.94268 0.0
H382 H 0.19592 0.4528 0.8959 0.0
H383 H 0.16638 0.41216 0.9301 0.0
C384 C 0.15706 0.3916 0.83452 0.0
N385 N 0.16304 0.37926 0.79867 0.0
C386 C 0.17184 0.37797 0.83051 0.0
C387 C 0.14518 0.39877 0.82032 0.0
C388 C 0.17467 0.37197 0.81229 0.0
C389 C 0.14847 0.3924 0.80228 0.0
C390 C 0.2082 0.40914 0.88478 0.0
C391 C 0.22054 0.42383 0.87788 0.0
C392 C 0.21288 0.39991 0.90143 0.0
C393 C 0.23734 0.42908 0.8878 0.0
C394 C 0.22978 0.40561 0.91096 0.0
N395 N 0.24156 0.41995 0.904 0.0
C396 C 0.18674 0.44523 0.82864 0.0
C397 C 0.20326 0.4147 0.83116 0.0
C398 C 0.19808 0.45029 0.81333 0.0
N399 N 0.18927 0.42752 0.83702 0.0
C400 C 0.2149 0.41914 0.81595 0.0
C401 C 0.21228 0.43708 0.80674 0.0
H402 H 0.17609 0.45557 0.83374 0.0
H403 H 0.20535 0.40095 0.83835 0.0
C404 C 0.15538 0.34967 0.86877 0.0
N405 N 0.17048 0.36069 0.87535 0.0
C406 C 0.15674 0.32923 0.86862 0.0
C407 C 0.18921 0.33188 0.882 0.0
C408 C 0.18725 0.3523 0.88178 0.0
C409 C 0.17382 0.3201 0.87532 0.0
H410 H 0.14225 0.35682 0.86368 0.0
H411 H 0.19913 0.36144 0.88667 0.0
O412 O 0.15953 0.43733 0.87296 0.0
O413 O 0.14982 0.40006 0.89459 0.0
O414 O 0.15414 0.3978 0.85226 0.0
O415 O 0.19152 0.40398 0.87539 0.0
H416 H 0.16565 0.47439 0.88206 0.0
H417 H 0.13715 0.43626 0.84303 0.0
H418 H 0.15189 0.50314 0.86536 0.0
H419 H 0.12369 0.46559 0.82715 0.0
H420 H 0.16018 0.34734 0.93184 0.0
H421 H 0.11534 0.3827 0.88989 0.0
H422 H 0.17103 0.37874 0.9178 0.0
H423 H 0.10546 0.35122 0.9044 0.0
H424 H 0.0795 0.4498 0.88267 0.0
H425 H 0.07553 0.39753 0.84879 0.0
H426 H 0.20743 0.47144 0.92289 0.0
H427 H 0.1764 0.43023 0.95784 0.0
H428 H 0.18124 0.37231 0.84128 0.0
H429 H 0.13348 0.4091 0.82317 0.0
H430 H 0.18616 0.36156 0.80898 0.0
H431 H 0.13942 0.39788 0.79114 0.0
H432 H 0.21709 0.4313 0.86514 0.0
H433 H 0.2034 0.38869 0.9071 0.0
H434 H 0.24697 0.44048 0.88267 0.0
H435 H 0.23349 0.39869 0.92392 0.0
H436 H 0.19583 0.46443 0.80679 0.0
H437 H 0.22556 0.40843 0.81125 0.0
H438 H 0.14447 0.32067 0.86354 0.0
H439 H 0.2027 0.32538 0.88707 0.0
Li440 Li 0.83125 0.91947 0.10469 0.0
Li441 Li 0.85735 0.91544 0.12726 0.0
Li442 Li 0.83336 0.88935 0.12172 0.0
Li443 Li 0.82424 0.91946 0.13747 0.0
C444 C 0.86062 0.88363 0.09718 0.0
N445 N 0.87546 0.84849 0.08409 0.0
C446 C 0.87812 0.87603 0.10436 0.0
C447 C 0.85072 0.87339 0.08329 0.0
C448 C 0.88538 0.85825 0.09755 0.0
C449 C 0.85844 0.85563 0.07688 0.0
C450 C 0.85329 0.95345 0.12398 0.0
C451 C 0.87603 0.97402 0.14066 0.0
N452 N 0.88172 0.98244 0.12452 0.0
C453 C 0.8593 0.96236 0.10756 0.0
C454 C 0.86164 0.95937 0.14068 0.0
C455 C 0.87371 0.97698 0.10812 0.0
C456 C 0.81262 0.94691 0.08149 0.0
N457 N 0.82526 0.93143 0.08188 0.0
C458 C 0.83221 0.93515 0.04987 0.0
C459 C 0.83491 0.92534 0.06653 0.0
C460 C 0.81941 0.95132 0.04909 0.0
C461 C 0.80927 0.95699 0.06505 0.0
H462 H 0.80561 0.95177 0.09406 0.0
H463 H 0.84518 0.91325 0.06735 0.0
C464 C 0.89355 0.91652 0.14732 0.0
N465 N 0.88444 0.92044 0.13105 0.0
C466 C 0.91392 0.91861 0.14884 0.0
C467 C 0.91495 0.92905 0.117 0.0
C468 C 0.89464 0.92672 0.11608 0.0
C469 C 0.92492 0.92461 0.13343 0.0
H470 H 0.8851 0.91118 0.15889 0.0
H471 H 0.88699 0.92944 0.10326 0.0
C472 C 0.79428 0.90938 0.10645 0.0
N473 N 0.76362 0.9185 0.08297 0.0
C474 C 0.78044 0.92359 0.11147 0.0
C475 C 0.7925 0.89978 0.08949 0.0
C476 C 0.76504 0.92798 0.09942 0.0
C477 C 0.77691 0.90462 0.07781 0.0
C478 C 0.83813 0.89707 0.16342 0.0
C479 C 0.82541 0.88185 0.16843 0.0
C480 C 0.84439 0.91055 0.17673 0.0
C481 C 0.81905 0.88045 0.18669 0.0
C482 C 0.83766 0.90866 0.19483 0.0
N483 N 0.82523 0.89378 0.19939 0.0
C484 C 0.84398 0.85049 0.1295 0.0
C485 C 0.81371 0.85351 0.11355 0.0
C486 C 0.84217 0.83008 0.1298 0.0
N487 N 0.82991 0.86169 0.12136 0.0
C488 C 0.81131 0.83314 0.11351 0.0
C489 C 0.82566 0.82115 0.12173 0.0
H490 H 0.85661 0.85746 0.13575 0.0
H491 H 0.80257 0.86279 0.1075 0.0
C492 C 0.81027 0.94641 0.1649 0.0
N493 N 0.80726 0.92912 0.15595 0.0
C494 C 0.7974 0.95231 0.17887 0.0
C495 C 0.77852 0.92268 0.17371 0.0
C496 C 0.79176 0.91733 0.16001 0.0
C497 C 0.78128 0.94034 0.18337 0.0
H498 H 0.8227 0.95552 0.16131 0.0
H499 H 0.78984 0.90363 0.15267 0.0
O500 O 0.85299 0.90076 0.10397 0.0
O501 O 0.83946 0.93887 0.12369 0.0
O502 O 0.80961 0.90503 0.11797 0.0
O503 O 0.84407 0.89904 0.14551 0.0
H504 H 0.88589 0.88363 0.11523 0.0
H505 H 0.8371 0.87898 0.07767 0.0
H506 H 0.89885 0.85215 0.10303 0.0
H507 H 0.85087 0.8475 0.06623 0.0
H508 H 0.88273 0.97864 0.15347 0.0
H509 H 0.85308 0.95793 0.09449 0.0
H510 H 0.8573 0.95251 0.15349 0.0
H511 H 0.87857 0.98394 0.09551 0.0
H512 H 0.84029 0.93041 0.03779 0.0
H513 H 0.79955 0.96961 0.06501 0.0
H514 H 0.92106 0.91478 0.16169 0.0
H515 H 0.92281 0.93394 0.10485 0.0
H516 H 0.78168 0.93136 0.12442 0.0
H517 H 0.80321 0.88894 0.08526 0.0
H518 H 0.75427 0.939 0.1031 0.0
H519 H 0.77543 0.89739 0.0646 0.0
H520 H 0.82028 0.87139 0.15828 0.0
H521 H 0.85409 0.92251 0.17306 0.0
H522 H 0.80911 0.86881 0.19074 0.0
H523 H 0.84226 0.91907 0.20524 0.0
H524 H 0.85368 0.82138 0.13612 0.0
H525 H 0.79822 0.82686 0.10738 0.0
H526 H 0.79998 0.96604 0.18602 0.0
H527 H 0.7665 0.91286 0.177 0.0
Li528 Li 0.33297 0.60694 0.37471 0.0
Li529 Li 0.32427 0.57688 0.35691 0.0
Li530 Li 0.3267 0.57492 0.39021 0.0
Li531 Li 0.35505 0.57862 0.37153 0.0
C532 C 0.29111 0.58925 0.38416 0.0
N533 N 0.25672 0.58355 0.40365 0.0
C534 C 0.27773 0.57487 0.37855 0.0
C535 C 0.287 0.60078 0.39962 0.0
C536 C 0.26041 0.57221 0.3886 0.0
C537 C 0.26953 0.59765 0.40931 0.0
C538 C 0.34304 0.5996 0.33386 0.0
C539 C 0.34752 0.58948 0.30229 0.0
N540 N 0.33662 0.60512 0.29663 0.0
C541 C 0.33201 0.61566 0.32774 0.0
C542 C 0.35099 0.58647 0.32106 0.0
C543 C 0.3289 0.61817 0.30886 0.0
C544 C 0.3468 0.64569 0.3766 0.0
N545 N 0.33029 0.63452 0.3758 0.0
C546 C 0.31001 0.66319 0.37563 0.0
C547 C 0.3121 0.64278 0.37516 0.0
C548 C 0.32682 0.67509 0.37685 0.0
C549 C 0.34541 0.66612 0.3773 0.0
H550 H 0.36106 0.63872 0.37648 0.0
H551 H 0.29924 0.63352 0.37416 0.0
C552 C 0.31239 0.55079 0.32842 0.0
N553 N 0.3095 0.56864 0.33636 0.0
C554 C 0.30126 0.54524 0.31313 0.0
C555 C 0.28426 0.57644 0.3148 0.0
C556 C 0.2957 0.58136 0.33001 0.0
C557 C 0.28699 0.55817 0.30614 0.0
H558 H 0.32328 0.54088 0.33395 0.0
H559 H 0.29372 0.59542 0.33674 0.0
C560 C 0.36494 0.59111 0.40478 0.0
N561 N 0.39924 0.58545 0.42452 0.0
C562 C 0.36725 0.5744 0.41578 0.0
C563 C 0.3801 0.60493 0.40383 0.0
C564 C 0.38467 0.57183 0.42569 0.0
C565 C 0.39734 0.60179 0.41388 0.0
C566 C 0.34809 0.53985 0.37171 0.0
C567 C 0.34971 0.52821 0.38751 0.0
C568 C 0.35843 0.53465 0.35579 0.0
C569 C 0.36183 0.51163 0.38717 0.0
C570 C 0.37042 0.51798 0.35601 0.0
N571 N 0.37186 0.50691 0.37157 0.0
C572 C 0.30376 0.54732 0.40925 0.0
C573 C 0.3177 0.57221 0.42801 0.0
C574 C 0.29567 0.53814 0.42466 0.0
N575 N 0.31485 0.56376 0.41127 0.0
C576 C 0.3102 0.56335 0.44382 0.0
C577 C 0.29932 0.54583 0.44233 0.0
H578 H 0.30153 0.54115 0.39567 0.0
H579 H 0.32636 0.58549 0.4291 0.0
C580 C 0.39262 0.58612 0.358 0.0
N581 N 0.38266 0.57348 0.3691 0.0
C582 C 0.41305 0.58523 0.35684 0.0
C583 C 0.41269 0.55795 0.37815 0.0
C584 C 0.39226 0.55948 0.37904 0.0
C585 C 0.42334 0.57117 0.36718 0.0
H586 H 0.38474 0.59733 0.35048 0.0
H587 H 0.38421 0.54995 0.3882 0.0
O588 O 0.30836 0.59173 0.3748 0.0
O589 O 0.3458 0.59657 0.3523 0.0
O590 O 0.34809 0.59372 0.39473 0.0
O591 O 0.33612 0.55599 0.37173 0.0
H592 H 0.28078 0.56571 0.3667 0.0
H593 H 0.29732 0.61185 0.40423 0.0
H594 H 0.24994 0.56108 0.38448 0.0
H595 H 0.2662 0.60639 0.42137 0.0
H596 H 0.35346 0.57936 0.29223 0.0
H597 H 0.32572 0.62593 0.33748 0.0
H598 H 0.35962 0.57402 0.32559 0.0
H599 H 0.32028 0.63045 0.30392 0.0
H600 H 0.29544 0.66959 0.37525 0.0
H601 H 0.35872 0.67482 0.37786 0.0
H602 H 0.30366 0.53095 0.30694 0.0
H603 H 0.27365 0.58697 0.30968 0.0
H604 H 0.35592 0.56329 0.41639 0.0
H605 H 0.3787 0.61785 0.39529 0.0
H606 H 0.38668 0.55891 0.43418 0.0
H607 H 0.40923 0.61232 0.41317 0.0
H608 H 0.34182 0.53198 0.39995 0.0
H609 H 0.35741 0.54353 0.34347 0.0
H610 H 0.36329 0.50254 0.39932 0.0
H611 H 0.37862 0.51386 0.34383 0.0
H612 H 0.28702 0.52494 0.42276 0.0
H613 H 0.31367 0.56974 0.45709 0.0
H614 H 0.42076 0.59564 0.34815 0.0
H615 H 0.42013 0.54711 0.38657 0.0
Li616 Li 0.66638 0.10266 0.61662 0.0
Li617 Li 0.67236 0.07341 0.63404 0.0
Li618 Li 0.67027 0.07178 0.60118 0.0
Li619 Li 0.64135 0.07775 0.61913 0.0
C620 C 0.70411 0.09376 0.60439 0.0
N621 N 0.73208 0.1095 0.58105 0.0
C622 C 0.72409 0.09131 0.60819 0.0
C623 C 0.69835 0.10425 0.58872 0.0
C624 C 0.73801 0.09937 0.59622 0.0
C625 C 0.71271 0.11209 0.57709 0.0
C626 C 0.65824 0.10547 0.65369 0.0
C627 C 0.65033 0.12428 0.68087 0.0
N628 N 0.66969 0.12868 0.68304 0.0
C629 C 0.67807 0.11018 0.65619 0.0
C630 C 0.64425 0.11257 0.66612 0.0
C631 C 0.68356 0.12193 0.67111 0.0
C632 C 0.65283 0.14063 0.6123 0.0
N633 N 0.66956 0.13032 0.61558 0.0
C634 C 0.68817 0.15999 0.6179 0.0
C635 C 0.68705 0.13951 0.61851 0.0
C636 C 0.67107 0.17101 0.61463 0.0
C637 C 0.65323 0.16111 0.61183 0.0
H638 H 0.63913 0.13288 0.61019 0.0
H639 H 0.70007 0.13098 0.62148 0.0
C640 C 0.70408 0.05624 0.65225 0.0
N641 N 0.68548 0.06297 0.65479 0.0
C642 C 0.71518 0.04993 0.66728 0.0
C643 C 0.68745 0.05687 0.68711 0.0
C644 C 0.67692 0.06311 0.67171 0.0
C645 C 0.70697 0.05053 0.68503 0.0
H646 H 0.71042 0.05622 0.63858 0.0
H647 H 0.66212 0.06863 0.67335 0.0
C648 C 0.63778 0.08682 0.58228 0.0
N649 N 0.61347 0.07659 0.55332 0.0
C650 C 0.63365 0.06705 0.57874 0.0
C651 C 0.62955 0.10138 0.57111 0.0
C652 C 0.62133 0.06218 0.56403 0.0
C653 C 0.6173 0.09591 0.55653 0.0
C654 C 0.65005 0.03969 0.63056 0.0
C655 C 0.65266 0.01978 0.62655 0.0
C656 C 0.63941 0.04519 0.64621 0.0
C657 C 0.64459 0.00566 0.6383 0.0
C658 C 0.63157 0.03063 0.65763 0.0
N659 N 0.63431 0.01133 0.65347 0.0
C660 C 0.68876 0.04081 0.5831 0.0
C661 C 0.68012 0.06716 0.56329 0.0
C662 C 0.69605 0.03003 0.56824 0.0
N663 N 0.68078 0.05886 0.58032 0.0
C664 C 0.68726 0.05692 0.54805 0.0
C665 C 0.69513 0.03799 0.5504 0.0
H666 H 0.68921 0.0347 0.59685 0.0
H667 H 0.67371 0.08157 0.56148 0.0
C668 C 0.60372 0.09021 0.62764 0.0
N669 N 0.61376 0.07455 0.62086 0.0
C670 C 0.58331 0.08955 0.62913 0.0
C671 C 0.58393 0.0566 0.61661 0.0
C672 C 0.60438 0.05789 0.61541 0.0
C673 C 0.57311 0.07263 0.62347 0.0
H674 H 0.61162 0.10326 0.63182 0.0
H675 H 0.61275 0.04567 0.60999 0.0
O676 O 0.69039 0.08583 0.61602 0.0
O677 O 0.65238 0.09399 0.6392 0.0
O678 O 0.64973 0.09207 0.59663 0.0
O679 O 0.65791 0.0536 0.6191 0.0
H680 H 0.72881 0.08326 0.62027 0.0
H681 H 0.68298 0.10644 0.58558 0.0
H682 H 0.75353 0.09757 0.59899 0.0
H683 H 0.70845 0.12024 0.56493 0.0
H684 H 0.63965 0.12987 0.6906 0.0
H685 H 0.68915 0.1048 0.64679 0.0
H686 H 0.62884 0.10903 0.66439 0.0
H687 H 0.69885 0.12567 0.67321 0.0
H688 H 0.70215 0.16716 0.62034 0.0
H689 H 0.63976 0.16912 0.60916 0.0
H690 H 0.73014 0.04498 0.6651 0.0
H691 H 0.68067 0.05783 0.70059 0.0
H692 H 0.63988 0.05556 0.5872 0.0
H693 H 0.6326 0.11675 0.5737 0.0
H694 H 0.61801 0.04694 0.56113 0.0
H695 H 0.61082 0.10703 0.54777 0.0
H696 H 0.66083 0.01528 0.61446 0.0
H697 H 0.63713 0.0605 0.64954 0.0
H698 H 0.64651 0.99019 0.63536 0.0
H699 H 0.62331 0.03468 0.66978 0.0
H700 H 0.70217 0.01556 0.57066 0.0
H701 H 0.686 0.06349 0.53451 0.0
H702 H 0.57562 0.10213 0.63476 0.0
H703 H 0.57665 0.04337 0.6119 0.0
Li704 Li 0.82524 0.42172 0.85669 0.0
Li705 Li 0.82926 0.42495 0.88872 0.0
Li706 Li 0.85866 0.41901 0.86855 0.0
Li707 Li 0.83325 0.39336 0.8751 0.0
C708 C 0.84048 0.45832 0.8581 0.0
N709 N 0.83962 0.491 0.83547 0.0
C710 C 0.82318 0.46927 0.85622 0.0
C711 C 0.85735 0.46408 0.84852 0.0
C712 C 0.82304 0.48571 0.84469 0.0
C713 C 0.85662 0.48063 0.83714 0.0
C714 C 0.79341 0.41503 0.88634 0.0
C715 C 0.77327 0.412 0.91355 0.0
N716 N 0.76283 0.42808 0.90823 0.0
C717 C 0.78246 0.4315 0.88112 0.0
C718 C 0.78877 0.40516 0.90266 0.0
C719 C 0.76706 0.43787 0.89238 0.0
C720 C 0.79273 0.41923 0.83367 0.0
N721 N 0.81032 0.42855 0.83526 0.0
C722 C 0.80666 0.44255 0.80523 0.0
C723 C 0.81748 0.43997 0.82139 0.0
C724 C 0.78868 0.43275 0.80318 0.0
C725 C 0.78163 0.42108 0.81764 0.0
H726 H 0.78765 0.40971 0.8446 0.0
H727 H 0.83193 0.44639 0.82246 0.0
C728 C 0.82102 0.43041 0.92693 0.0
N729 N 0.82142 0.43918 0.9101 0.0
C730 C 0.8161 0.44129 0.94259 0.0
C731 C 0.81213 0.46996 0.92327 0.0
C732 C 0.81698 0.45852 0.90802 0.0
C733 C 0.81187 0.4614 0.94085 0.0
H734 H 0.82475 0.41507 0.92825 0.0
H735 H 0.81755 0.46517 0.89457 0.0
C736 C 0.84089 0.39594 0.83377 0.0
N737 N 0.83037 0.38668 0.79802 0.0
C738 C 0.82632 0.3819 0.83042 0.0
C739 C 0.85014 0.40524 0.81894 0.0
C740 C 0.8212 0.37743 0.81225 0.0
C741 C 0.84461 0.40035 0.80097 0.0
C742 C 0.85904 0.39055 0.90166 0.0
C743 C 0.87827 0.38434 0.89815 0.0
C744 C 0.84734 0.37991 0.91397 0.0
C745 C 0.88545 0.36755 0.90696 0.0
C746 C 0.85504 0.36317 0.92247 0.0
N747 N 0.87378 0.35739 0.91882 0.0
C748 C 0.89562 0.43384 0.8783 0.0
C749 C 0.89535 0.41495 0.85085 0.0
C750 C 0.91599 0.43598 0.87721 0.0
N751 N 0.88584 0.42333 0.8653 0.0
C752 C 0.91566 0.41694 0.84907 0.0
C753 C 0.92635 0.42731 0.86252 0.0
H754 H 0.88762 0.44009 0.88978 0.0
H755 H 0.88723 0.40635 0.84092 0.0
C756 C 0.81362 0.35708 0.88269 0.0
N757 N 0.8306 0.36565 0.87695 0.0
C758 C 0.81204 0.33662 0.88324 0.0
C759 C 0.84534 0.3343 0.87177 0.0
C760 C 0.84628 0.35476 0.87149 0.0
C761 C 0.82801 0.32497 0.87762 0.0
H762 H 0.80121 0.3661 0.88651 0.0
H763 H 0.8595 0.36202 0.86678 0.0
O764 O 0.84105 0.44232 0.86953 0.0
O765 O 0.80889 0.40891 0.87573 0.0
O766 O 0.84563 0.40098 0.85148 0.0
O767 O 0.85161 0.40676 0.8929 0.0
H768 H 0.80991 0.46497 0.86333 0.0
H769 H 0.87089 0.45588 0.84981 0.0
H770 H 0.80973 0.49423 0.84302 0.0
H771 H 0.86956 0.48521 0.82962 0.0
H772 H 0.76961 0.40459 0.92628 0.0
H773 H 0.78587 0.43937 0.86859 0.0
H774 H 0.79728 0.39261 0.9071 0.0
H775 H 0.75851 0.45064 0.88854 0.0
H776 H 0.81269 0.45132 0.79412 0.0
H777 H 0.76786 0.41321 0.81641 0.0
H778 H 0.81629 0.43421 0.95596 0.0
H779 H 0.80883 0.48541 0.92137 0.0
H780 H 0.81881 0.37476 0.84171 0.0
H781 H 0.86113 0.41645 0.82127 0.0
H782 H 0.80987 0.36669 0.80945 0.0
H783 H 0.85154 0.40754 0.78937 0.0
H784 H 0.88754 0.39228 0.88862 0.0
H785 H 0.83231 0.38422 0.9166 0.0
H786 H 0.90028 0.36256 0.90431 0.0
H787 H 0.84608 0.35471 0.93189 0.0
H788 H 0.92357 0.44379 0.8881 0.0
H789 H 0.9229 0.41025 0.83736 0.0
H790 H 0.79832 0.33 0.88756 0.0
H791 H 0.85805 0.32587 0.86747 0.0
Li792 Li 0.33283 0.109 0.62192 0.0
Li793 Li 0.35726 0.0831 0.62676 0.0
Li794 Li 0.32848 0.07775 0.60748 0.0
Li795 Li 0.32549 0.08023 0.64071 0.0
C796 C 0.35723 0.11216 0.59408 0.0
N797 N 0.37106 0.14541 0.57644 0.0
C798 C 0.37641 0.11872 0.59724 0.0
C799 C 0.34511 0.1225 0.58189 0.0
C800 C 0.38313 0.13555 0.58818 0.0
C801 C 0.35235 0.13929 0.57315 0.0
C802 C 0.34316 0.10508 0.66329 0.0
C803 C 0.34603 0.09611 0.69534 0.0
N804 N 0.33642 0.11289 0.70012 0.0
C805 C 0.3334 0.12228 0.66852 0.0
C806 C 0.34964 0.09193 0.6768 0.0
C807 C 0.33012 0.12595 0.68721 0.0
C808 C 0.31223 0.14444 0.61423 0.0
N809 N 0.32966 0.13658 0.61966 0.0
C810 C 0.34449 0.16833 0.6208 0.0
C811 C 0.34555 0.14804 0.62325 0.0
C812 C 0.3268 0.17688 0.6149 0.0
C813 C 0.31044 0.16473 0.6118 0.0
H814 H 0.29979 0.13496 0.61166 0.0
H815 H 0.35913 0.14135 0.62781 0.0
C816 C 0.39411 0.0702 0.6142 0.0
N817 N 0.38457 0.07801 0.62894 0.0
C818 C 0.41441 0.06744 0.61472 0.0
C819 C 0.41468 0.08073 0.64563 0.0
C820 C 0.39435 0.08318 0.64453 0.0
C821 C 0.425 0.07298 0.63051 0.0
H822 H 0.38596 0.06661 0.60185 0.0
H823 H 0.38644 0.0896 0.65594 0.0
C824 C 0.29218 0.08717 0.61286 0.0
N825 N 0.25949 0.074 0.59395 0.0
C826 C 0.28066 0.07205 0.62016 0.0
C827 C 0.28705 0.09564 0.59598 0.0
C828 C 0.26418 0.0656 0.61039 0.0
C829 C 0.27048 0.08875 0.58662 0.0
C830 C 0.35271 0.04508 0.62682 0.0
C831 C 0.35784 0.03553 0.61045 0.0
C832 C 0.36192 0.03976 0.6433 0.0
C833 C 0.37219 0.02084 0.61084 0.0
C834 C 0.37623 0.02502 0.64311 0.0
N835 N 0.38102 0.01595 0.62702 0.0
C836 C 0.32458 0.07131 0.56945 0.0
C837 C 0.31035 0.0466 0.58822 0.0
C838 C 0.32076 0.06036 0.55364 0.0
N839 N 0.31969 0.06414 0.58628 0.0
C840 C 0.30634 0.03506 0.57275 0.0
C841 C 0.31209 0.0417 0.55523 0.0
H842 H 0.33218 0.08517 0.56832 0.0
H843 H 0.30688 0.04117 0.60185 0.0
C844 C 0.29924 0.08513 0.66971 0.0
N845 N 0.31126 0.07173 0.66163 0.0
C846 C 0.28907 0.08035 0.68574 0.0
C847 C 0.30288 0.04761 0.68422 0.0
C848 C 0.31308 0.05315 0.66833 0.0
C849 C 0.29097 0.06143 0.69323 0.0
H850 H 0.29778 0.09965 0.6638 0.0
H851 H 0.32249 0.04271 0.66141 0.0
O852 O 0.35026 0.0959 0.60307 0.0
O853 O 0.34619 0.10104 0.64503 0.0
O854 O 0.30861 0.09338 0.62202 0.0
O855 O 0.33896 0.05975 0.62668 0.0
H856 H 0.38597 0.11106 0.60673 0.0
H857 H 0.33011 0.11787 0.57952 0.0
H858 H 0.39791 0.14082 0.59055 0.0
H859 H 0.34307 0.14752 0.56382 0.0
H860 H 0.3508 0.08599 0.70592 0.0
H861 H 0.32821 0.13258 0.65826 0.0
H862 H 0.3571 0.0785 0.67299 0.0
H863 H 0.32249 0.13915 0.69146 0.0
H864 H 0.35733 0.17725 0.62364 0.0
H865 H 0.29655 0.1708 0.60723 0.0
H866 H 0.42182 0.06173 0.60265 0.0
H867 H 0.42228 0.08508 0.6581 0.0
H868 H 0.28448 0.06524 0.63315 0.0
H869 H 0.29593 0.10721 0.59005 0.0
H870 H 0.25517 0.05387 0.61583 0.0
H871 H 0.26641 0.09509 0.57349 0.0
H872 H 0.35103 0.03958 0.59753 0.0
H873 H 0.35825 0.04709 0.65607 0.0
H874 H 0.37637 0.0134 0.59826 0.0
H875 H 0.38356 0.02084 0.65575 0.0
H876 H 0.32517 0.06615 0.54037 0.0
H877 H 0.29983 0.02067 0.57461 0.0
H878 H 0.27974 0.09128 0.69217 0.0
H879 H 0.30459 0.03286 0.68961 0.0
Li880 Li 0.66349 0.60963 0.37774 0.0
Li881 Li 0.6395 0.58379 0.37431 0.0
Li882 Li 0.66912 0.57817 0.39275 0.0
Li883 Li 0.67005 0.57989 0.35964 0.0
C884 C 0.63594 0.59156 0.41184 0.0
N885 N 0.61252 0.57946 0.44085 0.0
C886 C 0.63056 0.57179 0.41354 0.0
C887 C 0.62937 0.60515 0.42493 0.0
C888 C 0.61873 0.56598 0.42829 0.0
C889 C 0.61756 0.59874 0.43949 0.0
C890 C 0.63409 0.6079 0.34607 0.0
C891 C 0.60663 0.6035 0.32538 0.0
N892 N 0.60007 0.62181 0.32971 0.0
C893 C 0.62716 0.62676 0.35012 0.0
C894 C 0.62383 0.59626 0.33342 0.0
C895 C 0.60992 0.63349 0.34177 0.0
C896 C 0.68218 0.64598 0.37027 0.0
N897 N 0.66757 0.63705 0.37991 0.0
C898 C 0.65655 0.66784 0.39178 0.0
C899 C 0.65505 0.64745 0.39075 0.0
C900 C 0.67118 0.67758 0.38163 0.0
C901 C 0.68434 0.66638 0.37102 0.0
H902 H 0.69189 0.63727 0.36174 0.0
H903 H 0.64349 0.63992 0.39812 0.0
C904 C 0.60402 0.56191 0.36876 0.0
N905 N 0.61193 0.57961 0.37324 0.0
C906 C 0.58363 0.55953 0.36829 0.0
C907 C 0.58004 0.59359 0.37717 0.0
C908 C 0.60043 0.59525 0.3776 0.0
C909 C 0.57134 0.57553 0.37252 0.0
H910 H 0.6135 0.5496 0.36571 0.0
H911 H 0.60717 0.60908 0.38137 0.0
C912 C 0.70179 0.60159 0.38848 0.0
N913 N 0.73024 0.61846 0.41058 0.0
C914 C 0.72154 0.60094 0.38323 0.0
C915 C 0.6965 0.6108 0.40498 0.0
C916 C 0.73571 0.60956 0.39459 0.0
C917 C 0.7111 0.61924 0.41595 0.0
C918 C 0.65763 0.543 0.36515 0.0
C919 C 0.66689 0.52652 0.37271 0.0
C920 C 0.64954 0.54178 0.34749 0.0
C921 C 0.66845 0.50935 0.36224 0.0
C922 C 0.65142 0.52438 0.33743 0.0
N923 N 0.66079 0.50866 0.34494 0.0
C924 C 0.67692 0.57146 0.431 0.0
C925 C 0.69396 0.55115 0.40982 0.0
C926 C 0.68455 0.56086 0.44581 0.0
N927 N 0.68111 0.56594 0.41343 0.0
C928 C 0.70172 0.53995 0.42419 0.0
C929 C 0.6966 0.5445 0.44243 0.0
H930 H 0.66735 0.58381 0.43359 0.0
H931 H 0.69778 0.54775 0.39571 0.0
C932 C 0.67706 0.5724 0.32181 0.0
N933 N 0.68409 0.57015 0.3392 0.0
C934 C 0.68812 0.56596 0.30679 0.0
C935 C 0.71342 0.55514 0.32794 0.0
C936 C 0.70175 0.56153 0.34255 0.0
C937 C 0.70667 0.5575 0.3098 0.0
H938 H 0.66305 0.57948 0.31959 0.0
H939 H 0.70689 0.55999 0.35659 0.0
O940 O 0.64742 0.59775 0.39745 0.0
O941 O 0.65081 0.60093 0.35439 0.0
O942 O 0.68782 0.59313 0.37748 0.0
O943 O 0.65608 0.56004 0.37514 0.0
H944 H 0.63544 0.56099 0.40366 0.0
H945 H 0.63341 0.62048 0.42392 0.0
H946 H 0.61447 0.55074 0.42976 0.0
H947 H 0.61241 0.60911 0.44971 0.0
H948 H 0.59849 0.59456 0.3157 0.0
H949 H 0.63488 0.63612 0.35967 0.0
H950 H 0.62895 0.58176 0.32985 0.0
H951 H 0.60436 0.64801 0.34491 0.0
H952 H 0.64624 0.67594 0.40024 0.0
H953 H 0.69571 0.67338 0.36289 0.0
H954 H 0.57758 0.54525 0.36493 0.0
H955 H 0.57121 0.60641 0.38028 0.0
H956 H 0.72586 0.59383 0.37051 0.0
H957 H 0.68131 0.61144 0.4093 0.0
H958 H 0.75105 0.60917 0.3907 0.0
H959 H 0.70721 0.62642 0.42875 0.0
H960 H 0.67253 0.5268 0.3866 0.0
H961 H 0.64201 0.5542 0.34157 0.0
H962 H 0.67565 0.49653 0.36792 0.0
H963 H 0.6454 0.52338 0.32366 0.0
H964 H 0.68031 0.56484 0.45971 0.0
H965 H 0.71126 0.52764 0.42109 0.0
H966 H 0.68258 0.56826 0.29296 0.0
H967 H 0.72765 0.54864 0.33074 0.0
Li968 Li 0.1695 0.92263 0.10863 0.0
Li969 Li 0.1735 0.92181 0.14078 0.0
Li970 Li 0.16834 0.89113 0.12395 0.0
Li971 Li 0.1411 0.91662 0.12802 0.0
C972 C 0.20793 0.90464 0.11408 0.0
N973 N 0.24302 0.89543 0.09693 0.0
C974 C 0.22512 0.91481 0.11866 0.0
C975 C 0.20865 0.88966 0.10091 0.0
C976 C 0.24269 0.90998 0.10979 0.0
C977 C 0.22652 0.88526 0.09236 0.0
C978 C 0.16597 0.95877 0.12623 0.0
C979 C 0.16405 0.99414 0.12739 0.0
N980 N 0.18384 0.99521 0.12495 0.0
C981 C 0.18629 0.96022 0.12374 0.0
C982 C 0.15474 0.97585 0.12807 0.0
C983 C 0.19505 0.97877 0.12313 0.0
C984 C 0.16141 0.94685 0.079 0.0
N985 N 0.17631 0.93613 0.0864 0.0
C986 C 0.19789 0.94598 0.06208 0.0
C987 C 0.19442 0.9357 0.07841 0.0
C988 C 0.18251 0.95651 0.05388 0.0
C989 C 0.1641 0.95695 0.0625 0.0
H990 H 0.14734 0.94743 0.08591 0.0
H991 H 0.20622 0.92751 0.08459 0.0
C992 C 0.20383 0.92232 0.16627 0.0
N993 N 0.18729 0.93209 0.16123 0.0
C994 C 0.21456 0.92844 0.18155 0.0
C995 C 0.19105 0.95467 0.18617 0.0
C996 C 0.18074 0.948 0.17075 0.0
C997 C 0.20821 0.94481 0.19175 0.0
H998 H 0.20844 0.90951 0.15857 0.0
H999 H 0.16738 0.95535 0.16651 0.0
C1000 C 0.14388 0.90282 0.08756 0.0
N1001 N 0.13351 0.90599 0.05085 0.0
C1002 C 0.12611 0.91167 0.08259 0.0
C1003 C 0.15622 0.89531 0.07386 0.0
C1004 C 0.12116 0.91319 0.06395 0.0
C1005 C 0.15077 0.89715 0.05538 0.0
C1006 C 0.15435 0.90171 0.16555 0.0
C1007 C 0.16678 0.88997 0.17623 0.0
C1008 C 0.14222 0.91555 0.17411 0.0
C1009 C 0.16698 0.89239 0.19535 0.0
C1010 C 0.14284 0.91751 0.19327 0.0
N1011 N 0.15511 0.906 0.2034 0.0
C1012 C 0.18637 0.85538 0.13432 0.0
C1013 C 0.16307 0.85317 0.11009 0.0
C1014 C 0.1893 0.83506 0.1339 0.0
N1015 N 0.17326 0.86388 0.12266 0.0
C1016 C 0.1657 0.83288 0.10904 0.0
C1017 C 0.17878 0.82357 0.12119 0.0
H1018 H 0.19441 0.86437 0.14403 0.0
H1019 H 0.1527 0.86036 0.10103 0.0
C1020 C 0.10454 0.93653 0.12724 0.0
N1021 N 0.1138 0.9194 0.13139 0.0
C1022 C 0.08413 0.93797 0.12895 0.0
C1023 C 0.0834 0.90426 0.13954 0.0
C1024 C 0.10377 0.90347 0.1376 0.0
C1025 C 0.07328 0.9216 0.13497 0.0
H1026 H 0.11296 0.94889 0.12221 0.0
H1027 H 0.11163 0.89008 0.14083 0.0
O1028 O 0.19066 0.90914 0.12277 0.0
O1029 O 0.15698 0.94078 0.12683 0.0
O1030 O 0.14911 0.90151 0.10574 0.0
O1031 O 0.15446 0.9001 0.14677 0.0
H1032 H 0.22487 0.92636 0.12891 0.0
H1033 H 0.19561 0.88151 0.09731 0.0
H1034 H 0.25608 0.91778 0.11314 0.0
H1035 H 0.22726 0.87374 0.08211 0.0
H1036 H 0.15553 0.00749 0.1288 0.0
H1037 H 0.19522 0.94721 0.12227 0.0
H1038 H 0.13899 0.97499 0.13002 0.0
H1039 H 0.21076 0.98009 0.1212 0.0
H1040 H 0.21232 0.94546 0.05578 0.0
H1041 H 0.152 0.96522 0.05665 0.0
H1042 H 0.22742 0.92011 0.1856 0.0
H1043 H 0.18569 0.96738 0.19363 0.0
H1044 H 0.11631 0.91747 0.09297 0.0
H1045 H 0.16995 0.8883 0.07742 0.0
H1046 H 0.10752 0.92014 0.05991 0.0
H1047 H 0.16028 0.89155 0.04464 0.0
H1048 H 0.17633 0.87927 0.1698 0.0
H1049 H 0.13266 0.92489 0.16603 0.0
H1050 H 0.17662 0.8835 0.20378 0.0
H1051 H 0.13362 0.92825 0.20008 0.0
H1052 H 0.19963 0.82841 0.14339 0.0
H1053 H 0.15716 0.82449 0.09919 0.0
H1054 H 0.0769 0.95153 0.12507 0.0
H1055 H 0.07565 0.8914 0.14448 0.0
Li1056 Li 0.83039 0.60524 0.12661 0.0
Li1057 Li 0.85725 0.57879 0.13077 0.0
Li1058 Li 0.82788 0.57337 0.11183 0.0
Li1059 Li 0.82473 0.57447 0.14369 0.0
C1060 C 0.84882 0.59504 0.08942 0.0
N1061 N 0.84792 0.59662 0.05138 0.0
C1062 C 0.86076 0.58253 0.07903 0.0
C1063 C 0.83646 0.60841 0.08048 0.0
C1064 C 0.86006 0.58352 0.05981 0.0
C1065 C 0.83623 0.60899 0.06123 0.0
C1066 C 0.84153 0.59705 0.168 0.0
C1067 C 0.84851 0.58571 0.19879 0.0
N1068 N 0.83488 0.59845 0.20552 0.0
C1069 C 0.82765 0.6101 0.17521 0.0
C1070 C 0.85209 0.58478 0.17985 0.0
C1071 C 0.82448 0.61057 0.19423 0.0
C1072 C 0.80954 0.64105 0.13118 0.0
N1073 N 0.82646 0.6326 0.12517 0.0
C1074 C 0.83973 0.66386 0.11699 0.0
C1075 C 0.84145 0.64349 0.11821 0.0
C1076 C 0.82245 0.67309 0.12312 0.0
C1077 C 0.80721 0.66143 0.1303 0.0
H1078 H 0.79792 0.63195 0.13673 0.0
H1079 H 0.85479 0.63631 0.11369 0.0
C1080 C 0.89448 0.56363 0.1213 0.0
N1081 N 0.88467 0.57551 0.13321 0.0
C1082 C 0.91495 0.56236 0.12204 0.0
C1083 C 0.91465 0.58484 0.14786 0.0
C1084 C 0.89424 0.58594 0.14639 0.0
C1085 C 0.92537 0.57323 0.13535 0.0
H1086 H 0.88641 0.55546 0.111 0.0
H1087 H 0.88605 0.59537 0.1556 0.0
C1088 C 0.78997 0.58435 0.11759 0.0
N1089 N 0.7543 0.57714 0.10073 0.0
C1090 C 0.78104 0.56595 0.1193 0.0
C1091 C 0.78065 0.59918 0.10752 0.0
C1092 C 0.76304 0.56256 0.1106 0.0
C1093 C 0.76264 0.59522 0.09904 0.0
C1094 C 0.84079 0.53774 0.13802 0.0
C1095 C 0.82484 0.52497 0.13616 0.0
C1096 C 0.85711 0.53203 0.14844 0.0
C1097 C 0.8253 0.50679 0.1451 0.0
C1098 C 0.85701 0.51371 0.15713 0.0
N1099 N 0.84123 0.50159 0.15532 0.0
C1100 C 0.82784 0.54206 0.08726 0.0
C1101 C 0.80744 0.56822 0.07733 0.0
C1102 C 0.82352 0.53136 0.07142 0.0
N1103 N 0.81978 0.5601 0.08996 0.0
C1104 C 0.80257 0.55795 0.06131 0.0
C1105 C 0.81071 0.53927 0.05816 0.0
H1106 H 0.83801 0.53613 0.09726 0.0
H1107 H 0.80166 0.5828 0.07946 0.0
C1108 C 0.79265 0.57393 0.16727 0.0
N1109 N 0.81027 0.56502 0.16449 0.0
C1110 C 0.78121 0.56916 0.18254 0.0
C1111 C 0.80613 0.5459 0.19187 0.0
C1112 C 0.81721 0.55131 0.17649 0.0
C1113 C 0.7879 0.55497 0.19513 0.0
H1114 H 0.7877 0.58522 0.15787 0.0
H1115 H 0.83155 0.54494 0.17452 0.0
O1116 O 0.84886 0.59392 0.10824 0.0
O1117 O 0.84436 0.59593 0.14938 0.0
O1118 O 0.80755 0.58798 0.12603 0.0
O1119 O 0.84075 0.55547 0.12917 0.0
H1120 H 0.87029 0.57201 0.08573 0.0
H1121 H 0.82691 0.61801 0.08829 0.0
H1122 H 0.86913 0.57384 0.05159 0.0
H1123 H 0.82667 0.61918 0.05413 0.0
H1124 H 0.85647 0.5762 0.20812 0.0
H1125 H 0.81927 0.6196 0.16619 0.0
H1126 H 0.86268 0.57439 0.17445 0.0
H1127 H 0.81371 0.6205 0.20001 0.0
H1128 H 0.85195 0.67232 0.11166 0.0
H1129 H 0.79361 0.66798 0.13507 0.0
H1130 H 0.92249 0.55342 0.11194 0.0
H1131 H 0.9219 0.59317 0.15859 0.0
H1132 H 0.78795 0.55443 0.12727 0.0
H1133 H 0.78737 0.61351 0.1061 0.0
H1134 H 0.756 0.54836 0.11173 0.0
H1135 H 0.75532 0.6065 0.0911 0.0
H1136 H 0.81226 0.52902 0.12787 0.0
H1137 H 0.86963 0.54169 0.14994 0.0
H1138 H 0.81301 0.49679 0.14386 0.0
H1139 H 0.86948 0.50914 0.16535 0.0
H1140 H 0.83059 0.51727 0.06938 0.0
H1141 H 0.79261 0.56463 0.0515 0.0
H1142 H 0.76756 0.57701 0.18472 0.0
H1143 H 0.8119 0.53487 0.20116 0.0
Li1144 Li 0.13503 0.07948 0.86577 0.0
Li1145 Li 0.16025 0.10457 0.87172 0.0
Li1146 Li 0.16738 0.07403 0.85342 0.0
Li1147 Li 0.16377 0.0721 0.88655 0.0
C1148 C 0.13525 0.10299 0.83575 0.0
N1149 N 0.1064 0.11681 0.81224 0.0
C1150 C 0.12964 0.12275 0.83628 0.0
C1151 C 0.1264 0.09035 0.82303 0.0
C1152 C 0.11498 0.12944 0.82434 0.0
C1153 C 0.11178 0.09758 0.81133 0.0
C1154 C 0.13687 0.10308 0.90437 0.0
C1155 C 0.14471 0.11947 0.93293 0.0
N1156 N 0.12588 0.12609 0.93405 0.0
C1157 C 0.11753 0.10982 0.90595 0.0
C1158 C 0.15051 0.10776 0.91809 0.0
C1159 C 0.11229 0.12152 0.92099 0.0
C1160 C 0.09981 0.05764 0.86198 0.0
N1161 N 0.10758 0.07604 0.8623 0.0
C1162 C 0.07583 0.09033 0.8582 0.0
C1163 C 0.09606 0.09225 0.8606 0.0
C1164 C 0.06735 0.07154 0.85784 0.0
C1165 C 0.07957 0.05503 0.85979 0.0
H1166 H 0.10928 0.045 0.86362 0.0
H1167 H 0.10255 0.10671 0.86136 0.0
C1168 C 0.18212 0.13951 0.86771 0.0
N1169 N 0.16479 0.13205 0.87387 0.0
C1170 C 0.18569 0.15971 0.86857 0.0
C1171 C 0.15345 0.16413 0.88196 0.0
C1172 C 0.15048 0.14391 0.88074 0.0
C1173 C 0.17123 0.17227 0.8758 0.0
H1174 H 0.19313 0.12976 0.86204 0.0
H1175 H 0.13652 0.13779 0.8848 0.0
C1176 C 0.1542 0.03788 0.85839 0.0
N1177 N 0.1612 0.00343 0.83931 0.0
C1178 C 0.16699 0.02376 0.86559 0.0
C1179 C 0.14472 0.03433 0.84163 0.0
C1180 C 0.1704 0.00647 0.85571 0.0
C1181 C 0.14853 0.01687 0.83215 0.0
C1182 C 0.20067 0.08962 0.88258 0.0
C1183 C 0.21721 0.07802 0.879 0.0
C1184 C 0.20165 0.10409 0.89623 0.0
C1185 C 0.23423 0.08072 0.88946 0.0
C1186 C 0.21895 0.10636 0.90638 0.0
N1187 N 0.23474 0.0947 0.90284 0.0
C1188 C 0.17816 0.07153 0.81612 0.0
C1189 C 0.19638 0.05067 0.83596 0.0
C1190 C 0.18956 0.06578 0.80109 0.0
N1191 N 0.18188 0.0641 0.83314 0.0
C1192 C 0.20827 0.04464 0.82134 0.0
C1193 C 0.20507 0.05245 0.80369 0.0
H1194 H 0.16676 0.08239 0.8143 0.0
H1195 H 0.19899 0.04498 0.84964 0.0
C1196 C 0.15954 0.05903 0.92302 0.0
N1197 N 0.17176 0.05866 0.90821 0.0
C1198 C 0.16443 0.04884 0.93903 0.0
C1199 C 0.194 0.03731 0.92402 0.0
C1200 C 0.18873 0.04808 0.9084 0.0
C1201 C 0.18176 0.03771 0.93956 0.0
H1202 H 0.14578 0.0669 0.9223 0.0
H1203 H 0.19788 0.04752 0.89625 0.0
O1204 O 0.14946 0.09614 0.84748 0.0
O1205 O 0.14225 0.09169 0.88962 0.0
O1206 O 0.15089 0.05504 0.86775 0.0
O1207 O 0.18387 0.08717 0.87242 0.0
H1208 H 0.13646 0.13283 0.84584 0.0
H1209 H 0.1307 0.0751 0.82223 0.0
H1210 H 0.11042 0.14467 0.82469 0.0
H1211 H 0.10471 0.08791 0.80153 0.0
H1212 H 0.15515 0.12321 0.94362 0.0
H1213 H 0.10667 0.10614 0.89565 0.0
H1214 H 0.16532 0.10211 0.91749 0.0
H1215 H 0.0974 0.12694 0.9223 0.0
H1216 H 0.06687 0.10344 0.85712 0.0
H1217 H 0.07356 0.04029 0.85958 0.0
H1218 H 0.1996 0.16543 0.86368 0.0
H1219 H 0.14173 0.17335 0.88719 0.0
H1220 H 0.17429 0.02614 0.87862 0.0
H1221 H 0.13455 0.04492 0.836 0.0
H1222 H 0.18037 0.99548 0.86107 0.0
H1223 H 0.14138 0.01399 0.8191 0.0
H1224 H 0.21689 0.06696 0.86832 0.0
H1225 H 0.18931 0.11365 0.89883 0.0
H1226 H 0.24706 0.07171 0.88692 0.0
H1227 H 0.21984 0.11747 0.91702 0.0
H1228 H 0.18683 0.0724 0.78776 0.0
H1229 H 0.22005 0.03427 0.82386 0.0
H1230 H 0.15444 0.04909 0.95065 0.0
H1231 H 0.20738 0.02868 0.92393 0.0
Li1232 Li 0.66976 0.41993 0.60188 0.0
Li1233 Li 0.67189 0.41606 0.63399 0.0
Li1234 Li 0.6647 0.38754 0.61525 0.0
Li1235 Li 0.63969 0.41526 0.62001 0.0
C1236 C 0.70748 0.41073 0.61486 0.0
N1237 N 0.74516 0.42582 0.61429 0.0
C1238 C 0.7106 0.43081 0.61758 0.0
C1239 C 0.72351 0.39829 0.61191 0.0
C1240 C 0.72975 0.43817 0.61723 0.0
C1241 C 0.74246 0.40621 0.61164 0.0
C1242 C 0.65567 0.45529 0.62811 0.0
C1243 C 0.63837 0.47725 0.64857 0.0
N1244 N 0.6505 0.49215 0.6434 0.0
C1245 C 0.66781 0.47089 0.62282 0.0
C1246 C 0.64068 0.45855 0.64094 0.0
C1247 C 0.66502 0.48938 0.63078 0.0
C1248 C 0.66791 0.44965 0.5762 0.0
N1249 N 0.67913 0.43405 0.58122 0.0
C1250 C 0.70226 0.441 0.55733 0.0
C1251 C 0.69592 0.42937 0.57205 0.0
C1252 C 0.69111 0.45746 0.55202 0.0
C1253 C 0.67359 0.46155 0.56156 0.0
H1254 H 0.65449 0.45281 0.58364 0.0
H1255 H 0.70442 0.4167 0.57619 0.0
C1256 C 0.69874 0.40805 0.66124 0.0
N1257 N 0.6868 0.42276 0.65535 0.0
C1258 C 0.71068 0.41068 0.6766 0.0
C1259 C 0.69828 0.44383 0.67939 0.0
C1260 C 0.68635 0.44045 0.66405 0.0
C1261 C 0.71067 0.42881 0.68587 0.0
H1262 H 0.69887 0.39416 0.65398 0.0
H1263 H 0.67689 0.45202 0.65916 0.0
C1264 C 0.64889 0.40045 0.57806 0.0
N1265 N 0.65249 0.40033 0.54014 0.0
C1266 C 0.63581 0.41129 0.56723 0.0
C1267 C 0.66376 0.38948 0.56962 0.0
C1268 C 0.63789 0.41105 0.54808 0.0
C1269 C 0.66534 0.38962 0.55042 0.0
C1270 C 0.65217 0.39303 0.65665 0.0
C1271 C 0.66086 0.37585 0.66337 0.0
C1272 C 0.64526 0.40718 0.66904 0.0
C1273 C 0.66283 0.37328 0.68239 0.0
C1274 C 0.64753 0.40408 0.68795 0.0
N1275 N 0.65621 0.38734 0.69418 0.0
C1276 C 0.68274 0.3509 0.62098 0.0
C1277 C 0.65399 0.35008 0.60253 0.0
C1278 C 0.68428 0.33045 0.62026 0.0
N1279 N 0.66758 0.36016 0.61244 0.0
C1280 C 0.6551 0.32966 0.60122 0.0
C1281 C 0.6702 0.3195 0.61045 0.0
H1282 H 0.6933 0.35938 0.6288 0.0
H1283 H 0.64213 0.35791 0.59583 0.0
C1284 C 0.60427 0.43341 0.60962 0.0
N1285 N 0.61267 0.42107 0.62206 0.0
C1286 C 0.5841 0.43713 0.6103 0.0
C1287 C 0.58186 0.41607 0.63708 0.0
C1288 C 0.602 0.4125 0.63571 0.0
C1289 C 0.57267 0.42831 0.62412 0.0
H1290 H 0.61323 0.44019 0.59909 0.0
H1291 H 0.6091 0.4027 0.64536 0.0
O1292 O 0.68887 0.40313 0.61522 0.0
O1293 O 0.65807 0.43714 0.6203 0.0
O1294 O 0.64757 0.401 0.59686 0.0
O1295 O 0.65054 0.39603 0.63806 0.0
H1296 H 0.69837 0.44057 0.62002 0.0
H1297 H 0.72132 0.38269 0.60982 0.0
H1298 H 0.73237 0.45369 0.61933 0.0
H1299 H 0.75502 0.39677 0.60935 0.0
H1300 H 0.62689 0.47994 0.65858 0.0
H1301 H 0.67923 0.46879 0.61264 0.0
H1302 H 0.6309 0.44681 0.64495 0.0
H1303 H 0.67437 0.50155 0.62688 0.0
H1304 H 0.71586 0.43732 0.5504 0.0
H1305 H 0.66423 0.47373 0.55765 0.0
H1306 H 0.71964 0.3985 0.68127 0.0
H1307 H 0.69794 0.45812 0.68595 0.0
H1308 H 0.62427 0.41989 0.57355 0.0
H1309 H 0.67414 0.3812 0.57783 0.0
H1310 H 0.62793 0.41944 0.53952 0.0
H1311 H 0.67684 0.3813 0.54371 0.0
H1312 H 0.66613 0.36468 0.65403 0.0
H1313 H 0.63843 0.4205 0.66411 0.0
H1314 H 0.66965 0.36011 0.68777 0.0
H1315 H 0.64241 0.41499 0.69767 0.0
H1316 H 0.69601 0.32332 0.62781 0.0
H1317 H 0.64416 0.32193 0.59318 0.0
H1318 H 0.5775 0.44678 0.60016 0.0
H1319 H 0.57346 0.40887 0.64782 0.0
Li1320 Li 0.32381 0.92126 0.35533 0.0
Li1321 Li 0.32865 0.92226 0.38838 0.0
Li1322 Li 0.35618 0.91639 0.36747 0.0
Li1323 Li 0.33088 0.89144 0.37264 0.0
C1324 C 0.33407 0.95729 0.36195 0.0
N1325 N 0.32058 0.99126 0.34537 0.0
C1326 C 0.31872 0.96796 0.36994 0.0
C1327 C 0.34263 0.96392 0.34558 0.0
C1328 C 0.31211 0.9851 0.36134 0.0
C1329 C 0.33557 0.98111 0.33739 0.0
C1330 C 0.29277 0.89548 0.37545 0.0
C1331 C 0.27445 0.87056 0.3917 0.0
N1332 N 0.26381 0.86702 0.37618 0.0
C1333 C 0.28164 0.89162 0.35967 0.0
C1334 C 0.28913 0.88492 0.39162 0.0
C1335 C 0.26705 0.87718 0.36032 0.0
C1336 C 0.31596 0.93112 0.31828 0.0
N1337 N 0.30895 0.93213 0.33577 0.0
C1338 C 0.2795 0.94769 0.32537 0.0
C1339 C 0.29123 0.94041 0.3396 0.0
C1340 C 0.28624 0.94654 0.30712 0.0
C1341 C 0.30484 0.93839 0.30366 0.0
H1342 H 0.33001 0.92433 0.31562 0.0
H1343 H 0.28607 0.94099 0.35369 0.0
C1344 C 0.3357 0.94865 0.41629 0.0
N1345 N 0.32211 0.93546 0.41042 0.0
C1346 C 0.33309 0.95847 0.43291 0.0
C1347 C 0.30203 0.94164 0.4368 0.0
C1348 C 0.30536 0.93194 0.42009 0.0
C1349 C 0.31619 0.95487 0.44347 0.0
H1350 H 0.34874 0.95128 0.40813 0.0
H1351 H 0.29472 0.92151 0.41495 0.0
C1352 C 0.35735 0.8937 0.33803 0.0
N1353 N 0.38892 0.88113 0.31715 0.0
C1354 C 0.36342 0.87408 0.3388 0.0
C1355 C 0.36729 0.9069 0.32657 0.0
C1356 C 0.37941 0.86802 0.32814 0.0
C1357 C 0.38324 0.90026 0.31615 0.0
C1358 C 0.35517 0.90418 0.40837 0.0
C1359 C 0.37211 0.91474 0.41293 0.0
C1360 C 0.34342 0.8964 0.42239 0.0
C1361 C 0.37692 0.91748 0.43148 0.0
C1362 C 0.3487 0.8995 0.44077 0.0
N1363 N 0.3652 0.9099 0.44489 0.0
C1364 C 0.39109 0.93867 0.36302 0.0
C1365 C 0.39544 0.90415 0.36527 0.0
C1366 C 0.4114 0.94148 0.36209 0.0
N1367 N 0.38359 0.92022 0.36454 0.0
C1368 C 0.41577 0.90625 0.36406 0.0
C1369 C 0.42396 0.92511 0.36261 0.0
H1370 H 0.38132 0.9512 0.3629 0.0
H1371 H 0.38907 0.88973 0.36706 0.0
C1372 C 0.31654 0.85419 0.36112 0.0
N1373 N 0.32686 0.8639 0.37434 0.0
C1374 C 0.31474 0.83376 0.36183 0.0
C1375 C 0.33442 0.83377 0.3896 0.0
C1376 C 0.33569 0.85417 0.38843 0.0
C1377 C 0.32399 0.8233 0.37609 0.0
H1378 H 0.31012 0.86227 0.34979 0.0
H1379 H 0.34412 0.86219 0.39854 0.0
O1380 O 0.3404 0.9402 0.36989 0.0
O1381 O 0.30727 0.90939 0.37504 0.0
O1382 O 0.34183 0.89997 0.3485 0.0
O1383 O 0.34992 0.90178 0.39031 0.0
H1384 H 0.31184 0.96294 0.38253 0.0
H1385 H 0.35441 0.95574 0.33914 0.0
H1386 H 0.30018 0.99346 0.36732 0.0
H1387 H 0.34196 0.98636 0.32465 0.0
H1388 H 0.27156 0.8622 0.40408 0.0
H1389 H 0.28436 0.8995 0.34699 0.0
H1390 H 0.29771 0.8876 0.40391 0.0
H1391 H 0.25838 0.87398 0.34819 0.0
H1392 H 0.26525 0.95392 0.32856 0.0
H1393 H 0.3104 0.93694 0.28974 0.0
H1394 H 0.34416 0.96885 0.43743 0.0
H1395 H 0.2888 0.93855 0.44458 0.0
H1396 H 0.35598 0.86366 0.34761 0.0
H1397 H 0.363 0.92219 0.326 0.0
H1398 H 0.3843 0.8529 0.32864 0.0
H1399 H 0.39116 0.91036 0.30735 0.0
H1400 H 0.38134 0.92096 0.4023 0.0
H1401 H 0.33019 0.88829 0.41912 0.0
H1402 H 0.38993 0.92571 0.4352 0.0
H1403 H 0.33965 0.8937 0.45175 0.0
H1404 H 0.41723 0.95624 0.36103 0.0
H1405 H 0.42503 0.89332 0.36484 0.0
H1406 H 0.30682 0.82617 0.35102 0.0
H1407 H 0.34167 0.82624 0.40086 0.0
H1408 H 0.18352 0.79953 0.09139 0.0
H1409 H 0.17814 0.79879 0.15069 0.0
H1410 H 0.18399 0.76358 0.09102 0.0
H1411 H 0.17874 0.76286 0.15033 0.0
H1412 H 0.15237 0.70142 0.13743 0.0
H1413 H 0.15486 0.73721 0.13838 0.0
H1414 H 0.20507 0.73486 0.10203 0.0
H1415 H 0.20251 0.69896 0.101 0.0
C1416 C 0.18257 0.79166 0.10433 0.0
C1417 C 0.18073 0.8019 0.12106 0.0
C1418 C 0.18298 0.77113 0.10414 0.0
C1419 C 0.18131 0.76049 0.12064 0.0
C1420 C 0.17988 0.77074 0.1374 0.0
C1421 C 0.17971 0.79126 0.13762 0.0
C1422 C 0.16388 0.70856 0.1296 0.0
C1423 C 0.1772 0.69746 0.11908 0.0
C1424 C 0.16543 0.729 0.13028 0.0
C1425 C 0.18019 0.73876 0.12032 0.0
C1426 C 0.1935 0.72768 0.10978 0.0
C1427 C 0.19211 0.70719 0.10927 0.0
H1428 H 0.45059 0.9059 0.34111 0.0
H1429 H 0.44588 0.94973 0.38392 0.0
H1430 H 0.48646 0.90838 0.34233 0.0
H1431 H 0.48177 0.95216 0.38519 0.0
H1432 H 0.5447 0.92669 0.39755 0.0
H1433 H 0.50882 0.92765 0.39511 0.0
H1434 H 0.51355 0.93412 0.33607 0.0
H1435 H 0.54945 0.93323 0.33853 0.0
C1436 C 0.45726 0.91613 0.35069 0.0
C1437 C 0.44554 0.92762 0.36243 0.0
C1438 C 0.47772 0.91764 0.35131 0.0
C1439 C 0.48682 0.93044 0.36388 0.0
C1440 C 0.47509 0.94212 0.37545 0.0
C1441 C 0.45461 0.94083 0.37463 0.0
C1442 C 0.53803 0.92841 0.38409 0.0
C1443 C 0.54976 0.92989 0.36823 0.0
C1444 C 0.51757 0.92909 0.3827 0.0
C1445 C 0.50849 0.93097 0.3654 0.0
C1446 C 0.52023 0.9326 0.34956 0.0
C1447 C 0.5407 0.93221 0.35097 0.0
H1448 H 0.33497 0.29964 0.57968 0.0
H1449 H 0.31857 0.30047 0.63718 0.0
H1450 H 0.33253 0.26372 0.57959 0.0
H1451 H 0.31643 0.26471 0.63716 0.0
H1452 H 0.29779 0.20162 0.62668 0.0
H1453 H 0.29659 0.2374 0.62369 0.0
H1454 H 0.35181 0.23642 0.59431 0.0
H1455 H 0.35285 0.20065 0.59707 0.0
C1456 C 0.33069 0.29215 0.59223 0.0
C1457 C 0.3271 0.3028 0.60847 0.0
C1458 C 0.32943 0.27163 0.59221 0.0
C1459 C 0.32432 0.26144 0.60838 0.0
C1460 C 0.32022 0.27216 0.62446 0.0
C1461 C 0.32165 0.29261 0.62452 0.0
C1462 C 0.30951 0.20905 0.61937 0.0
C1463 C 0.32547 0.19841 0.6122 0.0
C1464 C 0.3089 0.2295 0.61777 0.0
C1465 C 0.32414 0.23967 0.60882 0.0
C1466 C 0.33979 0.22896 0.60116 0.0
C1467 C 0.34048 0.20853 0.6029 0.0
H1468 H 0.0433 0.04791 0.8782 0.0
H1469 H 0.04273 0.09041 0.83399 0.0
H1470 H 0.00742 0.04631 0.87722 0.0
H1471 H 0.00685 0.08902 0.83319 0.0
H1472 H 0.94293 0.06825 0.82719 0.0
H1473 H 0.97876 0.06608 0.82616 0.0
H1474 H 0.98098 0.07045 0.88548 0.0
H1475 H 0.94535 0.07312 0.88657 0.0
C1476 C 0.03551 0.0567 0.86811 0.0
C1477 C 0.04576 0.06935 0.85622 0.0
C1478 C 0.015 0.05591 0.86766 0.0
C1479 C 0.00437 0.06761 0.8552 0.0
C1480 C 0.01467 0.07974 0.84286 0.0
C1481 C 0.03517 0.08066 0.84342 0.0
C1482 C 0.95106 0.06886 0.84001 0.0
C1483 C 0.94122 0.07086 0.85696 0.0
C1484 C 0.97155 0.06754 0.8394 0.0
C1485 C 0.98261 0.06802 0.85574 0.0
C1486 C 0.9728 0.06971 0.87269 0.0
C1487 C 0.95236 0.07119 0.87329 0.0
H1488 H 0.16388 0.29477 0.8477 0.0
H1489 H 0.18753 0.29646 0.90293 0.0
H1490 H 0.16517 0.25895 0.84815 0.0
H1491 H 0.18922 0.26056 0.90323 0.0
H1492 H 0.16256 0.19752 0.90389 0.0
H1493 H 0.16491 0.23331 0.90377 0.0
H1494 H 0.18919 0.23149 0.84878 0.0
H1495 H 0.18644 0.1957 0.84875 0.0
C1496 C 0.16941 0.28747 0.85991 0.0
C1497 C 0.17551 0.29839 0.87532 0.0
C1498 C 0.17035 0.26698 0.8601 0.0
C1499 C 0.17731 0.25697 0.87573 0.0
C1500 C 0.18366 0.26789 0.89105 0.0
C1501 C 0.18284 0.28841 0.89082 0.0
C1502 C 0.16844 0.20478 0.89181 0.0
C1503 C 0.17422 0.19383 0.8763 0.0
C1504 C 0.16996 0.22524 0.8918 0.0
C1505 C 0.17718 0.23519 0.87624 0.0
C1506 C 0.1834 0.22422 0.8609 0.0
C1507 C 0.182 0.20373 0.86095 0.0
H1508 H 0.94876 0.9383 0.16115 0.0
H1509 H 0.95036 0.91161 0.10712 0.0
H1510 H 0.98471 0.93767 0.16226 0.0
H1511 H 0.98607 0.91162 0.10797 0.0
H1512 H 0.04972 0.95156 0.14738 0.0
H1513 H 0.01379 0.95287 0.1473 0.0
H1514 H 0.01183 0.8942 0.1246 0.0
H1515 H 0.04755 0.89315 0.12407 0.0
C1516 C 0.95677 0.93236 0.14951 0.0
C1517 C 0.94672 0.92504 0.13404 0.0
C1518 C 0.97734 0.93217 0.15008 0.0
C1519 C 0.98821 0.92452 0.13523 0.0
C1520 C 0.97812 0.91738 0.11973 0.0
C1521 C 0.95764 0.91761 0.11915 0.0
C1522 C 0.04159 0.939 0.14229 0.0
C1523 C 0.05149 0.92226 0.13571 0.0
C1524 C 0.02103 0.93967 0.14242 0.0
C1525 C 0.00999 0.92367 0.13587 0.0
C1526 C 0.01991 0.90687 0.12952 0.0
C1527 C 0.0404 0.90618 0.12942 0.0
H1528 H 0.30425 0.69876 0.355 0.0
H1529 H 0.34555 0.70023 0.40015 0.0
H1530 H 0.3029 0.73463 0.35501 0.0
H1531 H 0.34387 0.73599 0.40056 0.0
H1532 H 0.35484 0.79863 0.38182 0.0
H1533 H 0.35468 0.7629 0.38229 0.0
H1534 H 0.2921 0.76303 0.37186 0.0
H1535 H 0.29244 0.79896 0.37096 0.0
C1536 C 0.31282 0.70678 0.36509 0.0
C1537 C 0.32512 0.69677 0.37748 0.0
C1538 C 0.31202 0.72731 0.36514 0.0
C1539 C 0.32338 0.73822 0.3777 0.0
C1540 C 0.33526 0.72809 0.39042 0.0
C1541 C 0.33619 0.70761 0.39024 0.0
C1542 C 0.34102 0.79102 0.37977 0.0
C1543 C 0.32363 0.80155 0.37647 0.0
C1544 C 0.3409 0.77053 0.38009 0.0
C1545 C 0.32334 0.76006 0.37726 0.0
C1546 C 0.30592 0.77062 0.37389 0.0
C1547 C 0.30608 0.79117 0.37342 0.0
H1548 H 0.54981 0.04172 0.63406 0.0
H1549 H 0.54711 0.1019 0.61516 0.0
H1550 H 0.51397 0.04102 0.63638 0.0
H1551 H 0.51145 0.10123 0.61767 0.0
H1552 H 0.45078 0.10042 0.64339 0.0
H1553 H 0.48655 0.09952 0.64227 0.0
H1554 H 0.4843 0.04244 0.61629 0.0
H1555 H 0.4484 0.04309 0.61787 0.0
C1556 C 0.54158 0.05473 0.63027 0.0
C1557 C 0.55133 0.07191 0.62455 0.0
C1558 C 0.52108 0.05434 0.63163 0.0
C1559 C 0.50993 0.07112 0.62736 0.0
C1560 C 0.51967 0.08819 0.62142 0.0
C1561 C 0.54011 0.08857 0.62 0.0
C1562 C 0.4579 0.08753 0.63771 0.0
C1563 C 0.44677 0.07182 0.63072 0.0
C1564 C 0.47838 0.08712 0.63687 0.0
C1565 C 0.48821 0.07098 0.62906 0.0
C1566 C 0.47712 0.05504 0.62247 0.0
C1567 C 0.45659 0.05548 0.62323 0.0
H1568 H 0.81291 0.20274 0.84622 0.0
H1569 H 0.83146 0.20015 0.90313 0.0
H1570 H 0.81327 0.23852 0.84755 0.0
H1571 H 0.83166 0.236 0.90448 0.0
H1572 H 0.81202 0.30085 0.90385 0.0
H1573 H 0.80953 0.26499 0.9031 0.0
H1574 H 0.83846 0.26429 0.85011 0.0
H1575 H 0.84047 0.30002 0.85062 0.0
C1576 C 0.81713 0.20981 0.859 0.0
C1577 C 0.82229 0.19859 0.87453 0.0
C1578 C 0.81731 0.2303 0.85976 0.0
C1579 C 0.8226 0.24007 0.87608 0.0
C1580 C 0.82731 0.22889 0.89176 0.0
C1581 C 0.82718 0.20836 0.89099 0.0
C1582 C 0.81769 0.29301 0.89199 0.0
C1583 C 0.82648 0.30324 0.87731 0.0
C1584 C 0.81642 0.2725 0.89164 0.0
C1585 C 0.82377 0.26184 0.87654 0.0
C1586 C 0.83246 0.2721 0.86184 0.0
C1587 C 0.83382 0.29255 0.86223 0.0
H1588 H 0.70359 0.70124 0.38484 0.0
H1589 H 0.64057 0.70297 0.37772 0.0
H1590 H 0.70465 0.73723 0.38366 0.0
H1591 H 0.64161 0.73877 0.37679 0.0
H1592 H 0.69242 0.80236 0.40131 0.0
H1593 H 0.69275 0.76638 0.40265 0.0
H1594 H 0.65474 0.76411 0.35503 0.0
H1595 H 0.65418 0.79992 0.35384 0.0
C1596 C 0.69 0.70932 0.38304 0.0
C1597 C 0.672 0.69934 0.38141 0.0
C1598 C 0.69059 0.72987 0.3825 0.0
C1599 C 0.67322 0.74075 0.38008 0.0
C1600 C 0.65525 0.73074 0.37849 0.0
C1601 C 0.65463 0.71027 0.37921 0.0
C1602 C 0.68414 0.79413 0.39117 0.0
C1603 C 0.67328 0.80391 0.37748 0.0
C1604 C 0.68445 0.77358 0.39184 0.0
C1605 C 0.67371 0.76249 0.37898 0.0
C1606 C 0.663 0.7723 0.36522 0.0
C1607 C 0.66284 0.79278 0.36444 0.0
H1608 H 0.83329 0.69758 0.09507 0.0
H1609 H 0.80772 0.69766 0.14958 0.0
H1610 H 0.83273 0.7334 0.09477 0.0
H1611 H 0.80659 0.73353 0.14904 0.0
H1612 H 0.8331 0.796 0.15024 0.0
H1613 H 0.83078 0.76025 0.15024 0.0
H1614 H 0.81026 0.76156 0.0939 0.0
H1615 H 0.8132 0.79732 0.09371 0.0
C1616 C 0.82744 0.70526 0.10695 0.0
C1617 C 0.82067 0.69481 0.1224 0.0
C1618 C 0.82693 0.72577 0.10669 0.0
C1619 C 0.81966 0.73629 0.12191 0.0
C1620 C 0.81247 0.72583 0.13719 0.0
C1621 C 0.81293 0.7053 0.13742 0.0
C1622 C 0.82819 0.78864 0.13783 0.0
C1623 C 0.82344 0.79947 0.12194 0.0
C1624 C 0.82663 0.76819 0.1379 0.0
C1625 C 0.82032 0.75808 0.12207 0.0
C1626 C 0.81533 0.76892 0.10626 0.0
C1627 C 0.81683 0.7894 0.1062 0.0
H1628 H 0.63907 0.29402 0.61152 0.0
H1629 H 0.70258 0.2953 0.60961 0.0
H1630 H 0.63978 0.25841 0.61187 0.0
H1631 H 0.70332 0.25959 0.61136 0.0
H1632 H 0.69677 0.19457 0.59601 0.0
H1633 H 0.69682 0.23043 0.5945 0.0
H1634 H 0.64719 0.2321 0.63173 0.0
H1635 H 0.6468 0.19633 0.63261 0.0
C1636 C 0.65321 0.28674 0.61111 0.0
C1637 C 0.67077 0.29763 0.61047 0.0
C1638 C 0.65363 0.26625 0.61164 0.0
C1639 C 0.67161 0.25605 0.61182 0.0
C1640 C 0.68919 0.26691 0.61107 0.0
C1641 C 0.68877 0.28744 0.61033 0.0
C1642 C 0.68596 0.20268 0.60391 0.0
C1643 C 0.6717 0.19274 0.61432 0.0
C1644 C 0.68601 0.22322 0.60311 0.0
C1645 C 0.67193 0.23421 0.61291 0.0
C1646 C 0.65795 0.22415 0.62365 0.0
C1647 C 0.65776 0.20366 0.62425 0.0
H1648 H 0.04891 0.43687 0.89217 0.0
H1649 H 0.05079 0.41722 0.83549 0.0
H1650 H 0.01322 0.43943 0.89028 0.0
H1651 H 0.01503 0.41912 0.83396 0.0
H1652 H 0.95189 0.39874 0.85088 0.0
H1653 H 0.98761 0.39986 0.85034 0.0
H1654 H 0.98635 0.45865 0.87261 0.0
H1655 H 0.95045 0.45799 0.8725 0.0
C1656 C 0.0418 0.43335 0.87923 0.0
C1657 C 0.05279 0.42672 0.86401 0.0
C1658 C 0.02134 0.43477 0.8782 0.0
C1659 C 0.01142 0.42938 0.86201 0.0
C1660 C 0.02235 0.42313 0.84668 0.0
C1661 C 0.04281 0.42195 0.84762 0.0
C1662 C 0.95911 0.41211 0.85528 0.0
C1663 C 0.94819 0.4283 0.86168 0.0
C1664 C 0.97961 0.41269 0.85504 0.0
C1665 C 0.98969 0.42934 0.86142 0.0
C1666 C 0.97889 0.44557 0.86775 0.0
C1667 C 0.95835 0.44512 0.86776 0.0
H1668 H 0.54877 0.55481 0.34789 0.0
H1669 H 0.54462 0.59166 0.39629 0.0
H1670 H 0.51293 0.55283 0.34663 0.0
H1671 H 0.50891 0.59005 0.39466 0.0
H1672 H 0.44761 0.60264 0.37101 0.0
H1673 H 0.48345 0.60276 0.37232 0.0
H1674 H 0.48405 0.53969 0.36561 0.0
H1675 H 0.44804 0.53958 0.36414 0.0
C1676 C 0.54026 0.56231 0.35836 0.0
C1677 C 0.54959 0.57353 0.37211 0.0
C1678 C 0.51975 0.56121 0.35759 0.0
C1679 C 0.50819 0.57143 0.37045 0.0
C1680 C 0.51749 0.58231 0.38439 0.0
C1681 C 0.53794 0.58327 0.38526 0.0
C1682 C 0.4554 0.58882 0.36963 0.0
C1683 C 0.44509 0.57111 0.36741 0.0
C1684 C 0.47588 0.58887 0.37056 0.0
C1685 C 0.48648 0.57122 0.36914 0.0
C1686 C 0.47621 0.5535 0.36666 0.0
C1687 C 0.45566 0.55343 0.36593 0.0
H1688 H 0.54988 0.43855 0.65353 0.0
H1689 H 0.54699 0.42405 0.59571 0.0
H1690 H 0.51415 0.44161 0.6545 0.0
H1691 H 0.5113 0.42614 0.59671 0.0
H1692 H 0.44836 0.44432 0.59921 0.0
H1693 H 0.48393 0.44662 0.59906 0.0
H1694 H 0.48576 0.42227 0.65408 0.0
H1695 H 0.45012 0.4216 0.65485 0.0
C1696 C 0.54153 0.43598 0.64105 0.0
C1697 C 0.55112 0.4311 0.62455 0.0
C1698 C 0.52106 0.4376 0.64159 0.0
C1699 C 0.50972 0.43405 0.6257 0.0
C1700 C 0.51947 0.42938 0.60915 0.0
C1701 C 0.53994 0.42808 0.60856 0.0
C1702 C 0.45627 0.43991 0.61148 0.0
C1703 C 0.44624 0.4327 0.62703 0.0
C1704 C 0.47677 0.44091 0.61127 0.0
C1705 C 0.48784 0.43444 0.62647 0.0
C1706 C 0.4778 0.4276 0.64216 0.0
C1707 C 0.45729 0.42689 0.64249 0.0
H1708 H 0.04806 0.60538 0.12274 0.0
H1709 H 0.05097 0.5454 0.14181 0.0
H1710 H 0.01232 0.60421 0.12391 0.0
H1711 H 0.01515 0.54436 0.1439 0.0
H1712 H 0.95046 0.54257 0.12764 0.0
H1713 H 0.98615 0.54322 0.12639 0.0
H1714 H 0.98566 0.60393 0.14402 0.0
H1715 H 0.95009 0.60379 0.1437 0.0
C1716 C 0.04097 0.59203 0.12744 0.0
C1717 C 0.05218 0.57551 0.13223 0.0
C1718 C 0.02049 0.59135 0.12822 0.0
C1719 C 0.01075 0.57422 0.13412 0.0
C1720 C 0.02208 0.5577 0.13901 0.0
C1721 C 0.04259 0.55829 0.13793 0.0
C1722 C 0.95794 0.55614 0.13101 0.0
C1723 C 0.94726 0.57314 0.1357 0.0
C1724 C 0.97848 0.55643 0.13057 0.0
C1725 C 0.98889 0.57365 0.13506 0.0
C1726 C 0.97821 0.59049 0.14015 0.0
C1727 C 0.95771 0.59029 0.1403 0.0
H1728 H 0.21314 0.54383 0.02574 0.0
H1729 H 0.17295 0.50079 0.0479 0.0
H1730 H 0.21906 0.52258 -0.001 0.0
H1731 H 0.17879 0.47965 0.0213 0.0
H1732 H 0.20291 0.43992 0.9774 0.0
H1733 H 0.2055 0.45996 0.00522 0.0
H1734 H 0.19614 0.51236 0.97284 0.0
H1735 H 0.19299 0.49247 0.94517 0.0
C1736 C 0.20582 0.52971 0.02498 0.0
C1737 C 0.19245 0.52396 0.0387 0.0
C1738 C 0.20914 0.51763 0.00972 0.0
C1739 C 0.19939 0.49951 0.00814 0.0
C1740 C 0.18666 0.49345 0.02228 0.0
C1741 C 0.18316 0.50561 0.03737 0.0
C1742 C 0.20151 0.45572 0.9762 0.0
C1743 C 0.1975 0.46455 0.95908 0.0
C1744 C 0.2031 0.46717 0.99209 0.0
C1745 C 0.20092 0.48766 0.99114 0.0
C1746 C 0.19811 0.4966 0.97392 0.0
C1747 C 0.19633 0.48517 0.95805 0.0
H1748 H 0.72149 0.9699 0.28699 0.0
H1749 H 0.6982 0.91538 0.26553 0.0
H1750 H 0.74045 0.97435 0.25864 0.0
H1751 H 0.71673 0.92004 0.23732 0.0
H1752 H 0.74128 0.93832 0.18345 0.0
H1753 H 0.71945 0.94146 0.20995 0.0
H1754 H 0.76901 0.95688 0.24424 0.0
H1755 H 0.79087 0.95375 0.21769 0.0
C1756 C 0.72032 0.95894 0.27622 0.0
C1757 C 0.70833 0.94228 0.27854 0.0
C1758 C 0.73112 0.96154 0.26 0.0
C1759 C 0.72998 0.9476 0.24576 0.0
C1760 C 0.7176 0.93124 0.2479 0.0
C1761 C 0.70695 0.92859 0.2641 0.0
C1762 C 0.74746 0.94261 0.19661 0.0
C1763 C 0.76779 0.94551 0.19861 0.0
C1764 C 0.73498 0.94442 0.21175 0.0
C1765 C 0.74258 0.94914 0.22919 0.0
C1766 C 0.76273 0.95334 0.23093 0.0
C1767 C 0.77524 0.95154 0.21575 0.0
H1768 H 0.27793 0.45974 0.52992 0.0
H1769 H 0.32012 0.50295 0.54812 0.0
H1770 H 0.27049 0.48001 0.50281 0.0
H1771 H 0.31254 0.52329 0.52127 0.0
H1772 H 0.28731 0.5605 0.47585 0.0
H1773 H 0.28415 0.54234 0.50474 0.0
H1774 H 0.29455 0.48796 0.47574 0.0
H1775 H 0.29867 0.50592 0.44712 0.0
C1776 C 0.28524 0.47378 0.52829 0.0
C1777 C 0.29969 0.47981 0.54089 0.0
C1778 C 0.28102 0.48531 0.51285 0.0
C1779 C 0.29093 0.50317 0.51004 0.0
C1780 C 0.30454 0.50968 0.52325 0.0
C1781 C 0.309 0.49801 0.53847 0.0
C1782 C 0.28881 0.54467 0.47559 0.0
C1783 C 0.29357 0.53475 0.45915 0.0
C1784 C 0.28683 0.5343 0.4921 0.0
C1785 C 0.28917 0.51381 0.4924 0.0
C1786 C 0.29244 0.50375 0.47582 0.0
C1787 C 0.29475 0.5141 0.45938 0.0
H1788 H 0.74441 0.06262 0.69167 0.0
H1789 H 0.69684 0.02923 0.71562 0.0
H1790 H 0.76299 0.0595 0.72008 0.0
H1791 H 0.71563 0.0258 0.74414 0.0
H1792 H 0.74198 0.05289 0.79758 0.0
H1793 H 0.72473 0.04784 0.76861 0.0
H1794 H 0.78024 0.03845 0.74098 0.0
H1795 H 0.79755 0.04463 0.76975 0.0
C1796 C 0.73814 0.05414 0.70286 0.0
C1797 C 0.71913 0.04625 0.70146 0.0
C1798 C 0.74882 0.05231 0.71917 0.0
C1799 C 0.74077 0.04246 0.73443 0.0
C1800 C 0.72211 0.03375 0.73273 0.0
C1801 C 0.71137 0.03568 0.71642 0.0
C1802 C 0.7505 0.0497 0.78533 0.0
C1803 C 0.77115 0.04945 0.78594 0.0
C1804 C 0.7406 0.04652 0.76876 0.0
C1805 C 0.75112 0.04289 0.75243 0.0
C1806 C 0.77172 0.04151 0.75326 0.0
C1807 C 0.78163 0.04483 0.76981 0.0
H1808 H 0.82809 0.49695 0.94854 0.0
H1809 H 0.78834 0.45339 0.97051 0.0
H1810 H 0.82469 0.51626 0.97651 0.0
H1811 H 0.78445 0.47301 -0.00151 0.0
H1812 H 0.80555 0.49964 0.05365 0.0
H1813 H 0.80344 0.4815 0.02488 0.0
H1814 H 0.80358 0.5362 0.99457 0.0
H1815 H 0.80705 0.55428 0.02329 0.0
C1816 C 0.81828 0.49172 0.95924 0.0
C1817 C 0.80849 0.47367 0.95739 0.0
C1818 C 0.81626 0.50283 0.97526 0.0
C1819 C 0.80426 0.49623 0.98978 0.0
C1820 C 0.79403 0.47839 0.9877 0.0
C1821 C 0.79621 0.46717 0.97169 0.0
C1822 C 0.8052 0.5078 0.04085 0.0
C1823 C 0.80678 0.52841 0.04079 0.0
C1824 C 0.80368 0.4974 0.02433 0.0
C1825 C 0.80351 0.50737 0.00737 0.0
C1826 C 0.80404 0.52804 0.00737 0.0
C1827 C 0.80576 0.53843 0.02388 0.0
H1828 H 0.24507 0.05253 0.80485 0.0
H1829 H 0.19608 0.04346 0.76795 0.0
H1830 H 0.26772 0.05086 0.77879 0.0
H1831 H 0.21876 0.042 0.74184 0.0
H1832 H 0.26725 0.0298 0.69974 0.0
H1833 H 0.24765 0.02334 0.72749 0.0
H1834 H 0.27168 0.07548 0.75291 0.0
H1835 H 0.29112 0.08188 0.7253 0.0
C1836 C 0.2392 0.0497 0.79123 0.0
C1837 C 0.21882 0.04826 0.78838 0.0
C1838 C 0.25214 0.04889 0.77633 0.0
C1839 C 0.24496 0.04646 0.75832 0.0
C1840 C 0.22469 0.04378 0.7556 0.0
C1841 C 0.21172 0.04477 0.77049 0.0
C1842 C 0.2685 0.03965 0.71141 0.0
C1843 C 0.28053 0.05639 0.71043 0.0
C1844 C 0.25727 0.03602 0.7272 0.0
C1845 C 0.2582 0.0489 0.74232 0.0
C1846 C 0.27085 0.06519 0.74154 0.0
C1847 C 0.28182 0.06895 0.72571 0.0
H1848 H 0.69278 0.50484 0.44357 0.0
H1849 H 0.71229 0.55442 0.47584 0.0
H1850 H 0.6961 0.48359 0.47029 0.0
H1851 H 0.71644 0.53302 0.50258 0.0
H1852 H 0.68846 0.49743 0.54974 0.0
H1853 H 0.69434 0.51796 0.52305 0.0
H1854 H 0.71519 0.46734 0.49276 0.0
H1855 H 0.70796 0.44648 0.51921 0.0
C1856 C 0.6984 0.51104 0.45628 0.0
C1857 C 0.70211 0.53127 0.45773 0.0
C1858 C 0.70038 0.49884 0.47162 0.0
C1859 C 0.70633 0.5066 0.48871 0.0
C1860 C 0.71137 0.52663 0.48976 0.0
C1861 C 0.70911 0.53888 0.47446 0.0
C1862 C 0.69424 0.49063 0.53737 0.0
C1863 C 0.69733 0.47023 0.5365 0.0
C1864 C 0.69797 0.5025 0.52212 0.0
C1865 C 0.70515 0.49433 0.50564 0.0
C1866 C 0.70934 0.47408 0.50512 0.0
C1867 C 0.70541 0.46214 0.52036 0.0
H1868 H 0.29593 0.96822 0.27675 0.0
H1869 H 0.24771 0.93721 0.30224 0.0
H1870 H 0.27611 0.97317 0.24907 0.0
H1871 H 0.22808 0.94166 0.27455 0.0
H1872 H 0.19306 0.95658 0.22495 0.0
H1873 H 0.211 0.96263 0.25349 0.0
H1874 H 0.26578 0.95154 0.22513 0.0
H1875 H 0.24796 0.94658 0.19652 0.0
C1876 C 0.28101 0.96266 0.27647 0.0
C1877 C 0.27339 0.9522 0.29154 0.0
C1878 C 0.26968 0.96544 0.26063 0.0
C1879 C 0.25058 0.95761 0.25949 0.0
C1880 C 0.24262 0.94812 0.275 0.0
C1881 C 0.25389 0.9455 0.29089 0.0
C1882 C 0.20896 0.95597 0.22472 0.0
C1883 C 0.21909 0.95085 0.20853 0.0
C1884 C 0.21923 0.95923 0.24113 0.0
C1885 C 0.23982 0.95736 0.24168 0.0
C1886 C 0.24996 0.95328 0.22523 0.0
C1887 C 0.23972 0.95014 0.20885 0.0
H1888 H 0.71576 0.04999 0.52001 0.0
H1889 H 0.68738 -0.0007 0.544 0.0
H1890 H 0.72146 0.03149 0.49165 0.0
H1891 H 0.69294 0.98091 0.51578 0.0
H1892 H 0.71072 0.94826 0.4657 0.0
H1893 H 0.71613 0.96607 0.49447 0.0
H1894 H 0.69937 0.02025 0.46762 0.0
H1895 H 0.69472 0.00259 0.43881 0.0
C1896 C 0.71091 0.03485 0.51927 0.0
C1897 C 0.70097 0.02615 0.53416 0.0
C1898 C 0.71419 0.02426 0.50307 0.0
C1899 C 0.70755 0.00477 0.50143 0.0
C1900 C 0.69852 0.99579 0.51667 0.0
C1901 C 0.69528 0.00635 0.53286 0.0
C1902 C 0.70875 0.96405 0.46584 0.0
C1903 C 0.70207 0.97402 0.45008 0.0
C1904 C 0.71166 0.97422 0.48235 0.0
C1905 C 0.70796 0.99453 0.48339 0.0
C1906 C 0.7025 0.00464 0.46729 0.0
C1907 C 0.6996 0.9945 0.45082 0.0
H1908 H 0.24822 0.43078 0.69472 0.0
H1909 H 0.30143 0.45105 0.72112 0.0
H1910 H 0.23039 0.43487 0.72351 0.0
H1911 H 0.28334 0.45605 0.74976 0.0
H1912 H 0.1994 0.45366 0.77463 0.0
H1913 H 0.21781 0.45782 0.74604 0.0
H1914 H 0.26954 0.43386 0.77235 0.0
H1915 H 0.25141 0.43053 0.80107 0.0
C1916 C 0.25605 0.43633 0.70663 0.0
C1917 C 0.27629 0.44032 0.70572 0.0
C1918 C 0.24577 0.43895 0.72307 0.0
C1919 C 0.25548 0.44571 0.73894 0.0
C1920 C 0.27552 0.45058 0.73781 0.0
C1921 C 0.28583 0.4479 0.72136 0.0
C1922 C 0.21483 0.44973 0.77441 0.0
C1923 C 0.22392 0.44157 0.79002 0.0
C1924 C 0.22531 0.45193 0.758 0.0
C1925 C 0.24507 0.446 0.75688 0.0
C1926 C 0.25439 0.43872 0.77277 0.0
C1927 C 0.24393 0.43656 0.78916 0.0
H1928 H 0.83986 0.00962 0.9445 0.0
H1929 H 0.78921 0.03934 0.96692 0.0
H1930 H 0.83944 0.98653 0.97013 0.0
H1931 H 0.78924 0.01685 0.99325 0.0
H1932 H 0.78606 0.96395 0.0317 0.0
H1933 H 0.78391 0.98432 0.00399 0.0
H1934 H 0.84741 0.98656 0.00147 0.0
H1935 H 0.84938 0.96567 0.02854 0.0
C1936 C 0.82871 0.01121 0.95506 0.0
C1937 C 0.81469 0.02627 0.95396 0.0
C1938 C 0.8285 0.99809 0.96979 0.0
C1939 C 0.81449 -2e-05 0.98394 0.0
C1940 C 0.80012 0.01482 0.98253 0.0
C1941 C 0.80014 0.02777 0.96756 0.0
C1942 C 0.79948 0.96876 0.02506 0.0
C1943 C 0.81787 0.96314 0.03209 0.0
C1944 C 0.79829 0.98049 0.00928 0.0
C1945 C 0.81548 0.98704 0.00041 0.0
C1946 C 0.83385 0.98141 0.00761 0.0
C1947 C 0.83502 0.9695 0.02317 0.0
H1948 H 0.19744 0.54234 0.22133 0.0
H1949 H 0.25056 0.56207 0.19444 0.0
H1950 H 0.21576 0.53725 0.24983 0.0
H1951 H 0.26865 0.55786 0.22308 0.0
H1952 H 0.24783 0.56427 0.30045 0.0
H1953 H 0.22959 0.55996 0.27192 0.0
H1954 H 0.28132 0.53543 0.24606 0.0
H1955 H 0.29984 0.54058 0.27446 0.0
C1956 C 0.21308 0.5453 0.22142 0.0
C1957 C 0.22253 0.55283 0.20572 0.0
C1958 C 0.22353 0.54257 0.23779 0.0
C1959 C 0.2436 0.54734 0.23876 0.0
C1960 C 0.25324 0.55389 0.22277 0.0
C1961 C 0.24282 0.55657 0.20642 0.0
C1962 C 0.25528 0.55789 0.28869 0.0
C1963 C 0.27533 0.55304 0.2896 0.0
C1964 C 0.24476 0.55515 0.27241 0.0
C1965 C 0.25405 0.54744 0.25669 0.0
C1966 C 0.27384 0.54163 0.25789 0.0
C1967 C 0.28439 0.54441 0.27419 0.0
H1968 H 0.282 0.01699 0.54501 0.0
H1969 H 0.34003 0.03636 0.52897 0.0
H1970 H 0.28164 0.994 0.51896 0.0
H1971 H 0.33937 0.01411 0.50288 0.0
H1972 H 0.34318 0.95857 0.47077 0.0
H1973 H 0.34077 0.97846 0.49857 0.0
H1974 H 0.28113 0.99414 0.48428 0.0
H1975 H 0.28353 0.97394 0.45639 0.0
C1976 C 0.29459 0.0164 0.53589 0.0
C1977 C 0.311 0.02854 0.53899 0.0
C1978 C 0.29433 0.00337 0.52096 0.0
C1979 C 0.31056 0.00215 0.50902 0.0
C1980 C 0.32678 0.01448 0.51202 0.0
C1981 C 0.32703 0.02746 0.52683 0.0
C1982 C 0.32952 0.96617 0.47363 0.0
C1983 C 0.31365 0.965 0.46133 0.0
C1984 C 0.32814 0.97757 0.48951 0.0
C1985 C 0.31089 0.98813 0.4934 0.0
C1986 C 0.2946 0.98612 0.48163 0.0
C1987 C 0.29596 0.9746 0.4657 0.0
H1988 H 0.80172 0.54725 0.22991 0.0
H1989 H 0.74787 0.55277 0.1987 0.0
H1990 H 0.78276 0.5431 0.258 0.0
H1991 H 0.72898 0.55025 0.22693 0.0
H1992 H 0.69732 0.53631 0.27906 0.0
H1993 H 0.71765 0.53121 0.25171 0.0
H1994 H 0.76478 0.56389 0.27747 0.0
H1995 H 0.74474 0.56815 0.3049 0.0
C1996 C 0.78584 0.54737 0.22897 0.0
C1997 C 0.77635 0.55057 0.21202 0.0
C1998 C 0.77495 0.54528 0.24516 0.0
C1999 C 0.75432 0.54663 0.24484 0.0
C2000 C 0.74482 0.54896 0.22777 0.0
C2001 C 0.75569 0.55076 0.21156 0.0
C2002 C 0.71214 0.54212 0.27886 0.0
C2003 C 0.71949 0.55265 0.294 0.0
C2004 C 0.72376 0.53931 0.26321 0.0
C2005 C 0.74284 0.54726 0.26228 0.0
C2006 C 0.75033 0.55723 0.27775 0.0
C2007 C 0.73883 0.55978 0.29348 0.0
H2008 H 0.16183 0.95227 0.0222 0.0
H2009 H 0.20981 0.98468 0.04649 0.0
H2010 H 0.16524 0.97136 0.99378 0.0
H2011 H 0.21298 0.00412 0.01811 0.0
H2012 H 0.18377 0.0497 0.97527 0.0
H2013 H 0.18721 0.02894 0.00268 0.0
H2014 H 0.19236 0.97767 0.96797 0.0
H2015 H 0.18924 0.99848 0.94054 0.0
C2016 C 0.17318 0.96341 0.02134 0.0
C2017 C 0.18554 0.96713 0.03641 0.0
C2018 C 0.17521 0.9742 0.00511 0.0
C2019 C 0.18939 0.98912 0.00384 0.0
C2020 C 0.20196 0.99266 0.01883 0.0
C2021 C 0.20019 0.98157 0.03496 0.0
C2022 C 0.18599 0.03404 0.97356 0.0
C2023 C 0.18623 0.02561 0.9559 0.0
C2024 C 0.18805 0.02222 0.98917 0.0
C2025 C 0.19 0.00177 0.98734 0.0
C2026 C 0.19084 0.99342 0.96966 0.0
C2027 C 0.18916 0.00529 0.95404 0.0
H2028 H 0.74792 0.41485 0.69166 0.0
H2029 H 0.7022 0.44953 0.71739 0.0
H2030 H 0.7674 0.41694 0.71978 0.0
H2031 H 0.72226 0.45228 0.74519 0.0
H2032 H 0.776 0.46527 0.78464 0.0
H2033 H 0.75771 0.4661 0.75541 0.0
H2034 H 0.75957 0.40272 0.75294 0.0
H2035 H 0.77747 0.4019 0.78216 0.0
C2036 C 0.74202 0.42295 0.70325 0.0
C2037 C 0.72333 0.43177 0.70232 0.0
C2038 C 0.75326 0.42425 0.71927 0.0
C2039 C 0.74623 0.43468 0.73457 0.0
C2040 C 0.72801 0.44427 0.73346 0.0
C2041 C 0.71659 0.44272 0.71752 0.0
C2042 C 0.77246 0.45159 0.77777 0.0
C2043 C 0.77795 0.43352 0.78556 0.0
C2044 C 0.76201 0.45205 0.76117 0.0
C2045 C 0.75736 0.43448 0.75201 0.0
C2046 C 0.76313 0.41646 0.75972 0.0
C2047 C 0.77321 0.41598 0.77643 0.0
loop_
_geom_bond_atom_site_label_1
_geom_bond_atom_site_label_2
_geom_bond_distance
_geom_bond_site_symmetry_2
_ccdc_geom_bond_type
Li0 N17 1.990 . S
Li0 O60 1.956 . S
Li0 O61 1.970 . S
Li0 O62 1.961 . S
Li1 N25 1.990 . S
Li1 O60 1.970 . S
Li1 O61 1.956 . S
Li1 O63 1.961 . S
Li2 N47 1.990 . S
Li2 O60 1.961 . S
Li2 O62 1.956 . S
Li2 O63 1.970 . S
Li3 N53 1.990 . S
Li3 O61 1.961 . S
Li3 O62 1.970 . S
Li3 O63 1.956 . S
C4 C6 1.348 . S
C4 C7 1.356 . S
C4 O60 1.325 . S
N5 C8 1.314 . S
N5 C9 1.279 . S
C6 C4 1.348 . S
C6 C8 1.353 . S
C6 H64 0.929 . S
C7 C4 1.356 . S
C7 C9 1.358 . S
C7 H65 0.930 . S
C8 N5 1.314 . S
C8 C6 1.353 . S
C8 H66 0.930 . S
C9 N5 1.279 . S
C9 C7 1.358 . S
C9 H67 0.930 . S
C10 C13 1.348 . S
C10 C14 1.356 . S
C10 O61 1.325 . S
C11 N12 1.279 . S
C11 C14 1.358 . S
C11 H68 0.930 . S
N12 C11 1.279 . S
N12 C15 1.314 . S
C13 C10 1.348 . S
C13 C15 1.353 . S
C13 H69 0.929 . S
C14 C10 1.356 . S
C14 C11 1.358 . S
C14 H70 0.930 . S
C15 N12 1.314 . S
C15 C13 1.353 . S
C15 H71 0.930 . S
C16 N17 1.314 . S
C16 C21 1.353 . S
C16 H22 0.930 . S
N17 Li0 1.990 . S
N17 C16 1.314 . S
N17 C19 1.279 . S
C18 C19 1.358 . S
C18 C20 1.356 . S
C18 H72 0.930 . S
C19 N17 1.279 . S
C19 C18 1.358 . S
C19 H23 0.930 . S
C20 C18 1.356 . S
C20 C21 1.348 . S
C21 C16 1.353 . S
C21 C20 1.348 . S
C21 H73 0.929 . S
H22 C16 0.930 . S
H23 C19 0.930 . S
C24 N25 1.314 . S
C24 C26 1.353 . S
C24 H30 0.930 . S
N25 Li1 1.990 . S
N25 C24 1.314 . S
N25 C28 1.279 . S
C26 C24 1.353 . S
C26 C29 1.348 . S
C26 H74 0.929 . S
C27 C28 1.358 . S
C27 C29 1.356 . S
C27 H75 0.930 . S
C28 N25 1.279 . S
C28 C27 1.358 . S
C28 H31 0.930 . S
C29 C26 1.348 . S
C29 C27 1.356 . S
H30 C24 0.930 . S
H31 C28 0.930 . S
C32 C34 1.348 . S
C32 C35 1.356 . S
C32 O62 1.325 . S
N33 C36 1.314 . S
N33 C37 1.279 . S
C34 C32 1.348 . S
C34 C36 1.353 . S
C34 H76 0.929 . S
C35 C32 1.356 . S
C35 C37 1.358 . S
C35 H77 0.930 . S
C36 N33 1.314 . S
C36 C34 1.353 . S
C36 H78 0.930 . S
C37 N33 1.279 . S
C37 C35 1.358 . S
C37 H79 0.930 . S
C38 C39 1.348 . S
C38 C40 1.356 . S
C38 O63 1.325 . S
C39 C38 1.348 . S
C39 C41 1.353 . S
C39 H80 0.929 . S
C40 C38 1.356 . S
C40 C42 1.358 . S
C40 H81 0.930 . S
C41 C39 1.353 . S
C41 N43 1.314 . S
C41 H82 0.930 . S
C42 C40 1.358 . S
C42 N43 1.279 . S
C42 H83 0.930 . S
N43 C41 1.314 . S
N43 C42 1.279 . S
C44 C46 1.353 . S
C44 N47 1.314 . S
C44 H50 0.930 . S
C45 N47 1.279 . S
C45 C48 1.358 . S
C45 H51 0.930 . S
C46 C44 1.353 . S
C46 C49 1.348 . S
C46 H84 0.929 . S
N47 Li2 1.990 . S
N47 C44 1.314 . S
N47 C45 1.279 . S
C48 C45 1.358 . S
C48 C49 1.356 . S
C48 H85 0.930 . S
C49 C46 1.348 . S
C49 C48 1.356 . S
H50 C44 0.930 . S
H51 C45 0.930 . S
C52 N53 1.314 . S
C52 C54 1.353 . S
C52 H58 0.930 . S
N53 Li3 1.990 . S
N53 C52 1.314 . S
N53 C56 1.279 . S
C54 C52 1.353 . S
C54 C57 1.348 . S
C54 H86 0.929 . S
C55 C56 1.358 . S
C55 C57 1.356 . S
C55 H87 0.930 . S
C56 N53 1.279 . S
C56 C55 1.358 . S
C56 H59 0.930 . S
C57 C54 1.348 . S
C57 C55 1.356 . S
H58 C52 0.930 . S
H59 C56 0.930 . S
O60 Li0 1.956 . S
O60 Li1 1.970 . S
O60 Li2 1.961 . S
O60 C4 1.325 . S
O61 Li0 1.970 . S
O61 Li1 1.956 . S
O61 Li3 1.961 . S
O61 C10 1.325 . S
O62 Li0 1.961 . S
O62 Li2 1.956 . S
O62 Li3 1.970 . S
O62 C32 1.325 . S
O63 Li1 1.961 . S
O63 Li2 1.970 . S
O63 Li3 1.956 . S
O63 C38 1.325 . S
H64 C6 0.929 . S
H65 C7 0.930 . S
H66 C8 0.930 . S
H67 C9 0.930 . S
H68 C11 0.930 . S
H69 C13 0.929 . S
H70 C14 0.930 . S
H71 C15 0.930 . S
H72 C18 0.930 . S
H73 C21 0.929 . S
H74 C26 0.929 . S
H75 C27 0.930 . S
H76 C34 0.929 . S
H77 C35 0.930 . S
H78 C36 0.930 . S
H79 C37 0.930 . S
H80 C39 0.929 . S
H81 C40 0.930 . S
H82 C41 0.930 . S
H83 C42 0.930 . S
H84 C46 0.929 . S
H85 C48 0.930 . S
H86 C54 0.929 . S
H87 C55 0.930 . S
Li88 N105 1.990 . S
Li88 O148 1.956 . S
Li88 O149 1.970 . S
Li88 O150 1.961 . S
Li89 N113 1.990 . S
Li89 O148 1.970 . S
Li89 O149 1.956 . S
Li89 O151 1.961 . S
Li90 N135 1.990 . S
Li90 O148 1.961 . S
Li90 O150 1.956 . S
Li90 O151 1.970 . S
Li91 N141 1.990 . S
Li91 O149 1.961 . S
Li91 O150 1.970 . S
Li91 O151 1.956 . S
C92 C94 1.348 . S
C92 C95 1.356 . S
C92 O148 1.325 . S
N93 C96 1.306 1_545 S
N93 C97 1.263 1_545 S
C94 C92 1.348 . S
C94 C96 1.353 . S
C94 H152 0.929 . S
C95 C92 1.356 . S
C95 C97 1.358 . S
C95 H153 0.930 . S
C96 N93 1.306 1_565 S
C96 C94 1.353 . S
C96 H154 0.930 1_565 S
C97 N93 1.263 1_565 S
C97 C95 1.358 . S
C97 H155 0.930 . S
C98 C101 1.348 . S
C98 C102 1.356 . S
C98 O149 1.325 . S
C99 N100 1.279 . S
C99 C102 1.358 . S
C99 H156 0.930 . S
N100 C99 1.279 . S
N100 C103 1.314 . S
C101 C98 1.348 . S
C101 C103 1.353 . S
C101 H157 0.929 . S
C102 C98 1.356 . S
C102 C99 1.358 . S
C102 H158 0.930 . S
C103 N100 1.314 . S
C103 C101 1.353 . S
C103 H159 0.930 . S
C104 N105 1.314 . S
C104 C109 1.353 . S
C104 H110 0.930 . S
N105 Li88 1.990 . S
N105 C104 1.314 . S
N105 C107 1.279 . S
C106 C107 1.358 . S
C106 C108 1.356 . S
C106 H160 0.930 . S
C107 N105 1.279 . S
C107 C106 1.358 . S
C107 H111 0.930 . S
C108 C106 1.356 . S
C108 C109 1.348 . S
C109 C104 1.353 . S
C109 C108 1.348 . S
C109 H161 0.929 . S
H110 C104 0.930 . S
H111 C107 0.930 . S
C112 N113 1.314 . S
C112 C114 1.353 . S
C112 H118 0.930 . S
N113 Li89 1.990 . S
N113 C112 1.314 . S
N113 C116 1.279 . S
C114 C112 1.353 . S
C114 C117 1.348 . S
C114 H162 0.929 . S
C115 C116 1.358 . S
C115 C117 1.356 . S
C115 H163 0.930 . S
C116 N113 1.279 . S
C116 C115 1.358 . S
C116 H119 0.930 . S
C117 C114 1.348 . S
C117 C115 1.356 . S
H118 C112 0.930 . S
H119 C116 0.930 . S
C120 C122 1.348 . S
C120 C123 1.356 . S
C120 O150 1.325 . S
N121 C124 1.314 . S
N121 C125 1.279 . S
C122 C120 1.348 . S
C122 C124 1.353 . S
C122 H164 0.929 . S
C123 C120 1.356 . S
C123 C125 1.358 . S
C123 H165 0.930 . S
C124 N121 1.314 . S
C124 C122 1.353 . S
C124 H166 0.930 . S
C125 N121 1.279 . S
C125 C123 1.358 . S
C125 H167 0.930 . S
C126 C127 1.348 . S
C126 C128 1.356 . S
C126 O151 1.325 . S
C127 C126 1.348 . S
C127 C129 1.353 . S
C127 H168 0.929 . S
C128 C126 1.356 . S
C128 C130 1.358 . S
C128 H169 0.930 . S
C129 C127 1.353 . S
C129 N131 1.314 . S
C129 H170 0.930 . S
C130 C128 1.358 . S
C130 N131 1.279 . S
C130 H171 0.930 . S
N131 C129 1.314 . S
N131 C130 1.279 . S
C132 C134 1.353 . S
C132 N135 1.314 . S
C132 H138 0.930 . S
C133 N135 1.279 . S
C133 C136 1.358 . S
C133 H139 0.930 . S
C134 C132 1.353 . S
C134 C137 1.348 . S
C134 H172 0.929 . S
N135 Li90 1.990 . S
N135 C132 1.314 . S
N135 C133 1.279 . S
C136 C133 1.358 . S
C136 C137 1.356 . S
C136 H173 0.930 . S
C137 C134 1.348 . S
C137 C136 1.356 . S
H138 C132 0.930 . S
H139 C133 0.930 . S
C140 N141 1.314 . S
C140 C142 1.353 . S
C140 H146 0.930 . S
N141 Li91 1.990 . S
N141 C140 1.314 . S
N141 C144 1.279 . S
C142 C140 1.353 . S
C142 C145 1.348 . S
C142 H174 0.929 . S
C143 C144 1.358 . S
C143 C145 1.356 . S
C143 H175 0.930 . S
C144 N141 1.279 . S
C144 C143 1.358 . S
C144 H147 0.930 . S
C145 C142 1.348 . S
C145 C143 1.356 . S
H146 C140 0.930 . S
H147 C144 0.930 . S
O148 Li88 1.956 . S
O148 Li89 1.970 . S
O148 Li90 1.961 . S
O148 C92 1.325 . S
O149 Li88 1.970 . S
O149 Li89 1.956 . S
O149 Li91 1.961 . S
O149 C98 1.325 . S
O150 Li88 1.961 . S
O150 Li90 1.956 . S
O150 Li91 1.970 . S
O150 C120 1.325 . S
O151 Li89 1.961 . S
O151 Li90 1.970 . S
O151 Li91 1.956 . S
O151 C126 1.325 . S
H152 C94 0.929 . S
H153 C95 0.930 . S
H154 C96 0.930 1_545 S
H155 C97 0.930 . S
H156 C99 0.930 . S
H157 C101 0.929 . S
H158 C102 0.930 . S
H159 C103 0.930 . S
H160 C106 0.930 . S
H161 C109 0.929 . S
H162 C114 0.929 . S
H163 C115 0.930 . S
H164 C122 0.929 . S
H165 C123 0.930 . S
H166 C124 0.930 . S
H167 C125 0.930 . S
H168 C127 0.929 . S
H169 C128 0.930 . S
H170 C129 0.930 . S
H171 C130 0.930 . S
H172 C134 0.929 . S
H173 C136 0.930 . S
H174 C142 0.929 . S
H175 C143 0.930 . S
Li176 N193 1.990 . S
Li176 O236 1.956 . S
Li176 O237 1.970 . S
Li176 O238 1.961 . S
Li177 N201 1.990 . S
Li177 O236 1.970 . S
Li177 O237 1.956 . S
Li177 O239 1.961 . S
Li178 N223 1.990 . S
Li178 O236 1.961 . S
Li178 O238 1.956 . S
Li178 O239 1.970 . S
Li179 N229 1.990 . S
Li179 O237 1.961 . S
Li179 O238 1.970 . S
Li179 O239 1.956 . S
C180 C182 1.348 . S
C180 C183 1.356 . S
C180 O236 1.325 . S
N181 C184 1.314 . S
N181 C185 1.279 . S
C182 C180 1.348 . S
C182 C184 1.353 . S
C182 H240 0.929 . S
C183 C180 1.356 . S
C183 C185 1.358 . S
C183 H241 0.930 . S
C184 N181 1.314 . S
C184 C182 1.353 . S
C184 H242 0.930 . S
C185 N181 1.279 . S
C185 C183 1.358 . S
C185 H243 0.930 . S
C186 C189 1.348 . S
C186 C190 1.356 . S
C186 O237 1.325 . S
C187 N188 1.279 . S
C187 C190 1.358 . S
C187 H244 0.930 . S
N188 C187 1.279 . S
N188 C191 1.314 . S
C189 C186 1.348 . S
C189 C191 1.353 . S
C189 H245 0.929 . S
C190 C186 1.356 . S
C190 C187 1.358 . S
C190 H246 0.930 . S
C191 N188 1.314 . S
C191 C189 1.353 . S
C191 H247 0.930 . S
C192 N193 1.314 . S
C192 C197 1.353 . S
C192 H198 0.930 . S
N193 Li176 1.990 . S
N193 C192 1.314 . S
N193 C195 1.279 . S
C194 C195 1.358 . S
C194 C196 1.356 . S
C194 H248 0.930 . S
C195 N193 1.279 . S
C195 C194 1.358 . S
C195 H199 0.930 . S
C196 C194 1.356 . S
C196 C197 1.348 . S
C197 C192 1.353 . S
C197 C196 1.348 . S
C197 H249 0.929 . S
H198 C192 0.930 . S
H199 C195 0.930 . S
C200 N201 1.314 . S
C200 C202 1.353 . S
C200 H206 0.930 . S
N201 Li177 1.990 . S
N201 C200 1.314 . S
N201 C204 1.279 . S
C202 C200 1.353 . S
C202 C205 1.348 . S
C202 H250 0.929 . S
C203 C204 1.358 . S
C203 C205 1.356 . S
C203 H251 0.930 . S
C204 N201 1.279 . S
C204 C203 1.358 . S
C204 H207 0.930 . S
C205 C202 1.348 . S
C205 C203 1.356 . S
H206 C200 0.930 . S
H207 C204 0.930 . S
C208 C210 1.348 . S
C208 C211 1.356 . S
C208 O238 1.325 . S
N209 C212 1.314 . S
N209 C213 1.279 . S
C210 C208 1.348 . S
C210 C212 1.353 . S
C210 H252 0.929 . S
C211 C208 1.356 . S
C211 C213 1.358 . S
C211 H253 0.930 . S
C212 N209 1.314 . S
C212 C210 1.353 . S
C212 H254 0.930 . S
C213 N209 1.279 . S
C213 C211 1.358 . S
C213 H255 0.930 . S
C214 C215 1.348 . S
C214 C216 1.356 . S
C214 O239 1.325 . S
C215 C214 1.348 . S
C215 C217 1.353 . S
C215 H256 0.929 . S
C216 C214 1.356 . S
C216 C218 1.358 . S
C216 H257 0.930 . S
C217 C215 1.353 . S
C217 N219 1.314 . S
C217 H258 0.930 . S
C218 C216 1.358 . S
C218 N219 1.279 . S
C218 H259 0.930 . S
N219 C217 1.314 . S
N219 C218 1.279 . S
C220 C222 1.353 . S
C220 N223 1.314 . S
C220 H226 0.930 . S
C221 N223 1.279 . S
C221 C224 1.358 . S
C221 H227 0.930 . S
C222 C220 1.353 . S
C222 C225 1.348 . S
C222 H260 0.929 . S
N223 Li178 1.990 . S
N223 C220 1.314 . S
N223 C221 1.279 . S
C224 C221 1.358 . S
C224 C225 1.356 . S
C224 H261 0.930 . S
C225 C222 1.348 . S
C225 C224 1.356 . S
H226 C220 0.930 . S
H227 C221 0.930 . S
C228 N229 1.314 . S
C228 C230 1.353 . S
C228 H234 0.930 . S
N229 Li179 1.990 . S
N229 C228 1.314 . S
N229 C232 1.279 . S
C230 C228 1.353 . S
C230 C233 1.348 . S
C230 H262 0.929 . S
C231 C232 1.358 . S
C231 C233 1.356 . S
C231 H263 0.930 . S
C232 N229 1.279 . S
C232 C231 1.358 . S
C232 H235 0.930 . S
C233 C230 1.348 . S
C233 C231 1.356 . S
H234 C228 0.930 . S
H235 C232 0.930 . S
O236 Li176 1.956 . S
O236 Li177 1.970 . S
O236 Li178 1.961 . S
O236 C180 1.325 . S
O237 Li176 1.970 . S
O237 Li177 1.956 . S
O237 Li179 1.961 . S
O237 C186 1.325 . S
O238 Li176 1.961 . S
O238 Li178 1.956 . S
O238 Li179 1.970 . S
O238 C208 1.325 . S
O239 Li177 1.961 . S
O239 Li178 1.970 . S
O239 Li179 1.956 . S
O239 C214 1.325 . S
H240 C182 0.929 . S
H241 C183 0.930 . S
H242 C184 0.930 . S
H243 C185 0.930 . S
H244 C187 0.930 . S
H245 C189 0.929 . S
H246 C190 0.930 . S
H247 C191 0.930 . S
H248 C194 0.930 . S
H249 C197 0.929 . S
H250 C202 0.929 . S
H251 C203 0.930 . S
H252 C210 0.929 . S
H253 C211 0.930 . S
H254 C212 0.930 . S
H255 C213 0.930 . S
H256 C215 0.929 . S
H257 C216 0.930 . S
H258 C217 0.930 . S
H259 C218 0.930 . S
H260 C222 0.929 . S
H261 C224 0.930 . S
H262 C230 0.929 . S
H263 C231 0.930 . S
Li264 N281 1.990 . S
Li264 O324 1.956 . S
Li264 O325 1.970 . S
Li264 O326 1.961 . S
Li265 N289 1.990 . S
Li265 O324 1.970 . S
Li265 O325 1.956 . S
Li265 O327 1.961 . S
Li266 N311 1.990 . S
Li266 O324 1.961 . S
Li266 O326 1.956 . S
Li266 O327 1.970 . S
Li267 N317 1.990 . S
Li267 O325 1.961 . S
Li267 O326 1.970 . S
Li267 O327 1.956 . S
C268 C270 1.348 . S
C268 C271 1.356 . S
C268 O324 1.325 . S
N269 C272 1.314 . S
N269 C273 1.279 . S
C270 C268 1.348 . S
C270 C272 1.353 . S
C270 H328 0.929 . S
C271 C268 1.356 . S
C271 C273 1.358 . S
C271 H329 0.930 . S
C272 N269 1.314 . S
C272 C270 1.353 . S
C272 H330 0.930 . S
C273 N269 1.279 . S
C273 C271 1.358 . S
C273 H331 0.930 . S
C274 C277 1.348 . S
C274 C278 1.356 . S
C274 O325 1.325 . S
C275 N276 1.279 . S
C275 C278 1.358 . S
C275 H332 0.930 . S
N276 C275 1.279 . S
N276 C279 1.314 . S
C277 C274 1.348 . S
C277 C279 1.353 . S
C277 H333 0.929 . S
C278 C274 1.356 . S
C278 C275 1.358 . S
C278 H334 0.930 . S
C279 N276 1.314 . S
C279 C277 1.353 . S
C279 H335 0.930 . S
C280 N281 1.314 . S
C280 C285 1.353 . S
C280 H286 0.930 . S
N281 Li264 1.990 . S
N281 C280 1.314 . S
N281 C283 1.279 . S
C282 C283 1.358 . S
C282 C284 1.356 . S
C282 H336 0.930 . S
C283 N281 1.279 . S
C283 C282 1.358 . S
C283 H287 0.930 . S
C284 C282 1.356 . S
C284 C285 1.348 . S
C285 C280 1.353 . S
C285 C284 1.348 . S
C285 H337 0.929 . S
H286 C280 0.930 . S
H287 C283 0.930 . S
C288 N289 1.314 . S
C288 C290 1.353 . S
C288 H294 0.930 . S
N289 Li265 1.990 . S
N289 C288 1.314 . S
N289 C292 1.279 . S
C290 C288 1.353 . S
C290 C293 1.348 . S
C290 H338 0.929 . S
C291 C292 1.358 . S
C291 C293 1.356 . S
C291 H339 0.930 . S
C292 N289 1.279 . S
C292 C291 1.358 . S
C292 H295 0.930 . S
C293 C290 1.348 . S
C293 C291 1.356 . S
H294 C288 0.930 . S
H295 C292 0.930 . S
C296 C298 1.348 . S
C296 C299 1.356 . S
C296 O326 1.325 . S
N297 C300 1.314 . S
N297 C301 1.279 . S
C298 C296 1.348 . S
C298 C300 1.353 . S
C298 H340 0.929 . S
C299 C296 1.356 . S
C299 C301 1.358 . S
C299 H341 0.930 . S
C300 N297 1.314 . S
C300 C298 1.353 . S
C300 H342 0.930 . S
C301 N297 1.279 . S
C301 C299 1.358 . S
C301 H343 0.930 . S
C302 C303 1.348 . S
C302 C304 1.356 . S
C302 O327 1.325 . S
C303 C302 1.348 . S
C303 C305 1.353 . S
C303 H344 0.929 . S
C304 C302 1.356 . S
C304 C306 1.358 . S
C304 H345 0.930 . S
C305 C303 1.353 . S
C305 N307 1.306 1_545 S
C305 H346 0.930 1_545 S
C306 C304 1.358 . S
C306 N307 1.263 1_545 S
C306 H347 0.930 . S
N307 C305 1.306 1_565 S
N307 C306 1.263 1_565 S
C308 C310 1.353 . S
C308 N311 1.314 . S
C308 H314 0.930 . S
C309 N311 1.279 . S
C309 C312 1.358 . S
C309 H315 0.930 . S
C310 C308 1.353 . S
C310 C313 1.348 . S
C310 H348 0.929 . S
N311 Li266 1.990 . S
N311 C308 1.314 . S
N311 C309 1.279 . S
C312 C309 1.358 . S
C312 C313 1.356 . S
C312 H349 0.930 . S
C313 C310 1.348 . S
C313 C312 1.356 . S
H314 C308 0.930 . S
H315 C309 0.930 . S
C316 N317 1.314 . S
C316 C318 1.353 . S
C316 H322 0.930 . S
N317 Li267 1.990 . S
N317 C316 1.314 . S
N317 C320 1.279 . S
C318 C316 1.353 . S
C318 C321 1.348 . S
C318 H350 0.929 . S
C319 C320 1.358 . S
C319 C321 1.356 . S
C319 H351 0.930 . S
C320 N317 1.279 . S
C320 C319 1.358 . S
C320 H323 0.930 . S
C321 C318 1.348 . S
C321 C319 1.356 . S
H322 C316 0.930 . S
H323 C320 0.930 . S
O324 Li264 1.956 . S
O324 Li265 1.970 . S
O324 Li266 1.961 . S
O324 C268 1.325 . S
O325 Li264 1.970 . S
O325 Li265 1.956 . S
O325 Li267 1.961 . S
O325 C274 1.325 . S
O326 Li264 1.961 . S
O326 Li266 1.956 . S
O326 Li267 1.970 . S
O326 C296 1.325 . S
O327 Li265 1.961 . S
O327 Li266 1.970 . S
O327 Li267 1.956 . S
O327 C302 1.325 . S
H328 C270 0.929 . S
H329 C271 0.930 . S
H330 C272 0.930 . S
H331 C273 0.930 . S
H332 C275 0.930 . S
H333 C277 0.929 . S
H334 C278 0.930 . S
H335 C279 0.930 . S
H336 C282 0.930 . S
H337 C285 0.929 . S
H338 C290 0.929 . S
H339 C291 0.930 . S
H340 C298 0.929 . S
H341 C299 0.930 . S
H342 C300 0.930 . S
H343 C301 0.930 . S
H344 C303 0.929 . S
H345 C304 0.930 . S
H346 C305 0.930 1_565 S
H347 C306 0.930 . S
H348 C310 0.929 . S
H349 C312 0.930 . S
H350 C318 0.929 . S
H351 C319 0.930 . S
Li352 N369 1.990 . S
Li352 O412 1.956 . S
Li352 O413 1.970 . S
Li352 O414 1.961 . S
Li353 N377 1.990 . S
Li353 O412 1.970 . S
Li353 O413 1.956 . S
Li353 O415 1.961 . S
Li354 N399 1.990 . S
Li354 O412 1.961 . S
Li354 O414 1.956 . S
Li354 O415 1.970 . S
Li355 N405 1.990 . S
Li355 O413 1.961 . S
Li355 O414 1.970 . S
Li355 O415 1.956 . S
C356 C358 1.348 . S
C356 C359 1.356 . S
C356 O412 1.325 . S
N357 C360 1.314 . S
N357 C361 1.279 . S
C358 C356 1.348 . S
C358 C360 1.353 . S
C358 H416 0.929 . S
C359 C356 1.356 . S
C359 C361 1.358 . S
C359 H417 0.930 . S
C360 N357 1.314 . S
C360 C358 1.353 . S
C360 H418 0.930 . S
C361 N357 1.279 . S
C361 C359 1.358 . S
C361 H419 0.930 . S
C362 C365 1.348 . S
C362 C366 1.356 . S
C362 O413 1.325 . S
C363 N364 1.279 . S
C363 C366 1.358 . S
C363 H420 0.930 . S
N364 C363 1.279 . S
N364 C367 1.314 . S
C365 C362 1.348 . S
C365 C367 1.353 . S
C365 H421 0.929 . S
C366 C362 1.356 . S
C366 C363 1.358 . S
C366 H422 0.930 . S
C367 N364 1.314 . S
C367 C365 1.353 . S
C367 H423 0.930 . S
C368 N369 1.314 . S
C368 C373 1.353 . S
C368 H374 0.930 . S
N369 Li352 1.990 . S
N369 C368 1.314 . S
N369 C371 1.279 . S
C370 C371 1.358 . S
C370 C372 1.356 . S
C370 H424 0.930 . S
C371 N369 1.279 . S
C371 C370 1.358 . S
C371 H375 0.930 . S
C372 C370 1.356 . S
C372 C373 1.348 . S
C373 C368 1.353 . S
C373 C372 1.348 . S
C373 H425 0.929 . S
H374 C368 0.930 . S
H375 C371 0.930 . S
C376 N377 1.314 . S
C376 C378 1.353 . S
C376 H382 0.930 . S
N377 Li353 1.990 . S
N377 C376 1.314 . S
N377 C380 1.279 . S
C378 C376 1.353 . S
C378 C381 1.348 . S
C378 H426 0.929 . S
C379 C380 1.358 . S
C379 C381 1.356 . S
C379 H427 0.930 . S
C380 N377 1.279 . S
C380 C379 1.358 . S
C380 H383 0.930 . S
C381 C378 1.348 . S
C381 C379 1.356 . S
H382 C376 0.930 . S
H383 C380 0.930 . S
C384 C386 1.348 . S
C384 C387 1.356 . S
C384 O414 1.325 . S
N385 C388 1.314 . S
N385 C389 1.279 . S
C386 C384 1.348 . S
C386 C388 1.353 . S
C386 H428 0.929 . S
C387 C384 1.356 . S
C387 C389 1.358 . S
C387 H429 0.930 . S
C388 N385 1.314 . S
C388 C386 1.353 . S
C388 H430 0.930 . S
C389 N385 1.279 . S
C389 C387 1.358 . S
C389 H431 0.930 . S
C390 C391 1.348 . S
C390 C392 1.356 . S
C390 O415 1.325 . S
C391 C390 1.348 . S
C391 C393 1.353 . S
C391 H432 0.929 . S
C392 C390 1.356 . S
C392 C394 1.358 . S
C392 H433 0.930 . S
C393 C391 1.353 . S
C393 N395 1.314 . S
C393 H434 0.930 . S
C394 C392 1.358 . S
C394 N395 1.279 . S
C394 H435 0.930 . S
N395 C393 1.314 . S
N395 C394 1.279 . S
C396 C398 1.353 . S
C396 N399 1.314 . S
C396 H402 0.930 . S
C397 N399 1.279 . S
C397 C400 1.358 . S
C397 H403 0.930 . S
C398 C396 1.353 . S
C398 C401 1.348 . S
C398 H436 0.929 . S
N399 Li354 1.990 . S
N399 C396 1.314 . S
N399 C397 1.279 . S
C400 C397 1.358 . S
C400 C401 1.356 . S
C400 H437 0.930 . S
C401 C398 1.348 . S
C401 C400 1.356 . S
H402 C396 0.930 . S
H403 C397 0.930 . S
C404 N405 1.314 . S
C404 C406 1.353 . S
C404 H410 0.930 . S
N405 Li355 1.990 . S
N405 C404 1.314 . S
N405 C408 1.279 . S
C406 C404 1.353 . S
C406 C409 1.348 . S
C406 H438 0.929 . S
C407 C408 1.358 . S
C407 C409 1.356 . S
C407 H439 0.930 . S
C408 N405 1.279 . S
C408 C407 1.358 . S
C408 H411 0.930 . S
C409 C406 1.348 . S
C409 C407 1.356 . S
H410 C404 0.930 . S
H411 C408 0.930 . S
O412 Li352 1.956 . S
O412 Li353 1.970 . S
O412 Li354 1.961 . S
O412 C356 1.325 . S
O413 Li352 1.970 . S
O413 Li353 1.956 . S
O413 Li355 1.961 . S
O413 C362 1.325 . S
O414 Li352 1.961 . S
O414 Li354 1.956 . S
O414 Li355 1.970 . S
O414 C384 1.325 . S
O415 Li353 1.961 . S
O415 Li354 1.970 . S
O415 Li355 1.956 . S
O415 C390 1.325 . S
H416 C358 0.929 . S
H417 C359 0.930 . S
H418 C360 0.930 . S
H419 C361 0.930 . S
H420 C363 0.930 . S
H421 C365 0.929 . S
H422 C366 0.930 . S
H423 C367 0.930 . S
H424 C370 0.930 . S
H425 C373 0.929 . S
H426 C378 0.929 . S
H427 C379 0.930 . S
H428 C386 0.929 . S
H429 C387 0.930 . S
H430 C388 0.930 . S
H431 C389 0.930 . S
H432 C391 0.929 . S
H433 C392 0.930 . S
H434 C393 0.930 . S
H435 C394 0.930 . S
H436 C398 0.929 . S
H437 C400 0.930 . S
H438 C406 0.929 . S
H439 C407 0.930 . S
Li440 N457 1.990 . S
Li440 O500 1.956 . S
Li440 O501 1.970 . S
Li440 O502 1.961 . S
Li441 N465 1.990 . S
Li441 O500 1.970 . S
Li441 O501 1.956 . S
Li441 O503 1.961 . S
Li442 N487 1.990 . S
Li442 O500 1.961 . S
Li442 O502 1.956 . S
Li442 O503 1.970 . S
Li443 N493 1.990 . S
Li443 O501 1.961 . S
Li443 O502 1.970 . S
Li443 O503 1.956 . S
C444 C446 1.348 . S
C444 C447 1.356 . S
C444 O500 1.325 . S
N445 C448 1.314 . S
N445 C449 1.279 . S
C446 C444 1.348 . S
C446 C448 1.353 . S
C446 H504 0.929 . S
C447 C444 1.356 . S
C447 C449 1.358 . S
C447 H505 0.930 . S
C448 N445 1.314 . S
C448 C446 1.353 . S
C448 H506 0.930 . S
C449 N445 1.279 . S
C449 C447 1.358 . S
C449 H507 0.930 . S
C450 C453 1.348 . S
C450 C454 1.356 . S
C450 O501 1.325 . S
C451 N452 1.263 1_565 S
C451 C454 1.358 . S
C451 H508 0.930 . S
N452 C451 1.263 1_545 S
N452 C455 1.306 1_545 S
C453 C450 1.348 . S
C453 C455 1.353 . S
C453 H509 0.929 . S
C454 C450 1.356 . S
C454 C451 1.358 . S
C454 H510 0.930 . S
C455 N452 1.306 1_565 S
C455 C453 1.353 . S
C455 H511 0.930 1_565 S
C456 N457 1.314 . S
C456 C461 1.353 . S
C456 H462 0.930 . S
N457 Li440 1.990 . S
N457 C456 1.314 . S
N457 C459 1.279 . S
C458 C459 1.358 . S
C458 C460 1.356 . S
C458 H512 0.930 . S
C459 N457 1.279 . S
C459 C458 1.358 . S
C459 H463 0.930 . S
C460 C458 1.356 . S
C460 C461 1.348 . S
C461 C456 1.353 . S
C461 C460 1.348 . S
C461 H513 0.929 . S
H462 C456 0.930 . S
H463 C459 0.930 . S
C464 N465 1.314 . S
C464 C466 1.353 . S
C464 H470 0.930 . S
N465 Li441 1.990 . S
N465 C464 1.314 . S
N465 C468 1.279 . S
C466 C464 1.353 . S
C466 C469 1.348 . S
C466 H514 0.929 . S
C467 C468 1.358 . S
C467 C469 1.356 . S
C467 H515 0.930 . S
C468 N465 1.279 . S
C468 C467 1.358 . S
C468 H471 0.930 . S
C469 C466 1.348 . S
C469 C467 1.356 . S
H470 C464 0.930 . S
H471 C468 0.930 . S
C472 C474 1.348 . S
C472 C475 1.356 . S
C472 O502 1.325 . S
N473 C476 1.314 . S
N473 C477 1.279 . S
C474 C472 1.348 . S
C474 C476 1.353 . S
C474 H516 0.929 . S
C475 C472 1.356 . S
C475 C477 1.358 . S
C475 H517 0.930 . S
C476 N473 1.314 . S
C476 C474 1.353 . S
C476 H518 0.930 . S
C477 N473 1.279 . S
C477 C475 1.358 . S
C477 H519 0.930 . S
C478 C479 1.348 . S
C478 C480 1.356 . S
C478 O503 1.325 . S
C479 C478 1.348 . S
C479 C481 1.353 . S
C479 H520 0.929 . S
C480 C478 1.356 . S
C480 C482 1.358 . S
C480 H521 0.930 . S
C481 C479 1.353 . S
C481 N483 1.314 . S
C481 H522 0.930 . S
C482 C480 1.358 . S
C482 N483 1.279 . S
C482 H523 0.930 . S
N483 C481 1.314 . S
N483 C482 1.279 . S
C484 C486 1.353 . S
C484 N487 1.314 . S
C484 H490 0.930 . S
C485 N487 1.279 . S
C485 C488 1.358 . S
C485 H491 0.930 . S
C486 C484 1.353 . S
C486 C489 1.348 . S
C486 H524 0.929 . S
N487 Li442 1.990 . S
N487 C484 1.314 . S
N487 C485 1.279 . S
C488 C485 1.358 . S
C488 C489 1.356 . S
C488 H525 0.930 . S
C489 C486 1.348 . S
C489 C488 1.356 . S
H490 C484 0.930 . S
H491 C485 0.930 . S
C492 N493 1.314 . S
C492 C494 1.353 . S
C492 H498 0.930 . S
N493 Li443 1.990 . S
N493 C492 1.314 . S
N493 C496 1.279 . S
C494 C492 1.353 . S
C494 C497 1.348 . S
C494 H526 0.929 . S
C495 C496 1.358 . S
C495 C497 1.356 . S
C495 H527 0.930 . S
C496 N493 1.279 . S
C496 C495 1.358 . S
C496 H499 0.930 . S
C497 C494 1.348 . S
C497 C495 1.356 . S
H498 C492 0.930 . S
H499 C496 0.930 . S
O500 Li440 1.956 . S
O500 Li441 1.970 . S
O500 Li442 1.961 . S
O500 C444 1.325 . S
O501 Li440 1.970 . S
O501 Li441 1.956 . S
O501 Li443 1.961 . S
O501 C450 1.325 . S
O502 Li440 1.961 . S
O502 Li442 1.956 . S
O502 Li443 1.970 . S
O502 C472 1.325 . S
O503 Li441 1.961 . S
O503 Li442 1.970 . S
O503 Li443 1.956 . S
O503 C478 1.325 . S
H504 C446 0.929 . S
H505 C447 0.930 . S
H506 C448 0.930 . S
H507 C449 0.930 . S
H508 C451 0.930 . S
H509 C453 0.929 . S
H510 C454 0.930 . S
H511 C455 0.930 1_545 S
H512 C458 0.930 . S
H513 C461 0.929 . S
H514 C466 0.929 . S
H515 C467 0.930 . S
H516 C474 0.929 . S
H517 C475 0.930 . S
H518 C476 0.930 . S
H519 C477 0.930 . S
H520 C479 0.929 . S
H521 C480 0.930 . S
H522 C481 0.930 . S
H523 C482 0.930 . S
H524 C486 0.929 . S
H525 C488 0.930 . S
H526 C494 0.929 . S
H527 C495 0.930 . S
Li528 N545 1.990 . S
Li528 O588 1.956 . S
Li528 O589 1.970 . S
Li528 O590 1.961 . S
Li529 N553 1.990 . S
Li529 O588 1.970 . S
Li529 O589 1.956 . S
Li529 O591 1.961 . S
Li530 N575 1.990 . S
Li530 O588 1.961 . S
Li530 O590 1.956 . S
Li530 O591 1.970 . S
Li531 N581 1.990 . S
Li531 O589 1.961 . S
Li531 O590 1.970 . S
Li531 O591 1.956 . S
C532 C534 1.348 . S
C532 C535 1.356 . S
C532 O588 1.325 . S
N533 C536 1.314 . S
N533 C537 1.279 . S
C534 C532 1.348 . S
C534 C536 1.353 . S
C534 H592 0.929 . S
C535 C532 1.356 . S
C535 C537 1.358 . S
C535 H593 0.930 . S
C536 N533 1.314 . S
C536 C534 1.353 . S
C536 H594 0.930 . S
C537 N533 1.279 . S
C537 C535 1.358 . S
C537 H595 0.930 . S
C538 C541 1.348 . S
C538 C542 1.356 . S
C538 O589 1.325 . S
C539 N540 1.279 . S
C539 C542 1.358 . S
C539 H596 0.930 . S
N540 C539 1.279 . S
N540 C543 1.314 . S
C541 C538 1.348 . S
C541 C543 1.353 . S
C541 H597 0.929 . S
C542 C538 1.356 . S
C542 C539 1.358 . S
C542 H598 0.930 . S
C543 N540 1.314 . S
C543 C541 1.353 . S
C543 H599 0.930 . S
C544 N545 1.314 . S
C544 C549 1.353 . S
C544 H550 0.930 . S
N545 Li528 1.990 . S
N545 C544 1.314 . S
N545 C547 1.279 . S
C546 C547 1.358 . S
C546 C548 1.356 . S
C546 H600 0.930 . S
C547 N545 1.279 . S
C547 C546 1.358 . S
C547 H551 0.930 . S
C548 C546 1.356 . S
C548 C549 1.348 . S
C549 C544 1.353 . S
C549 C548 1.348 . S
C549 H601 0.929 . S
H550 C544 0.930 . S
H551 C547 0.930 . S
C552 N553 1.314 . S
C552 C554 1.353 . S
C552 H558 0.930 . S
N553 Li529 1.990 . S
N553 C552 1.314 . S
N553 C556 1.279 . S
C554 C552 1.353 . S
C554 C557 1.348 . S
C554 H602 0.929 . S
C555 C556 1.358 . S
C555 C557 1.356 . S
C555 H603 0.930 . S
C556 N553 1.279 . S
C556 C555 1.358 . S
C556 H559 0.930 . S
C557 C554 1.348 . S
C557 C555 1.356 . S
H558 C552 0.930 . S
H559 C556 0.930 . S
C560 C562 1.348 . S
C560 C563 1.356 . S
C560 O590 1.325 . S
N561 C564 1.314 . S
N561 C565 1.279 . S
C562 C560 1.348 . S
C562 C564 1.353 . S
C562 H604 0.929 . S
C563 C560 1.356 . S
C563 C565 1.358 . S
C563 H605 0.930 . S
C564 N561 1.314 . S
C564 C562 1.353 . S
C564 H606 0.930 . S
C565 N561 1.279 . S
C565 C563 1.358 . S
C565 H607 0.930 . S
C566 C567 1.348 . S
C566 C568 1.356 . S
C566 O591 1.325 . S
C567 C566 1.348 . S
C567 C569 1.353 . S
C567 H608 0.929 . S
C568 C566 1.356 . S
C568 C570 1.358 . S
C568 H609 0.930 . S
C569 C567 1.353 . S
C569 N571 1.314 . S
C569 H610 0.930 . S
C570 C568 1.358 . S
C570 N571 1.279 . S
C570 H611 0.930 . S
N571 C569 1.314 . S
N571 C570 1.279 . S
C572 C574 1.353 . S
C572 N575 1.314 . S
C572 H578 0.930 . S
C573 N575 1.279 . S
C573 C576 1.358 . S
C573 H579 0.930 . S
C574 C572 1.353 . S
C574 C577 1.348 . S
C574 H612 0.929 . S
N575 Li530 1.990 . S
N575 C572 1.314 . S
N575 C573 1.279 . S
C576 C573 1.358 . S
C576 C577 1.356 . S
C576 H613 0.930 . S
C577 C574 1.348 . S
C577 C576 1.356 . S
H578 C572 0.930 . S
H579 C573 0.930 . S
C580 N581 1.314 . S
C580 C582 1.353 . S
C580 H586 0.930 . S
N581 Li531 1.990 . S
N581 C580 1.314 . S
N581 C584 1.279 . S
C582 C580 1.353 . S
C582 C585 1.348 . S
C582 H614 0.929 . S
C583 C584 1.358 . S
C583 C585 1.356 . S
C583 H615 0.930 . S
C584 N581 1.279 . S
C584 C583 1.358 . S
C584 H587 0.930 . S
C585 C582 1.348 . S
C585 C583 1.356 . S
H586 C580 0.930 . S
H587 C584 0.930 . S
O588 Li528 1.956 . S
O588 Li529 1.970 . S
O588 Li530 1.961 . S
O588 C532 1.325 . S
O589 Li528 1.970 . S
O589 Li529 1.956 . S
O589 Li531 1.961 . S
O589 C538 1.325 . S
O590 Li528 1.961 . S
O590 Li530 1.956 . S
O590 Li531 1.970 . S
O590 C560 1.325 . S
O591 Li529 1.961 . S
O591 Li530 1.970 . S
O591 Li531 1.956 . S
O591 C566 1.325 . S
H592 C534 0.929 . S
H593 C535 0.930 . S
H594 C536 0.930 . S
H595 C537 0.930 . S
H596 C539 0.930 . S
H597 C541 0.929 . S
H598 C542 0.930 . S
H599 C543 0.930 . S
H600 C546 0.930 . S
H601 C549 0.929 . S
H602 C554 0.929 . S
H603 C555 0.930 . S
H604 C562 0.929 . S
H605 C563 0.930 . S
H606 C564 0.930 . S
H607 C565 0.930 . S
H608 C567 0.929 . S
H609 C568 0.930 . S
H610 C569 0.930 . S
H611 C570 0.930 . S
H612 C574 0.929 . S
H613 C576 0.930 . S
H614 C582 0.929 . S
H615 C583 0.930 . S
Li616 N633 1.990 . S
Li616 O676 1.956 . S
Li616 O677 1.970 . S
Li616 O678 1.961 . S
Li617 N641 1.990 . S
Li617 O676 1.970 . S
Li617 O677 1.956 . S
Li617 O679 1.961 . S
Li618 N663 1.990 . S
Li618 O676 1.961 . S
Li618 O678 1.956 . S
Li618 O679 1.970 . S
Li619 N669 1.990 . S
Li619 O677 1.961 . S
Li619 O678 1.970 . S
Li619 O679 1.956 . S
C620 C622 1.348 . S
C620 C623 1.356 . S
C620 O676 1.325 . S
N621 C624 1.314 . S
N621 C625 1.279 . S
C622 C620 1.348 . S
C622 C624 1.353 . S
C622 H680 0.929 . S
C623 C620 1.356 . S
C623 C625 1.358 . S
C623 H681 0.930 . S
C624 N621 1.314 . S
C624 C622 1.353 . S
C624 H682 0.930 . S
C625 N621 1.279 . S
C625 C623 1.358 . S
C625 H683 0.930 . S
C626 C629 1.348 . S
C626 C630 1.356 . S
C626 O677 1.325 . S
C627 N628 1.279 . S
C627 C630 1.358 . S
C627 H684 0.930 . S
N628 C627 1.279 . S
N628 C631 1.314 . S
C629 C626 1.348 . S
C629 C631 1.353 . S
C629 H685 0.929 . S
C630 C626 1.356 . S
C630 C627 1.358 . S
C630 H686 0.930 . S
C631 N628 1.314 . S
C631 C629 1.353 . S
C631 H687 0.930 . S
C632 N633 1.314 . S
C632 C637 1.353 . S
C632 H638 0.930 . S
N633 Li616 1.990 . S
N633 C632 1.314 . S
N633 C635 1.279 . S
C634 C635 1.358 . S
C634 C636 1.356 . S
C634 H688 0.930 . S
C635 N633 1.279 . S
C635 C634 1.358 . S
C635 H639 0.930 . S
C636 C634 1.356 . S
C636 C637 1.348 . S
C637 C632 1.353 . S
C637 C636 1.348 . S
C637 H689 0.929 . S
H638 C632 0.930 . S
H639 C635 0.930 . S
C640 N641 1.314 . S
C640 C642 1.353 . S
C640 H646 0.930 . S
N641 Li617 1.990 . S
N641 C640 1.314 . S
N641 C644 1.279 . S
C642 C640 1.353 . S
C642 C645 1.348 . S
C642 H690 0.929 . S
C643 C644 1.358 . S
C643 C645 1.356 . S
C643 H691 0.930 . S
C644 N641 1.279 . S
C644 C643 1.358 . S
C644 H647 0.930 . S
C645 C642 1.348 . S
C645 C643 1.356 . S
H646 C640 0.930 . S
H647 C644 0.930 . S
C648 C650 1.348 . S
C648 C651 1.356 . S
C648 O678 1.325 . S
N649 C652 1.314 . S
N649 C653 1.279 . S
C650 C648 1.348 . S
C650 C652 1.353 . S
C650 H692 0.929 . S
C651 C648 1.356 . S
C651 C653 1.358 . S
C651 H693 0.930 . S
C652 N649 1.314 . S
C652 C650 1.353 . S
C652 H694 0.930 . S
C653 N649 1.279 . S
C653 C651 1.358 . S
C653 H695 0.930 . S
C654 C655 1.348 . S
C654 C656 1.356 . S
C654 O679 1.325 . S
C655 C654 1.348 . S
C655 C657 1.353 . S
C655 H696 0.929 . S
C656 C654 1.356 . S
C656 C658 1.358 . S
C656 H697 0.930 . S
C657 C655 1.353 . S
C657 N659 1.306 1_545 S
C657 H698 0.930 1_545 S
C658 C656 1.358 . S
C658 N659 1.263 1_545 S
C658 H699 0.930 . S
N659 C657 1.306 1_565 S
N659 C658 1.263 1_565 S
C660 C662 1.353 . S
C660 N663 1.314 . S
C660 H666 0.930 . S
C661 N663 1.279 . S
C661 C664 1.358 . S
C661 H667 0.930 . S
C662 C660 1.353 . S
C662 C665 1.348 . S
C662 H700 0.929 . S
N663 Li618 1.990 . S
N663 C660 1.314 . S
N663 C661 1.279 . S
C664 C661 1.358 . S
C664 C665 1.356 . S
C664 H701 0.930 . S
C665 C662 1.348 . S
C665 C664 1.356 . S
H666 C660 0.930 . S
H667 C661 0.930 . S
C668 N669 1.314 . S
C668 C670 1.353 . S
C668 H674 0.930 . S
N669 Li619 1.990 . S
N669 C668 1.314 . S
N669 C672 1.279 . S
C670 C668 1.353 . S
C670 C673 1.348 . S
C670 H702 0.929 . S
C671 C672 1.358 . S
C671 C673 1.356 . S
C671 H703 0.930 . S
C672 N669 1.279 . S
C672 C671 1.358 . S
C672 H675 0.930 . S
C673 C670 1.348 . S
C673 C671 1.356 . S
H674 C668 0.930 . S
H675 C672 0.930 . S
O676 Li616 1.956 . S
O676 Li617 1.970 . S
O676 Li618 1.961 . S
O676 C620 1.325 . S
O677 Li616 1.970 . S
O677 Li617 1.956 . S
O677 Li619 1.961 . S
O677 C626 1.325 . S
O678 Li616 1.961 . S
O678 Li618 1.956 . S
O678 Li619 1.970 . S
O678 C648 1.325 . S
O679 Li617 1.961 . S
O679 Li618 1.970 . S
O679 Li619 1.956 . S
O679 C654 1.325 . S
H680 C622 0.929 . S
H681 C623 0.930 . S
H682 C624 0.930 . S
H683 C625 0.930 . S
H684 C627 0.930 . S
H685 C629 0.929 . S
H686 C630 0.930 . S
H687 C631 0.930 . S
H688 C634 0.930 . S
H689 C637 0.929 . S
H690 C642 0.929 . S
H691 C643 0.930 . S
H692 C650 0.929 . S
H693 C651 0.930 . S
H694 C652 0.930 . S
H695 C653 0.930 . S
H696 C655 0.929 . S
H697 C656 0.930 . S
H698 C657 0.930 1_565 S
H699 C658 0.930 . S
H700 C662 0.929 . S
H701 C664 0.930 . S
H702 C670 0.929 . S
H703 C671 0.930 . S
Li704 N721 1.990 . S
Li704 O764 1.956 . S
Li704 O765 1.970 . S
Li704 O766 1.961 . S
Li705 N729 1.990 . S
Li705 O764 1.970 . S
Li705 O765 1.956 . S
Li705 O767 1.961 . S
Li706 N751 1.990 . S
Li706 O764 1.961 . S
Li706 O766 1.956 . S
Li706 O767 1.970 . S
Li707 N757 1.990 . S
Li707 O765 1.961 . S
Li707 O766 1.970 . S
Li707 O767 1.956 . S
C708 C710 1.348 . S
C708 C711 1.356 . S
C708 O764 1.325 . S
N709 C712 1.314 . S
N709 C713 1.279 . S
C710 C708 1.348 . S
C710 C712 1.353 . S
C710 H768 0.929 . S
C711 C708 1.356 . S
C711 C713 1.358 . S
C711 H769 0.930 . S
C712 N709 1.314 . S
C712 C710 1.353 . S
C712 H770 0.930 . S
C713 N709 1.279 . S
C713 C711 1.358 . S
C713 H771 0.930 . S
C714 C717 1.348 . S
C714 C718 1.356 . S
C714 O765 1.325 . S
C715 N716 1.279 . S
C715 C718 1.358 . S
C715 H772 0.930 . S
N716 C715 1.279 . S
N716 C719 1.314 . S
C717 C714 1.348 . S
C717 C719 1.353 . S
C717 H773 0.929 . S
C718 C714 1.356 . S
C718 C715 1.358 . S
C718 H774 0.930 . S
C719 N716 1.314 . S
C719 C717 1.353 . S
C719 H775 0.930 . S
C720 N721 1.314 . S
C720 C725 1.353 . S
C720 H726 0.930 . S
N721 Li704 1.990 . S
N721 C720 1.314 . S
N721 C723 1.279 . S
C722 C723 1.358 . S
C722 C724 1.356 . S
C722 H776 0.930 . S
C723 N721 1.279 . S
C723 C722 1.358 . S
C723 H727 0.930 . S
C724 C722 1.356 . S
C724 C725 1.348 . S
C725 C720 1.353 . S
C725 C724 1.348 . S
C725 H777 0.929 . S
H726 C720 0.930 . S
H727 C723 0.930 . S
C728 N729 1.314 . S
C728 C730 1.353 . S
C728 H734 0.930 . S
N729 Li705 1.990 . S
N729 C728 1.314 . S
N729 C732 1.279 . S
C730 C728 1.353 . S
C730 C733 1.348 . S
C730 H778 0.929 . S
C731 C732 1.358 . S
C731 C733 1.356 . S
C731 H779 0.930 . S
C732 N729 1.279 . S
C732 C731 1.358 . S
C732 H735 0.930 . S
C733 C730 1.348 . S
C733 C731 1.356 . S
H734 C728 0.930 . S
H735 C732 0.930 . S
C736 C738 1.348 . S
C736 C739 1.356 . S
C736 O766 1.325 . S
N737 C740 1.314 . S
N737 C741 1.279 . S
C738 C736 1.348 . S
C738 C740 1.353 . S
C738 H780 0.929 . S
C739 C736 1.356 . S
C739 C741 1.358 . S
C739 H781 0.930 . S
C740 N737 1.314 . S
C740 C738 1.353 . S
C740 H782 0.930 . S
C741 N737 1.279 . S
C741 C739 1.358 . S
C741 H783 0.930 . S
C742 C743 1.348 . S
C742 C744 1.356 . S
C742 O767 1.325 . S
C743 C742 1.348 . S
C743 C745 1.353 . S
C743 H784 0.929 . S
C744 C742 1.356 . S
C744 C746 1.358 . S
C744 H785 0.930 . S
C745 C743 1.353 . S
C745 N747 1.314 . S
C745 H786 0.930 . S
C746 C744 1.358 . S
C746 N747 1.279 . S
C746 H787 0.930 . S
N747 C745 1.314 . S
N747 C746 1.279 . S
C748 C750 1.353 . S
C748 N751 1.314 . S
C748 H754 0.930 . S
C749 N751 1.279 . S
C749 C752 1.358 . S
C749 H755 0.930 . S
C750 C748 1.353 . S
C750 C753 1.348 . S
C750 H788 0.929 . S
N751 Li706 1.990 . S
N751 C748 1.314 . S
N751 C749 1.279 . S
C752 C749 1.358 . S
C752 C753 1.356 . S
C752 H789 0.930 . S
C753 C750 1.348 . S
C753 C752 1.356 . S
H754 C748 0.930 . S
H755 C749 0.930 . S
C756 N757 1.314 . S
C756 C758 1.353 . S
C756 H762 0.930 . S
N757 Li707 1.990 . S
N757 C756 1.314 . S
N757 C760 1.279 . S
C758 C756 1.353 . S
C758 C761 1.348 . S
C758 H790 0.929 . S
C759 C760 1.358 . S
C759 C761 1.356 . S
C759 H791 0.930 . S
C760 N757 1.279 . S
C760 C759 1.358 . S
C760 H763 0.930 . S
C761 C758 1.348 . S
C761 C759 1.356 . S
H762 C756 0.930 . S
H763 C760 0.930 . S
O764 Li704 1.956 . S
O764 Li705 1.970 . S
O764 Li706 1.961 . S
O764 C708 1.325 . S
O765 Li704 1.970 . S
O765 Li705 1.956 . S
O765 Li707 1.961 . S
O765 C714 1.325 . S
O766 Li704 1.961 . S
O766 Li706 1.956 . S
O766 Li707 1.970 . S
O766 C736 1.325 . S
O767 Li705 1.961 . S
O767 Li706 1.970 . S
O767 Li707 1.956 . S
O767 C742 1.325 . S
H768 C710 0.929 . S
H769 C711 0.930 . S
H770 C712 0.930 . S
H771 C713 0.930 . S
H772 C715 0.930 . S
H773 C717 0.929 . S
H774 C718 0.930 . S
H775 C719 0.930 . S
H776 C722 0.930 . S
H777 C725 0.929 . S
H778 C730 0.929 . S
H779 C731 0.930 . S
H780 C738 0.929 . S
H781 C739 0.930 . S
H782 C740 0.930 . S
H783 C741 0.930 . S
H784 C743 0.929 . S
H785 C744 0.930 . S
H786 C745 0.930 . S
H787 C746 0.930 . S
H788 C750 0.929 . S
H789 C752 0.930 . S
H790 C758 0.929 . S
H791 C759 0.930 . S
Li792 N809 1.990 . S
Li792 O852 1.956 . S
Li792 O853 1.970 . S
Li792 O854 1.961 . S
Li793 N817 1.990 . S
Li793 O852 1.970 . S
Li793 O853 1.956 . S
Li793 O855 1.961 . S
Li794 N839 1.990 . S
Li794 O852 1.961 . S
Li794 O854 1.956 . S
Li794 O855 1.970 . S
Li795 N845 1.990 . S
Li795 O853 1.961 . S
Li795 O854 1.970 . S
Li795 O855 1.956 . S
C796 C798 1.348 . S
C796 C799 1.356 . S
C796 O852 1.325 . S
N797 C800 1.314 . S
N797 C801 1.279 . S
C798 C796 1.348 . S
C798 C800 1.353 . S
C798 H856 0.929 . S
C799 C796 1.356 . S
C799 C801 1.358 . S
C799 H857 0.930 . S
C800 N797 1.314 . S
C800 C798 1.353 . S
C800 H858 0.930 . S
C801 N797 1.279 . S
C801 C799 1.358 . S
C801 H859 0.930 . S
C802 C805 1.348 . S
C802 C806 1.356 . S
C802 O853 1.325 . S
C803 N804 1.279 . S
C803 C806 1.358 . S
C803 H860 0.930 . S
N804 C803 1.279 . S
N804 C807 1.314 . S
C805 C802 1.348 . S
C805 C807 1.353 . S
C805 H861 0.929 . S
C806 C802 1.356 . S
C806 C803 1.358 . S
C806 H862 0.930 . S
C807 N804 1.314 . S
C807 C805 1.353 . S
C807 H863 0.930 . S
C808 N809 1.314 . S
C808 C813 1.353 . S
C808 H814 0.930 . S
N809 Li792 1.990 . S
N809 C808 1.314 . S
N809 C811 1.279 . S
C810 C811 1.358 . S
C810 C812 1.356 . S
C810 H864 0.930 . S
C811 N809 1.279 . S
C811 C810 1.358 . S
C811 H815 0.930 . S
C812 C810 1.356 . S
C812 C813 1.348 . S
C813 C808 1.353 . S
C813 C812 1.348 . S
C813 H865 0.929 . S
H814 C808 0.930 . S
H815 C811 0.930 . S
C816 N817 1.314 . S
C816 C818 1.353 . S
C816 H822 0.930 . S
N817 Li793 1.990 . S
N817 C816 1.314 . S
N817 C820 1.279 . S
C818 C816 1.353 . S
C818 C821 1.348 . S
C818 H866 0.929 . S
C819 C820 1.358 . S
C819 C821 1.356 . S
C819 H867 0.930 . S
C820 N817 1.279 . S
C820 C819 1.358 . S
C820 H823 0.930 . S
C821 C818 1.348 . S
C821 C819 1.356 . S
H822 C816 0.930 . S
H823 C820 0.930 . S
C824 C826 1.348 . S
C824 C827 1.356 . S
C824 O854 1.325 . S
N825 C828 1.314 . S
N825 C829 1.279 . S
C826 C824 1.348 . S
C826 C828 1.353 . S
C826 H868 0.929 . S
C827 C824 1.356 . S
C827 C829 1.358 . S
C827 H869 0.930 . S
C828 N825 1.314 . S
C828 C826 1.353 . S
C828 H870 0.930 . S
C829 N825 1.279 . S
C829 C827 1.358 . S
C829 H871 0.930 . S
C830 C831 1.348 . S
C830 C832 1.356 . S
C830 O855 1.325 . S
C831 C830 1.348 . S
C831 C833 1.353 . S
C831 H872 0.929 . S
C832 C830 1.356 . S
C832 C834 1.358 . S
C832 H873 0.930 . S
C833 C831 1.353 . S
C833 N835 1.306 1_545 S
C833 H874 0.930 1_545 S
C834 C832 1.358 . S
C834 N835 1.261 1_545 S
C834 H875 0.930 . S
N835 C833 1.306 1_565 S
N835 C834 1.261 1_565 S
C836 C838 1.353 . S
C836 N839 1.314 . S
C836 H842 0.930 . S
C837 N839 1.279 . S
C837 C840 1.358 . S
C837 H843 0.930 . S
C838 C836 1.353 . S
C838 C841 1.348 . S
C838 H876 0.929 . S
N839 Li794 1.990 . S
N839 C836 1.314 . S
N839 C837 1.279 . S
C840 C837 1.358 . S
C840 C841 1.356 . S
C840 H877 0.930 . S
C841 C838 1.348 . S
C841 C840 1.356 . S
H842 C836 0.930 . S
H843 C837 0.930 . S
C844 N845 1.314 . S
C844 C846 1.353 . S
C844 H850 0.930 . S
N845 Li795 1.990 . S
N845 C844 1.314 . S
N845 C848 1.279 . S
C846 C844 1.353 . S
C846 C849 1.348 . S
C846 H878 0.929 . S
C847 C848 1.358 . S
C847 C849 1.356 . S
C847 H879 0.930 . S
C848 N845 1.279 . S
C848 C847 1.358 . S
C848 H851 0.930 . S
C849 C846 1.348 . S
C849 C847 1.356 . S
H850 C844 0.930 . S
H851 C848 0.930 . S
O852 Li792 1.956 . S
O852 Li793 1.970 . S
O852 Li794 1.961 . S
O852 C796 1.325 . S
O853 Li792 1.970 . S
O853 Li793 1.956 . S
O853 Li795 1.961 . S
O853 C802 1.325 . S
O854 Li792 1.961 . S
O854 Li794 1.956 . S
O854 Li795 1.970 . S
O854 C824 1.325 . S
O855 Li793 1.961 . S
O855 Li794 1.970 . S
O855 Li795 1.956 . S
O855 C830 1.325 . S
H856 C798 0.929 . S
H857 C799 0.930 . S
H858 C800 0.930 . S
H859 C801 0.930 . S
H860 C803 0.930 . S
H861 C805 0.929 . S
H862 C806 0.930 . S
H863 C807 0.930 . S
H864 C810 0.930 . S
H865 C813 0.929 . S
H866 C818 0.929 . S
H867 C819 0.930 . S
H868 C826 0.929 . S
H869 C827 0.930 . S
H870 C828 0.930 . S
H871 C829 0.930 . S
H872 C831 0.929 . S
H873 C832 0.930 . S
H874 C833 0.930 1_565 S
H875 C834 0.930 . S
H876 C838 0.929 . S
H877 C840 0.930 . S
H878 C846 0.929 . S
H879 C847 0.930 . S
Li880 N897 1.990 . S
Li880 O940 1.956 . S
Li880 O941 1.970 . S
Li880 O942 1.961 . S
Li881 N905 1.990 . S
Li881 O940 1.970 . S
Li881 O941 1.956 . S
Li881 O943 1.961 . S
Li882 N927 1.990 . S
Li882 O940 1.961 . S
Li882 O942 1.956 . S
Li882 O943 1.970 . S
Li883 N933 1.990 . S
Li883 O941 1.961 . S
Li883 O942 1.970 . S
Li883 O943 1.956 . S
C884 C886 1.348 . S
C884 C887 1.356 . S
C884 O940 1.325 . S
N885 C888 1.314 . S
N885 C889 1.279 . S
C886 C884 1.348 . S
C886 C888 1.353 . S
C886 H944 0.929 . S
C887 C884 1.356 . S
C887 C889 1.358 . S
C887 H945 0.930 . S
C888 N885 1.314 . S
C888 C886 1.353 . S
C888 H946 0.930 . S
C889 N885 1.279 . S
C889 C887 1.358 . S
C889 H947 0.930 . S
C890 C893 1.348 . S
C890 C894 1.356 . S
C890 O941 1.325 . S
C891 N892 1.279 . S
C891 C894 1.358 . S
C891 H948 0.930 . S
N892 C891 1.279 . S
N892 C895 1.314 . S
C893 C890 1.348 . S
C893 C895 1.353 . S
C893 H949 0.929 . S
C894 C890 1.356 . S
C894 C891 1.358 . S
C894 H950 0.930 . S
C895 N892 1.314 . S
C895 C893 1.353 . S
C895 H951 0.930 . S
C896 N897 1.314 . S
C896 C901 1.353 . S
C896 H902 0.930 . S
N897 Li880 1.990 . S
N897 C896 1.314 . S
N897 C899 1.279 . S
C898 C899 1.358 . S
C898 C900 1.356 . S
C898 H952 0.930 . S
C899 N897 1.279 . S
C899 C898 1.358 . S
C899 H903 0.930 . S
C900 C898 1.356 . S
C900 C901 1.348 . S
C901 C896 1.353 . S
C901 C900 1.348 . S
C901 H953 0.929 . S
H902 C896 0.930 . S
H903 C899 0.930 . S
C904 N905 1.314 . S
C904 C906 1.353 . S
C904 H910 0.930 . S
N905 Li881 1.990 . S
N905 C904 1.314 . S
N905 C908 1.279 . S
C906 C904 1.353 . S
C906 C909 1.348 . S
C906 H954 0.929 . S
C907 C908 1.358 . S
C907 C909 1.356 . S
C907 H955 0.930 . S
C908 N905 1.279 . S
C908 C907 1.358 . S
C908 H911 0.930 . S
C909 C906 1.348 . S
C909 C907 1.356 . S
H910 C904 0.930 . S
H911 C908 0.930 . S
C912 C914 1.348 . S
C912 C915 1.356 . S
C912 O942 1.325 . S
N913 C916 1.314 . S
N913 C917 1.279 . S
C914 C912 1.348 . S
C914 C916 1.353 . S
C914 H956 0.929 . S
C915 C912 1.356 . S
C915 C917 1.358 . S
C915 H957 0.930 . S
C916 N913 1.314 . S
C916 C914 1.353 . S
C916 H958 0.930 . S
C917 N913 1.279 . S
C917 C915 1.358 . S
C917 H959 0.930 . S
C918 C919 1.348 . S
C918 C920 1.356 . S
C918 O943 1.325 . S
C919 C918 1.348 . S
C919 C921 1.353 . S
C919 H960 0.929 . S
C920 C918 1.356 . S
C920 C922 1.358 . S
C920 H961 0.930 . S
C921 C919 1.353 . S
C921 N923 1.314 . S
C921 H962 0.930 . S
C922 C920 1.358 . S
C922 N923 1.279 . S
C922 H963 0.930 . S
N923 C921 1.314 . S
N923 C922 1.279 . S
C924 C926 1.353 . S
C924 N927 1.314 . S
C924 H930 0.930 . S
C925 N927 1.279 . S
C925 C928 1.358 . S
C925 H931 0.930 . S
C926 C924 1.353 . S
C926 C929 1.348 . S
C926 H964 0.929 . S
N927 Li882 1.990 . S
N927 C924 1.314 . S
N927 C925 1.279 . S
C928 C925 1.358 . S
C928 C929 1.356 . S
C928 H965 0.930 . S
C929 C926 1.348 . S
C929 C928 1.356 . S
H930 C924 0.930 . S
H931 C925 0.930 . S
C932 N933 1.314 . S
C932 C934 1.353 . S
C932 H938 0.930 . S
N933 Li883 1.990 . S
N933 C932 1.314 . S
N933 C936 1.279 . S
C934 C932 1.353 . S
C934 C937 1.348 . S
C934 H966 0.929 . S
C935 C936 1.358 . S
C935 C937 1.356 . S
C935 H967 0.930 . S
C936 N933 1.279 . S
C936 C935 1.358 . S
C936 H939 0.930 . S
C937 C934 1.348 . S
C937 C935 1.356 . S
H938 C932 0.930 . S
H939 C936 0.930 . S
O940 Li880 1.956 . S
O940 Li881 1.970 . S
O940 Li882 1.961 . S
O940 C884 1.325 . S
O941 Li880 1.970 . S
O941 Li881 1.956 . S
O941 Li883 1.961 . S
O941 C890 1.325 . S
O942 Li880 1.961 . S
O942 Li882 1.956 . S
O942 Li883 1.970 . S
O942 C912 1.325 . S
O943 Li881 1.961 . S
O943 Li882 1.970 . S
O943 Li883 1.956 . S
O943 C918 1.325 . S
H944 C886 0.929 . S
H945 C887 0.930 . S
H946 C888 0.930 . S
H947 C889 0.930 . S
H948 C891 0.930 . S
H949 C893 0.929 . S
H950 C894 0.930 . S
H951 C895 0.930 . S
H952 C898 0.930 . S
H953 C901 0.929 . S
H954 C906 0.929 . S
H955 C907 0.930 . S
H956 C914 0.929 . S
H957 C915 0.930 . S
H958 C916 0.930 . S
H959 C917 0.930 . S
H960 C919 0.929 . S
H961 C920 0.930 . S
H962 C921 0.930 . S
H963 C922 0.930 . S
H964 C926 0.929 . S
H965 C928 0.930 . S
H966 C934 0.929 . S
H967 C935 0.930 . S
Li968 N985 1.990 . S
Li968 O1028 1.956 . S
Li968 O1029 1.970 . S
Li968 O1030 1.961 . S
Li969 N993 1.990 . S
Li969 O1028 1.970 . S
Li969 O1029 1.956 . S
Li969 O1031 1.961 . S
Li970 N1015 1.990 . S
Li970 O1028 1.961 . S
Li970 O1030 1.956 . S
Li970 O1031 1.970 . S
Li971 N1021 1.990 . S
Li971 O1029 1.961 . S
Li971 O1030 1.970 . S
Li971 O1031 1.956 . S
C972 C974 1.348 . S
C972 C975 1.356 . S
C972 O1028 1.325 . S
N973 C976 1.314 . S
N973 C977 1.279 . S
C974 C972 1.348 . S
C974 C976 1.353 . S
C974 H1032 0.929 . S
C975 C972 1.356 . S
C975 C977 1.358 . S
C975 H1033 0.930 . S
C976 N973 1.314 . S
C976 C974 1.353 . S
C976 H1034 0.930 . S
C977 N973 1.279 . S
C977 C975 1.358 . S
C977 H1035 0.930 . S
C978 C981 1.348 . S
C978 C982 1.356 . S
C978 O1029 1.325 . S
C979 N980 1.261 1_565 S
C979 C982 1.358 . S
C979 H1036 0.930 . S
N980 C979 1.261 1_545 S
N980 C983 1.306 1_545 S
C981 C978 1.348 . S
C981 C983 1.353 . S
C981 H1037 0.929 . S
C982 C978 1.356 . S
C982 C979 1.358 . S
C982 H1038 0.930 . S
C983 N980 1.306 1_565 S
C983 C981 1.353 . S
C983 H1039 0.930 1_565 S
C984 N985 1.314 . S
C984 C989 1.353 . S
C984 H990 0.930 . S
N985 Li968 1.990 . S
N985 C984 1.314 . S
N985 C987 1.279 . S
C986 C987 1.358 . S
C986 C988 1.356 . S
C986 H1040 0.930 . S
C987 N985 1.279 . S
C987 C986 1.358 . S
C987 H991 0.930 . S
C988 C986 1.356 . S
C988 C989 1.348 . S
C989 C984 1.353 . S
C989 C988 1.348 . S
C989 H1041 0.929 . S
H990 C984 0.930 . S
H991 C987 0.930 . S
C992 N993 1.314 . S
C992 C994 1.353 . S
C992 H998 0.930 . S
N993 Li969 1.990 . S
N993 C992 1.314 . S
N993 C996 1.279 . S
C994 C992 1.353 . S
C994 C997 1.348 . S
C994 H1042 0.929 . S
C995 C996 1.358 . S
C995 C997 1.356 . S
C995 H1043 0.930 . S
C996 N993 1.279 . S
C996 C995 1.358 . S
C996 H999 0.930 . S
C997 C994 1.348 . S
C997 C995 1.356 . S
H998 C992 0.930 . S
H999 C996 0.930 . S
C1000 C1002 1.348 . S
C1000 C1003 1.356 . S
C1000 O1030 1.325 . S
N1001 C1004 1.314 . S
N1001 C1005 1.279 . S
C1002 C1000 1.348 . S
C1002 C1004 1.353 . S
C1002 H1044 0.929 . S
C1003 C1000 1.356 . S
C1003 C1005 1.358 . S
C1003 H1045 0.930 . S
C1004 N1001 1.314 . S
C1004 C1002 1.353 . S
C1004 H1046 0.930 . S
C1005 N1001 1.279 . S
C1005 C1003 1.358 . S
C1005 H1047 0.930 . S
C1006 C1007 1.348 . S
C1006 C1008 1.356 . S
C1006 O1031 1.325 . S
C1007 C1006 1.348 . S
C1007 C1009 1.353 . S
C1007 H1048 0.929 . S
C1008 C1006 1.356 . S
C1008 C1010 1.358 . S
C1008 H1049 0.930 . S
C1009 C1007 1.353 . S
C1009 N1011 1.314 . S
C1009 H1050 0.930 . S
C1010 C1008 1.358 . S
C1010 N1011 1.279 . S
C1010 H1051 0.930 . S
N1011 C1009 1.314 . S
N1011 C1010 1.279 . S
C1012 C1014 1.353 . S
C1012 N1015 1.314 . S
C1012 H1018 0.930 . S
C1013 N1015 1.279 . S
C1013 C1016 1.358 . S
C1013 H1019 0.930 . S
C1014 C1012 1.353 . S
C1014 C1017 1.348 . S
C1014 H1052 0.929 . S
N1015 Li970 1.990 . S
N1015 C1012 1.314 . S
N1015 C1013 1.279 . S
C1016 C1013 1.358 . S
C1016 C1017 1.356 . S
C1016 H1053 0.930 . S
C1017 C1014 1.348 . S
C1017 C1016 1.356 . S
H1018 C1012 0.930 . S
H1019 C1013 0.930 . S
C1020 N1021 1.314 . S
C1020 C1022 1.353 . S
C1020 H1026 0.930 . S
N1021 Li971 1.990 . S
N1021 C1020 1.314 . S
N1021 C1024 1.279 . S
C1022 C1020 1.353 . S
C1022 C1025 1.348 . S
C1022 H1054 0.929 . S
C1023 C1024 1.358 . S
C1023 C1025 1.356 . S
C1023 H1055 0.930 . S
C1024 N1021 1.279 . S
C1024 C1023 1.358 . S
C1024 H1027 0.930 . S
C1025 C1022 1.348 . S
C1025 C1023 1.356 . S
H1026 C1020 0.930 . S
H1027 C1024 0.930 . S
O1028 Li968 1.956 . S
O1028 Li969 1.970 . S
O1028 Li970 1.961 . S
O1028 C972 1.325 . S
O1029 Li968 1.970 . S
O1029 Li969 1.956 . S
O1029 Li971 1.961 . S
O1029 C978 1.325 . S
O1030 Li968 1.961 . S
O1030 Li970 1.956 . S
O1030 Li971 1.970 . S
O1030 C1000 1.325 . S
O1031 Li969 1.961 . S
O1031 Li970 1.970 . S
O1031 Li971 1.956 . S
O1031 C1006 1.325 . S
H1032 C974 0.929 . S
H1033 C975 0.930 . S
H1034 C976 0.930 . S
H1035 C977 0.930 . S
H1036 C979 0.930 . S
H1037 C981 0.929 . S
H1038 C982 0.930 . S
H1039 C983 0.930 1_545 S
H1040 C986 0.930 . S
H1041 C989 0.929 . S
H1042 C994 0.929 . S
H1043 C995 0.930 . S
H1044 C1002 0.929 . S
H1045 C1003 0.930 . S
H1046 C1004 0.930 . S
H1047 C1005 0.930 . S
H1048 C1007 0.929 . S
H1049 C1008 0.930 . S
H1050 C1009 0.930 . S
H1051 C1010 0.930 . S
H1052 C1014 0.929 . S
H1053 C1016 0.930 . S
H1054 C1022 0.929 . S
H1055 C1023 0.930 . S
Li1056 N1073 1.990 . S
Li1056 O1116 1.956 . S
Li1056 O1117 1.970 . S
Li1056 O1118 1.961 . S
Li1057 N1081 1.990 . S
Li1057 O1116 1.970 . S
Li1057 O1117 1.956 . S
Li1057 O1119 1.961 . S
Li1058 N1103 1.990 . S
Li1058 O1116 1.961 . S
Li1058 O1118 1.956 . S
Li1058 O1119 1.970 . S
Li1059 N1109 1.990 . S
Li1059 O1117 1.961 . S
Li1059 O1118 1.970 . S
Li1059 O1119 1.956 . S
C1060 C1062 1.348 . S
C1060 C1063 1.356 . S
C1060 O1116 1.325 . S
N1061 C1064 1.314 . S
N1061 C1065 1.279 . S
C1062 C1060 1.348 . S
C1062 C1064 1.353 . S
C1062 H1120 0.929 . S
C1063 C1060 1.356 . S
C1063 C1065 1.358 . S
C1063 H1121 0.930 . S
C1064 N1061 1.314 . S
C1064 C1062 1.353 . S
C1064 H1122 0.930 . S
C1065 N1061 1.279 . S
C1065 C1063 1.358 . S
C1065 H1123 0.930 . S
C1066 C1069 1.348 . S
C1066 C1070 1.356 . S
C1066 O1117 1.325 . S
C1067 N1068 1.279 . S
C1067 C1070 1.358 . S
C1067 H1124 0.930 . S
N1068 C1067 1.279 . S
N1068 C1071 1.314 . S
C1069 C1066 1.348 . S
C1069 C1071 1.353 . S
C1069 H1125 0.929 . S
C1070 C1066 1.356 . S
C1070 C1067 1.358 . S
C1070 H1126 0.930 . S
C1071 N1068 1.314 . S
C1071 C1069 1.353 . S
C1071 H1127 0.930 . S
C1072 N1073 1.314 . S
C1072 C1077 1.353 . S
C1072 H1078 0.930 . S
N1073 Li1056 1.990 . S
N1073 C1072 1.314 . S
N1073 C1075 1.279 . S
C1074 C1075 1.358 . S
C1074 C1076 1.356 . S
C1074 H1128 0.930 . S
C1075 N1073 1.279 . S
C1075 C1074 1.358 . S
C1075 H1079 0.930 . S
C1076 C1074 1.356 . S
C1076 C1077 1.348 . S
C1077 C1072 1.353 . S
C1077 C1076 1.348 . S
C1077 H1129 0.929 . S
H1078 C1072 0.930 . S
H1079 C1075 0.930 . S
C1080 N1081 1.314 . S
C1080 C1082 1.353 . S
C1080 H1086 0.930 . S
N1081 Li1057 1.990 . S
N1081 C1080 1.314 . S
N1081 C1084 1.279 . S
C1082 C1080 1.353 . S
C1082 C1085 1.348 . S
C1082 H1130 0.929 . S
C1083 C1084 1.358 . S
C1083 C1085 1.356 . S
C1083 H1131 0.930 . S
C1084 N1081 1.279 . S
C1084 C1083 1.358 . S
C1084 H1087 0.930 . S
C1085 C1082 1.348 . S
C1085 C1083 1.356 . S
H1086 C1080 0.930 . S
H1087 C1084 0.930 . S
C1088 C1090 1.348 . S
C1088 C1091 1.356 . S
C1088 O1118 1.325 . S
N1089 C1092 1.314 . S
N1089 C1093 1.279 . S
C1090 C1088 1.348 . S
C1090 C1092 1.353 . S
C1090 H1132 0.929 . S
C1091 C1088 1.356 . S
C1091 C1093 1.358 . S
C1091 H1133 0.930 . S
C1092 N1089 1.314 . S
C1092 C1090 1.353 . S
C1092 H1134 0.930 . S
C1093 N1089 1.279 . S
C1093 C1091 1.358 . S
C1093 H1135 0.930 . S
C1094 C1095 1.348 . S
C1094 C1096 1.356 . S
C1094 O1119 1.325 . S
C1095 C1094 1.348 . S
C1095 C1097 1.353 . S
C1095 H1136 0.929 . S
C1096 C1094 1.356 . S
C1096 C1098 1.358 . S
C1096 H1137 0.930 . S
C1097 C1095 1.353 . S
C1097 N1099 1.314 . S
C1097 H1138 0.930 . S
C1098 C1096 1.358 . S
C1098 N1099 1.279 . S
C1098 H1139 0.930 . S
N1099 C1097 1.314 . S
N1099 C1098 1.279 . S
C1100 C1102 1.353 . S
C1100 N1103 1.314 . S
C1100 H1106 0.930 . S
C1101 N1103 1.279 . S
C1101 C1104 1.358 . S
C1101 H1107 0.930 . S
C1102 C1100 1.353 . S
C1102 C1105 1.348 . S
C1102 H1140 0.929 . S
N1103 Li1058 1.990 . S
N1103 C1100 1.314 . S
N1103 C1101 1.279 . S
C1104 C1101 1.358 . S
C1104 C1105 1.356 . S
C1104 H1141 0.930 . S
C1105 C1102 1.348 . S
C1105 C1104 1.356 . S
H1106 C1100 0.930 . S
H1107 C1101 0.930 . S
C1108 N1109 1.314 . S
C1108 C1110 1.353 . S
C1108 H1114 0.930 . S
N1109 Li1059 1.990 . S
N1109 C1108 1.314 . S
N1109 C1112 1.279 . S
C1110 C1108 1.353 . S
C1110 C1113 1.348 . S
C1110 H1142 0.929 . S
C1111 C1112 1.358 . S
C1111 C1113 1.356 . S
C1111 H1143 0.930 . S
C1112 N1109 1.279 . S
C1112 C1111 1.358 . S
C1112 H1115 0.930 . S
C1113 C1110 1.348 . S
C1113 C1111 1.356 . S
H1114 C1108 0.930 . S
H1115 C1112 0.930 . S
O1116 Li1056 1.956 . S
O1116 Li1057 1.970 . S
O1116 Li1058 1.961 . S
O1116 C1060 1.325 . S
O1117 Li1056 1.970 . S
O1117 Li1057 1.956 . S
O1117 Li1059 1.961 . S
O1117 C1066 1.325 . S
O1118 Li1056 1.961 . S
O1118 Li1058 1.956 . S
O1118 Li1059 1.970 . S
O1118 C1088 1.325 . S
O1119 Li1057 1.961 . S
O1119 Li1058 1.970 . S
O1119 Li1059 1.956 . S
O1119 C1094 1.325 . S
H1120 C1062 0.929 . S
H1121 C1063 0.930 . S
H1122 C1064 0.930 . S
H1123 C1065 0.930 . S
H1124 C1067 0.930 . S
H1125 C1069 0.929 . S
H1126 C1070 0.930 . S
H1127 C1071 0.930 . S
H1128 C1074 0.930 . S
H1129 C1077 0.929 . S
H1130 C1082 0.929 . S
H1131 C1083 0.930 . S
H1132 C1090 0.929 . S
H1133 C1091 0.930 . S
H1134 C1092 0.930 . S
H1135 C1093 0.930 . S
H1136 C1095 0.929 . S
H1137 C1096 0.930 . S
H1138 C1097 0.930 . S
H1139 C1098 0.930 . S
H1140 C1102 0.929 . S
H1141 C1104 0.930 . S
H1142 C1110 0.929 . S
H1143 C1111 0.930 . S
Li1144 N1161 1.990 . S
Li1144 O1204 1.956 . S
Li1144 O1205 1.970 . S
Li1144 O1206 1.961 . S
Li1145 N1169 1.990 . S
Li1145 O1204 1.970 . S
Li1145 O1205 1.956 . S
Li1145 O1207 1.961 . S
Li1146 N1191 1.990 . S
Li1146 O1204 1.961 . S
Li1146 O1206 1.956 . S
Li1146 O1207 1.970 . S
Li1147 N1197 1.990 . S
Li1147 O1205 1.961 . S
Li1147 O1206 1.970 . S
Li1147 O1207 1.956 . S
C1148 C1150 1.348 . S
C1148 C1151 1.356 . S
C1148 O1204 1.325 . S
N1149 C1152 1.314 . S
N1149 C1153 1.279 . S
C1150 C1148 1.348 . S
C1150 C1152 1.353 . S
C1150 H1208 0.929 . S
C1151 C1148 1.356 . S
C1151 C1153 1.358 . S
C1151 H1209 0.930 . S
C1152 N1149 1.314 . S
C1152 C1150 1.353 . S
C1152 H1210 0.930 . S
C1153 N1149 1.279 . S
C1153 C1151 1.358 . S
C1153 H1211 0.930 . S
C1154 C1157 1.348 . S
C1154 C1158 1.356 . S
C1154 O1205 1.325 . S
C1155 N1156 1.279 . S
C1155 C1158 1.358 . S
C1155 H1212 0.930 . S
N1156 C1155 1.279 . S
N1156 C1159 1.314 . S
C1157 C1154 1.348 . S
C1157 C1159 1.353 . S
C1157 H1213 0.929 . S
C1158 C1154 1.356 . S
C1158 C1155 1.358 . S
C1158 H1214 0.930 . S
C1159 N1156 1.314 . S
C1159 C1157 1.353 . S
C1159 H1215 0.930 . S
C1160 N1161 1.314 . S
C1160 C1165 1.353 . S
C1160 H1166 0.930 . S
N1161 Li1144 1.990 . S
N1161 C1160 1.314 . S
N1161 C1163 1.279 . S
C1162 C1163 1.358 . S
C1162 C1164 1.356 . S
C1162 H1216 0.930 . S
C1163 N1161 1.279 . S
C1163 C1162 1.358 . S
C1163 H1167 0.930 . S
C1164 C1162 1.356 . S
C1164 C1165 1.348 . S
C1165 C1160 1.353 . S
C1165 C1164 1.348 . S
C1165 H1217 0.929 . S
H1166 C1160 0.930 . S
H1167 C1163 0.930 . S
C1168 N1169 1.314 . S
C1168 C1170 1.353 . S
C1168 H1174 0.930 . S
N1169 Li1145 1.990 . S
N1169 C1168 1.314 . S
N1169 C1172 1.279 . S
C1170 C1168 1.353 . S
C1170 C1173 1.348 . S
C1170 H1218 0.929 . S
C1171 C1172 1.358 . S
C1171 C1173 1.356 . S
C1171 H1219 0.930 . S
C1172 N1169 1.279 . S
C1172 C1171 1.358 . S
C1172 H1175 0.930 . S
C1173 C1170 1.348 . S
C1173 C1171 1.356 . S
H1174 C1168 0.930 . S
H1175 C1172 0.930 . S
C1176 C1178 1.348 . S
C1176 C1179 1.356 . S
C1176 O1206 1.325 . S
N1177 C1180 1.306 1_565 S
N1177 C1181 1.261 1_565 S
C1178 C1176 1.348 . S
C1178 C1180 1.353 . S
C1178 H1220 0.929 . S
C1179 C1176 1.356 . S
C1179 C1181 1.358 . S
C1179 H1221 0.930 . S
C1180 N1177 1.306 1_545 S
C1180 C1178 1.353 . S
C1180 H1222 0.930 1_545 S
C1181 N1177 1.261 1_545 S
C1181 C1179 1.358 . S
C1181 H1223 0.930 . S
C1182 C1183 1.348 . S
C1182 C1184 1.356 . S
C1182 O1207 1.325 . S
C1183 C1182 1.348 . S
C1183 C1185 1.353 . S
C1183 H1224 0.929 . S
C1184 C1182 1.356 . S
C1184 C1186 1.358 . S
C1184 H1225 0.930 . S
C1185 C1183 1.353 . S
C1185 N1187 1.314 . S
C1185 H1226 0.930 . S
C1186 C1184 1.358 . S
C1186 N1187 1.279 . S
C1186 H1227 0.930 . S
N1187 C1185 1.314 . S
N1187 C1186 1.279 . S
C1188 C1190 1.353 . S
C1188 N1191 1.314 . S
C1188 H1194 0.930 . S
C1189 N1191 1.279 . S
C1189 C1192 1.358 . S
C1189 H1195 0.930 . S
C1190 C1188 1.353 . S
C1190 C1193 1.348 . S
C1190 H1228 0.929 . S
N1191 Li1146 1.990 . S
N1191 C1188 1.314 . S
N1191 C1189 1.279 . S
C1192 C1189 1.358 . S
C1192 C1193 1.356 . S
C1192 H1229 0.930 . S
C1193 C1190 1.348 . S
C1193 C1192 1.356 . S
H1194 C1188 0.930 . S
H1195 C1189 0.930 . S
C1196 N1197 1.314 . S
C1196 C1198 1.353 . S
C1196 H1202 0.930 . S
N1197 Li1147 1.990 . S
N1197 C1196 1.314 . S
N1197 C1200 1.279 . S
C1198 C1196 1.353 . S
C1198 C1201 1.348 . S
C1198 H1230 0.929 . S
C1199 C1200 1.358 . S
C1199 C1201 1.356 . S
C1199 H1231 0.930 . S
C1200 N1197 1.279 . S
C1200 C1199 1.358 . S
C1200 H1203 0.930 . S
C1201 C1198 1.348 . S
C1201 C1199 1.356 . S
H1202 C1196 0.930 . S
H1203 C1200 0.930 . S
O1204 Li1144 1.956 . S
O1204 Li1145 1.970 . S
O1204 Li1146 1.961 . S
O1204 C1148 1.325 . S
O1205 Li1144 1.970 . S
O1205 Li1145 1.956 . S
O1205 Li1147 1.961 . S
O1205 C1154 1.325 . S
O1206 Li1144 1.961 . S
O1206 Li1146 1.956 . S
O1206 Li1147 1.970 . S
O1206 C1176 1.325 . S
O1207 Li1145 1.961 . S
O1207 Li1146 1.970 . S
O1207 Li1147 1.956 . S
O1207 C1182 1.325 . S
H1208 C1150 0.929 . S
H1209 C1151 0.930 . S
H1210 C1152 0.930 . S
H1211 C1153 0.930 . S
H1212 C1155 0.930 . S
H1213 C1157 0.929 . S
H1214 C1158 0.930 . S
H1215 C1159 0.930 . S
H1216 C1162 0.930 . S
H1217 C1165 0.929 . S
H1218 C1170 0.929 . S
H1219 C1171 0.930 . S
H1220 C1178 0.929 . S
H1221 C1179 0.930 . S
H1222 C1180 0.930 1_565 S
H1223 C1181 0.930 . S
H1224 C1183 0.929 . S
H1225 C1184 0.930 . S
H1226 C1185 0.930 . S
H1227 C1186 0.930 . S
H1228 C1190 0.929 . S
H1229 C1192 0.930 . S
H1230 C1198 0.929 . S
H1231 C1199 0.930 . S
Li1232 N1249 1.990 . S
Li1232 O1292 1.956 . S
Li1232 O1293 1.970 . S
Li1232 O1294 1.961 . S
Li1233 N1257 1.990 . S
Li1233 O1292 1.970 . S
Li1233 O1293 1.956 . S
Li1233 O1295 1.961 . S
Li1234 N1279 1.990 . S
Li1234 O1292 1.961 . S
Li1234 O1294 1.956 . S
Li1234 O1295 1.970 . S
Li1235 N1285 1.990 . S
Li1235 O1293 1.961 . S
Li1235 O1294 1.970 . S
Li1235 O1295 1.956 . S
C1236 C1238 1.348 . S
C1236 C1239 1.356 . S
C1236 O1292 1.325 . S
N1237 C1240 1.314 . S
N1237 C1241 1.279 . S
C1238 C1236 1.348 . S
C1238 C1240 1.353 . S
C1238 H1296 0.929 . S
C1239 C1236 1.356 . S
C1239 C1241 1.358 . S
C1239 H1297 0.930 . S
C1240 N1237 1.314 . S
C1240 C1238 1.353 . S
C1240 H1298 0.930 . S
C1241 N1237 1.279 . S
C1241 C1239 1.358 . S
C1241 H1299 0.930 . S
C1242 C1245 1.348 . S
C1242 C1246 1.356 . S
C1242 O1293 1.325 . S
C1243 N1244 1.279 . S
C1243 C1246 1.358 . S
C1243 H1300 0.930 . S
N1244 C1243 1.279 . S
N1244 C1247 1.314 . S
C1245 C1242 1.348 . S
C1245 C1247 1.353 . S
C1245 H1301 0.929 . S
C1246 C1242 1.356 . S
C1246 C1243 1.358 . S
C1246 H1302 0.930 . S
C1247 N1244 1.314 . S
C1247 C1245 1.353 . S
C1247 H1303 0.930 . S
C1248 N1249 1.314 . S
C1248 C1253 1.353 . S
C1248 H1254 0.930 . S
N1249 Li1232 1.990 . S
N1249 C1248 1.314 . S
N1249 C1251 1.279 . S
C1250 C1251 1.358 . S
C1250 C1252 1.356 . S
C1250 H1304 0.930 . S
C1251 N1249 1.279 . S
C1251 C1250 1.358 . S
C1251 H1255 0.930 . S
C1252 C1250 1.356 . S
C1252 C1253 1.348 . S
C1253 C1248 1.353 . S
C1253 C1252 1.348 . S
C1253 H1305 0.929 . S
H1254 C1248 0.930 . S
H1255 C1251 0.930 . S
C1256 N1257 1.314 . S
C1256 C1258 1.353 . S
C1256 H1262 0.930 . S
N1257 Li1233 1.990 . S
N1257 C1256 1.314 . S
N1257 C1260 1.279 . S
C1258 C1256 1.353 . S
C1258 C1261 1.348 . S
C1258 H1306 0.929 . S
C1259 C1260 1.358 . S
C1259 C1261 1.356 . S
C1259 H1307 0.930 . S
C1260 N1257 1.279 . S
C1260 C1259 1.358 . S
C1260 H1263 0.930 . S
C1261 C1258 1.348 . S
C1261 C1259 1.356 . S
H1262 C1256 0.930 . S
H1263 C1260 0.930 . S
C1264 C1266 1.348 . S
C1264 C1267 1.356 . S
C1264 O1294 1.325 . S
N1265 C1268 1.314 . S
N1265 C1269 1.279 . S
C1266 C1264 1.348 . S
C1266 C1268 1.353 . S
C1266 H1308 0.929 . S
C1267 C1264 1.356 . S
C1267 C1269 1.358 . S
C1267 H1309 0.930 . S
C1268 N1265 1.314 . S
C1268 C1266 1.353 . S
C1268 H1310 0.930 . S
C1269 N1265 1.279 . S
C1269 C1267 1.358 . S
C1269 H1311 0.930 . S
C1270 C1271 1.348 . S
C1270 C1272 1.356 . S
C1270 O1295 1.325 . S
C1271 C1270 1.348 . S
C1271 C1273 1.353 . S
C1271 H1312 0.929 . S
C1272 C1270 1.356 . S
C1272 C1274 1.358 . S
C1272 H1313 0.930 . S
C1273 C1271 1.353 . S
C1273 N1275 1.314 . S
C1273 H1314 0.930 . S
C1274 C1272 1.358 . S
C1274 N1275 1.279 . S
C1274 H1315 0.930 . S
N1275 C1273 1.314 . S
N1275 C1274 1.279 . S
C1276 C1278 1.353 . S
C1276 N1279 1.314 . S
C1276 H1282 0.930 . S
C1277 N1279 1.279 . S
C1277 C1280 1.358 . S
C1277 H1283 0.930 . S
C1278 C1276 1.353 . S
C1278 C1281 1.348 . S
C1278 H1316 0.929 . S
N1279 Li1234 1.990 . S
N1279 C1276 1.314 . S
N1279 C1277 1.279 . S
C1280 C1277 1.358 . S
C1280 C1281 1.356 . S
C1280 H1317 0.930 . S
C1281 C1278 1.348 . S
C1281 C1280 1.356 . S
H1282 C1276 0.930 . S
H1283 C1277 0.930 . S
C1284 N1285 1.314 . S
C1284 C1286 1.353 . S
C1284 H1290 0.930 . S
N1285 Li1235 1.990 . S
N1285 C1284 1.314 . S
N1285 C1288 1.279 . S
C1286 C1284 1.353 . S
C1286 C1289 1.348 . S
C1286 H1318 0.929 . S
C1287 C1288 1.358 . S
C1287 C1289 1.356 . S
C1287 H1319 0.930 . S
C1288 N1285 1.279 . S
C1288 C1287 1.358 . S
C1288 H1291 0.930 . S
C1289 C1286 1.348 . S
C1289 C1287 1.356 . S
H1290 C1284 0.930 . S
H1291 C1288 0.930 . S
O1292 Li1232 1.956 . S
O1292 Li1233 1.970 . S
O1292 Li1234 1.961 . S
O1292 C1236 1.325 . S
O1293 Li1232 1.970 . S
O1293 Li1233 1.956 . S
O1293 Li1235 1.961 . S
O1293 C1242 1.325 . S
O1294 Li1232 1.961 . S
O1294 Li1234 1.956 . S
O1294 Li1235 1.970 . S
O1294 C1264 1.325 . S
O1295 Li1233 1.961 . S
O1295 Li1234 1.970 . S
O1295 Li1235 1.956 . S
O1295 C1270 1.325 . S
H1296 C1238 0.929 . S
H1297 C1239 0.930 . S
H1298 C1240 0.930 . S
H1299 C1241 0.930 . S
H1300 C1243 0.930 . S
H1301 C1245 0.929 . S
H1302 C1246 0.930 . S
H1303 C1247 0.930 . S
H1304 C1250 0.930 . S
H1305 C1253 0.929 . S
H1306 C1258 0.929 . S
H1307 C1259 0.930 . S
H1308 C1266 0.929 . S
H1309 C1267 0.930 . S
H1310 C1268 0.930 . S
H1311 C1269 0.930 . S
H1312 C1271 0.929 . S
H1313 C1272 0.930 . S
H1314 C1273 0.930 . S
H1315 C1274 0.930 . S
H1316 C1278 0.929 . S
H1317 C1280 0.930 . S
H1318 C1286 0.929 . S
H1319 C1287 0.930 . S
Li1320 N1337 1.990 . S
Li1320 O1380 1.956 . S
Li1320 O1381 1.970 . S
Li1320 O1382 1.961 . S
Li1321 N1345 1.990 . S
Li1321 O1380 1.970 . S
Li1321 O1381 1.956 . S
Li1321 O1383 1.961 . S
Li1322 N1367 1.990 . S
Li1322 O1380 1.961 . S
Li1322 O1382 1.956 . S
Li1322 O1383 1.970 . S
Li1323 N1373 1.990 . S
Li1323 O1381 1.961 . S
Li1323 O1382 1.970 . S
Li1323 O1383 1.956 . S
C1324 C1326 1.348 . S
C1324 C1327 1.356 . S
C1324 O1380 1.325 . S
N1325 C1328 1.306 1_545 S
N1325 C1329 1.261 1_545 S
C1326 C1324 1.348 . S
C1326 C1328 1.353 . S
C1326 H1384 0.929 . S
C1327 C1324 1.356 . S
C1327 C1329 1.358 . S
C1327 H1385 0.930 . S
C1328 N1325 1.306 1_565 S
C1328 C1326 1.353 . S
C1328 H1386 0.930 1_565 S
C1329 N1325 1.261 1_565 S
C1329 C1327 1.358 . S
C1329 H1387 0.930 . S
C1330 C1333 1.348 . S
C1330 C1334 1.356 . S
C1330 O1381 1.325 . S
C1331 N1332 1.279 . S
C1331 C1334 1.358 . S
C1331 H1388 0.930 . S
N1332 C1331 1.279 . S
N1332 C1335 1.314 . S
C1333 C1330 1.348 . S
C1333 C1335 1.353 . S
C1333 H1389 0.929 . S
C1334 C1330 1.356 . S
C1334 C1331 1.358 . S
C1334 H1390 0.930 . S
C1335 N1332 1.314 . S
C1335 C1333 1.353 . S
C1335 H1391 0.930 . S
C1336 N1337 1.314 . S
C1336 C1341 1.353 . S
C1336 H1342 0.930 . S
N1337 Li1320 1.990 . S
N1337 C1336 1.314 . S
N1337 C1339 1.279 . S
C1338 C1339 1.358 . S
C1338 C1340 1.356 . S
C1338 H1392 0.930 . S
C1339 N1337 1.279 . S
C1339 C1338 1.358 . S
C1339 H1343 0.930 . S
C1340 C1338 1.356 . S
C1340 C1341 1.348 . S
C1341 C1336 1.353 . S
C1341 C1340 1.348 . S
C1341 H1393 0.929 . S
H1342 C1336 0.930 . S
H1343 C1339 0.930 . S
C1344 N1345 1.314 . S
C1344 C1346 1.353 . S
C1344 H1350 0.930 . S
N1345 Li1321 1.990 . S
N1345 C1344 1.314 . S
N1345 C1348 1.279 . S
C1346 C1344 1.353 . S
C1346 C1349 1.348 . S
C1346 H1394 0.929 . S
C1347 C1348 1.358 . S
C1347 C1349 1.356 . S
C1347 H1395 0.930 . S
C1348 N1345 1.279 . S
C1348 C1347 1.358 . S
C1348 H1351 0.930 . S
C1349 C1346 1.348 . S
C1349 C1347 1.356 . S
H1350 C1344 0.930 . S
H1351 C1348 0.930 . S
C1352 C1354 1.348 . S
C1352 C1355 1.356 . S
C1352 O1382 1.325 . S
N1353 C1356 1.314 . S
N1353 C1357 1.279 . S
C1354 C1352 1.348 . S
C1354 C1356 1.353 . S
C1354 H1396 0.929 . S
C1355 C1352 1.356 . S
C1355 C1357 1.358 . S
C1355 H1397 0.930 . S
C1356 N1353 1.314 . S
C1356 C1354 1.353 . S
C1356 H1398 0.930 . S
C1357 N1353 1.279 . S
C1357 C1355 1.358 . S
C1357 H1399 0.930 . S
C1358 C1359 1.348 . S
C1358 C1360 1.356 . S
C1358 O1383 1.325 . S
C1359 C1358 1.348 . S
C1359 C1361 1.353 . S
C1359 H1400 0.929 . S
C1360 C1358 1.356 . S
C1360 C1362 1.358 . S
C1360 H1401 0.930 . S
C1361 C1359 1.353 . S
C1361 N1363 1.314 . S
C1361 H1402 0.930 . S
C1362 C1360 1.358 . S
C1362 N1363 1.279 . S
C1362 H1403 0.930 . S
N1363 C1361 1.314 . S
N1363 C1362 1.279 . S
C1364 C1366 1.353 . S
C1364 N1367 1.314 . S
C1364 H1370 0.930 . S
C1365 N1367 1.279 . S
C1365 C1368 1.358 . S
C1365 H1371 0.930 . S
C1366 C1364 1.353 . S
C1366 C1369 1.348 . S
C1366 H1404 0.929 . S
N1367 Li1322 1.990 . S
N1367 C1364 1.314 . S
N1367 C1365 1.279 . S
C1368 C1365 1.358 . S
C1368 C1369 1.356 . S
C1368 H1405 0.930 . S
C1369 C1366 1.348 . S
C1369 C1368 1.356 . S
H1370 C1364 0.930 . S
H1371 C1365 0.930 . S
C1372 N1373 1.314 . S
C1372 C1374 1.353 . S
C1372 H1378 0.930 . S
N1373 Li1323 1.990 . S
N1373 C1372 1.314 . S
N1373 C1376 1.279 . S
C1374 C1372 1.353 . S
C1374 C1377 1.348 . S
C1374 H1406 0.929 . S
C1375 C1376 1.358 . S
C1375 C1377 1.356 . S
C1375 H1407 0.930 . S
C1376 N1373 1.279 . S
C1376 C1375 1.358 . S
C1376 H1379 0.930 . S
C1377 C1374 1.348 . S
C1377 C1375 1.356 . S
H1378 C1372 0.930 . S
H1379 C1376 0.930 . S
O1380 Li1320 1.956 . S
O1380 Li1321 1.970 . S
O1380 Li1322 1.961 . S
O1380 C1324 1.325 . S
O1381 Li1320 1.970 . S
O1381 Li1321 1.956 . S
O1381 Li1323 1.961 . S
O1381 C1330 1.325 . S
O1382 Li1320 1.961 . S
O1382 Li1322 1.956 . S
O1382 Li1323 1.970 . S
O1382 C1352 1.325 . S
O1383 Li1321 1.961 . S
O1383 Li1322 1.970 . S
O1383 Li1323 1.956 . S
O1383 C1358 1.325 . S
H1384 C1326 0.929 . S
H1385 C1327 0.930 . S
H1386 C1328 0.930 1_545 S
H1387 C1329 0.930 . S
H1388 C1331 0.930 . S
H1389 C1333 0.929 . S
H1390 C1334 0.930 . S
H1391 C1335 0.930 . S
H1392 C1338 0.930 . S
H1393 C1341 0.929 . S
H1394 C1346 0.929 . S
H1395 C1347 0.930 . S
H1396 C1354 0.929 . S
H1397 C1355 0.930 . S
H1398 C1356 0.930 . S
H1399 C1357 0.930 . S
H1400 C1359 0.929 . S
H1401 C1360 0.930 . S
H1402 C1361 0.930 . S
H1403 C1362 0.930 . S
H1404 C1366 0.929 . S
H1405 C1368 0.930 . S
H1406 C1374 0.929 . S
H1407 C1375 0.930 . S
H1408 C1416 0.950 . S
H1409 C1421 0.950 . S
H1410 C1418 0.950 . S
H1411 C1420 0.950 . S
H1412 C1422 0.950 . S
H1413 C1424 0.950 . S
H1414 C1426 0.950 . S
H1415 C1427 0.950 . S
C1416 H1408 0.950 . S
C1416 C1417 1.386 . S
C1416 C1418 1.391 . S
C1417 C1416 1.386 . S
C1417 C1421 1.393 . S
C1418 H1410 0.950 . S
C1418 C1416 1.391 . S
C1418 C1419 1.400 . S
C1419 C1418 1.400 . S
C1419 C1420 1.398 . S
C1419 C1425 1.491 . S
C1420 H1411 0.950 . S
C1420 C1419 1.398 . S
C1420 C1421 1.391 . S
C1421 H1409 0.950 . S
C1421 C1417 1.393 . S
C1421 C1420 1.391 . S
C1422 H1412 0.950 . S
C1422 C1423 1.386 . S
C1422 C1424 1.391 . S
C1423 C1422 1.386 . S
C1423 C1427 1.393 . S
C1424 H1413 0.950 . S
C1424 C1422 1.391 . S
C1424 C1425 1.400 . S
C1425 C1419 1.491 . S
C1425 C1424 1.400 . S
C1425 C1426 1.398 . S
C1426 H1414 0.950 . S
C1426 C1425 1.398 . S
C1426 C1427 1.391 . S
C1427 H1415 0.950 . S
C1427 C1423 1.393 . S
C1427 C1426 1.391 . S
H1428 C1436 0.950 . S
H1429 C1441 0.950 . S
H1430 C1438 0.950 . S
H1431 C1440 0.950 . S
H1432 C1442 0.950 . S
H1433 C1444 0.950 . S
H1434 C1446 0.950 . S
H1435 C1447 0.950 . S
C1436 H1428 0.950 . S
C1436 C1437 1.386 . S
C1436 C1438 1.391 . S
C1437 C1436 1.386 . S
C1437 C1441 1.393 . S
C1438 H1430 0.950 . S
C1438 C1436 1.391 . S
C1438 C1439 1.400 . S
C1439 C1438 1.400 . S
C1439 C1440 1.398 . S
C1439 C1445 1.491 . S
C1440 H1431 0.950 . S
C1440 C1439 1.398 . S
C1440 C1441 1.391 . S
C1441 H1429 0.950 . S
C1441 C1437 1.393 . S
C1441 C1440 1.391 . S
C1442 H1432 0.950 . S
C1442 C1443 1.386 . S
C1442 C1444 1.391 . S
C1443 C1442 1.386 . S
C1443 C1447 1.393 . S
C1444 H1433 0.950 . S
C1444 C1442 1.391 . S
C1444 C1445 1.400 . S
C1445 C1439 1.491 . S
C1445 C1444 1.400 . S
C1445 C1446 1.398 . S
C1446 H1434 0.950 . S
C1446 C1445 1.398 . S
C1446 C1447 1.391 . S
C1447 H1435 0.950 . S
C1447 C1443 1.393 . S
C1447 C1446 1.391 . S
H1448 C1456 0.950 . S
H1449 C1461 0.950 . S
H1450 C1458 0.950 . S
H1451 C1460 0.950 . S
H1452 C1462 0.950 . S
H1453 C1464 0.950 . S
H1454 C1466 0.950 . S
H1455 C1467 0.950 . S
C1456 H1448 0.950 . S
C1456 C1457 1.386 . S
C1456 C1458 1.391 . S
C1457 C1456 1.386 . S
C1457 C1461 1.393 . S
C1458 H1450 0.950 . S
C1458 C1456 1.391 . S
C1458 C1459 1.400 . S
C1459 C1458 1.400 . S
C1459 C1460 1.398 . S
C1459 C1465 1.491 . S
C1460 H1451 0.950 . S
C1460 C1459 1.398 . S
C1460 C1461 1.391 . S
C1461 H1449 0.950 . S
C1461 C1457 1.393 . S
C1461 C1460 1.391 . S
C1462 H1452 0.950 . S
C1462 C1463 1.386 . S
C1462 C1464 1.391 . S
C1463 C1462 1.386 . S
C1463 C1467 1.393 . S
C1464 H1453 0.950 . S
C1464 C1462 1.391 . S
C1464 C1465 1.400 . S
C1465 C1459 1.491 . S
C1465 C1464 1.400 . S
C1465 C1466 1.398 . S
C1466 H1454 0.950 . S
C1466 C1465 1.398 . S
C1466 C1467 1.391 . S
C1467 H1455 0.950 . S
C1467 C1463 1.393 . S
C1467 C1466 1.391 . S
H1468 C1476 0.950 . S
H1469 C1481 0.950 . S
H1470 C1478 0.950 . S
H1471 C1480 0.950 . S
H1472 C1482 0.950 . S
H1473 C1484 0.950 . S
H1474 C1486 0.950 . S
H1475 C1487 0.950 . S
C1476 H1468 0.950 . S
C1476 C1477 1.386 . S
C1476 C1478 1.391 . S
C1477 C1476 1.386 . S
C1477 C1481 1.393 . S
C1478 H1470 0.950 . S
C1478 C1476 1.391 . S
C1478 C1479 1.400 . S
C1479 C1478 1.400 . S
C1479 C1480 1.398 . S
C1479 C1485 1.491 1_455 S
C1480 H1471 0.950 . S
C1480 C1479 1.398 . S
C1480 C1481 1.391 . S
C1481 H1469 0.950 . S
C1481 C1477 1.393 . S
C1481 C1480 1.391 . S
C1482 H1472 0.950 . S
C1482 C1483 1.386 . S
C1482 C1484 1.391 . S
C1483 C1482 1.386 . S
C1483 C1487 1.393 . S
C1484 H1473 0.950 . S
C1484 C1482 1.391 . S
C1484 C1485 1.400 . S
C1485 C1479 1.491 1_655 S
C1485 C1484 1.400 . S
C1485 C1486 1.398 . S
C1486 H1474 0.950 . S
C1486 C1485 1.398 . S
C1486 C1487 1.391 . S
C1487 H1475 0.950 . S
C1487 C1483 1.393 . S
C1487 C1486 1.391 . S
H1488 C1496 0.950 . S
H1489 C1501 0.950 . S
H1490 C1498 0.950 . S
H1491 C1500 0.950 . S
H1492 C1502 0.950 . S
H1493 C1504 0.950 . S
H1494 C1506 0.950 . S
H1495 C1507 0.950 . S
C1496 H1488 0.950 . S
C1496 C1497 1.386 . S
C1496 C1498 1.391 . S
C1497 C1496 1.386 . S
C1497 C1501 1.393 . S
C1498 H1490 0.950 . S
C1498 C1496 1.391 . S
C1498 C1499 1.400 . S
C1499 C1498 1.400 . S
C1499 C1500 1.398 . S
C1499 C1505 1.491 . S
C1500 H1491 0.950 . S
C1500 C1499 1.398 . S
C1500 C1501 1.391 . S
C1501 H1489 0.950 . S
C1501 C1497 1.393 . S
C1501 C1500 1.391 . S
C1502 H1492 0.950 . S
C1502 C1503 1.386 . S
C1502 C1504 1.391 . S
C1503 C1502 1.386 . S
C1503 C1507 1.393 . S
C1504 H1493 0.950 . S
C1504 C1502 1.391 . S
C1504 C1505 1.400 . S
C1505 C1499 1.491 . S
C1505 C1504 1.400 . S
C1505 C1506 1.398 . S
C1506 H1494 0.950 . S
C1506 C1505 1.398 . S
C1506 C1507 1.391 . S
C1507 H1495 0.950 . S
C1507 C1503 1.393 . S
C1507 C1506 1.391 . S
H1508 C1516 0.950 . S
H1509 C1521 0.950 . S
H1510 C1518 0.950 . S
H1511 C1520 0.950 . S
H1512 C1522 0.950 . S
H1513 C1524 0.950 . S
H1514 C1526 0.950 . S
H1515 C1527 0.950 . S
C1516 H1508 0.950 . S
C1516 C1517 1.386 . S
C1516 C1518 1.391 . S
C1517 C1516 1.386 . S
C1517 C1521 1.393 . S
C1518 H1510 0.950 . S
C1518 C1516 1.391 . S
C1518 C1519 1.400 . S
C1519 C1518 1.400 . S
C1519 C1520 1.398 . S
C1519 C1525 1.491 1_655 S
C1520 H1511 0.950 . S
C1520 C1519 1.398 . S
C1520 C1521 1.391 . S
C1521 H1509 0.950 . S
C1521 C1517 1.393 . S
C1521 C1520 1.391 . S
C1522 H1512 0.950 . S
C1522 C1523 1.386 . S
C1522 C1524 1.391 . S
C1523 C1522 1.386 . S
C1523 C1527 1.393 . S
C1524 H1513 0.950 . S
C1524 C1522 1.391 . S
C1524 C1525 1.400 . S
C1525 C1519 1.491 1_455 S
C1525 C1524 1.400 . S
C1525 C1526 1.398 . S
C1526 H1514 0.950 . S
C1526 C1525 1.398 . S
C1526 C1527 1.391 . S
C1527 H1515 0.950 . S
C1527 C1523 1.393 . S
C1527 C1526 1.391 . S
H1528 C1536 0.950 . S
H1529 C1541 0.950 . S
H1530 C1538 0.950 . S
H1531 C1540 0.950 . S
H1532 C1542 0.950 . S
H1533 C1544 0.950 . S
H1534 C1546 0.950 . S
H1535 C1547 0.950 . S
C1536 H1528 0.950 . S
C1536 C1537 1.386 . S
C1536 C1538 1.391 . S
C1537 C1536 1.386 . S
C1537 C1541 1.393 . S
C1538 H1530 0.950 . S
C1538 C1536 1.391 . S
C1538 C1539 1.400 . S
C1539 C1538 1.400 . S
C1539 C1540 1.398 . S
C1539 C1545 1.491 . S
C1540 H1531 0.950 . S
C1540 C1539 1.398 . S
C1540 C1541 1.391 . S
C1541 H1529 0.950 . S
C1541 C1537 1.393 . S
C1541 C1540 1.391 . S
C1542 H1532 0.950 . S
C1542 C1543 1.386 . S
C1542 C1544 1.391 . S
C1543 C1542 1.386 . S
C1543 C1547 1.393 . S
C1544 H1533 0.950 . S
C1544 C1542 1.391 . S
C1544 C1545 1.400 . S
C1545 C1539 1.491 . S
C1545 C1544 1.400 . S
C1545 C1546 1.398 . S
C1546 H1534 0.950 . S
C1546 C1545 1.398 . S
C1546 C1547 1.391 . S
C1547 H1535 0.950 . S
C1547 C1543 1.393 . S
C1547 C1546 1.391 . S
H1548 C1556 0.950 . S
H1549 C1561 0.950 . S
H1550 C1558 0.950 . S
H1551 C1560 0.950 . S
H1552 C1562 0.950 . S
H1553 C1564 0.950 . S
H1554 C1566 0.950 . S
H1555 C1567 0.950 . S
C1556 H1548 0.950 . S
C1556 C1557 1.386 . S
C1556 C1558 1.391 . S
C1557 C1556 1.386 . S
C1557 C1561 1.393 . S
C1558 H1550 0.950 . S
C1558 C1556 1.391 . S
C1558 C1559 1.400 . S
C1559 C1558 1.400 . S
C1559 C1560 1.398 . S
C1559 C1565 1.491 . S
C1560 H1551 0.950 . S
C1560 C1559 1.398 . S
C1560 C1561 1.391 . S
C1561 H1549 0.950 . S
C1561 C1557 1.393 . S
C1561 C1560 1.391 . S
C1562 H1552 0.950 . S
C1562 C1563 1.386 . S
C1562 C1564 1.391 . S
C1563 C1562 1.386 . S
C1563 C1567 1.393 . S
C1564 H1553 0.950 . S
C1564 C1562 1.391 . S
C1564 C1565 1.400 . S
C1565 C1559 1.491 . S
C1565 C1564 1.400 . S
C1565 C1566 1.398 . S
C1566 H1554 0.950 . S
C1566 C1565 1.398 . S
C1566 C1567 1.391 . S
C1567 H1555 0.950 . S
C1567 C1563 1.393 . S
C1567 C1566 1.391 . S
H1568 C1576 0.950 . S
H1569 C1581 0.950 . S
H1570 C1578 0.950 . S
H1571 C1580 0.950 . S
H1572 C1582 0.950 . S
H1573 C1584 0.950 . S
H1574 C1586 0.950 . S
H1575 C1587 0.950 . S
C1576 H1568 0.950 . S
C1576 C1577 1.386 . S
C1576 C1578 1.391 . S
C1577 C1576 1.386 . S
C1577 C1581 1.393 . S
C1578 H1570 0.950 . S
C1578 C1576 1.391 . S
C1578 C1579 1.400 . S
C1579 C1578 1.400 . S
C1579 C1580 1.398 . S
C1579 C1585 1.491 . S
C1580 H1571 0.950 . S
C1580 C1579 1.398 . S
C1580 C1581 1.391 . S
C1581 H1569 0.950 . S
C1581 C1577 1.393 . S
C1581 C1580 1.391 . S
C1582 H1572 0.950 . S
C1582 C1583 1.386 . S
C1582 C1584 1.391 . S
C1583 C1582 1.386 . S
C1583 C1587 1.393 . S
C1584 H1573 0.950 . S
C1584 C1582 1.391 . S
C1584 C1585 1.400 . S
C1585 C1579 1.491 . S
C1585 C1584 1.400 . S
C1585 C1586 1.398 . S
C1586 H1574 0.950 . S
C1586 C1585 1.398 . S
C1586 C1587 1.391 . S
C1587 H1575 0.950 . S
C1587 C1583 1.393 . S
C1587 C1586 1.391 . S
H1588 C1596 0.950 . S
H1589 C1601 0.950 . S
H1590 C1598 0.950 . S
H1591 C1600 0.950 . S
H1592 C1602 0.950 . S
H1593 C1604 0.950 . S
H1594 C1606 0.950 . S
H1595 C1607 0.950 . S
C1596 H1588 0.950 . S
C1596 C1597 1.386 . S
C1596 C1598 1.391 . S
C1597 C1596 1.386 . S
C1597 C1601 1.393 . S
C1598 H1590 0.950 . S
C1598 C1596 1.391 . S
C1598 C1599 1.400 . S
C1599 C1598 1.400 . S
C1599 C1600 1.398 . S
C1599 C1605 1.491 . S
C1600 H1591 0.950 . S
C1600 C1599 1.398 . S
C1600 C1601 1.391 . S
C1601 H1589 0.950 . S
C1601 C1597 1.393 . S
C1601 C1600 1.391 . S
C1602 H1592 0.950 . S
C1602 C1603 1.386 . S
C1602 C1604 1.391 . S
C1603 C1602 1.386 . S
C1603 C1607 1.393 . S
C1604 H1593 0.950 . S
C1604 C1602 1.391 . S
C1604 C1605 1.400 . S
C1605 C1599 1.491 . S
C1605 C1604 1.400 . S
C1605 C1606 1.398 . S
C1606 H1594 0.950 . S
C1606 C1605 1.398 . S
C1606 C1607 1.391 . S
C1607 H1595 0.950 . S
C1607 C1603 1.393 . S
C1607 C1606 1.391 . S
H1608 C1616 0.950 . S
H1609 C1621 0.950 . S
H1610 C1618 0.950 . S
H1611 C1620 0.950 . S
H1612 C1622 0.950 . S
H1613 C1624 0.950 . S
H1614 C1626 0.950 . S
H1615 C1627 0.950 . S
C1616 H1608 0.950 . S
C1616 C1617 1.386 . S
C1616 C1618 1.391 . S
C1617 C1616 1.386 . S
C1617 C1621 1.393 . S
C1618 H1610 0.950 . S
C1618 C1616 1.391 . S
C1618 C1619 1.400 . S
C1619 C1618 1.400 . S
C1619 C1620 1.398 . S
C1619 C1625 1.491 . S
C1620 H1611 0.950 . S
C1620 C1619 1.398 . S
C1620 C1621 1.391 . S
C1621 H1609 0.950 . S
C1621 C1617 1.393 . S
C1621 C1620 1.391 . S
C1622 H1612 0.950 . S
C1622 C1623 1.386 . S
C1622 C1624 1.391 . S
C1623 C1622 1.386 . S
C1623 C1627 1.393 . S
C1624 H1613 0.950 . S
C1624 C1622 1.391 . S
C1624 C1625 1.400 . S
C1625 C1619 1.491 . S
C1625 C1624 1.400 . S
C1625 C1626 1.398 . S
C1626 H1614 0.950 . S
C1626 C1625 1.398 . S
C1626 C1627 1.391 . S
C1627 H1615 0.950 . S
C1627 C1623 1.393 . S
C1627 C1626 1.391 . S
H1628 C1636 0.950 . S
H1629 C1641 0.950 . S
H1630 C1638 0.950 . S
H1631 C1640 0.950 . S
H1632 C1642 0.950 . S
H1633 C1644 0.950 . S
H1634 C1646 0.950 . S
H1635 C1647 0.950 . S
C1636 H1628 0.950 . S
C1636 C1637 1.386 . S
C1636 C1638 1.391 . S
C1637 C1636 1.386 . S
C1637 C1641 1.393 . S
C1638 H1630 0.950 . S
C1638 C1636 1.391 . S
C1638 C1639 1.400 . S
C1639 C1638 1.400 . S
C1639 C1640 1.398 . S
C1639 C1645 1.491 . S
C1640 H1631 0.950 . S
C1640 C1639 1.398 . S
C1640 C1641 1.391 . S
C1641 H1629 0.950 . S
C1641 C1637 1.393 . S
C1641 C1640 1.391 . S
C1642 H1632 0.950 . S
C1642 C1643 1.386 . S
C1642 C1644 1.391 . S
C1643 C1642 1.386 . S
C1643 C1647 1.393 . S
C1644 H1633 0.950 . S
C1644 C1642 1.391 . S
C1644 C1645 1.400 . S
C1645 C1639 1.491 . S
C1645 C1644 1.400 . S
C1645 C1646 1.398 . S
C1646 H1634 0.950 . S
C1646 C1645 1.398 . S
C1646 C1647 1.391 . S
C1647 H1635 0.950 . S
C1647 C1643 1.393 . S
C1647 C1646 1.391 . S
H1648 C1656 0.950 . S
H1649 C1661 0.950 . S
H1650 C1658 0.950 . S
H1651 C1660 0.950 . S
H1652 C1662 0.950 . S
H1653 C1664 0.950 . S
H1654 C1666 0.950 . S
H1655 C1667 0.950 . S
C1656 H1648 0.950 . S
C1656 C1657 1.386 . S
C1656 C1658 1.391 . S
C1657 C1656 1.386 . S
C1657 C1661 1.393 . S
C1658 H1650 0.950 . S
C1658 C1656 1.391 . S
C1658 C1659 1.400 . S
C1659 C1658 1.400 . S
C1659 C1660 1.398 . S
C1659 C1665 1.491 1_455 S
C1660 H1651 0.950 . S
C1660 C1659 1.398 . S
C1660 C1661 1.391 . S
C1661 H1649 0.950 . S
C1661 C1657 1.393 . S
C1661 C1660 1.391 . S
C1662 H1652 0.950 . S
C1662 C1663 1.386 . S
C1662 C1664 1.391 . S
C1663 C1662 1.386 . S
C1663 C1667 1.393 . S
C1664 H1653 0.950 . S
C1664 C1662 1.391 . S
C1664 C1665 1.400 . S
C1665 C1659 1.491 1_655 S
C1665 C1664 1.400 . S
C1665 C1666 1.398 . S
C1666 H1654 0.950 . S
C1666 C1665 1.398 . S
C1666 C1667 1.391 . S
C1667 H1655 0.950 . S
C1667 C1663 1.393 . S
C1667 C1666 1.391 . S
H1668 C1676 0.950 . S
H1669 C1681 0.950 . S
H1670 C1678 0.950 . S
H1671 C1680 0.950 . S
H1672 C1682 0.950 . S
H1673 C1684 0.950 . S
H1674 C1686 0.950 . S
H1675 C1687 0.950 . S
C1676 H1668 0.950 . S
C1676 C1677 1.386 . S
C1676 C1678 1.391 . S
C1677 C1676 1.386 . S
C1677 C1681 1.393 . S
C1678 H1670 0.950 . S
C1678 C1676 1.391 . S
C1678 C1679 1.400 . S
C1679 C1678 1.400 . S
C1679 C1680 1.398 . S
C1679 C1685 1.491 . S
C1680 H1671 0.950 . S
C1680 C1679 1.398 . S
C1680 C1681 1.391 . S
C1681 H1669 0.950 . S
C1681 C1677 1.393 . S
C1681 C1680 1.391 . S
C1682 H1672 0.950 . S
C1682 C1683 1.386 . S
C1682 C1684 1.391 . S
C1683 C1682 1.386 . S
C1683 C1687 1.393 . S
C1684 H1673 0.950 . S
C1684 C1682 1.391 . S
C1684 C1685 1.400 . S
C1685 C1679 1.491 . S
C1685 C1684 1.400 . S
C1685 C1686 1.398 . S
C1686 H1674 0.950 . S
C1686 C1685 1.398 . S
C1686 C1687 1.391 . S
C1687 H1675 0.950 . S
C1687 C1683 1.393 . S
C1687 C1686 1.391 . S
H1688 C1696 0.950 . S
H1689 C1701 0.950 . S
H1690 C1698 0.950 . S
H1691 C1700 0.950 . S
H1692 C1702 0.950 . S
H1693 C1704 0.950 . S
H1694 C1706 0.950 . S
H1695 C1707 0.950 . S
C1696 H1688 0.950 . S
C1696 C1697 1.386 . S
C1696 C1698 1.391 . S
C1697 C1696 1.386 . S
C1697 C1701 1.393 . S
C1698 H1690 0.950 . S
C1698 C1696 1.391 . S
C1698 C1699 1.400 . S
C1699 C1698 1.400 . S
C1699 C1700 1.398 . S
C1699 C1705 1.491 . S
C1700 H1691 0.950 . S
C1700 C1699 1.398 . S
C1700 C1701 1.391 . S
C1701 H1689 0.950 . S
C1701 C1697 1.393 . S
C1701 C1700 1.391 . S
C1702 H1692 0.950 . S
C1702 C1703 1.386 . S
C1702 C1704 1.391 . S
C1703 C1702 1.386 . S
C1703 C1707 1.393 . S
C1704 H1693 0.950 . S
C1704 C1702 1.391 . S
C1704 C1705 1.400 . S
C1705 C1699 1.491 . S
C1705 C1704 1.400 . S
C1705 C1706 1.398 . S
C1706 H1694 0.950 . S
C1706 C1705 1.398 . S
C1706 C1707 1.391 . S
C1707 H1695 0.950 . S
C1707 C1703 1.393 . S
C1707 C1706 1.391 . S
H1708 C1716 0.950 . S
H1709 C1721 0.950 . S
H1710 C1718 0.950 . S
H1711 C1720 0.950 . S
H1712 C1722 0.950 . S
H1713 C1724 0.950 . S
H1714 C1726 0.950 . S
H1715 C1727 0.950 . S
C1716 H1708 0.950 . S
C1716 C1717 1.386 . S
C1716 C1718 1.391 . S
C1717 C1716 1.386 . S
C1717 C1721 1.393 . S
C1718 H1710 0.950 . S
C1718 C1716 1.391 . S
C1718 C1719 1.400 . S
C1719 C1718 1.400 . S
C1719 C1720 1.398 . S
C1719 C1725 1.491 1_455 S
C1720 H1711 0.950 . S
C1720 C1719 1.398 . S
C1720 C1721 1.391 . S
C1721 H1709 0.950 . S
C1721 C1717 1.393 . S
C1721 C1720 1.391 . S
C1722 H1712 0.950 . S
C1722 C1723 1.386 . S
C1722 C1724 1.391 . S
C1723 C1722 1.386 . S
C1723 C1727 1.393 . S
C1724 H1713 0.950 . S
C1724 C1722 1.391 . S
C1724 C1725 1.400 . S
C1725 C1719 1.491 1_655 S
C1725 C1724 1.400 . S
C1725 C1726 1.398 . S
C1726 H1714 0.950 . S
C1726 C1725 1.398 . S
C1726 C1727 1.391 . S
C1727 H1715 0.950 . S
C1727 C1723 1.393 . S
C1727 C1726 1.391 . S
H1728 C1736 0.950 . S
H1729 C1741 0.950 . S
H1730 C1738 0.950 . S
H1731 C1740 0.950 . S
H1732 C1742 0.950 . S
H1733 C1744 0.950 . S
H1734 C1746 0.950 . S
H1735 C1747 0.950 . S
C1736 H1728 0.950 . S
C1736 C1737 1.386 . S
C1736 C1738 1.391 . S
C1737 C1736 1.386 . S
C1737 C1741 1.393 . S
C1738 H1730 0.950 . S
C1738 C1736 1.391 . S
C1738 C1739 1.400 . S
C1739 C1738 1.400 . S
C1739 C1740 1.398 . S
C1739 C1745 1.491 1_554 S
C1740 H1731 0.950 . S
C1740 C1739 1.398 . S
C1740 C1741 1.391 . S
C1741 H1729 0.950 . S
C1741 C1737 1.393 . S
C1741 C1740 1.391 . S
C1742 H1732 0.950 . S
C1742 C1743 1.386 . S
C1742 C1744 1.391 . S
C1743 C1742 1.386 . S
C1743 C1747 1.393 . S
C1744 H1733 0.950 . S
C1744 C1742 1.391 . S
C1744 C1745 1.400 . S
C1745 C1739 1.491 1_556 S
C1745 C1744 1.400 . S
C1745 C1746 1.398 . S
C1746 H1734 0.950 . S
C1746 C1745 1.398 . S
C1746 C1747 1.391 . S
C1747 H1735 0.950 . S
C1747 C1743 1.393 . S
C1747 C1746 1.391 . S
H1748 C1756 0.950 . S
H1749 C1761 0.950 . S
H1750 C1758 0.950 . S
H1751 C1760 0.950 . S
H1752 C1762 0.950 . S
H1753 C1764 0.950 . S
H1754 C1766 0.950 . S
H1755 C1767 0.950 . S
C1756 H1748 0.950 . S
C1756 C1757 1.386 . S
C1756 C1758 1.391 . S
C1757 C1756 1.386 . S
C1757 C1761 1.393 . S
C1758 H1750 0.950 . S
C1758 C1756 1.391 . S
C1758 C1759 1.400 . S
C1759 C1758 1.400 . S
C1759 C1760 1.398 . S
C1759 C1765 1.491 . S
C1760 H1751 0.950 . S
C1760 C1759 1.398 . S
C1760 C1761 1.391 . S
C1761 H1749 0.950 . S
C1761 C1757 1.393 . S
C1761 C1760 1.391 . S
C1762 H1752 0.950 . S
C1762 C1763 1.386 . S
C1762 C1764 1.391 . S
C1763 C1762 1.386 . S
C1763 C1767 1.393 . S
C1764 H1753 0.950 . S
C1764 C1762 1.391 . S
C1764 C1765 1.400 . S
C1765 C1759 1.491 . S
C1765 C1764 1.400 . S
C1765 C1766 1.398 . S
C1766 H1754 0.950 . S
C1766 C1765 1.398 . S
C1766 C1767 1.391 . S
C1767 H1755 0.950 . S
C1767 C1763 1.393 . S
C1767 C1766 1.391 . S
H1768 C1776 0.950 . S
H1769 C1781 0.950 . S
H1770 C1778 0.950 . S
H1771 C1780 0.950 . S
H1772 C1782 0.950 . S
H1773 C1784 0.950 . S
H1774 C1786 0.950 . S
H1775 C1787 0.950 . S
C1776 H1768 0.950 . S
C1776 C1777 1.386 . S
C1776 C1778 1.391 . S
C1777 C1776 1.386 . S
C1777 C1781 1.393 . S
C1778 H1770 0.950 . S
C1778 C1776 1.391 . S
C1778 C1779 1.400 . S
C1779 C1778 1.400 . S
C1779 C1780 1.398 . S
C1779 C1785 1.491 . S
C1780 H1771 0.950 . S
C1780 C1779 1.398 . S
C1780 C1781 1.391 . S
C1781 H1769 0.950 . S
C1781 C1777 1.393 . S
C1781 C1780 1.391 . S
C1782 H1772 0.950 . S
C1782 C1783 1.386 . S
C1782 C1784 1.391 . S
C1783 C1782 1.386 . S
C1783 C1787 1.393 . S
C1784 H1773 0.950 . S
C1784 C1782 1.391 . S
C1784 C1785 1.400 . S
C1785 C1779 1.491 . S
C1785 C1784 1.400 . S
C1785 C1786 1.398 . S
C1786 H1774 0.950 . S
C1786 C1785 1.398 . S
C1786 C1787 1.391 . S
C1787 H1775 0.950 . S
C1787 C1783 1.393 . S
C1787 C1786 1.391 . S
H1788 C1796 0.950 . S
H1789 C1801 0.950 . S
H1790 C1798 0.950 . S
H1791 C1800 0.950 . S
H1792 C1802 0.950 . S
H1793 C1804 0.950 . S
H1794 C1806 0.950 . S
H1795 C1807 0.950 . S
C1796 H1788 0.950 . S
C1796 C1797 1.386 . S
C1796 C1798 1.391 . S
C1797 C1796 1.386 . S
C1797 C1801 1.393 . S
C1798 H1790 0.950 . S
C1798 C1796 1.391 . S
C1798 C1799 1.400 . S
C1799 C1798 1.400 . S
C1799 C1800 1.398 . S
C1799 C1805 1.491 . S
C1800 H1791 0.950 . S
C1800 C1799 1.398 . S
C1800 C1801 1.391 . S
C1801 H1789 0.950 . S
C1801 C1797 1.393 . S
C1801 C1800 1.391 . S
C1802 H1792 0.950 . S
C1802 C1803 1.386 . S
C1802 C1804 1.391 . S
C1803 C1802 1.386 . S
C1803 C1807 1.393 . S
C1804 H1793 0.950 . S
C1804 C1802 1.391 . S
C1804 C1805 1.400 . S
C1805 C1799 1.491 . S
C1805 C1804 1.400 . S
C1805 C1806 1.398 . S
C1806 H1794 0.950 . S
C1806 C1805 1.398 . S
C1806 C1807 1.391 . S
C1807 H1795 0.950 . S
C1807 C1803 1.393 . S
C1807 C1806 1.391 . S
H1808 C1816 0.950 . S
H1809 C1821 0.950 . S
H1810 C1818 0.950 . S
H1811 C1820 0.950 . S
H1812 C1822 0.950 . S
H1813 C1824 0.950 . S
H1814 C1826 0.950 . S
H1815 C1827 0.950 . S
C1816 H1808 0.950 . S
C1816 C1817 1.386 . S
C1816 C1818 1.391 . S
C1817 C1816 1.386 . S
C1817 C1821 1.393 . S
C1818 H1810 0.950 . S
C1818 C1816 1.391 . S
C1818 C1819 1.400 . S
C1819 C1818 1.400 . S
C1819 C1820 1.398 . S
C1819 C1825 1.491 1_556 S
C1820 H1811 0.950 . S
C1820 C1819 1.398 . S
C1820 C1821 1.391 . S
C1821 H1809 0.950 . S
C1821 C1817 1.393 . S
C1821 C1820 1.391 . S
C1822 H1812 0.950 . S
C1822 C1823 1.386 . S
C1822 C1824 1.391 . S
C1823 C1822 1.386 . S
C1823 C1827 1.393 . S
C1824 H1813 0.950 . S
C1824 C1822 1.391 . S
C1824 C1825 1.400 . S
C1825 C1819 1.491 1_554 S
C1825 C1824 1.400 . S
C1825 C1826 1.398 . S
C1826 H1814 0.950 . S
C1826 C1825 1.398 . S
C1826 C1827 1.391 . S
C1827 H1815 0.950 . S
C1827 C1823 1.393 . S
C1827 C1826 1.391 . S
H1828 C1836 0.950 . S
H1829 C1841 0.950 . S
H1830 C1838 0.950 . S
H1831 C1840 0.950 . S
H1832 C1842 0.950 . S
H1833 C1844 0.950 . S
H1834 C1846 0.950 . S
H1835 C1847 0.950 . S
C1836 H1828 0.950 . S
C1836 C1837 1.386 . S
C1836 C1838 1.391 . S
C1837 C1836 1.386 . S
C1837 C1841 1.393 . S
C1838 H1830 0.950 . S
C1838 C1836 1.391 . S
C1838 C1839 1.400 . S
C1839 C1838 1.400 . S
C1839 C1840 1.398 . S
C1839 C1845 1.491 . S
C1840 H1831 0.950 . S
C1840 C1839 1.398 . S
C1840 C1841 1.391 . S
C1841 H1829 0.950 . S
C1841 C1837 1.393 . S
C1841 C1840 1.391 . S
C1842 H1832 0.950 . S
C1842 C1843 1.386 . S
C1842 C1844 1.391 . S
C1843 C1842 1.386 . S
C1843 C1847 1.393 . S
C1844 H1833 0.950 . S
C1844 C1842 1.391 . S
C1844 C1845 1.400 . S
C1845 C1839 1.491 . S
C1845 C1844 1.400 . S
C1845 C1846 1.398 . S
C1846 H1834 0.950 . S
C1846 C1845 1.398 . S
C1846 C1847 1.391 . S
C1847 H1835 0.950 . S
C1847 C1843 1.393 . S
C1847 C1846 1.391 . S
H1848 C1856 0.950 . S
H1849 C1861 0.950 . S
H1850 C1858 0.950 . S
H1851 C1860 0.950 . S
H1852 C1862 0.950 . S
H1853 C1864 0.950 . S
H1854 C1866 0.950 . S
H1855 C1867 0.950 . S
C1856 H1848 0.950 . S
C1856 C1857 1.386 . S
C1856 C1858 1.391 . S
C1857 C1856 1.386 . S
C1857 C1861 1.393 . S
C1858 H1850 0.950 . S
C1858 C1856 1.391 . S
C1858 C1859 1.400 . S
C1859 C1858 1.400 . S
C1859 C1860 1.398 . S
C1859 C1865 1.491 . S
C1860 H1851 0.950 . S
C1860 C1859 1.398 . S
C1860 C1861 1.391 . S
C1861 H1849 0.950 . S
C1861 C1857 1.393 . S
C1861 C1860 1.391 . S
C1862 H1852 0.950 . S
C1862 C1863 1.386 . S
C1862 C1864 1.391 . S
C1863 C1862 1.386 . S
C1863 C1867 1.393 . S
C1864 H1853 0.950 . S
C1864 C1862 1.391 . S
C1864 C1865 1.400 . S
C1865 C1859 1.491 . S
C1865 C1864 1.400 . S
C1865 C1866 1.398 . S
C1866 H1854 0.950 . S
C1866 C1865 1.398 . S
C1866 C1867 1.391 . S
C1867 H1855 0.950 . S
C1867 C1863 1.393 . S
C1867 C1866 1.391 . S
H1868 C1876 0.950 . S
H1869 C1881 0.950 . S
H1870 C1878 0.950 . S
H1871 C1880 0.950 . S
H1872 C1882 0.950 . S
H1873 C1884 0.950 . S
H1874 C1886 0.950 . S
H1875 C1887 0.950 . S
C1876 H1868 0.950 . S
C1876 C1877 1.386 . S
C1876 C1878 1.391 . S
C1877 C1876 1.386 . S
C1877 C1881 1.393 . S
C1878 H1870 0.950 . S
C1878 C1876 1.391 . S
C1878 C1879 1.400 . S
C1879 C1878 1.400 . S
C1879 C1880 1.398 . S
C1879 C1885 1.491 . S
C1880 H1871 0.950 . S
C1880 C1879 1.398 . S
C1880 C1881 1.391 . S
C1881 H1869 0.950 . S
C1881 C1877 1.393 . S
C1881 C1880 1.391 . S
C1882 H1872 0.950 . S
C1882 C1883 1.386 . S
C1882 C1884 1.391 . S
C1883 C1882 1.386 . S
C1883 C1887 1.393 . S
C1884 H1873 0.950 . S
C1884 C1882 1.391 . S
C1884 C1885 1.400 . S
C1885 C1879 1.491 . S
C1885 C1884 1.400 . S
C1885 C1886 1.398 . S
C1886 H1874 0.950 . S
C1886 C1885 1.398 . S
C1886 C1887 1.391 . S
C1887 H1875 0.950 . S
C1887 C1883 1.393 . S
C1887 C1886 1.391 . S
H1888 C1896 0.950 . S
H1889 C1901 0.950 . S
H1890 C1898 0.950 . S
H1891 C1900 0.950 1_565 S
H1892 C1902 0.950 . S
H1893 C1904 0.950 . S
H1894 C1906 0.950 1_545 S
H1895 C1907 0.950 . S
C1896 H1888 0.950 . S
C1896 C1897 1.386 . S
C1896 C1898 1.391 . S
C1897 C1896 1.386 . S
C1897 C1901 1.393 . S
C1898 H1890 0.950 . S
C1898 C1896 1.391 . S
C1898 C1899 1.400 . S
C1899 C1898 1.400 . S
C1899 C1900 1.398 . S
C1899 C1905 1.491 1_545 S
C1900 H1891 0.950 1_545 S
C1900 C1899 1.398 . S
C1900 C1901 1.391 . S
C1901 H1889 0.950 . S
C1901 C1897 1.393 . S
C1901 C1900 1.391 . S
C1902 H1892 0.950 . S
C1902 C1903 1.386 . S
C1902 C1904 1.391 . S
C1903 C1902 1.386 . S
C1903 C1907 1.393 . S
C1904 H1893 0.950 . S
C1904 C1902 1.391 . S
C1904 C1905 1.400 . S
C1905 C1899 1.491 1_565 S
C1905 C1904 1.400 . S
C1905 C1906 1.398 . S
C1906 H1894 0.950 1_565 S
C1906 C1905 1.398 . S
C1906 C1907 1.391 . S
C1907 H1895 0.950 . S
C1907 C1903 1.393 . S
C1907 C1906 1.391 . S
H1908 C1916 0.950 . S
H1909 C1921 0.950 . S
H1910 C1918 0.950 . S
H1911 C1920 0.950 . S
H1912 C1922 0.950 . S
H1913 C1924 0.950 . S
H1914 C1926 0.950 . S
H1915 C1927 0.950 . S
C1916 H1908 0.950 . S
C1916 C1917 1.386 . S
C1916 C1918 1.391 . S
C1917 C1916 1.386 . S
C1917 C1921 1.393 . S
C1918 H1910 0.950 . S
C1918 C1916 1.391 . S
C1918 C1919 1.400 . S
C1919 C1918 1.400 . S
C1919 C1920 1.398 . S
C1919 C1925 1.491 . S
C1920 H1911 0.950 . S
C1920 C1919 1.398 . S
C1920 C1921 1.391 . S
C1921 H1909 0.950 . S
C1921 C1917 1.393 . S
C1921 C1920 1.391 . S
C1922 H1912 0.950 . S
C1922 C1923 1.386 . S
C1922 C1924 1.391 . S
C1923 C1922 1.386 . S
C1923 C1927 1.393 . S
C1924 H1913 0.950 . S
C1924 C1922 1.391 . S
C1924 C1925 1.400 . S
C1925 C1919 1.491 . S
C1925 C1924 1.400 . S
C1925 C1926 1.398 . S
C1926 H1914 0.950 . S
C1926 C1925 1.398 . S
C1926 C1927 1.391 . S
C1927 H1915 0.950 . S
C1927 C1923 1.393 . S
C1927 C1926 1.391 . S
H1928 C1936 0.950 . S
H1929 C1941 0.950 . S
H1930 C1938 0.947 1_565 S
H1931 C1940 0.950 . S
H1932 C1942 0.950 . S
H1933 C1944 0.947 1_545 S
H1934 C1946 0.950 . S
H1935 C1947 0.950 . S
C1936 H1928 0.950 . S
C1936 C1937 1.386 . S
C1936 C1938 1.391 . S
C1937 C1936 1.386 . S
C1937 C1941 1.393 . S
C1938 H1930 0.947 1_545 S
C1938 C1936 1.391 . S
C1938 C1939 1.400 . S
C1939 C1938 1.400 . S
C1939 C1940 1.398 . S
C1939 C1945 1.491 1_546 S
C1940 H1931 0.950 . S
C1940 C1939 1.398 . S
C1940 C1941 1.391 . S
C1941 H1929 0.950 . S
C1941 C1937 1.393 . S
C1941 C1940 1.391 . S
C1942 H1932 0.950 . S
C1942 C1943 1.386 . S
C1942 C1944 1.391 . S
C1943 C1942 1.386 . S
C1943 C1947 1.393 . S
C1944 H1933 0.947 1_565 S
C1944 C1942 1.391 . S
C1944 C1945 1.400 . S
C1945 C1939 1.491 1_564 S
C1945 C1944 1.400 . S
C1945 C1946 1.398 . S
C1946 H1934 0.950 . S
C1946 C1945 1.398 . S
C1946 C1947 1.391 . S
C1947 H1935 0.950 . S
C1947 C1943 1.393 . S
C1947 C1946 1.391 . S
H1948 C1956 0.950 . S
H1949 C1961 0.950 . S
H1950 C1958 0.950 . S
H1951 C1960 0.950 . S
H1952 C1962 0.950 . S
H1953 C1964 0.950 . S
H1954 C1966 0.950 . S
H1955 C1967 0.950 . S
C1956 H1948 0.950 . S
C1956 C1957 1.386 . S
C1956 C1958 1.391 . S
C1957 C1956 1.386 . S
C1957 C1961 1.393 . S
C1958 H1950 0.950 . S
C1958 C1956 1.391 . S
C1958 C1959 1.400 . S
C1959 C1958 1.400 . S
C1959 C1960 1.398 . S
C1959 C1965 1.491 . S
C1960 H1951 0.950 . S
C1960 C1959 1.398 . S
C1960 C1961 1.391 . S
C1961 H1949 0.950 . S
C1961 C1957 1.393 . S
C1961 C1960 1.391 . S
C1962 H1952 0.950 . S
C1962 C1963 1.386 . S
C1962 C1964 1.391 . S
C1963 C1962 1.386 . S
C1963 C1967 1.393 . S
C1964 H1953 0.950 . S
C1964 C1962 1.391 . S
C1964 C1965 1.400 . S
C1965 C1959 1.491 . S
C1965 C1964 1.400 . S
C1965 C1966 1.398 . S
C1966 H1954 0.950 . S
C1966 C1965 1.398 . S
C1966 C1967 1.391 . S
C1967 H1955 0.950 . S
C1967 C1963 1.393 . S
C1967 C1966 1.391 . S
H1968 C1976 0.950 . S
H1969 C1981 0.950 . S
H1970 C1978 0.950 . S
H1971 C1980 0.950 . S
H1972 C1982 0.950 . S
H1973 C1984 0.950 . S
H1974 C1986 0.950 . S
H1975 C1987 0.950 . S
C1976 H1968 0.950 . S
C1976 C1977 1.386 . S
C1976 C1978 1.391 . S
C1977 C1976 1.386 . S
C1977 C1981 1.393 . S
C1978 H1970 0.950 . S
C1978 C1976 1.391 . S
C1978 C1979 1.400 . S
C1979 C1978 1.400 . S
C1979 C1980 1.398 . S
C1979 C1985 1.491 1_545 S
C1980 H1971 0.950 . S
C1980 C1979 1.398 . S
C1980 C1981 1.391 . S
C1981 H1969 0.950 . S
C1981 C1977 1.393 . S
C1981 C1980 1.391 . S
C1982 H1972 0.950 . S
C1982 C1983 1.386 . S
C1982 C1984 1.391 . S
C1983 C1982 1.386 . S
C1983 C1987 1.393 . S
C1984 H1973 0.950 . S
C1984 C1982 1.391 . S
C1984 C1985 1.400 . S
C1985 C1979 1.491 1_565 S
C1985 C1984 1.400 . S
C1985 C1986 1.398 . S
C1986 H1974 0.950 . S
C1986 C1985 1.398 . S
C1986 C1987 1.391 . S
C1987 H1975 0.950 . S
C1987 C1983 1.393 . S
C1987 C1986 1.391 . S
H1988 C1996 0.950 . S
H1989 C2001 0.950 . S
H1990 C1998 0.950 . S
H1991 C2000 0.950 . S
H1992 C2002 0.950 . S
H1993 C2004 0.950 . S
H1994 C2006 0.950 . S
H1995 C2007 0.950 . S
C1996 H1988 0.950 . S
C1996 C1997 1.386 . S
C1996 C1998 1.391 . S
C1997 C1996 1.386 . S
C1997 C2001 1.393 . S
C1998 H1990 0.950 . S
C1998 C1996 1.391 . S
C1998 C1999 1.400 . S
C1999 C1998 1.400 . S
C1999 C2000 1.398 . S
C1999 C2005 1.491 . S
C2000 H1991 0.950 . S
C2000 C1999 1.398 . S
C2000 C2001 1.391 . S
C2001 H1989 0.950 . S
C2001 C1997 1.393 . S
C2001 C2000 1.391 . S
C2002 H1992 0.950 . S
C2002 C2003 1.386 . S
C2002 C2004 1.391 . S
C2003 C2002 1.386 . S
C2003 C2007 1.393 . S
C2004 H1993 0.950 . S
C2004 C2002 1.391 . S
C2004 C2005 1.400 . S
C2005 C1999 1.491 . S
C2005 C2004 1.400 . S
C2005 C2006 1.398 . S
C2006 H1994 0.950 . S
C2006 C2005 1.398 . S
C2006 C2007 1.391 . S
C2007 H1995 0.950 . S
C2007 C2003 1.393 . S
C2007 C2006 1.391 . S
H2008 C2016 0.950 . S
H2009 C2021 0.950 . S
H2010 C2018 0.950 . S
H2011 C2020 0.999 . S
H2012 C2022 0.950 . S
H2013 C2024 0.950 . S
H2014 C2026 0.999 . S
H2015 C2027 0.950 . S
C2016 H2008 0.950 . S
C2016 C2017 1.386 . S
C2016 C2018 1.391 . S
C2017 C2016 1.386 . S
C2017 C2021 1.393 . S
C2018 H2010 0.950 . S
C2018 C2016 1.391 . S
C2018 C2019 1.400 . S
C2019 C2018 1.400 . S
C2019 C2020 1.382 1_565 S
C2019 C2025 1.491 1_564 S
C2020 H2011 0.999 . S
C2020 C2019 1.382 1_545 S
C2020 C2021 1.362 1_545 S
C2021 H2009 0.950 . S
C2021 C2017 1.393 . S
C2021 C2020 1.362 1_565 S
C2022 H2012 0.950 . S
C2022 C2023 1.386 . S
C2022 C2024 1.391 . S
C2023 C2022 1.386 . S
C2023 C2027 1.393 . S
C2024 H2013 0.950 . S
C2024 C2022 1.391 . S
C2024 C2025 1.400 . S
C2025 C2019 1.491 1_546 S
C2025 C2024 1.400 . S
C2025 C2026 1.382 1_545 S
C2026 H2014 0.999 . S
C2026 C2025 1.382 1_565 S
C2026 C2027 1.362 1_565 S
C2027 H2015 0.950 . S
C2027 C2023 1.393 . S
C2027 C2026 1.362 1_545 S
H2028 C2036 0.950 . S
H2029 C2041 0.950 . S
H2030 C2038 0.950 . S
H2031 C2040 0.950 . S
H2032 C2042 0.950 . S
H2033 C2044 0.950 . S
H2034 C2046 0.950 . S
H2035 C2047 0.950 . S
C2036 H2028 0.950 . S
C2036 C2037 1.386 . S
C2036 C2038 1.391 . S
C2037 C2036 1.386 . S
C2037 C2041 1.393 . S
C2038 H2030 0.950 . S
C2038 C2036 1.391 . S
C2038 C2039 1.400 . S
C2039 C2038 1.400 . S
C2039 C2040 1.398 . S
C2039 C2045 1.491 . S
C2040 H2031 0.950 . S
C2040 C2039 1.398 . S
C2040 C2041 1.391 . S
C2041 H2029 0.950 . S
C2041 C2037 1.393 . S
C2041 C2040 1.391 . S
C2042 H2032 0.950 . S
C2042 C2043 1.386 . S
C2042 C2044 1.391 . S
C2043 C2042 1.386 . S
C2043 C2047 1.393 . S
C2044 H2033 0.950 . S
C2044 C2042 1.391 . S
C2044 C2045 1.400 . S
C2045 C2039 1.491 . S
C2045 C2044 1.400 . S
C2045 C2046 1.398 . S
C2046 H2034 0.950 . S
C2046 C2045 1.398 . S
C2046 C2047 1.391 . S
C2047 H2035 0.950 . S
C2047 C2043 1.393 . S
C2047 C2046 1.391 . S
C1417 C1017 1.477 . S
C1423 C20 1.477 . S
C1437 C1369 1.477 . S
C1443 C108 1.477 . S
C1457 C225 1.474 . S
C1463 C812 1.480 . S
C1477 C1164 1.473 . S
C1483 C321 1.479 . S
C1497 C409 1.479 . S
C1503 C1173 1.473 . S
C1517 C469 1.472 . S
C1523 C1025 1.480 . S
C1537 C548 1.481 . S
C1543 C1377 1.472 . S
C1557 C673 1.480 . S
C1563 C821 1.473 . S
C1577 C284 1.474 . S
C1583 C761 1.478 . S
C1597 C900 1.472 . S
C1603 C145 1.481 . S
C1617 C1076 1.477 . S
C1623 C489 1.476 . S
C1637 C1281 1.479 . S
C1643 C636 1.474 . S
C1657 C372 1.481 . S
C1663 C753 1.471 . S
C1677 C909 1.475 . S
C1683 C585 1.478 . S
C1697 C1289 1.480 . S
C1703 C205 1.474 . S
C1717 C57 1.476 . S
C1723 C1085 1.476 . S
C1737 C49 0.954 . S
C1743 C381 0.942 . S
C1757 C137 0.943 . S
C1763 C497 0.953 . S
C1777 C196 0.956 . S
C1783 C577 0.937 . S
C1797 C645 0.933 . S
C1803 C293 0.955 . S
C1817 C733 0.946 . S
C1823 C1105 0.940 . S
C1837 C1193 0.957 . S
C1843 C849 0.943 . S
C1857 C929 0.948 . S
C1863 C1252 0.938 . S
C1877 C1340 0.939 . S
C1883 C997 0.958 . S
C1897 C665 0.949 . S
C1903 C117 0.933 . S
C1917 C233 0.940 . S
C1923 C401 0.939 . S
C1937 C313 0.938 . S
C1943 C460 0.942 . S
C1957 C29 0.946 . S
C1963 C557 0.951 . S
C1977 C841 0.940 . S
C1983 C1349 0.946 . S
C1997 C1113 0.937 . S
C2003 C937 0.957 . S
C2017 C988 0.944 . S
C2023 C1201 0.957 . S
C2037 C1261 0.956 . S
C2043 C724 0.946 . S
