# Generated by pormake.
# Topology utk, (3)-cn, num edge types: 1
# Building blocks:
#     Node 0, Type 0, BuildingBlock: OLANEW_clean_sbu_2, # of connection points: 3
#     Node 1, Type 0, BuildingBlock: OLANEW_clean_sbu_2, # of connection points: 3
#     Node 2, Type 0, BuildingBlock: OLANEW_clean_sbu_2, # of connection points: 3
#     Node 3, Type 0, BuildingBlock: OLANEW_clean_sbu_2, # of connection points: 3
#     Node 4, Type 0, BuildingBlock: OLANEW_clean_sbu_2, # of connection points: 3
#     Node 5, Type 0, BuildingBlock: OLANEW_clean_sbu_2, # of connection points: 3
#     Node 6, Type 0, BuildingBlock: OLANEW_clean_sbu_2, # of connection points: 3
#     Node 7, Type 0, BuildingBlock: OLANEW_clean_sbu_2, # of connection points: 3
#     Edge 8, Type (0, 0), BuildingBlock: UVAHIK_clean_linker_0, # of connection points: 2
#     Edge 9, Type (0, 0), BuildingBlock: UVAHIK_clean_linker_0, # of connection points: 2
#     Edge 10, Type (0, 0), BuildingBlock: UVAHIK_clean_linker_0, # of connection points: 2
#     Edge 11, Type (0, 0), BuildingBlock: UVAHIK_clean_linker_0, # of connection points: 2
#     Edge 12, Type (0, 0), BuildingBlock: UVAHIK_clean_linker_0, # of connection points: 2
#     Edge 13, Type (0, 0), BuildingBlock: UVAHIK_clean_linker_0, # of connection points: 2
#     Edge 14, Type (0, 0), BuildingBlock: UVAHIK_clean_linker_0, # of connection points: 2
#     Edge 15, Type (0, 0), BuildingBlock: UVAHIK_clean_linker_0, # of connection points: 2
#     Edge 16, Type (0, 0), BuildingBlock: UVAHIK_clean_linker_0, # of connection points: 2
#     Edge 17, Type (0, 0), BuildingBlock: UVAHIK_clean_linker_0, # of connection points: 2
#     Edge 18, Type (0, 0), BuildingBlock: UVAHIK_clean_linker_0, # of connection points: 2
#     Edge 19, Type (0, 0), BuildingBlock: UVAHIK_clean_linker_0, # of connection points: 2
# Relax obj value: 0.000
# Max RMSD: 0.051
# Mean RMSD: 0.051
data_MOF--net-utk--node1-OLANEW_clean_sbu_2--edge1-UVAHIK_clean_linker_0
_symmetry_space_group_name_H-M    P1
_symmetry_Int_Tables_number       1
_symmetry_cell_setting            triclinic
loop_
_symmetry_equiv_pos_as_xyz
'x, y, z'
_cell_length_a     56.363927
_cell_length_b     55.706669
_cell_length_c     41.550433
_cell_angle_alpha  90.20148
_cell_angle_beta   89.907779
_cell_angle_gamma 89.802387
loop_
_atom_site_label
_atom_site_type_symbol
_atom_site_fract_x
_atom_site_fract_y
_atom_site_fract_z
_atom_type_partial_charge
O0 O 0.11125 0.34984 0.20999 0.0
Cd1 Cd 0.10621 0.30648 0.20329 0.0
O2 O 0.07365 0.35676 0.19914 0.0
Cd3 Cd 0.06491 0.32058 0.18266 0.0
O4 O 0.047 0.29817 0.14695 0.0
C5 C 0.05651 0.29585 0.11935 0.0
O6 O 0.07751 0.30533 0.11437 0.0
C7 C 0.09394 0.36442 0.2076 0.0
C8 C 0.13474 0.2803 0.24555 0.0
O9 O 0.14153 0.28444 0.21665 0.0
O10 O 0.11451 0.28853 0.25447 0.0
O11 O 0.62091 0.13517 0.44962 0.0
Cd12 Cd 0.66269 0.13884 0.43442 0.0
O13 O 0.62138 0.09576 0.45282 0.0
Cd14 Cd 0.65648 0.09147 0.43112 0.0
O15 O 0.67675 0.07463 0.39216 0.0
C16 C 0.6693 0.07871 0.36384 0.0
O17 O 0.65154 0.09379 0.36008 0.0
C18 C 0.61041 0.1156 0.45608 0.0
C19 C 0.68859 0.16098 0.48343 0.0
O20 O 0.67672 0.17336 0.46307 0.0
O21 O 0.68841 0.13806 0.48055 0.0
O22 O 0.85327 0.6311 0.70593 0.0
Cd23 Cd 0.85478 0.67423 0.69504 0.0
O24 O 0.8916 0.62605 0.69807 0.0
Cd25 Cd 0.8987 0.66197 0.67951 0.0
O26 O 0.91661 0.68378 0.64326 0.0
C27 C 0.90771 0.68483 0.61521 0.0
O28 O 0.88718 0.67444 0.60991 0.0
C29 C 0.87148 0.61756 0.70587 0.0
C30 C 0.829 0.70056 0.7407 0.0
O31 O 0.81914 0.6928 0.71491 0.0
O32 O 0.85106 0.69591 0.74487 0.0
O33 O 0.34873 0.84875 0.95278 0.0
Cd34 Cd 0.30681 0.84483 0.93851 0.0
O35 O 0.34933 0.88813 0.94908 0.0
Cd36 Cd 0.31382 0.89157 0.92858 0.0
O37 O 0.29294 0.90679 0.88929 0.0
C38 C 0.30049 0.90211 0.8611 0.0
O39 O 0.31865 0.88744 0.85786 0.0
C40 C 0.35983 0.86848 0.95545 0.0
C41 C 0.28132 0.82181 -0.01291 0.0
O42 O 0.29317 0.80981 0.96614 0.0
O43 O 0.28138 0.84476 -0.01494 0.0
O44 O 0.13113 0.62915 0.27225 0.0
Cd45 Cd 0.13528 0.67115 0.28857 0.0
O46 O 0.09217 0.62851 0.27587 0.0
Cd47 Cd 0.08833 0.66372 0.29869 0.0
O48 O 0.071 0.6847 0.33668 0.0
C49 C 0.04851 0.68627 0.33569 0.0
O50 O 0.03731 0.6769 0.31096 0.0
C51 C 0.1116 0.61807 0.26883 0.0
C52 C 0.15801 0.69748 0.24051 0.0
O53 O 0.16988 0.68508 0.26085 0.0
O54 O 0.13534 0.69765 0.24299 0.0
O55 O 0.34398 0.1158 0.50214 0.0
Cd56 Cd 0.30106 0.11063 0.50773 0.0
O57 O 0.35072 0.07822 0.51563 0.0
Cd58 Cd 0.31473 0.06967 0.53134 0.0
O59 O 0.29351 0.0519 0.56827 0.0
C60 C 0.2984 0.05763 0.59714 0.0
O61 O 0.31412 0.07459 0.60223 0.0
C62 C 0.3584 0.09845 0.50617 0.0
C63 C 0.27545 0.13923 0.46485 0.0
O64 O 0.27924 0.14622 0.49381 0.0
O65 O 0.28381 0.11879 0.45616 0.0
O66 O 0.84072 0.35215 0.76945 0.0
Cd67 Cd 0.83661 0.31009 0.78521 0.0
O68 O 0.87938 0.35354 0.77646 0.0
Cd69 Cd 0.88283 0.31815 0.79852 0.0
O70 O 0.89887 0.29662 0.8367 0.0
C71 C 0.92129 0.29412 0.83626 0.0
O72 O 0.93326 0.30291 0.81186 0.0
C73 C 0.86014 0.36363 0.76793 0.0
C74 C 0.81323 0.28381 0.73753 0.0
O75 O 0.80164 0.29621 0.75834 0.0
O76 O 0.83593 0.28364 0.73932 0.0
O77 O 0.62503 0.85806 0.01105 0.0
Cd78 Cd 0.66749 0.8589 0.02326 0.0
O79 O 0.62078 0.89704 0.01789 0.0
Cd80 Cd 0.65611 0.9036 0.03755 0.0
O81 O 0.67652 0.92145 0.07534 0.0
C82 C 0.67029 0.91685 0.10407 0.0
O83 O 0.65366 0.90076 0.10884 0.0
C84 C 0.61205 0.87678 0.01029 0.0
C85 C 0.69403 0.83348 0.97748 0.0
O86 O 0.68584 0.82307 0.0026 0.0
O87 O 0.68969 0.85593 0.97402 0.0
C88 C 0.11996 0.40003 0.21926 0.0
C89 C 0.09728 0.39044 0.21364 0.0
C90 C 0.12297 0.42478 0.22354 0.0
C91 C 0.09297 0.48291 0.20764 0.0
H92 H 0.13568 0.50758 0.27279 0.0
C93 C 0.08985 0.58087 0.25233 0.0
C94 C 0.11144 0.59261 0.25831 0.0
C95 C 0.08948 0.55647 0.24451 0.0
C96 C 0.12393 0.50097 0.25419 0.0
H97 H 0.05993 0.39937 0.20887 0.0
H98 H 0.06512 0.44222 0.21689 0.0
H99 H 0.13248 0.46431 0.26449 0.0
H100 H 0.14966 0.58795 0.26012 0.0
H101 H 0.14897 0.54526 0.24645 0.0
H102 H 0.08408 0.51953 0.19777 0.0
C103 C 0.08068 0.43076 0.21728 0.0
C104 C 0.12209 0.47617 0.24942 0.0
C105 C 0.07768 0.40611 0.21291 0.0
C106 C 0.13271 0.57946 0.25567 0.0
C107 C 0.13233 0.55498 0.24805 0.0
C108 C 0.09473 0.50766 0.21249 0.0
C109 C 0.10336 0.44046 0.22235 0.0
C110 C 0.10636 0.46683 0.22636 0.0
C111 C 0.11069 0.54318 0.24264 0.0
C112 C 0.11002 0.51696 0.23606 0.0
H113 H 0.13544 0.38847 0.21988 0.0
H114 H 0.14071 0.43166 0.22717 0.0
H115 H 0.08106 0.47637 0.18917 0.0
H116 H 0.07313 0.59043 0.25415 0.0
H117 H 0.0725 0.54785 0.24081 0.0
C118 C 0.57356 0.09419 0.47357 0.0
C119 C 0.58502 0.11572 0.46552 0.0
C120 C 0.54924 0.09393 0.48014 0.0
C121 C 0.4943 0.12733 0.46355 0.0
H122 H 0.46847 0.08755 0.5314 0.0
C123 C 0.39371 0.12441 0.49384 0.0
C124 C 0.38423 0.10173 0.50101 0.0
C125 C 0.41825 0.12742 0.49047 0.0
C126 C 0.47538 0.09858 0.51214 0.0
H127 H 0.57995 0.15402 0.45886 0.0
H128 H 0.53748 0.15355 0.47046 0.0
H129 H 0.51132 0.09061 0.52488 0.0
H130 H 0.39313 0.06434 0.50956 0.0
H131 H 0.43564 0.06952 0.5032 0.0
H132 H 0.45833 0.13499 0.45049 0.0
C133 C 0.54731 0.13683 0.47136 0.0
C134 C 0.49994 0.10037 0.50846 0.0
C135 C 0.57169 0.13711 0.46493 0.0
C136 C 0.39979 0.0821 0.50424 0.0
C137 C 0.42423 0.0851 0.50083 0.0
C138 C 0.46969 0.1255 0.46718 0.0
C139 C 0.53578 0.11519 0.47873 0.0
C140 C 0.50969 0.11454 0.48391 0.0
C141 C 0.43381 0.10782 0.49421 0.0
C142 C 0.45994 0.11086 0.49128 0.0
H143 H 0.58326 0.07738 0.47423 0.0
H144 H 0.54086 0.07693 0.4854 0.0
H145 H 0.50126 0.13818 0.44415 0.0
H146 H 0.38223 0.13991 0.49128 0.0
H147 H 0.42506 0.14519 0.48559 0.0
C148 C 0.84695 0.58096 0.71743 0.0
C149 C 0.86932 0.59166 0.71337 0.0
C150 C 0.84504 0.55621 0.72246 0.0
C151 C 0.87864 0.49954 0.71073 0.0
H152 H 0.83311 0.47354 0.77122 0.0
C153 C 0.88188 0.40146 0.75443 0.0
C154 C 0.8603 0.38916 0.75796 0.0
C155 C 0.88211 0.42592 0.74716 0.0
C156 C 0.8457 0.48052 0.75393 0.0
H157 H 0.90724 0.58477 0.71241 0.0
H158 H 0.90391 0.54186 0.72177 0.0
H159 H 0.83521 0.51687 0.76322 0.0
H160 H 0.82199 0.39291 0.75594 0.0
H161 H 0.82243 0.43567 0.74318 0.0
H162 H 0.88937 0.46322 0.70181 0.0
C163 C 0.8878 0.55246 0.72033 0.0
C164 C 0.84691 0.50535 0.74934 0.0
C165 C 0.88971 0.57713 0.7152 0.0
C166 C 0.83893 0.40182 0.75341 0.0
C167 C 0.83917 0.42635 0.74632 0.0
C168 C 0.87749 0.47475 0.71541 0.0
C169 C 0.86544 0.54162 0.72362 0.0
C170 C 0.86355 0.51518 0.72789 0.0
C171 C 0.86076 0.43871 0.74337 0.0
C172 C 0.86114 0.46497 0.73724 0.0
H173 H 0.83088 0.59161 0.71606 0.0
H174 H 0.82753 0.54843 0.72465 0.0
H175 H 0.89132 0.50644 0.6935 0.0
H176 H 0.89867 0.39229 0.75778 0.0
H177 H 0.89904 0.43497 0.74536 0.0
C178 C 0.57256 0.89594 -0.00014 0.0
C179 C 0.58652 0.87504 0.00211 0.0
C180 C 0.54821 0.89444 -0.00594 0.0
C181 C 0.49745 0.85355 0.00214 0.0
H182 H 0.46672 0.89861 0.94464 0.0
C183 C 0.39811 0.84694 0.96696 0.0
C184 C 0.38539 0.86858 0.96387 0.0
C185 C 0.42264 0.84714 0.97213 0.0
C186 C 0.47497 0.88608 0.96109 0.0
H187 H 0.58581 0.83614 -0.00054 0.0
H188 H 0.54322 0.83356 -0.01085 0.0
H189 H 0.50963 0.89979 0.95122 0.0
H190 H 0.38841 0.9074 0.96501 0.0
H191 H 0.43099 0.90773 0.97455 0.0
H192 H 0.46273 0.83996 0.01219 0.0
C193 C 0.55116 0.8511 -0.00779 0.0
C194 C 0.49958 0.88672 0.96478 0.0
C195 C 0.57558 0.85259 -0.00212 0.0
C196 C 0.39765 0.89039 0.96705 0.0
C197 C 0.42212 0.89059 0.97228 0.0
C198 C 0.47279 0.85294 -0.0015 0.0
C199 C 0.53718 0.87201 -0.00956 0.0
C200 C 0.51111 0.87057 -0.0145 0.0
C201 C 0.43498 0.86898 0.97438 0.0
C202 C 0.46123 0.86931 0.97809 0.0
H203 H 0.58035 0.91353 0.00303 0.0
H204 H 0.53792 0.91088 -0.0068 0.0
H205 H 0.50576 0.84107 0.01861 0.0
H206 H 0.38925 0.82981 0.96456 0.0
H207 H 0.43201 0.83017 0.9734 0.0
C208 C 0.14526 0.26683 0.30123 0.0
C209 C 0.14974 0.2663 0.26794 0.0
C210 C 0.15941 0.25359 0.32238 0.0
C211 C 0.19691 0.20035 0.32693 0.0
H212 H 0.22403 0.23061 0.40249 0.0
C213 C 0.26248 0.14958 0.40895 0.0
C214 C 0.26167 0.15421 0.44218 0.0
C215 C 0.24936 0.16363 0.38753 0.0
C216 C 0.21631 0.22172 0.38182 0.0
H217 H 0.17247 0.25135 0.23071 0.0
H218 H 0.19685 0.22777 0.26771 0.0
H219 H 0.19974 0.25424 0.36575 0.0
H220 H 0.24628 0.17706 0.47908 0.0
H221 H 0.22268 0.20095 0.44199 0.0
H222 H 0.21266 0.16767 0.34326 0.0
C223 C 0.18248 0.23859 0.27735 0.0
C224 C 0.2025 0.23534 0.36069 0.0
C225 C 0.1686 0.25216 0.25624 0.0
C226 C 0.24741 0.17315 0.45356 0.0
C227 C 0.23398 0.18697 0.4322 0.0
C228 C 0.2104 0.18662 0.3483 0.0
C229 C 0.17805 0.23923 0.31063 0.0
C230 C 0.19273 0.2248 0.33301 0.0
C231 C 0.23478 0.18244 0.39884 0.0
C232 C 0.22037 0.19711 0.37603 0.0
H233 H 0.1309 0.2776 0.31098 0.0
H234 H 0.15553 0.25427 0.34792 0.0
H235 H 0.18933 0.19173 0.30593 0.0
H236 H 0.27346 0.13522 0.39942 0.0
H237 H 0.25087 0.15984 0.36203 0.0
C238 C 0.72051 0.16087 0.5254 0.0
C239 C 0.70185 0.17284 0.5097 0.0
C240 C 0.73303 0.17221 0.55019 0.0
C241 C 0.72713 0.2168 0.61322 0.0
H242 H 0.79537 0.22424 0.60792 0.0
C243 C 0.77741 0.27654 0.70348 0.0
C244 C 0.80071 0.27031 0.71201 0.0
C245 C 0.76563 0.26412 0.67901 0.0
C246 C 0.77639 0.22196 0.61022 0.0
H247 H 0.68148 0.2059 0.50787 0.0
H248 H 0.70292 0.22539 0.55188 0.0
H249 H 0.77434 0.20292 0.56531 0.0
H250 H 0.82983 0.2459 0.70208 0.0
H251 H 0.80897 0.22343 0.66049 0.0
H252 H 0.72894 0.23494 0.65847 0.0
C253 C 0.70799 0.20738 0.54468 0.0
C254 C 0.76437 0.20986 0.58564 0.0
C255 C 0.69583 0.19626 0.51945 0.0
C256 C 0.81192 0.25121 0.69583 0.0
C257 C 0.79997 0.23845 0.67179 0.0
C258 C 0.73916 0.22846 0.63812 0.0
C259 C 0.72674 0.19549 0.56018 0.0
C260 C 0.73962 0.20742 0.58678 0.0
C261 C 0.77667 0.24479 0.66289 0.0
C262 C 0.76395 0.23148 0.63684 0.0
H263 H 0.72558 0.14283 0.51833 0.0
H264 H 0.74739 0.16268 0.5619 0.0
H265 H 0.70804 0.21488 0.61477 0.0
H266 H 0.76839 0.29134 0.71531 0.0
H267 H 0.74797 0.27001 0.67248 0.0
C268 C 0.82627 0.72292 0.79311 0.0
C269 C 0.81528 0.71442 0.76496 0.0
C270 C 0.8133 0.73592 0.81604 0.0
C271 C 0.75843 0.77182 0.82631 0.0
H272 H 0.76876 0.75977 0.91708 0.0
C273 C 0.71706 0.83158 0.92581 0.0
C274 C 0.70805 0.81997 0.95319 0.0
C275 C 0.73025 0.81881 0.90286 0.0
C276 C 0.76553 0.76324 0.89183 0.0
H277 H 0.78201 0.7129 0.73887 0.0
H278 H 0.75936 0.73536 0.77899 0.0
H279 H 0.79121 0.73703 0.87703 0.0
H280 H 0.70579 0.78581 0.97788 0.0
H281 H 0.72858 0.76352 0.93773 0.0
H282 H 0.73241 0.79769 0.84109 0.0
C283 C 0.77808 0.73225 0.78317 0.0
C284 C 0.77861 0.7504 0.86887 0.0
C285 C 0.79104 0.71924 0.76024 0.0
C286 C 0.71253 0.79532 0.95712 0.0
C287 C 0.72573 0.78256 0.93418 0.0
C288 C 0.74537 0.78468 0.84927 0.0
C289 C 0.78904 0.74074 0.81137 0.0
C290 C 0.77521 0.75451 0.83582 0.0
C291 C 0.73474 0.79414 0.90677 0.0
C292 C 0.74874 0.78054 0.88232 0.0
H293 H 0.84493 0.71958 0.79745 0.0
H294 H 0.82237 0.74245 0.83728 0.0
H295 H 0.75553 0.77561 0.80107 0.0
H296 H 0.71399 0.85057 0.92208 0.0
H297 H 0.73718 0.82836 0.88225 0.0
C298 C 0.24945 0.8211 0.02921 0.0
C299 C 0.26808 0.80946 0.01292 0.0
C300 C 0.23681 0.80925 0.05339 0.0
C301 C 0.22624 0.74792 0.08705 0.0
H302 H 0.20139 0.78392 0.15978 0.0
C303 C 0.19328 0.70446 0.20519 0.0
C304 C 0.17016 0.71088 0.21465 0.0
C305 C 0.20463 0.71667 0.18023 0.0
C306 C 0.20815 0.77371 0.13948 0.0
H307 H 0.2885 0.77652 0.00965 0.0
H308 H 0.2674 0.75628 0.05272 0.0
H309 H 0.22282 0.80487 0.1173 0.0
H310 H 0.14095 0.7354 0.20582 0.0
H311 H 0.16119 0.75729 0.16273 0.0
H312 H 0.21234 0.71664 0.11027 0.0
C313 C 0.26176 0.77419 0.04616 0.0
C314 C 0.22031 0.78569 0.11498 0.0
C315 C 0.27404 0.78587 0.02156 0.0
C316 C 0.15874 0.73002 0.19897 0.0
C317 C 0.17031 0.74258 0.17445 0.0
C318 C 0.21452 0.73593 0.11188 0.0
C319 C 0.24284 0.78563 0.06233 0.0
C320 C 0.22957 0.77296 0.08837 0.0
C321 C 0.19327 0.73587 0.16472 0.0
C322 C 0.20537 0.74871 0.13828 0.0
H323 H 0.24435 0.83925 0.02289 0.0
H324 H 0.22212 0.81857 0.06473 0.0
H325 H 0.23252 0.73748 0.06671 0.0
H326 H 0.2025 0.68974 0.21676 0.0
H327 H 0.22239 0.71126 0.17322 0.0
C328 C 0.05261 0.28538 0.06094 0.0
C329 C 0.04278 0.28587 0.09205 0.0
C330 C 0.0387 0.27921 0.03439 0.0
C331 C 0.97657 0.2812 0.00893 0.0
H332 H 0.00083 0.24914 0.93265 0.0
C333 C 0.92158 0.27792 0.89259 0.0
C334 C 0.93403 0.28461 0.8647 0.0
C335 C 0.93381 0.27208 0.92079 0.0
C336 C -0.0062 0.25815 0.95376 0.0
H337 H 0.01098 0.27873 0.11987 0.0
H338 H -0.01324 0.26776 0.0735 0.0
H339 H 0.02445 0.24942 0.98189 0.0
H340 H 0.96912 0.28905 0.84406 0.0
H341 H -0.00964 0.2792 0.89317 0.0
H342 H 0.94636 0.2907 0.98067 0.0
C343 C 0.00514 0.27256 0.06962 0.0
C344 C 0.00733 0.2583 0.98197 0.0
C345 C 0.01907 0.27872 0.0962 0.0
C346 C 0.95896 0.28406 0.86513 0.0
C347 C 0.97117 0.27824 0.8933 0.0
C348 C 0.96308 0.28106 0.98077 0.0
C349 C 0.01463 0.27335 0.03831 0.0
C350 C -0.0009 0.2703 0.00967 0.0
C351 C 0.95875 0.27278 0.9217 0.0
C352 C 0.97175 0.27001 0.95262 0.0
H353 H 0.07083 0.29071 0.05688 0.0
H354 H 0.04654 0.28022 0.01062 0.0
H355 H 0.96982 0.29092 0.02965 0.0
H356 H 0.90237 0.27798 0.89302 0.0
H357 H 0.92371 0.26757 0.94211 0.0
C358 C 0.69546 0.04653 0.34012 0.0
C359 C 0.67817 0.06452 0.33606 0.0
C360 C 0.70158 0.03129 0.31454 0.0
C361 C 0.69463 0.02279 0.22576 0.0
H362 H 0.69688 0.95517 0.24723 0.0
C363 C 0.69521 0.95033 0.12638 0.0
C364 C 0.67915 0.93144 0.13138 0.0
C365 C 0.70119 0.96585 0.15166 0.0
C366 C 0.69632 0.97398 0.24079 0.0
H367 H 0.65462 0.08132 0.3015 0.0
H368 H 0.66488 0.05464 0.25734 0.0
H369 H 0.6959 0.98499 0.29012 0.0
H370 H 0.65772 0.91335 0.16723 0.0
H371 H 0.66769 0.94051 0.21086 0.0
H372 H 0.69347 0.01175 0.17649 0.0
C373 C 0.67403 0.0524 0.28004 0.0
C374 C 0.69608 -0.00886 0.26543 0.0
C375 C 0.66798 0.06764 0.30552 0.0
C376 C 0.67011 0.92774 0.16249 0.0
C377 C 0.676 0.94326 0.18766 0.0
C378 C 0.69472 0.00564 0.20114 0.0
C379 C 0.69053 0.0337 0.28437 0.0
C380 C 0.69453 0.01575 0.25824 0.0
C381 C 0.6912 0.96284 0.18244 0.0
C382 C 0.69487 0.98099 0.20836 0.0
H383 H 0.70376 0.04374 0.36331 0.0
H384 H 0.71463 0.01731 0.31858 0.0
H385 H 0.69388 0.0416 0.21933 0.0
H386 H 0.70263 0.95359 0.10274 0.0
H387 H 0.71325 0.98051 0.1469 0.0
C388 C 0.91251 0.69387 0.55656 0.0
C389 C 0.92172 0.69447 0.58797 0.0
C390 C 0.92676 0.69982 0.53024 0.0
C391 C -0.01062 0.6993 0.50665 0.0
H392 H 0.96568 0.72934 0.42899 0.0
C393 C 0.04658 0.7028 0.39196 0.0
C394 C 0.03492 0.69546 0.36373 0.0
C395 C 0.03361 0.70847 0.41972 0.0
C396 C 0.97255 0.72088 0.45049 0.0
H397 H 0.95274 0.70323 0.6165 0.0
H398 H 0.97755 0.71378 0.57053 0.0
H399 H 0.9411 0.72909 0.47746 0.0
H400 H 0.00041 0.68961 0.34204 0.0
H401 H 0.9779 0.69916 0.39038 0.0
H402 H 0.02043 0.69031 0.47955 0.0
C403 C 0.9594 0.70833 0.56625 0.0
C404 C 0.95848 0.72075 0.47825 0.0
C405 C 0.94513 0.7024 0.5926 0.0
C406 C 0.00998 0.69513 0.36339 0.0
C407 C -0.00296 0.70078 0.39111 0.0
C408 C 0.00342 0.6994 0.47892 0.0
C409 C 0.95056 0.70652 0.5347 0.0
C410 C 0.96653 0.7095 0.50646 0.0
C411 C 0.0087 0.70695 0.41985 0.0
C412 C -0.00502 0.70972 0.45029 0.0
H413 H 0.89454 0.6879 0.55212 0.0
H414 H 0.91943 0.69802 0.50628 0.0
H415 H -0.00399 0.69016 0.52779 0.0
H416 H 0.06577 0.70341 0.39298 0.0
H417 H 0.04313 0.71354 0.44131 0.0
C418 C 0.30171 0.91175 0.80243 0.0
C419 C 0.29124 0.91525 0.8328 0.0
C420 C 0.29528 0.92613 0.77641 0.0
C421 C 0.27112 0.9862 0.75965 0.0
H422 H 0.27599 0.96378 0.67146 0.0
C423 C 0.29713 0.04822 0.65588 0.0
C424 C 0.28916 0.04343 0.62449 0.0
C425 C 0.29104 0.0331 0.68128 0.0
C426 C 0.27407 0.97038 0.69587 0.0
H427 H 0.26474 0.93571 0.85917 0.0
H428 H 0.25318 0.9606 0.81348 0.0
H429 H 0.27584 0.93487 0.71514 0.0
H430 H 0.26729 0.01981 0.59553 0.0
H431 H 0.25626 -0.00639 0.64009 0.0
H432 H 0.26933 0.02171 0.74038 0.0
C433 C 0.26675 0.94703 0.80999 0.0
C434 C 0.27433 0.95377 0.721 0.0
C435 C 0.27327 0.93267 0.83614 0.0
C436 C 0.27388 0.02389 0.6194 0.0
C437 C 0.26768 0.00879 0.64491 0.0
C438 C 0.27067 0.0028 0.73451 0.0
C439 C 0.27809 0.94431 0.77998 0.0
C440 C 0.27369 0.96151 0.75325 0.0
C441 C 0.27667 0.01287 0.67603 0.0
C442 C 0.27298 -0.00484 0.70234 0.0
H443 H 0.31559 0.89849 0.79896 0.0
H444 H 0.30467 0.92369 0.75388 0.0
H445 H 0.27068 -0.00711 0.78415 0.0
H446 H 0.3089 0.06313 0.66071 0.0
H447 H 0.2986 0.03669 0.70474 0.0
loop_
_geom_bond_atom_site_label_1
_geom_bond_atom_site_label_2
_geom_bond_distance
_geom_bond_site_symmetry_2
_ccdc_geom_bond_type
O0 Cd1 2.300 . S
O0 C7 1.275 . S
Cd1 O0 2.300 . S
Cd1 O9 2.381 . S
Cd1 O10 2.378 . S
O2 Cd3 2.385 . S
O2 C7 1.255 . S
Cd3 O2 2.385 . S
Cd3 O4 2.317 . S
O4 Cd3 2.317 . S
O4 C5 1.232 . S
C5 O4 1.232 . S
C5 O6 1.218 . S
O6 C5 1.218 . S
C7 O0 1.275 . S
C7 O2 1.255 . S
C8 O9 1.258 . S
C8 O10 1.256 . S
O9 Cd1 2.381 . S
O9 C8 1.258 . S
O10 Cd1 2.378 . S
O10 C8 1.256 . S
O11 Cd12 2.300 . S
O11 C18 1.275 . S
Cd12 O11 2.300 . S
Cd12 O20 2.381 . S
Cd12 O21 2.378 . S
O13 Cd14 2.385 . S
O13 C18 1.255 . S
Cd14 O13 2.385 . S
Cd14 O15 2.317 . S
O15 Cd14 2.317 . S
O15 C16 1.232 . S
C16 O15 1.232 . S
C16 O17 1.218 . S
O17 C16 1.218 . S
C18 O11 1.275 . S
C18 O13 1.255 . S
C19 O20 1.258 . S
C19 O21 1.256 . S
O20 Cd12 2.381 . S
O20 C19 1.258 . S
O21 Cd12 2.378 . S
O21 C19 1.256 . S
O22 Cd23 2.300 . S
O22 C29 1.275 . S
Cd23 O22 2.300 . S
Cd23 O31 2.381 . S
Cd23 O32 2.378 . S
O24 Cd25 2.385 . S
O24 C29 1.255 . S
Cd25 O24 2.385 . S
Cd25 O26 2.317 . S
O26 Cd25 2.317 . S
O26 C27 1.232 . S
C27 O26 1.232 . S
C27 O28 1.218 . S
O28 C27 1.218 . S
C29 O22 1.275 . S
C29 O24 1.255 . S
C30 O31 1.258 . S
C30 O32 1.256 . S
O31 Cd23 2.381 . S
O31 C30 1.258 . S
O32 Cd23 2.378 . S
O32 C30 1.256 . S
O33 Cd34 2.301 1_556 S
O33 C40 1.275 . S
Cd34 O33 2.301 1_554 S
Cd34 O42 2.381 . S
Cd34 O43 2.378 . S
O35 Cd36 2.385 . S
O35 C40 1.255 . S
Cd36 O35 2.385 . S
Cd36 O37 2.317 . S
O37 Cd36 2.317 . S
O37 C38 1.232 . S
C38 O37 1.232 . S
C38 O39 1.218 . S
O39 C38 1.218 . S
C40 O33 1.275 . S
C40 O35 1.255 . S
C41 O42 1.258 . S
C41 O43 1.256 . S
O42 Cd34 2.381 . S
O42 C41 1.258 . S
O43 Cd34 2.378 . S
O43 C41 1.256 . S
O44 Cd45 2.300 . S
O44 C51 1.275 . S
Cd45 O44 2.300 . S
Cd45 O53 2.381 . S
Cd45 O54 2.378 . S
O46 Cd47 2.385 . S
O46 C51 1.255 . S
Cd47 O46 2.385 . S
Cd47 O48 2.317 . S
O48 Cd47 2.317 . S
O48 C49 1.232 . S
C49 O48 1.232 . S
C49 O50 1.218 . S
O50 C49 1.218 . S
C51 O44 1.275 . S
C51 O46 1.255 . S
C52 O53 1.258 . S
C52 O54 1.256 . S
O53 Cd45 2.381 . S
O53 C52 1.258 . S
O54 Cd45 2.378 . S
O54 C52 1.256 . S
O55 Cd56 2.300 . S
O55 C62 1.275 . S
Cd56 O55 2.300 . S
Cd56 O64 2.381 . S
Cd56 O65 2.378 . S
O57 Cd58 2.385 . S
O57 C62 1.255 . S
Cd58 O57 2.385 . S
Cd58 O59 2.317 . S
O59 Cd58 2.317 . S
O59 C60 1.232 . S
C60 O59 1.232 . S
C60 O61 1.218 . S
O61 C60 1.218 . S
C62 O55 1.275 . S
C62 O57 1.255 . S
C63 O64 1.258 . S
C63 O65 1.256 . S
O64 Cd56 2.381 . S
O64 C63 1.258 . S
O65 Cd56 2.378 . S
O65 C63 1.256 . S
O66 Cd67 2.300 . S
O66 C73 1.275 . S
Cd67 O66 2.300 . S
Cd67 O75 2.381 . S
Cd67 O76 2.378 . S
O68 Cd69 2.385 . S
O68 C73 1.255 . S
Cd69 O68 2.385 . S
Cd69 O70 2.317 . S
O70 Cd69 2.317 . S
O70 C71 1.232 . S
C71 O70 1.232 . S
C71 O72 1.218 . S
O72 C71 1.218 . S
C73 O66 1.275 . S
C73 O68 1.255 . S
C74 O75 1.258 . S
C74 O76 1.256 . S
O75 Cd67 2.381 . S
O75 C74 1.258 . S
O76 Cd67 2.378 . S
O76 C74 1.256 . S
O77 Cd78 2.301 1_554 S
O77 C84 1.275 . S
Cd78 O77 2.301 1_556 S
Cd78 O86 2.381 . S
Cd78 O87 2.378 . S
O79 Cd80 2.385 . S
O79 C84 1.255 . S
Cd80 O79 2.385 . S
Cd80 O81 2.317 . S
O81 Cd80 2.317 . S
O81 C82 1.232 . S
C82 O81 1.232 . S
C82 O83 1.218 . S
O83 C82 1.218 . S
C84 O77 1.275 . S
C84 O79 1.255 . S
C85 O86 1.258 . S
C85 O87 1.256 . S
O86 Cd78 2.381 . S
O86 C85 1.258 . S
O87 Cd78 2.378 . S
O87 C85 1.256 . S
C88 C89 1.349 . S
C88 C90 1.327 . S
C88 H113 0.950 . S
C89 C88 1.349 . S
C89 C105 1.349 . S
C90 C88 1.327 . S
C90 C109 1.429 . S
C90 H114 0.950 . S
C91 C108 1.574 . S
C91 C110 1.368 . S
C91 H115 0.949 . S
H92 C96 0.949 . S
C93 C94 1.349 . S
C93 C95 1.327 . S
C93 H116 0.950 . S
C94 C93 1.349 . S
C94 C106 1.349 . S
C95 C93 1.327 . S
C95 C111 1.429 . S
C95 H117 0.950 . S
C96 H92 0.949 . S
C96 C104 1.574 . S
C96 C112 1.368 . S
H97 C105 0.950 . S
H98 C103 0.950 . S
H99 C104 0.949 . S
H100 C106 0.950 . S
H101 C107 0.950 . S
H102 C108 0.949 . S
C103 H98 0.950 . S
C103 C105 1.327 . S
C103 C109 1.429 . S
C104 C96 1.574 . S
C104 H99 0.949 . S
C104 C110 1.368 . S
C105 C89 1.349 . S
C105 H97 0.950 . S
C105 C103 1.327 . S
C106 C94 1.349 . S
C106 H100 0.950 . S
C106 C107 1.327 . S
C107 H101 0.950 . S
C107 C106 1.327 . S
C107 C111 1.429 . S
C108 C91 1.574 . S
C108 H102 0.949 . S
C108 C112 1.368 . S
C109 C90 1.429 . S
C109 C103 1.429 . S
C109 C110 1.523 . S
C110 C91 1.368 . S
C110 C104 1.368 . S
C110 C109 1.523 . S
C111 C95 1.429 . S
C111 C107 1.429 . S
C111 C112 1.523 . S
C112 C96 1.368 . S
C112 C108 1.368 . S
C112 C111 1.523 . S
H113 C88 0.950 . S
H114 C90 0.950 . S
H115 C91 0.949 . S
H116 C93 0.950 . S
H117 C95 0.950 . S
C118 C119 1.349 . S
C118 C120 1.327 . S
C118 H143 0.950 . S
C119 C118 1.349 . S
C119 C135 1.349 . S
C120 C118 1.327 . S
C120 C139 1.429 . S
C120 H144 0.950 . S
C121 C138 1.574 . S
C121 C140 1.368 . S
C121 H145 0.949 . S
H122 C126 0.949 . S
C123 C124 1.349 . S
C123 C125 1.327 . S
C123 H146 0.950 . S
C124 C123 1.349 . S
C124 C136 1.349 . S
C125 C123 1.327 . S
C125 C141 1.429 . S
C125 H147 0.950 . S
C126 H122 0.949 . S
C126 C134 1.574 . S
C126 C142 1.368 . S
H127 C135 0.950 . S
H128 C133 0.950 . S
H129 C134 0.949 . S
H130 C136 0.950 . S
H131 C137 0.950 . S
H132 C138 0.949 . S
C133 H128 0.950 . S
C133 C135 1.327 . S
C133 C139 1.429 . S
C134 C126 1.574 . S
C134 H129 0.949 . S
C134 C140 1.368 . S
C135 C119 1.349 . S
C135 H127 0.950 . S
C135 C133 1.327 . S
C136 C124 1.349 . S
C136 H130 0.950 . S
C136 C137 1.327 . S
C137 H131 0.950 . S
C137 C136 1.327 . S
C137 C141 1.429 . S
C138 C121 1.574 . S
C138 H132 0.949 . S
C138 C142 1.368 . S
C139 C120 1.429 . S
C139 C133 1.429 . S
C139 C140 1.523 . S
C140 C121 1.368 . S
C140 C134 1.368 . S
C140 C139 1.523 . S
C141 C125 1.429 . S
C141 C137 1.429 . S
C141 C142 1.523 . S
C142 C126 1.368 . S
C142 C138 1.368 . S
C142 C141 1.523 . S
H143 C118 0.950 . S
H144 C120 0.950 . S
H145 C121 0.949 . S
H146 C123 0.950 . S
H147 C125 0.950 . S
C148 C149 1.349 . S
C148 C150 1.327 . S
C148 H173 0.950 . S
C149 C148 1.349 . S
C149 C165 1.349 . S
C150 C148 1.327 . S
C150 C169 1.429 . S
C150 H174 0.950 . S
C151 C168 1.574 . S
C151 C170 1.368 . S
C151 H175 0.949 . S
H152 C156 0.949 . S
C153 C154 1.349 . S
C153 C155 1.327 . S
C153 H176 0.950 . S
C154 C153 1.349 . S
C154 C166 1.349 . S
C155 C153 1.327 . S
C155 C171 1.429 . S
C155 H177 0.950 . S
C156 H152 0.949 . S
C156 C164 1.574 . S
C156 C172 1.368 . S
H157 C165 0.950 . S
H158 C163 0.950 . S
H159 C164 0.949 . S
H160 C166 0.950 . S
H161 C167 0.950 . S
H162 C168 0.949 . S
C163 H158 0.950 . S
C163 C165 1.327 . S
C163 C169 1.429 . S
C164 C156 1.574 . S
C164 H159 0.949 . S
C164 C170 1.368 . S
C165 C149 1.349 . S
C165 H157 0.950 . S
C165 C163 1.327 . S
C166 C154 1.349 . S
C166 H160 0.950 . S
C166 C167 1.327 . S
C167 H161 0.950 . S
C167 C166 1.327 . S
C167 C171 1.429 . S
C168 C151 1.574 . S
C168 H162 0.949 . S
C168 C172 1.368 . S
C169 C150 1.429 . S
C169 C163 1.429 . S
C169 C170 1.523 . S
C170 C151 1.368 . S
C170 C164 1.368 . S
C170 C169 1.523 . S
C171 C155 1.429 . S
C171 C167 1.429 . S
C171 C172 1.523 . S
C172 C156 1.368 . S
C172 C168 1.368 . S
C172 C171 1.523 . S
H173 C148 0.950 . S
H174 C150 0.950 . S
H175 C151 0.949 . S
H176 C153 0.950 . S
H177 C155 0.950 . S
C178 C179 1.349 1_556 S
C178 C180 1.327 . S
C178 H203 0.950 . S
C179 C178 1.349 1_554 S
C179 C195 1.349 . S
C180 C178 1.327 . S
C180 C199 1.429 1_556 S
C180 H204 0.950 . S
C181 C198 1.574 . S
C181 C200 1.368 . S
C181 H205 0.949 . S
H182 C186 0.949 . S
C183 C184 1.349 1_554 S
C183 C185 1.327 . S
C183 H206 0.950 . S
C184 C183 1.349 1_556 S
C184 C196 1.349 . S
C185 C183 1.327 . S
C185 C201 1.429 1_554 S
C185 H207 0.950 . S
C186 H182 0.949 . S
C186 C194 1.574 . S
C186 C202 1.368 . S
H187 C195 0.950 . S
H188 C193 0.950 . S
H189 C194 0.949 . S
H190 C196 0.950 . S
H191 C197 0.950 . S
H192 C198 0.949 . S
C193 H188 0.950 . S
C193 C195 1.327 . S
C193 C199 1.429 . S
C194 C186 1.574 . S
C194 H189 0.949 . S
C194 C200 1.368 1_556 S
C195 C179 1.349 . S
C195 H187 0.950 . S
C195 C193 1.327 . S
C196 C184 1.349 . S
C196 H190 0.950 . S
C196 C197 1.327 . S
C197 H191 0.950 . S
C197 C196 1.327 . S
C197 C201 1.429 . S
C198 C181 1.574 . S
C198 H192 0.949 . S
C198 C202 1.368 1_554 S
C199 C180 1.429 1_554 S
C199 C193 1.429 . S
C199 C200 1.523 . S
C200 C181 1.368 . S
C200 C194 1.368 1_554 S
C200 C199 1.523 . S
C201 C185 1.429 1_556 S
C201 C197 1.429 . S
C201 C202 1.523 . S
C202 C186 1.368 . S
C202 C198 1.368 1_556 S
C202 C201 1.523 . S
H203 C178 0.950 . S
H204 C180 0.950 . S
H205 C181 0.949 . S
H206 C183 0.950 . S
H207 C185 0.950 . S
C208 C209 1.349 . S
C208 C210 1.327 . S
C208 H233 0.950 . S
C209 C208 1.349 . S
C209 C225 1.349 . S
C210 C208 1.327 . S
C210 C229 1.429 . S
C210 H234 0.950 . S
C211 C228 1.574 . S
C211 C230 1.368 . S
C211 H235 0.949 . S
H212 C216 0.949 . S
C213 C214 1.349 . S
C213 C215 1.327 . S
C213 H236 0.950 . S
C214 C213 1.349 . S
C214 C226 1.349 . S
C215 C213 1.327 . S
C215 C231 1.429 . S
C215 H237 0.950 . S
C216 H212 0.949 . S
C216 C224 1.574 . S
C216 C232 1.368 . S
H217 C225 0.950 . S
H218 C223 0.950 . S
H219 C224 0.949 . S
H220 C226 0.950 . S
H221 C227 0.950 . S
H222 C228 0.949 . S
C223 H218 0.950 . S
C223 C225 1.327 . S
C223 C229 1.429 . S
C224 C216 1.574 . S
C224 H219 0.949 . S
C224 C230 1.368 . S
C225 C209 1.349 . S
C225 H217 0.950 . S
C225 C223 1.327 . S
C226 C214 1.349 . S
C226 H220 0.950 . S
C226 C227 1.327 . S
C227 H221 0.950 . S
C227 C226 1.327 . S
C227 C231 1.429 . S
C228 C211 1.574 . S
C228 H222 0.949 . S
C228 C232 1.368 . S
C229 C210 1.429 . S
C229 C223 1.429 . S
C229 C230 1.523 . S
C230 C211 1.368 . S
C230 C224 1.368 . S
C230 C229 1.523 . S
C231 C215 1.429 . S
C231 C227 1.429 . S
C231 C232 1.523 . S
C232 C216 1.368 . S
C232 C228 1.368 . S
C232 C231 1.523 . S
H233 C208 0.950 . S
H234 C210 0.950 . S
H235 C211 0.949 . S
H236 C213 0.950 . S
H237 C215 0.950 . S
C238 C239 1.349 . S
C238 C240 1.327 . S
C238 H263 0.950 . S
C239 C238 1.349 . S
C239 C255 1.349 . S
C240 C238 1.327 . S
C240 C259 1.429 . S
C240 H264 0.950 . S
C241 C258 1.574 . S
C241 C260 1.368 . S
C241 H265 0.949 . S
H242 C246 0.949 . S
C243 C244 1.349 . S
C243 C245 1.327 . S
C243 H266 0.950 . S
C244 C243 1.349 . S
C244 C256 1.349 . S
C245 C243 1.327 . S
C245 C261 1.429 . S
C245 H267 0.950 . S
C246 H242 0.949 . S
C246 C254 1.574 . S
C246 C262 1.368 . S
H247 C255 0.950 . S
H248 C253 0.950 . S
H249 C254 0.949 . S
H250 C256 0.950 . S
H251 C257 0.950 . S
H252 C258 0.949 . S
C253 H248 0.950 . S
C253 C255 1.327 . S
C253 C259 1.429 . S
C254 C246 1.574 . S
C254 H249 0.949 . S
C254 C260 1.368 . S
C255 C239 1.349 . S
C255 H247 0.950 . S
C255 C253 1.327 . S
C256 C244 1.349 . S
C256 H250 0.950 . S
C256 C257 1.327 . S
C257 H251 0.950 . S
C257 C256 1.327 . S
C257 C261 1.429 . S
C258 C241 1.574 . S
C258 H252 0.949 . S
C258 C262 1.368 . S
C259 C240 1.429 . S
C259 C253 1.429 . S
C259 C260 1.523 . S
C260 C241 1.368 . S
C260 C254 1.368 . S
C260 C259 1.523 . S
C261 C245 1.429 . S
C261 C257 1.429 . S
C261 C262 1.523 . S
C262 C246 1.368 . S
C262 C258 1.368 . S
C262 C261 1.523 . S
H263 C238 0.950 . S
H264 C240 0.950 . S
H265 C241 0.949 . S
H266 C243 0.950 . S
H267 C245 0.950 . S
C268 C269 1.349 . S
C268 C270 1.327 . S
C268 H293 0.950 . S
C269 C268 1.349 . S
C269 C285 1.349 . S
C270 C268 1.327 . S
C270 C289 1.429 . S
C270 H294 0.950 . S
C271 C288 1.574 . S
C271 C290 1.368 . S
C271 H295 0.949 . S
H272 C276 0.949 . S
C273 C274 1.349 . S
C273 C275 1.327 . S
C273 H296 0.950 . S
C274 C273 1.349 . S
C274 C286 1.349 . S
C275 C273 1.327 . S
C275 C291 1.429 . S
C275 H297 0.950 . S
C276 H272 0.949 . S
C276 C284 1.574 . S
C276 C292 1.368 . S
H277 C285 0.950 . S
H278 C283 0.950 . S
H279 C284 0.949 . S
H280 C286 0.950 . S
H281 C287 0.950 . S
H282 C288 0.949 . S
C283 H278 0.950 . S
C283 C285 1.327 . S
C283 C289 1.429 . S
C284 C276 1.574 . S
C284 H279 0.949 . S
C284 C290 1.368 . S
C285 C269 1.349 . S
C285 H277 0.950 . S
C285 C283 1.327 . S
C286 C274 1.349 . S
C286 H280 0.950 . S
C286 C287 1.327 . S
C287 H281 0.950 . S
C287 C286 1.327 . S
C287 C291 1.429 . S
C288 C271 1.574 . S
C288 H282 0.949 . S
C288 C292 1.368 . S
C289 C270 1.429 . S
C289 C283 1.429 . S
C289 C290 1.523 . S
C290 C271 1.368 . S
C290 C284 1.368 . S
C290 C289 1.523 . S
C291 C275 1.429 . S
C291 C287 1.429 . S
C291 C292 1.523 . S
C292 C276 1.368 . S
C292 C288 1.368 . S
C292 C291 1.523 . S
H293 C268 0.950 . S
H294 C270 0.950 . S
H295 C271 0.949 . S
H296 C273 0.950 . S
H297 C275 0.950 . S
C298 C299 1.349 . S
C298 C300 1.327 . S
C298 H323 0.950 . S
C299 C298 1.349 . S
C299 C315 1.349 . S
C300 C298 1.327 . S
C300 C319 1.429 . S
C300 H324 0.950 . S
C301 C318 1.574 . S
C301 C320 1.368 . S
C301 H325 0.949 . S
H302 C306 0.949 . S
C303 C304 1.349 . S
C303 C305 1.327 . S
C303 H326 0.950 . S
C304 C303 1.349 . S
C304 C316 1.349 . S
C305 C303 1.327 . S
C305 C321 1.429 . S
C305 H327 0.950 . S
C306 H302 0.949 . S
C306 C314 1.574 . S
C306 C322 1.368 . S
H307 C315 0.950 . S
H308 C313 0.950 . S
H309 C314 0.949 . S
H310 C316 0.950 . S
H311 C317 0.950 . S
H312 C318 0.949 . S
C313 H308 0.950 . S
C313 C315 1.327 . S
C313 C319 1.429 . S
C314 C306 1.574 . S
C314 H309 0.949 . S
C314 C320 1.368 . S
C315 C299 1.349 . S
C315 H307 0.950 . S
C315 C313 1.327 . S
C316 C304 1.349 . S
C316 H310 0.950 . S
C316 C317 1.327 . S
C317 H311 0.950 . S
C317 C316 1.327 . S
C317 C321 1.429 . S
C318 C301 1.574 . S
C318 H312 0.949 . S
C318 C322 1.368 . S
C319 C300 1.429 . S
C319 C313 1.429 . S
C319 C320 1.523 . S
C320 C301 1.368 . S
C320 C314 1.368 . S
C320 C319 1.523 . S
C321 C305 1.429 . S
C321 C317 1.429 . S
C321 C322 1.523 . S
C322 C306 1.368 . S
C322 C318 1.368 . S
C322 C321 1.523 . S
H323 C298 0.950 . S
H324 C300 0.950 . S
H325 C301 0.949 . S
H326 C303 0.950 . S
H327 C305 0.950 . S
C328 C329 1.349 . S
C328 C330 1.327 . S
C328 H353 0.950 . S
C329 C328 1.349 . S
C329 C345 1.349 . S
C330 C328 1.327 . S
C330 C349 1.429 . S
C330 H354 0.950 . S
C331 C348 1.574 1_554 S
C331 C350 1.368 1_655 S
C331 H355 0.949 . S
H332 C336 0.949 . S
C333 C334 1.349 . S
C333 C335 1.327 . S
C333 H356 0.950 . S
C334 C333 1.349 . S
C334 C346 1.349 . S
C335 C333 1.327 . S
C335 C351 1.429 . S
C335 H357 0.950 . S
C336 H332 0.949 . S
C336 C344 1.574 1_556 S
C336 C352 1.368 1_455 S
H337 C345 0.950 . S
H338 C343 0.950 . S
H339 C344 0.949 . S
H340 C346 0.950 . S
H341 C347 0.950 . S
H342 C348 0.949 . S
C343 H338 0.950 . S
C343 C345 1.327 . S
C343 C349 1.429 . S
C344 C336 1.574 1_554 S
C344 H339 0.949 . S
C344 C350 1.368 . S
C345 C329 1.349 . S
C345 H337 0.950 . S
C345 C343 1.327 . S
C346 C334 1.349 . S
C346 H340 0.950 . S
C346 C347 1.327 . S
C347 H341 0.950 . S
C347 C346 1.327 . S
C347 C351 1.429 . S
C348 C331 1.574 1_556 S
C348 H342 0.949 . S
C348 C352 1.368 . S
C349 C330 1.429 . S
C349 C343 1.429 . S
C349 C350 1.523 . S
C350 C331 1.368 1_455 S
C350 C344 1.368 . S
C350 C349 1.523 . S
C351 C335 1.429 . S
C351 C347 1.429 . S
C351 C352 1.523 . S
C352 C336 1.368 1_655 S
C352 C348 1.368 . S
C352 C351 1.523 . S
H353 C328 0.950 . S
H354 C330 0.950 . S
H355 C331 0.949 . S
H356 C333 0.950 . S
H357 C335 0.950 . S
C358 C359 1.349 . S
C358 C360 1.327 . S
C358 H383 0.950 . S
C359 C358 1.349 . S
C359 C375 1.349 . S
C360 C358 1.327 . S
C360 C379 1.429 . S
C360 H384 0.950 1_545 S
C361 C378 1.574 . S
C361 C380 1.368 . S
C361 H385 0.949 . S
H362 C366 0.949 . S
C363 C364 1.349 . S
C363 C365 1.327 . S
C363 H386 0.950 . S
C364 C363 1.349 . S
C364 C376 1.349 . S
C365 C363 1.327 . S
C365 C381 1.429 . S
C365 H387 0.950 1_565 S
C366 H362 0.949 . S
C366 C374 1.574 . S
C366 C382 1.368 . S
H367 C375 0.950 . S
H368 C373 0.950 . S
H369 C374 0.949 . S
H370 C376 0.950 . S
H371 C377 0.950 . S
H372 C378 0.949 . S
C373 H368 0.950 . S
C373 C375 1.327 . S
C373 C379 1.429 . S
C374 C366 1.574 . S
C374 H369 0.949 . S
C374 C380 1.368 1_565 S
C375 C359 1.349 . S
C375 H367 0.950 . S
C375 C373 1.327 . S
C376 C364 1.349 . S
C376 H370 0.950 . S
C376 C377 1.327 . S
C377 H371 0.950 . S
C377 C376 1.327 . S
C377 C381 1.429 . S
C378 C361 1.574 . S
C378 H372 0.949 . S
C378 C382 1.368 1_545 S
C379 C360 1.429 . S
C379 C373 1.429 . S
C379 C380 1.523 . S
C380 C361 1.368 . S
C380 C374 1.368 1_545 S
C380 C379 1.523 . S
C381 C365 1.429 . S
C381 C377 1.429 . S
C381 C382 1.523 . S
C382 C366 1.368 . S
C382 C378 1.368 1_565 S
C382 C381 1.523 . S
H383 C358 0.950 . S
H384 C360 0.950 1_565 S
H385 C361 0.949 . S
H386 C363 0.950 . S
H387 C365 0.950 1_545 S
C388 C389 1.349 . S
C388 C390 1.327 . S
C388 H413 0.950 . S
C389 C388 1.349 . S
C389 C405 1.349 . S
C390 C388 1.327 . S
C390 C409 1.429 . S
C390 H414 0.950 . S
C391 C408 1.574 . S
C391 C410 1.368 1_455 S
C391 H415 0.949 . S
H392 C396 0.949 . S
C393 C394 1.349 . S
C393 C395 1.327 . S
C393 H416 0.950 . S
C394 C393 1.349 . S
C394 C406 1.349 . S
C395 C393 1.327 . S
C395 C411 1.429 . S
C395 H417 0.950 . S
C396 H392 0.949 . S
C396 C404 1.574 . S
C396 C412 1.368 1_655 S
H397 C405 0.950 . S
H398 C403 0.950 . S
H399 C404 0.949 . S
H400 C406 0.950 . S
H401 C407 0.950 . S
H402 C408 0.949 . S
C403 H398 0.950 . S
C403 C405 1.327 . S
C403 C409 1.429 . S
C404 C396 1.574 . S
C404 H399 0.949 . S
C404 C410 1.368 . S
C405 C389 1.349 . S
C405 H397 0.950 . S
C405 C403 1.327 . S
C406 C394 1.349 . S
C406 H400 0.950 . S
C406 C407 1.327 . S
C407 H401 0.950 . S
C407 C406 1.327 . S
C407 C411 1.429 . S
C408 C391 1.574 . S
C408 H402 0.949 . S
C408 C412 1.368 . S
C409 C390 1.429 . S
C409 C403 1.429 . S
C409 C410 1.523 . S
C410 C391 1.368 1_655 S
C410 C404 1.368 . S
C410 C409 1.523 . S
C411 C395 1.429 . S
C411 C407 1.429 . S
C411 C412 1.523 . S
C412 C396 1.368 1_455 S
C412 C408 1.368 . S
C412 C411 1.523 . S
H413 C388 0.950 . S
H414 C390 0.950 . S
H415 C391 0.949 . S
H416 C393 0.950 . S
H417 C395 0.950 . S
C418 C419 1.349 . S
C418 C420 1.327 . S
C418 H443 0.950 . S
C419 C418 1.349 . S
C419 C435 1.349 . S
C420 C418 1.327 . S
C420 C439 1.429 . S
C420 H444 0.950 . S
C421 C438 1.574 . S
C421 C440 1.368 1_545 S
C421 H445 0.949 . S
H422 C426 0.949 . S
C423 C424 1.349 . S
C423 C425 1.327 . S
C423 H446 0.950 . S
C424 C423 1.349 . S
C424 C436 1.349 . S
C425 C423 1.327 . S
C425 C441 1.429 . S
C425 H447 0.950 . S
C426 H422 0.949 . S
C426 C434 1.574 . S
C426 C442 1.368 1_565 S
H427 C435 0.950 . S
H428 C433 0.950 1_545 S
H429 C434 0.949 . S
H430 C436 0.950 . S
H431 C437 0.950 1_565 S
H432 C438 0.949 . S
C433 H428 0.950 1_565 S
C433 C435 1.327 . S
C433 C439 1.429 . S
C434 C426 1.574 . S
C434 H429 0.949 . S
C434 C440 1.368 . S
C435 C419 1.349 . S
C435 H427 0.950 . S
C435 C433 1.327 . S
C436 C424 1.349 . S
C436 H430 0.950 . S
C436 C437 1.327 . S
C437 H431 0.950 1_545 S
C437 C436 1.327 . S
C437 C441 1.429 . S
C438 C421 1.574 . S
C438 H432 0.949 . S
C438 C442 1.368 . S
C439 C420 1.429 . S
C439 C433 1.429 . S
C439 C440 1.523 . S
C440 C421 1.368 1_565 S
C440 C434 1.368 . S
C440 C439 1.523 . S
C441 C425 1.429 . S
C441 C437 1.429 . S
C441 C442 1.523 . S
C442 C426 1.368 1_545 S
C442 C438 1.368 . S
C442 C441 1.523 . S
H443 C418 0.950 . S
H444 C420 0.950 . S
H445 C421 0.949 . S
H446 C423 0.950 . S
H447 C425 0.950 . S
C89 C7 1.498 . S
C94 C51 1.498 . S
C119 C18 1.498 . S
C124 C62 1.498 . S
C149 C29 1.499 . S
C154 C73 1.499 . S
C179 C84 1.499 . S
C184 C40 1.499 . S
C209 C8 1.522 . S
C214 C63 1.522 . S
C239 C19 1.522 . S
C244 C74 1.522 . S
C269 C30 1.522 . S
C274 C85 1.522 . S
C299 C41 1.522 . S
C304 C52 1.522 . S
C329 C5 1.342 . S
C334 C71 1.342 . S
C359 C16 1.342 . S
C364 C82 1.342 . S
C389 C27 1.342 . S
C394 C49 1.342 . S
C419 C38 1.342 . S
C424 C60 1.342 . S
