# Generated by pormake.
# Topology umz, (4)-cn, num edge types: 1
# Building blocks:
#     Node 0, Type 0, BuildingBlock: NAHDIM_clean_sbu_0, # of connection points: 4
#     Node 1, Type 0, BuildingBlock: NAHDIM_clean_sbu_0, # of connection points: 4
#     Node 2, Type 0, BuildingBlock: NAHDIM_clean_sbu_0, # of connection points: 4
#     Node 3, Type 0, BuildingBlock: NAHDIM_clean_sbu_0, # of connection points: 4
#     Node 4, Type 0, BuildingBlock: NAHDIM_clean_sbu_0, # of connection points: 4
#     Node 5, Type 0, BuildingBlock: NAHDIM_clean_sbu_0, # of connection points: 4
#     Node 6, Type 0, BuildingBlock: NAHDIM_clean_sbu_0, # of connection points: 4
#     Node 7, Type 0, BuildingBlock: NAHDIM_clean_sbu_0, # of connection points: 4
#     Node 8, Type 0, BuildingBlock: NAHDIM_clean_sbu_0, # of connection points: 4
#     Node 9, Type 0, BuildingBlock: NAHDIM_clean_sbu_0, # of connection points: 4
#     Node 10, Type 0, BuildingBlock: NAHDIM_clean_sbu_0, # of connection points: 4
#     Node 11, Type 0, BuildingBlock: NAHDIM_clean_sbu_0, # of connection points: 4
#     Node 12, Type 0, BuildingBlock: NAHDIM_clean_sbu_0, # of connection points: 4
#     Node 13, Type 0, BuildingBlock: NAHDIM_clean_sbu_0, # of connection points: 4
#     Node 14, Type 0, BuildingBlock: NAHDIM_clean_sbu_0, # of connection points: 4
#     Node 15, Type 0, BuildingBlock: NAHDIM_clean_sbu_0, # of connection points: 4
#     Edge 16, Type (0, 0), BuildingBlock: XIVTED_clean_linker_0, # of connection points: 2
#     Edge 17, Type (0, 0), BuildingBlock: XIVTED_clean_linker_0, # of connection points: 2
#     Edge 18, Type (0, 0), BuildingBlock: XIVTED_clean_linker_0, # of connection points: 2
#     Edge 19, Type (0, 0), BuildingBlock: XIVTED_clean_linker_0, # of connection points: 2
#     Edge 20, Type (0, 0), BuildingBlock: XIVTED_clean_linker_0, # of connection points: 2
#     Edge 21, Type (0, 0), BuildingBlock: XIVTED_clean_linker_0, # of connection points: 2
#     Edge 22, Type (0, 0), BuildingBlock: XIVTED_clean_linker_0, # of connection points: 2
#     Edge 23, Type (0, 0), BuildingBlock: XIVTED_clean_linker_0, # of connection points: 2
#     Edge 24, Type (0, 0), BuildingBlock: XIVTED_clean_linker_0, # of connection points: 2
#     Edge 25, Type (0, 0), BuildingBlock: XIVTED_clean_linker_0, # of connection points: 2
#     Edge 26, Type (0, 0), BuildingBlock: XIVTED_clean_linker_0, # of connection points: 2
#     Edge 27, Type (0, 0), BuildingBlock: XIVTED_clean_linker_0, # of connection points: 2
#     Edge 28, Type (0, 0), BuildingBlock: XIVTED_clean_linker_0, # of connection points: 2
#     Edge 29, Type (0, 0), BuildingBlock: XIVTED_clean_linker_0, # of connection points: 2
#     Edge 30, Type (0, 0), BuildingBlock: XIVTED_clean_linker_0, # of connection points: 2
#     Edge 31, Type (0, 0), BuildingBlock: XIVTED_clean_linker_0, # of connection points: 2
#     Edge 32, Type (0, 0), BuildingBlock: XIVTED_clean_linker_0, # of connection points: 2
#     Edge 33, Type (0, 0), BuildingBlock: XIVTED_clean_linker_0, # of connection points: 2
#     Edge 34, Type (0, 0), BuildingBlock: XIVTED_clean_linker_0, # of connection points: 2
#     Edge 35, Type (0, 0), BuildingBlock: XIVTED_clean_linker_0, # of connection points: 2
#     Edge 36, Type (0, 0), BuildingBlock: XIVTED_clean_linker_0, # of connection points: 2
#     Edge 37, Type (0, 0), BuildingBlock: XIVTED_clean_linker_0, # of connection points: 2
#     Edge 38, Type (0, 0), BuildingBlock: XIVTED_clean_linker_0, # of connection points: 2
#     Edge 39, Type (0, 0), BuildingBlock: XIVTED_clean_linker_0, # of connection points: 2
#     Edge 40, Type (0, 0), BuildingBlock: XIVTED_clean_linker_0, # of connection points: 2
#     Edge 41, Type (0, 0), BuildingBlock: XIVTED_clean_linker_0, # of connection points: 2
#     Edge 42, Type (0, 0), BuildingBlock: XIVTED_clean_linker_0, # of connection points: 2
#     Edge 43, Type (0, 0), BuildingBlock: XIVTED_clean_linker_0, # of connection points: 2
#     Edge 44, Type (0, 0), BuildingBlock: XIVTED_clean_linker_0, # of connection points: 2
#     Edge 45, Type (0, 0), BuildingBlock: XIVTED_clean_linker_0, # of connection points: 2
#     Edge 46, Type (0, 0), BuildingBlock: XIVTED_clean_linker_0, # of connection points: 2
#     Edge 47, Type (0, 0), BuildingBlock: XIVTED_clean_linker_0, # of connection points: 2
# Relax obj value: 0.220
# Max RMSD: 0.162
# Mean RMSD: 0.160
data_MOF--net-umz--node1-NAHDIM_clean_sbu_0--edge1-XIVTED_clean_linker_0
_symmetry_space_group_name_H-M    P1
_symmetry_Int_Tables_number       1
_symmetry_cell_setting            triclinic
loop_
_symmetry_equiv_pos_as_xyz
'x, y, z'
_cell_length_a     60.087108
_cell_length_b     60.068231
_cell_length_c     21.805186
_cell_angle_alpha  89.964893
_cell_angle_beta   90.038523
_cell_angle_gamma 90.02629
loop_
_atom_site_label
_atom_site_type_symbol
_atom_site_fract_x
_atom_site_fract_y
_atom_site_fract_z
_atom_type_partial_charge
C0 C 0.01045 0.69377 0.17304 0.0
O1 O 0.99335 0.68087 0.18508 0.0
O2 O 0.01068 0.63978 0.24683 0.0
Zn3 Zn 0.03712 0.65989 0.23597 0.0
O4 O 0.05935 0.64534 0.18059 0.0
C5 C 0.04065 0.66122 0.36725 0.0
O6 O 0.01886 0.65985 0.36386 0.0
O7 O 0.02951 0.68877 0.1943 0.0
C8 C 0.06606 0.62535 0.18477 0.0
O9 O 0.05791 0.61237 0.22776 0.0
C10 C 0.0013 0.62899 0.20396 0.0
O11 O 0.00837 0.63141 0.14735 0.0
O12 O 0.05181 0.6634 0.31811 0.0
C13 C 0.81898 0.01286 0.68802 0.0
O14 O 0.82879 0.99416 0.70366 0.0
O15 O 0.87465 0.0026 0.72615 0.0
Zn16 Zn 0.86103 0.03319 0.72224 0.0
O17 O 0.8753 0.05183 0.65644 0.0
C18 C 0.88261 0.04191 0.83525 0.0
O19 O 0.89353 0.02426 0.81661 0.0
O20 O 0.82893 0.03124 0.69716 0.0
C21 C 0.8919 0.06463 0.66449 0.0
O22 O 0.90197 0.06496 0.71795 0.0
C23 C 0.8863 0.99334 0.68488 0.0
O24 O 0.88907 0.00339 0.63191 0.0
O25 O 0.86626 0.04888 0.80339 0.0
C26 C 0.4943 0.83164 0.11075 0.0
O27 O 0.49656 0.85002 0.07864 0.0
O28 O 0.49773 0.88503 0.19815 0.0
Zn29 Zn 0.47323 0.86297 0.18377 0.0
O30 O 0.4548 0.87287 0.1113 0.0
C31 C 0.44239 0.88248 0.25833 0.0
O32 O 0.44739 0.89774 0.2175 0.0
O33 O 0.48509 0.83268 0.16316 0.0
C34 C 0.45755 0.89154 0.08496 0.0
O35 O 0.47377 0.90467 0.10294 0.0
C36 C 0.51664 0.88106 0.22178 0.0
O37 O 0.52177 0.86063 0.23796 0.0
O38 O 0.45254 0.86391 0.25679 0.0
C39 C 0.69476 0.48561 0.64187 0.0
O40 O 0.68804 0.50179 0.67786 0.0
O41 O 0.63953 0.48906 0.70871 0.0
Zn42 Zn 0.6547 0.46108 0.68148 0.0
O43 O 0.63532 0.44468 0.62078 0.0
C44 C 0.65241 0.42248 0.76211 0.0
O45 O 0.64909 0.4113 0.71121 0.0
O46 O 0.68387 0.4675 0.64001 0.0
C47 C 0.64466 0.43107 0.58428 0.0
O48 O 0.66632 0.42835 0.58745 0.0
C49 C 0.63401 0.50592 0.67707 0.0
O50 O 0.63853 0.50641 0.61815 0.0
O51 O 0.65731 0.44303 0.75898 0.0
C52 C 0.00625 0.80917 0.84235 0.0
O53 O 0.99075 0.82453 0.84532 0.0
O54 O 0.00284 0.86165 0.76194 0.0
Zn55 Zn 0.03035 0.84334 0.77684 0.0
O56 O 0.04993 0.85808 0.83932 0.0
C57 C 0.03708 0.84346 0.64672 0.0
O58 O 0.01535 0.84107 0.64625 0.0
O59 O 0.02371 0.81291 0.81106 0.0
C60 C 0.05918 0.87692 0.83204 0.0
O61 O 0.05533 0.88833 0.78172 0.0
C62 C 0.99379 0.8742 0.80153 0.0
O63 O 0.00185 0.87482 0.85753 0.0
O64 O 0.04734 0.84289 0.69769 0.0
C65 C 0.691 0.01246 0.39464 0.0
O66 O 0.67274 0.00213 0.41164 0.0
O67 O 0.64007 0.0065 0.31601 0.0
Zn68 Zn 0.65955 0.03376 0.31916 0.0
O69 O 0.6471 0.05553 0.38003 0.0
C70 C 0.65711 0.03644 0.18721 0.0
O71 O 0.65834 0.01465 0.19101 0.0
O72 O 0.69004 0.02632 0.35061 0.0
C73 C 0.63493 0.07216 0.36673 0.0
O74 O 0.62897 0.07558 0.30953 0.0
C75 C 0.62008 0.00914 0.29852 0.0
O76 O 0.61309 0.02928 0.28513 0.0
O77 O 0.65918 0.048 0.23571 0.0
C78 C 0.50614 0.68346 0.90705 0.0
O79 O 0.51115 0.66575 0.93966 0.0
O80 O 0.52298 0.63322 0.8241 0.0
Zn81 Zn 0.49351 0.64856 0.83332 0.0
O82 O 0.47511 0.63578 0.90261 0.0
C83 C 0.47327 0.62183 0.74857 0.0
O84 O 0.47937 0.60827 0.7928 0.0
O85 O 0.49825 0.6808 0.85339 0.0
C86 C 0.45398 0.63626 0.89897 0.0
O87 O 0.44451 0.64456 0.84972 0.0
C88 C 0.52934 0.61673 0.85605 0.0
O89 O 0.51699 0.60998 0.90215 0.0
O90 O 0.47744 0.6425 0.75394 0.0
C91 C 0.82303 0.49894 0.35295 0.0
O92 O 0.84112 0.50836 0.37469 0.0
O93 O 0.87494 0.50558 0.27018 0.0
Zn94 Zn 0.85543 0.47846 0.27779 0.0
O95 O 0.86755 0.45728 0.34065 0.0
C96 C 0.8589 0.47365 0.14715 0.0
O97 O 0.8591 0.49551 0.14906 0.0
O98 O 0.82463 0.48615 0.30671 0.0
C99 C 0.88408 0.44449 0.33197 0.0
O100 O 0.89494 0.44543 0.27975 0.0
C101 C 0.88925 0.51158 0.30977 0.0
O102 O 0.89119 0.50028 0.36109 0.0
O103 O 0.85584 0.4628 0.19649 0.0
C104 C 0.96163 0.32459 0.85047 0.0
O105 O 0.9423 0.33377 0.83827 0.0
O106 O 0.95868 0.35685 0.69752 0.0
Zn107 Zn 0.97392 0.36138 0.77923 0.0
O108 O 0.95395 0.37994 0.83259 0.0
C109 C 0.00429 0.39018 0.71678 0.0
O110 O 0.98787 0.39027 0.67704 0.0
O111 O 0.97903 0.33282 0.82622 0.0
C112 C 0.94625 0.39904 0.81934 0.0
O113 O 0.95194 0.40856 0.7674 0.0
C114 C 0.93773 0.35877 0.6915 0.0
O115 O 0.92529 0.36019 0.74083 0.0
O116 O 0.00251 0.37849 0.76525 0.0
C117 C 0.17578 0.95973 0.35343 0.0
O118 O 0.16603 0.94026 0.348 0.0
O119 O 0.14008 0.95947 0.19766 0.0
Zn120 Zn 0.13796 0.97148 0.28374 0.0
O121 O 0.12129 0.94942 0.33648 0.0
C122 C 0.10321 0.00024 0.24776 0.0
O123 O 0.098 0.98223 0.21677 0.0
O124 O 0.16758 0.97636 0.32525 0.0
C125 C 0.10539 0.93671 0.32051 0.0
O126 O 0.09745 0.93783 0.26447 0.0
C127 C 0.1428 0.93887 0.18687 0.0
O128 O 0.14723 0.92538 0.2327 0.0
O129 O 0.12056 0.0001 0.28111 0.0
C130 C 0.54256 0.17486 0.89557 0.0
O131 O 0.56187 0.16469 0.89863 0.0
O132 O 0.55231 0.14602 0.73317 0.0
Zn133 Zn 0.53558 0.13984 0.81125 0.0
O134 O 0.55493 0.12129 0.86697 0.0
C135 C 0.50883 0.10921 0.74482 0.0
O136 O 0.52768 0.10717 0.7149 0.0
O137 O 0.52804 0.16788 0.8577 0.0
C138 C 0.56629 0.10418 0.85313 0.0
O139 O 0.56516 0.09599 0.79737 0.0
C140 C 0.57341 0.1472 0.73168 0.0
O141 O 0.58455 0.1473 0.78353 0.0
O142 O 0.5078 0.12266 0.78976 0.0
C143 C 0.3212 0.55304 0.38531 0.0
O144 O 0.33461 0.57028 0.38729 0.0
O145 O 0.36247 0.55585 0.24877 0.0
Zn146 Zn 0.35864 0.53603 0.32316 0.0
O147 O 0.37812 0.54749 0.39111 0.0
C148 C 0.37539 0.49932 0.25037 0.0
O149 O 0.37374 0.51371 0.20523 0.0
O150 O 0.32734 0.53574 0.35637 0.0
C151 C 0.39776 0.55488 0.38373 0.0
O152 O 0.40672 0.55482 0.3288 0.0
C153 C 0.36775 0.57629 0.25323 0.0
O154 O 0.36839 0.58565 0.3076 0.0
O155 O 0.36914 0.50496 0.30383 0.0
C156 C 0.96278 0.20849 0.18044 0.0
O157 O 0.9434 0.20052 0.19762 0.0
O158 O 0.96001 0.16726 0.31372 0.0
Zn159 Zn 0.97446 0.16739 0.23023 0.0
O160 O 0.95433 0.15142 0.17077 0.0
C161 C 0.99703 0.12852 0.25197 0.0
O162 O 0.97607 0.12361 0.26275 0.0
O163 O 0.98025 0.19764 0.19401 0.0
C164 C 0.963 0.14252 0.12372 0.0
O165 O 0.98447 0.14476 0.11425 0.0
C166 C 0.93949 0.16245 0.31883 0.0
O167 O 0.92717 0.16144 0.26913 0.0
O168 O 0.002 0.1484 0.2373 0.0
C169 C 0.29803 0.97118 0.66234 0.0
O170 O 0.30408 0.95262 0.6895 0.0
O171 O 0.3481 0.96703 0.76365 0.0
Zn172 Zn 0.34384 0.97997 0.67969 0.0
O173 O 0.35503 0.95742 0.61879 0.0
C174 C 0.38404 0.00338 0.66521 0.0
O175 O 0.39058 0.98283 0.65536 0.0
O176 O 0.31209 0.98687 0.65777 0.0
C177 C 0.3472 0.95566 0.56493 0.0
O178 O 0.33115 0.96907 0.54735 0.0
C179 C 0.35005 0.94614 0.77132 0.0
O180 O 0.34596 0.93271 0.72514 0.0
O181 O 0.36356 0.0071 0.67565 0.0
C182 C 0.52284 0.30448 0.17415 0.0
O183 O 0.53653 0.30735 0.22043 0.0
O184 O 0.53621 0.3571 0.25249 0.0
Zn185 Zn 0.52164 0.35299 0.16992 0.0
O186 O 0.54362 0.36233 0.10552 0.0
C187 C 0.48073 0.37237 0.20931 0.0
O188 O 0.48407 0.35888 0.25588 0.0
O189 O 0.51365 0.32134 0.14976 0.0
C190 C 0.5558 0.37954 0.11002 0.0
O191 O 0.55342 0.39279 0.15749 0.0
C192 C 0.55686 0.35323 0.25936 0.0
O193 O 0.5681 0.34448 0.21368 0.0
O194 O 0.49463 0.37252 0.16544 0.0
C195 C 0.18899 0.55635 0.66515 0.0
O196 O 0.17891 0.57544 0.67445 0.0
O197 O 0.15021 0.55135 0.81218 0.0
Zn198 Zn 0.1497 0.54152 0.72397 0.0
O199 O 0.13297 0.56447 0.67512 0.0
C200 C 0.12187 0.50668 0.67419 0.0
O201 O 0.1219 0.51948 0.62531 0.0
O202 O 0.18009 0.5386 0.68544 0.0
C203 C 0.11421 0.57252 0.69016 0.0
O204 O 0.10424 0.56527 0.73994 0.0
C205 C 0.15195 0.57178 0.82652 0.0
O206 O 0.1559 0.58646 0.78324 0.0
O207 O 0.13313 0.51249 0.72084 0.0
H208 H 0.97248 0.71156 0.12248 0.0
H209 H 0.03957 0.77959 0.86812 0.0
H210 H 0.04417 0.71623 0.11636 0.0
H211 H 0.97137 0.79506 0.91367 0.0
H212 H 0.03982 0.75141 0.94866 0.0
H213 H 0.97033 0.7385 0.03795 0.0
C214 C 0.98774 0.71836 0.10378 0.0
C215 C 0.00853 0.71165 0.12664 0.0
C216 C 0.02476 0.76089 0.94079 0.0
C217 C 0.00617 0.74195 0.02939 0.0
C218 C 0.02453 0.77686 0.89443 0.0
C219 C 0.00546 0.78984 0.88439 0.0
C220 C 0.00574 0.75768 0.9771 0.0
C221 C 0.98648 0.78552 0.9201 0.0
C222 C 0.98648 0.73365 0.0555 0.0
C223 C 0.02776 0.72095 0.1005 0.0
N224 N 0.98711 0.76983 0.96508 0.0
N225 N 0.02611 0.73547 0.05303 0.0
H226 H 0.72715 0.04017 0.39526 0.0
H227 H 0.79115 0.97757 0.66543 0.0
H228 H 0.70052 0.9814 0.4826 0.0
H229 H 0.80111 0.04695 0.62128 0.0
H230 H 0.7604 0.97634 0.59151 0.0
H231 H 0.75795 0.03999 0.46849 0.0
C232 C 0.72793 0.02704 0.42928 0.0
C233 C 0.71119 0.01083 0.43303 0.0
C234 C 0.76926 0.99184 0.59846 0.0
C235 C 0.74627 0.01064 0.51716 0.0
C236 C 0.78674 0.99258 0.64071 0.0
C237 C 0.79871 0.01239 0.64958 0.0
C238 C 0.76401 0.01094 0.56424 0.0
C239 C 0.79231 0.03133 0.61616 0.0
C240 C 0.7454 0.02708 0.47141 0.0
C241 C 0.71302 0.99428 0.4783 0.0
N242 N 0.77554 0.03007 0.57458 0.0
N243 N 0.73025 0.99461 0.5187 0.0
H244 H 0.49593 0.79067 0.16617 0.0
H245 H 0.5012 0.7242 0.85148 0.0
H246 H 0.50482 0.82321 0.99126 0.0
H247 H 0.51442 0.69349 0.02684 0.0
H248 H 0.50129 0.7607 0.90156 0.0
H249 H 0.50163 0.75468 0.11603 0.0
C250 C 0.49926 0.79026 0.11737 0.0
C251 C 0.4998 0.80994 0.0828 0.0
C252 C 0.50437 0.74596 0.92889 0.0
C253 C 0.50604 0.7689 0.02512 0.0
C254 C 0.50427 0.72515 0.90037 0.0
C255 C 0.50771 0.70579 0.93506 0.0
C256 C 0.50763 0.74734 0.99261 0.0
C257 C 0.51167 0.70797 0.99827 0.0
C258 C 0.50254 0.76973 0.08879 0.0
C259 C 0.50424 0.80845 0.01971 0.0
N260 N 0.51129 0.72835 0.0251 0.0
N261 N 0.50695 0.78826 0.99276 0.0
H262 H 0.72448 0.52039 0.63751 0.0
H263 H 0.78501 0.47454 0.33603 0.0
H264 H 0.70737 0.45874 0.54723 0.0
H265 H 0.81354 0.52547 0.45156 0.0
H266 H 0.75291 0.47269 0.40443 0.0
H267 H 0.75439 0.52595 0.56253 0.0
C268 C 0.72703 0.50802 0.60211 0.0
C269 C 0.71348 0.48901 0.59889 0.0
C270 C 0.76613 0.48438 0.41457 0.0
C271 C 0.74734 0.49544 0.51267 0.0
C272 C 0.7844 0.48556 0.37528 0.0
C273 C 0.8021 0.50003 0.3884 0.0
C274 C 0.76548 0.49785 0.46718 0.0
C275 C 0.80035 0.51394 0.43996 0.0
C276 C 0.74405 0.51122 0.55931 0.0
C277 C 0.71748 0.47356 0.55185 0.0
N278 N 0.78242 0.51241 0.47772 0.0
N279 N 0.73398 0.47715 0.51058 0.0
H280 H -0.00104 0.30371 0.89652 0.0
H281 H 0.92843 0.23497 0.14416 0.0
H282 H 0.92734 0.3053 0.9123 0.0
H283 H -0.00101 0.22524 0.11824 0.0
H284 H 0.9288 0.26323 0.06427 0.0
H285 H 0.00023 0.27647 0.98047 0.0
C286 C 0.98352 0.29823 0.91725 0.0
C287 C 0.96301 0.30682 0.89734 0.0
C288 C 0.94426 0.25502 0.0761 0.0
C289 C 0.96438 0.27599 0.99362 0.0
C290 C 0.94408 0.23892 0.12205 0.0
C291 C 0.96368 0.22761 0.13773 0.0
C292 C 0.96419 0.25991 0.04528 0.0
C293 C 0.98347 0.23354 0.10755 0.0
C294 C 0.98427 0.28277 0.96529 0.0
C295 C 0.94355 0.2992 0.92603 0.0
N296 N 0.98321 0.24922 0.06244 0.0
N297 N 0.94474 0.28433 0.97271 0.0
H298 H 0.26596 0.93911 0.65471 0.0
H299 H 0.19974 0.99762 0.37979 0.0
H300 H 0.28333 0.00409 0.58469 0.0
H301 H 0.19297 0.92843 0.43046 0.0
H302 H 0.22789 0.00207 0.4604 0.0
H303 H 0.23557 0.93722 0.58096 0.0
C304 C 0.26321 0.95313 0.6244 0.0
C305 C 0.27737 0.97169 0.62553 0.0
C306 C 0.22024 0.98593 0.45364 0.0
C307 C 0.24271 0.9695 0.54022 0.0
C308 C 0.20426 0.98335 0.40752 0.0
C309 C 0.19402 0.9626 0.39824 0.0
C310 C 0.22583 0.96768 0.49091 0.0
C311 C 0.20044 0.94472 0.43572 0.0
C312 C 0.24592 0.95197 0.58195 0.0
C313 C 0.27289 0.98941 0.58525 0.0
N314 N 0.21584 0.9477 0.48044 0.0
N315 N 0.25603 0.9878 0.54382 0.0
H316 H 0.50643 0.20295 0.89613 0.0
H317 H 0.54715 0.26695 0.19806 0.0
H318 H 0.56691 0.18781 0.99472 0.0
H319 H 0.49641 0.2927 0.07693 0.0
H320 H 0.54988 0.23382 0.1338 0.0
H321 H 0.49858 0.23259 0.97037 0.0
C322 C 0.51803 0.20585 0.93332 0.0
C323 C 0.53745 0.19302 0.93896 0.0
C324 C 0.538 0.24663 0.12161 0.0
C325 C 0.52842 0.22656 0.02423 0.0
C326 C 0.53631 0.26549 0.15854 0.0
C327 C 0.52174 0.28277 0.14241 0.0
C328 C 0.52497 0.24498 0.06829 0.0
C329 C 0.50806 0.27989 0.09073 0.0
C330 C 0.51352 0.22271 0.97568 0.0
C331 C 0.55185 0.19741 0.9882 0.0
N332 N 0.51015 0.26144 0.05515 0.0
N333 N 0.54704 0.21378 0.02888 0.0
H334 H 0.29347 0.5179 0.41183 0.0
H335 H 0.21378 0.59139 0.62483 0.0
H336 H 0.30219 0.58829 0.44385 0.0
H337 H 0.20979 0.5197 0.61602 0.0
H338 H 0.24523 0.59047 0.55457 0.0
H339 H 0.26131 0.51822 0.48095 0.0
C340 C 0.28851 0.53344 0.43291 0.0
C341 C 0.30057 0.55309 0.42218 0.0
C342 C 0.23757 0.5749 0.5681 0.0
C343 C 0.26398 0.55353 0.50145 0.0
C344 C 0.2196 0.57541 0.60837 0.0
C345 C 0.20913 0.55559 0.62637 0.0
C346 C 0.24512 0.55442 0.54518 0.0
C347 C 0.21743 0.53538 0.60351 0.0
C348 C 0.27025 0.53358 0.47263 0.0
C349 C 0.29346 0.57273 0.45091 0.0
N350 N 0.2349 0.53531 0.56382 0.0
N351 N 0.27568 0.57243 0.48923 0.0
H352 H 0.07978 0.5822 0.16673 0.0
H353 H 0.15181 0.61428 0.87126 0.0
H354 H 0.08981 0.64928 0.10099 0.0
H355 H 0.13626 0.54655 0.92218 0.0
H356 H 0.13456 0.62715 0.96598 0.0
H357 H 0.10522 0.5687 0.0872 0.0
C358 C 0.08745 0.5941 0.13595 0.0
C359 C 0.08246 0.61687 0.14004 0.0
C360 C 0.13512 0.60945 0.95679 0.0
C361 C 0.11158 0.60159 0.04934 0.0
C362 C 0.14505 0.60207 0.90276 0.0
C363 C 0.14519 0.57933 0.88828 0.0
C364 C 0.12514 0.59399 0.9966 0.0
C365 C 0.13634 0.56427 0.93119 0.0
C366 C 0.10196 0.58639 0.09059 0.0
C367 C 0.09295 0.63155 0.09912 0.0
N368 N 0.12642 0.5719 0.98308 0.0
N369 N 0.10689 0.62364 0.05536 0.0
H370 H 0.96178 0.15694 0.42786 0.0
H371 H 0.87058 0.07259 0.556 0.0
H372 H 0.89812 0.14544 0.34144 0.0
H373 H 0.92792 0.09278 0.66175 0.0
H374 H 0.88075 0.09942 0.47711 0.0
H375 H 0.94957 0.1347 0.51564 0.0
C376 C 0.9451 0.15008 0.42775 0.0
C377 C 0.93103 0.15287 0.37684 0.0
C378 C 0.8911 0.09807 0.51762 0.0
C379 C 0.91715 0.12711 0.47663 0.0
C380 C 0.88538 0.08261 0.56258 0.0
C381 C 0.89848 0.08034 0.61552 0.0
C382 C 0.91018 0.11129 0.52518 0.0
C383 C 0.91738 0.09393 0.6216 0.0
C384 C 0.93819 0.13729 0.47778 0.0
C385 C 0.90961 0.14361 0.37935 0.0
N386 N 0.92274 0.10876 0.5768 0.0
N387 N 0.90344 0.13093 0.42801 0.0
H388 H 0.4521 0.93384 0.04148 0.0
H389 H 0.35638 0.9027 0.80509 0.0
H390 H 0.4249 0.86748 0.02772 0.0
H391 H 0.37072 0.97011 0.86144 0.0
H392 H 0.38141 0.88906 0.88522 0.0
H393 H 0.42325 0.94712 0.97168 0.0
C394 C 0.44014 0.92203 0.02349 0.0
C395 C 0.44094 0.8995 0.04023 0.0
C396 C 0.37883 0.90682 0.8805 0.0
C397 C 0.4078 0.91462 0.96067 0.0
C398 C 0.36451 0.91462 0.83491 0.0
C399 C 0.36162 0.93758 0.82618 0.0
C400 C 0.39054 0.92212 0.91694 0.0
C401 C 0.37251 0.95227 0.8663 0.0
C402 C 0.42355 0.92966 0.98408 0.0
C403 C 0.42489 0.88498 0.01592 0.0
N404 N 0.38673 0.94429 0.90937 0.0
N405 N 0.40902 0.89277 0.97706 0.0
H406 H 0.53981 0.37686 0.35615 0.0
H407 H 0.65976 0.40039 0.50192 0.0
H408 H 0.60102 0.34885 0.28704 0.0
H409 H 0.59941 0.43158 0.56626 0.0
H410 H 0.63793 0.37904 0.42833 0.0
H411 H 0.56072 0.39425 0.43956 0.0
C412 C 0.5576 0.37414 0.35889 0.0
C413 C 0.56871 0.36151 0.31423 0.0
C414 C 0.62942 0.3905 0.45861 0.0
C415 C 0.59274 0.38153 0.40927 0.0
C416 C 0.64189 0.40275 0.50065 0.0
C417 C 0.63141 0.41791 0.54011 0.0
C418 C 0.60626 0.39342 0.45582 0.0
C419 C 0.60819 0.42016 0.53651 0.0
C420 C 0.56954 0.38416 0.40641 0.0
C421 C 0.59177 0.35855 0.32018 0.0
N422 N 0.5964 0.40809 0.49492 0.0
N423 N 0.60303 0.36861 0.36653 0.0
H424 H 0.13085 0.96175 0.08304 0.0
H425 H 0.07561 0.85472 0.93148 0.0
H426 H 0.1386 0.89511 0.1542 0.0
H427 H 0.07752 0.91869 0.84127 0.0
H428 H 0.09989 0.86924 0.01149 0.0
H429 H 0.11326 0.94634 0.99129 0.0
C430 C 0.1292 0.94386 0.07897 0.0
C431 C 0.136 0.92971 0.12676 0.0
C432 C 0.09515 0.8801 0.97404 0.0
C433 C 0.11558 0.91202 0.02227 0.0
C434 C 0.08116 0.87184 0.92842 0.0
C435 C 0.07437 0.88557 0.8798 0.0
C436 C 0.10227 0.90234 0.97156 0.0
C437 C 0.08227 0.90755 0.87805 0.0
C438 C 0.11909 0.93508 0.02661 0.0
C439 C 0.1335 0.90667 0.11879 0.0
N440 N 0.09566 0.91533 0.9236 0.0
N441 N 0.12323 0.89858 0.06798 0.0
H442 H 0.61745 0.13754 0.71443 0.0
H443 H 0.60129 0.103 0.36298 0.0
H444 H 0.55583 0.14686 0.61568 0.0
H445 H 0.65209 0.07618 0.48201 0.0
H446 H 0.58836 0.12657 0.44761 0.0
H447 H 0.6345 0.12324 0.62078 0.0
C448 C 0.60762 0.13702 0.67281 0.0
C449 C 0.58507 0.14308 0.67314 0.0
C450 C 0.60244 0.11563 0.45486 0.0
C451 C 0.60446 0.12657 0.56605 0.0
C452 C 0.60983 0.1022 0.4067 0.0
C453 C 0.6276 0.08742 0.41578 0.0
C454 C 0.61313 0.11444 0.51208 0.0
C455 C 0.63813 0.08711 0.47324 0.0
C456 C 0.61734 0.12871 0.61947 0.0
C457 C 0.5732 0.1421 0.61767 0.0
N458 N 0.63069 0.10037 0.51923 0.0
N459 N 0.58297 0.13374 0.56645 0.0
H460 H 0.39629 0.61157 0.25442 0.0
H461 H 0.41139 0.62059 0.89339 0.0
H462 H 0.3622 0.5668 0.13124 0.0
H463 H 0.46502 0.63348 0.02023 0.0
H464 H 0.38842 0.60744 0.97917 0.0
H465 H 0.41653 0.62716 0.16708 0.0
C466 C 0.39275 0.6053 0.20888 0.0
C467 C 0.37758 0.58783 0.19998 0.0
C468 C 0.40522 0.61317 0.98799 0.0
C469 C 0.40066 0.6056 0.10029 0.0
C470 C 0.41829 0.6207 0.9393 0.0
C471 C 0.44013 0.62802 0.9499 0.0
C472 C 0.41391 0.61353 0.04767 0.0
C473 C 0.44831 0.62779 0.01013 0.0
C474 C 0.40446 0.61407 0.15927 0.0
C475 C 0.37382 0.58021 0.14001 0.0
N476 N 0.43512 0.62082 0.05693 0.0
N477 N 0.38529 0.58918 0.09226 0.0
H478 H 0.95943 0.36239 0.58115 0.0
H479 H 0.86129 0.43391 0.43619 0.0
H480 H 0.89472 0.36992 0.66456 0.0
H481 H 0.92173 0.41862 0.3379 0.0
H482 H 0.87267 0.40854 0.51742 0.0
H483 H 0.94519 0.38006 0.48809 0.0
C484 C 0.94212 0.36737 0.57955 0.0
C485 C 0.92833 0.36496 0.63115 0.0
C486 C 0.88341 0.41057 0.47795 0.0
C487 C 0.91205 0.38549 0.5251 0.0
C488 C 0.87697 0.42518 0.43161 0.0
C489 C 0.89068 0.42857 0.38039 0.0
C490 C 0.90385 0.39938 0.47357 0.0
C491 C 0.9107 0.4166 0.37675 0.0
C492 C 0.93402 0.37754 0.52643 0.0
C493 C 0.90603 0.37163 0.62623 0.0
N494 N 0.9168 0.40268 0.42304 0.0
N495 N 0.89868 0.38187 0.57453 0.0
H496 H 0.92947 0.44154 0.81372 0.0
H497 H 0.86318 0.42873 0.13002 0.0
H498 H 0.92697 0.38126 0.92147 0.0
H499 H 0.87233 0.49169 0.0377 0.0
H500 H 0.8815 0.41006 0.04468 0.0
H501 H 0.90423 0.45927 0.88722 0.0
C502 C 0.92356 0.43202 0.85263 0.0
C503 C 0.93053 0.40997 0.86182 0.0
C504 C 0.87932 0.42794 0.04276 0.0
C505 C 0.90159 0.43004 0.94561 0.0
C506 C 0.86875 0.43862 0.09141 0.0
C507 C 0.86646 0.46186 0.09142 0.0
C508 C 0.88774 0.44057 0.99374 0.0
C509 C 0.8739 0.47376 0.03988 0.0
C510 C 0.90915 0.44213 0.89449 0.0
C511 C 0.92225 0.39837 0.91285 0.0
N512 N 0.88444 0.463 0.99337 0.0
N513 N 0.9083 0.40856 0.95284 0.0
H514 H 0.01984 0.85047 0.53179 0.0
H515 H 0.12319 0.92471 0.43082 0.0
H516 H 0.08077 0.8557 0.6359 0.0
H517 H 0.06778 0.91097 0.31048 0.0
H518 H 0.10827 0.89814 0.50447 0.0
H519 H 0.03766 0.87046 0.44734 0.0
C520 C 0.03707 0.85547 0.53655 0.0
C521 C 0.04873 0.85164 0.59137 0.0
C522 C 0.0994 0.9008 0.46184 0.0
C523 C 0.06909 0.8748 0.49527 0.0
C524 C 0.10785 0.9161 0.41985 0.0
C525 C 0.09659 0.92023 0.36462 0.0
C526 C 0.07939 0.88967 0.44898 0.0
C527 C 0.07693 0.90837 0.35264 0.0
C528 C 0.04721 0.86695 0.48834 0.0
C529 C 0.07105 0.85844 0.59477 0.0
N530 N 0.06883 0.89375 0.39477 0.0
N531 N 0.08039 0.86994 0.54775 0.0
H532 H 0.64683 0.01667 0.07725 0.0
H533 H 0.57886 0.12235 0.96229 0.0
H534 H 0.64752 0.08043 0.16862 0.0
H535 H 0.58921 0.06458 0.8481 0.0
H536 H 0.6043 0.10685 0.03783 0.0
H537 H 0.62689 0.03367 0.99123 0.0
C538 C 0.64313 0.0343 0.07885 0.0
C539 C 0.64866 0.04709 0.13058 0.0
C540 C 0.60114 0.09756 0.99618 0.0
C541 C 0.62558 0.06651 0.03279 0.0
C542 C 0.58646 0.10635 0.95309 0.0
C543 C 0.58176 0.09466 0.89892 0.0
C544 C 0.61107 0.07678 0.98558 0.0
C545 C 0.59231 0.07411 0.88936 0.0
C546 C 0.63168 0.04397 0.02977 0.0
C547 C 0.64347 0.06986 0.12999 0.0
N548 N 0.60637 0.06571 0.93255 0.0
N549 N 0.63199 0.07876 0.08228 0.0
H550 H 0.43242 0.58457 0.38153 0.0
H551 H 0.45003 0.58322 0.74229 0.0
H552 H 0.38971 0.54816 0.50516 0.0
H553 H 0.46997 0.63965 0.63271 0.0
H554 H 0.43183 0.56714 0.65273 0.0
H555 H 0.45061 0.60198 0.47034 0.0
C556 C 0.427 0.58013 0.4273 0.0
C557 C 0.4096 0.56487 0.43616 0.0
C558 C 0.4401 0.58308 0.64828 0.0
C559 C 0.43025 0.58458 0.53719 0.0
C560 C 0.45055 0.59224 0.69928 0.0
C561 C 0.4615 0.61279 0.69477 0.0
C562 C 0.44091 0.59434 0.59199 0.0
C563 C 0.46158 0.62382 0.63803 0.0
C564 C 0.43724 0.59019 0.47775 0.0
C565 C 0.40304 0.55986 0.49631 0.0
N566 N 0.45158 0.61433 0.58846 0.0
N567 N 0.41347 0.56958 0.54454 0.0
H568 H 0.91993 0.03327 0.90162 0.0
H569 H 0.9176 0.14182 0.10957 0.0
H570 H 0.86671 0.08119 0.88411 0.0
H571 H 0.97794 0.11022 0.04689 0.0
H572 H 0.89595 0.11651 0.04382 0.0
H573 H 0.93825 0.05762 0.97495 0.0
C574 C 0.91192 0.04881 0.91366 0.0
C575 C 0.89185 0.05532 0.88602 0.0
C576 C 0.91393 0.11524 0.0446 0.0
C577 C 0.91289 0.08329 0.97019 0.0
C578 C 0.92626 0.12959 0.08198 0.0
C579 C 0.94958 0.12813 0.08334 0.0
C580 C 0.92505 0.09909 0.00977 0.0
C581 C 0.96002 0.11203 0.04685 0.0
C582 C 0.9225 0.06275 0.95533 0.0
C583 C 0.88225 0.07561 0.90401 0.0
N584 N 0.94766 0.09803 0.01192 0.0
N585 N 0.89293 0.089 0.94496 0.0
H586 H 0.33683 0.94987 0.44395 0.0
H587 H 0.43884 0.86767 0.3775 0.0
H588 H 0.38066 0.92558 0.58607 0.0
H589 H 0.40651 0.90873 0.24174 0.0
H590 H 0.41204 0.88114 0.45455 0.0
H591 H 0.3566 0.9269 0.3696 0.0
C592 C 0.35048 0.93955 0.45967 0.0
C593 C 0.35738 0.93997 0.52106 0.0
C594 C 0.4107 0.8869 0.40762 0.0
C595 C 0.38008 0.91365 0.43618 0.0
C596 C 0.42587 0.87917 0.36381 0.0
C597 C 0.42498 0.8874 0.3037 0.0
C598 C 0.39449 0.90261 0.39047 0.0
C599 C 0.40795 0.90228 0.28796 0.0
C600 C 0.36176 0.92645 0.41719 0.0
C601 C 0.37501 0.92602 0.53893 0.0
N602 N 0.39346 0.90948 0.33112 0.0
N603 N 0.38593 0.91357 0.49651 0.0
H604 H 0.56692 0.35381 0.01132 0.0
H605 H 0.65228 0.44261 0.87497 0.0
H606 H 0.58433 0.41512 0.10284 0.0
H607 H 0.63432 0.38138 0.78381 0.0
H608 H 0.63183 0.43033 0.96554 0.0
H609 H 0.59496 0.36161 0.93352 0.0
C610 C 0.57666 0.36892 0.01512 0.0
C611 C 0.57308 0.38398 0.06333 0.0
C612 C 0.63262 0.41944 0.92604 0.0
C613 C 0.60536 0.39296 0.97432 0.0
C614 C 0.64441 0.42639 0.87435 0.0
C615 C 0.6447 0.41318 0.82122 0.0
C616 C 0.62097 0.39918 0.92453 0.0
C617 C 0.63433 0.39225 0.82339 0.0
C618 C 0.59276 0.37331 0.97076 0.0
C619 C 0.58638 0.40315 0.06619 0.0
N620 N 0.62262 0.38605 0.87384 0.0
N621 N 0.60183 0.40718 0.02202 0.0
H622 H 0.07191 0.58964 0.69778 0.0
H623 H 0.08553 0.65986 0.38859 0.0
H624 H 0.13281 0.5947 0.59369 0.0
H625 H 0.02223 0.64797 0.47638 0.0
H626 H 0.10419 0.64228 0.4753 0.0
H627 H 0.05455 0.61644 0.62782 0.0
C628 C 0.08168 0.59649 0.66053 0.0
C629 C 0.10374 0.58968 0.65105 0.0
C630 C 0.08623 0.64376 0.476 0.0
C631 C 0.08406 0.62039 0.57124 0.0
C632 C 0.07555 0.6539 0.42657 0.0
C633 C 0.05223 0.65504 0.42465 0.0
C634 C 0.07352 0.63459 0.5238 0.0
C635 C 0.04022 0.64722 0.47555 0.0
C636 C 0.07176 0.61179 0.62068 0.0
C637 C 0.11566 0.59922 0.6023 0.0
N638 N 0.05098 0.63703 0.52269 0.0
N639 N 0.10563 0.61397 0.56408 0.0
H640 H 0.9187 0.53207 0.38738 0.0
H641 H 0.97451 0.60587 0.12438 0.0
H642 H 0.89454 0.5336 0.20088 0.0
H643 H 0.98731 0.61563 0.3174 0.0
H644 H 0.94603 0.57834 0.15069 0.0
H645 H 0.94495 0.5618 0.36201 0.0
C646 C 0.91885 0.53871 0.34119 0.0
C647 C 0.90443 0.53031 0.29618 0.0
C648 C 0.955 0.58661 0.18724 0.0
C649 C 0.93452 0.56419 0.26671 0.0
C650 C 0.97129 0.60229 0.17225 0.0
C651 C 0.98334 0.61303 0.21872 0.0
C652 C 0.95092 0.58148 0.24912 0.0
C653 C 0.97842 0.60777 0.28001 0.0
C654 C 0.93381 0.55571 0.32675 0.0
C655 C 0.90533 0.53959 0.23708 0.0
N656 N 0.9627 0.59228 0.2934 0.0
N657 N 0.92022 0.55592 0.22396 0.0
H658 H 0.88846 0.97193 0.79534 0.0
H659 H 0.97853 0.88264 0.68557 0.0
H660 H 0.91303 0.96831 0.60952 0.0
H661 H 0.96723 0.89981 0.87528 0.0
H662 H 0.94989 0.90936 0.65532 0.0
H663 H 0.91239 0.94074 0.82301 0.0
C664 C 0.89871 0.96444 0.76011 0.0
C665 C 0.89888 0.97291 0.70004 0.0
C666 C 0.95361 0.90717 0.70356 0.0
C667 C 0.92637 0.93716 0.73171 0.0
C668 C 0.9699 0.89188 0.72095 0.0
C669 C 0.97539 0.8891 0.78311 0.0
C670 C 0.94258 0.91964 0.74864 0.0
C671 C 0.96365 0.90153 0.82685 0.0
C672 C 0.91244 0.94667 0.7761 0.0
C673 C 0.91247 0.96243 0.65643 0.0
N674 N 0.94782 0.91629 0.80876 0.0
N675 N 0.92577 0.94515 0.67321 0.0
H676 H 0.50939 0.92522 0.20079 0.0
H677 H 0.62933 0.96487 0.31734 0.0
H678 H 0.5592 0.87952 0.26827 0.0
H679 H 0.57688 0.00938 0.25998 0.0
H680 H 0.60444 0.93323 0.29919 0.0
H681 H 0.53454 0.95605 0.22096 0.0
C682 C 0.52567 0.92163 0.21975 0.0
C683 C 0.53219 0.89971 0.23287 0.0
C684 C 0.5984 0.94994 0.29076 0.0
C685 C 0.56118 0.93513 0.25625 0.0
C686 C 0.61257 0.968 0.30116 0.0
C687 C 0.60517 0.98981 0.29008 0.0
C688 C 0.57671 0.95375 0.26905 0.0
C689 C 0.58333 0.99289 0.26909 0.0
C690 C 0.54004 0.93931 0.2314 0.0
C691 C 0.55349 0.89616 0.25751 0.0
N692 N 0.56992 0.97507 0.25917 0.0
N693 N 0.56726 0.91372 0.2684 0.0
H694 H 0.62119 0.50878 0.79692 0.0
H695 H 0.55453 0.62272 0.75275 0.0
H696 H 0.61859 0.54478 0.62556 0.0
H697 H 0.54751 0.57985 0.91062 0.0
H698 H 0.5827 0.59755 0.71177 0.0
H699 H 0.5988 0.53775 0.84459 0.0
C700 C 0.61601 0.52284 0.76927 0.0
C701 C 0.62161 0.52423 0.70685 0.0
C702 C 0.57513 0.59376 0.7556 0.0
C703 C 0.59591 0.55754 0.76153 0.0
C704 C 0.5591 0.60816 0.77925 0.0
C705 C 0.54846 0.60327 0.83502 0.0
C706 C 0.58066 0.57436 0.78803 0.0
C707 C 0.55514 0.5842 0.86728 0.0
C708 C 0.6032 0.53939 0.79665 0.0
C709 C 0.61453 0.54295 0.67365 0.0
N710 N 0.57071 0.57036 0.84311 0.0
N711 N 0.60194 0.55884 0.70135 0.0
H712 H 0.11751 0.47688 0.76864 0.0
H713 H 0.01377 0.415 0.61526 0.0
H714 H 0.09275 0.49147 0.58709 0.0
H715 H 0.03917 0.39869 0.79503 0.0
H716 H 0.04437 0.44114 0.60149 0.0
H717 H 0.09085 0.44629 0.77636 0.0
C718 C 0.10659 0.47355 0.73017 0.0
C719 C 0.10726 0.48689 0.67727 0.0
C720 C 0.04337 0.43176 0.64383 0.0
C721 C 0.07661 0.45194 0.68601 0.0
C722 C 0.02587 0.41681 0.65178 0.0
C723 C 0.02379 0.40474 0.70662 0.0
C724 C 0.05892 0.43481 0.69116 0.0
C725 C 0.04007 0.4077 0.7521 0.0
C726 C 0.09136 0.45608 0.73466 0.0
C727 C 0.09277 0.48172 0.62884 0.0
N728 N 0.05686 0.42257 0.74353 0.0
N729 N 0.07794 0.46476 0.63457 0.0
H730 H 0.04275 0.1321 0.25518 0.0
H731 H 0.06109 0.00225 0.20232 0.0
H732 H 0.98936 0.08404 0.24773 0.0
H733 H 0.11153 0.04275 0.28874 0.0
H734 H 0.03603 0.03412 0.20236 0.0
H735 H 0.06972 0.10125 0.25302 0.0
C736 C 0.03673 0.11512 0.25312 0.0
C737 C 0.01381 0.11059 0.25184 0.0
C738 C 0.05259 0.03604 0.2213 0.0
C739 C 0.04435 0.07556 0.24842 0.0
C740 C 0.06695 0.01789 0.22107 0.0
C741 C 0.08839 0.01982 0.24588 0.0
C742 C 0.05975 0.05641 0.24582 0.0
C743 C 0.09506 0.04053 0.26954 0.0
C744 C 0.05208 0.09759 0.25205 0.0
C745 C 0.00686 0.08832 0.24919 0.0
N746 N 0.08077 0.05812 0.26882 0.0
N747 N 0.02205 0.07167 0.24717 0.0
H748 H 0.37965 0.04486 0.71697 0.0
H749 H 0.50721 0.07662 0.65794 0.0
H750 H 0.42664 0.00257 0.62317 0.0
H751 H 0.46631 0.11044 0.79134 0.0
H752 H 0.47575 0.05283 0.63202 0.0
H753 H 0.40922 0.07257 0.73167 0.0
C754 C 0.39609 0.04153 0.69884 0.0
C755 C 0.40077 0.02133 0.66919 0.0
C756 C 0.47361 0.06549 0.66685 0.0
C757 C 0.4345 0.05282 0.68579 0.0
C758 C 0.49157 0.07913 0.68167 0.0
C759 C 0.48945 0.09544 0.72729 0.0
C760 C 0.45329 0.0682 0.69761 0.0
C761 C 0.46872 0.09796 0.7562 0.0
C762 C 0.41296 0.05727 0.70753 0.0
C763 C 0.42235 0.01782 0.64676 0.0
N764 N 0.45142 0.08442 0.74099 0.0
N765 N 0.43841 0.03337 0.65564 0.0
H766 H 0.46829 0.40161 0.11919 0.0
H767 H 0.38185 0.46565 0.33337 0.0
H768 H 0.45081 0.37988 0.3017 0.0
H769 H 0.3955 0.48419 0.14577 0.0
H770 H 0.40468 0.43239 0.31988 0.0
H771 H 0.43955 0.43021 0.12526 0.0
C772 C 0.4583 0.40274 0.16039 0.0
C773 C 0.46212 0.38846 0.21026 0.0
C774 C 0.40251 0.44362 0.28147 0.0
C775 C 0.42922 0.42127 0.21763 0.0
C776 C 0.38946 0.46262 0.28913 0.0
C777 C 0.38694 0.47787 0.24081 0.0
C778 C 0.41325 0.43989 0.22521 0.0
C779 C 0.39709 0.47299 0.18443 0.0
C780 C 0.44186 0.41908 0.16381 0.0
C781 C 0.44855 0.39061 0.26229 0.0
N782 N 0.40998 0.45455 0.17839 0.0
N783 N 0.43284 0.40685 0.26484 0.0
loop_
_geom_bond_atom_site_label_1
_geom_bond_atom_site_label_2
_geom_bond_distance
_geom_bond_site_symmetry_2
_ccdc_geom_bond_type
C0 O1 1.160 . S
C0 O7 1.185 . S
O1 C0 1.160 . S
O2 Zn3 1.938 . S
O2 C10 1.270 1_455 S
Zn3 O2 1.938 . S
Zn3 O4 2.032 . S
Zn3 O7 2.086 . S
Zn3 O12 1.977 . S
O4 Zn3 2.032 . S
O4 C8 1.278 . S
C5 O6 1.203 . S
C5 O12 1.267 . S
O6 C5 1.203 . S
O7 C0 1.185 . S
O7 Zn3 2.086 . S
C8 O4 1.278 . S
C8 O9 1.211 . S
O9 C8 1.211 . S
C10 O2 1.270 1_655 S
C10 O11 1.273 1_655 S
O11 C10 1.273 1_455 S
O12 Zn3 1.977 . S
O12 C5 1.267 . S
C13 O14 1.160 . S
C13 O20 1.185 . S
O14 C13 1.160 . S
O15 Zn16 1.939 . S
O15 C23 1.270 1_545 S
Zn16 O15 1.939 . S
Zn16 O17 2.032 . S
Zn16 O20 2.086 . S
Zn16 O25 1.977 . S
O17 Zn16 2.032 . S
O17 C21 1.278 . S
C18 O19 1.203 . S
C18 O25 1.267 . S
O19 C18 1.203 . S
O20 C13 1.185 . S
O20 Zn16 2.086 . S
C21 O17 1.278 . S
C21 O22 1.211 . S
O22 C21 1.211 . S
C23 O15 1.270 1_565 S
C23 O24 1.273 1_565 S
O24 C23 1.273 1_545 S
O25 Zn16 1.977 . S
O25 C18 1.267 . S
C26 O27 1.160 . S
C26 O33 1.185 . S
O27 C26 1.160 . S
O28 Zn29 1.899 . S
O28 C36 1.284 . S
Zn29 O28 1.899 . S
Zn29 O30 2.032 . S
Zn29 O33 2.086 . S
Zn29 O38 1.977 . S
O30 Zn29 2.032 . S
O30 C34 1.278 . S
C31 O32 1.203 . S
C31 O38 1.267 . S
O32 C31 1.203 . S
O33 C26 1.185 . S
O33 Zn29 2.086 . S
C34 O30 1.278 . S
C34 O35 1.211 . S
O35 C34 1.211 . S
C36 O28 1.284 . S
C36 O37 1.273 . S
O37 C36 1.273 . S
O38 Zn29 1.977 . S
O38 C31 1.267 . S
C39 O40 1.160 . S
C39 O46 1.185 . S
O40 C39 1.160 . S
O41 Zn42 1.899 . S
O41 C49 1.284 . S
Zn42 O41 1.899 . S
Zn42 O43 2.032 . S
Zn42 O46 2.086 . S
Zn42 O51 1.977 . S
O43 Zn42 2.032 . S
O43 C47 1.278 . S
C44 O45 1.203 . S
C44 O51 1.267 . S
O45 C44 1.203 . S
O46 C39 1.185 . S
O46 Zn42 2.086 . S
C47 O43 1.278 . S
C47 O48 1.211 . S
O48 C47 1.211 . S
C49 O41 1.284 . S
C49 O50 1.273 . S
O50 C49 1.273 . S
O51 Zn42 1.977 . S
O51 C44 1.267 . S
C52 O53 1.160 . S
C52 O59 1.185 . S
O53 C52 1.160 . S
O54 Zn55 1.939 . S
O54 C62 1.270 1_455 S
Zn55 O54 1.939 . S
Zn55 O56 2.032 . S
Zn55 O59 2.086 . S
Zn55 O64 1.977 . S
O56 Zn55 2.032 . S
O56 C60 1.278 . S
C57 O58 1.203 . S
C57 O64 1.267 . S
O58 C57 1.203 . S
O59 C52 1.185 . S
O59 Zn55 2.086 . S
C60 O56 1.278 . S
C60 O61 1.211 . S
O61 C60 1.211 . S
C62 O54 1.270 1_655 S
C62 O63 1.273 1_655 S
O63 C62 1.273 1_455 S
O64 Zn55 1.977 . S
O64 C57 1.267 . S
C65 O66 1.160 . S
C65 O72 1.185 . S
O66 C65 1.160 . S
O67 Zn68 1.938 . S
O67 C75 1.270 1_545 S
Zn68 O67 1.938 . S
Zn68 O69 2.032 . S
Zn68 O72 2.086 . S
Zn68 O77 1.977 . S
O69 Zn68 2.032 . S
O69 C73 1.278 . S
C70 O71 1.203 . S
C70 O77 1.267 . S
O71 C70 1.203 . S
O72 C65 1.185 . S
O72 Zn68 2.086 . S
C73 O69 1.278 . S
C73 O74 1.211 . S
O74 C73 1.211 . S
C75 O67 1.270 1_565 S
C75 O76 1.273 1_565 S
O76 C75 1.273 1_545 S
O77 Zn68 1.977 . S
O77 C70 1.267 . S
C78 O79 1.160 . S
C78 O85 1.185 . S
O79 C78 1.160 . S
O80 Zn81 1.899 . S
O80 C88 1.284 . S
Zn81 O80 1.899 . S
Zn81 O82 2.032 . S
Zn81 O85 2.086 . S
Zn81 O90 1.977 . S
O82 Zn81 2.032 . S
O82 C86 1.278 . S
C83 O84 1.203 . S
C83 O90 1.267 . S
O84 C83 1.203 . S
O85 C78 1.185 . S
O85 Zn81 2.086 . S
C86 O82 1.278 . S
C86 O87 1.211 . S
O87 C86 1.211 . S
C88 O80 1.284 . S
C88 O89 1.273 . S
O89 C88 1.273 . S
O90 Zn81 1.977 . S
O90 C83 1.267 . S
C91 O92 1.160 . S
C91 O98 1.185 . S
O92 C91 1.160 . S
O93 Zn94 1.899 . S
O93 C101 1.284 . S
Zn94 O93 1.899 . S
Zn94 O95 2.032 . S
Zn94 O98 2.086 . S
Zn94 O103 1.977 . S
O95 Zn94 2.032 . S
O95 C99 1.278 . S
C96 O97 1.203 . S
C96 O103 1.267 . S
O97 C96 1.203 . S
O98 C91 1.185 . S
O98 Zn94 2.086 . S
C99 O95 1.278 . S
C99 O100 1.211 . S
O100 C99 1.211 . S
C101 O93 1.284 . S
C101 O102 1.273 . S
O102 C101 1.273 . S
O103 Zn94 1.977 . S
O103 C96 1.267 . S
C104 O105 1.160 . S
C104 O111 1.185 . S
O105 C104 1.160 . S
O106 Zn107 1.899 . S
O106 C114 1.284 . S
Zn107 O106 1.899 . S
Zn107 O108 2.032 . S
Zn107 O111 2.086 . S
Zn107 O116 1.977 1_655 S
O108 Zn107 2.032 . S
O108 C112 1.278 . S
C109 O110 1.212 . S
C109 O116 1.267 . S
O110 C109 1.212 . S
O111 C104 1.185 . S
O111 Zn107 2.086 . S
C112 O108 1.278 . S
C112 O113 1.211 . S
O113 C112 1.211 . S
C114 O106 1.284 . S
C114 O115 1.273 . S
O115 C114 1.273 . S
O116 Zn107 1.977 1_455 S
O116 C109 1.267 . S
C117 O118 1.160 . S
C117 O124 1.185 . S
O118 C117 1.160 . S
O119 Zn120 1.899 . S
O119 C127 1.284 . S
Zn120 O119 1.899 . S
Zn120 O121 2.032 . S
Zn120 O124 2.086 . S
Zn120 O129 1.977 1_565 S
O121 Zn120 2.032 . S
O121 C125 1.278 . S
C122 O123 1.212 . S
C122 O129 1.267 . S
O123 C122 1.212 . S
O124 C117 1.185 . S
O124 Zn120 2.086 . S
C125 O121 1.278 . S
C125 O126 1.211 . S
O126 C125 1.211 . S
C127 O119 1.284 . S
C127 O128 1.273 . S
O128 C127 1.273 . S
O129 Zn120 1.977 1_545 S
O129 C122 1.267 . S
C130 O131 1.160 . S
C130 O137 1.185 . S
O131 C130 1.160 . S
O132 Zn133 1.899 . S
O132 C140 1.284 . S
Zn133 O132 1.899 . S
Zn133 O134 2.032 . S
Zn133 O137 2.086 . S
Zn133 O142 1.977 . S
O134 Zn133 2.032 . S
O134 C138 1.278 . S
C135 O136 1.203 . S
C135 O142 1.267 . S
O136 C135 1.203 . S
O137 C130 1.185 . S
O137 Zn133 2.086 . S
C138 O134 1.278 . S
C138 O139 1.211 . S
O139 C138 1.211 . S
C140 O132 1.284 . S
C140 O141 1.273 . S
O141 C140 1.273 . S
O142 Zn133 1.977 . S
O142 C135 1.267 . S
C143 O144 1.160 . S
C143 O150 1.185 . S
O144 C143 1.160 . S
O145 Zn146 1.899 . S
O145 C153 1.284 . S
Zn146 O145 1.899 . S
Zn146 O147 2.032 . S
Zn146 O150 2.086 . S
Zn146 O155 1.977 . S
O147 Zn146 2.032 . S
O147 C151 1.278 . S
C148 O149 1.203 . S
C148 O155 1.267 . S
O149 C148 1.203 . S
O150 C143 1.185 . S
O150 Zn146 2.086 . S
C151 O147 1.278 . S
C151 O152 1.211 . S
O152 C151 1.211 . S
C153 O145 1.284 . S
C153 O154 1.273 . S
O154 C153 1.273 . S
O155 Zn146 1.977 . S
O155 C148 1.267 . S
C156 O157 1.160 . S
C156 O163 1.185 . S
O157 C156 1.160 . S
O158 Zn159 1.899 . S
O158 C166 1.284 . S
Zn159 O158 1.899 . S
Zn159 O160 2.032 . S
Zn159 O163 2.086 . S
Zn159 O168 1.977 1_655 S
O160 Zn159 2.032 . S
O160 C164 1.278 . S
C161 O162 1.212 . S
C161 O168 1.267 . S
O162 C161 1.212 . S
O163 C156 1.185 . S
O163 Zn159 2.086 . S
C164 O160 1.278 . S
C164 O165 1.211 . S
O165 C164 1.211 . S
C166 O158 1.284 . S
C166 O167 1.273 . S
O167 C166 1.273 . S
O168 Zn159 1.977 1_455 S
O168 C161 1.267 . S
C169 O170 1.160 . S
C169 O176 1.185 . S
O170 C169 1.160 . S
O171 Zn172 1.899 . S
O171 C179 1.284 . S
Zn172 O171 1.899 . S
Zn172 O173 2.032 . S
Zn172 O176 2.086 . S
Zn172 O181 1.977 1_565 S
O173 Zn172 2.032 . S
O173 C177 1.278 . S
C174 O175 1.212 . S
C174 O181 1.267 . S
O175 C174 1.212 . S
O176 C169 1.185 . S
O176 Zn172 2.086 . S
C177 O173 1.278 . S
C177 O178 1.211 . S
O178 C177 1.211 . S
C179 O171 1.284 . S
C179 O180 1.273 . S
O180 C179 1.273 . S
O181 Zn172 1.977 1_545 S
O181 C174 1.267 . S
C182 O183 1.160 . S
C182 O189 1.185 . S
O183 C182 1.160 . S
O184 Zn185 1.899 . S
O184 C192 1.284 . S
Zn185 O184 1.899 . S
Zn185 O186 2.032 . S
Zn185 O189 2.086 . S
Zn185 O194 1.977 . S
O186 Zn185 2.032 . S
O186 C190 1.278 . S
C187 O188 1.203 . S
C187 O194 1.267 . S
O188 C187 1.203 . S
O189 C182 1.185 . S
O189 Zn185 2.086 . S
C190 O186 1.278 . S
C190 O191 1.211 . S
O191 C190 1.211 . S
C192 O184 1.284 . S
C192 O193 1.273 . S
O193 C192 1.273 . S
O194 Zn185 1.977 . S
O194 C187 1.267 . S
C195 O196 1.160 . S
C195 O202 1.185 . S
O196 C195 1.160 . S
O197 Zn198 1.899 . S
O197 C205 1.284 . S
Zn198 O197 1.899 . S
Zn198 O199 2.032 . S
Zn198 O202 2.086 . S
Zn198 O207 1.977 . S
O199 Zn198 2.032 . S
O199 C203 1.278 . S
C200 O201 1.203 . S
C200 O207 1.267 . S
O201 C200 1.203 . S
O202 C195 1.185 . S
O202 Zn198 2.086 . S
C203 O199 1.278 . S
C203 O204 1.211 . S
O204 C203 1.211 . S
C205 O197 1.284 . S
C205 O206 1.273 . S
O206 C205 1.273 . S
O207 Zn198 1.977 . S
O207 C200 1.267 . S
H208 C214 0.930 1_655 S
H209 C218 0.930 . S
H210 C223 0.929 . S
H211 C221 0.929 1_655 S
H212 C216 0.929 1_554 S
H213 C222 0.929 1_656 S
C214 H208 0.930 1_455 S
C214 C215 1.367 . S
C214 C222 1.378 . S
C215 C214 1.367 . S
C215 C223 1.433 . S
C216 H212 0.929 1_556 S
C216 C218 1.378 . S
C216 C220 1.350 . S
C217 C220 1.463 1_554 S
C217 C222 1.350 . S
C217 N225 1.427 . S
C218 H209 0.930 . S
C218 C216 1.378 . S
C218 C219 1.367 . S
C219 C218 1.367 . S
C219 C221 1.433 . S
C220 C216 1.350 . S
C220 C217 1.463 1_556 S
C220 N224 1.427 . S
C221 H211 0.929 1_455 S
C221 C219 1.433 . S
C221 N224 1.384 . S
C222 H213 0.929 1_454 S
C222 C214 1.378 . S
C222 C217 1.350 . S
C223 H210 0.929 . S
C223 C215 1.433 . S
C223 N225 1.384 . S
N224 C220 1.427 . S
N224 C221 1.384 . S
N225 C217 1.427 . S
N225 C223 1.384 . S
H226 C232 0.930 . S
H227 C236 0.930 1_565 S
H228 C241 0.929 1_565 S
H229 C239 0.929 . S
H230 C234 0.929 1_565 S
H231 C240 0.929 . S
C232 H226 0.930 . S
C232 C233 1.367 . S
C232 C240 1.378 . S
C233 C232 1.367 . S
C233 C241 1.433 . S
C234 H230 0.929 1_545 S
C234 C236 1.378 . S
C234 C238 1.350 . S
C235 C238 1.463 . S
C235 C240 1.350 . S
C235 N243 1.427 . S
C236 H227 0.930 1_545 S
C236 C234 1.378 . S
C236 C237 1.367 . S
C237 C236 1.367 . S
C237 C239 1.433 . S
C238 C234 1.350 . S
C238 C235 1.463 . S
C238 N242 1.427 . S
C239 H229 0.929 . S
C239 C237 1.433 . S
C239 N242 1.384 . S
C240 H231 0.929 . S
C240 C232 1.378 . S
C240 C235 1.350 . S
C241 H228 0.929 1_545 S
C241 C233 1.433 . S
C241 N243 1.384 . S
N242 C238 1.427 . S
N242 C239 1.384 . S
N243 C235 1.427 . S
N243 C241 1.384 . S
H244 C250 0.930 . S
H245 C254 0.930 . S
H246 C259 0.929 . S
H247 C257 0.929 . S
H248 C252 0.929 . S
H249 C258 0.929 . S
C250 H244 0.930 . S
C250 C251 1.367 . S
C250 C258 1.378 . S
C251 C250 1.367 . S
C251 C259 1.433 . S
C252 H248 0.929 . S
C252 C254 1.378 . S
C252 C256 1.350 . S
C253 C256 1.463 1_554 S
C253 C258 1.350 . S
C253 N261 1.427 1_554 S
C254 H245 0.930 . S
C254 C252 1.378 . S
C254 C255 1.367 . S
C255 C254 1.367 . S
C255 C257 1.433 . S
C256 C252 1.350 . S
C256 C253 1.463 1_556 S
C256 N260 1.427 1_556 S
C257 H247 0.929 . S
C257 C255 1.433 . S
C257 N260 1.384 1_556 S
C258 H249 0.929 . S
C258 C250 1.378 . S
C258 C253 1.350 . S
C259 H246 0.929 . S
C259 C251 1.433 . S
C259 N261 1.384 1_554 S
N260 C256 1.427 1_554 S
N260 C257 1.384 1_554 S
N261 C253 1.427 1_556 S
N261 C259 1.384 1_556 S
H262 C268 0.930 . S
H263 C272 0.930 . S
H264 C277 0.929 . S
H265 C275 0.929 . S
H266 C270 0.929 . S
H267 C276 0.929 . S
C268 H262 0.930 . S
C268 C269 1.367 . S
C268 C276 1.378 . S
C269 C268 1.367 . S
C269 C277 1.433 . S
C270 H266 0.929 . S
C270 C272 1.378 . S
C270 C274 1.350 . S
C271 C274 1.463 . S
C271 C276 1.350 . S
C271 N279 1.427 . S
C272 H263 0.930 . S
C272 C270 1.378 . S
C272 C273 1.367 . S
C273 C272 1.367 . S
C273 C275 1.433 . S
C274 C270 1.350 . S
C274 C271 1.463 . S
C274 N278 1.427 . S
C275 H265 0.929 . S
C275 C273 1.433 . S
C275 N278 1.384 . S
C276 H267 0.929 . S
C276 C268 1.378 . S
C276 C271 1.350 . S
C277 H264 0.929 . S
C277 C269 1.433 . S
C277 N279 1.384 . S
N278 C274 1.427 . S
N278 C275 1.384 . S
N279 C271 1.427 . S
N279 C277 1.384 . S
H280 C286 0.933 . S
H281 C290 0.930 . S
H282 C295 0.929 . S
H283 C293 0.926 . S
H284 C288 0.929 . S
H285 C294 0.931 . S
C286 H280 0.933 . S
C286 C287 1.367 . S
C286 C294 1.378 . S
C287 C286 1.367 . S
C287 C295 1.433 . S
C288 H284 0.929 . S
C288 C290 1.378 . S
C288 C292 1.350 . S
C289 C292 1.463 1_556 S
C289 C294 1.350 . S
C289 N297 1.427 . S
C290 H281 0.930 . S
C290 C288 1.378 . S
C290 C291 1.367 . S
C291 C290 1.367 . S
C291 C293 1.433 . S
C292 C288 1.350 . S
C292 C289 1.463 1_554 S
C292 N296 1.427 . S
C293 H283 0.926 . S
C293 C291 1.433 . S
C293 N296 1.384 . S
C294 H285 0.931 . S
C294 C286 1.378 . S
C294 C289 1.350 . S
C295 H282 0.929 . S
C295 C287 1.433 . S
C295 N297 1.384 . S
N296 C292 1.427 . S
N296 C293 1.384 . S
N297 C289 1.427 . S
N297 C295 1.384 . S
H298 C304 0.930 . S
H299 C308 0.929 1_545 S
H300 C313 0.938 . S
H301 C311 0.929 . S
H302 C306 0.928 1_545 S
H303 C312 0.929 . S
C304 H298 0.930 . S
C304 C305 1.367 . S
C304 C312 1.378 . S
C305 C304 1.367 . S
C305 C313 1.424 1_565 S
C306 H302 0.928 1_565 S
C306 C308 1.378 . S
C306 C310 1.350 . S
C307 C310 1.463 . S
C307 C312 1.350 . S
C307 N315 1.423 . S
C308 H299 0.929 1_565 S
C308 C306 1.378 . S
C308 C309 1.368 . S
C309 C308 1.368 . S
C309 C311 1.433 . S
C310 C306 1.350 . S
C310 C307 1.463 . S
C310 N314 1.427 . S
C311 H301 0.929 . S
C311 C309 1.433 . S
C311 N314 1.384 . S
C312 H303 0.929 . S
C312 C304 1.378 . S
C312 C307 1.350 . S
C313 H300 0.938 . S
C313 C305 1.424 1_545 S
C313 N315 1.384 1_545 S
N314 C310 1.427 . S
N314 C311 1.384 . S
N315 C307 1.423 . S
N315 C313 1.384 1_565 S
H316 C322 0.930 . S
H317 C326 0.930 . S
H318 C331 0.929 . S
H319 C329 0.929 . S
H320 C324 0.929 . S
H321 C330 0.929 . S
C322 H316 0.930 . S
C322 C323 1.367 . S
C322 C330 1.378 . S
C323 C322 1.367 . S
C323 C331 1.433 . S
C324 H320 0.929 . S
C324 C326 1.378 . S
C324 C328 1.350 . S
C325 C328 1.463 1_556 S
C325 C330 1.350 . S
C325 N333 1.427 1_556 S
C326 H317 0.930 . S
C326 C324 1.378 . S
C326 C327 1.367 . S
C327 C326 1.367 . S
C327 C329 1.433 . S
C328 C324 1.350 . S
C328 C325 1.463 1_554 S
C328 N332 1.427 1_554 S
C329 H319 0.929 . S
C329 C327 1.433 . S
C329 N332 1.384 1_554 S
C330 H321 0.929 . S
C330 C322 1.378 . S
C330 C325 1.350 . S
C331 H318 0.929 . S
C331 C323 1.433 . S
C331 N333 1.384 1_556 S
N332 C328 1.427 1_556 S
N332 C329 1.384 1_556 S
N333 C325 1.427 1_554 S
N333 C331 1.384 1_554 S
H334 C340 0.930 . S
H335 C344 0.930 . S
H336 C349 0.929 . S
H337 C347 0.929 . S
H338 C342 0.929 . S
H339 C348 0.929 . S
C340 H334 0.930 . S
C340 C341 1.367 . S
C340 C348 1.378 . S
C341 C340 1.367 . S
C341 C349 1.433 . S
C342 H338 0.929 . S
C342 C344 1.378 . S
C342 C346 1.350 . S
C343 C346 1.463 . S
C343 C348 1.350 . S
C343 N351 1.427 . S
C344 H335 0.930 . S
C344 C342 1.378 . S
C344 C345 1.367 . S
C345 C344 1.367 . S
C345 C347 1.433 . S
C346 C342 1.350 . S
C346 C343 1.463 . S
C346 N350 1.427 . S
C347 H337 0.929 . S
C347 C345 1.433 . S
C347 N350 1.384 . S
C348 H339 0.929 . S
C348 C340 1.378 . S
C348 C343 1.350 . S
C349 H336 0.929 . S
C349 C341 1.433 . S
C349 N351 1.384 . S
N350 C346 1.427 . S
N350 C347 1.384 . S
N351 C343 1.427 . S
N351 C349 1.384 . S
H352 C358 0.930 . S
H353 C362 0.930 . S
H354 C367 0.929 . S
H355 C365 0.929 . S
H356 C360 0.929 . S
H357 C366 0.929 . S
C358 H352 0.930 . S
C358 C359 1.367 . S
C358 C366 1.378 1_554 S
C359 C358 1.367 . S
C359 C367 1.433 1_554 S
C360 H356 0.929 . S
C360 C362 1.378 . S
C360 C364 1.350 . S
C361 C364 1.463 . S
C361 C366 1.350 . S
C361 N369 1.427 . S
C362 H353 0.930 . S
C362 C360 1.378 . S
C362 C363 1.367 . S
C363 C362 1.367 . S
C363 C365 1.433 . S
C364 C360 1.350 . S
C364 C361 1.463 . S
C364 N368 1.427 . S
C365 H355 0.929 . S
C365 C363 1.433 . S
C365 N368 1.384 . S
C366 H357 0.929 . S
C366 C358 1.378 1_556 S
C366 C361 1.350 . S
C367 H354 0.929 . S
C367 C359 1.433 1_556 S
C367 N369 1.384 . S
N368 C364 1.427 . S
N368 C365 1.384 . S
N369 C361 1.427 . S
N369 C367 1.384 . S
H370 C376 0.930 . S
H371 C380 0.930 . S
H372 C385 0.929 . S
H373 C383 0.929 . S
H374 C378 0.929 . S
H375 C384 0.929 . S
C376 H370 0.930 . S
C376 C377 1.367 . S
C376 C384 1.378 . S
C377 C376 1.367 . S
C377 C385 1.433 . S
C378 H374 0.929 . S
C378 C380 1.378 . S
C378 C382 1.350 . S
C379 C382 1.463 . S
C379 C384 1.350 . S
C379 N387 1.427 . S
C380 H371 0.930 . S
C380 C378 1.378 . S
C380 C381 1.367 . S
C381 C380 1.367 . S
C381 C383 1.433 . S
C382 C378 1.350 . S
C382 C379 1.463 . S
C382 N386 1.427 . S
C383 H373 0.929 . S
C383 C381 1.433 . S
C383 N386 1.384 . S
C384 H375 0.929 . S
C384 C376 1.378 . S
C384 C379 1.350 . S
C385 H372 0.929 . S
C385 C377 1.433 . S
C385 N387 1.384 . S
N386 C382 1.427 . S
N386 C383 1.384 . S
N387 C379 1.427 . S
N387 C385 1.384 . S
H388 C394 0.930 1_554 S
H389 C398 0.930 . S
H390 C403 0.929 . S
H391 C401 0.929 . S
H392 C396 0.929 . S
H393 C402 0.929 . S
C394 H388 0.930 1_556 S
C394 C395 1.367 1_556 S
C394 C402 1.378 . S
C395 C394 1.367 1_554 S
C395 C403 1.433 1_554 S
C396 H392 0.929 . S
C396 C398 1.378 . S
C396 C400 1.350 . S
C397 C400 1.463 . S
C397 C402 1.350 . S
C397 N405 1.427 . S
C398 H389 0.930 . S
C398 C396 1.378 . S
C398 C399 1.367 . S
C399 C398 1.367 . S
C399 C401 1.433 . S
C400 C396 1.350 . S
C400 C397 1.463 . S
C400 N404 1.427 . S
C401 H391 0.929 . S
C401 C399 1.433 . S
C401 N404 1.384 . S
C402 H393 0.929 . S
C402 C394 1.378 . S
C402 C397 1.350 . S
C403 H390 0.929 . S
C403 C395 1.433 1_556 S
C403 N405 1.384 . S
N404 C400 1.427 . S
N404 C401 1.384 . S
N405 C397 1.427 . S
N405 C403 1.384 . S
H406 C412 0.930 . S
H407 C416 0.930 . S
H408 C421 0.929 . S
H409 C419 0.929 . S
H410 C414 0.929 . S
H411 C420 0.929 . S
C412 H406 0.930 . S
C412 C413 1.367 . S
C412 C420 1.378 . S
C413 C412 1.367 . S
C413 C421 1.433 . S
C414 H410 0.929 . S
C414 C416 1.378 . S
C414 C418 1.350 . S
C415 C418 1.463 . S
C415 C420 1.350 . S
C415 N423 1.427 . S
C416 H407 0.930 . S
C416 C414 1.378 . S
C416 C417 1.367 . S
C417 C416 1.367 . S
C417 C419 1.433 . S
C418 C414 1.350 . S
C418 C415 1.463 . S
C418 N422 1.427 . S
C419 H409 0.929 . S
C419 C417 1.433 . S
C419 N422 1.384 . S
C420 H411 0.929 . S
C420 C412 1.378 . S
C420 C415 1.350 . S
C421 H408 0.929 . S
C421 C413 1.433 . S
C421 N423 1.384 . S
N422 C418 1.427 . S
N422 C419 1.384 . S
N423 C415 1.427 . S
N423 C421 1.384 . S
H424 C430 0.930 . S
H425 C434 0.930 . S
H426 C439 0.929 . S
H427 C437 0.929 . S
H428 C432 0.929 . S
H429 C438 0.929 . S
C430 H424 0.930 . S
C430 C431 1.367 . S
C430 C438 1.378 . S
C431 C430 1.367 . S
C431 C439 1.433 . S
C432 H428 0.929 . S
C432 C434 1.378 . S
C432 C436 1.350 . S
C433 C436 1.463 . S
C433 C438 1.350 . S
C433 N441 1.427 . S
C434 H425 0.930 . S
C434 C432 1.378 . S
C434 C435 1.367 1_554 S
C435 C434 1.367 1_556 S
C435 C437 1.433 . S
C436 C432 1.350 . S
C436 C433 1.463 . S
C436 N440 1.427 . S
C437 H427 0.929 . S
C437 C435 1.433 . S
C437 N440 1.384 1_556 S
C438 H429 0.929 . S
C438 C430 1.378 . S
C438 C433 1.350 . S
C439 H426 0.929 . S
C439 C431 1.433 . S
C439 N441 1.384 . S
N440 C436 1.427 . S
N440 C437 1.384 1_554 S
N441 C433 1.427 . S
N441 C439 1.384 . S
H442 C448 0.930 . S
H443 C452 0.930 . S
H444 C457 0.929 . S
H445 C455 0.929 . S
H446 C450 0.929 . S
H447 C456 0.929 . S
C448 H442 0.930 . S
C448 C449 1.367 . S
C448 C456 1.378 . S
C449 C448 1.367 . S
C449 C457 1.433 . S
C450 H446 0.929 . S
C450 C452 1.378 . S
C450 C454 1.350 . S
C451 C454 1.463 . S
C451 C456 1.350 . S
C451 N459 1.427 . S
C452 H443 0.930 . S
C452 C450 1.378 . S
C452 C453 1.367 . S
C453 C452 1.367 . S
C453 C455 1.433 . S
C454 C450 1.350 . S
C454 C451 1.463 . S
C454 N458 1.427 . S
C455 H445 0.929 . S
C455 C453 1.433 . S
C455 N458 1.384 . S
C456 H447 0.929 . S
C456 C448 1.378 . S
C456 C451 1.350 . S
C457 H444 0.929 . S
C457 C449 1.433 . S
C457 N459 1.384 . S
N458 C454 1.427 . S
N458 C455 1.384 . S
N459 C451 1.427 . S
N459 C457 1.384 . S
H460 C466 0.930 . S
H461 C470 0.930 . S
H462 C475 0.929 . S
H463 C473 0.929 . S
H464 C468 0.929 . S
H465 C474 0.929 . S
C466 H460 0.930 . S
C466 C467 1.367 . S
C466 C474 1.378 . S
C467 C466 1.367 . S
C467 C475 1.433 . S
C468 H464 0.929 . S
C468 C470 1.378 1_554 S
C468 C472 1.350 . S
C469 C472 1.463 . S
C469 C474 1.350 . S
C469 N477 1.427 . S
C470 H461 0.930 . S
C470 C468 1.378 1_556 S
C470 C471 1.367 . S
C471 C470 1.367 . S
C471 C473 1.433 1_556 S
C472 C468 1.350 . S
C472 C469 1.463 . S
C472 N476 1.427 . S
C473 H463 0.929 . S
C473 C471 1.433 1_554 S
C473 N476 1.384 . S
C474 H465 0.929 . S
C474 C466 1.378 . S
C474 C469 1.350 . S
C475 H462 0.929 . S
C475 C467 1.433 . S
C475 N477 1.384 . S
N476 C472 1.427 . S
N476 C473 1.384 . S
N477 C469 1.427 . S
N477 C475 1.384 . S
H478 C484 0.930 . S
H479 C488 0.930 . S
H480 C493 0.929 . S
H481 C491 0.929 . S
H482 C486 0.929 . S
H483 C492 0.929 . S
C484 H478 0.930 . S
C484 C485 1.367 . S
C484 C492 1.378 . S
C485 C484 1.367 . S
C485 C493 1.433 . S
C486 H482 0.929 . S
C486 C488 1.378 . S
C486 C490 1.350 . S
C487 C490 1.463 . S
C487 C492 1.350 . S
C487 N495 1.427 . S
C488 H479 0.930 . S
C488 C486 1.378 . S
C488 C489 1.367 . S
C489 C488 1.367 . S
C489 C491 1.433 . S
C490 C486 1.350 . S
C490 C487 1.463 . S
C490 N494 1.427 . S
C491 H481 0.929 . S
C491 C489 1.433 . S
C491 N494 1.384 . S
C492 H483 0.929 . S
C492 C484 1.378 . S
C492 C487 1.350 . S
C493 H480 0.929 . S
C493 C485 1.433 . S
C493 N495 1.384 . S
N494 C490 1.427 . S
N494 C491 1.384 . S
N495 C487 1.427 . S
N495 C493 1.384 . S
H496 C502 0.930 . S
H497 C506 0.930 . S
H498 C511 0.929 . S
H499 C509 0.929 . S
H500 C504 0.929 . S
H501 C510 0.929 . S
C502 H496 0.930 . S
C502 C503 1.367 1_554 S
C502 C510 1.378 . S
C503 C502 1.367 1_556 S
C503 C511 1.433 . S
C504 H500 0.929 . S
C504 C506 1.378 . S
C504 C508 1.350 . S
C505 C508 1.463 . S
C505 C510 1.350 . S
C505 N513 1.427 . S
C506 H497 0.930 . S
C506 C504 1.378 . S
C506 C507 1.367 . S
C507 C506 1.367 . S
C507 C509 1.433 . S
C508 C504 1.350 . S
C508 C505 1.463 . S
C508 N512 1.427 . S
C509 H499 0.929 . S
C509 C507 1.433 . S
C509 N512 1.384 . S
C510 H501 0.929 . S
C510 C502 1.378 . S
C510 C505 1.350 . S
C511 H498 0.929 . S
C511 C503 1.433 . S
C511 N513 1.384 1_556 S
N512 C508 1.427 . S
N512 C509 1.384 . S
N513 C505 1.427 . S
N513 C511 1.384 1_554 S
H514 C520 0.930 . S
H515 C524 0.930 . S
H516 C529 0.929 . S
H517 C527 0.929 . S
H518 C522 0.929 . S
H519 C528 0.929 . S
C520 H514 0.930 . S
C520 C521 1.367 . S
C520 C528 1.378 . S
C521 C520 1.367 . S
C521 C529 1.433 . S
C522 H518 0.929 . S
C522 C524 1.378 . S
C522 C526 1.350 . S
C523 C526 1.463 . S
C523 C528 1.350 . S
C523 N531 1.427 . S
C524 H515 0.930 . S
C524 C522 1.378 . S
C524 C525 1.367 . S
C525 C524 1.367 . S
C525 C527 1.433 . S
C526 C522 1.350 . S
C526 C523 1.463 . S
C526 N530 1.427 . S
C527 H517 0.929 . S
C527 C525 1.433 . S
C527 N530 1.384 . S
C528 H519 0.929 . S
C528 C520 1.378 . S
C528 C523 1.350 . S
C529 H516 0.929 . S
C529 C521 1.433 . S
C529 N531 1.384 . S
N530 C526 1.427 . S
N530 C527 1.384 . S
N531 C523 1.427 . S
N531 C529 1.384 . S
H532 C538 0.930 . S
H533 C542 0.930 . S
H534 C547 0.929 . S
H535 C545 0.929 . S
H536 C540 0.929 . S
H537 C546 0.929 . S
C538 H532 0.930 . S
C538 C539 1.367 . S
C538 C546 1.378 . S
C539 C538 1.367 . S
C539 C547 1.433 . S
C540 H536 0.929 . S
C540 C542 1.378 1_554 S
C540 C544 1.350 . S
C541 C544 1.463 . S
C541 C546 1.350 . S
C541 N549 1.427 . S
C542 H533 0.930 . S
C542 C540 1.378 1_556 S
C542 C543 1.367 . S
C543 C542 1.367 . S
C543 C545 1.433 1_556 S
C544 C540 1.350 . S
C544 C541 1.463 . S
C544 N548 1.427 . S
C545 H535 0.929 . S
C545 C543 1.433 1_554 S
C545 N548 1.384 . S
C546 H537 0.929 . S
C546 C538 1.378 . S
C546 C541 1.350 . S
C547 H534 0.929 . S
C547 C539 1.433 . S
C547 N549 1.384 . S
N548 C544 1.427 . S
N548 C545 1.384 . S
N549 C541 1.427 . S
N549 C547 1.384 . S
H550 C556 0.930 . S
H551 C560 0.930 . S
H552 C565 0.929 . S
H553 C563 0.929 . S
H554 C558 0.929 . S
H555 C564 0.929 . S
C556 H550 0.930 . S
C556 C557 1.367 . S
C556 C564 1.378 . S
C557 C556 1.367 . S
C557 C565 1.433 . S
C558 H554 0.929 . S
C558 C560 1.378 . S
C558 C562 1.350 . S
C559 C562 1.463 . S
C559 C564 1.350 . S
C559 N567 1.427 . S
C560 H551 0.930 . S
C560 C558 1.378 . S
C560 C561 1.367 . S
C561 C560 1.367 . S
C561 C563 1.433 . S
C562 C558 1.350 . S
C562 C559 1.463 . S
C562 N566 1.427 . S
C563 H553 0.929 . S
C563 C561 1.433 . S
C563 N566 1.384 . S
C564 H555 0.929 . S
C564 C556 1.378 . S
C564 C559 1.350 . S
C565 H552 0.929 . S
C565 C557 1.433 . S
C565 N567 1.384 . S
N566 C562 1.427 . S
N566 C563 1.384 . S
N567 C559 1.427 . S
N567 C565 1.384 . S
H568 C574 0.930 . S
H569 C578 0.930 . S
H570 C583 0.929 . S
H571 C581 0.929 . S
H572 C576 0.929 . S
H573 C582 0.929 . S
C574 H568 0.930 . S
C574 C575 1.367 . S
C574 C582 1.378 . S
C575 C574 1.367 . S
C575 C583 1.433 . S
C576 H572 0.929 . S
C576 C578 1.378 . S
C576 C580 1.350 . S
C577 C580 1.463 . S
C577 C582 1.350 . S
C577 N585 1.427 . S
C578 H569 0.930 . S
C578 C576 1.378 . S
C578 C579 1.367 1_556 S
C579 C578 1.367 1_554 S
C579 C581 1.433 . S
C580 C576 1.350 . S
C580 C577 1.463 . S
C580 N584 1.427 . S
C581 H571 0.929 . S
C581 C579 1.433 . S
C581 N584 1.384 1_554 S
C582 H573 0.929 . S
C582 C574 1.378 . S
C582 C577 1.350 . S
C583 H570 0.929 . S
C583 C575 1.433 . S
C583 N585 1.384 . S
N584 C580 1.427 . S
N584 C581 1.384 1_556 S
N585 C577 1.427 . S
N585 C583 1.384 . S
H586 C592 0.930 . S
H587 C596 0.930 . S
H588 C601 0.929 . S
H589 C599 0.929 . S
H590 C594 0.929 . S
H591 C600 0.929 . S
C592 H586 0.930 . S
C592 C593 1.367 . S
C592 C600 1.378 . S
C593 C592 1.367 . S
C593 C601 1.433 . S
C594 H590 0.929 . S
C594 C596 1.378 . S
C594 C598 1.350 . S
C595 C598 1.463 . S
C595 C600 1.350 . S
C595 N603 1.427 . S
C596 H587 0.930 . S
C596 C594 1.378 . S
C596 C597 1.367 . S
C597 C596 1.367 . S
C597 C599 1.433 . S
C598 C594 1.350 . S
C598 C595 1.463 . S
C598 N602 1.427 . S
C599 H589 0.929 . S
C599 C597 1.433 . S
C599 N602 1.384 . S
C600 H591 0.929 . S
C600 C592 1.378 . S
C600 C595 1.350 . S
C601 H588 0.929 . S
C601 C593 1.433 . S
C601 N603 1.384 . S
N602 C598 1.427 . S
N602 C599 1.384 . S
N603 C595 1.427 . S
N603 C601 1.384 . S
H604 C610 0.930 . S
H605 C614 0.930 . S
H606 C619 0.929 . S
H607 C617 0.929 . S
H608 C612 0.929 . S
H609 C618 0.929 . S
C610 H604 0.930 . S
C610 C611 1.367 1_556 S
C610 C618 1.378 . S
C611 C610 1.367 1_554 S
C611 C619 1.433 . S
C612 H608 0.929 . S
C612 C614 1.378 . S
C612 C616 1.350 . S
C613 C616 1.463 . S
C613 C618 1.350 . S
C613 N621 1.427 . S
C614 H605 0.930 . S
C614 C612 1.378 . S
C614 C615 1.367 . S
C615 C614 1.367 . S
C615 C617 1.433 . S
C616 C612 1.350 . S
C616 C613 1.463 . S
C616 N620 1.427 . S
C617 H607 0.929 . S
C617 C615 1.433 . S
C617 N620 1.384 . S
C618 H609 0.929 . S
C618 C610 1.378 . S
C618 C613 1.350 . S
C619 H606 0.929 . S
C619 C611 1.433 . S
C619 N621 1.384 1_554 S
N620 C616 1.427 . S
N620 C617 1.384 . S
N621 C613 1.427 . S
N621 C619 1.384 1_556 S
H622 C628 0.930 . S
H623 C632 0.930 . S
H624 C637 0.929 . S
H625 C635 0.929 . S
H626 C630 0.929 . S
H627 C636 0.929 . S
C628 H622 0.930 . S
C628 C629 1.367 . S
C628 C636 1.378 . S
C629 C628 1.367 . S
C629 C637 1.433 . S
C630 H626 0.929 . S
C630 C632 1.378 . S
C630 C634 1.350 . S
C631 C634 1.463 . S
C631 C636 1.350 . S
C631 N639 1.427 . S
C632 H623 0.930 . S
C632 C630 1.378 . S
C632 C633 1.367 . S
C633 C632 1.367 . S
C633 C635 1.433 . S
C634 C630 1.350 . S
C634 C631 1.463 . S
C634 N638 1.427 . S
C635 H625 0.929 . S
C635 C633 1.433 . S
C635 N638 1.384 . S
C636 H627 0.929 . S
C636 C628 1.378 . S
C636 C631 1.350 . S
C637 H624 0.929 . S
C637 C629 1.433 . S
C637 N639 1.384 . S
N638 C634 1.427 . S
N638 C635 1.384 . S
N639 C631 1.427 . S
N639 C637 1.384 . S
H640 C646 0.930 . S
H641 C650 0.930 . S
H642 C655 0.929 . S
H643 C653 0.929 . S
H644 C648 0.929 . S
H645 C654 0.929 . S
C646 H640 0.930 . S
C646 C647 1.367 . S
C646 C654 1.378 . S
C647 C646 1.367 . S
C647 C655 1.433 . S
C648 H644 0.929 . S
C648 C650 1.378 . S
C648 C652 1.350 . S
C649 C652 1.463 . S
C649 C654 1.350 . S
C649 N657 1.427 . S
C650 H641 0.930 . S
C650 C648 1.378 . S
C650 C651 1.367 . S
C651 C650 1.367 . S
C651 C653 1.433 . S
C652 C648 1.350 . S
C652 C649 1.463 . S
C652 N656 1.427 . S
C653 H643 0.929 . S
C653 C651 1.433 . S
C653 N656 1.384 . S
C654 H645 0.929 . S
C654 C646 1.378 . S
C654 C649 1.350 . S
C655 H642 0.929 . S
C655 C647 1.433 . S
C655 N657 1.384 . S
N656 C652 1.427 . S
N656 C653 1.384 . S
N657 C649 1.427 . S
N657 C655 1.384 . S
H658 C664 0.930 . S
H659 C668 0.930 . S
H660 C673 0.929 . S
H661 C671 0.929 . S
H662 C666 0.929 . S
H663 C672 0.929 . S
C664 H658 0.930 . S
C664 C665 1.367 . S
C664 C672 1.378 . S
C665 C664 1.367 . S
C665 C673 1.433 . S
C666 H662 0.929 . S
C666 C668 1.378 . S
C666 C670 1.350 . S
C667 C670 1.463 . S
C667 C672 1.350 . S
C667 N675 1.427 . S
C668 H659 0.930 . S
C668 C666 1.378 . S
C668 C669 1.367 . S
C669 C668 1.367 . S
C669 C671 1.433 . S
C670 C666 1.350 . S
C670 C667 1.463 . S
C670 N674 1.427 . S
C671 H661 0.929 . S
C671 C669 1.433 . S
C671 N674 1.384 . S
C672 H663 0.929 . S
C672 C664 1.378 . S
C672 C667 1.350 . S
C673 H660 0.929 . S
C673 C665 1.433 . S
C673 N675 1.384 . S
N674 C670 1.427 . S
N674 C671 1.384 . S
N675 C667 1.427 . S
N675 C673 1.384 . S
H676 C682 0.930 . S
H677 C686 0.930 . S
H678 C691 0.929 . S
H679 C689 0.929 . S
H680 C684 0.929 . S
H681 C690 0.929 . S
C682 H676 0.930 . S
C682 C683 1.367 . S
C682 C690 1.378 . S
C683 C682 1.367 . S
C683 C691 1.433 . S
C684 H680 0.929 . S
C684 C686 1.378 . S
C684 C688 1.350 . S
C685 C688 1.463 . S
C685 C690 1.350 . S
C685 N693 1.427 . S
C686 H677 0.930 . S
C686 C684 1.378 . S
C686 C687 1.367 . S
C687 C686 1.367 . S
C687 C689 1.433 . S
C688 C684 1.350 . S
C688 C685 1.463 . S
C688 N692 1.427 . S
C689 H679 0.929 . S
C689 C687 1.433 . S
C689 N692 1.384 . S
C690 H681 0.929 . S
C690 C682 1.378 . S
C690 C685 1.350 . S
C691 H678 0.929 . S
C691 C683 1.433 . S
C691 N693 1.384 . S
N692 C688 1.427 . S
N692 C689 1.384 . S
N693 C685 1.427 . S
N693 C691 1.384 . S
H694 C700 0.930 . S
H695 C704 0.930 . S
H696 C709 0.929 . S
H697 C707 0.929 . S
H698 C702 0.929 . S
H699 C708 0.929 . S
C700 H694 0.930 . S
C700 C701 1.367 . S
C700 C708 1.378 . S
C701 C700 1.367 . S
C701 C709 1.433 . S
C702 H698 0.929 . S
C702 C704 1.378 . S
C702 C706 1.350 . S
C703 C706 1.463 . S
C703 C708 1.350 . S
C703 N711 1.427 . S
C704 H695 0.930 . S
C704 C702 1.378 . S
C704 C705 1.367 . S
C705 C704 1.367 . S
C705 C707 1.433 . S
C706 C702 1.350 . S
C706 C703 1.463 . S
C706 N710 1.427 . S
C707 H697 0.929 . S
C707 C705 1.433 . S
C707 N710 1.384 . S
C708 H699 0.929 . S
C708 C700 1.378 . S
C708 C703 1.350 . S
C709 H696 0.929 . S
C709 C701 1.433 . S
C709 N711 1.384 . S
N710 C706 1.427 . S
N710 C707 1.384 . S
N711 C703 1.427 . S
N711 C709 1.384 . S
H712 C718 0.930 . S
H713 C722 0.930 . S
H714 C727 0.929 . S
H715 C725 0.929 . S
H716 C720 0.929 . S
H717 C726 0.929 . S
C718 H712 0.930 . S
C718 C719 1.367 . S
C718 C726 1.378 . S
C719 C718 1.367 . S
C719 C727 1.433 . S
C720 H716 0.929 . S
C720 C722 1.378 . S
C720 C724 1.350 . S
C721 C724 1.463 . S
C721 C726 1.350 . S
C721 N729 1.427 . S
C722 H713 0.930 . S
C722 C720 1.378 . S
C722 C723 1.367 . S
C723 C722 1.367 . S
C723 C725 1.433 . S
C724 C720 1.350 . S
C724 C721 1.463 . S
C724 N728 1.427 . S
C725 H715 0.929 . S
C725 C723 1.433 . S
C725 N728 1.384 . S
C726 H717 0.929 . S
C726 C718 1.378 . S
C726 C721 1.350 . S
C727 H714 0.929 . S
C727 C719 1.433 . S
C727 N729 1.384 . S
N728 C724 1.427 . S
N728 C725 1.384 . S
N729 C721 1.427 . S
N729 C727 1.384 . S
H730 C736 0.930 . S
H731 C740 0.930 . S
H732 C745 0.929 . S
H733 C743 0.929 . S
H734 C738 0.929 . S
H735 C744 0.929 . S
C736 H730 0.930 . S
C736 C737 1.367 . S
C736 C744 1.378 . S
C737 C736 1.367 . S
C737 C745 1.433 . S
C738 H734 0.929 . S
C738 C740 1.378 . S
C738 C742 1.350 . S
C739 C742 1.463 . S
C739 C744 1.350 . S
C739 N747 1.427 . S
C740 H731 0.930 . S
C740 C738 1.378 . S
C740 C741 1.367 . S
C741 C740 1.367 . S
C741 C743 1.433 . S
C742 C738 1.350 . S
C742 C739 1.463 . S
C742 N746 1.427 . S
C743 H733 0.929 . S
C743 C741 1.433 . S
C743 N746 1.384 . S
C744 H735 0.929 . S
C744 C736 1.378 . S
C744 C739 1.350 . S
C745 H732 0.929 . S
C745 C737 1.433 . S
C745 N747 1.384 . S
N746 C742 1.427 . S
N746 C743 1.384 . S
N747 C739 1.427 . S
N747 C745 1.384 . S
H748 C754 0.930 . S
H749 C758 0.930 . S
H750 C763 0.929 . S
H751 C761 0.929 . S
H752 C756 0.929 . S
H753 C762 0.929 . S
C754 H748 0.930 . S
C754 C755 1.367 . S
C754 C762 1.378 . S
C755 C754 1.367 . S
C755 C763 1.433 . S
C756 H752 0.929 . S
C756 C758 1.378 . S
C756 C760 1.350 . S
C757 C760 1.463 . S
C757 C762 1.350 . S
C757 N765 1.427 . S
C758 H749 0.930 . S
C758 C756 1.378 . S
C758 C759 1.367 . S
C759 C758 1.367 . S
C759 C761 1.433 . S
C760 C756 1.350 . S
C760 C757 1.463 . S
C760 N764 1.427 . S
C761 H751 0.929 . S
C761 C759 1.433 . S
C761 N764 1.384 . S
C762 H753 0.929 . S
C762 C754 1.378 . S
C762 C757 1.350 . S
C763 H750 0.929 . S
C763 C755 1.433 . S
C763 N765 1.384 . S
N764 C760 1.427 . S
N764 C761 1.384 . S
N765 C757 1.427 . S
N765 C763 1.384 . S
H766 C772 0.930 . S
H767 C776 0.930 . S
H768 C781 0.929 . S
H769 C779 0.929 . S
H770 C774 0.929 . S
H771 C780 0.929 . S
C772 H766 0.930 . S
C772 C773 1.367 . S
C772 C780 1.378 . S
C773 C772 1.367 . S
C773 C781 1.433 . S
C774 H770 0.929 . S
C774 C776 1.378 . S
C774 C778 1.350 . S
C775 C778 1.463 . S
C775 C780 1.350 . S
C775 N783 1.427 . S
C776 H767 0.930 . S
C776 C774 1.378 . S
C776 C777 1.367 . S
C777 C776 1.367 . S
C777 C779 1.433 . S
C778 C774 1.350 . S
C778 C775 1.463 . S
C778 N782 1.427 . S
C779 H769 0.929 . S
C779 C777 1.433 . S
C779 N782 1.384 . S
C780 H771 0.929 . S
C780 C772 1.378 . S
C780 C775 1.350 . S
C781 H768 0.929 . S
C781 C773 1.433 . S
C781 N783 1.384 . S
N782 C778 1.427 . S
N782 C779 1.384 . S
N783 C775 1.427 . S
N783 C781 1.384 . S
C215 C0 1.196 . S
C219 C52 1.204 . S
C233 C65 1.208 . S
C237 C13 1.201 . S
C251 C26 1.208 . S
C255 C78 1.203 . S
C269 C39 1.200 . S
C273 C91 1.207 . S
C287 C104 1.266 . S
C291 C156 1.261 . S
C305 C169 1.258 . S
C309 C117 1.267 . S
C323 C130 1.265 . S
C327 C182 1.262 . S
C341 C143 1.266 . S
C345 C195 1.258 . S
C359 C8 1.198 . S
C363 C205 1.185 . S
C377 C166 1.182 . S
C381 C21 1.202 . S
C395 C34 1.205 . S
C399 C179 1.193 . S
C413 C192 1.198 . S
C417 C47 1.211 . S
C431 C127 1.199 . S
C435 C60 1.213 . S
C449 C140 1.180 . S
C453 C73 1.196 . S
C467 C153 1.178 . S
C471 C86 1.197 . S
C485 C114 1.179 . S
C489 C99 1.199 . S
C503 C112 1.121 . S
C507 C96 1.077 . S
C521 C57 1.056 . S
C525 C125 1.122 . S
C539 C70 1.056 . S
C543 C138 1.122 . S
C557 C151 1.120 . S
C561 C83 1.060 . S
C575 C18 1.057 . S
C579 C164 1.127 . S
C593 C177 1.122 . S
C597 C31 1.075 . S
C611 C190 1.123 . S
C615 C44 1.072 . S
C629 C203 1.118 . S
C633 C5 1.080 . S
C647 C101 1.332 . S
C651 C10 1.338 . S
C665 C23 1.334 . S
C669 C62 1.337 . S
C683 C36 1.334 . S
C687 C75 1.336 . S
C701 C49 1.330 . S
C705 C88 1.340 . S
C719 C200 1.180 . S
C723 C109 1.166 . S
C737 C161 1.186 . S
C741 C122 1.168 . S
C755 C174 1.188 . S
C759 C135 1.176 . S
C773 C187 1.182 . S
C777 C148 1.186 . S
