# Generated by pormake.
# Topology smk, (6)-cn, num edge types: 1
# Building blocks:
#     Node 0, Type 0, BuildingBlock: UKALOJ_clean_sbu_0, # of connection points: 6
#     Node 1, Type 0, BuildingBlock: UKALOJ_clean_sbu_0, # of connection points: 6
#     Node 2, Type 0, BuildingBlock: UKALOJ_clean_sbu_0, # of connection points: 6
#     Node 3, Type 0, BuildingBlock: UKALOJ_clean_sbu_0, # of connection points: 6
#     Node 4, Type 0, BuildingBlock: UKALOJ_clean_sbu_0, # of connection points: 6
#     Node 5, Type 0, BuildingBlock: UKALOJ_clean_sbu_0, # of connection points: 6
#     Edge 6, Type (0, 0), BuildingBlock: EZIPEK_clean_linker_0, # of connection points: 2
#     Edge 7, Type (0, 0), BuildingBlock: EZIPEK_clean_linker_0, # of connection points: 2
#     Edge 8, Type (0, 0), BuildingBlock: EZIPEK_clean_linker_0, # of connection points: 2
#     Edge 9, Type (0, 0), BuildingBlock: EZIPEK_clean_linker_0, # of connection points: 2
#     Edge 10, Type (0, 0), BuildingBlock: EZIPEK_clean_linker_0, # of connection points: 2
#     Edge 11, Type (0, 0), BuildingBlock: EZIPEK_clean_linker_0, # of connection points: 2
#     Edge 12, Type (0, 0), BuildingBlock: EZIPEK_clean_linker_0, # of connection points: 2
#     Edge 13, Type (0, 0), BuildingBlock: EZIPEK_clean_linker_0, # of connection points: 2
#     Edge 14, Type (0, 0), BuildingBlock: EZIPEK_clean_linker_0, # of connection points: 2
#     Edge 15, Type (0, 0), BuildingBlock: EZIPEK_clean_linker_0, # of connection points: 2
#     Edge 16, Type (0, 0), BuildingBlock: EZIPEK_clean_linker_0, # of connection points: 2
#     Edge 17, Type (0, 0), BuildingBlock: EZIPEK_clean_linker_0, # of connection points: 2
#     Edge 18, Type (0, 0), BuildingBlock: EZIPEK_clean_linker_0, # of connection points: 2
#     Edge 19, Type (0, 0), BuildingBlock: EZIPEK_clean_linker_0, # of connection points: 2
#     Edge 20, Type (0, 0), BuildingBlock: EZIPEK_clean_linker_0, # of connection points: 2
#     Edge 21, Type (0, 0), BuildingBlock: EZIPEK_clean_linker_0, # of connection points: 2
#     Edge 22, Type (0, 0), BuildingBlock: EZIPEK_clean_linker_0, # of connection points: 2
#     Edge 23, Type (0, 0), BuildingBlock: EZIPEK_clean_linker_0, # of connection points: 2
# Relax obj value: 0.274
# Max RMSD: 0.205
# Mean RMSD: 0.205
data_MOF--net-smk--node1-UKALOJ_clean_sbu_0--edge1-EZIPEK_clean_linker_0
_symmetry_space_group_name_H-M    P1
_symmetry_Int_Tables_number       1
_symmetry_cell_setting            triclinic
loop_
_symmetry_equiv_pos_as_xyz
'x, y, z'
_cell_length_a     35.866376
_cell_length_b     35.870719
_cell_length_c     11.121027
_cell_angle_alpha  90.271161
_cell_angle_beta   89.820116
_cell_angle_gamma 120.10846
loop_
_atom_site_label
_atom_site_type_symbol
_atom_site_fract_x
_atom_site_fract_y
_atom_site_fract_z
_atom_type_partial_charge
Zn0 Zn 0.43148 0.24076 0.50699 0.0
O1 O 0.38121 0.1756 0.52685 0.0
C2 C 0.45601 0.23654 0.75536 0.0
Zn3 Zn 0.48241 0.2231 0.51708 0.0
C4 C 0.39187 0.14689 0.51391 0.0
O5 O 0.4316 0.15811 0.50843 0.0
C6 C 0.52186 0.31644 0.48686 0.0
O7 O 0.48676 0.22378 0.32749 0.0
O8 O 0.4296 0.23184 0.32155 0.0
N9 N 0.52658 0.20283 0.54011 0.0
C10 C 0.56395 0.22084 0.60267 0.0
C11 C 0.54837 0.15683 0.55734 0.0
N12 N 0.51699 0.16302 0.51255 0.0
N13 N 0.5781 0.19257 0.61508 0.0
C14 C 0.35962 0.26262 0.57142 0.0
C15 C 0.36391 0.30187 0.42269 0.0
N16 N 0.38849 0.26244 0.49356 0.0
N17 N 0.39077 0.28658 0.40088 0.0
N18 N 0.34421 0.28751 0.52949 0.0
H19 H 0.34987 0.21018 0.6855 0.0
H20 H 0.3142 0.23135 0.71504 0.0
H21 H 0.36969 0.26142 0.76029 0.0
C22 C 0.34748 0.23979 0.68972 0.0
C23 C 0.58607 0.26561 0.65409 0.0
H24 H 0.59978 0.28916 0.57977 0.0
H25 H 0.61295 0.27161 0.71474 0.0
H26 H 0.56266 0.27132 0.70428 0.0
O27 O 0.5314 0.28846 0.51967 0.0
O28 O 0.48227 0.30499 0.47681 0.0
C29 C 0.45838 0.22727 0.268 0.0
O30 O 0.4349 0.24978 0.69556 0.0
O31 O 0.47744 0.22226 0.70206 0.0
Zn32 Zn 0.20548 0.41806 0.66588 0.0
O33 O 0.21993 0.36721 0.67611 0.0
C34 C 0.23627 0.44416 0.90879 0.0
Zn35 Zn 0.27554 0.46748 0.66502 0.0
C36 C 0.25915 0.37665 0.67437 0.0
O37 O 0.28847 0.41615 0.67521 0.0
C38 C 0.22143 0.50799 0.63596 0.0
O39 O 0.28044 0.46622 0.47991 0.0
O40 O 0.21086 0.41839 0.47741 0.0
N41 N 0.34011 0.5106 0.68384 0.0
C42 C 0.36077 0.54962 0.7378 0.0
C43 C 0.40762 0.531 0.70197 0.0
N44 N 0.36931 0.49915 0.66174 0.0
N45 N 0.40303 0.56292 0.75076 0.0
C46 C 0.11283 0.34567 0.73479 0.0
C47 C 0.07537 0.35193 0.59641 0.0
N48 N 0.14062 0.3752 0.65623 0.0
N49 N 0.11722 0.37868 0.56981 0.0
N50 N 0.07183 0.3311 0.69991 0.0
H51 H 0.15712 0.33434 0.83662 0.0
H52 H 0.10072 0.29871 0.87167 0.0
H53 H 0.12741 0.35365 0.92264 0.0
C54 C 0.12539 0.33219 0.84769 0.0
C55 C 0.33945 0.5742 0.77977 0.0
H56 H 0.32975 0.5859 0.70031 0.0
H57 H 0.36125 0.60258 0.83524 0.0
H58 H 0.31016 0.55285 0.8325 0.0
O59 O 0.26052 0.51735 0.6439 0.0
O60 O 0.1916 0.4692 0.65087 0.0
C61 C 0.24603 0.44228 0.4221 0.0
O62 O 0.20195 0.41932 0.85245 0.0
O63 O 0.27075 0.46821 0.85206 0.0
Zn64 Zn 0.80689 0.19962 0.86363 0.0
O65 O 0.8707 0.21065 0.87314 0.0
C66 C 0.81077 0.22583 0.10754 0.0
Zn67 Zn 0.82951 0.26996 0.86418 0.0
C68 C 0.9015 0.24935 0.87022 0.0
O69 O 0.89285 0.27968 0.87187 0.0
C70 C 0.73498 0.21944 0.83537 0.0
O71 O 0.83705 0.27959 0.67908 0.0
O72 O 0.81393 0.20968 0.6755 0.0
N73 N 0.85372 0.33345 0.90991 0.0
C74 C 0.84059 0.36249 0.89712 0.0
C75 C 0.88294 0.38219 0.04789 0.0
N76 N 0.88056 0.34637 0.00233 0.0
N77 N 0.85793 0.39314 -0.01531 0.0
C78 C 0.7828 0.10459 0.90933 0.0
C79 C 0.74004 0.07206 0.76355 0.0
N80 N 0.7825 0.13498 0.839 0.0
N81 N 0.75621 0.11467 0.74792 0.0
N82 N 0.75611 0.06499 0.86452 0.0
H83 H 0.83776 0.14486 0.0204 0.0
H84 H 0.81557 0.08745 0.04046 0.0
H85 H 0.78762 0.11327 0.10001 0.0
C86 C 0.80766 0.1132 0.02391 0.0
C87 C 0.81123 0.36056 0.79864 0.0
H88 H 0.81928 0.3497 0.71386 0.0
H89 H 0.81401 0.3925 0.78522 0.0
H90 H 0.77736 0.33665 0.82114 0.0
O91 O 0.76533 0.25834 0.84613 0.0
O92 O 0.74305 0.18899 0.84837 0.0
C93 C 0.82599 0.24501 0.62047 0.0
O94 O 0.80037 0.19131 0.05089 0.0
O95 O 0.82213 0.26021 0.05036 0.0
Zn96 Zn 0.62493 0.79532 -0.0114 0.0
O97 O 0.67583 0.86028 -0.00136 0.0
C98 C 0.60033 0.79972 0.2326 0.0
Zn99 Zn 0.57549 0.81576 -0.01003 0.0
C100 C 0.66655 0.8901 -0.001 0.0
O101 O 0.62711 0.88004 0.00121 0.0
C102 C 0.53482 0.72126 -0.04028 0.0
O103 O 0.57568 0.82227 0.80455 0.0
O104 O 0.62337 0.80053 0.80057 0.0
N105 N 0.53259 0.83726 0.01479 0.0
C106 C 0.49395 0.81878 0.0708 0.0
C107 C 0.51272 0.88452 0.03991 0.0
N108 N 0.54413 0.8781 -0.00414 0.0
N109 N 0.481 0.84783 0.08818 0.0
C110 C 0.69918 0.77662 0.04354 0.0
C111 C 0.68818 0.72967 0.9089 0.0
N112 N 0.66713 0.77305 -0.02758 0.0
N113 N 0.66069 0.74417 0.88825 0.0
N114 N 0.71246 0.74928 0.00638 0.0
H115 H 0.71541 0.83552 0.13742 0.0
H116 H 0.74993 0.81345 0.17073 0.0
H117 H 0.69624 0.78879 0.23107 0.0
C118 C 0.71637 0.80548 0.15152 0.0
C119 C 0.46945 0.77267 0.11055 0.0
H120 H 0.45735 0.75151 0.03014 0.0
H121 H 0.44135 0.7659 0.16747 0.0
H122 H 0.491 0.76457 0.1611 0.0
O123 O 0.52542 0.75093 -0.03198 0.0
O124 O 0.57362 0.73039 -0.02598 0.0
C125 C 0.59954 0.81186 0.74595 0.0
O126 O 0.62528 0.79054 0.17537 0.0
O127 O 0.57597 0.80978 0.17667 0.0
Zn128 Zn 0.77503 0.57104 0.1803 0.0
O129 O 0.76974 0.56882 -0.00684 0.0
C130 C 0.82197 0.52478 0.15556 0.0
Zn131 Zn 0.84565 0.6191 0.17618 0.0
C132 C 0.80443 0.59296 0.93572 0.0
O133 O 0.83946 0.6174 -0.0094 0.0
C134 C 0.81534 0.59593 0.42176 0.0
O135 O 0.83776 0.67386 0.18207 0.0
O136 O 0.76837 0.62686 0.18021 0.0
N137 N 0.91139 0.65711 0.16274 0.0
C138 C 0.94117 0.68674 0.23772 0.0
C139 C 0.97515 0.67616 0.09647 0.0
N140 N 0.93266 0.65085 0.0747 0.0
N141 N 0.98124 0.6988 0.19856 0.0
C142 C 0.68092 0.49208 0.21328 0.0
C143 C 0.65944 0.52034 0.34531 0.0
N144 N 0.70997 0.53464 0.21595 0.0
N145 N 0.69586 0.55203 0.29649 0.0
N146 N 0.64937 0.48211 0.29588 0.0
H147 H 0.69605 0.47587 0.04179 0.0
H148 H 0.65135 0.43134 0.1187 0.0
H149 H 0.70582 0.45063 0.16781 0.0
C150 C 0.68352 0.46051 0.13037 0.0
C151 C 0.93137 0.70293 0.35092 0.0
H152 H 0.90033 0.70244 0.343 0.0
H153 H 0.95757 0.73619 0.37128 0.0
H154 H 0.9292 0.68195 0.4268 0.0
O155 O 0.85004 0.61948 0.36512 0.0
O156 O 0.78098 0.57274 0.36456 0.0
C157 C 0.79901 0.66575 0.17681 0.0
O158 O 0.78365 0.51689 0.17412 0.0
O159 O 0.85258 0.56374 0.15872 0.0
Zn160 Zn 0.25023 0.83799 0.33756 0.0
O161 O 0.18504 0.82387 0.34863 0.0
C162 C 0.24571 0.80811 0.58018 0.0
Zn163 Zn 0.22945 0.7678 0.33625 0.0
C164 C 0.15514 0.78463 0.34649 0.0
O165 O 0.16518 0.75526 0.34718 0.0
C166 C 0.32405 0.82176 0.30595 0.0
O167 O 0.22312 0.76203 0.15096 0.0
O168 O 0.24484 0.83153 0.14913 0.0
N169 N 0.20763 0.7031 0.35755 0.0
C170 C 0.2259 0.68256 0.41158 0.0
C171 C 0.16015 0.63573 0.37828 0.0
N172 N 0.16678 0.67389 0.3371 0.0
N173 N 0.19672 0.64037 0.42614 0.0
C174 C 0.27343 0.93241 0.40107 0.0
C175 C 0.31475 0.96695 0.25468 0.0
N176 N 0.27305 0.90299 0.32407 0.0
N177 N 0.29845 0.92461 0.23278 0.0
N178 N 0.29979 0.9727 0.36016 0.0
H179 H 0.21876 0.89075 0.51063 0.0
H180 H 0.24217 0.94784 0.54229 0.0
H181 H 0.26931 0.91981 0.58975 0.0
C182 C 0.24926 0.92202 0.51749 0.0
C183 C 0.27195 0.70396 0.45203 0.0
H184 H 0.2932 0.71333 0.37188 0.0
H185 H 0.27851 0.68232 0.50752 0.0
H186 H 0.28015 0.73348 0.50422 0.0
O187 O 0.29432 0.78263 0.31407 0.0
O188 O 0.31507 0.85149 0.32175 0.0
C189 C 0.23358 0.79639 0.09344 0.0
O190 O 0.2552 0.84242 0.5242 0.0
O191 O 0.23524 0.77363 0.5231 0.0
C192 C 0.49017 0.26752 0.0781 0.0
C193 C 0.45982 0.22889 0.13628 0.0
C194 C 0.42298 0.19865 0.94592 0.0
C195 C 0.45506 0.23599 0.88679 0.0
N196 N 0.52187 0.30378 0.89023 0.0
N197 N 0.40199 0.15524 0.12687 0.0
C198 C 0.48949 0.26985 0.95105 0.0
C199 C 0.42741 0.19372 0.07053 0.0
N200 N 0.51848 0.30246 0.14466 0.0
N201 N 0.38821 0.16822 0.88288 0.0
H202 H 0.40537 0.1505 0.21779 0.0
H203 H 0.3803 0.12704 0.08223 0.0
H204 H 0.38436 0.1706 0.79082 0.0
H205 H 0.36157 0.14233 0.92279 0.0
H206 H 0.53797 0.33307 0.10898 0.0
H207 H 0.52058 0.30159 0.23779 0.0
H208 H 0.55055 0.32674 0.93026 0.0
H209 H 0.52116 0.30773 0.7975 0.0
C210 C 0.25366 0.48166 0.23128 0.0
C211 C 0.24606 0.44343 0.29036 0.0
C212 C 0.23387 0.40615 0.09752 0.0
C213 C 0.23741 0.44301 0.04011 0.0
N214 N 0.24416 0.51317 0.0501 0.0
N215 N 0.22723 0.36876 0.28404 0.0
C216 C 0.24576 0.48017 0.10627 0.0
C217 C 0.23544 0.40541 0.22467 0.0
N218 N 0.26837 0.51934 0.29417 0.0
N219 N 0.23124 0.37287 0.03024 0.0
H220 H 0.2323 0.36819 0.37606 0.0
H221 H 0.21377 0.33854 0.24344 0.0
H222 H 0.23 0.37215 0.93662 0.0
H223 H 0.23357 0.34736 0.06599 0.0
H224 H 0.27937 0.54915 0.25352 0.0
H225 H 0.27219 0.52168 0.38714 0.0
H226 H 0.24565 0.53941 0.095 0.0
H227 H 0.23737 0.51243 -0.0412 0.0
C228 C 0.8468 0.22542 0.2985 0.0
C229 C 0.81319 0.22803 0.23946 0.0
C230 C 0.79453 0.25122 0.42638 0.0
C231 C 0.82521 0.24438 0.48798 0.0
N232 N 0.87996 0.22414 0.48672 0.0
N233 N 0.75189 0.23831 0.24568 0.0
C234 C 0.85108 0.23108 0.42507 0.0
C235 C 0.7863 0.23976 0.30298 0.0
N236 N 0.87604 0.21993 0.23279 0.0
N237 N 0.77318 0.26848 0.4856 0.0
H238 H 0.74436 0.22873 0.15616 0.0
H239 H 0.72874 0.24306 0.28823 0.0
H240 H 0.77637 0.27524 0.57736 0.0
H241 H 0.75412 0.27869 0.44285 0.0
H242 H 0.90418 0.22286 0.26846 0.0
H243 H 0.87399 0.21546 0.13987 0.0
H244 H 0.89552 0.20884 0.44996 0.0
H245 H 0.8873 0.23244 0.57704 0.0
C246 C 0.63758 0.83554 0.42308 0.0
C247 C 0.60121 0.80176 0.36418 0.0
C248 C 0.5612 0.77986 0.55323 0.0
C249 C 0.59884 0.8111 0.614 0.0
N250 N 0.67323 0.86783 0.61133 0.0
N251 N 0.5313 0.7378 0.37161 0.0
C252 C 0.63724 0.8386 0.55014 0.0
C253 C 0.56369 0.77294 0.42876 0.0
N254 N 0.67147 0.86585 0.35712 0.0
N255 N 0.52315 0.75682 0.6141 0.0
H256 H 0.53299 0.73122 0.28102 0.0
H257 H 0.50474 0.71312 0.41537 0.0
H258 H 0.52014 0.75898 0.70665 0.0
H259 H 0.49368 0.73735 0.57199 0.0
H260 H 0.69664 0.89405 0.39335 0.0
H261 H 0.67323 0.86451 0.26378 0.0
H262 H 0.70378 0.88479 0.57297 0.0
H263 H 0.67281 0.87405 0.70281 0.0
C264 C 0.83688 0.58138 0.62127 0.0
C265 C 0.81352 0.59624 0.5536 0.0
C266 C 0.78425 0.60933 0.73802 0.0
C267 C 0.80526 0.59182 0.8045 0.0
N268 N 0.84526 0.55428 0.81236 0.0
N269 N 0.75967 0.61817 0.54455 0.0
C270 C 0.83003 0.57607 0.74707 0.0
C271 C 0.78551 0.60826 0.61103 0.0
N272 N 0.86517 0.57186 0.56545 0.0
N273 N 0.76472 0.6287 0.79622 0.0
H274 H 0.76106 0.62046 0.45134 0.0
H275 H 0.73471 0.62145 0.58123 0.0
H276 H 0.76236 0.62941 0.88961 0.0
H277 H 0.75379 0.64706 0.75272 0.0
H278 H 0.88702 0.56616 0.61159 0.0
H279 H 0.86875 0.57197 0.47241 0.0
H280 H 0.8595 0.53789 0.77429 0.0
H281 H 0.84028 0.54924 0.90463 0.0
C282 C 0.26552 0.78953 0.90095 0.0
C283 C 0.23458 0.79647 -0.03847 0.0
C284 C 0.20998 0.80989 0.77036 0.0
C285 C 0.24352 0.80687 0.71162 0.0
N286 N 0.30694 0.80016 0.71889 0.0
N287 N 0.17832 0.81461 0.95835 0.0
C288 C 0.2722 0.79819 0.77625 0.0
C289 C 0.2072 0.80725 0.89744 0.0
N290 N 0.28851 0.77472 -0.03778 0.0
N291 N 0.17956 0.81306 0.70426 0.0
H292 H 0.17227 0.80857 0.04998 0.0
H293 H 0.16153 0.82818 0.91956 0.0
H294 H 0.18055 0.81534 0.61079 0.0
H295 H 0.15152 0.81033 0.74056 0.0
H296 H 0.30766 0.76427 0.92043 0.0
H297 H 0.28669 0.77027 0.05493 0.0
H298 H 0.33154 0.79826 0.76259 0.0
H299 H 0.31325 0.8076 0.62792 0.0
C300 C 0.32802 0.08732 0.40189 0.0
C301 C 0.35913 0.10059 0.49598 0.0
C302 C 0.34591 0.02679 0.51241 0.0
C303 C 0.31504 1.01369 0.41907 0.0
N304 N 0.26838 0.02747 0.29755 0.0
N305 N 0.38728 0.08044 0.66427 0.0
C306 C 0.3032 0.04276 0.37212 0.0
C307 C 0.36446 0.06932 0.55926 0.0
N308 N 0.32434 0.11707 0.33443 0.0
N309 N 0.35964 0.99957 0.55074 0.0
H310 H 0.40046 0.11122 0.70179 0.0
H311 H 0.38921 0.05819 0.7199 0.0
H312 H 0.34742 0.9685 0.51658 0.0
H313 H 0.38551 1.00899 0.60919 0.0
H314 H 0.30612 0.10928 0.25598 0.0
H315 H 0.34192 0.1501 0.35004 0.0
H316 H 0.25523 0.04598 0.26852 0.0
H317 H 0.25022 0.9949 0.27434 0.0
C318 C 0.27529 0.28633 0.54719 0.0
C319 C 0.31773 0.30178 0.58839 0.0
C320 C 0.31042 0.35132 0.72498 0.0
C321 C 0.27226 0.34317 0.66429 0.0
N322 N 0.21636 0.29981 0.51873 0.0
N323 N 0.37743 0.35056 0.71237 0.0
C324 C 0.25341 0.30906 0.57765 0.0
C325 C 0.33556 0.3342 0.67787 0.0
N326 N 0.25619 0.24981 0.47837 0.0
N327 N 0.32243 0.37541 0.82804 0.0
H328 H 0.39697 0.33917 0.67824 0.0
H329 H 0.3937 0.37757 0.76751 0.0
H330 H 0.30374 0.38714 0.86649 0.0
H331 H 0.34802 0.37959 0.88171 0.0
H332 H 0.22376 0.23391 0.45437 0.0
H333 H 0.27214 0.23321 0.4548 0.0
H334 H 0.20529 0.28015 0.44279 0.0
H335 H 0.19703 0.31271 0.54118 0.0
C336 C 0.96031 0.24095 0.76496 0.0
C337 C 0.94744 0.2607 0.85537 0.0
C338 C 1.0204 0.32333 0.85983 0.0
C339 C 0.03234 0.3051 0.76476 0.0
N340 N 1.01945 0.24315 0.65056 0.0
N341 N 0.96943 0.31122 0.01958 0.0
C342 C 1.00406 0.26256 0.72567 0.0
C343 C 0.97914 0.29875 0.91333 0.0
N344 N 0.93088 0.20314 0.71149 0.0
N345 N 0.0474 0.36507 0.89375 0.0
H346 H 0.93965 0.29281 0.06191 0.0
H347 H 0.99211 0.33683 0.07134 0.0
H348 H 0.07768 0.38419 0.85519 0.0
H349 H 0.03849 0.38168 0.95354 0.0
H350 H 0.9372 0.19118 0.63334 0.0
H351 H 0.89957 0.18372 0.74202 0.0
H352 H 1.00216 0.2107 0.62674 0.0
H353 H 0.05135 0.25896 0.62059 0.0
C354 C 0.69278 0.96651 0.05503 0.0
C355 C 0.7002 0.93661 -0.0095 0.0
C356 C 0.75626 0.99664 0.87304 0.0
C357 C 0.74145 0.02363 0.91882 0.0
N358 N 0.69477 0.03495 0.05077 0.0
N359 N 0.74253 0.92418 0.84096 0.0
C360 C 0.70999 1.00903 0.01076 0.0
C361 C 0.7337 0.95197 0.9022 0.0
N362 N 0.66938 0.95406 0.15913 0.0
N363 N 0.79203 1.01415 0.80139 0.0
H364 H 0.72985 0.89194 0.86271 0.0
H365 H 0.76169 0.93277 0.76414 0.0
H366 H 0.80843 0.04676 0.77853 0.0
H367 H 0.80758 0.99766 0.77379 0.0
H368 H 0.66578 0.97529 0.21557 0.0
H369 H 0.65759 0.92336 0.19535 0.0
H370 H 0.66838 0.02435 0.10811 0.0
H371 H 0.70654 0.06624 0.01948 0.0
C372 C 0.79925 0.72114 0.0372 0.0
C373 C 0.78832 0.69985 0.15031 0.0
C374 C 0.7302 0.71597 0.1751 0.0
C375 C 0.74116 0.73759 0.06312 0.0
N376 N 0.79242 0.77082 0.90363 0.0
N377 N 0.75549 0.69223 0.34353 0.0
C378 C 0.77808 0.7437 -9e-05 0.0
C379 C 0.7578 0.70251 0.22493 0.0
N380 N 0.8274 0.71748 -0.03822 0.0
N381 N 0.69198 0.70529 0.22947 0.0
H382 H 0.77803 0.68564 0.38198 0.0
H383 H 0.73555 0.69599 0.40475 0.0
H384 H 0.66944 0.71196 0.19163 0.0
H385 H 0.68086 0.68599 0.30585 0.0
H386 H 0.83211 0.72763 0.87262 0.0
H387 H 0.84424 0.70196 -0.01468 0.0
H388 H 0.82133 0.77968 0.85943 0.0
H389 H 0.77721 0.78762 0.87567 0.0
C390 C 0.04942 0.76768 0.21385 0.0
C391 C 1.0221 0.72553 0.25655 0.0
C392 C 0.07815 0.73364 0.39648 0.0
C393 C 0.10856 0.77154 0.33532 0.0
N394 N 0.12201 0.82726 0.18933 0.0
N395 N 1.00943 0.66714 0.3871 0.0
C396 C 0.09382 0.79001 0.24694 0.0
C397 C 0.03591 0.70841 0.34912 0.0
N398 N 0.03249 0.78611 0.14143 0.0
N399 N 0.08984 0.72213 0.50055 0.0
H400 H 0.97825 0.64792 0.35412 0.0
H401 H 1.01937 0.65103 0.44481 0.0
H402 H 0.12023 0.741 0.53905 0.0
H403 H 0.06826 0.69682 0.55479 0.0
H404 H 0.04909 0.81835 0.11591 0.0
H405 H 1.00015 0.76978 0.11562 0.0
H406 H 0.11414 0.83822 0.11234 0.0
H407 H 0.15391 0.84705 0.2145 0.0
C408 C 0.54753 0.39486 0.43889 0.0
C409 C 0.5561 0.36016 0.44509 0.0
C410 C 0.6295 0.40999 0.37685 0.0
C411 C 0.61769 0.44071 0.34416 0.0
N412 N 0.56106 0.45794 0.32589 0.0
N413 N 0.60379 0.33429 0.37377 0.0
C414 C 0.57526 0.43179 0.36949 0.0
C415 C 0.5967 0.36736 0.40142 0.0
N416 N 0.51459 0.39396 0.50314 0.0
N417 N 0.6717 0.42146 0.38992 0.0
H418 H 0.57957 0.30215 0.36962 0.0
H419 H 0.63282 0.33973 0.33637 0.0
H420 H 0.69658 0.45342 0.38526 0.0
H421 H 0.68099 0.39987 0.42067 0.0
H422 H 0.50928 0.41999 0.5061 0.0
H423 H 0.49665 0.37016 0.56622 0.0
H424 H 0.52916 0.4507 0.33473 0.0
H425 H 0.57988 0.48399 0.26979 0.0
C426 C 0.19639 0.53621 0.46675 0.0
C427 C 0.21121 0.54044 0.58749 0.0
C428 C 0.2106 0.60836 0.60593 0.0
C429 C 0.20178 0.60682 0.48124 0.0
N430 N 0.19401 0.57342 0.28832 0.0
N431 N 0.23677 0.58294 0.76888 0.0
C432 C 0.1966 0.57174 0.41051 0.0
C433 C 0.21974 0.57734 0.6562 0.0
N434 N 0.18199 0.49838 0.40515 0.0
N435 N 0.20884 0.63865 0.67664 0.0
H436 H 0.24212 0.56002 0.81003 0.0
H437 H 0.24808 0.61136 0.81807 0.0
H438 H 0.20132 0.6611 0.64231 0.0
H439 H 0.21105 0.63914 0.77005 0.0
H440 H 0.16655 0.49228 0.32221 0.0
H441 H 0.18231 0.47172 0.43994 0.0
H442 H 0.19474 0.5509 0.23037 0.0
H443 H 0.19554 0.59974 0.24414 0.0
C444 C 0.663 0.21624 0.85112 0.0
C445 C 0.69292 0.20993 0.78306 0.0
C446 C 0.64834 0.19593 0.60293 0.0
C447 C 0.61673 0.19842 0.67272 0.0
N448 N 0.5892 0.20131 0.86787 0.0
N449 N 0.70815 0.18316 0.59942 0.0
C450 C 0.62265 0.20575 0.79854 0.0
C451 C 0.68367 0.19628 0.6608 0.0
N452 N 0.67309 0.23235 -0.03468 0.0
N453 N 0.64563 0.19525 0.48038 0.0
H454 H 0.73491 0.18347 0.63577 0.0
H455 H 0.69972 0.16852 0.51504 0.0
H456 H 0.6211 0.19688 0.43491 0.0
H457 H 0.66994 0.19758 0.42403 0.0
H458 H 0.65443 0.24172 0.01479 0.0
H459 H 0.70177 0.23913 0.00736 0.0
H460 H 0.59011 0.20243 -0.03852 0.0
H461 H 0.55913 0.19272 0.83165 0.0
C462 C 0.46611 0.6497 -0.01942 0.0
C463 C 0.50246 0.67846 0.91106 0.0
C464 C 0.47102 0.63201 0.73412 0.0
C465 C 0.43658 0.60177 0.8056 0.0
N466 N 0.40578 0.57685 0.00153 0.0
N467 N 0.54387 0.69183 0.72735 0.0
C468 C 0.43543 0.60915 0.93054 0.0
C469 C 0.50642 0.66789 0.78983 0.0
N470 N 0.46068 0.66119 0.09366 0.0
N471 N 0.46882 0.62749 0.61189 0.0
H472 H 0.57043 0.71918 0.76192 0.0
H473 H 0.54984 0.68259 0.64383 0.0
H474 H 0.44257 0.6022 0.56815 0.0
H475 H 0.4908 0.65092 0.55364 0.0
H476 H 0.43256 0.64362 0.14361 0.0
H477 H 0.48331 0.68992 0.13434 0.0
H478 H 0.40567 0.57873 0.095 0.0
H479 H 0.38356 0.5466 -0.03277 0.0
C480 C 0.79894 0.45315 0.05104 0.0
C481 C 0.83075 0.48999 0.11456 0.0
C482 C 0.88259 0.46691 0.06269 0.0
C483 C 0.84871 0.4265 0.02162 0.0
N484 N 0.7717 0.37722 0.02764 0.0
N485 N 0.90144 0.52381 0.20792 0.0
C486 C 0.80585 0.41818 0.03095 0.0
C487 C 0.87233 0.49465 0.1286 0.0
N488 N 0.76402 0.45235 0.00033 0.0
N489 N 0.92442 0.47931 0.03702 0.0
H490 H 0.89383 0.54142 0.26788 0.0
H491 H 0.93103 0.52597 0.22517 0.0
H492 H 0.93284 0.46109 -0.01815 0.0
H493 H 0.94991 0.50988 0.05844 0.0
H494 H 0.74151 0.42607 0.94983 0.0
H495 H 0.7616 0.47993 -0.00836 0.0
H496 H 0.74009 0.37059 0.0399 0.0
H497 H 0.77557 0.3503 0.02937 0.0
C498 C 0.41221 0.84736 0.07654 0.0
C499 C 0.44244 0.84241 0.14534 0.0
C500 C 0.39534 0.82389 0.32221 0.0
C501 C 0.36663 0.83219 0.25544 0.0
N502 N 0.35318 0.86144 0.07511 0.0
N503 N 0.46783 0.83522 0.33884 0.0
C504 C 0.37689 0.84719 0.13477 0.0
C505 C 0.43548 0.83337 0.27002 0.0
N506 N 0.41616 0.85008 0.95422 0.0
N507 N 0.38424 0.80678 0.43487 0.0
H508 H 0.49777 0.84295 0.30302 0.0
H509 H 0.46635 0.83283 0.43222 0.0
H510 H 0.356 0.80123 0.47747 0.0
H511 H 0.40163 0.79566 0.4827 0.0
H512 H 0.39268 0.84924 0.89757 0.0
H513 H 0.44093 0.8488 0.90852 0.0
H514 H 0.36233 0.87705 -0.00757 0.0
H515 H 0.32617 0.86087 0.11125 0.0
loop_
_geom_bond_atom_site_label_1
_geom_bond_atom_site_label_2
_geom_bond_distance
_geom_bond_site_symmetry_2
_ccdc_geom_bond_type
Zn0 O1 2.055 . S
Zn0 O8 2.046 . S
Zn0 N16 2.036 . S
Zn0 O28 2.053 . S
Zn0 O30 2.066 . S
O1 Zn0 2.055 . S
O1 C4 1.259 . S
C2 O30 1.256 . S
C2 O31 1.244 . S
Zn3 O5 2.046 . S
Zn3 O7 2.055 . S
Zn3 N9 2.036 . S
Zn3 O27 2.066 . S
Zn3 O31 2.053 . S
C4 O1 1.259 . S
C4 O5 1.254 . S
O5 Zn3 2.046 . S
O5 C4 1.254 . S
C6 O27 1.256 . S
C6 O28 1.244 . S
O7 Zn3 2.055 . S
O7 C29 1.259 . S
O8 Zn0 2.046 . S
O8 C29 1.254 . S
N9 Zn3 2.036 . S
N9 C10 1.298 . S
N9 N12 1.398 . S
C10 N9 1.298 . S
C10 N13 1.367 . S
C10 C23 1.481 . S
C11 N12 1.299 . S
C11 N13 1.379 . S
N12 N9 1.398 . S
N12 C11 1.299 . S
N13 C10 1.367 . S
N13 C11 1.379 . S
C14 N16 1.298 . S
C14 N18 1.367 . S
C14 C22 1.481 . S
C15 N17 1.299 . S
C15 N18 1.379 . S
N16 Zn0 2.036 . S
N16 C14 1.298 . S
N16 N17 1.398 . S
N17 C15 1.299 . S
N17 N16 1.398 . S
N18 C14 1.367 . S
N18 C15 1.379 . S
H19 C22 0.980 . S
H20 C22 0.981 . S
H21 C22 0.981 . S
C22 C14 1.481 . S
C22 H19 0.980 . S
C22 H20 0.981 . S
C22 H21 0.981 . S
C23 C10 1.481 . S
C23 H24 0.980 . S
C23 H25 0.981 . S
C23 H26 0.981 . S
H24 C23 0.980 . S
H25 C23 0.981 . S
H26 C23 0.981 . S
O27 Zn3 2.066 . S
O27 C6 1.256 . S
O28 Zn0 2.053 . S
O28 C6 1.244 . S
C29 O7 1.259 . S
C29 O8 1.254 . S
O30 Zn0 2.066 . S
O30 C2 1.256 . S
O31 C2 1.244 . S
O31 Zn3 2.053 . S
Zn32 O33 2.055 . S
Zn32 O40 2.046 . S
Zn32 N48 2.036 . S
Zn32 O60 2.053 . S
Zn32 O62 2.066 . S
O33 Zn32 2.055 . S
O33 C36 1.259 . S
C34 O62 1.256 . S
C34 O63 1.244 . S
Zn35 O37 2.046 . S
Zn35 O39 2.055 . S
Zn35 N41 2.036 . S
Zn35 O59 2.066 . S
Zn35 O63 2.053 . S
C36 O33 1.259 . S
C36 O37 1.254 . S
O37 Zn35 2.046 . S
O37 C36 1.254 . S
C38 O59 1.256 . S
C38 O60 1.244 . S
O39 Zn35 2.055 . S
O39 C61 1.259 . S
O40 Zn32 2.046 . S
O40 C61 1.254 . S
N41 Zn35 2.036 . S
N41 C42 1.298 . S
N41 N44 1.398 . S
C42 N41 1.298 . S
C42 N45 1.367 . S
C42 C55 1.481 . S
C43 N44 1.299 . S
C43 N45 1.379 . S
N44 N41 1.398 . S
N44 C43 1.299 . S
N45 C42 1.367 . S
N45 C43 1.379 . S
C46 N48 1.298 . S
C46 N50 1.367 . S
C46 C54 1.481 . S
C47 N49 1.299 . S
C47 N50 1.379 . S
N48 Zn32 2.036 . S
N48 C46 1.298 . S
N48 N49 1.398 . S
N49 C47 1.299 . S
N49 N48 1.398 . S
N50 C46 1.367 . S
N50 C47 1.379 . S
H51 C54 0.980 . S
H52 C54 0.981 . S
H53 C54 0.981 . S
C54 C46 1.481 . S
C54 H51 0.980 . S
C54 H52 0.981 . S
C54 H53 0.981 . S
C55 C42 1.481 . S
C55 H56 0.980 . S
C55 H57 0.981 . S
C55 H58 0.981 . S
H56 C55 0.980 . S
H57 C55 0.981 . S
H58 C55 0.981 . S
O59 Zn35 2.066 . S
O59 C38 1.256 . S
O60 Zn32 2.053 . S
O60 C38 1.244 . S
C61 O39 1.259 . S
C61 O40 1.254 . S
O62 Zn32 2.066 . S
O62 C34 1.256 . S
O63 C34 1.244 . S
O63 Zn35 2.053 . S
Zn64 O65 2.055 . S
Zn64 O72 2.046 . S
Zn64 N80 2.036 . S
Zn64 O92 2.053 . S
Zn64 O94 2.066 1_556 S
O65 Zn64 2.055 . S
O65 C68 1.259 . S
C66 O94 1.256 . S
C66 O95 1.244 . S
Zn67 O69 2.046 . S
Zn67 O71 2.055 . S
Zn67 N73 2.036 . S
Zn67 O91 2.066 . S
Zn67 O95 2.053 1_556 S
C68 O65 1.259 . S
C68 O69 1.254 . S
O69 Zn67 2.046 . S
O69 C68 1.254 . S
C70 O91 1.256 . S
C70 O92 1.244 . S
O71 Zn67 2.055 . S
O71 C93 1.259 . S
O72 Zn64 2.046 . S
O72 C93 1.254 . S
N73 Zn67 2.036 . S
N73 C74 1.298 . S
N73 N76 1.398 1_556 S
C74 N73 1.298 . S
C74 N77 1.367 . S
C74 C87 1.481 . S
C75 N76 1.299 . S
C75 N77 1.379 1_554 S
N76 N73 1.398 1_554 S
N76 C75 1.299 . S
N77 C74 1.367 . S
N77 C75 1.379 1_556 S
C78 N80 1.298 . S
C78 N82 1.367 . S
C78 C86 1.481 . S
C79 N81 1.299 . S
C79 N82 1.379 . S
N80 Zn64 2.036 . S
N80 C78 1.298 . S
N80 N81 1.398 . S
N81 C79 1.299 . S
N81 N80 1.398 . S
N82 C78 1.367 . S
N82 C79 1.379 . S
H83 C86 0.980 . S
H84 C86 0.981 . S
H85 C86 0.981 1_554 S
C86 C78 1.481 . S
C86 H83 0.980 . S
C86 H84 0.981 . S
C86 H85 0.981 1_556 S
C87 C74 1.481 . S
C87 H88 0.980 . S
C87 H89 0.981 . S
C87 H90 0.981 . S
H88 C87 0.980 . S
H89 C87 0.981 . S
H90 C87 0.981 . S
O91 Zn67 2.066 . S
O91 C70 1.256 . S
O92 Zn64 2.053 . S
O92 C70 1.244 . S
C93 O71 1.259 . S
C93 O72 1.254 . S
O94 Zn64 2.066 1_554 S
O94 C66 1.256 . S
O95 C66 1.244 . S
O95 Zn67 2.053 1_554 S
Zn96 O97 2.055 . S
Zn96 O104 2.046 1_554 S
Zn96 N112 2.036 . S
Zn96 O124 2.053 . S
Zn96 O126 2.066 . S
O97 Zn96 2.055 . S
O97 C100 1.259 . S
C98 O126 1.256 . S
C98 O127 1.244 . S
Zn99 O101 2.046 . S
Zn99 O103 2.055 1_554 S
Zn99 N105 2.036 . S
Zn99 O123 2.066 . S
Zn99 O127 2.053 . S
C100 O97 1.259 . S
C100 O101 1.254 . S
O101 Zn99 2.046 . S
O101 C100 1.254 . S
C102 O123 1.256 . S
C102 O124 1.244 . S
O103 Zn99 2.055 1_556 S
O103 C125 1.259 . S
O104 Zn96 2.046 1_556 S
O104 C125 1.254 . S
N105 Zn99 2.036 . S
N105 C106 1.298 . S
N105 N108 1.398 . S
C106 N105 1.298 . S
C106 N109 1.367 . S
C106 C119 1.481 1_554 S
C107 N108 1.299 . S
C107 N109 1.379 . S
N108 N105 1.398 . S
N108 C107 1.299 . S
N109 C106 1.367 . S
N109 C107 1.379 . S
C110 N112 1.298 . S
C110 N114 1.367 . S
C110 C118 1.481 . S
C111 N113 1.299 1_554 S
C111 N114 1.379 . S
N112 Zn96 2.036 . S
N112 C110 1.298 . S
N112 N113 1.398 1_554 S
N113 C111 1.299 1_556 S
N113 N112 1.398 1_556 S
N114 C110 1.367 . S
N114 C111 1.379 . S
H115 C118 0.980 . S
H116 C118 0.981 . S
H117 C118 0.981 . S
C118 C110 1.481 . S
C118 H115 0.980 . S
C118 H116 0.981 . S
C118 H117 0.981 . S
C119 C106 1.481 1_556 S
C119 H120 0.980 . S
C119 H121 0.981 . S
C119 H122 0.981 . S
H120 C119 0.980 . S
H121 C119 0.981 . S
H122 C119 0.981 . S
O123 Zn99 2.066 . S
O123 C102 1.256 . S
O124 Zn96 2.053 . S
O124 C102 1.244 . S
C125 O103 1.259 . S
C125 O104 1.254 . S
O126 Zn96 2.066 . S
O126 C98 1.256 . S
O127 C98 1.244 . S
O127 Zn99 2.053 . S
Zn128 O129 2.055 . S
Zn128 O136 2.046 . S
Zn128 N144 2.036 . S
Zn128 O156 2.053 . S
Zn128 O158 2.066 . S
O129 Zn128 2.055 . S
O129 C132 1.259 1_554 S
C130 O158 1.256 . S
C130 O159 1.244 . S
Zn131 O133 2.046 . S
Zn131 O135 2.055 . S
Zn131 N137 2.036 . S
Zn131 O155 2.066 . S
Zn131 O159 2.053 . S
C132 O129 1.259 1_556 S
C132 O133 1.254 1_556 S
O133 Zn131 2.046 . S
O133 C132 1.254 1_554 S
C134 O155 1.256 . S
C134 O156 1.244 . S
O135 Zn131 2.055 . S
O135 C157 1.259 . S
O136 Zn128 2.046 . S
O136 C157 1.254 . S
N137 Zn131 2.036 . S
N137 C138 1.298 . S
N137 N140 1.398 . S
C138 N137 1.298 . S
C138 N141 1.367 . S
C138 C151 1.481 . S
C139 N140 1.299 . S
C139 N141 1.379 . S
N140 N137 1.398 . S
N140 C139 1.299 . S
N141 C138 1.367 . S
N141 C139 1.379 . S
C142 N144 1.298 . S
C142 N146 1.367 . S
C142 C150 1.481 . S
C143 N145 1.299 . S
C143 N146 1.379 . S
N144 Zn128 2.036 . S
N144 C142 1.298 . S
N144 N145 1.398 . S
N145 C143 1.299 . S
N145 N144 1.398 . S
N146 C142 1.367 . S
N146 C143 1.379 . S
H147 C150 0.980 . S
H148 C150 0.981 . S
H149 C150 0.981 . S
C150 C142 1.481 . S
C150 H147 0.980 . S
C150 H148 0.981 . S
C150 H149 0.981 . S
C151 C138 1.481 . S
C151 H152 0.980 . S
C151 H153 0.981 . S
C151 H154 0.981 . S
H152 C151 0.980 . S
H153 C151 0.981 . S
H154 C151 0.981 . S
O155 Zn131 2.066 . S
O155 C134 1.256 . S
O156 Zn128 2.053 . S
O156 C134 1.244 . S
C157 O135 1.259 . S
C157 O136 1.254 . S
O158 Zn128 2.066 . S
O158 C130 1.256 . S
O159 C130 1.244 . S
O159 Zn131 2.053 . S
Zn160 O161 2.055 . S
Zn160 O168 2.046 . S
Zn160 N176 2.036 . S
Zn160 O188 2.053 . S
Zn160 O190 2.066 . S
O161 Zn160 2.055 . S
O161 C164 1.259 . S
C162 O190 1.256 . S
C162 O191 1.244 . S
Zn163 O165 2.046 . S
Zn163 O167 2.055 . S
Zn163 N169 2.036 . S
Zn163 O187 2.066 . S
Zn163 O191 2.053 . S
C164 O161 1.259 . S
C164 O165 1.254 . S
O165 Zn163 2.046 . S
O165 C164 1.254 . S
C166 O187 1.256 . S
C166 O188 1.244 . S
O167 Zn163 2.055 . S
O167 C189 1.259 . S
O168 Zn160 2.046 . S
O168 C189 1.254 . S
N169 Zn163 2.036 . S
N169 C170 1.298 . S
N169 N172 1.398 . S
C170 N169 1.298 . S
C170 N173 1.367 . S
C170 C183 1.481 . S
C171 N172 1.299 . S
C171 N173 1.379 . S
N172 N169 1.398 . S
N172 C171 1.299 . S
N173 C170 1.367 . S
N173 C171 1.379 . S
C174 N176 1.298 . S
C174 N178 1.367 . S
C174 C182 1.481 . S
C175 N177 1.299 . S
C175 N178 1.379 . S
N176 Zn160 2.036 . S
N176 C174 1.298 . S
N176 N177 1.398 . S
N177 C175 1.299 . S
N177 N176 1.398 . S
N178 C174 1.367 . S
N178 C175 1.379 . S
H179 C182 0.980 . S
H180 C182 0.981 . S
H181 C182 0.981 . S
C182 C174 1.481 . S
C182 H179 0.980 . S
C182 H180 0.981 . S
C182 H181 0.981 . S
C183 C170 1.481 . S
C183 H184 0.980 . S
C183 H185 0.981 . S
C183 H186 0.981 . S
H184 C183 0.980 . S
H185 C183 0.981 . S
H186 C183 0.981 . S
O187 Zn163 2.066 . S
O187 C166 1.256 . S
O188 Zn160 2.053 . S
O188 C166 1.244 . S
C189 O167 1.259 . S
C189 O168 1.254 . S
O190 Zn160 2.066 . S
O190 C162 1.256 . S
O191 C162 1.244 . S
O191 Zn163 2.053 . S
C192 C193 1.363 . S
C192 C198 1.379 . S
C192 N200 1.356 . S
C193 C192 1.363 . S
C193 C199 1.363 . S
C194 C195 1.363 . S
C194 C199 1.379 1_556 S
C194 N201 1.356 . S
C195 C194 1.363 . S
C195 C198 1.363 1_556 S
N196 C198 1.356 1_556 S
N196 H208 0.984 . S
N196 H209 0.985 . S
N197 C199 1.356 . S
N197 H202 0.984 . S
N197 H203 0.985 . S
C198 C192 1.379 . S
C198 C195 1.363 1_554 S
C198 N196 1.356 1_554 S
C199 C193 1.363 . S
C199 C194 1.379 1_554 S
C199 N197 1.356 . S
N200 C192 1.356 . S
N200 H206 0.984 . S
N200 H207 0.984 . S
N201 C194 1.356 . S
N201 H204 0.984 . S
N201 H205 0.985 . S
H202 N197 0.984 . S
H203 N197 0.985 . S
H204 N201 0.984 . S
H205 N201 0.985 . S
H206 N200 0.984 . S
H207 N200 0.984 . S
H208 N196 0.984 . S
H209 N196 0.985 . S
C210 C211 1.363 . S
C210 C216 1.379 . S
C210 N218 1.356 . S
C211 C210 1.363 . S
C211 C217 1.363 . S
C212 C213 1.363 . S
C212 C217 1.379 . S
C212 N219 1.356 . S
C213 C212 1.363 . S
C213 C216 1.363 . S
N214 C216 1.356 . S
N214 H226 0.984 . S
N214 H227 0.985 1_554 S
N215 C217 1.356 . S
N215 H220 0.984 . S
N215 H221 0.985 . S
C216 C210 1.379 . S
C216 C213 1.363 . S
C216 N214 1.356 . S
C217 C211 1.363 . S
C217 C212 1.379 . S
C217 N215 1.356 . S
N218 C210 1.356 . S
N218 H224 0.984 . S
N218 H225 0.984 . S
N219 C212 1.356 . S
N219 H222 0.984 1_554 S
N219 H223 0.985 . S
H220 N215 0.984 . S
H221 N215 0.985 . S
H222 N219 0.984 1_556 S
H223 N219 0.985 . S
H224 N218 0.984 . S
H225 N218 0.984 . S
H226 N214 0.984 . S
H227 N214 0.985 1_556 S
C228 C229 1.363 . S
C228 C234 1.379 . S
C228 N236 1.356 . S
C229 C228 1.363 . S
C229 C235 1.363 . S
C230 C231 1.363 . S
C230 C235 1.379 . S
C230 N237 1.356 . S
C231 C230 1.363 . S
C231 C234 1.363 . S
N232 C234 1.356 . S
N232 H244 0.984 . S
N232 H245 0.985 . S
N233 C235 1.356 . S
N233 H238 0.984 . S
N233 H239 0.985 . S
C234 C228 1.379 . S
C234 C231 1.363 . S
C234 N232 1.356 . S
C235 C229 1.363 . S
C235 C230 1.379 . S
C235 N233 1.356 . S
N236 C228 1.356 . S
N236 H242 0.984 . S
N236 H243 0.984 . S
N237 C230 1.356 . S
N237 H240 0.984 . S
N237 H241 0.985 . S
H238 N233 0.984 . S
H239 N233 0.985 . S
H240 N237 0.984 . S
H241 N237 0.985 . S
H242 N236 0.984 . S
H243 N236 0.984 . S
H244 N232 0.984 . S
H245 N232 0.985 . S
C246 C247 1.363 . S
C246 C252 1.379 . S
C246 N254 1.356 . S
C247 C246 1.363 . S
C247 C253 1.363 . S
C248 C249 1.363 . S
C248 C253 1.379 . S
C248 N255 1.356 . S
C249 C248 1.363 . S
C249 C252 1.363 . S
N250 C252 1.356 . S
N250 H262 0.984 . S
N250 H263 0.985 . S
N251 C253 1.356 . S
N251 H256 0.984 . S
N251 H257 0.985 . S
C252 C246 1.379 . S
C252 C249 1.363 . S
C252 N250 1.356 . S
C253 C247 1.363 . S
C253 C248 1.379 . S
C253 N251 1.356 . S
N254 C246 1.356 . S
N254 H260 0.984 . S
N254 H261 0.984 . S
N255 C248 1.356 . S
N255 H258 0.984 . S
N255 H259 0.985 . S
H256 N251 0.984 . S
H257 N251 0.985 . S
H258 N255 0.984 . S
H259 N255 0.985 . S
H260 N254 0.984 . S
H261 N254 0.984 . S
H262 N250 0.984 . S
H263 N250 0.985 . S
C264 C265 1.363 . S
C264 C270 1.379 . S
C264 N272 1.356 . S
C265 C264 1.363 . S
C265 C271 1.363 . S
C266 C267 1.363 . S
C266 C271 1.379 . S
C266 N273 1.356 . S
C267 C266 1.363 . S
C267 C270 1.363 . S
N268 C270 1.356 . S
N268 H280 0.984 . S
N268 H281 0.985 1_556 S
N269 C271 1.356 . S
N269 H274 0.984 . S
N269 H275 0.985 . S
C270 C264 1.379 . S
C270 C267 1.363 . S
C270 N268 1.356 . S
C271 C265 1.363 . S
C271 C266 1.379 . S
C271 N269 1.356 . S
N272 C264 1.356 . S
N272 H278 0.984 . S
N272 H279 0.984 . S
N273 C266 1.356 . S
N273 H276 0.984 . S
N273 H277 0.985 . S
H274 N269 0.984 . S
H275 N269 0.985 . S
H276 N273 0.984 . S
H277 N273 0.985 . S
H278 N272 0.984 . S
H279 N272 0.984 . S
H280 N268 0.984 . S
H281 N268 0.985 1_554 S
C282 C283 1.363 1_556 S
C282 C288 1.379 . S
C282 N290 1.356 1_556 S
C283 C282 1.363 1_554 S
C283 C289 1.363 1_554 S
C284 C285 1.363 . S
C284 C289 1.379 . S
C284 N291 1.356 . S
C285 C284 1.363 . S
C285 C288 1.363 . S
N286 C288 1.356 . S
N286 H298 0.984 . S
N286 H299 0.985 . S
N287 C289 1.356 1_554 S
N287 H292 0.984 . S
N287 H293 0.985 . S
C288 C282 1.379 . S
C288 C285 1.363 . S
C288 N286 1.356 . S
C289 C283 1.363 1_556 S
C289 C284 1.379 . S
C289 N287 1.356 1_556 S
N290 C282 1.356 1_554 S
N290 H296 0.984 1_554 S
N290 H297 0.984 . S
N291 C284 1.356 . S
N291 H294 0.984 . S
N291 H295 0.985 . S
H292 N287 0.984 . S
H293 N287 0.985 . S
H294 N291 0.984 . S
H295 N291 0.985 . S
H296 N290 0.984 1_556 S
H297 N290 0.984 . S
H298 N286 0.984 . S
H299 N286 0.985 . S
C300 C301 1.363 . S
C300 C306 1.379 . S
C300 N308 1.356 . S
C301 C300 1.363 . S
C301 C307 1.363 . S
C302 C303 1.363 . S
C302 C307 1.379 . S
C302 N309 1.356 1_545 S
C303 C302 1.363 . S
C303 C306 1.363 . S
N304 C306 1.356 . S
N304 H316 0.984 . S
N304 H317 0.985 1_545 S
N305 C307 1.356 . S
N305 H310 0.984 . S
N305 H311 0.985 . S
C306 C300 1.379 . S
C306 C303 1.363 . S
C306 N304 1.356 . S
C307 C301 1.363 . S
C307 C302 1.379 . S
C307 N305 1.356 . S
N308 C300 1.356 . S
N308 H314 0.984 . S
N308 H315 0.984 . S
N309 C302 1.356 1_565 S
N309 H312 0.984 . S
N309 H313 0.985 . S
H310 N305 0.984 . S
H311 N305 0.985 . S
H312 N309 0.984 . S
H313 N309 0.985 . S
H314 N308 0.984 . S
H315 N308 0.984 . S
H316 N304 0.984 . S
H317 N304 0.985 1_565 S
C318 C319 1.363 . S
C318 C324 1.379 . S
C318 N326 1.356 . S
C319 C318 1.363 . S
C319 C325 1.363 . S
C320 C321 1.363 . S
C320 C325 1.379 . S
C320 N327 1.356 . S
C321 C320 1.363 . S
C321 C324 1.363 . S
N322 C324 1.356 . S
N322 H334 0.984 . S
N322 H335 0.985 . S
N323 C325 1.356 . S
N323 H328 0.984 . S
N323 H329 0.985 . S
C324 C318 1.379 . S
C324 C321 1.363 . S
C324 N322 1.356 . S
C325 C319 1.363 . S
C325 C320 1.379 . S
C325 N323 1.356 . S
N326 C318 1.356 . S
N326 H332 0.984 . S
N326 H333 0.984 . S
N327 C320 1.356 . S
N327 H330 0.984 . S
N327 H331 0.985 1_556 S
H328 N323 0.984 . S
H329 N323 0.985 . S
H330 N327 0.984 . S
H331 N327 0.985 1_554 S
H332 N326 0.984 . S
H333 N326 0.984 . S
H334 N322 0.984 . S
H335 N322 0.985 . S
C336 C337 1.363 . S
C336 C342 1.379 . S
C336 N344 1.356 . S
C337 C336 1.363 . S
C337 C343 1.363 . S
C338 C339 1.363 . S
C338 C343 1.379 . S
C338 N345 1.356 1_655 S
C339 C338 1.363 . S
C339 C342 1.363 . S
N340 C342 1.356 . S
N340 H352 0.984 . S
N340 H353 0.985 1_655 S
N341 C343 1.356 1_554 S
N341 H346 0.984 . S
N341 H347 0.985 . S
C342 C336 1.379 . S
C342 C339 1.363 . S
C342 N340 1.356 . S
C343 C337 1.363 . S
C343 C338 1.379 . S
C343 N341 1.356 1_556 S
N344 C336 1.356 . S
N344 H350 0.984 . S
N344 H351 0.984 . S
N345 C338 1.356 1_455 S
N345 H348 0.984 . S
N345 H349 0.985 1_556 S
H346 N341 0.984 . S
H347 N341 0.985 . S
H348 N345 0.984 . S
H349 N345 0.985 1_554 S
H350 N344 0.984 . S
H351 N344 0.984 . S
H352 N340 0.984 . S
H353 N340 0.985 1_455 S
C354 C355 1.363 . S
C354 C360 1.379 . S
C354 N362 1.356 . S
C355 C354 1.363 . S
C355 C361 1.363 . S
C356 C357 1.363 . S
C356 C361 1.379 1_556 S
C356 N363 1.356 . S
C357 C356 1.363 . S
C357 C360 1.363 1_556 S
N358 C360 1.356 1_545 S
N358 H370 0.984 . S
N358 H371 0.985 1_554 S
N359 C361 1.356 . S
N359 H364 0.984 . S
N359 H365 0.985 1_554 S
C360 C354 1.379 . S
C360 C357 1.363 1_554 S
C360 N358 1.356 1_565 S
C361 C355 1.363 . S
C361 C356 1.379 1_554 S
C361 N359 1.356 . S
N362 C354 1.356 . S
N362 H368 0.984 . S
N362 H369 0.984 . S
N363 C356 1.356 . S
N363 H366 0.984 1_565 S
N363 H367 0.985 . S
H364 N359 0.984 . S
H365 N359 0.985 1_556 S
H366 N363 0.984 1_545 S
H367 N363 0.985 . S
H368 N362 0.984 . S
H369 N362 0.984 . S
H370 N358 0.984 . S
H371 N358 0.985 1_556 S
C372 C373 1.363 . S
C372 C378 1.379 . S
C372 N380 1.356 . S
C373 C372 1.363 . S
C373 C379 1.363 . S
C374 C375 1.363 . S
C374 C379 1.379 . S
C374 N381 1.356 . S
C375 C374 1.363 . S
C375 C378 1.363 . S
N376 C378 1.356 1_556 S
N376 H388 0.984 . S
N376 H389 0.985 . S
N377 C379 1.356 . S
N377 H382 0.984 . S
N377 H383 0.985 . S
C378 C372 1.379 . S
C378 C375 1.363 . S
C378 N376 1.356 1_554 S
C379 C373 1.363 . S
C379 C374 1.379 . S
C379 N377 1.356 . S
N380 C372 1.356 . S
N380 H386 0.984 1_554 S
N380 H387 0.984 . S
N381 C374 1.356 . S
N381 H384 0.984 . S
N381 H385 0.985 . S
H382 N377 0.984 . S
H383 N377 0.985 . S
H384 N381 0.984 . S
H385 N381 0.985 . S
H386 N380 0.984 1_556 S
H387 N380 0.984 . S
H388 N376 0.984 . S
H389 N376 0.985 . S
C390 C391 1.363 . S
C390 C396 1.379 . S
C390 N398 1.356 . S
C391 C390 1.363 . S
C391 C397 1.363 . S
C392 C393 1.363 . S
C392 C397 1.379 . S
C392 N399 1.356 . S
C393 C392 1.363 . S
C393 C396 1.363 . S
N394 C396 1.356 . S
N394 H406 0.984 . S
N394 H407 0.985 . S
N395 C397 1.356 1_655 S
N395 H400 0.984 . S
N395 H401 0.985 . S
C396 C390 1.379 . S
C396 C393 1.363 . S
C396 N394 1.356 . S
C397 C391 1.363 . S
C397 C392 1.379 . S
C397 N395 1.356 1_455 S
N398 C390 1.356 . S
N398 H404 0.984 . S
N398 H405 0.984 1_455 S
N399 C392 1.356 . S
N399 H402 0.984 . S
N399 H403 0.985 . S
H400 N395 0.984 . S
H401 N395 0.985 . S
H402 N399 0.984 . S
H403 N399 0.985 . S
H404 N398 0.984 . S
H405 N398 0.984 1_655 S
H406 N394 0.984 . S
H407 N394 0.985 . S
C408 C409 1.363 . S
C408 C414 1.379 . S
C408 N416 1.356 . S
C409 C408 1.363 . S
C409 C415 1.363 . S
C410 C411 1.363 . S
C410 C415 1.379 . S
C410 N417 1.356 . S
C411 C410 1.363 . S
C411 C414 1.363 . S
N412 C414 1.356 . S
N412 H424 0.984 . S
N412 H425 0.985 . S
N413 C415 1.356 . S
N413 H418 0.984 . S
N413 H419 0.985 . S
C414 C408 1.379 . S
C414 C411 1.363 . S
C414 N412 1.356 . S
C415 C409 1.363 . S
C415 C410 1.379 . S
C415 N413 1.356 . S
N416 C408 1.356 . S
N416 H422 0.984 . S
N416 H423 0.984 . S
N417 C410 1.356 . S
N417 H420 0.984 . S
N417 H421 0.985 . S
H418 N413 0.984 . S
H419 N413 0.985 . S
H420 N417 0.984 . S
H421 N417 0.985 . S
H422 N416 0.984 . S
H423 N416 0.984 . S
H424 N412 0.984 . S
H425 N412 0.985 . S
C426 C427 1.363 . S
C426 C432 1.379 . S
C426 N434 1.356 . S
C427 C426 1.363 . S
C427 C433 1.363 . S
C428 C429 1.363 . S
C428 C433 1.379 . S
C428 N435 1.356 . S
C429 C428 1.363 . S
C429 C432 1.363 . S
N430 C432 1.356 . S
N430 H442 0.984 . S
N430 H443 0.985 . S
N431 C433 1.356 . S
N431 H436 0.984 . S
N431 H437 0.985 . S
C432 C426 1.379 . S
C432 C429 1.363 . S
C432 N430 1.356 . S
C433 C427 1.363 . S
C433 C428 1.379 . S
C433 N431 1.356 . S
N434 C426 1.356 . S
N434 H440 0.984 . S
N434 H441 0.984 . S
N435 C428 1.356 . S
N435 H438 0.984 . S
N435 H439 0.985 . S
H436 N431 0.984 . S
H437 N431 0.985 . S
H438 N435 0.984 . S
H439 N435 0.985 . S
H440 N434 0.984 . S
H441 N434 0.984 . S
H442 N430 0.984 . S
H443 N430 0.985 . S
C444 C445 1.363 . S
C444 C450 1.379 . S
C444 N452 1.356 . S
C445 C444 1.363 . S
C445 C451 1.363 . S
C446 C447 1.363 . S
C446 C451 1.379 . S
C446 N453 1.356 . S
C447 C446 1.363 . S
C447 C450 1.363 . S
N448 C450 1.356 . S
N448 H460 0.984 . S
N448 H461 0.985 . S
N449 C451 1.356 . S
N449 H454 0.984 . S
N449 H455 0.985 . S
C450 C444 1.379 . S
C450 C447 1.363 . S
C450 N448 1.356 . S
C451 C445 1.363 . S
C451 C446 1.379 . S
C451 N449 1.356 . S
N452 C444 1.356 . S
N452 H458 0.984 . S
N452 H459 0.984 . S
N453 C446 1.356 . S
N453 H456 0.984 . S
N453 H457 0.985 . S
H454 N449 0.984 . S
H455 N449 0.985 . S
H456 N453 0.984 . S
H457 N453 0.985 . S
H458 N452 0.984 . S
H459 N452 0.984 . S
H460 N448 0.984 . S
H461 N448 0.985 . S
C462 C463 1.363 . S
C462 C468 1.379 . S
C462 N470 1.356 1_556 S
C463 C462 1.363 . S
C463 C469 1.363 . S
C464 C465 1.363 . S
C464 C469 1.379 . S
C464 N471 1.356 . S
C465 C464 1.363 . S
C465 C468 1.363 . S
N466 C468 1.356 . S
N466 H478 0.984 . S
N466 H479 0.985 . S
N467 C469 1.356 . S
N467 H472 0.984 . S
N467 H473 0.985 . S
C468 C462 1.379 . S
C468 C465 1.363 . S
C468 N466 1.356 . S
C469 C463 1.363 . S
C469 C464 1.379 . S
C469 N467 1.356 . S
N470 C462 1.356 1_554 S
N470 H476 0.984 . S
N470 H477 0.984 . S
N471 C464 1.356 . S
N471 H474 0.984 . S
N471 H475 0.985 . S
H472 N467 0.984 . S
H473 N467 0.985 . S
H474 N471 0.984 . S
H475 N471 0.985 . S
H476 N470 0.984 . S
H477 N470 0.984 . S
H478 N466 0.984 . S
H479 N466 0.985 . S
C480 C481 1.363 . S
C480 C486 1.379 1_554 S
C480 N488 1.356 . S
C481 C480 1.363 . S
C481 C487 1.363 . S
C482 C483 1.363 1_554 S
C482 C487 1.379 . S
C482 N489 1.356 . S
C483 C482 1.363 1_556 S
C483 C486 1.363 . S
N484 C486 1.356 . S
N484 H496 0.984 . S
N484 H497 0.985 . S
N485 C487 1.356 . S
N485 H490 0.984 . S
N485 H491 0.985 . S
C486 C480 1.379 1_556 S
C486 C483 1.363 . S
C486 N484 1.356 . S
C487 C481 1.363 . S
C487 C482 1.379 . S
C487 N485 1.356 . S
N488 C480 1.356 . S
N488 H494 0.984 1_554 S
N488 H495 0.984 . S
N489 C482 1.356 . S
N489 H492 0.984 . S
N489 H493 0.985 . S
H490 N485 0.984 . S
H491 N485 0.985 . S
H492 N489 0.984 . S
H493 N489 0.985 . S
H494 N488 0.984 1_556 S
H495 N488 0.984 . S
H496 N484 0.984 . S
H497 N484 0.985 . S
C498 C499 1.363 . S
C498 C504 1.379 . S
C498 N506 1.356 . S
C499 C498 1.363 . S
C499 C505 1.363 . S
C500 C501 1.363 . S
C500 C505 1.379 . S
C500 N507 1.356 . S
C501 C500 1.363 . S
C501 C504 1.363 . S
N502 C504 1.356 . S
N502 H514 0.984 . S
N502 H515 0.985 . S
N503 C505 1.356 . S
N503 H508 0.984 . S
N503 H509 0.985 . S
C504 C498 1.379 . S
C504 C501 1.363 . S
C504 N502 1.356 . S
C505 C499 1.363 . S
C505 C500 1.379 . S
C505 N503 1.356 . S
N506 C498 1.356 . S
N506 H512 0.984 . S
N506 H513 0.984 . S
N507 C500 1.356 . S
N507 H510 0.984 . S
N507 H511 0.985 . S
H508 N503 0.984 . S
H509 N503 0.985 . S
H510 N507 0.984 . S
H511 N507 0.985 . S
H512 N506 0.984 . S
H513 N506 0.984 . S
H514 N502 0.984 . S
H515 N502 0.985 . S
C193 C29 1.171 . S
C195 C2 1.179 . S
C211 C61 1.171 . S
C213 C34 1.179 1_554 S
C229 C66 1.179 . S
C231 C93 1.171 . S
C247 C98 1.179 . S
C249 C125 1.171 . S
C265 C134 1.179 . S
C267 C132 1.171 . S
C283 C189 1.171 . S
C285 C162 1.179 . S
C301 C4 1.566 . S
C303 N178 1.547 1_545 S
C319 N18 1.547 . S
C321 C36 1.566 . S
C337 C68 1.566 . S
C339 N50 1.547 1_655 S
C355 C100 1.566 . S
C357 N82 1.547 1_565 S
C373 C157 1.566 . S
C375 N114 1.547 . S
C391 N141 1.547 1_455 S
C393 C164 1.566 . S
C409 C6 1.869 . S
C411 N146 1.745 . S
C427 C38 1.869 . S
C429 N173 1.745 . S
C445 C70 1.869 . S
C447 N13 1.745 . S
C463 C102 1.869 1_556 S
C465 N45 1.745 . S
C481 C130 1.869 . S
C483 N77 1.745 . S
C499 N109 1.745 . S
C501 C166 1.869 . S
