# Generated by pormake.
# Topology uou, (4)-cn, num edge types: 1
# Building blocks:
#     Node 0, Type 0, BuildingBlock: GALJAG_clean_sbu_0, # of connection points: 4
#     Node 1, Type 0, BuildingBlock: GALJAG_clean_sbu_0, # of connection points: 4
#     Node 2, Type 0, BuildingBlock: GALJAG_clean_sbu_0, # of connection points: 4
#     Node 3, Type 0, BuildingBlock: GALJAG_clean_sbu_0, # of connection points: 4
#     Node 4, Type 0, BuildingBlock: GALJAG_clean_sbu_0, # of connection points: 4
#     Node 5, Type 0, BuildingBlock: GALJAG_clean_sbu_0, # of connection points: 4
#     Node 6, Type 0, BuildingBlock: GALJAG_clean_sbu_0, # of connection points: 4
#     Node 7, Type 0, BuildingBlock: GALJAG_clean_sbu_0, # of connection points: 4
#     Node 8, Type 0, BuildingBlock: GALJAG_clean_sbu_0, # of connection points: 4
#     Node 9, Type 0, BuildingBlock: GALJAG_clean_sbu_0, # of connection points: 4
#     Node 10, Type 0, BuildingBlock: GALJAG_clean_sbu_0, # of connection points: 4
#     Node 11, Type 0, BuildingBlock: GALJAG_clean_sbu_0, # of connection points: 4
#     Node 12, Type 0, BuildingBlock: GALJAG_clean_sbu_0, # of connection points: 4
#     Node 13, Type 0, BuildingBlock: GALJAG_clean_sbu_0, # of connection points: 4
#     Node 14, Type 0, BuildingBlock: GALJAG_clean_sbu_0, # of connection points: 4
#     Node 15, Type 0, BuildingBlock: GALJAG_clean_sbu_0, # of connection points: 4
#     Edge 16, Type (0, 0), BuildingBlock: XUDNAN_clean_linker_2, # of connection points: 2
#     Edge 17, Type (0, 0), BuildingBlock: XUDNAN_clean_linker_2, # of connection points: 2
#     Edge 18, Type (0, 0), BuildingBlock: XUDNAN_clean_linker_2, # of connection points: 2
#     Edge 19, Type (0, 0), BuildingBlock: XUDNAN_clean_linker_2, # of connection points: 2
#     Edge 20, Type (0, 0), BuildingBlock: XUDNAN_clean_linker_2, # of connection points: 2
#     Edge 21, Type (0, 0), BuildingBlock: XUDNAN_clean_linker_2, # of connection points: 2
#     Edge 22, Type (0, 0), BuildingBlock: XUDNAN_clean_linker_2, # of connection points: 2
#     Edge 23, Type (0, 0), BuildingBlock: XUDNAN_clean_linker_2, # of connection points: 2
#     Edge 24, Type (0, 0), BuildingBlock: XUDNAN_clean_linker_2, # of connection points: 2
#     Edge 25, Type (0, 0), BuildingBlock: XUDNAN_clean_linker_2, # of connection points: 2
#     Edge 26, Type (0, 0), BuildingBlock: XUDNAN_clean_linker_2, # of connection points: 2
#     Edge 27, Type (0, 0), BuildingBlock: XUDNAN_clean_linker_2, # of connection points: 2
#     Edge 28, Type (0, 0), BuildingBlock: XUDNAN_clean_linker_2, # of connection points: 2
#     Edge 29, Type (0, 0), BuildingBlock: XUDNAN_clean_linker_2, # of connection points: 2
#     Edge 30, Type (0, 0), BuildingBlock: XUDNAN_clean_linker_2, # of connection points: 2
#     Edge 31, Type (0, 0), BuildingBlock: XUDNAN_clean_linker_2, # of connection points: 2
#     Edge 32, Type (0, 0), BuildingBlock: XUDNAN_clean_linker_2, # of connection points: 2
#     Edge 33, Type (0, 0), BuildingBlock: XUDNAN_clean_linker_2, # of connection points: 2
#     Edge 34, Type (0, 0), BuildingBlock: XUDNAN_clean_linker_2, # of connection points: 2
#     Edge 35, Type (0, 0), BuildingBlock: XUDNAN_clean_linker_2, # of connection points: 2
#     Edge 36, Type (0, 0), BuildingBlock: XUDNAN_clean_linker_2, # of connection points: 2
#     Edge 37, Type (0, 0), BuildingBlock: XUDNAN_clean_linker_2, # of connection points: 2
#     Edge 38, Type (0, 0), BuildingBlock: XUDNAN_clean_linker_2, # of connection points: 2
#     Edge 39, Type (0, 0), BuildingBlock: XUDNAN_clean_linker_2, # of connection points: 2
#     Edge 40, Type (0, 0), BuildingBlock: XUDNAN_clean_linker_2, # of connection points: 2
#     Edge 41, Type (0, 0), BuildingBlock: XUDNAN_clean_linker_2, # of connection points: 2
#     Edge 42, Type (0, 0), BuildingBlock: XUDNAN_clean_linker_2, # of connection points: 2
#     Edge 43, Type (0, 0), BuildingBlock: XUDNAN_clean_linker_2, # of connection points: 2
#     Edge 44, Type (0, 0), BuildingBlock: XUDNAN_clean_linker_2, # of connection points: 2
#     Edge 45, Type (0, 0), BuildingBlock: XUDNAN_clean_linker_2, # of connection points: 2
#     Edge 46, Type (0, 0), BuildingBlock: XUDNAN_clean_linker_2, # of connection points: 2
#     Edge 47, Type (0, 0), BuildingBlock: XUDNAN_clean_linker_2, # of connection points: 2
# Relax obj value: 0.005
# Max RMSD: 0.017
# Mean RMSD: 0.017
data_MOF--net-uou--node1-GALJAG_clean_sbu_0--edge1-XUDNAN_clean_linker_2
_symmetry_space_group_name_H-M    P1
_symmetry_Int_Tables_number       1
_symmetry_cell_setting            triclinic
loop_
_symmetry_equiv_pos_as_xyz
'x, y, z'
_cell_length_a     35.541728
_cell_length_b     42.988938
_cell_length_c     53.929463
_cell_angle_alpha  90.058718
_cell_angle_beta   89.964145
_cell_angle_gamma 90.009424
loop_
_atom_site_label
_atom_site_type_symbol
_atom_site_fract_x
_atom_site_fract_y
_atom_site_fract_z
_atom_type_partial_charge
In0 In 0.0755 0.08398 0.11749 0.0
O1 O 0.1033 0.03688 0.11755 0.0
O2 O 0.13954 0.07594 0.12132 0.0
C3 C 0.06537 0.14587 0.11429 0.0
C4 C 0.05282 0.06934 0.07143 0.0
C5 C 0.04646 0.07296 0.16267 0.0
O6 O 0.09782 0.1337 0.11523 0.0
O7 O 0.03834 0.12678 0.115 0.0
O8 O 0.03509 0.0586 0.14363 0.0
O9 O 0.07191 0.09283 0.15885 0.0
C10 C 0.13651 0.04665 0.11978 0.0
O11 O 0.03365 0.06209 0.09036 0.0
O12 O 0.08252 0.08441 0.07589 0.0
In13 In 0.44906 0.91392 0.12183 0.0
O14 O 0.38646 0.90689 0.11356 0.0
O15 O 0.40318 0.94936 0.13043 0.0
C16 C 0.4786 0.85864 0.10802 0.0
C17 C 0.47728 0.95125 0.08634 0.0
C18 C 0.4663 0.91085 0.17053 0.0
O19 O 0.44365 0.86252 0.11114 0.0
O20 O 0.4983 0.88274 0.11127 0.0
O21 O 0.47648 0.93353 0.15724 0.0
O22 O 0.44719 0.89051 0.15938 0.0
C23 C 0.37664 0.93315 0.12188 0.0
O24 O 0.48785 0.95285 0.10868 0.0
O25 O 0.45283 0.93067 0.08195 0.0
In26 In 0.57292 0.92624 0.39142 0.0
O27 O 0.5341 0.9656 0.40381 0.0
O28 O 0.57086 0.94559 0.4306 0.0
C29 C 0.55246 0.91923 0.3435 0.0
C30 C 0.64548 0.94513 0.38941 0.0
C31 C 0.5439 0.87214 0.40835 0.0
O32 O 0.54473 0.94368 0.35549 0.0
O33 O 0.57097 0.89929 0.35542 0.0
O34 O 0.5785 0.87525 0.40343 0.0
O35 O 0.52447 0.89643 0.40541 0.0
C36 C 0.54577 0.96554 0.42597 0.0
O37 O 0.6358 0.91925 0.39847 0.0
O38 O 0.61871 0.96119 0.38103 0.0
In39 In 0.95393 0.08647 0.38445 0.0
O40 O 0.99181 0.0594 0.41078 0.0
O41 O 0.94798 0.08762 0.42609 0.0
C42 C 0.97623 0.07413 0.338 0.0
C43 C 0.88959 0.05339 0.38429 0.0
C44 C 0.98103 0.14468 0.38821 0.0
O45 O 0.98851 0.05891 0.35636 0.0
O46 O 0.95318 0.09555 0.34313 0.0
O47 O 0.94595 0.13964 0.38591 0.0
O48 O 1.00139 0.12059 0.38843 0.0
C49 C 0.97489 0.06903 0.43002 0.0
O50 O 0.88876 0.08295 0.38435 0.0
O51 O 0.92207 0.04169 0.38379 0.0
In52 In 0.94191 0.92908 0.88328 0.0
O53 O 0.98519 0.96376 0.89716 0.0
O54 O 0.94862 0.94253 0.9237 0.0
C55 C 0.95217 0.92788 0.83397 0.0
C56 C 0.87885 0.96365 0.8848 0.0
C57 C 0.96644 0.87118 0.89401 0.0
O58 O 0.97591 0.94009 0.84848 0.0
O59 O 0.92364 0.91626 0.84438 0.0
O60 O 0.93154 0.8773 0.89311 0.0
O61 O 0.98773 0.89406 0.88994 0.0
C62 C 0.97494 0.96168 0.91959 0.0
O63 O 0.87839 0.93518 0.89113 0.0
O64 O 0.91039 0.97366 0.87765 0.0
In65 In 0.56196 0.08881 0.89034 0.0
O66 O 0.62509 0.10005 0.88894 0.0
O67 O 0.60811 0.0526 0.88779 0.0
C68 C 0.52602 0.14376 0.89472 0.0
C69 C 0.5456 0.06615 0.93555 0.0
C70 C 0.54081 0.07429 0.84382 0.0
O71 O 0.56156 0.14203 0.89329 0.0
O72 O 0.50914 0.11789 0.8942 0.0
O73 O 0.53527 0.05587 0.86175 0.0
O74 O 0.5567 0.09954 0.84945 0.0
C75 C 0.63493 0.07177 0.88791 0.0
O76 O 0.52999 0.05569 0.91614 0.0
O77 O 0.56869 0.08799 0.93196 0.0
In78 In 0.44178 0.08768 0.62302 0.0
O79 O 0.48498 0.06715 0.59597 0.0
O80 O 0.43571 0.08838 0.58124 0.0
C81 C 0.47075 0.07632 0.66827 0.0
C82 C 0.38152 0.04925 0.62488 0.0
C83 C 0.44821 0.15018 0.62128 0.0
O84 O 0.48336 0.06321 0.649 0.0
O85 O 0.44419 0.09521 0.66463 0.0
O86 O 0.41667 0.1365 0.622 0.0
O87 O 0.47644 0.13229 0.6214 0.0
C88 C 0.46602 0.07411 0.57691 0.0
O89 O 0.37785 0.07853 0.62523 0.0
O90 O 0.41507 0.03992 0.62394 0.0
In91 In 0.06911 0.91711 0.61613 0.0
O92 O 0.03641 0.95953 0.60323 0.0
O93 O 0.06883 0.93493 0.57638 0.0
C94 C 0.03407 0.92184 0.66045 0.0
C95 C 0.14175 0.93534 0.61914 0.0
C96 C 0.0486 0.85872 0.60247 0.0
O97 O 0.06917 0.91845 0.65853 0.0
O98 O 0.01677 0.92302 0.6401 0.0
O99 O 0.07325 0.86356 0.61888 0.0
O100 O 0.0359 0.88303 0.59254 0.0
C101 C 0.04703 0.95744 0.58094 0.0
O102 O 0.11444 0.95291 0.6242 0.0
O103 O 0.13263 0.90805 0.61276 0.0
In104 In 0.56495 0.58061 0.12468 0.0
O105 O 0.62851 0.57212 0.12013 0.0
O106 O 0.59467 0.53551 0.13432 0.0
C107 C 0.55573 0.64021 0.11024 0.0
C108 C 0.52812 0.55071 0.08798 0.0
C109 C 0.54735 0.58877 0.17298 0.0
O110 O 0.58767 0.62719 0.11062 0.0
O111 O 0.52864 0.62291 0.11653 0.0
O112 O 0.52985 0.56958 0.15947 0.0
O113 O 0.57368 0.6031 0.16227 0.0
C114 C 0.62701 0.54442 0.12792 0.0
O115 O 0.51629 0.5511 0.1101 0.0
O116 O 0.55803 0.56586 0.08438 0.0
In117 In 0.94255 0.41866 0.11388 0.0
O118 O 0.87989 0.4079 0.1187 0.0
O119 O 0.89715 0.45537 0.11777 0.0
C120 C 0.97566 0.36226 0.10946 0.0
C121 C 0.95271 0.44325 0.06845 0.0
C122 C 0.97154 0.43499 0.15819 0.0
O123 O 0.94058 0.36507 0.1128 0.0
O124 O 0.99326 0.38763 0.10798 0.0
O125 O 0.98516 0.44472 0.13798 0.0
O126 O 0.9431 0.41768 0.15597 0.0
C127 C 0.87033 0.43626 0.11958 0.0
O128 O 0.96773 0.45479 0.08762 0.0
O129 O 0.93318 0.41918 0.07224 0.0
In130 In 0.06371 0.42733 0.38078 0.0
O131 O 0.01416 0.45485 0.39614 0.0
O132 O 0.0531 0.43584 0.42196 0.0
C133 C 0.05166 0.43402 0.33168 0.0
C134 C 0.12382 0.46527 0.38493 0.0
C135 C 0.05641 0.36505 0.38696 0.0
O136 O 0.02554 0.43674 0.34742 0.0
O137 O 0.08343 0.42753 0.34066 0.0
O138 O 0.08723 0.37906 0.39053 0.0
O139 O 0.02966 0.38242 0.38046 0.0
C140 C 0.02384 0.45192 0.41856 0.0
O141 O 0.12706 0.43597 0.38634 0.0
O142 O 0.09067 0.4749 0.38163 0.0
In143 In 0.43569 0.59977 0.39338 0.0
O144 O 0.48035 0.56638 0.40857 0.0
O145 O 0.43789 0.58221 0.43322 0.0
C146 C 0.45919 0.60202 0.34554 0.0
C147 C 0.36388 0.5791 0.38914 0.0
C148 C 0.45332 0.65751 0.40945 0.0
O149 O 0.46087 0.57731 0.35811 0.0
O150 O 0.44528 0.62488 0.35687 0.0
O151 O 0.42003 0.64713 0.4095 0.0
O152 O 0.47787 0.63843 0.40194 0.0
C153 C 0.46667 0.56552 0.43017 0.0
O154 O 0.37194 0.6073 0.39278 0.0
O155 O 0.39197 0.56141 0.3872 0.0
In156 In 0.42272 0.42147 0.89195 0.0
O157 O 0.36917 0.42466 0.86825 0.0
O158 O 0.36925 0.44721 0.90322 0.0
C159 C 0.43271 0.3592 0.89498 0.0
C160 C 0.44428 0.44268 0.93697 0.0
C161 C 0.45852 0.44258 0.85089 0.0
O162 O 0.40065 0.37129 0.89175 0.0
O163 O 0.45931 0.37848 0.89685 0.0
O164 O 0.43973 0.46028 0.86487 0.0
O165 O 0.46118 0.415 0.85851 0.0
C166 C 0.35169 0.44172 0.88343 0.0
O167 O 0.45982 0.4521 0.91724 0.0
O168 O 0.41908 0.42248 0.93377 0.0
In169 In 0.05095 0.58986 0.88014 0.0
O170 O 0.10489 0.56804 0.89579 0.0
O171 O 0.10507 0.58159 0.85807 0.0
C172 C 0.04182 0.65152 0.88916 0.0
C173 C 0.01611 0.55853 0.91709 0.0
C174 C 0.02317 0.57544 0.83501 0.0
O175 O 0.0738 0.63893 0.88729 0.0
O176 O 0.01455 0.63305 0.88659 0.0
O177 O 0.03461 0.55502 0.85003 0.0
O178 O 0.02454 0.60299 0.84309 0.0
C179 C 0.12257 0.56866 0.87554 0.0
O180 O 0.00618 0.5562 0.89471 0.0
O181 O 0.04293 0.57712 0.92083 0.0
In182 In 0.92611 0.58704 0.61367 0.0
O183 O 0.962 0.55581 0.58821 0.0
O184 O 0.91481 0.57938 0.57295 0.0
C185 C 0.95419 0.57512 0.65904 0.0
C186 C 0.85541 0.56689 0.62263 0.0
C187 C 0.9484 0.64603 0.60437 0.0
O188 O 0.96188 0.55814 0.64055 0.0
O189 O 0.93306 0.59795 0.65442 0.0
O190 O 0.91477 0.63709 0.60186 0.0
O191 O 0.97097 0.62523 0.61155 0.0
C192 C 0.94189 0.56103 0.56931 0.0
O193 O 0.86416 0.59537 0.62281 0.0
O194 O 0.88226 0.54866 0.61793 0.0
In195 In 0.54588 0.4302 0.62812 0.0
O196 O 0.51178 0.45956 0.60074 0.0
O197 O 0.5576 0.43251 0.58696 0.0
C198 C 0.52096 0.44158 0.6743 0.0
C199 C 0.61099 0.46123 0.63371 0.0
C200 C 0.51902 0.37184 0.6235 0.0
O201 O 0.50766 0.45564 0.6556 0.0
O202 O 0.54599 0.42158 0.66948 0.0
O203 O 0.55393 0.37703 0.62631 0.0
O204 O 0.49864 0.3959 0.62287 0.0
C205 C 0.53154 0.45157 0.58222 0.0
O206 O 0.61082 0.43213 0.62955 0.0
O207 O 0.57892 0.47364 0.63506 0.0
H208 H 0.35113 0.99196 0.13206 0.0
H209 H 0.31373 0.90004 0.10959 0.0
H210 H 0.24825 0.9192 0.10747 0.0
H211 H 0.27026 0.01143 0.16992 0.0
H212 H 0.26959 0.05163 0.16048 0.0
H213 H 0.31337 0.03052 0.16102 0.0
H214 H 0.32467 0.04433 0.11486 0.0
H215 H 0.28093 0.06545 0.11416 0.0
H216 H 0.28932 0.03461 0.09218 0.0
H217 H 0.18739 0.948 0.10777 0.0
H218 H 0.13459 0.98499 0.10904 0.0
H219 H 0.21123 0.05913 0.13003 0.0
C220 C 0.32911 0.97583 0.12685 0.0
C221 C 0.33741 0.94445 0.1211 0.0
C222 C 0.30794 0.92413 0.11411 0.0
C223 C 0.27071 0.93479 0.11288 0.0
C224 C 0.2635 0.96586 0.11857 0.0
C225 C 0.29183 0.98615 0.12533 0.0
C226 C 0.27653 0.01862 0.12986 0.0
C227 C 0.28281 0.02863 0.15693 0.0
C228 C 0.2939 0.04213 0.11168 0.0
C229 C 0.23515 0.01343 0.12452 0.0
C230 C 0.22832 0.98275 0.11822 0.0
C231 C 0.19237 0.97208 0.11265 0.0
C232 C 0.16255 0.9933 0.11346 0.0
C233 C 0.1688 0.02496 0.11962 0.0
C234 C 0.20564 0.0351 0.12521 0.0
H235 H 0.67144 1.00421 0.38004 0.0
H236 H 0.70844 0.91083 0.3985 0.0
H237 H 0.77438 0.92886 0.39871 0.0
H238 H 0.7493 0.02427 0.33988 0.0
H239 H 0.75214 0.06397 0.3505 0.0
H240 H 0.70774 0.04375 0.35114 0.0
H241 H 0.70128 0.05554 0.39806 0.0
H242 H 0.74568 0.07576 0.39759 0.0
H243 H 0.73839 0.04405 0.41891 0.0
H244 H 0.83551 0.9562 0.3966 0.0
H245 H 0.88942 0.99167 0.39379 0.0
H246 H 0.81406 0.06875 0.3782 0.0
C247 C 0.69348 0.98756 0.38398 0.0
C248 C 0.68492 0.95604 0.38912 0.0
C249 C 0.71441 0.93502 0.39448 0.0
C250 C 0.75192 0.94504 0.39462 0.0
C251 C 0.75941 0.97622 0.38957 0.0
C252 C 0.73114 0.99727 0.38448 0.0
C253 C 0.74708 0.02966 0.3803 0.0
C254 C 0.73855 0.04108 0.35388 0.0
C255 C 0.73222 0.0526 0.39988 0.0
C256 C 0.78879 0.02345 0.38377 0.0
C257 C 0.79505 0.99237 0.38896 0.0
C258 C 0.831 0.98058 0.3926 0.0
C259 C 0.86147 1.001 0.39091 0.0
C260 C 0.85602 0.03304 0.38578 0.0
C261 C 0.81908 0.04442 0.38224 0.0
H262 H 0.80362 0.9483 0.89045 0.0
H263 H 0.87961 0.02652 0.88118 0.0
H264 H 0.82587 0.06256 0.88163 0.0
H265 H 0.73088 0.97806 0.85083 0.0
H266 H 0.69268 0.96371 0.8696 0.0
H267 H 0.73724 0.94377 0.86959 0.0
H268 H 0.74105 0.94926 0.91738 0.0
H269 H 0.69644 0.96916 0.91753 0.0
H270 H 0.73713 0.98728 0.93129 0.0
H271 H 0.76426 0.09045 0.88275 0.0
H272 H 0.69799 0.10802 0.88367 0.0
H273 H 0.66144 0.01212 0.89105 0.0
C274 C 0.80886 0.97302 0.88869 0.0
C275 C 0.84582 0.98458 0.88582 0.0
C276 C 0.85155 0.01708 0.88334 0.0
C277 C 0.82121 0.03781 0.88362 0.0
C278 C 0.78514 0.02576 0.88627 0.0
C279 C 0.77871 0.99416 0.88871 0.0
C280 C 0.73694 0.98742 0.89062 0.0
C281 C 0.72366 0.96704 0.86886 0.0
C282 C 0.72733 0.9724 0.9157 0.0
C283 C 0.72109 0.02012 0.88882 0.0
C284 C 0.7494 0.04189 0.88646 0.0
C285 C 0.74177 0.07363 0.88457 0.0
C286 C 0.7041 0.08341 0.8851 0.0
C287 C 0.67462 0.06148 0.88734 0.0
C288 C 0.68338 0.02945 0.88922 0.0
H289 H 0.16612 0.99523 0.62492 0.0
H290 H 0.20613 0.90057 0.61554 0.0
H291 H 0.27186 0.91951 0.61708 0.0
H292 H 0.23603 0.03109 0.58653 0.0
H293 H 0.24014 0.06538 0.6056 0.0
H294 H 0.19642 0.04424 0.60462 0.0
H295 H 0.19791 0.03838 0.65242 0.0
H296 H 0.24167 0.05948 0.65356 0.0
H297 H 0.23852 0.02121 0.66703 0.0
H298 H 0.33287 0.94875 0.61956 0.0
H299 H 0.3853 0.98619 0.62125 0.0
H300 H 0.30562 0.06228 0.62797 0.0
C301 C 0.18872 0.97845 0.62333 0.0
C302 C 0.18111 0.94638 0.62024 0.0
C303 C 0.21139 0.92521 0.61796 0.0
C304 C 0.24875 0.93575 0.61886 0.0
C305 C 0.25526 0.96754 0.62189 0.0
C306 C 0.2261 0.9886 0.62398 0.0
C307 C 0.24071 0.02162 0.62638 0.0
C308 C 0.22755 0.04176 0.60448 0.0
C309 C 0.22901 0.03601 0.65134 0.0
C310 C 0.28272 0.01586 0.62534 0.0
C311 C 0.29045 0.98448 0.62288 0.0
C312 C 0.32715 0.97336 0.62148 0.0
C313 C 0.35674 0.99485 0.62248 0.0
C314 C 0.34956 0.02717 0.62473 0.0
C315 C 0.31199 0.03773 0.62626 0.0
H316 H 0.84297 0.49534 0.11455 0.0
H317 H 0.80869 0.4006 0.13066 0.0
H318 H 0.74281 0.41831 0.13539 0.0
H319 H 0.77998 0.53373 0.15702 0.0
H320 H 0.7706 0.56581 0.13643 0.0
H321 H 0.81504 0.54577 0.13484 0.0
H322 H 0.80433 0.53488 0.08811 0.0
H323 H 0.75989 0.55492 0.08954 0.0
H324 H 0.7619 0.51544 0.07832 0.0
H325 H 0.681 0.44647 0.13868 0.0
H326 H 0.62696 0.48247 0.13852 0.0
H327 H 0.70129 0.55874 0.11898 0.0
C328 C 0.82163 0.47832 0.11916 0.0
C329 C 0.83089 0.4466 0.12236 0.0
C330 C 0.80215 0.425 0.12815 0.0
C331 C 0.76472 0.43486 0.13092 0.0
C332 C 0.75656 0.46633 0.12766 0.0
C333 C 0.78415 0.48771 0.12177 0.0
C334 C 0.76782 0.52004 0.11865 0.0
C335 C 0.78434 0.54267 0.13789 0.0
C336 C 0.77384 0.53201 0.09207 0.0
C337 C 0.72666 0.51354 0.12373 0.0
C338 C 0.72083 0.48245 0.12904 0.0
C339 C 0.68522 0.47084 0.13451 0.0
C340 C 0.65472 0.4915 0.13441 0.0
C341 C 0.65992 0.52339 0.12872 0.0
C342 C 0.69644 0.53449 0.12337 0.0
H343 H 0.33985 0.51846 0.38666 0.0
H344 H 0.29948 0.61369 0.38963 0.0
H345 H 0.23393 0.59463 0.38917 0.0
H346 H 0.26768 0.48873 0.34583 0.0
H347 H 0.26426 0.45177 0.36142 0.0
H348 H 0.30805 0.47287 0.36159 0.0
H349 H 0.30884 0.47119 0.40961 0.0
H350 H 0.26497 0.4502 0.40959 0.0
H351 H 0.2691 0.48609 0.42669 0.0
H352 H 0.17316 0.56559 0.38841 0.0
H353 H 0.12048 0.52838 0.38731 0.0
H354 H 0.1997 0.45153 0.38559 0.0
C355 C 0.31719 0.53529 0.38708 0.0
C356 C 0.32471 0.56758 0.3881 0.0
C357 C 0.29435 0.58887 0.3888 0.0
C358 C 0.25704 0.57827 0.38857 0.0
C359 C 0.25059 0.54631 0.38772 0.0
C360 C 0.27975 0.52509 0.38698 0.0
C361 C 0.26498 0.49198 0.38639 0.0
C362 C 0.27695 0.47537 0.36237 0.0
C363 C 0.27773 0.4738 0.40945 0.0
C364 C 0.22294 0.49792 0.38685 0.0
C365 C 0.21536 0.52945 0.38758 0.0
C366 C 0.17873 0.54085 0.38787 0.0
C367 C 0.14899 0.5195 0.38724 0.0
C368 C 0.15597 0.48706 0.38642 0.0
C369 C 0.1935 0.47618 0.38635 0.0
H370 H 0.1714 0.54704 0.91098 0.0
H371 H 0.15382 0.55146 0.83145 0.0
H372 H 0.20917 0.51769 0.82489 0.0
H373 H 0.27418 0.54926 0.90785 0.0
H374 H 0.2798 0.52329 0.9338 0.0
H375 H 0.23914 0.54818 0.93202 0.0
H376 H 0.19588 0.49991 0.93605 0.0
H377 H 0.2364 0.47483 0.93744 0.0
H378 H 0.20072 0.46832 0.91427 0.0
H379 H 0.26386 0.48052 0.82716 0.0
H380 H 0.31955 0.4487 0.83776 0.0
H381 H 0.30353 0.47077 0.91558 0.0
C382 C 0.17952 0.5412 0.89219 0.0
C383 C 0.15836 0.55183 0.87172 0.0
C384 C 0.16981 0.54373 0.84739 0.0
C385 C 0.20103 0.52437 0.84348 0.0
C386 C 0.2208 0.51369 0.86408 0.0
C387 C 0.21098 0.52231 0.88793 0.0
C388 C 0.23752 0.50821 0.9068 0.0
C389 C 0.25893 0.53376 0.92094 0.0
C390 C 0.21635 0.48653 0.92469 0.0
C391 C 0.26349 0.49003 0.88986 0.0
C392 C 0.25311 0.4932 0.86531 0.0
C393 C 0.27244 0.47806 0.8463 0.0
C394 C 0.30384 0.45986 0.85251 0.0
C395 C 0.31579 0.4573 0.87745 0.0
C396 C 0.29502 0.47233 0.89634 0.0
H397 H 0.68491 0.44492 0.62362 0.0
H398 H 0.61452 0.5212 0.6489 0.0
H399 H 0.6697 0.55557 0.6503 0.0
H400 H 0.76826 0.46584 0.66072 0.0
H401 H 0.80091 0.45508 0.63661 0.0
H402 H 0.75622 0.4355 0.63902 0.0
H403 H 0.74138 0.44985 0.59341 0.0
H404 H 0.7859 0.46959 0.59091 0.0
H405 H 0.74292 0.49006 0.58399 0.0
H406 H 0.73078 0.58286 0.6465 0.0
H407 H 0.79569 0.60103 0.63902 0.0
H408 H 0.82783 0.50766 0.61674 0.0
C409 C 0.68133 0.46871 0.6298 0.0
C410 C 0.6454 0.48035 0.63617 0.0
C411 C 0.64172 0.51174 0.64389 0.0
C412 C 0.67292 0.5315 0.64479 0.0
C413 C 0.70778 0.51958 0.638 0.0
C414 C 0.71237 0.48893 0.6308 0.0
C415 C 0.75295 0.48257 0.62367 0.0
C416 C 0.77063 0.45831 0.64104 0.0
C417 C 0.75595 0.47243 0.59637 0.0
C418 C 0.7701 0.51453 0.62767 0.0
C419 C 0.74348 0.53546 0.63599 0.0
C420 C 0.75205 0.56666 0.64021 0.0
C421 C 0.78892 0.57678 0.63584 0.0
C422 C 0.81676 0.55576 0.62741 0.0
C423 C 0.80717 0.5242 0.62339 0.0
H424 H 0.9885 0.11575 0.30102 0.0
H425 H 0.98857 0.01708 0.31734 0.0
H426 H 0.00313 0.00557 0.27327 0.0
H427 H 0.94895 0.11241 0.23998 0.0
H428 H 0.97916 0.14228 0.22759 0.0
H429 H 0.96695 0.14252 0.26001 0.0
H430 H 0.03764 0.14254 0.27184 0.0
H431 H 0.05006 0.14261 0.23947 0.0
H432 H 0.06806 0.11267 0.25961 0.0
H433 H 0.01407 0.00529 0.22669 0.0
H434 H 0.0312 0.01627 0.18294 0.0
H435 H 0.03091 0.11511 0.19875 0.0
C436 C 0.99156 0.09175 0.29523 0.0
C437 C 0.98714 0.06721 0.31229 0.0
C438 C 0.99194 0.0361 0.30437 0.0
C439 C 0.99993 0.02939 0.27942 0.0
C440 C 0.00379 0.05416 0.26292 0.0
C441 C 1.00061 0.08473 0.27064 0.0
C442 C 0.00855 0.10717 0.2497 0.0
C443 C 0.97383 0.12727 0.24399 0.0
C444 C 0.04314 0.12743 0.2555 0.0
C445 C 0.01651 0.08448 0.2289 0.0
C446 C 0.01281 0.05401 0.23671 0.0
C447 C 0.01743 0.02905 0.22044 0.0
C448 C 0.02689 0.03545 0.19568 0.0
C449 C 0.03248 0.06644 0.18776 0.0
C450 C 0.02702 0.09119 0.20453 0.0
H451 H 0.48802 0.95606 0.20397 0.0
H452 H 0.46972 0.85672 0.19597 0.0
H453 H 0.48989 0.84863 0.23917 0.0
H454 H 0.56956 0.95204 0.24318 0.0
H455 H 0.55611 0.9844 0.26252 0.0
H456 H 0.54069 0.98276 0.23074 0.0
H457 H 0.47137 0.98776 0.24505 0.0
H458 H 0.48658 0.98949 0.27688 0.0
H459 H 0.45286 0.96054 0.26735 0.0
H460 H 0.51503 0.8505 0.2818 0.0
H461 H 0.53842 0.86271 0.32369 0.0
H462 H 0.53609 0.96126 0.30632 0.0
C463 C 0.4883 0.93267 0.2114 0.0
C464 C 0.47751 0.90696 0.19667 0.0
C465 C 0.4778 0.87671 0.20699 0.0
C466 C 0.48932 0.87186 0.23147 0.0
C467 C 0.49988 0.89757 0.24552 0.0
C468 C 0.49902 0.92745 0.23609 0.0
C469 C 0.51082 0.95096 0.25564 0.0
C470 C 0.54641 0.96857 0.24753 0.0
C471 C 0.47847 0.97352 0.26158 0.0
C472 C 0.51884 0.92951 0.27734 0.0
C473 C 0.51269 0.89881 0.27088 0.0
C474 C 0.5196 0.87445 0.28722 0.0
C475 C 0.53301 0.88162 0.3109 0.0
C476 C 0.53881 0.91289 0.3182 0.0
C477 C 0.53146 0.93718 0.30124 0.0
H478 H 0.06549 0.93086 0.70625 0.0
H479 H 0.95874 0.91644 0.66893 0.0
H480 H 0.92603 0.91727 0.70936 0.0
H481 H 0.04679 0.88386 0.7592 0.0
H482 H 0.07003 0.90948 0.7808 0.0
H483 H 0.08503 0.90822 0.74892 0.0
H484 H 0.07476 0.96772 0.7452 0.0
H485 H 0.0598 0.96918 0.77711 0.0
H486 H 0.02958 0.98406 0.75306 0.0
H487 H 0.90553 0.91671 0.75374 0.0
H488 H 0.89786 0.91824 0.79925 0.0
H489 H 0.01743 0.93577 0.80764 0.0
C490 C 0.03522 0.92798 0.70662 0.0
C491 C 0.01458 0.92347 0.68454 0.0
C492 C 0.97501 0.91997 0.68567 0.0
C493 C 0.95623 0.92035 0.70852 0.0
C494 C 0.97741 0.92465 0.72997 0.0
C495 C 0.01596 0.92872 0.72923 0.0
C496 C 0.03201 0.93313 0.75501 0.0
C497 C 0.06012 0.90712 0.76135 0.0
C498 C 0.0501 0.96545 0.75775 0.0
C499 C 0.9965 0.93048 0.77037 0.0
C500 C 0.96536 0.92542 0.75556 0.0
C501 C 0.92962 0.92097 0.76553 0.0
C502 C 0.92557 0.92178 0.79136 0.0
C503 C 0.95701 0.92732 0.80685 0.0
C504 C 0.99286 0.93186 0.79618 0.0
H505 H 0.47532 0.11658 0.707 0.0
H506 H 0.4974 0.02098 0.68602 0.0
H507 H 0.51591 0.00904 0.72935 0.0
H508 H 0.55522 0.12324 0.74848 0.0
H509 H 0.53062 0.1483 0.76984 0.0
H510 H 0.51848 0.14859 0.73743 0.0
H511 H 0.44908 0.13664 0.74877 0.0
H512 H 0.46108 0.13598 0.7812 0.0
H513 H 0.43832 0.10284 0.76723 0.0
H514 H 0.52753 0.00728 0.77608 0.0
H515 H 0.5408 0.0176 0.82055 0.0
H516 H 0.51683 0.11539 0.80917 0.0
C517 C 0.4842 0.09317 0.71156 0.0
C518 C 0.48477 0.06958 0.69339 0.0
C519 C 0.49695 0.03932 0.6998 0.0
C520 C 0.50725 0.03233 0.72433 0.0
C521 C 0.50591 0.05608 0.74197 0.0
C522 C 0.49549 0.08605 0.73571 0.0
C523 C 0.49806 0.10778 0.75771 0.0
C524 C 0.52734 0.13349 0.75309 0.0
C525 C 0.45933 0.12161 0.7641 0.0
C526 C 0.51111 0.08532 0.77747 0.0
C527 C 0.51489 0.05549 0.76822 0.0
C528 C 0.52511 0.03063 0.78343 0.0
C529 C 0.53235 0.03661 0.80862 0.0
C530 C 0.53007 0.06726 0.81806 0.0
C531 C 0.51915 0.09178 0.80228 0.0
H532 H 0.51273 0.55016 0.20688 0.0
H533 H 0.55843 0.643 0.19741 0.0
H534 H 0.54023 0.65617 0.24028 0.0
H535 H 0.43394 0.57066 0.24563 0.0
H536 H 0.43808 0.53717 0.26552 0.0
H537 H 0.45366 0.53498 0.23377 0.0
H538 H 0.51972 0.51748 0.24843 0.0
H539 H 0.50434 0.51956 0.28023 0.0
H540 H 0.54517 0.54114 0.27037 0.0
H541 H 0.51453 0.66042 0.28289 0.0
H542 H 0.48826 0.65401 0.32491 0.0
H543 H 0.46398 0.55709 0.30906 0.0
C544 C 0.51876 0.57324 0.21391 0.0
C545 C 0.53676 0.59568 0.19887 0.0
C546 C 0.54473 0.6255 0.20869 0.0
C547 C 0.53439 0.63323 0.23297 0.0
C548 C 0.51671 0.61068 0.24735 0.0
C549 C 0.50942 0.58114 0.23842 0.0
C550 C 0.4914 0.56103 0.25829 0.0
C551 C 0.45192 0.55034 0.25032 0.0
C552 C 0.51667 0.53316 0.26471 0.0
C553 C 0.4894 0.58403 0.27963 0.0
C554 C 0.50375 0.61262 0.27271 0.0
C555 C 0.50358 0.63808 0.28866 0.0
C556 C 0.4885 0.63424 0.31244 0.0
C557 C 0.47442 0.60504 0.32021 0.0
C558 C 0.47504 0.57955 0.30363 0.0
H559 H 0.9863 0.42704 0.30544 0.0
H560 H 0.10436 0.45054 0.29752 0.0
H561 H 0.09543 0.45763 0.25242 0.0
H562 H 0.98138 0.38153 0.25055 0.0
H563 H 0.9341 0.39315 0.24282 0.0
H564 H 0.94904 0.39285 0.2747 0.0
H565 H 0.92995 0.4508 0.27903 0.0
H566 H 0.91509 0.45131 0.2471 0.0
H567 H 0.94934 0.47909 0.25794 0.0
H568 H 0.07382 0.46141 0.20813 0.0
H569 H 0.04265 0.45634 0.16732 0.0
H570 H 0.93981 0.4271 0.20388 0.0
C571 C 0.01009 0.43406 0.29421 0.0
C572 C 0.04592 0.43855 0.30487 0.0
C573 C 0.07666 0.44706 0.28962 0.0
C574 C 0.07182 0.45129 0.26405 0.0
C575 C 0.03615 0.44657 0.25403 0.0
C576 C 0.00591 0.43778 0.26858 0.0
C577 C 0.97128 0.43181 0.25295 0.0
C578 C 0.9582 0.39782 0.2554 0.0
C579 C 0.93954 0.45462 0.25966 0.0
C580 C 0.98686 0.43836 0.22734 0.0
C581 C 0.02414 0.44737 0.2284 0.0
C582 C 0.04462 0.4544 0.20706 0.0
C583 C 0.02669 0.45156 0.184 0.0
C584 C 0.98892 0.4413 0.18251 0.0
C585 C 0.96874 0.435 0.2045 0.0
H586 H 0.53532 0.40701 0.71559 0.0
H587 H 0.48085 0.49188 0.69114 0.0
H588 H 0.46402 0.50413 0.73466 0.0
H589 H 0.46692 0.38729 0.76111 0.0
H590 H 0.50077 0.37134 0.78248 0.0
H591 H 0.51015 0.37065 0.7497 0.0
H592 H 0.57305 0.39969 0.75725 0.0
H593 H 0.5636 0.40081 0.79007 0.0
H594 H 0.57275 0.43639 0.77347 0.0
H595 H 0.4525 0.50646 0.7811 0.0
H596 H 0.44129 0.49597 0.82561 0.0
H597 H 0.50204 0.40884 0.81895 0.0
C598 C 0.52 0.42827 0.71939 0.0
C599 C 0.50951 0.4486 0.70005 0.0
C600 C 0.4891 0.47598 0.70572 0.0
C601 C 0.47966 0.48321 0.73038 0.0
C602 C 0.49071 0.46273 0.74907 0.0
C603 C 0.51008 0.43564 0.74378 0.0
C604 C 0.51675 0.41656 0.76693 0.0
C605 C 0.49749 0.38458 0.76493 0.0
C606 C 0.55906 0.41318 0.77224 0.0
C607 C 0.4978 0.43696 0.7861 0.0
C608 C 0.48342 0.46372 0.77554 0.0
C609 C 0.46379 0.48565 0.78957 0.0
C610 C 0.45775 0.47958 0.81486 0.0
C611 C 0.47095 0.45167 0.82574 0.0
C612 C 0.4919 0.43051 0.81121 0.0
H613 H 0.99068 0.61439 0.80124 0.0
H614 H 0.03197 0.52015 0.81049 0.0
H615 H 0.01918 0.50945 0.7662 0.0
H616 H 0.91508 0.59504 0.75845 0.0
H617 H 0.92109 0.63021 0.7407 0.0
H618 H 0.9326 0.62978 0.77322 0.0
H619 H 0.99985 0.64926 0.76294 0.0
H620 H 0.98869 0.64944 0.73038 0.0
H621 H 0.02852 0.62754 0.74144 0.0
H622 H 0.00527 0.51034 0.72002 0.0
H623 H 0.98611 0.52139 0.67672 0.0
H624 H 0.95228 0.6144 0.69865 0.0
C625 C 0.99666 0.59139 0.79401 0.0
C626 C 0.01228 0.56808 0.80925 0.0
C627 C 0.01979 0.53829 0.79913 0.0
C628 C 0.01278 0.53205 0.77399 0.0
C629 C 0.99796 0.55576 0.75934 0.0
C630 C 0.98954 0.58471 0.76908 0.0
C631 C 0.97378 0.60621 0.74949 0.0
C632 C 0.93323 0.61586 0.75585 0.0
C633 C 0.99924 0.63479 0.74586 0.0
C634 C 0.97494 0.58496 0.72714 0.0
C635 C 0.98919 0.55602 0.73309 0.0
C636 C 0.99378 0.53284 0.7152 0.0
C637 C 0.98302 0.53935 0.69068 0.0
C638 C 0.96761 0.56866 0.68442 0.0
C639 C 0.96375 0.59169 0.70293 0.0
H640 H 0.99831 0.17723 0.11668 0.0
H641 H 0.11853 0.1912 0.10787 0.0
H642 H 0.10819 0.24792 0.10463 0.0
H643 H 0.96818 0.23709 0.07426 0.0
H644 H 0.9286 0.24877 0.093 0.0
H645 H 0.94531 0.20924 0.0942 0.0
H646 H 0.95343 0.21373 0.14181 0.0
H647 H 0.93666 0.25324 0.14077 0.0
H648 H 0.98176 0.24472 0.15444 0.0
H649 H 0.08491 0.30286 0.10249 0.0
H650 H 0.05071 0.35272 0.10285 0.0
H651 H 0.94538 0.30337 0.11363 0.0
C652 C 0.02247 0.19222 0.114 0.0
C653 C 0.05926 0.17983 0.11245 0.0
C654 C 0.09013 0.20021 0.1091 0.0
C655 C 0.08451 0.23243 0.10719 0.0
C656 C 0.04788 0.24387 0.10877 0.0
C657 C 0.01738 0.22443 0.11219 0.0
C658 C 0.98099 0.24278 0.11379 0.0
C659 C 0.9542 0.23394 0.09254 0.0
C660 C 0.96211 0.23835 0.13922 0.0
C661 C 0.9958 0.27561 0.11074 0.0
C662 C 0.03445 0.27565 0.10778 0.0
C663 C 0.05466 0.30312 0.10478 0.0
C664 C 0.03493 0.33133 0.10499 0.0
C665 C 0.99535 0.33195 0.10824 0.0
C666 C 0.97559 0.30364 0.11103 0.0
H667 H 0.445 0.80133 0.11103 0.0
H668 H 0.55115 0.84657 0.0944 0.0
H669 H 0.58148 0.79519 0.08967 0.0
H670 H 0.48313 0.74238 0.14811 0.0
H671 H 0.45111 0.71243 0.138 0.0
H672 H 0.43675 0.75256 0.13728 0.0
H673 H 0.4213 0.74765 0.09048 0.0
H674 H 0.43551 0.70741 0.09107 0.0
H675 H 0.45695 0.73389 0.06935 0.0
H676 H 0.60143 0.73899 0.09008 0.0
H677 H 0.60941 0.68231 0.09594 0.0
H678 H 0.49043 0.67381 0.1127 0.0
C679 C 0.47441 0.8004 0.10586 0.0
C680 C 0.49567 0.82791 0.10286 0.0
C681 C 0.5343 0.82575 0.09664 0.0
C682 C 0.55176 0.79668 0.09388 0.0
C683 C 0.53021 0.76997 0.09741 0.0
C684 C 0.49235 0.77155 0.10321 0.0
C685 C 0.47616 0.73945 0.10774 0.0
C686 C 0.4609 0.73655 0.13436 0.0
C687 C 0.44567 0.73164 0.08851 0.0
C688 C 0.51094 0.71962 0.104 0.0
C689 C 0.54177 0.73762 0.09785 0.0
C690 C 0.57739 0.72462 0.09461 0.0
C691 C 0.58168 0.69242 0.09799 0.0
C692 C 0.55054 0.67363 0.10463 0.0
C693 C 0.5147 0.68749 0.10736 0.0
H694 H 0.52045 0.68795 0.40289 0.0
H695 H 0.40607 0.7013 0.42897 0.0
H696 H 0.419 0.7572 0.43532 0.0
H697 H 0.56572 0.74555 0.44434 0.0
H698 H 0.59807 0.75818 0.42064 0.0
H699 H 0.58114 0.71865 0.42076 0.0
H700 H 0.55747 0.72527 0.37564 0.0
H701 H 0.57421 0.76476 0.37539 0.0
H702 H 0.52561 0.7566 0.36841 0.0
H703 H 0.44218 0.81222 0.43485 0.0
H704 H 0.47415 0.86249 0.42794 0.0
H705 H 0.57384 0.81368 0.40257 0.0
C706 C 0.49839 0.70251 0.41047 0.0
C707 C 0.46231 0.69024 0.41563 0.0
C708 C 0.43396 0.71017 0.42503 0.0
C709 C 0.44107 0.74194 0.42873 0.0
C710 C 0.47671 0.75343 0.42301 0.0
C711 C 0.50499 0.73432 0.4142 0.0
C712 C 0.53998 0.7529 0.40786 0.0
C713 C 0.57319 0.74324 0.42439 0.0
C714 C 0.54988 0.74969 0.38019 0.0
C715 C 0.5267 0.78552 0.41401 0.0
C716 C 0.4902 0.78526 0.42287 0.0
C717 C 0.47096 0.81268 0.42829 0.0
C718 C 0.48933 0.84111 0.42428 0.0
C719 C 0.52658 0.84196 0.41498 0.0
C720 C 0.54563 0.81373 0.41016 0.0
H721 H 0.99216 0.33066 0.38035 0.0
H722 H 0.11031 0.32246 0.39959 0.0
H723 H 0.103 0.26544 0.40308 0.0
H724 H 0.95814 0.26995 0.42154 0.0
H725 H 0.92311 0.25627 0.39997 0.0
H726 H 0.93733 0.2965 0.39962 0.0
H727 H 0.95429 0.29183 0.35304 0.0
H728 H 0.94016 0.2516 0.35325 0.0
H729 H 0.98679 0.26212 0.34311 0.0
H730 H 0.08357 0.20958 0.40306 0.0
H731 H 0.05344 0.15816 0.40012 0.0
H732 H 0.94722 0.20208 0.38137 0.0
C733 C 0.01646 0.31688 0.38543 0.0
C734 C 0.05187 0.33099 0.38972 0.0
C735 C 0.08297 0.31216 0.39626 0.0
C736 C 0.07906 0.27977 0.39829 0.0
C737 C 0.04384 0.26661 0.39381 0.0
C738 C 0.01303 0.28453 0.3876 0.0
C739 C 0.97846 0.26445 0.38337 0.0
C740 C 0.94743 0.27226 0.40226 0.0
C741 C 0.96409 0.2677 0.3566 0.0
C742 C 0.99473 0.23237 0.38798 0.0
C743 C 0.03249 0.23425 0.394 0.0
C744 C 0.054 0.20783 0.3985 0.0
C745 C 0.03657 0.1787 0.39672 0.0
C746 C 0.99792 0.17606 0.39056 0.0
C747 C 0.97671 0.20335 0.38628 0.0
H748 H 0.97614 0.68522 0.88691 0.0
H749 H 0.09595 0.69415 0.90077 0.0
H750 H 0.08811 0.75073 0.90673 0.0
H751 H 0.9669 0.75448 0.85177 0.0
H752 H 0.92112 0.76453 0.86374 0.0
H753 H 0.93547 0.72441 0.86245 0.0
H754 H 0.92243 0.7188 0.9095 0.0
H755 H 0.9081 0.75899 0.91095 0.0
H756 H 0.94494 0.74499 0.931 0.0
H757 H 0.06835 0.80609 0.90906 0.0
H758 H 0.03848 0.85758 0.90623 0.0
H759 H 0.93095 0.8139 0.89058 0.0
C760 C 1.00064 0.69906 0.8915 0.0
C761 C 0.03669 0.68527 0.89351 0.0
C762 C 0.06811 0.7042 0.89919 0.0
C763 C 0.0639 0.73634 0.90269 0.0
C764 C 0.02808 0.74922 0.90044 0.0
C765 C 0.99696 0.73127 0.89492 0.0
C766 C 0.96199 0.75132 0.89224 0.0
C767 C 0.94541 0.74851 0.86599 0.0
C768 C 0.93263 0.74303 0.91211 0.0
C769 C 0.97846 0.78341 0.89673 0.0
C770 C 0.01658 0.7815 0.90164 0.0
C771 C 0.03848 0.80788 0.90542 0.0
C772 C 0.02121 0.83705 0.90374 0.0
C773 C 0.98234 0.83978 0.89829 0.0
C774 C 0.96057 0.81252 0.89512 0.0
H775 H 0.50025 0.3286 0.89625 0.0
H776 H 0.37962 0.31301 0.89569 0.0
H777 H 0.39051 0.25618 0.89672 0.0
H778 H 0.52408 0.26506 0.85635 0.0
H779 H 0.56693 0.25564 0.87254 0.0
H780 H 0.54959 0.29499 0.87267 0.0
H781 H 0.54994 0.29508 0.92071 0.0
H782 H 0.56727 0.2557 0.92074 0.0
H783 H 0.52468 0.26522 0.93725 0.0
H784 H 0.41462 0.20117 0.8973 0.0
H785 H 0.44995 0.15179 0.89641 0.0
H786 H 0.5551 0.20316 0.89591 0.0
C787 C 0.4761 0.31324 0.89649 0.0
C788 C 0.43903 0.3252 0.89599 0.0
C789 C 0.40822 0.30434 0.89611 0.0
C790 C 0.41414 0.27205 0.89672 0.0
C791 C 0.45105 0.26104 0.89713 0.0
C792 C 0.48152 0.28099 0.89696 0.0
C793 C 0.51834 0.26317 0.89683 0.0
C794 C 0.54106 0.27013 0.87319 0.0
C795 C 0.54141 0.27021 0.92028 0.0
C796 C 0.50385 0.23002 0.8969 0.0
C797 C 0.46495 0.22934 0.89718 0.0
C798 C 0.44506 0.20143 0.89711 0.0
C799 C 0.46542 0.1735 0.89662 0.0
C800 C 0.50529 0.1736 0.89611 0.0
C801 C 0.52466 0.20231 0.89635 0.0
H802 H 0.51298 0.18512 0.6239 0.0
H803 H 0.39166 0.19281 0.61699 0.0
H804 H 0.39722 0.25004 0.61588 0.0
H805 H 0.52516 0.2511 0.66404 0.0
H806 H 0.56893 0.26321 0.65018 0.0
H807 H 0.55569 0.22277 0.64976 0.0
H808 H 0.56254 0.22186 0.60194 0.0
H809 H 0.57578 0.26231 0.60221 0.0
H810 H 0.53669 0.24953 0.58351 0.0
H811 H 0.41551 0.306 0.61583 0.0
H812 H 0.44502 0.35772 0.61775 0.0
H813 H 0.55493 0.31466 0.62526 0.0
C814 C 0.48761 0.19886 0.62206 0.0
C815 C 0.45183 0.1845 0.62046 0.0
C816 C 0.41931 0.20328 0.61822 0.0
C817 C 0.4222 0.23581 0.61754 0.0
C818 C 0.45782 0.24922 0.61919 0.0
C819 C 0.48997 0.23143 0.62146 0.0
C820 C 0.52474 0.25185 0.62338 0.0
C821 C 0.5448 0.24694 0.64833 0.0
C822 C 0.55151 0.24604 0.60145 0.0
C823 C 0.50705 0.28393 0.6219 0.0
C824 C 0.46842 0.28175 0.61939 0.0
C825 C 0.44571 0.30801 0.61777 0.0
C826 C 0.46282 0.33732 0.61888 0.0
C827 C 0.50232 0.3403 0.62165 0.0
C828 C 0.5247 0.31315 0.62309 0.0
H829 H 0.06863 0.80185 0.62229 0.0
H830 H 0.99179 0.84559 0.57039 0.0
H831 H 0.9598 0.79542 0.56397 0.0
H832 H 0.07526 0.72678 0.5889 0.0
H833 H 0.07702 0.70442 0.61713 0.0
H834 H 0.09568 0.7434 0.61649 0.0
H835 H 0.05247 0.75845 0.6533 0.0
H836 H 0.03349 0.71963 0.65393 0.0
H837 H 0.00241 0.75251 0.65074 0.0
H838 H 0.93192 0.74237 0.56633 0.0
H839 H 0.9133 0.68799 0.57458 0.0
H840 H 0.00969 0.67707 0.62311 0.0
C841 C 0.04552 0.80069 0.60925 0.0
C842 C 0.03275 0.82765 0.59682 0.0
C843 C 0.00218 0.82526 0.58007 0.0
C844 C 0.98375 0.79686 0.57631 0.0
C845 C 0.99644 0.77089 0.58921 0.0
C846 C 0.02694 0.77234 0.60507 0.0
C847 C 0.03414 0.74097 0.61706 0.0
C848 C 0.07282 0.72813 0.60943 0.0
C849 C 0.03039 0.74303 0.64543 0.0
C850 C 0.00247 0.72194 0.60582 0.0
C851 C 0.98101 0.73975 0.58988 0.0
C852 C 0.94885 0.72801 0.57844 0.0
C853 C 0.93839 0.69717 0.58331 0.0
C854 C 0.96026 0.67832 0.59925 0.0
C855 C 0.99284 0.69086 0.61051 0.0
H856 H 0.95634 0.96203 0.96888 0.0
H857 H 0.02996 0.00566 0.91488 0.0
H858 H 0.05565 0.03972 0.94768 0.0
H859 H 0.93554 0.03129 0.00408 0.0
H860 H 0.9357 0.01158 0.03357 0.0
H861 H 0.92275 0.99076 0.00585 0.0
H862 H 0.97427 0.94959 0.0147 0.0
H863 H 0.98717 0.97013 0.04253 0.0
H864 H 0.02223 0.96202 0.01924 0.0
H865 H 0.07393 0.0683 0.98621 0.0
H866 H 0.0854 0.08846 0.02838 0.0
H867 H 0.99939 0.02668 0.05737 0.0
C868 C 0.97791 0.97872 0.96397 0.0
C869 C 0.99122 0.98123 0.93936 0.0
C870 C 0.01943 1.00334 0.93364 0.0
C871 C 0.03409 0.02284 0.95211 0.0
C872 C 0.02015 0.01993 0.97615 0.0
C873 C 0.99281 0.99837 0.98216 0.0
C874 C 0.9832 0.99962 0.00952 0.0
C875 C 0.94184 0.00887 0.01348 0.0
C876 C 0.99228 0.96849 0.02224 0.0
C877 C 0.00961 0.02513 0.01799 0.0
C878 C 0.03055 0.03659 0.9984 0.0
C879 C 0.0576 0.05964 1.00168 0.0
C880 C 0.06388 0.07094 0.02568 0.0
C881 C 0.04316 0.05922 0.04608 0.0
C882 C 0.01533 0.03631 0.04208 0.0
H883 H 0.49893 0.01782 0.94878 0.0
H884 H 0.57693 0.08578 0.97889 0.0
H885 H 0.56766 0.064 0.02071 0.0
H886 H 0.43436 0.01805 1.00091 0.0
H887 H 0.42523 0.97687 0.99912 0.0
H888 H 0.43742 0.99819 0.97152 0.0
H889 H 0.49273 0.96023 0.9634 0.0
H890 H 0.48079 0.93886 0.99101 0.0
H891 H 0.5276 0.95428 0.9872 0.0
H892 H 0.55127 0.03424 0.0591 0.0
H893 H 0.52748 0.99899 0.09172 0.0
H894 H 0.45994 0.95054 0.03687 0.0
C895 C 0.51387 0.0282 0.96421 0.0
C896 C 0.53862 0.0535 0.9606 0.0
C897 C 0.55778 0.0664 0.98122 0.0
C898 C 0.55274 0.05419 0.00506 0.0
C899 C 0.52839 0.02911 0.00799 0.0
C900 C 0.50914 0.0163 0.98818 0.0
C901 C 0.48487 0.98925 0.99644 0.0
C902 C 0.44299 0.99601 0.99172 0.0
C903 C 0.49725 0.95886 0.98376 0.0
C904 C 0.49365 0.98882 0.02392 0.0
C905 C 0.51882 0.012 0.0302 0.0
C906 C 0.53145 0.01604 0.05445 0.0
C907 C 0.51785 0.9959 0.07283 0.0
C908 C 0.4919 0.97208 0.06682 0.0
C909 C 0.47974 0.96857 0.04202 0.0
H910 H 0.52068 0.03244 0.56304 0.0
H911 H 0.43436 0.09347 0.53361 0.0
H912 H 0.44756 0.07418 0.49137 0.0
H913 H 0.58604 0.0383 0.51035 0.0
H914 H 0.59928 0.99789 0.51218 0.0
H915 H 0.5853 0.0185 0.5398 0.0
H916 H 0.5342 0.97683 0.54827 0.0
H917 H 0.54782 0.95623 0.52062 0.0
H918 H 0.49969 0.96842 0.52471 0.0
H919 H 0.46715 0.04592 0.45276 0.0
H920 H 0.49257 0.01101 0.42037 0.0
H921 H 0.56558 0.968 0.47496 0.0
C922 C 0.5051 0.04216 0.54764 0.0
C923 C 0.47668 0.06459 0.55154 0.0
C924 C 0.45637 0.07635 0.53099 0.0
C925 C 0.46366 0.06556 0.50694 0.0
C926 C 0.49134 0.04299 0.50374 0.0
C927 C 0.51187 0.0315 0.52349 0.0
C928 C 0.53866 0.00616 0.51516 0.0
C929 C 0.57976 0.0158 0.51963 0.0
C930 C 0.52953 0.97507 0.52795 0.0
C931 C 0.52964 1.00496 0.48773 0.0
C932 C 0.50242 0.0265 0.48149 0.0
C933 C 0.4887 0.02912 0.45737 0.0
C934 C 0.50323 0.00917 0.43912 0.0
C935 C 0.53106 0.98688 0.44515 0.0
C936 C 0.54444 0.98492 0.46977 0.0
H937 H 0.06432 0.9564 0.53144 0.0
H938 H 1.00097 0.00774 0.58684 0.0
H939 H 0.97824 0.04358 0.55438 0.0
H940 H 0.09163 0.02321 0.494 0.0
H941 H 0.08658 1.00253 0.46511 0.0
H942 H 0.0993 0.98178 0.49288 0.0
H943 H 0.04243 0.94481 0.48676 0.0
H944 H 0.02956 0.96541 0.45899 0.0
H945 H 0.99587 0.961 0.48373 0.0
H946 H 0.96009 0.07216 0.51584 0.0
H947 H 0.9475 0.09168 0.47365 0.0
H948 H 0.02313 0.0221 0.44327 0.0
C949 C 0.04592 0.97534 0.53677 0.0
C950 C 0.03442 0.97937 0.56164 0.0
C951 C 0.01014 1.00428 0.56788 0.0
C952 C 0.99715 0.02478 0.54959 0.0
C953 C 0.00883 0.02005 0.52522 0.0
C954 C 0.0327 0.99601 0.51876 0.0
C955 C 0.04 0.99549 0.49109 0.0
C956 C 0.08187 1.00109 0.48545 0.0
C957 C 0.02612 0.96486 0.47947 0.0
C958 C 0.01612 0.02278 0.48296 0.0
C959 C 0.9985 0.03668 0.50296 0.0
C960 C 0.97395 0.06164 0.50005 0.0
C961 C 0.96696 0.07253 0.47602 0.0
C962 C 0.98449 0.05848 0.45525 0.0
C963 C 0.00966 0.03349 0.45884 0.0
H964 H 0.54599 0.54968 0.03849 0.0
H965 H 0.46862 0.51091 0.09256 0.0
H966 H 0.43958 0.47877 0.05975 0.0
H967 H 0.4792 0.55351 0.98774 0.0
H968 H 0.51354 0.54328 0.96451 0.0
H969 H 0.52802 0.56344 0.9922 0.0
H970 H 0.57628 0.51978 1.00136 0.0
H971 H 0.56178 0.49938 0.97379 0.0
H972 H 0.56041 0.48003 1.00341 0.0
H973 H 0.42034 0.44983 0.0217 0.0
H974 H 0.40926 0.42783 0.98018 0.0
H975 H 0.49815 0.486 0.95014 0.0
C976 C 0.52281 0.53454 0.04339 0.0
C977 C 0.50953 0.53274 0.06808 0.0
C978 C 0.47915 0.51269 0.07377 0.0
C979 C 0.46257 0.49429 0.05528 0.0
C980 C 0.47656 0.49637 0.03119 0.0
C981 C 0.50577 0.51615 0.02512 0.0
C982 C 0.51526 0.51406 0.99773 0.0
C983 C 0.50859 0.54544 0.98478 0.0
C984 C 0.55584 0.50263 0.99386 0.0
C985 C 0.48692 0.48987 0.98938 0.0
C986 C 0.46504 0.47994 0.00905 0.0
C987 C 0.43718 0.45751 0.00614 0.0
C988 C 0.43119 0.4451 0.98246 0.0
C989 C 0.45283 0.45521 0.9619 0.0
C990 C 0.48119 0.47782 0.96549 0.0
H991 H 0.99771 0.49216 0.05467 0.0
H992 H 0.91659 0.42576 0.02603 0.0
H993 H 0.92213 0.44935 0.98446 0.0
H994 H 0.96746 0.55788 0.01814 0.0
H995 H 0.01449 0.57231 0.01321 0.0
H996 H 0.00357 0.55066 0.04088 0.0
H997 H 0.05705 0.51165 0.0308 0.0
H998 H 0.06823 0.53325 1.00318 0.0
H999 H 0.05759 0.49233 1.00111 0.0
H1000 H 0.9367 0.47995 0.94596 0.0
H1001 H 0.96148 0.51402 0.91285 0.0
H1002 H 0.03365 0.55994 0.96649 0.0
C1003 C 0.98107 0.48264 0.03966 0.0
C1004 C 0.95667 0.45718 0.04356 0.0
C1005 C 0.9355 0.44525 0.02343 0.0
C1006 C 0.93836 0.45854 0.99978 0.0
C1007 C 0.9626 0.48367 0.99655 0.0
C1008 C 0.98373 0.49552 0.01589 0.0
C1009 C 0.00838 0.52216 0.00731 0.0
C1010 C 0.99783 0.55255 0.02068 0.0
C1011 C 0.05029 0.51437 0.01081 0.0
C1012 C 0.99788 0.52336 0.98012 0.0
C1013 C 0.97127 0.5011 0.97432 0.0
C1014 C 0.95751 0.49752 0.95029 0.0
C1015 C 0.97168 0.51699 0.93162 0.0
C1016 C 0.9994 0.53962 0.93712 0.0
C1017 C 0.01236 0.54292 0.96174 0.0
H1018 H 0.99817 0.52025 0.55555 0.0
H1019 H 0.89985 0.56892 0.52772 0.0
H1020 H 0.90877 0.54457 0.48681 0.0
H1021 H 0.05325 0.52707 0.49987 0.0
H1022 H 0.0741 0.48901 0.50258 0.0
H1023 H 0.05962 0.50973 0.53 0.0
H1024 H 0.01794 0.46299 0.54288 0.0
H1025 H 0.03215 0.44219 0.51541 0.0
H1026 H 0.98291 0.44852 0.52164 0.0
H1027 H 0.9284 0.51595 0.44883 0.0
H1028 H 0.95903 0.48569 0.41554 0.0
H1029 H 0.04461 0.45515 0.46752 0.0
C1030 C 0.97856 0.52572 0.54083 0.0
C1031 C 0.9483 0.54646 0.54483 0.0
C1032 C 0.92324 0.5531 0.52511 0.0
C1033 C 0.92799 0.53934 0.50179 0.0
C1034 C 0.95794 0.51894 0.49844 0.0
C1035 C 0.9829 0.51216 0.51734 0.0
C1036 C 0.01313 0.48984 0.50852 0.0
C1037 C 0.05234 0.50482 0.51035 0.0
C1038 C 0.01141 0.45906 0.52297 0.0
C1039 C 1.00131 0.48536 0.48174 0.0
C1040 C 0.9693 0.50228 0.47639 0.0
C1041 C 0.95341 0.50248 0.45278 0.0
C1042 C 0.97097 0.48521 0.43402 0.0
C1043 C 0.00406 0.46799 0.43897 0.0
C1044 C 0.01914 0.46788 0.46323 0.0
H1045 H 0.47913 0.49458 0.56687 0.0
H1046 H 0.57215 0.43792 0.54072 0.0
H1047 H 0.56578 0.46088 0.49904 0.0
H1048 H 0.42362 0.49003 0.5105 0.0
H1049 H 0.40728 0.52962 0.51275 0.0
H1050 H 0.41869 0.50824 0.54045 0.0
H1051 H 0.46536 0.55165 0.5534 0.0
H1052 H 0.45423 0.57307 0.52568 0.0
H1053 H 0.50237 0.56292 0.53237 0.0
H1054 H 0.55052 0.49095 0.46042 0.0
H1055 H 0.52577 0.52488 0.42722 0.0
H1056 H 0.44249 0.56168 0.47831 0.0
C1057 C 0.49796 0.48686 0.55232 0.0
C1058 C 0.5261 0.46443 0.55704 0.0
C1059 C 0.55033 0.45504 0.53753 0.0
C1060 C 0.54698 0.46797 0.51379 0.0
C1061 C 0.51921 0.49024 0.5098 0.0
C1062 C 0.49498 0.49952 0.52846 0.0
C1063 C 0.46772 0.52401 0.51926 0.0
C1064 C 0.42691 0.51226 0.52083 0.0
C1065 C 0.47274 0.55473 0.53352 0.0
C1066 C 0.48053 0.52711 0.49257 0.0
C1067 C 0.51031 0.50746 0.48749 0.0
C1068 C 0.52713 0.50638 0.46415 0.0
C1069 C 0.51296 0.52576 0.44543 0.0
C1070 C 0.48225 0.54588 0.45018 0.0
C1071 C 0.466 0.54653 0.47411 0.0
loop_
_geom_bond_atom_site_label_1
_geom_bond_atom_site_label_2
_geom_bond_distance
_geom_bond_site_symmetry_2
_ccdc_geom_bond_type
In0 O1 2.294 . S
In0 O2 2.326 . S
In0 O6 2.266 . S
In0 O7 2.326 . S
In0 O8 2.266 . S
In0 O9 2.326 . S
In0 O11 2.294 . S
In0 O12 2.326 . S
O1 In0 2.294 . S
O1 C10 1.240 . S
O2 In0 2.326 . S
O2 C10 1.252 . S
C3 O6 1.252 . S
C3 O7 1.260 . S
C4 O11 1.240 . S
C4 O12 1.252 . S
C5 O8 1.252 . S
C5 O9 1.260 . S
O6 In0 2.266 . S
O6 C3 1.252 . S
O7 In0 2.326 . S
O7 C3 1.260 . S
O8 In0 2.266 . S
O8 C5 1.252 . S
O9 In0 2.326 . S
O9 C5 1.260 . S
C10 O1 1.240 . S
C10 O2 1.252 . S
O11 In0 2.294 . S
O11 C4 1.240 . S
O12 In0 2.326 . S
O12 C4 1.252 . S
In13 O14 2.294 . S
In13 O15 2.326 . S
In13 O19 2.266 . S
In13 O20 2.326 . S
In13 O21 2.266 . S
In13 O22 2.326 . S
In13 O24 2.294 . S
In13 O25 2.326 . S
O14 In13 2.294 . S
O14 C23 1.240 . S
O15 In13 2.326 . S
O15 C23 1.252 . S
C16 O19 1.252 . S
C16 O20 1.260 . S
C17 O24 1.240 . S
C17 O25 1.252 . S
C18 O21 1.252 . S
C18 O22 1.260 . S
O19 In13 2.266 . S
O19 C16 1.252 . S
O20 In13 2.326 . S
O20 C16 1.260 . S
O21 In13 2.266 . S
O21 C18 1.252 . S
O22 In13 2.326 . S
O22 C18 1.260 . S
C23 O14 1.240 . S
C23 O15 1.252 . S
O24 In13 2.294 . S
O24 C17 1.240 . S
O25 In13 2.326 . S
O25 C17 1.252 . S
In26 O27 2.294 . S
In26 O28 2.326 . S
In26 O32 2.266 . S
In26 O33 2.326 . S
In26 O34 2.266 . S
In26 O35 2.326 . S
In26 O37 2.294 . S
In26 O38 2.326 . S
O27 In26 2.294 . S
O27 C36 1.240 . S
O28 In26 2.326 . S
O28 C36 1.252 . S
C29 O32 1.252 . S
C29 O33 1.260 . S
C30 O37 1.240 . S
C30 O38 1.252 . S
C31 O34 1.252 . S
C31 O35 1.260 . S
O32 In26 2.266 . S
O32 C29 1.252 . S
O33 In26 2.326 . S
O33 C29 1.260 . S
O34 In26 2.266 . S
O34 C31 1.252 . S
O35 In26 2.326 . S
O35 C31 1.260 . S
C36 O27 1.240 . S
C36 O28 1.252 . S
O37 In26 2.294 . S
O37 C30 1.240 . S
O38 In26 2.326 . S
O38 C30 1.252 . S
In39 O40 2.294 . S
In39 O41 2.326 . S
In39 O45 2.266 . S
In39 O46 2.326 . S
In39 O47 2.266 . S
In39 O48 2.326 . S
In39 O50 2.294 . S
In39 O51 2.326 . S
O40 In39 2.294 . S
O40 C49 1.240 . S
O41 In39 2.326 . S
O41 C49 1.252 . S
C42 O45 1.252 . S
C42 O46 1.260 . S
C43 O50 1.240 . S
C43 O51 1.252 . S
C44 O47 1.252 . S
C44 O48 1.260 . S
O45 In39 2.266 . S
O45 C42 1.252 . S
O46 In39 2.326 . S
O46 C42 1.260 . S
O47 In39 2.266 . S
O47 C44 1.252 . S
O48 In39 2.326 . S
O48 C44 1.260 . S
C49 O40 1.240 . S
C49 O41 1.252 . S
O50 In39 2.294 . S
O50 C43 1.240 . S
O51 In39 2.326 . S
O51 C43 1.252 . S
In52 O53 2.294 . S
In52 O54 2.326 . S
In52 O58 2.266 . S
In52 O59 2.326 . S
In52 O60 2.266 . S
In52 O61 2.326 . S
In52 O63 2.294 . S
In52 O64 2.326 . S
O53 In52 2.294 . S
O53 C62 1.240 . S
O54 In52 2.326 . S
O54 C62 1.252 . S
C55 O58 1.252 . S
C55 O59 1.260 . S
C56 O63 1.240 . S
C56 O64 1.252 . S
C57 O60 1.252 . S
C57 O61 1.260 . S
O58 In52 2.266 . S
O58 C55 1.252 . S
O59 In52 2.326 . S
O59 C55 1.260 . S
O60 In52 2.266 . S
O60 C57 1.252 . S
O61 In52 2.326 . S
O61 C57 1.260 . S
C62 O53 1.240 . S
C62 O54 1.252 . S
O63 In52 2.294 . S
O63 C56 1.240 . S
O64 In52 2.326 . S
O64 C56 1.252 . S
In65 O66 2.294 . S
In65 O67 2.326 . S
In65 O71 2.266 . S
In65 O72 2.326 . S
In65 O73 2.266 . S
In65 O74 2.326 . S
In65 O76 2.294 . S
In65 O77 2.326 . S
O66 In65 2.294 . S
O66 C75 1.240 . S
O67 In65 2.326 . S
O67 C75 1.252 . S
C68 O71 1.252 . S
C68 O72 1.260 . S
C69 O76 1.240 . S
C69 O77 1.252 . S
C70 O73 1.252 . S
C70 O74 1.260 . S
O71 In65 2.266 . S
O71 C68 1.252 . S
O72 In65 2.326 . S
O72 C68 1.260 . S
O73 In65 2.266 . S
O73 C70 1.252 . S
O74 In65 2.326 . S
O74 C70 1.260 . S
C75 O66 1.240 . S
C75 O67 1.252 . S
O76 In65 2.294 . S
O76 C69 1.240 . S
O77 In65 2.326 . S
O77 C69 1.252 . S
In78 O79 2.294 . S
In78 O80 2.326 . S
In78 O84 2.266 . S
In78 O85 2.326 . S
In78 O86 2.266 . S
In78 O87 2.326 . S
In78 O89 2.294 . S
In78 O90 2.326 . S
O79 In78 2.294 . S
O79 C88 1.240 . S
O80 In78 2.326 . S
O80 C88 1.252 . S
C81 O84 1.252 . S
C81 O85 1.260 . S
C82 O89 1.240 . S
C82 O90 1.252 . S
C83 O86 1.252 . S
C83 O87 1.260 . S
O84 In78 2.266 . S
O84 C81 1.252 . S
O85 In78 2.326 . S
O85 C81 1.260 . S
O86 In78 2.266 . S
O86 C83 1.252 . S
O87 In78 2.326 . S
O87 C83 1.260 . S
C88 O79 1.240 . S
C88 O80 1.252 . S
O89 In78 2.294 . S
O89 C82 1.240 . S
O90 In78 2.326 . S
O90 C82 1.252 . S
In91 O92 2.294 . S
In91 O93 2.326 . S
In91 O97 2.266 . S
In91 O98 2.326 . S
In91 O99 2.266 . S
In91 O100 2.326 . S
In91 O102 2.294 . S
In91 O103 2.326 . S
O92 In91 2.294 . S
O92 C101 1.240 . S
O93 In91 2.326 . S
O93 C101 1.252 . S
C94 O97 1.252 . S
C94 O98 1.260 . S
C95 O102 1.240 . S
C95 O103 1.252 . S
C96 O99 1.252 . S
C96 O100 1.260 . S
O97 In91 2.266 . S
O97 C94 1.252 . S
O98 In91 2.326 . S
O98 C94 1.260 . S
O99 In91 2.266 . S
O99 C96 1.252 . S
O100 In91 2.326 . S
O100 C96 1.260 . S
C101 O92 1.240 . S
C101 O93 1.252 . S
O102 In91 2.294 . S
O102 C95 1.240 . S
O103 In91 2.326 . S
O103 C95 1.252 . S
In104 O105 2.294 . S
In104 O106 2.326 . S
In104 O110 2.266 . S
In104 O111 2.326 . S
In104 O112 2.266 . S
In104 O113 2.326 . S
In104 O115 2.294 . S
In104 O116 2.326 . S
O105 In104 2.294 . S
O105 C114 1.240 . S
O106 In104 2.326 . S
O106 C114 1.252 . S
C107 O110 1.252 . S
C107 O111 1.260 . S
C108 O115 1.240 . S
C108 O116 1.252 . S
C109 O112 1.252 . S
C109 O113 1.260 . S
O110 In104 2.266 . S
O110 C107 1.252 . S
O111 In104 2.326 . S
O111 C107 1.260 . S
O112 In104 2.266 . S
O112 C109 1.252 . S
O113 In104 2.326 . S
O113 C109 1.260 . S
C114 O105 1.240 . S
C114 O106 1.252 . S
O115 In104 2.294 . S
O115 C108 1.240 . S
O116 In104 2.326 . S
O116 C108 1.252 . S
In117 O118 2.294 . S
In117 O119 2.326 . S
In117 O123 2.266 . S
In117 O124 2.326 . S
In117 O125 2.266 . S
In117 O126 2.326 . S
In117 O128 2.294 . S
In117 O129 2.326 . S
O118 In117 2.294 . S
O118 C127 1.240 . S
O119 In117 2.326 . S
O119 C127 1.252 . S
C120 O123 1.252 . S
C120 O124 1.260 . S
C121 O128 1.240 . S
C121 O129 1.252 . S
C122 O125 1.252 . S
C122 O126 1.260 . S
O123 In117 2.266 . S
O123 C120 1.252 . S
O124 In117 2.326 . S
O124 C120 1.260 . S
O125 In117 2.266 . S
O125 C122 1.252 . S
O126 In117 2.326 . S
O126 C122 1.260 . S
C127 O118 1.240 . S
C127 O119 1.252 . S
O128 In117 2.294 . S
O128 C121 1.240 . S
O129 In117 2.326 . S
O129 C121 1.252 . S
In130 O131 2.294 . S
In130 O132 2.326 . S
In130 O136 2.266 . S
In130 O137 2.326 . S
In130 O138 2.266 . S
In130 O139 2.326 . S
In130 O141 2.294 . S
In130 O142 2.326 . S
O131 In130 2.294 . S
O131 C140 1.240 . S
O132 In130 2.326 . S
O132 C140 1.252 . S
C133 O136 1.252 . S
C133 O137 1.260 . S
C134 O141 1.240 . S
C134 O142 1.252 . S
C135 O138 1.252 . S
C135 O139 1.260 . S
O136 In130 2.266 . S
O136 C133 1.252 . S
O137 In130 2.326 . S
O137 C133 1.260 . S
O138 In130 2.266 . S
O138 C135 1.252 . S
O139 In130 2.326 . S
O139 C135 1.260 . S
C140 O131 1.240 . S
C140 O132 1.252 . S
O141 In130 2.294 . S
O141 C134 1.240 . S
O142 In130 2.326 . S
O142 C134 1.252 . S
In143 O144 2.294 . S
In143 O145 2.326 . S
In143 O149 2.266 . S
In143 O150 2.326 . S
In143 O151 2.266 . S
In143 O152 2.326 . S
In143 O154 2.294 . S
In143 O155 2.326 . S
O144 In143 2.294 . S
O144 C153 1.240 . S
O145 In143 2.326 . S
O145 C153 1.252 . S
C146 O149 1.252 . S
C146 O150 1.260 . S
C147 O154 1.240 . S
C147 O155 1.252 . S
C148 O151 1.252 . S
C148 O152 1.260 . S
O149 In143 2.266 . S
O149 C146 1.252 . S
O150 In143 2.326 . S
O150 C146 1.260 . S
O151 In143 2.266 . S
O151 C148 1.252 . S
O152 In143 2.326 . S
O152 C148 1.260 . S
C153 O144 1.240 . S
C153 O145 1.252 . S
O154 In143 2.294 . S
O154 C147 1.240 . S
O155 In143 2.326 . S
O155 C147 1.252 . S
In156 O157 2.294 . S
In156 O158 2.326 . S
In156 O162 2.266 . S
In156 O163 2.326 . S
In156 O164 2.266 . S
In156 O165 2.326 . S
In156 O167 2.294 . S
In156 O168 2.326 . S
O157 In156 2.294 . S
O157 C166 1.240 . S
O158 In156 2.326 . S
O158 C166 1.252 . S
C159 O162 1.252 . S
C159 O163 1.260 . S
C160 O167 1.240 . S
C160 O168 1.252 . S
C161 O164 1.252 . S
C161 O165 1.260 . S
O162 In156 2.266 . S
O162 C159 1.252 . S
O163 In156 2.326 . S
O163 C159 1.260 . S
O164 In156 2.266 . S
O164 C161 1.252 . S
O165 In156 2.326 . S
O165 C161 1.260 . S
C166 O157 1.240 . S
C166 O158 1.252 . S
O167 In156 2.294 . S
O167 C160 1.240 . S
O168 In156 2.326 . S
O168 C160 1.252 . S
In169 O170 2.294 . S
In169 O171 2.326 . S
In169 O175 2.266 . S
In169 O176 2.326 . S
In169 O177 2.266 . S
In169 O178 2.326 . S
In169 O180 2.294 . S
In169 O181 2.326 . S
O170 In169 2.294 . S
O170 C179 1.240 . S
O171 In169 2.326 . S
O171 C179 1.252 . S
C172 O175 1.252 . S
C172 O176 1.260 . S
C173 O180 1.240 . S
C173 O181 1.252 . S
C174 O177 1.252 . S
C174 O178 1.260 . S
O175 In169 2.266 . S
O175 C172 1.252 . S
O176 In169 2.326 . S
O176 C172 1.260 . S
O177 In169 2.266 . S
O177 C174 1.252 . S
O178 In169 2.326 . S
O178 C174 1.260 . S
C179 O170 1.240 . S
C179 O171 1.252 . S
O180 In169 2.294 . S
O180 C173 1.240 . S
O181 In169 2.326 . S
O181 C173 1.252 . S
In182 O183 2.294 . S
In182 O184 2.326 . S
In182 O188 2.266 . S
In182 O189 2.326 . S
In182 O190 2.266 . S
In182 O191 2.326 . S
In182 O193 2.294 . S
In182 O194 2.326 . S
O183 In182 2.294 . S
O183 C192 1.240 . S
O184 In182 2.326 . S
O184 C192 1.252 . S
C185 O188 1.252 . S
C185 O189 1.260 . S
C186 O193 1.240 . S
C186 O194 1.252 . S
C187 O190 1.252 . S
C187 O191 1.260 . S
O188 In182 2.266 . S
O188 C185 1.252 . S
O189 In182 2.326 . S
O189 C185 1.260 . S
O190 In182 2.266 . S
O190 C187 1.252 . S
O191 In182 2.326 . S
O191 C187 1.260 . S
C192 O183 1.240 . S
C192 O184 1.252 . S
O193 In182 2.294 . S
O193 C186 1.240 . S
O194 In182 2.326 . S
O194 C186 1.252 . S
In195 O196 2.294 . S
In195 O197 2.326 . S
In195 O201 2.266 . S
In195 O202 2.326 . S
In195 O203 2.266 . S
In195 O204 2.326 . S
In195 O206 2.294 . S
In195 O207 2.326 . S
O196 In195 2.294 . S
O196 C205 1.240 . S
O197 In195 2.326 . S
O197 C205 1.252 . S
C198 O201 1.252 . S
C198 O202 1.260 . S
C199 O206 1.240 . S
C199 O207 1.252 . S
C200 O203 1.252 . S
C200 O204 1.260 . S
O201 In195 2.266 . S
O201 C198 1.252 . S
O202 In195 2.326 . S
O202 C198 1.260 . S
O203 In195 2.266 . S
O203 C200 1.252 . S
O204 In195 2.326 . S
O204 C200 1.260 . S
C205 O196 1.240 . S
C205 O197 1.252 . S
O206 In195 2.294 . S
O206 C199 1.240 . S
O207 In195 2.326 . S
O207 C199 1.252 . S
H208 C220 0.930 . S
H209 C222 0.930 . S
H210 C223 0.930 1_545 S
H211 C227 0.959 . S
H212 C227 0.959 . S
H213 C227 0.961 . S
H214 C228 0.960 . S
H215 C228 0.961 . S
H216 C228 0.959 . S
H217 C231 0.929 . S
H218 C232 0.931 . S
H219 C234 0.930 . S
C220 H208 0.930 . S
C220 C221 1.399 . S
C220 C225 1.399 . S
C221 C220 1.399 . S
C221 C222 1.376 . S
C222 H209 0.930 . S
C222 C221 1.376 . S
C222 C223 1.388 . S
C223 H210 0.930 1_565 S
C223 C222 1.388 . S
C223 C224 1.390 . S
C224 C223 1.390 . S
C224 C225 1.394 . S
C224 C230 1.465 1_565 S
C225 C220 1.399 . S
C225 C224 1.394 . S
C225 C226 1.516 . S
C226 C225 1.516 . S
C226 C227 1.502 . S
C226 C228 1.561 1_565 S
C226 C229 1.526 1_565 S
C227 H211 0.959 . S
C227 H212 0.959 . S
C227 H213 0.961 . S
C227 C226 1.502 . S
C228 H214 0.960 . S
C228 H215 0.961 . S
C228 H216 0.959 . S
C228 C226 1.561 1_545 S
C229 C226 1.526 1_545 S
C229 C230 1.396 . S
C229 C234 1.390 . S
C230 C224 1.465 1_545 S
C230 C229 1.396 . S
C230 C231 1.399 . S
C231 H217 0.929 . S
C231 C230 1.399 . S
C231 C232 1.385 . S
C232 H218 0.931 . S
C232 C231 1.385 . S
C232 C233 1.389 . S
C233 C232 1.389 . S
C233 C234 1.387 . S
C234 H219 0.930 . S
C234 C229 1.390 . S
C234 C233 1.387 . S
H235 C247 0.930 . S
H236 C249 0.930 . S
H237 C250 0.930 . S
H238 C254 0.959 1_565 S
H239 C254 0.959 . S
H240 C254 0.961 . S
H241 C255 0.960 . S
H242 C255 0.961 . S
H243 C255 0.959 . S
H244 C258 0.929 1_565 S
H245 C259 0.931 . S
H246 C261 0.930 . S
C247 H235 0.930 . S
C247 C248 1.399 . S
C247 C252 1.399 . S
C248 C247 1.399 . S
C248 C249 1.376 . S
C249 H236 0.930 . S
C249 C248 1.376 . S
C249 C250 1.388 . S
C250 H237 0.930 . S
C250 C249 1.388 . S
C250 C251 1.390 . S
C251 C250 1.390 . S
C251 C252 1.394 . S
C251 C257 1.465 1_565 S
C252 C247 1.399 . S
C252 C251 1.394 . S
C252 C253 1.516 1_565 S
C253 C252 1.516 1_545 S
C253 C254 1.502 . S
C253 C255 1.561 . S
C253 C256 1.526 . S
C254 H238 0.959 1_545 S
C254 H239 0.959 . S
C254 H240 0.961 . S
C254 C253 1.502 . S
C255 H241 0.960 . S
C255 H242 0.961 . S
C255 H243 0.959 . S
C255 C253 1.561 . S
C256 C253 1.526 . S
C256 C257 1.396 . S
C256 C261 1.390 . S
C257 C251 1.465 1_545 S
C257 C256 1.396 . S
C257 C258 1.399 . S
C258 H244 0.929 1_545 S
C258 C257 1.399 . S
C258 C259 1.385 . S
C259 H245 0.931 . S
C259 C258 1.385 . S
C259 C260 1.389 . S
C260 C259 1.389 . S
C260 C261 1.387 . S
C261 H246 0.930 . S
C261 C256 1.390 . S
C261 C260 1.387 . S
H262 C274 0.930 . S
H263 C276 0.930 . S
H264 C277 0.930 1_545 S
H265 C281 0.959 . S
H266 C281 0.959 . S
H267 C281 0.961 . S
H268 C282 0.960 . S
H269 C282 0.961 . S
H270 C282 0.959 . S
H271 C285 0.929 . S
H272 C286 0.931 . S
H273 C288 0.930 . S
C274 H262 0.930 . S
C274 C275 1.399 . S
C274 C279 1.399 . S
C275 C274 1.399 . S
C275 C276 1.376 . S
C276 H263 0.930 . S
C276 C275 1.376 . S
C276 C277 1.388 . S
C277 H264 0.930 1_565 S
C277 C276 1.388 . S
C277 C278 1.391 . S
C278 C277 1.391 . S
C278 C279 1.399 . S
C278 C284 1.460 1_565 S
C279 C274 1.399 . S
C279 C278 1.399 . S
C279 C280 1.516 . S
C280 C279 1.516 . S
C280 C281 1.502 . S
C280 C282 1.561 1_565 S
C280 C283 1.526 1_565 S
C281 H265 0.959 . S
C281 H266 0.959 . S
C281 H267 0.961 . S
C281 C280 1.502 . S
C282 H268 0.960 . S
C282 H269 0.961 . S
C282 H270 0.959 . S
C282 C280 1.561 1_545 S
C283 C280 1.526 1_545 S
C283 C284 1.396 . S
C283 C288 1.390 . S
C284 C278 1.460 1_545 S
C284 C283 1.396 . S
C284 C285 1.399 . S
C285 H271 0.929 . S
C285 C284 1.399 . S
C285 C286 1.385 . S
C286 H272 0.931 . S
C286 C285 1.385 . S
C286 C287 1.389 . S
C287 C286 1.389 . S
C287 C288 1.387 . S
C288 H273 0.930 . S
C288 C283 1.390 . S
C288 C287 1.387 . S
H289 C301 0.930 . S
H290 C303 0.930 . S
H291 C304 0.930 . S
H292 C308 0.959 . S
H293 C308 0.959 . S
H294 C308 0.961 . S
H295 C309 0.960 . S
H296 C309 0.961 . S
H297 C309 0.959 . S
H298 C312 0.929 . S
H299 C313 0.931 . S
H300 C315 0.930 . S
C301 H289 0.930 . S
C301 C302 1.399 . S
C301 C306 1.399 . S
C302 C301 1.399 . S
C302 C303 1.376 . S
C303 H290 0.930 . S
C303 C302 1.376 . S
C303 C304 1.388 . S
C304 H291 0.930 . S
C304 C303 1.388 . S
C304 C305 1.390 . S
C305 C304 1.390 . S
C305 C306 1.394 . S
C305 C311 1.465 1_565 S
C306 C301 1.399 . S
C306 C305 1.394 . S
C306 C307 1.512 1_565 S
C307 C306 1.512 1_545 S
C307 C308 1.494 1_545 S
C307 C309 1.570 . S
C307 C310 1.530 . S
C308 H292 0.959 . S
C308 H293 0.959 . S
C308 H294 0.961 . S
C308 C307 1.494 1_565 S
C309 H295 0.960 . S
C309 H296 0.961 . S
C309 H297 0.959 . S
C309 C307 1.570 . S
C310 C307 1.530 . S
C310 C311 1.396 . S
C310 C315 1.390 . S
C311 C305 1.465 1_545 S
C311 C310 1.396 . S
C311 C312 1.399 . S
C312 H298 0.929 . S
C312 C311 1.399 . S
C312 C313 1.385 . S
C313 H299 0.931 . S
C313 C312 1.385 . S
C313 C314 1.389 . S
C314 C313 1.389 . S
C314 C315 1.387 . S
C315 H300 0.930 . S
C315 C310 1.390 . S
C315 C314 1.387 . S
H316 C328 0.930 . S
H317 C330 0.930 . S
H318 C331 0.930 . S
H319 C335 0.959 . S
H320 C335 0.959 . S
H321 C335 0.961 . S
H322 C336 0.960 . S
H323 C336 0.961 . S
H324 C336 0.959 . S
H325 C339 0.929 . S
H326 C340 0.931 . S
H327 C342 0.930 . S
C328 H316 0.930 . S
C328 C329 1.399 . S
C328 C333 1.399 . S
C329 C328 1.399 . S
C329 C330 1.376 . S
C330 H317 0.930 . S
C330 C329 1.376 . S
C330 C331 1.388 . S
C331 H318 0.930 . S
C331 C330 1.388 . S
C331 C332 1.390 . S
C332 C331 1.390 . S
C332 C333 1.394 . S
C332 C338 1.465 . S
C333 C328 1.399 . S
C333 C332 1.394 . S
C333 C334 1.516 . S
C334 C333 1.516 . S
C334 C335 1.502 . S
C334 C336 1.561 . S
C334 C337 1.526 . S
C335 H319 0.959 . S
C335 H320 0.959 . S
C335 H321 0.961 . S
C335 C334 1.502 . S
C336 H322 0.960 . S
C336 H323 0.961 . S
C336 H324 0.959 . S
C336 C334 1.561 . S
C337 C334 1.526 . S
C337 C338 1.396 . S
C337 C342 1.390 . S
C338 C332 1.465 . S
C338 C337 1.396 . S
C338 C339 1.399 . S
C339 H325 0.929 . S
C339 C338 1.399 . S
C339 C340 1.385 . S
C340 H326 0.931 . S
C340 C339 1.385 . S
C340 C341 1.389 . S
C341 C340 1.389 . S
C341 C342 1.387 . S
C342 H327 0.930 . S
C342 C337 1.390 . S
C342 C341 1.387 . S
H343 C355 0.930 . S
H344 C357 0.930 . S
H345 C358 0.930 . S
H346 C362 0.959 . S
H347 C362 0.959 . S
H348 C362 0.961 . S
H349 C363 0.960 . S
H350 C363 0.961 . S
H351 C363 0.959 . S
H352 C366 0.929 . S
H353 C367 0.931 . S
H354 C369 0.930 . S
C355 H343 0.930 . S
C355 C356 1.399 . S
C355 C360 1.399 . S
C356 C355 1.399 . S
C356 C357 1.376 . S
C357 H344 0.930 . S
C357 C356 1.376 . S
C357 C358 1.388 . S
C358 H345 0.930 . S
C358 C357 1.388 . S
C358 C359 1.390 . S
C359 C358 1.390 . S
C359 C360 1.394 . S
C359 C365 1.465 . S
C360 C355 1.399 . S
C360 C359 1.394 . S
C360 C361 1.516 . S
C361 C360 1.516 . S
C361 C362 1.502 . S
C361 C363 1.561 . S
C361 C364 1.526 . S
C362 H346 0.959 . S
C362 H347 0.959 . S
C362 H348 0.961 . S
C362 C361 1.502 . S
C363 H349 0.960 . S
C363 H350 0.961 . S
C363 H351 0.959 . S
C363 C361 1.561 . S
C364 C361 1.526 . S
C364 C365 1.396 . S
C364 C369 1.390 . S
C365 C359 1.465 . S
C365 C364 1.396 . S
C365 C366 1.399 . S
C366 H352 0.929 . S
C366 C365 1.399 . S
C366 C367 1.385 . S
C367 H353 0.931 . S
C367 C366 1.385 . S
C367 C368 1.389 . S
C368 C367 1.389 . S
C368 C369 1.387 . S
C369 H354 0.930 . S
C369 C364 1.390 . S
C369 C368 1.387 . S
H370 C382 0.930 . S
H371 C384 0.930 . S
H372 C385 0.930 . S
H373 C389 0.959 . S
H374 C389 0.959 . S
H375 C389 0.961 . S
H376 C390 0.960 . S
H377 C390 0.961 . S
H378 C390 0.959 . S
H379 C393 0.929 . S
H380 C394 0.931 . S
H381 C396 0.930 . S
C382 H370 0.930 . S
C382 C383 1.399 . S
C382 C387 1.399 . S
C383 C382 1.399 . S
C383 C384 1.376 . S
C384 H371 0.930 . S
C384 C383 1.376 . S
C384 C385 1.388 . S
C385 H372 0.930 . S
C385 C384 1.388 . S
C385 C386 1.390 . S
C386 C385 1.390 . S
C386 C387 1.394 . S
C386 C392 1.465 . S
C387 C382 1.399 . S
C387 C386 1.394 . S
C387 C388 1.516 . S
C388 C387 1.516 . S
C388 C389 1.502 . S
C388 C390 1.561 . S
C388 C391 1.526 . S
C389 H373 0.959 . S
C389 H374 0.959 . S
C389 H375 0.961 . S
C389 C388 1.502 . S
C390 H376 0.960 . S
C390 H377 0.961 . S
C390 H378 0.959 . S
C390 C388 1.561 . S
C391 C388 1.526 . S
C391 C392 1.396 . S
C391 C396 1.390 . S
C392 C386 1.465 . S
C392 C391 1.396 . S
C392 C393 1.399 . S
C393 H379 0.929 . S
C393 C392 1.399 . S
C393 C394 1.385 . S
C394 H380 0.931 . S
C394 C393 1.385 . S
C394 C395 1.389 . S
C395 C394 1.389 . S
C395 C396 1.387 . S
C396 H381 0.930 . S
C396 C391 1.390 . S
C396 C395 1.387 . S
H397 C409 0.930 . S
H398 C411 0.930 . S
H399 C412 0.930 . S
H400 C416 0.959 . S
H401 C416 0.959 . S
H402 C416 0.961 . S
H403 C417 0.960 . S
H404 C417 0.961 . S
H405 C417 0.959 . S
H406 C420 0.929 . S
H407 C421 0.931 . S
H408 C423 0.930 . S
C409 H397 0.930 . S
C409 C410 1.399 . S
C409 C414 1.399 . S
C410 C409 1.399 . S
C410 C411 1.376 . S
C411 H398 0.930 . S
C411 C410 1.376 . S
C411 C412 1.388 . S
C412 H399 0.930 . S
C412 C411 1.388 . S
C412 C413 1.390 . S
C413 C412 1.390 . S
C413 C414 1.394 . S
C413 C419 1.465 . S
C414 C409 1.399 . S
C414 C413 1.394 . S
C414 C415 1.516 . S
C415 C414 1.516 . S
C415 C416 1.502 . S
C415 C417 1.561 . S
C415 C418 1.526 . S
C416 H400 0.959 . S
C416 H401 0.959 . S
C416 H402 0.961 . S
C416 C415 1.502 . S
C417 H403 0.960 . S
C417 H404 0.961 . S
C417 H405 0.959 . S
C417 C415 1.561 . S
C418 C415 1.526 . S
C418 C419 1.396 . S
C418 C423 1.390 . S
C419 C413 1.465 . S
C419 C418 1.396 . S
C419 C420 1.399 . S
C420 H406 0.929 . S
C420 C419 1.399 . S
C420 C421 1.385 . S
C421 H407 0.931 . S
C421 C420 1.385 . S
C421 C422 1.389 . S
C422 C421 1.389 . S
C422 C423 1.387 . S
C423 H408 0.930 . S
C423 C418 1.390 . S
C423 C422 1.387 . S
H424 C436 0.930 . S
H425 C438 0.930 1_455 S
H426 C439 0.930 . S
H427 C443 0.959 . S
H428 C443 0.959 . S
H429 C443 0.961 . S
H430 C444 0.960 1_655 S
H431 C444 0.961 . S
H432 C444 0.959 . S
H433 C447 0.929 . S
H434 C448 0.931 . S
H435 C450 0.930 . S
C436 H424 0.930 . S
C436 C437 1.399 . S
C436 C441 1.399 . S
C437 C436 1.399 . S
C437 C438 1.376 . S
C438 H425 0.930 1_655 S
C438 C437 1.376 . S
C438 C439 1.388 1_655 S
C439 H426 0.930 . S
C439 C438 1.388 1_455 S
C439 C440 1.390 . S
C440 C439 1.390 . S
C440 C441 1.394 1_455 S
C440 C446 1.465 . S
C441 C436 1.399 . S
C441 C440 1.394 1_655 S
C441 C442 1.516 . S
C442 C441 1.516 . S
C442 C443 1.502 . S
C442 C444 1.561 1_655 S
C442 C445 1.526 1_655 S
C443 H427 0.959 . S
C443 H428 0.959 . S
C443 H429 0.961 . S
C443 C442 1.502 . S
C444 H430 0.960 1_455 S
C444 H431 0.961 . S
C444 H432 0.959 . S
C444 C442 1.561 1_455 S
C445 C442 1.526 1_455 S
C445 C446 1.396 . S
C445 C450 1.390 . S
C446 C440 1.465 . S
C446 C445 1.396 . S
C446 C447 1.399 . S
C447 H433 0.929 . S
C447 C446 1.399 . S
C447 C448 1.385 . S
C448 H434 0.931 . S
C448 C447 1.385 . S
C448 C449 1.389 . S
C449 C448 1.389 . S
C449 C450 1.387 . S
C450 H435 0.930 . S
C450 C445 1.390 . S
C450 C449 1.387 . S
H451 C463 0.930 . S
H452 C465 0.930 . S
H453 C466 0.930 . S
H454 C470 0.959 . S
H455 C470 0.959 . S
H456 C470 0.961 . S
H457 C471 0.960 . S
H458 C471 0.961 . S
H459 C471 0.959 . S
H460 C474 0.929 . S
H461 C475 0.931 . S
H462 C477 0.930 . S
C463 H451 0.930 . S
C463 C464 1.399 . S
C463 C468 1.399 . S
C464 C463 1.399 . S
C464 C465 1.376 . S
C465 H452 0.930 . S
C465 C464 1.376 . S
C465 C466 1.388 . S
C466 H453 0.930 . S
C466 C465 1.388 . S
C466 C467 1.390 . S
C467 C466 1.390 . S
C467 C468 1.394 . S
C467 C473 1.465 . S
C468 C463 1.399 . S
C468 C467 1.394 . S
C468 C469 1.516 . S
C469 C468 1.516 . S
C469 C470 1.502 . S
C469 C471 1.561 . S
C469 C472 1.526 . S
C470 H454 0.959 . S
C470 H455 0.959 . S
C470 H456 0.961 . S
C470 C469 1.502 . S
C471 H457 0.960 . S
C471 H458 0.961 . S
C471 H459 0.959 . S
C471 C469 1.561 . S
C472 C469 1.526 . S
C472 C473 1.396 . S
C472 C477 1.390 . S
C473 C467 1.465 . S
C473 C472 1.396 . S
C473 C474 1.399 . S
C474 H460 0.929 . S
C474 C473 1.399 . S
C474 C475 1.385 . S
C475 H461 0.931 . S
C475 C474 1.385 . S
C475 C476 1.389 . S
C476 C475 1.389 . S
C476 C477 1.387 . S
C477 H462 0.930 . S
C477 C472 1.390 . S
C477 C476 1.387 . S
H478 C490 0.930 . S
H479 C492 0.930 . S
H480 C493 0.930 . S
H481 C497 0.959 . S
H482 C497 0.959 . S
H483 C497 0.961 . S
H484 C498 0.960 . S
H485 C498 0.961 . S
H486 C498 0.959 . S
H487 C501 0.929 . S
H488 C502 0.931 . S
H489 C504 0.930 . S
C490 H478 0.930 . S
C490 C491 1.399 . S
C490 C495 1.399 . S
C491 C490 1.399 . S
C491 C492 1.376 . S
C492 H479 0.930 . S
C492 C491 1.376 . S
C492 C493 1.388 1_455 S
C493 H480 0.930 . S
C493 C492 1.388 1_655 S
C493 C494 1.390 . S
C494 C493 1.390 . S
C494 C495 1.394 1_655 S
C494 C500 1.465 . S
C495 C490 1.399 . S
C495 C494 1.394 1_455 S
C495 C496 1.516 . S
C496 C495 1.516 . S
C496 C497 1.502 . S
C496 C498 1.561 1_455 S
C496 C499 1.526 1_455 S
C497 H481 0.959 . S
C497 H482 0.959 . S
C497 H483 0.961 . S
C497 C496 1.502 . S
C498 H484 0.960 . S
C498 H485 0.961 . S
C498 H486 0.959 . S
C498 C496 1.561 1_655 S
C499 C496 1.526 1_655 S
C499 C500 1.396 . S
C499 C504 1.390 . S
C500 C494 1.465 . S
C500 C499 1.396 . S
C500 C501 1.399 . S
C501 H487 0.929 . S
C501 C500 1.399 . S
C501 C502 1.385 . S
C502 H488 0.931 . S
C502 C501 1.385 . S
C502 C503 1.389 . S
C503 C502 1.389 . S
C503 C504 1.387 . S
C504 H489 0.930 . S
C504 C499 1.390 . S
C504 C503 1.387 . S
H505 C517 0.930 . S
H506 C519 0.930 . S
H507 C520 0.930 . S
H508 C524 0.959 . S
H509 C524 0.959 . S
H510 C524 0.961 . S
H511 C525 0.960 . S
H512 C525 0.961 . S
H513 C525 0.959 . S
H514 C528 0.929 . S
H515 C529 0.931 . S
H516 C531 0.930 . S
C517 H505 0.930 . S
C517 C518 1.399 . S
C517 C522 1.399 . S
C518 C517 1.399 . S
C518 C519 1.376 . S
C519 H506 0.930 . S
C519 C518 1.376 . S
C519 C520 1.388 . S
C520 H507 0.930 . S
C520 C519 1.388 . S
C520 C521 1.390 . S
C521 C520 1.390 . S
C521 C522 1.394 . S
C521 C527 1.465 . S
C522 C517 1.399 . S
C522 C521 1.394 . S
C522 C523 1.516 . S
C523 C522 1.516 . S
C523 C524 1.502 . S
C523 C525 1.561 . S
C523 C526 1.526 . S
C524 H508 0.959 . S
C524 H509 0.959 . S
C524 H510 0.961 . S
C524 C523 1.502 . S
C525 H511 0.960 . S
C525 H512 0.961 . S
C525 H513 0.959 . S
C525 C523 1.561 . S
C526 C523 1.526 . S
C526 C527 1.396 . S
C526 C531 1.390 . S
C527 C521 1.465 . S
C527 C526 1.396 . S
C527 C528 1.399 . S
C528 H514 0.929 . S
C528 C527 1.399 . S
C528 C529 1.385 . S
C529 H515 0.931 . S
C529 C528 1.385 . S
C529 C530 1.389 . S
C530 C529 1.389 . S
C530 C531 1.387 . S
C531 H516 0.930 . S
C531 C526 1.390 . S
C531 C530 1.387 . S
H532 C544 0.930 . S
H533 C546 0.930 . S
H534 C547 0.930 . S
H535 C551 0.959 . S
H536 C551 0.959 . S
H537 C551 0.961 . S
H538 C552 0.960 . S
H539 C552 0.961 . S
H540 C552 0.959 . S
H541 C555 0.929 . S
H542 C556 0.931 . S
H543 C558 0.930 . S
C544 H532 0.930 . S
C544 C545 1.399 . S
C544 C549 1.399 . S
C545 C544 1.399 . S
C545 C546 1.376 . S
C546 H533 0.930 . S
C546 C545 1.376 . S
C546 C547 1.388 . S
C547 H534 0.930 . S
C547 C546 1.388 . S
C547 C548 1.390 . S
C548 C547 1.390 . S
C548 C549 1.394 . S
C548 C554 1.465 . S
C549 C544 1.399 . S
C549 C548 1.394 . S
C549 C550 1.516 . S
C550 C549 1.516 . S
C550 C551 1.502 . S
C550 C552 1.561 . S
C550 C553 1.526 . S
C551 H535 0.959 . S
C551 H536 0.959 . S
C551 H537 0.961 . S
C551 C550 1.502 . S
C552 H538 0.960 . S
C552 H539 0.961 . S
C552 H540 0.959 . S
C552 C550 1.561 . S
C553 C550 1.526 . S
C553 C554 1.396 . S
C553 C558 1.390 . S
C554 C548 1.465 . S
C554 C553 1.396 . S
C554 C555 1.399 . S
C555 H541 0.929 . S
C555 C554 1.399 . S
C555 C556 1.385 . S
C556 H542 0.931 . S
C556 C555 1.385 . S
C556 C557 1.389 . S
C557 C556 1.389 . S
C557 C558 1.387 . S
C558 H543 0.930 . S
C558 C553 1.390 . S
C558 C557 1.387 . S
H559 C571 0.930 . S
H560 C573 0.930 . S
H561 C574 0.930 . S
H562 C578 0.959 . S
H563 C578 0.959 . S
H564 C578 0.961 . S
H565 C579 0.960 . S
H566 C579 0.961 . S
H567 C579 0.959 . S
H568 C582 0.929 . S
H569 C583 0.931 . S
H570 C585 0.930 . S
C571 H559 0.930 . S
C571 C572 1.399 . S
C571 C576 1.399 . S
C572 C571 1.399 . S
C572 C573 1.376 . S
C573 H560 0.930 . S
C573 C572 1.376 . S
C573 C574 1.388 . S
C574 H561 0.930 . S
C574 C573 1.388 . S
C574 C575 1.390 . S
C575 C574 1.390 . S
C575 C576 1.394 . S
C575 C581 1.465 . S
C576 C571 1.399 . S
C576 C575 1.394 . S
C576 C577 1.516 1_455 S
C577 C576 1.516 1_655 S
C577 C578 1.502 . S
C577 C579 1.561 1_655 S
C577 C580 1.526 . S
C578 H562 0.959 . S
C578 H563 0.959 . S
C578 H564 0.961 . S
C578 C577 1.502 . S
C579 H565 0.960 . S
C579 H566 0.961 . S
C579 H567 0.959 . S
C579 C577 1.561 1_455 S
C580 C577 1.526 . S
C580 C581 1.396 1_655 S
C580 C585 1.390 . S
C581 C575 1.465 . S
C581 C580 1.396 1_455 S
C581 C582 1.399 . S
C582 H568 0.929 . S
C582 C581 1.399 . S
C582 C583 1.385 1_455 S
C583 H569 0.931 . S
C583 C582 1.385 1_655 S
C583 C584 1.389 . S
C584 C583 1.389 . S
C584 C585 1.387 . S
C585 H570 0.930 . S
C585 C580 1.390 . S
C585 C584 1.387 . S
H586 C598 0.930 . S
H587 C600 0.930 . S
H588 C601 0.930 . S
H589 C605 0.959 . S
H590 C605 0.959 . S
H591 C605 0.961 . S
H592 C606 0.960 . S
H593 C606 0.961 . S
H594 C606 0.959 . S
H595 C609 0.929 . S
H596 C610 0.931 . S
H597 C612 0.930 . S
C598 H586 0.930 . S
C598 C599 1.399 . S
C598 C603 1.399 . S
C599 C598 1.399 . S
C599 C600 1.376 . S
C600 H587 0.930 . S
C600 C599 1.376 . S
C600 C601 1.388 . S
C601 H588 0.930 . S
C601 C600 1.388 . S
C601 C602 1.390 . S
C602 C601 1.390 . S
C602 C603 1.394 . S
C602 C608 1.465 . S
C603 C598 1.399 . S
C603 C602 1.394 . S
C603 C604 1.516 . S
C604 C603 1.516 . S
C604 C605 1.502 . S
C604 C606 1.561 . S
C604 C607 1.526 . S
C605 H589 0.959 . S
C605 H590 0.959 . S
C605 H591 0.961 . S
C605 C604 1.502 . S
C606 H592 0.960 . S
C606 H593 0.961 . S
C606 H594 0.959 . S
C606 C604 1.561 . S
C607 C604 1.526 . S
C607 C608 1.396 . S
C607 C612 1.390 . S
C608 C602 1.465 . S
C608 C607 1.396 . S
C608 C609 1.399 . S
C609 H595 0.929 . S
C609 C608 1.399 . S
C609 C610 1.385 . S
C610 H596 0.931 . S
C610 C609 1.385 . S
C610 C611 1.389 . S
C611 C610 1.389 . S
C611 C612 1.387 . S
C612 H597 0.930 . S
C612 C607 1.390 . S
C612 C611 1.387 . S
H613 C625 0.930 . S
H614 C627 0.930 . S
H615 C628 0.930 . S
H616 C632 0.959 . S
H617 C632 0.959 . S
H618 C632 0.961 . S
H619 C633 0.960 . S
H620 C633 0.961 . S
H621 C633 0.959 . S
H622 C636 0.929 . S
H623 C637 0.931 . S
H624 C639 0.930 . S
C625 H613 0.930 . S
C625 C626 1.399 . S
C625 C630 1.399 . S
C626 C625 1.399 . S
C626 C627 1.376 . S
C627 H614 0.930 . S
C627 C626 1.376 . S
C627 C628 1.388 . S
C628 H615 0.930 . S
C628 C627 1.388 . S
C628 C629 1.390 . S
C629 C628 1.390 . S
C629 C630 1.394 . S
C629 C635 1.465 . S
C630 C625 1.399 . S
C630 C629 1.394 . S
C630 C631 1.516 1_455 S
C631 C630 1.516 1_655 S
C631 C632 1.502 . S
C631 C633 1.561 1_655 S
C631 C634 1.526 . S
C632 H616 0.959 . S
C632 H617 0.959 . S
C632 H618 0.961 . S
C632 C631 1.502 . S
C633 H619 0.960 . S
C633 H620 0.961 . S
C633 H621 0.959 . S
C633 C631 1.561 1_455 S
C634 C631 1.526 . S
C634 C635 1.396 1_655 S
C634 C639 1.390 . S
C635 C629 1.465 . S
C635 C634 1.396 1_455 S
C635 C636 1.399 . S
C636 H622 0.929 . S
C636 C635 1.399 . S
C636 C637 1.385 1_455 S
C637 H623 0.931 . S
C637 C636 1.385 1_655 S
C637 C638 1.389 . S
C638 C637 1.389 . S
C638 C639 1.387 . S
C639 H624 0.930 . S
C639 C634 1.390 . S
C639 C638 1.387 . S
H640 C652 0.930 . S
H641 C654 0.930 . S
H642 C655 0.930 . S
H643 C659 0.959 . S
H644 C659 0.959 . S
H645 C659 0.961 . S
H646 C660 0.960 . S
H647 C660 0.961 . S
H648 C660 0.959 . S
H649 C663 0.929 . S
H650 C664 0.931 . S
H651 C666 0.930 . S
C652 H640 0.930 . S
C652 C653 1.399 . S
C652 C657 1.399 . S
C653 C652 1.399 . S
C653 C654 1.376 . S
C654 H641 0.930 . S
C654 C653 1.376 . S
C654 C655 1.388 . S
C655 H642 0.930 . S
C655 C654 1.388 . S
C655 C656 1.390 . S
C656 C655 1.390 . S
C656 C657 1.394 . S
C656 C662 1.465 . S
C657 C652 1.399 . S
C657 C656 1.394 . S
C657 C658 1.516 1_455 S
C658 C657 1.516 1_655 S
C658 C659 1.502 . S
C658 C660 1.561 1_655 S
C658 C661 1.526 . S
C659 H643 0.959 . S
C659 H644 0.959 . S
C659 H645 0.961 . S
C659 C658 1.502 . S
C660 H646 0.960 . S
C660 H647 0.961 . S
C660 H648 0.959 . S
C660 C658 1.561 1_455 S
C661 C658 1.526 . S
C661 C662 1.396 1_655 S
C661 C666 1.390 . S
C662 C656 1.465 . S
C662 C661 1.396 1_455 S
C662 C663 1.399 . S
C663 H649 0.929 . S
C663 C662 1.399 . S
C663 C664 1.385 1_455 S
C664 H650 0.931 . S
C664 C663 1.385 1_655 S
C664 C665 1.389 . S
C665 C664 1.389 . S
C665 C666 1.387 . S
C666 H651 0.930 . S
C666 C661 1.390 . S
C666 C665 1.387 . S
H667 C679 0.930 . S
H668 C681 0.930 . S
H669 C682 0.930 . S
H670 C686 0.959 . S
H671 C686 0.959 . S
H672 C686 0.961 . S
H673 C687 0.960 . S
H674 C687 0.961 . S
H675 C687 0.959 . S
H676 C690 0.929 . S
H677 C691 0.931 . S
H678 C693 0.930 . S
C679 H667 0.930 . S
C679 C680 1.399 . S
C679 C684 1.399 . S
C680 C679 1.399 . S
C680 C681 1.376 . S
C681 H668 0.930 . S
C681 C680 1.376 . S
C681 C682 1.388 . S
C682 H669 0.930 . S
C682 C681 1.388 . S
C682 C683 1.390 . S
C683 C682 1.390 . S
C683 C684 1.394 . S
C683 C689 1.465 . S
C684 C679 1.399 . S
C684 C683 1.394 . S
C684 C685 1.516 . S
C685 C684 1.516 . S
C685 C686 1.502 . S
C685 C687 1.561 . S
C685 C688 1.526 . S
C686 H670 0.959 . S
C686 H671 0.959 . S
C686 H672 0.961 . S
C686 C685 1.502 . S
C687 H673 0.960 . S
C687 H674 0.961 . S
C687 H675 0.959 . S
C687 C685 1.561 . S
C688 C685 1.526 . S
C688 C689 1.396 . S
C688 C693 1.390 . S
C689 C683 1.465 . S
C689 C688 1.396 . S
C689 C690 1.399 . S
C690 H676 0.929 . S
C690 C689 1.399 . S
C690 C691 1.385 . S
C691 H677 0.931 . S
C691 C690 1.385 . S
C691 C692 1.389 . S
C692 C691 1.389 . S
C692 C693 1.387 . S
C693 H678 0.930 . S
C693 C688 1.390 . S
C693 C692 1.387 . S
H694 C706 0.930 . S
H695 C708 0.930 . S
H696 C709 0.930 . S
H697 C713 0.959 . S
H698 C713 0.959 . S
H699 C713 0.961 . S
H700 C714 0.960 . S
H701 C714 0.961 . S
H702 C714 0.959 . S
H703 C717 0.929 . S
H704 C718 0.931 . S
H705 C720 0.930 . S
C706 H694 0.930 . S
C706 C707 1.399 . S
C706 C711 1.399 . S
C707 C706 1.399 . S
C707 C708 1.376 . S
C708 H695 0.930 . S
C708 C707 1.376 . S
C708 C709 1.388 . S
C709 H696 0.930 . S
C709 C708 1.388 . S
C709 C710 1.390 . S
C710 C709 1.390 . S
C710 C711 1.394 . S
C710 C716 1.465 . S
C711 C706 1.399 . S
C711 C710 1.394 . S
C711 C712 1.516 . S
C712 C711 1.516 . S
C712 C713 1.502 . S
C712 C714 1.561 . S
C712 C715 1.526 . S
C713 H697 0.959 . S
C713 H698 0.959 . S
C713 H699 0.961 . S
C713 C712 1.502 . S
C714 H700 0.960 . S
C714 H701 0.961 . S
C714 H702 0.959 . S
C714 C712 1.561 . S
C715 C712 1.526 . S
C715 C716 1.396 . S
C715 C720 1.390 . S
C716 C710 1.465 . S
C716 C715 1.396 . S
C716 C717 1.399 . S
C717 H703 0.929 . S
C717 C716 1.399 . S
C717 C718 1.385 . S
C718 H704 0.931 . S
C718 C717 1.385 . S
C718 C719 1.389 . S
C719 C718 1.389 . S
C719 C720 1.387 . S
C720 H705 0.930 . S
C720 C715 1.390 . S
C720 C719 1.387 . S
H721 C733 0.930 . S
H722 C735 0.930 . S
H723 C736 0.930 . S
H724 C740 0.959 . S
H725 C740 0.959 . S
H726 C740 0.961 . S
H727 C741 0.960 . S
H728 C741 0.961 . S
H729 C741 0.959 . S
H730 C744 0.929 . S
H731 C745 0.931 . S
H732 C747 0.930 . S
C733 H721 0.930 . S
C733 C734 1.399 . S
C733 C738 1.399 . S
C734 C733 1.399 . S
C734 C735 1.376 . S
C735 H722 0.930 . S
C735 C734 1.376 . S
C735 C736 1.388 . S
C736 H723 0.930 . S
C736 C735 1.388 . S
C736 C737 1.390 . S
C737 C736 1.390 . S
C737 C738 1.394 . S
C737 C743 1.465 . S
C738 C733 1.399 . S
C738 C737 1.394 . S
C738 C739 1.516 1_455 S
C739 C738 1.516 1_655 S
C739 C740 1.502 . S
C739 C741 1.561 1_655 S
C739 C742 1.526 . S
C740 H724 0.959 . S
C740 H725 0.959 . S
C740 H726 0.961 . S
C740 C739 1.502 . S
C741 H727 0.960 . S
C741 H728 0.961 . S
C741 H729 0.959 . S
C741 C739 1.561 1_455 S
C742 C739 1.526 . S
C742 C743 1.396 1_655 S
C742 C747 1.390 . S
C743 C737 1.465 . S
C743 C742 1.396 1_455 S
C743 C744 1.399 . S
C744 H730 0.929 . S
C744 C743 1.399 . S
C744 C745 1.385 1_455 S
C745 H731 0.931 . S
C745 C744 1.385 1_655 S
C745 C746 1.389 . S
C746 C745 1.389 . S
C746 C747 1.387 . S
C747 H732 0.930 . S
C747 C742 1.390 . S
C747 C746 1.387 . S
H748 C760 0.930 . S
H749 C762 0.930 . S
H750 C763 0.930 . S
H751 C767 0.959 . S
H752 C767 0.959 . S
H753 C767 0.961 . S
H754 C768 0.960 . S
H755 C768 0.961 . S
H756 C768 0.959 . S
H757 C771 0.929 1_455 S
H758 C772 0.931 . S
H759 C774 0.930 . S
C760 H748 0.930 . S
C760 C761 1.399 . S
C760 C765 1.399 . S
C761 C760 1.399 . S
C761 C762 1.376 . S
C762 H749 0.930 . S
C762 C761 1.376 . S
C762 C763 1.388 . S
C763 H750 0.930 . S
C763 C762 1.388 . S
C763 C764 1.390 . S
C764 C763 1.390 . S
C764 C765 1.394 . S
C764 C770 1.461 1_455 S
C765 C760 1.399 . S
C765 C764 1.394 . S
C765 C766 1.513 1_455 S
C766 C765 1.513 1_655 S
C766 C767 1.511 . S
C766 C768 1.552 1_655 S
C766 C769 1.528 . S
C767 H751 0.959 . S
C767 H752 0.959 . S
C767 H753 0.961 . S
C767 C766 1.511 . S
C768 H754 0.960 . S
C768 H755 0.961 . S
C768 H756 0.959 . S
C768 C766 1.552 1_455 S
C769 C766 1.528 . S
C769 C770 1.399 . S
C769 C774 1.390 . S
C770 C764 1.461 1_655 S
C770 C769 1.399 . S
C770 C771 1.400 . S
C771 H757 0.929 1_655 S
C771 C770 1.400 . S
C771 C772 1.385 . S
C772 H758 0.931 . S
C772 C771 1.385 . S
C772 C773 1.389 . S
C773 C772 1.389 . S
C773 C774 1.387 . S
C774 H759 0.930 . S
C774 C769 1.390 . S
C774 C773 1.387 . S
H775 C787 0.930 . S
H776 C789 0.930 . S
H777 C790 0.930 . S
H778 C794 0.959 . S
H779 C794 0.959 . S
H780 C794 0.961 . S
H781 C795 0.960 . S
H782 C795 0.961 . S
H783 C795 0.959 . S
H784 C798 0.929 . S
H785 C799 0.931 . S
H786 C801 0.930 . S
C787 H775 0.930 . S
C787 C788 1.399 . S
C787 C792 1.399 . S
C788 C787 1.399 . S
C788 C789 1.376 . S
C789 H776 0.930 . S
C789 C788 1.376 . S
C789 C790 1.388 . S
C790 H777 0.930 . S
C790 C789 1.388 . S
C790 C791 1.390 . S
C791 C790 1.390 . S
C791 C792 1.394 . S
C791 C797 1.465 . S
C792 C787 1.399 . S
C792 C791 1.394 . S
C792 C793 1.516 . S
C793 C792 1.516 . S
C793 C794 1.502 . S
C793 C795 1.561 . S
C793 C796 1.526 . S
C794 H778 0.959 . S
C794 H779 0.959 . S
C794 H780 0.961 . S
C794 C793 1.502 . S
C795 H781 0.960 . S
C795 H782 0.961 . S
C795 H783 0.959 . S
C795 C793 1.561 . S
C796 C793 1.526 . S
C796 C797 1.396 . S
C796 C801 1.390 . S
C797 C791 1.465 . S
C797 C796 1.396 . S
C797 C798 1.399 . S
C798 H784 0.929 . S
C798 C797 1.399 . S
C798 C799 1.385 . S
C799 H785 0.931 . S
C799 C798 1.385 . S
C799 C800 1.389 . S
C800 C799 1.389 . S
C800 C801 1.387 . S
C801 H786 0.930 . S
C801 C796 1.390 . S
C801 C800 1.387 . S
H802 C814 0.930 . S
H803 C816 0.930 . S
H804 C817 0.930 . S
H805 C821 0.959 . S
H806 C821 0.959 . S
H807 C821 0.961 . S
H808 C822 0.960 . S
H809 C822 0.961 . S
H810 C822 0.959 . S
H811 C825 0.929 . S
H812 C826 0.931 . S
H813 C828 0.930 . S
C814 H802 0.930 . S
C814 C815 1.399 . S
C814 C819 1.399 . S
C815 C814 1.399 . S
C815 C816 1.376 . S
C816 H803 0.930 . S
C816 C815 1.376 . S
C816 C817 1.388 . S
C817 H804 0.930 . S
C817 C816 1.388 . S
C817 C818 1.390 . S
C818 C817 1.390 . S
C818 C819 1.394 . S
C818 C824 1.465 . S
C819 C814 1.399 . S
C819 C818 1.394 . S
C819 C820 1.516 . S
C820 C819 1.516 . S
C820 C821 1.502 . S
C820 C822 1.561 . S
C820 C823 1.526 . S
C821 H805 0.959 . S
C821 H806 0.959 . S
C821 H807 0.961 . S
C821 C820 1.502 . S
C822 H808 0.960 . S
C822 H809 0.961 . S
C822 H810 0.959 . S
C822 C820 1.561 . S
C823 C820 1.526 . S
C823 C824 1.396 . S
C823 C828 1.390 . S
C824 C818 1.465 . S
C824 C823 1.396 . S
C824 C825 1.399 . S
C825 H811 0.929 . S
C825 C824 1.399 . S
C825 C826 1.385 . S
C826 H812 0.931 . S
C826 C825 1.385 . S
C826 C827 1.389 . S
C827 C826 1.389 . S
C827 C828 1.387 . S
C828 H813 0.930 . S
C828 C823 1.390 . S
C828 C827 1.387 . S
H829 C841 0.930 . S
H830 C843 0.930 1_655 S
H831 C844 0.930 . S
H832 C848 0.959 . S
H833 C848 0.959 . S
H834 C848 0.961 . S
H835 C849 0.960 1_455 S
H836 C849 0.961 . S
H837 C849 0.959 . S
H838 C852 0.929 . S
H839 C853 0.931 . S
H840 C855 0.930 . S
C841 H829 0.930 . S
C841 C842 1.399 . S
C841 C846 1.399 . S
C842 C841 1.399 . S
C842 C843 1.376 . S
C843 H830 0.930 1_455 S
C843 C842 1.376 . S
C843 C844 1.388 1_455 S
C844 H831 0.930 . S
C844 C843 1.388 1_655 S
C844 C845 1.390 . S
C845 C844 1.390 . S
C845 C846 1.394 1_655 S
C845 C851 1.465 . S
C846 C841 1.399 . S
C846 C845 1.394 1_455 S
C846 C847 1.516 . S
C847 C846 1.516 . S
C847 C848 1.502 . S
C847 C849 1.561 1_455 S
C847 C850 1.526 1_455 S
C848 H832 0.959 . S
C848 H833 0.959 . S
C848 H834 0.961 . S
C848 C847 1.502 . S
C849 H835 0.960 1_655 S
C849 H836 0.961 . S
C849 H837 0.959 . S
C849 C847 1.561 1_655 S
C850 C847 1.526 1_655 S
C850 C851 1.396 . S
C850 C855 1.390 . S
C851 C845 1.465 . S
C851 C850 1.396 . S
C851 C852 1.399 . S
C852 H838 0.929 . S
C852 C851 1.399 . S
C852 C853 1.385 . S
C853 H839 0.931 . S
C853 C852 1.385 . S
C853 C854 1.389 . S
C854 C853 1.389 . S
C854 C855 1.387 . S
C855 H840 0.930 . S
C855 C850 1.390 . S
C855 C854 1.387 . S
H856 C868 0.930 1_455 S
H857 C870 0.930 . S
H858 C871 0.930 . S
H859 C875 0.959 . S
H860 C875 0.959 . S
H861 C875 0.961 . S
H862 C876 0.960 . S
H863 C876 0.961 1_554 S
H864 C876 0.945 1_545 S
H865 C879 0.929 . S
H866 C880 0.931 . S
H867 C882 0.930 . S
C868 H856 0.930 1_655 S
C868 C869 1.399 . S
C868 C873 1.399 1_655 S
C869 C868 1.399 . S
C869 C870 1.376 . S
C870 H857 0.930 . S
C870 C869 1.376 . S
C870 C871 1.388 1_565 S
C871 H858 0.930 . S
C871 C870 1.388 1_545 S
C871 C872 1.390 . S
C872 C871 1.390 . S
C872 C873 1.394 1_645 S
C872 C878 1.465 1_556 S
C873 C868 1.399 1_455 S
C873 C872 1.394 1_465 S
C873 C874 1.516 1_556 S
C874 C873 1.516 1_554 S
C874 C875 1.502 . S
C874 C876 1.561 1_554 S
C874 C877 1.526 1_565 S
C875 H859 0.959 . S
C875 H860 0.959 . S
C875 H861 0.961 . S
C875 C874 1.502 . S
C876 H862 0.960 . S
C876 H863 0.961 1_556 S
C876 H864 0.945 1_565 S
C876 C874 1.561 1_556 S
C877 C874 1.526 1_545 S
C877 C878 1.396 1_455 S
C877 C882 1.390 . S
C878 C872 1.465 1_554 S
C878 C877 1.396 1_655 S
C878 C879 1.399 . S
C879 H865 0.929 . S
C879 C878 1.399 . S
C879 C880 1.385 . S
C880 H866 0.931 . S
C880 C879 1.385 . S
C880 C881 1.389 1_655 S
C881 C880 1.389 1_455 S
C881 C882 1.387 . S
C882 H867 0.930 . S
C882 C877 1.390 . S
C882 C881 1.387 . S
H883 C895 0.930 . S
H884 C897 0.930 . S
H885 C898 0.930 1_554 S
H886 C902 0.959 . S
H887 C902 0.959 . S
H888 C902 0.961 . S
H889 C903 0.960 . S
H890 C903 0.961 . S
H891 C903 0.959 . S
H892 C906 0.929 . S
H893 C907 0.931 . S
H894 C909 0.930 . S
C895 H883 0.930 . S
C895 C896 1.399 . S
C895 C900 1.399 . S
C896 C895 1.399 . S
C896 C897 1.376 . S
C897 H884 0.930 . S
C897 C896 1.376 . S
C897 C898 1.388 . S
C898 H885 0.930 1_556 S
C898 C897 1.388 . S
C898 C899 1.390 . S
C899 C898 1.390 . S
C899 C900 1.394 . S
C899 C905 1.462 1_546 S
C900 C895 1.399 . S
C900 C899 1.394 . S
C900 C901 1.516 1_545 S
C901 C900 1.516 1_565 S
C901 C902 1.502 . S
C901 C903 1.561 . S
C901 C904 1.526 1_556 S
C902 H886 0.959 . S
C902 H887 0.959 . S
C902 H888 0.961 . S
C902 C901 1.502 . S
C903 H889 0.960 . S
C903 H890 0.961 . S
C903 H891 0.959 . S
C903 C901 1.561 . S
C904 C901 1.526 1_554 S
C904 C905 1.401 . S
C904 C909 1.390 . S
C905 C899 1.462 1_564 S
C905 C904 1.401 . S
C905 C906 1.398 1_565 S
C906 H892 0.929 . S
C906 C905 1.398 1_545 S
C906 C907 1.385 1_545 S
C907 H893 0.931 . S
C907 C906 1.385 1_565 S
C907 C908 1.389 . S
C908 C907 1.389 . S
C908 C909 1.387 . S
C909 H894 0.930 . S
C909 C904 1.390 . S
C909 C908 1.387 . S
H910 C922 0.930 . S
H911 C924 0.930 . S
H912 C925 0.930 . S
H913 C929 0.959 . S
H914 C929 0.959 . S
H915 C929 0.961 . S
H916 C930 0.960 . S
H917 C930 0.961 . S
H918 C930 0.959 . S
H919 C933 0.929 . S
H920 C934 0.931 . S
H921 C936 0.930 . S
C922 H910 0.930 . S
C922 C923 1.399 . S
C922 C927 1.399 . S
C923 C922 1.399 . S
C923 C924 1.376 . S
C924 H911 0.930 . S
C924 C923 1.376 . S
C924 C925 1.388 . S
C925 H912 0.930 . S
C925 C924 1.388 . S
C925 C926 1.390 . S
C926 C925 1.390 . S
C926 C927 1.394 . S
C926 C932 1.465 1_545 S
C927 C922 1.399 . S
C927 C926 1.394 . S
C927 C928 1.516 1_545 S
C928 C927 1.516 1_565 S
C928 C929 1.502 1_565 S
C928 C930 1.561 . S
C928 C931 1.526 . S
C929 H913 0.959 . S
C929 H914 0.959 . S
C929 H915 0.961 . S
C929 C928 1.502 1_545 S
C930 H916 0.960 . S
C930 H917 0.961 . S
C930 H918 0.959 . S
C930 C928 1.561 . S
C931 C928 1.526 . S
C931 C932 1.396 . S
C931 C936 1.390 . S
C932 C926 1.465 1_565 S
C932 C931 1.396 . S
C932 C933 1.399 . S
C933 H919 0.929 . S
C933 C932 1.399 . S
C933 C934 1.385 . S
C934 H920 0.931 . S
C934 C933 1.385 . S
C934 C935 1.389 . S
C935 C934 1.389 . S
C935 C936 1.387 . S
C936 H921 0.930 . S
C936 C931 1.390 . S
C936 C935 1.387 . S
H937 C949 0.930 . S
H938 C951 0.930 1_545 S
H939 C952 0.930 . S
H940 C956 0.959 . S
H941 C956 0.959 1_655 S
H942 C956 0.961 . S
H943 C957 0.960 . S
H944 C957 0.961 . S
H945 C957 0.959 . S
H946 C960 0.929 1_455 S
H947 C961 0.931 . S
H948 C963 0.930 1_565 S
C949 H937 0.930 . S
C949 C950 1.399 . S
C949 C954 1.399 . S
C950 C949 1.399 . S
C950 C951 1.376 . S
C951 H938 0.930 1_565 S
C951 C950 1.376 . S
C951 C952 1.388 1_565 S
C952 H939 0.930 . S
C952 C951 1.388 1_545 S
C952 C953 1.390 . S
C953 C952 1.390 . S
C953 C954 1.394 1_545 S
C953 C959 1.465 1_455 S
C954 C949 1.399 . S
C954 C953 1.394 1_565 S
C954 C955 1.516 1_455 S
C955 C954 1.516 1_655 S
C955 C956 1.502 1_655 S
C955 C957 1.561 . S
C955 C958 1.526 1_565 S
C956 H940 0.959 . S
C956 H941 0.959 1_455 S
C956 H942 0.961 . S
C956 C955 1.502 1_455 S
C957 H943 0.960 . S
C957 H944 0.961 . S
C957 H945 0.959 . S
C957 C955 1.561 . S
C958 C955 1.526 1_545 S
C958 C959 1.396 . S
C958 C963 1.390 . S
C959 C953 1.465 1_655 S
C959 C958 1.396 . S
C959 C960 1.399 . S
C960 H946 0.929 1_655 S
C960 C959 1.399 . S
C960 C961 1.385 . S
C961 H947 0.931 . S
C961 C960 1.385 . S
C961 C962 1.389 . S
C962 C961 1.389 . S
C962 C963 1.387 . S
C963 H948 0.930 1_545 S
C963 C958 1.390 . S
C963 C962 1.387 . S
H964 C976 0.930 . S
H965 C978 0.930 . S
H966 C979 0.930 . S
H967 C983 0.959 . S
H968 C983 0.959 1_556 S
H969 C983 0.961 . S
H970 C984 0.960 . S
H971 C984 0.961 . S
H972 C984 0.959 . S
H973 C987 0.929 . S
H974 C988 0.931 . S
H975 C990 0.930 . S
C976 H964 0.930 . S
C976 C977 1.399 . S
C976 C981 1.399 . S
C977 C976 1.399 . S
C977 C978 1.376 . S
C978 H965 0.930 . S
C978 C977 1.376 . S
C978 C979 1.388 . S
C979 H966 0.930 . S
C979 C978 1.388 . S
C979 C980 1.390 . S
C980 C979 1.390 . S
C980 C981 1.394 . S
C980 C986 1.465 1_554 S
C981 C976 1.399 . S
C981 C980 1.394 . S
C981 C982 1.516 1_554 S
C982 C981 1.516 1_556 S
C982 C983 1.502 1_556 S
C982 C984 1.561 . S
C982 C985 1.526 . S
C983 H967 0.959 . S
C983 H968 0.959 1_554 S
C983 H969 0.961 . S
C983 C982 1.502 1_554 S
C984 H970 0.960 . S
C984 H971 0.961 . S
C984 H972 0.959 . S
C984 C982 1.561 . S
C985 C982 1.526 . S
C985 C986 1.396 . S
C985 C990 1.390 . S
C986 C980 1.465 1_556 S
C986 C985 1.396 . S
C986 C987 1.399 . S
C987 H973 0.929 . S
C987 C986 1.399 . S
C987 C988 1.385 . S
C988 H974 0.931 . S
C988 C987 1.385 . S
C988 C989 1.389 . S
C989 C988 1.389 . S
C989 C990 1.387 . S
C990 H975 0.930 . S
C990 C985 1.390 . S
C990 C989 1.387 . S
H991 C1003 0.930 . S
H992 C1005 0.930 . S
H993 C1006 0.930 . S
H994 C1010 0.942 1_556 S
H995 C1010 0.947 1_556 S
H996 C1010 0.983 . S
H997 C1011 0.960 . S
H998 C1011 0.961 . S
H999 C1011 0.959 1_455 S
H1000 C1014 0.929 . S
H1001 C1015 0.931 . S
H1002 C1017 0.930 1_655 S
C1003 H991 0.930 . S
C1003 C1004 1.399 . S
C1003 C1008 1.399 . S
C1004 C1003 1.399 . S
C1004 C1005 1.376 1_655 S
C1005 H992 0.930 . S
C1005 C1004 1.376 1_455 S
C1005 C1006 1.388 . S
C1006 H993 0.930 . S
C1006 C1005 1.388 . S
C1006 C1007 1.390 . S
C1007 C1006 1.390 . S
C1007 C1008 1.394 1_455 S
C1007 C1013 1.465 1_554 S
C1008 C1003 1.399 . S
C1008 C1007 1.394 1_655 S
C1008 C1009 1.516 . S
C1009 C1008 1.516 . S
C1009 C1010 1.509 . S
C1009 C1011 1.561 . S
C1009 C1012 1.526 1_654 S
C1010 H994 0.942 1_554 S
C1010 H995 0.947 1_554 S
C1010 H996 0.983 . S
C1010 C1009 1.509 . S
C1011 H997 0.960 . S
C1011 H998 0.961 . S
C1011 H999 0.959 1_655 S
C1011 C1009 1.561 . S
C1012 C1009 1.526 1_456 S
C1012 C1013 1.396 . S
C1012 C1017 1.390 . S
C1013 C1007 1.465 1_556 S
C1013 C1012 1.396 . S
C1013 C1014 1.399 . S
C1014 H1000 0.929 . S
C1014 C1013 1.399 . S
C1014 C1015 1.385 . S
C1015 H1001 0.931 . S
C1015 C1014 1.385 . S
C1015 C1016 1.389 . S
C1016 C1015 1.389 . S
C1016 C1017 1.387 . S
C1017 H1002 0.930 1_455 S
C1017 C1012 1.390 . S
C1017 C1016 1.387 . S
H1018 C1030 0.917 1_455 S
H1019 C1032 0.930 . S
H1020 C1033 0.930 . S
H1021 C1037 0.959 . S
H1022 C1037 0.959 . S
H1023 C1037 0.961 . S
H1024 C1038 0.960 . S
H1025 C1038 0.961 1_455 S
H1026 C1038 0.959 . S
H1027 C1041 0.929 . S
H1028 C1042 0.931 . S
H1029 C1044 0.930 . S
C1030 H1018 0.917 1_655 S
C1030 C1031 1.399 . S
C1030 C1035 1.399 . S
C1031 C1030 1.399 . S
C1031 C1032 1.376 . S
C1032 H1019 0.930 . S
C1032 C1031 1.376 . S
C1032 C1033 1.388 . S
C1033 H1020 0.930 . S
C1033 C1032 1.388 . S
C1033 C1034 1.390 . S
C1034 C1033 1.390 . S
C1034 C1035 1.394 . S
C1034 C1040 1.465 . S
C1035 C1030 1.399 . S
C1035 C1034 1.394 . S
C1035 C1036 1.516 1_655 S
C1036 C1035 1.516 1_455 S
C1036 C1037 1.502 . S
C1036 C1038 1.561 1_455 S
C1036 C1039 1.526 . S
C1037 H1021 0.959 . S
C1037 H1022 0.959 . S
C1037 H1023 0.961 . S
C1037 C1036 1.502 . S
C1038 H1024 0.960 . S
C1038 H1025 0.961 1_655 S
C1038 H1026 0.959 . S
C1038 C1036 1.561 1_655 S
C1039 C1036 1.526 . S
C1039 C1040 1.396 1_455 S
C1039 C1044 1.390 . S
C1040 C1034 1.465 . S
C1040 C1039 1.396 1_655 S
C1040 C1041 1.399 . S
C1041 H1027 0.929 . S
C1041 C1040 1.399 . S
C1041 C1042 1.385 1_655 S
C1042 H1028 0.931 . S
C1042 C1041 1.385 1_455 S
C1042 C1043 1.389 . S
C1043 C1042 1.389 . S
C1043 C1044 1.387 . S
C1044 H1029 0.930 . S
C1044 C1039 1.390 . S
C1044 C1043 1.387 . S
H1045 C1057 0.930 . S
H1046 C1059 0.930 . S
H1047 C1060 0.930 . S
H1048 C1064 0.959 . S
H1049 C1064 0.959 . S
H1050 C1064 0.961 . S
H1051 C1065 0.960 . S
H1052 C1065 0.961 . S
H1053 C1065 0.959 . S
H1054 C1068 0.929 . S
H1055 C1069 0.931 . S
H1056 C1071 0.930 . S
C1057 H1045 0.930 . S
C1057 C1058 1.399 . S
C1057 C1062 1.399 . S
C1058 C1057 1.399 . S
C1058 C1059 1.376 . S
C1059 H1046 0.930 . S
C1059 C1058 1.376 . S
C1059 C1060 1.388 . S
C1060 H1047 0.930 . S
C1060 C1059 1.388 . S
C1060 C1061 1.390 . S
C1061 C1060 1.390 . S
C1061 C1062 1.394 . S
C1061 C1067 1.465 . S
C1062 C1057 1.399 . S
C1062 C1061 1.394 . S
C1062 C1063 1.516 . S
C1063 C1062 1.516 . S
C1063 C1064 1.502 . S
C1063 C1065 1.561 . S
C1063 C1066 1.526 . S
C1064 H1048 0.959 . S
C1064 H1049 0.959 . S
C1064 H1050 0.961 . S
C1064 C1063 1.502 . S
C1065 H1051 0.960 . S
C1065 H1052 0.961 . S
C1065 H1053 0.959 . S
C1065 C1063 1.561 . S
C1066 C1063 1.526 . S
C1066 C1067 1.396 . S
C1066 C1071 1.390 . S
C1067 C1061 1.465 . S
C1067 C1066 1.396 . S
C1067 C1068 1.399 . S
C1068 H1054 0.929 . S
C1068 C1067 1.399 . S
C1068 C1069 1.385 . S
C1069 H1055 0.931 . S
C1069 C1068 1.385 . S
C1069 C1070 1.389 . S
C1070 C1069 1.389 . S
C1070 C1071 1.387 . S
C1071 H1056 0.930 . S
C1071 C1066 1.390 . S
C1071 C1070 1.387 . S
C221 C23 1.499 . S
C233 C10 1.500 . S
C248 C30 1.500 . S
C260 C43 1.500 . S
C275 C56 1.499 . S
C287 C75 1.500 . S
C302 C95 1.499 . S
C314 C82 1.500 . S
C329 C127 1.501 . S
C341 C114 1.499 . S
C356 C147 1.501 . S
C368 C134 1.499 . S
C383 C179 1.499 . S
C395 C166 1.500 . S
C410 C199 1.499 . S
C422 C186 1.501 . S
C437 C42 1.518 . S
C449 C5 1.515 . S
C464 C18 1.510 . S
C476 C29 1.513 . S
C491 C94 1.514 . S
C503 C55 1.511 . S
C518 C81 1.517 . S
C530 C70 1.517 . S
C545 C109 1.510 . S
C557 C146 1.513 . S
C572 C133 1.510 . S
C584 C122 1.513 . S
C599 C198 1.513 . S
C611 C161 1.518 . S
C626 C174 1.514 . S
C638 C185 1.518 . S
C653 C3 1.453 . S
C665 C120 1.451 . S
C680 C16 1.454 . S
C692 C107 1.453 . S
C707 C148 1.453 . S
C719 C31 1.451 . S
C734 C135 1.454 . S
C746 C44 1.452 . S
C761 C172 1.445 . S
C773 C57 1.442 . S
C788 C159 1.452 . S
C800 C68 1.453 . S
C815 C83 1.446 . S
C827 C200 1.442 . S
C842 C96 1.448 . S
C854 C187 1.454 . S
C869 C62 1.518 . S
C881 C4 1.528 . S
C896 C69 1.525 . S
C908 C17 1.521 . S
C923 C88 1.522 . S
C935 C36 1.524 . S
C950 C101 1.519 . S
C962 C49 1.529 . S
C977 C108 1.522 . S
C989 C160 1.527 . S
C1004 C121 1.526 . S
C1016 C173 1.520 . S
C1031 C192 1.526 . S
C1043 C140 1.521 . S
C1058 C205 1.525 . S
C1070 C153 1.521 . S
