# Generated by pormake.
# Topology sow, (4)-cn, num edge types: 1
# Building blocks:
#     Node 0, Type 0, BuildingBlock: QUQFOY_clean_sbu_1, # of connection points: 4
#     Node 1, Type 0, BuildingBlock: QUQFOY_clean_sbu_1, # of connection points: 4
#     Node 2, Type 0, BuildingBlock: QUQFOY_clean_sbu_1, # of connection points: 4
#     Node 3, Type 0, BuildingBlock: QUQFOY_clean_sbu_1, # of connection points: 4
#     Node 4, Type 0, BuildingBlock: QUQFOY_clean_sbu_1, # of connection points: 4
#     Node 5, Type 0, BuildingBlock: QUQFOY_clean_sbu_1, # of connection points: 4
#     Node 6, Type 0, BuildingBlock: QUQFOY_clean_sbu_1, # of connection points: 4
#     Node 7, Type 0, BuildingBlock: QUQFOY_clean_sbu_1, # of connection points: 4
#     Edge 8, Type (0, 0), BuildingBlock: XIVTED_clean_linker_0, # of connection points: 2
#     Edge 9, Type (0, 0), BuildingBlock: XIVTED_clean_linker_0, # of connection points: 2
#     Edge 10, Type (0, 0), BuildingBlock: XIVTED_clean_linker_0, # of connection points: 2
#     Edge 11, Type (0, 0), BuildingBlock: XIVTED_clean_linker_0, # of connection points: 2
#     Edge 12, Type (0, 0), BuildingBlock: XIVTED_clean_linker_0, # of connection points: 2
#     Edge 13, Type (0, 0), BuildingBlock: XIVTED_clean_linker_0, # of connection points: 2
#     Edge 14, Type (0, 0), BuildingBlock: XIVTED_clean_linker_0, # of connection points: 2
#     Edge 15, Type (0, 0), BuildingBlock: XIVTED_clean_linker_0, # of connection points: 2
#     Edge 16, Type (0, 0), BuildingBlock: XIVTED_clean_linker_0, # of connection points: 2
#     Edge 17, Type (0, 0), BuildingBlock: XIVTED_clean_linker_0, # of connection points: 2
#     Edge 18, Type (0, 0), BuildingBlock: XIVTED_clean_linker_0, # of connection points: 2
#     Edge 19, Type (0, 0), BuildingBlock: XIVTED_clean_linker_0, # of connection points: 2
#     Edge 20, Type (0, 0), BuildingBlock: XIVTED_clean_linker_0, # of connection points: 2
#     Edge 21, Type (0, 0), BuildingBlock: XIVTED_clean_linker_0, # of connection points: 2
#     Edge 22, Type (0, 0), BuildingBlock: XIVTED_clean_linker_0, # of connection points: 2
#     Edge 23, Type (0, 0), BuildingBlock: XIVTED_clean_linker_0, # of connection points: 2
# Relax obj value: 0.073
# Max RMSD: 0.123
# Mean RMSD: 0.123
data_MOF--net-sow--node1-QUQFOY_clean_sbu_1--edge1-XIVTED_clean_linker_0
_symmetry_space_group_name_H-M    P1
_symmetry_Int_Tables_number       1
_symmetry_cell_setting            triclinic
loop_
_symmetry_equiv_pos_as_xyz
'x, y, z'
_cell_length_a     35.529153
_cell_length_b     36.852934
_cell_length_c     23.92827
_cell_angle_alpha  90.021831
_cell_angle_beta   90.039391
_cell_angle_gamma 90.010729
loop_
_atom_site_label
_atom_site_type_symbol
_atom_site_fract_x
_atom_site_fract_y
_atom_site_fract_z
_atom_type_partial_charge
O0 O 0.18338 0.23376 0.06711 0.0
Cd1 Cd 0.13982 0.25224 0.01855 0.0
Cd2 Cd 0.1059 0.18582 0.06509 0.0
O3 O 0.15868 0.18386 0.10318 0.0
O4 O 0.16348 0.29342 0.97718 0.0
O5 O 0.13984 0.24542 0.93464 0.0
C6 C 0.15705 0.27623 0.93134 0.0
C7 C 0.07366 0.13125 0.04422 0.0
C8 C 0.18573 0.20646 0.09935 0.0
C9 C 0.07163 0.26046 0.09053 0.0
O10 O 0.07055 0.22606 0.09385 0.0
O11 O 0.0971 0.27659 0.06287 0.0
O12 O 0.07983 0.14144 0.09482 0.0
O13 O 0.08717 0.15128 0.00478 0.0
O14 O 0.3127 0.30321 0.56661 0.0
Cd15 Cd 0.35666 0.28499 0.51871 0.0
Cd16 Cd 0.39003 0.35139 0.56602 0.0
O17 O 0.33706 0.35306 0.60343 0.0
O18 O 0.33332 0.24412 0.4761 0.0
O19 O 0.35733 0.29243 0.43498 0.0
C20 C 0.34007 0.2617 0.43073 0.0
C21 C 0.42217 0.40617 0.54624 0.0
C22 C 0.31009 0.33041 0.59901 0.0
C23 C 0.42445 0.27684 0.59167 0.0
O24 O 0.42538 0.31124 0.59509 0.0
O25 O 0.39919 0.26064 0.5636 0.0
O26 O 0.41565 0.39578 0.59662 0.0
O27 O 0.40907 0.38621 0.50636 0.0
O28 O 0.68606 0.30423 0.93798 0.0
Cd29 Cd 0.64199 0.2855 0.98518 0.0
Cd30 Cd 0.60842 0.35183 0.93846 0.0
O31 O 0.66146 0.35401 0.90137 0.0
O32 O 0.66529 0.24429 0.02696 0.0
O33 O 0.64116 0.29218 0.0691 0.0
C34 C 0.65842 0.26143 0.0727 0.0
C35 C 0.57611 0.40627 0.95966 0.0
C36 C 0.68859 0.33156 0.90584 0.0
C37 C 0.57453 0.27732 0.91143 0.0
O38 O 0.57332 0.31173 0.90849 0.0
O39 O 0.59981 0.26118 0.93949 0.0
O40 O 0.58255 0.39639 0.90901 0.0
O41 O 0.58937 0.38598 0.99901 0.0
O42 O 0.81361 0.23546 0.43822 0.0
Cd43 Cd 0.85763 0.2538 0.48601 0.0
Cd44 Cd 0.89092 0.18705 0.43916 0.0
O45 O 0.83793 0.18552 0.40168 0.0
O46 O 0.83454 0.29517 0.52764 0.0
O47 O 0.85813 0.24709 0.56991 0.0
C48 C 0.84115 0.27799 0.57341 0.0
C49 C 0.92283 0.1321 0.45874 0.0
C50 C 0.81098 0.20818 0.40595 0.0
C51 C 0.92556 0.26148 0.4133 0.0
O52 O 0.92645 0.22707 0.41017 0.0
O53 O 0.90025 0.27781 0.44102 0.0
O54 O 0.91635 0.14262 0.40841 0.0
O55 O 0.90983 0.15203 0.49869 0.0
O56 O 0.81004 0.801 0.94258 0.0
Cd57 Cd 0.85625 0.78801 0.99019 0.0
Cd58 Cd 0.87839 0.85903 0.9493 0.0
O59 O 0.82477 0.85636 0.91423 0.0
O60 O 0.83908 0.74602 0.03631 0.0
O61 O 0.8568 0.79837 0.07295 0.0
C62 C 0.84371 0.76596 0.08003 0.0
C63 C 0.90603 0.91548 0.97251 0.0
C64 C 0.80224 0.82942 0.9148 0.0
C65 C 0.92283 0.79043 0.91596 0.0
O66 O 0.91726 0.82448 0.91446 0.0
O67 O 0.90195 0.76982 0.94505 0.0
O68 O 0.89859 0.90666 0.92169 0.0
O69 O 0.89578 0.89312 0.01114 0.0
O70 O 0.68671 0.73543 0.44177 0.0
Cd71 Cd 0.64082 0.74878 0.48971 0.0
Cd72 Cd 0.61794 0.67766 0.44857 0.0
O73 O 0.6716 0.68009 0.41365 0.0
O74 O 0.65835 0.79114 0.5348 0.0
O75 O 0.64078 0.73919 0.57272 0.0
C76 C 0.65391 0.77164 0.57899 0.0
C77 C 0.58996 0.62116 0.47056 0.0
C78 C 0.69427 0.70691 0.41404 0.0
C79 C 0.57396 0.74667 0.41573 0.0
O80 O 0.57926 0.71259 0.41403 0.0
O81 O 0.59507 0.7671 0.44483 0.0
O82 O 0.59758 0.63032 0.41997 0.0
O83 O 0.60018 0.64321 0.50966 0.0
O84 O 0.31114 0.73541 0.06238 0.0
Cd85 Cd 0.35647 0.74946 0.01383 0.0
Cd86 Cd 0.3808 0.67842 0.05452 0.0
O87 O 0.32762 0.6806 0.09117 0.0
O88 O 0.33802 0.79176 0.96949 0.0
O89 O 0.35599 0.74017 0.93074 0.0
C90 C 0.3424 0.77249 0.92504 0.0
C91 C 0.40867 0.62201 0.03181 0.0
C92 C 0.3044 0.70698 0.09071 0.0
C93 C 0.42454 0.74797 0.0855 0.0
O94 O 0.41992 0.71379 0.08701 0.0
O95 O 0.40239 0.76821 0.05787 0.0
O96 O 0.40201 0.63132 0.08264 0.0
O97 O 0.39757 0.64385 0.99299 0.0
O98 O 0.18555 0.80126 0.56163 0.0
Cd99 Cd 0.13991 0.78763 0.51334 0.0
Cd100 Cd 0.11619 0.85875 0.55478 0.0
O101 O 0.16945 0.85603 0.59114 0.0
O102 O 0.15804 0.74567 0.46792 0.0
O103 O 0.13992 0.79762 0.43049 0.0
C104 C 0.15348 0.76536 0.42394 0.0
C105 C 0.08863 0.91557 0.53355 0.0
C106 C 0.19254 0.82955 0.59022 0.0
C107 C 0.07208 0.7893 0.58529 0.0
O108 O 0.07694 0.82345 0.58695 0.0
O109 O 0.09403 0.76896 0.55751 0.0
O110 O 0.09552 0.90576 0.58409 0.0
O111 O 0.09932 0.89397 0.49414 0.0
H112 H 0.24628 0.28872 0.59809 0.0
H113 H 0.19503 0.33965 0.91314 0.0
H114 H 0.301 0.37409 0.69134 0.0
H115 H 0.15172 0.24561 0.82684 0.0
H116 H 0.22455 0.35981 0.82648 0.0
H117 H 0.20176 0.28083 0.67462 0.0
C118 C 0.24854 0.30636 0.63417 0.0
C119 C 0.27795 0.33173 0.63856 0.0
C120 C 0.20827 0.33497 0.8263 0.0
C121 C 0.22712 0.32241 0.72687 0.0
C122 C 0.19136 0.32339 0.87581 0.0
C123 C 0.17122 0.2906 0.87748 0.0
C124 C 0.20512 0.31363 0.77793 0.0
C125 C 0.16723 0.27089 0.82764 0.0
C126 C 0.22314 0.30167 0.67804 0.0
C127 C 0.27906 0.35399 0.6862 0.0
N128 N 0.18434 0.28254 0.78003 0.0
N129 N 0.2544 0.34843 0.72884 0.0
H130 H 0.19517 0.16106 0.18963 0.0
H131 H 0.34746 0.29257 0.32679 0.0
H132 H 0.24866 0.24933 0.10156 0.0
H133 H 0.3004 0.19943 0.41085 0.0
H134 H 0.31767 0.27245 0.23991 0.0
H135 H 0.24007 0.16909 0.26612 0.0
C136 C 0.21683 0.18159 0.18572 0.0
C137 C 0.21765 0.20493 0.13937 0.0
C138 C 0.31423 0.25616 0.27721 0.0
C139 C 0.26877 0.21473 0.22738 0.0
C140 C 0.33124 0.26768 0.32686 0.0
C141 C 0.32608 0.24791 0.37635 0.0
C142 C 0.29164 0.2248 0.27711 0.0
C143 C 0.30489 0.21574 0.37384 0.0
C144 C 0.24237 0.18632 0.22964 0.0
C145 C 0.24651 0.23101 0.13676 0.0
N146 N 0.28813 0.20544 0.32529 0.0
N147 N 0.27047 0.23556 0.18048 0.0
H148 H 0.74729 0.25003 0.40631 0.0
H149 H 0.69613 0.19795 0.09161 0.0
H150 H 0.80174 0.1641 0.3141 0.0
H151 H 0.65274 0.29224 0.177 0.0
H152 H 0.72545 0.178 0.1786 0.0
H153 H 0.70275 0.25764 0.32965 0.0
C154 C 0.74948 0.23222 0.37044 0.0
C155 C 0.77882 0.20676 0.36637 0.0
C156 C 0.70918 0.20285 0.17852 0.0
C157 C 0.72797 0.21575 0.27791 0.0
C158 C 0.69238 0.2143 0.12882 0.0
C159 C 0.6723 0.24711 0.12679 0.0
C160 C 0.70599 0.22435 0.22671 0.0
C161 C 0.66821 0.26695 0.17648 0.0
C162 C 0.72407 0.23674 0.3265 0.0
C163 C 0.77985 0.18428 0.31899 0.0
N164 N 0.68522 0.25544 0.22427 0.0
N165 N 0.75518 0.18968 0.27626 0.0
H166 H 0.75269 0.29032 0.90692 0.0
H167 H 0.80364 0.34162 0.59203 0.0
H168 H 0.69765 0.37553 0.81389 0.0
H169 H 0.84679 0.24738 0.67783 0.0
H170 H 0.77444 0.36183 0.67893 0.0
H171 H 0.79735 0.28276 0.83048 0.0
C172 C 0.7504 0.30799 0.87092 0.0
C173 C 0.72085 0.3332 0.86653 0.0
C174 C 0.79063 0.33694 0.67895 0.0
C175 C 0.77182 0.32426 0.77834 0.0
C176 C 0.80736 0.32533 0.62931 0.0
C177 C 0.82733 0.29246 0.62742 0.0
C178 C 0.79379 0.31554 0.72723 0.0
C179 C 0.8314 0.27272 0.67719 0.0
C180 C 0.77587 0.30349 0.82711 0.0
C181 C 0.7197 0.35554 0.81901 0.0
N182 N 0.81446 0.28438 0.72492 0.0
N183 N 0.74443 0.35015 0.7764 0.0
H184 H 0.84659 0.80178 0.18063 0.0
H185 H 0.7123 0.65846 0.33066 0.0
H186 H 0.81273 0.70017 0.10626 0.0
H187 H 0.74971 0.75832 0.40706 0.0
H188 H 0.75694 0.66847 0.25446 0.0
H189 H 0.81891 0.78215 0.26917 0.0
C190 C 0.83377 0.77517 0.18308 0.0
C191 C 0.83159 0.7528 0.13572 0.0
C192 C 0.75581 0.6879 0.28837 0.0
C193 C 0.79953 0.73021 0.2369 0.0
C194 C 0.73044 0.68207 0.33215 0.0
C195 C 0.72672 0.70787 0.37499 0.0
C196 C 0.77749 0.71983 0.28727 0.0
C197 C 0.75112 0.73792 0.37457 0.0
C198 C 0.81793 0.76394 0.23368 0.0
C199 C 0.81477 0.71849 0.14151 0.0
N200 N 0.77499 0.74333 0.33103 0.0
N201 N 0.79902 0.70844 0.1909 0.0
H202 H 0.68318 0.83839 0.60391 0.0
H203 H 0.74575 0.77897 0.91073 0.0
H204 H 0.65309 0.73629 0.68006 0.0
H205 H 0.78506 0.87622 0.8289 0.0
H206 H 0.70152 0.76914 0.83426 0.0
H207 H 0.71071 0.85803 0.69241 0.0
C208 C 0.68194 0.82022 0.63943 0.0
C209 C 0.66619 0.78541 0.6343 0.0
C210 C 0.7194 0.79294 0.83338 0.0
C211 C 0.69788 0.80779 0.73591 0.0
C212 C 0.74462 0.7987 0.87723 0.0
C213 C 0.76969 0.8282 0.87593 0.0
C214 C 0.71925 0.81672 0.78758 0.0
C215 C 0.76653 0.85297 0.83158 0.0
C216 C 0.69771 0.8315 0.69 0.0
C217 C 0.66519 0.76322 0.68193 0.0
N218 N 0.74223 0.84636 0.78876 0.0
N219 N 0.68118 0.77464 0.73054 0.0
H220 H 0.31153 0.83874 0.90145 0.0
H221 H 0.2502 0.78036 0.59346 0.0
H222 H 0.34363 0.73779 0.82341 0.0
H223 H 0.20829 0.87584 0.67744 0.0
H224 H 0.29456 0.77088 0.66983 0.0
H225 H 0.28335 0.85839 0.81343 0.0
C226 C 0.31307 0.82084 0.86562 0.0
C227 C 0.32959 0.78633 0.87007 0.0
C228 C 0.27607 0.79421 0.67123 0.0
C229 C 0.29718 0.80872 0.76901 0.0
C230 C 0.25076 0.79978 0.62745 0.0
C231 C 0.22496 0.82866 0.62935 0.0
C232 C 0.27556 0.81758 0.71756 0.0
C233 C 0.22741 0.85307 0.67429 0.0
C234 C 0.29692 0.83211 0.81533 0.0
C235 C 0.33094 0.76447 0.82207 0.0
N236 N 0.25183 0.84665 0.71702 0.0
N237 N 0.3146 0.77589 0.77373 0.0
H238 H 0.28806 0.65906 0.17555 0.0
H239 H 0.15013 0.8004 0.32278 0.0
H240 H 0.24766 0.75703 0.09692 0.0
H241 H 0.18615 0.70011 0.39901 0.0
H242 H 0.17846 0.78072 0.23472 0.0
H243 H 0.24333 0.66872 0.25178 0.0
C244 C 0.26926 0.68216 0.17361 0.0
C245 C 0.27213 0.70757 0.1301 0.0
C246 C 0.17978 0.7628 0.27052 0.0
C247 C 0.22125 0.71914 0.21779 0.0
C248 C 0.16358 0.77406 0.32085 0.0
C249 C 0.16614 0.75209 0.36857 0.0
C250 C 0.19895 0.72944 0.26794 0.0
C251 C 0.18377 0.71811 0.36345 0.0
C252 C 0.24384 0.6878 0.21738 0.0
C253 C 0.24691 0.73697 0.12993 0.0
N254 N 0.19986 0.70804 0.31431 0.0
N255 N 0.22299 0.74222 0.17346 0.0
H256 H 0.99537 0.25754 0.1001 0.0
H257 H 0.0018 0.25847 0.40379 0.0
H258 H 0.09438 0.30706 0.17094 0.0
H259 H 0.90284 0.30759 0.33229 0.0
H260 H 0.0378 0.27676 0.32097 0.0
H261 H 0.95939 0.27635 0.18266 0.0
C262 C 0.00907 0.27362 0.13212 0.0
C263 C 0.04763 0.28106 0.12895 0.0
C264 C 0.00855 0.28475 0.32445 0.0
C265 C 0.00749 0.3009 0.22389 0.0
C266 C 0.98813 0.27437 0.37156 0.0
C267 C 0.94957 0.28185 0.37463 0.0
C268 C 0.98972 0.30108 0.27942 0.0
C269 C 0.93271 0.30178 0.33142 0.0
C270 C 0.98865 0.2843 0.17909 0.0
C271 C 0.0645 0.30126 0.17189 0.0
N272 N 0.95261 0.30965 0.28446 0.0
N273 N 0.0446 0.30943 0.21873 0.0
H274 H 0.40148 0.2306 0.67231 0.0
H275 H 0.59819 0.23173 0.83029 0.0
H276 H 0.50077 0.27947 0.60151 0.0
H277 H 0.49821 0.27924 0.90117 0.0
H278 H 0.5618 0.21479 0.7468 0.0
H279 H 0.43816 0.21393 0.75562 0.0
C280 C 0.43143 0.23614 0.67316 0.0
C281 C 0.44836 0.25632 0.63033 0.0
C282 C 0.54764 0.22749 0.7818 0.0
C283 C 0.49003 0.23706 0.7242 0.0
C284 C 0.56817 0.23693 0.8294 0.0
C285 C 0.55093 0.25679 0.87233 0.0
C286 C 0.5096 0.23719 0.77826 0.0
C287 C 0.51228 0.26381 0.86882 0.0
C288 C 0.45212 0.22687 0.72066 0.0
C289 C 0.48693 0.26379 0.63378 0.0
N290 N 0.49285 0.25425 0.82218 0.0
N291 N 0.50652 0.25439 0.68033 0.0
H292 H 0.00305 0.81611 0.60914 0.0
H293 H 0.91836 0.72649 0.85738 0.0
H294 H 0.07917 0.72924 0.6517 0.0
H295 H 0.98784 0.8213 0.88105 0.0
H296 H 0.95313 0.71306 0.77053 0.0
H297 H 0.96694 0.80321 0.69388 0.0
C298 C 0.01126 0.7934 0.63521 0.0
C299 C 0.04412 0.77378 0.62377 0.0
C300 C 0.96141 0.73596 0.79613 0.0
C301 C 0.00349 0.75949 0.7205 0.0
C302 C 0.9419 0.74354 0.84565 0.0
C303 C 0.95013 0.77525 0.87597 0.0
C304 C 0.98914 0.76021 0.77784 0.0
C305 C 0.98043 0.79681 0.85856 0.0
C306 C 0.99077 0.78616 0.68339 0.0
C307 C 0.05381 0.74479 0.65913 0.0
N308 N 0.99834 0.78931 0.80996 0.0
N309 N 0.03414 0.7391 0.70721 0.0
H310 H 0.49396 0.72187 0.10895 0.0
H311 H 0.57932 0.81027 0.35669 0.0
H312 H 0.4168 0.80767 0.15246 0.0
H313 H 0.50822 0.71674 0.3816 0.0
H314 H 0.54446 0.82395 0.26999 0.0
H315 H 0.53016 0.73504 0.19363 0.0
C316 C 0.48553 0.74441 0.13521 0.0
C317 C 0.45239 0.76366 0.12405 0.0
C318 C 0.53584 0.80131 0.29585 0.0
C319 C 0.49309 0.77822 0.2207 0.0
C320 C 0.55541 0.79358 0.34528 0.0
C321 C 0.54672 0.76213 0.37589 0.0
C322 C 0.50756 0.77751 0.27799 0.0
C323 C 0.51596 0.74103 0.35888 0.0
C324 C 0.50607 0.7518 0.18335 0.0
C325 C 0.4424 0.79243 0.15966 0.0
N326 N 0.49796 0.74869 0.31039 0.0
N327 N 0.46211 0.79822 0.20771 0.0
H328 H 0.04997 0.10491 0.94246 0.0
H329 H 0.93052 0.94076 0.0746 0.0
H330 H 0.04303 0.08375 0.11951 0.0
H331 H 0.93288 0.96576 0.89847 0.0
H332 H 0.9716 0.993 0.09215 0.0
H333 H 0.00797 0.05333 0.92542 0.0
C334 C 0.03983 0.08931 0.97773 0.0
C335 C 0.05013 0.09874 0.03249 0.0
C336 C 0.96297 0.98715 0.04968 0.0
C337 C 0.00172 0.0397 0.01336 0.0
C338 C 0.93937 0.95738 0.03968 0.0
C339 C 0.92814 0.94879 0.98499 0.0
C340 C 0.97561 1.00847 0.00466 0.0
C341 C 0.94072 0.97128 0.94136 0.0
C342 C 0.0157 0.05992 0.96801 0.0
C343 C 0.03592 0.07754 0.07656 0.0
N344 N 0.96382 0.9999 0.9521 0.0
N345 N 0.01248 0.04913 0.06605 0.0
H346 H 0.56448 0.57077 0.39555 0.0
H347 H 0.45113 0.45401 0.62253 0.0
H348 H 0.56386 0.59583 0.57172 0.0
H349 H 0.44748 0.43249 0.44534 0.0
H350 H 0.493 0.50533 0.60503 0.0
H351 H 0.52342 0.51897 0.41351 0.0
C352 C 0.55598 0.56524 0.43817 0.0
C353 C 0.56775 0.5878 0.48222 0.0
C354 C 0.48299 0.48949 0.56991 0.0
C355 C 0.52019 0.52839 0.50303 0.0
C356 C 0.45895 0.46016 0.57983 0.0
C357 C 0.44565 0.43881 0.53531 0.0
C358 C 0.49409 0.49763 0.51501 0.0
C359 C 0.45689 0.44818 0.48095 0.0
C360 C 0.53234 0.53567 0.44833 0.0
C361 C 0.55562 0.5792 0.53648 0.0
N362 N 0.48051 0.47679 0.47237 0.0
N363 N 0.53246 0.55028 0.54531 0.0
H364 H 0.43215 0.59612 0.92963 0.0
H365 H 0.55253 0.43245 0.06153 0.0
H366 H 0.43654 0.57236 0.10609 0.0
H367 H 0.5454 0.45387 0.88456 0.0
H368 H 0.5106 0.48403 0.07876 0.0
H369 H 0.47317 0.54388 0.91203 0.0
C370 C 0.44144 0.57977 0.96462 0.0
C371 C 0.43079 0.58871 0.01942 0.0
C372 C 0.51827 0.47749 0.03615 0.0
C373 C 0.47819 0.52902 0.99967 0.0
C374 C 0.54236 0.4481 0.02632 0.0
C375 C 0.55259 0.43875 0.97152 0.0
C376 C 0.50425 0.49778 0.99088 0.0
C377 C 0.53835 0.46001 0.92753 0.0
C378 C 0.46501 0.55001 0.95459 0.0
C379 C 0.44393 0.56656 0.06313 0.0
N380 N 0.51494 0.48841 0.93814 0.0
N381 N 0.46696 0.53792 0.05234 0.0
H382 H 0.06268 0.96533 0.60912 0.0
H383 H 0.95192 0.08458 0.38219 0.0
H384 H 0.06378 0.94207 0.43237 0.0
H385 H 0.94753 0.10512 0.55961 0.0
H386 H 0.99336 0.03292 0.39953 0.0
H387 H 0.02216 1.01756 0.59138 0.0
C388 C 0.05466 0.97134 0.56643 0.0
C389 C 0.06675 0.94916 0.52215 0.0
C390 C 0.9833 0.04862 0.43474 0.0
C391 C 0.01983 1.00907 0.50157 0.0
C392 C 0.95949 0.07814 0.4249 0.0
C393 C 0.94611 0.09931 0.46954 0.0
C394 C 0.99404 0.04008 0.48967 0.0
C395 C 0.95703 0.08957 0.52392 0.0
C396 C 0.03134 1.00117 0.55638 0.0
C397 C 0.05527 0.95839 0.4678 0.0
N398 N 0.98039 0.06077 0.53241 0.0
N399 N 0.0324 0.98753 0.45909 0.0
loop_
_geom_bond_atom_site_label_1
_geom_bond_atom_site_label_2
_geom_bond_distance
_geom_bond_site_symmetry_2
_ccdc_geom_bond_type
O0 Cd1 2.223 . S
O0 C8 1.315 . S
Cd1 O0 2.223 . S
Cd1 O4 2.297 1_554 S
Cd1 O5 2.439 1_554 S
Cd1 O11 2.240 . S
Cd2 O3 2.240 . S
Cd2 O10 2.223 . S
Cd2 O12 2.297 . S
Cd2 O13 2.439 . S
O3 Cd2 2.240 . S
O3 C8 1.279 . S
O4 Cd1 2.297 1_556 S
O4 C6 1.247 . S
O5 Cd1 2.439 1_556 S
O5 C6 1.208 . S
C6 O4 1.247 . S
C6 O5 1.208 . S
C7 O12 1.247 . S
C7 O13 1.208 . S
C8 O0 1.315 . S
C8 O3 1.279 . S
C9 O10 1.315 . S
C9 O11 1.279 . S
O10 Cd2 2.223 . S
O10 C9 1.315 . S
O11 Cd1 2.240 . S
O11 C9 1.279 . S
O12 Cd2 2.297 . S
O12 C7 1.247 . S
O13 Cd2 2.439 . S
O13 C7 1.208 . S
O14 Cd15 2.223 . S
O14 C22 1.315 . S
Cd15 O14 2.223 . S
Cd15 O18 2.297 . S
Cd15 O19 2.439 . S
Cd15 O25 2.240 . S
Cd16 O17 2.240 . S
Cd16 O24 2.223 . S
Cd16 O26 2.297 . S
Cd16 O27 2.439 . S
O17 Cd16 2.240 . S
O17 C22 1.279 . S
O18 Cd15 2.297 . S
O18 C20 1.247 . S
O19 Cd15 2.439 . S
O19 C20 1.208 . S
C20 O18 1.247 . S
C20 O19 1.208 . S
C21 O26 1.247 . S
C21 O27 1.208 . S
C22 O14 1.315 . S
C22 O17 1.279 . S
C23 O24 1.315 . S
C23 O25 1.279 . S
O24 Cd16 2.223 . S
O24 C23 1.315 . S
O25 Cd15 2.240 . S
O25 C23 1.279 . S
O26 Cd16 2.297 . S
O26 C21 1.247 . S
O27 Cd16 2.439 . S
O27 C21 1.208 . S
O28 Cd29 2.223 . S
O28 C36 1.315 . S
Cd29 O28 2.223 . S
Cd29 O32 2.297 1_556 S
Cd29 O33 2.439 1_556 S
Cd29 O39 2.240 . S
Cd30 O31 2.240 . S
Cd30 O38 2.223 . S
Cd30 O40 2.297 . S
Cd30 O41 2.439 . S
O31 Cd30 2.240 . S
O31 C36 1.279 . S
O32 Cd29 2.297 1_554 S
O32 C34 1.247 . S
O33 Cd29 2.439 1_554 S
O33 C34 1.208 . S
C34 O32 1.247 . S
C34 O33 1.208 . S
C35 O40 1.247 . S
C35 O41 1.208 . S
C36 O28 1.315 . S
C36 O31 1.279 . S
C37 O38 1.315 . S
C37 O39 1.279 . S
O38 Cd30 2.223 . S
O38 C37 1.315 . S
O39 Cd29 2.240 . S
O39 C37 1.279 . S
O40 Cd30 2.297 . S
O40 C35 1.247 . S
O41 Cd30 2.439 . S
O41 C35 1.208 . S
O42 Cd43 2.223 . S
O42 C50 1.315 . S
Cd43 O42 2.223 . S
Cd43 O46 2.297 . S
Cd43 O47 2.439 . S
Cd43 O53 2.240 . S
Cd44 O45 2.240 . S
Cd44 O52 2.223 . S
Cd44 O54 2.297 . S
Cd44 O55 2.439 . S
O45 Cd44 2.240 . S
O45 C50 1.279 . S
O46 Cd43 2.297 . S
O46 C48 1.247 . S
O47 Cd43 2.439 . S
O47 C48 1.208 . S
C48 O46 1.247 . S
C48 O47 1.208 . S
C49 O54 1.247 . S
C49 O55 1.208 . S
C50 O42 1.315 . S
C50 O45 1.279 . S
C51 O52 1.315 . S
C51 O53 1.279 . S
O52 Cd44 2.223 . S
O52 C51 1.315 . S
O53 Cd43 2.240 . S
O53 C51 1.279 . S
O54 Cd44 2.297 . S
O54 C49 1.247 . S
O55 Cd44 2.439 . S
O55 C49 1.208 . S
O56 Cd57 2.223 . S
O56 C64 1.315 . S
Cd57 O56 2.223 . S
Cd57 O60 2.297 1_556 S
Cd57 O61 2.439 1_556 S
Cd57 O67 2.240 . S
Cd58 O59 2.240 . S
Cd58 O66 2.223 . S
Cd58 O68 2.297 . S
Cd58 O69 2.439 . S
O59 Cd58 2.240 . S
O59 C64 1.279 . S
O60 Cd57 2.297 1_554 S
O60 C62 1.247 . S
O61 Cd57 2.439 1_554 S
O61 C62 1.208 . S
C62 O60 1.247 . S
C62 O61 1.208 . S
C63 O68 1.247 . S
C63 O69 1.208 . S
C64 O56 1.315 . S
C64 O59 1.279 . S
C65 O66 1.315 . S
C65 O67 1.279 . S
O66 Cd58 2.223 . S
O66 C65 1.315 . S
O67 Cd57 2.240 . S
O67 C65 1.279 . S
O68 Cd58 2.297 . S
O68 C63 1.247 . S
O69 Cd58 2.439 . S
O69 C63 1.208 . S
O70 Cd71 2.223 . S
O70 C78 1.315 . S
Cd71 O70 2.223 . S
Cd71 O74 2.297 . S
Cd71 O75 2.439 . S
Cd71 O81 2.240 . S
Cd72 O73 2.240 . S
Cd72 O80 2.223 . S
Cd72 O82 2.297 . S
Cd72 O83 2.439 . S
O73 Cd72 2.240 . S
O73 C78 1.279 . S
O74 Cd71 2.297 . S
O74 C76 1.247 . S
O75 Cd71 2.439 . S
O75 C76 1.208 . S
C76 O74 1.247 . S
C76 O75 1.208 . S
C77 O82 1.247 . S
C77 O83 1.208 . S
C78 O70 1.315 . S
C78 O73 1.279 . S
C79 O80 1.315 . S
C79 O81 1.279 . S
O80 Cd72 2.223 . S
O80 C79 1.315 . S
O81 Cd71 2.240 . S
O81 C79 1.279 . S
O82 Cd72 2.297 . S
O82 C77 1.247 . S
O83 Cd72 2.439 . S
O83 C77 1.208 . S
O84 Cd85 2.223 . S
O84 C92 1.315 . S
Cd85 O84 2.223 . S
Cd85 O88 2.297 1_554 S
Cd85 O89 2.439 1_554 S
Cd85 O95 2.240 . S
Cd86 O87 2.240 . S
Cd86 O94 2.223 . S
Cd86 O96 2.297 . S
Cd86 O97 2.439 . S
O87 Cd86 2.240 . S
O87 C92 1.279 . S
O88 Cd85 2.297 1_556 S
O88 C90 1.247 . S
O89 Cd85 2.439 1_556 S
O89 C90 1.208 . S
C90 O88 1.247 . S
C90 O89 1.208 . S
C91 O96 1.247 . S
C91 O97 1.208 . S
C92 O84 1.315 . S
C92 O87 1.279 . S
C93 O94 1.315 . S
C93 O95 1.279 . S
O94 Cd86 2.223 . S
O94 C93 1.315 . S
O95 Cd85 2.240 . S
O95 C93 1.279 . S
O96 Cd86 2.297 . S
O96 C91 1.247 . S
O97 Cd86 2.439 . S
O97 C91 1.208 . S
O98 Cd99 2.223 . S
O98 C106 1.315 . S
Cd99 O98 2.223 . S
Cd99 O102 2.297 . S
Cd99 O103 2.439 . S
Cd99 O109 2.240 . S
Cd100 O101 2.240 . S
Cd100 O108 2.223 . S
Cd100 O110 2.297 . S
Cd100 O111 2.439 . S
O101 Cd100 2.240 . S
O101 C106 1.279 . S
O102 Cd99 2.297 . S
O102 C104 1.247 . S
O103 Cd99 2.439 . S
O103 C104 1.208 . S
C104 O102 1.247 . S
C104 O103 1.208 . S
C105 O110 1.247 . S
C105 O111 1.208 . S
C106 O98 1.315 . S
C106 O101 1.279 . S
C107 O108 1.315 . S
C107 O109 1.279 . S
O108 Cd100 2.223 . S
O108 C107 1.315 . S
O109 Cd99 2.240 . S
O109 C107 1.279 . S
O110 Cd100 2.297 . S
O110 C105 1.247 . S
O111 Cd100 2.439 . S
O111 C105 1.208 . S
H112 C118 0.930 . S
H113 C122 0.930 . S
H114 C127 0.929 . S
H115 C125 0.929 . S
H116 C120 0.929 . S
H117 C126 0.929 . S
C118 H112 0.930 . S
C118 C119 1.367 . S
C118 C126 1.378 . S
C119 C118 1.367 . S
C119 C127 1.433 . S
C120 H116 0.929 . S
C120 C122 1.378 . S
C120 C124 1.350 . S
C121 C124 1.463 . S
C121 C126 1.350 . S
C121 N129 1.427 . S
C122 H113 0.930 . S
C122 C120 1.378 . S
C122 C123 1.367 . S
C123 C122 1.367 . S
C123 C125 1.433 . S
C124 C120 1.350 . S
C124 C121 1.463 . S
C124 N128 1.427 . S
C125 H115 0.929 . S
C125 C123 1.433 . S
C125 N128 1.384 . S
C126 H117 0.929 . S
C126 C118 1.378 . S
C126 C121 1.350 . S
C127 H114 0.929 . S
C127 C119 1.433 . S
C127 N129 1.384 . S
N128 C124 1.427 . S
N128 C125 1.384 . S
N129 C121 1.427 . S
N129 C127 1.384 . S
H130 C136 0.930 . S
H131 C140 0.930 . S
H132 C145 0.929 . S
H133 C143 0.929 . S
H134 C138 0.929 . S
H135 C144 0.929 . S
C136 H130 0.930 . S
C136 C137 1.367 . S
C136 C144 1.378 . S
C137 C136 1.367 . S
C137 C145 1.433 . S
C138 H134 0.929 . S
C138 C140 1.378 . S
C138 C142 1.350 . S
C139 C142 1.463 . S
C139 C144 1.350 . S
C139 N147 1.427 . S
C140 H131 0.930 . S
C140 C138 1.378 . S
C140 C141 1.367 . S
C141 C140 1.367 . S
C141 C143 1.433 . S
C142 C138 1.350 . S
C142 C139 1.463 . S
C142 N146 1.427 . S
C143 H133 0.929 . S
C143 C141 1.433 . S
C143 N146 1.384 . S
C144 H135 0.929 . S
C144 C136 1.378 . S
C144 C139 1.350 . S
C145 H132 0.929 . S
C145 C137 1.433 . S
C145 N147 1.384 . S
N146 C142 1.427 . S
N146 C143 1.384 . S
N147 C139 1.427 . S
N147 C145 1.384 . S
H148 C154 0.930 . S
H149 C158 0.930 . S
H150 C163 0.929 . S
H151 C161 0.929 . S
H152 C156 0.929 . S
H153 C162 0.929 . S
C154 H148 0.930 . S
C154 C155 1.367 . S
C154 C162 1.378 . S
C155 C154 1.367 . S
C155 C163 1.433 . S
C156 H152 0.929 . S
C156 C158 1.378 . S
C156 C160 1.350 . S
C157 C160 1.463 . S
C157 C162 1.350 . S
C157 N165 1.427 . S
C158 H149 0.930 . S
C158 C156 1.378 . S
C158 C159 1.367 . S
C159 C158 1.367 . S
C159 C161 1.433 . S
C160 C156 1.350 . S
C160 C157 1.463 . S
C160 N164 1.427 . S
C161 H151 0.929 . S
C161 C159 1.433 . S
C161 N164 1.384 . S
C162 H153 0.929 . S
C162 C154 1.378 . S
C162 C157 1.350 . S
C163 H150 0.929 . S
C163 C155 1.433 . S
C163 N165 1.384 . S
N164 C160 1.427 . S
N164 C161 1.384 . S
N165 C157 1.427 . S
N165 C163 1.384 . S
H166 C172 0.930 . S
H167 C176 0.930 . S
H168 C181 0.929 . S
H169 C179 0.929 . S
H170 C174 0.929 . S
H171 C180 0.929 . S
C172 H166 0.930 . S
C172 C173 1.367 . S
C172 C180 1.378 . S
C173 C172 1.367 . S
C173 C181 1.433 . S
C174 H170 0.929 . S
C174 C176 1.378 . S
C174 C178 1.350 . S
C175 C178 1.463 . S
C175 C180 1.350 . S
C175 N183 1.427 . S
C176 H167 0.930 . S
C176 C174 1.378 . S
C176 C177 1.367 . S
C177 C176 1.367 . S
C177 C179 1.433 . S
C178 C174 1.350 . S
C178 C175 1.463 . S
C178 N182 1.427 . S
C179 H169 0.929 . S
C179 C177 1.433 . S
C179 N182 1.384 . S
C180 H171 0.929 . S
C180 C172 1.378 . S
C180 C175 1.350 . S
C181 H168 0.929 . S
C181 C173 1.433 . S
C181 N183 1.384 . S
N182 C178 1.427 . S
N182 C179 1.384 . S
N183 C175 1.427 . S
N183 C181 1.384 . S
H184 C190 0.930 . S
H185 C194 0.930 . S
H186 C199 0.929 . S
H187 C197 0.929 . S
H188 C192 0.929 . S
H189 C198 0.929 . S
C190 H184 0.930 . S
C190 C191 1.367 . S
C190 C198 1.378 . S
C191 C190 1.367 . S
C191 C199 1.433 . S
C192 H188 0.929 . S
C192 C194 1.378 . S
C192 C196 1.350 . S
C193 C196 1.463 . S
C193 C198 1.350 . S
C193 N201 1.427 . S
C194 H185 0.930 . S
C194 C192 1.378 . S
C194 C195 1.367 . S
C195 C194 1.367 . S
C195 C197 1.433 . S
C196 C192 1.350 . S
C196 C193 1.463 . S
C196 N200 1.427 . S
C197 H187 0.929 . S
C197 C195 1.433 . S
C197 N200 1.384 . S
C198 H189 0.929 . S
C198 C190 1.378 . S
C198 C193 1.350 . S
C199 H186 0.929 . S
C199 C191 1.433 . S
C199 N201 1.384 . S
N200 C196 1.427 . S
N200 C197 1.384 . S
N201 C193 1.427 . S
N201 C199 1.384 . S
H202 C208 0.930 . S
H203 C212 0.930 . S
H204 C217 0.929 . S
H205 C215 0.929 . S
H206 C210 0.929 . S
H207 C216 0.929 . S
C208 H202 0.930 . S
C208 C209 1.367 . S
C208 C216 1.378 . S
C209 C208 1.367 . S
C209 C217 1.433 . S
C210 H206 0.929 . S
C210 C212 1.378 . S
C210 C214 1.350 . S
C211 C214 1.463 . S
C211 C216 1.350 . S
C211 N219 1.427 . S
C212 H203 0.930 . S
C212 C210 1.378 . S
C212 C213 1.367 . S
C213 C212 1.367 . S
C213 C215 1.433 . S
C214 C210 1.350 . S
C214 C211 1.463 . S
C214 N218 1.427 . S
C215 H205 0.929 . S
C215 C213 1.433 . S
C215 N218 1.384 . S
C216 H207 0.929 . S
C216 C208 1.378 . S
C216 C211 1.350 . S
C217 H204 0.929 . S
C217 C209 1.433 . S
C217 N219 1.384 . S
N218 C214 1.427 . S
N218 C215 1.384 . S
N219 C211 1.427 . S
N219 C217 1.384 . S
H220 C226 0.930 . S
H221 C230 0.930 . S
H222 C235 0.929 . S
H223 C233 0.929 . S
H224 C228 0.929 . S
H225 C234 0.929 . S
C226 H220 0.930 . S
C226 C227 1.367 . S
C226 C234 1.378 . S
C227 C226 1.367 . S
C227 C235 1.433 . S
C228 H224 0.929 . S
C228 C230 1.378 . S
C228 C232 1.350 . S
C229 C232 1.463 . S
C229 C234 1.350 . S
C229 N237 1.427 . S
C230 H221 0.930 . S
C230 C228 1.378 . S
C230 C231 1.367 . S
C231 C230 1.367 . S
C231 C233 1.433 . S
C232 C228 1.350 . S
C232 C229 1.463 . S
C232 N236 1.427 . S
C233 H223 0.929 . S
C233 C231 1.433 . S
C233 N236 1.384 . S
C234 H225 0.929 . S
C234 C226 1.378 . S
C234 C229 1.350 . S
C235 H222 0.929 . S
C235 C227 1.433 . S
C235 N237 1.384 . S
N236 C232 1.427 . S
N236 C233 1.384 . S
N237 C229 1.427 . S
N237 C235 1.384 . S
H238 C244 0.930 . S
H239 C248 0.930 . S
H240 C253 0.929 . S
H241 C251 0.929 . S
H242 C246 0.929 . S
H243 C252 0.929 . S
C244 H238 0.930 . S
C244 C245 1.367 . S
C244 C252 1.378 . S
C245 C244 1.367 . S
C245 C253 1.433 . S
C246 H242 0.929 . S
C246 C248 1.378 . S
C246 C250 1.350 . S
C247 C250 1.463 . S
C247 C252 1.350 . S
C247 N255 1.427 . S
C248 H239 0.930 . S
C248 C246 1.378 . S
C248 C249 1.367 . S
C249 C248 1.367 . S
C249 C251 1.433 . S
C250 C246 1.350 . S
C250 C247 1.463 . S
C250 N254 1.427 . S
C251 H241 0.929 . S
C251 C249 1.433 . S
C251 N254 1.384 . S
C252 H243 0.929 . S
C252 C244 1.378 . S
C252 C247 1.350 . S
C253 H240 0.929 . S
C253 C245 1.433 . S
C253 N255 1.384 . S
N254 C250 1.427 . S
N254 C251 1.384 . S
N255 C247 1.427 . S
N255 C253 1.384 . S
H256 C262 0.930 . S
H257 C266 0.930 . S
H258 C271 0.929 . S
H259 C269 0.929 . S
H260 C264 0.929 . S
H261 C270 0.929 . S
C262 H256 0.930 . S
C262 C263 1.367 . S
C262 C270 1.378 1_455 S
C263 C262 1.367 . S
C263 C271 1.433 . S
C264 H260 0.929 . S
C264 C266 1.378 1_455 S
C264 C268 1.350 1_455 S
C265 C268 1.463 1_455 S
C265 C270 1.350 1_455 S
C265 N273 1.427 . S
C266 H257 0.930 . S
C266 C264 1.378 1_655 S
C266 C267 1.367 . S
C267 C266 1.367 . S
C267 C269 1.433 . S
C268 C264 1.350 1_655 S
C268 C265 1.463 1_655 S
C268 N272 1.427 . S
C269 H259 0.929 . S
C269 C267 1.433 . S
C269 N272 1.384 . S
C270 H261 0.929 . S
C270 C262 1.378 1_655 S
C270 C265 1.350 1_655 S
C271 H258 0.929 . S
C271 C263 1.433 . S
C271 N273 1.384 . S
N272 C268 1.427 . S
N272 C269 1.384 . S
N273 C265 1.427 . S
N273 C271 1.384 . S
H274 C280 0.930 . S
H275 C284 0.930 . S
H276 C289 0.929 . S
H277 C287 0.929 . S
H278 C282 0.929 . S
H279 C288 0.929 . S
C280 H274 0.930 . S
C280 C281 1.367 . S
C280 C288 1.378 . S
C281 C280 1.367 . S
C281 C289 1.433 . S
C282 H278 0.929 . S
C282 C284 1.378 . S
C282 C286 1.350 . S
C283 C286 1.463 . S
C283 C288 1.350 . S
C283 N291 1.427 . S
C284 H275 0.930 . S
C284 C282 1.378 . S
C284 C285 1.367 . S
C285 C284 1.367 . S
C285 C287 1.433 . S
C286 C282 1.350 . S
C286 C283 1.463 . S
C286 N290 1.427 . S
C287 H277 0.929 . S
C287 C285 1.433 . S
C287 N290 1.384 . S
C288 H279 0.929 . S
C288 C280 1.378 . S
C288 C283 1.350 . S
C289 H276 0.929 . S
C289 C281 1.433 . S
C289 N291 1.384 . S
N290 C286 1.427 . S
N290 C287 1.384 . S
N291 C283 1.427 . S
N291 C289 1.384 . S
H292 C298 0.930 . S
H293 C302 0.930 . S
H294 C307 0.929 . S
H295 C305 0.929 . S
H296 C300 0.929 1_455 S
H297 C306 0.929 1_655 S
C298 H292 0.930 . S
C298 C299 1.367 . S
C298 C306 1.378 . S
C299 C298 1.367 . S
C299 C307 1.433 . S
C300 H296 0.929 1_655 S
C300 C302 1.378 . S
C300 C304 1.350 . S
C301 C304 1.463 1_455 S
C301 C306 1.350 . S
C301 N309 1.427 . S
C302 H293 0.930 . S
C302 C300 1.378 . S
C302 C303 1.367 . S
C303 C302 1.367 . S
C303 C305 1.433 . S
C304 C300 1.350 . S
C304 C301 1.463 1_655 S
C304 N308 1.427 . S
C305 H295 0.929 . S
C305 C303 1.433 . S
C305 N308 1.384 . S
C306 H297 0.929 1_455 S
C306 C298 1.378 . S
C306 C301 1.350 . S
C307 H294 0.929 . S
C307 C299 1.433 . S
C307 N309 1.384 . S
N308 C304 1.427 . S
N308 C305 1.384 . S
N309 C301 1.427 . S
N309 C307 1.384 . S
H310 C316 0.930 . S
H311 C320 0.930 . S
H312 C325 0.929 . S
H313 C323 0.929 . S
H314 C318 0.929 . S
H315 C324 0.929 . S
C316 H310 0.930 . S
C316 C317 1.367 . S
C316 C324 1.378 . S
C317 C316 1.367 . S
C317 C325 1.433 . S
C318 H314 0.929 . S
C318 C320 1.378 . S
C318 C322 1.350 . S
C319 C322 1.463 . S
C319 C324 1.350 . S
C319 N327 1.427 . S
C320 H311 0.930 . S
C320 C318 1.378 . S
C320 C321 1.367 . S
C321 C320 1.367 . S
C321 C323 1.433 . S
C322 C318 1.350 . S
C322 C319 1.463 . S
C322 N326 1.427 . S
C323 H313 0.929 . S
C323 C321 1.433 . S
C323 N326 1.384 . S
C324 H315 0.929 . S
C324 C316 1.378 . S
C324 C319 1.350 . S
C325 H312 0.929 . S
C325 C317 1.433 . S
C325 N327 1.384 . S
N326 C322 1.427 . S
N326 C323 1.384 . S
N327 C319 1.427 . S
N327 C325 1.384 . S
H328 C334 0.930 . S
H329 C338 0.930 . S
H330 C343 0.929 . S
H331 C341 0.929 . S
H332 C336 0.929 . S
H333 C342 0.929 . S
C334 H328 0.930 . S
C334 C335 1.367 1_556 S
C334 C342 1.378 . S
C335 C334 1.367 1_554 S
C335 C343 1.433 . S
C336 H332 0.929 . S
C336 C338 1.378 . S
C336 C340 1.344 1_554 S
C337 C340 1.462 1_444 S
C337 C342 1.344 1_554 S
C337 N345 1.434 . S
C338 H329 0.930 . S
C338 C336 1.378 . S
C338 C339 1.367 1_554 S
C339 C338 1.367 1_556 S
C339 C341 1.433 . S
C340 C336 1.344 1_556 S
C340 C337 1.462 1_666 S
C340 N344 1.434 . S
C341 H331 0.929 . S
C341 C339 1.433 . S
C341 N344 1.384 . S
C342 H333 0.929 . S
C342 C334 1.378 . S
C342 C337 1.344 1_556 S
C343 H330 0.929 . S
C343 C335 1.433 . S
C343 N345 1.384 . S
N344 C340 1.434 . S
N344 C341 1.384 . S
N345 C337 1.434 . S
N345 C343 1.384 . S
H346 C352 0.930 . S
H347 C356 0.930 . S
H348 C361 0.929 . S
H349 C359 0.929 . S
H350 C354 0.929 . S
H351 C360 0.929 . S
C352 H346 0.930 . S
C352 C353 1.367 . S
C352 C360 1.378 . S
C353 C352 1.367 . S
C353 C361 1.433 . S
C354 H350 0.929 . S
C354 C356 1.378 . S
C354 C358 1.350 . S
C355 C358 1.463 . S
C355 C360 1.350 . S
C355 N363 1.427 . S
C356 H347 0.930 . S
C356 C354 1.378 . S
C356 C357 1.367 . S
C357 C356 1.367 . S
C357 C359 1.433 . S
C358 C354 1.350 . S
C358 C355 1.463 . S
C358 N362 1.427 . S
C359 H349 0.929 . S
C359 C357 1.433 . S
C359 N362 1.384 . S
C360 H351 0.929 . S
C360 C352 1.378 . S
C360 C355 1.350 . S
C361 H348 0.929 . S
C361 C353 1.433 . S
C361 N363 1.384 . S
N362 C358 1.427 . S
N362 C359 1.384 . S
N363 C355 1.427 . S
N363 C361 1.384 . S
H364 C370 0.932 . S
H365 C374 0.932 . S
H366 C379 0.929 . S
H367 C377 0.929 . S
H368 C372 0.929 . S
H369 C378 0.929 . S
C370 H364 0.932 . S
C370 C371 1.367 . S
C370 C378 1.378 1_554 S
C371 C370 1.367 . S
C371 C379 1.433 . S
C372 H368 0.929 . S
C372 C374 1.378 1_554 S
C372 C376 1.350 1_554 S
C373 C376 1.463 1_554 S
C373 C378 1.350 1_554 S
C373 N381 1.427 . S
C374 H365 0.932 . S
C374 C372 1.378 1_556 S
C374 C375 1.367 . S
C375 C374 1.367 . S
C375 C377 1.433 . S
C376 C372 1.350 1_556 S
C376 C373 1.463 1_556 S
C376 N380 1.427 . S
C377 H367 0.929 . S
C377 C375 1.433 . S
C377 N380 1.384 . S
C378 H369 0.929 . S
C378 C370 1.378 1_556 S
C378 C373 1.350 1_556 S
C379 H366 0.929 . S
C379 C371 1.433 . S
C379 N381 1.384 . S
N380 C376 1.427 . S
N380 C377 1.384 . S
N381 C373 1.427 . S
N381 C379 1.384 . S
H382 C388 0.930 . S
H383 C392 0.930 . S
H384 C397 0.929 . S
H385 C395 0.929 . S
H386 C390 0.929 1_565 S
H387 C396 0.929 1_545 S
C388 H382 0.930 . S
C388 C389 1.367 . S
C388 C396 1.378 . S
C389 C388 1.367 . S
C389 C397 1.433 . S
C390 H386 0.929 1_545 S
C390 C392 1.378 . S
C390 C394 1.350 . S
C391 C394 1.463 1_465 S
C391 C396 1.350 . S
C391 N399 1.427 1_455 S
C392 H383 0.930 . S
C392 C390 1.378 . S
C392 C393 1.367 . S
C393 C392 1.367 . S
C393 C395 1.433 . S
C394 C390 1.350 . S
C394 C391 1.463 1_645 S
C394 N398 1.427 1_655 S
C395 H385 0.929 . S
C395 C393 1.433 . S
C395 N398 1.384 1_655 S
C396 H387 0.929 1_565 S
C396 C388 1.378 . S
C396 C391 1.350 . S
C397 H384 0.929 . S
C397 C389 1.433 . S
C397 N399 1.384 1_455 S
N398 C394 1.427 1_455 S
N398 C395 1.384 1_455 S
N399 C391 1.427 1_655 S
N399 C397 1.384 1_655 S
C119 C22 1.629 . S
C123 C6 1.636 . S
C137 C8 1.635 . S
C141 C20 1.641 . S
C155 C50 1.629 . S
C159 C34 1.636 . S
C173 C36 1.630 . S
C177 C48 1.637 . S
C191 C62 1.640 . S
C195 C78 1.635 . S
C209 C76 1.637 . S
C213 C64 1.629 . S
C227 C90 1.636 . S
C231 C106 1.629 . S
C245 C92 1.634 . S
C249 C104 1.640 . S
C263 C9 0.594 . S
C267 C51 0.572 . S
C281 C23 0.576 . S
C285 C37 0.553 . S
C299 C107 0.561 . S
C303 C65 0.597 . S
C317 C93 0.563 . S
C321 C79 0.597 . S
C335 C7 1.513 . S
C339 C63 1.513 . S
C353 C77 1.501 . S
C357 C21 1.501 . S
C371 C91 1.506 . S
C375 C35 1.506 . S
C389 C105 1.502 . S
C393 C49 1.502 . S
