# Generated by pormake.
# Topology cha, (4)-cn, num edge types: 1
# Building blocks:
#     Node 0, Type 0, BuildingBlock: GALJAG_clean_sbu_0, # of connection points: 4
#     Node 1, Type 0, BuildingBlock: GALJAG_clean_sbu_0, # of connection points: 4
#     Node 2, Type 0, BuildingBlock: GALJAG_clean_sbu_0, # of connection points: 4
#     Node 3, Type 0, BuildingBlock: GALJAG_clean_sbu_0, # of connection points: 4
#     Node 4, Type 0, BuildingBlock: GALJAG_clean_sbu_0, # of connection points: 4
#     Node 5, Type 0, BuildingBlock: GALJAG_clean_sbu_0, # of connection points: 4
#     Node 6, Type 0, BuildingBlock: GALJAG_clean_sbu_0, # of connection points: 4
#     Node 7, Type 0, BuildingBlock: GALJAG_clean_sbu_0, # of connection points: 4
#     Node 8, Type 0, BuildingBlock: GALJAG_clean_sbu_0, # of connection points: 4
#     Node 9, Type 0, BuildingBlock: GALJAG_clean_sbu_0, # of connection points: 4
#     Node 10, Type 0, BuildingBlock: GALJAG_clean_sbu_0, # of connection points: 4
#     Node 11, Type 0, BuildingBlock: GALJAG_clean_sbu_0, # of connection points: 4
#     Node 12, Type 0, BuildingBlock: GALJAG_clean_sbu_0, # of connection points: 4
#     Node 13, Type 0, BuildingBlock: GALJAG_clean_sbu_0, # of connection points: 4
#     Node 14, Type 0, BuildingBlock: GALJAG_clean_sbu_0, # of connection points: 4
#     Node 15, Type 0, BuildingBlock: GALJAG_clean_sbu_0, # of connection points: 4
#     Node 16, Type 0, BuildingBlock: GALJAG_clean_sbu_0, # of connection points: 4
#     Node 17, Type 0, BuildingBlock: GALJAG_clean_sbu_0, # of connection points: 4
#     Node 18, Type 0, BuildingBlock: GALJAG_clean_sbu_0, # of connection points: 4
#     Node 19, Type 0, BuildingBlock: GALJAG_clean_sbu_0, # of connection points: 4
#     Node 20, Type 0, BuildingBlock: GALJAG_clean_sbu_0, # of connection points: 4
#     Node 21, Type 0, BuildingBlock: GALJAG_clean_sbu_0, # of connection points: 4
#     Node 22, Type 0, BuildingBlock: GALJAG_clean_sbu_0, # of connection points: 4
#     Node 23, Type 0, BuildingBlock: GALJAG_clean_sbu_0, # of connection points: 4
#     Node 24, Type 0, BuildingBlock: GALJAG_clean_sbu_0, # of connection points: 4
#     Node 25, Type 0, BuildingBlock: GALJAG_clean_sbu_0, # of connection points: 4
#     Node 26, Type 0, BuildingBlock: GALJAG_clean_sbu_0, # of connection points: 4
#     Node 27, Type 0, BuildingBlock: GALJAG_clean_sbu_0, # of connection points: 4
#     Node 28, Type 0, BuildingBlock: GALJAG_clean_sbu_0, # of connection points: 4
#     Node 29, Type 0, BuildingBlock: GALJAG_clean_sbu_0, # of connection points: 4
#     Node 30, Type 0, BuildingBlock: GALJAG_clean_sbu_0, # of connection points: 4
#     Node 31, Type 0, BuildingBlock: GALJAG_clean_sbu_0, # of connection points: 4
#     Node 32, Type 0, BuildingBlock: GALJAG_clean_sbu_0, # of connection points: 4
#     Node 33, Type 0, BuildingBlock: GALJAG_clean_sbu_0, # of connection points: 4
#     Node 34, Type 0, BuildingBlock: GALJAG_clean_sbu_0, # of connection points: 4
#     Node 35, Type 0, BuildingBlock: GALJAG_clean_sbu_0, # of connection points: 4
#     Edge 36, Type (0, 0), BuildingBlock: AJUNOK_clean_linker_0, # of connection points: 2
#     Edge 37, Type (0, 0), BuildingBlock: AJUNOK_clean_linker_0, # of connection points: 2
#     Edge 38, Type (0, 0), BuildingBlock: AJUNOK_clean_linker_0, # of connection points: 2
#     Edge 39, Type (0, 0), BuildingBlock: AJUNOK_clean_linker_0, # of connection points: 2
#     Edge 40, Type (0, 0), BuildingBlock: AJUNOK_clean_linker_0, # of connection points: 2
#     Edge 41, Type (0, 0), BuildingBlock: AJUNOK_clean_linker_0, # of connection points: 2
#     Edge 42, Type (0, 0), BuildingBlock: AJUNOK_clean_linker_0, # of connection points: 2
#     Edge 43, Type (0, 0), BuildingBlock: AJUNOK_clean_linker_0, # of connection points: 2
#     Edge 44, Type (0, 0), BuildingBlock: AJUNOK_clean_linker_0, # of connection points: 2
#     Edge 45, Type (0, 0), BuildingBlock: AJUNOK_clean_linker_0, # of connection points: 2
#     Edge 46, Type (0, 0), BuildingBlock: AJUNOK_clean_linker_0, # of connection points: 2
#     Edge 47, Type (0, 0), BuildingBlock: AJUNOK_clean_linker_0, # of connection points: 2
#     Edge 48, Type (0, 0), BuildingBlock: AJUNOK_clean_linker_0, # of connection points: 2
#     Edge 49, Type (0, 0), BuildingBlock: AJUNOK_clean_linker_0, # of connection points: 2
#     Edge 50, Type (0, 0), BuildingBlock: AJUNOK_clean_linker_0, # of connection points: 2
#     Edge 51, Type (0, 0), BuildingBlock: AJUNOK_clean_linker_0, # of connection points: 2
#     Edge 52, Type (0, 0), BuildingBlock: AJUNOK_clean_linker_0, # of connection points: 2
#     Edge 53, Type (0, 0), BuildingBlock: AJUNOK_clean_linker_0, # of connection points: 2
#     Edge 54, Type (0, 0), BuildingBlock: AJUNOK_clean_linker_0, # of connection points: 2
#     Edge 55, Type (0, 0), BuildingBlock: AJUNOK_clean_linker_0, # of connection points: 2
#     Edge 56, Type (0, 0), BuildingBlock: AJUNOK_clean_linker_0, # of connection points: 2
#     Edge 57, Type (0, 0), BuildingBlock: AJUNOK_clean_linker_0, # of connection points: 2
#     Edge 58, Type (0, 0), BuildingBlock: AJUNOK_clean_linker_0, # of connection points: 2
#     Edge 59, Type (0, 0), BuildingBlock: AJUNOK_clean_linker_0, # of connection points: 2
#     Edge 60, Type (0, 0), BuildingBlock: AJUNOK_clean_linker_0, # of connection points: 2
#     Edge 61, Type (0, 0), BuildingBlock: AJUNOK_clean_linker_0, # of connection points: 2
#     Edge 62, Type (0, 0), BuildingBlock: AJUNOK_clean_linker_0, # of connection points: 2
#     Edge 63, Type (0, 0), BuildingBlock: AJUNOK_clean_linker_0, # of connection points: 2
#     Edge 64, Type (0, 0), BuildingBlock: AJUNOK_clean_linker_0, # of connection points: 2
#     Edge 65, Type (0, 0), BuildingBlock: AJUNOK_clean_linker_0, # of connection points: 2
#     Edge 66, Type (0, 0), BuildingBlock: AJUNOK_clean_linker_0, # of connection points: 2
#     Edge 67, Type (0, 0), BuildingBlock: AJUNOK_clean_linker_0, # of connection points: 2
#     Edge 68, Type (0, 0), BuildingBlock: AJUNOK_clean_linker_0, # of connection points: 2
#     Edge 69, Type (0, 0), BuildingBlock: AJUNOK_clean_linker_0, # of connection points: 2
#     Edge 70, Type (0, 0), BuildingBlock: AJUNOK_clean_linker_0, # of connection points: 2
#     Edge 71, Type (0, 0), BuildingBlock: AJUNOK_clean_linker_0, # of connection points: 2
#     Edge 72, Type (0, 0), BuildingBlock: AJUNOK_clean_linker_0, # of connection points: 2
#     Edge 73, Type (0, 0), BuildingBlock: AJUNOK_clean_linker_0, # of connection points: 2
#     Edge 74, Type (0, 0), BuildingBlock: AJUNOK_clean_linker_0, # of connection points: 2
#     Edge 75, Type (0, 0), BuildingBlock: AJUNOK_clean_linker_0, # of connection points: 2
#     Edge 76, Type (0, 0), BuildingBlock: AJUNOK_clean_linker_0, # of connection points: 2
#     Edge 77, Type (0, 0), BuildingBlock: AJUNOK_clean_linker_0, # of connection points: 2
#     Edge 78, Type (0, 0), BuildingBlock: AJUNOK_clean_linker_0, # of connection points: 2
#     Edge 79, Type (0, 0), BuildingBlock: AJUNOK_clean_linker_0, # of connection points: 2
#     Edge 80, Type (0, 0), BuildingBlock: AJUNOK_clean_linker_0, # of connection points: 2
#     Edge 81, Type (0, 0), BuildingBlock: AJUNOK_clean_linker_0, # of connection points: 2
#     Edge 82, Type (0, 0), BuildingBlock: AJUNOK_clean_linker_0, # of connection points: 2
#     Edge 83, Type (0, 0), BuildingBlock: AJUNOK_clean_linker_0, # of connection points: 2
#     Edge 84, Type (0, 0), BuildingBlock: AJUNOK_clean_linker_0, # of connection points: 2
#     Edge 85, Type (0, 0), BuildingBlock: AJUNOK_clean_linker_0, # of connection points: 2
#     Edge 86, Type (0, 0), BuildingBlock: AJUNOK_clean_linker_0, # of connection points: 2
#     Edge 87, Type (0, 0), BuildingBlock: AJUNOK_clean_linker_0, # of connection points: 2
#     Edge 88, Type (0, 0), BuildingBlock: AJUNOK_clean_linker_0, # of connection points: 2
#     Edge 89, Type (0, 0), BuildingBlock: AJUNOK_clean_linker_0, # of connection points: 2
#     Edge 90, Type (0, 0), BuildingBlock: AJUNOK_clean_linker_0, # of connection points: 2
#     Edge 91, Type (0, 0), BuildingBlock: AJUNOK_clean_linker_0, # of connection points: 2
#     Edge 92, Type (0, 0), BuildingBlock: AJUNOK_clean_linker_0, # of connection points: 2
#     Edge 93, Type (0, 0), BuildingBlock: AJUNOK_clean_linker_0, # of connection points: 2
#     Edge 94, Type (0, 0), BuildingBlock: AJUNOK_clean_linker_0, # of connection points: 2
#     Edge 95, Type (0, 0), BuildingBlock: AJUNOK_clean_linker_0, # of connection points: 2
#     Edge 96, Type (0, 0), BuildingBlock: AJUNOK_clean_linker_0, # of connection points: 2
#     Edge 97, Type (0, 0), BuildingBlock: AJUNOK_clean_linker_0, # of connection points: 2
#     Edge 98, Type (0, 0), BuildingBlock: AJUNOK_clean_linker_0, # of connection points: 2
#     Edge 99, Type (0, 0), BuildingBlock: AJUNOK_clean_linker_0, # of connection points: 2
#     Edge 100, Type (0, 0), BuildingBlock: AJUNOK_clean_linker_0, # of connection points: 2
#     Edge 101, Type (0, 0), BuildingBlock: AJUNOK_clean_linker_0, # of connection points: 2
#     Edge 102, Type (0, 0), BuildingBlock: AJUNOK_clean_linker_0, # of connection points: 2
#     Edge 103, Type (0, 0), BuildingBlock: AJUNOK_clean_linker_0, # of connection points: 2
#     Edge 104, Type (0, 0), BuildingBlock: AJUNOK_clean_linker_0, # of connection points: 2
#     Edge 105, Type (0, 0), BuildingBlock: AJUNOK_clean_linker_0, # of connection points: 2
#     Edge 106, Type (0, 0), BuildingBlock: AJUNOK_clean_linker_0, # of connection points: 2
#     Edge 107, Type (0, 0), BuildingBlock: AJUNOK_clean_linker_0, # of connection points: 2
# Relax obj value: 0.076
# Max RMSD: 0.060
# Mean RMSD: 0.060
data_MOF--net-cha--node1-GALJAG_clean_sbu_0--edge1-AJUNOK_clean_linker_0
_symmetry_space_group_name_H-M    P1
_symmetry_Int_Tables_number       1
_symmetry_cell_setting            triclinic
loop_
_symmetry_equiv_pos_as_xyz
'x, y, z'
_cell_length_a     42.989632
_cell_length_b     42.975292
_cell_length_c     61.474121
_cell_angle_alpha  90.030269
_cell_angle_beta   90.005923
_cell_angle_gamma 120.00413
loop_
_atom_site_label
_atom_site_type_symbol
_atom_site_fract_x
_atom_site_fract_y
_atom_site_fract_z
_atom_type_partial_charge
In0 In 0.02753 0.2874 0.09275 0.0
O1 O 0.03186 0.32058 0.06196 0.0
O2 O 0.02555 0.26851 0.05855 0.0
C3 C 0.02829 0.32493 0.12813 0.0
C4 C 0.09081 0.28998 0.09731 0.0
C5 C 0.96249 0.22812 0.09721 0.0
O6 O 0.0207 0.33164 0.10943 0.0
O7 O 0.03584 0.30019 0.12856 0.0
O8 O 0.99154 0.22813 0.10013 0.0
O9 O 0.96625 0.25833 0.09234 0.0
C10 C 0.02898 0.29611 0.04919 0.0
O11 O 0.06101 0.26212 0.10104 0.0
O12 O 0.08875 0.317 0.09115 0.0
In13 In 0.76989 0.77052 0.09408 0.0
O14 O 0.73583 0.73679 0.06469 0.0
O15 O 0.78078 0.78877 0.05923 0.0
C16 C 0.73381 0.73519 0.13016 0.0
C17 C 0.76706 0.83106 0.09865 0.0
C18 C 0.83034 0.7663 0.09769 0.0
O19 O 0.72542 0.72077 0.11153 0.0
O20 O 0.75961 0.76699 0.13026 0.0
O21 O 0.82978 0.79508 0.10031 0.0
O22 O 0.80031 0.73948 0.09299 0.0
C23 C 0.75471 0.76114 0.05112 0.0
O24 O 0.79568 0.82986 0.10065 0.0
O25 O 0.73932 0.80122 0.09448 0.0
In26 In 0.29111 0.03039 0.09251 0.0
O27 O 0.31847 0.02163 0.06237 0.0
O28 O 0.28661 0.04624 0.05839 0.0
C29 C 0.32693 0.02896 0.12829 0.0
C30 C 0.22834 0.96806 0.09333 0.0
C31 C 0.29488 0.09406 0.09918 0.0
O32 O 0.34192 0.03812 0.10987 0.0
O33 O 0.29411 0.01954 0.12823 0.0
O34 O 0.2658 0.06446 0.10013 0.0
O35 O 0.32235 0.09146 0.09529 0.0
C36 C 0.30582 0.03545 0.04945 0.0
O37 O 0.23114 0.99804 0.09765 0.0
O38 O 0.25757 0.96941 0.08851 0.0
In39 In 0.28738 0.02983 0.9125 0.0
O40 O 0.26162 0.06334 0.90554 0.0
O41 O 0.31784 0.09117 0.91206 0.0
C42 C 0.22652 0.96522 0.91185 0.0
C43 C 0.30353 0.03515 0.9553 0.0
C44 C 0.32145 0.02875 0.87582 0.0
O45 O 0.22701 0.99435 0.9084 0.0
O46 O 0.25692 0.96861 0.91556 0.0
O47 O 0.3339 0.02898 0.89451 0.0
O48 O 0.29255 0.02947 0.87591 0.0
C49 C 0.29012 0.0932 0.90774 0.0
O50 O 0.31998 0.02661 0.94161 0.0
O51 O 0.27987 0.04079 0.94726 0.0
In52 In 0.02706 0.28545 0.91088 0.0
O53 O 0.02299 0.31466 0.94157 0.0
O54 O 0.03338 0.27153 0.94514 0.0
C55 C 0.0268 0.32335 0.87594 0.0
C56 C 0.96352 0.2243 0.90793 0.0
C57 C 0.09182 0.29106 0.90513 0.0
O58 O 0.03356 0.33667 0.89489 0.0
O59 O 0.01904 0.29099 0.87502 0.0
O60 O 0.06267 0.26185 0.90285 0.0
O61 O 0.08822 0.31759 0.91008 0.0
C62 C 0.02867 0.29498 0.95441 0.0
O63 O 0.99308 0.22629 0.90338 0.0
O64 O 0.96589 0.25361 0.91384 0.0
In65 In 0.76606 0.7676 0.91413 0.0
O66 O 0.73754 0.73324 0.94465 0.0
O67 O 0.77145 0.78962 0.94794 0.0
C68 C 0.72971 0.7295 0.87881 0.0
C69 C 0.82652 0.76388 0.91342 0.0
C70 C 0.76428 0.82803 0.90547 0.0
O71 O 0.71426 0.7264 0.89686 0.0
O72 O 0.76312 0.75063 0.87903 0.0
O73 O 0.79326 0.82726 0.90634 0.0
O74 O 0.73625 0.79813 0.9087 0.0
C75 C 0.751 0.76024 0.9572 0.0
O76 O 0.8258 0.79213 0.90879 0.0
O77 O 0.79651 0.73733 0.91863 0.0
In78 In 0.02642 0.76968 0.91546 0.0
O79 O 0.99082 0.79359 0.90959 0.0
O80 O 0.96535 0.73733 0.91584 0.0
C81 C 0.091 0.83026 0.91334 0.0
C82 C 0.023 0.75554 0.95835 0.0
C83 C 0.02621 0.73516 0.87879 0.0
O84 O 0.0618 0.82979 0.91011 0.0
O85 O 0.08762 0.8 0.91755 0.0
O86 O 0.02786 0.72358 0.89744 0.0
O87 O 0.02439 0.7635 0.87895 0.0
C88 C 0.96175 0.76428 0.91205 0.0
O89 O 0.02961 0.73747 0.94474 0.0
O90 O 0.01859 0.77992 0.95019 0.0
In91 In 0.28748 0.28928 0.91398 0.0
O92 O 0.32106 0.31587 0.94511 0.0
O93 O 0.26498 0.27992 0.94784 0.0
C94 C 0.32654 0.32851 0.87965 0.0
C95 C 0.28933 0.22786 0.91071 0.0
C96 C 0.22773 0.29301 0.90646 0.0
O97 O 0.33047 0.34202 0.89844 0.0
O98 O 0.30426 0.29539 0.87865 0.0
O99 O 0.22832 0.26397 0.90542 0.0
O100 O 0.25756 0.32032 0.91099 0.0
C101 C 0.29394 0.30055 0.95747 0.0
O102 O 0.26191 0.23018 0.9063 0.0
O103 O 0.31622 0.25685 0.91706 0.0
In104 In 0.76682 0.02575 0.91273 0.0
O105 O 0.74071 0.03447 0.94347 0.0
O106 O 0.77282 0.01005 0.9467 0.0
C107 C 0.72586 0.02315 0.87873 0.0
C108 C 0.82833 0.08901 0.90966 0.0
C109 C 0.76486 0.96315 0.90493 0.0
O110 O 0.71286 0.0119 0.89742 0.0
O111 O 0.75951 0.03758 0.87766 0.0
O112 O 0.79388 0.99287 0.90547 0.0
O113 O 0.73697 0.96523 0.90813 0.0
C114 C 0.75354 0.02038 0.95603 0.0
O115 O 0.82577 0.05936 0.90462 0.0
O116 O 0.7995 0.08685 0.91634 0.0
In117 In 0.76726 0.02812 0.09327 0.0
O118 O 0.7938 0.99549 0.1004 0.0
O119 O 0.73762 0.96682 0.09361 0.0
C120 C 0.82721 0.09319 0.09642 0.0
C121 C 0.75355 0.02203 0.05014 0.0
C122 C 0.73049 0.02663 0.12923 0.0
O123 O 0.82684 0.06411 0.0998 0.0
O124 O 0.79712 0.08955 0.09142 0.0
O125 O 0.7217 0.032 0.11055 0.0
O126 O 0.75709 0.02191 0.12941 0.0
C127 C 0.76559 0.96537 0.0982 0.0
O128 O 0.73423 0.02767 0.06328 0.0
O129 O 0.77913 0.02024 0.05877 0.0
In130 In 0.02971 0.77116 0.09527 0.0
O131 O 0.03651 0.74183 0.06552 0.0
O132 O 0.01538 0.77675 0.06106 0.0
C133 C 0.0322 0.73685 0.13143 0.0
C134 C 0.09255 0.83339 0.0952 0.0
C135 C 0.96533 0.76621 0.1011 0.0
O136 O 0.02362 0.72143 0.11308 0.0
O137 O 0.04018 0.76929 0.13116 0.0
O138 O 0.99462 0.79557 0.10245 0.0
O139 O 0.96865 0.7391 0.0974 0.0
C140 C 0.02428 0.75582 0.0524 0.0
O141 O 0.06301 0.83125 0.09997 0.0
O142 O 0.09048 0.80378 0.09052 0.0
In143 In 0.28631 0.2872 0.09504 0.0
O144 O 0.22735 0.26199 0.10276 0.0
O145 O 0.25543 0.31756 0.09437 0.0
C146 C 0.292 0.22768 0.09867 0.0
C147 C 0.29395 0.2993 0.05176 0.0
C148 C 0.32264 0.32401 0.13073 0.0
O149 O 0.26288 0.22753 0.10145 0.0
O150 O 0.31841 0.25799 0.09398 0.0
O151 O 0.3359 0.333 0.11184 0.0
O152 O 0.29129 0.29741 0.13125 0.0
C153 C 0.22591 0.29028 0.09962 0.0
O154 O 0.3183 0.32 0.06487 0.0
O155 O 0.26723 0.27312 0.06053 0.0
In156 In 0.68938 0.61967 0.42721 0.0
O157 O 0.69836 0.65457 0.39647 0.0
O158 O 0.67305 0.59793 0.39331 0.0
C159 C 0.69201 0.65935 0.46198 0.0
C160 C 0.75137 0.61877 0.42902 0.0
C161 C 0.62579 0.56047 0.43529 0.0
O162 O 0.68164 0.66352 0.44351 0.0
O163 O 0.70192 0.63633 0.46244 0.0
O164 O 0.65522 0.56062 0.43572 0.0
O165 O 0.62855 0.59052 0.43111 0.0
C166 C 0.68397 0.62761 0.38393 0.0
O167 O 0.72125 0.59181 0.43335 0.0
O168 O 0.75028 0.64656 0.42355 0.0
In169 In 0.43478 0.10349 0.42562 0.0
O170 O 0.40379 0.06402 0.39743 0.0
O171 O 0.4341 0.12002 0.39099 0.0
C172 C 0.4031 0.06965 0.46314 0.0
C173 C 0.42908 0.1625 0.43005 0.0
C174 C 0.49822 0.10457 0.42503 0.0
O175 O 0.39003 0.05627 0.44476 0.0
O176 O 0.43165 0.09954 0.46236 0.0
O177 O 0.49577 0.13231 0.42772 0.0
O178 O 0.46852 0.07606 0.42256 0.0
C179 C 0.41386 0.089 0.38359 0.0
O180 O 0.45875 0.16311 0.43105 0.0
O181 O 0.4019 0.13167 0.42726 0.0
In182 In 0.95607 0.35966 0.42614 0.0
O183 O 0.9847 0.35423 0.39551 0.0
O184 O 0.94563 0.37041 0.39204 0.0
C185 C 0.99431 0.36232 0.46166 0.0
C186 C 0.89642 0.29483 0.42914 0.0
C187 C 0.95821 0.42289 0.43121 0.0
O188 O 0.00792 0.36874 0.44279 0.0
O189 O 0.96172 0.35375 0.46221 0.0
O190 O 0.92962 0.39298 0.43305 0.0
O191 O 0.98596 0.4208 0.4273 0.0
C192 C 0.96799 0.36405 0.38282 0.0
O193 O 0.89696 0.32387 0.4332 0.0
O194 O 0.92629 0.29843 0.42344 0.0
In195 In 0.9518 0.36065 0.24571 0.0
O196 O 0.92837 0.39676 0.24002 0.0
O197 O 0.98439 0.42169 0.24686 0.0
C198 C 0.89137 0.29621 0.2418 0.0
C199 C 0.96507 0.36352 0.28878 0.0
C200 C 0.98745 0.3616 0.20937 0.0
O201 O 0.89188 0.32559 0.23935 0.0
O202 O 0.92143 0.29936 0.24634 0.0
O203 O -0.00255 0.3579 0.22809 0.0
O204 O 0.9602 0.36533 0.2093 0.0
C205 C 0.95769 0.42564 0.24297 0.0
O206 O 0.98429 0.35848 0.27523 0.0
O207 O 0.93955 0.36595 0.28055 0.0
In208 In 0.69482 0.62006 0.24685 0.0
O209 O 0.65905 0.56086 0.2399 0.0
O210 O 0.6338 0.59178 0.2464 0.0
C211 C 0.75941 0.62415 0.24382 0.0
C212 C 0.68926 0.62845 0.28991 0.0
C213 C 0.69566 0.6566 0.21101 0.0
O214 O 0.73015 0.59536 0.24083 0.0
O215 O 0.75604 0.65088 0.24851 0.0
O216 O 0.699 0.66962 0.22991 0.0
O217 O 0.69142 0.62542 0.2105 0.0
C218 C 0.63004 0.56129 0.24214 0.0
O219 O 0.69576 0.65353 0.27667 0.0
O220 O 0.68667 0.60058 0.28142 0.0
In221 In 0.43288 0.10162 0.24827 0.0
O222 O 0.40463 0.06249 0.27709 0.0
O223 O 0.42966 0.11874 0.28235 0.0
C224 C 0.40061 0.06662 0.21109 0.0
C225 C 0.49601 0.10275 0.24961 0.0
C226 C 0.42965 0.16198 0.24251 0.0
O227 O 0.38406 0.05926 0.22904 0.0
O228 O 0.4331 0.09074 0.21223 0.0
O229 O 0.45893 0.16174 0.24274 0.0
O230 O 0.40187 0.13145 0.2446 0.0
C231 C 0.4121 0.08778 0.29037 0.0
O232 O 0.49353 0.13026 0.24585 0.0
O233 O 0.46639 0.07439 0.25288 0.0
In234 In 0.69284 0.10091 0.2467 0.0
O235 O 0.6607 0.12932 0.24354 0.0
O236 O 0.6321 0.07373 0.25134 0.0
C237 C 0.75662 0.1607 0.24009 0.0
C238 C 0.6992 0.08925 0.28926 0.0
C239 C 0.69069 0.06375 0.21068 0.0
O240 O 0.72714 0.1605 0.23941 0.0
O241 O 0.75375 0.13042 0.24361 0.0
O242 O 0.69912 0.05728 0.22914 0.0
O243 O 0.68234 0.08796 0.21071 0.0
C244 C 0.63081 0.102 0.24779 0.0
O245 O 0.68311 0.06333 0.27612 0.0
O246 O 0.71164 0.11982 0.28079 0.0
In247 In 0.9554 0.6219 0.24801 0.0
O248 O 0.93089 0.56236 0.24152 0.0
O249 O 0.98566 0.59117 0.25134 0.0
C250 C 0.89531 0.62566 0.24221 0.0
C251 C 0.96349 0.63431 0.29128 0.0
C252 C 0.99254 0.65902 0.21263 0.0
O253 O 0.8958 0.59658 0.24077 0.0
O254 O 0.92547 0.65304 0.24609 0.0
O255 O -0.00071 0.67299 0.23141 0.0
O256 O 0.96796 0.62662 0.21209 0.0
C257 C 0.95909 0.56138 0.24583 0.0
O258 O 0.98997 0.65025 0.27849 0.0
O259 O 0.93429 0.61288 0.28213 0.0
In260 In 0.43522 0.36254 0.24833 0.0
O261 O 0.40089 0.36131 0.27781 0.0
O262 O 0.45388 0.37101 0.28313 0.0
C263 C 0.40044 0.36298 0.2119 0.0
C264 C 0.49459 0.42682 0.24361 0.0
C265 C 0.43111 0.29788 0.24523 0.0
O266 O 0.38617 0.35833 0.23051 0.0
O267 O 0.43171 0.3675 0.21198 0.0
O268 O 0.46008 0.32719 0.24295 0.0
O269 O 0.40416 0.30119 0.24928 0.0
C270 C 0.42568 0.368 0.29132 0.0
O271 O 0.49453 0.39751 0.24168 0.0
O272 O 0.46431 0.42365 0.24776 0.0
In273 In 0.43188 0.36147 0.42835 0.0
O274 O 0.39738 0.35638 0.39801 0.0
O275 O 0.45335 0.37625 0.39437 0.0
C276 C 0.39589 0.3599 0.46467 0.0
C277 C 0.42823 0.29722 0.42905 0.0
C278 C 0.49127 0.42518 0.43572 0.0
O279 O 0.38897 0.36867 0.4464 0.0
O280 O 0.41979 0.35115 0.46416 0.0
O281 O 0.49134 0.3958 0.43599 0.0
O282 O 0.461 0.42222 0.43202 0.0
C283 C 0.42413 0.36858 0.3853 0.0
O284 O 0.45677 0.32636 0.43294 0.0
O285 O 0.40134 0.30053 0.42459 0.0
In286 In 0.69539 0.10254 0.42567 0.0
O287 O 0.68814 0.06482 0.39675 0.0
O288 O 0.70989 0.12068 0.39106 0.0
C289 C 0.69198 0.06676 0.4625 0.0
C290 C 0.76073 0.1605 0.43077 0.0
C291 C 0.63325 0.10395 0.42551 0.0
O292 O 0.69216 0.05423 0.44391 0.0
O293 O 0.69366 0.09685 0.46223 0.0
O294 O 0.66349 0.13152 0.42846 0.0
O295 O 0.63426 0.07539 0.42272 0.0
C296 C 0.70047 0.09025 0.3831 0.0
O297 O 0.73196 0.16146 0.43275 0.0
O298 O 0.75651 0.12978 0.42663 0.0
In299 In 0.94643 0.61456 0.42811 0.0
O300 O 0.98312 0.64743 0.39936 0.0
O301 O 0.92944 0.60618 0.39311 0.0
C302 C 0.97827 0.64861 0.46544 0.0
C303 C 0.88527 0.61652 0.43144 0.0
C304 C 0.95277 0.5553 0.43012 0.0
O305 O 0.99077 0.6624 0.44703 0.0
O306 O 0.9502 0.61828 0.4647 0.0
O307 O 0.92328 0.55451 0.43263 0.0
O308 O 0.97923 0.58614 0.42651 0.0
C309 C 0.95875 0.63038 0.38539 0.0
O310 O 0.88653 0.5879 0.43324 0.0
O311 O 0.91526 0.64455 0.42821 0.0
In312 In 0.3594 0.95069 0.76011 0.0
O313 O 0.36402 0.98341 0.72898 0.0
O314 O 0.34668 0.92786 0.72628 0.0
C315 C 0.36133 0.98983 0.79493 0.0
C316 C 0.4236 0.95449 0.76209 0.0
C317 C 0.29571 0.89171 0.76836 0.0
O318 O 0.35153 0.99444 0.77636 0.0
O319 O 0.37082 0.96648 0.79551 0.0
O320 O 0.32504 0.89163 0.76893 0.0
O321 O 0.29869 0.92176 0.76389 0.0
C322 C 0.35347 0.95637 0.71662 0.0
O323 O 0.39444 0.92605 0.76612 0.0
O324 O 0.42031 0.98115 0.75688 0.0
In325 In 0.10284 0.43831 0.75883 0.0
O326 O 0.07068 0.40374 0.72921 0.0
O327 O 0.11257 0.45763 0.72431 0.0
C328 C 0.06864 0.40314 0.7954 0.0
C329 C 0.09643 0.49686 0.76323 0.0
C330 C 0.16406 0.43535 0.76006 0.0
O331 O 0.05784 0.3895 0.77673 0.0
O332 O 0.09619 0.4339 0.79532 0.0
O333 O 0.16326 0.46386 0.76354 0.0
O334 O 0.13384 0.40821 0.75615 0.0
C335 C 0.08842 0.42897 0.71586 0.0
O336 O 0.12588 0.4974 0.76574 0.0
O337 O 0.06983 0.46633 0.75887 0.0
In338 In 0.62509 0.69336 0.75749 0.0
O339 O 0.66648 0.70783 0.72976 0.0
O340 O 0.61222 0.66858 0.72384 0.0
C341 C 0.65763 0.69624 0.79565 0.0
C342 C 0.56409 0.63098 0.76346 0.0
C343 C 0.62464 0.75583 0.75448 0.0
O344 O 0.66895 0.69115 0.77778 0.0
O345 O 0.63055 0.70005 0.79404 0.0
O346 O 0.5963 0.72583 0.75644 0.0
O347 O 0.6531 0.75421 0.75404 0.0
C348 C 0.64345 0.68668 0.71626 0.0
O349 O 0.56477 0.66058 0.76122 0.0
O350 O 0.59447 0.63299 0.76272 0.0
In351 In 0.62421 0.69743 0.58207 0.0
O352 O 0.59418 0.72833 0.58401 0.0
O353 O 0.65117 0.75846 0.5844 0.0
C354 C 0.56042 0.63741 0.5759 0.0
C355 C 0.6441 0.68981 0.62287 0.0
C356 C 0.65766 0.69946 0.54436 0.0
O357 O 0.56323 0.66732 0.58067 0.0
O358 O 0.58997 0.63795 0.57404 0.0
O359 O 0.66541 0.6903 0.56217 0.0
O360 O 0.63389 0.70826 0.54585 0.0
C361 C 0.62204 0.75891 0.5848 0.0
O362 O 0.66456 0.71572 0.61075 0.0
O363 O 0.61489 0.66771 0.61408 0.0
In364 In 0.35901 0.95039 0.57871 0.0
O365 O 0.35778 0.98129 0.60937 0.0
O366 O 0.35465 0.93061 0.61304 0.0
C367 C 0.36186 0.99012 0.54393 0.0
C368 C 0.29407 0.89196 0.57341 0.0
C369 C 0.42223 0.95181 0.57442 0.0
O370 O 0.36868 0.00306 0.56297 0.0
O371 O 0.35274 0.95741 0.54281 0.0
O372 O 0.3923 0.92397 0.57115 0.0
O373 O 0.42028 0.97907 0.57992 0.0
C374 C 0.35468 0.95684 0.62218 0.0
O375 O 0.3231 0.89216 0.5699 0.0
O376 O 0.29773 0.92178 0.57944 0.0
In377 In 0.10665 0.44239 0.57911 0.0
O378 O 0.07734 0.40533 0.60849 0.0
O379 O 0.10929 0.46162 0.61339 0.0
C380 C 0.07268 0.40518 0.54287 0.0
C381 C 0.16924 0.44248 0.58058 0.0
C382 C 0.10279 0.50223 0.57222 0.0
O383 O 0.05697 0.39908 0.56107 0.0
O384 O 0.10531 0.42912 0.54331 0.0
O385 O 0.13181 0.50165 0.57098 0.0
O386 O 0.07545 0.47226 0.57652 0.0
C387 C 0.08945 0.43128 0.6218 0.0
O388 O 0.16718 0.47004 0.57614 0.0
O389 O 0.13943 0.4145 0.58414 0.0
In390 In 0.36516 0.43876 0.5832 0.0
O391 O 0.33386 0.46813 0.58017 0.0
O392 O 0.30439 0.4125 0.5876 0.0
C393 C 0.42525 0.50223 0.57629 0.0
C394 C 0.3734 0.42337 0.62504 0.0
C395 C 0.36295 0.40164 0.54703 0.0
O396 O 0.39544 0.49962 0.58104 0.0
O397 O 0.42461 0.47255 0.57478 0.0
O398 O 0.37307 0.3963 0.56524 0.0
O399 O 0.35338 0.42491 0.54735 0.0
C400 C 0.30363 0.44101 0.58394 0.0
O401 O 0.34884 0.40048 0.61297 0.0
O402 O 0.39352 0.45281 0.61581 0.0
In403 In 0.62117 0.95625 0.58112 0.0
O404 O 0.59252 0.89537 0.58134 0.0
O405 O 0.64931 0.92341 0.58468 0.0
C406 C 0.5589 0.95504 0.57374 0.0
C407 C 0.63572 0.97785 0.62313 0.0
C408 C 0.65673 0.99109 0.54465 0.0
O409 O 0.56152 0.92705 0.57335 0.0
O410 O 0.58799 0.98378 0.57747 0.0
O411 O 0.66131 0.00701 0.56266 0.0
O412 O 0.63528 0.95776 0.54537 0.0
C413 C 0.62064 0.89342 0.58368 0.0
O414 O 0.66045 0.98281 0.61004 0.0
O415 O 0.60487 0.96299 0.61484 0.0
In416 In 0.0963 0.69634 0.58053 0.0
O417 O 0.06639 0.70029 0.61091 0.0
O418 O 0.11401 0.69761 0.61512 0.0
C419 C 0.05459 0.69443 0.54698 0.0
C420 C 0.15691 0.75935 0.57501 0.0
C421 C 0.09734 0.63451 0.57439 0.0
O422 O 0.08833 0.71169 0.54653 0.0
O423 O 0.04142 0.679 0.56487 0.0
O424 O 0.12397 0.6651 0.57077 0.0
O425 O 0.06983 0.63497 0.58104 0.0
C426 C 0.0889 0.69994 0.62401 0.0
O427 O 0.1542 0.72938 0.57064 0.0
O428 O 0.12847 0.75767 0.58217 0.0
In429 In 0.09888 0.69546 0.76165 0.0
O430 O 0.06441 0.69064 0.73142 0.0
O431 O 0.11971 0.70776 0.7274 0.0
C432 C 0.06119 0.69403 0.79707 0.0
C433 C 0.09483 0.63111 0.76297 0.0
C434 C 0.1594 0.75828 0.76918 0.0
O435 O 0.05674 0.70476 0.77878 0.0
O436 O 0.08364 0.68339 0.79708 0.0
O437 O 0.15843 0.72843 0.76945 0.0
O438 O 0.1296 0.7563 0.76539 0.0
C439 C 0.09056 0.70062 0.71843 0.0
O440 O 0.12315 0.66013 0.76741 0.0
O441 O 0.06828 0.63454 0.75774 0.0
In442 In 0.36357 0.43816 0.76043 0.0
O443 O 0.39846 0.49825 0.76462 0.0
O444 O 0.42421 0.46677 0.76406 0.0
C445 C 0.29958 0.43577 0.7598 0.0
C446 C 0.3711 0.4241 0.71849 0.0
C447 C 0.36235 0.40565 0.79823 0.0
O448 O 0.32893 0.46446 0.76278 0.0
O449 O 0.30258 0.40834 0.75702 0.0
O450 O 0.36342 0.39247 0.78002 0.0
O451 O 0.36157 0.43448 0.79711 0.0
C452 C 0.42757 0.49768 0.76553 0.0
O453 O 0.35601 0.39905 0.73226 0.0
O454 O 0.38175 0.45509 0.72591 0.0
In455 In 0.61849 0.95055 0.75793 0.0
O456 O 0.55841 0.92492 0.76256 0.0
O457 O 0.58933 0.98213 0.76137 0.0
C458 C 0.62127 0.88938 0.75469 0.0
C459 C 0.63386 0.974 0.71648 0.0
C460 C 0.64995 0.97835 0.79662 0.0
O461 O 0.59237 0.88952 0.75799 0.0
O462 O 0.6487 0.92014 0.75299 0.0
O463 O 0.6621 0.99554 0.77904 0.0
O464 O 0.62267 0.94771 0.79438 0.0
C465 C 0.5586 0.95443 0.76305 0.0
O466 O 0.65847 0.98385 0.73058 0.0
O467 O 0.60267 0.95322 0.72346 0.0
C468 C 0.15741 0.3205 0.09234 0.0
C469 C 0.12531 0.29046 0.09941 0.0
C470 C 0.19008 0.32064 0.09301 0.0
C471 C 0.19179 0.29074 0.10075 0.0
H472 H 0.15725 0.34383 0.08583 0.0
H473 H 0.21397 0.34404 0.08693 0.0
S474 S 0.11588 0.2065 0.12282 0.0
N475 N 0.09766 0.23083 0.11561 0.0
N476 N 0.15893 0.23111 0.11684 0.0
C477 C 0.16009 0.26099 0.10851 0.0
C478 C 0.12688 0.26084 0.10785 0.0
C479 C 0.73477 0.89845 0.09481 0.0
C480 C 0.76584 0.93117 0.09987 0.0
C481 C 0.73513 0.86601 0.09493 0.0
C482 C 0.76657 0.86515 0.1001 0.0
H483 H 0.71015 0.89792 0.09031 0.0
H484 H 0.71077 0.84157 0.09051 0.0
S485 S 0.8545 0.94317 0.1159 0.0
N486 N 0.82846 0.96047 0.11121 0.0
N487 N 0.82913 0.89966 0.11142 0.0
C488 C 0.79754 0.89756 0.10578 0.0
C489 C 0.79718 0.93053 0.10566 0.0
C490 C 0.15896 0.86889 0.08926 0.0
C491 C 0.12682 0.86796 0.09498 0.0
C492 C 0.1917 0.90137 0.08877 0.0
C493 C 0.1935 0.9341 0.09398 0.0
H494 H 0.1589 0.84437 0.08508 0.0
H495 H 0.21575 0.90076 0.08425 0.0
S496 S 0.11698 0.94628 0.11014 0.0
N497 N 0.09885 0.90267 0.10605 0.0
N498 N 0.16022 0.96356 0.10513 0.0
C499 C 0.16154 0.93353 0.09977 0.0
C500 C 0.12825 0.90051 0.10027 0.0
C501 C 0.32061 0.15955 0.91397 0.0
C502 C 0.29031 0.12768 0.90685 0.0
C503 C 0.32026 0.19198 0.91493 0.0
C504 C 0.28964 0.1937 0.90876 0.0
H505 H 0.34452 0.15935 0.91931 0.0
H506 H 0.34401 0.21573 0.92085 0.0
S507 S 0.20418 0.11825 0.88749 0.0
N508 N 0.22948 0.10021 0.8925 0.0
N509 N 0.22882 0.16099 0.89426 0.0
C510 C 0.25952 0.1622 0.90103 0.0
C511 C 0.25986 0.12923 0.90009 0.0
C512 C 0.89739 0.18816 0.91497 0.0
C513 C 0.92902 0.18995 0.90718 0.0
C514 C 0.86481 0.1555 0.91546 0.0
C515 C 0.86266 0.12344 0.90818 0.0
H516 H 0.89785 0.21205 0.92104 0.0
H517 H 0.84126 0.15535 0.92186 0.0
S518 S 0.93741 0.11397 0.88517 0.0
N519 N 0.95585 0.15701 0.89124 0.0
N520 N 0.89479 0.0958 0.89216 0.0
C521 C 0.89395 0.12501 0.89992 0.0
C522 C 0.92708 0.15821 0.89943 0.0
C523 C 0.89254 0.79374 0.9075 0.0
C524 C 0.86015 0.76245 0.91269 0.0
C525 C 0.92505 0.79377 0.90699 0.0
C526 C 0.92651 0.76249 0.9116 0.0
H527 H 0.89295 0.81864 0.90396 0.0
H528 H 0.94928 0.81871 0.90313 0.0
S529 S 0.84913 0.67309 0.92551 0.0
N530 N 0.83133 0.69902 0.92209 0.0
N531 N 0.8926 0.69906 0.92111 0.0
C532 C 0.89427 0.73079 0.9165 0.0
C533 C 0.86105 0.73078 0.91706 0.0
C534 C 0.81815 0.64878 0.42561 0.0
C535 C 0.78521 0.61779 0.43034 0.0
C536 C 0.8505 0.64834 0.42643 0.0
C537 C 0.85106 0.61685 0.43193 0.0
H538 H 0.81901 0.67356 0.4211 0.0
H539 H 0.87516 0.67274 0.42239 0.0
S540 S 0.77224 0.5288 0.44654 0.0
N541 N 0.75524 0.55497 0.44133 0.0
N542 N 0.81594 0.55414 0.44281 0.0
C543 C 0.81837 0.58581 0.43702 0.0
C544 C 0.78546 0.58628 0.43623 0.0
C545 C 0.45829 0.26115 0.43475 0.0
C546 C 0.42687 0.26215 0.4298 0.0
C547 C 0.45842 0.2287 0.4352 0.0
C548 C 0.42711 0.19587 0.43077 0.0
H549 H 0.48322 0.28569 0.43815 0.0
H550 H 0.48346 0.22949 0.43885 0.0
S551 S 0.33746 0.18357 0.41733 0.0
N552 N 0.36333 0.22735 0.42072 0.0
N553 N 0.36357 0.16618 0.42158 0.0
C554 C 0.39529 0.19631 0.42611 0.0
C555 C 0.39518 0.22949 0.4256 0.0
C556 C 0.83089 0.25861 0.43669 0.0
C557 C 0.86293 0.25967 0.43059 0.0
C558 C 0.79827 0.22625 0.43725 0.0
C559 C 0.7963 0.19354 0.43178 0.0
H560 H 0.83078 0.28309 0.44077 0.0
H561 H 0.7743 0.22706 0.44168 0.0
S562 S 0.87272 0.18129 0.4157 0.0
N563 N 0.89098 0.22497 0.41972 0.0
N564 N 0.82945 0.16392 0.4208 0.0
C565 C 0.82825 0.19396 0.42621 0.0
C566 C 0.86161 0.22708 0.4256 0.0
C567 C 0.92895 0.46302 0.23776 0.0
C568 C 0.95978 0.46104 0.24288 0.0
C569 C 0.92923 0.49566 0.23858 0.0
C570 C 0.96034 0.52766 0.24461 0.0
H571 H 0.90416 0.43909 0.23325 0.0
H572 H 0.90466 0.49564 0.23463 0.0
S573 S 0.0485 0.53724 0.2592 0.0
N574 N 0.02257 0.49404 0.25387 0.0
N575 N 0.02308 0.55554 0.25545 0.0
C576 C 0.99157 0.52624 0.24952 0.0
C577 C 0.9913 0.4929 0.24864 0.0
C578 C 0.593 0.49526 0.23637 0.0
C579 C 0.59465 0.52806 0.2411 0.0
C580 C 0.56038 0.46286 0.23679 0.0
C581 C 0.52805 0.46191 0.24194 0.0
H582 H 0.6172 0.49441 0.23266 0.0
H583 H 0.56069 0.43828 0.23335 0.0
S584 S 0.51744 0.54053 0.2547 0.0
N585 N 0.56092 0.55784 0.25041 0.0
N586 N 0.49944 0.49678 0.25118 0.0
C587 C 0.52909 0.49459 0.24617 0.0
C588 C 0.56242 0.5277 0.24575 0.0
C589 C 0.53169 0.07155 0.25287 0.0
C590 C 0.53077 0.10348 0.24959 0.0
C591 C 0.56417 0.07134 0.25235 0.0
C592 C 0.59695 0.10305 0.24851 0.0
H593 H 0.5071 0.04641 0.25574 0.0
H594 H 0.56349 0.04606 0.25487 0.0
S595 S 0.60934 0.19401 0.23946 0.0
N596 N 0.56564 0.16782 0.24275 0.0
N597 N 0.62659 0.16743 0.24175 0.0
C598 C 0.59647 0.13525 0.24539 0.0
C599 C 0.56342 0.13546 0.24594 0.0
C600 C 0.45957 0.92403 0.76657 0.0
C601 C 0.45864 0.95591 0.76316 0.0
C602 C 0.49209 0.92404 0.76694 0.0
C603 C 0.52504 0.95597 0.76406 0.0
H604 H 0.43491 0.89864 0.76864 0.0
H605 H 0.49129 0.89866 0.76927 0.0
S606 S 0.53753 0.04706 0.7556 0.0
N607 N 0.49361 0.02056 0.75756 0.0
N608 N 0.55489 0.02063 0.75838 0.0
C609 C 0.52464 0.98824 0.76115 0.0
C610 C 0.49141 0.9882 0.76065 0.0
C611 C 0.12509 0.56275 0.76938 0.0
C612 C 0.09417 0.53004 0.76418 0.0
C613 C 0.12476 0.59509 0.76917 0.0
C614 C 0.09352 0.59609 0.7637 0.0
H615 H 0.15001 0.56356 0.77343 0.0
H616 H 0.14943 0.61957 0.7731 0.0
S617 S 0.00494 0.51774 0.74946 0.0
N618 N 0.03105 0.5004 0.75392 0.0
N619 N 0.03045 0.56139 0.7535 0.0
C620 C 0.06215 0.56353 0.75882 0.0
C621 C 0.06246 0.53045 0.75908 0.0
C622 C 0.46441 0.56447 0.76636 0.0
C623 C 0.46286 0.531 0.76672 0.0
C624 C 0.49731 0.59659 0.7658 0.0
C625 C 0.53 0.59656 0.76561 0.0
H626 H 0.43999 0.56596 0.76606 0.0
H627 H 0.497 0.62162 0.76513 0.0
S628 S 0.5408 0.51614 0.76774 0.0
N629 N 0.49692 0.49974 0.76785 0.0
N630 N 0.55889 0.56023 0.76683 0.0
C631 C 0.52894 0.56333 0.76663 0.0
C632 C 0.49534 0.53053 0.76717 0.0
C633 C 0.65294 0.82595 0.58573 0.0
C634 C 0.62078 0.79268 0.5854 0.0
C635 C 0.65261 0.85837 0.58543 0.0
C636 C 0.62012 0.85877 0.58474 0.0
H637 H 0.67867 0.82704 0.58601 0.0
H638 H 0.67809 0.8833 0.5855 0.0
S639 S 0.52837 0.77894 0.58444 0.0
N640 N 0.55545 0.7621 0.58495 0.0
N641 N 0.55483 0.82299 0.58434 0.0
C642 C 0.58772 0.82569 0.58474 0.0
C643 C 0.58805 0.79266 0.58508 0.0
C644 C 0.19467 0.82576 0.58068 0.0
C645 C 0.19128 0.79349 0.57275 0.0
C646 C 0.22782 0.85784 0.58022 0.0
C647 C 0.25873 0.85875 0.57186 0.0
H648 H 0.17179 0.82612 0.58777 0.0
H649 H 0.22939 0.88185 0.58703 0.0
S650 S 0.26344 0.78225 0.54731 0.0
N651 N 0.2212 0.76497 0.55495 0.0
N652 N 0.2833 0.82509 0.55414 0.0
C653 C 0.25538 0.82695 0.56315 0.0
C654 C 0.22171 0.79436 0.56358 0.0
C655 C 0.23683 0.41091 0.58726 0.0
C656 C 0.2699 0.44232 0.58348 0.0
C657 C 0.20442 0.41123 0.58634 0.0
C658 C 0.20387 0.44297 0.58159 0.0
H659 H 0.23587 0.38577 0.59085 0.0
H660 H 0.17963 0.38634 0.5893 0.0
S661 S 0.28324 0.53268 0.57075 0.0
N662 N 0.30017 0.5062 0.57506 0.0
N663 N 0.23935 0.5068 0.57332 0.0
C664 C 0.23678 0.47465 0.57793 0.0
C665 C 0.26977 0.47433 0.57888 0.0
C666 C 0.00126 0.35544 0.14898 0.0
C667 C 0.02408 0.34086 0.14847 0.0
C668 C 0.99108 0.36387 0.16881 0.0
C669 C 0.00357 0.35829 0.18882 0.0
H670 H 0.9895 0.35843 0.1341 0.0
H671 H 0.97206 0.37342 0.16843 0.0
S672 S 0.06843 0.32603 0.19599 0.0
N673 N 0.06221 0.32507 0.16944 0.0
N674 N 0.04322 0.34112 0.20665 0.0
C675 C 0.02856 0.34631 0.1884 0.0
C676 C 0.03876 0.33752 0.16823 0.0
C677 C 0.701 0.67776 0.1509 0.0
C678 C 0.71817 0.71543 0.15063 0.0
C679 C 0.69213 0.65885 0.17059 0.0
C680 C 0.69977 0.67688 0.19074 0.0
H681 H 0.69617 0.66286 0.13586 0.0
H682 H 0.68046 0.62993 0.16999 0.0
S683 S 0.73966 0.77508 0.19874 0.0
N684 N 0.739 0.76992 0.17209 0.0
N685 N 0.72203 0.73428 0.20909 0.0
C686 C 0.7145 0.71433 0.19065 0.0
C687 C 0.72381 0.73364 0.17059 0.0
C688 C 0.32726 0.02316 0.16868 0.0
C689 C 0.34649 0.03313 0.14894 0.0
C690 C 0.34499 0.03221 0.18879 0.0
C691 C 0.38266 0.0517 0.18996 0.0
H692 H 0.29818 0.00955 0.16867 0.0
H693 H 0.32897 0.02539 0.20348 0.0
S694 S 0.4456 0.07987 0.14312 0.0
N695 N 0.40532 0.06027 0.13187 0.0
N696 N 0.43874 0.0773 0.16964 0.0
C697 C 0.40226 0.0597 0.17037 0.0
C698 C 0.38416 0.05039 0.14987 0.0
C699 C 0.32315 0.02832 0.83524 0.0
C700 C 0.33708 0.02474 0.85525 0.0
C701 C 0.33312 0.0194 0.81553 0.0
C702 C 0.35713 0.00622 0.81509 0.0
H703 H 0.30328 0.03678 0.83483 0.0
H704 H 0.32034 0.02093 0.8007 0.0
S705 S 0.40494 0.99638 0.86257 0.0
N706 N 0.37902 0.0107 0.87312 0.0
N707 N 0.39756 0.99361 0.83609 0.0
C708 C 0.37306 0.00473 0.8348 0.0
C709 C 0.36311 0.0141 0.85488 0.0
C710 C 0.0321 0.34603 0.81603 0.0
C711 C 0.05281 0.3837 0.81596 0.0
C712 C 0.02201 0.3268 0.83563 0.0
C713 C 0.03196 0.34453 0.85589 0.0
H714 H 0.02522 0.33117 0.80088 0.0
H715 H 0.00756 0.29772 0.83485 0.0
S716 S 0.08164 0.44319 0.8645 0.0
N717 N 0.07962 0.43827 0.8378 0.0
N718 N 0.06044 0.40211 0.8746 0.0
C719 C 0.0504 0.38228 0.85603 0.0
C720 C 0.06093 0.40186 0.83607 0.0
C721 C 0.65695 0.69853 0.83617 0.0
C722 C 0.67511 0.69933 0.81692 0.0
C723 C 0.67404 0.70576 0.85646 0.0
C724 C 0.71009 0.7145 0.85821 0.0
H725 H 0.6296 0.6934 0.83553 0.0
H726 H 0.65949 0.70646 0.87066 0.0
S727 S 0.76835 0.7161 0.81313 0.0
N728 N 0.73006 0.70616 0.80118 0.0
N729 N 0.76243 0.72026 0.83929 0.0
C730 C 0.72793 0.71335 0.83927 0.0
C731 C 0.71037 0.70561 0.81862 0.0
C732 C 0.0246 0.73274 0.83826 0.0
C733 C 0.02925 0.7192 0.85812 0.0
C734 C 0.03258 0.72248 0.81834 0.0
C735 C 0.04577 0.6985 0.81755 0.0
H736 H 0.01607 0.75257 0.83809 0.0
H737 H 0.03028 0.73501 0.80361 0.0
S738 S 0.05788 0.6514 0.8646 0.0
N739 N 0.04413 0.67753 0.87554 0.0
N740 N 0.05934 0.65833 0.83811 0.0
C741 C 0.0482 0.68285 0.83715 0.0
C742 C 0.03986 0.69316 0.85744 0.0
C743 C 0.34691 0.35062 0.81992 0.0
C744 C 0.35931 0.38766 0.81929 0.0
C745 C 0.33841 0.33204 0.83974 0.0
C746 C 0.34238 0.3499 0.85967 0.0
H747 H 0.34195 0.33549 0.80496 0.0
H748 H 0.32723 0.30318 0.83934 0.0
S749 S 0.37893 0.44779 0.86697 0.0
N750 N 0.37883 0.44229 0.84039 0.0
N751 N 0.36311 0.40739 0.87762 0.0
C752 C 0.35725 0.38737 0.85935 0.0
C753 C 0.3656 0.40624 0.83915 0.0
C754 C 0.71886 0.03439 0.83965 0.0
C755 C 0.70366 0.01482 0.85887 0.0
C756 C 0.70072 0.02332 0.81968 0.0
C757 C 0.66695 0.99193 0.81816 0.0
H758 H 0.7455 0.05788 0.83991 0.0
H759 H 0.71387 0.03873 0.80523 0.0
S760 S 0.61494 0.93187 0.86395 0.0
N761 N 0.65226 0.96342 0.8753 0.0
N762 N 0.61828 0.9423 0.83789 0.0
C763 C 0.65089 0.97284 0.83744 0.0
C764 C 0.6692 0.98438 0.85777 0.0
C765 C 0.69631 0.04955 0.15027 0.0
C766 C 0.71414 0.02969 0.14971 0.0
C767 C 0.68689 0.05867 0.17014 0.0
C768 C 0.69474 0.04805 0.19014 0.0
H769 H 0.69145 0.0599 0.13537 0.0
H770 H 0.67485 0.0756 0.1698 0.0
S771 S 0.73572 0.99052 0.19721 0.0
N772 N 0.73535 0.99591 0.17065 0.0
N773 N 0.7175 0.0129 0.20792 0.0
C774 C 0.71001 0.0258 0.18968 0.0
C775 C 0.71977 0.01668 0.16947 0.0
C776 C 0.00885 0.67985 0.1525 0.0
C777 C 0.02846 0.71756 0.15208 0.0
C778 C -0.00089 0.66111 0.17226 0.0
C779 C 0.00874 0.67935 0.19235 0.0
H780 H -0.00072 0.66467 0.13752 0.0
H781 H 0.98255 0.63211 0.17172 0.0
S782 S 0.06487 0.77788 0.20006 0.0
N783 N 0.06076 0.77242 0.17342 0.0
N784 N 0.04243 0.73711 0.21053 0.0
C785 C 0.03061 0.71693 0.19214 0.0
C786 C 0.04046 0.73605 0.17201 0.0
C787 C 0.32466 0.3305 0.17112 0.0
C788 C 0.34291 0.34018 0.15103 0.0
C789 C 0.3434 0.34007 0.19089 0.0
C790 C 0.3811 0.35934 0.1913 0.0
H791 H 0.29565 0.3141 0.1716 0.0
H792 H 0.32827 0.33054 0.20588 0.0
S793 S 0.44147 0.39544 0.14341 0.0
N794 N 0.40069 0.37346 0.13289 0.0
N795 N 0.43599 0.39123 0.17004 0.0
C796 C 0.39961 0.37126 0.17141 0.0
C797 C 0.38049 0.36177 0.15126 0.0
C798 C 0.69239 0.67879 0.52202 0.0
C799 C 0.67165 0.69568 0.52309 0.0
C800 C 0.70069 0.66915 0.50201 0.0
C801 C 0.68865 0.67608 0.48226 0.0
H802 H 0.70084 0.67134 0.53678 0.0
H803 H 0.71534 0.6547 0.50213 0.0
S804 S 0.63791 0.72443 0.476 0.0
N805 N 0.6426 0.72256 0.50254 0.0
N806 N 0.65821 0.70432 0.46492 0.0
C807 C 0.67013 0.69528 0.483 0.0
C808 C 0.66161 0.70509 0.50342 0.0
C809 C 0.36537 0.01332 0.4842 0.0
C810 C 0.38828 0.05073 0.48399 0.0
C811 C 0.35547 0.99417 0.50383 0.0
C812 C 0.36775 0.01175 0.524 0.0
H813 H 0.35641 -0.00155 0.46908 0.0
H814 H 0.33907 0.96516 0.50311 0.0
S815 S 0.42447 0.11005 0.53238 0.0
N816 N 0.42026 0.10516 0.50572 0.0
N817 N 0.40132 0.06914 0.54259 0.0
C818 C 0.38871 0.04942 0.52407 0.0
C819 C 0.3991 0.0689 0.50407 0.0
C820 C 0.99702 0.35949 0.5021 0.0
C821 C 0.01511 0.36809 0.48197 0.0
C822 C 0.01587 0.36973 0.52182 0.0
C823 C 0.05359 0.38912 0.5222 0.0
H824 H 0.96796 0.34596 0.50268 0.0
H825 H 0.00069 0.36386 0.5368 0.0
S826 S 0.11382 0.41426 0.47414 0.0
N827 N 0.07293 0.39404 0.46373 0.0
N828 N 0.10848 0.41335 0.50077 0.0
C829 C 0.07206 0.39587 0.50225 0.0
C830 C 0.0528 0.38532 0.48214 0.0
C831 C 0.35731 0.39584 0.50656 0.0
C832 C 0.3658 0.38536 0.52639 0.0
C833 C 0.36492 0.3855 0.48652 0.0
C834 C 0.38138 0.36435 0.48556 0.0
H835 H 0.34614 0.41352 0.50644 0.0
H836 H 0.3596 0.39576 0.47174 0.0
S837 S 0.40401 0.32527 0.5327 0.0
N838 N 0.38785 0.34928 0.54374 0.0
N839 N 0.40211 0.32978 0.50615 0.0
C840 C 0.38766 0.35157 0.50524 0.0
C841 C 0.37988 0.36209 0.52564 0.0
C842 C 0.68497 0.04769 0.52296 0.0
C843 C 0.67111 0.01039 0.52385 0.0
C844 C 0.69302 0.06581 0.50302 0.0
C845 C 0.68786 0.04742 0.48319 0.0
H846 H 0.68803 0.06283 0.53769 0.0
H847 H 0.70231 0.09435 0.50317 0.0
S848 S 0.65645 0.95033 0.47679 0.0
N849 N 0.65561 0.95609 0.5033 0.0
N850 N 0.67108 0.99033 0.46581 0.0
C851 C 0.6762 0.01052 0.4839 0.0
C852 C 0.66772 0.99195 0.50424 0.0
C853 C 0.98026 0.64626 0.50593 0.0
C854 C 0.99601 0.66469 0.48643 0.0
C855 C -0.00165 0.65765 0.52583 0.0
C856 C 0.03298 0.68782 0.527 0.0
H857 H 0.9543 0.6219 0.50575 0.0
H858 H 0.9859 0.64147 0.54015 0.0
S859 S 0.08376 0.74878 0.48137 0.0
N860 N 0.04646 0.71709 0.47002 0.0
N861 N 0.08062 0.73848 0.50746 0.0
C862 C 0.04798 0.708 0.50793 0.0
C863 C 0.02947 0.69644 0.48763 0.0
C864 C 0.03138 0.2712 0.01326 0.0
C865 C 0.02968 0.29833 0.02508 0.0
C866 C 0.03121 0.27087 0.99059 0.0
C867 C 0.02913 0.29755 0.9785 0.0
H868 H 0.03284 0.24973 0.02155 0.0
H869 H 0.03245 0.24911 0.9825 0.0
S870 S 0.02463 0.37509 1.00143 0.0
N871 N 0.02632 0.35309 0.02303 0.0
N872 N 0.02575 0.35235 0.98004 0.0
C873 C 0.02759 0.32511 0.98999 0.0
C874 C 0.02798 0.32556 0.01334 0.0
C875 C 0.73606 0.72676 0.99284 0.0
C876 C 0.74569 0.75847 0.98109 0.0
C877 C 0.73686 0.72692 0.01577 0.0
C878 C 0.7475 0.75881 0.02751 0.0
H879 H 0.72964 0.70221 0.9843 0.0
H880 H 0.73107 0.70253 0.02428 0.0
S881 S 0.76884 0.84713 0.00461 0.0
N882 N 0.76132 0.82121 0.98315 0.0
N883 N 0.76326 0.82147 0.0259 0.0
C884 C 0.7547 0.78988 0.01597 0.0
C885 C 0.75367 0.78971 0.99283 0.0
C886 C 0.29938 0.05892 0.99115 0.0
C887 C 0.30998 0.03807 0.97905 0.0
C888 C 0.29994 0.05898 0.01383 0.0
C889 C 0.31092 0.038 0.02553 0.0
H890 H 0.28959 0.07474 0.98304 0.0
H891 H 0.29056 0.07491 0.02225 0.0
S892 S 0.3439 0.9806 1.00156 0.0
N893 N 0.33405 0.99755 0.98028 0.0
N894 N 0.33489 0.99743 0.02327 0.0
C895 C 0.32337 0.01834 0.0137 0.0
C896 C 0.32296 0.01843 0.99036 0.0
C897 C 0.00067 0.76182 0.99415 0.0
C898 C 0.02039 0.74977 0.98213 0.0
C899 C 0.00098 0.76187 0.01681 0.0
C900 C 0.02118 0.75004 0.02856 0.0
H901 H 0.98549 0.77228 0.98597 0.0
H902 H 0.98596 0.77236 0.02516 0.0
S903 S 0.07535 0.7131 0.00487 0.0
N904 N 0.05888 0.72337 0.98351 0.0
N905 N 0.05968 0.72365 0.02651 0.0
C906 C 0.03962 0.73609 0.01685 0.0
C907 C 0.03917 0.7359 0.99352 0.0
C908 C 0.3275 0.31789 0.01617 0.0
C909 C 0.29526 0.30464 0.02795 0.0
C910 C 0.32741 0.31793 0.99322 0.0
C911 C 0.29509 0.30489 0.98147 0.0
H912 H 0.35261 0.32669 0.02467 0.0
H913 H 0.35251 0.32688 0.98468 0.0
S914 S 0.2045 0.27314 0.00501 0.0
N915 N 0.23104 0.28218 0.02629 0.0
N916 N 0.23077 0.28259 0.98356 0.0
C917 C 0.26314 0.29382 0.99322 0.0
C918 C 0.26326 0.2936 0.01637 0.0
C919 C 0.73759 0.03862 0.99148 0.0
C920 C 0.74821 0.01711 0.97994 0.0
C921 C 0.73724 0.03881 0.01441 0.0
C922 C 0.74765 0.01762 0.02639 0.0
H923 H 0.73105 0.05653 0.98279 0.0
H924 H 0.73061 0.05694 0.02276 0.0
S925 S 0.77169 0.95222 0.00404 0.0
N926 N 0.76485 0.97075 0.98241 0.0
N927 N 0.76457 0.97154 0.02516 0.0
C928 C 0.75603 0.99442 0.01503 0.0
C929 C 0.7562 0.99404 0.99189 0.0
C930 C 0.70544 0.66179 0.32556 0.0
C931 C 0.68421 0.6302 0.31356 0.0
C932 C 0.70419 0.6615 0.34849 0.0
C933 C 0.68152 0.62967 0.35996 0.0
H934 H 0.72435 0.68629 0.31729 0.0
H935 H 0.72219 0.68585 0.35724 0.0
S936 S 0.61606 0.54168 0.33562 0.0
N937 N 0.63687 0.56768 0.31459 0.0
N938 N 0.63408 0.56711 0.35731 0.0
C939 C 0.65841 0.59871 0.34793 0.0
C940 C 0.65989 0.59898 0.32481 0.0
C941 C 0.40425 0.05513 0.34857 0.0
C942 C 0.40469 0.08354 0.36023 0.0
C943 C 0.40385 0.05485 0.32564 0.0
C944 C 0.40383 0.08295 0.31389 0.0
H945 H 0.40677 0.03445 0.35712 0.0
H946 H 0.40607 0.03396 0.31714 0.0
S947 S 0.3974 0.15928 0.33707 0.0
N948 N 0.39968 0.13732 0.35847 0.0
N949 N 0.39871 0.13674 0.31567 0.0
C950 C 0.40095 0.10958 0.3255 0.0
C951 C 0.40146 0.1099 0.34863 0.0
C952 C 0.98358 0.34665 0.34693 0.0
C953 C 0.97296 0.36771 0.35893 0.0
C954 C 0.98293 0.34655 0.32397 0.0
C955 C 0.97153 0.36743 0.31251 0.0
H956 H 0.99076 0.32894 0.35527 0.0
H957 H 0.9896 0.32878 0.31524 0.0
S958 S 0.94751 0.43199 0.33627 0.0
N959 N 0.95549 0.41349 0.35748 0.0
N960 N 0.95402 0.41303 0.31474 0.0
C961 C 0.96328 0.39031 0.32435 0.0
C962 C 0.96407 0.39053 0.34748 0.0
C963 C 0.72726 0.11634 0.34741 0.0
C964 C 0.70302 0.086 0.35941 0.0
C965 C 0.72694 0.1161 0.32473 0.0
C966 C 0.70225 0.08554 0.31299 0.0
H967 H 0.74595 0.14108 0.35561 0.0
H968 H 0.74544 0.14068 0.31634 0.0
S969 S 0.63525 0.99789 0.33665 0.0
N970 N 0.65541 0.02352 0.35802 0.0
N971 N 0.65466 0.02306 0.31503 0.0
C972 C 0.67927 0.05417 0.3247 0.0
C973 C 0.67968 0.0544 0.34802 0.0
C974 C 0.93154 0.62549 0.34922 0.0
C975 C 0.96283 0.63701 0.36166 0.0
C976 C 0.93269 0.62643 0.32655 0.0
C977 C 0.96518 0.63883 0.31522 0.0
H978 H 0.90558 0.61472 0.35704 0.0
H979 H 0.90754 0.61636 0.31785 0.0
S980 S 0.05528 0.6744 0.34012 0.0
N981 N 0.02774 0.66327 0.36113 0.0
N982 N 0.02994 0.66493 0.31814 0.0
C983 C 0.99708 0.65217 0.32738 0.0
C984 C 0.9959 0.65128 0.3507 0.0
C985 C 0.39084 0.35053 0.34954 0.0
C986 C 0.42236 0.37258 0.36146 0.0
C987 C 0.39118 0.35043 0.32659 0.0
C988 C 0.42308 0.37227 0.31501 0.0
H989 H 0.36633 0.33199 0.35795 0.0
H990 H 0.36695 0.33181 0.31795 0.0
S991 S 0.51084 0.4395 0.3385 0.0
N992 N 0.48485 0.42028 0.3598 0.0
N993 N 0.48547 0.41976 0.31703 0.0
C994 C 0.45392 0.39615 0.32676 0.0
C995 C 0.45357 0.3964 0.3499 0.0
C996 C 0.36779 0.98977 0.68089 0.0
C997 C 0.35023 0.95726 0.6926 0.0
C998 C 0.36798 0.98994 0.65794 0.0
C999 C 0.35079 0.95759 0.64608 0.0
H1000 H 0.38254 0.01509 0.68947 0.0
H1001 H 0.38289 0.01534 0.64949 0.0
S1002 S 0.29638 0.86584 0.6689 0.0
N1003 N 0.31175 0.89229 0.69039 0.0
N1004 N 0.31251 0.89272 0.64766 0.0
C1005 C 0.33155 0.92522 0.65762 0.0
C1006 C 0.33116 0.92502 0.68078 0.0
C1007 C 0.0938 0.45856 0.6805 0.0
C1008 C 0.08263 0.42652 0.69207 0.0
C1009 C 0.09401 0.45912 0.65782 0.0
C1010 C 0.08329 0.42767 0.64562 0.0
H1011 H 0.10347 0.48382 0.68905 0.0
H1012 H 0.10385 0.48482 0.64983 0.0
S1013 S 0.04901 0.33611 0.66806 0.0
N1014 N 0.05825 0.36196 0.68978 0.0
N1015 N 0.0589 0.36297 0.64679 0.0
C1016 C 0.07023 0.39498 0.6569 0.0
C1017 C 0.06983 0.3944 0.68022 0.0
C1018 C 0.62603 0.65562 0.68058 0.0
C1019 C 0.65038 0.6857 0.69277 0.0
C1020 C 0.62622 0.6564 0.65785 0.0
C1021 C 0.65059 0.68742 0.64634 0.0
H1022 H 0.60539 0.6318 0.68867 0.0
H1023 H 0.60571 0.63309 0.64929 0.0
S1024 S 0.72281 0.77193 0.6706 0.0
N1025 N 0.70195 0.74616 0.69175 0.0
N1026 N 0.70219 0.7478 0.64884 0.0
C1027 C 0.67696 0.71677 0.65827 0.0
C1028 C 0.67688 0.71587 0.68155 0.0
C1029 C 0.34624 0.39147 0.68326 0.0
C1030 C 0.3749 0.41868 0.69515 0.0
C1031 C 0.34676 0.3915 0.66035 0.0
C1032 C 0.37606 0.41862 0.64874 0.0
H1033 H 0.32232 0.37158 0.69162 0.0
H1034 H 0.3232 0.3715 0.65174 0.0
S1035 S 0.46048 0.49165 0.67273 0.0
N1036 N 0.4351 0.47037 0.6939 0.0
N1037 N 0.43655 0.47018 0.65111 0.0
C1038 C 0.40611 0.44398 0.66063 0.0
C1039 C 0.40539 0.44409 0.68378 0.0
C1040 C 0.61168 0.98311 0.68134 0.0
C1041 C 0.63982 0.98351 0.69318 0.0
C1042 C 0.61214 0.98404 0.65865 0.0
C1043 C 0.64065 0.98515 0.6468 0.0
H1044 H 0.58819 0.98034 0.68965 0.0
H1045 H 0.58898 0.98203 0.65033 0.0
S1046 S 0.72285 0.99073 0.67017 0.0
N1047 N 0.69864 0.98854 0.69161 0.0
N1048 N 0.69948 0.99004 0.64864 0.0
C1049 C 0.67032 0.9883 0.65842 0.0
C1050 C 0.6699 0.98754 0.68172 0.0
C1051 C 0.12021 0.7167 0.68231 0.0
C1052 C 0.08826 0.70284 0.69444 0.0
C1053 C 0.11982 0.71649 0.65962 0.0
C1054 C 0.08752 0.70275 0.64794 0.0
H1055 H 0.14595 0.72718 0.69036 0.0
H1056 H 0.14519 0.7268 0.65115 0.0
S1057 S 0.99642 0.66498 0.67166 0.0
N1058 N 0.02328 0.67614 0.69301 0.0
N1059 N 0.02268 0.67621 0.65002 0.0
C1060 C 0.05536 0.69011 0.6597 0.0
C1061 C 0.0557 0.69002 0.68303 0.0
C1062 C 0.89314 0.12959 0.10284 0.0
C1063 C 0.8607 0.12839 0.09765 0.0
C1064 C 0.92569 0.16208 0.10313 0.0
C1065 C 0.92717 0.19476 0.09824 0.0
H1066 H 0.89358 0.10514 0.10643 0.0
H1067 H 0.94997 0.16141 0.10689 0.0
S1068 S 0.84959 0.20662 0.08465 0.0
N1069 N 0.8318 0.16292 0.08829 0.0
N1070 N 0.89313 0.22416 0.08883 0.0
C1071 C 0.89483 0.19415 0.09354 0.0
C1072 C 0.86157 0.16094 0.09324 0.0
C1073 C 0.92887 0.7963 0.10505 0.0
C1074 C 0.9301 0.76452 0.10187 0.0
C1075 C 0.8964 0.79638 0.10398 0.0
C1076 C 0.86382 0.76469 0.09965 0.0
H1077 H 0.95329 0.82157 0.10799 0.0
H1078 H 0.89702 0.82168 0.10623 0.0
S1079 S 0.85204 0.67387 0.09127 0.0
N1080 N 0.89563 0.70013 0.09509 0.0
N1081 N 0.83453 0.70031 0.09306 0.0
C1082 C 0.86446 0.7325 0.097 0.0
C1083 C 0.8976 0.7324 0.09812 0.0
C1084 C 0.26368 0.12926 0.10406 0.0
C1085 C 0.29586 0.1289 0.10076 0.0
C1086 C 0.26294 0.16143 0.10378 0.0
C1087 C 0.29435 0.19455 0.10015 0.0
H1088 H 0.23859 0.10441 0.10645 0.0
H1089 H 0.23733 0.16015 0.10602 0.0
S1090 S 0.38608 0.20863 0.09202 0.0
N1091 N 0.36035 0.16472 0.09479 0.0
N1092 N 0.35895 0.22529 0.09424 0.0
C1093 C 0.32696 0.19477 0.09747 0.0
C1094 C 0.32773 0.16193 0.09779 0.0
C1095 C 0.16003 0.92899 0.90758 0.0
C1096 C 0.19274 0.93017 0.91187 0.0
C1097 C 0.12742 0.89652 0.90793 0.0
C1098 C 0.12616 0.86388 0.91259 0.0
H1099 H 0.15948 0.9534 0.90402 0.0
H1100 H 0.10298 0.89714 0.90464 0.0
S1101 S 0.2043 0.85213 0.92463 0.0
N1102 N 0.22197 0.89574 0.92067 0.0
N1103 N 0.16057 0.8346 0.92134 0.0
C1104 C 0.15868 0.86454 0.91673 0.0
C1105 C 0.19199 0.8977 0.91636 0.0
C1106 C 0.16156 0.26218 0.90039 0.0
C1107 C 0.19408 0.29421 0.90416 0.0
C1108 C 0.12878 0.2617 0.90009 0.0
C1109 C 0.1272 0.29323 0.90356 0.0
H1110 H 0.16122 0.237 0.89816 0.0
H1111 H 0.10442 0.23618 0.89763 0.0
S1112 S 0.20496 0.3847 0.91248 0.0
N1113 N 0.22293 0.35873 0.91019 0.0
N1114 N 0.16125 0.35783 0.90963 0.0
C1115 C 0.15963 0.32572 0.90656 0.0
C1116 C 0.19308 0.32621 0.90685 0.0
C1117 C 0.79602 0.89491 0.90282 0.0
C1118 C 0.76359 0.86188 0.90282 0.0
C1119 C 0.79617 0.92756 0.9027 0.0
C1120 C 0.7639 0.92843 0.90257 0.0
H1121 H 0.82155 0.89564 0.9036 0.0
H1122 H 0.82181 0.95227 0.90339 0.0
S1123 S 0.67177 0.84945 0.90015 0.0
N1124 N 0.69837 0.83204 0.90095 0.0
N1125 N 0.69866 0.89343 0.90071 0.0
C1126 C 0.7313 0.89563 0.90155 0.0
C1127 C 0.73114 0.86235 0.90167 0.0
C1128 C 0.55766 0.46146 0.44061 0.0
C1129 C 0.52464 0.46033 0.43785 0.0
C1130 C 0.59011 0.49412 0.44053 0.0
C1131 C 0.59085 0.52695 0.43767 0.0
H1132 H 0.55863 0.43687 0.44228 0.0
H1133 H 0.61486 0.49345 0.44213 0.0
S1134 S 0.51159 0.53898 0.43157 0.0
N1135 N 0.49446 0.4951 0.43354 0.0
N1136 N 0.55554 0.55654 0.43337 0.0
C1137 C 0.55795 0.52638 0.43578 0.0
C1138 C 0.52483 0.49305 0.43588 0.0
C1139 C 0.56632 0.073 0.42256 0.0
C1140 C 0.59932 0.10497 0.42533 0.0
C1141 C 0.5338 0.07316 0.42241 0.0
C1142 C 0.53302 0.10529 0.42501 0.0
H1143 H 0.56551 0.04757 0.42054 0.0
H1144 H 0.50909 0.04784 0.42029 0.0
S1145 S 0.61208 0.19644 0.43253 0.0
N1146 N 0.62925 0.16974 0.43054 0.0
N1147 N 0.56821 0.17004 0.43025 0.0
C1148 C 0.56584 0.1375 0.4277 0.0
C1149 C 0.59896 0.13733 0.42786 0.0
C1150 C 0.92609 0.45729 0.43583 0.0
C1151 C 0.95842 0.4574 0.43208 0.0
C1152 C 0.92473 0.48913 0.43537 0.0
C1153 C 0.95564 0.52241 0.43114 0.0
H1154 H 0.90142 0.43232 0.43887 0.0
H1155 H 0.89908 0.48751 0.43816 0.0
S1156 S 0.0473 0.5376 0.42085 0.0
N1157 N 0.02237 0.49379 0.42445 0.0
N1158 N 0.01979 0.55372 0.4236 0.0
C1159 C 0.98832 0.52307 0.42771 0.0
C1160 C 0.98972 0.49056 0.42819 0.0
C1161 C 0.79254 0.22732 0.23606 0.0
C1162 C 0.79167 0.19439 0.23878 0.0
C1163 C 0.82499 0.25998 0.23666 0.0
C1164 C 0.85787 0.26106 0.24004 0.0
H1165 H 0.76789 0.22802 0.23388 0.0
H1166 H 0.82412 0.28461 0.23485 0.0
S1167 S 0.87058 0.18227 0.24672 0.0
N1168 N 0.82676 0.16475 0.24397 0.0
N1169 N 0.88779 0.22621 0.24513 0.0
C1170 C 0.85755 0.2283 0.24217 0.0
C1171 C 0.82445 0.19496 0.24151 0.0
C1172 C 0.8287 0.59473 0.2381 0.0
C1173 C 0.8615 0.62681 0.24112 0.0
C1174 C 0.79595 0.59432 0.23868 0.0
C1175 C 0.79465 0.62595 0.24234 0.0
H1176 H 0.82818 0.56951 0.23565 0.0
H1177 H 0.77143 0.56881 0.23658 0.0
S1178 S 0.87302 0.71746 0.24998 0.0
N1179 N 0.89077 0.6914 0.24699 0.0
N1180 N 0.82915 0.6906 0.2481 0.0
C1181 C 0.82727 0.65842 0.24484 0.0
C1182 C 0.8607 0.65886 0.24421 0.0
C1183 C 0.46102 0.26144 0.23994 0.0
C1184 C 0.42933 0.26265 0.24356 0.0
C1185 C 0.46062 0.22869 0.23907 0.0
C1186 C 0.4285 0.19582 0.2417 0.0
H1187 H 0.48653 0.28601 0.23807 0.0
H1188 H 0.48586 0.22927 0.23663 0.0
S1189 S 0.33784 0.18408 0.25069 0.0
N1190 N 0.36468 0.228 0.24913 0.0
N1191 N 0.36391 0.1664 0.24744 0.0
C1192 C 0.39644 0.19654 0.24482 0.0
C1193 C 0.39686 0.22996 0.24578 0.0
C1194 C 0.25904 0.82517 0.77258 0.0
C1195 C 0.26053 0.85853 0.77094 0.0
C1196 C 0.22613 0.79296 0.77277 0.0
C1197 C 0.19341 0.79285 0.77134 0.0
H1198 H 0.28349 0.82377 0.77307 0.0
H1199 H 0.22645 0.76794 0.77342 0.0
S1200 S 0.18246 0.87316 0.769 0.0
N1201 N 0.22634 0.88966 0.76949 0.0
N1202 N 0.16444 0.82907 0.76986 0.0
C1203 C 0.19443 0.82607 0.77068 0.0
C1204 C 0.228 0.85892 0.77047 0.0
C1205 C 0.26335 0.46619 0.76382 0.0
C1206 C 0.26456 0.43459 0.75981 0.0
C1207 C 0.23072 0.46604 0.764 0.0
C1208 C 0.19796 0.43429 0.76014 0.0
H1209 H 0.28783 0.49135 0.76687 0.0
H1210 H 0.23127 0.49112 0.76712 0.0
S1211 S 0.18632 0.34419 0.74883 0.0
N1212 N 0.23006 0.37055 0.75193 0.0
N1213 N 0.1687 0.37029 0.75223 0.0
C1214 C 0.19871 0.40243 0.75614 0.0
C1215 C 0.232 0.40257 0.75598 0.0
C1216 C 0.59218 0.79033 0.75681 0.0
C1217 C 0.62446 0.79014 0.75348 0.0
C1218 C 0.59138 0.82251 0.75688 0.0
C1219 C 0.62282 0.85577 0.75359 0.0
H1220 H 0.56733 0.76545 0.7597 0.0
H1221 H 0.56593 0.82125 0.7598 0.0
S1222 S 0.71398 0.86984 0.7429 0.0
N1223 N 0.68847 0.82598 0.74594 0.0
N1224 N 0.68697 0.88645 0.74604 0.0
C1225 C 0.65518 0.85594 0.74977 0.0
C1226 C 0.656 0.82314 0.74973 0.0
C1227 C 0.52427 0.57089 0.57073 0.0
C1228 C 0.52533 0.60378 0.57415 0.0
C1229 C 0.49168 0.53828 0.57082 0.0
C1230 C 0.45885 0.53728 0.57431 0.0
H1231 H 0.54888 0.57015 0.56847 0.0
H1232 H 0.49238 0.51363 0.56862 0.0
S1233 S 0.44664 0.61614 0.58251 0.0
N1234 N 0.49046 0.63351 0.57997 0.0
N1235 N 0.42923 0.57228 0.58011 0.0
C1236 C 0.45938 0.57008 0.577 0.0
C1237 C 0.4926 0.6033 0.57692 0.0
C1238 C 0.48918 0.98424 0.57685 0.0
C1239 C 0.4568 0.95229 0.57263 0.0
C1240 C 0.52217 0.9851 0.57647 0.0
C1241 C 0.52407 0.954 0.57193 0.0
H1242 H 0.48907 0.00874 0.58085 0.0
H1243 H 0.54626 0.01019 0.58031 0.0
S1244 S 0.44734 0.86399 0.5583 0.0
N1245 N 0.42888 0.88912 0.56263 0.0
N1246 N 0.49088 0.89073 0.56201 0.0
C1247 C 0.49203 0.9221 0.56703 0.0
C1248 C 0.4584 0.92124 0.56736 0.0
C1249 C 0.06816 0.56763 0.57662 0.0
C1250 C 0.09876 0.60096 0.57202 0.0
C1251 C 0.06941 0.53569 0.57592 0.0
C1252 C 0.10135 0.53586 0.57067 0.0
H1253 H 0.04315 0.56621 0.58121 0.0
H1254 H 0.04535 0.5108 0.58009 0.0
S1255 S 0.18844 0.6158 0.55589 0.0
N1256 N 0.16153 0.63199 0.56093 0.0
N1257 N 0.16389 0.57201 0.55971 0.0
C1258 C 0.13187 0.56886 0.56537 0.0
C1259 C 0.13058 0.60139 0.56602 0.0
loop_
_geom_bond_atom_site_label_1
_geom_bond_atom_site_label_2
_geom_bond_distance
_geom_bond_site_symmetry_2
_ccdc_geom_bond_type
In0 O1 2.294 . S
In0 O2 2.326 . S
In0 O6 2.266 . S
In0 O7 2.326 . S
In0 O8 2.266 1_455 S
In0 O9 2.326 1_455 S
In0 O11 2.294 . S
In0 O12 2.326 . S
O1 In0 2.294 . S
O1 C10 1.240 . S
O2 In0 2.326 . S
O2 C10 1.252 . S
C3 O6 1.252 . S
C3 O7 1.260 . S
C4 O11 1.240 . S
C4 O12 1.252 . S
C5 O8 1.252 . S
C5 O9 1.260 . S
O6 In0 2.266 . S
O6 C3 1.252 . S
O7 In0 2.326 . S
O7 C3 1.260 . S
O8 In0 2.266 1_655 S
O8 C5 1.252 . S
O9 In0 2.326 1_655 S
O9 C5 1.260 . S
C10 O1 1.240 . S
C10 O2 1.252 . S
O11 In0 2.294 . S
O11 C4 1.240 . S
O12 In0 2.326 . S
O12 C4 1.252 . S
In13 O14 2.294 . S
In13 O15 2.326 . S
In13 O19 2.266 . S
In13 O20 2.326 . S
In13 O21 2.266 . S
In13 O22 2.326 . S
In13 O24 2.294 . S
In13 O25 2.326 . S
O14 In13 2.294 . S
O14 C23 1.240 . S
O15 In13 2.326 . S
O15 C23 1.252 . S
C16 O19 1.252 . S
C16 O20 1.260 . S
C17 O24 1.240 . S
C17 O25 1.252 . S
C18 O21 1.252 . S
C18 O22 1.260 . S
O19 In13 2.266 . S
O19 C16 1.252 . S
O20 In13 2.326 . S
O20 C16 1.260 . S
O21 In13 2.266 . S
O21 C18 1.252 . S
O22 In13 2.326 . S
O22 C18 1.260 . S
C23 O14 1.240 . S
C23 O15 1.252 . S
O24 In13 2.294 . S
O24 C17 1.240 . S
O25 In13 2.326 . S
O25 C17 1.252 . S
In26 O27 2.294 . S
In26 O28 2.326 . S
In26 O32 2.266 . S
In26 O33 2.326 . S
In26 O34 2.266 . S
In26 O35 2.326 . S
In26 O37 2.294 1_545 S
In26 O38 2.326 1_545 S
O27 In26 2.294 . S
O27 C36 1.240 . S
O28 In26 2.326 . S
O28 C36 1.252 . S
C29 O32 1.252 . S
C29 O33 1.260 . S
C30 O37 1.240 . S
C30 O38 1.252 . S
C31 O34 1.252 . S
C31 O35 1.260 . S
O32 In26 2.266 . S
O32 C29 1.252 . S
O33 In26 2.326 . S
O33 C29 1.260 . S
O34 In26 2.266 . S
O34 C31 1.252 . S
O35 In26 2.326 . S
O35 C31 1.260 . S
C36 O27 1.240 . S
C36 O28 1.252 . S
O37 In26 2.294 1_565 S
O37 C30 1.240 . S
O38 In26 2.326 1_565 S
O38 C30 1.252 . S
In39 O40 2.294 . S
In39 O41 2.326 . S
In39 O45 2.266 1_545 S
In39 O46 2.326 1_545 S
In39 O47 2.266 . S
In39 O48 2.326 . S
In39 O50 2.294 . S
In39 O51 2.326 . S
O40 In39 2.294 . S
O40 C49 1.240 . S
O41 In39 2.326 . S
O41 C49 1.252 . S
C42 O45 1.252 . S
C42 O46 1.260 . S
C43 O50 1.240 . S
C43 O51 1.252 . S
C44 O47 1.252 . S
C44 O48 1.260 . S
O45 In39 2.266 1_565 S
O45 C42 1.252 . S
O46 In39 2.326 1_565 S
O46 C42 1.260 . S
O47 In39 2.266 . S
O47 C44 1.252 . S
O48 In39 2.326 . S
O48 C44 1.260 . S
C49 O40 1.240 . S
C49 O41 1.252 . S
O50 In39 2.294 . S
O50 C43 1.240 . S
O51 In39 2.326 . S
O51 C43 1.252 . S
In52 O53 2.294 . S
In52 O54 2.326 . S
In52 O58 2.266 . S
In52 O59 2.326 . S
In52 O60 2.266 . S
In52 O61 2.326 . S
In52 O63 2.294 1_455 S
In52 O64 2.326 1_455 S
O53 In52 2.294 . S
O53 C62 1.240 . S
O54 In52 2.326 . S
O54 C62 1.252 . S
C55 O58 1.252 . S
C55 O59 1.260 . S
C56 O63 1.240 . S
C56 O64 1.252 . S
C57 O60 1.252 . S
C57 O61 1.260 . S
O58 In52 2.266 . S
O58 C55 1.252 . S
O59 In52 2.326 . S
O59 C55 1.260 . S
O60 In52 2.266 . S
O60 C57 1.252 . S
O61 In52 2.326 . S
O61 C57 1.260 . S
C62 O53 1.240 . S
C62 O54 1.252 . S
O63 In52 2.294 1_655 S
O63 C56 1.240 . S
O64 In52 2.326 1_655 S
O64 C56 1.252 . S
In65 O66 2.294 . S
In65 O67 2.326 . S
In65 O71 2.266 . S
In65 O72 2.326 . S
In65 O73 2.266 . S
In65 O74 2.326 . S
In65 O76 2.294 . S
In65 O77 2.326 . S
O66 In65 2.294 . S
O66 C75 1.240 . S
O67 In65 2.326 . S
O67 C75 1.252 . S
C68 O71 1.252 . S
C68 O72 1.260 . S
C69 O76 1.240 . S
C69 O77 1.252 . S
C70 O73 1.252 . S
C70 O74 1.260 . S
O71 In65 2.266 . S
O71 C68 1.252 . S
O72 In65 2.326 . S
O72 C68 1.260 . S
O73 In65 2.266 . S
O73 C70 1.252 . S
O74 In65 2.326 . S
O74 C70 1.260 . S
C75 O66 1.240 . S
C75 O67 1.252 . S
O76 In65 2.294 . S
O76 C69 1.240 . S
O77 In65 2.326 . S
O77 C69 1.252 . S
In78 O79 2.294 1_455 S
In78 O80 2.326 1_455 S
In78 O84 2.266 . S
In78 O85 2.326 . S
In78 O86 2.266 . S
In78 O87 2.326 . S
In78 O89 2.294 . S
In78 O90 2.326 . S
O79 In78 2.294 1_655 S
O79 C88 1.240 . S
O80 In78 2.326 1_655 S
O80 C88 1.252 . S
C81 O84 1.252 . S
C81 O85 1.260 . S
C82 O89 1.240 . S
C82 O90 1.252 . S
C83 O86 1.252 . S
C83 O87 1.260 . S
O84 In78 2.266 . S
O84 C81 1.252 . S
O85 In78 2.326 . S
O85 C81 1.260 . S
O86 In78 2.266 . S
O86 C83 1.252 . S
O87 In78 2.326 . S
O87 C83 1.260 . S
C88 O79 1.240 . S
C88 O80 1.252 . S
O89 In78 2.294 . S
O89 C82 1.240 . S
O90 In78 2.326 . S
O90 C82 1.252 . S
In91 O92 2.294 . S
In91 O93 2.326 . S
In91 O97 2.266 . S
In91 O98 2.326 . S
In91 O99 2.266 . S
In91 O100 2.326 . S
In91 O102 2.294 . S
In91 O103 2.326 . S
O92 In91 2.294 . S
O92 C101 1.240 . S
O93 In91 2.326 . S
O93 C101 1.252 . S
C94 O97 1.252 . S
C94 O98 1.260 . S
C95 O102 1.240 . S
C95 O103 1.252 . S
C96 O99 1.252 . S
C96 O100 1.260 . S
O97 In91 2.266 . S
O97 C94 1.252 . S
O98 In91 2.326 . S
O98 C94 1.260 . S
O99 In91 2.266 . S
O99 C96 1.252 . S
O100 In91 2.326 . S
O100 C96 1.260 . S
C101 O92 1.240 . S
C101 O93 1.252 . S
O102 In91 2.294 . S
O102 C95 1.240 . S
O103 In91 2.326 . S
O103 C95 1.252 . S
In104 O105 2.294 . S
In104 O106 2.326 . S
In104 O110 2.266 . S
In104 O111 2.326 . S
In104 O112 2.266 1_545 S
In104 O113 2.326 1_545 S
In104 O115 2.294 . S
In104 O116 2.326 . S
O105 In104 2.294 . S
O105 C114 1.240 . S
O106 In104 2.326 . S
O106 C114 1.252 . S
C107 O110 1.252 . S
C107 O111 1.260 . S
C108 O115 1.240 . S
C108 O116 1.252 . S
C109 O112 1.252 . S
C109 O113 1.260 . S
O110 In104 2.266 . S
O110 C107 1.252 . S
O111 In104 2.326 . S
O111 C107 1.260 . S
O112 In104 2.266 1_565 S
O112 C109 1.252 . S
O113 In104 2.326 1_565 S
O113 C109 1.260 . S
C114 O105 1.240 . S
C114 O106 1.252 . S
O115 In104 2.294 . S
O115 C108 1.240 . S
O116 In104 2.326 . S
O116 C108 1.252 . S
In117 O118 2.294 1_545 S
In117 O119 2.326 1_545 S
In117 O123 2.266 . S
In117 O124 2.326 . S
In117 O125 2.266 . S
In117 O126 2.326 . S
In117 O128 2.294 . S
In117 O129 2.326 . S
O118 In117 2.294 1_565 S
O118 C127 1.240 . S
O119 In117 2.326 1_565 S
O119 C127 1.252 . S
C120 O123 1.252 . S
C120 O124 1.260 . S
C121 O128 1.240 . S
C121 O129 1.252 . S
C122 O125 1.252 . S
C122 O126 1.260 . S
O123 In117 2.266 . S
O123 C120 1.252 . S
O124 In117 2.326 . S
O124 C120 1.260 . S
O125 In117 2.266 . S
O125 C122 1.252 . S
O126 In117 2.326 . S
O126 C122 1.260 . S
C127 O118 1.240 . S
C127 O119 1.252 . S
O128 In117 2.294 . S
O128 C121 1.240 . S
O129 In117 2.326 . S
O129 C121 1.252 . S
In130 O131 2.294 . S
In130 O132 2.326 . S
In130 O136 2.266 . S
In130 O137 2.326 . S
In130 O138 2.266 1_455 S
In130 O139 2.326 1_455 S
In130 O141 2.294 . S
In130 O142 2.326 . S
O131 In130 2.294 . S
O131 C140 1.240 . S
O132 In130 2.326 . S
O132 C140 1.252 . S
C133 O136 1.252 . S
C133 O137 1.260 . S
C134 O141 1.240 . S
C134 O142 1.252 . S
C135 O138 1.252 . S
C135 O139 1.260 . S
O136 In130 2.266 . S
O136 C133 1.252 . S
O137 In130 2.326 . S
O137 C133 1.260 . S
O138 In130 2.266 1_655 S
O138 C135 1.252 . S
O139 In130 2.326 1_655 S
O139 C135 1.260 . S
C140 O131 1.240 . S
C140 O132 1.252 . S
O141 In130 2.294 . S
O141 C134 1.240 . S
O142 In130 2.326 . S
O142 C134 1.252 . S
In143 O144 2.294 . S
In143 O145 2.326 . S
In143 O149 2.266 . S
In143 O150 2.326 . S
In143 O151 2.266 . S
In143 O152 2.326 . S
In143 O154 2.294 . S
In143 O155 2.326 . S
O144 In143 2.294 . S
O144 C153 1.240 . S
O145 In143 2.326 . S
O145 C153 1.252 . S
C146 O149 1.252 . S
C146 O150 1.260 . S
C147 O154 1.240 . S
C147 O155 1.252 . S
C148 O151 1.252 . S
C148 O152 1.260 . S
O149 In143 2.266 . S
O149 C146 1.252 . S
O150 In143 2.326 . S
O150 C146 1.260 . S
O151 In143 2.266 . S
O151 C148 1.252 . S
O152 In143 2.326 . S
O152 C148 1.260 . S
C153 O144 1.240 . S
C153 O145 1.252 . S
O154 In143 2.294 . S
O154 C147 1.240 . S
O155 In143 2.326 . S
O155 C147 1.252 . S
In156 O157 2.294 . S
In156 O158 2.326 . S
In156 O162 2.266 . S
In156 O163 2.326 . S
In156 O164 2.266 . S
In156 O165 2.326 . S
In156 O167 2.294 . S
In156 O168 2.326 . S
O157 In156 2.294 . S
O157 C166 1.240 . S
O158 In156 2.326 . S
O158 C166 1.252 . S
C159 O162 1.252 . S
C159 O163 1.260 . S
C160 O167 1.240 . S
C160 O168 1.252 . S
C161 O164 1.252 . S
C161 O165 1.260 . S
O162 In156 2.266 . S
O162 C159 1.252 . S
O163 In156 2.326 . S
O163 C159 1.260 . S
O164 In156 2.266 . S
O164 C161 1.252 . S
O165 In156 2.326 . S
O165 C161 1.260 . S
C166 O157 1.240 . S
C166 O158 1.252 . S
O167 In156 2.294 . S
O167 C160 1.240 . S
O168 In156 2.326 . S
O168 C160 1.252 . S
In169 O170 2.294 . S
In169 O171 2.326 . S
In169 O175 2.266 . S
In169 O176 2.326 . S
In169 O177 2.266 . S
In169 O178 2.326 . S
In169 O180 2.294 . S
In169 O181 2.326 . S
O170 In169 2.294 . S
O170 C179 1.240 . S
O171 In169 2.326 . S
O171 C179 1.252 . S
C172 O175 1.252 . S
C172 O176 1.260 . S
C173 O180 1.240 . S
C173 O181 1.252 . S
C174 O177 1.252 . S
C174 O178 1.260 . S
O175 In169 2.266 . S
O175 C172 1.252 . S
O176 In169 2.326 . S
O176 C172 1.260 . S
O177 In169 2.266 . S
O177 C174 1.252 . S
O178 In169 2.326 . S
O178 C174 1.260 . S
C179 O170 1.240 . S
C179 O171 1.252 . S
O180 In169 2.294 . S
O180 C173 1.240 . S
O181 In169 2.326 . S
O181 C173 1.252 . S
In182 O183 2.294 . S
In182 O184 2.326 . S
In182 O188 2.266 1_655 S
In182 O189 2.326 . S
In182 O190 2.266 . S
In182 O191 2.326 1_655 S
In182 O193 2.294 . S
In182 O194 2.326 . S
O183 In182 2.294 . S
O183 C192 1.240 . S
O184 In182 2.326 . S
O184 C192 1.252 . S
C185 O188 1.252 . S
C185 O189 1.260 1_455 S
C186 O193 1.240 . S
C186 O194 1.252 . S
C187 O190 1.252 . S
C187 O191 1.260 1_655 S
O188 In182 2.266 1_455 S
O188 C185 1.252 . S
O189 In182 2.326 . S
O189 C185 1.260 1_655 S
O190 In182 2.266 . S
O190 C187 1.252 . S
O191 In182 2.326 1_455 S
O191 C187 1.260 1_455 S
C192 O183 1.240 . S
C192 O184 1.252 . S
O193 In182 2.294 . S
O193 C186 1.240 . S
O194 In182 2.326 . S
O194 C186 1.252 . S
In195 O196 2.294 . S
In195 O197 2.328 . S
In195 O201 2.266 . S
In195 O202 2.326 . S
In195 O203 2.240 1_655 S
In195 O204 2.326 . S
In195 O206 2.281 1_655 S
In195 O207 2.326 . S
O196 In195 2.294 . S
O196 C205 1.240 . S
O197 In195 2.328 . S
O197 C205 1.264 . S
C198 O201 1.252 . S
C198 O202 1.260 . S
C199 O206 1.225 1_655 S
C199 O207 1.252 . S
C200 O203 1.238 1_655 S
C200 O204 1.260 . S
O201 In195 2.266 . S
O201 C198 1.252 . S
O202 In195 2.326 . S
O202 C198 1.260 . S
O203 In195 2.240 1_455 S
O203 C200 1.238 1_455 S
O204 In195 2.326 . S
O204 C200 1.260 . S
C205 O196 1.240 . S
C205 O197 1.264 . S
O206 In195 2.281 1_455 S
O206 C199 1.225 1_455 S
O207 In195 2.326 . S
O207 C199 1.252 . S
In208 O209 2.294 . S
In208 O210 2.326 . S
In208 O214 2.266 . S
In208 O215 2.326 . S
In208 O216 2.266 . S
In208 O217 2.326 . S
In208 O219 2.294 . S
In208 O220 2.326 . S
O209 In208 2.294 . S
O209 C218 1.240 . S
O210 In208 2.326 . S
O210 C218 1.252 . S
C211 O214 1.252 . S
C211 O215 1.260 . S
C212 O219 1.240 . S
C212 O220 1.252 . S
C213 O216 1.252 . S
C213 O217 1.260 . S
O214 In208 2.266 . S
O214 C211 1.252 . S
O215 In208 2.326 . S
O215 C211 1.260 . S
O216 In208 2.266 . S
O216 C213 1.252 . S
O217 In208 2.326 . S
O217 C213 1.260 . S
C218 O209 1.240 . S
C218 O210 1.252 . S
O219 In208 2.294 . S
O219 C212 1.240 . S
O220 In208 2.326 . S
O220 C212 1.252 . S
In221 O222 2.294 . S
In221 O223 2.326 . S
In221 O227 2.266 . S
In221 O228 2.326 . S
In221 O229 2.266 . S
In221 O230 2.326 . S
In221 O232 2.294 . S
In221 O233 2.326 . S
O222 In221 2.294 . S
O222 C231 1.240 . S
O223 In221 2.326 . S
O223 C231 1.252 . S
C224 O227 1.252 . S
C224 O228 1.260 . S
C225 O232 1.240 . S
C225 O233 1.252 . S
C226 O229 1.252 . S
C226 O230 1.260 . S
O227 In221 2.266 . S
O227 C224 1.252 . S
O228 In221 2.326 . S
O228 C224 1.260 . S
O229 In221 2.266 . S
O229 C226 1.252 . S
O230 In221 2.326 . S
O230 C226 1.260 . S
C231 O222 1.240 . S
C231 O223 1.252 . S
O232 In221 2.294 . S
O232 C225 1.240 . S
O233 In221 2.326 . S
O233 C225 1.252 . S
In234 O235 2.294 . S
In234 O236 2.326 . S
In234 O240 2.266 . S
In234 O241 2.326 . S
In234 O242 2.266 . S
In234 O243 2.326 . S
In234 O245 2.294 . S
In234 O246 2.326 . S
O235 In234 2.294 . S
O235 C244 1.240 . S
O236 In234 2.326 . S
O236 C244 1.252 . S
C237 O240 1.252 . S
C237 O241 1.260 . S
C238 O245 1.240 . S
C238 O246 1.252 . S
C239 O242 1.252 . S
C239 O243 1.260 . S
O240 In234 2.266 . S
O240 C237 1.252 . S
O241 In234 2.326 . S
O241 C237 1.260 . S
O242 In234 2.266 . S
O242 C239 1.252 . S
O243 In234 2.326 . S
O243 C239 1.260 . S
C244 O235 1.240 . S
C244 O236 1.252 . S
O245 In234 2.294 . S
O245 C238 1.240 . S
O246 In234 2.326 . S
O246 C238 1.252 . S
In247 O248 2.294 . S
In247 O249 2.337 . S
In247 O253 2.266 . S
In247 O254 2.326 . S
In247 O255 2.259 1_655 S
In247 O256 2.326 . S
In247 O258 2.285 1_655 S
In247 O259 2.326 . S
O248 In247 2.294 . S
O248 C257 1.240 . S
O249 In247 2.337 . S
O249 C257 1.257 . S
C250 O253 1.252 . S
C250 O254 1.260 . S
C251 O258 1.234 1_655 S
C251 O259 1.252 . S
C252 O255 1.245 1_655 S
C252 O256 1.260 . S
O253 In247 2.266 . S
O253 C250 1.252 . S
O254 In247 2.326 . S
O254 C250 1.260 . S
O255 In247 2.259 1_455 S
O255 C252 1.245 1_455 S
O256 In247 2.326 . S
O256 C252 1.260 . S
C257 O248 1.240 . S
C257 O249 1.257 . S
O258 In247 2.285 1_455 S
O258 C251 1.234 1_455 S
O259 In247 2.326 . S
O259 C251 1.252 . S
In260 O261 2.294 . S
In260 O262 2.326 . S
In260 O266 2.266 . S
In260 O267 2.326 . S
In260 O268 2.266 . S
In260 O269 2.326 . S
In260 O271 2.294 . S
In260 O272 2.326 . S
O261 In260 2.294 . S
O261 C270 1.240 . S
O262 In260 2.326 . S
O262 C270 1.252 . S
C263 O266 1.252 . S
C263 O267 1.260 . S
C264 O271 1.240 . S
C264 O272 1.252 . S
C265 O268 1.252 . S
C265 O269 1.260 . S
O266 In260 2.266 . S
O266 C263 1.252 . S
O267 In260 2.326 . S
O267 C263 1.260 . S
O268 In260 2.266 . S
O268 C265 1.252 . S
O269 In260 2.326 . S
O269 C265 1.260 . S
C270 O261 1.240 . S
C270 O262 1.252 . S
O271 In260 2.294 . S
O271 C264 1.240 . S
O272 In260 2.326 . S
O272 C264 1.252 . S
In273 O274 2.294 . S
In273 O275 2.326 . S
In273 O279 2.266 . S
In273 O280 2.326 . S
In273 O281 2.266 . S
In273 O282 2.326 . S
In273 O284 2.294 . S
In273 O285 2.326 . S
O274 In273 2.294 . S
O274 C283 1.240 . S
O275 In273 2.326 . S
O275 C283 1.252 . S
C276 O279 1.252 . S
C276 O280 1.260 . S
C277 O284 1.240 . S
C277 O285 1.252 . S
C278 O281 1.252 . S
C278 O282 1.260 . S
O279 In273 2.266 . S
O279 C276 1.252 . S
O280 In273 2.326 . S
O280 C276 1.260 . S
O281 In273 2.266 . S
O281 C278 1.252 . S
O282 In273 2.326 . S
O282 C278 1.260 . S
C283 O274 1.240 . S
C283 O275 1.252 . S
O284 In273 2.294 . S
O284 C277 1.240 . S
O285 In273 2.326 . S
O285 C277 1.252 . S
In286 O287 2.294 . S
In286 O288 2.326 . S
In286 O292 2.266 . S
In286 O293 2.326 . S
In286 O294 2.266 . S
In286 O295 2.326 . S
In286 O297 2.294 . S
In286 O298 2.326 . S
O287 In286 2.294 . S
O287 C296 1.240 . S
O288 In286 2.326 . S
O288 C296 1.252 . S
C289 O292 1.252 . S
C289 O293 1.260 . S
C290 O297 1.240 . S
C290 O298 1.252 . S
C291 O294 1.252 . S
C291 O295 1.260 . S
O292 In286 2.266 . S
O292 C289 1.252 . S
O293 In286 2.326 . S
O293 C289 1.260 . S
O294 In286 2.266 . S
O294 C291 1.252 . S
O295 In286 2.326 . S
O295 C291 1.260 . S
C296 O287 1.240 . S
C296 O288 1.252 . S
O297 In286 2.294 . S
O297 C290 1.240 . S
O298 In286 2.326 . S
O298 C290 1.252 . S
In299 O300 2.294 . S
In299 O301 2.326 . S
In299 O305 2.266 1_655 S
In299 O306 2.326 . S
In299 O307 2.266 . S
In299 O308 2.326 1_655 S
In299 O310 2.294 . S
In299 O311 2.326 . S
O300 In299 2.294 . S
O300 C309 1.240 . S
O301 In299 2.326 . S
O301 C309 1.252 . S
C302 O305 1.252 . S
C302 O306 1.260 1_455 S
C303 O310 1.240 . S
C303 O311 1.252 . S
C304 O307 1.252 . S
C304 O308 1.260 1_655 S
O305 In299 2.266 1_455 S
O305 C302 1.252 . S
O306 In299 2.326 . S
O306 C302 1.260 1_655 S
O307 In299 2.266 . S
O307 C304 1.252 . S
O308 In299 2.326 1_455 S
O308 C304 1.260 1_455 S
C309 O300 1.240 . S
C309 O301 1.252 . S
O310 In299 2.294 . S
O310 C303 1.240 . S
O311 In299 2.326 . S
O311 C303 1.252 . S
In312 O313 2.281 1_565 S
In312 O314 2.326 . S
In312 O318 2.240 1_565 S
In312 O319 2.326 . S
In312 O320 2.266 . S
In312 O321 2.326 . S
In312 O323 2.294 . S
In312 O324 2.328 . S
O313 In312 2.281 1_545 S
O313 C322 1.225 1_545 S
O314 In312 2.326 . S
O314 C322 1.252 . S
C315 O318 1.238 1_565 S
C315 O319 1.260 . S
C316 O323 1.240 . S
C316 O324 1.264 . S
C317 O320 1.252 . S
C317 O321 1.260 . S
O318 In312 2.240 1_545 S
O318 C315 1.238 1_545 S
O319 In312 2.326 . S
O319 C315 1.260 . S
O320 In312 2.266 . S
O320 C317 1.252 . S
O321 In312 2.326 . S
O321 C317 1.260 . S
C322 O313 1.225 1_565 S
C322 O314 1.252 . S
O323 In312 2.294 . S
O323 C316 1.240 . S
O324 In312 2.328 . S
O324 C316 1.264 . S
In325 O326 2.294 . S
In325 O327 2.326 . S
In325 O331 2.266 . S
In325 O332 2.326 . S
In325 O333 2.266 . S
In325 O334 2.326 . S
In325 O336 2.294 . S
In325 O337 2.326 . S
O326 In325 2.294 . S
O326 C335 1.240 . S
O327 In325 2.326 . S
O327 C335 1.252 . S
C328 O331 1.252 . S
C328 O332 1.260 . S
C329 O336 1.240 . S
C329 O337 1.252 . S
C330 O333 1.252 . S
C330 O334 1.260 . S
O331 In325 2.266 . S
O331 C328 1.252 . S
O332 In325 2.326 . S
O332 C328 1.260 . S
O333 In325 2.266 . S
O333 C330 1.252 . S
O334 In325 2.326 . S
O334 C330 1.260 . S
C335 O326 1.240 . S
C335 O327 1.252 . S
O336 In325 2.294 . S
O336 C329 1.240 . S
O337 In325 2.326 . S
O337 C329 1.252 . S
In338 O339 2.294 . S
In338 O340 2.326 . S
In338 O344 2.266 . S
In338 O345 2.326 . S
In338 O346 2.266 . S
In338 O347 2.326 . S
In338 O349 2.294 . S
In338 O350 2.326 . S
O339 In338 2.294 . S
O339 C348 1.240 . S
O340 In338 2.326 . S
O340 C348 1.252 . S
C341 O344 1.252 . S
C341 O345 1.260 . S
C342 O349 1.240 . S
C342 O350 1.252 . S
C343 O346 1.252 . S
C343 O347 1.260 . S
O344 In338 2.266 . S
O344 C341 1.252 . S
O345 In338 2.326 . S
O345 C341 1.260 . S
O346 In338 2.266 . S
O346 C343 1.252 . S
O347 In338 2.326 . S
O347 C343 1.260 . S
C348 O339 1.240 . S
C348 O340 1.252 . S
O349 In338 2.294 . S
O349 C342 1.240 . S
O350 In338 2.326 . S
O350 C342 1.252 . S
In351 O352 2.294 . S
In351 O353 2.326 . S
In351 O357 2.266 . S
In351 O358 2.326 . S
In351 O359 2.266 . S
In351 O360 2.326 . S
In351 O362 2.294 . S
In351 O363 2.326 . S
O352 In351 2.294 . S
O352 C361 1.240 . S
O353 In351 2.326 . S
O353 C361 1.252 . S
C354 O357 1.252 . S
C354 O358 1.260 . S
C355 O362 1.240 . S
C355 O363 1.252 . S
C356 O359 1.252 . S
C356 O360 1.260 . S
O357 In351 2.266 . S
O357 C354 1.252 . S
O358 In351 2.326 . S
O358 C354 1.260 . S
O359 In351 2.266 . S
O359 C356 1.252 . S
O360 In351 2.326 . S
O360 C356 1.260 . S
C361 O352 1.240 . S
C361 O353 1.252 . S
O362 In351 2.294 . S
O362 C355 1.240 . S
O363 In351 2.326 . S
O363 C355 1.252 . S
In364 O365 2.294 . S
In364 O366 2.326 . S
In364 O370 2.266 1_565 S
In364 O371 2.326 . S
In364 O372 2.266 . S
In364 O373 2.326 1_565 S
In364 O375 2.294 . S
In364 O376 2.326 . S
O365 In364 2.294 . S
O365 C374 1.240 . S
O366 In364 2.326 . S
O366 C374 1.252 . S
C367 O370 1.252 . S
C367 O371 1.260 1_545 S
C368 O375 1.240 . S
C368 O376 1.252 . S
C369 O372 1.252 . S
C369 O373 1.260 1_565 S
O370 In364 2.266 1_545 S
O370 C367 1.252 . S
O371 In364 2.326 . S
O371 C367 1.260 1_565 S
O372 In364 2.266 . S
O372 C369 1.252 . S
O373 In364 2.326 1_545 S
O373 C369 1.260 1_545 S
C374 O365 1.240 . S
C374 O366 1.252 . S
O375 In364 2.294 . S
O375 C368 1.240 . S
O376 In364 2.326 . S
O376 C368 1.252 . S
In377 O378 2.294 . S
In377 O379 2.326 . S
In377 O383 2.266 . S
In377 O384 2.326 . S
In377 O385 2.266 . S
In377 O386 2.326 . S
In377 O388 2.294 . S
In377 O389 2.326 . S
O378 In377 2.294 . S
O378 C387 1.240 . S
O379 In377 2.326 . S
O379 C387 1.252 . S
C380 O383 1.252 . S
C380 O384 1.260 . S
C381 O388 1.240 . S
C381 O389 1.252 . S
C382 O385 1.252 . S
C382 O386 1.260 . S
O383 In377 2.266 . S
O383 C380 1.252 . S
O384 In377 2.326 . S
O384 C380 1.260 . S
O385 In377 2.266 . S
O385 C382 1.252 . S
O386 In377 2.326 . S
O386 C382 1.260 . S
C387 O378 1.240 . S
C387 O379 1.252 . S
O388 In377 2.294 . S
O388 C381 1.240 . S
O389 In377 2.326 . S
O389 C381 1.252 . S
In390 O391 2.294 . S
In390 O392 2.326 . S
In390 O396 2.266 . S
In390 O397 2.326 . S
In390 O398 2.266 . S
In390 O399 2.326 . S
In390 O401 2.294 . S
In390 O402 2.326 . S
O391 In390 2.294 . S
O391 C400 1.240 . S
O392 In390 2.326 . S
O392 C400 1.252 . S
C393 O396 1.252 . S
C393 O397 1.260 . S
C394 O401 1.240 . S
C394 O402 1.252 . S
C395 O398 1.252 . S
C395 O399 1.260 . S
O396 In390 2.266 . S
O396 C393 1.252 . S
O397 In390 2.326 . S
O397 C393 1.260 . S
O398 In390 2.266 . S
O398 C395 1.252 . S
O399 In390 2.326 . S
O399 C395 1.260 . S
C400 O391 1.240 . S
C400 O392 1.252 . S
O401 In390 2.294 . S
O401 C394 1.240 . S
O402 In390 2.326 . S
O402 C394 1.252 . S
In403 O404 2.294 . S
In403 O405 2.326 . S
In403 O409 2.266 . S
In403 O410 2.326 1_565 S
In403 O411 2.266 1_565 S
In403 O412 2.326 . S
In403 O414 2.294 . S
In403 O415 2.326 . S
O404 In403 2.294 . S
O404 C413 1.240 . S
O405 In403 2.326 . S
O405 C413 1.252 . S
C406 O409 1.252 . S
C406 O410 1.260 1_565 S
C407 O414 1.240 . S
C407 O415 1.252 . S
C408 O411 1.252 . S
C408 O412 1.260 1_545 S
O409 In403 2.266 . S
O409 C406 1.252 . S
O410 In403 2.326 1_545 S
O410 C406 1.260 1_545 S
O411 In403 2.266 1_545 S
O411 C408 1.252 . S
O412 In403 2.326 . S
O412 C408 1.260 1_565 S
C413 O404 1.240 . S
C413 O405 1.252 . S
O414 In403 2.294 . S
O414 C407 1.240 . S
O415 In403 2.326 . S
O415 C407 1.252 . S
In416 O417 2.294 . S
In416 O418 2.326 . S
In416 O422 2.266 . S
In416 O423 2.326 . S
In416 O424 2.266 . S
In416 O425 2.326 . S
In416 O427 2.294 . S
In416 O428 2.326 . S
O417 In416 2.294 . S
O417 C426 1.240 . S
O418 In416 2.326 . S
O418 C426 1.252 . S
C419 O422 1.252 . S
C419 O423 1.260 . S
C420 O427 1.240 . S
C420 O428 1.252 . S
C421 O424 1.252 . S
C421 O425 1.260 . S
O422 In416 2.266 . S
O422 C419 1.252 . S
O423 In416 2.326 . S
O423 C419 1.260 . S
O424 In416 2.266 . S
O424 C421 1.252 . S
O425 In416 2.326 . S
O425 C421 1.260 . S
C426 O417 1.240 . S
C426 O418 1.252 . S
O427 In416 2.294 . S
O427 C420 1.240 . S
O428 In416 2.326 . S
O428 C420 1.252 . S
In429 O430 2.294 . S
In429 O431 2.326 . S
In429 O435 2.266 . S
In429 O436 2.326 . S
In429 O437 2.266 . S
In429 O438 2.326 . S
In429 O440 2.294 . S
In429 O441 2.326 . S
O430 In429 2.294 . S
O430 C439 1.240 . S
O431 In429 2.326 . S
O431 C439 1.252 . S
C432 O435 1.252 . S
C432 O436 1.260 . S
C433 O440 1.240 . S
C433 O441 1.252 . S
C434 O437 1.252 . S
C434 O438 1.260 . S
O435 In429 2.266 . S
O435 C432 1.252 . S
O436 In429 2.326 . S
O436 C432 1.260 . S
O437 In429 2.266 . S
O437 C434 1.252 . S
O438 In429 2.326 . S
O438 C434 1.260 . S
C439 O430 1.240 . S
C439 O431 1.252 . S
O440 In429 2.294 . S
O440 C433 1.240 . S
O441 In429 2.326 . S
O441 C433 1.252 . S
In442 O443 2.294 . S
In442 O444 2.326 . S
In442 O448 2.266 . S
In442 O449 2.326 . S
In442 O450 2.266 . S
In442 O451 2.326 . S
In442 O453 2.294 . S
In442 O454 2.326 . S
O443 In442 2.294 . S
O443 C452 1.240 . S
O444 In442 2.326 . S
O444 C452 1.252 . S
C445 O448 1.252 . S
C445 O449 1.260 . S
C446 O453 1.240 . S
C446 O454 1.252 . S
C447 O450 1.252 . S
C447 O451 1.260 . S
O448 In442 2.266 . S
O448 C445 1.252 . S
O449 In442 2.326 . S
O449 C445 1.260 . S
O450 In442 2.266 . S
O450 C447 1.252 . S
O451 In442 2.326 . S
O451 C447 1.260 . S
C452 O443 1.240 . S
C452 O444 1.252 . S
O453 In442 2.294 . S
O453 C446 1.240 . S
O454 In442 2.326 . S
O454 C446 1.252 . S
In455 O456 2.294 . S
In455 O457 2.337 . S
In455 O461 2.266 . S
In455 O462 2.326 . S
In455 O463 2.259 1_565 S
In455 O464 2.326 . S
In455 O466 2.285 1_565 S
In455 O467 2.326 . S
O456 In455 2.294 . S
O456 C465 1.240 . S
O457 In455 2.337 . S
O457 C465 1.257 . S
C458 O461 1.252 . S
C458 O462 1.260 . S
C459 O466 1.234 1_565 S
C459 O467 1.252 . S
C460 O463 1.245 1_565 S
C460 O464 1.260 . S
O461 In455 2.266 . S
O461 C458 1.252 . S
O462 In455 2.326 . S
O462 C458 1.260 . S
O463 In455 2.259 1_545 S
O463 C460 1.245 1_545 S
O464 In455 2.326 . S
O464 C460 1.260 . S
C465 O456 1.240 . S
C465 O457 1.257 . S
O466 In455 2.285 1_545 S
O466 C459 1.234 1_545 S
O467 In455 2.326 . S
O467 C459 1.252 . S
C468 C469 1.369 . S
C468 C470 1.419 . S
C468 H472 0.930 . S
C469 C468 1.369 . S
C469 C478 1.429 . S
C470 C468 1.419 . S
C470 C471 1.363 . S
C470 H473 0.929 . S
C471 C470 1.363 . S
C471 C477 1.428 . S
H472 C468 0.930 . S
H473 C470 0.929 . S
S474 N475 1.613 . S
S474 N476 1.610 . S
N475 S474 1.613 . S
N475 C478 1.350 . S
N476 S474 1.610 . S
N476 C477 1.351 . S
C477 C471 1.428 . S
C477 N476 1.351 . S
C477 C478 1.434 . S
C478 C469 1.429 . S
C478 N475 1.350 . S
C478 C477 1.434 . S
C479 C480 1.369 . S
C479 C481 1.419 . S
C479 H483 0.930 . S
C480 C479 1.369 . S
C480 C489 1.429 . S
C481 C479 1.419 . S
C481 C482 1.363 . S
C481 H484 0.929 . S
C482 C481 1.363 . S
C482 C488 1.428 . S
H483 C479 0.930 . S
H484 C481 0.929 . S
S485 N486 1.613 . S
S485 N487 1.610 . S
N486 S485 1.613 . S
N486 C489 1.350 . S
N487 S485 1.610 . S
N487 C488 1.351 . S
C488 C482 1.428 . S
C488 N487 1.351 . S
C488 C489 1.434 . S
C489 C480 1.429 . S
C489 N486 1.350 . S
C489 C488 1.434 . S
C490 C491 1.369 . S
C490 C492 1.419 . S
C490 H494 0.930 . S
C491 C490 1.369 . S
C491 C500 1.429 . S
C492 C490 1.419 . S
C492 C493 1.363 . S
C492 H495 0.929 . S
C493 C492 1.363 . S
C493 C499 1.428 . S
H494 C490 0.930 . S
H495 C492 0.929 . S
S496 N497 1.613 . S
S496 N498 1.610 . S
N497 S496 1.613 . S
N497 C500 1.350 . S
N498 S496 1.610 . S
N498 C499 1.351 . S
C499 C493 1.428 . S
C499 N498 1.351 . S
C499 C500 1.434 . S
C500 C491 1.429 . S
C500 N497 1.350 . S
C500 C499 1.434 . S
C501 C502 1.369 . S
C501 C503 1.419 . S
C501 H505 0.930 . S
C502 C501 1.369 . S
C502 C511 1.429 . S
C503 C501 1.419 . S
C503 C504 1.363 . S
C503 H506 0.929 . S
C504 C503 1.363 . S
C504 C510 1.428 . S
H505 C501 0.930 . S
H506 C503 0.929 . S
S507 N508 1.613 . S
S507 N509 1.610 . S
N508 S507 1.613 . S
N508 C511 1.350 . S
N509 S507 1.610 . S
N509 C510 1.351 . S
C510 C504 1.428 . S
C510 N509 1.351 . S
C510 C511 1.434 . S
C511 C502 1.429 . S
C511 N508 1.350 . S
C511 C510 1.434 . S
C512 C513 1.369 . S
C512 C514 1.419 . S
C512 H516 0.930 . S
C513 C512 1.369 . S
C513 C522 1.429 . S
C514 C512 1.419 . S
C514 C515 1.363 . S
C514 H517 0.929 . S
C515 C514 1.363 . S
C515 C521 1.428 . S
H516 C512 0.930 . S
H517 C514 0.929 . S
S518 N519 1.613 . S
S518 N520 1.610 . S
N519 S518 1.613 . S
N519 C522 1.350 . S
N520 S518 1.610 . S
N520 C521 1.351 . S
C521 C515 1.428 . S
C521 N520 1.351 . S
C521 C522 1.434 . S
C522 C513 1.429 . S
C522 N519 1.350 . S
C522 C521 1.434 . S
C523 C524 1.369 . S
C523 C525 1.419 . S
C523 H527 0.930 . S
C524 C523 1.369 . S
C524 C533 1.429 . S
C525 C523 1.419 . S
C525 C526 1.363 . S
C525 H528 0.929 . S
C526 C525 1.363 . S
C526 C532 1.428 . S
H527 C523 0.930 . S
H528 C525 0.929 . S
S529 N530 1.613 . S
S529 N531 1.610 . S
N530 S529 1.613 . S
N530 C533 1.350 . S
N531 S529 1.610 . S
N531 C532 1.351 . S
C532 C526 1.428 . S
C532 N531 1.351 . S
C532 C533 1.434 . S
C533 C524 1.429 . S
C533 N530 1.350 . S
C533 C532 1.434 . S
C534 C535 1.369 . S
C534 C536 1.419 . S
C534 H538 0.930 . S
C535 C534 1.369 . S
C535 C544 1.429 . S
C536 C534 1.419 . S
C536 C537 1.363 . S
C536 H539 0.929 . S
C537 C536 1.363 . S
C537 C543 1.428 . S
H538 C534 0.930 . S
H539 C536 0.929 . S
S540 N541 1.613 . S
S540 N542 1.610 . S
N541 S540 1.613 . S
N541 C544 1.350 . S
N542 S540 1.610 . S
N542 C543 1.351 . S
C543 C537 1.428 . S
C543 N542 1.351 . S
C543 C544 1.434 . S
C544 C535 1.429 . S
C544 N541 1.350 . S
C544 C543 1.434 . S
C545 C546 1.369 . S
C545 C547 1.419 . S
C545 H549 0.930 . S
C546 C545 1.369 . S
C546 C555 1.429 . S
C547 C545 1.419 . S
C547 C548 1.363 . S
C547 H550 0.929 . S
C548 C547 1.363 . S
C548 C554 1.428 . S
H549 C545 0.930 . S
H550 C547 0.929 . S
S551 N552 1.613 . S
S551 N553 1.610 . S
N552 S551 1.613 . S
N552 C555 1.350 . S
N553 S551 1.610 . S
N553 C554 1.351 . S
C554 C548 1.428 . S
C554 N553 1.351 . S
C554 C555 1.434 . S
C555 C546 1.429 . S
C555 N552 1.350 . S
C555 C554 1.434 . S
C556 C557 1.369 . S
C556 C558 1.419 . S
C556 H560 0.930 . S
C557 C556 1.369 . S
C557 C566 1.429 . S
C558 C556 1.419 . S
C558 C559 1.363 . S
C558 H561 0.929 . S
C559 C558 1.363 . S
C559 C565 1.428 . S
H560 C556 0.930 . S
H561 C558 0.929 . S
S562 N563 1.613 . S
S562 N564 1.610 . S
N563 S562 1.613 . S
N563 C566 1.350 . S
N564 S562 1.610 . S
N564 C565 1.351 . S
C565 C559 1.428 . S
C565 N564 1.351 . S
C565 C566 1.434 . S
C566 C557 1.429 . S
C566 N563 1.350 . S
C566 C565 1.434 . S
C567 C568 1.369 . S
C567 C569 1.419 . S
C567 H571 0.930 . S
C568 C567 1.369 . S
C568 C577 1.434 . S
C569 C567 1.419 . S
C569 C570 1.363 . S
C569 H572 0.929 . S
C570 C569 1.363 . S
C570 C576 1.449 . S
H571 C567 0.930 . S
H572 C569 0.929 . S
S573 N574 1.613 . S
S573 N575 1.610 . S
N574 S573 1.613 . S
N574 C577 1.335 1_455 S
N575 S573 1.610 . S
N575 C576 1.341 1_455 S
C576 C570 1.449 . S
C576 N575 1.341 1_655 S
C576 C577 1.430 . S
C577 C568 1.434 . S
C577 N574 1.335 1_655 S
C577 C576 1.430 . S
C578 C579 1.369 . S
C578 C580 1.419 . S
C578 H582 0.930 . S
C579 C578 1.369 . S
C579 C588 1.429 . S
C580 C578 1.419 . S
C580 C581 1.363 . S
C580 H583 0.929 . S
C581 C580 1.363 . S
C581 C587 1.428 . S
H582 C578 0.930 . S
H583 C580 0.929 . S
S584 N585 1.613 . S
S584 N586 1.610 . S
N585 S584 1.613 . S
N585 C588 1.350 . S
N586 S584 1.610 . S
N586 C587 1.351 . S
C587 C581 1.428 . S
C587 N586 1.351 . S
C587 C588 1.434 . S
C588 C579 1.429 . S
C588 N585 1.350 . S
C588 C587 1.434 . S
C589 C590 1.369 . S
C589 C591 1.419 . S
C589 H593 0.930 . S
C590 C589 1.369 . S
C590 C599 1.429 . S
C591 C589 1.419 . S
C591 C592 1.363 . S
C591 H594 0.929 . S
C592 C591 1.363 . S
C592 C598 1.428 . S
H593 C589 0.930 . S
H594 C591 0.929 . S
S595 N596 1.613 . S
S595 N597 1.610 . S
N596 S595 1.613 . S
N596 C599 1.350 . S
N597 S595 1.610 . S
N597 C598 1.351 . S
C598 C592 1.428 . S
C598 N597 1.351 . S
C598 C599 1.434 . S
C599 C590 1.429 . S
C599 N596 1.350 . S
C599 C598 1.434 . S
C600 C601 1.369 . S
C600 C602 1.419 . S
C600 H604 0.930 . S
C601 C600 1.369 . S
C601 C610 1.429 1_565 S
C602 C600 1.419 . S
C602 C603 1.363 . S
C602 H605 0.929 . S
C603 C602 1.363 . S
C603 C609 1.428 1_565 S
H604 C600 0.930 . S
H605 C602 0.929 . S
S606 N607 1.613 . S
S606 N608 1.610 . S
N607 S606 1.613 . S
N607 C610 1.350 . S
N608 S606 1.610 . S
N608 C609 1.351 . S
C609 C603 1.428 1_545 S
C609 N608 1.351 . S
C609 C610 1.434 . S
C610 C601 1.429 1_545 S
C610 N607 1.350 . S
C610 C609 1.434 . S
C611 C612 1.369 . S
C611 C613 1.419 . S
C611 H615 0.930 . S
C612 C611 1.369 . S
C612 C621 1.429 . S
C613 C611 1.419 . S
C613 C614 1.363 . S
C613 H616 0.929 . S
C614 C613 1.363 . S
C614 C620 1.428 . S
H615 C611 0.930 . S
H616 C613 0.929 . S
S617 N618 1.613 . S
S617 N619 1.610 . S
N618 S617 1.613 . S
N618 C621 1.350 . S
N619 S617 1.610 . S
N619 C620 1.351 . S
C620 C614 1.428 . S
C620 N619 1.351 . S
C620 C621 1.434 . S
C621 C612 1.429 . S
C621 N618 1.350 . S
C621 C620 1.434 . S
C622 C623 1.369 . S
C622 C624 1.419 . S
C622 H626 0.930 . S
C623 C622 1.369 . S
C623 C632 1.429 . S
C624 C622 1.419 . S
C624 C625 1.363 . S
C624 H627 0.929 . S
C625 C624 1.363 . S
C625 C631 1.428 . S
H626 C622 0.930 . S
H627 C624 0.929 . S
S628 N629 1.613 . S
S628 N630 1.610 . S
N629 S628 1.613 . S
N629 C632 1.350 . S
N630 S628 1.610 . S
N630 C631 1.351 . S
C631 C625 1.428 . S
C631 N630 1.351 . S
C631 C632 1.434 . S
C632 C623 1.429 . S
C632 N629 1.350 . S
C632 C631 1.434 . S
C633 C634 1.369 . S
C633 C635 1.419 . S
C633 H637 0.930 . S
C634 C633 1.369 . S
C634 C643 1.429 . S
C635 C633 1.419 . S
C635 C636 1.363 . S
C635 H638 0.929 . S
C636 C635 1.363 . S
C636 C642 1.428 . S
H637 C633 0.930 . S
H638 C635 0.929 . S
S639 N640 1.613 . S
S639 N641 1.610 . S
N640 S639 1.613 . S
N640 C643 1.350 . S
N641 S639 1.610 . S
N641 C642 1.351 . S
C642 C636 1.428 . S
C642 N641 1.351 . S
C642 C643 1.434 . S
C643 C634 1.429 . S
C643 N640 1.350 . S
C643 C642 1.434 . S
C644 C645 1.369 . S
C644 C646 1.419 . S
C644 H648 0.930 . S
C645 C644 1.369 . S
C645 C654 1.429 . S
C646 C644 1.419 . S
C646 C647 1.363 . S
C646 H649 0.929 . S
C647 C646 1.363 . S
C647 C653 1.428 . S
H648 C644 0.930 . S
H649 C646 0.929 . S
S650 N651 1.613 . S
S650 N652 1.610 . S
N651 S650 1.613 . S
N651 C654 1.350 . S
N652 S650 1.610 . S
N652 C653 1.351 . S
C653 C647 1.428 . S
C653 N652 1.351 . S
C653 C654 1.434 . S
C654 C645 1.429 . S
C654 N651 1.350 . S
C654 C653 1.434 . S
C655 C656 1.369 . S
C655 C657 1.419 . S
C655 H659 0.930 . S
C656 C655 1.369 . S
C656 C665 1.429 . S
C657 C655 1.419 . S
C657 C658 1.363 . S
C657 H660 0.929 . S
C658 C657 1.363 . S
C658 C664 1.428 . S
H659 C655 0.930 . S
H660 C657 0.929 . S
S661 N662 1.613 . S
S661 N663 1.610 . S
N662 S661 1.613 . S
N662 C665 1.350 . S
N663 S661 1.610 . S
N663 C664 1.351 . S
C664 C658 1.428 . S
C664 N663 1.351 . S
C664 C665 1.434 . S
C665 C656 1.429 . S
C665 N662 1.350 . S
C665 C664 1.434 . S
C666 C667 1.369 1_655 S
C666 C668 1.419 . S
C666 H670 0.930 . S
C667 C666 1.369 1_455 S
C667 C676 1.429 . S
C668 C666 1.419 . S
C668 C669 1.363 . S
C668 H671 0.929 . S
C669 C668 1.363 . S
C669 C675 1.428 1_655 S
H670 C666 0.930 . S
H671 C668 0.929 . S
S672 N673 1.613 . S
S672 N674 1.610 . S
N673 S672 1.613 . S
N673 C676 1.350 . S
N674 S672 1.610 . S
N674 C675 1.351 . S
C675 C669 1.428 1_455 S
C675 N674 1.351 . S
C675 C676 1.434 . S
C676 C667 1.429 . S
C676 N673 1.350 . S
C676 C675 1.434 . S
C677 C678 1.369 . S
C677 C679 1.419 . S
C677 H681 0.930 . S
C678 C677 1.369 . S
C678 C687 1.429 . S
C679 C677 1.419 . S
C679 C680 1.363 . S
C679 H682 0.929 . S
C680 C679 1.363 . S
C680 C686 1.428 . S
H681 C677 0.930 . S
H682 C679 0.929 . S
S683 N684 1.613 . S
S683 N685 1.610 . S
N684 S683 1.613 . S
N684 C687 1.350 . S
N685 S683 1.610 . S
N685 C686 1.351 . S
C686 C680 1.428 . S
C686 N685 1.351 . S
C686 C687 1.434 . S
C687 C678 1.429 . S
C687 N684 1.350 . S
C687 C686 1.434 . S
C688 C689 1.369 . S
C688 C690 1.419 . S
C688 H692 0.930 . S
C689 C688 1.369 . S
C689 C698 1.429 . S
C690 C688 1.419 . S
C690 C691 1.363 . S
C690 H693 0.929 . S
C691 C690 1.363 . S
C691 C697 1.428 . S
H692 C688 0.930 . S
H693 C690 0.929 . S
S694 N695 1.613 . S
S694 N696 1.610 . S
N695 S694 1.613 . S
N695 C698 1.350 . S
N696 S694 1.610 . S
N696 C697 1.351 . S
C697 C691 1.428 . S
C697 N696 1.351 . S
C697 C698 1.434 . S
C698 C689 1.429 . S
C698 N695 1.350 . S
C698 C697 1.434 . S
C699 C700 1.369 1_565 S
C699 C701 1.419 . S
C699 H703 0.930 . S
C700 C699 1.369 1_545 S
C700 C709 1.429 . S
C701 C699 1.419 . S
C701 C702 1.363 . S
C701 H704 0.929 . S
C702 C701 1.363 . S
C702 C708 1.428 1_565 S
H703 C699 0.930 . S
H704 C701 0.929 . S
S705 N706 1.613 . S
S705 N707 1.610 . S
N706 S705 1.613 . S
N706 C709 1.350 . S
N707 S705 1.610 . S
N707 C708 1.351 . S
C708 C702 1.428 1_545 S
C708 N707 1.351 . S
C708 C709 1.434 . S
C709 C700 1.429 . S
C709 N706 1.350 . S
C709 C708 1.434 . S
C710 C711 1.369 . S
C710 C712 1.419 . S
C710 H714 0.930 . S
C711 C710 1.369 . S
C711 C720 1.429 . S
C712 C710 1.419 . S
C712 C713 1.363 . S
C712 H715 0.929 . S
C713 C712 1.363 . S
C713 C719 1.428 . S
H714 C710 0.930 . S
H715 C712 0.929 . S
S716 N717 1.613 . S
S716 N718 1.610 . S
N717 S716 1.613 . S
N717 C720 1.350 . S
N718 S716 1.610 . S
N718 C719 1.351 . S
C719 C713 1.428 . S
C719 N718 1.351 . S
C719 C720 1.434 . S
C720 C711 1.429 . S
C720 N717 1.350 . S
C720 C719 1.434 . S
C721 C722 1.369 . S
C721 C723 1.419 . S
C721 H725 0.930 . S
C722 C721 1.369 . S
C722 C731 1.429 . S
C723 C721 1.419 . S
C723 C724 1.363 . S
C723 H726 0.929 . S
C724 C723 1.363 . S
C724 C730 1.428 . S
H725 C721 0.930 . S
H726 C723 0.929 . S
S727 N728 1.613 . S
S727 N729 1.610 . S
N728 S727 1.613 . S
N728 C731 1.350 . S
N729 S727 1.610 . S
N729 C730 1.351 . S
C730 C724 1.428 . S
C730 N729 1.351 . S
C730 C731 1.434 . S
C731 C722 1.429 . S
C731 N728 1.350 . S
C731 C730 1.434 . S
C732 C733 1.369 . S
C732 C734 1.419 . S
C732 H736 0.930 . S
C733 C732 1.369 . S
C733 C742 1.429 . S
C734 C732 1.419 . S
C734 C735 1.363 . S
C734 H737 0.929 . S
C735 C734 1.363 . S
C735 C741 1.428 . S
H736 C732 0.930 . S
H737 C734 0.929 . S
S738 N739 1.613 . S
S738 N740 1.610 . S
N739 S738 1.613 . S
N739 C742 1.350 . S
N740 S738 1.610 . S
N740 C741 1.351 . S
C741 C735 1.428 . S
C741 N740 1.351 . S
C741 C742 1.434 . S
C742 C733 1.429 . S
C742 N739 1.350 . S
C742 C741 1.434 . S
C743 C744 1.369 . S
C743 C745 1.419 . S
C743 H747 0.930 . S
C744 C743 1.369 . S
C744 C753 1.429 . S
C745 C743 1.419 . S
C745 C746 1.363 . S
C745 H748 0.929 . S
C746 C745 1.363 . S
C746 C752 1.428 . S
H747 C743 0.930 . S
H748 C745 0.929 . S
S749 N750 1.613 . S
S749 N751 1.610 . S
N750 S749 1.613 . S
N750 C753 1.350 . S
N751 S749 1.610 . S
N751 C752 1.351 . S
C752 C746 1.428 . S
C752 N751 1.351 . S
C752 C753 1.434 . S
C753 C744 1.429 . S
C753 N750 1.350 . S
C753 C752 1.434 . S
C754 C755 1.369 . S
C754 C756 1.419 . S
C754 H758 0.930 . S
C755 C754 1.369 . S
C755 C764 1.429 1_545 S
C756 C754 1.419 . S
C756 C757 1.363 1_545 S
C756 H759 0.929 . S
C757 C756 1.363 1_565 S
C757 C763 1.428 . S
H758 C754 0.930 . S
H759 C756 0.929 . S
S760 N761 1.613 . S
S760 N762 1.610 . S
N761 S760 1.613 . S
N761 C764 1.350 . S
N762 S760 1.610 . S
N762 C763 1.351 . S
C763 C757 1.428 . S
C763 N762 1.351 . S
C763 C764 1.434 . S
C764 C755 1.429 1_565 S
C764 N761 1.350 . S
C764 C763 1.434 . S
C765 C766 1.369 . S
C765 C767 1.419 . S
C765 H769 0.930 . S
C766 C765 1.369 . S
C766 C775 1.429 . S
C767 C765 1.419 . S
C767 C768 1.363 . S
C767 H770 0.929 . S
C768 C767 1.363 . S
C768 C774 1.428 . S
H769 C765 0.930 . S
H770 C767 0.929 . S
S771 N772 1.613 . S
S771 N773 1.626 . S
N772 S771 1.613 . S
N772 C775 1.350 1_565 S
N773 S771 1.626 . S
N773 C774 1.335 1_565 S
C774 C768 1.428 . S
C774 N773 1.335 1_545 S
C774 C775 1.434 . S
C775 C766 1.429 . S
C775 N772 1.350 1_545 S
C775 C774 1.434 . S
C776 C777 1.369 1_655 S
C776 C778 1.419 . S
C776 H780 0.930 . S
C777 C776 1.369 1_455 S
C777 C786 1.429 . S
C778 C776 1.419 . S
C778 C779 1.363 . S
C778 H781 0.929 . S
C779 C778 1.363 . S
C779 C785 1.428 1_655 S
H780 C776 0.930 . S
H781 C778 0.929 . S
S782 N783 1.613 . S
S782 N784 1.610 . S
N783 S782 1.613 . S
N783 C786 1.350 . S
N784 S782 1.610 . S
N784 C785 1.351 . S
C785 C779 1.428 1_455 S
C785 N784 1.351 . S
C785 C786 1.434 . S
C786 C777 1.429 . S
C786 N783 1.350 . S
C786 C785 1.434 . S
C787 C788 1.369 . S
C787 C789 1.419 . S
C787 H791 0.930 . S
C788 C787 1.369 . S
C788 C797 1.429 . S
C789 C787 1.419 . S
C789 C790 1.363 . S
C789 H792 0.929 . S
C790 C789 1.363 . S
C790 C796 1.428 . S
H791 C787 0.930 . S
H792 C789 0.929 . S
S793 N794 1.613 . S
S793 N795 1.610 . S
N794 S793 1.613 . S
N794 C797 1.350 . S
N795 S793 1.610 . S
N795 C796 1.351 . S
C796 C790 1.428 . S
C796 N795 1.351 . S
C796 C797 1.434 . S
C797 C788 1.429 . S
C797 N794 1.350 . S
C797 C796 1.434 . S
C798 C799 1.369 . S
C798 C800 1.419 . S
C798 H802 0.930 . S
C799 C798 1.369 . S
C799 C808 1.429 . S
C800 C798 1.419 . S
C800 C801 1.363 . S
C800 H803 0.929 . S
C801 C800 1.363 . S
C801 C807 1.428 . S
H802 C798 0.930 . S
H803 C800 0.929 . S
S804 N805 1.613 . S
S804 N806 1.610 . S
N805 S804 1.613 . S
N805 C808 1.350 . S
N806 S804 1.610 . S
N806 C807 1.351 . S
C807 C801 1.428 . S
C807 N806 1.351 . S
C807 C808 1.434 . S
C808 C799 1.429 . S
C808 N805 1.350 . S
C808 C807 1.434 . S
C809 C810 1.369 . S
C809 C811 1.419 1_545 S
C809 H813 0.930 1_545 S
C810 C809 1.369 . S
C810 C819 1.429 . S
C811 C809 1.419 1_565 S
C811 C812 1.363 1_565 S
C811 H814 0.929 . S
C812 C811 1.363 1_545 S
C812 C818 1.428 . S
H813 C809 0.930 1_565 S
H814 C811 0.929 . S
S815 N816 1.613 . S
S815 N817 1.610 . S
N816 S815 1.613 . S
N816 C819 1.350 . S
N817 S815 1.610 . S
N817 C818 1.351 . S
C818 C812 1.428 . S
C818 N817 1.351 . S
C818 C819 1.434 . S
C819 C810 1.429 . S
C819 N816 1.350 . S
C819 C818 1.434 . S
C820 C821 1.369 1_655 S
C820 C822 1.419 1_655 S
C820 H824 0.930 . S
C821 C820 1.369 1_455 S
C821 C830 1.429 . S
C822 C820 1.419 1_455 S
C822 C823 1.363 . S
C822 H825 0.929 1_455 S
C823 C822 1.363 . S
C823 C829 1.428 . S
H824 C820 0.930 . S
H825 C822 0.929 1_655 S
S826 N827 1.613 . S
S826 N828 1.610 . S
N827 S826 1.613 . S
N827 C830 1.350 . S
N828 S826 1.610 . S
N828 C829 1.351 . S
C829 C823 1.428 . S
C829 N828 1.351 . S
C829 C830 1.434 . S
C830 C821 1.429 . S
C830 N827 1.350 . S
C830 C829 1.434 . S
C831 C832 1.369 . S
C831 C833 1.419 . S
C831 H835 0.930 . S
C832 C831 1.369 . S
C832 C841 1.429 . S
C833 C831 1.419 . S
C833 C834 1.363 . S
C833 H836 0.929 . S
C834 C833 1.363 . S
C834 C840 1.428 . S
H835 C831 0.930 . S
H836 C833 0.929 . S
S837 N838 1.613 . S
S837 N839 1.610 . S
N838 S837 1.613 . S
N838 C841 1.350 . S
N839 S837 1.610 . S
N839 C840 1.351 . S
C840 C834 1.428 . S
C840 N839 1.351 . S
C840 C841 1.434 . S
C841 C832 1.429 . S
C841 N838 1.350 . S
C841 C840 1.434 . S
C842 C843 1.369 . S
C842 C844 1.419 . S
C842 H846 0.930 . S
C843 C842 1.369 . S
C843 C852 1.429 1_545 S
C844 C842 1.419 . S
C844 C845 1.363 . S
C844 H847 0.929 . S
C845 C844 1.363 . S
C845 C851 1.428 . S
H846 C842 0.930 . S
H847 C844 0.929 . S
S848 N849 1.613 . S
S848 N850 1.610 . S
N849 S848 1.613 . S
N849 C852 1.350 . S
N850 S848 1.610 . S
N850 C851 1.351 1_565 S
C851 C845 1.428 . S
C851 N850 1.351 1_545 S
C851 C852 1.434 1_545 S
C852 C843 1.429 1_565 S
C852 N849 1.350 . S
C852 C851 1.434 1_565 S
C853 C854 1.369 . S
C853 C855 1.419 . S
C853 H857 0.930 . S
C854 C853 1.369 . S
C854 C863 1.429 . S
C855 C853 1.419 . S
C855 C856 1.363 . S
C855 H858 0.929 . S
C856 C855 1.363 . S
C856 C862 1.428 . S
H857 C853 0.930 . S
H858 C855 0.929 . S
S859 N860 1.613 . S
S859 N861 1.610 . S
N860 S859 1.613 . S
N860 C863 1.350 . S
N861 S859 1.610 . S
N861 C862 1.351 . S
C862 C856 1.428 . S
C862 N861 1.351 . S
C862 C863 1.434 . S
C863 C854 1.429 . S
C863 N860 1.350 . S
C863 C862 1.434 . S
C864 C865 1.369 . S
C864 C866 1.419 1_554 S
C864 H868 0.930 . S
C865 C864 1.369 . S
C865 C874 1.429 . S
C866 C864 1.419 1_556 S
C866 C867 1.363 . S
C866 H869 0.929 . S
C867 C866 1.363 . S
C867 C873 1.428 . S
H868 C864 0.930 . S
H869 C866 0.929 . S
S870 N871 1.613 1_556 S
S870 N872 1.610 . S
N871 S870 1.613 1_554 S
N871 C874 1.350 . S
N872 S870 1.610 . S
N872 C873 1.351 . S
C873 C867 1.428 . S
C873 N872 1.351 . S
C873 C874 1.434 1_556 S
C874 C865 1.429 . S
C874 N871 1.350 . S
C874 C873 1.434 1_554 S
C875 C876 1.369 . S
C875 C877 1.419 1_556 S
C875 H879 0.930 . S
C876 C875 1.369 . S
C876 C885 1.429 . S
C877 C875 1.419 1_554 S
C877 C878 1.363 . S
C877 H880 0.929 . S
C878 C877 1.363 . S
C878 C884 1.428 . S
H879 C875 0.930 . S
H880 C877 0.929 . S
S881 N882 1.613 . S
S881 N883 1.610 1_556 S
N882 S881 1.613 . S
N882 C885 1.350 . S
N883 S881 1.610 1_554 S
N883 C884 1.351 . S
C884 C878 1.428 . S
C884 N883 1.351 . S
C884 C885 1.434 1_554 S
C885 C876 1.429 . S
C885 N882 1.350 . S
C885 C884 1.434 1_556 S
C886 C887 1.369 . S
C886 C888 1.419 1_556 S
C886 H890 0.930 . S
C887 C886 1.369 . S
C887 C896 1.429 . S
C888 C886 1.419 1_554 S
C888 C889 1.363 . S
C888 H891 0.929 . S
C889 C888 1.363 . S
C889 C895 1.428 . S
H890 C886 0.930 . S
H891 C888 0.929 . S
S892 N893 1.613 . S
S892 N894 1.610 1_556 S
N893 S892 1.613 . S
N893 C896 1.350 1_565 S
N894 S892 1.610 1_554 S
N894 C895 1.351 1_565 S
C895 C889 1.428 . S
C895 N894 1.351 1_545 S
C895 C896 1.434 1_554 S
C896 C887 1.429 . S
C896 N893 1.350 1_545 S
C896 C895 1.434 1_556 S
C897 C898 1.369 . S
C897 C899 1.419 1_556 S
C897 H901 0.930 1_455 S
C898 C897 1.369 . S
C898 C907 1.429 . S
C899 C897 1.419 1_554 S
C899 C900 1.363 . S
C899 H902 0.929 1_455 S
C900 C899 1.363 . S
C900 C906 1.428 . S
H901 C897 0.930 1_655 S
H902 C899 0.929 1_655 S
S903 N904 1.613 . S
S903 N905 1.610 1_556 S
N904 S903 1.613 . S
N904 C907 1.350 . S
N905 S903 1.610 1_554 S
N905 C906 1.351 . S
C906 C900 1.428 . S
C906 N905 1.351 . S
C906 C907 1.434 1_554 S
C907 C898 1.429 . S
C907 N904 1.350 . S
C907 C906 1.434 1_556 S
C908 C909 1.369 . S
C908 C910 1.419 1_554 S
C908 H912 0.930 . S
C909 C908 1.369 . S
C909 C918 1.429 . S
C910 C908 1.419 1_556 S
C910 C911 1.363 . S
C910 H913 0.929 . S
C911 C910 1.363 . S
C911 C917 1.428 . S
H912 C908 0.930 . S
H913 C910 0.929 . S
S914 N915 1.613 1_556 S
S914 N916 1.610 . S
N915 S914 1.613 1_554 S
N915 C918 1.350 . S
N916 S914 1.610 . S
N916 C917 1.351 . S
C917 C911 1.428 . S
C917 N916 1.351 . S
C917 C918 1.434 1_556 S
C918 C909 1.429 . S
C918 N915 1.350 . S
C918 C917 1.434 1_554 S
C919 C920 1.369 . S
C919 C921 1.419 1_556 S
C919 H923 0.930 . S
C920 C919 1.369 . S
C920 C929 1.429 . S
C921 C919 1.419 1_554 S
C921 C922 1.363 . S
C921 H924 0.929 . S
C922 C921 1.363 . S
C922 C928 1.428 . S
H923 C919 0.930 . S
H924 C921 0.929 . S
S925 N926 1.613 . S
S925 N927 1.610 1_556 S
N926 S925 1.613 . S
N926 C929 1.350 1_565 S
N927 S925 1.610 1_554 S
N927 C928 1.351 1_565 S
C928 C922 1.428 . S
C928 N927 1.351 1_545 S
C928 C929 1.434 1_554 S
C929 C920 1.429 . S
C929 N926 1.350 1_545 S
C929 C928 1.434 1_556 S
C930 C931 1.369 . S
C930 C932 1.419 . S
C930 H934 0.930 . S
C931 C930 1.369 . S
C931 C940 1.429 . S
C932 C930 1.419 . S
C932 C933 1.363 . S
C932 H935 0.929 . S
C933 C932 1.363 . S
C933 C939 1.428 . S
H934 C930 0.930 . S
H935 C932 0.929 . S
S936 N937 1.613 . S
S936 N938 1.610 . S
N937 S936 1.613 . S
N937 C940 1.350 . S
N938 S936 1.610 . S
N938 C939 1.351 . S
C939 C933 1.428 . S
C939 N938 1.351 . S
C939 C940 1.434 . S
C940 C931 1.429 . S
C940 N937 1.350 . S
C940 C939 1.434 . S
C941 C942 1.369 . S
C941 C943 1.419 . S
C941 H945 0.930 . S
C942 C941 1.369 . S
C942 C951 1.429 . S
C943 C941 1.419 . S
C943 C944 1.363 . S
C943 H946 0.929 . S
C944 C943 1.363 . S
C944 C950 1.428 . S
H945 C941 0.930 . S
H946 C943 0.929 . S
S947 N948 1.613 . S
S947 N949 1.610 . S
N948 S947 1.613 . S
N948 C951 1.350 . S
N949 S947 1.610 . S
N949 C950 1.351 . S
C950 C944 1.428 . S
C950 N949 1.351 . S
C950 C951 1.434 . S
C951 C942 1.429 . S
C951 N948 1.350 . S
C951 C950 1.434 . S
C952 C953 1.369 . S
C952 C954 1.419 . S
C952 H956 0.930 . S
C953 C952 1.369 . S
C953 C962 1.429 . S
C954 C952 1.419 . S
C954 C955 1.363 . S
C954 H957 0.929 . S
C955 C954 1.363 . S
C955 C961 1.428 . S
H956 C952 0.930 . S
H957 C954 0.929 . S
S958 N959 1.613 . S
S958 N960 1.610 . S
N959 S958 1.613 . S
N959 C962 1.350 . S
N960 S958 1.610 . S
N960 C961 1.351 . S
C961 C955 1.428 . S
C961 N960 1.351 . S
C961 C962 1.434 . S
C962 C953 1.429 . S
C962 N959 1.350 . S
C962 C961 1.434 . S
C963 C964 1.369 . S
C963 C965 1.419 . S
C963 H967 0.930 . S
C964 C963 1.369 . S
C964 C973 1.429 . S
C965 C963 1.419 . S
C965 C966 1.363 . S
C965 H968 0.929 . S
C966 C965 1.363 . S
C966 C972 1.428 . S
H967 C963 0.930 . S
H968 C965 0.929 . S
S969 N970 1.613 1_565 S
S969 N971 1.610 1_565 S
N970 S969 1.613 1_545 S
N970 C973 1.350 . S
N971 S969 1.610 1_545 S
N971 C972 1.351 . S
C972 C966 1.428 . S
C972 N971 1.351 . S
C972 C973 1.434 . S
C973 C964 1.429 . S
C973 N970 1.350 . S
C973 C972 1.434 . S
C974 C975 1.369 . S
C974 C976 1.419 . S
C974 H978 0.930 . S
C975 C974 1.369 . S
C975 C984 1.429 1_655 S
C976 C974 1.419 . S
C976 C977 1.363 . S
C976 H979 0.929 . S
C977 C976 1.363 . S
C977 C983 1.428 1_655 S
H978 C974 0.930 . S
H979 C976 0.929 . S
S980 N981 1.613 . S
S980 N982 1.610 . S
N981 S980 1.613 . S
N981 C984 1.350 . S
N982 S980 1.610 . S
N982 C983 1.351 . S
C983 C977 1.428 1_455 S
C983 N982 1.351 . S
C983 C984 1.434 . S
C984 C975 1.429 1_455 S
C984 N981 1.350 . S
C984 C983 1.434 . S
C985 C986 1.369 . S
C985 C987 1.419 . S
C985 H989 0.930 . S
C986 C985 1.369 . S
C986 C995 1.429 . S
C987 C985 1.419 . S
C987 C988 1.363 . S
C987 H990 0.929 . S
C988 C987 1.363 . S
C988 C994 1.428 . S
H989 C985 0.930 . S
H990 C987 0.929 . S
S991 N992 1.613 . S
S991 N993 1.610 . S
N992 S991 1.613 . S
N992 C995 1.350 . S
N993 S991 1.610 . S
N993 C994 1.351 . S
C994 C988 1.428 . S
C994 N993 1.351 . S
C994 C995 1.434 . S
C995 C986 1.429 . S
C995 N992 1.350 . S
C995 C994 1.434 . S
C996 C997 1.369 1_545 S
C996 C998 1.419 . S
C996 H1000 0.930 . S
C997 C996 1.369 1_565 S
C997 C1006 1.429 . S
C998 C996 1.419 . S
C998 C999 1.363 1_545 S
C998 H1001 0.929 . S
C999 C998 1.363 1_565 S
C999 C1005 1.428 . S
H1000 C996 0.930 . S
H1001 C998 0.929 . S
S1002 N1003 1.613 . S
S1002 N1004 1.610 . S
N1003 S1002 1.613 . S
N1003 C1006 1.350 . S
N1004 S1002 1.610 . S
N1004 C1005 1.351 . S
C1005 C999 1.428 . S
C1005 N1004 1.351 . S
C1005 C1006 1.434 . S
C1006 C997 1.429 . S
C1006 N1003 1.350 . S
C1006 C1005 1.434 . S
C1007 C1008 1.369 . S
C1007 C1009 1.419 . S
C1007 H1011 0.930 . S
C1008 C1007 1.369 . S
C1008 C1017 1.429 . S
C1009 C1007 1.419 . S
C1009 C1010 1.363 . S
C1009 H1012 0.929 . S
C1010 C1009 1.363 . S
C1010 C1016 1.428 . S
H1011 C1007 0.930 . S
H1012 C1009 0.929 . S
S1013 N1014 1.613 . S
S1013 N1015 1.610 . S
N1014 S1013 1.613 . S
N1014 C1017 1.350 . S
N1015 S1013 1.610 . S
N1015 C1016 1.351 . S
C1016 C1010 1.428 . S
C1016 N1015 1.351 . S
C1016 C1017 1.434 . S
C1017 C1008 1.429 . S
C1017 N1014 1.350 . S
C1017 C1016 1.434 . S
C1018 C1019 1.369 . S
C1018 C1020 1.419 . S
C1018 H1022 0.930 . S
C1019 C1018 1.369 . S
C1019 C1028 1.429 . S
C1020 C1018 1.419 . S
C1020 C1021 1.363 . S
C1020 H1023 0.929 . S
C1021 C1020 1.363 . S
C1021 C1027 1.428 . S
H1022 C1018 0.930 . S
H1023 C1020 0.929 . S
S1024 N1025 1.613 . S
S1024 N1026 1.610 . S
N1025 S1024 1.613 . S
N1025 C1028 1.350 . S
N1026 S1024 1.610 . S
N1026 C1027 1.351 . S
C1027 C1021 1.428 . S
C1027 N1026 1.351 . S
C1027 C1028 1.434 . S
C1028 C1019 1.429 . S
C1028 N1025 1.350 . S
C1028 C1027 1.434 . S
C1029 C1030 1.369 . S
C1029 C1031 1.419 . S
C1029 H1033 0.930 . S
C1030 C1029 1.369 . S
C1030 C1039 1.429 . S
C1031 C1029 1.419 . S
C1031 C1032 1.363 . S
C1031 H1034 0.929 . S
C1032 C1031 1.363 . S
C1032 C1038 1.428 . S
H1033 C1029 0.930 . S
H1034 C1031 0.929 . S
S1035 N1036 1.613 . S
S1035 N1037 1.610 . S
N1036 S1035 1.613 . S
N1036 C1039 1.350 . S
N1037 S1035 1.610 . S
N1037 C1038 1.351 . S
C1038 C1032 1.428 . S
C1038 N1037 1.351 . S
C1038 C1039 1.434 . S
C1039 C1030 1.429 . S
C1039 N1036 1.350 . S
C1039 C1038 1.434 . S
C1040 C1041 1.369 . S
C1040 C1042 1.419 . S
C1040 H1044 0.930 . S
C1041 C1040 1.369 . S
C1041 C1050 1.429 1_565 S
C1042 C1040 1.419 . S
C1042 C1043 1.363 . S
C1042 H1045 0.929 . S
C1043 C1042 1.363 . S
C1043 C1049 1.428 1_565 S
H1044 C1040 0.930 . S
H1045 C1042 0.929 . S
S1046 N1047 1.613 . S
S1046 N1048 1.610 . S
N1047 S1046 1.613 . S
N1047 C1050 1.350 . S
N1048 S1046 1.610 . S
N1048 C1049 1.351 . S
C1049 C1043 1.428 1_545 S
C1049 N1048 1.351 . S
C1049 C1050 1.434 . S
C1050 C1041 1.429 1_545 S
C1050 N1047 1.350 . S
C1050 C1049 1.434 . S
C1051 C1052 1.369 . S
C1051 C1053 1.419 . S
C1051 H1055 0.930 . S
C1052 C1051 1.369 . S
C1052 C1061 1.429 . S
C1053 C1051 1.419 . S
C1053 C1054 1.363 . S
C1053 H1056 0.929 . S
C1054 C1053 1.363 . S
C1054 C1060 1.428 . S
H1055 C1051 0.930 . S
H1056 C1053 0.929 . S
S1057 N1058 1.613 1_655 S
S1057 N1059 1.610 1_655 S
N1058 S1057 1.613 1_455 S
N1058 C1061 1.350 . S
N1059 S1057 1.610 1_455 S
N1059 C1060 1.351 . S
C1060 C1054 1.428 . S
C1060 N1059 1.351 . S
C1060 C1061 1.434 . S
C1061 C1052 1.429 . S
C1061 N1058 1.350 . S
C1061 C1060 1.434 . S
C1062 C1063 1.369 . S
C1062 C1064 1.419 . S
C1062 H1066 0.930 . S
C1063 C1062 1.369 . S
C1063 C1072 1.429 . S
C1064 C1062 1.419 . S
C1064 C1065 1.363 . S
C1064 H1067 0.929 . S
C1065 C1064 1.363 . S
C1065 C1071 1.428 . S
H1066 C1062 0.930 . S
H1067 C1064 0.929 . S
S1068 N1069 1.613 . S
S1068 N1070 1.610 . S
N1069 S1068 1.613 . S
N1069 C1072 1.350 . S
N1070 S1068 1.610 . S
N1070 C1071 1.351 . S
C1071 C1065 1.428 . S
C1071 N1070 1.351 . S
C1071 C1072 1.434 . S
C1072 C1063 1.429 . S
C1072 N1069 1.350 . S
C1072 C1071 1.434 . S
C1073 C1074 1.369 . S
C1073 C1075 1.419 . S
C1073 H1077 0.930 . S
C1074 C1073 1.369 . S
C1074 C1083 1.429 . S
C1075 C1073 1.419 . S
C1075 C1076 1.363 . S
C1075 H1078 0.929 . S
C1076 C1075 1.363 . S
C1076 C1082 1.428 . S
H1077 C1073 0.930 . S
H1078 C1075 0.929 . S
S1079 N1080 1.613 . S
S1079 N1081 1.610 . S
N1080 S1079 1.613 . S
N1080 C1083 1.350 . S
N1081 S1079 1.610 . S
N1081 C1082 1.351 . S
C1082 C1076 1.428 . S
C1082 N1081 1.351 . S
C1082 C1083 1.434 . S
C1083 C1074 1.429 . S
C1083 N1080 1.350 . S
C1083 C1082 1.434 . S
C1084 C1085 1.369 . S
C1084 C1086 1.419 . S
C1084 H1088 0.930 . S
C1085 C1084 1.369 . S
C1085 C1094 1.429 . S
C1086 C1084 1.419 . S
C1086 C1087 1.363 . S
C1086 H1089 0.929 . S
C1087 C1086 1.363 . S
C1087 C1093 1.428 . S
H1088 C1084 0.930 . S
H1089 C1086 0.929 . S
S1090 N1091 1.613 . S
S1090 N1092 1.610 . S
N1091 S1090 1.613 . S
N1091 C1094 1.350 . S
N1092 S1090 1.610 . S
N1092 C1093 1.351 . S
C1093 C1087 1.428 . S
C1093 N1092 1.351 . S
C1093 C1094 1.434 . S
C1094 C1085 1.429 . S
C1094 N1091 1.350 . S
C1094 C1093 1.434 . S
C1095 C1096 1.369 . S
C1095 C1097 1.419 . S
C1095 H1099 0.930 . S
C1096 C1095 1.369 . S
C1096 C1105 1.429 . S
C1097 C1095 1.419 . S
C1097 C1098 1.363 . S
C1097 H1100 0.929 . S
C1098 C1097 1.363 . S
C1098 C1104 1.428 . S
H1099 C1095 0.930 . S
H1100 C1097 0.929 . S
S1101 N1102 1.613 . S
S1101 N1103 1.610 . S
N1102 S1101 1.613 . S
N1102 C1105 1.350 . S
N1103 S1101 1.610 . S
N1103 C1104 1.351 . S
C1104 C1098 1.428 . S
C1104 N1103 1.351 . S
C1104 C1105 1.434 . S
C1105 C1096 1.429 . S
C1105 N1102 1.350 . S
C1105 C1104 1.434 . S
C1106 C1107 1.369 . S
C1106 C1108 1.419 . S
C1106 H1110 0.930 . S
C1107 C1106 1.369 . S
C1107 C1116 1.429 . S
C1108 C1106 1.419 . S
C1108 C1109 1.363 . S
C1108 H1111 0.929 . S
C1109 C1108 1.363 . S
C1109 C1115 1.428 . S
H1110 C1106 0.930 . S
H1111 C1108 0.929 . S
S1112 N1113 1.613 . S
S1112 N1114 1.610 . S
N1113 S1112 1.613 . S
N1113 C1116 1.350 . S
N1114 S1112 1.610 . S
N1114 C1115 1.351 . S
C1115 C1109 1.428 . S
C1115 N1114 1.351 . S
C1115 C1116 1.434 . S
C1116 C1107 1.429 . S
C1116 N1113 1.350 . S
C1116 C1115 1.434 . S
C1117 C1118 1.369 . S
C1117 C1119 1.419 . S
C1117 H1121 0.930 . S
C1118 C1117 1.369 . S
C1118 C1127 1.429 . S
C1119 C1117 1.419 . S
C1119 C1120 1.363 . S
C1119 H1122 0.929 . S
C1120 C1119 1.363 . S
C1120 C1126 1.428 . S
H1121 C1117 0.930 . S
H1122 C1119 0.929 . S
S1123 N1124 1.613 . S
S1123 N1125 1.610 . S
N1124 S1123 1.613 . S
N1124 C1127 1.350 . S
N1125 S1123 1.610 . S
N1125 C1126 1.351 . S
C1126 C1120 1.428 . S
C1126 N1125 1.351 . S
C1126 C1127 1.434 . S
C1127 C1118 1.429 . S
C1127 N1124 1.350 . S
C1127 C1126 1.434 . S
C1128 C1129 1.369 . S
C1128 C1130 1.419 . S
C1128 H1132 0.930 . S
C1129 C1128 1.369 . S
C1129 C1138 1.429 . S
C1130 C1128 1.419 . S
C1130 C1131 1.363 . S
C1130 H1133 0.929 . S
C1131 C1130 1.363 . S
C1131 C1137 1.428 . S
H1132 C1128 0.930 . S
H1133 C1130 0.929 . S
S1134 N1135 1.613 . S
S1134 N1136 1.610 . S
N1135 S1134 1.613 . S
N1135 C1138 1.350 . S
N1136 S1134 1.610 . S
N1136 C1137 1.351 . S
C1137 C1131 1.428 . S
C1137 N1136 1.351 . S
C1137 C1138 1.434 . S
C1138 C1129 1.429 . S
C1138 N1135 1.350 . S
C1138 C1137 1.434 . S
C1139 C1140 1.369 . S
C1139 C1141 1.419 . S
C1139 H1143 0.930 . S
C1140 C1139 1.369 . S
C1140 C1149 1.429 . S
C1141 C1139 1.419 . S
C1141 C1142 1.363 . S
C1141 H1144 0.929 . S
C1142 C1141 1.363 . S
C1142 C1148 1.428 . S
H1143 C1139 0.930 . S
H1144 C1141 0.929 . S
S1145 N1146 1.613 . S
S1145 N1147 1.610 . S
N1146 S1145 1.613 . S
N1146 C1149 1.350 . S
N1147 S1145 1.610 . S
N1147 C1148 1.351 . S
C1148 C1142 1.428 . S
C1148 N1147 1.351 . S
C1148 C1149 1.434 . S
C1149 C1140 1.429 . S
C1149 N1146 1.350 . S
C1149 C1148 1.434 . S
C1150 C1151 1.369 . S
C1150 C1152 1.419 . S
C1150 H1154 0.930 . S
C1151 C1150 1.369 . S
C1151 C1160 1.429 1_655 S
C1152 C1150 1.419 . S
C1152 C1153 1.363 . S
C1152 H1155 0.929 . S
C1153 C1152 1.363 . S
C1153 C1159 1.428 1_655 S
H1154 C1150 0.930 . S
H1155 C1152 0.929 . S
S1156 N1157 1.613 . S
S1156 N1158 1.610 . S
N1157 S1156 1.613 . S
N1157 C1160 1.350 . S
N1158 S1156 1.610 . S
N1158 C1159 1.351 . S
C1159 C1153 1.428 1_455 S
C1159 N1158 1.351 . S
C1159 C1160 1.434 . S
C1160 C1151 1.429 1_455 S
C1160 N1157 1.350 . S
C1160 C1159 1.434 . S
C1161 C1162 1.369 . S
C1161 C1163 1.419 . S
C1161 H1165 0.930 . S
C1162 C1161 1.369 . S
C1162 C1171 1.429 . S
C1163 C1161 1.419 . S
C1163 C1164 1.363 . S
C1163 H1166 0.929 . S
C1164 C1163 1.363 . S
C1164 C1170 1.428 . S
H1165 C1161 0.930 . S
H1166 C1163 0.929 . S
S1167 N1168 1.613 . S
S1167 N1169 1.610 . S
N1168 S1167 1.613 . S
N1168 C1171 1.350 . S
N1169 S1167 1.610 . S
N1169 C1170 1.351 . S
C1170 C1164 1.428 . S
C1170 N1169 1.351 . S
C1170 C1171 1.434 . S
C1171 C1162 1.429 . S
C1171 N1168 1.350 . S
C1171 C1170 1.434 . S
C1172 C1173 1.369 . S
C1172 C1174 1.419 . S
C1172 H1176 0.930 . S
C1173 C1172 1.369 . S
C1173 C1182 1.429 . S
C1174 C1172 1.419 . S
C1174 C1175 1.363 . S
C1174 H1177 0.929 . S
C1175 C1174 1.363 . S
C1175 C1181 1.428 . S
H1176 C1172 0.930 . S
H1177 C1174 0.929 . S
S1178 N1179 1.613 . S
S1178 N1180 1.610 . S
N1179 S1178 1.613 . S
N1179 C1182 1.350 . S
N1180 S1178 1.610 . S
N1180 C1181 1.351 . S
C1181 C1175 1.428 . S
C1181 N1180 1.351 . S
C1181 C1182 1.434 . S
C1182 C1173 1.429 . S
C1182 N1179 1.350 . S
C1182 C1181 1.434 . S
C1183 C1184 1.369 . S
C1183 C1185 1.419 . S
C1183 H1187 0.930 . S
C1184 C1183 1.369 . S
C1184 C1193 1.429 . S
C1185 C1183 1.419 . S
C1185 C1186 1.363 . S
C1185 H1188 0.929 . S
C1186 C1185 1.363 . S
C1186 C1192 1.428 . S
H1187 C1183 0.930 . S
H1188 C1185 0.929 . S
S1189 N1190 1.613 . S
S1189 N1191 1.610 . S
N1190 S1189 1.613 . S
N1190 C1193 1.350 . S
N1191 S1189 1.610 . S
N1191 C1192 1.351 . S
C1192 C1186 1.428 . S
C1192 N1191 1.351 . S
C1192 C1193 1.434 . S
C1193 C1184 1.429 . S
C1193 N1190 1.350 . S
C1193 C1192 1.434 . S
C1194 C1195 1.369 . S
C1194 C1196 1.419 . S
C1194 H1198 0.930 . S
C1195 C1194 1.369 . S
C1195 C1204 1.429 . S
C1196 C1194 1.419 . S
C1196 C1197 1.363 . S
C1196 H1199 0.929 . S
C1197 C1196 1.363 . S
C1197 C1203 1.428 . S
H1198 C1194 0.930 . S
H1199 C1196 0.929 . S
S1200 N1201 1.613 . S
S1200 N1202 1.610 . S
N1201 S1200 1.613 . S
N1201 C1204 1.350 . S
N1202 S1200 1.610 . S
N1202 C1203 1.351 . S
C1203 C1197 1.428 . S
C1203 N1202 1.351 . S
C1203 C1204 1.434 . S
C1204 C1195 1.429 . S
C1204 N1201 1.350 . S
C1204 C1203 1.434 . S
C1205 C1206 1.369 . S
C1205 C1207 1.419 . S
C1205 H1209 0.930 . S
C1206 C1205 1.369 . S
C1206 C1215 1.429 . S
C1207 C1205 1.419 . S
C1207 C1208 1.363 . S
C1207 H1210 0.929 . S
C1208 C1207 1.363 . S
C1208 C1214 1.428 . S
H1209 C1205 0.930 . S
H1210 C1207 0.929 . S
S1211 N1212 1.613 . S
S1211 N1213 1.610 . S
N1212 S1211 1.613 . S
N1212 C1215 1.350 . S
N1213 S1211 1.610 . S
N1213 C1214 1.351 . S
C1214 C1208 1.428 . S
C1214 N1213 1.351 . S
C1214 C1215 1.434 . S
C1215 C1206 1.429 . S
C1215 N1212 1.350 . S
C1215 C1214 1.434 . S
C1216 C1217 1.369 . S
C1216 C1218 1.419 . S
C1216 H1220 0.930 . S
C1217 C1216 1.369 . S
C1217 C1226 1.429 . S
C1218 C1216 1.419 . S
C1218 C1219 1.363 . S
C1218 H1221 0.929 . S
C1219 C1218 1.363 . S
C1219 C1225 1.428 . S
H1220 C1216 0.930 . S
H1221 C1218 0.929 . S
S1222 N1223 1.613 . S
S1222 N1224 1.610 . S
N1223 S1222 1.613 . S
N1223 C1226 1.350 . S
N1224 S1222 1.610 . S
N1224 C1225 1.351 . S
C1225 C1219 1.428 . S
C1225 N1224 1.351 . S
C1225 C1226 1.434 . S
C1226 C1217 1.429 . S
C1226 N1223 1.350 . S
C1226 C1225 1.434 . S
C1227 C1228 1.369 . S
C1227 C1229 1.419 . S
C1227 H1231 0.930 . S
C1228 C1227 1.369 . S
C1228 C1237 1.429 . S
C1229 C1227 1.419 . S
C1229 C1230 1.363 . S
C1229 H1232 0.929 . S
C1230 C1229 1.363 . S
C1230 C1236 1.428 . S
H1231 C1227 0.930 . S
H1232 C1229 0.929 . S
S1233 N1234 1.613 . S
S1233 N1235 1.610 . S
N1234 S1233 1.613 . S
N1234 C1237 1.350 . S
N1235 S1233 1.610 . S
N1235 C1236 1.351 . S
C1236 C1230 1.428 . S
C1236 N1235 1.351 . S
C1236 C1237 1.434 . S
C1237 C1228 1.429 . S
C1237 N1234 1.350 . S
C1237 C1236 1.434 . S
C1238 C1239 1.369 . S
C1238 C1240 1.419 . S
C1238 H1242 0.930 . S
C1239 C1238 1.369 . S
C1239 C1248 1.429 . S
C1240 C1238 1.419 . S
C1240 C1241 1.363 . S
C1240 H1243 0.929 . S
C1241 C1240 1.363 . S
C1241 C1247 1.428 . S
H1242 C1238 0.930 . S
H1243 C1240 0.929 . S
S1244 N1245 1.613 . S
S1244 N1246 1.610 . S
N1245 S1244 1.613 . S
N1245 C1248 1.350 . S
N1246 S1244 1.610 . S
N1246 C1247 1.351 . S
C1247 C1241 1.428 . S
C1247 N1246 1.351 . S
C1247 C1248 1.434 . S
C1248 C1239 1.429 . S
C1248 N1245 1.350 . S
C1248 C1247 1.434 . S
C1249 C1250 1.369 . S
C1249 C1251 1.419 . S
C1249 H1253 0.930 . S
C1250 C1249 1.369 . S
C1250 C1259 1.429 . S
C1251 C1249 1.419 . S
C1251 C1252 1.363 . S
C1251 H1254 0.929 . S
C1252 C1251 1.363 . S
C1252 C1258 1.428 . S
H1253 C1249 0.930 . S
H1254 C1251 0.929 . S
S1255 N1256 1.613 . S
S1255 N1257 1.610 . S
N1256 S1255 1.613 . S
N1256 C1259 1.350 . S
N1257 S1255 1.610 . S
N1257 C1258 1.351 . S
C1258 C1252 1.428 . S
C1258 N1257 1.351 . S
C1258 C1259 1.434 . S
C1259 C1250 1.429 . S
C1259 N1256 1.350 . S
C1259 C1258 1.434 . S
C469 C4 1.808 . S
C471 C153 1.808 . S
C480 C127 1.807 . S
C482 C17 1.807 . S
C491 C134 1.807 . S
C493 C30 1.807 . S
C502 C49 1.807 . S
C504 C95 1.807 . S
C513 C56 1.808 . S
C515 C108 1.808 . S
C524 C69 1.808 . S
C526 C88 1.808 . S
C535 C160 1.806 . S
C537 C303 1.807 . S
C546 C277 1.808 . S
C548 C173 1.808 . S
C557 C186 1.807 . S
C559 C290 1.807 . S
C568 C205 1.809 . S
C570 C257 1.808 . S
C579 C218 1.809 . S
C581 C264 1.809 . S
C590 C225 1.806 . S
C592 C244 1.806 . S
C601 C316 1.808 . S
C603 C465 1.808 . S
C612 C329 1.809 . S
C614 C433 1.808 . S
C623 C452 1.808 . S
C625 C342 1.808 . S
C634 C361 1.806 . S
C636 C413 1.806 . S
C645 C420 1.807 . S
C647 C368 1.808 . S
C656 C400 1.806 . S
C658 C381 1.806 . S
C667 C3 1.351 . S
C669 C200 1.356 . S
C678 C16 1.351 . S
C680 C213 1.356 . S
C689 C29 1.356 . S
C691 C224 1.351 . S
C700 C44 1.356 . S
C702 C315 1.354 . S
C711 C328 1.352 . S
C713 C55 1.356 . S
C722 C341 1.357 . S
C724 C68 1.353 . S
C733 C83 1.357 . S
C735 C432 1.352 . S
C744 C447 1.350 . S
C746 C94 1.354 . S
C755 C107 1.351 . S
C757 C460 1.354 . S
C766 C122 1.354 . S
C768 C239 1.356 . S
C777 C133 1.354 . S
C779 C252 1.356 . S
C788 C148 1.357 . S
C790 C263 1.352 . S
C799 C356 1.353 . S
C801 C159 1.353 . S
C810 C172 1.351 . S
C812 C367 1.356 . S
C821 C185 1.357 . S
C823 C380 1.351 . S
C832 C395 1.352 . S
C834 C276 1.353 . S
C843 C408 1.351 . S
C845 C289 1.356 . S
C854 C302 1.357 . S
C856 C419 1.354 . S
C865 C10 1.455 . S
C867 C62 1.455 . S
C876 C75 1.450 . S
C878 C23 1.454 . S
C887 C43 1.452 . S
C889 C36 1.455 . S
C898 C82 1.454 . S
C900 C140 1.456 . S
C909 C147 1.451 . S
C911 C101 1.452 . S
C920 C114 1.451 . S
C922 C121 1.454 . S
C931 C212 1.453 . S
C933 C166 1.451 . S
C942 C179 1.455 . S
C944 C231 1.451 . S
C953 C192 1.451 . S
C955 C199 1.453 . S
C964 C296 1.454 . S
C966 C238 1.455 . S
C975 C309 1.455 . S
C977 C251 1.455 . S
C986 C283 1.451 . S
C988 C270 1.455 . S
C997 C322 1.451 . S
C999 C374 1.452 . S
C1008 C335 1.453 . S
C1010 C387 1.455 . S
C1019 C348 1.451 . S
C1021 C355 1.455 . S
C1030 C446 1.452 . S
C1032 C394 1.451 . S
C1041 C459 1.456 . S
C1043 C407 1.455 . S
C1052 C439 1.456 . S
C1054 C426 1.452 . S
C1063 C120 1.520 . S
C1065 C5 1.520 . S
C1074 C135 1.520 . S
C1076 C18 1.520 . S
C1085 C31 1.521 . S
C1087 C146 1.520 . S
C1096 C42 1.520 . S
C1098 C81 1.520 . S
C1107 C96 1.520 . S
C1109 C57 1.520 . S
C1118 C70 1.520 . S
C1120 C109 1.520 . S
C1129 C278 1.519 . S
C1131 C161 1.519 . S
C1140 C291 1.519 . S
C1142 C174 1.519 . S
C1151 C187 1.521 . S
C1153 C304 1.521 . S
C1162 C237 1.521 . S
C1164 C198 1.520 . S
C1173 C250 1.520 . S
C1175 C211 1.520 . S
C1184 C265 1.519 . S
C1186 C226 1.519 . S
C1195 C317 1.521 . S
C1197 C434 1.520 . S
C1206 C445 1.519 . S
C1208 C330 1.519 . S
C1217 C343 1.521 . S
C1219 C458 1.520 . S
C1228 C354 1.519 . S
C1230 C393 1.519 . S
C1239 C369 1.520 . S
C1241 C406 1.520 . S
C1250 C421 1.520 . S
C1252 C382 1.520 . S
