# Generated by pormake.
# Topology umm, (4)-cn, num edge types: 1
# Building blocks:
#     Node 0, Type 0, BuildingBlock: KOZSID_clean_sbu_0, # of connection points: 4
#     Node 1, Type 0, BuildingBlock: KOZSID_clean_sbu_0, # of connection points: 4
#     Node 2, Type 0, BuildingBlock: KOZSID_clean_sbu_0, # of connection points: 4
#     Node 3, Type 0, BuildingBlock: KOZSID_clean_sbu_0, # of connection points: 4
#     Node 4, Type 0, BuildingBlock: KOZSID_clean_sbu_0, # of connection points: 4
#     Node 5, Type 0, BuildingBlock: KOZSID_clean_sbu_0, # of connection points: 4
#     Node 6, Type 0, BuildingBlock: KOZSID_clean_sbu_0, # of connection points: 4
#     Node 7, Type 0, BuildingBlock: KOZSID_clean_sbu_0, # of connection points: 4
#     Node 8, Type 0, BuildingBlock: KOZSID_clean_sbu_0, # of connection points: 4
#     Node 9, Type 0, BuildingBlock: KOZSID_clean_sbu_0, # of connection points: 4
#     Node 10, Type 0, BuildingBlock: KOZSID_clean_sbu_0, # of connection points: 4
#     Node 11, Type 0, BuildingBlock: KOZSID_clean_sbu_0, # of connection points: 4
#     Edge 12, Type (0, 0), BuildingBlock: EZIPEK_clean_linker_0, # of connection points: 2
#     Edge 13, Type (0, 0), BuildingBlock: EZIPEK_clean_linker_0, # of connection points: 2
#     Edge 14, Type (0, 0), BuildingBlock: EZIPEK_clean_linker_0, # of connection points: 2
#     Edge 15, Type (0, 0), BuildingBlock: EZIPEK_clean_linker_0, # of connection points: 2
#     Edge 16, Type (0, 0), BuildingBlock: EZIPEK_clean_linker_0, # of connection points: 2
#     Edge 17, Type (0, 0), BuildingBlock: EZIPEK_clean_linker_0, # of connection points: 2
#     Edge 18, Type (0, 0), BuildingBlock: EZIPEK_clean_linker_0, # of connection points: 2
#     Edge 19, Type (0, 0), BuildingBlock: EZIPEK_clean_linker_0, # of connection points: 2
#     Edge 20, Type (0, 0), BuildingBlock: EZIPEK_clean_linker_0, # of connection points: 2
#     Edge 21, Type (0, 0), BuildingBlock: EZIPEK_clean_linker_0, # of connection points: 2
#     Edge 22, Type (0, 0), BuildingBlock: EZIPEK_clean_linker_0, # of connection points: 2
#     Edge 23, Type (0, 0), BuildingBlock: EZIPEK_clean_linker_0, # of connection points: 2
#     Edge 24, Type (0, 0), BuildingBlock: EZIPEK_clean_linker_0, # of connection points: 2
#     Edge 25, Type (0, 0), BuildingBlock: EZIPEK_clean_linker_0, # of connection points: 2
#     Edge 26, Type (0, 0), BuildingBlock: EZIPEK_clean_linker_0, # of connection points: 2
#     Edge 27, Type (0, 0), BuildingBlock: EZIPEK_clean_linker_0, # of connection points: 2
#     Edge 28, Type (0, 0), BuildingBlock: EZIPEK_clean_linker_0, # of connection points: 2
#     Edge 29, Type (0, 0), BuildingBlock: EZIPEK_clean_linker_0, # of connection points: 2
#     Edge 30, Type (0, 0), BuildingBlock: EZIPEK_clean_linker_0, # of connection points: 2
#     Edge 31, Type (0, 0), BuildingBlock: EZIPEK_clean_linker_0, # of connection points: 2
#     Edge 32, Type (0, 0), BuildingBlock: EZIPEK_clean_linker_0, # of connection points: 2
#     Edge 33, Type (0, 0), BuildingBlock: EZIPEK_clean_linker_0, # of connection points: 2
#     Edge 34, Type (0, 0), BuildingBlock: EZIPEK_clean_linker_0, # of connection points: 2
#     Edge 35, Type (0, 0), BuildingBlock: EZIPEK_clean_linker_0, # of connection points: 2
# Relax obj value: 0.061
# Max RMSD: 0.163
# Mean RMSD: 0.163
data_MOF--net-umm--node1-KOZSID_clean_sbu_0--edge1-EZIPEK_clean_linker_0
_symmetry_space_group_name_H-M    P1
_symmetry_Int_Tables_number       1
_symmetry_cell_setting            triclinic
loop_
_symmetry_equiv_pos_as_xyz
'x, y, z'
_cell_length_a     46.648332
_cell_length_b     46.682233
_cell_length_c     30.2436
_cell_angle_alpha  89.921285
_cell_angle_beta   90.00549
_cell_angle_gamma 119.96505
loop_
_atom_site_label
_atom_site_type_symbol
_atom_site_fract_x
_atom_site_fract_y
_atom_site_fract_z
_atom_type_partial_charge
C0 C 0.34159 0.5532 0.08062 0.0
C1 C 0.30829 0.52926 0.07896 0.0
C2 C 0.30563 0.50103 0.09679 0.0
C3 C 0.33731 0.50911 0.10796 0.0
N4 N 0.35976 0.54064 0.0982 0.0
Co5 Co 0.4083 0.56184 0.10675 0.0
N6 N 0.40609 0.51829 0.11228 0.0
C7 C 0.37865 0.48928 0.12131 0.0
C8 C 0.38442 0.46323 0.12352 0.0
C9 C 0.41761 0.47669 0.11579 0.0
C10 C 0.43031 0.51037 0.10939 0.0
N11 N 0.4569 0.58292 0.11451 0.0
C12 C 0.47704 0.56969 0.1114 0.0
C13 C 0.50957 0.59338 0.12037 0.0
C14 C 0.5096 0.62221 0.12979 0.0
C15 C 0.47718 0.61462 0.12604 0.0
N16 N 0.4098 0.60508 0.10273 0.0
C17 C 0.43475 0.63418 0.11702 0.0
C18 C 0.42891 0.65991 0.10965 0.0
C19 C 0.39837 0.64598 0.08962 0.0
C20 C 0.3873 0.61248 0.08576 0.0
N21 N 0.40301 0.56273 0.1715 0.0
C22 C 0.40753 0.57658 0.2626 0.0
C23 C 0.38654 0.58229 0.23533 0.0
C24 C 0.38441 0.57492 0.1899 0.0
C25 C 0.42444 0.56192 0.24391 0.0
C26 C 0.42168 0.55506 0.19864 0.0
N27 N 0.41488 0.56217 0.04215 0.0
C28 C 0.43765 0.59376 0.97528 0.0
C29 C 0.42815 0.56507 0.95058 0.0
C30 C 0.41176 0.53464 0.97315 0.0
C31 C 0.40391 0.53367 1.01824 0.0
C32 C 0.4326 0.59187 1.0208 0.0
H33 H 0.38947 0.5098 0.03361 0.0
H34 H 0.44351 0.61491 0.03832 0.0
H35 H 0.3689 0.58049 0.16936 0.0
H36 H 0.43598 0.545 0.18522 0.0
C37 C 0.34747 0.48664 0.11991 0.0
C38 C 0.3548 0.588 0.06789 0.0
C39 C 0.46573 0.53428 0.10452 0.0
C40 C 0.46534 0.63702 0.12816 0.0
H41 H 0.288 0.53176 0.06619 0.0
H42 H 0.28344 0.47706 0.09932 0.0
H43 H 0.36647 0.43737 0.12854 0.0
H44 H 0.43096 0.46326 0.11536 0.0
H45 H 0.53087 0.58996 0.12094 0.0
H46 H 0.53083 0.64597 0.13766 0.0
H47 H 0.44551 0.68591 0.11598 0.0
H48 H 0.38577 0.65893 0.07888 0.0
H49 H 0.37277 0.5933 0.24875 0.0
H50 H 0.44062 0.55681 0.26396 0.0
H51 H 0.45015 0.61792 0.95979 0.0
H52 H 0.40439 0.51167 0.95594 0.0
C53 C 0.79681 0.33974 0.40802 0.0
C54 C 0.78858 0.30676 0.40657 0.0
C55 C 0.81485 0.30518 0.42407 0.0
C56 C 0.8377 0.33716 0.43488 0.0
N57 N 0.82753 0.35881 0.4252 0.0
Co58 Co 0.85352 0.40744 0.43373 0.0
N59 N 0.89576 0.40683 0.43958 0.0
C60 C 0.89836 0.37995 0.44853 0.0
C61 C 0.93052 0.3868 0.45153 0.0
C62 C 0.94941 0.42014 0.44444 0.0
C63 C 0.92761 0.43182 0.43753 0.0
N64 N 0.87969 0.45615 0.44151 0.0
C65 C 0.91295 0.47716 0.43895 0.0
C66 C 0.92058 0.50937 0.44761 0.0
C67 C 0.89116 0.50833 0.45638 0.0
C68 C 0.86718 0.47564 0.45253 0.0
N69 N 0.8109 0.40734 0.42949 0.0
C70 C 0.80572 0.43174 0.44345 0.0
C71 C 0.77378 0.42482 0.43619 0.0
C72 C 0.75798 0.39415 0.41659 0.0
C73 C 0.78124 0.38407 0.41286 0.0
N74 N 0.84723 0.402 0.49848 0.0
C75 C 0.83724 0.4059 0.58954 0.0
C76 C 0.81093 0.38448 0.56215 0.0
C77 C 0.81651 0.38267 0.51674 0.0
C78 C 0.86882 0.42359 0.571 0.0
C79 C 0.87326 0.42114 0.52575 0.0
N80 N 0.85984 0.41411 0.36909 0.0
C81 C 0.84991 0.43574 0.30189 0.0
C82 C 0.87012 0.42736 0.27743 0.0
C83 C 0.8852 0.41208 0.30028 0.0
C84 C 0.87843 0.40423 0.3454 0.0
C85 C 0.84673 0.43072 0.34744 0.0
H86 H 0.88876 0.39064 0.36095 0.0
H87 H 0.8337 0.4408 0.36471 0.0
H88 H 0.79569 0.36675 0.49614 0.0
H89 H 0.89762 0.43596 0.51249 0.0
C90 C 0.87053 0.34835 0.44688 0.0
C91 C 0.77412 0.35171 0.39558 0.0
C92 C 0.93806 0.46701 0.43309 0.0
C93 C 0.83277 0.46276 0.45441 0.0
H94 H 0.76601 0.28596 0.39423 0.0
H95 H 0.8175 0.2835 0.42676 0.0
H96 H 0.93924 0.36949 0.45684 0.0
H97 H 0.97618 0.43427 0.44485 0.0
H98 H 0.94493 0.53117 0.44851 0.0
H99 H 0.88768 0.52904 0.464 0.0
H100 H 0.76359 0.44079 0.44237 0.0
H101 H 0.7324 0.38078 0.40609 0.0
H102 H 0.78616 0.37009 0.57545 0.0
H103 H 0.88984 0.44012 0.59117 0.0
H104 H 0.83745 0.44737 0.28616 0.0
H105 H 0.90157 0.40558 0.28325 0.0
C106 C 0.46394 0.79237 0.7456 0.0
C107 C 0.48837 0.78363 0.74487 0.0
C108 C 0.51601 0.80933 0.76353 0.0
C109 C 0.50712 0.83239 0.77427 0.0
N110 N 0.47561 0.82283 0.76343 0.0
Co111 Co 0.45344 0.84935 0.77113 0.0
N112 N 0.49649 0.89112 0.77692 0.0
C113 C 0.52576 0.89335 0.78634 0.0
C114 C 0.55133 0.92537 0.78883 0.0
C115 C 0.53727 0.94455 0.78092 0.0
C116 C 0.50373 0.92305 0.77412 0.0
N117 N 0.43138 0.87602 0.77898 0.0
C118 C 0.44399 0.90928 0.77643 0.0
C119 C 0.41975 0.91736 0.78555 0.0
C120 C 0.3912 0.88818 0.79455 0.0
C121 C 0.39949 0.86389 0.79044 0.0
N122 N 0.41068 0.80741 0.76531 0.0
C123 C 0.38105 0.80251 0.77859 0.0
C124 C 0.35587 0.77087 0.77026 0.0
C125 C 0.37073 0.755 0.75069 0.0
C126 C 0.40421 0.7779 0.7481 0.0
N127 N 0.45178 0.84267 0.83587 0.0
C128 C 0.43794 0.83261 0.92702 0.0
C129 C 0.45231 0.86426 0.90861 0.0
C130 C 0.45923 0.86873 0.86331 0.0
C131 C 0.4324 0.8062 0.89938 0.0
C132 C 0.43963 0.81178 0.85391 0.0
N133 N 0.45391 0.8558 0.70689 0.0
C134 C 0.42372 0.85292 0.64076 0.0
C135 C 0.45173 0.86204 0.61485 0.0
C136 C 0.48127 0.86883 0.63593 0.0
C137 C 0.48177 0.86528 0.68206 0.0
C138 C 0.42538 0.85023 0.68649 0.0
H139 H 0.50449 0.86983 0.69759 0.0
H140 H 0.40325 0.84314 0.70527 0.0
H141 H 0.46936 0.89318 0.85015 0.0
H142 H 0.4342 0.79091 0.83311 0.0
C143 C 0.52904 0.86518 0.78599 0.0
C144 C 0.42954 0.7705 0.7316 0.0
C145 C 0.47925 0.93391 0.76978 0.0
C146 C 0.37745 0.82955 0.79106 0.0
H147 H 0.48656 0.76116 0.73207 0.0
H148 H 0.54018 0.81161 0.76671 0.0
H149 H 0.57726 0.93379 0.79447 0.0
H150 H 0.55016 0.97131 0.78095 0.0
H151 H 0.42259 0.94183 0.78639 0.0
H152 H 0.36713 0.88504 0.80216 0.0
H153 H 0.32968 0.76089 0.77599 0.0
H154 H 0.35843 0.72956 0.73965 0.0
H155 H 0.4574 0.88536 0.92897 0.0
H156 H 0.42169 0.78137 0.91258 0.0
H157 H 0.40052 0.84759 0.62562 0.0
H158 H 0.50345 0.87594 0.61678 0.0
C159 C 0.68102 0.46579 0.08201 0.0
C160 C 0.71403 0.49049 0.08188 0.0
C161 C 0.71521 0.51794 0.10005 0.0
C162 C 0.68298 0.50856 0.11005 0.0
N163 N 0.66161 0.47696 0.09926 0.0
Co164 Co 0.61294 0.45374 0.10728 0.0
N165 N 0.61299 0.4962 0.11277 0.0
C166 C 0.63954 0.52577 0.12228 0.0
C167 C 0.63228 0.55082 0.1244 0.0
C168 C 0.59904 0.53609 0.1161 0.0
C169 C 0.58781 0.50268 0.10947 0.0
N170 N 0.56424 0.43068 0.11483 0.0
C171 C 0.54295 0.44252 0.11143 0.0
C172 C 0.5108 0.41774 0.12013 0.0
C173 C 0.51222 0.38965 0.12967 0.0
C174 C 0.54508 0.39873 0.12625 0.0
N175 N 0.61367 0.41164 0.10286 0.0
C176 C 0.58955 0.38187 0.11672 0.0
C177 C 0.59677 0.35719 0.10827 0.0
C178 C 0.6273 0.37254 0.08799 0.0
C179 C 0.63702 0.4058 0.08513 0.0
N180 N 0.61805 0.45275 0.17215 0.0
C181 C 0.61336 0.43841 0.26328 0.0
C182 C 0.63444 0.43294 0.2359 0.0
C183 C 0.6368 0.44073 0.19056 0.0
C184 C 0.59639 0.45307 0.24463 0.0
C185 C 0.59909 0.46002 0.19931 0.0
N186 N 0.60639 0.45331 0.04266 0.0
C187 C 0.58386 0.42129 0.97616 0.0
C188 C 0.59293 0.44975 0.95105 0.0
C189 C 0.60897 0.48033 0.97327 0.0
C190 C 0.61686 0.48165 1.01846 0.0
C191 C 0.58899 0.42347 0.02164 0.0
H192 H 0.63085 0.5056 0.03373 0.0
H193 H 0.57842 0.40054 0.03944 0.0
H194 H 0.65265 0.43558 0.17008 0.0
H195 H 0.58455 0.46987 0.18592 0.0
C196 C 0.67136 0.5299 0.12181 0.0
C197 C 0.66916 0.43164 0.06781 0.0
C198 C 0.55278 0.47759 0.10435 0.0
C199 C 0.55834 0.37747 0.12806 0.0
H200 H 0.73505 0.4889 0.06991 0.0
H201 H 0.7368 0.54223 0.10363 0.0
H202 H 0.64928 0.57686 0.12985 0.0
H203 H 0.58468 0.54848 0.11556 0.0
H204 H 0.48877 0.41994 0.12037 0.0
H205 H 0.49164 0.36537 0.13725 0.0
H206 H 0.58102 0.33094 0.11396 0.0
H207 H 0.6408 0.3607 0.07651 0.0
H208 H 0.6483 0.42196 0.24923 0.0
H209 H 0.58007 0.45795 0.26472 0.0
H210 H 0.57166 0.39704 0.96101 0.0
H211 H 0.61596 0.50313 0.95574 0.0
C212 C 0.22696 0.67351 0.41169 0.0
C213 C 0.23749 0.70708 0.40942 0.0
C214 C 0.21267 0.71108 0.42696 0.0
C215 C 0.18827 0.6799 0.43858 0.0
N216 N 0.19616 0.65647 0.42932 0.0
Co217 Co 0.16732 0.60827 0.43914 0.0
N218 N 0.12702 0.61248 0.44286 0.0
C219 C 0.12647 0.64062 0.45026 0.0
C220 C 0.09506 0.63611 0.45071 0.0
C221 C 0.07451 0.60299 0.4435 0.0
C222 C 0.09463 0.58909 0.43916 0.0
N223 N 0.1384 0.56023 0.44973 0.0
C224 C 0.10495 0.54109 0.44705 0.0
C225 C 0.09494 0.50868 0.45866 0.0
C226 C 0.12314 0.50772 0.46918 0.0
C227 C 0.14881 0.53951 0.46347 0.0
N228 N 0.20779 0.60445 0.43417 0.0
C229 C 0.21088 0.57895 0.44899 0.0
C230 C 0.24176 0.58317 0.44075 0.0
C231 C 0.25908 0.61327 0.41966 0.0
C232 C 0.23776 0.62576 0.41611 0.0
N233 N 0.17397 0.6145 0.50373 0.0
C234 C 0.18135 0.60593 0.59447 0.0
C235 C 0.20896 0.62146 0.56638 0.0
C236 C 0.20487 0.62688 0.52174 0.0
C237 C 0.15039 0.59757 0.57669 0.0
C238 C 0.14713 0.60119 0.53138 0.0
N239 N 0.1606 0.60058 0.37554 0.0
C240 C 0.16083 0.56945 0.31241 0.0
C241 C 0.15257 0.58811 0.28482 0.0
C242 C 0.14752 0.61276 0.30343 0.0
C243 C 0.15213 0.61894 0.34902 0.0
C244 C 0.16426 0.57573 0.35751 0.0
H245 H 0.14911 0.63859 0.36279 0.0
H246 H 0.17026 0.56051 0.3777 0.0
H247 H 0.22669 0.63928 0.50135 0.0
H248 H 0.12254 0.59142 0.51865 0.0
C249 C 0.15576 0.67113 0.4494 0.0
C250 C 0.24735 0.65895 0.39877 0.0
C251 C 0.08202 0.55333 0.43666 0.0
C252 C 0.1828 0.54975 0.4636 0.0
H253 H 0.26049 0.7267 0.39613 0.0
H254 H 0.2118 0.7338 0.42871 0.0
H255 H 0.08796 0.6548 0.4544 0.0
H256 H 0.04776 0.59045 0.44236 0.0
H257 H 0.06989 0.48801 0.45971 0.0
H258 H 0.12476 0.48617 0.47843 0.0
H259 H 0.25036 0.56598 0.44781 0.0
H260 H 0.2845 0.62484 0.40851 0.0
H261 H 0.23352 0.62886 0.5786 0.0
H262 H 0.12841 0.58621 0.59721 0.0
H263 H 0.16478 0.55015 0.29907 0.0
H264 H 0.14112 0.62768 0.28273 0.0
C265 C 0.55619 0.221 0.7484 0.0
C266 C 0.53273 0.23101 0.74661 0.0
C267 C 0.50417 0.20583 0.76427 0.0
C268 C 0.51159 0.18178 0.77551 0.0
N269 N 0.54304 0.19025 0.76595 0.0
Co270 Co 0.56339 0.16225 0.77556 0.0
N271 N 0.51937 0.12144 0.77924 0.0
C272 C 0.49033 0.1202 0.7868 0.0
C273 C 0.46392 0.08854 0.7872 0.0
C274 C 0.47719 0.06859 0.77978 0.0
C275 C 0.51113 0.0893 0.77536 0.0
N276 N 0.58351 0.13419 0.78605 0.0
C277 C 0.56991 0.10087 0.78318 0.0
C278 C 0.59283 0.09149 0.79471 0.0
C279 C 0.6216 0.11999 0.80537 0.0
C280 C 0.61474 0.14519 0.79983 0.0
N281 N 0.60718 0.20323 0.77054 0.0
C282 C 0.63606 0.20698 0.78529 0.0
C283 C 0.66224 0.2381 0.77693 0.0
C284 C 0.64884 0.25485 0.75584 0.0
C285 C 0.61514 0.23298 0.75242 0.0
N286 N 0.56361 0.16871 0.84014 0.0
C287 C 0.57969 0.17603 0.93074 0.0
C288 C 0.59121 0.2037 0.90284 0.0
C289 C 0.58165 0.1996 0.85825 0.0
C290 C 0.55754 0.14502 0.9129 0.0
C291 C 0.55055 0.14181 0.86766 0.0
N292 N 0.56454 0.1557 0.71196 0.0
C293 C 0.59601 0.15578 0.64897 0.0
C294 C 0.56909 0.14741 0.62138 0.0
C295 C 0.53938 0.14249 0.63986 0.0
C296 C 0.53772 0.14712 0.68543 0.0
C297 C 0.59315 0.15949 0.694 0.0
H298 H 0.51498 0.14401 0.69917 0.0
H299 H 0.61443 0.16577 0.71418 0.0
H300 H 0.59068 0.22142 0.83795 0.0
H301 H 0.53608 0.11723 0.85486 0.0
C302 C 0.48835 0.1491 0.78625 0.0
C303 C 0.59096 0.24178 0.73505 0.0
C304 C 0.53492 0.07746 0.77271 0.0
C305 C 0.63793 0.17931 0.79994 0.0
H306 H 0.53568 0.25393 0.73359 0.0
H307 H 0.48038 0.20452 0.76634 0.0
H308 H 0.438 0.08089 0.79103 0.0
H309 H 0.46352 0.04185 0.77857 0.0
H310 H 0.58906 0.06666 0.79559 0.0
H311 H 0.64501 0.12212 0.81456 0.0
H312 H 0.68814 0.24721 0.7839 0.0
H313 H 0.66219 0.28026 0.74459 0.0
H314 H 0.60798 0.22829 0.91518 0.0
H315 H 0.54738 0.12299 0.93331 0.0
H316 H 0.61929 0.15976 0.63565 0.0
H317 H 0.51811 0.13613 0.61909 0.0
C318 C 0.46548 0.67465 0.62943 0.0
C319 C 0.48976 0.7078 0.63024 0.0
C320 C 0.51776 0.70973 0.61263 0.0
C321 C 0.5091 0.67778 0.60228 0.0
N322 N 0.47746 0.65586 0.61235 0.0
Co323 Co 0.45527 0.60727 0.60407 0.0
N324 N 0.49832 0.60839 0.59861 0.0
C325 C 0.52765 0.63541 0.5894 0.0
C326 C 0.55323 0.62891 0.58715 0.0
C327 C 0.53913 0.59569 0.59506 0.0
C328 C 0.50555 0.5837 0.60161 0.0
N329 N 0.43321 0.5586 0.59662 0.0
C330 C 0.44578 0.53789 0.60004 0.0
C331 C 0.42151 0.50554 0.59144 0.0
C332 C 0.39301 0.5062 0.58195 0.0
C333 C 0.40134 0.53883 0.58528 0.0
N334 N 0.41252 0.60687 0.6079 0.0
C335 C 0.38311 0.5823 0.59379 0.0
C336 C 0.35786 0.5889 0.60104 0.0
C337 C 0.37243 0.61953 0.62079 0.0
C338 C 0.40582 0.62991 0.62458 0.0
N339 N 0.45445 0.61252 0.53929 0.0
C340 C 0.44062 0.60859 0.44823 0.0
C341 C 0.45417 0.59062 0.4669 0.0
C342 C 0.4611 0.59314 0.51217 0.0
C343 C 0.43603 0.63026 0.47547 0.0
C344 C 0.44329 0.63202 0.52091 0.0
N345 N 0.4548 0.60074 0.66869 0.0
C346 C 0.42297 0.57865 0.73554 0.0
C347 C 0.45153 0.58762 0.76037 0.0
C348 C 0.48202 0.60337 0.73786 0.0
C349 C 0.48322 0.61116 0.69269 0.0
C350 C 0.42499 0.58359 0.68999 0.0
H351 H 0.50717 0.6251 0.67733 0.0
H352 H 0.40197 0.57308 0.67243 0.0
H353 H 0.47044 0.57818 0.5256 0.0
H354 H 0.4385 0.64805 0.54144 0.0
C355 C 0.53104 0.6669 0.59047 0.0
C356 C 0.43087 0.66221 0.64225 0.0
C357 C 0.48108 0.54848 0.60682 0.0
C358 C 0.37951 0.55137 0.58299 0.0
H359 H 0.4875 0.72844 0.64214 0.0
H360 H 0.54188 0.73164 0.60951 0.0
H361 H 0.57921 0.6464 0.58196 0.0
H362 H 0.55207 0.58185 0.59552 0.0
H363 H 0.42434 0.4839 0.59117 0.0
H364 H 0.36897 0.48528 0.57431 0.0
H365 H 0.33174 0.57272 0.59484 0.0
H366 H 0.35998 0.63265 0.6314 0.0
H367 H 0.45848 0.57393 0.4468 0.0
H368 H 0.42594 0.64489 0.46204 0.0
H369 H 0.39877 0.56666 0.75096 0.0
H370 H 0.50488 0.61029 0.75518 0.0
C371 C 0.79891 0.46581 0.95692 0.0
C372 C 0.79093 0.49075 0.95729 0.0
C373 C 0.81722 0.51804 0.93874 0.0
C374 C 0.83974 0.50833 0.92829 0.0
N375 N 0.8293 0.47668 0.93915 0.0
Co376 Co 0.85435 0.45304 0.93083 0.0
N377 N 0.89692 0.49527 0.92435 0.0
C378 C 0.90011 0.52492 0.91477 0.0
C379 C 0.93246 0.54971 0.91146 0.0
C380 C 0.95082 0.5347 0.91897 0.0
C381 C 0.92851 0.50143 0.92639 0.0
N382 N 0.87953 0.42948 0.92309 0.0
C383 C 0.91266 0.44107 0.92544 0.0
C384 C 0.91963 0.416 0.91689 0.0
C385 C 0.88987 0.38798 0.9084 0.0
C386 C 0.86637 0.39739 0.91228 0.0
N387 N 0.81135 0.41117 0.93607 0.0
C388 C 0.80532 0.38124 0.92252 0.0
C389 C 0.77339 0.3568 0.9314 0.0
C390 C 0.75858 0.37248 0.95166 0.0
C391 C 0.78235 0.40567 0.95408 0.0
N392 N 0.8478 0.45185 0.86616 0.0
C393 C 0.83735 0.43793 0.77521 0.0
C394 C 0.8689 0.45105 0.79354 0.0
C395 C 0.87359 0.458 0.83874 0.0
C396 C 0.81132 0.43373 0.80276 0.0
C397 C 0.81711 0.44103 0.84815 0.0
N398 N 0.86096 0.45297 0.99531 0.0
C399 C 0.85178 0.42147 0.06234 0.0
C400 C 0.87101 0.45018 0.08698 0.0
C401 C 0.88541 0.48057 0.06424 0.0
C402 C 0.87882 0.48151 1.019 0.0
C403 C 0.84866 0.42329 1.0168 0.0
H404 H 0.88865 0.50533 1.00328 0.0
H405 H 0.83622 0.40025 0.99933 0.0
H406 H 0.89794 0.46701 0.85179 0.0
H407 H 0.79649 0.43662 0.86895 0.0
C408 C 0.87263 0.52939 0.9159 0.0
C409 C 0.77643 0.43173 0.97137 0.0
C410 C 0.9382 0.47613 0.9311 0.0
C411 C 0.83182 0.37642 0.91103 0.0
H412 H 0.76853 0.48942 0.96965 0.0
H413 H 0.82014 0.54244 0.93517 0.0
H414 H 0.94165 0.57575 0.9056 0.0
H415 H 0.97756 0.54681 0.91839 0.0
H416 H 0.94375 0.41799 0.91591 0.0
H417 H 0.88585 0.36357 0.90104 0.0
H418 H 0.76264 0.3305 0.926 0.0
H419 H 0.73331 0.36089 0.96345 0.0
H420 H 0.8897 0.45502 0.77322 0.0
H421 H 0.78659 0.42396 0.78958 0.0
H422 H 0.83991 0.39735 0.07796 0.0
H423 H 0.90106 0.50353 0.08145 0.0
C424 C 0.34216 0.78698 0.29509 0.0
C425 C 0.30855 0.77636 0.29584 0.0
C426 C 0.30508 0.80181 0.27941 0.0
C427 C 0.33662 0.82647 0.26968 0.0
N428 N 0.35977 0.8182 0.27906 0.0
Co429 Co 0.40818 0.84657 0.26944 0.0
N430 N 0.40464 0.88727 0.26588 0.0
C431 C 0.37659 0.8882 0.25905 0.0
C432 C 0.38154 0.91973 0.25767 0.0
C433 C 0.41486 0.94001 0.26356 0.0
C434 C 0.42843 0.91961 0.2681 0.0
N435 N 0.45645 0.87506 0.2586 0.0
C436 C 0.47598 0.90851 0.26037 0.0
C437 C 0.50825 0.91798 0.2486 0.0
C438 C 0.50874 0.88949 0.23873 0.0
C439 C 0.47683 0.86419 0.24496 0.0
N440 N 0.41128 0.80573 0.27398 0.0
C441 C 0.43674 0.80236 0.25973 0.0
C442 C 0.43226 0.77145 0.26844 0.0
C443 C 0.40204 0.75439 0.28926 0.0
C444 C 0.38968 0.77584 0.29203 0.0
N445 N 0.40164 0.84014 0.20481 0.0
C446 C 0.40579 0.83122 0.11344 0.0
C447 C 0.38683 0.80409 0.14119 0.0
C448 C 0.38484 0.8091 0.18674 0.0
C449 C 0.42064 0.86287 0.13182 0.0
C450 C 0.41807 0.86676 0.17724 0.0
N451 N 0.41604 0.85285 0.33355 0.0
C452 C 0.44953 0.85548 0.39594 0.0
C453 C 0.42823 0.85884 0.4251 0.0
C454 C 0.4009 0.85993 0.40743 0.0
C455 C 0.39544 0.85724 0.36141 0.0
C456 C 0.44275 0.852 0.35078 0.0
H457 H 0.3744 0.85824 0.34843 0.0
H458 H 0.45912 0.84807 0.32996 0.0
H459 H 0.371 0.78773 0.20759 0.0
H460 H 0.43093 0.89134 0.19034 0.0
C461 C 0.34585 0.85917 0.25962 0.0
C462 C 0.35625 0.76638 0.30824 0.0
C463 C 0.46419 0.93196 0.26934 0.0
C464 C 0.46614 0.83016 0.24518 0.0
H465 H 0.28863 0.75277 0.30721 0.0
H466 H 0.28241 0.80274 0.27679 0.0
H467 H 0.36307 0.92711 0.25375 0.0
H468 H 0.42777 0.96677 0.26347 0.0
H469 H 0.52911 0.94289 0.24679 0.0
H470 H 0.53004 0.88745 0.22938 0.0
H471 H 0.44938 0.76268 0.26187 0.0
H472 H 0.39023 0.729 0.30055 0.0
H473 H 0.37464 0.7792 0.12805 0.0
H474 H 0.43519 0.88448 0.11141 0.0
H475 H 0.47088 0.85456 0.40822 0.0
H476 H 0.38388 0.86261 0.42902 0.0
C477 C 0.55663 0.33711 0.63064 0.0
C478 C 0.5328 0.30381 0.63139 0.0
C479 C 0.50457 0.30138 0.61389 0.0
C480 C 0.51265 0.33322 0.60363 0.0
N481 N 0.54416 0.35553 0.61364 0.0
Co482 Co 0.56561 0.40407 0.60512 0.0
N483 N 0.52213 0.40213 0.59994 0.0
C484 C 0.49301 0.3748 0.59108 0.0
C485 C 0.46705 0.38074 0.58904 0.0
C486 C 0.48068 0.41393 0.59669 0.0
C487 C 0.51438 0.42646 0.6029 0.0
N488 N 0.58692 0.45265 0.59716 0.0
C489 C 0.57384 0.47293 0.60021 0.0
C490 C 0.59769 0.50537 0.5911 0.0
C491 C 0.62644 0.5052 0.58165 0.0
C492 C 0.61867 0.47276 0.58554 0.0
N493 N 0.60876 0.40526 0.60907 0.0
C494 C 0.63799 0.43015 0.59489 0.0
C495 C 0.66363 0.42419 0.60259 0.0
C496 C 0.64951 0.39366 0.6227 0.0
C497 C 0.61598 0.38267 0.62624 0.0
N498 N 0.56641 0.39885 0.54025 0.0
C499 C 0.5803 0.4039 0.44897 0.0
C500 C 0.58703 0.38362 0.47626 0.0
C501 C 0.57944 0.38105 0.52169 0.0
C502 C 0.56461 0.41978 0.46777 0.0
C503 C 0.55792 0.41692 0.51315 0.0
N504 N 0.56612 0.41073 0.66977 0.0
C505 C 0.598 0.43398 0.73626 0.0
C506 C 0.56942 0.42475 0.76119 0.0
C507 C 0.53888 0.40817 0.73892 0.0
C508 C 0.5377 0.39996 0.69393 0.0
C509 C 0.59593 0.42856 0.69082 0.0
H510 H 0.51375 0.38548 0.67881 0.0
H511 H 0.61891 0.43934 0.67312 0.0
H512 H 0.58555 0.36587 0.54211 0.0
H513 H 0.54729 0.43069 0.52663 0.0
C514 C 0.49023 0.34356 0.59207 0.0
C515 C 0.59125 0.35011 0.64379 0.0
C516 C 0.53846 0.46185 0.60737 0.0
C517 C 0.64098 0.46076 0.5836 0.0
H518 H 0.53551 0.28341 0.64326 0.0
H519 H 0.48064 0.27922 0.61082 0.0
H520 H 0.44114 0.36292 0.58405 0.0
H521 H 0.46738 0.4274 0.5971 0.0
H522 H 0.59443 0.52675 0.5905 0.0
H523 H 0.65029 0.52633 0.57373 0.0
H524 H 0.6897 0.44073 0.59642 0.0
H525 H 0.66233 0.38097 0.63363 0.0
H526 H 0.59883 0.37061 0.46281 0.0
H527 H 0.55876 0.43545 0.44777 0.0
H528 H 0.62225 0.44658 0.75148 0.0
H529 H 0.51596 0.40098 0.75629 0.0
C530 C 0.22895 0.55855 0.96033 0.0
C531 C 0.23965 0.53562 0.9613 0.0
C532 C 0.21323 0.50597 0.94971 0.0
C533 C 0.18805 0.51245 0.94234 0.0
N534 N 0.19679 0.54452 0.94789 0.0
Co535 Co 0.16744 0.56429 0.94064 0.0
N536 N 0.12737 0.51963 0.93178 0.0
C537 C 0.12652 0.49028 0.93055 0.0
C538 C 0.0953 0.46353 0.92688 0.0
C539 C 0.07481 0.47647 0.92635 0.0
C540 C 0.09486 0.51054 0.92956 0.0
N541 N 0.13801 0.58389 0.93191 0.0
C542 C 0.10454 0.56882 0.92795 0.0
C543 C 0.09406 0.59172 0.92337 0.0
C544 C 0.12182 0.62234 0.92522 0.0
C545 C 0.14767 0.61648 0.93061 0.0
N546 N 0.20747 0.60868 0.95182 0.0
C547 C 0.20852 0.63817 0.95188 0.0
C548 C 0.23856 0.66394 0.96502 0.0
C549 C 0.25758 0.64998 0.97475 0.0
C550 C 0.23808 0.6164 0.96685 0.0
N551 N 0.1765 0.56895 0.87536 0.0
C552 C 0.18278 0.57601 0.78194 0.0
C553 C 0.18615 0.60166 0.80891 0.0
C554 C 0.18427 0.59809 0.85466 0.0
C555 C 0.17762 0.54693 0.80286 0.0
C556 C 0.17377 0.54364 0.84922 0.0
N557 N 0.15842 0.56072 1.00526 0.0
C558 C 0.14983 0.585 0.07084 0.0
C559 C 0.15206 0.56208 0.09759 0.0
C560 C 0.15589 0.53712 0.07756 0.0
C561 C 0.15849 0.53659 0.03117 0.0
C562 C 0.1535 0.58419 0.02552 0.0
H563 H 0.16132 0.51711 1.01686 0.0
H564 H 0.15317 0.60367 1.00806 0.0
H565 H 0.18905 0.61951 0.87226 0.0
H566 H 0.16839 0.52043 0.86305 0.0
C567 C 0.15521 0.48846 0.93526 0.0
C568 C 0.2495 0.59267 0.97484 0.0
C569 C 0.08172 0.53309 0.93052 0.0
C570 C 0.18035 0.6405 0.94146 0.0
H571 H 0.26372 0.53961 0.9709 0.0
H572 H 0.21211 0.48225 0.94875 0.0
H573 H 0.08824 0.43765 0.92584 0.0
H574 H 0.04808 0.46237 0.92435 0.0
H575 H 0.06886 0.58676 0.92046 0.0
H576 H 0.12283 0.64601 0.92491 0.0
H577 H 0.24553 0.6897 0.9683 0.0
H578 H 0.28276 0.66288 0.98691 0.0
H579 H 0.19068 0.62489 0.79469 0.0
H580 H 0.17555 0.5265 0.78346 0.0
H581 H 0.14676 0.60458 0.08518 0.0
H582 H 0.15747 0.51869 0.09753 0.0
C583 C 0.67468 0.22192 0.29461 0.0
C584 C 0.70806 0.23151 0.29562 0.0
C585 C 0.7102 0.2043 0.28502 0.0
C586 C 0.6782 0.17979 0.27818 0.0
N587 N 0.65565 0.1897 0.28305 0.0
Co588 Co 0.60629 0.16148 0.27695 0.0
N589 N 0.6093 0.12043 0.269 0.0
C590 C 0.63728 0.11861 0.26664 0.0
C591 C 0.63183 0.08703 0.263 0.0
C592 C 0.5983 0.06733 0.26354 0.0
C593 C 0.58519 0.08816 0.26739 0.0
N594 N 0.55688 0.13301 0.27056 0.0
C595 C 0.53762 0.09954 0.26802 0.0
C596 C 0.50434 0.08992 0.2652 0.0
C597 C 0.50242 0.11823 0.2666 0.0
C598 C 0.53454 0.14351 0.2701 0.0
N599 N 0.60358 0.20265 0.28627 0.0
C600 C 0.5758 0.20498 0.28529 0.0
C601 C 0.5813 0.23581 0.29655 0.0
C602 C 0.61439 0.25407 0.30591 0.0
C603 C 0.62732 0.23334 0.29978 0.0
N604 N 0.60995 0.16916 0.21126 0.0
C605 C 0.61006 0.1759 0.11783 0.0
C606 C 0.58611 0.17686 0.14414 0.0
C607 C 0.58721 0.17466 0.18989 0.0
C608 C 0.63485 0.17246 0.13929 0.0
C609 C 0.63389 0.16837 0.18564 0.0
N610 N 0.60175 0.15393 0.34183 0.0
C611 C 0.57097 0.14902 0.40834 0.0
C612 C 0.59468 0.1475 0.43423 0.0
C613 C 0.62179 0.14807 0.41328 0.0
C614 C 0.62457 0.15078 0.36685 0.0
C615 C 0.57523 0.15278 0.36303 0.0
H616 H 0.64546 0.15091 0.35172 0.0
H617 H 0.55687 0.15551 0.34624 0.0
H618 H 0.56911 0.17755 0.20683 0.0
H619 H 0.65264 0.16453 0.19984 0.0
C620 C 0.66828 0.14669 0.27102 0.0
C621 C 0.66225 0.24375 0.30787 0.0
C622 C 0.54967 0.07594 0.2696 0.0
C623 C 0.54456 0.17701 0.27764 0.0
H624 H 0.72867 0.25544 0.30444 0.0
H625 H 0.73233 0.2023 0.28409 0.0
H626 H 0.65009 0.07921 0.26136 0.0
H627 H 0.58501 0.0406 0.26184 0.0
H628 H 0.48358 0.06496 0.26336 0.0
H629 H 0.48019 0.12004 0.26668 0.0
H630 H 0.56319 0.24376 0.29918 0.0
H631 H 0.62749 0.27955 0.31678 0.0
H632 H 0.56659 0.17989 0.12941 0.0
H633 H 0.65438 0.17213 0.12034 0.0
H634 H 0.54972 0.14872 0.42338 0.0
H635 H 0.64072 0.14686 0.43255 0.0
C636 C 0.44332 0.61654 0.32176 0.0
C637 C 0.41359 0.5873 0.31006 0.0
C638 C 0.39868 0.57642 0.3889 0.0
C639 C 0.43021 0.60331 0.40064 0.0
N640 N 0.48359 0.64797 0.37881 0.0
N641 N 0.3637 0.53804 0.33206 0.0
C642 C 0.45273 0.62327 0.36717 0.0
C643 C 0.39128 0.56703 0.34354 0.0
N644 N 0.46229 0.63815 0.2893 0.0
N645 N 0.37569 0.56007 0.42123 0.0
H646 H 0.35713 0.53082 0.29928 0.0
H647 H 0.34841 0.52014 0.35479 0.0
H648 H 0.38045 0.56594 0.4547 0.0
H649 H 0.35113 0.54253 0.41485 0.0
H650 H 0.48246 0.66146 0.29554 0.0
H651 H 0.4562 0.63394 0.25582 0.0
H652 H 0.50265 0.66089 0.35625 0.0
H653 H 0.49088 0.65431 0.41163 0.0
C654 C 0.83202 0.44096 0.64885 0.0
C655 C 0.83211 0.41154 0.63699 0.0
C656 C 0.8278 0.39627 0.7157 0.0
C657 C 0.83203 0.42759 0.72763 0.0
N658 N 0.84014 0.48081 0.70614 0.0
N659 N 0.83216 0.36193 0.65873 0.0
C660 C 0.83439 0.45013 0.69431 0.0
C661 C 0.8302 0.3892 0.67033 0.0
N662 N 0.82914 0.45987 0.61651 0.0
N663 N 0.82119 0.37317 0.74787 0.0
H664 H 0.83317 0.35561 0.62592 0.0
H665 H 0.83487 0.34667 0.68142 0.0
H666 H 0.8197 0.37769 0.78133 0.0
H667 H 0.81452 0.34874 0.74132 0.0
H668 H 0.82561 0.47979 0.62288 0.0
H669 H 0.82745 0.45393 0.583 0.0
H670 H 0.84616 0.49991 0.68369 0.0
H671 H 0.84087 0.48792 0.739 0.0
C672 C 0.396 0.82139 0.98723 0.0
C673 C 0.42803 0.82761 0.97487 0.0
C674 C 0.44253 0.82936 0.05357 0.0
C675 C 0.41199 0.827 0.06581 0.0
N676 N 0.36028 0.82282 0.04477 0.0
N677 N 0.48268 0.83945 0.99566 0.0
C678 C 0.38874 0.82324 0.03274 0.0
C679 C 0.45147 0.8319 1.00794 0.0
N680 N 0.37245 0.8135 0.95534 0.0
N681 N 0.46275 0.82858 0.08574 0.0
H682 H 0.48964 0.8401 0.96272 0.0
H683 H 0.50225 0.84691 1.01773 0.0
H684 H 0.4571 0.82696 0.11936 0.0
H685 H 0.48372 0.82683 0.07923 0.0
H686 H 0.34767 0.8053 0.96215 0.0
H687 H 0.37712 0.81273 0.92176 0.0
H688 H 0.34401 0.82406 0.02237 0.0
H689 H 0.35382 0.82327 0.07768 0.0
C690 C 0.6293 0.44795 0.34426 0.0
C691 C 0.60731 0.42739 0.31077 0.0
C692 C 0.57092 0.38819 0.36792 0.0
C693 C 0.59113 0.41041 0.40143 0.0
N694 N 0.63922 0.46166 0.42246 0.0
N695 N 0.55694 0.37827 0.28978 0.0
C696 C 0.62041 0.44024 0.38979 0.0
C697 C 0.57817 0.39743 0.32241 0.0
N698 N 0.65883 0.47476 0.33237 0.0
N699 N 0.54488 0.35811 0.37977 0.0
H700 H 0.56228 0.38317 0.25619 0.0
H701 H 0.5334 0.35833 0.29558 0.0
H702 H 0.53834 0.35105 0.41263 0.0
H703 H 0.53099 0.3392 0.35753 0.0
H704 H 0.67768 0.48901 0.35454 0.0
H705 H 0.66558 0.48168 0.29953 0.0
H706 H 0.65851 0.48557 0.41672 0.0
H707 H 0.63463 0.45607 0.45603 0.0
C708 C 0.16245 0.56442 0.65755 0.0
C709 C 0.18414 0.59698 0.64158 0.0
C710 C 0.21123 0.61035 0.71415 0.0
C711 C 0.18493 0.58078 0.7325 0.0
N712 N 0.13107 0.53238 0.7206 0.0
N713 N 0.22527 0.65331 0.65991 0.0
C714 C 0.15934 0.55835 0.70392 0.0
C715 C 0.20768 0.62065 0.67122 0.0
N716 N 0.14544 0.53899 0.62865 0.0
N717 N 0.2398 0.62851 0.73745 0.0
H718 H 0.22158 0.66256 0.6304 0.0
H719 H 0.24064 0.67162 0.68217 0.0
H720 H 0.24391 0.62083 0.76804 0.0
H721 H 0.26054 0.64892 0.724 0.0
H722 H 0.13132 0.51447 0.63896 0.0
H723 H 0.14869 0.54185 0.59447 0.0
H724 H 0.11073 0.51735 0.7008 0.0
H725 H 0.12639 0.52805 0.75432 0.0
C726 C 0.60654 0.1543 0.03923 0.0
C727 C 0.60826 0.17893 0.06847 0.0
C728 C 0.59037 0.2015 1.00786 0.0
C729 C 0.59157 0.17882 0.97769 0.0
N730 N 0.61276 0.14178 0.96351 0.0
N731 N 0.61291 0.23265 0.0752 0.0
C732 C 0.60349 0.1578 0.99298 0.0
C733 C 0.60392 0.2048 0.05091 0.0
N734 N 0.60571 0.12653 0.0552 0.0
N735 N 0.5745 0.21842 0.99692 0.0
H736 H 0.62426 0.23649 0.10607 0.0
H737 H 0.61254 0.25322 0.06243 0.0
H738 H 0.56184 0.2149 0.96723 0.0
H739 H 0.5707 0.23304 1.01953 0.0
H740 H 0.6013 0.10666 0.03499 0.0
H741 H 0.60584 0.1217 0.0888 0.0
H742 H 0.62396 0.12826 0.97327 0.0
H743 H 0.61295 0.14531 0.92942 0.0
C744 C 0.33492 0.60471 0.99945 0.0
C745 C 0.33238 0.59833 0.04565 0.0
C746 C 0.27855 0.5959 0.04693 0.0
C747 C 0.28054 0.60142 1.00058 0.0
N748 N 0.31352 0.6188 0.9345 0.0
N749 N 0.30704 0.59796 0.11508 0.0
C750 C 0.30994 0.6087 0.97755 0.0
C751 C 0.306 0.59758 0.06995 0.0
N752 N 0.36032 0.60531 0.97622 0.0
N753 N 0.24954 0.58681 0.06849 0.0
H754 H 0.32674 0.59892 0.13271 0.0
H755 H 0.29006 0.6004 0.13475 0.0
H756 H 0.22921 0.58594 0.05282 0.0
H757 H 0.24493 0.57811 0.10092 0.0
H758 H 0.36173 0.60594 0.94186 0.0
H759 H 0.37942 0.60355 0.9915 0.0
H760 H 0.33529 0.62712 0.91652 0.0
H761 H 0.29538 0.62149 0.91789 0.0
C762 C 0.73656 0.32959 0.32827 0.0
C763 C 0.74124 0.32817 0.37448 0.0
C764 C 0.69008 0.27421 0.37834 0.0
C765 C 0.68552 0.27526 0.33208 0.0
N766 N 0.70005 0.30662 0.26457 0.0
N767 N 0.71784 0.30401 0.44511 0.0
C768 C 0.70727 0.30406 0.30766 0.0
C769 C 0.71627 0.30213 0.40002 0.0
N770 N 0.76086 0.35452 0.30382 0.0
N771 N 0.67067 0.24567 0.40114 0.0
H772 H 0.73686 0.32401 0.46184 0.0
H773 H 0.69887 0.28737 0.46566 0.0
H774 H 0.65078 0.22507 0.38663 0.0
H775 H 0.67562 0.24168 0.43344 0.0
H776 H 0.76105 0.35518 0.26942 0.0
H777 H 0.78196 0.37398 0.31808 0.0
H778 H 0.71314 0.32795 0.24564 0.0
H779 H 0.67908 0.28808 0.2488 0.0
C780 C 0.42027 0.71207 0.73452 0.0
C781 C 0.42043 0.73802 0.70962 0.0
C782 C 0.41851 0.7094 0.64051 0.0
C783 C 0.42151 0.68507 0.66518 0.0
N784 N 0.4176 0.65854 0.73483 0.0
N785 N 0.40971 0.75658 0.64077 0.0
C786 C 0.4197 0.68483 0.71205 0.0
C787 C 0.41619 0.73501 0.66314 0.0
N788 N 0.42192 0.71432 0.77962 0.0
N789 N 0.41965 0.70893 0.59537 0.0
H790 H 0.40861 0.77593 0.65637 0.0
H791 H 0.40257 0.75368 0.60774 0.0
H792 H 0.41995 0.68984 0.57785 0.0
H793 H 0.42181 0.72802 0.57527 0.0
H794 H 0.42545 0.69849 0.8002 0.0
H795 H 0.42053 0.73297 0.79675 0.0
H796 H 0.41409 0.65523 0.7688 0.0
H797 H 0.41714 0.63849 0.71902 0.0
C798 C 0.71729 0.42089 0.06648 0.0
C799 C 0.69236 0.42364 0.04307 0.0
C800 C 0.71768 0.42136 0.97263 0.0
C801 C 0.74525 0.42389 0.99607 0.0
N802 N 0.77207 0.42669 0.06518 0.0
N803 N 0.66871 0.42715 0.974 0.0
C804 C 0.74501 0.42331 0.04303 0.0
C805 C 0.69226 0.42353 0.99611 0.0
N806 N 0.71452 0.41632 0.11126 0.0
N807 N 0.71606 0.41717 0.9278 0.0
H808 H 0.64922 0.42764 0.9901 0.0
H809 H 0.66932 0.4314 0.94013 0.0
H810 H 0.73461 0.41623 0.90969 0.0
H811 H 0.69536 0.41202 0.90898 0.0
H812 H 0.73 0.41103 0.13004 0.0
H813 H 0.69495 0.41521 0.12933 0.0
H814 H 0.77552 0.43054 0.09911 0.0
H815 H 0.79216 0.42739 0.04908 0.0
C816 C 0.3062 0.70676 0.40164 0.0
C817 C 0.28049 0.68086 0.37693 0.0
C818 C 0.31205 0.70554 0.30837 0.0
C819 C 0.33436 0.73436 0.33247 0.0
N820 N 0.35245 0.76298 0.40183 0.0
N821 N 0.26054 0.65236 0.30797 0.0
C822 C 0.33177 0.7348 0.3792 0.0
C823 C 0.28424 0.67903 0.3306 0.0
N824 N 0.30573 0.7046 0.44671 0.0
N825 N 0.31696 0.70434 0.264 0.0
H826 H 0.24045 0.63264 0.32367 0.0
H827 H 0.26044 0.64937 0.27395 0.0
H828 H 0.33664 0.72364 0.24712 0.0
H829 H 0.30281 0.68403 0.24394 0.0
H830 H 0.32509 0.7211 0.46679 0.0
H831 H 0.28713 0.68438 0.46375 0.0
H832 H 0.34925 0.7667 0.43498 0.0
H833 H 0.37189 0.78359 0.38658 0.0
C834 C 0.60627 0.2777 0.66641 0.0
C835 C 0.60134 0.27455 0.71279 0.0
C836 C 0.60055 0.32694 0.71462 0.0
C837 C 0.60091 0.32771 0.66764 0.0
N838 N 0.60589 0.30537 0.59826 0.0
N839 N 0.60358 0.30021 0.78242 0.0
C840 C 0.60515 0.30395 0.64343 0.0
C841 C 0.60186 0.30072 0.73734 0.0
N842 N 0.6124 0.25572 0.64459 0.0
N843 N 0.59706 0.35035 0.73728 0.0
H844 H 0.60465 0.28132 0.79947 0.0
H845 H 0.6064 0.31933 0.80287 0.0
H846 H 0.59737 0.3704 0.72162 0.0
H847 H 0.59285 0.34962 0.77112 0.0
H848 H 0.6198 0.25832 0.6117 0.0
H849 H 0.61275 0.23607 0.66057 0.0
H850 H 0.60489 0.28692 0.57797 0.0
H851 H 0.60623 0.32478 0.58069 0.0
C852 C 0.50016 0.51454 0.06381 0.0
C853 C 0.48972 0.52144 0.10457 0.0
C854 C 0.51801 0.49681 0.14514 0.0
C855 C 0.5277 0.48904 0.10438 0.0
N856 N 0.5256 0.48704 0.02501 0.0
N857 N 0.48654 0.51738 0.18404 0.0
C858 C 0.51803 0.49693 0.06369 0.0
C859 C 0.49823 0.5122 0.14522 0.0
N860 N 0.49341 0.52542 0.02532 0.0
N861 N 0.52874 0.49041 0.18398 0.0
H862 H 0.47467 0.53116 0.18593 0.0
H863 H 0.48734 0.5071 0.21422 0.0
H864 H 0.54054 0.47655 0.18558 0.0
H865 H 0.52713 0.49969 0.21455 0.0
H866 H 0.50233 0.52386 0.99446 0.0
H867 H 0.48029 0.53813 0.02449 0.0
H868 H 0.51736 0.48943 0.99403 0.0
H869 H 0.53859 0.47421 0.02411 0.0
C870 C 0.99158 0.50216 0.47511 0.0
C871 C 0.97469 0.49183 0.43394 0.0
C872 C 0.02835 0.51893 0.39486 0.0
C873 C 0.04505 0.53022 0.43593 0.0
N874 N 0.04291 0.5355 0.51492 0.0
N875 N 0.97611 0.49316 0.35451 0.0
C876 C 0.0267 0.52252 0.47598 0.0
C877 C 0.99291 0.50108 0.39374 0.0
N878 N 0.974 0.49155 0.51362 0.0
N879 N 0.04656 0.52478 0.35706 0.0
H880 H 0.95032 0.48008 0.35278 0.0
H881 H 0.98731 0.50135 0.3238 0.0
H882 H 0.07238 0.53803 0.35687 0.0
H883 H 0.03649 0.51488 0.32634 0.0
H884 H 0.98466 0.49378 0.54456 0.0
H885 H 0.94831 0.4791 0.51456 0.0
H886 H 0.03113 0.53493 0.54439 0.0
H887 H 0.06858 0.54854 0.5175 0.0
C888 C 0.51632 0.02394 0.73106 0.0
C889 C 0.52189 0.04069 0.77209 0.0
C890 C 0.49818 0.98752 0.81163 0.0
C891 C 0.49127 0.97054 0.77053 0.0
N892 N 0.49014 0.97162 0.6911 0.0
N893 N 0.51533 0.03868 0.85127 0.0
C894 C 0.49933 0.98855 0.73019 0.0
C895 C 0.51213 0.0225 0.81232 0.0
N896 N 0.52792 0.04206 0.69305 0.0
N897 N 0.49231 0.97022 0.85022 0.0
H898 H 0.52737 0.06432 0.85369 0.0
H899 H 0.50457 0.02684 0.88091 0.0
H900 H 0.47978 0.94457 0.85143 0.0
H901 H 0.50112 0.98113 0.88092 0.0
H902 H 0.52762 0.03199 0.66229 0.0
H903 H 0.54005 0.06785 0.69271 0.0
H904 H 0.49241 0.98265 0.66042 0.0
H905 H 0.47796 0.94585 0.68952 0.0
C906 C 0.50168 0.51468 0.56627 0.0
C907 C 0.49327 0.52394 0.60692 0.0
C908 C 0.5184 0.49615 0.64782 0.0
C909 C 0.52576 0.48598 0.60716 0.0
N910 N 0.52268 0.48348 0.52764 0.0
N911 N 0.49036 0.52118 0.68625 0.0
C912 C 0.51705 0.49487 0.5664 0.0
C913 C 0.50074 0.51397 0.6477 0.0
N914 N 0.49586 0.5258 0.52736 0.0
N915 N 0.52892 0.48918 0.68645 0.0
H916 H 0.47757 0.53422 0.68704 0.0
H917 H 0.49234 0.51263 0.71721 0.0
H918 H 0.54169 0.47612 0.68744 0.0
H919 H 0.52705 0.49792 0.71729 0.0
H920 H 0.50557 0.52445 0.49698 0.0
H921 H 0.48212 0.53772 0.52555 0.0
H922 H 0.51274 0.48453 0.49729 0.0
H923 H 0.5365 0.47165 0.52593 0.0
C924 C 0.0276 0.51338 0.97121 0.0
C925 C 0.0448 0.51896 0.93048 0.0
C926 C 0.99195 0.49369 0.89013 0.0
C927 C 0.9746 0.48721 0.93096 0.0
N928 N 0.97488 0.48671 1.01041 0.0
N929 N 0.04394 0.5116 0.85162 0.0
C930 C 0.99221 0.49585 0.97156 0.0
C931 C 0.02708 0.50834 0.89005 0.0
N932 N 0.04528 0.52542 1.00944 0.0
N933 N 0.97483 0.48678 0.85127 0.0
H934 H 0.06971 0.5238 0.84986 0.0
H935 H 0.0326 0.50073 0.82183 0.0
H936 H 0.94913 0.47392 0.84988 0.0
H937 H 0.98588 0.4949 0.82044 0.0
H938 H 0.03479 0.5252 0.03987 0.0
H939 H 0.07108 0.53771 1.01038 0.0
H940 H 0.98565 0.48948 0.04137 0.0
H941 H 0.94906 0.47397 1.01157 0.0
C942 C 0.49767 0.98621 0.30995 0.0
C943 C 0.48762 0.96888 0.26917 0.0
C944 C 0.51754 0.02174 0.22865 0.0
C945 C 0.52612 0.03913 0.26938 0.0
N946 N 0.52199 0.03896 0.34866 0.0
N947 N 0.4848 0.97002 0.18962 0.0
C948 C 0.51545 0.0216 0.31003 0.0
C949 C 0.49678 0.98665 0.22849 0.0
N950 N 0.49073 0.96865 0.34853 0.0
N951 N 0.5301 0.03881 0.19005 0.0
H952 H 0.47124 0.94437 0.18781 0.0
H953 H 0.48667 0.9815 0.15939 0.0
H954 H 0.54391 0.06456 0.18858 0.0
H955 H 0.52858 0.0276 0.15975 0.0
H956 H 0.49978 0.97925 0.37931 0.0
H957 H 0.47756 0.94285 0.34952 0.0
H958 H 0.51243 0.02823 0.37926 0.0
H959 H 0.53539 0.06475 0.34983 0.0
C960 C 0.42222 0.54927 0.82511 0.0
C961 C 0.44855 0.5799 0.80921 0.0
C962 C 0.46697 0.59361 0.88597 0.0
C963 C 0.43599 0.5678 0.9018 0.0
N964 N 0.38022 0.52573 0.88135 0.0
N965 N 0.4915 0.63531 0.82948 0.0
C966 C 0.41244 0.54664 0.87006 0.0
C967 C 0.46997 0.60329 0.84093 0.0
N968 N 0.40684 0.5225 0.7979 0.0
N969 N 0.49372 0.60857 0.91334 0.0
H970 H 0.49189 0.64492 0.79825 0.0
H971 H 0.50578 0.65319 0.8529 0.0
H972 H 0.49328 0.60035 0.94558 0.0
H973 H 0.51711 0.62621 0.90197 0.0
H974 H 0.38877 0.49933 0.80935 0.0
H975 H 0.41505 0.52263 0.76576 0.0
H976 H 0.36227 0.51167 0.85787 0.0
H977 H 0.37062 0.52569 0.91245 0.0
C978 C 0.87933 0.46573 0.21259 0.0
C979 C 0.87519 0.43518 0.22861 0.0
C980 C 0.88084 0.42169 0.15206 0.0
C981 C 0.87571 0.44746 0.1359 0.0
N982 N 0.86156 0.48934 0.15552 0.0
N983 N 0.86351 0.37999 0.20859 0.0
C984 C 0.87278 0.46846 0.16739 0.0
C985 C 0.87379 0.41195 0.19705 0.0
N986 N 0.89006 0.49235 0.23993 0.0
N987 N 0.8929 0.40682 0.125 0.0
H988 H 0.85415 0.37033 0.23976 0.0
H989 H 0.86026 0.36215 0.18528 0.0
H990 H 0.90083 0.41502 0.0928 0.0
H991 H 0.89869 0.38925 0.1366 0.0
H992 H 0.89514 0.51552 0.22846 0.0
H993 H 0.8977 0.49218 0.27232 0.0
H994 H 0.85718 0.50324 0.17873 0.0
H995 H 0.85257 0.48955 0.12407 0.0
C996 C 0.44872 0.8901 0.54481 0.0
C997 C 0.44902 0.86294 0.56566 0.0
C998 C 0.43309 0.83238 0.49556 0.0
C999 C 0.43457 0.86019 0.4739 0.0
N1000 N 0.4503 0.91786 0.47608 0.0
N1001 N 0.44799 0.811 0.55922 0.0
C1002 C 0.44413 0.88973 0.49806 0.0
C1003 C 0.44326 0.83498 0.54045 0.0
N1004 N 0.45254 0.91615 0.56981 0.0
N1005 N 0.4207 0.80293 0.47374 0.0
H1006 H 0.45489 0.81166 0.59213 0.0
H1007 H 0.44793 0.79193 0.54131 0.0
H1008 H 0.41341 0.79991 0.44077 0.0
H1009 H 0.41503 0.78077 0.48921 0.0
H1010 H 0.44854 0.93477 0.55774 0.0
H1011 H 0.45792 0.91821 0.60353 0.0
H1012 H 0.46073 0.94101 0.49096 0.0
H1013 H 0.44767 0.91871 0.44194 0.0
C1014 C 0.5513 0.40993 0.8421 0.0
C1015 C 0.57241 0.43308 0.80986 0.0
C1016 C 0.60828 0.46754 0.87009 0.0
C1017 C 0.58496 0.44651 0.90224 0.0
N1018 N 0.52749 0.40519 0.91438 0.0
N1019 N 0.61335 0.4906 0.79718 0.0
C1020 C 0.55417 0.42017 0.88685 0.0
C1021 C 0.59841 0.46414 0.82508 0.0
N1022 N 0.53022 0.37765 0.83149 0.0
N1023 N 0.64039 0.48906 0.88109 0.0
H1024 H 0.60499 0.48989 0.76497 0.0
H1025 H 0.63113 0.51405 0.80809 0.0
H1026 H 0.6501 0.48973 0.91232 0.0
H1027 H 0.65821 0.50304 0.85738 0.0
H1028 H 0.51619 0.35998 0.85536 0.0
H1029 H 0.53003 0.36771 0.80062 0.0
H1030 H 0.5042 0.38712 0.90328 0.0
H1031 H 0.52781 0.41373 0.94635 0.0
C1032 C 0.18031 0.59457 0.16549 0.0
C1033 C 0.15258 0.56671 0.14633 0.0
C1034 C 0.12404 0.55328 0.21804 0.0
C1035 C 0.15102 0.58227 0.23634 0.0
N1036 N 0.20268 0.63316 0.22644 0.0
N1037 N 0.09621 0.52219 0.15202 0.0
C1038 C 0.1785 0.6037 0.20971 0.0
C1039 C 0.12395 0.54663 0.17203 0.0
N1040 N 0.20877 0.61196 0.1415 0.0
N1041 N 0.0986 0.53203 0.24481 0.0
H1042 H 0.09543 0.51629 0.11863 0.0
H1043 H 0.07331 0.50914 0.16758 0.0
H1044 H 0.09664 0.53725 0.27784 0.0
H1045 H 0.08028 0.50856 0.23507 0.0
H1046 H 0.23122 0.6297 0.15498 0.0
H1047 H 0.2107 0.60697 0.10847 0.0
H1048 H 0.22119 0.6517 0.20727 0.0
H1049 H 0.20302 0.6404 0.25908 0.0
C1050 C 0.57393 0.11835 0.55414 0.0
C1051 C 0.57355 0.14604 0.57297 0.0
C1052 C 0.59319 0.17624 0.50315 0.0
C1053 C 0.59107 0.14771 0.48312 0.0
N1054 N 0.57496 0.09003 0.48738 0.0
N1055 N 0.57763 0.19929 0.56399 0.0
C1056 C 0.5804 0.11833 0.50808 0.0
C1057 C 0.58163 0.17437 0.54701 0.0
N1058 N 0.56833 0.09221 0.58042 0.0
N1059 N 0.60693 0.20543 0.48035 0.0
H1060 H 0.5698 0.19923 0.59626 0.0
H1061 H 0.57937 0.21877 0.54513 0.0
H1062 H 0.61495 0.20761 0.44779 0.0
H1063 H 0.61293 0.22802 0.49465 0.0
H1064 H 0.57215 0.0731 0.57012 0.0
H1065 H 0.56153 0.0905 0.61359 0.0
H1066 H 0.56356 0.0669 0.50252 0.0
H1067 H 0.57982 0.08918 0.45389 0.0
loop_
_geom_bond_atom_site_label_1
_geom_bond_atom_site_label_2
_geom_bond_distance
_geom_bond_site_symmetry_2
_ccdc_geom_bond_type
C0 C1 1.443 . S
C0 N4 1.376 . S
C0 C38 1.389 . S
C1 C0 1.443 . S
C1 C2 1.340 . S
C1 H41 0.951 . S
C2 C1 1.340 . S
C2 C3 1.439 . S
C2 H42 0.950 . S
C3 C2 1.439 . S
C3 N4 1.374 . S
C3 C37 1.395 . S
N4 C0 1.376 . S
N4 C3 1.374 . S
N4 Co5 2.008 . S
Co5 N4 2.008 . S
Co5 N6 1.995 . S
Co5 N11 2.008 . S
Co5 N16 1.995 . S
Co5 N21 2.282 . S
Co5 N27 2.282 . S
N6 Co5 1.995 . S
N6 C7 1.376 . S
N6 C10 1.383 . S
C7 N6 1.376 . S
C7 C8 1.446 . S
C7 C37 1.391 . S
C8 C7 1.446 . S
C8 C9 1.339 . S
C8 H43 0.949 . S
C9 C8 1.339 . S
C9 C10 1.439 . S
C9 H44 0.950 . S
C10 N6 1.383 . S
C10 C9 1.439 . S
C10 C39 1.392 . S
N11 Co5 2.008 . S
N11 C12 1.376 . S
N11 C15 1.374 . S
C12 N11 1.376 . S
C12 C13 1.443 . S
C12 C39 1.389 . S
C13 C12 1.443 . S
C13 C14 1.340 . S
C13 H45 0.951 . S
C14 C13 1.340 . S
C14 C15 1.439 . S
C14 H46 0.950 . S
C15 N11 1.374 . S
C15 C14 1.439 . S
C15 C40 1.395 . S
N16 Co5 1.995 . S
N16 C17 1.376 . S
N16 C20 1.383 . S
C17 N16 1.376 . S
C17 C18 1.446 . S
C17 C40 1.391 . S
C18 C17 1.446 . S
C18 C19 1.339 . S
C18 H47 0.949 . S
C19 C18 1.339 . S
C19 C20 1.439 . S
C19 H48 0.950 . S
C20 N16 1.383 . S
C20 C19 1.439 . S
C20 C38 1.392 . S
N21 Co5 2.282 . S
N21 C24 1.332 . S
N21 C26 1.332 . S
C22 C23 1.386 . S
C22 C25 1.388 . S
C23 C22 1.386 . S
C23 C24 1.382 . S
C23 H49 0.950 . S
C24 N21 1.332 . S
C24 C23 1.382 . S
C24 H35 0.952 . S
C25 C22 1.388 . S
C25 C26 1.382 . S
C25 H50 0.950 . S
C26 N21 1.332 . S
C26 C25 1.382 . S
C26 H36 0.948 . S
N27 Co5 2.282 . S
N27 C31 1.332 1_554 S
N27 C32 1.332 1_554 S
C28 C29 1.388 . S
C28 C32 1.382 . S
C28 H51 0.950 . S
C29 C28 1.388 . S
C29 C30 1.386 . S
C30 C29 1.386 . S
C30 C31 1.382 . S
C30 H52 0.950 . S
C31 N27 1.332 1_556 S
C31 C30 1.382 . S
C31 H33 0.952 . S
C32 N27 1.332 1_556 S
C32 C28 1.382 . S
C32 H34 0.947 1_556 S
H33 C31 0.952 . S
H34 C32 0.947 1_554 S
H35 C24 0.952 . S
H36 C26 0.948 . S
C37 C3 1.395 . S
C37 C7 1.391 . S
C38 C0 1.389 . S
C38 C20 1.392 . S
C39 C10 1.392 . S
C39 C12 1.389 . S
C40 C15 1.395 . S
C40 C17 1.391 . S
H41 C1 0.951 . S
H42 C2 0.950 . S
H43 C8 0.949 . S
H44 C9 0.950 . S
H45 C13 0.951 . S
H46 C14 0.950 . S
H47 C18 0.949 . S
H48 C19 0.950 . S
H49 C23 0.950 . S
H50 C25 0.950 . S
H51 C28 0.950 . S
H52 C30 0.950 . S
C53 C54 1.443 . S
C53 N57 1.376 . S
C53 C91 1.389 . S
C54 C53 1.443 . S
C54 C55 1.340 . S
C54 H94 0.951 . S
C55 C54 1.340 . S
C55 C56 1.439 . S
C55 H95 0.950 . S
C56 C55 1.439 . S
C56 N57 1.374 . S
C56 C90 1.395 . S
N57 C53 1.376 . S
N57 C56 1.374 . S
N57 Co58 2.008 . S
Co58 N57 2.008 . S
Co58 N59 1.995 . S
Co58 N64 2.008 . S
Co58 N69 1.995 . S
Co58 N74 2.282 . S
Co58 N80 2.282 . S
N59 Co58 1.995 . S
N59 C60 1.376 . S
N59 C63 1.383 . S
C60 N59 1.376 . S
C60 C61 1.446 . S
C60 C90 1.391 . S
C61 C60 1.446 . S
C61 C62 1.339 . S
C61 H96 0.949 . S
C62 C61 1.339 . S
C62 C63 1.439 . S
C62 H97 0.950 . S
C63 N59 1.383 . S
C63 C62 1.439 . S
C63 C92 1.392 . S
N64 Co58 2.008 . S
N64 C65 1.376 . S
N64 C68 1.374 . S
C65 N64 1.376 . S
C65 C66 1.443 . S
C65 C92 1.389 . S
C66 C65 1.443 . S
C66 C67 1.340 . S
C66 H98 0.951 . S
C67 C66 1.340 . S
C67 C68 1.439 . S
C67 H99 0.950 . S
C68 N64 1.374 . S
C68 C67 1.439 . S
C68 C93 1.395 . S
N69 Co58 1.995 . S
N69 C70 1.376 . S
N69 C73 1.383 . S
C70 N69 1.376 . S
C70 C71 1.446 . S
C70 C93 1.391 . S
C71 C70 1.446 . S
C71 C72 1.339 . S
C71 H100 0.949 . S
C72 C71 1.339 . S
C72 C73 1.439 . S
C72 H101 0.950 . S
C73 N69 1.383 . S
C73 C72 1.439 . S
C73 C91 1.392 . S
N74 Co58 2.282 . S
N74 C77 1.332 . S
N74 C79 1.332 . S
C75 C76 1.386 . S
C75 C78 1.388 . S
C76 C75 1.386 . S
C76 C77 1.382 . S
C76 H102 0.950 . S
C77 N74 1.332 . S
C77 C76 1.382 . S
C77 H88 0.952 . S
C78 C75 1.388 . S
C78 C79 1.382 . S
C78 H103 0.950 . S
C79 N74 1.332 . S
C79 C78 1.382 . S
C79 H89 0.948 . S
N80 Co58 2.282 . S
N80 C84 1.332 . S
N80 C85 1.332 . S
C81 C82 1.388 . S
C81 C85 1.382 . S
C81 H104 0.950 . S
C82 C81 1.388 . S
C82 C83 1.386 . S
C83 C82 1.386 . S
C83 C84 1.382 . S
C83 H105 0.950 . S
C84 N80 1.332 . S
C84 C83 1.382 . S
C84 H86 0.952 . S
C85 N80 1.332 . S
C85 C81 1.382 . S
C85 H87 0.948 . S
H86 C84 0.952 . S
H87 C85 0.948 . S
H88 C77 0.952 . S
H89 C79 0.948 . S
C90 C56 1.395 . S
C90 C60 1.391 . S
C91 C53 1.389 . S
C91 C73 1.392 . S
C92 C63 1.392 . S
C92 C65 1.389 . S
C93 C68 1.395 . S
C93 C70 1.391 . S
H94 C54 0.951 . S
H95 C55 0.950 . S
H96 C61 0.949 . S
H97 C62 0.950 . S
H98 C66 0.951 . S
H99 C67 0.950 . S
H100 C71 0.949 . S
H101 C72 0.950 . S
H102 C76 0.950 . S
H103 C78 0.950 . S
H104 C81 0.950 . S
H105 C83 0.950 . S
C106 C107 1.443 . S
C106 N110 1.376 . S
C106 C144 1.389 . S
C107 C106 1.443 . S
C107 C108 1.340 . S
C107 H147 0.951 . S
C108 C107 1.340 . S
C108 C109 1.439 . S
C108 H148 0.950 . S
C109 C108 1.439 . S
C109 N110 1.374 . S
C109 C143 1.395 . S
N110 C106 1.376 . S
N110 C109 1.374 . S
N110 Co111 2.008 . S
Co111 N110 2.008 . S
Co111 N112 1.995 . S
Co111 N117 2.008 . S
Co111 N122 1.995 . S
Co111 N127 2.282 . S
Co111 N133 2.282 . S
N112 Co111 1.995 . S
N112 C113 1.376 . S
N112 C116 1.383 . S
C113 N112 1.376 . S
C113 C114 1.446 . S
C113 C143 1.391 . S
C114 C113 1.446 . S
C114 C115 1.339 . S
C114 H149 0.949 . S
C115 C114 1.339 . S
C115 C116 1.439 . S
C115 H150 0.950 . S
C116 N112 1.383 . S
C116 C115 1.439 . S
C116 C145 1.392 . S
N117 Co111 2.008 . S
N117 C118 1.376 . S
N117 C121 1.374 . S
C118 N117 1.376 . S
C118 C119 1.443 . S
C118 C145 1.389 . S
C119 C118 1.443 . S
C119 C120 1.340 . S
C119 H151 0.951 . S
C120 C119 1.340 . S
C120 C121 1.439 . S
C120 H152 0.950 . S
C121 N117 1.374 . S
C121 C120 1.439 . S
C121 C146 1.395 . S
N122 Co111 1.995 . S
N122 C123 1.376 . S
N122 C126 1.383 . S
C123 N122 1.376 . S
C123 C124 1.446 . S
C123 C146 1.391 . S
C124 C123 1.446 . S
C124 C125 1.339 . S
C124 H153 0.949 . S
C125 C124 1.339 . S
C125 C126 1.439 . S
C125 H154 0.950 . S
C126 N122 1.383 . S
C126 C125 1.439 . S
C126 C144 1.392 . S
N127 Co111 2.282 . S
N127 C130 1.332 . S
N127 C132 1.332 . S
C128 C129 1.386 . S
C128 C131 1.388 . S
C129 C128 1.386 . S
C129 C130 1.382 . S
C129 H155 0.950 . S
C130 N127 1.332 . S
C130 C129 1.382 . S
C130 H141 0.952 . S
C131 C128 1.388 . S
C131 C132 1.382 . S
C131 H156 0.950 . S
C132 N127 1.332 . S
C132 C131 1.382 . S
C132 H142 0.948 . S
N133 Co111 2.282 . S
N133 C137 1.332 . S
N133 C138 1.332 . S
C134 C135 1.388 . S
C134 C138 1.382 . S
C134 H157 0.950 . S
C135 C134 1.388 . S
C135 C136 1.386 . S
C136 C135 1.386 . S
C136 C137 1.382 . S
C136 H158 0.950 . S
C137 N133 1.332 . S
C137 C136 1.382 . S
C137 H139 0.952 . S
C138 N133 1.332 . S
C138 C134 1.382 . S
C138 H140 0.948 . S
H139 C137 0.952 . S
H140 C138 0.948 . S
H141 C130 0.952 . S
H142 C132 0.948 . S
C143 C109 1.395 . S
C143 C113 1.391 . S
C144 C106 1.389 . S
C144 C126 1.392 . S
C145 C116 1.392 . S
C145 C118 1.389 . S
C146 C121 1.395 . S
C146 C123 1.391 . S
H147 C107 0.951 . S
H148 C108 0.950 . S
H149 C114 0.949 . S
H150 C115 0.950 . S
H151 C119 0.951 . S
H152 C120 0.950 . S
H153 C124 0.949 . S
H154 C125 0.950 . S
H155 C129 0.950 . S
H156 C131 0.950 . S
H157 C134 0.950 . S
H158 C136 0.950 . S
C159 C160 1.443 . S
C159 N163 1.376 . S
C159 C197 1.389 . S
C160 C159 1.443 . S
C160 C161 1.340 . S
C160 H200 0.951 . S
C161 C160 1.340 . S
C161 C162 1.439 . S
C161 H201 0.950 . S
C162 C161 1.439 . S
C162 N163 1.374 . S
C162 C196 1.395 . S
N163 C159 1.376 . S
N163 C162 1.374 . S
N163 Co164 2.008 . S
Co164 N163 2.008 . S
Co164 N165 1.995 . S
Co164 N170 2.008 . S
Co164 N175 1.995 . S
Co164 N180 2.282 . S
Co164 N186 2.282 . S
N165 Co164 1.995 . S
N165 C166 1.376 . S
N165 C169 1.383 . S
C166 N165 1.376 . S
C166 C167 1.446 . S
C166 C196 1.391 . S
C167 C166 1.446 . S
C167 C168 1.339 . S
C167 H202 0.949 . S
C168 C167 1.339 . S
C168 C169 1.439 . S
C168 H203 0.950 . S
C169 N165 1.383 . S
C169 C168 1.439 . S
C169 C198 1.392 . S
N170 Co164 2.008 . S
N170 C171 1.376 . S
N170 C174 1.374 . S
C171 N170 1.376 . S
C171 C172 1.443 . S
C171 C198 1.389 . S
C172 C171 1.443 . S
C172 C173 1.340 . S
C172 H204 0.951 . S
C173 C172 1.340 . S
C173 C174 1.439 . S
C173 H205 0.950 . S
C174 N170 1.374 . S
C174 C173 1.439 . S
C174 C199 1.395 . S
N175 Co164 1.995 . S
N175 C176 1.376 . S
N175 C179 1.383 . S
C176 N175 1.376 . S
C176 C177 1.446 . S
C176 C199 1.391 . S
C177 C176 1.446 . S
C177 C178 1.339 . S
C177 H206 0.949 . S
C178 C177 1.339 . S
C178 C179 1.439 . S
C178 H207 0.950 . S
C179 N175 1.383 . S
C179 C178 1.439 . S
C179 C197 1.392 . S
N180 Co164 2.282 . S
N180 C183 1.332 . S
N180 C185 1.332 . S
C181 C182 1.386 . S
C181 C184 1.388 . S
C182 C181 1.386 . S
C182 C183 1.382 . S
C182 H208 0.950 . S
C183 N180 1.332 . S
C183 C182 1.382 . S
C183 H194 0.952 . S
C184 C181 1.388 . S
C184 C185 1.382 . S
C184 H209 0.950 . S
C185 N180 1.332 . S
C185 C184 1.382 . S
C185 H195 0.948 . S
N186 Co164 2.282 . S
N186 C190 1.332 1_554 S
N186 C191 1.332 1_554 S
C187 C188 1.388 . S
C187 C191 1.382 . S
C187 H210 0.950 . S
C188 C187 1.388 . S
C188 C189 1.386 . S
C189 C188 1.386 . S
C189 C190 1.382 . S
C189 H211 0.950 . S
C190 N186 1.332 1_556 S
C190 C189 1.382 . S
C190 H192 0.952 . S
C191 N186 1.332 1_556 S
C191 C187 1.382 . S
C191 H193 0.947 1_556 S
H192 C190 0.952 . S
H193 C191 0.947 1_554 S
H194 C183 0.952 . S
H195 C185 0.948 . S
C196 C162 1.395 . S
C196 C166 1.391 . S
C197 C159 1.389 . S
C197 C179 1.392 . S
C198 C169 1.392 . S
C198 C171 1.389 . S
C199 C174 1.395 . S
C199 C176 1.391 . S
H200 C160 0.951 . S
H201 C161 0.950 . S
H202 C167 0.949 . S
H203 C168 0.950 . S
H204 C172 0.951 . S
H205 C173 0.950 . S
H206 C177 0.949 . S
H207 C178 0.950 . S
H208 C182 0.950 . S
H209 C184 0.950 . S
H210 C187 0.950 . S
H211 C189 0.950 . S
C212 C213 1.443 . S
C212 N216 1.376 . S
C212 C250 1.389 . S
C213 C212 1.443 . S
C213 C214 1.340 . S
C213 H253 0.951 . S
C214 C213 1.340 . S
C214 C215 1.439 . S
C214 H254 0.950 . S
C215 C214 1.439 . S
C215 N216 1.374 . S
C215 C249 1.395 . S
N216 C212 1.376 . S
N216 C215 1.374 . S
N216 Co217 2.008 . S
Co217 N216 2.008 . S
Co217 N218 1.995 . S
Co217 N223 2.008 . S
Co217 N228 1.995 . S
Co217 N233 2.282 . S
Co217 N239 2.282 . S
N218 Co217 1.995 . S
N218 C219 1.376 . S
N218 C222 1.383 . S
C219 N218 1.376 . S
C219 C220 1.446 . S
C219 C249 1.391 . S
C220 C219 1.446 . S
C220 C221 1.339 . S
C220 H255 0.949 . S
C221 C220 1.339 . S
C221 C222 1.439 . S
C221 H256 0.950 . S
C222 N218 1.383 . S
C222 C221 1.439 . S
C222 C251 1.392 . S
N223 Co217 2.008 . S
N223 C224 1.376 . S
N223 C227 1.374 . S
C224 N223 1.376 . S
C224 C225 1.443 . S
C224 C251 1.389 . S
C225 C224 1.443 . S
C225 C226 1.340 . S
C225 H257 0.951 . S
C226 C225 1.340 . S
C226 C227 1.439 . S
C226 H258 0.950 . S
C227 N223 1.374 . S
C227 C226 1.439 . S
C227 C252 1.395 . S
N228 Co217 1.995 . S
N228 C229 1.376 . S
N228 C232 1.383 . S
C229 N228 1.376 . S
C229 C230 1.446 . S
C229 C252 1.391 . S
C230 C229 1.446 . S
C230 C231 1.339 . S
C230 H259 0.949 . S
C231 C230 1.339 . S
C231 C232 1.439 . S
C231 H260 0.950 . S
C232 N228 1.383 . S
C232 C231 1.439 . S
C232 C250 1.392 . S
N233 Co217 2.282 . S
N233 C236 1.332 . S
N233 C238 1.332 . S
C234 C235 1.386 . S
C234 C237 1.388 . S
C235 C234 1.386 . S
C235 C236 1.382 . S
C235 H261 0.950 . S
C236 N233 1.332 . S
C236 C235 1.382 . S
C236 H247 0.952 . S
C237 C234 1.388 . S
C237 C238 1.382 . S
C237 H262 0.950 . S
C238 N233 1.332 . S
C238 C237 1.382 . S
C238 H248 0.948 . S
N239 Co217 2.282 . S
N239 C243 1.332 . S
N239 C244 1.332 . S
C240 C241 1.388 . S
C240 C244 1.382 . S
C240 H263 0.950 . S
C241 C240 1.388 . S
C241 C242 1.386 . S
C242 C241 1.386 . S
C242 C243 1.382 . S
C242 H264 0.950 . S
C243 N239 1.332 . S
C243 C242 1.382 . S
C243 H245 0.952 . S
C244 N239 1.332 . S
C244 C240 1.382 . S
C244 H246 0.948 . S
H245 C243 0.952 . S
H246 C244 0.948 . S
H247 C236 0.952 . S
H248 C238 0.948 . S
C249 C215 1.395 . S
C249 C219 1.391 . S
C250 C212 1.389 . S
C250 C232 1.392 . S
C251 C222 1.392 . S
C251 C224 1.389 . S
C252 C227 1.395 . S
C252 C229 1.391 . S
H253 C213 0.951 . S
H254 C214 0.950 . S
H255 C220 0.949 . S
H256 C221 0.950 . S
H257 C225 0.951 . S
H258 C226 0.950 . S
H259 C230 0.949 . S
H260 C231 0.950 . S
H261 C235 0.950 . S
H262 C237 0.950 . S
H263 C240 0.950 . S
H264 C242 0.950 . S
C265 C266 1.443 . S
C265 N269 1.376 . S
C265 C303 1.389 . S
C266 C265 1.443 . S
C266 C267 1.340 . S
C266 H306 0.951 . S
C267 C266 1.340 . S
C267 C268 1.439 . S
C267 H307 0.950 . S
C268 C267 1.439 . S
C268 N269 1.374 . S
C268 C302 1.395 . S
N269 C265 1.376 . S
N269 C268 1.374 . S
N269 Co270 2.008 . S
Co270 N269 2.008 . S
Co270 N271 1.995 . S
Co270 N276 2.008 . S
Co270 N281 1.995 . S
Co270 N286 2.282 . S
Co270 N292 2.282 . S
N271 Co270 1.995 . S
N271 C272 1.376 . S
N271 C275 1.383 . S
C272 N271 1.376 . S
C272 C273 1.446 . S
C272 C302 1.391 . S
C273 C272 1.446 . S
C273 C274 1.339 . S
C273 H308 0.949 . S
C274 C273 1.339 . S
C274 C275 1.439 . S
C274 H309 0.950 . S
C275 N271 1.383 . S
C275 C274 1.439 . S
C275 C304 1.392 . S
N276 Co270 2.008 . S
N276 C277 1.376 . S
N276 C280 1.374 . S
C277 N276 1.376 . S
C277 C278 1.443 . S
C277 C304 1.389 . S
C278 C277 1.443 . S
C278 C279 1.340 . S
C278 H310 0.951 . S
C279 C278 1.340 . S
C279 C280 1.439 . S
C279 H311 0.950 . S
C280 N276 1.374 . S
C280 C279 1.439 . S
C280 C305 1.395 . S
N281 Co270 1.995 . S
N281 C282 1.376 . S
N281 C285 1.383 . S
C282 N281 1.376 . S
C282 C283 1.446 . S
C282 C305 1.391 . S
C283 C282 1.446 . S
C283 C284 1.339 . S
C283 H312 0.949 . S
C284 C283 1.339 . S
C284 C285 1.439 . S
C284 H313 0.950 . S
C285 N281 1.383 . S
C285 C284 1.439 . S
C285 C303 1.392 . S
N286 Co270 2.282 . S
N286 C289 1.332 . S
N286 C291 1.332 . S
C287 C288 1.386 . S
C287 C290 1.388 . S
C288 C287 1.386 . S
C288 C289 1.382 . S
C288 H314 0.950 . S
C289 N286 1.332 . S
C289 C288 1.382 . S
C289 H300 0.952 . S
C290 C287 1.388 . S
C290 C291 1.382 . S
C290 H315 0.950 . S
C291 N286 1.332 . S
C291 C290 1.382 . S
C291 H301 0.948 . S
N292 Co270 2.282 . S
N292 C296 1.332 . S
N292 C297 1.332 . S
C293 C294 1.388 . S
C293 C297 1.382 . S
C293 H316 0.950 . S
C294 C293 1.388 . S
C294 C295 1.386 . S
C295 C294 1.386 . S
C295 C296 1.382 . S
C295 H317 0.950 . S
C296 N292 1.332 . S
C296 C295 1.382 . S
C296 H298 0.952 . S
C297 N292 1.332 . S
C297 C293 1.382 . S
C297 H299 0.948 . S
H298 C296 0.952 . S
H299 C297 0.948 . S
H300 C289 0.952 . S
H301 C291 0.948 . S
C302 C268 1.395 . S
C302 C272 1.391 . S
C303 C265 1.389 . S
C303 C285 1.392 . S
C304 C275 1.392 . S
C304 C277 1.389 . S
C305 C280 1.395 . S
C305 C282 1.391 . S
H306 C266 0.951 . S
H307 C267 0.950 . S
H308 C273 0.949 . S
H309 C274 0.950 . S
H310 C278 0.951 . S
H311 C279 0.950 . S
H312 C283 0.949 . S
H313 C284 0.950 . S
H314 C288 0.950 . S
H315 C290 0.950 . S
H316 C293 0.950 . S
H317 C295 0.950 . S
C318 C319 1.443 . S
C318 N322 1.376 . S
C318 C356 1.389 . S
C319 C318 1.443 . S
C319 C320 1.340 . S
C319 H359 0.951 . S
C320 C319 1.340 . S
C320 C321 1.439 . S
C320 H360 0.950 . S
C321 C320 1.439 . S
C321 N322 1.374 . S
C321 C355 1.395 . S
N322 C318 1.376 . S
N322 C321 1.374 . S
N322 Co323 2.008 . S
Co323 N322 2.008 . S
Co323 N324 1.995 . S
Co323 N329 2.008 . S
Co323 N334 1.995 . S
Co323 N339 2.282 . S
Co323 N345 2.282 . S
N324 Co323 1.995 . S
N324 C325 1.376 . S
N324 C328 1.383 . S
C325 N324 1.376 . S
C325 C326 1.446 . S
C325 C355 1.391 . S
C326 C325 1.446 . S
C326 C327 1.339 . S
C326 H361 0.949 . S
C327 C326 1.339 . S
C327 C328 1.439 . S
C327 H362 0.950 . S
C328 N324 1.383 . S
C328 C327 1.439 . S
C328 C357 1.392 . S
N329 Co323 2.008 . S
N329 C330 1.376 . S
N329 C333 1.374 . S
C330 N329 1.376 . S
C330 C331 1.443 . S
C330 C357 1.389 . S
C331 C330 1.443 . S
C331 C332 1.340 . S
C331 H363 0.951 . S
C332 C331 1.340 . S
C332 C333 1.439 . S
C332 H364 0.950 . S
C333 N329 1.374 . S
C333 C332 1.439 . S
C333 C358 1.395 . S
N334 Co323 1.995 . S
N334 C335 1.376 . S
N334 C338 1.383 . S
C335 N334 1.376 . S
C335 C336 1.446 . S
C335 C358 1.391 . S
C336 C335 1.446 . S
C336 C337 1.339 . S
C336 H365 0.949 . S
C337 C336 1.339 . S
C337 C338 1.439 . S
C337 H366 0.950 . S
C338 N334 1.383 . S
C338 C337 1.439 . S
C338 C356 1.392 . S
N339 Co323 2.282 . S
N339 C342 1.332 . S
N339 C344 1.332 . S
C340 C341 1.386 . S
C340 C343 1.388 . S
C341 C340 1.386 . S
C341 C342 1.382 . S
C341 H367 0.950 . S
C342 N339 1.332 . S
C342 C341 1.382 . S
C342 H353 0.952 . S
C343 C340 1.388 . S
C343 C344 1.382 . S
C343 H368 0.950 . S
C344 N339 1.332 . S
C344 C343 1.382 . S
C344 H354 0.948 . S
N345 Co323 2.282 . S
N345 C349 1.332 . S
N345 C350 1.332 . S
C346 C347 1.388 . S
C346 C350 1.382 . S
C346 H369 0.950 . S
C347 C346 1.388 . S
C347 C348 1.386 . S
C348 C347 1.386 . S
C348 C349 1.382 . S
C348 H370 0.950 . S
C349 N345 1.332 . S
C349 C348 1.382 . S
C349 H351 0.952 . S
C350 N345 1.332 . S
C350 C346 1.382 . S
C350 H352 0.948 . S
H351 C349 0.952 . S
H352 C350 0.948 . S
H353 C342 0.952 . S
H354 C344 0.948 . S
C355 C321 1.395 . S
C355 C325 1.391 . S
C356 C318 1.389 . S
C356 C338 1.392 . S
C357 C328 1.392 . S
C357 C330 1.389 . S
C358 C333 1.395 . S
C358 C335 1.391 . S
H359 C319 0.951 . S
H360 C320 0.950 . S
H361 C326 0.949 . S
H362 C327 0.950 . S
H363 C331 0.951 . S
H364 C332 0.950 . S
H365 C336 0.949 . S
H366 C337 0.950 . S
H367 C341 0.950 . S
H368 C343 0.950 . S
H369 C346 0.950 . S
H370 C348 0.950 . S
C371 C372 1.443 . S
C371 N375 1.376 . S
C371 C409 1.389 . S
C372 C371 1.443 . S
C372 C373 1.340 . S
C372 H412 0.951 . S
C373 C372 1.340 . S
C373 C374 1.439 . S
C373 H413 0.950 . S
C374 C373 1.439 . S
C374 N375 1.374 . S
C374 C408 1.395 . S
N375 C371 1.376 . S
N375 C374 1.374 . S
N375 Co376 2.008 . S
Co376 N375 2.008 . S
Co376 N377 1.995 . S
Co376 N382 2.008 . S
Co376 N387 1.995 . S
Co376 N392 2.282 . S
Co376 N398 2.282 . S
N377 Co376 1.995 . S
N377 C378 1.376 . S
N377 C381 1.383 . S
C378 N377 1.376 . S
C378 C379 1.446 . S
C378 C408 1.391 . S
C379 C378 1.446 . S
C379 C380 1.339 . S
C379 H414 0.949 . S
C380 C379 1.339 . S
C380 C381 1.439 . S
C380 H415 0.950 . S
C381 N377 1.383 . S
C381 C380 1.439 . S
C381 C410 1.392 . S
N382 Co376 2.008 . S
N382 C383 1.376 . S
N382 C386 1.374 . S
C383 N382 1.376 . S
C383 C384 1.443 . S
C383 C410 1.389 . S
C384 C383 1.443 . S
C384 C385 1.340 . S
C384 H416 0.951 . S
C385 C384 1.340 . S
C385 C386 1.439 . S
C385 H417 0.950 . S
C386 N382 1.374 . S
C386 C385 1.439 . S
C386 C411 1.395 . S
N387 Co376 1.995 . S
N387 C388 1.376 . S
N387 C391 1.383 . S
C388 N387 1.376 . S
C388 C389 1.446 . S
C388 C411 1.391 . S
C389 C388 1.446 . S
C389 C390 1.339 . S
C389 H418 0.949 . S
C390 C389 1.339 . S
C390 C391 1.439 . S
C390 H419 0.950 . S
C391 N387 1.383 . S
C391 C390 1.439 . S
C391 C409 1.392 . S
N392 Co376 2.282 . S
N392 C395 1.332 . S
N392 C397 1.332 . S
C393 C394 1.386 . S
C393 C396 1.388 . S
C394 C393 1.386 . S
C394 C395 1.382 . S
C394 H420 0.950 . S
C395 N392 1.332 . S
C395 C394 1.382 . S
C395 H406 0.952 . S
C396 C393 1.388 . S
C396 C397 1.382 . S
C396 H421 0.950 . S
C397 N392 1.332 . S
C397 C396 1.382 . S
C397 H407 0.948 . S
N398 Co376 2.282 . S
N398 C402 1.332 1_556 S
N398 C403 1.332 1_556 S
C399 C400 1.388 . S
C399 C403 1.382 . S
C399 H422 0.950 . S
C400 C399 1.388 . S
C400 C401 1.386 . S
C401 C400 1.386 . S
C401 C402 1.382 . S
C401 H423 0.950 . S
C402 N398 1.332 1_554 S
C402 C401 1.382 . S
C402 H404 0.952 . S
C403 N398 1.332 1_554 S
C403 C399 1.382 . S
C403 H405 0.947 1_554 S
H404 C402 0.952 . S
H405 C403 0.947 1_556 S
H406 C395 0.952 . S
H407 C397 0.948 . S
C408 C374 1.395 . S
C408 C378 1.391 . S
C409 C371 1.389 . S
C409 C391 1.392 . S
C410 C381 1.392 . S
C410 C383 1.389 . S
C411 C386 1.395 . S
C411 C388 1.391 . S
H412 C372 0.951 . S
H413 C373 0.950 . S
H414 C379 0.949 . S
H415 C380 0.950 . S
H416 C384 0.951 . S
H417 C385 0.950 . S
H418 C389 0.949 . S
H419 C390 0.950 . S
H420 C394 0.950 . S
H421 C396 0.950 . S
H422 C399 0.950 . S
H423 C401 0.950 . S
C424 C425 1.443 . S
C424 N428 1.376 . S
C424 C462 1.389 . S
C425 C424 1.443 . S
C425 C426 1.340 . S
C425 H465 0.951 . S
C426 C425 1.340 . S
C426 C427 1.439 . S
C426 H466 0.950 . S
C427 C426 1.439 . S
C427 N428 1.374 . S
C427 C461 1.395 . S
N428 C424 1.376 . S
N428 C427 1.374 . S
N428 Co429 2.008 . S
Co429 N428 2.008 . S
Co429 N430 1.995 . S
Co429 N435 2.008 . S
Co429 N440 1.995 . S
Co429 N445 2.282 . S
Co429 N451 2.282 . S
N430 Co429 1.995 . S
N430 C431 1.376 . S
N430 C434 1.383 . S
C431 N430 1.376 . S
C431 C432 1.446 . S
C431 C461 1.391 . S
C432 C431 1.446 . S
C432 C433 1.339 . S
C432 H467 0.949 . S
C433 C432 1.339 . S
C433 C434 1.439 . S
C433 H468 0.950 . S
C434 N430 1.383 . S
C434 C433 1.439 . S
C434 C463 1.392 . S
N435 Co429 2.008 . S
N435 C436 1.376 . S
N435 C439 1.374 . S
C436 N435 1.376 . S
C436 C437 1.443 . S
C436 C463 1.389 . S
C437 C436 1.443 . S
C437 C438 1.340 . S
C437 H469 0.951 . S
C438 C437 1.340 . S
C438 C439 1.439 . S
C438 H470 0.950 . S
C439 N435 1.374 . S
C439 C438 1.439 . S
C439 C464 1.395 . S
N440 Co429 1.995 . S
N440 C441 1.376 . S
N440 C444 1.383 . S
C441 N440 1.376 . S
C441 C442 1.446 . S
C441 C464 1.391 . S
C442 C441 1.446 . S
C442 C443 1.339 . S
C442 H471 0.949 . S
C443 C442 1.339 . S
C443 C444 1.439 . S
C443 H472 0.950 . S
C444 N440 1.383 . S
C444 C443 1.439 . S
C444 C462 1.392 . S
N445 Co429 2.282 . S
N445 C448 1.332 . S
N445 C450 1.332 . S
C446 C447 1.386 . S
C446 C449 1.388 . S
C447 C446 1.386 . S
C447 C448 1.382 . S
C447 H473 0.950 . S
C448 N445 1.332 . S
C448 C447 1.382 . S
C448 H459 0.952 . S
C449 C446 1.388 . S
C449 C450 1.382 . S
C449 H474 0.950 . S
C450 N445 1.332 . S
C450 C449 1.382 . S
C450 H460 0.948 . S
N451 Co429 2.282 . S
N451 C455 1.332 . S
N451 C456 1.332 . S
C452 C453 1.388 . S
C452 C456 1.382 . S
C452 H475 0.950 . S
C453 C452 1.388 . S
C453 C454 1.386 . S
C454 C453 1.386 . S
C454 C455 1.382 . S
C454 H476 0.950 . S
C455 N451 1.332 . S
C455 C454 1.382 . S
C455 H457 0.952 . S
C456 N451 1.332 . S
C456 C452 1.382 . S
C456 H458 0.948 . S
H457 C455 0.952 . S
H458 C456 0.948 . S
H459 C448 0.952 . S
H460 C450 0.948 . S
C461 C427 1.395 . S
C461 C431 1.391 . S
C462 C424 1.389 . S
C462 C444 1.392 . S
C463 C434 1.392 . S
C463 C436 1.389 . S
C464 C439 1.395 . S
C464 C441 1.391 . S
H465 C425 0.951 . S
H466 C426 0.950 . S
H467 C432 0.949 . S
H468 C433 0.950 . S
H469 C437 0.951 . S
H470 C438 0.950 . S
H471 C442 0.949 . S
H472 C443 0.950 . S
H473 C447 0.950 . S
H474 C449 0.950 . S
H475 C452 0.950 . S
H476 C454 0.950 . S
C477 C478 1.443 . S
C477 N481 1.376 . S
C477 C515 1.389 . S
C478 C477 1.443 . S
C478 C479 1.340 . S
C478 H518 0.951 . S
C479 C478 1.340 . S
C479 C480 1.439 . S
C479 H519 0.950 . S
C480 C479 1.439 . S
C480 N481 1.374 . S
C480 C514 1.395 . S
N481 C477 1.376 . S
N481 C480 1.374 . S
N481 Co482 2.008 . S
Co482 N481 2.008 . S
Co482 N483 1.995 . S
Co482 N488 2.008 . S
Co482 N493 1.995 . S
Co482 N498 2.282 . S
Co482 N504 2.282 . S
N483 Co482 1.995 . S
N483 C484 1.376 . S
N483 C487 1.383 . S
C484 N483 1.376 . S
C484 C485 1.446 . S
C484 C514 1.391 . S
C485 C484 1.446 . S
C485 C486 1.339 . S
C485 H520 0.949 . S
C486 C485 1.339 . S
C486 C487 1.439 . S
C486 H521 0.950 . S
C487 N483 1.383 . S
C487 C486 1.439 . S
C487 C516 1.392 . S
N488 Co482 2.008 . S
N488 C489 1.376 . S
N488 C492 1.374 . S
C489 N488 1.376 . S
C489 C490 1.443 . S
C489 C516 1.389 . S
C490 C489 1.443 . S
C490 C491 1.340 . S
C490 H522 0.951 . S
C491 C490 1.340 . S
C491 C492 1.439 . S
C491 H523 0.950 . S
C492 N488 1.374 . S
C492 C491 1.439 . S
C492 C517 1.395 . S
N493 Co482 1.995 . S
N493 C494 1.376 . S
N493 C497 1.383 . S
C494 N493 1.376 . S
C494 C495 1.446 . S
C494 C517 1.391 . S
C495 C494 1.446 . S
C495 C496 1.339 . S
C495 H524 0.949 . S
C496 C495 1.339 . S
C496 C497 1.439 . S
C496 H525 0.950 . S
C497 N493 1.383 . S
C497 C496 1.439 . S
C497 C515 1.392 . S
N498 Co482 2.282 . S
N498 C501 1.332 . S
N498 C503 1.332 . S
C499 C500 1.386 . S
C499 C502 1.388 . S
C500 C499 1.386 . S
C500 C501 1.382 . S
C500 H526 0.950 . S
C501 N498 1.332 . S
C501 C500 1.382 . S
C501 H512 0.952 . S
C502 C499 1.388 . S
C502 C503 1.382 . S
C502 H527 0.950 . S
C503 N498 1.332 . S
C503 C502 1.382 . S
C503 H513 0.948 . S
N504 Co482 2.282 . S
N504 C508 1.332 . S
N504 C509 1.332 . S
C505 C506 1.388 . S
C505 C509 1.382 . S
C505 H528 0.950 . S
C506 C505 1.388 . S
C506 C507 1.386 . S
C507 C506 1.386 . S
C507 C508 1.382 . S
C507 H529 0.950 . S
C508 N504 1.332 . S
C508 C507 1.382 . S
C508 H510 0.952 . S
C509 N504 1.332 . S
C509 C505 1.382 . S
C509 H511 0.948 . S
H510 C508 0.952 . S
H511 C509 0.948 . S
H512 C501 0.952 . S
H513 C503 0.948 . S
C514 C480 1.395 . S
C514 C484 1.391 . S
C515 C477 1.389 . S
C515 C497 1.392 . S
C516 C487 1.392 . S
C516 C489 1.389 . S
C517 C492 1.395 . S
C517 C494 1.391 . S
H518 C478 0.951 . S
H519 C479 0.950 . S
H520 C485 0.949 . S
H521 C486 0.950 . S
H522 C490 0.951 . S
H523 C491 0.950 . S
H524 C495 0.949 . S
H525 C496 0.950 . S
H526 C500 0.950 . S
H527 C502 0.950 . S
H528 C505 0.950 . S
H529 C507 0.950 . S
C530 C531 1.443 . S
C530 N534 1.376 . S
C530 C568 1.389 . S
C531 C530 1.443 . S
C531 C532 1.340 . S
C531 H571 0.951 . S
C532 C531 1.340 . S
C532 C533 1.439 . S
C532 H572 0.950 . S
C533 C532 1.439 . S
C533 N534 1.374 . S
C533 C567 1.395 . S
N534 C530 1.376 . S
N534 C533 1.374 . S
N534 Co535 2.008 . S
Co535 N534 2.008 . S
Co535 N536 1.995 . S
Co535 N541 2.008 . S
Co535 N546 1.995 . S
Co535 N551 2.282 . S
Co535 N557 2.282 . S
N536 Co535 1.995 . S
N536 C537 1.376 . S
N536 C540 1.383 . S
C537 N536 1.376 . S
C537 C538 1.446 . S
C537 C567 1.391 . S
C538 C537 1.446 . S
C538 C539 1.339 . S
C538 H573 0.949 . S
C539 C538 1.339 . S
C539 C540 1.439 . S
C539 H574 0.950 . S
C540 N536 1.383 . S
C540 C539 1.439 . S
C540 C569 1.392 . S
N541 Co535 2.008 . S
N541 C542 1.376 . S
N541 C545 1.374 . S
C542 N541 1.376 . S
C542 C543 1.443 . S
C542 C569 1.389 . S
C543 C542 1.443 . S
C543 C544 1.340 . S
C543 H575 0.951 . S
C544 C543 1.340 . S
C544 C545 1.439 . S
C544 H576 0.950 . S
C545 N541 1.374 . S
C545 C544 1.439 . S
C545 C570 1.395 . S
N546 Co535 1.995 . S
N546 C547 1.376 . S
N546 C550 1.383 . S
C547 N546 1.376 . S
C547 C548 1.446 . S
C547 C570 1.391 . S
C548 C547 1.446 . S
C548 C549 1.339 . S
C548 H577 0.949 . S
C549 C548 1.339 . S
C549 C550 1.439 . S
C549 H578 0.950 . S
C550 N546 1.383 . S
C550 C549 1.439 . S
C550 C568 1.392 . S
N551 Co535 2.282 . S
N551 C554 1.332 . S
N551 C556 1.332 . S
C552 C553 1.386 . S
C552 C555 1.388 . S
C553 C552 1.386 . S
C553 C554 1.382 . S
C553 H579 0.950 . S
C554 N551 1.332 . S
C554 C553 1.382 . S
C554 H565 0.952 . S
C555 C552 1.388 . S
C555 C556 1.382 . S
C555 H580 0.950 . S
C556 N551 1.332 . S
C556 C555 1.382 . S
C556 H566 0.948 . S
N557 Co535 2.282 . S
N557 C561 1.332 1_556 S
N557 C562 1.332 1_556 S
C558 C559 1.388 . S
C558 C562 1.382 . S
C558 H581 0.950 . S
C559 C558 1.388 . S
C559 C560 1.386 . S
C560 C559 1.386 . S
C560 C561 1.382 . S
C560 H582 0.950 . S
C561 N557 1.332 1_554 S
C561 C560 1.382 . S
C561 H563 0.952 . S
C562 N557 1.332 1_554 S
C562 C558 1.382 . S
C562 H564 0.947 1_554 S
H563 C561 0.952 . S
H564 C562 0.947 1_556 S
H565 C554 0.952 . S
H566 C556 0.948 . S
C567 C533 1.395 . S
C567 C537 1.391 . S
C568 C530 1.389 . S
C568 C550 1.392 . S
C569 C540 1.392 . S
C569 C542 1.389 . S
C570 C545 1.395 . S
C570 C547 1.391 . S
H571 C531 0.951 . S
H572 C532 0.950 . S
H573 C538 0.949 . S
H574 C539 0.950 . S
H575 C543 0.951 . S
H576 C544 0.950 . S
H577 C548 0.949 . S
H578 C549 0.950 . S
H579 C553 0.950 . S
H580 C555 0.950 . S
H581 C558 0.950 . S
H582 C560 0.950 . S
C583 C584 1.443 . S
C583 N587 1.376 . S
C583 C621 1.389 . S
C584 C583 1.443 . S
C584 C585 1.340 . S
C584 H624 0.951 . S
C585 C584 1.340 . S
C585 C586 1.439 . S
C585 H625 0.950 . S
C586 C585 1.439 . S
C586 N587 1.374 . S
C586 C620 1.395 . S
N587 C583 1.376 . S
N587 C586 1.374 . S
N587 Co588 2.008 . S
Co588 N587 2.008 . S
Co588 N589 1.995 . S
Co588 N594 2.008 . S
Co588 N599 1.995 . S
Co588 N604 2.282 . S
Co588 N610 2.282 . S
N589 Co588 1.995 . S
N589 C590 1.376 . S
N589 C593 1.383 . S
C590 N589 1.376 . S
C590 C591 1.446 . S
C590 C620 1.391 . S
C591 C590 1.446 . S
C591 C592 1.339 . S
C591 H626 0.949 . S
C592 C591 1.339 . S
C592 C593 1.439 . S
C592 H627 0.950 . S
C593 N589 1.383 . S
C593 C592 1.439 . S
C593 C622 1.392 . S
N594 Co588 2.008 . S
N594 C595 1.376 . S
N594 C598 1.374 . S
C595 N594 1.376 . S
C595 C596 1.443 . S
C595 C622 1.389 . S
C596 C595 1.443 . S
C596 C597 1.340 . S
C596 H628 0.951 . S
C597 C596 1.340 . S
C597 C598 1.439 . S
C597 H629 0.950 . S
C598 N594 1.374 . S
C598 C597 1.439 . S
C598 C623 1.395 . S
N599 Co588 1.995 . S
N599 C600 1.376 . S
N599 C603 1.383 . S
C600 N599 1.376 . S
C600 C601 1.446 . S
C600 C623 1.391 . S
C601 C600 1.446 . S
C601 C602 1.339 . S
C601 H630 0.949 . S
C602 C601 1.339 . S
C602 C603 1.439 . S
C602 H631 0.950 . S
C603 N599 1.383 . S
C603 C602 1.439 . S
C603 C621 1.392 . S
N604 Co588 2.282 . S
N604 C607 1.332 . S
N604 C609 1.332 . S
C605 C606 1.386 . S
C605 C608 1.388 . S
C606 C605 1.386 . S
C606 C607 1.382 . S
C606 H632 0.950 . S
C607 N604 1.332 . S
C607 C606 1.382 . S
C607 H618 0.952 . S
C608 C605 1.388 . S
C608 C609 1.382 . S
C608 H633 0.950 . S
C609 N604 1.332 . S
C609 C608 1.382 . S
C609 H619 0.948 . S
N610 Co588 2.282 . S
N610 C614 1.332 . S
N610 C615 1.332 . S
C611 C612 1.388 . S
C611 C615 1.382 . S
C611 H634 0.950 . S
C612 C611 1.388 . S
C612 C613 1.386 . S
C613 C612 1.386 . S
C613 C614 1.382 . S
C613 H635 0.950 . S
C614 N610 1.332 . S
C614 C613 1.382 . S
C614 H616 0.952 . S
C615 N610 1.332 . S
C615 C611 1.382 . S
C615 H617 0.948 . S
H616 C614 0.952 . S
H617 C615 0.948 . S
H618 C607 0.952 . S
H619 C609 0.948 . S
C620 C586 1.395 . S
C620 C590 1.391 . S
C621 C583 1.389 . S
C621 C603 1.392 . S
C622 C593 1.392 . S
C622 C595 1.389 . S
C623 C598 1.395 . S
C623 C600 1.391 . S
H624 C584 0.951 . S
H625 C585 0.950 . S
H626 C591 0.949 . S
H627 C592 0.950 . S
H628 C596 0.951 . S
H629 C597 0.950 . S
H630 C601 0.949 . S
H631 C602 0.950 . S
H632 C606 0.950 . S
H633 C608 0.950 . S
H634 C611 0.950 . S
H635 C613 0.950 . S
C636 C637 1.363 . S
C636 C642 1.379 . S
C636 N644 1.356 . S
C637 C636 1.363 . S
C637 C643 1.363 . S
C638 C639 1.363 . S
C638 C643 1.379 . S
C638 N645 1.356 . S
C639 C638 1.363 . S
C639 C642 1.363 . S
N640 C642 1.356 . S
N640 H652 0.984 . S
N640 H653 0.985 . S
N641 C643 1.356 . S
N641 H646 0.984 . S
N641 H647 0.985 . S
C642 C636 1.379 . S
C642 C639 1.363 . S
C642 N640 1.356 . S
C643 C637 1.363 . S
C643 C638 1.379 . S
C643 N641 1.356 . S
N644 C636 1.356 . S
N644 H650 0.984 . S
N644 H651 0.984 . S
N645 C638 1.356 . S
N645 H648 0.984 . S
N645 H649 0.985 . S
H646 N641 0.984 . S
H647 N641 0.985 . S
H648 N645 0.984 . S
H649 N645 0.985 . S
H650 N644 0.984 . S
H651 N644 0.984 . S
H652 N640 0.984 . S
H653 N640 0.985 . S
C654 C655 1.363 . S
C654 C660 1.379 . S
C654 N662 1.356 . S
C655 C654 1.363 . S
C655 C661 1.363 . S
C656 C657 1.363 . S
C656 C661 1.379 . S
C656 N663 1.356 . S
C657 C656 1.363 . S
C657 C660 1.363 . S
N658 C660 1.356 . S
N658 H670 0.984 . S
N658 H671 0.985 . S
N659 C661 1.356 . S
N659 H664 0.984 . S
N659 H665 0.985 . S
C660 C654 1.379 . S
C660 C657 1.363 . S
C660 N658 1.356 . S
C661 C655 1.363 . S
C661 C656 1.379 . S
C661 N659 1.356 . S
N662 C654 1.356 . S
N662 H668 0.984 . S
N662 H669 0.984 . S
N663 C656 1.356 . S
N663 H666 0.984 . S
N663 H667 0.985 . S
H664 N659 0.984 . S
H665 N659 0.985 . S
H666 N663 0.984 . S
H667 N663 0.985 . S
H668 N662 0.984 . S
H669 N662 0.984 . S
H670 N658 0.984 . S
H671 N658 0.985 . S
C672 C673 1.363 . S
C672 C678 1.379 1_556 S
C672 N680 1.356 . S
C673 C672 1.363 . S
C673 C679 1.363 . S
C674 C675 1.363 . S
C674 C679 1.379 1_554 S
C674 N681 1.356 . S
C675 C674 1.363 . S
C675 C678 1.363 . S
N676 C678 1.356 . S
N676 H688 0.984 . S
N676 H689 0.985 . S
N677 C679 1.356 . S
N677 H682 0.984 . S
N677 H683 0.985 . S
C678 C672 1.379 1_554 S
C678 C675 1.363 . S
C678 N676 1.356 . S
C679 C673 1.363 . S
C679 C674 1.379 1_556 S
C679 N677 1.356 . S
N680 C672 1.356 . S
N680 H686 0.984 . S
N680 H687 0.984 . S
N681 C674 1.356 . S
N681 H684 0.984 . S
N681 H685 0.985 . S
H682 N677 0.984 . S
H683 N677 0.985 . S
H684 N681 0.984 . S
H685 N681 0.985 . S
H686 N680 0.984 . S
H687 N680 0.984 . S
H688 N676 0.984 . S
H689 N676 0.985 . S
C690 C691 1.363 . S
C690 C696 1.379 . S
C690 N698 1.356 . S
C691 C690 1.363 . S
C691 C697 1.363 . S
C692 C693 1.363 . S
C692 C697 1.379 . S
C692 N699 1.356 . S
C693 C692 1.363 . S
C693 C696 1.363 . S
N694 C696 1.356 . S
N694 H706 0.984 . S
N694 H707 0.985 . S
N695 C697 1.356 . S
N695 H700 0.984 . S
N695 H701 0.985 . S
C696 C690 1.379 . S
C696 C693 1.363 . S
C696 N694 1.356 . S
C697 C691 1.363 . S
C697 C692 1.379 . S
C697 N695 1.356 . S
N698 C690 1.356 . S
N698 H704 0.984 . S
N698 H705 0.984 . S
N699 C692 1.356 . S
N699 H702 0.984 . S
N699 H703 0.985 . S
H700 N695 0.984 . S
H701 N695 0.985 . S
H702 N699 0.984 . S
H703 N699 0.985 . S
H704 N698 0.984 . S
H705 N698 0.984 . S
H706 N694 0.984 . S
H707 N694 0.985 . S
C708 C709 1.363 . S
C708 C714 1.379 . S
C708 N716 1.356 . S
C709 C708 1.363 . S
C709 C715 1.363 . S
C710 C711 1.363 . S
C710 C715 1.379 . S
C710 N717 1.356 . S
C711 C710 1.363 . S
C711 C714 1.363 . S
N712 C714 1.356 . S
N712 H724 0.984 . S
N712 H725 0.985 . S
N713 C715 1.356 . S
N713 H718 0.984 . S
N713 H719 0.985 . S
C714 C708 1.379 . S
C714 C711 1.363 . S
C714 N712 1.356 . S
C715 C709 1.363 . S
C715 C710 1.379 . S
C715 N713 1.356 . S
N716 C708 1.356 . S
N716 H722 0.984 . S
N716 H723 0.984 . S
N717 C710 1.356 . S
N717 H720 0.984 . S
N717 H721 0.985 . S
H718 N713 0.984 . S
H719 N713 0.985 . S
H720 N717 0.984 . S
H721 N717 0.985 . S
H722 N716 0.984 . S
H723 N716 0.984 . S
H724 N712 0.984 . S
H725 N712 0.985 . S
C726 C727 1.363 . S
C726 C732 1.379 1_554 S
C726 N734 1.356 . S
C727 C726 1.363 . S
C727 C733 1.363 . S
C728 C729 1.363 . S
C728 C733 1.379 1_556 S
C728 N735 1.356 . S
C729 C728 1.363 . S
C729 C732 1.363 . S
N730 C732 1.356 . S
N730 H742 0.984 . S
N730 H743 0.985 . S
N731 C733 1.356 . S
N731 H736 0.984 . S
N731 H737 0.985 . S
C732 C726 1.379 1_556 S
C732 C729 1.363 . S
C732 N730 1.356 . S
C733 C727 1.363 . S
C733 C728 1.379 1_554 S
C733 N731 1.356 . S
N734 C726 1.356 . S
N734 H740 0.984 . S
N734 H741 0.984 . S
N735 C728 1.356 . S
N735 H738 0.984 . S
N735 H739 0.985 . S
H736 N731 0.984 . S
H737 N731 0.985 . S
H738 N735 0.984 . S
H739 N735 0.985 . S
H740 N734 0.984 . S
H741 N734 0.984 . S
H742 N730 0.984 . S
H743 N730 0.985 . S
C744 C745 1.363 1_556 S
C744 C750 1.379 . S
C744 N752 1.357 . S
C745 C744 1.363 1_554 S
C745 C751 1.363 . S
C746 C747 1.363 1_554 S
C746 C751 1.379 . S
C746 N753 1.357 . S
C747 C746 1.363 1_556 S
C747 C750 1.363 . S
N748 C750 1.356 . S
N748 H760 0.984 . S
N748 H761 0.985 . S
N749 C751 1.356 . S
N749 H754 0.984 . S
N749 H755 0.985 . S
C750 C744 1.379 . S
C750 C747 1.363 . S
C750 N748 1.356 . S
C751 C745 1.363 . S
C751 C746 1.379 . S
C751 N749 1.356 . S
N752 C744 1.357 . S
N752 H758 0.990 . S
N752 H759 0.978 1_556 S
N753 C746 1.357 . S
N753 H756 0.978 1_554 S
N753 H757 0.990 . S
H754 N749 0.984 . S
H755 N749 0.985 . S
H756 N753 0.978 1_556 S
H757 N753 0.990 . S
H758 N752 0.990 . S
H759 N752 0.978 1_554 S
H760 N748 0.984 . S
H761 N748 0.985 . S
C762 C763 1.363 . S
C762 C768 1.379 . S
C762 N770 1.356 . S
C763 C762 1.363 . S
C763 C769 1.363 . S
C764 C765 1.363 . S
C764 C769 1.379 . S
C764 N771 1.356 . S
C765 C764 1.363 . S
C765 C768 1.363 . S
N766 C768 1.356 . S
N766 H778 0.984 . S
N766 H779 0.985 . S
N767 C769 1.356 . S
N767 H772 0.984 . S
N767 H773 0.985 . S
C768 C762 1.379 . S
C768 C765 1.363 . S
C768 N766 1.356 . S
C769 C763 1.363 . S
C769 C764 1.379 . S
C769 N767 1.356 . S
N770 C762 1.356 . S
N770 H776 0.984 . S
N770 H777 0.984 . S
N771 C764 1.356 . S
N771 H774 0.984 . S
N771 H775 0.985 . S
H772 N767 0.984 . S
H773 N767 0.985 . S
H774 N771 0.984 . S
H775 N771 0.985 . S
H776 N770 0.984 . S
H777 N770 0.984 . S
H778 N766 0.984 . S
H779 N766 0.985 . S
C780 C781 1.363 . S
C780 C786 1.379 . S
C780 N788 1.356 . S
C781 C780 1.363 . S
C781 C787 1.363 . S
C782 C783 1.363 . S
C782 C787 1.379 . S
C782 N789 1.356 . S
C783 C782 1.363 . S
C783 C786 1.363 . S
N784 C786 1.356 . S
N784 H796 0.984 . S
N784 H797 0.985 . S
N785 C787 1.356 . S
N785 H790 0.984 . S
N785 H791 0.985 . S
C786 C780 1.379 . S
C786 C783 1.363 . S
C786 N784 1.356 . S
C787 C781 1.363 . S
C787 C782 1.379 . S
C787 N785 1.356 . S
N788 C780 1.356 . S
N788 H794 0.984 . S
N788 H795 0.984 . S
N789 C782 1.356 . S
N789 H792 0.984 . S
N789 H793 0.985 . S
H790 N785 0.984 . S
H791 N785 0.985 . S
H792 N789 0.984 . S
H793 N789 0.985 . S
H794 N788 0.984 . S
H795 N788 0.984 . S
H796 N784 0.984 . S
H797 N784 0.985 . S
C798 C799 1.363 . S
C798 C804 1.379 . S
C798 N806 1.356 . S
C799 C798 1.363 . S
C799 C805 1.363 1_554 S
C800 C801 1.363 . S
C800 C805 1.379 . S
C800 N807 1.356 . S
C801 C800 1.363 . S
C801 C804 1.363 1_556 S
N802 C804 1.357 . S
N802 H814 0.990 . S
N802 H815 0.978 1_554 S
N803 C805 1.357 . S
N803 H808 0.978 1_556 S
N803 H809 0.990 . S
C804 C798 1.379 . S
C804 C801 1.363 1_554 S
C804 N802 1.357 . S
C805 C799 1.363 1_556 S
C805 C800 1.379 . S
C805 N803 1.357 . S
N806 C798 1.356 . S
N806 H812 0.984 . S
N806 H813 0.984 . S
N807 C800 1.356 . S
N807 H810 0.984 . S
N807 H811 0.985 . S
H808 N803 0.978 1_554 S
H809 N803 0.990 . S
H810 N807 0.984 . S
H811 N807 0.985 . S
H812 N806 0.984 . S
H813 N806 0.984 . S
H814 N802 0.990 . S
H815 N802 0.978 1_556 S
C816 C817 1.363 . S
C816 C822 1.379 . S
C816 N824 1.356 . S
C817 C816 1.363 . S
C817 C823 1.363 . S
C818 C819 1.363 . S
C818 C823 1.379 . S
C818 N825 1.356 . S
C819 C818 1.363 . S
C819 C822 1.363 . S
N820 C822 1.356 . S
N820 H832 0.984 . S
N820 H833 0.985 . S
N821 C823 1.356 . S
N821 H826 0.984 . S
N821 H827 0.985 . S
C822 C816 1.379 . S
C822 C819 1.363 . S
C822 N820 1.356 . S
C823 C817 1.363 . S
C823 C818 1.379 . S
C823 N821 1.356 . S
N824 C816 1.356 . S
N824 H830 0.984 . S
N824 H831 0.984 . S
N825 C818 1.356 . S
N825 H828 0.984 . S
N825 H829 0.985 . S
H826 N821 0.984 . S
H827 N821 0.985 . S
H828 N825 0.984 . S
H829 N825 0.985 . S
H830 N824 0.984 . S
H831 N824 0.984 . S
H832 N820 0.984 . S
H833 N820 0.985 . S
C834 C835 1.363 . S
C834 C840 1.379 . S
C834 N842 1.356 . S
C835 C834 1.363 . S
C835 C841 1.363 . S
C836 C837 1.363 . S
C836 C841 1.379 . S
C836 N843 1.356 . S
C837 C836 1.363 . S
C837 C840 1.363 . S
N838 C840 1.356 . S
N838 H850 0.984 . S
N838 H851 0.985 . S
N839 C841 1.356 . S
N839 H844 0.984 . S
N839 H845 0.985 . S
C840 C834 1.379 . S
C840 C837 1.363 . S
C840 N838 1.356 . S
C841 C835 1.363 . S
C841 C836 1.379 . S
C841 N839 1.356 . S
N842 C834 1.356 . S
N842 H848 0.984 . S
N842 H849 0.984 . S
N843 C836 1.356 . S
N843 H846 0.984 . S
N843 H847 0.985 . S
H844 N839 0.984 . S
H845 N839 0.985 . S
H846 N843 0.984 . S
H847 N843 0.985 . S
H848 N842 0.984 . S
H849 N842 0.984 . S
H850 N838 0.984 . S
H851 N838 0.985 . S
C852 C853 1.363 . S
C852 C858 1.379 . S
C852 N860 1.356 . S
C853 C852 1.363 . S
C853 C859 1.363 . S
C854 C855 1.363 . S
C854 C859 1.379 . S
C854 N861 1.356 . S
C855 C854 1.363 . S
C855 C858 1.363 . S
N856 C858 1.356 . S
N856 H868 0.984 . S
N856 H869 0.985 . S
N857 C859 1.356 . S
N857 H862 0.984 . S
N857 H863 0.985 . S
C858 C852 1.379 . S
C858 C855 1.363 . S
C858 N856 1.356 . S
C859 C853 1.363 . S
C859 C854 1.379 . S
C859 N857 1.356 . S
N860 C852 1.356 . S
N860 H866 0.984 . S
N860 H867 0.984 . S
N861 C854 1.356 . S
N861 H864 0.984 . S
N861 H865 0.985 . S
H862 N857 0.984 . S
H863 N857 0.985 . S
H864 N861 0.984 . S
H865 N861 0.985 . S
H866 N860 0.984 . S
H867 N860 0.984 . S
H868 N856 0.984 . S
H869 N856 0.985 . S
C870 C871 1.363 . S
C870 C876 1.379 1_655 S
C870 N878 1.356 . S
C871 C870 1.363 . S
C871 C877 1.363 . S
C872 C873 1.363 . S
C872 C877 1.379 1_455 S
C872 N879 1.356 . S
C873 C872 1.363 . S
C873 C876 1.363 . S
N874 C876 1.356 . S
N874 H886 0.984 . S
N874 H887 0.985 . S
N875 C877 1.356 . S
N875 H880 0.984 . S
N875 H881 0.985 . S
C876 C870 1.379 1_455 S
C876 C873 1.363 . S
C876 N874 1.356 . S
C877 C871 1.363 . S
C877 C872 1.379 1_655 S
C877 N875 1.356 . S
N878 C870 1.356 . S
N878 H884 0.984 . S
N878 H885 0.984 . S
N879 C872 1.356 . S
N879 H882 0.984 . S
N879 H883 0.985 . S
H880 N875 0.984 . S
H881 N875 0.985 . S
H882 N879 0.984 . S
H883 N879 0.985 . S
H884 N878 0.984 . S
H885 N878 0.984 . S
H886 N874 0.984 . S
H887 N874 0.985 . S
C888 C889 1.363 . S
C888 C894 1.379 1_545 S
C888 N896 1.356 . S
C889 C888 1.363 . S
C889 C895 1.363 . S
C890 C891 1.363 . S
C890 C895 1.379 1_565 S
C890 N897 1.356 . S
C891 C890 1.363 . S
C891 C894 1.363 . S
N892 C894 1.356 . S
N892 H904 0.984 . S
N892 H905 0.985 . S
N893 C895 1.356 . S
N893 H898 0.984 . S
N893 H899 0.985 . S
C894 C888 1.379 1_565 S
C894 C891 1.363 . S
C894 N892 1.356 . S
C895 C889 1.363 . S
C895 C890 1.379 1_545 S
C895 N893 1.356 . S
N896 C888 1.356 . S
N896 H902 0.984 . S
N896 H903 0.984 . S
N897 C890 1.356 . S
N897 H900 0.984 . S
N897 H901 0.985 . S
H898 N893 0.984 . S
H899 N893 0.985 . S
H900 N897 0.984 . S
H901 N897 0.985 . S
H902 N896 0.984 . S
H903 N896 0.984 . S
H904 N892 0.984 . S
H905 N892 0.985 . S
C906 C907 1.363 . S
C906 C912 1.379 . S
C906 N914 1.356 . S
C907 C906 1.363 . S
C907 C913 1.363 . S
C908 C909 1.363 . S
C908 C913 1.379 . S
C908 N915 1.356 . S
C909 C908 1.363 . S
C909 C912 1.363 . S
N910 C912 1.356 . S
N910 H922 0.984 . S
N910 H923 0.985 . S
N911 C913 1.356 . S
N911 H916 0.984 . S
N911 H917 0.985 . S
C912 C906 1.379 . S
C912 C909 1.363 . S
C912 N910 1.356 . S
C913 C907 1.363 . S
C913 C908 1.379 . S
C913 N911 1.356 . S
N914 C906 1.356 . S
N914 H920 0.984 . S
N914 H921 0.984 . S
N915 C908 1.356 . S
N915 H918 0.984 . S
N915 H919 0.985 . S
H916 N911 0.984 . S
H917 N911 0.985 . S
H918 N915 0.984 . S
H919 N915 0.985 . S
H920 N914 0.984 . S
H921 N914 0.984 . S
H922 N910 0.984 . S
H923 N910 0.985 . S
C924 C925 1.363 . S
C924 C930 1.379 1_455 S
C924 N932 1.356 . S
C925 C924 1.363 . S
C925 C931 1.363 . S
C926 C927 1.363 . S
C926 C931 1.379 1_655 S
C926 N933 1.356 . S
C927 C926 1.363 . S
C927 C930 1.363 . S
N928 C930 1.356 . S
N928 H940 0.984 . S
N928 H941 0.985 . S
N929 C931 1.356 . S
N929 H934 0.984 . S
N929 H935 0.985 . S
C930 C924 1.379 1_655 S
C930 C927 1.363 . S
C930 N928 1.356 . S
C931 C925 1.363 . S
C931 C926 1.379 1_455 S
C931 N929 1.356 . S
N932 C924 1.356 . S
N932 H938 0.984 . S
N932 H939 0.984 . S
N933 C926 1.356 . S
N933 H936 0.984 . S
N933 H937 0.985 . S
H934 N929 0.984 . S
H935 N929 0.985 . S
H936 N933 0.984 . S
H937 N933 0.985 . S
H938 N932 0.984 . S
H939 N932 0.984 . S
H940 N928 0.984 . S
H941 N928 0.985 . S
C942 C943 1.363 . S
C942 C948 1.379 1_565 S
C942 N950 1.356 . S
C943 C942 1.363 . S
C943 C949 1.363 . S
C944 C945 1.363 . S
C944 C949 1.379 1_545 S
C944 N951 1.356 . S
C945 C944 1.363 . S
C945 C948 1.363 . S
N946 C948 1.356 . S
N946 H958 0.984 . S
N946 H959 0.985 . S
N947 C949 1.356 . S
N947 H952 0.984 . S
N947 H953 0.985 . S
C948 C942 1.379 1_545 S
C948 C945 1.363 . S
C948 N946 1.356 . S
C949 C943 1.363 . S
C949 C944 1.379 1_565 S
C949 N947 1.356 . S
N950 C942 1.356 . S
N950 H956 0.984 . S
N950 H957 0.984 . S
N951 C944 1.356 . S
N951 H954 0.984 . S
N951 H955 0.985 . S
H952 N947 0.984 . S
H953 N947 0.985 . S
H954 N951 0.984 . S
H955 N951 0.985 . S
H956 N950 0.984 . S
H957 N950 0.984 . S
H958 N946 0.984 . S
H959 N946 0.985 . S
C960 C961 1.363 . S
C960 C966 1.379 . S
C960 N968 1.356 . S
C961 C960 1.363 . S
C961 C967 1.363 . S
C962 C963 1.363 . S
C962 C967 1.379 . S
C962 N969 1.356 . S
C963 C962 1.363 . S
C963 C966 1.363 . S
N964 C966 1.356 . S
N964 H976 0.984 . S
N964 H977 0.985 . S
N965 C967 1.356 . S
N965 H970 0.984 . S
N965 H971 0.985 . S
C966 C960 1.379 . S
C966 C963 1.363 . S
C966 N964 1.356 . S
C967 C961 1.363 . S
C967 C962 1.379 . S
C967 N965 1.356 . S
N968 C960 1.356 . S
N968 H974 0.984 . S
N968 H975 0.984 . S
N969 C962 1.356 . S
N969 H972 0.984 . S
N969 H973 0.985 . S
H970 N965 0.984 . S
H971 N965 0.985 . S
H972 N969 0.984 . S
H973 N969 0.985 . S
H974 N968 0.984 . S
H975 N968 0.984 . S
H976 N964 0.984 . S
H977 N964 0.985 . S
C978 C979 1.363 . S
C978 C984 1.379 . S
C978 N986 1.356 . S
C979 C978 1.363 . S
C979 C985 1.363 . S
C980 C981 1.363 . S
C980 C985 1.379 . S
C980 N987 1.356 . S
C981 C980 1.363 . S
C981 C984 1.363 . S
N982 C984 1.356 . S
N982 H994 0.984 . S
N982 H995 0.985 . S
N983 C985 1.356 . S
N983 H988 0.984 . S
N983 H989 0.985 . S
C984 C978 1.379 . S
C984 C981 1.363 . S
C984 N982 1.356 . S
C985 C979 1.363 . S
C985 C980 1.379 . S
C985 N983 1.356 . S
N986 C978 1.356 . S
N986 H992 0.984 . S
N986 H993 0.984 . S
N987 C980 1.356 . S
N987 H990 0.984 . S
N987 H991 0.985 . S
H988 N983 0.984 . S
H989 N983 0.985 . S
H990 N987 0.984 . S
H991 N987 0.985 . S
H992 N986 0.984 . S
H993 N986 0.984 . S
H994 N982 0.984 . S
H995 N982 0.985 . S
C996 C997 1.363 . S
C996 C1002 1.379 . S
C996 N1004 1.356 . S
C997 C996 1.363 . S
C997 C1003 1.363 . S
C998 C999 1.363 . S
C998 C1003 1.379 . S
C998 N1005 1.356 . S
C999 C998 1.363 . S
C999 C1002 1.363 . S
N1000 C1002 1.356 . S
N1000 H1012 0.984 . S
N1000 H1013 0.985 . S
N1001 C1003 1.356 . S
N1001 H1006 0.984 . S
N1001 H1007 0.985 . S
C1002 C996 1.379 . S
C1002 C999 1.363 . S
C1002 N1000 1.356 . S
C1003 C997 1.363 . S
C1003 C998 1.379 . S
C1003 N1001 1.356 . S
N1004 C996 1.356 . S
N1004 H1010 0.984 . S
N1004 H1011 0.984 . S
N1005 C998 1.356 . S
N1005 H1008 0.984 . S
N1005 H1009 0.985 . S
H1006 N1001 0.984 . S
H1007 N1001 0.985 . S
H1008 N1005 0.984 . S
H1009 N1005 0.985 . S
H1010 N1004 0.984 . S
H1011 N1004 0.984 . S
H1012 N1000 0.984 . S
H1013 N1000 0.985 . S
C1014 C1015 1.363 . S
C1014 C1020 1.379 . S
C1014 N1022 1.356 . S
C1015 C1014 1.363 . S
C1015 C1021 1.363 . S
C1016 C1017 1.363 . S
C1016 C1021 1.379 . S
C1016 N1023 1.356 . S
C1017 C1016 1.363 . S
C1017 C1020 1.363 . S
N1018 C1020 1.356 . S
N1018 H1030 0.984 . S
N1018 H1031 0.985 . S
N1019 C1021 1.356 . S
N1019 H1024 0.984 . S
N1019 H1025 0.985 . S
C1020 C1014 1.379 . S
C1020 C1017 1.363 . S
C1020 N1018 1.356 . S
C1021 C1015 1.363 . S
C1021 C1016 1.379 . S
C1021 N1019 1.356 . S
N1022 C1014 1.356 . S
N1022 H1028 0.984 . S
N1022 H1029 0.984 . S
N1023 C1016 1.356 . S
N1023 H1026 0.984 . S
N1023 H1027 0.985 . S
H1024 N1019 0.984 . S
H1025 N1019 0.985 . S
H1026 N1023 0.984 . S
H1027 N1023 0.985 . S
H1028 N1022 0.984 . S
H1029 N1022 0.984 . S
H1030 N1018 0.984 . S
H1031 N1018 0.985 . S
C1032 C1033 1.363 . S
C1032 C1038 1.379 . S
C1032 N1040 1.356 . S
C1033 C1032 1.363 . S
C1033 C1039 1.363 . S
C1034 C1035 1.363 . S
C1034 C1039 1.379 . S
C1034 N1041 1.356 . S
C1035 C1034 1.363 . S
C1035 C1038 1.363 . S
N1036 C1038 1.356 . S
N1036 H1048 0.984 . S
N1036 H1049 0.985 . S
N1037 C1039 1.356 . S
N1037 H1042 0.984 . S
N1037 H1043 0.985 . S
C1038 C1032 1.379 . S
C1038 C1035 1.363 . S
C1038 N1036 1.356 . S
C1039 C1033 1.363 . S
C1039 C1034 1.379 . S
C1039 N1037 1.356 . S
N1040 C1032 1.356 . S
N1040 H1046 0.984 . S
N1040 H1047 0.984 . S
N1041 C1034 1.356 . S
N1041 H1044 0.984 . S
N1041 H1045 0.985 . S
H1042 N1037 0.984 . S
H1043 N1037 0.985 . S
H1044 N1041 0.984 . S
H1045 N1041 0.985 . S
H1046 N1040 0.984 . S
H1047 N1040 0.984 . S
H1048 N1036 0.984 . S
H1049 N1036 0.985 . S
C1050 C1051 1.363 . S
C1050 C1056 1.379 . S
C1050 N1058 1.356 . S
C1051 C1050 1.363 . S
C1051 C1057 1.363 . S
C1052 C1053 1.363 . S
C1052 C1057 1.379 . S
C1052 N1059 1.356 . S
C1053 C1052 1.363 . S
C1053 C1056 1.363 . S
N1054 C1056 1.356 . S
N1054 H1066 0.984 . S
N1054 H1067 0.985 . S
N1055 C1057 1.356 . S
N1055 H1060 0.984 . S
N1055 H1061 0.985 . S
C1056 C1050 1.379 . S
C1056 C1053 1.363 . S
C1056 N1054 1.356 . S
C1057 C1051 1.363 . S
C1057 C1052 1.379 . S
C1057 N1055 1.356 . S
N1058 C1050 1.356 . S
N1058 H1064 0.984 . S
N1058 H1065 0.984 . S
N1059 C1052 1.356 . S
N1059 H1062 0.984 . S
N1059 H1063 0.985 . S
H1060 N1055 0.984 . S
H1061 N1055 0.985 . S
H1062 N1059 0.984 . S
H1063 N1059 0.985 . S
H1064 N1058 0.984 . S
H1065 N1058 0.984 . S
H1066 N1054 0.984 . S
H1067 N1054 0.985 . S
C637 C22 1.631 . S
C639 C340 1.631 . S
C655 C75 1.631 . S
C657 C393 1.631 . S
C673 C128 1.631 . S
C675 C446 1.631 . S
C691 C181 1.631 . S
C693 C499 1.631 . S
C709 C234 1.631 . S
C711 C552 1.631 . S
C727 C605 1.631 . S
C729 C287 1.631 . S
C745 C38 1.844 . S
C747 C568 1.844 . S
C763 C91 1.844 . S
C765 C621 1.844 . S
C781 C144 1.844 . S
C783 C356 1.844 . S
C799 C197 1.844 . S
C801 C409 1.844 . S
C817 C250 1.844 . S
C819 C462 1.844 . S
C835 C303 1.844 . S
C837 C515 1.844 . S
C853 C39 1.922 . S
C855 C198 1.922 . S
C871 C92 1.922 . S
C873 C251 1.922 . S
C889 C304 1.922 . S
C891 C145 1.922 . S
C907 C357 1.922 . S
C909 C516 1.922 . S
C925 C569 1.922 . S
C927 C410 1.922 . S
C943 C463 1.922 . S
C945 C622 1.922 . S
C961 C347 1.340 . S
C963 C29 1.340 . S
C979 C82 1.340 . S
C981 C400 1.340 . S
C997 C135 1.340 . S
C999 C453 1.340 . S
C1015 C506 1.340 . S
C1017 C188 1.340 . S
C1033 C559 1.340 . S
C1035 C241 1.340 . S
C1051 C294 1.340 . S
C1053 C612 1.340 . S
