# Generated by pormake.
# Topology noo, (5)-cn, num edge types: 1
# Building blocks:
#     Node 0, Type 0, BuildingBlock: BEQFEK_clean_sbu_0, # of connection points: 5
#     Node 1, Type 0, BuildingBlock: BEQFEK_clean_sbu_0, # of connection points: 5
#     Node 2, Type 0, BuildingBlock: BEQFEK_clean_sbu_0, # of connection points: 5
#     Node 3, Type 0, BuildingBlock: BEQFEK_clean_sbu_0, # of connection points: 5
#     Node 4, Type 0, BuildingBlock: BEQFEK_clean_sbu_0, # of connection points: 5
#     Node 5, Type 0, BuildingBlock: BEQFEK_clean_sbu_0, # of connection points: 5
#     Node 6, Type 0, BuildingBlock: BEQFEK_clean_sbu_0, # of connection points: 5
#     Node 7, Type 0, BuildingBlock: BEQFEK_clean_sbu_0, # of connection points: 5
#     Edge 8, Type (0, 0), BuildingBlock: XUDNAN_clean_linker_2, # of connection points: 2
#     Edge 9, Type (0, 0), BuildingBlock: XUDNAN_clean_linker_2, # of connection points: 2
#     Edge 10, Type (0, 0), BuildingBlock: XUDNAN_clean_linker_2, # of connection points: 2
#     Edge 11, Type (0, 0), BuildingBlock: XUDNAN_clean_linker_2, # of connection points: 2
#     Edge 12, Type (0, 0), BuildingBlock: XUDNAN_clean_linker_2, # of connection points: 2
#     Edge 13, Type (0, 0), BuildingBlock: XUDNAN_clean_linker_2, # of connection points: 2
#     Edge 14, Type (0, 0), BuildingBlock: XUDNAN_clean_linker_2, # of connection points: 2
#     Edge 15, Type (0, 0), BuildingBlock: XUDNAN_clean_linker_2, # of connection points: 2
#     Edge 16, Type (0, 0), BuildingBlock: XUDNAN_clean_linker_2, # of connection points: 2
#     Edge 17, Type (0, 0), BuildingBlock: XUDNAN_clean_linker_2, # of connection points: 2
#     Edge 18, Type (0, 0), BuildingBlock: XUDNAN_clean_linker_2, # of connection points: 2
#     Edge 19, Type (0, 0), BuildingBlock: XUDNAN_clean_linker_2, # of connection points: 2
#     Edge 20, Type (0, 0), BuildingBlock: XUDNAN_clean_linker_2, # of connection points: 2
#     Edge 21, Type (0, 0), BuildingBlock: XUDNAN_clean_linker_2, # of connection points: 2
#     Edge 22, Type (0, 0), BuildingBlock: XUDNAN_clean_linker_2, # of connection points: 2
#     Edge 23, Type (0, 0), BuildingBlock: XUDNAN_clean_linker_2, # of connection points: 2
#     Edge 24, Type (0, 0), BuildingBlock: XUDNAN_clean_linker_2, # of connection points: 2
#     Edge 25, Type (0, 0), BuildingBlock: XUDNAN_clean_linker_2, # of connection points: 2
#     Edge 26, Type (0, 0), BuildingBlock: XUDNAN_clean_linker_2, # of connection points: 2
#     Edge 27, Type (0, 0), BuildingBlock: XUDNAN_clean_linker_2, # of connection points: 2
# Relax obj value: 0.155
# Max RMSD: 0.153
# Mean RMSD: 0.153
data_MOF--net-noo--node1-BEQFEK_clean_sbu_0--edge1-XUDNAN_clean_linker_2
_symmetry_space_group_name_H-M    P1
_symmetry_Int_Tables_number       1
_symmetry_cell_setting            triclinic
loop_
_symmetry_equiv_pos_as_xyz
'x, y, z'
_cell_length_a     40.199022
_cell_length_b     40.281739
_cell_length_c     28.838224
_cell_angle_alpha  90.201492
_cell_angle_beta   89.951348
_cell_angle_gamma 90.028903
loop_
_atom_site_label
_atom_site_type_symbol
_atom_site_fract_x
_atom_site_fract_y
_atom_site_fract_z
_atom_type_partial_charge
Co0 Co 0.3707 0.27347 0.05058 0.0
Co1 Co 0.40864 0.20859 0.0758 0.0
C2 C 0.36963 0.21418 0.98655 0.0
O3 O 0.36017 0.2438 0.99547 0.0
O4 O 0.38801 0.19832 1.01491 0.0
C5 C 0.34005 0.32834 1.00566 0.0
O6 O 0.34744 0.31095 0.96843 0.0
C7 C 0.42914 0.13902 0.08624 0.0
C8 C 0.47331 0.14514 0.13109 0.0
C9 C 0.45552 0.12182 0.1059 0.0
N10 N 0.43163 0.17105 0.09881 0.0
N11 N 0.45795 0.17447 0.12583 0.0
C12 C 0.4019 0.12561 0.05627 0.0
H13 H 0.37883 0.14031 0.06142 0.0
H14 H 0.39704 0.09911 0.06424 0.0
H15 H 0.40938 0.12769 1.0194 0.0
C16 C 0.33825 0.25831 0.14274 0.0
N17 N 0.35996 0.25165 0.1081 0.0
N18 N 0.37688 0.22484 0.11892 0.0
C19 C 0.36714 0.21397 0.16096 0.0
C20 C 0.34193 0.23458 0.17763 0.0
C21 C 0.31376 0.28624 0.14146 0.0
H22 H 0.30462 0.28979 0.10554 0.0
H23 H 0.29236 0.28144 0.16482 0.0
H24 H 0.32635 0.30946 0.15259 0.0
O25 O 0.41898 0.28739 0.04897 0.0
O26 O 0.44439 0.24047 0.06627 0.0
H27 H 0.4113 0.19025 0.18511 0.0
H28 H 0.37665 0.18468 0.22298 0.0
C29 C 0.38409 0.18623 0.18609 0.0
H30 H 0.3786 0.16237 0.16831 0.0
H31 H 0.46615 0.19713 0.13925 0.0
O32 O 0.34631 0.31626 0.04537 0.0
C33 C 0.44559 0.27094 0.05577 0.0
Co34 Co 0.74157 0.37811 0.06452 0.0
Co35 Co 0.8056 0.41952 0.08726 0.0
C36 C 0.80202 0.37492 1.00232 0.0
O37 O 0.77228 0.36543 1.01144 0.0
O38 O 0.81739 0.39523 0.02901 0.0
C39 C 0.68349 0.3294 0.05031 0.0
O40 O 0.7022 0.3044 0.03694 0.0
C41 C 0.87375 0.44711 0.10337 0.0
C42 C 0.85974 0.49131 0.14464 0.0
C43 C 0.88679 0.47563 0.12444 0.0
N44 N 0.84069 0.44661 0.11076 0.0
N45 N 0.83265 0.47304 0.13554 0.0
C46 C 0.8918 0.42037 0.07757 0.0
H47 H 0.87709 0.39704 0.07794 0.0
H48 H 0.9166 0.41589 0.09323 0.0
H49 H 0.89514 0.42804 0.04094 0.0
C50 C 0.75655 0.35166 0.16018 0.0
N51 N 0.76293 0.37168 0.12371 0.0
N52 N 0.78942 0.38968 0.13322 0.0
C53 C 0.80053 0.382 0.17601 0.0
C54 C 0.78022 0.35739 0.19478 0.0
C55 C 0.72921 0.32647 0.16066 0.0
H56 H 0.72798 0.31383 0.1265 0.0
H57 H 0.73304 0.30769 0.18818 0.0
H58 H 0.70513 0.33928 0.16651 0.0
O59 O 0.72722 0.42519 0.05667 0.0
O60 O 0.77268 0.45353 0.07223 0.0
H61 H 0.82373 0.4268 0.19896 0.0
H62 H 0.83205 0.39224 0.23587 0.0
C63 C 0.82871 0.39978 0.1993 0.0
H64 H 0.85203 0.39524 0.17965 0.0
H65 H 0.8084 0.479 0.14546 0.0
O66 O 0.69681 0.35683 0.06182 0.0
C67 C 0.74235 0.45271 0.0607 0.0
Co68 Co 0.62493 0.74295 0.05026 0.0
Co69 Co 0.60602 0.81625 0.07367 0.0
C70 C 0.63448 0.79909 0.98107 0.0
O71 O 0.63771 0.7684 0.99161 0.0
O72 O 0.62284 0.82005 1.01 0.0
C73 C 0.66756 0.68413 0.03488 0.0
O74 O 0.6925 0.70447 0.02716 0.0
C75 C 0.58766 0.88679 0.0768 0.0
C76 C 0.5617 0.88882 0.14437 0.0
C77 C 0.56856 0.90724 0.1051 0.0
N78 N 0.59154 0.85752 0.09831 0.0
N79 N 0.57609 0.85899 0.13874 0.0
C80 C 0.6013 0.89433 0.02972 0.0
H81 H 0.62648 0.88338 0.02604 0.0
H82 H 0.60279 0.9215 0.02384 0.0
H83 H 0.58496 0.88296 1.00304 0.0
C84 C 0.66089 0.75147 0.14201 0.0
N85 N 0.64305 0.76316 0.1058 0.0
N86 N 0.63692 0.79484 0.11312 0.0
C87 C 0.65188 0.80467 0.1527 0.0
C88 C 0.66723 0.77744 0.17297 0.0
C89 C 0.6712 0.71598 0.14712 0.0
H90 H 0.69143 0.71062 0.12206 0.0
H91 H 0.68056 0.71065 0.18246 0.0
H92 H 0.64993 0.69943 0.13885 0.0
O93 O 0.5751 0.73973 0.05396 0.0
O94 O 0.56405 0.79205 0.07053 0.0
H95 H 0.67195 0.84616 0.19169 0.0
H96 H 0.64516 0.85738 0.14488 0.0
C97 C 0.64918 0.83896 0.1727 0.0
H98 H 0.62818 0.83979 0.19764 0.0
H99 H 0.57366 0.83892 0.16126 0.0
O100 O 0.63908 0.69583 0.04477 0.0
C101 C 0.55426 0.76272 0.06238 0.0
Co102 Co 0.27547 0.63241 0.05031 0.0
Co103 Co 0.20594 0.59707 0.05353 0.0
C104 C 0.22135 0.64653 0.97957 0.0
O105 O 0.25061 0.65044 0.99586 0.0
O106 O 0.20051 0.62704 0.99888 0.0
C107 C 0.3218 0.6865 0.0426 0.0
O108 O 0.29582 0.70225 0.02599 0.0
C109 C 0.13429 0.58209 0.06952 0.0
C110 C 0.13644 0.52727 0.07259 0.0
C111 C 0.11484 0.55387 0.075 0.0
N112 N 0.16611 0.57245 0.0642 0.0
N113 N 0.16709 0.53966 0.06607 0.0
C114 C 0.12269 0.61726 0.06624 0.0
H115 H 0.14388 0.63413 0.05889 0.0
H116 H 0.11062 0.62487 0.09917 0.0
H117 H 0.10378 0.61931 0.03837 0.0
C118 C 0.25422 0.65345 0.14531 0.0
N119 N 0.24915 0.63664 0.10538 0.0
N120 N 0.22067 0.62057 0.10797 0.0
C121 C 0.20741 0.62563 0.15053 0.0
C122 C 0.22802 0.64697 0.1757 0.0
C123 C 0.28235 0.67732 0.15228 0.0
H124 H 0.30594 0.66329 0.15598 0.0
H125 H 0.28453 0.69345 0.12144 0.0
H126 H 0.27857 0.69347 0.18301 0.0
O127 O 0.28813 0.58512 0.03821 0.0
O128 O 0.23793 0.56249 0.03586 0.0
H129 H 0.1751 0.58316 0.15281 0.0
H130 H 0.17756 0.60607 0.20647 0.0
C131 C 0.17699 0.60833 0.16814 0.0
H132 H 0.15467 0.62281 0.15831 0.0
H133 H 0.18875 0.52559 0.06285 0.0
O134 O 0.31847 0.65671 0.05622 0.0
C135 C 0.26923 0.56018 0.03202 0.0
Co136 Co 0.87315 0.23521 0.62789 0.0
Co137 Co 0.91842 0.29641 0.60735 0.0
C138 C 0.87894 0.29035 0.69724 0.0
O139 O 0.865 0.26316 0.68512 0.0
O140 O 0.89983 0.3047 0.67063 0.0
C141 C 0.85574 0.17406 0.66223 0.0
O142 O 0.87819 0.18461 0.69194 0.0
C143 C 0.94503 0.36445 0.60559 0.0
C144 C 0.9832 0.36 0.5507 0.0
C145 C 0.9702 0.38178 0.58326 0.0
N146 N 0.94363 0.3337 0.58751 0.0
N147 N 0.9664 0.33127 0.55459 0.0
C148 C 0.92175 0.37708 0.64208 0.0
H149 H 0.89702 0.36514 0.63822 0.0
H150 H 0.91892 0.40443 0.63981 0.0
H151 H 0.93178 0.37073 0.67674 0.0
C152 C 0.84338 0.2564 0.53669 0.0
N153 N 0.86519 0.25989 0.57204 0.0
N154 N 0.88428 0.28579 0.56382 0.0
C155 C 0.87511 0.29969 0.52328 0.0
C156 C 0.84903 0.28146 0.50431 0.0
C157 C 0.81864 0.22876 0.5334 0.0
H158 H 0.79892 0.23269 0.55979 0.0
H159 H 0.80717 0.22738 0.49846 0.0
H160 H 0.83104 0.20484 0.54127 0.0
O161 O 0.91988 0.2178 0.62874 0.0
O162 O 0.95172 0.26057 0.61099 0.0
H163 H 0.87371 0.34224 0.4775 0.0
H164 H 0.89347 0.34922 0.53277 0.0
C165 C 0.88986 0.33098 0.50436 0.0
H166 H 0.91446 0.32533 0.48881 0.0
H167 H 0.97097 0.30969 0.53549 0.0
O168 O 0.84616 0.19373 0.6305 0.0
C169 C 0.9485 0.2301 0.62098 0.0
Co170 Co 0.76898 0.87314 0.61015 0.0
Co171 Co 0.70648 0.91582 0.58494 0.0
C172 C 0.70817 0.87284 0.6711 0.0
O173 O 0.73746 0.86218 0.66219 0.0
O174 O 0.6936 0.89341 0.64417 0.0
C175 C 0.81665 0.82336 0.64132 0.0
O176 O 0.79319 0.81331 0.66974 0.0
C177 C 0.64155 0.9502 0.57631 0.0
C178 C 0.65244 0.98252 0.5163 0.0
C179 C 0.62864 0.97579 0.54961 0.0
N180 N 0.67169 0.94221 0.5593 0.0
N181 N 0.67784 0.96145 0.52325 0.0
C182 C 0.62798 0.93686 0.62078 0.0
H183 H 0.64487 0.94405 0.64952 0.0
H184 H 0.62744 0.90934 0.61906 0.0
H185 H 0.6027 0.94645 0.62833 0.0
C186 C 0.75355 0.84393 0.51711 0.0
N187 N 0.74809 0.86624 0.55135 0.0
N188 N 0.72154 0.88385 0.54106 0.0
C189 C 0.70913 0.87306 0.50023 0.0
C190 C 0.72918 0.84772 0.48342 0.0
C191 C 0.78045 0.81834 0.51809 0.0
H192 H 0.80498 0.83089 0.52028 0.0
H193 H 0.77759 0.80287 0.54962 0.0
H194 H 0.77976 0.80223 0.48679 0.0
O195 O 0.78473 0.9196 0.61835 0.0
O196 O 0.74094 0.94933 0.59831 0.0
H197 H 0.68209 0.90898 0.46127 0.0
H198 H 0.66755 0.86714 0.45327 0.0
C199 C 0.67737 0.88511 0.47912 0.0
H200 H 0.65847 0.88929 0.50656 0.0
H201 H 0.70019 0.96133 0.50482 0.0
O202 O 0.81066 0.84692 0.61344 0.0
C203 C 0.77085 0.94756 0.61199 0.0
Co204 Co 0.12195 0.77459 0.60082 0.0
Co205 Co 0.09929 0.7001 0.59739 0.0
C206 C 0.14035 0.7231 0.67544 0.0
O207 O 0.14018 0.75239 0.65841 0.0
O208 O 0.12601 0.69903 0.65477 0.0
C209 C 0.17356 0.82209 0.60594 0.0
O210 O 0.19026 0.79488 0.61524 0.0
C211 C 0.08237 0.62861 0.60282 0.0
C212 C 0.04797 0.62462 0.54323 0.0
C213 C 0.06153 0.60668 0.57942 0.0
N214 N 0.08091 0.65816 0.58138 0.0
N215 N 0.06032 0.65554 0.54587 0.0
C216 C 0.10391 0.62171 0.64395 0.0
H217 H 0.12787 0.63514 0.64049 0.0
H218 H 0.10889 0.59474 0.64749 0.0
H219 H 0.09128 0.63087 0.67574 0.0
C220 C 0.15018 0.75492 0.5075 0.0
N221 N 0.13286 0.74866 0.54679 0.0
N222 N 0.12394 0.71718 0.54658 0.0
C223 C 0.13552 0.70251 0.50767 0.0
C224 C 0.15214 0.72591 0.48135 0.0
C225 C 0.16517 0.78775 0.49556 0.0
H226 H 0.14824 0.80811 0.50633 0.0
H227 H 0.18899 0.79066 0.51456 0.0
H228 H 0.1703 0.78945 0.45781 0.0
O229 O 0.07251 0.7803 0.60802 0.0
O230 O 0.05977 0.72686 0.61057 0.0
H231 H 0.10903 0.66099 0.47999 0.0
H232 H 0.15335 0.65805 0.47362 0.0
C233 C 0.13311 0.66614 0.4973 0.0
H234 H 0.13446 0.6516 0.52982 0.0
H235 H 0.0542 0.67516 0.52393 0.0
O236 O 0.14264 0.81973 0.59735 0.0
C237 C 0.05129 0.75713 0.61341 0.0
Co238 Co 0.23882 0.12547 0.61015 0.0
Co239 Co 0.31151 0.10203 0.58618 0.0
C240 C 0.29628 0.13442 0.6777 0.0
O241 O 0.26546 0.1383 0.6679 0.0
O242 O 0.31634 0.12122 0.64876 0.0
C243 C 0.171 0.12768 0.63779 0.0
O244 O 0.1803 0.10039 0.65895 0.0
C245 C 0.38405 0.09027 0.5785 0.0
C246 C 0.38489 0.05429 0.52037 0.0
C247 C 0.40499 0.0699 0.55269 0.0
N248 N 0.35296 0.08677 0.56196 0.0
N249 N 0.35374 0.06543 0.52706 0.0
C250 C 0.39225 0.10929 0.62165 0.0
H251 H 0.38077 0.09658 0.65172 0.0
H252 H 0.38132 0.13454 0.61956 0.0
H253 H 0.41941 0.11105 0.62761 0.0
C254 C 0.24959 0.16182 0.51986 0.0
N255 N 0.25995 0.14177 0.55452 0.0
N256 N 0.29045 0.13185 0.54519 0.0
C257 C 0.30041 0.14517 0.5047 0.0
C258 C 0.27486 0.16438 0.48694 0.0
C259 C 0.2157 0.17698 0.51759 0.0
H260 H 0.19667 0.15705 0.51924 0.0
H261 H 0.21196 0.19332 0.54822 0.0
H262 H 0.21227 0.19156 0.48536 0.0
O263 O 0.23366 0.07529 0.60723 0.0
O264 O 0.28569 0.06133 0.59191 0.0
H265 H 0.33513 0.11571 0.46652 0.0
H266 H 0.33977 0.15971 0.45767 0.0
C267 C 0.33418 0.14033 0.48381 0.0
H268 H 0.35342 0.1411 0.5113 0.0
H269 H 0.33272 0.05751 0.50892 0.0
O270 O 0.1926 0.14405 0.61503 0.0
C271 C 0.25579 0.05319 0.60006 0.0
H272 H 0.55733 0.95842 0.16442 0.0
H273 H 0.54097 0.92659 1.02239 0.0
H274 H 0.50909 0.9777 1.00735 0.0
H275 H 0.47658 0.99208 0.18217 0.0
H276 H 0.49063 0.02643 0.2173 0.0
H277 H 0.51392 0.98825 0.21631 0.0
H278 H 0.56704 0.02016 0.19151 0.0
H279 H 0.54404 0.0585 0.19314 0.0
H280 H 0.56575 0.04642 0.14104 0.0
H281 H 0.47799 0.03174 1.00844 0.0
H282 H 0.45265 0.08625 0.02431 0.0
H283 H 0.48699 0.08139 0.16675 0.0
C284 C 0.54744 0.96251 0.12998 0.0
C285 C 0.5525 0.93913 0.09418 0.0
C286 C 0.53866 0.94486 0.04978 0.0
C287 C 0.52005 0.97357 0.04111 0.0
C288 C 0.51532 0.99603 0.07733 0.0
C289 C 0.52878 0.99093 0.1208 0.0
C290 C 0.5197 0.01865 0.15392 0.0
C291 C 0.49897 0.00555 0.19484 0.0
C292 C 0.55099 0.03702 0.17088 0.0
C293 C 0.49899 0.04015 0.12227 0.0
C294 C 0.49662 0.02662 0.07832 0.0
C295 C 0.47931 0.04241 0.04288 0.0
C296 C 0.46452 0.07318 0.05246 0.0
C297 C 0.46698 0.0876 0.09718 0.0
C298 C 0.4843 0.07068 0.13244 0.0
H299 H 0.93836 0.46611 0.06074 0.0
H300 H 0.91215 0.51946 0.18684 0.0
H301 H 0.96583 0.54868 0.18423 0.0
H302 H 0.02482 0.4537 0.09208 0.0
H303 H 0.03922 0.45802 0.0332 0.0
H304 H 0.99815 0.44212 0.04446 0.0
H305 H 0.97332 0.48799 0.99206 0.0
H306 H 0.01427 0.50449 0.98145 0.0
H307 H 0.98216 0.53096 1.00472 0.0
H308 H 0.02187 0.57308 0.16743 0.0
H309 H 0.07958 0.58535 0.14302 0.0
H310 H 0.07059 0.51364 0.03132 0.0
C311 C 0.94399 0.48306 0.08868 0.0
C312 C 0.92085 0.48997 0.12436 0.0
C313 C 0.92932 0.51363 0.15902 0.0
C314 C 0.95975 0.53049 0.15785 0.0
C315 C 0.98174 0.52332 0.12199 0.0
C316 C 0.97455 0.49976 0.08852 0.0
C317 C 1.00314 0.49582 0.05474 0.0
C318 C 0.01716 0.46031 0.05623 0.0
C319 C 0.99258 0.50539 1.00532 0.0
C320 C 0.0275 0.52075 0.07466 0.0
C321 C 0.01444 0.53679 0.11296 0.0
C322 C 0.03236 0.5608 0.13736 0.0
C323 C 0.06491 0.56795 0.12294 0.0
C324 C 0.07907 0.5509 0.08484 0.0
C325 C 0.06002 0.52727 0.06024 0.0
H326 H 0.99281 0.42669 0.52065 0.0
H327 H 0.97888 0.41159 0.66825 0.0
H328 H 1.00303 0.46687 0.68399 0.0
H329 H 0.07148 0.46898 0.52899 0.0
H330 H 0.06247 0.49722 0.48232 0.0
H331 H 0.04399 0.45648 0.48274 0.0
H332 H 0.98517 0.48258 0.47732 0.0
H333 H 1.00349 0.52336 0.47642 0.0
H334 H 0.97265 0.51325 0.51953 0.0
H335 H 0.02827 0.52424 0.68325 0.0
H336 H 0.05017 0.58014 0.66576 0.0
H337 H 0.0489 0.55666 0.51886 0.0
C338 C 0.99476 0.4351 0.55626 0.0
C339 C 0.98329 0.41528 0.59315 0.0
C340 C 0.98646 0.42689 0.63935 0.0
C341 C 1.00056 0.45805 0.64867 0.0
C342 C 0.01154 0.47707 0.61141 0.0
C343 C 0.00868 0.46608 0.56613 0.0
C344 C 0.02182 0.49146 0.53224 0.0
C345 C 0.05172 0.4777 0.50498 0.0
C346 C 0.99413 0.50337 0.49946 0.0
C347 C 0.03235 0.51856 0.56551 0.0
C348 C 0.02648 0.50975 0.61105 0.0
C349 C 0.0334 0.53126 0.64777 0.0
C350 C 0.04622 0.5628 0.63755 0.0
C351 C 0.05202 0.57234 0.59104 0.0
C352 C 0.04511 0.54981 0.55477 0.0
H353 H 0.56467 0.95341 0.5577 0.0
H354 H 0.62463 0.04281 0.55624 0.0
H355 H 0.57377 0.07703 0.56335 0.0
H356 H 0.50089 0.98455 0.48712 0.0
H357 H 0.46751 0.96361 0.51684 0.0
H358 H 0.50869 0.94613 0.51708 0.0
H359 H 0.50827 0.94544 0.60696 0.0
H360 H 0.46697 0.96283 0.60698 0.0
H361 H 0.4999 0.98328 0.63842 0.0
H362 H 0.51633 0.10148 0.56608 0.0
H363 H 0.45619 0.11433 0.56053 0.0
H364 H 0.43378 0.00909 0.55783 0.0
C365 C 0.56699 0.98015 0.56005 0.0
C366 C 0.59837 0.99562 0.55736 0.0
C367 C 0.60065 0.03066 0.55875 0.0
C368 C 0.57199 0.05022 0.56294 0.0
C369 C 0.54127 0.0343 0.56521 0.0
C370 C 0.53856 1.00006 0.56363 0.0
C371 C 0.5025 0.98925 0.56292 0.0
C372 C 0.49444 0.96974 0.51833 0.0
C373 C 0.49391 0.96901 0.60642 0.0
C374 C 0.48541 0.02272 0.56354 0.0
C375 C 0.50817 0.0484 0.56556 0.0
C376 C 0.49824 0.08159 0.56511 0.0
C377 C 0.46413 0.08868 0.56224 0.0
C378 C 0.44057 0.06268 0.55961 0.0
C379 C 0.4514 0.02938 0.56028 0.0
H380 H 0.30531 0.51621 0.08379 0.0
H381 H 0.261 0.53112 0.94862 0.0
H382 H 0.27571 0.47362 0.92625 0.0
H383 H 0.37359 0.46047 0.04609 0.0
H384 H 0.37013 0.43479 0.09692 0.0
H385 H 0.35961 0.47822 0.10016 0.0
H386 H 0.30135 0.46273 0.13193 0.0
H387 H 0.31148 0.41927 0.12812 0.0
H388 H 0.27514 0.43502 0.09898 0.0
H389 H 0.29259 0.41413 0.91992 0.0
H390 H 0.31088 0.35607 0.92971 0.0
H391 H 0.34151 0.37836 0.07075 0.0
C392 C 0.29972 0.50751 0.04908 0.0
C393 C 0.28289 0.52804 1.0173 0.0
C394 C 0.27458 0.51573 0.97284 0.0
C395 C 0.28271 0.48316 0.95998 0.0
C396 C 0.29874 0.46316 0.99231 0.0
C397 C 0.30725 0.4748 0.03592 0.0
C398 C 0.32238 0.44741 0.06504 0.0
C399 C 0.35858 0.45572 0.07779 0.0
C400 C 0.30132 0.44072 0.10858 0.0
C401 C 0.32064 0.41856 0.03119 0.0
C402 C 0.30722 0.42832 0.98932 0.0
C403 C 0.30322 0.40618 0.95251 0.0
C404 C 0.3136 0.37325 0.95843 0.0
C405 C 0.32744 0.36266 1.00101 0.0
C406 C 0.33071 0.38564 0.03794 0.0
H407 H 0.50592 0.23989 0.04975 0.0
H408 H 0.46064 0.3377 0.05355 0.0
H409 H 0.51672 0.36321 0.05148 0.0
H410 H 0.57493 0.25779 0.12216 0.0
H411 H 0.60377 0.23254 0.08968 0.0
H412 H 0.5602 0.22218 0.09017 0.0
H413 H 0.55893 0.22411 1.00041 0.0
H414 H 0.60256 0.23436 0.99958 0.0
H415 H 0.573 0.26096 0.97096 0.0
H416 H 0.57786 0.37766 0.0533 0.0
H417 H 0.63906 0.38055 0.05399 0.0
H418 H 0.64437 0.27301 0.0462 0.0
C419 C 0.50767 0.26672 0.04996 0.0
C420 C 0.4788 0.28684 0.05202 0.0
C421 C 0.48233 0.32181 0.05191 0.0
C422 C 0.51409 0.33648 0.05085 0.0
C423 C 0.54197 0.31582 0.04939 0.0
C424 C 0.53902 0.2817 0.04846 0.0
C425 C 0.57282 0.265 0.04684 0.0
C426 C 0.57823 0.24309 0.08977 0.0
C427 C 0.57707 0.24493 1.00176 0.0
C428 C 0.59542 0.29507 0.04758 0.0
C429 C 0.5771 0.32413 0.04923 0.0
C430 C 0.5924 0.35508 0.05164 0.0
C431 C 0.62725 0.35641 0.05219 0.0
C432 C 0.64663 0.32698 0.05001 0.0
C433 C 0.63033 0.29593 0.04753 0.0
H434 H 0.72652 0.64964 0.03897 0.0
H435 H 0.61954 0.63622 0.03052 0.0
H436 H 0.62702 0.57546 0.03277 0.0
H437 H 0.74976 0.57765 0.96924 0.0
H438 H 0.78513 0.56777 1.00498 0.0
H439 H 0.77149 0.61019 0.99982 0.0
H440 H 0.76619 0.61437 0.08924 0.0
H441 H 0.77975 0.57197 0.09464 0.0
H442 H 0.7407 0.58476 0.11974 0.0
H443 H 0.64605 0.51596 0.03778 0.0
H444 H 0.67526 0.46246 0.04802 0.0
H445 H 0.7695 0.51499 0.05548 0.0
C446 C 0.7047 0.63392 0.037 0.0
C447 C 0.67246 0.6477 0.03429 0.0
C448 C 0.64451 0.62624 0.03257 0.0
C449 C 0.64849 0.59167 0.0337 0.0
C450 C 0.68057 0.57888 0.0368 0.0
C451 C 0.7082 0.59933 0.03858 0.0
C452 C 0.73982 0.5793 0.04402 0.0
C453 C 0.76291 0.58401 1.00201 0.0
C454 C 0.75765 0.58813 0.08963 0.0
C455 C 0.72562 0.54448 0.04536 0.0
C456 C 0.69144 0.54471 0.04073 0.0
C457 C 0.67284 0.51546 0.04134 0.0
C458 C 0.68964 0.48519 0.04714 0.0
C459 C 0.72465 0.48446 0.05264 0.0
C460 C 0.74271 0.51461 0.05146 0.0
H461 H 0.38383 0.65846 0.05306 0.0
H462 H 0.33312 0.75316 0.04042 0.0
H463 H 0.38696 0.78222 0.04594 0.0
H464 H 0.4475 0.68528 0.13401 0.0
H465 H 0.47993 0.6608 0.10753 0.0
H466 H 0.4373 0.64714 0.10437 0.0
H467 H 0.44144 0.6444 1.0148 0.0
H468 H 0.48407 0.65806 1.01767 0.0
H469 H 0.45444 0.68069 0.98316 0.0
H470 H 0.44524 0.80113 0.05325 0.0
H471 H 0.50559 0.80939 0.05793 0.0
H472 H 0.52033 0.70254 0.06244 0.0
C473 C 0.38408 0.68532 0.05178 0.0
C474 C 0.35424 0.7036 0.04653 0.0
C475 C 0.35562 0.73867 0.04438 0.0
C476 C 0.38607 0.7554 0.04761 0.0
C477 C 0.41498 0.73671 0.05256 0.0
C478 C 0.4144 0.70247 0.05432 0.0
C479 C 0.44938 0.68848 0.05815 0.0
C480 C 0.45378 0.66929 0.10373 0.0
C481 C 0.45782 0.66662 1.01593 0.0
C482 C 0.46966 0.72027 0.05823 0.0
C483 C 0.44913 0.74771 0.05539 0.0
C484 C 0.46161 0.77987 0.05539 0.0
C485 C 0.49604 0.78424 0.05818 0.0
C486 C 0.51787 0.75661 0.06053 0.0
C487 C 0.50438 0.72415 0.06051 0.0
H488 H 0.75606 0.01096 0.58371 0.0
H489 H 0.82652 0.95438 0.66567 0.0
H490 H 0.8546 0.00639 0.68867 0.0
H491 H 0.81592 0.07149 0.54202 0.0
H492 H 0.78676 0.10544 0.54398 0.0
H493 H 0.77212 0.06375 0.53405 0.0
H494 H 0.73213 0.06938 0.60411 0.0
H495 H 0.74684 0.11099 0.61453 0.0
H496 H 0.74863 0.08057 0.66014 0.0
H497 H 0.87321 0.06422 0.70589 0.0
H498 H 0.8854 0.124 0.70991 0.0
H499 H 0.8048 0.14361 0.6136 0.0
C500 C 0.77748 0.0095 0.60636 0.0
C501 C 0.78903 0.97857 0.62307 0.0
C502 C 0.81729 0.97772 0.65233 0.0
C503 C 0.8333 0.00715 0.66577 0.0
C504 C 0.821 0.03719 0.64921 0.0
C505 C 0.79407 0.03861 0.6196 0.0
C506 C 0.78642 0.07415 0.60595 0.0
C507 C 0.79056 0.07898 0.55338 0.0
C508 C 0.75143 0.08437 0.62216 0.0
C509 C 0.81315 0.09251 0.63282 0.0
C510 C 0.83255 0.07066 0.65789 0.0
C511 C 0.85836 0.08156 0.68619 0.0
C512 C 0.86495 0.11566 0.6884 0.0
C513 C 0.84607 0.13856 0.66204 0.0
C514 C 0.81969 0.12674 0.63408 0.0
H515 H 0.01181 0.80992 0.5859 0.0
H516 H 0.01153 0.71973 0.66781 0.0
H517 H 0.95215 0.72768 0.68527 0.0
H518 H 0.95258 0.85675 0.65754 0.0
H519 H 0.9323 0.87546 0.60843 0.0
H520 H 0.9756 0.86421 0.60491 0.0
H521 H 0.96328 0.82855 0.53197 0.0
H522 H 0.91992 0.83951 0.53546 0.0
H523 H 0.93208 0.79645 0.53489 0.0
H524 H 0.89278 0.744 0.69259 0.0
H525 H 0.83629 0.76778 0.68821 0.0
H526 H 0.87353 0.84614 0.59901 0.0
C527 C 0.99928 0.79223 0.60808 0.0
C528 C 0.01629 0.76429 0.62567 0.0
C529 C 0.99895 0.74127 0.65387 0.0
C530 C 0.96523 0.74558 0.66411 0.0
C531 C 0.94896 0.77292 0.64561 0.0
C532 C 0.96525 0.79588 0.61814 0.0
C533 C 0.94122 0.82209 0.60089 0.0
C534 C 0.95101 0.85668 0.61904 0.0
C535 C 0.939 0.8216 0.54764 0.0
C536 C 0.90907 0.81013 0.62286 0.0
C537 C 0.9142 0.78186 0.64878 0.0
C538 C 0.88838 0.76617 0.67243 0.0
C539 C 0.85637 0.77983 0.6697 0.0
C540 C 0.85041 0.80872 0.64318 0.0
C541 C 0.8772 0.82392 0.61939 0.0
H542 H 0.19409 0.0212 0.59726 0.0
H543 H 0.3004 1.00318 0.60871 0.0
H544 H 0.29025 0.94332 0.61148 0.0
H545 H 0.16798 0.95427 0.67367 0.0
H546 H 0.13227 0.94298 0.63929 0.0
H547 H 0.14723 0.98516 0.63907 0.0
H548 H 0.15257 0.98289 0.54963 0.0
H549 H 0.13771 0.94068 0.54959 0.0
H550 H 0.17709 0.95054 0.52304 0.0
H551 H 0.27009 0.88589 0.61299 0.0
H552 H 0.24019 0.83268 0.61246 0.0
H553 H 0.14635 0.88518 0.5984 0.0
C554 C 0.21514 0.00461 0.60057 0.0
C555 C 0.24807 0.01713 0.60266 0.0
C556 C 0.27494 0.99447 0.60673 0.0
C557 C 0.2695 0.96027 0.60845 0.0
C558 C 0.237 0.94873 0.6059 0.0
C559 C 0.21018 0.96999 0.60196 0.0
C560 C 0.17787 0.95038 0.59907 0.0
C561 C 0.15499 0.9587 0.64023 0.0
C562 C 0.16028 0.95649 0.55256 0.0
C563 C 0.19096 0.915 0.60212 0.0
C564 C 0.22517 0.91487 0.60616 0.0
C565 C 0.24327 0.88557 0.60982 0.0
C566 C 0.226 0.85541 0.60949 0.0
C567 C 0.19091 0.85461 0.60536 0.0
C568 C 0.17319 0.88492 0.60145 0.0
H569 H 0.01304 0.2456 0.59697 0.0
H570 H 0.95227 0.16669 0.65477 0.0
H571 H 1.0025 0.13233 0.665 0.0
H572 H 0.06985 0.19176 0.53393 0.0
H573 H 0.10564 0.21753 0.54511 0.0
H574 H 0.06486 0.2359 0.54179 0.0
H575 H 0.07289 0.26164 0.62345 0.0
H576 H 0.11363 0.24326 0.62712 0.0
H577 H 0.08317 0.23507 0.67154 0.0
H578 H 0.05929 0.10734 0.67184 0.0
H579 H 0.11856 0.09195 0.67105 0.0
H580 H 0.14291 0.18623 0.60671 0.0
C581 C 0.01023 0.22104 0.61163 0.0
C582 C 0.9786 0.20892 0.62516 0.0
C583 C 0.97612 0.17657 0.64404 0.0
C584 C 1.00455 0.15686 0.6501 0.0
C585 C 0.0353 0.16969 0.63679 0.0
C586 C 0.03834 0.2009 0.61759 0.0
C587 C 0.07437 0.20865 0.60604 0.0
C588 C 0.07894 0.21375 0.5536 0.0
C589 C 0.08674 0.23895 0.6337 0.0
C590 C 0.09116 0.17701 0.62213 0.0
C591 C 0.06811 0.15496 0.63991 0.0
C592 C 0.07753 0.12433 0.65778 0.0
C593 C 0.11135 0.11587 0.65729 0.0
C594 C 0.13549 0.13783 0.63878 0.0
C595 C 0.12511 0.16883 0.62096 0.0
H596 H 0.31717 0.17855 0.21891 0.0
H597 H 0.32771 0.28462 0.23974 0.0
H598 H 0.30376 0.27913 0.31848 0.0
H599 H 0.24218 0.16472 0.28954 0.0
H600 H 0.25782 0.12626 0.31266 0.0
H601 H 0.27003 0.13943 0.25544 0.0
H602 H 0.33213 0.13523 0.27891 0.0
H603 H 0.32012 0.12196 0.33601 0.0
H604 H 0.34667 0.15767 0.32915 0.0
H605 H 0.28316 0.26086 0.39834 0.0
H606 H 0.27221 0.23137 0.47233 0.0
H607 H 0.28061 0.13707 0.40094 0.0
C608 C 0.31418 0.2007 0.23988 0.0
C609 C 0.32428 0.23205 0.22305 0.0
C610 C 0.31966 0.26042 0.25149 0.0
C611 C 0.3062 0.25748 0.2964 0.0
C612 C 0.29763 0.22596 0.31254 0.0
C613 C 0.30166 0.19805 0.28508 0.0
C614 C 0.29427 0.16663 0.31196 0.0
C615 C 0.26428 0.14818 0.29115 0.0
C616 C 0.32513 0.14406 0.31413 0.0
C617 C 0.28597 0.18108 0.35913 0.0
C618 C 0.28733 0.21538 0.35866 0.0
C619 C 0.28173 0.23404 0.39887 0.0
C620 C 0.27538 0.21718 0.44066 0.0
C621 C 0.27522 0.1821 0.44196 0.0
C622 C 0.2801 0.16396 0.40055 0.0
H623 H 0.8361 0.33244 0.23717 0.0
H624 H 0.73048 0.3477 0.25852 0.0
H625 H 0.73555 0.32547 0.33817 0.0
H626 H 0.84547 0.25753 0.30693 0.0
H627 H 0.88523 0.27016 0.32985 0.0
H628 H 0.87248 0.28376 0.27312 0.0
H629 H 0.88133 0.34502 0.29798 0.0
H630 H 0.89411 0.33161 0.35472 0.0
H631 H 0.86031 0.36067 0.34878 0.0
H632 H 0.75317 0.30433 0.41782 0.0
H633 H 0.782 0.28848 0.49048 0.0
H634 H 0.87647 0.29013 0.41819 0.0
C635 C 0.81401 0.33102 0.25858 0.0
C636 C 0.78285 0.34181 0.24157 0.0
C637 C 0.75451 0.33919 0.27054 0.0
C638 C 0.75721 0.32674 0.31594 0.0
C639 C 0.78848 0.31706 0.33203 0.0
C640 C 0.8164 0.31917 0.30417 0.0
C641 C 0.84748 0.30931 0.33055 0.0
C642 C 0.86361 0.27835 0.30881 0.0
C643 C 0.87226 0.33838 0.33316 0.0
C644 C 0.83282 0.30165 0.37779 0.0
C645 C 0.79869 0.30586 0.37787 0.0
C646 C 0.77986 0.30081 0.41797 0.0
C647 C 0.79637 0.29168 0.45903 0.0
C648 C 0.83138 0.28802 0.45988 0.0
C649 C 0.84966 0.29277 0.41851 0.0
H650 H 0.75063 0.85889 0.39503 0.0
H651 H 0.69202 0.79152 0.47838 0.0
H652 H 0.67509 0.76094 0.4074 0.0
H653 H 0.69463 0.86607 0.30414 0.0
H654 H 0.72521 0.86758 0.25847 0.0
H655 H 0.73597 0.8813 0.31595 0.0
H656 H 0.78528 0.83989 0.31742 0.0
H657 H 0.77469 0.82608 0.25976 0.0
H658 H 0.77774 0.79646 0.30627 0.0
H659 H 0.65859 0.74289 0.32671 0.0
H660 H 0.64466 0.73833 0.24336 0.0
H661 H 0.7173 0.81449 0.212 0.0
C662 C 0.73503 0.83709 0.39818 0.0
C663 C 0.72295 0.82703 0.44187 0.0
C664 C 0.70184 0.79908 0.44505 0.0
C665 C 0.69214 0.78166 0.40498 0.0
C666 C 0.70406 0.7924 0.3621 0.0
C667 C 0.72535 0.81928 0.3585 0.0
C668 C 0.73274 0.82719 0.30815 0.0
C669 C 0.72146 0.86263 0.29599 0.0
C670 C 0.76982 0.82209 0.29727 0.0
C671 C 0.71146 0.80132 0.28395 0.0
C672 C 0.69523 0.78137 0.31564 0.0
C673 C 0.67179 0.75783 0.30158 0.0
C674 C 0.66418 0.75522 0.25414 0.0
C675 C 0.68006 0.77587 0.22126 0.0
C676 C 0.70475 0.7984 0.23641 0.0
H677 H 0.12572 0.71504 0.39546 0.0
H678 H 0.21907 0.72062 0.46979 0.0
H679 H 0.2491 0.70152 0.39934 0.0
H680 H 0.14265 0.64297 0.33042 0.0
H681 H 0.12295 0.65684 0.27781 0.0
H682 H 0.10901 0.6725 0.33306 0.0
H683 H 0.11902 0.73288 0.30571 0.0
H684 H 0.13251 0.71744 0.25008 0.0
H685 H 0.15925 0.74444 0.28329 0.0
H686 H 0.26768 0.67585 0.32325 0.0
H687 H 0.2748 0.65263 0.24445 0.0
H688 H 0.17013 0.66938 0.21673 0.0
C689 C 0.15257 0.71292 0.39635 0.0
C690 C 0.17033 0.71957 0.43758 0.0
C691 C 0.20529 0.71607 0.43814 0.0
C692 C 0.22242 0.70505 0.39844 0.0
C693 C 0.20418 0.69813 0.35837 0.0
C694 C 0.17009 0.70259 0.35674 0.0
C695 C 0.15639 0.69343 0.30936 0.0
C696 C 0.13127 0.66473 0.3129 0.0
C697 C 0.14088 0.72386 0.28571 0.0
C698 C 0.18796 0.6825 0.28484 0.0
C699 C 0.21518 0.68508 0.31386 0.0
C700 C 0.24667 0.67453 0.29989 0.0
C701 C 0.25051 0.66155 0.25492 0.0
C702 C 0.22324 0.65981 0.2239 0.0
C703 C 0.19154 0.67036 0.23942 0.0
H704 H 0.68507 0.78231 0.91876 0.0
H705 H 0.59645 0.84279 0.93482 0.0
H706 H 0.60436 0.86523 0.85646 0.0
H707 H 0.73231 0.8447 0.85894 0.0
H708 H 0.75313 0.8162 0.82032 0.0
H709 H 0.73954 0.80242 0.87659 0.0
H710 H 0.70582 0.75497 0.83816 0.0
H711 H 0.71932 0.76864 0.78174 0.0
H712 H 0.67555 0.76476 0.7942 0.0
H713 H 0.62137 0.88214 0.77801 0.0
H714 H 0.64879 0.89563 0.70442 0.0
H715 H 0.72877 0.8271 0.73732 0.0
C716 C 0.66722 0.79996 0.90538 0.0
C717 C 0.64005 0.81075 0.9329 0.0
C718 C 0.61751 0.83431 0.91454 0.0
C719 C 0.62167 0.8471 0.86991 0.0
C720 C 0.64876 0.83642 0.84383 0.0
C721 C 0.67138 0.81362 0.86074 0.0
C722 C 0.69938 0.80821 0.82592 0.0
C723 C 0.73309 0.8185 0.84669 0.0
C724 C 0.70005 0.77199 0.80901 0.0
C725 C 0.68889 0.83162 0.78724 0.0
C726 C 0.65937 0.84723 0.79836 0.0
C727 C 0.64452 0.87008 0.76882 0.0
C728 C 0.66036 0.87757 0.7269 0.0
C729 C 0.69106 0.86257 0.71469 0.0
C730 C 0.70534 0.83904 0.74539 0.0
H731 H 0.12936 0.67163 0.73593 0.0
H732 H 0.18775 0.76138 0.71825 0.0
H733 H 0.21415 0.75199 0.79449 0.0
H734 H 0.11413 0.68296 0.85825 0.0
H735 H 0.11666 0.63931 0.87138 0.0
H736 H 0.10298 0.65256 0.81492 0.0
H737 H 0.14911 0.61709 0.77631 0.0
H738 H 0.16284 0.60359 0.83261 0.0
H739 H 0.19183 0.62305 0.79347 0.0
H740 H 0.2355 0.73179 0.87166 0.0
H741 H 0.24858 0.70366 0.9454 0.0
H742 H 0.1739 0.62883 0.91516 0.0
C743 C 0.14784 0.68922 0.74795 0.0
C744 C 0.15665 0.71716 0.72089 0.0
C745 C 0.18061 0.73981 0.73827 0.0
C746 C 0.19575 0.73467 0.78154 0.0
C747 C 0.18639 0.70699 0.80738 0.0
C748 C 0.16281 0.68477 0.7914 0.0
C749 C 0.15664 0.65742 0.82644 0.0
C750 C 0.12045 0.65812 0.84377 0.0
C751 C 0.16565 0.62327 0.80598 0.0
C752 C 0.18066 0.66754 0.86449 0.0
C753 C 0.19772 0.69609 0.85265 0.0
C754 C 0.2221 0.70958 0.88144 0.0
C755 C 0.22938 0.69339 0.92326 0.0
C756 C 0.21209 0.6642 0.93632 0.0
C757 C 0.1872 0.65137 0.90655 0.0
H758 H 0.27705 0.18422 0.74028 0.0
H759 H 0.34519 0.10156 0.72204 0.0
H760 H 0.36944 0.11273 0.79851 0.0
H761 H 0.33651 0.23805 0.79752 0.0
H762 H 0.30696 0.25587 0.83752 0.0
H763 H 0.29323 0.24101 0.78172 0.0
H764 H 0.25022 0.20279 0.82177 0.0
H765 H 0.26382 0.21757 0.8777 0.0
H766 H 0.26404 0.17372 0.86505 0.0
H767 H 0.38694 0.13174 0.87541 0.0
H768 H 0.3988 0.15943 0.94929 0.0
H769 H 0.32157 0.23206 0.92108 0.0
C770 C 0.2969 0.16843 0.75268 0.0
C771 C 0.30929 0.14203 0.72487 0.0
C772 C 0.33552 0.12213 0.74221 0.0
C773 C 0.34939 0.12814 0.78585 0.0
C774 C 0.33705 0.15439 0.81211 0.0
C775 C 0.31158 0.17444 0.79642 0.0
C776 C 0.30421 0.20173 0.83176 0.0
C777 C 0.31061 0.23621 0.81087 0.0
C778 C 0.26844 0.19876 0.85016 0.0
C779 C 0.32953 0.19368 0.86942 0.0
C780 C 0.34789 0.16605 0.85713 0.0
C781 C 0.3727 0.15337 0.88556 0.0
C782 C 0.37913 0.16929 0.92776 0.0
C783 C 0.36103 0.19788 0.94157 0.0
C784 C 0.33586 0.21027 0.91171 0.0
H785 H 0.82504 0.28029 0.75656 0.0
H786 H 0.91818 0.33419 0.74381 0.0
H787 H 0.90895 0.35968 0.82025 0.0
H788 H 0.77975 0.34698 0.81242 0.0
H789 H 0.75648 0.32018 0.85045 0.0
H790 H 0.77052 0.30495 0.79498 0.0
H791 H 0.80052 0.25619 0.83553 0.0
H792 H 0.78663 0.27132 0.89115 0.0
H793 H 0.83036 0.26484 0.88063 0.0
H794 H 0.8907 0.37929 0.89769 0.0
H795 H 0.86287 0.39457 0.97047 0.0
H796 H 0.77987 0.33011 0.93499 0.0
C797 C 0.84351 0.29736 0.76999 0.0
C798 C 0.87236 0.30524 0.74381 0.0
C799 C 0.89575 0.32792 0.76266 0.0
C800 C 0.89084 0.34245 0.80633 0.0
C801 C 0.86225 0.33433 0.83108 0.0
C802 C 0.8388 0.31253 0.81368 0.0
C803 C 0.80977 0.30914 0.84734 0.0
C804 C 0.7772 0.32103 0.82495 0.0
C805 C 0.80665 0.27323 0.86469 0.0
C806 C 0.8207 0.33243 0.88617 0.0
C807 C 0.85121 0.3464 0.87597 0.0
C808 C 0.86676 0.36858 0.90606 0.0
C809 C 0.85065 0.37707 0.94753 0.0
C810 C 0.81901 0.36369 0.95887 0.0
C811 C 0.80399 0.34085 0.9276 0.0
loop_
_geom_bond_atom_site_label_1
_geom_bond_atom_site_label_2
_geom_bond_distance
_geom_bond_site_symmetry_2
_ccdc_geom_bond_type
Co0 O3 1.970 1_554 S
Co0 N17 1.989 . S
Co0 O25 1.967 . S
Co0 O32 1.920 . S
Co1 O4 1.966 1_554 S
Co1 N10 2.022 . S
Co1 N18 1.993 . S
Co1 O26 1.941 . S
C2 O3 1.258 . S
C2 O4 1.263 . S
O3 Co0 1.970 1_556 S
O3 C2 1.258 . S
O4 Co1 1.966 1_556 S
O4 C2 1.263 . S
C5 O6 1.235 . S
C5 O32 1.289 . S
O6 C5 1.235 . S
C7 C9 1.400 . S
C7 N10 1.351 . S
C7 C12 1.501 1_554 S
C8 C9 1.387 . S
C8 N11 1.341 . S
C9 C7 1.400 . S
C9 C8 1.387 . S
N10 Co1 2.022 . S
N10 C7 1.351 . S
N10 N11 1.365 . S
N11 C8 1.341 . S
N11 N10 1.365 . S
N11 H31 0.862 . S
C12 C7 1.501 1_556 S
C12 H13 0.961 . S
C12 H14 0.966 . S
C12 H15 0.960 . S
H13 C12 0.961 . S
H14 C12 0.966 . S
H15 C12 0.960 . S
C16 N17 1.342 . S
C16 C20 1.401 . S
C16 C21 1.499 . S
N17 Co0 1.989 . S
N17 C16 1.342 . S
N17 N18 1.388 . S
N18 Co1 1.993 . S
N18 N17 1.388 . S
N18 C19 1.346 . S
C19 N18 1.346 . S
C19 C20 1.396 . S
C19 C29 1.510 . S
C20 C16 1.401 . S
C20 C19 1.396 . S
C21 C16 1.499 . S
C21 H22 0.959 . S
C21 H23 0.960 . S
C21 H24 0.961 . S
H22 C21 0.959 . S
H23 C21 0.960 . S
H24 C21 0.961 . S
O25 Co0 1.967 . S
O25 C33 1.258 . S
O26 Co1 1.941 . S
O26 C33 1.266 . S
H27 C29 0.959 . S
H28 C29 0.961 . S
C29 C19 1.510 . S
C29 H27 0.959 . S
C29 H28 0.961 . S
C29 H30 0.960 . S
H30 C29 0.960 . S
H31 N11 0.862 . S
O32 Co0 1.920 . S
O32 C5 1.289 . S
C33 O25 1.258 . S
C33 O26 1.266 . S
Co34 O37 1.970 1_554 S
Co34 N51 1.989 . S
Co34 O59 1.967 . S
Co34 O66 1.920 . S
Co35 O38 1.966 1_554 S
Co35 N44 2.022 . S
Co35 N52 1.993 . S
Co35 O60 1.941 . S
C36 O37 1.258 . S
C36 O38 1.263 . S
O37 Co34 1.970 1_556 S
O37 C36 1.258 . S
O38 Co35 1.966 1_556 S
O38 C36 1.263 . S
C39 O40 1.235 . S
C39 O66 1.289 . S
O40 C39 1.235 . S
C41 C43 1.400 . S
C41 N44 1.351 . S
C41 C46 1.501 1_554 S
C42 C43 1.387 . S
C42 N45 1.341 . S
C43 C41 1.400 . S
C43 C42 1.387 . S
N44 Co35 2.022 . S
N44 C41 1.351 . S
N44 N45 1.365 . S
N45 C42 1.341 . S
N45 N44 1.365 . S
N45 H65 0.862 . S
C46 C41 1.501 1_556 S
C46 H47 0.961 . S
C46 H48 0.966 . S
C46 H49 0.960 . S
H47 C46 0.961 . S
H48 C46 0.966 . S
H49 C46 0.960 . S
C50 N51 1.342 . S
C50 C54 1.401 . S
C50 C55 1.499 . S
N51 Co34 1.989 . S
N51 C50 1.342 . S
N51 N52 1.388 . S
N52 Co35 1.993 . S
N52 N51 1.388 . S
N52 C53 1.346 . S
C53 N52 1.346 . S
C53 C54 1.396 . S
C53 C63 1.510 . S
C54 C50 1.401 . S
C54 C53 1.396 . S
C55 C50 1.499 . S
C55 H56 0.959 . S
C55 H57 0.960 . S
C55 H58 0.961 . S
H56 C55 0.959 . S
H57 C55 0.960 . S
H58 C55 0.961 . S
O59 Co34 1.967 . S
O59 C67 1.258 . S
O60 Co35 1.941 . S
O60 C67 1.266 . S
H61 C63 0.959 . S
H62 C63 0.961 . S
C63 C53 1.510 . S
C63 H61 0.959 . S
C63 H62 0.961 . S
C63 H64 0.960 . S
H64 C63 0.960 . S
H65 N45 0.862 . S
O66 Co34 1.920 . S
O66 C39 1.289 . S
C67 O59 1.258 . S
C67 O60 1.266 . S
Co68 O71 1.970 1_554 S
Co68 N85 1.989 . S
Co68 O93 1.967 . S
Co68 O100 1.920 . S
Co69 O72 1.966 1_554 S
Co69 N78 2.022 . S
Co69 N86 1.993 . S
Co69 O94 1.941 . S
C70 O71 1.258 . S
C70 O72 1.263 . S
O71 Co68 1.970 1_556 S
O71 C70 1.258 . S
O72 Co69 1.966 1_556 S
O72 C70 1.263 . S
C73 O74 1.235 . S
C73 O100 1.289 . S
O74 C73 1.235 . S
C75 C77 1.400 . S
C75 N78 1.351 . S
C75 C80 1.501 1_554 S
C76 C77 1.387 . S
C76 N79 1.341 . S
C77 C75 1.400 . S
C77 C76 1.387 . S
N78 Co69 2.022 . S
N78 C75 1.351 . S
N78 N79 1.365 . S
N79 C76 1.341 . S
N79 N78 1.365 . S
N79 H99 0.862 . S
C80 C75 1.501 1_556 S
C80 H81 0.961 . S
C80 H82 0.966 . S
C80 H83 0.960 . S
H81 C80 0.961 . S
H82 C80 0.966 . S
H83 C80 0.960 . S
C84 N85 1.342 . S
C84 C88 1.401 . S
C84 C89 1.499 . S
N85 Co68 1.989 . S
N85 C84 1.342 . S
N85 N86 1.388 . S
N86 Co69 1.993 . S
N86 N85 1.388 . S
N86 C87 1.346 . S
C87 N86 1.346 . S
C87 C88 1.396 . S
C87 C97 1.510 . S
C88 C84 1.401 . S
C88 C87 1.396 . S
C89 C84 1.499 . S
C89 H90 0.959 . S
C89 H91 0.960 . S
C89 H92 0.961 . S
H90 C89 0.959 . S
H91 C89 0.960 . S
H92 C89 0.961 . S
O93 Co68 1.967 . S
O93 C101 1.258 . S
O94 Co69 1.941 . S
O94 C101 1.266 . S
H95 C97 0.959 . S
H96 C97 0.961 . S
C97 C87 1.510 . S
C97 H95 0.959 . S
C97 H96 0.961 . S
C97 H98 0.960 . S
H98 C97 0.960 . S
H99 N79 0.862 . S
O100 Co68 1.920 . S
O100 C73 1.289 . S
C101 O93 1.258 . S
C101 O94 1.266 . S
Co102 O105 1.970 1_554 S
Co102 N119 1.989 . S
Co102 O127 1.967 . S
Co102 O134 1.920 . S
Co103 O106 1.966 1_554 S
Co103 N112 2.022 . S
Co103 N120 1.993 . S
Co103 O128 1.941 . S
C104 O105 1.258 . S
C104 O106 1.263 . S
O105 Co102 1.970 1_556 S
O105 C104 1.258 . S
O106 Co103 1.966 1_556 S
O106 C104 1.263 . S
C107 O108 1.235 . S
C107 O134 1.289 . S
O108 C107 1.235 . S
C109 C111 1.400 . S
C109 N112 1.351 . S
C109 C114 1.501 1_554 S
C110 C111 1.387 . S
C110 N113 1.341 . S
C111 C109 1.400 . S
C111 C110 1.387 . S
N112 Co103 2.022 . S
N112 C109 1.351 . S
N112 N113 1.365 . S
N113 C110 1.341 . S
N113 N112 1.365 . S
N113 H133 0.862 . S
C114 C109 1.501 1_556 S
C114 H115 0.961 . S
C114 H116 0.966 . S
C114 H117 0.960 . S
H115 C114 0.961 . S
H116 C114 0.966 . S
H117 C114 0.960 . S
C118 N119 1.342 . S
C118 C122 1.401 . S
C118 C123 1.499 . S
N119 Co102 1.989 . S
N119 C118 1.342 . S
N119 N120 1.388 . S
N120 Co103 1.993 . S
N120 N119 1.388 . S
N120 C121 1.346 . S
C121 N120 1.346 . S
C121 C122 1.396 . S
C121 C131 1.510 . S
C122 C118 1.401 . S
C122 C121 1.396 . S
C123 C118 1.499 . S
C123 H124 0.959 . S
C123 H125 0.960 . S
C123 H126 0.961 . S
H124 C123 0.959 . S
H125 C123 0.960 . S
H126 C123 0.961 . S
O127 Co102 1.967 . S
O127 C135 1.258 . S
O128 Co103 1.941 . S
O128 C135 1.266 . S
H129 C131 0.959 . S
H130 C131 0.961 . S
C131 C121 1.510 . S
C131 H129 0.959 . S
C131 H130 0.961 . S
C131 H132 0.960 . S
H132 C131 0.960 . S
H133 N113 0.862 . S
O134 Co102 1.920 . S
O134 C107 1.289 . S
C135 O127 1.258 . S
C135 O128 1.266 . S
Co136 O139 1.970 . S
Co136 N153 1.989 . S
Co136 O161 1.967 . S
Co136 O168 1.920 . S
Co137 O140 1.966 . S
Co137 N146 2.022 . S
Co137 N154 1.993 . S
Co137 O162 1.941 . S
C138 O139 1.258 . S
C138 O140 1.263 . S
O139 Co136 1.970 . S
O139 C138 1.258 . S
O140 Co137 1.966 . S
O140 C138 1.263 . S
C141 O142 1.235 . S
C141 O168 1.289 . S
O142 C141 1.235 . S
C143 C145 1.400 . S
C143 N146 1.351 . S
C143 C148 1.501 . S
C144 C145 1.387 . S
C144 N147 1.341 . S
C145 C143 1.400 . S
C145 C144 1.387 . S
N146 Co137 2.022 . S
N146 C143 1.351 . S
N146 N147 1.365 . S
N147 C144 1.341 . S
N147 N146 1.365 . S
N147 H167 0.862 . S
C148 C143 1.501 . S
C148 H149 0.961 . S
C148 H150 0.961 . S
C148 H151 0.960 . S
H149 C148 0.961 . S
H150 C148 0.961 . S
H151 C148 0.960 . S
C152 N153 1.342 . S
C152 C156 1.401 . S
C152 C157 1.499 . S
N153 Co136 1.989 . S
N153 C152 1.342 . S
N153 N154 1.388 . S
N154 Co137 1.993 . S
N154 N153 1.388 . S
N154 C155 1.346 . S
C155 N154 1.346 . S
C155 C156 1.396 . S
C155 C165 1.510 . S
C156 C152 1.401 . S
C156 C155 1.396 . S
C157 C152 1.499 . S
C157 H158 0.959 . S
C157 H159 0.960 . S
C157 H160 0.961 . S
H158 C157 0.959 . S
H159 C157 0.960 . S
H160 C157 0.961 . S
O161 Co136 1.967 . S
O161 C169 1.258 . S
O162 Co137 1.941 . S
O162 C169 1.266 . S
H163 C165 0.959 . S
H164 C165 0.961 . S
C165 C155 1.510 . S
C165 H163 0.959 . S
C165 H164 0.961 . S
C165 H166 0.960 . S
H166 C165 0.960 . S
H167 N147 0.862 . S
O168 Co136 1.920 . S
O168 C141 1.289 . S
C169 O161 1.258 . S
C169 O162 1.266 . S
Co170 O173 1.970 . S
Co170 N187 1.989 . S
Co170 O195 1.967 . S
Co170 O202 1.920 . S
Co171 O174 1.966 . S
Co171 N180 2.022 . S
Co171 N188 1.993 . S
Co171 O196 1.941 . S
C172 O173 1.258 . S
C172 O174 1.263 . S
O173 Co170 1.970 . S
O173 C172 1.258 . S
O174 Co171 1.966 . S
O174 C172 1.263 . S
C175 O176 1.235 . S
C175 O202 1.289 . S
O176 C175 1.235 . S
C177 C179 1.400 . S
C177 N180 1.351 . S
C177 C182 1.501 . S
C178 C179 1.387 . S
C178 N181 1.341 . S
C179 C177 1.400 . S
C179 C178 1.387 . S
N180 Co171 2.022 . S
N180 C177 1.351 . S
N180 N181 1.365 . S
N181 C178 1.341 . S
N181 N180 1.365 . S
N181 H201 0.862 . S
C182 C177 1.501 . S
C182 H183 0.961 . S
C182 H184 0.961 . S
C182 H185 0.960 . S
H183 C182 0.961 . S
H184 C182 0.961 . S
H185 C182 0.960 . S
C186 N187 1.342 . S
C186 C190 1.401 . S
C186 C191 1.499 . S
N187 Co170 1.989 . S
N187 C186 1.342 . S
N187 N188 1.388 . S
N188 Co171 1.993 . S
N188 N187 1.388 . S
N188 C189 1.346 . S
C189 N188 1.346 . S
C189 C190 1.396 . S
C189 C199 1.510 . S
C190 C186 1.401 . S
C190 C189 1.396 . S
C191 C186 1.499 . S
C191 H192 0.959 . S
C191 H193 0.960 . S
C191 H194 0.961 . S
H192 C191 0.959 . S
H193 C191 0.960 . S
H194 C191 0.961 . S
O195 Co170 1.967 . S
O195 C203 1.258 . S
O196 Co171 1.941 . S
O196 C203 1.266 . S
H197 C199 0.959 . S
H198 C199 0.961 . S
C199 C189 1.510 . S
C199 H197 0.959 . S
C199 H198 0.961 . S
C199 H200 0.960 . S
H200 C199 0.960 . S
H201 N181 0.862 . S
O202 Co170 1.920 . S
O202 C175 1.289 . S
C203 O195 1.258 . S
C203 O196 1.266 . S
Co204 O207 1.970 . S
Co204 N221 1.989 . S
Co204 O229 1.967 . S
Co204 O236 1.920 . S
Co205 O208 1.966 . S
Co205 N214 2.022 . S
Co205 N222 1.993 . S
Co205 O230 1.941 . S
C206 O207 1.258 . S
C206 O208 1.263 . S
O207 Co204 1.970 . S
O207 C206 1.258 . S
O208 Co205 1.966 . S
O208 C206 1.263 . S
C209 O210 1.235 . S
C209 O236 1.289 . S
O210 C209 1.235 . S
C211 C213 1.400 . S
C211 N214 1.351 . S
C211 C216 1.501 . S
C212 C213 1.387 . S
C212 N215 1.341 . S
C213 C211 1.400 . S
C213 C212 1.387 . S
N214 Co205 2.022 . S
N214 C211 1.351 . S
N214 N215 1.365 . S
N215 C212 1.341 . S
N215 N214 1.365 . S
N215 H235 0.862 . S
C216 C211 1.501 . S
C216 H217 0.961 . S
C216 H218 0.961 . S
C216 H219 0.960 . S
H217 C216 0.961 . S
H218 C216 0.961 . S
H219 C216 0.960 . S
C220 N221 1.342 . S
C220 C224 1.401 . S
C220 C225 1.499 . S
N221 Co204 1.989 . S
N221 C220 1.342 . S
N221 N222 1.388 . S
N222 Co205 1.993 . S
N222 N221 1.388 . S
N222 C223 1.346 . S
C223 N222 1.346 . S
C223 C224 1.396 . S
C223 C233 1.510 . S
C224 C220 1.401 . S
C224 C223 1.396 . S
C225 C220 1.499 . S
C225 H226 0.959 . S
C225 H227 0.960 . S
C225 H228 0.961 . S
H226 C225 0.959 . S
H227 C225 0.960 . S
H228 C225 0.961 . S
O229 Co204 1.967 . S
O229 C237 1.258 . S
O230 Co205 1.941 . S
O230 C237 1.266 . S
H231 C233 0.959 . S
H232 C233 0.961 . S
C233 C223 1.510 . S
C233 H231 0.959 . S
C233 H232 0.961 . S
C233 H234 0.960 . S
H234 C233 0.960 . S
H235 N215 0.862 . S
O236 Co204 1.920 . S
O236 C209 1.289 . S
C237 O229 1.258 . S
C237 O230 1.266 . S
Co238 O241 1.970 . S
Co238 N255 1.989 . S
Co238 O263 1.967 . S
Co238 O270 1.920 . S
Co239 O242 1.966 . S
Co239 N248 2.022 . S
Co239 N256 1.993 . S
Co239 O264 1.941 . S
C240 O241 1.258 . S
C240 O242 1.263 . S
O241 Co238 1.970 . S
O241 C240 1.258 . S
O242 Co239 1.966 . S
O242 C240 1.263 . S
C243 O244 1.235 . S
C243 O270 1.289 . S
O244 C243 1.235 . S
C245 C247 1.400 . S
C245 N248 1.351 . S
C245 C250 1.501 . S
C246 C247 1.387 . S
C246 N249 1.341 . S
C247 C245 1.400 . S
C247 C246 1.387 . S
N248 Co239 2.022 . S
N248 C245 1.351 . S
N248 N249 1.365 . S
N249 C246 1.341 . S
N249 N248 1.365 . S
N249 H269 0.862 . S
C250 C245 1.501 . S
C250 H251 0.961 . S
C250 H252 0.961 . S
C250 H253 0.960 . S
H251 C250 0.961 . S
H252 C250 0.961 . S
H253 C250 0.960 . S
C254 N255 1.342 . S
C254 C258 1.401 . S
C254 C259 1.499 . S
N255 Co238 1.989 . S
N255 C254 1.342 . S
N255 N256 1.388 . S
N256 Co239 1.993 . S
N256 N255 1.388 . S
N256 C257 1.346 . S
C257 N256 1.346 . S
C257 C258 1.396 . S
C257 C267 1.510 . S
C258 C254 1.401 . S
C258 C257 1.396 . S
C259 C254 1.499 . S
C259 H260 0.959 . S
C259 H261 0.960 . S
C259 H262 0.961 . S
H260 C259 0.959 . S
H261 C259 0.960 . S
H262 C259 0.961 . S
O263 Co238 1.967 . S
O263 C271 1.258 . S
O264 Co239 1.941 . S
O264 C271 1.266 . S
H265 C267 0.959 . S
H266 C267 0.961 . S
C267 C257 1.510 . S
C267 H265 0.959 . S
C267 H266 0.961 . S
C267 H268 0.960 . S
H268 C267 0.960 . S
H269 N249 0.862 . S
O270 Co238 1.920 . S
O270 C243 1.289 . S
C271 O263 1.258 . S
C271 O264 1.266 . S
H272 C284 0.930 . S
H273 C286 0.930 1_556 S
H274 C287 0.930 . S
H275 C291 0.959 . S
H276 C291 0.959 . S
H277 C291 0.961 . S
H278 C292 0.960 1_565 S
H279 C292 0.961 . S
H280 C292 0.959 . S
H281 C295 0.929 . S
H282 C296 0.931 1_556 S
H283 C298 0.930 . S
C284 H272 0.930 . S
C284 C285 1.399 . S
C284 C289 1.399 . S
C285 C284 1.399 . S
C285 C286 1.376 . S
C286 H273 0.930 1_554 S
C286 C285 1.376 . S
C286 C287 1.388 1_554 S
C287 H274 0.930 . S
C287 C286 1.388 1_556 S
C287 C288 1.390 1_556 S
C288 C287 1.390 1_554 S
C288 C289 1.394 . S
C288 C294 1.465 1_565 S
C289 C284 1.399 . S
C289 C288 1.394 . S
C289 C290 1.516 . S
C290 C289 1.516 . S
C290 C291 1.502 . S
C290 C292 1.561 1_565 S
C290 C293 1.526 1_565 S
C291 H275 0.959 . S
C291 H276 0.959 . S
C291 H277 0.961 . S
C291 C290 1.502 . S
C292 H278 0.960 1_545 S
C292 H279 0.961 . S
C292 H280 0.959 . S
C292 C290 1.561 1_545 S
C293 C290 1.526 1_545 S
C293 C294 1.396 . S
C293 C298 1.390 . S
C294 C288 1.465 1_545 S
C294 C293 1.396 . S
C294 C295 1.399 1_554 S
C295 H281 0.929 . S
C295 C294 1.399 1_556 S
C295 C296 1.385 1_556 S
C296 H282 0.931 1_554 S
C296 C295 1.385 1_554 S
C296 C297 1.389 . S
C297 C296 1.389 . S
C297 C298 1.387 . S
C298 H283 0.930 . S
C298 C293 1.390 . S
C298 C297 1.387 . S
H299 C311 0.930 1_556 S
H300 C313 0.930 . S
H301 C314 0.930 . S
H302 C318 0.959 . S
H303 C318 0.959 . S
H304 C318 0.961 . S
H305 C319 0.960 . S
H306 C319 0.961 . S
H307 C319 0.959 . S
H308 C322 0.929 . S
H309 C323 0.931 . S
H310 C325 0.930 1_556 S
C311 H299 0.930 1_554 S
C311 C312 1.399 . S
C311 C316 1.399 . S
C312 C311 1.399 . S
C312 C313 1.376 . S
C313 H300 0.930 . S
C313 C312 1.376 . S
C313 C314 1.388 . S
C314 H301 0.930 . S
C314 C313 1.388 . S
C314 C315 1.390 . S
C315 C314 1.390 . S
C315 C316 1.394 . S
C315 C321 1.465 1_655 S
C316 C311 1.399 . S
C316 C315 1.394 . S
C316 C317 1.505 1_654 S
C317 C316 1.505 1_456 S
C317 C318 1.511 . S
C317 C319 1.552 1_455 S
C317 C320 1.536 1_556 S
C318 H302 0.959 . S
C318 H303 0.959 . S
C318 H304 0.961 . S
C318 C317 1.511 . S
C319 H305 0.960 . S
C319 H306 0.961 . S
C319 H307 0.959 . S
C319 C317 1.552 1_655 S
C320 C317 1.536 1_554 S
C320 C321 1.396 . S
C320 C325 1.390 . S
C321 C315 1.465 1_455 S
C321 C320 1.396 . S
C321 C322 1.399 . S
C322 H308 0.929 . S
C322 C321 1.399 . S
C322 C323 1.385 . S
C323 H309 0.931 . S
C323 C322 1.385 . S
C323 C324 1.389 . S
C324 C323 1.389 . S
C324 C325 1.387 . S
C325 H310 0.930 1_554 S
C325 C320 1.390 . S
C325 C324 1.387 . S
H326 C338 0.930 . S
H327 C340 0.930 . S
H328 C341 0.930 . S
H329 C345 0.959 . S
H330 C345 0.959 . S
H331 C345 0.961 . S
H332 C346 0.960 . S
H333 C346 0.961 . S
H334 C346 0.959 . S
H335 C349 0.929 . S
H336 C350 0.931 . S
H337 C352 0.930 . S
C338 H326 0.930 . S
C338 C339 1.399 . S
C338 C343 1.399 . S
C339 C338 1.399 . S
C339 C340 1.376 . S
C340 H327 0.930 . S
C340 C339 1.376 . S
C340 C341 1.388 . S
C341 H328 0.930 . S
C341 C340 1.388 . S
C341 C342 1.390 . S
C342 C341 1.390 . S
C342 C343 1.394 . S
C342 C348 1.465 1_655 S
C343 C338 1.399 . S
C343 C342 1.394 . S
C343 C344 1.516 1_655 S
C344 C343 1.516 1_455 S
C344 C345 1.502 . S
C344 C346 1.561 1_455 S
C344 C347 1.526 . S
C345 H329 0.959 . S
C345 H330 0.959 . S
C345 H331 0.961 . S
C345 C344 1.502 . S
C346 H332 0.960 . S
C346 H333 0.961 . S
C346 H334 0.959 . S
C346 C344 1.561 1_655 S
C347 C344 1.526 . S
C347 C348 1.396 . S
C347 C352 1.390 . S
C348 C342 1.465 1_455 S
C348 C347 1.396 . S
C348 C349 1.399 . S
C349 H335 0.929 . S
C349 C348 1.399 . S
C349 C350 1.385 . S
C350 H336 0.931 . S
C350 C349 1.385 . S
C350 C351 1.389 . S
C351 C350 1.389 . S
C351 C352 1.387 . S
C352 H337 0.930 . S
C352 C347 1.390 . S
C352 C351 1.387 . S
H353 C365 0.930 . S
H354 C367 0.930 . S
H355 C368 0.930 . S
H356 C372 0.959 . S
H357 C372 0.959 . S
H358 C372 0.961 . S
H359 C373 0.960 . S
H360 C373 0.961 . S
H361 C373 0.959 . S
H362 C376 0.929 . S
H363 C377 0.931 . S
H364 C379 0.930 . S
C365 H353 0.930 . S
C365 C366 1.399 . S
C365 C370 1.399 . S
C366 C365 1.399 . S
C366 C367 1.376 . S
C367 H354 0.930 . S
C367 C366 1.376 . S
C367 C368 1.388 . S
C368 H355 0.930 . S
C368 C367 1.388 . S
C368 C369 1.390 . S
C369 C368 1.390 . S
C369 C370 1.394 . S
C369 C375 1.465 1_565 S
C370 C365 1.399 . S
C370 C369 1.394 . S
C370 C371 1.516 . S
C371 C370 1.516 . S
C371 C372 1.502 . S
C371 C373 1.561 1_565 S
C371 C374 1.526 1_565 S
C372 H356 0.959 . S
C372 H357 0.959 . S
C372 H358 0.961 . S
C372 C371 1.502 . S
C373 H359 0.960 . S
C373 H360 0.961 . S
C373 H361 0.959 . S
C373 C371 1.561 1_545 S
C374 C371 1.526 1_545 S
C374 C375 1.396 . S
C374 C379 1.390 . S
C375 C369 1.465 1_545 S
C375 C374 1.396 . S
C375 C376 1.399 . S
C376 H362 0.929 . S
C376 C375 1.399 . S
C376 C377 1.385 . S
C377 H363 0.931 . S
C377 C376 1.385 . S
C377 C378 1.389 . S
C378 C377 1.389 . S
C378 C379 1.387 . S
C379 H364 0.930 . S
C379 C374 1.390 . S
C379 C378 1.387 . S
H380 C392 0.930 . S
H381 C394 0.930 . S
H382 C395 0.930 . S
H383 C399 0.959 . S
H384 C399 0.959 . S
H385 C399 0.961 . S
H386 C400 0.960 . S
H387 C400 0.961 . S
H388 C400 0.959 . S
H389 C403 0.929 . S
H390 C404 0.931 1_556 S
H391 C406 0.930 . S
C392 H380 0.930 . S
C392 C393 1.399 . S
C392 C397 1.399 . S
C393 C392 1.399 . S
C393 C394 1.376 1_554 S
C394 H381 0.930 . S
C394 C393 1.376 1_556 S
C394 C395 1.388 . S
C395 H382 0.930 . S
C395 C394 1.388 . S
C395 C396 1.390 1_556 S
C396 C395 1.390 1_554 S
C396 C397 1.394 . S
C396 C402 1.465 . S
C397 C392 1.399 . S
C397 C396 1.394 . S
C397 C398 1.516 . S
C398 C397 1.516 . S
C398 C399 1.502 . S
C398 C400 1.561 . S
C398 C401 1.526 . S
C399 H383 0.959 . S
C399 H384 0.959 . S
C399 H385 0.961 . S
C399 C398 1.502 . S
C400 H386 0.960 . S
C400 H387 0.961 . S
C400 H388 0.959 . S
C400 C398 1.561 . S
C401 C398 1.526 . S
C401 C402 1.396 . S
C401 C406 1.390 . S
C402 C396 1.465 . S
C402 C401 1.396 . S
C402 C403 1.399 1_554 S
C403 H389 0.929 . S
C403 C402 1.399 1_556 S
C403 C404 1.385 1_556 S
C404 H390 0.931 1_554 S
C404 C403 1.385 1_554 S
C404 C405 1.389 . S
C405 C404 1.389 . S
C405 C406 1.387 . S
C406 H391 0.930 . S
C406 C401 1.390 . S
C406 C405 1.387 . S
H407 C419 0.930 1_556 S
H408 C421 0.930 . S
H409 C422 0.930 . S
H410 C426 0.959 . S
H411 C426 0.959 . S
H412 C426 0.961 . S
H413 C427 0.960 . S
H414 C427 0.961 . S
H415 C427 0.959 . S
H416 C430 0.929 . S
H417 C431 0.931 . S
H418 C433 0.930 1_556 S
C419 H407 0.930 1_554 S
C419 C420 1.399 . S
C419 C424 1.399 . S
C420 C419 1.399 . S
C420 C421 1.376 . S
C421 H408 0.930 . S
C421 C420 1.376 . S
C421 C422 1.388 . S
C422 H409 0.930 . S
C422 C421 1.388 . S
C422 C423 1.390 . S
C423 C422 1.390 . S
C423 C424 1.394 . S
C423 C429 1.465 . S
C424 C419 1.399 . S
C424 C423 1.394 . S
C424 C425 1.516 1_554 S
C425 C424 1.516 1_556 S
C425 C426 1.502 . S
C425 C427 1.561 . S
C425 C428 1.526 1_556 S
C426 H410 0.959 . S
C426 H411 0.959 . S
C426 H412 0.961 . S
C426 C425 1.502 . S
C427 H413 0.960 . S
C427 H414 0.961 . S
C427 H415 0.959 . S
C427 C425 1.561 . S
C428 C425 1.526 1_554 S
C428 C429 1.396 . S
C428 C433 1.390 . S
C429 C423 1.465 . S
C429 C428 1.396 . S
C429 C430 1.399 . S
C430 H416 0.929 . S
C430 C429 1.399 . S
C430 C431 1.385 . S
C431 H417 0.931 . S
C431 C430 1.385 . S
C431 C432 1.389 . S
C432 C431 1.389 . S
C432 C433 1.387 . S
C433 H418 0.930 1_554 S
C433 C428 1.390 . S
C433 C432 1.387 . S
H434 C446 0.930 1_556 S
H435 C448 0.930 . S
H436 C449 0.930 . S
H437 C453 0.959 . S
H438 C453 0.959 . S
H439 C453 0.961 . S
H440 C454 0.960 . S
H441 C454 0.961 . S
H442 C454 0.959 . S
H443 C457 0.929 . S
H444 C458 0.931 . S
H445 C460 0.930 1_556 S
C446 H434 0.930 1_554 S
C446 C447 1.399 . S
C446 C451 1.399 . S
C447 C446 1.399 . S
C447 C448 1.376 . S
C448 H435 0.930 . S
C448 C447 1.376 . S
C448 C449 1.388 . S
C449 H436 0.930 . S
C449 C448 1.388 . S
C449 C450 1.390 . S
C450 C449 1.390 . S
C450 C451 1.394 . S
C450 C456 1.465 . S
C451 C446 1.399 . S
C451 C450 1.394 . S
C451 C452 1.516 1_554 S
C452 C451 1.516 1_556 S
C452 C453 1.502 . S
C452 C454 1.561 . S
C452 C455 1.526 1_556 S
C453 H437 0.959 . S
C453 H438 0.959 . S
C453 H439 0.961 . S
C453 C452 1.502 . S
C454 H440 0.960 . S
C454 H441 0.961 . S
C454 H442 0.959 . S
C454 C452 1.561 . S
C455 C452 1.526 1_554 S
C455 C456 1.396 . S
C455 C460 1.390 . S
C456 C450 1.465 . S
C456 C455 1.396 . S
C456 C457 1.399 . S
C457 H443 0.929 . S
C457 C456 1.399 . S
C457 C458 1.385 . S
C458 H444 0.931 . S
C458 C457 1.385 . S
C458 C459 1.389 . S
C459 C458 1.389 . S
C459 C460 1.387 . S
C460 H445 0.930 1_554 S
C460 C455 1.390 . S
C460 C459 1.387 . S
H461 C473 0.930 1_556 S
H462 C475 0.930 . S
H463 C476 0.930 . S
H464 C480 0.959 1_554 S
H465 C480 0.959 . S
H466 C480 0.961 . S
H467 C481 0.960 . S
H468 C481 0.961 . S
H469 C481 0.959 . S
H470 C484 0.929 . S
H471 C485 0.931 . S
H472 C487 0.930 1_556 S
C473 H461 0.930 1_554 S
C473 C474 1.399 . S
C473 C478 1.399 . S
C474 C473 1.399 . S
C474 C475 1.376 . S
C475 H462 0.930 . S
C475 C474 1.376 . S
C475 C476 1.388 . S
C476 H463 0.930 . S
C476 C475 1.388 . S
C476 C477 1.390 . S
C477 C476 1.390 . S
C477 C478 1.394 . S
C477 C483 1.465 . S
C478 C473 1.399 . S
C478 C477 1.394 . S
C478 C479 1.516 1_554 S
C479 C478 1.516 1_556 S
C479 C480 1.502 . S
C479 C481 1.561 . S
C479 C482 1.526 1_556 S
C480 H464 0.959 1_556 S
C480 H465 0.959 . S
C480 H466 0.961 . S
C480 C479 1.502 . S
C481 H467 0.960 . S
C481 H468 0.961 . S
C481 H469 0.959 . S
C481 C479 1.561 . S
C482 C479 1.526 1_554 S
C482 C483 1.396 . S
C482 C487 1.390 . S
C483 C477 1.465 . S
C483 C482 1.396 . S
C483 C484 1.399 . S
C484 H470 0.929 . S
C484 C483 1.399 . S
C484 C485 1.385 . S
C485 H471 0.931 . S
C485 C484 1.385 . S
C485 C486 1.389 . S
C486 C485 1.389 . S
C486 C487 1.387 . S
C487 H472 0.930 1_554 S
C487 C482 1.390 . S
C487 C486 1.387 . S
H488 C500 0.929 . S
H489 C502 0.930 . S
H490 C503 0.930 . S
H491 C507 0.959 . S
H492 C507 0.959 . S
H493 C507 0.961 . S
H494 C508 0.960 . S
H495 C508 0.961 . S
H496 C508 0.959 . S
H497 C511 0.929 . S
H498 C512 0.931 . S
H499 C514 0.930 . S
C500 H488 0.929 . S
C500 C501 1.399 1_545 S
C500 C505 1.399 . S
C501 C500 1.399 1_565 S
C501 C502 1.376 1_565 S
C502 H489 0.930 . S
C502 C501 1.376 1_545 S
C502 C503 1.388 . S
C503 H490 0.930 . S
C503 C502 1.388 . S
C503 C504 1.390 . S
C504 C503 1.390 . S
C504 C505 1.394 . S
C504 C510 1.465 . S
C505 C500 1.399 . S
C505 C504 1.394 . S
C505 C506 1.516 . S
C506 C505 1.516 . S
C506 C507 1.502 . S
C506 C508 1.561 . S
C506 C509 1.526 . S
C507 H491 0.959 . S
C507 H492 0.959 . S
C507 H493 0.961 . S
C507 C506 1.502 . S
C508 H494 0.960 . S
C508 H495 0.961 . S
C508 H496 0.959 . S
C508 C506 1.561 . S
C509 C506 1.526 . S
C509 C510 1.396 . S
C509 C514 1.390 . S
C510 C504 1.465 . S
C510 C509 1.396 . S
C510 C511 1.399 . S
C511 H497 0.929 . S
C511 C510 1.399 . S
C511 C512 1.385 . S
C512 H498 0.931 . S
C512 C511 1.385 . S
C512 C513 1.389 . S
C513 C512 1.389 . S
C513 C514 1.387 . S
C514 H499 0.930 . S
C514 C509 1.390 . S
C514 C513 1.387 . S
H515 C527 0.930 . S
H516 C529 0.930 1_455 S
H517 C530 0.930 . S
H518 C534 0.959 . S
H519 C534 0.959 . S
H520 C534 0.961 . S
H521 C535 0.960 . S
H522 C535 0.961 . S
H523 C535 0.959 . S
H524 C538 0.929 . S
H525 C539 0.931 . S
H526 C541 0.930 . S
C527 H515 0.930 . S
C527 C528 1.399 1_655 S
C527 C532 1.399 . S
C528 C527 1.399 1_455 S
C528 C529 1.376 1_455 S
C529 H516 0.930 1_655 S
C529 C528 1.376 1_655 S
C529 C530 1.388 . S
C530 H517 0.930 . S
C530 C529 1.388 . S
C530 C531 1.390 . S
C531 C530 1.390 . S
C531 C532 1.394 . S
C531 C537 1.465 . S
C532 C527 1.399 . S
C532 C531 1.394 . S
C532 C533 1.516 . S
C533 C532 1.516 . S
C533 C534 1.502 . S
C533 C535 1.561 . S
C533 C536 1.526 . S
C534 H518 0.959 . S
C534 H519 0.959 . S
C534 H520 0.961 . S
C534 C533 1.502 . S
C535 H521 0.960 . S
C535 H522 0.961 . S
C535 H523 0.959 . S
C535 C533 1.561 . S
C536 C533 1.526 . S
C536 C537 1.396 . S
C536 C541 1.390 . S
C537 C531 1.465 . S
C537 C536 1.396 . S
C537 C538 1.399 . S
C538 H524 0.929 . S
C538 C537 1.399 . S
C538 C539 1.385 . S
C539 H525 0.931 . S
C539 C538 1.385 . S
C539 C540 1.389 . S
C540 C539 1.389 . S
C540 C541 1.387 . S
C541 H526 0.930 . S
C541 C536 1.390 . S
C541 C540 1.387 . S
H542 C554 0.930 1_545 S
H543 C556 0.930 . S
H544 C557 0.930 . S
H545 C561 0.959 . S
H546 C561 0.959 . S
H547 C561 0.961 . S
H548 C562 0.960 . S
H549 C562 0.961 . S
H550 C562 0.959 . S
H551 C565 0.929 . S
H552 C566 0.931 . S
H553 C568 0.930 . S
C554 H542 0.930 1_565 S
C554 C555 1.399 1_565 S
C554 C559 1.399 . S
C555 C554 1.399 1_545 S
C555 C556 1.376 1_545 S
C556 H543 0.930 . S
C556 C555 1.376 1_565 S
C556 C557 1.388 . S
C557 H544 0.930 . S
C557 C556 1.388 . S
C557 C558 1.390 . S
C558 C557 1.390 . S
C558 C559 1.394 . S
C558 C564 1.465 . S
C559 C554 1.399 . S
C559 C558 1.394 . S
C559 C560 1.516 . S
C560 C559 1.516 . S
C560 C561 1.502 . S
C560 C562 1.561 . S
C560 C563 1.526 . S
C561 H545 0.959 . S
C561 H546 0.959 . S
C561 H547 0.961 . S
C561 C560 1.502 . S
C562 H548 0.960 . S
C562 H549 0.961 . S
C562 H550 0.959 . S
C562 C560 1.561 . S
C563 C560 1.526 . S
C563 C564 1.396 . S
C563 C568 1.390 . S
C564 C558 1.465 . S
C564 C563 1.396 . S
C564 C565 1.399 . S
C565 H551 0.929 . S
C565 C564 1.399 . S
C565 C566 1.385 . S
C566 H552 0.931 . S
C566 C565 1.385 . S
C566 C567 1.389 . S
C567 C566 1.389 . S
C567 C568 1.387 . S
C568 H553 0.930 . S
C568 C563 1.390 . S
C568 C567 1.387 . S
H569 C581 0.930 . S
H570 C583 0.930 1_655 S
H571 C584 0.930 . S
H572 C588 0.959 . S
H573 C588 0.959 . S
H574 C588 0.961 . S
H575 C589 0.960 . S
H576 C589 0.961 . S
H577 C589 0.959 . S
H578 C592 0.929 . S
H579 C593 0.931 . S
H580 C595 0.930 . S
C581 H569 0.930 . S
C581 C582 1.399 1_455 S
C581 C586 1.399 . S
C582 C581 1.399 1_655 S
C582 C583 1.376 1_655 S
C583 H570 0.930 1_455 S
C583 C582 1.376 1_455 S
C583 C584 1.388 . S
C584 H571 0.930 . S
C584 C583 1.388 . S
C584 C585 1.390 . S
C585 C584 1.390 . S
C585 C586 1.394 . S
C585 C591 1.465 . S
C586 C581 1.399 . S
C586 C585 1.394 . S
C586 C587 1.516 . S
C587 C586 1.516 . S
C587 C588 1.502 . S
C587 C589 1.561 . S
C587 C590 1.526 . S
C588 H572 0.959 . S
C588 H573 0.959 . S
C588 H574 0.961 . S
C588 C587 1.502 . S
C589 H575 0.960 . S
C589 H576 0.961 . S
C589 H577 0.959 . S
C589 C587 1.561 . S
C590 C587 1.526 . S
C590 C591 1.396 . S
C590 C595 1.390 . S
C591 C585 1.465 . S
C591 C590 1.396 . S
C591 C592 1.399 . S
C592 H578 0.929 . S
C592 C591 1.399 . S
C592 C593 1.385 . S
C593 H579 0.931 . S
C593 C592 1.385 . S
C593 C594 1.389 . S
C594 C593 1.389 . S
C594 C595 1.387 . S
C595 H580 0.930 . S
C595 C590 1.390 . S
C595 C594 1.387 . S
H596 C608 0.930 . S
H597 C610 0.930 . S
H598 C611 0.930 . S
H599 C615 0.959 . S
H600 C615 0.959 . S
H601 C615 0.961 . S
H602 C616 0.960 . S
H603 C616 0.961 . S
H604 C616 0.959 . S
H605 C619 0.929 . S
H606 C620 0.931 . S
H607 C622 0.930 . S
C608 H596 0.930 . S
C608 C609 1.399 . S
C608 C613 1.399 . S
C609 C608 1.399 . S
C609 C610 1.376 . S
C610 H597 0.930 . S
C610 C609 1.376 . S
C610 C611 1.388 . S
C611 H598 0.930 . S
C611 C610 1.388 . S
C611 C612 1.390 . S
C612 C611 1.390 . S
C612 C613 1.394 . S
C612 C618 1.465 . S
C613 C608 1.399 . S
C613 C612 1.394 . S
C613 C614 1.516 . S
C614 C613 1.516 . S
C614 C615 1.502 . S
C614 C616 1.561 . S
C614 C617 1.526 . S
C615 H599 0.959 . S
C615 H600 0.959 . S
C615 H601 0.961 . S
C615 C614 1.502 . S
C616 H602 0.960 . S
C616 H603 0.961 . S
C616 H604 0.959 . S
C616 C614 1.561 . S
C617 C614 1.526 . S
C617 C618 1.396 . S
C617 C622 1.390 . S
C618 C612 1.465 . S
C618 C617 1.396 . S
C618 C619 1.399 . S
C619 H605 0.929 . S
C619 C618 1.399 . S
C619 C620 1.385 . S
C620 H606 0.931 . S
C620 C619 1.385 . S
C620 C621 1.389 . S
C621 C620 1.389 . S
C621 C622 1.387 . S
C622 H607 0.930 . S
C622 C617 1.390 . S
C622 C621 1.387 . S
H623 C635 0.930 . S
H624 C637 0.930 . S
H625 C638 0.930 . S
H626 C642 0.959 . S
H627 C642 0.959 . S
H628 C642 0.961 . S
H629 C643 0.960 . S
H630 C643 0.961 . S
H631 C643 0.959 . S
H632 C646 0.929 . S
H633 C647 0.931 . S
H634 C649 0.930 . S
C635 H623 0.930 . S
C635 C636 1.399 . S
C635 C640 1.399 . S
C636 C635 1.399 . S
C636 C637 1.376 . S
C637 H624 0.930 . S
C637 C636 1.376 . S
C637 C638 1.388 . S
C638 H625 0.930 . S
C638 C637 1.388 . S
C638 C639 1.390 . S
C639 C638 1.390 . S
C639 C640 1.394 . S
C639 C645 1.465 . S
C640 C635 1.399 . S
C640 C639 1.394 . S
C640 C641 1.516 . S
C641 C640 1.516 . S
C641 C642 1.502 . S
C641 C643 1.561 . S
C641 C644 1.526 . S
C642 H626 0.959 . S
C642 H627 0.959 . S
C642 H628 0.961 . S
C642 C641 1.502 . S
C643 H629 0.960 . S
C643 H630 0.961 . S
C643 H631 0.959 . S
C643 C641 1.561 . S
C644 C641 1.526 . S
C644 C645 1.396 . S
C644 C649 1.390 . S
C645 C639 1.465 . S
C645 C644 1.396 . S
C645 C646 1.399 . S
C646 H632 0.929 . S
C646 C645 1.399 . S
C646 C647 1.385 . S
C647 H633 0.931 . S
C647 C646 1.385 . S
C647 C648 1.389 . S
C648 C647 1.389 . S
C648 C649 1.387 . S
C649 H634 0.930 . S
C649 C644 1.390 . S
C649 C648 1.387 . S
H650 C662 0.930 . S
H651 C664 0.930 . S
H652 C665 0.930 . S
H653 C669 0.959 . S
H654 C669 0.959 . S
H655 C669 0.961 . S
H656 C670 0.960 . S
H657 C670 0.961 . S
H658 C670 0.959 . S
H659 C673 0.929 . S
H660 C674 0.931 . S
H661 C676 0.930 . S
C662 H650 0.930 . S
C662 C663 1.399 . S
C662 C667 1.399 . S
C663 C662 1.399 . S
C663 C664 1.376 . S
C664 H651 0.930 . S
C664 C663 1.376 . S
C664 C665 1.388 . S
C665 H652 0.930 . S
C665 C664 1.388 . S
C665 C666 1.390 . S
C666 C665 1.390 . S
C666 C667 1.394 . S
C666 C672 1.465 . S
C667 C662 1.399 . S
C667 C666 1.394 . S
C667 C668 1.516 . S
C668 C667 1.516 . S
C668 C669 1.502 . S
C668 C670 1.561 . S
C668 C671 1.526 . S
C669 H653 0.959 . S
C669 H654 0.959 . S
C669 H655 0.961 . S
C669 C668 1.502 . S
C670 H656 0.960 . S
C670 H657 0.961 . S
C670 H658 0.959 . S
C670 C668 1.561 . S
C671 C668 1.526 . S
C671 C672 1.396 . S
C671 C676 1.390 . S
C672 C666 1.465 . S
C672 C671 1.396 . S
C672 C673 1.399 . S
C673 H659 0.929 . S
C673 C672 1.399 . S
C673 C674 1.385 . S
C674 H660 0.931 . S
C674 C673 1.385 . S
C674 C675 1.389 . S
C675 C674 1.389 . S
C675 C676 1.387 . S
C676 H661 0.930 . S
C676 C671 1.390 . S
C676 C675 1.387 . S
H677 C689 0.930 . S
H678 C691 0.930 . S
H679 C692 0.930 . S
H680 C696 0.959 . S
H681 C696 0.959 . S
H682 C696 0.961 . S
H683 C697 0.960 . S
H684 C697 0.961 . S
H685 C697 0.959 . S
H686 C700 0.929 . S
H687 C701 0.931 . S
H688 C703 0.930 . S
C689 H677 0.930 . S
C689 C690 1.399 . S
C689 C694 1.399 . S
C690 C689 1.399 . S
C690 C691 1.376 . S
C691 H678 0.930 . S
C691 C690 1.376 . S
C691 C692 1.388 . S
C692 H679 0.930 . S
C692 C691 1.388 . S
C692 C693 1.390 . S
C693 C692 1.390 . S
C693 C694 1.394 . S
C693 C699 1.465 . S
C694 C689 1.399 . S
C694 C693 1.394 . S
C694 C695 1.516 . S
C695 C694 1.516 . S
C695 C696 1.502 . S
C695 C697 1.561 . S
C695 C698 1.526 . S
C696 H680 0.959 . S
C696 H681 0.959 . S
C696 H682 0.961 . S
C696 C695 1.502 . S
C697 H683 0.960 . S
C697 H684 0.961 . S
C697 H685 0.959 . S
C697 C695 1.561 . S
C698 C695 1.526 . S
C698 C699 1.396 . S
C698 C703 1.390 . S
C699 C693 1.465 . S
C699 C698 1.396 . S
C699 C700 1.399 . S
C700 H686 0.929 . S
C700 C699 1.399 . S
C700 C701 1.385 . S
C701 H687 0.931 . S
C701 C700 1.385 . S
C701 C702 1.389 . S
C702 C701 1.389 . S
C702 C703 1.387 . S
C703 H688 0.930 . S
C703 C698 1.390 . S
C703 C702 1.387 . S
H704 C716 0.930 . S
H705 C718 0.930 . S
H706 C719 0.930 . S
H707 C723 0.959 . S
H708 C723 0.959 . S
H709 C723 0.961 . S
H710 C724 0.960 . S
H711 C724 0.961 . S
H712 C724 0.959 . S
H713 C727 0.929 . S
H714 C728 0.931 . S
H715 C730 0.930 . S
C716 H704 0.930 . S
C716 C717 1.399 . S
C716 C721 1.399 . S
C717 C716 1.399 . S
C717 C718 1.376 . S
C718 H705 0.930 . S
C718 C717 1.376 . S
C718 C719 1.388 . S
C719 H706 0.930 . S
C719 C718 1.388 . S
C719 C720 1.390 . S
C720 C719 1.390 . S
C720 C721 1.394 . S
C720 C726 1.465 . S
C721 C716 1.399 . S
C721 C720 1.394 . S
C721 C722 1.516 . S
C722 C721 1.516 . S
C722 C723 1.502 . S
C722 C724 1.561 . S
C722 C725 1.526 . S
C723 H707 0.959 . S
C723 H708 0.959 . S
C723 H709 0.961 . S
C723 C722 1.502 . S
C724 H710 0.960 . S
C724 H711 0.961 . S
C724 H712 0.959 . S
C724 C722 1.561 . S
C725 C722 1.526 . S
C725 C726 1.396 . S
C725 C730 1.390 . S
C726 C720 1.465 . S
C726 C725 1.396 . S
C726 C727 1.399 . S
C727 H713 0.929 . S
C727 C726 1.399 . S
C727 C728 1.385 . S
C728 H714 0.931 . S
C728 C727 1.385 . S
C728 C729 1.389 . S
C729 C728 1.389 . S
C729 C730 1.387 . S
C730 H715 0.930 . S
C730 C725 1.390 . S
C730 C729 1.387 . S
H731 C743 0.930 . S
H732 C745 0.930 . S
H733 C746 0.930 . S
H734 C750 0.959 . S
H735 C750 0.959 . S
H736 C750 0.961 . S
H737 C751 0.960 . S
H738 C751 0.961 . S
H739 C751 0.959 . S
H740 C754 0.929 . S
H741 C755 0.931 . S
H742 C757 0.930 . S
C743 H731 0.930 . S
C743 C744 1.399 . S
C743 C748 1.399 . S
C744 C743 1.399 . S
C744 C745 1.376 . S
C745 H732 0.930 . S
C745 C744 1.376 . S
C745 C746 1.388 . S
C746 H733 0.930 . S
C746 C745 1.388 . S
C746 C747 1.390 . S
C747 C746 1.390 . S
C747 C748 1.394 . S
C747 C753 1.465 . S
C748 C743 1.399 . S
C748 C747 1.394 . S
C748 C749 1.516 . S
C749 C748 1.516 . S
C749 C750 1.502 . S
C749 C751 1.561 . S
C749 C752 1.526 . S
C750 H734 0.959 . S
C750 H735 0.959 . S
C750 H736 0.961 . S
C750 C749 1.502 . S
C751 H737 0.960 . S
C751 H738 0.961 . S
C751 H739 0.959 . S
C751 C749 1.561 . S
C752 C749 1.526 . S
C752 C753 1.396 . S
C752 C757 1.390 . S
C753 C747 1.465 . S
C753 C752 1.396 . S
C753 C754 1.399 . S
C754 H740 0.929 . S
C754 C753 1.399 . S
C754 C755 1.385 . S
C755 H741 0.931 . S
C755 C754 1.385 . S
C755 C756 1.389 . S
C756 C755 1.389 . S
C756 C757 1.387 . S
C757 H742 0.930 . S
C757 C752 1.390 . S
C757 C756 1.387 . S
H758 C770 0.930 . S
H759 C772 0.930 . S
H760 C773 0.930 . S
H761 C777 0.959 . S
H762 C777 0.959 . S
H763 C777 0.961 . S
H764 C778 0.960 . S
H765 C778 0.961 . S
H766 C778 0.959 . S
H767 C781 0.929 . S
H768 C782 0.931 . S
H769 C784 0.930 . S
C770 H758 0.930 . S
C770 C771 1.399 . S
C770 C775 1.399 . S
C771 C770 1.399 . S
C771 C772 1.376 . S
C772 H759 0.930 . S
C772 C771 1.376 . S
C772 C773 1.388 . S
C773 H760 0.930 . S
C773 C772 1.388 . S
C773 C774 1.390 . S
C774 C773 1.390 . S
C774 C775 1.394 . S
C774 C780 1.465 . S
C775 C770 1.399 . S
C775 C774 1.394 . S
C775 C776 1.516 . S
C776 C775 1.516 . S
C776 C777 1.502 . S
C776 C778 1.561 . S
C776 C779 1.526 . S
C777 H761 0.959 . S
C777 H762 0.959 . S
C777 H763 0.961 . S
C777 C776 1.502 . S
C778 H764 0.960 . S
C778 H765 0.961 . S
C778 H766 0.959 . S
C778 C776 1.561 . S
C779 C776 1.526 . S
C779 C780 1.396 . S
C779 C784 1.390 . S
C780 C774 1.465 . S
C780 C779 1.396 . S
C780 C781 1.399 . S
C781 H767 0.929 . S
C781 C780 1.399 . S
C781 C782 1.385 . S
C782 H768 0.931 . S
C782 C781 1.385 . S
C782 C783 1.389 . S
C783 C782 1.389 . S
C783 C784 1.387 . S
C784 H769 0.930 . S
C784 C779 1.390 . S
C784 C783 1.387 . S
H785 C797 0.930 . S
H786 C799 0.930 . S
H787 C800 0.930 . S
H788 C804 0.959 . S
H789 C804 0.959 . S
H790 C804 0.961 . S
H791 C805 0.960 . S
H792 C805 0.961 . S
H793 C805 0.959 . S
H794 C808 0.929 . S
H795 C809 0.931 . S
H796 C811 0.930 . S
C797 H785 0.930 . S
C797 C798 1.399 . S
C797 C802 1.399 . S
C798 C797 1.399 . S
C798 C799 1.376 . S
C799 H786 0.930 . S
C799 C798 1.376 . S
C799 C800 1.388 . S
C800 H787 0.930 . S
C800 C799 1.388 . S
C800 C801 1.390 . S
C801 C800 1.390 . S
C801 C802 1.394 . S
C801 C807 1.465 . S
C802 C797 1.399 . S
C802 C801 1.394 . S
C802 C803 1.516 . S
C803 C802 1.516 . S
C803 C804 1.502 . S
C803 C805 1.561 . S
C803 C806 1.526 . S
C804 H788 0.959 . S
C804 H789 0.959 . S
C804 H790 0.961 . S
C804 C803 1.502 . S
C805 H791 0.960 . S
C805 H792 0.961 . S
C805 H793 0.959 . S
C805 C803 1.561 . S
C806 C803 1.526 . S
C806 C807 1.396 . S
C806 C811 1.390 . S
C807 C801 1.465 . S
C807 C806 1.396 . S
C807 C808 1.399 . S
C808 H794 0.929 . S
C808 C807 1.399 . S
C808 C809 1.385 . S
C809 H795 0.931 . S
C809 C808 1.385 . S
C809 C810 1.389 . S
C810 C809 1.389 . S
C810 C811 1.387 . S
C811 H796 0.930 . S
C811 C806 1.390 . S
C811 C810 1.387 . S
C285 C77 1.037 . S
C297 C9 0.944 . S
C312 C43 0.899 . S
C324 C111 0.967 . S
C339 C145 1.035 . S
C351 C213 0.948 . S
C366 C179 0.891 . S
C378 C247 0.979 . S
C393 C135 1.642 . S
C405 C5 1.668 . S
C420 C33 1.659 . S
C432 C39 1.680 . S
C447 C73 1.679 . S
C459 C67 1.638 . S
C474 C107 1.676 . S
C486 C101 1.631 . S
C501 C203 1.642 . S
C513 C141 1.668 . S
C528 C237 1.647 . S
C540 C175 1.667 . S
C555 C271 1.636 . S
C567 C209 1.670 . S
C582 C169 1.655 . S
C594 C243 1.667 . S
C609 C20 1.734 . S
C621 C258 1.719 . S
C636 C54 1.730 . S
C648 C156 1.720 . S
C663 C190 1.729 . S
C675 C88 1.736 . S
C690 C224 1.719 . S
C702 C122 1.738 . S
C717 C70 1.912 . S
C729 C172 1.919 . S
C744 C206 1.924 . S
C756 C104 1.902 . S
C771 C240 1.929 . S
C783 C2 1.901 . S
C798 C138 1.907 . S
C810 C36 1.924 . S
