# Generated by pormake.
# Topology uol, (4)-cn, num edge types: 1
# Building blocks:
#     Node 0, Type 0, BuildingBlock: QUQFOY_clean_sbu_1, # of connection points: 4
#     Node 1, Type 0, BuildingBlock: QUQFOY_clean_sbu_1, # of connection points: 4
#     Node 2, Type 0, BuildingBlock: QUQFOY_clean_sbu_1, # of connection points: 4
#     Node 3, Type 0, BuildingBlock: QUQFOY_clean_sbu_1, # of connection points: 4
#     Node 4, Type 0, BuildingBlock: QUQFOY_clean_sbu_1, # of connection points: 4
#     Node 5, Type 0, BuildingBlock: QUQFOY_clean_sbu_1, # of connection points: 4
#     Node 6, Type 0, BuildingBlock: QUQFOY_clean_sbu_1, # of connection points: 4
#     Node 7, Type 0, BuildingBlock: QUQFOY_clean_sbu_1, # of connection points: 4
#     Node 8, Type 0, BuildingBlock: QUQFOY_clean_sbu_1, # of connection points: 4
#     Node 9, Type 0, BuildingBlock: QUQFOY_clean_sbu_1, # of connection points: 4
#     Node 10, Type 0, BuildingBlock: QUQFOY_clean_sbu_1, # of connection points: 4
#     Node 11, Type 0, BuildingBlock: QUQFOY_clean_sbu_1, # of connection points: 4
#     Edge 12, Type (0, 0), BuildingBlock: MIFKUJ_clean_linker_0, # of connection points: 2
#     Edge 13, Type (0, 0), BuildingBlock: MIFKUJ_clean_linker_0, # of connection points: 2
#     Edge 14, Type (0, 0), BuildingBlock: MIFKUJ_clean_linker_0, # of connection points: 2
#     Edge 15, Type (0, 0), BuildingBlock: MIFKUJ_clean_linker_0, # of connection points: 2
#     Edge 16, Type (0, 0), BuildingBlock: MIFKUJ_clean_linker_0, # of connection points: 2
#     Edge 17, Type (0, 0), BuildingBlock: MIFKUJ_clean_linker_0, # of connection points: 2
#     Edge 18, Type (0, 0), BuildingBlock: MIFKUJ_clean_linker_0, # of connection points: 2
#     Edge 19, Type (0, 0), BuildingBlock: MIFKUJ_clean_linker_0, # of connection points: 2
#     Edge 20, Type (0, 0), BuildingBlock: MIFKUJ_clean_linker_0, # of connection points: 2
#     Edge 21, Type (0, 0), BuildingBlock: MIFKUJ_clean_linker_0, # of connection points: 2
#     Edge 22, Type (0, 0), BuildingBlock: MIFKUJ_clean_linker_0, # of connection points: 2
#     Edge 23, Type (0, 0), BuildingBlock: MIFKUJ_clean_linker_0, # of connection points: 2
#     Edge 24, Type (0, 0), BuildingBlock: MIFKUJ_clean_linker_0, # of connection points: 2
#     Edge 25, Type (0, 0), BuildingBlock: MIFKUJ_clean_linker_0, # of connection points: 2
#     Edge 26, Type (0, 0), BuildingBlock: MIFKUJ_clean_linker_0, # of connection points: 2
#     Edge 27, Type (0, 0), BuildingBlock: MIFKUJ_clean_linker_0, # of connection points: 2
#     Edge 28, Type (0, 0), BuildingBlock: MIFKUJ_clean_linker_0, # of connection points: 2
#     Edge 29, Type (0, 0), BuildingBlock: MIFKUJ_clean_linker_0, # of connection points: 2
#     Edge 30, Type (0, 0), BuildingBlock: MIFKUJ_clean_linker_0, # of connection points: 2
#     Edge 31, Type (0, 0), BuildingBlock: MIFKUJ_clean_linker_0, # of connection points: 2
#     Edge 32, Type (0, 0), BuildingBlock: MIFKUJ_clean_linker_0, # of connection points: 2
#     Edge 33, Type (0, 0), BuildingBlock: MIFKUJ_clean_linker_0, # of connection points: 2
#     Edge 34, Type (0, 0), BuildingBlock: MIFKUJ_clean_linker_0, # of connection points: 2
#     Edge 35, Type (0, 0), BuildingBlock: MIFKUJ_clean_linker_0, # of connection points: 2
# Relax obj value: 0.043
# Max RMSD: 0.148
# Mean RMSD: 0.148
data_MOF--net-uol--node1-QUQFOY_clean_sbu_1--edge1-MIFKUJ_clean_linker_0
_symmetry_space_group_name_H-M    P1
_symmetry_Int_Tables_number       1
_symmetry_cell_setting            triclinic
loop_
_symmetry_equiv_pos_as_xyz
'x, y, z'
_cell_length_a     42.677681
_cell_length_b     42.702964
_cell_length_c     92.909707
_cell_angle_alpha  90.048433
_cell_angle_beta   89.931722
_cell_angle_gamma 120.01352
loop_
_atom_site_label
_atom_site_type_symbol
_atom_site_fract_x
_atom_site_fract_y
_atom_site_fract_z
_atom_type_partial_charge
O0 O 0.18454 0.34491 0.09578 0.0
Cd1 Cd 0.18157 0.36469 0.11568 0.0
Cd2 Cd 0.12623 0.2942 0.11906 0.0
O3 O 0.13521 0.29118 0.09715 0.0
O4 O 0.20588 0.41833 0.11371 0.0
O5 O 0.14743 0.38404 0.11832 0.0
C6 C 0.17485 0.41582 0.11591 0.0
C7 C 0.06891 0.26651 0.12987 0.0
C8 C 0.16238 0.31477 0.09004 0.0
C9 C 0.1931 0.32206 0.13807 0.0
O10 O 0.16361 0.29574 0.13349 0.0
O11 O 0.20541 0.35351 0.13279 0.0
O12 O 0.08233 0.24779 0.12463 0.0
O13 O 0.08666 0.30107 0.12778 0.0
O14 O 0.83937 0.16985 0.26136 0.0
Cd15 Cd 0.817 0.16844 0.28117 0.0
Cd16 Cd 0.8317 0.11334 0.28557 0.0
O17 O 0.84545 0.1217 0.26376 0.0
O18 O 0.78758 0.19251 0.27875 0.0
O19 O 0.76359 0.13453 0.28414 0.0
C20 C 0.75912 0.16169 0.28132 0.0
C21 C 0.79909 0.05631 0.29636 0.0
C22 C 0.84834 0.14789 0.25616 0.0
C23 C 0.87049 0.18108 0.30407 0.0
O24 O 0.86658 0.15075 0.30028 0.0
O25 O 0.85248 0.19372 0.29804 0.0
O26 O 0.83172 0.06859 0.29181 0.0
O27 O 0.7837 0.07515 0.29363 0.0
O28 O 0.66826 0.83025 0.42934 0.0
Cd29 Cd 0.65139 0.80851 0.44972 0.0
Cd30 Cd 0.72123 0.82779 0.45156 0.0
O31 O 0.72209 0.83486 0.42944 0.0
O32 O 0.59754 0.77894 0.44865 0.0
O33 O 0.63236 0.75509 0.45247 0.0
C34 C 0.60034 0.75054 0.45061 0.0
C35 C 0.74405 0.79561 0.46376 0.0
C36 C 0.69741 0.83756 0.42283 0.0
C37 C 0.69565 0.8685 0.46993 0.0
O38 O 0.72237 0.86818 0.46405 0.0
O39 O 0.66353 0.84436 0.46673 0.0
O40 O 0.76527 0.8264 0.45779 0.0
O41 O 0.70962 0.78162 0.4618 0.0
O42 O 0.83911 0.66023 0.59564 0.0
Cd43 Cd 0.84393 0.64192 0.61568 0.0
Cd44 Cd 0.89796 0.71105 0.61815 0.0
O45 O 0.88963 0.71299 0.5962 0.0
O46 O 0.81937 0.58802 0.61447 0.0
O47 O 0.87829 0.6227 0.61784 0.0
C48 C 0.85066 0.59072 0.6161 0.0
C49 C 0.9539 0.7317 0.62932 0.0
C50 C 0.86163 0.68962 0.58947 0.0
C51 C 0.83334 0.68728 0.63741 0.0
O52 O 0.86145 0.71355 0.63188 0.0
O53 O 0.82239 0.6551 0.63317 0.0
O54 O 0.94556 0.75393 0.62345 0.0
O55 O 0.93166 0.69746 0.62779 0.0
O56 O 0.18866 0.8432 0.75831 0.0
Cd57 Cd 0.20723 0.84015 0.77857 0.0
Cd58 Cd 0.18928 0.8936 0.78334 0.0
O59 O 0.1776 0.88806 0.76152 0.0
O60 O 0.23404 0.81381 0.77478 0.0
O61 O 0.26064 0.86978 0.78315 0.0
C62 C 0.26327 0.8425 0.7787 0.0
C63 C 0.21962 0.94933 0.79534 0.0
C64 C 0.17821 0.86428 0.75344 0.0
C65 C 0.14832 0.82297 0.79993 0.0
O66 O 0.15205 0.85334 0.79633 0.0
O67 O 0.16881 0.81228 0.79454 0.0
O68 O 0.18747 0.93698 0.79026 0.0
O69 O 0.2358 0.93119 0.79269 0.0
O70 O 0.35311 0.17708 0.92734 0.0
Cd71 Cd 0.37136 0.19794 0.9477 0.0
Cd72 Cd 0.30239 0.18384 0.95004 0.0
O73 O 0.30098 0.17619 0.92791 0.0
O74 O 0.4253 0.22632 0.94644 0.0
O75 O 0.39184 0.25146 0.95087 0.0
C76 C 0.42347 0.25518 0.94872 0.0
C77 C 0.27848 0.21544 0.96208 0.0
C78 C 0.32429 0.17161 0.92108 0.0
C79 C 0.32491 0.13946 0.96806 0.0
O80 O 0.29945 0.14295 0.96271 0.0
O81 O 0.35751 0.16095 0.96437 0.0
O82 O 0.25784 0.18486 0.95588 0.0
O83 O 0.31304 0.22972 0.96039 0.0
O84 O 0.67306 0.83762 0.78707 0.0
Cd85 Cd 0.65333 0.83803 0.76679 0.0
Cd86 Cd 0.7218 0.89271 0.76372 0.0
O87 O 0.72515 0.88865 0.78589 0.0
O88 O 0.59965 0.81141 0.76936 0.0
O89 O 0.6307 0.86889 0.76284 0.0
C90 C 0.60003 0.841 0.76621 0.0
C91 C 0.73974 0.94588 0.75076 0.0
C92 C 0.7022 0.86126 0.79303 0.0
C93 C 0.69934 0.82502 0.7464 0.0
O94 O 0.72506 0.8543 0.75146 0.0
O95 O 0.66686 0.81405 0.7503 0.0
O96 O 0.76318 0.93987 0.75704 0.0
O97 O 0.70582 0.923 0.75284 0.0
O98 O 0.84428 0.65702 0.9488 0.0
Cd99 Cd 0.81953 0.63738 0.92911 0.0
Cd100 Cd 0.83649 0.70806 0.92613 0.0
O101 O 0.84917 0.71095 0.94788 0.0
O102 O 0.78996 0.58375 0.9313 0.0
O103 O 0.76579 0.61828 0.92746 0.0
C104 C 0.76137 0.58646 0.92977 0.0
C105 C 0.80611 0.73554 0.91589 0.0
C106 C 0.85291 0.68717 0.95471 0.0
C107 C 0.87338 0.6796 0.90639 0.0
O108 O 0.87208 0.70647 0.91157 0.0
O109 O 0.85277 0.64798 0.9113 0.0
O110 O 0.83854 0.75437 0.92083 0.0
O111 O 0.78961 0.70094 0.91784 0.0
O112 O 0.18281 0.82999 0.11639 0.0
Cd113 Cd 0.17864 0.80641 0.09648 0.0
Cd114 Cd 0.12346 0.8198 0.09383 0.0
O115 O 0.13174 0.83118 0.11569 0.0
O116 O 0.2038 0.77784 0.09825 0.0
O117 O 0.14489 0.75268 0.09455 0.0
C118 C 0.17276 0.74892 0.09668 0.0
C119 C 0.06703 0.78613 0.08277 0.0
C120 C 0.1599 0.83644 0.12248 0.0
C121 C 0.18808 0.86058 0.07433 0.0
O122 O 0.15963 0.85807 0.0798 0.0
O123 O 0.20001 0.84036 0.07879 0.0
O124 O 0.07726 0.81755 0.08824 0.0
O125 O 0.08754 0.77225 0.08478 0.0
O126 O 0.3528 0.16747 0.28571 0.0
Cd127 Cd 0.37233 0.16703 0.26532 0.0
Cd128 Cd 0.30258 0.11748 0.26187 0.0
O129 O 0.2995 0.11785 0.28413 0.0
O130 O 0.42597 0.19154 0.26748 0.0
O131 O 0.39249 0.1339 0.26154 0.0
C132 C 0.42399 0.1611 0.26451 0.0
C133 C 0.27964 0.06602 0.24718 0.0
C134 C 0.32323 0.14413 0.29155 0.0
C135 C 0.33048 0.18853 0.24663 0.0
O136 O 0.30328 0.16059 0.25175 0.0
O137 O 0.3623 0.19477 0.24931 0.0
O138 O 0.25849 0.07482 0.25374 0.0
O139 O 0.31392 0.08498 0.24983 0.0
O140 O 0.18445 0.34461 0.45082 0.0
Cd141 Cd 0.20755 0.36623 0.43119 0.0
Cd142 Cd 0.19143 0.29532 0.42634 0.0
O143 O 0.17749 0.29009 0.44812 0.0
O144 O 0.23686 0.41954 0.43415 0.0
O145 O 0.26112 0.38591 0.42852 0.0
C146 C 0.26545 0.41733 0.43168 0.0
C147 C 0.22021 0.26647 0.41576 0.0
C148 C 0.17492 0.31341 0.45584 0.0
C149 C 0.15445 0.32682 0.40801 0.0
O150 O 0.15781 0.29997 0.41161 0.0
O151 O 0.1726 0.35718 0.41425 0.0
O152 O 0.18732 0.24849 0.42032 0.0
O153 O 0.23796 0.30085 0.41825 0.0
O154 O 0.84618 0.17707 0.61892 0.0
Cd155 Cd 0.84583 0.1985 0.59898 0.0
Cd156 Cd 0.89881 0.17952 0.59382 0.0
O157 O 0.89003 0.16453 0.61538 0.0
O158 O 0.82101 0.22711 0.60206 0.0
O159 O 0.87855 0.25215 0.59579 0.0
C160 C 0.85124 0.25594 0.59918 0.0
C161 C 0.95571 0.20871 0.58268 0.0
C162 C 0.86618 0.16497 0.6235 0.0
C163 C 0.83008 0.14348 0.57593 0.0
O164 O 0.85998 0.14605 0.57948 0.0
O165 O 0.81898 0.16268 0.58216 0.0
O166 O 0.94145 0.1759 0.58724 0.0
O167 O 0.93903 0.22623 0.58559 0.0
H168 H 0.11071 0.68243 0.09716 0.0
H169 H 0.10579 0.62337 0.10129 0.0
H170 H 0.22214 0.67461 0.10305 0.0
H171 H 0.22724 0.73345 0.09921 0.0
H172 H 0.12894 0.58354 0.0872 0.0
H173 H 0.24793 0.63567 0.12801 0.0
H174 H 0.27694 0.68331 0.14645 0.0
H175 H 0.17823 0.68575 0.15177 0.0
H176 H 0.14847 0.63777 0.13353 0.0
H177 H 0.22876 0.48616 0.11409 0.0
H178 H 0.22295 0.5399 0.11154 0.0
H179 H 0.10672 0.4736 0.11339 0.0
H180 H 0.11232 0.4194 0.11594 0.0
H181 H 0.19275 0.56912 0.12906 0.0
H182 H 0.0718 0.51362 0.0904 0.0
H183 H 0.04156 0.46562 0.07216 0.0
H184 H 0.14207 0.46932 0.06314 0.0
H185 H 0.17296 0.51764 0.08118 0.0
C186 C 0.13523 0.68105 0.09835 0.0
C187 C 0.16936 0.71271 0.09798 0.0
C188 C 0.13237 0.64727 0.1007 0.0
C189 C 0.16356 0.64459 0.10276 0.0
C190 C 0.19764 0.67603 0.10183 0.0
C191 C 0.20052 0.7097 0.09955 0.0
C192 C 0.16085 0.6092 0.10608 0.0
C193 C 0.14234 0.58019 0.0965 0.0
C194 C 0.17854 0.6048 0.11815 0.0
C195 C 0.19608 0.63332 0.1293 0.0
C196 C 0.23236 0.64624 0.13316 0.0
C197 C 0.24895 0.67333 0.14357 0.0
C198 C 0.22947 0.68762 0.15025 0.0
C199 C 0.19333 0.67475 0.14656 0.0
C200 C 0.1766 0.64764 0.13617 0.0
C201 C 0.20192 0.48292 0.11403 0.0
C202 C 0.17099 0.44843 0.11518 0.0
C203 C 0.19866 0.51374 0.1126 0.0
C204 C 0.16443 0.5108 0.11215 0.0
C205 C 0.13342 0.47648 0.11356 0.0
C206 C 0.13667 0.44556 0.11508 0.0
C207 C 0.16161 0.54382 0.11001 0.0
C208 C 0.17902 0.57238 0.11986 0.0
C209 C 0.14268 0.54764 0.09826 0.0
C210 C 0.12455 0.5189 0.08727 0.0
C211 C 0.08744 0.50423 0.0845 0.0
C212 C 0.07019 0.47697 0.0742 0.0
C213 C 0.08985 0.46432 0.06654 0.0
C214 C 0.12684 0.47902 0.06913 0.0
C215 C 0.14421 0.5063 0.0794 0.0
H216 H 0.07645 0.44321 0.05858 0.0
H217 H 0.24238 0.70861 0.15829 0.0
H218 H 0.74264 0.21537 0.27856 0.0
H219 H 0.68296 0.20943 0.27641 0.0
H220 H 0.63298 0.09355 0.28008 0.0
H221 H 0.69298 0.09926 0.28224 0.0
H222 H 0.60394 0.11479 0.25781 0.0
H223 H 0.62839 0.13927 0.30793 0.0
H224 H 0.66427 0.17161 0.32929 0.0
H225 H 0.66676 0.26866 0.31533 0.0
H226 H 0.63132 0.23703 0.29376 0.0
H227 H 0.42816 0.09894 0.26417 0.0
H228 H 0.48235 0.0937 0.26745 0.0
H229 H 0.54799 0.20997 0.26955 0.0
H230 H 0.49407 0.21529 0.26667 0.0
H231 H 0.56559 0.18127 0.29054 0.0
H232 H 0.54592 0.15861 0.23947 0.0
H233 H 0.51105 0.127 0.2178 0.0
H234 H 0.50006 0.02727 0.23329 0.0
H235 H 0.5345 0.05823 0.25515 0.0
C236 C 0.71901 0.18857 0.27899 0.0
C237 C 0.7226 0.15778 0.28062 0.0
C238 C 0.68486 0.18524 0.27779 0.0
C239 C 0.65347 0.15107 0.2782 0.0
C240 C 0.65686 0.12018 0.27976 0.0
C241 C 0.69113 0.12351 0.28107 0.0
C242 C 0.61734 0.14801 0.27679 0.0
C243 C 0.59518 0.12877 0.26511 0.0
C244 C 0.60621 0.16672 0.28617 0.0
C245 C 0.62741 0.18583 0.29917 0.0
C246 C 0.63681 0.16758 0.30935 0.0
C247 C 0.65704 0.18577 0.32151 0.0
C248 C 0.66785 0.22219 0.32365 0.0
C249 C 0.65839 0.24046 0.31365 0.0
C250 C 0.63819 0.2224 0.30147 0.0
C251 C 0.45421 0.12337 0.26519 0.0
C252 C 0.45679 0.15753 0.26518 0.0
C253 C 0.4852 0.12035 0.26703 0.0
C254 C 0.51939 0.15146 0.2687 0.0
C255 C 0.52197 0.18555 0.26837 0.0
C256 C 0.49107 0.18856 0.26667 0.0
C257 C 0.5525 0.14891 0.27129 0.0
C258 C 0.57409 0.16702 0.28328 0.0
C259 C 0.56309 0.12925 0.26215 0.0
C260 C 0.54242 0.11065 0.24901 0.0
C261 C 0.53581 0.12988 0.23831 0.0
C262 C 0.51618 0.11209 0.22598 0.0
C263 C 0.50325 0.07513 0.22419 0.0
C264 C 0.51003 0.05589 0.23471 0.0
C265 C 0.52962 0.07354 0.24706 0.0
H266 H 0.48806 0.0614 0.21464 0.0
H267 H 0.6835 0.23623 0.33307 0.0
H268 H 0.5971 0.68468 0.44956 0.0
H269 H 0.54281 0.62483 0.44718 0.0
H270 H 0.47593 0.67413 0.44807 0.0
H271 H 0.52976 0.73374 0.45044 0.0
H272 H 0.44861 0.61347 0.46505 0.0
H273 H 0.4958 0.64899 0.41665 0.0
H274 H 0.54262 0.66798 0.39782 0.0
H275 H 0.54738 0.57088 0.40426 0.0
H276 H 0.5009 0.55154 0.42327 0.0
H277 H 0.2818 0.48702 0.43601 0.0
H278 H 0.34115 0.54004 0.43991 0.0
H279 H 0.39131 0.47458 0.43478 0.0
H280 H 0.33167 0.42117 0.43058 0.0
H281 H 0.43051 0.53879 0.42154 0.0
H282 H 0.37998 0.50009 0.46822 0.0
H283 H 0.33359 0.48033 0.48724 0.0
H284 H 0.33619 0.58201 0.4848 0.0
H285 H 0.38223 0.6022 0.4656 0.0
C286 C 0.57079 0.68271 0.44937 0.0
C287 C 0.56776 0.714 0.45015 0.0
C288 C 0.53983 0.64852 0.44794 0.0
C289 C 0.50532 0.64504 0.44733 0.0
C290 C 0.50225 0.67615 0.44851 0.0
C291 C 0.5331 0.71025 0.44983 0.0
C292 C 0.47223 0.60925 0.44518 0.0
C293 C 0.44455 0.59725 0.45549 0.0
C294 C 0.4674 0.58748 0.43295 0.0
C295 C 0.49521 0.59903 0.42149 0.0
C296 C 0.50706 0.63184 0.41413 0.0
C297 C 0.53349 0.64263 0.40341 0.0
C298 C 0.54805 0.6207 0.39988 0.0
C299 C 0.53613 0.58787 0.40703 0.0
C300 C 0.50973 0.57697 0.41777 0.0
C301 C 0.3054 0.48382 0.43564 0.0
C302 C 0.30193 0.44976 0.43308 0.0
C303 C 0.33937 0.51419 0.43795 0.0
C304 C 0.37069 0.51122 0.43794 0.0
C305 C 0.36752 0.4775 0.43493 0.0
C306 C 0.33342 0.447 0.43254 0.0
C307 C 0.40647 0.54344 0.44124 0.0
C308 C 0.43468 0.55474 0.43119 0.0
C309 C 0.41195 0.56448 0.45378 0.0
C310 C 0.38438 0.55255 0.46539 0.0
C311 C 0.37048 0.51814 0.47166 0.0
C312 C 0.34427 0.50688 0.48249 0.0
C313 C 0.3319 0.52987 0.48721 0.0
C314 C 0.34578 0.56422 0.48113 0.0
C315 C 0.37197 0.5756 0.47028 0.0
H316 H 0.31161 0.5211 0.49559 0.0
H317 H 0.56851 0.62911 0.39158 0.0
H318 H 0.79681 0.52011 0.61638 0.0
H319 H 0.80254 0.46619 0.61429 0.0
H320 H 0.91865 0.53301 0.6121 0.0
H321 H 0.91316 0.58738 0.61425 0.0
H322 H 0.89067 0.47908 0.59105 0.0
H323 H 0.88268 0.48767 0.64198 0.0
H324 H 0.85742 0.49453 0.66486 0.0
H325 H 0.7573 0.39708 0.6562 0.0
H326 H 0.78178 0.3899 0.63315 0.0
H327 H 0.9124 0.32282 0.59671 0.0
H328 H 0.91733 0.38209 0.60006 0.0
H329 H 0.80221 0.33002 0.60741 0.0
H330 H 0.79723 0.27098 0.60437 0.0
H331 H 0.83669 0.38015 0.62705 0.0
H332 H 0.8426 0.37423 0.57533 0.0
H333 H 0.86705 0.36752 0.5522 0.0
H334 H 0.97036 0.45975 0.56217 0.0
H335 H 0.94662 0.46672 0.58546 0.0
C336 C 0.82363 0.52342 0.61555 0.0
C337 C 0.85454 0.55809 0.61552 0.0
C338 C 0.82685 0.49252 0.61439 0.0
C339 C 0.86103 0.49552 0.61313 0.0
C340 C 0.89201 0.53007 0.61308 0.0
C341 C 0.88883 0.56108 0.61438 0.0
C342 C 0.864 0.46241 0.61161 0.0
C343 C 0.87948 0.45768 0.59904 0.0
C344 C 0.84883 0.43425 0.6219 0.0
C345 C 0.83399 0.43842 0.63577 0.0
C346 C 0.85517 0.46786 0.64489 0.0
C347 C 0.84101 0.47178 0.6579 0.0
C348 C 0.80575 0.4463 0.66197 0.0
C349 C 0.7846 0.41681 0.65303 0.0
C350 C 0.79862 0.41278 0.64 0.0
C351 C 0.88812 0.32404 0.59894 0.0
C352 C 0.85442 0.29212 0.60027 0.0
C353 C 0.89095 0.35796 0.60082 0.0
C354 C 0.8601 0.36062 0.60392 0.0
C355 C 0.82644 0.32875 0.60508 0.0
C356 C 0.82362 0.29495 0.60328 0.0
C357 C 0.8626 0.39634 0.60632 0.0
C358 C 0.8482 0.40161 0.6191 0.0
C359 C 0.87866 0.42491 0.59619 0.0
C360 C 0.89296 0.42073 0.58221 0.0
C361 C 0.87062 0.39289 0.57265 0.0
C362 C 0.88433 0.38907 0.5595 0.0
C363 C 0.92027 0.41312 0.55574 0.0
C364 C 0.94254 0.4411 0.56511 0.0
C365 C 0.92897 0.44501 0.57828 0.0
H366 H 0.93083 0.41013 0.54556 0.0
H367 H 0.79484 0.44938 0.67205 0.0
H368 H 0.54116 0.80016 0.7829 0.0
H369 H 0.48593 0.80343 0.78492 0.0
H370 H 0.52674 0.88845 0.75309 0.0
H371 H 0.58332 0.88679 0.75178 0.0
H372 H 0.49329 0.90387 0.77143 0.0
H373 H 0.45987 0.79558 0.74565 0.0
H374 H 0.45462 0.7365 0.74046 0.0
H375 H 0.39219 0.6924 0.779 0.0
H376 H 0.39745 0.75137 0.78452 0.0
H377 H 0.28167 0.80658 0.75952 0.0
H378 H 0.33998 0.80995 0.75649 0.0
H379 H 0.38269 0.88392 0.79239 0.0
H380 H 0.32477 0.88253 0.79471 0.0
H381 H 0.37496 0.79004 0.77046 0.0
H382 H 0.47341 0.93538 0.79129 0.0
H383 H 0.47816 0.99538 0.79181 0.0
H384 H 0.40924 0.96723 0.75474 0.0
H385 H 0.40445 0.90725 0.75389 0.0
C386 C 0.53834 0.81952 0.7763 0.0
C387 C 0.56639 0.84295 0.76706 0.0
C388 C 0.5066 0.82126 0.77741 0.0
C389 C 0.50149 0.84554 0.76889 0.0
C390 C 0.52978 0.86936 0.75976 0.0
C391 C 0.56206 0.86829 0.75895 0.0
C392 C 0.46664 0.84585 0.76953 0.0
C393 C 0.46741 0.87896 0.77116 0.0
C394 C 0.43263 0.81355 0.76883 0.0
C395 C 0.42934 0.77799 0.76556 0.0
C396 C 0.44522 0.77335 0.75306 0.0
C397 C 0.44222 0.73987 0.75006 0.0
C398 C 0.42316 0.71074 0.75941 0.0
C399 C 0.40698 0.715 0.77177 0.0
C400 C 0.40993 0.74844 0.77484 0.0
C401 C 0.30358 0.82371 0.76673 0.0
C402 C 0.2987 0.84431 0.77735 0.0
C403 C 0.33699 0.82558 0.76501 0.0
C404 C 0.36623 0.84745 0.7741 0.0
C405 C 0.36111 0.86758 0.78494 0.0
C406 C 0.32788 0.86655 0.78637 0.0
C407 C 0.40142 0.84809 0.77238 0.0
C408 C 0.40075 0.81505 0.77064 0.0
C409 C 0.43535 0.8806 0.77227 0.0
C410 C 0.43827 0.91669 0.77263 0.0
C411 C 0.45937 0.94205 0.78322 0.0
C412 C 0.46205 0.97604 0.78358 0.0
C413 C 0.44391 0.98506 0.77335 0.0
C414 C 0.42316 0.96015 0.7627 0.0
C415 C 0.42042 0.92614 0.76228 0.0
H416 H 0.446 0.01138 0.77365 0.0
H417 H 0.42086 0.68484 0.75707 0.0
H418 H 0.49347 0.27022 0.94709 0.0
H419 H 0.5481 0.32925 0.94495 0.0
H420 H 0.48383 0.38131 0.94698 0.0
H421 H 0.42869 0.32199 0.94909 0.0
H422 H 0.53421 0.40858 0.92513 0.0
H423 H 0.53397 0.38628 0.97541 0.0
H424 H 0.52997 0.35143 0.99716 0.0
H425 H 0.62378 0.3467 0.98367 0.0
H426 H 0.62805 0.38109 0.96172 0.0
H427 H 0.69544 0.58332 0.93036 0.0
H428 H 0.63582 0.52986 0.93436 0.0
H429 H 0.68513 0.46305 0.93639 0.0
H430 H 0.74458 0.51621 0.93271 0.0
H431 H 0.63905 0.44687 0.95779 0.0
H432 H 0.63606 0.46451 0.90658 0.0
H433 H 0.63975 0.49865 0.88463 0.0
H434 H 0.55202 0.51193 0.89982 0.0
H435 H 0.54811 0.47823 0.92195 0.0
C436 C 0.49086 0.29418 0.94719 0.0
C437 C 0.45667 0.29134 0.9483 0.0
C438 C 0.5222 0.32798 0.94601 0.0
C439 C 0.52015 0.35978 0.94592 0.0
C440 C 0.48607 0.35714 0.94705 0.0
C441 C 0.45462 0.32323 0.94833 0.0
C442 C 0.55369 0.39553 0.94428 0.0
C443 C 0.55693 0.41732 0.93242 0.0
C444 C 0.58355 0.40668 0.95365 0.0
C445 C 0.58115 0.38604 0.96686 0.0
C446 C 0.55358 0.37757 0.97702 0.0
C447 C 0.5513 0.35794 0.9894 0.0
C448 C 0.57656 0.34679 0.99178 0.0
C449 C 0.60421 0.35533 0.9818 0.0
C450 C 0.6066 0.37493 0.9694 0.0
C451 C 0.69351 0.55719 0.93155 0.0
C452 C 0.72481 0.55407 0.93122 0.0
C453 C 0.65938 0.52661 0.93381 0.0
C454 C 0.65586 0.49229 0.93561 0.0
C455 C 0.68707 0.48918 0.93509 0.0
C456 C 0.7211 0.51966 0.93292 0.0
C457 C 0.61999 0.45957 0.93842 0.0
C458 C 0.61627 0.43836 0.95055 0.0
C459 C 0.58975 0.44899 0.92928 0.0
C460 C 0.59208 0.46923 0.91599 0.0
C461 C 0.61776 0.47497 0.90529 0.0
C462 C 0.61985 0.49419 0.89281 0.0
C463 C 0.59621 0.50755 0.89085 0.0
C464 C 0.57036 0.50163 0.90136 0.0
C465 C 0.56818 0.48245 0.91387 0.0
H466 H 0.59787 0.52242 0.88118 0.0
H467 H 0.57475 0.3316 1.00137 0.0
H468 H 0.27007 0.19431 0.24537 0.0
H469 H 0.25541 0.2271 0.22769 0.0
H470 H 0.36127 0.27003 0.20868 0.0
H471 H 0.37657 0.23754 0.22665 0.0
H472 H 0.33014 0.31927 0.20905 0.0
H473 H 0.30018 0.19753 0.19593 0.0
H474 H 0.27324 0.13338 0.20261 0.0
H475 H 0.16851 0.12398 0.20577 0.0
H476 H 0.19518 0.1887 0.19992 0.0
H477 H 0.2663 0.35446 0.14264 0.0
H478 H 0.29713 0.33885 0.16118 0.0
H479 H 0.19345 0.26038 0.17885 0.0
H480 H 0.16296 0.27431 0.15991 0.0
H481 H 0.23099 0.23087 0.17777 0.0
H482 H 0.25569 0.34765 0.19479 0.0
H483 H 0.27882 0.4133 0.19331 0.0
H484 H 0.38607 0.4321 0.18547 0.0
H485 H 0.36347 0.36649 0.18674 0.0
C486 C 0.29054 0.2112 0.2376 0.0
C487 C 0.32423 0.21277 0.2372 0.0
C488 C 0.28218 0.23013 0.22757 0.0
C489 C 0.30706 0.25051 0.21678 0.0
C490 C 0.34173 0.2544 0.21695 0.0
C491 C 0.35033 0.23567 0.22715 0.0
C492 C 0.29464 0.26299 0.2043 0.0
C493 C 0.30888 0.30012 0.20202 0.0
C494 C 0.26636 0.23778 0.19539 0.0
C495 C 0.24979 0.19813 0.19761 0.0
C496 C 0.27144 0.18187 0.19812 0.0
C497 C 0.25624 0.14544 0.20185 0.0
C498 C 0.21918 0.12461 0.20463 0.0
C499 C 0.19723 0.14017 0.20365 0.0
C500 C 0.21241 0.1768 0.20019 0.0
C501 C 0.25027 0.33407 0.15057 0.0
C502 C 0.21231 0.31544 0.14982 0.0
C503 C 0.26786 0.32526 0.16121 0.0
C504 C 0.24771 0.29851 0.17154 0.0
C505 C 0.20974 0.28081 0.17097 0.0
C506 C 0.19228 0.28888 0.16016 0.0
C507 C 0.26552 0.28752 0.18265 0.0
C508 C 0.25249 0.25037 0.18463 0.0
C509 C 0.29422 0.31275 0.19148 0.0
C510 C 0.30782 0.35215 0.19068 0.0
C511 C 0.28415 0.36577 0.19263 0.0
C512 C 0.29717 0.40297 0.19186 0.0
C513 C 0.33387 0.42684 0.18925 0.0
C514 C 0.35764 0.41357 0.18746 0.0
C515 C 0.34475 0.37639 0.18821 0.0
H516 H 0.3439 0.45564 0.18866 0.0
H517 H 0.20747 0.09636 0.20749 0.0
H518 H 0.87565 0.15479 0.32983 0.0
H519 H 0.92146 0.18565 0.34839 0.0
H520 H 0.97146 0.28236 0.32229 0.0
H521 H 0.92366 0.25204 0.30424 0.0
H522 H 0.98575 0.20566 0.34803 0.0
H523 H 0.02641 0.35693 0.34151 0.0
H524 H 0.99761 0.39326 0.33604 0.0
H525 H 0.89557 0.30725 0.35122 0.0
H526 H 0.92384 0.27059 0.35695 0.0
H527 H 0.15235 0.30164 0.38114 0.0
H528 H 0.10473 0.28463 0.36316 0.0
H529 H 0.04874 0.32009 0.39175 0.0
H530 H 0.09807 0.33968 0.4093 0.0
H531 H 0.03543 0.33102 0.36605 0.0
H532 H 0.02834 0.22868 0.38965 0.0
H533 H 0.05038 0.18873 0.39853 0.0
H534 H 0.07136 0.16955 0.35515 0.0
H535 H 0.04989 0.20978 0.34602 0.0
C536 C 0.89603 0.1829 0.32825 0.0
C537 C 0.89622 0.20118 0.3157 0.0
C538 C 0.92236 0.20052 0.33881 0.0
C539 C 0.95017 0.23651 0.33685 0.0
C540 C 0.94998 0.25496 0.32432 0.0
C541 C 0.92281 0.23761 0.31394 0.0
C542 C 0.98056 0.25337 0.3474 0.0
C543 C 0.99633 0.23303 0.35198 0.0
C544 C 0.99439 0.28894 0.35283 0.0
C545 C 0.9772 0.31089 0.34952 0.0
C546 C 0.99786 0.34582 0.34373 0.0
C547 C 0.98162 0.36646 0.34057 0.0
C548 C 0.94476 0.35252 0.34324 0.0
C549 C 0.92409 0.31796 0.34911 0.0
C550 C 0.94019 0.29721 0.35229 0.0
C551 C 0.13025 0.30655 0.38339 0.0
C552 C 0.12859 0.32175 0.39655 0.0
C553 C 0.10288 0.29655 0.3732 0.0
C554 C 0.07242 0.2999 0.37626 0.0
C555 C 0.07177 0.31698 0.38913 0.0
C556 C 0.09988 0.32813 0.39916 0.0
C557 C 0.04033 0.28321 0.36656 0.0
C558 C 0.02449 0.30359 0.36211 0.0
C559 C 0.02519 0.247 0.36174 0.0
C560 C 0.0378 0.22249 0.36717 0.0
C561 C 0.03783 0.21608 0.38201 0.0
C562 C 0.05021 0.19339 0.38709 0.0
C563 C 0.06234 0.17668 0.37741 0.0
C564 C 0.062 0.18255 0.36263 0.0
C565 C 0.0497 0.20527 0.3575 0.0
H566 H 0.07194 0.15914 0.38136 0.0
H567 H 0.93224 0.36854 0.34078 0.0
H568 H 0.85615 0.12097 0.55414 0.0
H569 H 0.82226 0.07618 0.53565 0.0
H570 H 0.72224 0.06226 0.55291 0.0
H571 H 0.75638 0.10807 0.5715 0.0
H572 H 0.72649 0.99546 0.54788 0.0
H573 H 0.74225 0.10021 0.52305 0.0
H574 H 0.77601 0.16318 0.51441 0.0
H575 H 0.84733 0.13906 0.49035 0.0
H576 H 0.81434 0.07606 0.49902 0.0
H577 H 0.64674 0.8744 0.48744 0.0
H578 H 0.65949 0.92219 0.50507 0.0
H579 H 0.77269 0.97521 0.49386 0.0
H580 H 0.76035 0.92802 0.47634 0.0
H581 H 0.74859 0.02311 0.49575 0.0
H582 H 0.74336 0.92535 0.52381 0.0
H583 H 0.71481 0.86297 0.53309 0.0
H584 H 0.62853 0.87425 0.55139 0.0
H585 H 0.65643 0.93667 0.54207 0.0
C586 C 0.82695 0.10864 0.55398 0.0
C587 C 0.80889 0.11797 0.56429 0.0
C588 C 0.80764 0.08312 0.54337 0.0
C589 C 0.76981 0.06603 0.5429 0.0
C590 C 0.75149 0.0753 0.5531 0.0
C591 C 0.77097 0.1015 0.56364 0.0
C592 C 0.75011 0.03763 0.53195 0.0
C593 C 0.73033 1.00147 0.53646 0.0
C594 C 0.75603 0.04556 0.51709 0.0
C595 C 0.77588 0.08341 0.51175 0.0
C596 C 0.76529 0.10838 0.516 0.0
C597 C 0.78427 0.14408 0.51108 0.0
C598 C 0.81382 0.15512 0.50185 0.0
C599 C 0.82442 0.13046 0.4975 0.0
C600 C 0.80554 0.09473 0.5024 0.0
C601 C 0.67431 0.89632 0.48871 0.0
C602 C 0.70253 0.89732 0.48049 0.0
C603 C 0.68154 0.92354 0.4988 0.0
C604 C 0.71706 0.95222 0.50079 0.0
C605 C 0.74507 0.95344 0.49246 0.0
C606 C 0.73795 0.92627 0.48249 0.0
C607 C 0.72572 0.98086 0.51168 0.0
C608 C 0.74366 0.01706 0.50715 0.0
C609 C 0.71854 0.97294 0.52652 0.0
C610 C 0.70168 0.93545 0.53207 0.0
C611 C 0.71811 0.9144 0.52969 0.0
C612 C 0.7021 0.87907 0.53498 0.0
C613 C 0.66979 0.86459 0.54277 0.0
C614 C 0.6535 0.88547 0.54532 0.0
C615 C 0.66941 0.92083 0.54005 0.0
H616 H 0.65744 0.83724 0.54687 0.0
H617 H 0.82849 0.18278 0.49805 0.0
H618 H 0.85808 0.74947 0.65279 0.0
H619 H 0.82778 0.76223 0.67224 0.0
H620 H 0.73503 0.6553 0.66808 0.0
H621 H 0.7655 0.64196 0.64852 0.0
H622 H 0.71929 0.71456 0.67018 0.0
H623 H 0.78347 0.66645 0.69532 0.0
H624 H 0.83624 0.65996 0.70123 0.0
H625 H 0.89574 0.77135 0.71418 0.0
H626 H 0.84351 0.77868 0.70814 0.0
H627 H 0.6533 0.75857 0.73427 0.0
H628 H 0.66878 0.72538 0.71675 0.0
H629 H 0.77986 0.81201 0.71693 0.0
H630 H 0.76495 0.84473 0.73448 0.0
H631 H 0.77755 0.74947 0.71821 0.0
H632 H 0.71945 0.80081 0.68958 0.0
H633 H 0.66923 0.8106 0.68263 0.0
H634 H 0.60069 0.6966 0.67555 0.0
H635 H 0.65043 0.6861 0.68263 0.0
C636 C 0.83121 0.72857 0.65595 0.0
C637 C 0.81422 0.69464 0.6491 0.0
C638 C 0.81399 0.73591 0.66711 0.0
C639 C 0.77931 0.70963 0.67165 0.0
C640 C 0.76186 0.67589 0.66473 0.0
C641 C 0.77933 0.6683 0.65361 0.0
C642 C 0.76188 0.71805 0.68368 0.0
C643 C 0.73142 0.72138 0.68081 0.0
C644 C 0.77818 0.7275 0.69743 0.0
C645 C 0.8096 0.72315 0.7012 0.0
C646 C 0.80789 0.68964 0.69933 0.0
C647 C 0.8377 0.6858 0.70272 0.0
C648 C 0.86934 0.71524 0.70806 0.0
C649 C 0.87121 0.74857 0.71005 0.0
C650 C 0.84149 0.75257 0.70666 0.0
C651 C 0.68102 0.77047 0.73058 0.0
C652 C 0.70786 0.80432 0.7358 0.0
C653 C 0.6898 0.75152 0.72053 0.0
C654 C 0.72548 0.76627 0.71546 0.0
C655 C 0.7522 0.79994 0.72073 0.0
C656 C 0.74355 0.81871 0.73076 0.0
C657 C 0.73561 0.74726 0.70461 0.0
C658 C 0.76479 0.7419 0.70771 0.0
C659 C 0.71835 0.73634 0.69104 0.0
C660 C 0.68847 0.74262 0.68681 0.0
C661 C 0.69356 0.7778 0.68666 0.0
C662 C 0.66522 0.78348 0.68268 0.0
C663 C 0.63175 0.75422 0.67871 0.0
C664 C 0.6266 0.71922 0.67867 0.0
C665 C 0.65485 0.71339 0.68266 0.0
H666 H 0.60984 0.75867 0.67562 0.0
H667 H 0.8924 0.71221 0.71067 0.0
H668 H 0.89691 0.6342 0.89624 0.0
H669 H 0.94084 0.64664 0.87681 0.0
H670 H 0.95099 0.7513 0.87022 0.0
H671 H 0.9077 0.73931 0.88946 0.0
H672 H 0.94306 0.71451 0.84476 0.0
H673 H 0.01351 0.74383 0.88907 0.0
H674 H 0.02869 0.72902 0.91277 0.0
H675 H 0.04504 0.64701 0.89334 0.0
H676 H 0.02949 0.66106 0.86954 0.0
H677 H 0.10353 0.84091 0.81392 0.0
H678 H 0.05453 0.80443 0.83038 0.0
H679 H 0.07726 0.71713 0.82635 0.0
H680 H 0.12731 0.75403 0.80971 0.0
H681 H 0.06372 0.72875 0.85477 0.0
H682 H 0.00496 0.70852 0.80962 0.0
H683 H 0.99083 0.72459 0.78598 0.0
H684 H 0.95188 0.78854 0.80665 0.0
H685 H 0.96629 0.77334 0.83042 0.0
C686 C 0.90845 0.65977 0.89059 0.0
C687 C 0.89895 0.68583 0.89445 0.0
C688 C 0.93358 0.66686 0.87954 0.0
C689 C 0.94924 0.69995 0.87211 0.0
C690 C 0.93921 0.72558 0.87579 0.0
C691 C 0.91455 0.71872 0.88686 0.0
C692 C 0.97659 0.70881 0.86061 0.0
C693 C 0.96942 0.71755 0.84692 0.0
C694 C 0.01049 0.71149 0.86329 0.0
C695 C 0.01987 0.70314 0.87757 0.0
C696 C 0.02002 0.72242 0.88988 0.0
C697 C 0.02876 0.71422 0.90332 0.0
C698 C 0.03769 0.687 0.90457 0.0
C699 C 0.03802 0.66802 0.89236 0.0
C700 C 0.02926 0.67609 0.8789 0.0
C701 C 0.09833 0.81397 0.81645 0.0
C702 C 0.1193 0.80034 0.81035 0.0
C703 C 0.07009 0.79305 0.82587 0.0
C704 C 0.06175 0.7578 0.82938 0.0
C705 C 0.08309 0.7442 0.82367 0.0
C706 C 0.11161 0.76528 0.81417 0.0
C707 C 0.03066 0.73591 0.8391 0.0
C708 C 0.03705 0.72472 0.85244 0.0
C709 C 0.99589 0.73083 0.8361 0.0
C710 C 0.98685 0.73986 0.82182 0.0
C711 C 0.99358 0.72619 0.80913 0.0
C712 C 0.9855 0.73513 0.7957 0.0
C713 C 0.9705 0.7576 0.79482 0.0
C714 C 0.96348 0.77112 0.80736 0.0
C715 C 0.97155 0.7623 0.82081 0.0
H716 H 0.96428 0.7645 0.78441 0.0
H717 H 0.04446 0.6807 0.91499 0.0
H718 H 0.16132 0.89573 0.05865 0.0
H719 H 0.19097 0.93959 0.03945 0.0
H720 H 0.28604 0.92936 0.04385 0.0
H721 H 0.25632 0.88497 0.06325 0.0
H722 H 0.30145 1.00149 0.04229 0.0
H723 H 0.23399 0.89208 0.01585 0.0
H724 H 0.18041 0.83434 0.00898 0.0
H725 H 0.12459 0.89051 0.99686 0.0
H726 H 0.17749 0.94853 1.00397 0.0
H727 H 0.36969 0.1169 0.97973 0.0
H728 H 0.3529 0.06683 0.99665 0.0
H729 H 0.243 0.04601 0.99717 0.0
H730 H 0.25922 0.09503 0.9802 0.0
H731 H 0.24308 0.98485 0.99459 0.0
H732 H 0.30423 0.09109 0.02493 0.0
H733 H 0.35576 0.14955 0.03259 0.0
H734 H 0.42129 0.10005 0.03777 0.0
H735 H 0.37022 0.04135 0.02996 0.0
C736 C 0.18855 0.90269 0.05558 0.0
C737 C 0.20649 0.88686 0.06252 0.0
C738 C 0.20539 0.92768 0.04452 0.0
C739 C 0.24057 0.93749 0.04013 0.0
C740 C 0.2588 0.92202 0.04706 0.0
C741 C 0.24177 0.89663 0.0581 0.0
C742 C 0.25811 0.96457 0.02849 0.0
C743 C 0.28921 0.99761 0.03173 0.0
C744 C 0.24172 0.95964 0.01481 0.0
C745 C 0.20974 0.92471 0.01052 0.0
C746 C 0.2102 0.89212 0.01184 0.0
C747 C 0.17994 0.85933 0.00788 0.0
C748 C 0.14913 0.85877 1.00247 0.0
C749 C 0.14851 0.891 1.00101 0.0
C750 C 0.17862 0.92385 0.00502 0.0
C751 C 0.34199 0.10165 0.98349 0.0
C752 C 0.31582 0.10999 0.97858 0.0
C753 C 0.33244 0.0731 0.99318 0.0
C754 C 0.29667 0.05267 0.99823 0.0
C755 C 0.2707 0.06115 0.99337 0.0
C756 C 0.2801 0.08937 0.98367 0.0
C757 C 0.28565 0.02232 0.00856 0.0
C758 C 0.25577 0.98856 0.00504 0.0
C759 C 0.30291 0.02673 0.02202 0.0
C760 C 0.33359 0.06198 0.02668 0.0
C761 C 0.32973 0.09275 0.02758 0.0
C762 C 0.35882 0.12591 0.03197 0.0
C763 C 0.39182 0.12854 0.03561 0.0
C764 C 0.39575 0.09799 0.03491 0.0
C765 C 0.36674 0.06477 0.03051 0.0
H766 H 0.41431 0.15423 0.03902 0.0
H767 H 0.12572 0.83335 0.99943 0.0
H768 H 0.11902 0.25639 0.07282 0.0
H769 H 0.13382 0.24186 0.04917 0.0
H770 H 0.23794 0.33953 0.05047 0.0
H771 H 0.22292 0.35478 0.07375 0.0
H772 H 0.21342 0.33048 0.02441 0.0
H773 H 0.22553 0.25373 0.05912 0.0
H774 H 0.20552 0.2085 0.07859 0.0
H775 H 0.12099 0.13042 0.0515 0.0
H776 H 0.14024 0.17537 0.03192 0.0
H777 H 0.31417 0.27852 0.97761 0.0
H778 H 0.28959 0.29804 0.99729 0.0
H779 H 0.18358 0.20627 0.98972 0.0
H780 H 0.20776 0.18671 0.97004 0.0
H781 H 0.20519 0.2113 0.01791 0.0
H782 H 0.19882 0.28899 0.98225 0.0
H783 H 0.22216 0.33511 0.9631 0.0
H784 H 0.30024 0.41259 0.99239 0.0
H785 H 0.2777 0.36677 0.01168 0.0
C786 C 0.14493 0.27492 0.06801 0.0
C787 C 0.16983 0.30664 0.07527 0.0
C788 C 0.15347 0.2665 0.0545 0.0
C789 C 0.18733 0.28926 0.04809 0.0
C790 C 0.21168 0.32147 0.05513 0.0
C791 C 0.20304 0.3301 0.06852 0.0
C792 C 0.19812 0.27917 0.03433 0.0
C793 C 0.21188 0.30451 0.02305 0.0
C794 C 0.19565 0.24509 0.03238 0.0
C795 C 0.18406 0.21802 0.04412 0.0
C796 C 0.20251 0.22699 0.05736 0.0
C797 C 0.19133 0.2014 0.0684 0.0
C798 C 0.16193 0.16665 0.0663 0.0
C799 C 0.14371 0.15738 0.05313 0.0
C800 C 0.15475 0.18289 0.04205 0.0
C801 C 0.28547 0.26294 0.97992 0.0
C802 C 0.26299 0.23098 0.97225 0.0
C803 C 0.27145 0.27414 0.99118 0.0
C804 C 0.23473 0.25355 0.99501 0.0
C805 C 0.21199 0.22251 0.98698 0.0
C806 C 0.22589 0.21148 0.97568 0.0
C807 C 0.22064 0.26265 0.00806 0.0
C808 C 0.20639 0.23713 0.01923 0.0
C809 C 0.22316 0.29671 0.00996 0.0
C810 C 0.23678 0.32432 0.99838 0.0
C811 C 0.22118 0.31576 0.98458 0.0
C812 C 0.23422 0.34188 0.9737 0.0
C813 C 0.26272 0.37673 0.97651 0.0
C814 C 0.27819 0.38557 0.99022 0.0
C815 C 0.26527 0.35954 1.00114 0.0
H816 H 0.27277 0.39691 0.96808 0.0
H817 H 0.15333 0.14687 0.07486 0.0
H818 H 0.86893 0.10629 0.24052 0.0
H819 H 0.89907 0.12037 0.21703 0.0
H820 H 0.89499 0.21922 0.21528 0.0
H821 H 0.86406 0.2049 0.23842 0.0
H822 H 0.88214 0.19073 0.18965 0.0
H823 H 0.97251 0.21682 0.22584 0.0
H824 H 1.00031 0.20344 0.24644 0.0
H825 H 0.00469 0.12038 0.22195 0.0
H826 H 0.97646 0.13298 0.20125 0.0
H827 H 0.03455 0.29812 0.14353 0.0
H828 H 0.98936 0.27182 0.16279 0.0
H829 H 0.98713 0.17031 0.15796 0.0
H830 H 0.03191 0.19615 0.1387 0.0
H831 H 1.00042 0.19558 0.18588 0.0
H832 H 0.91482 0.17529 0.14864 0.0
H833 H 0.88907 0.19185 0.12826 0.0
H834 H 0.87831 0.26803 0.15499 0.0
H835 H 0.90449 0.25229 0.17549 0.0
C836 C 0.87414 0.13085 0.23507 0.0
C837 C 0.86425 0.15455 0.24145 0.0
C838 C 0.89155 0.13898 0.22165 0.0
C839 C 0.89992 0.17122 0.21444 0.0
C840 C 0.88893 0.19422 0.22058 0.0
C841 C 0.8713 0.18599 0.23389 0.0
C842 C 0.92132 0.18194 0.20082 0.0
C843 C 0.90813 0.19204 0.18887 0.0
C844 C 0.95502 0.18316 0.19964 0.0
C845 C 0.97199 0.17555 0.21206 0.0
C846 C 0.97914 0.19551 0.22489 0.0
C847 C 0.99502 0.1881 0.23657 0.0
C848 C 0.00415 0.161 0.23552 0.0
C849 C 0.99752 0.14131 0.22276 0.0
C850 C 0.98161 0.14858 0.21105 0.0
C851 C 0.02381 0.26995 0.14633 0.0
C852 C 0.03698 0.24932 0.13958 0.0
C853 C 0.99797 0.25495 0.15735 0.0
C854 C 0.98495 0.2191 0.16186 0.0
C855 C 0.99687 0.19803 0.1547 0.0
C856 C 0.02239 0.21286 0.14362 0.0
C857 C 0.96133 0.20455 0.17478 0.0
C858 C 0.97423 0.19388 0.1866 0.0
C859 C 0.92765 0.20328 0.17588 0.0
C860 C 0.91195 0.21284 0.16357 0.0
C861 C 0.90728 0.19581 0.15014 0.0
C862 C 0.89253 0.205 0.13858 0.0
C863 C 0.88214 0.23104 0.14032 0.0
C864 C 0.88641 0.24789 0.15365 0.0
C865 C 0.90116 0.23882 0.16525 0.0
H866 H 0.87072 0.23811 0.13135 0.0
H867 H 0.01645 0.15531 0.24457 0.0
H868 H 0.73117 0.02377 0.30838 0.0
H869 H 0.70803 0.97848 0.3276 0.0
H870 H 0.80614 0.97287 0.32606 0.0
H871 H 0.82885 0.01709 0.3066 0.0
H872 H 0.75163 0.90834 0.33194 0.0
H873 H 0.79457 0.02811 0.35038 0.0
H874 H 0.79786 0.08731 0.35223 0.0
H875 H 0.68559 0.0347 0.36409 0.0
H876 H 0.68152 0.97513 0.36211 0.0
H877 H 0.75645 0.85732 0.40531 0.0
H878 H 0.76826 0.88672 0.38172 0.0
H879 H 0.66423 0.88034 0.38303 0.0
H880 H 0.65219 0.85108 0.40652 0.0
H881 H 0.71855 0.94821 0.37676 0.0
H882 H 0.67894 0.82748 0.36018 0.0
H883 H 0.67919 0.76992 0.359 0.0
H884 H 0.78961 0.82631 0.34459 0.0
H885 H 0.79019 0.8843 0.34588 0.0
C886 C 0.74746 0.01229 0.31191 0.0
C887 C 0.78202 0.02436 0.30603 0.0
C888 C 0.73432 0.98656 0.32298 0.0
C889 C 0.75571 0.97286 0.32856 0.0
C890 C 0.78916 0.9831 0.32203 0.0
C891 C 0.80215 0.00851 0.31088 0.0
C892 C 0.7447 0.95015 0.34182 0.0
C893 C 0.74462 0.91718 0.34176 0.0
C894 C 0.73523 0.9614 0.35466 0.0
C895 C 0.73764 0.99717 0.35594 0.0
C896 C 0.77052 0.02917 0.35328 0.0
C897 C 0.77254 0.06278 0.35437 0.0
C898 C 0.74192 0.06476 0.35824 0.0
C899 C 0.70926 0.03312 0.36107 0.0
C900 C 0.70709 0.99943 0.35997 0.0
C901 C 0.73587 0.86171 0.4005 0.0
C902 C 0.70342 0.85191 0.40788 0.0
C903 C 0.74263 0.87845 0.38698 0.0
C904 C 0.71709 0.88569 0.38057 0.0
C905 C 0.68435 0.87509 0.38775 0.0
C906 C 0.6775 0.85824 0.4012 0.0
C907 C 0.72534 0.90637 0.36686 0.0
C908 C 0.72514 0.93914 0.36689 0.0
C909 C 0.73503 0.89514 0.3541 0.0
C910 C 0.7347 0.86028 0.35326 0.0
C911 C 0.70337 0.82765 0.35687 0.0
C912 C 0.70334 0.79493 0.35616 0.0
C913 C 0.73442 0.79446 0.35176 0.0
C914 C 0.76557 0.82671 0.34802 0.0
C915 C 0.76575 0.85951 0.34872 0.0
H916 H 0.73435 0.76911 0.35121 0.0
H917 H 0.74353 0.0908 0.35908 0.0
H918 H 0.80283 0.647 0.57262 0.0
H919 H 0.78633 0.66233 0.54966 0.0
H920 H 0.88515 0.76547 0.54993 0.0
H921 H 0.9016 0.75061 0.57312 0.0
H922 H 0.82965 0.77425 0.54372 0.0
H923 H 0.87193 0.69639 0.52647 0.0
H924 H 0.87598 0.64084 0.5253 0.0
H925 H 0.76339 0.57914 0.51419 0.0
H926 H 0.75854 0.63426 0.51548 0.0
H927 H 0.81368 0.82461 0.47315 0.0
H928 H 0.83592 0.80315 0.49282 0.0
H929 H 0.73024 0.70881 0.49745 0.0
H930 H 0.70746 0.73033 0.47779 0.0
H931 H 0.79049 0.69543 0.50047 0.0
H932 H 0.7479 0.77265 0.51892 0.0
H933 H 0.74375 0.82815 0.51993 0.0
H934 H 0.85757 0.89098 0.52878 0.0
H935 H 0.86251 0.83586 0.52757 0.0
C936 C 0.82135 0.67281 0.56775 0.0
C937 C 0.85358 0.69758 0.57478 0.0
C938 C 0.8119 0.68148 0.55454 0.0
C939 C 0.83459 0.71497 0.54795 0.0
C940 C 0.86717 0.73946 0.55478 0.0
C941 C 0.87662 0.73085 0.56803 0.0
C942 C 0.8233 0.72518 0.53438 0.0
C943 C 0.82175 0.75727 0.5342 0.0
C944 C 0.81197 0.70263 0.52203 0.0
C945 C 0.8148 0.66943 0.5212 0.0
C946 C 0.84796 0.67093 0.52389 0.0
C947 C 0.85041 0.63952 0.52318 0.0
C948 C 0.81994 0.60646 0.51971 0.0
C949 C 0.78697 0.60476 0.5169 0.0
C950 C 0.78436 0.63609 0.5176 0.0
C951 C 0.79523 0.79894 0.47813 0.0
C952 C 0.75868 0.7793 0.47393 0.0
C953 C 0.80802 0.78678 0.48942 0.0
C954 C 0.78465 0.7546 0.49669 0.0
C955 C 0.74871 0.73374 0.49198 0.0
C956 C 0.73574 0.7461 0.48075 0.0
C957 C 0.79712 0.74442 0.50988 0.0
C958 C 0.79871 0.71239 0.51 0.0
C959 C 0.80854 0.767 0.52219 0.0
C960 C 0.80565 0.80018 0.52299 0.0
C961 C 0.77211 0.79834 0.52095 0.0
C962 C 0.7696 0.82972 0.52158 0.0
C963 C 0.80038 0.86309 0.52438 0.0
C964 C 0.83375 0.86512 0.52658 0.0
C965 C 0.83642 0.83381 0.52593 0.0
H966 H 0.79837 0.88735 0.52488 0.0
H967 H 0.8219 0.58218 0.51917 0.0
H968 H 0.20018 0.84192 0.72996 0.0
H969 H 0.17162 0.82565 0.70624 0.0
H970 H 0.09188 0.85305 0.72044 0.0
H971 H 0.1221 0.87182 0.74373 0.0
H972 H 0.11351 0.77605 0.69809 0.0
H973 H 0.05064 0.86994 0.69415 0.0
H974 H 0.06695 0.93245 0.70036 0.0
H975 H 0.17968 0.96458 0.69933 0.0
H976 H 0.1641 0.90239 0.69293 0.0
H977 H 0.96173 0.69765 0.6526 0.0
H978 H 0.00766 0.72414 0.67133 0.0
H979 H 0.0638 0.82308 0.64682 0.0
H980 H 0.01623 0.79729 0.62854 0.0
H981 H 0.06312 0.84175 0.67172 0.0
H982 H 0.09737 0.7604 0.65296 0.0
H983 H 0.09041 0.70277 0.64416 0.0
H984 H 0.05217 0.65482 0.68574 0.0
H985 H 0.05842 0.71202 0.69475 0.0
C986 C 0.17707 0.84528 0.72785 0.0
C987 C 0.16357 0.85847 0.73863 0.0
C988 C 0.16055 0.83572 0.71432 0.0
C989 C 0.12957 0.83826 0.71135 0.0
C990 C 0.1163 0.85176 0.72215 0.0
C991 C 0.13351 0.86238 0.73554 0.0
C992 C 0.10983 0.8246 0.69739 0.0
C993 C 0.1028 0.79066 0.69228 0.0
C994 C 0.09653 0.84382 0.68944 0.0
C995 C 0.10615 0.88139 0.69317 0.0
C996 C 0.07891 0.89037 0.69518 0.0
C997 C 0.08803 0.92575 0.69875 0.0
C998 C 0.12432 0.95245 0.70028 0.0
C999 C 0.15158 0.94385 0.69819 0.0
C1000 C 0.14262 0.90853 0.69461 0.0
C1001 C 0.9843 0.72476 0.65106 0.0
C1002 C 0.98548 0.74533 0.63907 0.0
C1003 C 0.01076 0.73995 0.66179 0.0
C1004 C 0.03976 0.77566 0.66054 0.0
C1005 C 0.04176 0.7956 0.64817 0.0
C1006 C 0.01471 0.78075 0.63764 0.0
C1007 C 0.06626 0.79293 0.67258 0.0
C1008 C 0.07436 0.82743 0.67738 0.0
C1009 C 0.082 0.775 0.67985 0.0
C1010 C 0.07813 0.74047 0.6745 0.0
C1011 C 0.08724 0.7375 0.6602 0.0
C1012 C 0.08346 0.70492 0.65518 0.0
C1013 C 0.07079 0.67514 0.66437 0.0
C1014 C 0.06195 0.67791 0.67862 0.0
C1015 C 0.06566 0.71042 0.6837 0.0
H1016 H 0.06788 0.64993 0.66046 0.0
H1017 H 0.13132 0.97981 0.70305 0.0
H1018 H 0.26692 0.15824 0.9036 0.0
H1019 H 0.25201 0.12836 0.88009 0.0
H1020 H 0.34893 0.12061 0.88155 0.0
H1021 H 0.36454 0.15132 0.90476 0.0
H1022 H 0.33861 0.13466 0.85506 0.0
H1023 H 0.26432 0.04884 0.89125 0.0
H1024 H 0.2205 0.02561 0.91128 0.0
H1025 H 0.1406 0.02974 0.88457 0.0
H1026 H 0.18414 0.05345 0.86443 0.0
H1027 H 0.28455 0.97953 0.8097 0.0
H1028 H 0.3053 0.02515 0.82881 0.0
H1029 H 0.21069 0.03546 0.82277 0.0
H1030 H 0.18978 0.98999 0.80374 0.0
H1031 H 0.21908 0.02298 0.85061 0.0
H1032 H 0.29367 0.10395 0.81352 0.0
H1033 H 0.33824 0.12534 0.79376 0.0
H1034 H 0.41843 0.12794 0.82238 0.0
H1035 H 0.37418 0.10607 0.84227 0.0
C1036 C 0.2853 0.1506 0.89883 0.0
C1037 C 0.31678 0.15695 0.90617 0.0
C1038 C 0.27665 0.13333 0.88541 0.0
C1039 C 0.29897 0.12152 0.87913 0.0
C1040 C 0.33119 0.1293 0.88614 0.0
C1041 C 0.34002 0.14683 0.89948 0.0
C1042 C 0.28803 0.09948 0.86568 0.0
C1043 C 0.31257 0.11009 0.85413 0.0
C1044 C 0.25385 0.06766 0.86432 0.0
C1045 C 0.2276 0.0533 0.87639 0.0
C1046 C 0.23749 0.04504 0.88968 0.0
C1047 C 0.21269 0.03175 0.90105 0.0
C1048 C 0.17782 0.02631 0.89921 0.0
C1049 C 0.16764 0.03404 0.88598 0.0
C1050 C 0.19236 0.04739 0.87459 0.0
C1051 C 0.26854 0.99205 0.81223 0.0
C1052 C 0.23542 0.98096 0.80521 0.0
C1053 C 0.28046 0.01818 0.82316 0.0
C1054 C 0.25953 0.03375 0.82725 0.0
C1055 C 0.22724 0.02377 0.81984 0.0
C1056 C 0.2154 0.99782 0.8089 0.0
C1057 C 0.26965 0.05809 0.83999 0.0
C1058 C 0.24498 0.04776 0.85145 0.0
C1059 C 0.30381 0.08989 0.8413 0.0
C1060 C 0.33048 0.10304 0.82936 0.0
C1061 C 0.32071 0.10878 0.81557 0.0
C1062 C 0.34594 0.12106 0.80435 0.0
C1063 C 0.38112 0.12791 0.8068 0.0
C1064 C 0.39116 0.12258 0.82049 0.0
C1065 C 0.36602 0.11028 0.83175 0.0
H1066 H 0.40061 0.13743 0.7981 0.0
H1067 H 0.15866 0.01602 0.90802 0.0
H1068 H 0.65979 0.80433 0.81065 0.0
H1069 H 0.67576 0.78922 0.83372 0.0
H1070 H 0.77911 0.88777 0.83246 0.0
H1071 H 0.76361 0.90274 0.80905 0.0
H1072 H 0.7884 0.83336 0.83899 0.0
H1073 H 0.71097 0.87491 0.8568 0.0
H1074 H 0.65576 0.87955 0.8584 0.0
H1075 H 0.59345 0.76693 0.86932 0.0
H1076 H 0.6482 0.76148 0.86758 0.0
H1077 H 0.83743 0.80667 0.90828 0.0
H1078 H 0.81724 0.83313 0.88977 0.0
H1079 H 0.71997 0.73035 0.88377 0.0
H1080 H 0.74007 0.70343 0.90231 0.0
H1081 H 0.70913 0.79138 0.88212 0.0
H1082 H 0.78669 0.75001 0.86224 0.0
H1083 H 0.84245 0.74627 0.86095 0.0
H1084 H 0.90523 0.86097 0.85417 0.0
H1085 H 0.84986 0.86546 0.85566 0.0
C1086 C 0.68576 0.82315 0.81533 0.0
C1087 C 0.71044 0.85477 0.80792 0.0
C1088 C 0.69479 0.81452 0.82862 0.0
C1089 C 0.72854 0.83747 0.83497 0.0
C1090 C 0.75288 0.86961 0.82781 0.0
C1091 C 0.74392 0.87823 0.81444 0.0
C1092 C 0.73923 0.82645 0.84849 0.0
C1093 C 0.77137 0.82494 0.8485 0.0
C1094 C 0.7167 0.81458 0.86086 0.0
C1095 C 0.68368 0.81773 0.86195 0.0
C1096 C 0.68545 0.85106 0.85944 0.0
C1097 C 0.65424 0.85385 0.86039 0.0
C1098 C 0.62111 0.82354 0.86393 0.0
C1099 C 0.61913 0.79039 0.86656 0.0
C1100 C 0.65026 0.78744 0.86562 0.0
C1101 C 0.81138 0.78976 0.90326 0.0
C1102 C 0.79051 0.75279 0.90671 0.0
C1103 C 0.79994 0.80497 0.89264 0.0
C1104 C 0.76737 0.7836 0.88525 0.0
C1105 C 0.74525 0.74731 0.88933 0.0
C1106 C 0.7568 0.73196 0.89992 0.0
C1107 C 0.75806 0.79832 0.87249 0.0
C1108 C 0.72623 0.8003 0.87262 0.0
C1109 C 0.78092 0.81084 0.86026 0.0
C1110 C 0.81419 0.80813 0.85923 0.0
C1111 C 0.81242 0.77448 0.8606 0.0
C1112 C 0.84394 0.77221 0.85981 0.0
C1113 C 0.87737 0.80337 0.85752 0.0
C1114 C 0.87933 0.83686 0.85597 0.0
C1115 C 0.84788 0.83928 0.85678 0.0
H1116 H 0.90175 0.80156 0.85691 0.0
H1117 H 0.59698 0.82576 0.86466 0.0
H1118 H 0.87078 0.64513 0.97103 0.0
H1119 H 0.90112 0.65938 0.99428 0.0
H1120 H 0.90229 0.76097 0.99507 0.0
H1121 H 0.87264 0.74728 0.97151 0.0
H1122 H 0.96586 0.7714 1.00277 0.0
H1123 H 0.84452 0.68797 0.01698 0.0
H1124 H 0.78579 0.63124 0.01645 0.0
H1125 H 0.8383 0.57098 0.0273 0.0
H1126 H 0.89745 0.62733 0.0277 0.0
H1127 H 0.02367 0.81296 0.07456 0.0
H1128 H 0.98093 0.79246 0.05455 0.0
H1129 H 0.99706 0.70158 0.04795 0.0
H1130 H 0.04029 0.72208 0.06796 0.0
H1131 H 0.92293 0.68607 0.04401 0.0
H1132 H 0.04478 0.77084 0.02874 0.0
H1133 H 0.10243 0.82848 0.03051 0.0
H1134 H 0.04701 0.88723 0.02217 0.0
H1135 H 0.98886 0.82992 0.02068 0.0
C1136 C 0.87715 0.67042 0.97617 0.0
C1137 C 0.86915 0.69503 0.96936 0.0
C1138 C 0.89441 0.67846 0.98955 0.0
C1139 C 0.90365 0.71107 0.99659 0.0
C1140 C 0.8954 0.73559 0.98989 0.0
C1141 C 0.87832 0.72767 0.97643 0.0
C1142 C 0.92325 0.72012 0.01061 0.0
C1143 C 0.95606 0.75294 0.01184 0.0
C1144 C 0.91101 0.69581 0.02243 0.0
C1145 C 0.87547 0.66186 0.02224 0.0
C1146 C 0.84359 0.6626 0.01915 0.0
C1147 C 0.81022 0.63051 0.01889 0.0
C1148 C 0.80833 0.59752 0.02181 0.0
C1149 C 0.83981 0.59656 0.02503 0.0
C1150 C 0.87327 0.62857 0.02529 0.0
C1151 C 0.01759 0.78814 0.06909 0.0
C1152 C 0.0357 0.76934 0.0728 0.0
C1153 C 0.99319 0.77653 0.05762 0.0
C1154 C 0.98624 0.74581 0.04964 0.0
C1155 C 1.00214 0.72542 0.05396 0.0
C1156 C 0.02684 0.73718 0.0654 0.0
C1157 C 0.96523 0.73714 0.03605 0.0
C1158 C 0.9324 0.70447 0.03491 0.0
C1159 C 0.97728 0.76164 0.02434 0.0
C1160 C 0.01239 0.79609 0.02477 0.0
C1161 C 0.04484 0.79605 0.02739 0.0
C1162 C 0.07761 0.82866 0.02835 0.0
C1163 C 0.07835 0.8615 0.02653 0.0
C1164 C 0.04637 0.86177 0.02363 0.0
C1165 C 0.01349 0.82923 0.02273 0.0
H1166 H 0.10373 0.88672 0.02732 0.0
H1167 H 0.78247 0.57271 0.0216 0.0
H1168 H 0.21811 0.85247 0.13968 0.0
H1169 H 0.23446 0.88536 0.16244 0.0
H1170 H 0.13599 0.89031 0.16138 0.0
H1171 H 0.11965 0.85786 0.13842 0.0
H1172 H 0.19257 0.95507 0.16604 0.0
H1173 H 0.14961 0.83758 0.18627 0.0
H1174 H 0.14533 0.77814 0.18904 0.0
H1175 H 0.25805 0.83016 0.20001 0.0
H1176 H 0.26316 0.88996 0.19712 0.0
H1177 H 0.21224 0.03277 0.2352 0.0
H1178 H 0.18998 0.99002 0.21515 0.0
H1179 H 0.29171 0.99159 0.21347 0.0
H1180 H 0.31448 0.03492 0.2335 0.0
H1181 H 0.2321 0.92182 0.21083 0.0
H1182 H 0.27703 0.03741 0.18842 0.0
H1183 H 0.28515 0.09717 0.18222 0.0
H1184 H 0.17123 0.04896 0.17413 0.0
H1185 H 0.16242 0.98886 0.18028 0.0
C1186 C 0.1996 0.86007 0.14436 0.0
C1187 C 0.1676 0.85263 0.13714 0.0
C1188 C 0.20894 0.87874 0.15746 0.0
C1189 C 0.18638 0.89016 0.16372 0.0
C1190 C 0.15385 0.88176 0.15677 0.0
C1191 C 0.14449 0.86312 0.14365 0.0
C1192 C 0.19822 0.91356 0.17679 0.0
C1193 C 0.20039 0.94737 0.17595 0.0
C1194 C 0.20985 0.90421 0.18954 0.0
C1195 C 0.20683 0.86828 0.19136 0.0
C1196 C 0.17356 0.83636 0.18917 0.0
C1197 C 0.17097 0.8026 0.19078 0.0
C1198 C 0.20142 0.80038 0.19467 0.0
C1199 C 0.2345 0.83192 0.19699 0.0
C1200 C 0.23725 0.86576 0.19538 0.0
C1201 C 0.22983 0.02378 0.23069 0.0
C1202 C 0.26518 0.03726 0.23599 0.0
C1203 C 0.2171 0.9995 0.21915 0.0
C1204 C 0.23927 0.98785 0.2127 0.0
C1205 C 0.27415 1.00027 0.21826 0.0
C1206 C 0.28712 0.025 0.22971 0.0
C1207 C 0.22605 0.96312 0.20006 0.0
C1208 C 0.22377 0.9292 0.20097 0.0
C1209 C 0.21443 0.97234 0.1873 0.0
C1210 C 0.21903 0.00873 0.18495 0.0
C1211 C 0.25362 0.03964 0.18555 0.0
C1212 C 0.25839 0.07352 0.18193 0.0
C1213 C 0.22874 0.0768 0.17771 0.0
C1214 C 0.19418 0.04633 0.17734 0.0
C1215 C 0.18929 0.01236 0.18088 0.0
H1216 H 0.23254 0.10298 0.17473 0.0
H1217 H 0.19936 0.77421 0.1959 0.0
H1218 H 0.26304 0.10092 0.30795 0.0
H1219 H 0.24751 0.11504 0.33152 0.0
H1220 H 0.34923 0.2154 0.33248 0.0
H1221 H 0.36539 0.20104 0.30923 0.0
H1222 H 0.3339 0.18844 0.35852 0.0
H1223 H 0.26885 0.21048 0.32132 0.0
H1224 H 0.22775 0.19481 0.30054 0.0
H1225 H 0.14088 0.11242 0.32548 0.0
H1226 H 0.18164 0.12729 0.34636 0.0
H1227 H 0.28683 0.29714 0.40265 0.0
H1228 H 0.30647 0.26982 0.3841 0.0
H1229 H 0.20648 0.16882 0.38884 0.0
H1230 H 0.18671 0.19578 0.40733 0.0
H1231 H 0.21931 0.19138 0.36105 0.0
H1232 H 0.28509 0.17543 0.39931 0.0
H1233 H 0.32727 0.1942 0.41982 0.0
H1234 H 0.41404 0.26898 0.39267 0.0
H1235 H 0.37226 0.25103 0.37203 0.0
C1236 C 0.28235 0.12572 0.31328 0.0
C1237 C 0.31532 0.14998 0.30659 0.0
C1238 C 0.27335 0.13388 0.32673 0.0
C1239 C 0.29687 0.16669 0.33368 0.0
C1240 C 0.33054 0.18999 0.32736 0.0
C1241 C 0.33969 0.18174 0.31399 0.0
C1242 C 0.28575 0.17796 0.34705 0.0
C1243 C 0.30895 0.18929 0.35904 0.0
C1244 C 0.25294 0.17864 0.34786 0.0
C1245 C 0.22839 0.1697 0.33534 0.0
C1246 C 0.24106 0.18883 0.32233 0.0
C1247 C 0.21782 0.18013 0.31054 0.0
C1248 C 0.18176 0.15256 0.31168 0.0
C1249 C 0.16884 0.13371 0.32461 0.0
C1250 C 0.19199 0.14227 0.33643 0.0
C1251 C 0.26938 0.26889 0.39998 0.0
C1252 C 0.23513 0.24873 0.40645 0.0
C1253 C 0.28066 0.25328 0.38938 0.0
C1254 C 0.25791 0.21724 0.38505 0.0
C1255 C 0.22444 0.19666 0.39196 0.0
C1256 C 0.21325 0.21215 0.40259 0.0
C1257 C 0.2675 0.20199 0.3725 0.0
C1258 C 0.24405 0.19009 0.36062 0.0
C1259 C 0.30024 0.20124 0.37175 0.0
C1260 C 0.32544 0.2121 0.38415 0.0
C1261 C 0.31309 0.19611 0.39774 0.0
C1262 C 0.33695 0.20655 0.40938 0.0
C1263 C 0.37329 0.23282 0.40756 0.0
C1264 C 0.38587 0.24865 0.39407 0.0
C1265 C 0.36212 0.23832 0.38239 0.0
H1266 H 0.39172 0.24087 0.41659 0.0
H1267 H 0.16381 0.14586 0.30254 0.0
H1268 H 0.15473 0.25124 0.47136 0.0
H1269 H 0.12464 0.23486 0.49485 0.0
H1270 H 0.1275 0.33721 0.49675 0.0
H1271 H 0.15843 0.35416 0.47361 0.0
H1272 H 0.14081 0.32187 0.5223 0.0
H1273 H 0.05028 0.25668 0.48628 0.0
H1274 H 0.02266 0.21539 0.46567 0.0
H1275 H 0.01993 0.12859 0.48999 0.0
H1276 H 0.04799 0.16951 0.51068 0.0
H1277 H 0.98984 0.2751 0.5694 0.0
H1278 H 0.03451 0.29456 0.54993 0.0
H1279 H 0.03678 0.19509 0.55375 0.0
H1280 H 0.99236 0.17551 0.57317 0.0
H1281 H 0.02353 0.20745 0.52624 0.0
H1282 H 0.10954 0.27374 0.56331 0.0
H1283 H 0.13511 0.31618 0.58368 0.0
H1284 H 0.14371 0.40239 0.55712 0.0
H1285 H 0.1177 0.36033 0.53663 0.0
C1286 C 0.14924 0.27038 0.47684 0.0
C1287 C 0.15883 0.30392 0.47051 0.0
C1288 C 0.13186 0.26091 0.49025 0.0
C1289 C 0.12318 0.28454 0.49751 0.0
C1290 C 0.13381 0.31846 0.49141 0.0
C1291 C 0.15144 0.32806 0.4781 0.0
C1292 C 0.10192 0.27366 0.51117 0.0
C1293 C 0.11502 0.29697 0.52311 0.0
C1294 C 0.0685 0.24091 0.51238 0.0
C1295 C 0.05161 0.21625 0.49996 0.0
C1296 C 0.04404 0.22885 0.48719 0.0
C1297 C 0.02827 0.20551 0.4755 0.0
C1298 C 0.01965 0.16942 0.47651 0.0
C1299 C 0.02669 0.15657 0.48922 0.0
C1300 C 0.04251 0.17982 0.50093 0.0
C1301 C 1.00048 0.25774 0.56633 0.0
C1302 C 0.98738 0.22369 0.57283 0.0
C1303 C 0.02603 0.2689 0.55519 0.0
C1304 C 0.03895 0.24623 0.55034 0.0
C1305 C 0.02713 0.21298 0.55726 0.0
C1306 C 1.00181 0.20191 0.56843 0.0
C1307 C 0.06233 0.25571 0.53733 0.0
C1308 C 0.0495 0.23217 0.52547 0.0
C1309 C 0.09571 0.28843 0.53617 0.0
C1310 C 0.11135 0.31379 0.54847 0.0
C1311 C 0.11658 0.30167 0.56184 0.0
C1312 C 0.13122 0.32568 0.5734 0.0
C1313 C 0.14094 0.36194 0.5717 0.0
C1314 C 0.13613 0.37429 0.55842 0.0
C1315 C 0.12147 0.35038 0.54683 0.0
H1316 H 0.15228 0.38049 0.58067 0.0
H1317 H 0.00744 0.15139 0.46745 0.0
H1318 H 0.70213 0.94867 0.72759 0.0
H1319 H 0.72588 0.99052 0.70731 0.0
H1320 H 0.8278 0.05212 0.72946 0.0
H1321 H 0.80475 0.00883 0.74936 0.0
H1322 H 0.74887 0.05492 0.70088 0.0
H1323 H 0.898 0.08857 0.70675 0.0
H1324 H 0.93225 0.06062 0.71626 0.0
H1325 H 0.8396 0.95499 0.71033 0.0
H1326 H 0.80499 0.9823 0.70063 0.0
H1327 H 0.84421 0.18545 0.64755 0.0
H1328 H 0.8265 0.15436 0.67076 0.0
H1329 H 0.85135 0.07415 0.65488 0.0
H1330 H 0.87158 0.10681 0.63208 0.0
H1331 H 0.86735 0.08172 0.68066 0.0
H1332 H 0.76071 0.06305 0.6564 0.0
H1333 H 0.72057 0.0803 0.64394 0.0
H1334 H 0.71788 0.13721 0.68162 0.0
H1335 H 0.75838 0.12066 0.69424 0.0
C1336 C 0.72941 0.97147 0.72823 0.0
C1337 C 0.75167 0.97531 0.74002 0.0
C1338 C 0.74306 0.99544 0.7166 0.0
C1339 C 0.77907 0.02414 0.71659 0.0
C1340 C 0.80036 0.02959 0.72891 0.0
C1341 C 0.78704 0.00505 0.74038 0.0
C1342 C 0.79463 0.04704 0.70345 0.0
C1343 C 0.77484 0.06083 0.69651 0.0
C1344 C 0.82812 0.0542 0.6974 0.0
C1345 C 0.84881 0.03752 0.70313 0.0
C1346 C 0.88499 0.05939 0.70745 0.0
C1347 C 0.90446 0.04366 0.71287 0.0
C1348 C 0.88807 0.00606 0.71395 0.0
C1349 C 0.85222 0.98411 0.70955 0.0
C1350 C 0.83266 0.9997 0.70409 0.0
C1351 C 0.84641 0.16149 0.64913 0.0
C1352 C 0.85918 0.14848 0.63801 0.0
C1353 C 0.83591 0.14346 0.66236 0.0
C1354 C 0.83646 0.11113 0.66455 0.0
C1355 C 0.85049 0.09891 0.65357 0.0
C1356 C 0.86207 0.11759 0.6405 0.0
C1357 C 0.8215 0.08945 0.67802 0.0
C1358 C 0.84146 0.07599 0.68506 0.0
C1359 C 0.78729 0.08102 0.68373 0.0
C1360 C 0.76286 0.09094 0.6762 0.0
C1361 C 0.75173 0.07944 0.66199 0.0
C1362 C 0.7289 0.08907 0.65491 0.0
C1363 C 0.71676 0.10993 0.66197 0.0
C1364 C 0.72735 0.12111 0.67616 0.0
C1365 C 0.75022 0.11159 0.68328 0.0
H1366 H 0.69909 0.11736 0.65647 0.0
H1367 H 0.90317 0.99394 0.71816 0.0
loop_
_geom_bond_atom_site_label_1
_geom_bond_atom_site_label_2
_geom_bond_distance
_geom_bond_site_symmetry_2
_ccdc_geom_bond_type
O0 Cd1 2.223 . S
O0 C8 1.315 . S
Cd1 O0 2.223 . S
Cd1 O4 2.297 . S
Cd1 O5 2.439 . S
Cd1 O11 2.240 . S
Cd2 O3 2.240 . S
Cd2 O10 2.223 . S
Cd2 O12 2.297 . S
Cd2 O13 2.439 . S
O3 Cd2 2.240 . S
O3 C8 1.279 . S
O4 Cd1 2.297 . S
O4 C6 1.247 . S
O5 Cd1 2.439 . S
O5 C6 1.208 . S
C6 O4 1.247 . S
C6 O5 1.208 . S
C7 O12 1.247 . S
C7 O13 1.208 . S
C8 O0 1.315 . S
C8 O3 1.279 . S
C9 O10 1.315 . S
C9 O11 1.279 . S
O10 Cd2 2.223 . S
O10 C9 1.315 . S
O11 Cd1 2.240 . S
O11 C9 1.279 . S
O12 Cd2 2.297 . S
O12 C7 1.247 . S
O13 Cd2 2.439 . S
O13 C7 1.208 . S
O14 Cd15 2.223 . S
O14 C22 1.315 . S
Cd15 O14 2.223 . S
Cd15 O18 2.297 . S
Cd15 O19 2.439 . S
Cd15 O25 2.240 . S
Cd16 O17 2.240 . S
Cd16 O24 2.223 . S
Cd16 O26 2.297 . S
Cd16 O27 2.439 . S
O17 Cd16 2.240 . S
O17 C22 1.279 . S
O18 Cd15 2.297 . S
O18 C20 1.247 . S
O19 Cd15 2.439 . S
O19 C20 1.208 . S
C20 O18 1.247 . S
C20 O19 1.208 . S
C21 O26 1.247 . S
C21 O27 1.208 . S
C22 O14 1.315 . S
C22 O17 1.279 . S
C23 O24 1.315 . S
C23 O25 1.279 . S
O24 Cd16 2.223 . S
O24 C23 1.315 . S
O25 Cd15 2.240 . S
O25 C23 1.279 . S
O26 Cd16 2.297 . S
O26 C21 1.247 . S
O27 Cd16 2.439 . S
O27 C21 1.208 . S
O28 Cd29 2.223 . S
O28 C36 1.315 . S
Cd29 O28 2.223 . S
Cd29 O32 2.297 . S
Cd29 O33 2.439 . S
Cd29 O39 2.240 . S
Cd30 O31 2.240 . S
Cd30 O38 2.223 . S
Cd30 O40 2.297 . S
Cd30 O41 2.439 . S
O31 Cd30 2.240 . S
O31 C36 1.279 . S
O32 Cd29 2.297 . S
O32 C34 1.247 . S
O33 Cd29 2.439 . S
O33 C34 1.208 . S
C34 O32 1.247 . S
C34 O33 1.208 . S
C35 O40 1.247 . S
C35 O41 1.208 . S
C36 O28 1.315 . S
C36 O31 1.279 . S
C37 O38 1.315 . S
C37 O39 1.279 . S
O38 Cd30 2.223 . S
O38 C37 1.315 . S
O39 Cd29 2.240 . S
O39 C37 1.279 . S
O40 Cd30 2.297 . S
O40 C35 1.247 . S
O41 Cd30 2.439 . S
O41 C35 1.208 . S
O42 Cd43 2.223 . S
O42 C50 1.315 . S
Cd43 O42 2.223 . S
Cd43 O46 2.297 . S
Cd43 O47 2.439 . S
Cd43 O53 2.240 . S
Cd44 O45 2.240 . S
Cd44 O52 2.223 . S
Cd44 O54 2.297 . S
Cd44 O55 2.439 . S
O45 Cd44 2.240 . S
O45 C50 1.279 . S
O46 Cd43 2.297 . S
O46 C48 1.247 . S
O47 Cd43 2.439 . S
O47 C48 1.208 . S
C48 O46 1.247 . S
C48 O47 1.208 . S
C49 O54 1.247 . S
C49 O55 1.208 . S
C50 O42 1.315 . S
C50 O45 1.279 . S
C51 O52 1.315 . S
C51 O53 1.279 . S
O52 Cd44 2.223 . S
O52 C51 1.315 . S
O53 Cd43 2.240 . S
O53 C51 1.279 . S
O54 Cd44 2.297 . S
O54 C49 1.247 . S
O55 Cd44 2.439 . S
O55 C49 1.208 . S
O56 Cd57 2.223 . S
O56 C64 1.315 . S
Cd57 O56 2.223 . S
Cd57 O60 2.297 . S
Cd57 O61 2.439 . S
Cd57 O67 2.240 . S
Cd58 O59 2.240 . S
Cd58 O66 2.223 . S
Cd58 O68 2.297 . S
Cd58 O69 2.439 . S
O59 Cd58 2.240 . S
O59 C64 1.279 . S
O60 Cd57 2.297 . S
O60 C62 1.247 . S
O61 Cd57 2.439 . S
O61 C62 1.208 . S
C62 O60 1.247 . S
C62 O61 1.208 . S
C63 O68 1.247 . S
C63 O69 1.208 . S
C64 O56 1.315 . S
C64 O59 1.279 . S
C65 O66 1.315 . S
C65 O67 1.279 . S
O66 Cd58 2.223 . S
O66 C65 1.315 . S
O67 Cd57 2.240 . S
O67 C65 1.279 . S
O68 Cd58 2.297 . S
O68 C63 1.247 . S
O69 Cd58 2.439 . S
O69 C63 1.208 . S
O70 Cd71 2.223 . S
O70 C78 1.315 . S
Cd71 O70 2.223 . S
Cd71 O74 2.297 . S
Cd71 O75 2.439 . S
Cd71 O81 2.240 . S
Cd72 O73 2.240 . S
Cd72 O80 2.223 . S
Cd72 O82 2.242 1_556 S
Cd72 O83 2.439 . S
O73 Cd72 2.240 . S
O73 C78 1.279 . S
O74 Cd71 2.297 . S
O74 C76 1.247 . S
O75 Cd71 2.439 . S
O75 C76 1.208 . S
C76 O74 1.247 . S
C76 O75 1.208 . S
C77 O82 1.261 . S
C77 O83 1.208 1_554 S
C78 O70 1.315 . S
C78 O73 1.279 . S
C79 O80 1.315 . S
C79 O81 1.279 . S
O80 Cd72 2.223 . S
O80 C79 1.315 . S
O81 Cd71 2.240 . S
O81 C79 1.279 . S
O82 Cd72 2.242 1_554 S
O82 C77 1.261 . S
O83 Cd72 2.439 . S
O83 C77 1.208 1_556 S
O84 Cd85 2.223 . S
O84 C92 1.315 . S
Cd85 O84 2.223 . S
Cd85 O88 2.297 . S
Cd85 O89 2.439 . S
Cd85 O95 2.240 . S
Cd86 O87 2.240 . S
Cd86 O94 2.223 . S
Cd86 O96 2.297 . S
Cd86 O97 2.439 . S
O87 Cd86 2.240 . S
O87 C92 1.279 . S
O88 Cd85 2.297 . S
O88 C90 1.247 . S
O89 Cd85 2.439 . S
O89 C90 1.208 . S
C90 O88 1.247 . S
C90 O89 1.208 . S
C91 O96 1.247 . S
C91 O97 1.208 . S
C92 O84 1.315 . S
C92 O87 1.279 . S
C93 O94 1.315 . S
C93 O95 1.279 . S
O94 Cd86 2.223 . S
O94 C93 1.315 . S
O95 Cd85 2.240 . S
O95 C93 1.279 . S
O96 Cd86 2.297 . S
O96 C91 1.247 . S
O97 Cd86 2.439 . S
O97 C91 1.208 . S
O98 Cd99 2.223 . S
O98 C106 1.315 . S
Cd99 O98 2.223 . S
Cd99 O102 2.297 . S
Cd99 O103 2.439 . S
Cd99 O109 2.240 . S
Cd100 O101 2.240 . S
Cd100 O108 2.223 . S
Cd100 O110 2.297 . S
Cd100 O111 2.439 . S
O101 Cd100 2.240 . S
O101 C106 1.279 . S
O102 Cd99 2.297 . S
O102 C104 1.247 . S
O103 Cd99 2.439 . S
O103 C104 1.208 . S
C104 O102 1.247 . S
C104 O103 1.208 . S
C105 O110 1.247 . S
C105 O111 1.208 . S
C106 O98 1.315 . S
C106 O101 1.279 . S
C107 O108 1.315 . S
C107 O109 1.279 . S
O108 Cd100 2.223 . S
O108 C107 1.315 . S
O109 Cd99 2.240 . S
O109 C107 1.279 . S
O110 Cd100 2.297 . S
O110 C105 1.247 . S
O111 Cd100 2.439 . S
O111 C105 1.208 . S
O112 Cd113 2.223 . S
O112 C120 1.315 . S
Cd113 O112 2.223 . S
Cd113 O116 2.297 . S
Cd113 O117 2.439 . S
Cd113 O123 2.240 . S
Cd114 O115 2.240 . S
Cd114 O122 2.223 . S
Cd114 O124 2.297 . S
Cd114 O125 2.439 . S
O115 Cd114 2.240 . S
O115 C120 1.279 . S
O116 Cd113 2.297 . S
O116 C118 1.247 . S
O117 Cd113 2.439 . S
O117 C118 1.208 . S
C118 O116 1.247 . S
C118 O117 1.208 . S
C119 O124 1.247 . S
C119 O125 1.208 . S
C120 O112 1.315 . S
C120 O115 1.279 . S
C121 O122 1.315 . S
C121 O123 1.279 . S
O122 Cd114 2.223 . S
O122 C121 1.315 . S
O123 Cd113 2.240 . S
O123 C121 1.279 . S
O124 Cd114 2.297 . S
O124 C119 1.247 . S
O125 Cd114 2.439 . S
O125 C119 1.208 . S
O126 Cd127 2.223 . S
O126 C134 1.315 . S
Cd127 O126 2.223 . S
Cd127 O130 2.297 . S
Cd127 O131 2.439 . S
Cd127 O137 2.240 . S
Cd128 O129 2.240 . S
Cd128 O136 2.223 . S
Cd128 O138 2.297 . S
Cd128 O139 2.439 . S
O129 Cd128 2.240 . S
O129 C134 1.279 . S
O130 Cd127 2.297 . S
O130 C132 1.247 . S
O131 Cd127 2.439 . S
O131 C132 1.208 . S
C132 O130 1.247 . S
C132 O131 1.208 . S
C133 O138 1.247 . S
C133 O139 1.208 . S
C134 O126 1.315 . S
C134 O129 1.279 . S
C135 O136 1.315 . S
C135 O137 1.279 . S
O136 Cd128 2.223 . S
O136 C135 1.315 . S
O137 Cd127 2.240 . S
O137 C135 1.279 . S
O138 Cd128 2.297 . S
O138 C133 1.247 . S
O139 Cd128 2.439 . S
O139 C133 1.208 . S
O140 Cd141 2.223 . S
O140 C148 1.315 . S
Cd141 O140 2.223 . S
Cd141 O144 2.297 . S
Cd141 O145 2.439 . S
Cd141 O151 2.240 . S
Cd142 O143 2.240 . S
Cd142 O150 2.223 . S
Cd142 O152 2.297 . S
Cd142 O153 2.439 . S
O143 Cd142 2.240 . S
O143 C148 1.279 . S
O144 Cd141 2.297 . S
O144 C146 1.247 . S
O145 Cd141 2.439 . S
O145 C146 1.208 . S
C146 O144 1.247 . S
C146 O145 1.208 . S
C147 O152 1.247 . S
C147 O153 1.208 . S
C148 O140 1.315 . S
C148 O143 1.279 . S
C149 O150 1.315 . S
C149 O151 1.279 . S
O150 Cd142 2.223 . S
O150 C149 1.315 . S
O151 Cd141 2.240 . S
O151 C149 1.279 . S
O152 Cd142 2.297 . S
O152 C147 1.247 . S
O153 Cd142 2.439 . S
O153 C147 1.208 . S
O154 Cd155 2.223 . S
O154 C162 1.315 . S
Cd155 O154 2.223 . S
Cd155 O158 2.297 . S
Cd155 O159 2.439 . S
Cd155 O165 2.240 . S
Cd156 O157 2.240 . S
Cd156 O164 2.223 . S
Cd156 O166 2.297 . S
Cd156 O167 2.439 . S
O157 Cd156 2.240 . S
O157 C162 1.279 . S
O158 Cd155 2.297 . S
O158 C160 1.247 . S
O159 Cd155 2.439 . S
O159 C160 1.208 . S
C160 O158 1.247 . S
C160 O159 1.208 . S
C161 O166 1.247 . S
C161 O167 1.208 . S
C162 O154 1.315 . S
C162 O157 1.279 . S
C163 O164 1.315 . S
C163 O165 1.279 . S
O164 Cd156 2.223 . S
O164 C163 1.315 . S
O165 Cd155 2.240 . S
O165 C163 1.279 . S
O166 Cd156 2.297 . S
O166 C161 1.247 . S
O167 Cd156 2.439 . S
O167 C161 1.208 . S
H168 C186 0.951 . S
H169 C188 0.951 . S
H170 C190 0.950 . S
H171 C191 0.950 . S
H172 C193 0.950 . S
H173 C196 0.950 . S
H174 C197 0.950 . S
H175 C199 0.950 . S
H176 C200 0.950 . S
H177 C201 0.951 . S
H178 C203 0.951 . S
H179 C205 0.950 . S
H180 C206 0.950 . S
H181 C208 0.950 . S
H182 C211 0.950 . S
H183 C212 0.950 . S
H184 C214 0.950 . S
H185 C215 0.950 . S
C186 H168 0.951 . S
C186 C187 1.366 . S
C186 C188 1.388 . S
C187 C186 1.366 . S
C187 C191 1.385 . S
C188 H169 0.951 . S
C188 C186 1.388 . S
C188 C189 1.366 . S
C189 C188 1.366 . S
C189 C190 1.414 . S
C189 C192 1.499 . S
C190 H170 0.950 . S
C190 C189 1.414 . S
C190 C191 1.374 . S
C191 H171 0.950 . S
C191 C187 1.385 . S
C191 C190 1.374 . S
C192 C189 1.499 . S
C192 C193 1.373 . S
C192 C194 1.389 . S
C193 H172 0.950 . S
C193 C192 1.373 . S
C193 C209 1.377 . S
C194 C192 1.389 . S
C194 C195 1.524 . S
C194 C208 1.377 . S
C195 C194 1.524 . S
C195 C196 1.397 . S
C195 C200 1.363 . S
C196 H173 0.950 . S
C196 C195 1.397 . S
C196 C197 1.334 . S
C197 H174 0.950 . S
C197 C196 1.334 . S
C197 C198 1.287 . S
C198 C197 1.287 . S
C198 C199 1.524 . S
C198 H217 0.913 . S
C199 H175 0.950 . S
C199 C198 1.524 . S
C199 C200 1.415 . S
C200 H176 0.950 . S
C200 C195 1.363 . S
C200 C199 1.415 . S
C201 H177 0.951 . S
C201 C202 1.366 . S
C201 C203 1.388 . S
C202 C201 1.366 . S
C202 C206 1.385 . S
C203 H178 0.951 . S
C203 C201 1.388 . S
C203 C204 1.366 . S
C204 C203 1.366 . S
C204 C205 1.414 . S
C204 C207 1.499 . S
C205 H179 0.950 . S
C205 C204 1.414 . S
C205 C206 1.374 . S
C206 H180 0.950 . S
C206 C202 1.385 . S
C206 C205 1.374 . S
C207 C204 1.499 . S
C207 C208 1.373 . S
C207 C209 1.389 . S
C208 H181 0.950 . S
C208 C194 1.377 . S
C208 C207 1.373 . S
C209 C193 1.377 . S
C209 C207 1.389 . S
C209 C210 1.524 . S
C210 C209 1.524 . S
C210 C211 1.397 . S
C210 C215 1.363 . S
C211 H182 0.950 . S
C211 C210 1.397 . S
C211 C212 1.334 . S
C212 H183 0.950 . S
C212 C211 1.334 . S
C212 C213 1.287 . S
C213 C212 1.287 . S
C213 C214 1.524 . S
C213 H216 0.999 1_455 S
C214 H184 0.950 . S
C214 C213 1.524 . S
C214 C215 1.415 . S
C215 H185 0.950 . S
C215 C210 1.363 . S
C215 C214 1.415 . S
H216 C213 0.999 1_655 S
H217 C198 0.913 . S
H218 C236 0.951 . S
H219 C238 0.951 . S
H220 C240 0.950 . S
H221 C241 0.950 . S
H222 C243 0.950 . S
H223 C246 0.950 . S
H224 C247 0.950 . S
H225 C249 0.950 . S
H226 C250 0.950 . S
H227 C251 0.951 . S
H228 C253 0.951 . S
H229 C255 0.950 . S
H230 C256 0.950 . S
H231 C258 0.950 . S
H232 C261 0.950 . S
H233 C262 0.950 1_565 S
H234 C264 0.950 . S
H235 C265 0.950 . S
C236 H218 0.951 . S
C236 C237 1.366 . S
C236 C238 1.388 . S
C237 C236 1.366 . S
C237 C241 1.385 . S
C238 H219 0.951 . S
C238 C236 1.388 . S
C238 C239 1.366 . S
C239 C238 1.366 . S
C239 C240 1.414 . S
C239 C242 1.499 . S
C240 H220 0.950 . S
C240 C239 1.414 . S
C240 C241 1.374 . S
C241 H221 0.950 . S
C241 C237 1.385 . S
C241 C240 1.374 . S
C242 C239 1.499 . S
C242 C243 1.373 . S
C242 C244 1.389 . S
C243 H222 0.950 . S
C243 C242 1.373 . S
C243 C259 1.377 . S
C244 C242 1.389 . S
C244 C245 1.524 . S
C244 C258 1.377 . S
C245 C244 1.524 . S
C245 C246 1.397 . S
C245 C250 1.363 . S
C246 H223 0.950 . S
C246 C245 1.397 . S
C246 C247 1.334 . S
C247 H224 0.950 . S
C247 C246 1.334 . S
C247 C248 1.287 . S
C248 C247 1.287 . S
C248 C249 1.524 . S
C248 H267 0.913 . S
C249 H225 0.950 . S
C249 C248 1.524 . S
C249 C250 1.415 . S
C250 H226 0.950 . S
C250 C245 1.363 . S
C250 C249 1.415 . S
C251 H227 0.951 . S
C251 C252 1.366 . S
C251 C253 1.388 . S
C252 C251 1.366 . S
C252 C256 1.385 . S
C253 H228 0.951 . S
C253 C251 1.388 . S
C253 C254 1.366 . S
C254 C253 1.366 . S
C254 C255 1.414 . S
C254 C257 1.499 . S
C255 H229 0.950 . S
C255 C254 1.414 . S
C255 C256 1.374 . S
C256 H230 0.950 . S
C256 C252 1.385 . S
C256 C255 1.374 . S
C257 C254 1.499 . S
C257 C258 1.373 . S
C257 C259 1.389 . S
C258 H231 0.950 . S
C258 C244 1.377 . S
C258 C257 1.373 . S
C259 C243 1.377 . S
C259 C257 1.389 . S
C259 C260 1.524 . S
C260 C259 1.524 . S
C260 C261 1.397 . S
C260 C265 1.363 . S
C261 H232 0.950 . S
C261 C260 1.397 . S
C261 C262 1.334 . S
C262 H233 0.950 1_545 S
C262 C261 1.334 . S
C262 C263 1.284 1_545 S
C263 C262 1.284 1_565 S
C263 C264 1.520 1_565 S
C263 H266 1.006 . S
C264 H234 0.950 . S
C264 C263 1.520 1_545 S
C264 C265 1.415 . S
C265 H235 0.950 . S
C265 C260 1.363 . S
C265 C264 1.415 . S
H266 C263 1.006 . S
H267 C248 0.913 . S
H268 C286 0.951 . S
H269 C288 0.951 . S
H270 C290 0.950 . S
H271 C291 0.950 . S
H272 C293 0.950 . S
H273 C296 0.950 . S
H274 C297 0.950 . S
H275 C299 0.950 . S
H276 C300 0.950 . S
H277 C301 0.951 . S
H278 C303 0.951 . S
H279 C305 0.950 . S
H280 C306 0.950 . S
H281 C308 0.950 . S
H282 C311 0.950 . S
H283 C312 0.950 . S
H284 C314 0.950 . S
H285 C315 0.950 . S
C286 H268 0.951 . S
C286 C287 1.366 . S
C286 C288 1.388 . S
C287 C286 1.366 . S
C287 C291 1.385 . S
C288 H269 0.951 . S
C288 C286 1.388 . S
C288 C289 1.366 . S
C289 C288 1.366 . S
C289 C290 1.414 . S
C289 C292 1.499 . S
C290 H270 0.950 . S
C290 C289 1.414 . S
C290 C291 1.374 . S
C291 H271 0.950 . S
C291 C287 1.385 . S
C291 C290 1.374 . S
C292 C289 1.499 . S
C292 C293 1.373 . S
C292 C294 1.389 . S
C293 H272 0.950 . S
C293 C292 1.373 . S
C293 C309 1.377 . S
C294 C292 1.389 . S
C294 C295 1.524 . S
C294 C308 1.377 . S
C295 C294 1.524 . S
C295 C296 1.397 . S
C295 C300 1.363 . S
C296 H273 0.950 . S
C296 C295 1.397 . S
C296 C297 1.334 . S
C297 H274 0.950 . S
C297 C296 1.334 . S
C297 C298 1.287 . S
C298 C297 1.287 . S
C298 C299 1.524 . S
C298 H317 0.913 . S
C299 H275 0.950 . S
C299 C298 1.524 . S
C299 C300 1.415 . S
C300 H276 0.950 . S
C300 C295 1.363 . S
C300 C299 1.415 . S
C301 H277 0.951 . S
C301 C302 1.366 . S
C301 C303 1.388 . S
C302 C301 1.366 . S
C302 C306 1.385 . S
C303 H278 0.951 . S
C303 C301 1.388 . S
C303 C304 1.366 . S
C304 C303 1.366 . S
C304 C305 1.414 . S
C304 C307 1.499 . S
C305 H279 0.950 . S
C305 C304 1.414 . S
C305 C306 1.374 . S
C306 H280 0.950 . S
C306 C302 1.385 . S
C306 C305 1.374 . S
C307 C304 1.499 . S
C307 C308 1.373 . S
C307 C309 1.389 . S
C308 H281 0.950 . S
C308 C294 1.377 . S
C308 C307 1.373 . S
C309 C293 1.377 . S
C309 C307 1.389 . S
C309 C310 1.524 . S
C310 C309 1.524 . S
C310 C311 1.397 . S
C310 C315 1.363 . S
C311 H282 0.950 . S
C311 C310 1.397 . S
C311 C312 1.334 . S
C312 H283 0.950 . S
C312 C311 1.334 . S
C312 C313 1.287 . S
C313 C312 1.287 . S
C313 C314 1.524 . S
C313 H316 0.999 . S
C314 H284 0.950 . S
C314 C313 1.524 . S
C314 C315 1.415 . S
C315 H285 0.950 . S
C315 C310 1.363 . S
C315 C314 1.415 . S
H316 C313 0.999 . S
H317 C298 0.913 . S
H318 C336 0.951 . S
H319 C338 0.951 . S
H320 C340 0.950 . S
H321 C341 0.950 . S
H322 C343 0.950 . S
H323 C346 0.950 . S
H324 C347 0.950 1_455 S
H325 C349 0.950 . S
H326 C350 0.950 . S
H327 C351 0.951 . S
H328 C353 0.951 . S
H329 C355 0.950 . S
H330 C356 0.950 . S
H331 C358 0.950 . S
H332 C361 0.950 . S
H333 C362 0.950 . S
H334 C364 0.950 . S
H335 C365 0.950 . S
C336 H318 0.951 . S
C336 C337 1.366 . S
C336 C338 1.388 . S
C337 C336 1.366 . S
C337 C341 1.385 . S
C338 H319 0.951 . S
C338 C336 1.388 . S
C338 C339 1.366 . S
C339 C338 1.366 . S
C339 C340 1.414 . S
C339 C342 1.499 . S
C340 H320 0.950 . S
C340 C339 1.414 . S
C340 C341 1.374 . S
C341 H321 0.950 . S
C341 C337 1.385 . S
C341 C340 1.374 . S
C342 C339 1.499 . S
C342 C343 1.373 . S
C342 C344 1.389 . S
C343 H322 0.950 . S
C343 C342 1.373 . S
C343 C359 1.377 . S
C344 C342 1.389 . S
C344 C345 1.524 . S
C344 C358 1.377 . S
C345 C344 1.524 . S
C345 C346 1.397 . S
C345 C350 1.363 . S
C346 H323 0.950 . S
C346 C345 1.397 . S
C346 C347 1.334 . S
C347 H324 0.950 1_655 S
C347 C346 1.334 . S
C347 C348 1.287 . S
C348 C347 1.287 . S
C348 C349 1.524 . S
C348 H367 0.913 1_655 S
C349 H325 0.950 . S
C349 C348 1.524 . S
C349 C350 1.415 . S
C350 H326 0.950 . S
C350 C345 1.363 . S
C350 C349 1.415 . S
C351 H327 0.951 . S
C351 C352 1.366 . S
C351 C353 1.388 . S
C352 C351 1.366 . S
C352 C356 1.385 . S
C353 H328 0.951 . S
C353 C351 1.388 . S
C353 C354 1.366 . S
C354 C353 1.366 . S
C354 C355 1.414 . S
C354 C357 1.499 . S
C355 H329 0.950 . S
C355 C354 1.414 . S
C355 C356 1.374 . S
C356 H330 0.950 . S
C356 C352 1.385 . S
C356 C355 1.374 . S
C357 C354 1.499 . S
C357 C358 1.373 . S
C357 C359 1.389 . S
C358 H331 0.950 . S
C358 C344 1.377 . S
C358 C357 1.373 . S
C359 C343 1.377 . S
C359 C357 1.389 . S
C359 C360 1.524 . S
C360 C359 1.524 . S
C360 C361 1.397 . S
C360 C365 1.363 . S
C361 H332 0.950 . S
C361 C360 1.397 . S
C361 C362 1.334 . S
C362 H333 0.950 . S
C362 C361 1.334 . S
C362 C363 1.287 . S
C363 C362 1.287 . S
C363 C364 1.524 . S
C363 H366 0.999 . S
C364 H334 0.950 . S
C364 C363 1.524 . S
C364 C365 1.415 . S
C365 H335 0.950 . S
C365 C360 1.363 . S
C365 C364 1.415 . S
H366 C363 0.999 . S
H367 C348 0.913 1_455 S
H368 C386 0.951 . S
H369 C388 0.951 . S
H370 C390 0.950 . S
H371 C391 0.950 . S
H372 C393 0.950 . S
H373 C396 0.950 . S
H374 C397 0.950 . S
H375 C399 0.950 . S
H376 C400 0.950 . S
H377 C401 0.951 . S
H378 C403 0.951 . S
H379 C405 0.950 . S
H380 C406 0.950 . S
H381 C408 0.950 . S
H382 C411 0.950 . S
H383 C412 0.950 1_545 S
H384 C414 0.950 . S
H385 C415 0.950 . S
C386 H368 0.951 . S
C386 C387 1.366 . S
C386 C388 1.388 . S
C387 C386 1.366 . S
C387 C391 1.385 . S
C388 H369 0.951 . S
C388 C386 1.388 . S
C388 C389 1.366 . S
C389 C388 1.366 . S
C389 C390 1.414 . S
C389 C392 1.499 . S
C390 H370 0.950 . S
C390 C389 1.414 . S
C390 C391 1.374 . S
C391 H371 0.950 . S
C391 C387 1.385 . S
C391 C390 1.374 . S
C392 C389 1.499 . S
C392 C393 1.373 . S
C392 C394 1.389 . S
C393 H372 0.950 . S
C393 C392 1.373 . S
C393 C409 1.377 . S
C394 C392 1.389 . S
C394 C395 1.524 . S
C394 C408 1.377 . S
C395 C394 1.524 . S
C395 C396 1.397 . S
C395 C400 1.363 . S
C396 H373 0.950 . S
C396 C395 1.397 . S
C396 C397 1.334 . S
C397 H374 0.950 . S
C397 C396 1.334 . S
C397 C398 1.287 . S
C398 C397 1.287 . S
C398 C399 1.524 . S
C398 H417 0.913 . S
C399 H375 0.950 . S
C399 C398 1.524 . S
C399 C400 1.415 . S
C400 H376 0.950 . S
C400 C395 1.363 . S
C400 C399 1.415 . S
C401 H377 0.951 . S
C401 C402 1.366 . S
C401 C403 1.388 . S
C402 C401 1.366 . S
C402 C406 1.385 . S
C403 H378 0.951 . S
C403 C401 1.388 . S
C403 C404 1.366 . S
C404 C403 1.366 . S
C404 C405 1.414 . S
C404 C407 1.499 . S
C405 H379 0.950 . S
C405 C404 1.414 . S
C405 C406 1.374 . S
C406 H380 0.950 . S
C406 C402 1.385 . S
C406 C405 1.374 . S
C407 C404 1.499 . S
C407 C408 1.373 . S
C407 C409 1.389 . S
C408 H381 0.950 . S
C408 C394 1.377 . S
C408 C407 1.373 . S
C409 C393 1.377 . S
C409 C407 1.389 . S
C409 C410 1.524 . S
C410 C409 1.524 . S
C410 C411 1.397 . S
C410 C415 1.363 . S
C411 H382 0.950 . S
C411 C410 1.397 . S
C411 C412 1.334 . S
C412 H383 0.950 1_565 S
C412 C411 1.334 . S
C412 C413 1.287 1_565 S
C413 C412 1.287 1_545 S
C413 C414 1.525 1_545 S
C413 H416 0.998 . S
C414 H384 0.950 . S
C414 C413 1.525 1_565 S
C414 C415 1.415 . S
C415 H385 0.950 . S
C415 C410 1.363 . S
C415 C414 1.415 . S
H416 C413 0.998 . S
H417 C398 0.913 . S
H418 C436 0.951 . S
H419 C438 0.951 . S
H420 C440 0.950 . S
H421 C441 0.950 . S
H422 C443 0.950 . S
H423 C446 0.950 . S
H424 C447 0.950 . S
H425 C449 0.950 . S
H426 C450 0.950 . S
H427 C451 0.951 . S
H428 C453 0.951 . S
H429 C455 0.950 . S
H430 C456 0.950 . S
H431 C458 0.950 . S
H432 C461 0.950 . S
H433 C462 0.950 . S
H434 C464 0.950 . S
H435 C465 0.950 . S
C436 H418 0.951 . S
C436 C437 1.366 . S
C436 C438 1.388 . S
C437 C436 1.366 . S
C437 C441 1.385 . S
C438 H419 0.951 . S
C438 C436 1.388 . S
C438 C439 1.366 . S
C439 C438 1.366 . S
C439 C440 1.414 . S
C439 C442 1.499 . S
C440 H420 0.950 . S
C440 C439 1.414 . S
C440 C441 1.374 . S
C441 H421 0.950 . S
C441 C437 1.385 . S
C441 C440 1.374 . S
C442 C439 1.499 . S
C442 C443 1.373 . S
C442 C444 1.389 . S
C443 H422 0.950 . S
C443 C442 1.373 . S
C443 C459 1.377 . S
C444 C442 1.389 . S
C444 C445 1.524 . S
C444 C458 1.377 . S
C445 C444 1.524 . S
C445 C446 1.397 . S
C445 C450 1.363 . S
C446 H423 0.950 . S
C446 C445 1.397 . S
C446 C447 1.334 . S
C447 H424 0.950 . S
C447 C446 1.334 . S
C447 C448 1.287 . S
C448 C447 1.287 . S
C448 C449 1.524 . S
C448 H467 0.913 . S
C449 H425 0.950 . S
C449 C448 1.524 . S
C449 C450 1.415 . S
C450 H426 0.950 . S
C450 C445 1.363 . S
C450 C449 1.415 . S
C451 H427 0.951 . S
C451 C452 1.366 . S
C451 C453 1.388 . S
C452 C451 1.366 . S
C452 C456 1.385 . S
C453 H428 0.951 . S
C453 C451 1.388 . S
C453 C454 1.366 . S
C454 C453 1.366 . S
C454 C455 1.414 . S
C454 C457 1.499 . S
C455 H429 0.950 . S
C455 C454 1.414 . S
C455 C456 1.374 . S
C456 H430 0.950 . S
C456 C452 1.385 . S
C456 C455 1.374 . S
C457 C454 1.499 . S
C457 C458 1.373 . S
C457 C459 1.389 . S
C458 H431 0.950 . S
C458 C444 1.377 . S
C458 C457 1.373 . S
C459 C443 1.377 . S
C459 C457 1.389 . S
C459 C460 1.524 . S
C460 C459 1.524 . S
C460 C461 1.397 . S
C460 C465 1.363 . S
C461 H432 0.950 . S
C461 C460 1.397 . S
C461 C462 1.334 . S
C462 H433 0.950 . S
C462 C461 1.334 . S
C462 C463 1.287 . S
C463 C462 1.287 . S
C463 C464 1.524 . S
C463 H466 0.999 . S
C464 H434 0.950 . S
C464 C463 1.524 . S
C464 C465 1.415 . S
C465 H435 0.950 . S
C465 C460 1.363 . S
C465 C464 1.415 . S
H466 C463 0.999 . S
H467 C448 0.913 . S
H468 C486 0.951 . S
H469 C488 0.951 . S
H470 C490 0.950 . S
H471 C491 0.950 . S
H472 C493 0.950 . S
H473 C496 0.950 . S
H474 C497 0.950 . S
H475 C499 0.950 . S
H476 C500 0.950 . S
H477 C501 0.951 . S
H478 C503 0.951 . S
H479 C505 0.950 . S
H480 C506 0.950 . S
H481 C508 0.950 . S
H482 C511 0.950 . S
H483 C512 0.950 . S
H484 C514 0.950 . S
H485 C515 0.950 . S
C486 H468 0.951 . S
C486 C487 1.366 . S
C486 C488 1.388 . S
C487 C486 1.366 . S
C487 C491 1.385 . S
C488 H469 0.951 . S
C488 C486 1.388 . S
C488 C489 1.366 . S
C489 C488 1.366 . S
C489 C490 1.414 . S
C489 C492 1.499 . S
C490 H470 0.950 . S
C490 C489 1.414 . S
C490 C491 1.374 . S
C491 H471 0.950 . S
C491 C487 1.385 . S
C491 C490 1.374 . S
C492 C489 1.499 . S
C492 C493 1.373 . S
C492 C494 1.389 . S
C493 H472 0.950 . S
C493 C492 1.373 . S
C493 C509 1.377 . S
C494 C492 1.389 . S
C494 C495 1.524 . S
C494 C508 1.377 . S
C495 C494 1.524 . S
C495 C496 1.397 . S
C495 C500 1.363 . S
C496 H473 0.950 . S
C496 C495 1.397 . S
C496 C497 1.334 . S
C497 H474 0.950 . S
C497 C496 1.334 . S
C497 C498 1.287 . S
C498 C497 1.287 . S
C498 C499 1.524 . S
C498 H517 0.913 . S
C499 H475 0.950 . S
C499 C498 1.524 . S
C499 C500 1.415 . S
C500 H476 0.950 . S
C500 C495 1.363 . S
C500 C499 1.415 . S
C501 H477 0.951 . S
C501 C502 1.366 . S
C501 C503 1.388 . S
C502 C501 1.366 . S
C502 C506 1.385 . S
C503 H478 0.951 . S
C503 C501 1.388 . S
C503 C504 1.366 . S
C504 C503 1.366 . S
C504 C505 1.414 . S
C504 C507 1.499 . S
C505 H479 0.950 . S
C505 C504 1.414 . S
C505 C506 1.374 . S
C506 H480 0.950 . S
C506 C502 1.385 . S
C506 C505 1.374 . S
C507 C504 1.499 . S
C507 C508 1.373 . S
C507 C509 1.389 . S
C508 H481 0.950 . S
C508 C494 1.377 . S
C508 C507 1.373 . S
C509 C493 1.377 . S
C509 C507 1.389 . S
C509 C510 1.524 . S
C510 C509 1.524 . S
C510 C511 1.397 . S
C510 C515 1.363 . S
C511 H482 0.950 . S
C511 C510 1.397 . S
C511 C512 1.334 . S
C512 H483 0.950 . S
C512 C511 1.334 . S
C512 C513 1.287 . S
C513 C512 1.287 . S
C513 C514 1.524 . S
C513 H516 0.999 . S
C514 H484 0.950 . S
C514 C513 1.524 . S
C514 C515 1.415 . S
C515 H485 0.950 . S
C515 C510 1.363 . S
C515 C514 1.415 . S
H516 C513 0.999 . S
H517 C498 0.913 . S
H518 C536 0.951 . S
H519 C538 0.951 . S
H520 C540 0.950 . S
H521 C541 0.950 . S
H522 C543 0.950 . S
H523 C546 0.950 . S
H524 C547 0.950 . S
H525 C549 0.950 . S
H526 C550 0.950 . S
H527 C551 0.951 . S
H528 C553 0.951 . S
H529 C555 0.950 . S
H530 C556 0.950 . S
H531 C558 0.950 . S
H532 C561 0.950 . S
H533 C562 0.950 . S
H534 C564 0.950 . S
H535 C565 0.950 . S
C536 H518 0.951 . S
C536 C537 1.366 . S
C536 C538 1.388 . S
C537 C536 1.366 . S
C537 C541 1.385 . S
C538 H519 0.951 . S
C538 C536 1.388 . S
C538 C539 1.366 . S
C539 C538 1.366 . S
C539 C540 1.414 . S
C539 C542 1.499 . S
C540 H520 0.950 . S
C540 C539 1.414 . S
C540 C541 1.374 . S
C541 H521 0.950 . S
C541 C537 1.385 . S
C541 C540 1.374 . S
C542 C539 1.499 . S
C542 C543 1.373 . S
C542 C544 1.389 . S
C543 H522 0.950 . S
C543 C542 1.373 . S
C543 C559 1.377 1_655 S
C544 C542 1.389 . S
C544 C545 1.524 . S
C544 C558 1.377 1_655 S
C545 C544 1.524 . S
C545 C546 1.397 . S
C545 C550 1.363 . S
C546 H523 0.950 . S
C546 C545 1.397 . S
C546 C547 1.334 . S
C547 H524 0.950 . S
C547 C546 1.334 . S
C547 C548 1.287 . S
C548 C547 1.287 . S
C548 C549 1.524 . S
C548 H567 0.913 . S
C549 H525 0.950 . S
C549 C548 1.524 . S
C549 C550 1.415 . S
C550 H526 0.950 . S
C550 C545 1.363 . S
C550 C549 1.415 . S
C551 H527 0.951 . S
C551 C552 1.366 . S
C551 C553 1.388 . S
C552 C551 1.366 . S
C552 C556 1.385 . S
C553 H528 0.951 . S
C553 C551 1.388 . S
C553 C554 1.366 . S
C554 C553 1.366 . S
C554 C555 1.414 . S
C554 C557 1.499 . S
C555 H529 0.950 . S
C555 C554 1.414 . S
C555 C556 1.374 . S
C556 H530 0.950 . S
C556 C552 1.385 . S
C556 C555 1.374 . S
C557 C554 1.499 . S
C557 C558 1.373 . S
C557 C559 1.389 . S
C558 H531 0.950 . S
C558 C544 1.377 1_455 S
C558 C557 1.373 . S
C559 C543 1.377 1_455 S
C559 C557 1.389 . S
C559 C560 1.524 . S
C560 C559 1.524 . S
C560 C561 1.397 . S
C560 C565 1.363 . S
C561 H532 0.950 . S
C561 C560 1.397 . S
C561 C562 1.334 . S
C562 H533 0.950 . S
C562 C561 1.334 . S
C562 C563 1.287 . S
C563 C562 1.287 . S
C563 C564 1.524 . S
C563 H566 0.999 . S
C564 H534 0.950 . S
C564 C563 1.524 . S
C564 C565 1.415 . S
C565 H535 0.950 . S
C565 C560 1.363 . S
C565 C564 1.415 . S
H566 C563 0.999 . S
H567 C548 0.913 . S
H568 C586 0.951 . S
H569 C588 0.951 . S
H570 C590 0.950 . S
H571 C591 0.950 . S
H572 C593 0.950 . S
H573 C596 0.950 . S
H574 C597 0.950 . S
H575 C599 0.950 . S
H576 C600 0.950 . S
H577 C601 0.951 . S
H578 C603 0.951 . S
H579 C605 0.950 . S
H580 C606 0.950 . S
H581 C608 0.950 . S
H582 C611 0.950 . S
H583 C612 0.950 . S
H584 C614 0.950 . S
H585 C615 0.950 . S
C586 H568 0.951 . S
C586 C587 1.366 . S
C586 C588 1.388 . S
C587 C586 1.366 . S
C587 C591 1.385 . S
C588 H569 0.951 . S
C588 C586 1.388 . S
C588 C589 1.366 . S
C589 C588 1.366 . S
C589 C590 1.414 . S
C589 C592 1.499 . S
C590 H570 0.950 . S
C590 C589 1.414 . S
C590 C591 1.374 . S
C591 H571 0.950 . S
C591 C587 1.385 . S
C591 C590 1.374 . S
C592 C589 1.499 . S
C592 C593 1.373 . S
C592 C594 1.389 . S
C593 H572 0.950 . S
C593 C592 1.373 . S
C593 C609 1.377 1_545 S
C594 C592 1.389 . S
C594 C595 1.524 . S
C594 C608 1.377 1_545 S
C595 C594 1.524 . S
C595 C596 1.397 . S
C595 C600 1.363 . S
C596 H573 0.950 . S
C596 C595 1.397 . S
C596 C597 1.334 . S
C597 H574 0.950 . S
C597 C596 1.334 . S
C597 C598 1.287 . S
C598 C597 1.287 . S
C598 C599 1.524 . S
C598 H617 0.913 . S
C599 H575 0.950 . S
C599 C598 1.524 . S
C599 C600 1.415 . S
C600 H576 0.950 . S
C600 C595 1.363 . S
C600 C599 1.415 . S
C601 H577 0.951 . S
C601 C602 1.366 . S
C601 C603 1.388 . S
C602 C601 1.366 . S
C602 C606 1.385 . S
C603 H578 0.951 . S
C603 C601 1.388 . S
C603 C604 1.366 . S
C604 C603 1.366 . S
C604 C605 1.414 . S
C604 C607 1.499 . S
C605 H579 0.950 . S
C605 C604 1.414 . S
C605 C606 1.374 . S
C606 H580 0.950 . S
C606 C602 1.385 . S
C606 C605 1.374 . S
C607 C604 1.499 . S
C607 C608 1.373 . S
C607 C609 1.389 . S
C608 H581 0.950 . S
C608 C594 1.377 1_565 S
C608 C607 1.373 . S
C609 C593 1.377 1_565 S
C609 C607 1.389 . S
C609 C610 1.524 . S
C610 C609 1.524 . S
C610 C611 1.397 . S
C610 C615 1.363 . S
C611 H582 0.950 . S
C611 C610 1.397 . S
C611 C612 1.334 . S
C612 H583 0.950 . S
C612 C611 1.334 . S
C612 C613 1.287 . S
C613 C612 1.287 . S
C613 C614 1.524 . S
C613 H616 0.999 . S
C614 H584 0.950 . S
C614 C613 1.524 . S
C614 C615 1.415 . S
C615 H585 0.950 . S
C615 C610 1.363 . S
C615 C614 1.415 . S
H616 C613 0.999 . S
H617 C598 0.913 . S
H618 C636 0.951 . S
H619 C638 0.951 . S
H620 C640 0.950 . S
H621 C641 0.950 . S
H622 C643 0.950 . S
H623 C646 0.950 . S
H624 C647 0.950 . S
H625 C649 0.950 . S
H626 C650 0.950 . S
H627 C651 0.951 . S
H628 C653 0.951 . S
H629 C655 0.950 . S
H630 C656 0.950 . S
H631 C658 0.950 . S
H632 C661 0.950 . S
H633 C662 0.950 . S
H634 C664 0.950 . S
H635 C665 0.950 . S
C636 H618 0.951 . S
C636 C637 1.366 . S
C636 C638 1.388 . S
C637 C636 1.366 . S
C637 C641 1.385 . S
C638 H619 0.951 . S
C638 C636 1.388 . S
C638 C639 1.366 . S
C639 C638 1.366 . S
C639 C640 1.414 . S
C639 C642 1.499 . S
C640 H620 0.950 . S
C640 C639 1.414 . S
C640 C641 1.374 . S
C641 H621 0.950 . S
C641 C637 1.385 . S
C641 C640 1.374 . S
C642 C639 1.499 . S
C642 C643 1.373 . S
C642 C644 1.389 . S
C643 H622 0.950 . S
C643 C642 1.373 . S
C643 C659 1.377 . S
C644 C642 1.389 . S
C644 C645 1.524 . S
C644 C658 1.377 . S
C645 C644 1.524 . S
C645 C646 1.397 . S
C645 C650 1.363 . S
C646 H623 0.950 . S
C646 C645 1.397 . S
C646 C647 1.334 . S
C647 H624 0.950 . S
C647 C646 1.334 . S
C647 C648 1.287 . S
C648 C647 1.287 . S
C648 C649 1.524 . S
C648 H667 0.913 . S
C649 H625 0.950 . S
C649 C648 1.524 . S
C649 C650 1.415 . S
C650 H626 0.950 . S
C650 C645 1.363 . S
C650 C649 1.415 . S
C651 H627 0.951 . S
C651 C652 1.366 . S
C651 C653 1.388 . S
C652 C651 1.366 . S
C652 C656 1.385 . S
C653 H628 0.951 . S
C653 C651 1.388 . S
C653 C654 1.366 . S
C654 C653 1.366 . S
C654 C655 1.414 . S
C654 C657 1.499 . S
C655 H629 0.950 . S
C655 C654 1.414 . S
C655 C656 1.374 . S
C656 H630 0.950 . S
C656 C652 1.385 . S
C656 C655 1.374 . S
C657 C654 1.499 . S
C657 C658 1.373 . S
C657 C659 1.389 . S
C658 H631 0.950 . S
C658 C644 1.377 . S
C658 C657 1.373 . S
C659 C643 1.377 . S
C659 C657 1.389 . S
C659 C660 1.524 . S
C660 C659 1.524 . S
C660 C661 1.397 . S
C660 C665 1.363 . S
C661 H632 0.950 . S
C661 C660 1.397 . S
C661 C662 1.334 . S
C662 H633 0.950 . S
C662 C661 1.334 . S
C662 C663 1.287 . S
C663 C662 1.287 . S
C663 C664 1.524 . S
C663 H666 0.999 . S
C664 H634 0.950 . S
C664 C663 1.524 . S
C664 C665 1.415 . S
C665 H635 0.950 . S
C665 C660 1.363 . S
C665 C664 1.415 . S
H666 C663 0.999 . S
H667 C648 0.913 . S
H668 C686 0.951 . S
H669 C688 0.951 . S
H670 C690 0.950 . S
H671 C691 0.950 . S
H672 C693 0.950 . S
H673 C696 0.950 . S
H674 C697 0.950 . S
H675 C699 0.950 . S
H676 C700 0.950 . S
H677 C701 0.951 . S
H678 C703 0.951 . S
H679 C705 0.950 . S
H680 C706 0.950 . S
H681 C708 0.950 . S
H682 C711 0.950 . S
H683 C712 0.950 . S
H684 C714 0.950 . S
H685 C715 0.950 1_655 S
C686 H668 0.951 . S
C686 C687 1.366 . S
C686 C688 1.388 . S
C687 C686 1.366 . S
C687 C691 1.385 . S
C688 H669 0.951 . S
C688 C686 1.388 . S
C688 C689 1.366 . S
C689 C688 1.366 . S
C689 C690 1.414 . S
C689 C692 1.499 . S
C690 H670 0.950 . S
C690 C689 1.414 . S
C690 C691 1.374 . S
C691 H671 0.950 . S
C691 C687 1.385 . S
C691 C690 1.374 . S
C692 C689 1.499 . S
C692 C693 1.373 . S
C692 C694 1.389 1_655 S
C693 H672 0.950 . S
C693 C692 1.373 . S
C693 C709 1.377 1_655 S
C694 C692 1.389 1_455 S
C694 C695 1.529 1_455 S
C694 C708 1.377 . S
C695 C694 1.529 1_655 S
C695 C696 1.411 . S
C695 C700 1.343 1_655 S
C696 H673 0.950 . S
C696 C695 1.411 . S
C696 C697 1.334 . S
C697 H674 0.950 . S
C697 C696 1.334 . S
C697 C698 1.287 . S
C698 C697 1.287 . S
C698 C699 1.524 1_655 S
C698 H717 0.913 . S
C699 H675 0.950 . S
C699 C698 1.524 1_455 S
C699 C700 1.415 . S
C700 H676 0.950 . S
C700 C695 1.343 1_455 S
C700 C699 1.415 . S
C701 H677 0.951 . S
C701 C702 1.366 . S
C701 C703 1.388 . S
C702 C701 1.366 . S
C702 C706 1.385 . S
C703 H678 0.951 . S
C703 C701 1.388 . S
C703 C704 1.366 . S
C704 C703 1.366 . S
C704 C705 1.414 . S
C704 C707 1.499 . S
C705 H679 0.950 . S
C705 C704 1.414 . S
C705 C706 1.374 . S
C706 H680 0.950 . S
C706 C702 1.385 . S
C706 C705 1.374 . S
C707 C704 1.499 . S
C707 C708 1.373 . S
C707 C709 1.389 . S
C708 H681 0.950 . S
C708 C694 1.377 . S
C708 C707 1.373 . S
C709 C693 1.377 1_455 S
C709 C707 1.389 . S
C709 C710 1.524 . S
C710 C709 1.524 . S
C710 C711 1.397 . S
C710 C715 1.363 . S
C711 H682 0.950 . S
C711 C710 1.397 . S
C711 C712 1.334 . S
C712 H683 0.950 . S
C712 C711 1.334 . S
C712 C713 1.287 . S
C713 C712 1.287 . S
C713 C714 1.524 . S
C713 H716 0.999 . S
C714 H684 0.950 . S
C714 C713 1.524 . S
C714 C715 1.415 . S
C715 H685 0.950 1_455 S
C715 C710 1.363 . S
C715 C714 1.415 . S
H716 C713 0.999 . S
H717 C698 0.913 . S
H718 C736 0.951 . S
H719 C738 0.951 . S
H720 C740 0.950 . S
H721 C741 0.950 . S
H722 C743 0.950 . S
H723 C746 0.937 1_554 S
H724 C747 0.950 . S
H725 C749 0.950 . S
H726 C750 0.965 . S
H727 C751 0.950 . S
H728 C753 0.951 . S
H729 C755 0.950 . S
H730 C756 0.950 . S
H731 C758 0.950 1_556 S
H732 C761 0.950 . S
H733 C762 0.950 . S
H734 C764 0.950 . S
H735 C765 0.950 . S
C736 H718 0.951 . S
C736 C737 1.366 . S
C736 C738 1.388 . S
C737 C736 1.366 . S
C737 C741 1.385 . S
C738 H719 0.951 . S
C738 C736 1.388 . S
C738 C739 1.366 . S
C739 C738 1.366 . S
C739 C740 1.414 . S
C739 C742 1.499 . S
C740 H720 0.950 . S
C740 C739 1.414 . S
C740 C741 1.374 . S
C741 H721 0.950 . S
C741 C737 1.385 . S
C741 C740 1.374 . S
C742 C739 1.499 . S
C742 C743 1.373 . S
C742 C744 1.389 . S
C743 H722 0.950 . S
C743 C742 1.373 . S
C743 C759 1.377 1_565 S
C744 C742 1.389 . S
C744 C745 1.524 . S
C744 C758 1.377 1_565 S
C745 C744 1.524 . S
C745 C746 1.397 1_554 S
C745 C750 1.363 1_554 S
C746 H723 0.937 1_556 S
C746 C745 1.397 1_556 S
C746 C747 1.334 . S
C747 H724 0.950 . S
C747 C746 1.334 . S
C747 C748 1.287 . S
C748 C747 1.287 . S
C748 C749 1.524 . S
C748 H767 0.913 . S
C749 H725 0.950 . S
C749 C748 1.524 . S
C749 C750 1.415 . S
C750 H726 0.965 . S
C750 C745 1.363 1_556 S
C750 C749 1.415 . S
C751 H727 0.950 . S
C751 C752 1.364 . S
C751 C753 1.390 1_556 S
C752 C751 1.364 . S
C752 C756 1.385 . S
C753 H728 0.951 . S
C753 C751 1.390 1_554 S
C753 C754 1.366 . S
C754 C753 1.366 . S
C754 C755 1.414 . S
C754 C757 1.499 . S
C755 H729 0.950 . S
C755 C754 1.414 . S
C755 C756 1.374 1_554 S
C756 H730 0.950 . S
C756 C752 1.385 . S
C756 C755 1.374 1_556 S
C757 C754 1.499 . S
C757 C758 1.373 . S
C757 C759 1.389 . S
C758 H731 0.950 1_554 S
C758 C744 1.377 1_545 S
C758 C757 1.373 . S
C759 C743 1.377 1_545 S
C759 C757 1.389 . S
C759 C760 1.524 . S
C760 C759 1.524 . S
C760 C761 1.397 . S
C760 C765 1.363 . S
C761 H732 0.950 . S
C761 C760 1.397 . S
C761 C762 1.334 . S
C762 H733 0.950 . S
C762 C761 1.334 . S
C762 C763 1.287 . S
C763 C762 1.287 . S
C763 C764 1.524 . S
C763 H766 0.999 . S
C764 H734 0.950 . S
C764 C763 1.524 . S
C764 C765 1.415 . S
C765 H735 0.950 . S
C765 C760 1.363 . S
C765 C764 1.415 . S
H766 C763 0.999 . S
H767 C748 0.913 . S
H768 C786 0.951 . S
H769 C788 0.951 . S
H770 C790 0.950 . S
H771 C791 0.950 . S
H772 C793 0.950 . S
H773 C796 0.950 . S
H774 C797 0.950 . S
H775 C799 0.950 . S
H776 C800 0.950 . S
H777 C801 0.951 . S
H778 C803 0.951 . S
H779 C805 0.950 . S
H780 C806 0.950 . S
H781 C808 0.950 . S
H782 C811 0.950 . S
H783 C812 0.950 . S
H784 C814 0.950 . S
H785 C815 0.950 . S
C786 H768 0.951 . S
C786 C787 1.366 . S
C786 C788 1.388 . S
C787 C786 1.366 . S
C787 C791 1.385 . S
C788 H769 0.951 . S
C788 C786 1.388 . S
C788 C789 1.366 . S
C789 C788 1.366 . S
C789 C790 1.414 . S
C789 C792 1.499 . S
C790 H770 0.950 . S
C790 C789 1.414 . S
C790 C791 1.374 . S
C791 H771 0.950 . S
C791 C787 1.385 . S
C791 C790 1.374 . S
C792 C789 1.499 . S
C792 C793 1.373 . S
C792 C794 1.389 . S
C793 H772 0.950 . S
C793 C792 1.373 . S
C793 C809 1.377 . S
C794 C792 1.389 . S
C794 C795 1.524 . S
C794 C808 1.377 . S
C795 C794 1.524 . S
C795 C796 1.397 . S
C795 C800 1.363 . S
C796 H773 0.950 . S
C796 C795 1.397 . S
C796 C797 1.334 . S
C797 H774 0.950 . S
C797 C796 1.334 . S
C797 C798 1.287 . S
C798 C797 1.287 . S
C798 C799 1.524 . S
C798 H817 0.913 . S
C799 H775 0.950 . S
C799 C798 1.524 . S
C799 C800 1.415 . S
C800 H776 0.950 . S
C800 C795 1.363 . S
C800 C799 1.415 . S
C801 H777 0.951 . S
C801 C802 1.366 . S
C801 C803 1.388 . S
C802 C801 1.366 . S
C802 C806 1.385 . S
C803 H778 0.951 . S
C803 C801 1.388 . S
C803 C804 1.366 . S
C804 C803 1.366 . S
C804 C805 1.414 . S
C804 C807 1.499 . S
C805 H779 0.950 . S
C805 C804 1.414 . S
C805 C806 1.374 . S
C806 H780 0.950 . S
C806 C802 1.385 . S
C806 C805 1.374 . S
C807 C804 1.499 . S
C807 C808 1.373 . S
C807 C809 1.389 . S
C808 H781 0.950 . S
C808 C794 1.377 . S
C808 C807 1.373 . S
C809 C793 1.377 . S
C809 C807 1.389 . S
C809 C810 1.524 . S
C810 C809 1.524 . S
C810 C811 1.397 . S
C810 C815 1.363 . S
C811 H782 0.950 . S
C811 C810 1.397 . S
C811 C812 1.334 . S
C812 H783 0.950 . S
C812 C811 1.334 . S
C812 C813 1.287 . S
C813 C812 1.287 . S
C813 C814 1.524 . S
C813 H816 0.999 . S
C814 H784 0.950 . S
C814 C813 1.524 . S
C814 C815 1.415 . S
C815 H785 0.950 . S
C815 C810 1.363 . S
C815 C814 1.415 . S
H816 C813 0.999 . S
H817 C798 0.913 . S
H818 C836 0.951 . S
H819 C838 0.951 . S
H820 C840 0.950 . S
H821 C841 0.950 . S
H822 C843 0.950 . S
H823 C846 0.950 . S
H824 C847 0.950 . S
H825 C849 0.950 . S
H826 C850 0.950 1_455 S
H827 C851 0.951 . S
H828 C853 0.951 . S
H829 C855 0.950 . S
H830 C856 0.950 . S
H831 C858 0.950 . S
H832 C861 0.950 . S
H833 C862 0.950 . S
H834 C864 0.950 . S
H835 C865 0.950 . S
C836 H818 0.951 . S
C836 C837 1.366 . S
C836 C838 1.388 . S
C837 C836 1.366 . S
C837 C841 1.385 . S
C838 H819 0.951 . S
C838 C836 1.388 . S
C838 C839 1.366 . S
C839 C838 1.366 . S
C839 C840 1.414 . S
C839 C842 1.499 . S
C840 H820 0.950 . S
C840 C839 1.414 . S
C840 C841 1.374 . S
C841 H821 0.950 . S
C841 C837 1.385 . S
C841 C840 1.374 . S
C842 C839 1.499 . S
C842 C843 1.373 . S
C842 C844 1.389 . S
C843 H822 0.950 . S
C843 C842 1.373 . S
C843 C859 1.377 . S
C844 C842 1.389 . S
C844 C845 1.524 . S
C844 C858 1.377 . S
C845 C844 1.524 . S
C845 C846 1.397 . S
C845 C850 1.363 . S
C846 H823 0.950 . S
C846 C845 1.397 . S
C846 C847 1.334 . S
C847 H824 0.950 . S
C847 C846 1.334 . S
C847 C848 1.287 . S
C848 C847 1.287 . S
C848 C849 1.524 1_655 S
C848 H867 0.913 . S
C849 H825 0.950 . S
C849 C848 1.524 1_455 S
C849 C850 1.415 1_455 S
C850 H826 0.950 1_655 S
C850 C845 1.363 . S
C850 C849 1.415 1_655 S
C851 H827 0.951 . S
C851 C852 1.366 1_655 S
C851 C853 1.388 . S
C852 C851 1.366 1_455 S
C852 C856 1.385 . S
C853 H828 0.951 . S
C853 C851 1.388 . S
C853 C854 1.366 . S
C854 C853 1.366 . S
C854 C855 1.414 1_655 S
C854 C857 1.499 . S
C855 H829 0.950 . S
C855 C854 1.414 1_455 S
C855 C856 1.374 . S
C856 H830 0.950 . S
C856 C852 1.385 . S
C856 C855 1.374 . S
C857 C854 1.499 . S
C857 C858 1.373 . S
C857 C859 1.389 . S
C858 H831 0.950 . S
C858 C844 1.377 . S
C858 C857 1.373 . S
C859 C843 1.377 . S
C859 C857 1.389 . S
C859 C860 1.524 . S
C860 C859 1.524 . S
C860 C861 1.397 . S
C860 C865 1.363 . S
C861 H832 0.950 . S
C861 C860 1.397 . S
C861 C862 1.334 . S
C862 H833 0.950 . S
C862 C861 1.334 . S
C862 C863 1.287 . S
C863 C862 1.287 . S
C863 C864 1.524 . S
C863 H866 0.999 . S
C864 H834 0.950 . S
C864 C863 1.524 . S
C864 C865 1.415 . S
C865 H835 0.950 . S
C865 C860 1.363 . S
C865 C864 1.415 . S
H866 C863 0.999 . S
H867 C848 0.913 . S
H868 C886 0.951 . S
H869 C888 0.951 . S
H870 C890 0.950 . S
H871 C891 0.950 . S
H872 C893 0.950 . S
H873 C896 0.950 1_545 S
H874 C897 0.950 . S
H875 C899 0.950 . S
H876 C900 0.950 . S
H877 C901 0.951 . S
H878 C903 0.951 . S
H879 C905 0.950 . S
H880 C906 0.950 . S
H881 C908 0.950 . S
H882 C911 0.950 . S
H883 C912 0.950 . S
H884 C914 0.950 . S
H885 C915 0.950 . S
C886 H868 0.951 . S
C886 C887 1.366 1_565 S
C886 C888 1.388 . S
C887 C886 1.366 1_545 S
C887 C891 1.385 . S
C888 H869 0.951 . S
C888 C886 1.388 . S
C888 C889 1.366 . S
C889 C888 1.366 . S
C889 C890 1.414 1_565 S
C889 C892 1.499 . S
C890 H870 0.950 . S
C890 C889 1.414 1_545 S
C890 C891 1.374 . S
C891 H871 0.950 . S
C891 C887 1.385 . S
C891 C890 1.374 . S
C892 C889 1.499 . S
C892 C893 1.373 . S
C892 C894 1.389 . S
C893 H872 0.950 . S
C893 C892 1.373 . S
C893 C909 1.377 . S
C894 C892 1.389 . S
C894 C895 1.524 . S
C894 C908 1.377 . S
C895 C894 1.524 . S
C895 C896 1.397 . S
C895 C900 1.363 . S
C896 H873 0.950 1_565 S
C896 C895 1.397 . S
C896 C897 1.334 1_565 S
C897 H874 0.950 . S
C897 C896 1.334 1_545 S
C897 C898 1.287 1_545 S
C898 C897 1.287 1_565 S
C898 C899 1.524 . S
C898 H917 0.913 . S
C899 H875 0.950 . S
C899 C898 1.524 . S
C899 C900 1.415 . S
C900 H876 0.950 . S
C900 C895 1.363 . S
C900 C899 1.415 . S
C901 H877 0.951 . S
C901 C902 1.366 . S
C901 C903 1.388 . S
C902 C901 1.366 . S
C902 C906 1.385 . S
C903 H878 0.951 . S
C903 C901 1.388 . S
C903 C904 1.366 . S
C904 C903 1.366 . S
C904 C905 1.414 . S
C904 C907 1.499 . S
C905 H879 0.950 . S
C905 C904 1.414 . S
C905 C906 1.374 . S
C906 H880 0.950 . S
C906 C902 1.385 . S
C906 C905 1.374 . S
C907 C904 1.499 . S
C907 C908 1.373 . S
C907 C909 1.389 . S
C908 H881 0.950 . S
C908 C894 1.377 . S
C908 C907 1.373 . S
C909 C893 1.377 . S
C909 C907 1.389 . S
C909 C910 1.524 . S
C910 C909 1.524 . S
C910 C911 1.397 . S
C910 C915 1.363 . S
C911 H882 0.950 . S
C911 C910 1.397 . S
C911 C912 1.334 . S
C912 H883 0.950 . S
C912 C911 1.334 . S
C912 C913 1.287 . S
C913 C912 1.287 . S
C913 C914 1.524 . S
C913 H916 0.999 . S
C914 H884 0.950 . S
C914 C913 1.524 . S
C914 C915 1.415 . S
C915 H885 0.950 . S
C915 C910 1.363 . S
C915 C914 1.415 . S
H916 C913 0.999 . S
H917 C898 0.913 . S
H918 C936 0.951 . S
H919 C938 0.951 . S
H920 C940 0.950 . S
H921 C941 0.950 . S
H922 C943 0.950 . S
H923 C946 0.950 . S
H924 C947 0.950 . S
H925 C949 0.950 . S
H926 C950 0.950 . S
H927 C951 0.951 . S
H928 C953 0.951 . S
H929 C955 0.950 . S
H930 C956 0.950 . S
H931 C958 0.950 . S
H932 C961 0.950 . S
H933 C962 0.950 . S
H934 C964 0.950 . S
H935 C965 0.950 . S
C936 H918 0.951 . S
C936 C937 1.366 . S
C936 C938 1.388 . S
C937 C936 1.366 . S
C937 C941 1.385 . S
C938 H919 0.951 . S
C938 C936 1.388 . S
C938 C939 1.366 . S
C939 C938 1.366 . S
C939 C940 1.414 . S
C939 C942 1.499 . S
C940 H920 0.950 . S
C940 C939 1.414 . S
C940 C941 1.374 . S
C941 H921 0.950 . S
C941 C937 1.385 . S
C941 C940 1.374 . S
C942 C939 1.499 . S
C942 C943 1.373 . S
C942 C944 1.389 . S
C943 H922 0.950 . S
C943 C942 1.373 . S
C943 C959 1.377 . S
C944 C942 1.389 . S
C944 C945 1.524 . S
C944 C958 1.377 . S
C945 C944 1.524 . S
C945 C946 1.397 . S
C945 C950 1.363 . S
C946 H923 0.950 . S
C946 C945 1.397 . S
C946 C947 1.334 . S
C947 H924 0.950 . S
C947 C946 1.334 . S
C947 C948 1.287 . S
C948 C947 1.287 . S
C948 C949 1.524 . S
C948 H967 0.913 . S
C949 H925 0.950 . S
C949 C948 1.524 . S
C949 C950 1.415 . S
C950 H926 0.950 . S
C950 C945 1.363 . S
C950 C949 1.415 . S
C951 H927 0.951 . S
C951 C952 1.366 . S
C951 C953 1.388 . S
C952 C951 1.366 . S
C952 C956 1.385 . S
C953 H928 0.951 . S
C953 C951 1.388 . S
C953 C954 1.366 . S
C954 C953 1.366 . S
C954 C955 1.414 . S
C954 C957 1.499 . S
C955 H929 0.950 . S
C955 C954 1.414 . S
C955 C956 1.374 . S
C956 H930 0.950 . S
C956 C952 1.385 . S
C956 C955 1.374 . S
C957 C954 1.499 . S
C957 C958 1.373 . S
C957 C959 1.389 . S
C958 H931 0.950 . S
C958 C944 1.377 . S
C958 C957 1.373 . S
C959 C943 1.377 . S
C959 C957 1.389 . S
C959 C960 1.524 . S
C960 C959 1.524 . S
C960 C961 1.397 . S
C960 C965 1.363 . S
C961 H932 0.950 . S
C961 C960 1.397 . S
C961 C962 1.334 . S
C962 H933 0.950 . S
C962 C961 1.334 . S
C962 C963 1.287 . S
C963 C962 1.287 . S
C963 C964 1.524 . S
C963 H966 0.999 . S
C964 H934 0.950 . S
C964 C963 1.524 . S
C964 C965 1.415 . S
C965 H935 0.950 . S
C965 C960 1.363 . S
C965 C964 1.415 . S
H966 C963 0.999 . S
H967 C948 0.913 . S
H968 C986 0.951 . S
H969 C988 0.951 . S
H970 C990 0.950 . S
H971 C991 0.950 . S
H972 C993 0.950 . S
H973 C996 0.950 . S
H974 C997 0.950 . S
H975 C999 0.950 . S
H976 C1000 0.950 . S
H977 C1001 0.951 . S
H978 C1003 0.958 . S
H979 C1005 0.950 . S
H980 C1006 0.950 . S
H981 C1008 0.950 . S
H982 C1011 0.950 . S
H983 C1012 0.950 . S
H984 C1014 0.950 . S
H985 C1015 0.950 . S
C986 H968 0.951 . S
C986 C987 1.366 . S
C986 C988 1.388 . S
C987 C986 1.366 . S
C987 C991 1.385 . S
C988 H969 0.951 . S
C988 C986 1.388 . S
C988 C989 1.366 . S
C989 C988 1.366 . S
C989 C990 1.414 . S
C989 C992 1.499 . S
C990 H970 0.950 . S
C990 C989 1.414 . S
C990 C991 1.374 . S
C991 H971 0.950 . S
C991 C987 1.385 . S
C991 C990 1.374 . S
C992 C989 1.499 . S
C992 C993 1.373 . S
C992 C994 1.389 . S
C993 H972 0.950 . S
C993 C992 1.373 . S
C993 C1009 1.377 . S
C994 C992 1.389 . S
C994 C995 1.524 . S
C994 C1008 1.377 . S
C995 C994 1.524 . S
C995 C996 1.397 . S
C995 C1000 1.363 . S
C996 H973 0.950 . S
C996 C995 1.397 . S
C996 C997 1.334 . S
C997 H974 0.950 . S
C997 C996 1.334 . S
C997 C998 1.287 . S
C998 C997 1.287 . S
C998 C999 1.524 . S
C998 H1017 0.913 . S
C999 H975 0.950 . S
C999 C998 1.524 . S
C999 C1000 1.415 . S
C1000 H976 0.950 . S
C1000 C995 1.363 . S
C1000 C999 1.415 . S
C1001 H977 0.951 . S
C1001 C1002 1.366 . S
C1001 C1003 1.397 . S
C1002 C1001 1.366 . S
C1002 C1006 1.385 1_655 S
C1003 H978 0.958 . S
C1003 C1001 1.397 . S
C1003 C1004 1.349 1_655 S
C1004 C1003 1.349 1_455 S
C1004 C1005 1.414 . S
C1004 C1007 1.499 . S
C1005 H979 0.950 . S
C1005 C1004 1.414 . S
C1005 C1006 1.374 . S
C1006 H980 0.950 . S
C1006 C1002 1.385 1_455 S
C1006 C1005 1.374 . S
C1007 C1004 1.499 . S
C1007 C1008 1.373 . S
C1007 C1009 1.389 . S
C1008 H981 0.950 . S
C1008 C994 1.377 . S
C1008 C1007 1.373 . S
C1009 C993 1.377 . S
C1009 C1007 1.389 . S
C1009 C1010 1.524 . S
C1010 C1009 1.524 . S
C1010 C1011 1.397 . S
C1010 C1015 1.363 . S
C1011 H982 0.950 . S
C1011 C1010 1.397 . S
C1011 C1012 1.334 . S
C1012 H983 0.950 . S
C1012 C1011 1.334 . S
C1012 C1013 1.287 1_455 S
C1013 C1012 1.287 1_655 S
C1013 C1014 1.524 . S
C1013 H1016 0.999 . S
C1014 H984 0.950 . S
C1014 C1013 1.524 . S
C1014 C1015 1.415 1_655 S
C1015 H985 0.950 . S
C1015 C1010 1.363 . S
C1015 C1014 1.415 1_455 S
H1016 C1013 0.999 . S
H1017 C998 0.913 . S
H1018 C1036 0.951 . S
H1019 C1038 0.951 . S
H1020 C1040 0.950 . S
H1021 C1041 0.950 . S
H1022 C1043 0.950 . S
H1023 C1046 0.950 . S
H1024 C1047 0.950 . S
H1025 C1049 0.950 . S
H1026 C1050 0.950 . S
H1027 C1051 0.951 . S
H1028 C1053 0.951 . S
H1029 C1055 0.950 . S
H1030 C1056 0.950 . S
H1031 C1058 0.950 . S
H1032 C1061 0.950 . S
H1033 C1062 0.950 . S
H1034 C1064 0.950 . S
H1035 C1065 0.950 . S
C1036 H1018 0.951 . S
C1036 C1037 1.366 . S
C1036 C1038 1.388 . S
C1037 C1036 1.366 . S
C1037 C1041 1.385 . S
C1038 H1019 0.951 . S
C1038 C1036 1.388 . S
C1038 C1039 1.366 . S
C1039 C1038 1.366 . S
C1039 C1040 1.414 . S
C1039 C1042 1.499 . S
C1040 H1020 0.950 . S
C1040 C1039 1.414 . S
C1040 C1041 1.374 . S
C1041 H1021 0.950 . S
C1041 C1037 1.385 . S
C1041 C1040 1.374 . S
C1042 C1039 1.499 . S
C1042 C1043 1.373 . S
C1042 C1044 1.389 . S
C1043 H1022 0.950 . S
C1043 C1042 1.373 . S
C1043 C1059 1.377 . S
C1044 C1042 1.389 . S
C1044 C1045 1.524 . S
C1044 C1058 1.377 . S
C1045 C1044 1.524 . S
C1045 C1046 1.397 . S
C1045 C1050 1.363 . S
C1046 H1023 0.950 . S
C1046 C1045 1.397 . S
C1046 C1047 1.334 . S
C1047 H1024 0.950 . S
C1047 C1046 1.334 . S
C1047 C1048 1.287 . S
C1048 C1047 1.287 . S
C1048 C1049 1.524 . S
C1048 H1067 0.913 . S
C1049 H1025 0.950 . S
C1049 C1048 1.524 . S
C1049 C1050 1.415 . S
C1050 H1026 0.950 . S
C1050 C1045 1.363 . S
C1050 C1049 1.415 . S
C1051 H1027 0.951 . S
C1051 C1052 1.366 . S
C1051 C1053 1.388 1_565 S
C1052 C1051 1.366 . S
C1052 C1056 1.385 1_565 S
C1053 H1028 0.951 . S
C1053 C1051 1.388 1_545 S
C1053 C1054 1.366 . S
C1054 C1053 1.366 . S
C1054 C1055 1.414 . S
C1054 C1057 1.499 . S
C1055 H1029 0.950 . S
C1055 C1054 1.414 . S
C1055 C1056 1.374 . S
C1056 H1030 0.950 . S
C1056 C1052 1.385 1_545 S
C1056 C1055 1.374 . S
C1057 C1054 1.499 . S
C1057 C1058 1.373 . S
C1057 C1059 1.389 . S
C1058 H1031 0.950 . S
C1058 C1044 1.377 . S
C1058 C1057 1.373 . S
C1059 C1043 1.377 . S
C1059 C1057 1.389 . S
C1059 C1060 1.524 . S
C1060 C1059 1.524 . S
C1060 C1061 1.397 . S
C1060 C1065 1.363 . S
C1061 H1032 0.950 . S
C1061 C1060 1.397 . S
C1061 C1062 1.334 . S
C1062 H1033 0.950 . S
C1062 C1061 1.334 . S
C1062 C1063 1.287 . S
C1063 C1062 1.287 . S
C1063 C1064 1.524 . S
C1063 H1066 0.999 . S
C1064 H1034 0.950 . S
C1064 C1063 1.524 . S
C1064 C1065 1.415 . S
C1065 H1035 0.950 . S
C1065 C1060 1.363 . S
C1065 C1064 1.415 . S
H1066 C1063 0.999 . S
H1067 C1048 0.913 . S
H1068 C1086 0.951 . S
H1069 C1088 0.951 . S
H1070 C1090 0.950 . S
H1071 C1091 0.950 . S
H1072 C1093 0.950 . S
H1073 C1096 0.950 . S
H1074 C1097 0.950 . S
H1075 C1099 0.950 . S
H1076 C1100 0.950 . S
H1077 C1101 0.951 . S
H1078 C1103 0.951 . S
H1079 C1105 0.950 . S
H1080 C1106 0.950 . S
H1081 C1108 0.950 . S
H1082 C1111 0.950 . S
H1083 C1112 0.950 . S
H1084 C1114 0.950 . S
H1085 C1115 0.950 . S
C1086 H1068 0.951 . S
C1086 C1087 1.366 . S
C1086 C1088 1.388 . S
C1087 C1086 1.366 . S
C1087 C1091 1.385 . S
C1088 H1069 0.951 . S
C1088 C1086 1.388 . S
C1088 C1089 1.366 . S
C1089 C1088 1.366 . S
C1089 C1090 1.414 . S
C1089 C1092 1.499 . S
C1090 H1070 0.950 . S
C1090 C1089 1.414 . S
C1090 C1091 1.374 . S
C1091 H1071 0.950 . S
C1091 C1087 1.385 . S
C1091 C1090 1.374 . S
C1092 C1089 1.499 . S
C1092 C1093 1.373 . S
C1092 C1094 1.389 . S
C1093 H1072 0.950 . S
C1093 C1092 1.373 . S
C1093 C1109 1.377 . S
C1094 C1092 1.389 . S
C1094 C1095 1.524 . S
C1094 C1108 1.377 . S
C1095 C1094 1.524 . S
C1095 C1096 1.397 . S
C1095 C1100 1.363 . S
C1096 H1073 0.950 . S
C1096 C1095 1.397 . S
C1096 C1097 1.334 . S
C1097 H1074 0.950 . S
C1097 C1096 1.334 . S
C1097 C1098 1.287 . S
C1098 C1097 1.287 . S
C1098 C1099 1.524 . S
C1098 H1117 0.913 . S
C1099 H1075 0.950 . S
C1099 C1098 1.524 . S
C1099 C1100 1.415 . S
C1100 H1076 0.950 . S
C1100 C1095 1.363 . S
C1100 C1099 1.415 . S
C1101 H1077 0.951 . S
C1101 C1102 1.366 . S
C1101 C1103 1.388 . S
C1102 C1101 1.366 . S
C1102 C1106 1.385 . S
C1103 H1078 0.951 . S
C1103 C1101 1.388 . S
C1103 C1104 1.366 . S
C1104 C1103 1.366 . S
C1104 C1105 1.414 . S
C1104 C1107 1.499 . S
C1105 H1079 0.950 . S
C1105 C1104 1.414 . S
C1105 C1106 1.374 . S
C1106 H1080 0.950 . S
C1106 C1102 1.385 . S
C1106 C1105 1.374 . S
C1107 C1104 1.499 . S
C1107 C1108 1.373 . S
C1107 C1109 1.389 . S
C1108 H1081 0.950 . S
C1108 C1094 1.377 . S
C1108 C1107 1.373 . S
C1109 C1093 1.377 . S
C1109 C1107 1.389 . S
C1109 C1110 1.524 . S
C1110 C1109 1.524 . S
C1110 C1111 1.397 . S
C1110 C1115 1.363 . S
C1111 H1082 0.950 . S
C1111 C1110 1.397 . S
C1111 C1112 1.334 . S
C1112 H1083 0.950 . S
C1112 C1111 1.334 . S
C1112 C1113 1.287 . S
C1113 C1112 1.287 . S
C1113 C1114 1.524 . S
C1113 H1116 0.999 . S
C1114 H1084 0.950 . S
C1114 C1113 1.524 . S
C1114 C1115 1.415 . S
C1115 H1085 0.950 . S
C1115 C1110 1.363 . S
C1115 C1114 1.415 . S
H1116 C1113 0.999 . S
H1117 C1098 0.913 . S
H1118 C1136 0.951 . S
H1119 C1138 0.951 . S
H1120 C1140 0.950 . S
H1121 C1141 0.950 . S
H1122 C1143 0.950 . S
H1123 C1146 0.950 . S
H1124 C1147 0.950 . S
H1125 C1149 0.950 . S
H1126 C1150 0.950 . S
H1127 C1151 0.951 . S
H1128 C1153 0.951 . S
H1129 C1155 0.950 . S
H1130 C1156 0.950 . S
H1131 C1158 0.950 . S
H1132 C1161 0.963 . S
H1133 C1162 0.950 1_455 S
H1134 C1164 0.950 . S
H1135 C1165 0.950 . S
C1136 H1118 0.951 . S
C1136 C1137 1.366 . S
C1136 C1138 1.388 . S
C1137 C1136 1.366 . S
C1137 C1141 1.385 . S
C1138 H1119 0.951 . S
C1138 C1136 1.388 . S
C1138 C1139 1.366 . S
C1139 C1138 1.366 . S
C1139 C1140 1.414 . S
C1139 C1142 1.499 . S
C1140 H1120 0.950 . S
C1140 C1139 1.414 . S
C1140 C1141 1.374 . S
C1141 H1121 0.950 . S
C1141 C1137 1.385 . S
C1141 C1140 1.374 . S
C1142 C1139 1.499 . S
C1142 C1143 1.373 . S
C1142 C1144 1.389 . S
C1143 H1122 0.950 . S
C1143 C1142 1.373 . S
C1143 C1159 1.377 . S
C1144 C1142 1.389 . S
C1144 C1145 1.524 . S
C1144 C1158 1.377 . S
C1145 C1144 1.524 . S
C1145 C1146 1.397 . S
C1145 C1150 1.363 . S
C1146 H1123 0.950 . S
C1146 C1145 1.397 . S
C1146 C1147 1.334 . S
C1147 H1124 0.950 . S
C1147 C1146 1.334 . S
C1147 C1148 1.287 . S
C1148 C1147 1.287 . S
C1148 C1149 1.524 . S
C1148 H1167 0.913 . S
C1149 H1125 0.950 . S
C1149 C1148 1.524 . S
C1149 C1150 1.415 . S
C1150 H1126 0.950 . S
C1150 C1145 1.363 . S
C1150 C1149 1.415 . S
C1151 H1127 0.951 . S
C1151 C1152 1.366 1_655 S
C1151 C1153 1.388 . S
C1152 C1151 1.366 1_455 S
C1152 C1156 1.385 . S
C1153 H1128 0.951 . S
C1153 C1151 1.388 . S
C1153 C1154 1.366 1_554 S
C1154 C1153 1.366 1_556 S
C1154 C1155 1.414 1_655 S
C1154 C1157 1.499 . S
C1155 H1129 0.950 . S
C1155 C1154 1.414 1_455 S
C1155 C1156 1.374 1_556 S
C1156 H1130 0.950 . S
C1156 C1152 1.385 . S
C1156 C1155 1.374 1_554 S
C1157 C1154 1.499 . S
C1157 C1158 1.373 . S
C1157 C1159 1.389 . S
C1158 H1131 0.950 . S
C1158 C1144 1.377 . S
C1158 C1157 1.373 . S
C1159 C1143 1.377 . S
C1159 C1157 1.389 . S
C1159 C1160 1.524 . S
C1160 C1159 1.524 . S
C1160 C1161 1.397 . S
C1160 C1165 1.363 . S
C1161 H1132 0.963 . S
C1161 C1160 1.397 . S
C1161 C1162 1.334 1_556 S
C1162 H1133 0.950 1_655 S
C1162 C1161 1.334 1_554 S
C1162 C1163 1.287 . S
C1163 C1162 1.287 . S
C1163 C1164 1.524 . S
C1163 H1166 0.999 . S
C1164 H1134 0.950 . S
C1164 C1163 1.524 . S
C1164 C1165 1.415 1_554 S
C1165 H1135 0.950 . S
C1165 C1160 1.363 . S
C1165 C1164 1.415 1_556 S
H1166 C1163 0.999 . S
H1167 C1148 0.913 . S
H1168 C1186 0.951 . S
H1169 C1188 0.951 . S
H1170 C1190 0.950 . S
H1171 C1191 0.950 . S
H1172 C1193 0.950 . S
H1173 C1196 0.950 . S
H1174 C1197 0.950 . S
H1175 C1199 0.950 . S
H1176 C1200 0.950 . S
H1177 C1201 0.962 . S
H1178 C1203 0.951 . S
H1179 C1205 0.950 . S
H1180 C1206 0.950 . S
H1181 C1208 0.950 . S
H1182 C1211 0.950 . S
H1183 C1212 0.950 . S
H1184 C1214 0.950 . S
H1185 C1215 0.950 . S
C1186 H1168 0.951 . S
C1186 C1187 1.366 . S
C1186 C1188 1.388 . S
C1187 C1186 1.366 . S
C1187 C1191 1.385 . S
C1188 H1169 0.951 . S
C1188 C1186 1.388 . S
C1188 C1189 1.366 . S
C1189 C1188 1.366 . S
C1189 C1190 1.414 . S
C1189 C1192 1.499 . S
C1190 H1170 0.950 . S
C1190 C1189 1.414 . S
C1190 C1191 1.374 . S
C1191 H1171 0.950 . S
C1191 C1187 1.385 . S
C1191 C1190 1.374 . S
C1192 C1189 1.499 . S
C1192 C1193 1.373 . S
C1192 C1194 1.389 . S
C1193 H1172 0.950 . S
C1193 C1192 1.373 . S
C1193 C1209 1.377 . S
C1194 C1192 1.389 . S
C1194 C1195 1.524 . S
C1194 C1208 1.377 . S
C1195 C1194 1.524 . S
C1195 C1196 1.397 . S
C1195 C1200 1.363 . S
C1196 H1173 0.950 . S
C1196 C1195 1.397 . S
C1196 C1197 1.334 . S
C1197 H1174 0.950 . S
C1197 C1196 1.334 . S
C1197 C1198 1.287 . S
C1198 C1197 1.287 . S
C1198 C1199 1.524 . S
C1198 H1217 0.913 . S
C1199 H1175 0.950 . S
C1199 C1198 1.524 . S
C1199 C1200 1.415 . S
C1200 H1176 0.950 . S
C1200 C1195 1.363 . S
C1200 C1199 1.415 . S
C1201 H1177 0.962 . S
C1201 C1202 1.366 1_565 S
C1201 C1203 1.388 . S
C1202 C1201 1.366 1_545 S
C1202 C1206 1.385 . S
C1203 H1178 0.951 . S
C1203 C1201 1.388 . S
C1203 C1204 1.366 . S
C1204 C1203 1.366 . S
C1204 C1205 1.414 . S
C1204 C1207 1.499 . S
C1205 H1179 0.950 . S
C1205 C1204 1.414 . S
C1205 C1206 1.374 1_565 S
C1206 H1180 0.950 . S
C1206 C1202 1.385 . S
C1206 C1205 1.374 1_545 S
C1207 C1204 1.499 . S
C1207 C1208 1.373 . S
C1207 C1209 1.389 . S
C1208 H1181 0.950 . S
C1208 C1194 1.377 . S
C1208 C1207 1.373 . S
C1209 C1193 1.377 . S
C1209 C1207 1.389 . S
C1209 C1210 1.524 . S
C1210 C1209 1.524 . S
C1210 C1211 1.397 1_565 S
C1210 C1215 1.363 . S
C1211 H1182 0.950 . S
C1211 C1210 1.397 1_545 S
C1211 C1212 1.334 . S
C1212 H1183 0.950 . S
C1212 C1211 1.334 . S
C1212 C1213 1.287 . S
C1213 C1212 1.287 . S
C1213 C1214 1.524 1_545 S
C1213 H1216 0.999 . S
C1214 H1184 0.950 . S
C1214 C1213 1.524 1_565 S
C1214 C1215 1.415 . S
C1215 H1185 0.950 . S
C1215 C1210 1.363 . S
C1215 C1214 1.415 . S
H1216 C1213 0.999 . S
H1217 C1198 0.913 . S
H1218 C1236 0.951 . S
H1219 C1238 0.951 . S
H1220 C1240 0.950 . S
H1221 C1241 0.950 . S
H1222 C1243 0.950 . S
H1223 C1246 0.950 . S
H1224 C1247 0.950 . S
H1225 C1249 0.950 . S
H1226 C1250 0.950 . S
H1227 C1251 0.951 . S
H1228 C1253 0.951 . S
H1229 C1255 0.950 . S
H1230 C1256 0.950 . S
H1231 C1258 0.950 . S
H1232 C1261 0.950 . S
H1233 C1262 0.950 . S
H1234 C1264 0.950 . S
H1235 C1265 0.950 . S
C1236 H1218 0.951 . S
C1236 C1237 1.366 . S
C1236 C1238 1.388 . S
C1237 C1236 1.366 . S
C1237 C1241 1.385 . S
C1238 H1219 0.951 . S
C1238 C1236 1.388 . S
C1238 C1239 1.366 . S
C1239 C1238 1.366 . S
C1239 C1240 1.414 . S
C1239 C1242 1.499 . S
C1240 H1220 0.950 . S
C1240 C1239 1.414 . S
C1240 C1241 1.374 . S
C1241 H1221 0.950 . S
C1241 C1237 1.385 . S
C1241 C1240 1.374 . S
C1242 C1239 1.499 . S
C1242 C1243 1.373 . S
C1242 C1244 1.389 . S
C1243 H1222 0.950 . S
C1243 C1242 1.373 . S
C1243 C1259 1.377 . S
C1244 C1242 1.389 . S
C1244 C1245 1.524 . S
C1244 C1258 1.377 . S
C1245 C1244 1.524 . S
C1245 C1246 1.397 . S
C1245 C1250 1.363 . S
C1246 H1223 0.950 . S
C1246 C1245 1.397 . S
C1246 C1247 1.334 . S
C1247 H1224 0.950 . S
C1247 C1246 1.334 . S
C1247 C1248 1.287 . S
C1248 C1247 1.287 . S
C1248 C1249 1.524 . S
C1248 H1267 0.913 . S
C1249 H1225 0.950 . S
C1249 C1248 1.524 . S
C1249 C1250 1.415 . S
C1250 H1226 0.950 . S
C1250 C1245 1.363 . S
C1250 C1249 1.415 . S
C1251 H1227 0.951 . S
C1251 C1252 1.366 . S
C1251 C1253 1.388 . S
C1252 C1251 1.366 . S
C1252 C1256 1.385 . S
C1253 H1228 0.951 . S
C1253 C1251 1.388 . S
C1253 C1254 1.366 . S
C1254 C1253 1.366 . S
C1254 C1255 1.414 . S
C1254 C1257 1.499 . S
C1255 H1229 0.950 . S
C1255 C1254 1.414 . S
C1255 C1256 1.374 . S
C1256 H1230 0.950 . S
C1256 C1252 1.385 . S
C1256 C1255 1.374 . S
C1257 C1254 1.499 . S
C1257 C1258 1.373 . S
C1257 C1259 1.389 . S
C1258 H1231 0.950 . S
C1258 C1244 1.377 . S
C1258 C1257 1.373 . S
C1259 C1243 1.377 . S
C1259 C1257 1.389 . S
C1259 C1260 1.524 . S
C1260 C1259 1.524 . S
C1260 C1261 1.397 . S
C1260 C1265 1.363 . S
C1261 H1232 0.950 . S
C1261 C1260 1.397 . S
C1261 C1262 1.334 . S
C1262 H1233 0.950 . S
C1262 C1261 1.334 . S
C1262 C1263 1.287 . S
C1263 C1262 1.287 . S
C1263 C1264 1.524 . S
C1263 H1266 0.999 . S
C1264 H1234 0.950 . S
C1264 C1263 1.524 . S
C1264 C1265 1.415 . S
C1265 H1235 0.950 . S
C1265 C1260 1.363 . S
C1265 C1264 1.415 . S
H1266 C1263 0.999 . S
H1267 C1248 0.913 . S
H1268 C1286 0.951 . S
H1269 C1288 0.951 . S
H1270 C1290 0.950 . S
H1271 C1291 0.950 . S
H1272 C1293 0.950 . S
H1273 C1296 0.950 . S
H1274 C1297 0.950 . S
H1275 C1299 0.950 . S
H1276 C1300 0.950 . S
H1277 C1301 0.951 . S
H1278 C1303 0.951 . S
H1279 C1305 0.950 . S
H1280 C1306 0.950 . S
H1281 C1308 0.950 . S
H1282 C1311 0.950 . S
H1283 C1312 0.950 . S
H1284 C1314 0.950 . S
H1285 C1315 0.950 . S
C1286 H1268 0.951 . S
C1286 C1287 1.366 . S
C1286 C1288 1.388 . S
C1287 C1286 1.366 . S
C1287 C1291 1.385 . S
C1288 H1269 0.951 . S
C1288 C1286 1.388 . S
C1288 C1289 1.366 . S
C1289 C1288 1.366 . S
C1289 C1290 1.414 . S
C1289 C1292 1.499 . S
C1290 H1270 0.950 . S
C1290 C1289 1.414 . S
C1290 C1291 1.374 . S
C1291 H1271 0.950 . S
C1291 C1287 1.385 . S
C1291 C1290 1.374 . S
C1292 C1289 1.499 . S
C1292 C1293 1.373 . S
C1292 C1294 1.389 . S
C1293 H1272 0.950 . S
C1293 C1292 1.373 . S
C1293 C1309 1.377 . S
C1294 C1292 1.389 . S
C1294 C1295 1.524 . S
C1294 C1308 1.377 . S
C1295 C1294 1.524 . S
C1295 C1296 1.397 . S
C1295 C1300 1.363 . S
C1296 H1273 0.950 . S
C1296 C1295 1.397 . S
C1296 C1297 1.334 . S
C1297 H1274 0.950 . S
C1297 C1296 1.334 . S
C1297 C1298 1.287 . S
C1298 C1297 1.287 . S
C1298 C1299 1.524 . S
C1298 H1317 0.913 . S
C1299 H1275 0.950 . S
C1299 C1298 1.524 . S
C1299 C1300 1.415 . S
C1300 H1276 0.950 . S
C1300 C1295 1.363 . S
C1300 C1299 1.415 . S
C1301 H1277 0.951 . S
C1301 C1302 1.366 . S
C1301 C1303 1.388 1_655 S
C1302 C1301 1.366 . S
C1302 C1306 1.385 1_655 S
C1303 H1278 0.951 . S
C1303 C1301 1.388 1_455 S
C1303 C1304 1.366 . S
C1304 C1303 1.366 . S
C1304 C1305 1.414 . S
C1304 C1307 1.499 . S
C1305 H1279 0.950 . S
C1305 C1304 1.414 . S
C1305 C1306 1.374 . S
C1306 H1280 0.950 . S
C1306 C1302 1.385 1_455 S
C1306 C1305 1.374 . S
C1307 C1304 1.499 . S
C1307 C1308 1.373 . S
C1307 C1309 1.389 . S
C1308 H1281 0.950 . S
C1308 C1294 1.377 . S
C1308 C1307 1.373 . S
C1309 C1293 1.377 . S
C1309 C1307 1.389 . S
C1309 C1310 1.524 . S
C1310 C1309 1.524 . S
C1310 C1311 1.397 . S
C1310 C1315 1.363 . S
C1311 H1282 0.950 . S
C1311 C1310 1.397 . S
C1311 C1312 1.334 . S
C1312 H1283 0.950 . S
C1312 C1311 1.334 . S
C1312 C1313 1.287 . S
C1313 C1312 1.287 . S
C1313 C1314 1.524 . S
C1313 H1316 0.999 . S
C1314 H1284 0.950 . S
C1314 C1313 1.524 . S
C1314 C1315 1.415 . S
C1315 H1285 0.950 . S
C1315 C1310 1.363 . S
C1315 C1314 1.415 . S
H1316 C1313 0.999 . S
H1317 C1298 0.913 . S
H1318 C1336 0.951 . S
H1319 C1338 0.951 . S
H1320 C1340 0.950 . S
H1321 C1341 0.950 . S
H1322 C1343 0.950 . S
H1323 C1346 0.950 . S
H1324 C1347 0.950 . S
H1325 C1349 0.950 . S
H1326 C1350 0.950 . S
H1327 C1351 0.951 . S
H1328 C1353 0.951 . S
H1329 C1355 0.950 . S
H1330 C1356 0.950 . S
H1331 C1358 0.950 . S
H1332 C1361 0.950 . S
H1333 C1362 0.950 . S
H1334 C1364 0.950 . S
H1335 C1365 0.950 . S
C1336 H1318 0.951 . S
C1336 C1337 1.366 . S
C1336 C1338 1.388 . S
C1337 C1336 1.366 . S
C1337 C1341 1.385 1_565 S
C1338 H1319 0.951 . S
C1338 C1336 1.388 . S
C1338 C1339 1.366 1_565 S
C1339 C1338 1.366 1_545 S
C1339 C1340 1.414 . S
C1339 C1342 1.499 . S
C1340 H1320 0.950 . S
C1340 C1339 1.414 . S
C1340 C1341 1.374 . S
C1341 H1321 0.950 . S
C1341 C1337 1.385 1_545 S
C1341 C1340 1.374 . S
C1342 C1339 1.499 . S
C1342 C1343 1.373 . S
C1342 C1344 1.389 . S
C1343 H1322 0.950 . S
C1343 C1342 1.373 . S
C1343 C1359 1.377 . S
C1344 C1342 1.389 . S
C1344 C1345 1.524 . S
C1344 C1358 1.377 . S
C1345 C1344 1.524 . S
C1345 C1346 1.397 . S
C1345 C1350 1.363 . S
C1346 H1323 0.950 . S
C1346 C1345 1.397 . S
C1346 C1347 1.334 . S
C1347 H1324 0.950 . S
C1347 C1346 1.334 . S
C1347 C1348 1.287 1_545 S
C1348 C1347 1.287 1_565 S
C1348 C1349 1.524 . S
C1348 H1367 0.913 . S
C1349 H1325 0.950 . S
C1349 C1348 1.524 . S
C1349 C1350 1.415 1_565 S
C1350 H1326 0.950 . S
C1350 C1345 1.363 . S
C1350 C1349 1.415 1_545 S
C1351 H1327 0.951 . S
C1351 C1352 1.366 . S
C1351 C1353 1.388 . S
C1352 C1351 1.366 . S
C1352 C1356 1.385 . S
C1353 H1328 0.951 . S
C1353 C1351 1.388 . S
C1353 C1354 1.366 . S
C1354 C1353 1.366 . S
C1354 C1355 1.414 . S
C1354 C1357 1.499 . S
C1355 H1329 0.950 . S
C1355 C1354 1.414 . S
C1355 C1356 1.374 . S
C1356 H1330 0.950 . S
C1356 C1352 1.385 . S
C1356 C1355 1.374 . S
C1357 C1354 1.499 . S
C1357 C1358 1.373 . S
C1357 C1359 1.389 . S
C1358 H1331 0.950 . S
C1358 C1344 1.377 . S
C1358 C1357 1.373 . S
C1359 C1343 1.377 . S
C1359 C1357 1.389 . S
C1359 C1360 1.524 . S
C1360 C1359 1.524 . S
C1360 C1361 1.397 . S
C1360 C1365 1.363 . S
C1361 H1332 0.950 . S
C1361 C1360 1.397 . S
C1361 C1362 1.334 . S
C1362 H1333 0.950 . S
C1362 C1361 1.334 . S
C1362 C1363 1.287 . S
C1363 C1362 1.287 . S
C1363 C1364 1.524 . S
C1363 H1366 0.999 . S
C1364 H1334 0.950 . S
C1364 C1363 1.524 . S
C1364 C1365 1.415 . S
C1365 H1335 0.950 . S
C1365 C1360 1.363 . S
C1365 C1364 1.415 . S
H1366 C1363 0.999 . S
H1367 C1348 0.913 . S
C187 C118 1.299 . S
C202 C6 1.298 . S
C237 C20 1.299 . S
C252 C132 1.298 . S
C287 C34 1.299 . S
C302 C146 1.299 . S
C337 C48 1.298 . S
C352 C160 1.299 . S
C387 C90 1.299 . S
C402 C62 1.298 . S
C437 C76 1.299 . S
C452 C104 1.299 . S
C487 C135 0.881 . S
C502 C9 0.879 . S
C537 C23 0.880 . S
C552 C149 0.882 . S
C587 C163 0.880 . S
C602 C37 0.881 . S
C637 C51 0.880 . S
C652 C93 0.880 . S
C687 C107 0.880 . S
C702 C65 0.881 . S
C737 C121 0.881 . S
C752 C79 0.880 . S
C787 C8 1.411 . S
C802 C77 1.425 . S
C837 C22 1.412 . S
C852 C7 1.426 . S
C887 C21 1.426 . S
C902 C36 1.412 . S
C937 C50 1.412 . S
C952 C35 1.426 . S
C987 C64 1.412 . S
C1002 C49 1.426 . S
C1037 C78 1.412 . S
C1052 C63 1.425 . S
C1087 C92 1.413 . S
C1102 C105 1.426 . S
C1137 C106 1.413 . S
C1152 C119 1.426 . S
C1187 C120 1.413 . S
C1202 C133 1.427 . S
C1237 C134 1.412 . S
C1252 C147 1.426 . S
C1287 C148 1.412 . S
C1302 C161 1.426 . S
C1337 C91 1.427 . S
C1352 C162 1.413 . S
