# Generated by pormake.
# Topology wlb, (5)-cn, num edge types: 1
# Building blocks:
#     Node 0, Type 0, BuildingBlock: XOMCOT_clean_sbu_1, # of connection points: 5
#     Node 1, Type 0, BuildingBlock: XOMCOT_clean_sbu_1, # of connection points: 5
#     Node 2, Type 0, BuildingBlock: XOMCOT_clean_sbu_1, # of connection points: 5
#     Node 3, Type 0, BuildingBlock: XOMCOT_clean_sbu_1, # of connection points: 5
#     Node 4, Type 0, BuildingBlock: XOMCOT_clean_sbu_1, # of connection points: 5
#     Node 5, Type 0, BuildingBlock: XOMCOT_clean_sbu_1, # of connection points: 5
#     Node 6, Type 0, BuildingBlock: XOMCOT_clean_sbu_1, # of connection points: 5
#     Node 7, Type 0, BuildingBlock: XOMCOT_clean_sbu_1, # of connection points: 5
#     Node 8, Type 0, BuildingBlock: XOMCOT_clean_sbu_1, # of connection points: 5
#     Node 9, Type 0, BuildingBlock: XOMCOT_clean_sbu_1, # of connection points: 5
#     Node 10, Type 0, BuildingBlock: XOMCOT_clean_sbu_1, # of connection points: 5
#     Node 11, Type 0, BuildingBlock: XOMCOT_clean_sbu_1, # of connection points: 5
#     Node 12, Type 0, BuildingBlock: XOMCOT_clean_sbu_1, # of connection points: 5
#     Node 13, Type 0, BuildingBlock: XOMCOT_clean_sbu_1, # of connection points: 5
#     Node 14, Type 0, BuildingBlock: XOMCOT_clean_sbu_1, # of connection points: 5
#     Node 15, Type 0, BuildingBlock: XOMCOT_clean_sbu_1, # of connection points: 5
#     Node 16, Type 0, BuildingBlock: XOMCOT_clean_sbu_1, # of connection points: 5
#     Node 17, Type 0, BuildingBlock: XOMCOT_clean_sbu_1, # of connection points: 5
#     Edge 18, Type (0, 0), BuildingBlock: EZIPEK_clean_linker_0, # of connection points: 2
#     Edge 19, Type (0, 0), BuildingBlock: EZIPEK_clean_linker_0, # of connection points: 2
#     Edge 20, Type (0, 0), BuildingBlock: EZIPEK_clean_linker_0, # of connection points: 2
#     Edge 21, Type (0, 0), BuildingBlock: EZIPEK_clean_linker_0, # of connection points: 2
#     Edge 22, Type (0, 0), BuildingBlock: EZIPEK_clean_linker_0, # of connection points: 2
#     Edge 23, Type (0, 0), BuildingBlock: EZIPEK_clean_linker_0, # of connection points: 2
#     Edge 24, Type (0, 0), BuildingBlock: EZIPEK_clean_linker_0, # of connection points: 2
#     Edge 25, Type (0, 0), BuildingBlock: EZIPEK_clean_linker_0, # of connection points: 2
#     Edge 26, Type (0, 0), BuildingBlock: EZIPEK_clean_linker_0, # of connection points: 2
#     Edge 27, Type (0, 0), BuildingBlock: EZIPEK_clean_linker_0, # of connection points: 2
#     Edge 28, Type (0, 0), BuildingBlock: EZIPEK_clean_linker_0, # of connection points: 2
#     Edge 29, Type (0, 0), BuildingBlock: EZIPEK_clean_linker_0, # of connection points: 2
#     Edge 30, Type (0, 0), BuildingBlock: EZIPEK_clean_linker_0, # of connection points: 2
#     Edge 31, Type (0, 0), BuildingBlock: EZIPEK_clean_linker_0, # of connection points: 2
#     Edge 32, Type (0, 0), BuildingBlock: EZIPEK_clean_linker_0, # of connection points: 2
#     Edge 33, Type (0, 0), BuildingBlock: EZIPEK_clean_linker_0, # of connection points: 2
#     Edge 34, Type (0, 0), BuildingBlock: EZIPEK_clean_linker_0, # of connection points: 2
#     Edge 35, Type (0, 0), BuildingBlock: EZIPEK_clean_linker_0, # of connection points: 2
#     Edge 36, Type (0, 0), BuildingBlock: EZIPEK_clean_linker_0, # of connection points: 2
#     Edge 37, Type (0, 0), BuildingBlock: EZIPEK_clean_linker_0, # of connection points: 2
#     Edge 38, Type (0, 0), BuildingBlock: EZIPEK_clean_linker_0, # of connection points: 2
#     Edge 39, Type (0, 0), BuildingBlock: EZIPEK_clean_linker_0, # of connection points: 2
#     Edge 40, Type (0, 0), BuildingBlock: EZIPEK_clean_linker_0, # of connection points: 2
#     Edge 41, Type (0, 0), BuildingBlock: EZIPEK_clean_linker_0, # of connection points: 2
#     Edge 42, Type (0, 0), BuildingBlock: EZIPEK_clean_linker_0, # of connection points: 2
#     Edge 43, Type (0, 0), BuildingBlock: EZIPEK_clean_linker_0, # of connection points: 2
#     Edge 44, Type (0, 0), BuildingBlock: EZIPEK_clean_linker_0, # of connection points: 2
#     Edge 45, Type (0, 0), BuildingBlock: EZIPEK_clean_linker_0, # of connection points: 2
#     Edge 46, Type (0, 0), BuildingBlock: EZIPEK_clean_linker_0, # of connection points: 2
#     Edge 47, Type (0, 0), BuildingBlock: EZIPEK_clean_linker_0, # of connection points: 2
#     Edge 48, Type (0, 0), BuildingBlock: EZIPEK_clean_linker_0, # of connection points: 2
#     Edge 49, Type (0, 0), BuildingBlock: EZIPEK_clean_linker_0, # of connection points: 2
#     Edge 50, Type (0, 0), BuildingBlock: EZIPEK_clean_linker_0, # of connection points: 2
#     Edge 51, Type (0, 0), BuildingBlock: EZIPEK_clean_linker_0, # of connection points: 2
#     Edge 52, Type (0, 0), BuildingBlock: EZIPEK_clean_linker_0, # of connection points: 2
#     Edge 53, Type (0, 0), BuildingBlock: EZIPEK_clean_linker_0, # of connection points: 2
#     Edge 54, Type (0, 0), BuildingBlock: EZIPEK_clean_linker_0, # of connection points: 2
#     Edge 55, Type (0, 0), BuildingBlock: EZIPEK_clean_linker_0, # of connection points: 2
#     Edge 56, Type (0, 0), BuildingBlock: EZIPEK_clean_linker_0, # of connection points: 2
#     Edge 57, Type (0, 0), BuildingBlock: EZIPEK_clean_linker_0, # of connection points: 2
#     Edge 58, Type (0, 0), BuildingBlock: EZIPEK_clean_linker_0, # of connection points: 2
#     Edge 59, Type (0, 0), BuildingBlock: EZIPEK_clean_linker_0, # of connection points: 2
#     Edge 60, Type (0, 0), BuildingBlock: EZIPEK_clean_linker_0, # of connection points: 2
#     Edge 61, Type (0, 0), BuildingBlock: EZIPEK_clean_linker_0, # of connection points: 2
#     Edge 62, Type (0, 0), BuildingBlock: EZIPEK_clean_linker_0, # of connection points: 2
# Relax obj value: 0.358
# Max RMSD: 0.211
# Mean RMSD: 0.211
data_MOF--net-wlb--node1-XOMCOT_clean_sbu_1--edge1-EZIPEK_clean_linker_0
_symmetry_space_group_name_H-M    P1
_symmetry_Int_Tables_number       1
_symmetry_cell_setting            triclinic
loop_
_symmetry_equiv_pos_as_xyz
'x, y, z'
_cell_length_a     39.153515
_cell_length_b     39.132712
_cell_length_c     30.355452
_cell_angle_alpha  90.068665
_cell_angle_beta   89.763554
_cell_angle_gamma 119.93779
loop_
_atom_site_label
_atom_site_type_symbol
_atom_site_fract_x
_atom_site_fract_y
_atom_site_fract_z
_atom_type_partial_charge
C0 C 0.1528 0.21259 0.27818 0.0
C1 C 0.16701 0.18742 0.28717 0.0
N2 N 0.13821 0.15034 0.27872 0.0
N3 N 0.11513 0.19143 0.26443 0.0
C4 C 0.10701 0.15357 0.26571 0.0
H5 H 0.17029 0.24437 0.27689 0.0
Co6 Co 0.08657 0.2109 0.23483 0.0
C7 C 1.00055 0.157 0.25965 0.0
O8 O 0.99043 0.17268 0.22775 0.0
N9 N 0.059 0.2318 0.20377 0.0
C10 C 0.03258 0.24946 0.14965 0.0
C11 C 0.05264 0.2302 0.15981 0.0
C12 C 0.04303 0.25327 0.21935 0.0
N13 N 0.0268 0.26415 0.18705 0.0
O14 O 0.0983 0.24988 0.28172 0.0
H15 H 0.06219 0.21647 0.1359 0.0
H16 H 0.04316 0.26086 0.25366 0.0
O17 O 0.03747 0.16997 0.2656 0.0
C18 C 0.12552 0.28501 0.27194 0.0
O19 O 0.14337 0.2911 0.23363 0.0
N20 N 0.07903 0.17618 0.18723 0.0
C21 C 0.0703 0.14648 0.10218 0.0
C22 C 0.03927 0.12888 0.13256 0.0
C23 C 0.04452 0.1435 0.17534 0.0
C24 C 0.11108 0.19006 0.16002 0.0
C25 C 0.10764 0.17475 0.11749 0.0
H26 H 1.0197 0.12975 0.19705 0.0
H27 H 0.13863 0.2153 0.17005 0.0
H28 H 0.08051 0.12926 0.25201 0.0
H29 H 0.19737 0.19602 0.29397 0.0
H30 H 0.02398 0.25356 0.11709 0.0
H31 H 1.01035 0.10572 0.12253 0.0
H32 H 0.13271 0.18799 0.0953 0.0
C33 C 0.81813 0.94302 0.26851 0.0
C34 C 0.8394 0.98222 0.2794 0.0
N35 N 0.87787 0.99502 0.27208 0.0
N36 N 0.84272 0.92999 0.25622 0.0
C37 C 0.87915 0.96263 0.2585 0.0
H38 H 0.78641 0.9253 0.26824 0.0
Co39 Co 0.82255 0.8765 0.24087 0.0
C40 C 0.88963 0.86195 0.24559 0.0
O41 O 0.87717 0.84483 0.20704 0.0
N42 N 0.80054 0.82224 0.22735 0.0
C43 C 0.78583 0.75998 0.23709 0.0
C44 C 0.80651 0.79747 0.25295 0.0
C45 C 0.77281 0.79783 0.19829 0.0
N46 N 0.76439 0.76003 0.20275 0.0
O47 O 0.79489 0.85967 0.29819 0.0
H48 H 0.82394 0.8058 0.28266 0.0
H49 H 0.75769 0.80682 0.17551 0.0
O50 O 0.87101 0.87734 0.26461 0.0
C51 C 0.75744 0.84517 0.29503 0.0
O52 O 0.74267 0.84534 0.25632 0.0
N53 N 0.84587 0.89252 0.18295 0.0
C54 C 0.87314 0.90735 0.09405 0.0
C55 C 0.89926 0.9192 0.13019 0.0
C56 C 0.88529 0.91346 0.17361 0.0
C57 C 0.81988 0.88216 0.14913 0.0
C58 C 0.83253 0.88759 0.10512 0.0
H59 H 0.90683 0.9237 0.19951 0.0
H60 H 0.78881 0.86888 0.15615 0.0
H61 H 0.90621 0.96314 0.25024 0.0
H62 H 0.82732 1.00055 0.2897 0.0
H63 H 0.78536 0.73421 0.2508 0.0
H64 H 0.93048 0.93122 0.12666 0.0
H65 H 0.80979 0.87472 0.08045 0.0
C66 C 0.08978 0.86692 0.23978 0.0
C67 C 0.05196 0.84896 0.25622 0.0
N68 N 0.04056 0.87614 0.25875 0.0
N69 N 0.10316 0.90576 0.23383 0.0
C70 C 0.07247 0.91031 0.24654 0.0
H71 H 0.10587 0.85204 0.23154 0.0
Co72 Co 0.1546 0.94282 0.2147 0.0
C73 C 0.12958 1.00707 0.22459 0.0
O74 O 0.10143 0.99268 0.19539 0.0
N75 N 0.2069 0.98066 0.19746 0.0
C76 C 0.25723 0.03698 0.17254 0.0
C77 C 0.21742 0.0163 0.17991 0.0
C78 C 0.24133 0.98032 0.19989 0.0
N79 N 0.27214 1.01432 0.18524 0.0
O80 O 0.17455 0.93919 0.27139 0.0
H81 H 0.19738 0.02657 0.17237 0.0
H82 H 0.24419 0.95588 0.21174 0.0
O83 O 0.14877 0.98926 0.23437 0.0
C84 C 0.18462 0.91284 0.26712 0.0
O85 O 0.17821 0.89453 0.22913 0.0
N86 N 0.13645 0.94175 0.15588 0.0
C87 C 0.1278 0.95735 0.06884 0.0
C88 C 0.09799 0.94941 0.09956 0.0
C89 C 0.10177 0.93879 0.1425 0.0
C90 C 0.16101 0.94095 0.12425 0.0
C91 C 0.15763 0.94936 0.08051 0.0
H92 H 0.07763 0.9305 0.16497 0.0
H93 H 0.18504 0.93624 0.13313 0.0
H94 H 0.07238 0.93766 0.24565 0.0
H95 H 0.0333 0.81776 0.26276 0.0
H96 H 0.27407 0.0664 0.1589 0.0
H97 H 0.07295 0.95269 0.091 0.0
H98 H 0.17989 0.95269 0.05685 0.0
C99 C 0.19082 0.1211 0.70369 0.0
C100 C 0.16682 0.13728 0.7002 0.0
N101 N 0.14843 0.1326 0.7389 0.0
N102 N 0.18823 0.10617 0.74467 0.0
C103 C 0.16188 0.11412 0.76539 0.0
H104 H 0.20749 0.11875 0.67661 0.0
Co105 Co 0.21321 0.07546 0.75986 0.0
C106 C 0.13486 0.01599 0.7251 0.0
O107 O 0.12019 0.03396 0.74822 0.0
N108 N 0.23765 0.04552 0.77264 0.0
C109 C 0.25976 1.0039 0.76061 0.0
C110 C 0.24099 0.02199 0.74249 0.0
C111 C 0.25535 0.04166 0.80916 0.0
N112 N 0.26864 0.01606 0.80248 0.0
O113 O 0.24964 0.09825 0.70967 0.0
H114 H 0.23015 0.01795 0.70919 0.0
H115 H 0.25824 0.057 0.83983 0.0
O116 O 0.17235 0.03 0.72466 0.0
C117 C 0.28588 0.12025 0.72065 0.0
O118 O 0.29409 0.12626 0.76286 0.0
N119 N 0.18279 0.05552 0.81165 0.0
C120 C 0.1551 0.02831 0.8965 0.0
C121 C 0.17376 0.06872 0.88678 0.0
C122 C 0.18914 0.08177 0.84457 0.0
C123 C 0.16346 0.01599 0.82055 0.0
C124 C 0.14945 1.00183 0.86261 0.0
H125 H 0.20727 0.11306 0.83839 0.0
H126 H 0.16204 0.99531 0.79634 0.0
H127 H 0.15006 0.10412 0.79797 0.0
H128 H 0.16187 0.14996 0.67092 0.0
H129 H 0.26654 0.98334 0.74435 0.0
H130 H 0.17924 0.09008 0.91248 0.0
H131 H 0.13631 0.97054 0.86917 0.0
C132 C 0.88029 0.05953 0.81879 0.0
C133 C 0.86626 0.02102 0.8072 0.0
N134 N 0.88867 0.0198 0.77418 0.0
N135 N 0.91202 0.08309 0.79397 0.0
C136 C 0.91597 0.05812 0.76608 0.0
H137 H 0.86949 0.06982 0.84561 0.0
Co138 Co 0.94057 0.13552 0.81234 0.0
C139 C 0.02492 0.1625 0.79042 0.0
O140 O 0.03335 0.17749 0.83032 0.0
N141 N 0.9657 0.18811 0.8331 0.0
C142 C 0.96951 0.23858 0.87154 0.0
C143 C 0.94824 0.19875 0.86456 0.0
C144 C 0.99661 0.22296 0.8195 0.0
N145 N 0.99988 0.25368 0.84326 0.0
O146 O 0.92157 0.15292 0.76263 0.0
H147 H 0.91998 0.17932 0.87943 0.0
H148 H 1.01548 0.22625 0.79183 0.0
O149 O 0.98863 0.14487 0.77812 0.0
C150 C 0.89158 0.15738 0.76827 0.0
O151 O 0.87185 0.14579 0.80551 0.0
N152 N 0.95765 0.11813 0.86219 0.0
C153 C 0.99434 0.1093 0.93578 0.0
C154 C 0.99979 0.09671 0.89456 0.0
C155 C 0.9797 0.09993 0.85819 0.0
C156 C 0.94663 0.12331 0.90317 0.0
C157 C 0.9654 0.12005 0.94048 0.0
H158 H 0.9846 0.09081 0.82632 0.0
H159 H 0.92418 0.1312 0.90727 0.0
H160 H 0.93922 0.06745 0.74193 0.0
H161 H 0.84206 0.99552 0.82286 0.0
H162 H 0.9625 0.25548 0.89438 0.0
H163 H 1.02099 0.08689 0.89007 0.0
H164 H 0.95913 0.12816 0.97239 0.0
C165 C 0.95181 0.80734 0.74838 0.0
C166 C 0.98926 0.83118 0.73232 0.0
N167 N 0.99851 0.86881 0.73845 0.0
N168 N 0.93665 0.82955 0.76331 0.0
C169 C 0.96643 0.86712 0.75755 0.0
H170 H 0.93656 0.77552 0.74897 0.0
Co171 Co 0.88457 0.80582 0.78531 0.0
C172 C 0.85975 0.867 0.76899 0.0
O173 O 0.84141 0.8586 0.80719 0.0
N174 N 0.83242 0.77819 0.8076 0.0
C175 C 0.78306 0.72946 0.84522 0.0
C176 C 0.82234 0.74753 0.83532 0.0
C177 C 0.79754 0.77644 0.79909 0.0
N178 N 0.76756 0.7478 0.82265 0.0
O179 O 0.86514 0.77387 0.73157 0.0
H180 H 0.84195 0.73746 0.8464 0.0
H181 H 0.79356 0.7947 0.77538 0.0
O182 O 0.87737 0.84823 0.75689 0.0
C183 C 0.85588 0.7375 0.73182 0.0
O184 O 0.86152 0.72239 0.76776 0.0
N185 N 0.90308 0.83569 0.8395 0.0
C186 C 0.90776 0.86921 0.92229 0.0
C187 C 0.91771 0.89231 0.88419 0.0
C188 C 0.916 0.87519 0.84319 0.0
C189 C 0.89997 0.8149 0.87692 0.0
C190 C 0.90095 0.83065 0.91876 0.0
H191 H 0.92275 0.89364 0.81462 0.0
H192 H 0.89494 0.78529 0.87463 0.0
H193 H 0.96533 0.89294 0.76741 0.0
H194 H 1.00849 0.82172 0.71782 0.0
H195 H 0.76696 0.70479 0.86739 0.0
H196 H 0.92466 0.92277 0.88588 0.0
H197 H 0.89489 0.81244 0.94781 0.0
C198 C 0.82412 0.55159 0.59519 0.0
C199 C 0.83705 0.52754 0.61225 0.0
N200 N 0.81206 0.4905 0.59915 0.0
N201 N 0.79076 0.52988 0.5719 0.0
C202 C 0.78423 0.49253 0.57498 0.0
H203 H 0.83868 0.58318 0.59907 0.0
Co204 Co 0.76428 0.55212 0.54246 0.0
C205 C 0.6782 0.49163 0.55014 0.0
O206 O 0.67337 0.50166 0.5103 0.0
N207 N 0.7395 0.57685 0.51319 0.0
C208 C 0.72959 0.61542 0.46705 0.0
C209 C 0.75246 0.59887 0.47598 0.0
C210 C 0.70964 0.58231 0.52732 0.0
N211 N 0.70277 0.60495 0.49932 0.0
O212 O 0.77303 0.58647 0.5934 0.0
H213 H 0.77828 0.60484 0.45732 0.0
H214 H 0.69337 0.5702 0.55761 0.0
O215 O 0.71278 0.51012 0.56722 0.0
C216 C 0.79657 0.62356 0.58808 0.0
O217 O 0.81102 0.63648 0.54856 0.0
N218 N 0.75888 0.52099 0.49119 0.0
C219 C 0.739 0.49367 0.40569 0.0
C220 C 0.71937 0.46858 0.4411 0.0
C221 C 0.73085 0.48245 0.484 0.0
C222 C 0.78384 0.54178 0.45759 0.0
C223 C 0.77371 0.52926 0.41397 0.0
H224 H 0.71462 0.463 0.51075 0.0
H225 H 0.80919 0.57037 0.46413 0.0
H226 H 0.76011 0.46722 0.55951 0.0
H227 H 0.86337 0.53658 0.63159 0.0
H228 H 0.73276 0.63431 0.43946 0.0
H229 H 0.6935 0.43999 0.43577 0.0
H230 H 0.79057 0.54875 0.38719 0.0
C231 C 0.49477 0.28216 0.59695 0.0
C232 C 0.5177 0.32241 0.59892 0.0
N233 N 0.5521 0.33288 0.5788 0.0
N234 N 0.51455 0.2665 0.5764 0.0
C235 C 0.54951 0.29865 0.56507 0.0
H236 H 0.46518 0.26592 0.60963 0.0
Co237 Co 0.49484 0.21132 0.56727 0.0
C238 C 0.55857 0.1954 0.6068 0.0
O239 O 0.54063 0.15873 0.59322 0.0
N240 N 0.47352 0.15655 0.55852 0.0
C241 C 0.44608 0.09203 0.5716 0.0
C242 C 0.46265 0.12882 0.5904 0.0
C243 C 0.46068 0.13545 0.52082 0.0
N244 N 0.44449 0.09627 0.52787 0.0
O245 O 0.46253 0.19842 0.6207 0.0
H246 H 0.46707 0.13499 0.6253 0.0
H247 H 0.46247 0.14835 0.48883 0.0
O248 O 0.54281 0.21692 0.59919 0.0
C249 C 0.42744 0.18982 0.60987 0.0
O250 O 0.42137 0.19639 0.56895 0.0
N251 N 0.52146 0.22207 0.51242 0.0
C252 C 0.54171 0.22321 0.42401 0.0
C253 C 0.55958 0.21239 0.45662 0.0
C254 C 0.54911 0.21205 0.50071 0.0
C255 C 0.5053 0.23461 0.48109 0.0
C256 C 0.51517 0.23562 0.43657 0.0
H257 H 0.5615 0.20109 0.52429 0.0
H258 H 0.48281 0.24162 0.49045 0.0
H259 H 0.57247 0.29717 0.54675 0.0
H260 H 0.50963 0.34264 0.61359 0.0
H261 H 0.43501 0.06419 0.58869 0.0
H262 H 0.57993 0.20231 0.44782 0.0
H263 H 0.50059 0.24382 0.41198 0.0
C264 C 0.76181 0.216 0.56802 0.0
C265 C 0.72172 0.20025 0.57373 0.0
N266 N 0.71585 0.22674 0.59559 0.0
N267 N 0.78133 0.25301 0.58454 0.0
C268 C 0.75223 0.25746 0.60328 0.0
H269 H 0.77589 0.20128 0.55256 0.0
Co270 Co 0.8375 0.28644 0.58385 0.0
C271 C 0.81464 0.3486 0.59739 0.0
O272 O 0.79155 0.33441 0.56294 0.0
N273 N 0.89298 0.31803 0.58495 0.0
C274 C 0.95242 0.36723 0.60206 0.0
C275 C 0.91351 0.34688 0.61437 0.0
C276 C 0.92069 0.31962 0.55682 0.0
N277 N 0.95724 0.35017 0.56579 0.0
O278 O 0.83973 0.26433 0.64032 0.0
H279 H 0.90081 0.35374 0.64233 0.0
H280 H 0.91385 0.29981 0.52913 0.0
O281 O 0.83334 0.33147 0.61138 0.0
C282 C 0.85174 0.23947 0.63544 0.0
O283 O 0.85957 0.23263 0.59531 0.0
N284 N 0.83689 0.30578 0.52569 0.0
C285 C 0.84078 0.33286 0.4394 0.0
C286 C 0.86194 0.35918 0.4731 0.0
C287 C 0.85996 0.34498 0.51576 0.0
C288 C 0.81723 0.27972 0.49247 0.0
C289 C 0.81813 0.2927 0.4493 0.0
H290 H 0.87797 0.36553 0.54058 0.0
H291 H 0.80203 0.24851 0.49839 0.0
H292 H 0.75703 0.28217 0.62295 0.0
H293 H 0.69869 0.17167 0.56266 0.0
H294 H 0.97537 0.39333 0.61804 0.0
H295 H 0.88082 0.39029 0.46623 0.0
H296 H 0.80262 0.27141 0.42351 0.0
C297 C 0.90092 0.47724 0.08755 0.0
C298 C 0.88072 0.49626 0.07567 0.0
N299 N 0.84195 0.46995 0.07728 0.0
N300 N 0.87528 0.43881 0.09593 0.0
C301 C 0.83945 0.43556 0.08936 0.0
H302 H 0.93261 0.49063 0.08931 0.0
Co303 Co 0.89327 0.4025 0.10751 0.0
C304 C 0.80787 0.3395 0.09628 0.0
O305 O 0.79783 0.35225 0.13126 0.0
N306 N 0.91229 0.36803 0.11688 0.0
C307 C 0.92612 0.32025 0.10551 0.0
C308 C 0.90688 0.3387 0.08927 0.0
C309 C 0.93546 0.36739 0.14938 0.0
N310 N 0.94409 0.33844 0.14305 0.0
O311 O 0.92084 0.41594 0.05055 0.0
H312 H 0.89055 0.33163 0.05879 0.0
H313 H 0.94598 0.38781 0.17677 0.0
O314 O 0.84369 0.35749 0.08207 0.0
C315 C 0.9583 0.43751 0.05567 0.0
O316 O 0.97203 0.44853 0.09572 0.0
N317 N 0.87161 0.392 0.16576 0.0
C318 C 0.85731 0.37966 0.25628 0.0
C319 C 0.84732 0.34798 0.228 0.0
C320 C 0.85533 0.3548 0.18322 0.0
C321 C 0.88053 0.42322 0.19292 0.0
C322 C 0.87346 0.41768 0.23846 0.0
H323 H 0.84987 0.3301 0.16282 0.0
H324 H 0.89542 0.45288 0.17987 0.0
H325 H 0.81166 0.40895 0.09242 0.0
H326 H 0.89343 0.52709 0.06708 0.0
H327 H 0.92752 0.29582 0.09062 0.0
H328 H 0.83553 0.31835 0.24083 0.0
H329 H 0.88232 0.44293 0.25975 0.0
C330 C 0.56347 0.42841 0.08039 0.0
C331 C 0.54452 0.38888 0.07045 0.0
N332 N 0.57192 0.37812 0.06484 0.0
N333 N 0.6029 0.4433 0.08011 0.0
C334 C 0.60692 0.41161 0.07004 0.0
H335 H 0.54914 0.44511 0.08823 0.0
Co336 Co 0.63801 0.49836 0.08853 0.0
C337 C 0.70195 0.47707 0.07755 0.0
O338 O 0.68769 0.45392 0.11206 0.0
N339 N 0.67082 0.55273 0.0941 0.0
C340 C 0.71956 0.61379 0.08291 0.0
C341 C 0.7033 0.57538 0.0697 0.0
C342 C 0.66651 0.57839 0.12003 0.0
N343 N 0.69634 0.61577 0.11443 0.0
O344 O 0.62033 0.50944 0.03267 0.0
H345 H 0.71432 0.56493 0.04333 0.0
H346 H 0.6421 0.56981 0.14263 0.0
O347 O 0.68396 0.49455 0.06198 0.0
C348 C 0.596 0.52154 0.04207 0.0
O349 O 0.58542 0.52024 0.08343 0.0
N350 N 0.65242 0.49008 0.14674 0.0
C351 C 0.67352 0.48106 0.23225 0.0
C352 C 0.63548 0.4557 0.21644 0.0
C353 C 0.6253 0.46119 0.17379 0.0
C354 C 0.6894 0.51519 0.16273 0.0
C355 C 0.7005 0.51104 0.20495 0.0
H356 H 0.59537 0.44243 0.16302 0.0
H357 H 0.71114 0.53873 0.14301 0.0
H358 H 0.63448 0.41234 0.06557 0.0
H359 H 0.51296 0.36919 0.06898 0.0
H360 H 0.74615 0.63861 0.06986 0.0
H361 H 0.61361 0.43268 0.23731 0.0
H362 H 0.72998 0.53149 0.21641 0.0
C363 C 0.60663 0.15146 0.04702 0.0
C364 C 0.64668 0.17315 0.04074 0.0
N365 N 0.66139 0.20179 0.07103 0.0
N366 N 0.59553 0.16648 0.08093 0.0
C367 C 0.63035 0.19669 0.0956 0.0
H368 H 0.58716 0.12697 0.02646 0.0
Co369 Co 0.54159 0.14867 0.09734 0.0
C370 C 0.56665 0.23208 0.0668 0.0
O371 O 0.59877 0.24577 0.09025 0.0
N372 N 0.48882 0.13025 0.11151 0.0
C373 C 0.42605 0.11212 0.10059 0.0
C374 C 0.46336 0.13286 0.08379 0.0
C375 C 0.46608 0.10695 0.14482 0.0
N376 N 0.42775 0.09579 0.13876 0.0
O377 O 0.52335 0.1146 0.04582 0.0
H378 H 0.47104 0.14708 0.05191 0.0
H379 H 0.47696 0.09666 0.17144 0.0
O380 O 0.54256 0.19467 0.06536 0.0
C381 C 0.50873 0.07818 0.05654 0.0
O382 O 0.50747 0.06945 0.09852 0.0
N383 N 0.55667 0.17673 0.15109 0.0
C384 C 0.56165 0.19864 0.23936 0.0
C385 C 0.54372 0.21109 0.20861 0.0
C386 C 0.54123 0.19951 0.16474 0.0
C387 C 0.57502 0.16504 0.18063 0.0
C388 C 0.57845 0.17625 0.22495 0.0
H389 H 0.52387 0.20595 0.14279 0.0
H390 H 0.58507 0.14506 0.17031 0.0
H391 H 0.63321 0.2157 0.12288 0.0
H392 H 0.6635 0.16946 0.01464 0.0
H393 H 0.39926 0.10741 0.08485 0.0
H394 H 0.52955 0.22751 0.21897 0.0
H395 H 0.59174 0.16543 0.24824 0.0
C396 C 0.48465 0.89151 0.87382 0.0
C397 C 0.50496 0.87202 0.88302 0.0
N398 N 0.4824 0.84132 0.90967 0.0
N399 N 0.44975 0.87389 0.89531 0.0
C400 C 0.45081 0.84531 0.91935 0.0
H401 H 0.49316 0.91471 0.84968 0.0
Co402 Co 0.40849 0.88492 0.88374 0.0
C403 C 0.35407 0.79389 0.90732 0.0
O404 O 0.37821 0.781 0.89722 0.0
N405 N 0.36703 0.89606 0.87278 0.0
C406 C 0.31266 0.89151 0.84366 0.0
C407 C 0.33405 0.87279 0.84943 0.0
C408 C 0.36368 0.92807 0.88265 0.0
N409 N 0.3316 0.92649 0.86414 0.0
O410 O 0.41714 0.91052 0.94041 0.0
H411 H 0.32695 0.84485 0.83516 0.0
H412 H 0.38443 0.95249 0.90212 0.0
O413 O 0.36482 0.83085 0.90418 0.0
C414 C 0.44594 0.94571 0.93351 0.0
O415 O 0.46373 0.95365 0.89504 0.0
N416 N 0.40519 0.86719 0.82511 0.0
C417 C 0.39455 0.84649 0.73674 0.0
C418 C 0.39772 0.82182 0.76763 0.0
C419 C 0.40409 0.83336 0.81175 0.0
C420 C 0.40743 0.89365 0.79429 0.0
C421 C 0.40117 0.88349 0.7499 0.0
H422 H 0.40765 0.81487 0.83474 0.0
H423 H 0.41226 0.92222 0.80443 0.0
H424 H 0.42806 0.82636 0.94221 0.0
H425 H 0.53132 0.87645 0.86622 0.0
H426 H 0.28617 0.88108 0.82422 0.0
H427 H 0.39438 0.79367 0.75792 0.0
H428 H 0.4002 0.90375 0.72632 0.0
C429 C 0.14734 0.60329 0.89789 0.0
C430 C 0.16928 0.64271 0.90838 0.0
N431 N 0.20605 0.65084 0.91821 0.0
N432 N 0.16997 0.58641 0.90138 0.0
C433 C 0.20557 0.61618 0.91426 0.0
H434 H 0.118 0.58888 0.88426 0.0
Co435 Co 0.15496 0.53576 0.88009 0.0
C436 C 0.23296 0.53653 0.89372 0.0
O437 O 0.23879 0.53768 0.8512 0.0
N438 N 0.13932 0.48368 0.85787 0.0
C439 C 0.14027 0.43521 0.81937 0.0
C440 C 0.15923 0.47481 0.82752 0.0
C441 C 0.10713 0.448 0.86655 0.0
N442 N 0.10755 0.41844 0.84394 0.0
O443 O 0.12322 0.51292 0.93341 0.0
H444 H 0.18504 0.49567 0.81007 0.0
H445 H 0.08332 0.44331 0.8882 0.0
O446 O 0.20234 0.53675 0.90912 0.0
C447 C 0.08734 0.50462 0.92833 0.0
O448 O 0.07682 0.51057 0.8893 0.0
N449 N 0.1806 0.55871 0.82573 0.0
C450 C 0.20706 0.5741 0.73898 0.0
C451 C 0.23307 0.59405 0.77363 0.0
C452 C 0.21873 0.58709 0.81707 0.0
C453 C 0.15411 0.54457 0.79204 0.0
C454 C 0.16678 0.55121 0.74836 0.0
H455 H 0.23928 0.60165 0.8435 0.0
H456 H 0.1232 0.52508 0.79918 0.0
H457 H 0.23181 0.61373 0.91608 0.0
H458 H 0.16024 0.66454 0.90428 0.0
H459 H 0.14919 0.41993 0.79637 0.0
H460 H 0.26429 0.61294 0.76741 0.0
H461 H 0.14566 0.53633 0.72227 0.0
C462 C 0.43152 0.54815 0.91035 0.0
C463 C 0.39285 0.52543 0.9236 0.0
N464 N 0.37844 0.5495 0.93292 0.0
N465 N 0.44257 0.58673 0.9131 0.0
C466 C 0.40998 0.58624 0.92957 0.0
H467 H 0.44972 0.53689 0.89748 0.0
Co468 Co 0.49308 0.6283 0.89416 0.0
C469 C 0.46061 0.68498 0.91168 0.0
O470 O 0.42851 0.66463 0.88867 0.0
N471 N 0.54471 0.6702 0.87781 0.0
C472 C 0.59551 0.73016 0.86274 0.0
C473 C 0.55671 0.7092 0.87504 0.0
C474 C 0.57766 0.66867 0.86714 0.0
N475 N 0.60857 0.70465 0.85786 0.0
O476 O 0.5158 0.62141 0.9485 0.0
H477 H 0.5392 0.72259 0.88215 0.0
H478 H 0.57919 0.64188 0.86576 0.0
O479 O 0.48387 0.6712 0.9193 0.0
C480 C 0.52797 0.59702 0.93998 0.0
O481 O 0.52301 0.58248 0.90002 0.0
N482 N 0.47222 0.6305 0.83645 0.0
C483 C 0.45018 0.63975 0.75155 0.0
C484 C 0.42202 0.62352 0.78498 0.0
C485 C 0.43345 0.61798 0.82681 0.0
C486 C 0.49804 0.64078 0.80175 0.0
C487 C 0.48815 0.64694 0.75975 0.0
H488 H 0.41048 0.60406 0.85086 0.0
H489 H 0.5266 0.64369 0.80535 0.0
H490 H 0.40809 0.61206 0.9367 0.0
H491 H 0.37553 0.49358 0.92189 0.0
H492 H 0.61316 0.76182 0.85872 0.0
H493 H 0.39161 0.61521 0.77884 0.0
H494 H 0.51001 0.65689 0.73363 0.0
C495 C 0.56079 0.80801 0.45139 0.0
C496 C 0.54116 0.82746 0.43888 0.0
N497 N 0.50985 0.80254 0.41463 0.0
N498 N 0.54193 0.77104 0.43503 0.0
C499 C 0.51116 0.76876 0.41249 0.0
H500 H 0.58555 0.81917 0.47364 0.0
Co501 Co 0.55185 0.731 0.45201 0.0
C502 C 0.49809 0.66264 0.39351 0.0
O503 O 0.52594 0.6557 0.37986 0.0
N504 N 0.56155 0.69063 0.47041 0.0
C505 C 0.5512 0.63369 0.49885 0.0
C506 C 0.53398 0.65547 0.4872 0.0
C507 C 0.59555 0.68964 0.47281 0.0
N508 N 0.5898 0.65522 0.48959 0.0
O509 O 0.58831 0.74408 0.4027 0.0
H510 H 0.503 0.64595 0.4905 0.0
H511 H 0.62402 0.71344 0.46268 0.0
O512 O 0.50663 0.69213 0.41831 0.0
C513 C 0.62318 0.77138 0.41262 0.0
O514 O 0.62968 0.78566 0.45282 0.0
N515 N 0.51931 0.7211 0.50117 0.0
C516 C 0.47742 0.69624 0.57942 0.0
C517 C 0.45739 0.69017 0.53957 0.0
C518 C 0.47906 0.70305 0.50046 0.0
C519 C 0.5391 0.73055 0.54007 0.0
C520 C 0.51863 0.71803 0.57979 0.0
H521 H 0.46322 0.6968 0.46978 0.0
H522 H 0.57097 0.74546 0.53995 0.0
H523 H 0.48779 0.74191 0.39861 0.0
H524 H 0.54759 0.85648 0.44949 0.0
H525 H 0.53652 0.60407 0.51219 0.0
H526 H 0.42549 0.67375 0.53856 0.0
H527 H 0.53478 0.72333 0.61029 0.0
C528 C 0.23447 0.7753 0.42219 0.0
C529 C 0.21185 0.73576 0.41212 0.0
N530 N 0.23578 0.7231 0.3961 0.0
N531 N 0.27237 0.78795 0.41142 0.0
C532 C 0.27185 0.75567 0.39479 0.0
H533 H 0.2238 0.79382 0.43576 0.0
Co534 Co 0.31406 0.84028 0.41458 0.0
C535 C 0.38761 0.83644 0.40126 0.0
O536 O 0.40232 0.8625 0.43317 0.0
N537 N 0.35519 0.89421 0.41551 0.0
C538 C 0.40127 0.95088 0.38619 0.0
C539 C 0.38085 0.91072 0.38186 0.0
C540 C 0.35986 0.92576 0.43901 0.0
N541 N 0.38673 0.96101 0.42108 0.0
O542 O 0.29779 0.85093 0.35915 0.0
H543 H 0.38277 0.89473 0.3539 0.0
H544 H 0.34249 0.92332 0.4676 0.0
O545 O 0.35216 0.82456 0.38786 0.0
C546 C 0.27669 0.86622 0.37023 0.0
O547 O 0.27178 0.87056 0.41228 0.0
N548 N 0.32563 0.83044 0.47179 0.0
C549 C 0.34387 0.82199 0.55782 0.0
C550 C 0.34514 0.79788 0.52465 0.0
C551 C 0.33474 0.8019 0.48187 0.0
C552 C 0.31912 0.85001 0.50491 0.0
C553 C 0.32916 0.84714 0.54818 0.0
H554 H 0.33419 0.78226 0.45694 0.0
H555 H 0.30541 0.86737 0.49797 0.0
H556 H 0.29692 0.75614 0.38008 0.0
H557 H 0.18036 0.71755 0.41699 0.0
H558 H 0.4241 0.97007 0.36374 0.0
H559 H 0.35433 0.77654 0.53171 0.0
H560 H 0.32559 0.8644 0.57382 0.0
C561 C 0.27149 0.52365 0.3509 0.0
C562 C 0.3111 0.54502 0.34199 0.0
N563 N 0.33022 0.55729 0.38034 0.0
N564 N 0.26487 0.52168 0.39496 0.0
C565 C 0.30193 0.5429 0.412 0.0
H566 H 0.24882 0.51203 0.32603 0.0
Co567 Co 0.21136 0.49735 0.41693 0.0
C568 C 0.22973 0.57721 0.38647 0.0
O569 O 0.26402 0.59065 0.40567 0.0
N570 N 0.15821 0.47315 0.43554 0.0
C571 C 0.09492 0.45572 0.43318 0.0
C572 C 0.13067 0.47686 0.41294 0.0
C573 C 0.13763 0.44726 0.46828 0.0
N574 N 0.09879 0.43634 0.46764 0.0
O575 O 0.19367 0.46152 0.36692 0.0
H576 H 0.13557 0.49224 0.38202 0.0
H577 H 0.15057 0.4357 0.49106 0.0
O578 O 0.20533 0.53986 0.38629 0.0
C579 C 0.18609 0.4272 0.37977 0.0
O580 O 0.19137 0.4226 0.42161 0.0
N581 N 0.22665 0.5269 0.46966 0.0
C582 C 0.23503 0.55278 0.5568 0.0
C583 C 0.25419 0.53275 0.54176 0.0
C584 C 0.24822 0.51868 0.49848 0.0
C585 C 0.20857 0.54708 0.48386 0.0
C586 C 0.21266 0.5606 0.52706 0.0
H587 H 0.25925 0.4994 0.48853 0.0
H588 H 0.18795 0.5497 0.46318 0.0
H589 H 0.30856 0.54983 0.44639 0.0
H590 H 0.32482 0.55242 0.30973 0.0
H591 H 0.06745 0.45298 0.42189 0.0
H592 H 0.27076 0.52517 0.56431 0.0
H593 H 0.19629 0.57469 0.53791 0.0
C594 C 0.94918 0.29276 0.19391 0.0
C595 C 0.96794 0.32804 0.16923 0.0
C596 C 0.02947 0.32667 0.16853 0.0
C597 C 1.0098 0.2893 0.18957 0.0
N598 N 0.95453 0.24083 0.23143 0.0
N599 N 0.02747 0.38511 0.1456 0.0
C600 C 0.97089 0.27398 0.20595 0.0
C601 C 1.00886 0.34738 0.16121 0.0
N602 N 0.90998 0.2765 0.20338 0.0
N603 N 0.06701 0.341 0.15317 0.0
H604 H 1.01252 0.40054 0.1404 0.0
H605 H 0.05788 0.40227 0.14176 0.0
H606 H 0.08309 0.32677 0.15877 0.0
H607 H 0.08161 0.3658 0.13315 0.0
H608 H 0.89273 0.24881 0.21747 0.0
H609 H 0.89444 0.29105 0.19604 0.0
H610 H 0.92712 0.2291 0.24668 0.0
H611 H 0.96975 0.22633 0.23981 0.0
C612 C 0.70243 0.65349 0.18311 0.0
C613 C 0.7034 0.65137 0.1365 0.0
C614 C 0.73916 0.72331 0.1321 0.0
C615 C 0.73717 0.72526 0.17864 0.0
N616 N 0.70194 0.69249 0.24466 0.0
N617 N 0.70768 0.6838 0.06764 0.0
C618 C 0.71318 0.69027 0.20271 0.0
C619 C 0.71651 0.68625 0.11132 0.0
N620 N 0.69518 0.62208 0.20903 0.0
N621 N 0.76468 0.75542 0.10786 0.0
H622 H 0.68947 0.65679 0.05243 0.0
H623 H 0.71449 0.70849 0.04842 0.0
H624 H 0.78401 0.78269 0.12155 0.0
H625 H 0.76927 0.75372 0.07426 0.0
H626 H 0.69752 0.62407 0.24326 0.0
H627 H 0.69159 0.59569 0.19671 0.0
H628 H 0.68254 0.66763 0.26283 0.0
H629 H 0.70853 0.71944 0.25872 0.0
C630 C 0.36861 0.0309 0.14129 0.0
C631 C 0.39356 0.06715 0.16237 0.0
C632 C 0.33969 0.05718 0.21125 0.0
C633 C 0.31321 0.0259 0.1838 0.0
N634 N 0.30142 0.98119 0.12384 0.0
N635 N 0.40556 0.1137 0.21987 0.0
C636 C 0.32746 1.01139 0.14991 0.0
C637 C 0.38012 0.07937 0.19907 0.0
N638 N 0.38461 0.01651 0.11171 0.0
N639 N 0.32547 0.066 0.24803 0.0
H640 H 0.43543 0.12967 0.21165 0.0
H641 H 0.39717 0.12685 0.24417 0.0
H642 H 0.29568 0.05008 0.25671 0.0
H643 H 0.34316 0.08676 0.27136 0.0
H644 H 0.36891 0.98897 0.09683 0.0
H645 H 0.41484 0.0312 0.10506 0.0
H646 H 0.3095 0.97186 0.09556 0.0
H647 H 0.27109 0.96652 0.12938 0.0
C648 C 0.32882 0.01526 0.82122 0.0
C649 C 0.28929 1.00355 0.83155 0.0
C650 C 0.28529 0.9506 0.87815 0.0
C651 C 0.32156 0.95721 0.86027 0.0
N652 N 0.37807 0.99545 0.81351 0.0
N653 N 0.22966 0.96163 0.87122 0.0
C654 C 0.34404 0.99016 0.83238 0.0
C655 C 0.26773 0.97222 0.86142 0.0
N656 N 0.351 0.04985 0.79908 0.0
N657 N 0.2676 0.92299 0.9105 0.0
H658 H 0.21668 0.97764 0.85993 0.0
H659 H 0.21059 0.93642 0.88894 0.0
H660 H 0.28038 0.90709 0.92282 0.0
H661 H 0.24244 0.91826 0.92745 0.0
H662 H 0.38108 0.06214 0.79318 0.0
H663 H 0.33961 0.068 0.79031 0.0
H664 H 0.39345 0.01633 0.78915 0.0
H665 H 0.38977 0.97724 0.81991 0.0
C666 C 0.05226 0.36036 0.80922 0.0
C667 C 0.07917 0.37702 0.84455 0.0
C668 C 0.05789 0.31121 0.87426 0.0
C669 C 0.02935 0.2947 0.8405 0.0
N670 N 0.99749 0.30191 0.77675 0.0
N671 N 0.10725 0.3702 0.91177 0.0
C672 C 0.02621 0.31886 0.80795 0.0
C673 C 0.08182 0.35289 0.87749 0.0
N674 N 0.0522 0.38454 0.77682 0.0
N675 N 0.06241 0.28651 0.90239 0.0
H676 H 0.12586 0.40063 0.91399 0.0
H677 H 0.10871 0.355 0.93912 0.0
H678 H 0.04553 0.25588 0.89986 0.0
H679 H 0.08433 0.29583 0.92615 0.0
H680 H 0.03627 0.37459 0.74772 0.0
H681 H 0.06952 0.41517 0.77845 0.0
H682 H 0.99067 0.31763 0.75426 0.0
H683 H 0.97936 0.27148 0.77419 0.0
C684 C 0.65913 0.70916 0.80553 0.0
C685 C 0.64861 0.71513 0.84836 0.0
C686 C 0.71798 0.75035 0.86986 0.0
C687 C 0.72816 0.74087 0.82868 0.0
N688 N 0.70947 0.70982 0.75781 0.0
N689 N 0.66643 0.73705 0.92303 0.0
C690 C 0.699 0.72003 0.79644 0.0
C691 C 0.67769 0.73466 0.88102 0.0
N692 N 0.63105 0.69417 0.77345 0.0
N693 N 0.74722 0.77518 0.89773 0.0
H694 H 0.637 0.72564 0.93208 0.0
H695 H 0.68575 0.74736 0.94958 0.0
H696 H 0.777 0.78763 0.88969 0.0
H697 H 0.74217 0.78625 0.92672 0.0
H698 H 0.63719 0.69239 0.74039 0.0
H699 H 0.60168 0.68583 0.77957 0.0
H700 H 0.68929 0.69093 0.73468 0.0
H701 H 0.73871 0.71906 0.74985 0.0
C702 C 0.67597 0.64577 0.52854 0.0
C703 C 0.67204 0.61482 0.50098 0.0
C704 C 0.61558 0.61266 0.46416 0.0
C705 C 0.61809 0.64216 0.49319 0.0
N706 N 0.64598 0.68274 0.55718 0.0
N707 N 0.63455 0.56349 0.44898 0.0
C708 C 0.647 0.65758 0.52669 0.0
C709 C 0.64059 0.59659 0.47076 0.0
N710 N 0.70815 0.66462 0.55518 0.0
N711 N 0.59034 0.60131 0.42926 0.0
H712 H 0.65227 0.55094 0.4541 0.0
H713 H 0.61017 0.54658 0.42916 0.0
H714 H 0.57237 0.61339 0.42305 0.0
H715 H 0.58966 0.58261 0.40442 0.0
H716 H 0.71499 0.68996 0.57304 0.0
H717 H 0.72944 0.65611 0.55731 0.0
H718 H 0.66389 0.69237 0.58493 0.0
H719 H 0.62502 0.69176 0.55627 0.0
C720 C 0.43421 0.03393 0.42871 0.0
C721 C 0.39697 1.00023 0.43734 0.0
C722 C 0.38695 0.03619 0.49754 0.0
C723 C 0.42766 0.06507 0.4956 0.0
N724 N 0.49104 0.08998 0.46026 0.0
N725 N 0.33147 0.98192 0.46075 0.0
C726 C 0.45155 0.0637 0.46125 0.0
C727 C 0.37119 1.00487 0.46642 0.0
N728 N 0.44973 0.04104 0.3873 0.0
N729 N 0.36354 0.03825 0.52958 0.0
H730 H 0.31969 0.96221 0.43453 0.0
H731 H 0.31058 0.98569 0.47807 0.0
H732 H 0.37335 0.06204 0.55093 0.0
H733 H 0.33507 0.01557 0.5364 0.0
H734 H 0.47608 0.06633 0.37898 0.0
H735 H 0.43213 0.02658 0.36022 0.0
H736 H 0.51004 0.08779 0.43773 0.0
H737 H 0.50523 0.11152 0.48431 0.0
C738 C 0.03037 0.38137 0.4714 0.0
C739 C 0.06589 0.40711 0.49347 0.0
C740 C 0.03042 0.38134 0.56307 0.0
C741 C 0.99367 0.36506 0.54069 0.0
N742 N 0.96147 0.36023 0.47088 0.0
N743 N 0.0979 0.43486 0.56298 0.0
C744 C 0.99411 0.36725 0.49396 0.0
C745 C 0.06576 0.40775 0.54022 0.0
N746 N 0.03121 0.37137 0.42854 0.0
N747 N 0.03166 0.37128 0.60578 0.0
H748 H 0.12343 0.45643 0.5477 0.0
H749 H 0.09748 0.43824 0.59703 0.0
H750 H 1.00663 0.34989 0.62224 0.0
H751 H 0.05806 0.38055 0.62252 0.0
H752 H 1.00588 0.35099 0.41188 0.0
H753 H 0.05771 0.38002 0.41191 0.0
H754 H 0.9624 0.36496 0.43699 0.0
H755 H 0.93562 0.35576 0.48576 0.0
C756 C 0.18421 0.36435 0.3566 0.0
C757 C 0.17099 0.39194 0.35005 0.0
C758 C 0.12868 0.34987 0.29044 0.0
C759 C 0.13738 0.3197 0.30175 0.0
N760 N 0.16781 0.296 0.3528 0.0
N761 N 0.12226 0.40467 0.31701 0.0
C762 C 0.16313 0.32613 0.33736 0.0
C763 C 0.14083 0.38301 0.31873 0.0
N764 N 0.21831 0.37526 0.37907 0.0
N765 N 0.10974 0.34771 0.2521 0.0
H766 H 0.12865 0.42798 0.33826 0.0
H767 H 0.09748 0.39664 0.29762 0.0
H768 H 0.10157 0.32477 0.2299 0.0
H769 H 0.10603 0.37069 0.24042 0.0
H770 H 0.23089 0.35733 0.38152 0.0
H771 H 0.23663 0.40395 0.39027 0.0
H772 H 0.18383 0.2984 0.38111 0.0
H773 H 0.1521 0.26749 0.34023 0.0
C774 C 0.6737 0.76711 0.36386 0.0
C775 C 0.65666 0.78923 0.38037 0.0
C776 C 0.71306 0.85019 0.35116 0.0
C777 C 0.72915 0.82801 0.33292 0.0
N778 N 0.73135 0.768 0.33233 0.0
N779 N 0.6565 0.85067 0.3834 0.0
C780 C 0.71117 0.78708 0.34211 0.0
C781 C 0.67556 0.83056 0.3725 0.0
N782 N 0.65368 0.72697 0.36798 0.0
N783 N 0.73491 0.89037 0.34998 0.0
H784 H 0.62835 0.83692 0.39727 0.0
H785 H 0.66657 0.87992 0.37485 0.0
H786 H 0.76367 0.9049 0.33787 0.0
H787 H 0.72687 0.90901 0.36557 0.0
H788 H 0.66246 0.70858 0.35321 0.0
H789 H 0.62621 0.71147 0.38319 0.0
H790 H 0.72213 0.73893 0.3409 0.0
H791 H 0.75999 0.78318 0.32016 0.0
C792 C 0.24573 0.93211 0.312 0.0
C793 C 0.20637 0.90372 0.30089 0.0
C794 C 0.21753 0.85037 0.32583 0.0
C795 C 0.25627 0.87853 0.33841 0.0
N796 N 0.30751 0.94609 0.34589 0.0
N797 N 0.15193 0.83774 0.30823 0.0
C798 C 0.27042 0.91944 0.33211 0.0
C799 C 0.19151 0.86336 0.3111 0.0
N800 N 0.25978 0.97097 0.30236 0.0
N801 N 0.2058 0.81114 0.32754 0.0
H802 H 0.13214 0.84727 0.30034 0.0
H803 H 0.13837 0.80847 0.31852 0.0
H804 H 0.22471 0.80098 0.33717 0.0
H805 H 0.179 0.78906 0.31527 0.0
H806 H 0.28938 0.99253 0.30385 0.0
H807 H 0.24167 0.9818 0.29202 0.0
H808 H 0.31858 0.97637 0.3477 0.0
H809 H 0.3272 0.9374 0.35678 0.0
C810 C 0.35896 0.13411 0.62707 0.0
C811 C 0.39244 0.1703 0.6402 0.0
C812 C 0.35171 0.17713 0.69751 0.0
C813 C 0.31977 0.13861 0.6883 0.0
N814 N 0.29549 0.07853 0.64582 0.0
N815 N 0.42201 0.22298 0.69322 0.0
C816 C 0.32393 0.11669 0.65329 0.0
C817 C 0.38929 0.19063 0.67724 0.0
N818 N 0.36024 0.11624 0.5889 0.0
N819 N 0.34548 0.20187 0.72385 0.0
H820 H 0.44993 0.23382 0.67943 0.0
H821 H 0.42213 0.23663 0.72276 0.0
H822 H 0.31777 0.19423 0.73655 0.0
H823 H 0.36641 0.23144 0.72857 0.0
H824 H 0.33514 0.09388 0.5738 0.0
H825 H 0.38602 0.12507 0.57092 0.0
H826 H 0.29986 0.05934 0.62588 0.0
H827 H 0.26808 0.0651 0.66091 0.0
C828 C 0.88041 0.23844 0.71047 0.0
C829 C 0.85781 0.21806 0.67293 0.0
C830 C 0.86005 0.15874 0.69629 0.0
C831 C 0.88037 0.17835 0.73512 0.0
N832 N 0.90056 0.23368 0.78435 0.0
N833 N 0.81685 0.15545 0.63741 0.0
C834 C 0.88746 0.21712 0.74389 0.0
C835 C 0.84499 0.17719 0.66796 0.0
N836 N 0.89733 0.27849 0.71334 0.0
N837 N 0.85492 0.1224 0.68643 0.0
H838 H 0.80335 0.1673 0.61802 0.0
H839 H 0.80366 0.12491 0.63483 0.0
H840 H 0.86415 0.10735 0.70716 0.0
H841 H 0.84419 0.10854 0.65624 0.0
H842 H 0.91777 0.29519 0.73745 0.0
H843 H 0.89387 0.29563 0.68959 0.0
H844 H 0.90194 0.25986 0.79418 0.0
H845 H 0.9071 0.21978 0.80937 0.0
C846 C 0.86398 0.71382 0.65758 0.0
C847 C 0.83886 0.71138 0.69255 0.0
C848 C 0.78406 0.65313 0.65709 0.0
C849 C 0.8107 0.65236 0.62566 0.0
N850 N 0.87875 0.67733 0.60407 0.0
N851 N 0.77574 0.67528 0.72893 0.0
C852 C 0.85142 0.68154 0.62801 0.0
C853 C 0.79912 0.67991 0.69334 0.0
N854 N 0.89998 0.74689 0.65247 0.0
N855 N 0.74434 0.62983 0.65141 0.0
H856 H 0.78507 0.69513 0.75512 0.0
H857 H 0.74809 0.65046 0.73369 0.0
H858 H 0.73201 0.61081 0.62476 0.0
H859 H 0.72361 0.63228 0.67073 0.0
H860 H 0.91799 0.75168 0.6251 0.0
H861 H 0.90981 0.77135 0.67293 0.0
H862 H 0.90902 0.69571 0.60791 0.0
H863 H 0.87167 0.65287 0.58441 0.0
C864 C 1.01499 0.43599 0.01742 0.0
C865 C 0.98766 0.45 0.01876 0.0
C866 C 0.0307 0.50383 0.96878 0.0
C867 C 0.05634 0.48798 0.96399 0.0
N868 N 0.07027 0.43585 0.98118 0.0
N869 N 0.9659 0.49274 0.98897 0.0
C870 C 0.04788 0.45327 0.98776 0.0
C871 C 0.99432 0.48235 0.99206 0.0
N872 N 1.0098 0.40636 0.04521 0.0
N873 N 0.04231 0.54083 0.9533 0.0
H874 H 0.93896 0.47753 0.00543 0.0
H875 H 0.96733 0.51366 0.96671 0.0
H876 H 0.0699 0.55865 0.93911 0.0
H877 H 0.02686 0.55565 0.95932 0.0
H878 H 0.03096 0.39812 0.05049 0.0
H879 H 0.98475 0.39113 0.06476 0.0
H880 H 0.06217 0.40761 0.99223 0.0
H881 H 0.09618 0.4486 0.96282 0.0
C882 C 0.5878 0.5988 0.97272 0.0
C883 C 0.54622 0.58247 0.97282 0.0
C884 C 0.53838 0.52239 0.00802 0.0
C885 C 0.57997 0.53903 0.00977 0.0
N886 N 0.64474 0.59238 0.99222 0.0
N887 N 0.48255 0.53265 -0.00191 0.0
C888 C 0.60486 0.57706 0.99137 0.0
C889 C 0.52176 0.54539 0.9928 0.0
N890 N 0.61074 0.63545 0.955 0.0
N891 N 0.51475 0.48369 0.0193 0.0
H892 H 0.47027 0.54985 0.98879 0.0
H893 H 0.4632 0.50744 0.01564 0.0
H894 H 0.52626 0.46571 0.02807 0.0
H895 H 0.48429 0.46833 0.01541 0.0
H896 H 0.64098 0.64892 0.94992 0.0
H897 H 0.59892 0.65313 0.94617 0.0
H898 H 0.66536 0.62062 0.98193 0.0
H899 H 0.65758 0.57608 0.00261 0.0
C900 C 0.50017 1.01295 0.03041 0.0
C901 C 0.49351 0.04523 0.02362 0.0
C902 C 0.45932 1.014 0.95508 0.0
C903 C 0.45964 0.97864 0.96611 0.0
N904 N 0.47772 0.94371 0.01794 0.0
N905 N 0.45715 0.07031 0.98395 0.0
C906 C 0.4787 0.97768 0.00532 0.0
C907 C 0.47033 0.04404 0.98728 0.0
N908 N 0.52913 0.01688 0.05847 0.0
N909 N 0.45006 0.02019 0.9136 0.0
H910 H 0.46273 0.09171 0.00755 0.0
H911 H 0.43683 0.06778 0.96021 0.0
H912 H 0.44345 1.00061 0.88761 0.0
H913 H 0.45326 0.04715 0.90368 0.0
H914 H 0.53754 0.99561 0.06173 0.0
H915 H 0.54826 0.04336 0.07411 0.0
H916 H 0.48769 0.94045 0.04857 0.0
H917 H 0.46428 0.91788 -0.00063 0.0
C918 C 0.06475 0.16821 0.02525 0.0
C919 C 0.06136 0.13804 0.0543 0.0
C920 C 1.01965 0.08764 0.00032 0.0
C921 C 0.02251 0.11786 0.97233 0.0
N922 N 0.05879 0.18608 0.95055 0.0
N923 N 0.04612 0.07075 0.06361 0.0
C924 C 0.04907 0.15786 0.98223 0.0
C925 C 0.0424 0.09822 0.03965 0.0
N926 N 0.0797 0.20621 0.03933 0.0
N927 N 0.99392 0.04911 0.99042 0.0
H928 H 0.06323 0.07815 0.09209 0.0
H929 H 0.03558 0.04186 0.05311 0.0
H930 H 0.97757 0.04056 0.96139 0.0
H931 H 0.98724 0.02593 0.01197 0.0
H932 H 0.07742 0.22755 0.02116 0.0
H933 H 0.09172 0.21629 0.07025 0.0
H934 H 0.08097 0.21531 0.95456 0.0
H935 H 0.0476 0.17937 0.91863 0.0
C936 C 0.86505 0.88412 0.97167 0.0
C937 C 0.90117 0.88452 0.96462 0.0
C938 C 0.92584 0.92057 0.03403 0.0
C939 C 0.88686 0.91092 0.04595 0.0
N940 N 0.83275 0.91335 0.01216 0.0
N941 N 0.96719 0.90476 0.9889 0.0
C942 C 0.85988 0.90121 0.0107 0.0
C943 C 0.93197 0.90321 0.99577 0.0
N944 N 0.83518 0.8665 0.94182 0.0
N945 N 0.95715 0.9519 0.05339 0.0
H946 H 0.97326 0.89356 0.96058 0.0
H947 H 0.98911 0.9148 0.01284 0.0
H948 H 0.95323 0.97155 0.07314 0.0
H949 H 0.98628 0.96219 0.04382 0.0
H950 H 0.80691 0.86175 0.94789 0.0
H951 H 0.83777 0.854 0.91252 0.0
H952 H 0.81463 0.91057 0.98573 0.0
H953 H 0.83234 0.93088 0.03792 0.0
C954 C 0.17611 0.02792 0.97474 0.0
C955 C 0.14581 1.01359 0.94263 0.0
C956 C 0.10177 0.96149 0.99373 0.0
C957 C 0.13117 0.97814 0.02672 0.0
N958 N 0.19034 0.03562 0.05246 0.0
N959 N 0.07648 0.97344 0.92631 0.0
C960 C 0.16631 1.01426 0.01851 0.0
C961 C 0.10744 0.98253 0.95371 0.0
N962 N 0.2147 0.05214 0.9633 0.0
N963 N 0.06962 0.92488 -0.00067 0.0
H964 H 0.07952 0.98908 0.89736 0.0
H965 H 0.04738 0.95327 0.93469 0.0
H966 H 0.06498 0.90798 0.02758 0.0
H967 H 0.04953 0.90993 0.97423 0.0
H968 H 0.23775 0.06017 0.98546 0.0
H969 H 0.22422 0.06032 0.93095 0.0
H970 H 0.21473 0.06368 0.04808 0.0
H971 H 0.18332 0.02732 0.08538 0.0
C972 C 0.67685 0.4983 0.31214 0.0
C973 C 0.68527 0.47866 0.27817 0.0
C974 C 0.72427 0.46349 0.32971 0.0
C975 C 0.71922 0.48666 0.36221 0.0
N976 N 0.69222 0.52756 0.38495 0.0
N977 N 0.71744 0.4434 0.2529 0.0
C978 C 0.69561 0.50417 0.35368 0.0
C979 C 0.70888 0.46118 0.28659 0.0
N980 N 0.65069 0.5112 0.30465 0.0
N981 N 0.74345 0.4435 0.34036 0.0
H982 H 0.70504 0.43948 0.22164 0.0
H983 H 0.738 0.43402 0.25507 0.0
H984 H 0.75581 0.44549 0.3713 0.0
H985 H 0.74502 0.42303 0.31981 0.0
H986 H 0.63965 0.52163 0.32921 0.0
H987 H 0.63756 0.50893 0.27417 0.0
H988 H 0.68044 0.54574 0.37886 0.0
H989 H 0.70322 0.53069 0.41681 0.0
C990 C 0.51985 0.18124 0.35599 0.0
C991 C 0.54739 0.21709 0.37674 0.0
C992 C 0.58457 0.24101 0.30743 0.0
C993 C 0.55786 0.20463 0.28715 0.0
N994 N 0.50201 0.13871 0.29176 0.0
N995 N 0.60803 0.27932 0.37488 0.0
C996 C 0.52605 0.17431 0.3114 0.0
C997 C 0.58039 0.2465 0.35317 0.0
N998 N 0.48731 0.15415 0.37885 0.0
N999 N 0.61336 0.27054 0.28255 0.0
H1000 H 0.60509 0.2849 0.40789 0.0
H1001 H 0.63493 0.3 0.36125 0.0
H1002 H 0.61823 0.2669 0.24949 0.0
H1003 H 0.63115 0.29926 0.29365 0.0
H1004 H 0.46365 0.12951 0.36477 0.0
H1005 H 0.48268 0.15717 0.41211 0.0
H1006 H 0.48115 0.11374 0.30849 0.0
H1007 H 0.50412 0.13313 0.25856 0.0
C1008 C 0.82421 0.37099 0.33031 0.0
C1009 C 0.8554 0.3727 0.30463 0.0
C1010 C 0.87568 0.34684 0.36659 0.0
C1011 C 0.84577 0.34691 0.39306 0.0
N1012 N 0.79539 0.36452 0.40304 0.0
N1013 N 0.91598 0.37084 0.30071 0.0
C1014 C 0.82125 0.36081 0.37582 0.0
C1015 C 0.88275 0.36328 0.32361 0.0
N1016 N 0.79657 0.37749 0.31077 0.0
N1017 N 0.89652 0.32988 0.38201 0.0
H1018 H 0.92233 0.3832 0.26922 0.0
H1019 H 0.93903 0.36842 0.31438 0.0
H1020 H 0.89265 0.31795 0.41356 0.0
H1021 H 0.91546 0.32481 0.36248 0.0
H1022 H 0.77062 0.37224 0.32625 0.0
H1023 H 0.79839 0.38586 0.27784 0.0
H1024 H 0.7797 0.37837 0.3938 0.0
H1025 H 0.79158 0.3561 0.43611 0.0
C1026 C 0.41057 0.84554 0.65719 0.0
C1027 C 0.38193 0.83313 0.69113 0.0
C1028 C 0.32905 0.8027 0.63682 0.0
C1029 C 0.35741 0.82104 0.60294 0.0
N1030 N 0.42518 0.8609 0.57968 0.0
N1031 N 0.31386 0.80138 0.71441 0.0
C1032 C 0.3983 0.84223 0.61267 0.0
C1033 C 0.34108 0.81157 0.68135 0.0
N1034 N 0.44936 0.86045 0.6677 0.0
N1035 N 0.29073 0.77672 0.62623 0.0
H1036 H 0.32152 0.80699 0.74755 0.0
H1037 H 0.28384 0.78973 0.7089 0.0
H1038 H 0.28119 0.76971 0.59371 0.0
H1039 H 0.26931 0.75945 0.64937 0.0
H1040 H 0.47132 0.86655 0.64447 0.0
H1041 H 0.45908 0.86348 0.70019 0.0
H1042 H 0.45492 0.88058 0.58524 0.0
H1043 H 0.41742 0.85864 0.54654 0.0
C1044 C 0.24641 0.59884 0.62064 0.0
C1045 C 0.23292 0.55999 0.60464 0.0
C1046 C 0.21494 0.5346 0.67957 0.0
C1047 C 0.22139 0.57175 0.69416 0.0
N1048 N 0.24093 0.63936 0.67784 0.0
N1049 N 0.19557 0.48962 0.61846 0.0
C1050 C 0.23685 0.60415 0.66459 0.0
C1051 C 0.21495 0.52746 0.63399 0.0
N1052 N 0.26875 0.63052 0.59409 0.0
N1053 N 0.20931 0.50619 0.70941 0.0
H1054 H 0.19244 0.48258 0.58506 0.0
H1055 H 0.17871 0.46535 0.63868 0.0
H1056 H 0.21162 0.51151 0.74316 0.0
H1057 H 0.2075 0.47959 0.70053 0.0
H1058 H 0.28234 0.65958 0.60512 0.0
H1059 H 0.27666 0.62754 0.56205 0.0
H1060 H 0.24806 0.66275 0.65639 0.0
H1061 H 0.23453 0.64422 0.70984 0.0
C1062 C 0.43837 0.62218 0.67241 0.0
C1063 C 0.44073 0.64759 0.70684 0.0
C1064 C 0.44992 0.69815 0.65316 0.0
C1065 C 0.45631 0.67621 0.62032 0.0
N1066 N 0.45462 0.61645 0.59669 0.0
N1067 N 0.44325 0.70727 0.7313 0.0
C1068 C 0.44891 0.63745 0.62906 0.0
C1069 C 0.44391 0.68455 0.69748 0.0
N1070 N 0.42677 0.58375 0.68178 0.0
N1071 N 0.45022 0.73206 0.64171 0.0
H1072 H 0.43654 0.69683 0.76356 0.0
H1073 H 0.44993 0.73641 0.7278 0.0
H1074 H 0.45459 0.74225 0.60926 0.0
H1075 H 0.44318 0.74836 0.66322 0.0
H1076 H 0.42136 0.56256 0.65789 0.0
H1077 H 0.41899 0.57231 0.71363 0.0
H1078 H 0.45454 0.59017 0.60227 0.0
H1079 H 0.46133 0.62622 0.5642 0.0
C1080 C 0.13441 0.05247 0.28645 0.0
C1081 C 0.14096 0.04696 0.24155 0.0
C1082 C 0.15245 0.1131 0.22332 0.0
C1083 C 0.14401 0.11776 0.26758 0.0
N1084 N 0.13381 0.09673 0.3428 0.0
N1085 N 0.1609 0.07342 0.16792 0.0
C1086 C 0.13745 0.08895 0.29972 0.0
C1087 C 0.1517 0.0779 0.21031 0.0
N1088 N 0.12281 0.02198 0.31556 0.0
N1089 N 0.15928 0.14189 0.19331 0.0
H1090 H 0.15705 0.047 0.1554 0.0
H1091 H 0.17398 0.09622 0.1451 0.0
H1092 H 0.16325 0.1693 0.20235 0.0
H1093 H 0.15987 0.13866 0.15936 0.0
H1094 H 0.11358 0.02228 0.34766 0.0
H1095 H 0.12079 0.99522 0.307 0.0
H1096 H 0.13193 0.07875 0.36899 0.0
H1097 H 0.13525 0.12301 0.35254 0.0
C1098 C 0.97627 0.0881 0.29518 0.0
C1099 C 0.96873 0.11726 0.27672 0.0
C1100 C 0.90322 0.0655 0.25461 0.0
C1101 C 0.90948 0.03594 0.27329 0.0
N1102 N 0.94832 0.02069 0.32222 0.0
N1103 N 0.91697 0.1323 0.26308 0.0
C1104 C 0.94513 0.04761 0.29664 0.0
C1105 C 0.92947 0.10543 0.26456 0.0
N1106 N 1.01231 0.09875 0.31245 0.0
N1107 N 0.87355 0.05591 0.22518 0.0
H1108 H 0.93461 0.16115 0.27427 0.0
H1109 H 0.88778 0.12433 0.25653 0.0
H1110 H 0.85631 0.02742 0.21292 0.0
H1111 H 0.86981 0.07724 0.2088 0.0
H1112 H 1.02156 0.07858 0.31942 0.0
H1113 H 0.03258 0.12772 0.32087 0.0
H1114 H 0.97205 0.02785 0.34299 0.0
H1115 H 0.92536 0.99177 0.32597 0.0
C1116 C 0.93051 0.83026 0.25059 0.0
C1117 C 0.92489 0.86175 0.26429 0.0
C1118 C 0.99367 0.89588 0.28936 0.0
C1119 C 1.0009 0.86952 0.26397 0.0
N1120 N 0.97499 0.81716 0.20955 0.0
N1121 N 0.95311 0.92607 0.2989 0.0
C1122 C 0.96897 0.83778 0.242 0.0
C1123 C 0.95685 0.89496 0.28495 0.0
N1124 N 0.89905 0.79348 0.24417 0.0
N1125 N 1.02153 0.92107 0.3182 0.0
H1126 H 0.92646 0.92582 0.29944 0.0
H1127 H 0.9771 0.95283 0.30866 0.0
H1128 H 0.04767 0.92077 0.32364 0.0
H1129 H 1.01676 0.9389 0.33996 0.0
H1130 H 0.90231 0.7693 0.23623 0.0
H1131 H 0.87043 0.78664 0.25212 0.0
H1132 H 0.95189 0.79544 0.19113 0.0
H1133 H 1.00267 0.82551 0.19645 0.0
C1134 C 0.04932 0.12766 0.73811 0.0
C1135 C 0.05724 0.16026 0.76545 0.0
C1136 C 0.12709 0.17771 0.76924 0.0
C1137 C 0.11765 0.14194 0.74789 0.0
N1138 N 0.06992 0.08163 0.71345 0.0
N1139 N 0.1065 0.2248 0.78971 0.0
C1140 C 0.0788 0.1167 0.73246 0.0
C1141 C 0.09714 0.18785 0.776 0.0
N1142 N 1.01528 0.10944 0.71444 0.0
N1143 N 0.16463 0.20139 0.78402 0.0
H1144 H 0.08565 0.234 0.79074 0.0
H1145 H 0.13512 0.24757 0.79517 0.0
H1146 H 0.18718 0.19506 0.77818 0.0
H1147 H 0.173 0.22584 0.80413 0.0
H1148 H 1.00863 0.08679 0.69208 0.0
H1149 H 0.99666 0.12116 0.71169 0.0
H1150 H 0.0413 0.05956 0.70628 0.0
H1151 H 0.09116 0.07348 0.70796 0.0
C1152 C 0.91499 0.97474 0.75458 0.0
C1153 C 0.88376 0.98342 0.75555 0.0
C1154 C 0.83612 0.91306 0.74492 0.0
C1155 C 0.8672 0.90453 0.74725 0.0
N1156 N 0.93478 0.92921 0.72694 0.0
N1157 N 0.81733 0.96299 0.73389 0.0
C1158 C 0.9063 0.93603 0.74297 0.0
C1159 C 0.84515 0.95313 0.74443 0.0
N1160 N 0.95209 1.00174 0.76782 0.0
N1161 N 0.79806 0.88282 0.74464 0.0
H1162 H 0.82406 0.99235 0.7321 0.0
H1163 H 0.78926 0.94267 0.72273 0.0
H1164 H 0.79115 0.85343 0.74213 0.0
H1165 H 0.77383 0.88686 0.74814 0.0
H1166 H 0.97443 0.99478 0.77107 0.0
H1167 H 0.9597 0.02957 0.77959 0.0
H1168 H 0.96356 0.95178 0.72102 0.0
H1169 H 0.92765 0.90185 0.71374 0.0
C1170 C 0.10703 0.94299 0.73063 0.0
C1171 C 0.10601 0.97503 0.71052 0.0
C1172 C 0.03553 0.93097 0.69594 0.0
C1173 C 0.0352 0.90362 0.72675 0.0
N1174 N 0.07131 0.8856 0.77684 0.0
N1175 N 0.06998 0.99818 0.66809 0.0
C1176 C 0.07123 0.90987 0.74468 0.0
C1177 C 0.07039 0.96834 0.69081 0.0
N1178 N 0.14188 0.94364 0.7352 0.0
N1179 N 1.00297 0.92067 0.67089 0.0
H1180 H 0.09591 0.02451 0.66115 0.0
H1181 H 0.04424 0.9972 0.65744 0.0
H1182 H 0.97787 0.89281 0.67296 0.0
H1183 H 1.00218 0.93813 0.64552 0.0
H1184 H 0.14397 0.91987 0.74746 0.0
H1185 H 0.16756 0.96581 0.7209 0.0
H1186 H 0.09679 0.89128 0.79364 0.0
H1187 H 0.0455 0.86226 0.78981 0.0
C1188 C 0.85339 0.42192 0.59736 0.0
C1189 C 0.82139 0.38715 0.61489 0.0
C1190 C 0.78875 0.42512 0.63339 0.0
C1191 C 0.81622 0.45636 0.60646 0.0
N1192 N 0.87334 0.48321 0.55913 0.0
N1193 N 0.76016 0.35647 0.65481 0.0
C1194 C 0.84849 0.45464 0.58779 0.0
C1195 C 0.78959 0.38914 0.63484 0.0
N1196 N 0.88877 0.42398 0.59101 0.0
N1197 N 0.76283 0.43051 0.65847 0.0
H1198 H 0.76302 0.33191 0.66138 0.0
H1199 H 0.73347 0.35391 0.66471 0.0
H1200 H 0.76263 0.45707 0.65853 0.0
H1201 H 0.74395 0.41012 0.68159 0.0
H1202 H 0.9141 0.44953 0.58089 0.0
H1203 H 0.89355 0.40161 0.60203 0.0
H1204 H 0.89512 0.48128 0.54131 0.0
H1205 H 0.86969 0.50685 0.54996 0.0
C1206 C 0.65146 0.42554 0.5922 0.0
C1207 C 0.6451 0.45345 0.5685 0.0
C1208 C 0.57807 0.40065 0.55064 0.0
C1209 C 0.58426 0.37297 0.57396 0.0
N1210 N 0.6221 0.36123 0.62755 0.0
N1211 N 0.59647 0.4692 0.5425 0.0
C1212 C 0.61971 0.38599 0.59764 0.0
C1213 C 0.60644 0.44141 0.55324 0.0
N1214 N 0.68739 0.43604 0.6096 0.0
N1215 N 0.54549 0.3878 0.5248 0.0
H1216 H 0.61578 0.49931 0.5471 0.0
H1217 H 0.56787 0.46223 0.53439 0.0
H1218 H 0.52484 0.35795 0.52109 0.0
H1219 H 0.54119 0.40635 0.50379 0.0
H1220 H 0.69541 0.41534 0.61854 0.0
H1221 H 0.70875 0.46498 0.61611 0.0
H1222 H 0.64552 0.36992 0.64928 0.0
H1223 H 0.5987 0.33293 0.63363 0.0
C1224 C 0.66727 0.24941 0.58581 0.0
C1225 C 0.67833 0.22381 0.60619 0.0
C1226 C 0.61303 0.18804 0.64144 0.0
C1227 C 0.60139 0.21246 0.6189 0.0
N1228 N 0.62439 0.27728 0.58909 0.0
N1229 N 0.66608 0.1757 0.66204 0.0
C1230 C 0.63071 0.24671 0.5972 0.0
C1231 C 0.65248 0.19528 0.63692 0.0
N1232 N 0.69063 0.27493 0.55379 0.0
N1233 N 0.5859 0.15757 0.66662 0.0
H1234 H 0.69495 0.18114 0.65944 0.0
H1235 H 0.65009 0.15654 0.68755 0.0
H1236 H 0.55823 0.15415 0.67362 0.0
H1237 H 0.59039 0.13561 0.67986 0.0
H1238 H 0.6821 0.2916 0.53489 0.0
H1239 H 0.71669 0.27645 0.54312 0.0
H1240 H 0.64568 0.30401 0.57552 0.0
H1241 H 0.60046 0.27805 0.6029 0.0
C1242 C 0.80588 0.50549 0.09511 0.0
C1243 C 0.80948 0.47708 0.06969 0.0
C1244 C 0.74462 0.45626 0.03678 0.0
C1245 C 0.74153 0.48513 0.06199 0.0
N1246 N 0.77637 0.54674 0.10033 0.0
N1247 N 0.78784 0.43393 0.0069 0.0
C1248 C 0.77468 0.51297 0.08613 0.0
C1249 C 0.78052 0.45507 0.03743 0.0
N1250 N 0.83047 0.52348 0.12982 0.0
N1251 N 0.71283 0.42927 0.01342 0.0
H1252 H 0.81451 0.43397 0.00587 0.0
H1253 H 0.76924 0.41962 0.98046 0.0
H1254 H 0.68731 0.43124 0.01041 0.0
H1255 H 0.71142 0.40457 -0.00139 0.0
H1256 H 0.82652 0.54166 0.15189 0.0
H1257 H 0.85203 0.51689 0.13949 0.0
H1258 H 0.80093 0.56947 0.11585 0.0
H1259 H 0.75534 0.55389 0.09059 0.0
C1260 C 0.58279 0.29272 0.02301 0.0
C1261 C 0.55618 0.262 0.05129 0.0
C1262 C 0.53882 0.3074 0.08652 0.0
C1263 C 0.56517 0.33846 0.05842 0.0
N1264 N 0.60338 0.35726 0.99137 0.0
N1265 N 0.49605 0.23717 0.09278 0.0
C1266 C 0.58447 0.33007 0.02383 0.0
C1267 C 0.52986 0.26833 0.07729 0.0
N1268 N 0.60671 0.28611 0.99587 0.0
N1269 N 0.52459 0.31518 0.12402 0.0
H1270 H 0.48775 0.20855 0.08345 0.0
H1271 H 0.47455 0.24032 0.10971 0.0
H1272 H 0.53364 0.3437 0.13486 0.0
H1273 H 0.50775 0.2934 0.14708 0.0
H1274 H 0.63007 0.30829 0.97813 0.0
H1275 H 0.60324 0.25802 0.99226 0.0
H1276 H 0.6157 0.3519 0.96361 0.0
H1277 H 0.6033 0.38385 0.99018 0.0
C1278 C 0.7466 0.30427 0.05169 0.0
C1279 C 0.77643 0.30258 0.07616 0.0
C1280 C 0.73104 0.23295 0.09356 0.0
C1281 C 0.70071 0.23529 0.0712 0.0
N1282 N 0.6807 0.26913 0.02076 0.0
N1283 N 0.80105 0.26329 0.10869 0.0
C1284 C 0.70894 0.26978 0.04752 0.0
C1285 C 0.76989 0.26608 0.09325 0.0
N1286 N 0.75425 0.33934 0.03368 0.0
N1287 N 0.72214 0.19938 0.11624 0.0
H1288 H 0.82976 0.28675 0.10627 0.0
H1289 H 0.79921 0.23712 0.11924 0.0
H1290 H 0.69393 0.17466 0.11623 0.0
H1291 H 0.74177 0.19673 0.13702 0.0
H1292 H 0.73288 0.34455 0.02019 0.0
H1293 H 0.78268 0.36366 0.03298 0.0
H1294 H 0.68555 0.29191 -0.00058 0.0
H1295 H 0.65281 0.2443 0.01775 0.0
C1296 C 0.48307 0.78714 0.95218 0.0
C1297 C 0.48246 0.80424 0.91111 0.0
C1298 C 0.48074 0.74812 0.8729 0.0
C1299 C 0.47526 0.72824 0.91359 0.0
N1300 N 0.46989 0.72782 0.99246 0.0
N1301 N 0.47168 0.79552 0.83224 0.0
C1302 C 0.47649 0.74764 0.95356 0.0
C1303 C 0.47933 0.78351 0.87139 0.0
N1304 N 0.4902 0.80893 0.98964 0.0
N1305 N 0.48702 0.73297 0.83513 0.0
H1306 H 0.46839 0.82006 0.82869 0.0
H1307 H 0.46417 0.77852 0.80368 0.0
H1308 H 0.48693 0.70633 0.83417 0.0
H1309 H 0.49645 0.74889 0.80579 0.0
H1310 H 0.49427 0.79982 0.02041 0.0
H1311 H 0.495 0.83767 0.98908 0.0
H1312 H 0.46622 0.73851 0.02248 0.0
H1313 H 0.46623 0.69955 0.99417 0.0
C1314 C 0.29115 0.74396 0.8722 0.0
C1315 C 0.31174 0.76294 0.91133 0.0
C1316 C 0.25862 0.71028 0.95537 0.0
C1317 C 0.24075 0.68949 0.91613 0.0
N1318 N 0.24064 0.6845 0.83718 0.0
N1319 N 0.31616 0.76448 0.99031 0.0
C1320 C 0.257 0.70602 0.87453 0.0
C1321 C 0.29549 0.74638 0.9531 0.0
N1322 N 0.30433 0.76243 0.83257 0.0
N1323 N 0.24003 0.69523 0.99463 0.0
H1324 H 0.34225 0.79164 0.98942 0.0
H1325 H 0.30842 0.75223 0.02169 0.0
H1326 H 0.21354 0.66851 0.99666 0.0
H1327 H 0.24932 0.70998 0.02454 0.0
H1328 H 0.28864 0.75255 0.8033 0.0
H1329 H 0.32962 0.78973 0.82965 0.0
H1330 H 0.2539 0.69212 0.80623 0.0
H1331 H 0.21474 0.6573 0.83733 0.0
C1332 C 0.27055 0.50234 0.90262 0.0
C1333 C 0.26074 0.52955 0.92078 0.0
C1334 C 0.32353 0.55924 0.96088 0.0
C1335 C 0.33728 0.53969 0.93227 0.0
N1336 N 0.32352 0.5001 0.86583 0.0
N1337 N 0.27713 0.58295 0.97111 0.0
C1338 C 0.31055 0.51244 0.90092 0.0
C1339 C 0.28676 0.55747 0.95173 0.0
N1340 N 0.24203 0.46873 0.88329 0.0
N1341 N 0.34529 0.57893 0.99679 0.0
H1342 H 0.24939 0.58011 0.96729 0.0
H1343 H 0.29686 0.60704 0.98988 0.0
H1344 H 0.37115 0.57896 0.00505 0.0
H1345 H 0.33563 0.59155 0.02043 0.0
H1346 H 0.24751 0.44696 0.87115 0.0
H1347 H 0.21243 0.4613 0.88406 0.0
H1348 H 0.30464 0.4821 0.84114 0.0
H1349 H 0.3531 0.51267 0.85721 0.0
C1350 C 0.40657 0.78473 0.40833 0.0
C1351 C 0.41219 0.81906 0.38647 0.0
C1352 C 0.4811 0.83653 0.37271 0.0
C1353 C 0.47676 0.80743 0.40351 0.0
N1354 N 0.43613 0.75911 0.45786 0.0
N1355 N 0.45492 0.87683 0.34424 0.0
C1356 C 0.43962 0.78272 0.42311 0.0
C1357 C 0.44953 0.84449 0.367 0.0
N1358 N 0.3698 0.75345 0.41386 0.0
N1359 N 0.5152 0.85617 0.34899 0.0
H1360 H 0.43141 0.88122 0.33688 0.0
H1361 H 0.48235 0.89926 0.33365 0.0
H1362 H 0.53841 0.85051 0.3528 0.0
H1363 H 0.51921 0.87554 0.32341 0.0
H1364 H 0.36432 0.72666 0.42731 0.0
H1365 H 0.34596 0.7529 0.39867 0.0
H1366 H 0.40984 0.74278 0.4753 0.0
H1367 H 0.46047 0.75992 0.47263 0.0
C1368 C 0.19244 0.61242 0.40201 0.0
C1369 C 0.21842 0.60724 0.37402 0.0
C1370 C 0.24358 0.67528 0.34848 0.0
C1371 C 0.22645 0.68302 0.3859 0.0
N1372 N 0.1904 0.65722 0.45449 0.0
N1373 N 0.26866 0.6346 0.31802 0.0
C1374 C 0.20191 0.65106 0.41419 0.0
C1375 C 0.24378 0.63894 0.34607 0.0
N1376 N 0.15871 0.58078 0.41682 0.0
N1377 N 0.2586 0.702 0.31495 0.0
H1378 H 0.26771 0.60761 0.31408 0.0
H1379 H 0.29096 0.65803 0.30044 0.0
H1380 H 0.2561 0.72732 0.31452 0.0
H1381 H 0.26916 0.69668 0.28568 0.0
H1382 H 0.13787 0.58357 0.43567 0.0
H1383 H 0.14982 0.55262 0.40523 0.0
H1384 H 0.17464 0.63425 0.47673 0.0
H1385 H 0.20109 0.68509 0.46817 0.0
C1386 C 0.43809 0.59426 0.4027 0.0
C1387 C 0.45544 0.63351 0.38594 0.0
C1388 C 0.38929 0.62315 0.37071 0.0
C1389 C 0.37221 0.58349 0.38497 0.0
N1390 N 0.37996 0.52901 0.40726 0.0
N1391 N 0.44778 0.68134 0.3439 0.0
C1392 C 0.39656 0.56844 0.39898 0.0
C1393 C 0.43102 0.64683 0.36714 0.0
N1394 N 0.46085 0.58188 0.42357 0.0
N1395 N 0.36543 0.63837 0.36151 0.0
H1396 H 0.47815 0.69817 0.33867 0.0
H1397 H 0.4316 0.69111 0.32611 0.0
H1398 H 0.33482 0.62168 0.36406 0.0
H1399 H 0.376 0.66818 0.35532 0.0
H1400 H 0.44923 0.55581 0.44162 0.0
H1401 H 0.4914 0.59853 0.4251 0.0
H1402 H 0.39626 0.51502 0.4127 0.0
H1403 H 0.34965 0.50965 0.40533 0.0
loop_
_geom_bond_atom_site_label_1
_geom_bond_atom_site_label_2
_geom_bond_distance
_geom_bond_site_symmetry_2
_ccdc_geom_bond_type
C0 C1 1.351 . S
C0 N3 1.368 . S
C0 H5 0.931 . S
C1 C0 1.351 . S
C1 N2 1.373 . S
C1 H29 0.930 . S
N2 C1 1.373 . S
N2 C4 1.340 . S
N3 C0 1.368 . S
N3 C4 1.321 . S
N3 Co6 2.135 . S
C4 N2 1.340 . S
C4 N3 1.321 . S
C4 H28 0.930 . S
H5 C0 0.931 . S
Co6 N3 2.135 . S
Co6 N9 2.121 1_455 S
Co6 O14 2.055 . S
Co6 O17 2.039 1_455 S
Co6 N20 2.140 . S
C7 O8 1.227 . S
C7 O17 1.265 . S
O8 C7 1.227 . S
N9 Co6 2.121 1_655 S
N9 C11 1.375 . S
N9 C12 1.313 . S
C10 C11 1.338 . S
C10 N13 1.377 . S
C10 H30 0.930 . S
C11 N9 1.375 . S
C11 C10 1.338 . S
C11 H15 0.931 . S
C12 N9 1.313 . S
C12 N13 1.344 . S
C12 H16 0.926 1_655 S
N13 C10 1.377 . S
N13 C12 1.344 . S
O14 Co6 2.055 . S
O14 C18 1.253 . S
H15 C11 0.931 . S
H16 C12 0.926 1_455 S
O17 Co6 2.039 1_655 S
O17 C7 1.265 . S
C18 O14 1.253 . S
C18 O19 1.227 . S
O19 C18 1.227 . S
N20 Co6 2.140 . S
N20 C23 1.346 . S
N20 C24 1.345 . S
C21 C22 1.387 . S
C21 C25 1.391 . S
C22 C21 1.387 . S
C22 C23 1.369 . S
C22 H31 0.929 . S
C23 N20 1.346 . S
C23 C22 1.369 . S
C23 H26 0.928 . S
C24 N20 1.345 . S
C24 C25 1.371 . S
C24 H27 0.931 . S
C25 C21 1.391 . S
C25 C24 1.371 . S
C25 H32 0.930 . S
H26 C23 0.928 . S
H27 C24 0.931 . S
H28 C4 0.930 . S
H29 C1 0.930 . S
H30 C10 0.930 . S
H31 C22 0.929 . S
H32 C25 0.930 . S
C33 C34 1.351 . S
C33 N36 1.368 . S
C33 H38 0.931 . S
C34 C33 1.351 . S
C34 N35 1.373 . S
C34 H62 0.930 . S
N35 C34 1.373 . S
N35 C37 1.340 . S
N36 C33 1.368 . S
N36 C37 1.321 . S
N36 Co39 2.135 . S
C37 N35 1.340 . S
C37 N36 1.321 . S
C37 H61 0.930 . S
H38 C33 0.931 . S
Co39 N36 2.135 . S
Co39 N42 2.121 . S
Co39 O47 2.055 . S
Co39 O50 2.039 . S
Co39 N53 2.140 . S
C40 O41 1.227 . S
C40 O50 1.265 . S
O41 C40 1.227 . S
N42 Co39 2.121 . S
N42 C44 1.375 . S
N42 C45 1.313 . S
C43 C44 1.338 . S
C43 N46 1.377 . S
C43 H63 0.930 . S
C44 N42 1.375 . S
C44 C43 1.338 . S
C44 H48 0.931 . S
C45 N42 1.313 . S
C45 N46 1.344 . S
C45 H49 0.930 . S
N46 C43 1.377 . S
N46 C45 1.344 . S
O47 Co39 2.055 . S
O47 C51 1.253 . S
H48 C44 0.931 . S
H49 C45 0.930 . S
O50 Co39 2.039 . S
O50 C40 1.265 . S
C51 O47 1.253 . S
C51 O52 1.227 . S
O52 C51 1.227 . S
N53 Co39 2.140 . S
N53 C56 1.346 . S
N53 C57 1.345 . S
C54 C55 1.387 . S
C54 C58 1.391 . S
C55 C54 1.387 . S
C55 C56 1.369 . S
C55 H64 0.929 . S
C56 N53 1.346 . S
C56 C55 1.369 . S
C56 H59 0.928 . S
C57 N53 1.345 . S
C57 C58 1.371 . S
C57 H60 0.931 . S
C58 C54 1.391 . S
C58 C57 1.371 . S
C58 H65 0.930 . S
H59 C56 0.928 . S
H60 C57 0.931 . S
H61 C37 0.930 . S
H62 C34 0.930 . S
H63 C43 0.930 . S
H64 C55 0.929 . S
H65 C58 0.930 . S
C66 C67 1.351 . S
C66 N69 1.368 . S
C66 H71 0.931 . S
C67 C66 1.351 . S
C67 N68 1.373 . S
C67 H95 0.930 . S
N68 C67 1.373 . S
N68 C70 1.340 . S
N69 C66 1.368 . S
N69 C70 1.321 . S
N69 Co72 2.135 . S
C70 N68 1.340 . S
C70 N69 1.321 . S
C70 H94 0.930 . S
H71 C66 0.931 . S
Co72 N69 2.135 . S
Co72 N75 2.121 1_565 S
Co72 O80 2.055 . S
Co72 O83 2.039 1_565 S
Co72 N86 2.140 . S
C73 O74 1.227 . S
C73 O83 1.265 . S
O74 C73 1.227 . S
N75 Co72 2.121 1_545 S
N75 C77 1.375 . S
N75 C78 1.313 . S
C76 C77 1.338 . S
C76 N79 1.377 . S
C76 H96 0.930 . S
C77 N75 1.375 . S
C77 C76 1.338 . S
C77 H81 0.931 . S
C78 N75 1.313 . S
C78 N79 1.344 . S
C78 H82 0.920 1_545 S
N79 C76 1.377 . S
N79 C78 1.344 . S
O80 Co72 2.055 . S
O80 C84 1.253 . S
H81 C77 0.931 . S
H82 C78 0.920 1_565 S
O83 Co72 2.039 1_545 S
O83 C73 1.265 . S
C84 O80 1.253 . S
C84 O85 1.227 . S
O85 C84 1.227 . S
N86 Co72 2.140 . S
N86 C89 1.346 . S
N86 C90 1.345 . S
C87 C88 1.387 . S
C87 C91 1.391 . S
C88 C87 1.387 . S
C88 C89 1.369 . S
C88 H97 0.929 . S
C89 N86 1.346 . S
C89 C88 1.369 . S
C89 H92 0.928 . S
C90 N86 1.345 . S
C90 C91 1.371 . S
C90 H93 0.931 . S
C91 C87 1.391 . S
C91 C90 1.371 . S
C91 H98 0.930 . S
H92 C89 0.928 . S
H93 C90 0.931 . S
H94 C70 0.930 . S
H95 C67 0.930 . S
H96 C76 0.930 . S
H97 C88 0.929 . S
H98 C91 0.930 . S
C99 C100 1.351 . S
C99 N102 1.368 . S
C99 H104 0.931 . S
C100 C99 1.351 . S
C100 N101 1.373 . S
C100 H128 0.930 . S
N101 C100 1.373 . S
N101 C103 1.340 . S
N102 C99 1.368 . S
N102 C103 1.321 . S
N102 Co105 2.135 . S
C103 N101 1.340 . S
C103 N102 1.321 . S
C103 H127 0.930 . S
H104 C99 0.931 . S
Co105 N102 2.135 . S
Co105 N108 2.121 1_545 S
Co105 O113 2.055 . S
Co105 O116 2.039 1_545 S
Co105 N119 2.140 . S
C106 O107 1.227 . S
C106 O116 1.265 . S
O107 C106 1.227 . S
N108 Co105 2.121 1_565 S
N108 C110 1.375 . S
N108 C111 1.313 . S
C109 C110 1.338 . S
C109 N112 1.377 . S
C109 H129 0.930 . S
C110 N108 1.375 . S
C110 C109 1.338 . S
C110 H114 0.931 . S
C111 N108 1.313 . S
C111 N112 1.344 . S
C111 H115 0.926 1_565 S
N112 C109 1.377 . S
N112 C111 1.344 . S
O113 Co105 2.055 . S
O113 C117 1.253 . S
H114 C110 0.931 . S
H115 C111 0.926 1_545 S
O116 Co105 2.039 1_565 S
O116 C106 1.265 . S
C117 O113 1.253 . S
C117 O118 1.227 . S
O118 C117 1.227 . S
N119 Co105 2.140 . S
N119 C122 1.346 . S
N119 C123 1.345 . S
C120 C121 1.387 . S
C120 C124 1.391 . S
C121 C120 1.387 . S
C121 C122 1.369 . S
C121 H130 0.929 . S
C122 N119 1.346 . S
C122 C121 1.369 . S
C122 H125 0.928 . S
C123 N119 1.345 . S
C123 C124 1.371 . S
C123 H126 0.931 . S
C124 C120 1.391 . S
C124 C123 1.371 . S
C124 H131 0.930 . S
H125 C122 0.928 . S
H126 C123 0.931 . S
H127 C103 0.930 . S
H128 C100 0.930 . S
H129 C109 0.930 . S
H130 C121 0.929 . S
H131 C124 0.930 . S
C132 C133 1.351 . S
C132 N135 1.368 . S
C132 H137 0.931 . S
C133 C132 1.351 . S
C133 N134 1.373 . S
C133 H161 0.930 . S
N134 C133 1.373 . S
N134 C136 1.340 . S
N135 C132 1.368 . S
N135 C136 1.321 . S
N135 Co138 2.135 . S
C136 N134 1.340 . S
C136 N135 1.321 . S
C136 H160 0.930 . S
H137 C132 0.931 . S
Co138 N135 2.135 . S
Co138 N141 2.121 1_655 S
Co138 O146 2.055 . S
Co138 O149 2.039 1_655 S
Co138 N152 2.140 . S
C139 O140 1.227 . S
C139 O149 1.265 . S
O140 C139 1.227 . S
N141 Co138 2.121 1_455 S
N141 C143 1.375 . S
N141 C144 1.313 . S
C142 C143 1.338 . S
C142 N145 1.377 . S
C142 H162 0.930 . S
C143 N141 1.375 . S
C143 C142 1.338 . S
C143 H147 0.931 . S
C144 N141 1.313 . S
C144 N145 1.344 . S
C144 H148 0.920 1_455 S
N145 C142 1.377 . S
N145 C144 1.344 . S
O146 Co138 2.055 . S
O146 C150 1.253 . S
H147 C143 0.931 . S
H148 C144 0.920 1_655 S
O149 Co138 2.039 1_455 S
O149 C139 1.265 . S
C150 O146 1.253 . S
C150 O151 1.227 . S
O151 C150 1.227 . S
N152 Co138 2.140 . S
N152 C155 1.346 . S
N152 C156 1.345 . S
C153 C154 1.387 . S
C153 C157 1.391 . S
C154 C153 1.387 . S
C154 C155 1.369 . S
C154 H163 0.929 . S
C155 N152 1.346 . S
C155 C154 1.369 . S
C155 H158 0.928 . S
C156 N152 1.345 . S
C156 C157 1.371 . S
C156 H159 0.931 . S
C157 C153 1.391 . S
C157 C156 1.371 . S
C157 H164 0.930 . S
H158 C155 0.928 . S
H159 C156 0.931 . S
H160 C136 0.930 . S
H161 C133 0.930 . S
H162 C142 0.930 . S
H163 C154 0.929 . S
H164 C157 0.930 . S
C165 C166 1.351 . S
C165 N168 1.368 . S
C165 H170 0.931 . S
C166 C165 1.351 . S
C166 N167 1.373 . S
C166 H194 0.930 . S
N167 C166 1.373 . S
N167 C169 1.340 . S
N168 C165 1.368 . S
N168 C169 1.321 . S
N168 Co171 2.135 . S
C169 N167 1.340 . S
C169 N168 1.321 . S
C169 H193 0.930 . S
H170 C165 0.931 . S
Co171 N168 2.135 . S
Co171 N174 2.121 . S
Co171 O179 2.055 . S
Co171 O182 2.039 . S
Co171 N185 2.140 . S
C172 O173 1.227 . S
C172 O182 1.265 . S
O173 C172 1.227 . S
N174 Co171 2.121 . S
N174 C176 1.375 . S
N174 C177 1.313 . S
C175 C176 1.338 . S
C175 N178 1.377 . S
C175 H195 0.930 . S
C176 N174 1.375 . S
C176 C175 1.338 . S
C176 H180 0.931 . S
C177 N174 1.313 . S
C177 N178 1.344 . S
C177 H181 0.930 . S
N178 C175 1.377 . S
N178 C177 1.344 . S
O179 Co171 2.055 . S
O179 C183 1.253 . S
H180 C176 0.931 . S
H181 C177 0.930 . S
O182 Co171 2.039 . S
O182 C172 1.265 . S
C183 O179 1.253 . S
C183 O184 1.227 . S
O184 C183 1.227 . S
N185 Co171 2.140 . S
N185 C188 1.346 . S
N185 C189 1.345 . S
C186 C187 1.387 . S
C186 C190 1.391 . S
C187 C186 1.387 . S
C187 C188 1.369 . S
C187 H196 0.929 . S
C188 N185 1.346 . S
C188 C187 1.369 . S
C188 H191 0.928 . S
C189 N185 1.345 . S
C189 C190 1.371 . S
C189 H192 0.931 . S
C190 C186 1.391 . S
C190 C189 1.371 . S
C190 H197 0.930 . S
H191 C188 0.928 . S
H192 C189 0.931 . S
H193 C169 0.930 . S
H194 C166 0.930 . S
H195 C175 0.930 . S
H196 C187 0.929 . S
H197 C190 0.930 . S
C198 C199 1.351 . S
C198 N201 1.368 . S
C198 H203 0.931 . S
C199 C198 1.351 . S
C199 N200 1.373 . S
C199 H227 0.930 . S
N200 C199 1.373 . S
N200 C202 1.340 . S
N201 C198 1.368 . S
N201 C202 1.321 . S
N201 Co204 2.135 . S
C202 N200 1.340 . S
C202 N201 1.321 . S
C202 H226 0.930 . S
H203 C198 0.931 . S
Co204 N201 2.135 . S
Co204 N207 2.121 . S
Co204 O212 2.055 . S
Co204 O215 2.039 . S
Co204 N218 2.140 . S
C205 O206 1.227 . S
C205 O215 1.265 . S
O206 C205 1.227 . S
N207 Co204 2.121 . S
N207 C209 1.375 . S
N207 C210 1.313 . S
C208 C209 1.338 . S
C208 N211 1.377 . S
C208 H228 0.930 . S
C209 N207 1.375 . S
C209 C208 1.338 . S
C209 H213 0.931 . S
C210 N207 1.313 . S
C210 N211 1.344 . S
C210 H214 0.930 . S
N211 C208 1.377 . S
N211 C210 1.344 . S
O212 Co204 2.055 . S
O212 C216 1.253 . S
H213 C209 0.931 . S
H214 C210 0.930 . S
O215 Co204 2.039 . S
O215 C205 1.265 . S
C216 O212 1.253 . S
C216 O217 1.227 . S
O217 C216 1.227 . S
N218 Co204 2.140 . S
N218 C221 1.346 . S
N218 C222 1.345 . S
C219 C220 1.387 . S
C219 C223 1.391 . S
C220 C219 1.387 . S
C220 C221 1.369 . S
C220 H229 0.929 . S
C221 N218 1.346 . S
C221 C220 1.369 . S
C221 H224 0.928 . S
C222 N218 1.345 . S
C222 C223 1.371 . S
C222 H225 0.931 . S
C223 C219 1.391 . S
C223 C222 1.371 . S
C223 H230 0.930 . S
H224 C221 0.928 . S
H225 C222 0.931 . S
H226 C202 0.930 . S
H227 C199 0.930 . S
H228 C208 0.930 . S
H229 C220 0.929 . S
H230 C223 0.930 . S
C231 C232 1.351 . S
C231 N234 1.368 . S
C231 H236 0.931 . S
C232 C231 1.351 . S
C232 N233 1.373 . S
C232 H260 0.930 . S
N233 C232 1.373 . S
N233 C235 1.340 . S
N234 C231 1.368 . S
N234 C235 1.321 . S
N234 Co237 2.135 . S
C235 N233 1.340 . S
C235 N234 1.321 . S
C235 H259 0.930 . S
H236 C231 0.931 . S
Co237 N234 2.135 . S
Co237 N240 2.121 . S
Co237 O245 2.055 . S
Co237 O248 2.039 . S
Co237 N251 2.140 . S
C238 O239 1.227 . S
C238 O248 1.265 . S
O239 C238 1.227 . S
N240 Co237 2.121 . S
N240 C242 1.375 . S
N240 C243 1.313 . S
C241 C242 1.338 . S
C241 N244 1.377 . S
C241 H261 0.930 . S
C242 N240 1.375 . S
C242 C241 1.338 . S
C242 H246 0.931 . S
C243 N240 1.313 . S
C243 N244 1.344 . S
C243 H247 0.930 . S
N244 C241 1.377 . S
N244 C243 1.344 . S
O245 Co237 2.055 . S
O245 C249 1.253 . S
H246 C242 0.931 . S
H247 C243 0.930 . S
O248 Co237 2.039 . S
O248 C238 1.265 . S
C249 O245 1.253 . S
C249 O250 1.227 . S
O250 C249 1.227 . S
N251 Co237 2.140 . S
N251 C254 1.346 . S
N251 C255 1.345 . S
C252 C253 1.387 . S
C252 C256 1.391 . S
C253 C252 1.387 . S
C253 C254 1.369 . S
C253 H262 0.929 . S
C254 N251 1.346 . S
C254 C253 1.369 . S
C254 H257 0.928 . S
C255 N251 1.345 . S
C255 C256 1.371 . S
C255 H258 0.931 . S
C256 C252 1.391 . S
C256 C255 1.371 . S
C256 H263 0.930 . S
H257 C254 0.928 . S
H258 C255 0.931 . S
H259 C235 0.930 . S
H260 C232 0.930 . S
H261 C241 0.930 . S
H262 C253 0.929 . S
H263 C256 0.930 . S
C264 C265 1.351 . S
C264 N267 1.368 . S
C264 H269 0.931 . S
C265 C264 1.351 . S
C265 N266 1.373 . S
C265 H293 0.930 . S
N266 C265 1.373 . S
N266 C268 1.340 . S
N267 C264 1.368 . S
N267 C268 1.321 . S
N267 Co270 2.135 . S
C268 N266 1.340 . S
C268 N267 1.321 . S
C268 H292 0.930 . S
H269 C264 0.931 . S
Co270 N267 2.135 . S
Co270 N273 2.121 . S
Co270 O278 2.055 . S
Co270 O281 2.039 . S
Co270 N284 2.140 . S
C271 O272 1.227 . S
C271 O281 1.265 . S
O272 C271 1.227 . S
N273 Co270 2.121 . S
N273 C275 1.375 . S
N273 C276 1.313 . S
C274 C275 1.338 . S
C274 N277 1.377 . S
C274 H294 0.930 . S
C275 N273 1.375 . S
C275 C274 1.338 . S
C275 H279 0.931 . S
C276 N273 1.313 . S
C276 N277 1.344 . S
C276 H280 0.930 . S
N277 C274 1.377 . S
N277 C276 1.344 . S
O278 Co270 2.055 . S
O278 C282 1.253 . S
H279 C275 0.931 . S
H280 C276 0.930 . S
O281 Co270 2.039 . S
O281 C271 1.265 . S
C282 O278 1.253 . S
C282 O283 1.227 . S
O283 C282 1.227 . S
N284 Co270 2.140 . S
N284 C287 1.346 . S
N284 C288 1.345 . S
C285 C286 1.387 . S
C285 C289 1.391 . S
C286 C285 1.387 . S
C286 C287 1.369 . S
C286 H295 0.929 . S
C287 N284 1.346 . S
C287 C286 1.369 . S
C287 H290 0.928 . S
C288 N284 1.345 . S
C288 C289 1.371 . S
C288 H291 0.931 . S
C289 C285 1.391 . S
C289 C288 1.371 . S
C289 H296 0.930 . S
H290 C287 0.928 . S
H291 C288 0.931 . S
H292 C268 0.930 . S
H293 C265 0.930 . S
H294 C274 0.930 . S
H295 C286 0.929 . S
H296 C289 0.930 . S
C297 C298 1.351 . S
C297 N300 1.368 . S
C297 H302 0.931 . S
C298 C297 1.351 . S
C298 N299 1.373 . S
C298 H326 0.930 . S
N299 C298 1.373 . S
N299 C301 1.340 . S
N300 C297 1.368 . S
N300 C301 1.321 . S
N300 Co303 2.135 . S
C301 N299 1.340 . S
C301 N300 1.321 . S
C301 H325 0.930 . S
H302 C297 0.931 . S
Co303 N300 2.135 . S
Co303 N306 2.121 . S
Co303 O311 2.055 . S
Co303 O314 2.039 . S
Co303 N317 2.140 . S
C304 O305 1.227 . S
C304 O314 1.265 . S
O305 C304 1.227 . S
N306 Co303 2.121 . S
N306 C308 1.375 . S
N306 C309 1.313 . S
C307 C308 1.338 . S
C307 N310 1.377 . S
C307 H327 0.930 . S
C308 N306 1.375 . S
C308 C307 1.338 . S
C308 H312 0.931 . S
C309 N306 1.313 . S
C309 N310 1.344 . S
C309 H313 0.930 . S
N310 C307 1.377 . S
N310 C309 1.344 . S
O311 Co303 2.055 . S
O311 C315 1.253 . S
H312 C308 0.931 . S
H313 C309 0.930 . S
O314 Co303 2.039 . S
O314 C304 1.265 . S
C315 O311 1.253 . S
C315 O316 1.227 . S
O316 C315 1.227 . S
N317 Co303 2.140 . S
N317 C320 1.346 . S
N317 C321 1.345 . S
C318 C319 1.387 . S
C318 C322 1.391 . S
C319 C318 1.387 . S
C319 C320 1.369 . S
C319 H328 0.929 . S
C320 N317 1.346 . S
C320 C319 1.369 . S
C320 H323 0.928 . S
C321 N317 1.345 . S
C321 C322 1.371 . S
C321 H324 0.931 . S
C322 C318 1.391 . S
C322 C321 1.371 . S
C322 H329 0.930 . S
H323 C320 0.928 . S
H324 C321 0.931 . S
H325 C301 0.930 . S
H326 C298 0.930 . S
H327 C307 0.930 . S
H328 C319 0.929 . S
H329 C322 0.930 . S
C330 C331 1.351 . S
C330 N333 1.368 . S
C330 H335 0.931 . S
C331 C330 1.351 . S
C331 N332 1.373 . S
C331 H359 0.930 . S
N332 C331 1.373 . S
N332 C334 1.340 . S
N333 C330 1.368 . S
N333 C334 1.321 . S
N333 Co336 2.135 . S
C334 N332 1.340 . S
C334 N333 1.321 . S
C334 H358 0.930 . S
H335 C330 0.931 . S
Co336 N333 2.135 . S
Co336 N339 2.121 . S
Co336 O344 2.055 . S
Co336 O347 2.039 . S
Co336 N350 2.140 . S
C337 O338 1.227 . S
C337 O347 1.265 . S
O338 C337 1.227 . S
N339 Co336 2.121 . S
N339 C341 1.375 . S
N339 C342 1.313 . S
C340 C341 1.338 . S
C340 N343 1.377 . S
C340 H360 0.930 . S
C341 N339 1.375 . S
C341 C340 1.338 . S
C341 H345 0.931 . S
C342 N339 1.313 . S
C342 N343 1.344 . S
C342 H346 0.930 . S
N343 C340 1.377 . S
N343 C342 1.344 . S
O344 Co336 2.055 . S
O344 C348 1.253 . S
H345 C341 0.931 . S
H346 C342 0.930 . S
O347 Co336 2.039 . S
O347 C337 1.265 . S
C348 O344 1.253 . S
C348 O349 1.227 . S
O349 C348 1.227 . S
N350 Co336 2.140 . S
N350 C353 1.346 . S
N350 C354 1.345 . S
C351 C352 1.387 . S
C351 C355 1.391 . S
C352 C351 1.387 . S
C352 C353 1.369 . S
C352 H361 0.929 . S
C353 N350 1.346 . S
C353 C352 1.369 . S
C353 H356 0.928 . S
C354 N350 1.345 . S
C354 C355 1.371 . S
C354 H357 0.931 . S
C355 C351 1.391 . S
C355 C354 1.371 . S
C355 H362 0.930 . S
H356 C353 0.928 . S
H357 C354 0.931 . S
H358 C334 0.930 . S
H359 C331 0.930 . S
H360 C340 0.930 . S
H361 C352 0.929 . S
H362 C355 0.930 . S
C363 C364 1.351 . S
C363 N366 1.368 . S
C363 H368 0.931 . S
C364 C363 1.351 . S
C364 N365 1.373 . S
C364 H392 0.930 . S
N365 C364 1.373 . S
N365 C367 1.340 . S
N366 C363 1.368 . S
N366 C367 1.321 . S
N366 Co369 2.135 . S
C367 N365 1.340 . S
C367 N366 1.321 . S
C367 H391 0.930 . S
H368 C363 0.931 . S
Co369 N366 2.135 . S
Co369 N372 2.121 . S
Co369 O377 2.055 . S
Co369 O380 2.039 . S
Co369 N383 2.140 . S
C370 O371 1.227 . S
C370 O380 1.265 . S
O371 C370 1.227 . S
N372 Co369 2.121 . S
N372 C374 1.375 . S
N372 C375 1.313 . S
C373 C374 1.338 . S
C373 N376 1.377 . S
C373 H393 0.930 . S
C374 N372 1.375 . S
C374 C373 1.338 . S
C374 H378 0.931 . S
C375 N372 1.313 . S
C375 N376 1.344 . S
C375 H379 0.930 . S
N376 C373 1.377 . S
N376 C375 1.344 . S
O377 Co369 2.055 . S
O377 C381 1.253 . S
H378 C374 0.931 . S
H379 C375 0.930 . S
O380 Co369 2.039 . S
O380 C370 1.265 . S
C381 O377 1.253 . S
C381 O382 1.227 . S
O382 C381 1.227 . S
N383 Co369 2.140 . S
N383 C386 1.346 . S
N383 C387 1.345 . S
C384 C385 1.387 . S
C384 C388 1.391 . S
C385 C384 1.387 . S
C385 C386 1.369 . S
C385 H394 0.929 . S
C386 N383 1.346 . S
C386 C385 1.369 . S
C386 H389 0.928 . S
C387 N383 1.345 . S
C387 C388 1.371 . S
C387 H390 0.931 . S
C388 C384 1.391 . S
C388 C387 1.371 . S
C388 H395 0.930 . S
H389 C386 0.928 . S
H390 C387 0.931 . S
H391 C367 0.930 . S
H392 C364 0.930 . S
H393 C373 0.930 . S
H394 C385 0.929 . S
H395 C388 0.930 . S
C396 C397 1.351 . S
C396 N399 1.368 . S
C396 H401 0.931 . S
C397 C396 1.351 . S
C397 N398 1.373 . S
C397 H425 0.930 . S
N398 C397 1.373 . S
N398 C400 1.340 . S
N399 C396 1.368 . S
N399 C400 1.321 . S
N399 Co402 2.135 . S
C400 N398 1.340 . S
C400 N399 1.321 . S
C400 H424 0.930 . S
H401 C396 0.931 . S
Co402 N399 2.135 . S
Co402 N405 2.121 . S
Co402 O410 2.055 . S
Co402 O413 2.039 . S
Co402 N416 2.140 . S
C403 O404 1.227 . S
C403 O413 1.265 . S
O404 C403 1.227 . S
N405 Co402 2.121 . S
N405 C407 1.375 . S
N405 C408 1.313 . S
C406 C407 1.338 . S
C406 N409 1.377 . S
C406 H426 0.930 . S
C407 N405 1.375 . S
C407 C406 1.338 . S
C407 H411 0.931 . S
C408 N405 1.313 . S
C408 N409 1.344 . S
C408 H412 0.930 . S
N409 C406 1.377 . S
N409 C408 1.344 . S
O410 Co402 2.055 . S
O410 C414 1.253 . S
H411 C407 0.931 . S
H412 C408 0.930 . S
O413 Co402 2.039 . S
O413 C403 1.265 . S
C414 O410 1.253 . S
C414 O415 1.227 . S
O415 C414 1.227 . S
N416 Co402 2.140 . S
N416 C419 1.346 . S
N416 C420 1.345 . S
C417 C418 1.387 . S
C417 C421 1.391 . S
C418 C417 1.387 . S
C418 C419 1.369 . S
C418 H427 0.929 . S
C419 N416 1.346 . S
C419 C418 1.369 . S
C419 H422 0.928 . S
C420 N416 1.345 . S
C420 C421 1.371 . S
C420 H423 0.931 . S
C421 C417 1.391 . S
C421 C420 1.371 . S
C421 H428 0.930 . S
H422 C419 0.928 . S
H423 C420 0.931 . S
H424 C400 0.930 . S
H425 C397 0.930 . S
H426 C406 0.930 . S
H427 C418 0.929 . S
H428 C421 0.930 . S
C429 C430 1.351 . S
C429 N432 1.368 . S
C429 H434 0.931 . S
C430 C429 1.351 . S
C430 N431 1.373 . S
C430 H458 0.930 . S
N431 C430 1.373 . S
N431 C433 1.340 . S
N432 C429 1.368 . S
N432 C433 1.321 . S
N432 Co435 2.135 . S
C433 N431 1.340 . S
C433 N432 1.321 . S
C433 H457 0.930 . S
H434 C429 0.931 . S
Co435 N432 2.135 . S
Co435 N438 2.121 . S
Co435 O443 2.055 . S
Co435 O446 2.039 . S
Co435 N449 2.140 . S
C436 O437 1.227 . S
C436 O446 1.265 . S
O437 C436 1.227 . S
N438 Co435 2.121 . S
N438 C440 1.375 . S
N438 C441 1.313 . S
C439 C440 1.338 . S
C439 N442 1.377 . S
C439 H459 0.930 . S
C440 N438 1.375 . S
C440 C439 1.338 . S
C440 H444 0.931 . S
C441 N438 1.313 . S
C441 N442 1.344 . S
C441 H445 0.930 . S
N442 C439 1.377 . S
N442 C441 1.344 . S
O443 Co435 2.055 . S
O443 C447 1.253 . S
H444 C440 0.931 . S
H445 C441 0.930 . S
O446 Co435 2.039 . S
O446 C436 1.265 . S
C447 O443 1.253 . S
C447 O448 1.227 . S
O448 C447 1.227 . S
N449 Co435 2.140 . S
N449 C452 1.346 . S
N449 C453 1.345 . S
C450 C451 1.387 . S
C450 C454 1.391 . S
C451 C450 1.387 . S
C451 C452 1.369 . S
C451 H460 0.929 . S
C452 N449 1.346 . S
C452 C451 1.369 . S
C452 H455 0.928 . S
C453 N449 1.345 . S
C453 C454 1.371 . S
C453 H456 0.931 . S
C454 C450 1.391 . S
C454 C453 1.371 . S
C454 H461 0.930 . S
H455 C452 0.928 . S
H456 C453 0.931 . S
H457 C433 0.930 . S
H458 C430 0.930 . S
H459 C439 0.930 . S
H460 C451 0.929 . S
H461 C454 0.930 . S
C462 C463 1.351 . S
C462 N465 1.368 . S
C462 H467 0.931 . S
C463 C462 1.351 . S
C463 N464 1.373 . S
C463 H491 0.930 . S
N464 C463 1.373 . S
N464 C466 1.340 . S
N465 C462 1.368 . S
N465 C466 1.321 . S
N465 Co468 2.135 . S
C466 N464 1.340 . S
C466 N465 1.321 . S
C466 H490 0.930 . S
H467 C462 0.931 . S
Co468 N465 2.135 . S
Co468 N471 2.121 . S
Co468 O476 2.055 . S
Co468 O479 2.039 . S
Co468 N482 2.140 . S
C469 O470 1.227 . S
C469 O479 1.265 . S
O470 C469 1.227 . S
N471 Co468 2.121 . S
N471 C473 1.375 . S
N471 C474 1.313 . S
C472 C473 1.338 . S
C472 N475 1.377 . S
C472 H492 0.930 . S
C473 N471 1.375 . S
C473 C472 1.338 . S
C473 H477 0.931 . S
C474 N471 1.313 . S
C474 N475 1.344 . S
C474 H478 0.930 . S
N475 C472 1.377 . S
N475 C474 1.344 . S
O476 Co468 2.055 . S
O476 C480 1.253 . S
H477 C473 0.931 . S
H478 C474 0.930 . S
O479 Co468 2.039 . S
O479 C469 1.265 . S
C480 O476 1.253 . S
C480 O481 1.227 . S
O481 C480 1.227 . S
N482 Co468 2.140 . S
N482 C485 1.346 . S
N482 C486 1.345 . S
C483 C484 1.387 . S
C483 C487 1.391 . S
C484 C483 1.387 . S
C484 C485 1.369 . S
C484 H493 0.929 . S
C485 N482 1.346 . S
C485 C484 1.369 . S
C485 H488 0.928 . S
C486 N482 1.345 . S
C486 C487 1.371 . S
C486 H489 0.931 . S
C487 C483 1.391 . S
C487 C486 1.371 . S
C487 H494 0.930 . S
H488 C485 0.928 . S
H489 C486 0.931 . S
H490 C466 0.930 . S
H491 C463 0.930 . S
H492 C472 0.930 . S
H493 C484 0.929 . S
H494 C487 0.930 . S
C495 C496 1.351 . S
C495 N498 1.368 . S
C495 H500 0.931 . S
C496 C495 1.351 . S
C496 N497 1.373 . S
C496 H524 0.930 . S
N497 C496 1.373 . S
N497 C499 1.340 . S
N498 C495 1.368 . S
N498 C499 1.321 . S
N498 Co501 2.135 . S
C499 N497 1.340 . S
C499 N498 1.321 . S
C499 H523 0.930 . S
H500 C495 0.931 . S
Co501 N498 2.135 . S
Co501 N504 2.121 . S
Co501 O509 2.055 . S
Co501 O512 2.039 . S
Co501 N515 2.140 . S
C502 O503 1.227 . S
C502 O512 1.265 . S
O503 C502 1.227 . S
N504 Co501 2.121 . S
N504 C506 1.375 . S
N504 C507 1.313 . S
C505 C506 1.338 . S
C505 N508 1.377 . S
C505 H525 0.930 . S
C506 N504 1.375 . S
C506 C505 1.338 . S
C506 H510 0.931 . S
C507 N504 1.313 . S
C507 N508 1.344 . S
C507 H511 0.930 . S
N508 C505 1.377 . S
N508 C507 1.344 . S
O509 Co501 2.055 . S
O509 C513 1.253 . S
H510 C506 0.931 . S
H511 C507 0.930 . S
O512 Co501 2.039 . S
O512 C502 1.265 . S
C513 O509 1.253 . S
C513 O514 1.227 . S
O514 C513 1.227 . S
N515 Co501 2.140 . S
N515 C518 1.346 . S
N515 C519 1.345 . S
C516 C517 1.387 . S
C516 C520 1.391 . S
C517 C516 1.387 . S
C517 C518 1.369 . S
C517 H526 0.929 . S
C518 N515 1.346 . S
C518 C517 1.369 . S
C518 H521 0.928 . S
C519 N515 1.345 . S
C519 C520 1.371 . S
C519 H522 0.931 . S
C520 C516 1.391 . S
C520 C519 1.371 . S
C520 H527 0.930 . S
H521 C518 0.928 . S
H522 C519 0.931 . S
H523 C499 0.930 . S
H524 C496 0.930 . S
H525 C505 0.930 . S
H526 C517 0.929 . S
H527 C520 0.930 . S
C528 C529 1.351 . S
C528 N531 1.368 . S
C528 H533 0.931 . S
C529 C528 1.351 . S
C529 N530 1.373 . S
C529 H557 0.930 . S
N530 C529 1.373 . S
N530 C532 1.340 . S
N531 C528 1.368 . S
N531 C532 1.321 . S
N531 Co534 2.135 . S
C532 N530 1.340 . S
C532 N531 1.321 . S
C532 H556 0.930 . S
H533 C528 0.931 . S
Co534 N531 2.135 . S
Co534 N537 2.121 . S
Co534 O542 2.055 . S
Co534 O545 2.039 . S
Co534 N548 2.140 . S
C535 O536 1.227 . S
C535 O545 1.265 . S
O536 C535 1.227 . S
N537 Co534 2.121 . S
N537 C539 1.375 . S
N537 C540 1.313 . S
C538 C539 1.338 . S
C538 N541 1.377 . S
C538 H558 0.930 . S
C539 N537 1.375 . S
C539 C538 1.338 . S
C539 H543 0.931 . S
C540 N537 1.313 . S
C540 N541 1.344 . S
C540 H544 0.930 . S
N541 C538 1.377 . S
N541 C540 1.344 . S
O542 Co534 2.055 . S
O542 C546 1.253 . S
H543 C539 0.931 . S
H544 C540 0.930 . S
O545 Co534 2.039 . S
O545 C535 1.265 . S
C546 O542 1.253 . S
C546 O547 1.227 . S
O547 C546 1.227 . S
N548 Co534 2.140 . S
N548 C551 1.346 . S
N548 C552 1.345 . S
C549 C550 1.387 . S
C549 C553 1.391 . S
C550 C549 1.387 . S
C550 C551 1.369 . S
C550 H559 0.929 . S
C551 N548 1.346 . S
C551 C550 1.369 . S
C551 H554 0.928 . S
C552 N548 1.345 . S
C552 C553 1.371 . S
C552 H555 0.931 . S
C553 C549 1.391 . S
C553 C552 1.371 . S
C553 H560 0.930 . S
H554 C551 0.928 . S
H555 C552 0.931 . S
H556 C532 0.930 . S
H557 C529 0.930 . S
H558 C538 0.930 . S
H559 C550 0.929 . S
H560 C553 0.930 . S
C561 C562 1.351 . S
C561 N564 1.368 . S
C561 H566 0.931 . S
C562 C561 1.351 . S
C562 N563 1.373 . S
C562 H590 0.930 . S
N563 C562 1.373 . S
N563 C565 1.340 . S
N564 C561 1.368 . S
N564 C565 1.321 . S
N564 Co567 2.135 . S
C565 N563 1.340 . S
C565 N564 1.321 . S
C565 H589 0.930 . S
H566 C561 0.931 . S
Co567 N564 2.135 . S
Co567 N570 2.121 . S
Co567 O575 2.055 . S
Co567 O578 2.039 . S
Co567 N581 2.140 . S
C568 O569 1.227 . S
C568 O578 1.265 . S
O569 C568 1.227 . S
N570 Co567 2.121 . S
N570 C572 1.375 . S
N570 C573 1.313 . S
C571 C572 1.338 . S
C571 N574 1.377 . S
C571 H591 0.930 . S
C572 N570 1.375 . S
C572 C571 1.338 . S
C572 H576 0.931 . S
C573 N570 1.313 . S
C573 N574 1.344 . S
C573 H577 0.930 . S
N574 C571 1.377 . S
N574 C573 1.344 . S
O575 Co567 2.055 . S
O575 C579 1.253 . S
H576 C572 0.931 . S
H577 C573 0.930 . S
O578 Co567 2.039 . S
O578 C568 1.265 . S
C579 O575 1.253 . S
C579 O580 1.227 . S
O580 C579 1.227 . S
N581 Co567 2.140 . S
N581 C584 1.346 . S
N581 C585 1.345 . S
C582 C583 1.387 . S
C582 C586 1.391 . S
C583 C582 1.387 . S
C583 C584 1.369 . S
C583 H592 0.929 . S
C584 N581 1.346 . S
C584 C583 1.369 . S
C584 H587 0.928 . S
C585 N581 1.345 . S
C585 C586 1.371 . S
C585 H588 0.931 . S
C586 C582 1.391 . S
C586 C585 1.371 . S
C586 H593 0.930 . S
H587 C584 0.928 . S
H588 C585 0.931 . S
H589 C565 0.930 . S
H590 C562 0.930 . S
H591 C571 0.930 . S
H592 C583 0.929 . S
H593 C586 0.930 . S
C594 C595 1.363 . S
C594 C600 1.379 . S
C594 N602 1.356 . S
C595 C594 1.363 . S
C595 C601 1.363 . S
C596 C597 1.363 . S
C596 C601 1.379 . S
C596 N603 1.356 . S
C597 C596 1.363 . S
C597 C600 1.363 . S
N598 C600 1.356 . S
N598 H610 0.984 . S
N598 H611 0.985 . S
N599 C601 1.356 . S
N599 H604 0.984 . S
N599 H605 0.971 1_655 S
C600 C594 1.379 . S
C600 C597 1.363 . S
C600 N598 1.356 . S
C601 C595 1.363 . S
C601 C596 1.379 . S
C601 N599 1.356 . S
N602 C594 1.356 . S
N602 H608 0.984 . S
N602 H609 0.984 . S
N603 C596 1.356 . S
N603 H606 0.984 . S
N603 H607 0.985 1_655 S
H604 N599 0.984 . S
H605 N599 0.971 1_455 S
H606 N603 0.984 . S
H607 N603 0.985 1_455 S
H608 N602 0.984 . S
H609 N602 0.984 . S
H610 N598 0.984 . S
H611 N598 0.985 . S
C612 C613 1.363 . S
C612 C618 1.379 . S
C612 N620 1.356 . S
C613 C612 1.363 . S
C613 C619 1.363 . S
C614 C615 1.363 . S
C614 C619 1.379 . S
C614 N621 1.356 . S
C615 C614 1.363 . S
C615 C618 1.363 . S
N616 C618 1.356 . S
N616 H628 0.984 . S
N616 H629 0.985 . S
N617 C619 1.356 . S
N617 H622 0.984 . S
N617 H623 0.985 . S
C618 C612 1.379 . S
C618 C615 1.363 . S
C618 N616 1.356 . S
C619 C613 1.363 . S
C619 C614 1.379 . S
C619 N617 1.356 . S
N620 C612 1.356 . S
N620 H626 0.984 . S
N620 H627 0.984 . S
N621 C614 1.356 . S
N621 H624 0.984 . S
N621 H625 0.985 . S
H622 N617 0.984 . S
H623 N617 0.985 . S
H624 N621 0.984 . S
H625 N621 0.985 . S
H626 N620 0.984 . S
H627 N620 0.984 . S
H628 N616 0.984 . S
H629 N616 0.985 . S
C630 C631 1.363 . S
C630 C636 1.379 . S
C630 N638 1.356 . S
C631 C630 1.363 . S
C631 C637 1.363 . S
C632 C633 1.363 . S
C632 C637 1.379 . S
C632 N639 1.356 . S
C633 C632 1.363 . S
C633 C636 1.363 . S
N634 C636 1.356 . S
N634 H646 0.984 1_545 S
N634 H647 0.985 . S
N635 C637 1.356 . S
N635 H640 0.984 . S
N635 H641 0.985 . S
C636 C630 1.379 . S
C636 C633 1.363 . S
C636 N634 1.356 . S
C637 C631 1.363 . S
C637 C632 1.379 . S
C637 N635 1.356 . S
N638 C630 1.356 . S
N638 H644 0.974 1_545 S
N638 H645 0.984 . S
N639 C632 1.356 . S
N639 H642 0.984 . S
N639 H643 0.985 . S
H640 N635 0.984 . S
H641 N635 0.985 . S
H642 N639 0.984 . S
H643 N639 0.985 . S
H644 N638 0.974 1_565 S
H645 N638 0.984 . S
H646 N634 0.984 1_565 S
H647 N634 0.985 . S
C648 C649 1.363 . S
C648 C654 1.379 . S
C648 N656 1.356 . S
C649 C648 1.363 . S
C649 C655 1.363 . S
C650 C651 1.363 . S
C650 C655 1.379 . S
C650 N657 1.356 . S
C651 C650 1.363 . S
C651 C654 1.363 . S
N652 C654 1.356 . S
N652 H664 0.984 . S
N652 H665 0.985 . S
N653 C655 1.356 . S
N653 H658 0.984 . S
N653 H659 0.985 . S
C654 C648 1.379 . S
C654 C651 1.363 . S
C654 N652 1.356 . S
C655 C649 1.363 . S
C655 C650 1.379 . S
C655 N653 1.356 . S
N656 C648 1.356 . S
N656 H662 0.980 1_565 S
N656 H663 0.984 . S
N657 C650 1.356 . S
N657 H660 0.984 . S
N657 H661 0.985 . S
H658 N653 0.984 . S
H659 N653 0.985 . S
H660 N657 0.984 . S
H661 N657 0.985 . S
H662 N656 0.980 1_545 S
H663 N656 0.984 . S
H664 N652 0.984 . S
H665 N652 0.985 . S
C666 C667 1.363 . S
C666 C672 1.379 . S
C666 N674 1.356 . S
C667 C666 1.363 . S
C667 C673 1.363 . S
C668 C669 1.363 . S
C668 C673 1.379 . S
C668 N675 1.356 . S
C669 C668 1.363 . S
C669 C672 1.363 . S
N670 C672 1.356 . S
N670 H682 0.984 . S
N670 H683 0.985 . S
N671 C673 1.356 . S
N671 H676 0.984 . S
N671 H677 0.985 . S
C672 C666 1.379 . S
C672 C669 1.363 . S
C672 N670 1.356 . S
C673 C667 1.363 . S
C673 C668 1.379 . S
C673 N671 1.356 . S
N674 C666 1.356 . S
N674 H680 0.984 . S
N674 H681 0.984 . S
N675 C668 1.356 . S
N675 H678 0.984 . S
N675 H679 0.985 . S
H676 N671 0.984 . S
H677 N671 0.985 . S
H678 N675 0.984 . S
H679 N675 0.985 . S
H680 N674 0.984 . S
H681 N674 0.984 . S
H682 N670 0.984 . S
H683 N670 0.985 . S
C684 C685 1.363 . S
C684 C690 1.379 . S
C684 N692 1.356 . S
C685 C684 1.363 . S
C685 C691 1.363 . S
C686 C687 1.363 . S
C686 C691 1.379 . S
C686 N693 1.356 . S
C687 C686 1.363 . S
C687 C690 1.363 . S
N688 C690 1.356 . S
N688 H700 0.984 . S
N688 H701 0.985 . S
N689 C691 1.356 . S
N689 H694 0.984 . S
N689 H695 0.985 . S
C690 C684 1.379 . S
C690 C687 1.363 . S
C690 N688 1.356 . S
C691 C685 1.363 . S
C691 C686 1.379 . S
C691 N689 1.356 . S
N692 C684 1.356 . S
N692 H698 0.984 . S
N692 H699 0.984 . S
N693 C686 1.356 . S
N693 H696 0.984 . S
N693 H697 0.985 . S
H694 N689 0.984 . S
H695 N689 0.985 . S
H696 N693 0.984 . S
H697 N693 0.985 . S
H698 N692 0.984 . S
H699 N692 0.984 . S
H700 N688 0.984 . S
H701 N688 0.985 . S
C702 C703 1.363 . S
C702 C708 1.379 . S
C702 N710 1.356 . S
C703 C702 1.363 . S
C703 C709 1.363 . S
C704 C705 1.363 . S
C704 C709 1.379 . S
C704 N711 1.356 . S
C705 C704 1.363 . S
C705 C708 1.363 . S
N706 C708 1.356 . S
N706 H718 0.984 . S
N706 H719 0.985 . S
N707 C709 1.356 . S
N707 H712 0.984 . S
N707 H713 0.985 . S
C708 C702 1.379 . S
C708 C705 1.363 . S
C708 N706 1.356 . S
C709 C703 1.363 . S
C709 C704 1.379 . S
C709 N707 1.356 . S
N710 C702 1.356 . S
N710 H716 0.984 . S
N710 H717 0.984 . S
N711 C704 1.356 . S
N711 H714 0.984 . S
N711 H715 0.985 . S
H712 N707 0.984 . S
H713 N707 0.985 . S
H714 N711 0.984 . S
H715 N711 0.985 . S
H716 N710 0.984 . S
H717 N710 0.984 . S
H718 N706 0.984 . S
H719 N706 0.985 . S
C720 C721 1.363 1_545 S
C720 C726 1.379 . S
C720 N728 1.356 . S
C721 C720 1.363 1_565 S
C721 C727 1.363 . S
C722 C723 1.363 1_565 S
C722 C727 1.379 . S
C722 N729 1.356 . S
C723 C722 1.363 1_545 S
C723 C726 1.363 . S
N724 C726 1.356 . S
N724 H736 0.984 . S
N724 H737 0.985 . S
N725 C727 1.356 . S
N725 H730 0.984 . S
N725 H731 0.985 . S
C726 C720 1.379 . S
C726 C723 1.363 . S
C726 N724 1.356 . S
C727 C721 1.363 . S
C727 C722 1.379 . S
C727 N725 1.356 . S
N728 C720 1.356 . S
N728 H734 0.984 . S
N728 H735 0.984 1_545 S
N729 C722 1.356 . S
N729 H732 0.984 1_565 S
N729 H733 0.985 . S
H730 N725 0.984 . S
H731 N725 0.985 . S
H732 N729 0.984 1_545 S
H733 N729 0.985 . S
H734 N728 0.984 . S
H735 N728 0.984 1_565 S
H736 N724 0.984 . S
H737 N724 0.985 . S
C738 C739 1.363 1_655 S
C738 C744 1.379 . S
C738 N746 1.356 . S
C739 C738 1.363 1_455 S
C739 C745 1.363 . S
C740 C741 1.363 1_455 S
C740 C745 1.379 . S
C740 N747 1.356 . S
C741 C740 1.363 1_655 S
C741 C744 1.363 . S
N742 C744 1.356 . S
N742 H754 0.984 . S
N742 H755 0.985 . S
N743 C745 1.356 . S
N743 H748 0.984 . S
N743 H749 0.985 . S
C744 C738 1.379 . S
C744 C741 1.363 . S
C744 N742 1.356 . S
C745 C739 1.363 . S
C745 C740 1.379 . S
C745 N743 1.356 . S
N746 C738 1.356 . S
N746 H752 0.984 . S
N746 H753 0.984 . S
N747 C740 1.356 . S
N747 H750 0.984 . S
N747 H751 0.985 . S
H748 N743 0.984 . S
H749 N743 0.985 . S
H750 N747 0.984 . S
H751 N747 0.985 . S
H752 N746 0.984 . S
H753 N746 0.984 . S
H754 N742 0.984 . S
H755 N742 0.985 . S
C756 C757 1.363 . S
C756 C762 1.379 . S
C756 N764 1.356 . S
C757 C756 1.363 . S
C757 C763 1.363 . S
C758 C759 1.363 . S
C758 C763 1.379 . S
C758 N765 1.356 . S
C759 C758 1.363 . S
C759 C762 1.363 . S
N760 C762 1.356 . S
N760 H772 0.984 . S
N760 H773 0.985 . S
N761 C763 1.356 . S
N761 H766 0.984 . S
N761 H767 0.985 . S
C762 C756 1.379 . S
C762 C759 1.363 . S
C762 N760 1.356 . S
C763 C757 1.363 . S
C763 C758 1.379 . S
C763 N761 1.356 . S
N764 C756 1.356 . S
N764 H770 0.984 . S
N764 H771 0.984 . S
N765 C758 1.356 . S
N765 H768 0.984 . S
N765 H769 0.985 . S
H766 N761 0.984 . S
H767 N761 0.985 . S
H768 N765 0.984 . S
H769 N765 0.985 . S
H770 N764 0.984 . S
H771 N764 0.984 . S
H772 N760 0.984 . S
H773 N760 0.985 . S
C774 C775 1.363 . S
C774 C780 1.379 . S
C774 N782 1.356 . S
C775 C774 1.363 . S
C775 C781 1.363 . S
C776 C777 1.363 . S
C776 C781 1.379 . S
C776 N783 1.356 . S
C777 C776 1.363 . S
C777 C780 1.363 . S
N778 C780 1.356 . S
N778 H790 0.984 . S
N778 H791 0.985 . S
N779 C781 1.356 . S
N779 H784 0.984 . S
N779 H785 0.985 . S
C780 C774 1.379 . S
C780 C777 1.363 . S
C780 N778 1.356 . S
C781 C775 1.363 . S
C781 C776 1.379 . S
C781 N779 1.356 . S
N782 C774 1.356 . S
N782 H788 0.984 . S
N782 H789 0.984 . S
N783 C776 1.356 . S
N783 H786 0.984 . S
N783 H787 0.985 . S
H784 N779 0.984 . S
H785 N779 0.985 . S
H786 N783 0.984 . S
H787 N783 0.985 . S
H788 N782 0.984 . S
H789 N782 0.984 . S
H790 N778 0.984 . S
H791 N778 0.985 . S
C792 C793 1.363 . S
C792 C798 1.379 . S
C792 N800 1.356 . S
C793 C792 1.363 . S
C793 C799 1.363 . S
C794 C795 1.363 . S
C794 C799 1.379 . S
C794 N801 1.356 . S
C795 C794 1.363 . S
C795 C798 1.363 . S
N796 C798 1.356 . S
N796 H808 0.984 . S
N796 H809 0.985 . S
N797 C799 1.356 . S
N797 H802 0.984 . S
N797 H803 0.985 . S
C798 C792 1.379 . S
C798 C795 1.363 . S
C798 N796 1.356 . S
C799 C793 1.363 . S
C799 C794 1.379 . S
C799 N797 1.356 . S
N800 C792 1.356 . S
N800 H806 0.984 . S
N800 H807 0.984 . S
N801 C794 1.356 . S
N801 H804 0.984 . S
N801 H805 0.985 . S
H802 N797 0.984 . S
H803 N797 0.985 . S
H804 N801 0.984 . S
H805 N801 0.985 . S
H806 N800 0.984 . S
H807 N800 0.984 . S
H808 N796 0.984 . S
H809 N796 0.985 . S
C810 C811 1.363 . S
C810 C816 1.379 . S
C810 N818 1.356 . S
C811 C810 1.363 . S
C811 C817 1.363 . S
C812 C813 1.363 . S
C812 C817 1.379 . S
C812 N819 1.356 . S
C813 C812 1.363 . S
C813 C816 1.363 . S
N814 C816 1.356 . S
N814 H826 0.984 . S
N814 H827 0.985 . S
N815 C817 1.356 . S
N815 H820 0.984 . S
N815 H821 0.985 . S
C816 C810 1.379 . S
C816 C813 1.363 . S
C816 N814 1.356 . S
C817 C811 1.363 . S
C817 C812 1.379 . S
C817 N815 1.356 . S
N818 C810 1.356 . S
N818 H824 0.984 . S
N818 H825 0.984 . S
N819 C812 1.356 . S
N819 H822 0.984 . S
N819 H823 0.985 . S
H820 N815 0.984 . S
H821 N815 0.985 . S
H822 N819 0.984 . S
H823 N819 0.985 . S
H824 N818 0.984 . S
H825 N818 0.984 . S
H826 N814 0.984 . S
H827 N814 0.985 . S
C828 C829 1.363 . S
C828 C834 1.379 . S
C828 N836 1.356 . S
C829 C828 1.363 . S
C829 C835 1.363 . S
C830 C831 1.363 . S
C830 C835 1.379 . S
C830 N837 1.356 . S
C831 C830 1.363 . S
C831 C834 1.363 . S
N832 C834 1.356 . S
N832 H844 0.984 . S
N832 H845 0.985 . S
N833 C835 1.356 . S
N833 H838 0.984 . S
N833 H839 0.985 . S
C834 C828 1.379 . S
C834 C831 1.363 . S
C834 N832 1.356 . S
C835 C829 1.363 . S
C835 C830 1.379 . S
C835 N833 1.356 . S
N836 C828 1.356 . S
N836 H842 0.984 . S
N836 H843 0.984 . S
N837 C830 1.356 . S
N837 H840 0.984 . S
N837 H841 0.985 . S
H838 N833 0.984 . S
H839 N833 0.985 . S
H840 N837 0.984 . S
H841 N837 0.985 . S
H842 N836 0.984 . S
H843 N836 0.984 . S
H844 N832 0.984 . S
H845 N832 0.985 . S
C846 C847 1.363 . S
C846 C852 1.379 . S
C846 N854 1.356 . S
C847 C846 1.363 . S
C847 C853 1.363 . S
C848 C849 1.363 . S
C848 C853 1.379 . S
C848 N855 1.356 . S
C849 C848 1.363 . S
C849 C852 1.363 . S
N850 C852 1.356 . S
N850 H862 0.984 . S
N850 H863 0.985 . S
N851 C853 1.356 . S
N851 H856 0.984 . S
N851 H857 0.985 . S
C852 C846 1.379 . S
C852 C849 1.363 . S
C852 N850 1.356 . S
C853 C847 1.363 . S
C853 C848 1.379 . S
C853 N851 1.356 . S
N854 C846 1.356 . S
N854 H860 0.984 . S
N854 H861 0.984 . S
N855 C848 1.356 . S
N855 H858 0.984 . S
N855 H859 0.985 . S
H856 N851 0.984 . S
H857 N851 0.985 . S
H858 N855 0.984 . S
H859 N855 0.985 . S
H860 N854 0.984 . S
H861 N854 0.984 . S
H862 N850 0.984 . S
H863 N850 0.985 . S
C864 C865 1.363 . S
C864 C870 1.379 1_654 S
C864 N872 1.356 . S
C865 C864 1.363 . S
C865 C871 1.363 . S
C866 C867 1.363 . S
C866 C871 1.379 1_456 S
C866 N873 1.356 . S
C867 C866 1.363 . S
C867 C870 1.363 . S
N868 C870 1.356 . S
N868 H880 0.984 . S
N868 H881 0.985 . S
N869 C871 1.356 . S
N869 H874 0.984 . S
N869 H875 0.985 . S
C870 C864 1.379 1_456 S
C870 C867 1.363 . S
C870 N868 1.356 . S
C871 C865 1.363 . S
C871 C866 1.379 1_654 S
C871 N869 1.356 . S
N872 C864 1.356 . S
N872 H878 0.984 . S
N872 H879 0.984 . S
N873 C866 1.356 . S
N873 H876 0.984 . S
N873 H877 0.985 . S
H874 N869 0.984 . S
H875 N869 0.985 . S
H876 N873 0.984 . S
H877 N873 0.985 . S
H878 N872 0.984 . S
H879 N872 0.984 . S
H880 N868 0.984 . S
H881 N868 0.985 . S
C882 C883 1.363 . S
C882 C888 1.367 1_556 S
C882 N890 1.356 . S
C883 C882 1.363 . S
C883 C889 1.375 . S
C884 C885 1.363 . S
C884 C889 1.367 1_554 S
C884 N891 1.356 . S
C885 C884 1.363 . S
C885 C888 1.375 . S
N886 C888 1.361 . S
N886 H898 0.984 1_554 S
N886 H899 0.985 . S
N887 C889 1.361 . S
N887 H892 0.984 . S
N887 H893 0.985 1_556 S
C888 C882 1.367 1_554 S
C888 C885 1.375 . S
C888 N886 1.361 . S
C889 C883 1.375 . S
C889 C884 1.367 1_556 S
C889 N887 1.361 . S
N890 C882 1.356 . S
N890 H896 0.984 . S
N890 H897 0.984 . S
N891 C884 1.356 . S
N891 H894 0.984 . S
N891 H895 0.985 . S
H892 N887 0.984 . S
H893 N887 0.985 1_554 S
H894 N891 0.984 . S
H895 N891 0.985 . S
H896 N890 0.984 . S
H897 N890 0.984 . S
H898 N886 0.984 1_556 S
H899 N886 0.985 . S
C900 C901 1.363 . S
C900 C906 1.379 1_545 S
C900 N908 1.356 . S
C901 C900 1.363 . S
C901 C907 1.363 1_554 S
C902 C903 1.363 . S
C902 C907 1.379 1_565 S
C902 N909 1.356 . S
C903 C902 1.363 . S
C903 C906 1.363 1_556 S
N904 C906 1.356 . S
N904 H916 0.984 . S
N904 H917 0.985 . S
N905 C907 1.356 . S
N905 H910 0.984 . S
N905 H911 0.985 . S
C906 C900 1.379 1_565 S
C906 C903 1.363 1_554 S
C906 N904 1.356 . S
C907 C901 1.363 1_556 S
C907 C902 1.379 1_545 S
C907 N905 1.356 . S
N908 C900 1.356 . S
N908 H914 0.984 . S
N908 H915 0.984 . S
N909 C902 1.356 . S
N909 H912 0.984 . S
N909 H913 0.985 . S
H910 N905 0.984 . S
H911 N905 0.985 . S
H912 N909 0.984 . S
H913 N909 0.985 . S
H914 N908 0.984 . S
H915 N908 0.984 . S
H916 N904 0.984 . S
H917 N904 0.985 . S
C918 C919 1.363 . S
C918 C924 1.379 1_454 S
C918 N926 1.356 . S
C919 C918 1.363 . S
C919 C925 1.363 . S
C920 C921 1.363 . S
C920 C925 1.379 1_656 S
C920 N927 1.356 . S
C921 C920 1.363 . S
C921 C924 1.363 . S
N922 C924 1.356 . S
N922 H934 0.984 . S
N922 H935 0.985 . S
N923 C925 1.356 . S
N923 H928 0.984 . S
N923 H929 0.985 . S
C924 C918 1.379 1_656 S
C924 C921 1.363 . S
C924 N922 1.356 . S
C925 C919 1.363 . S
C925 C920 1.379 1_454 S
C925 N923 1.356 . S
N926 C918 1.356 . S
N926 H932 0.984 . S
N926 H933 0.984 . S
N927 C920 1.356 . S
N927 H930 0.984 . S
N927 H931 0.985 . S
H928 N923 0.984 . S
H929 N923 0.985 . S
H930 N927 0.984 . S
H931 N927 0.985 . S
H932 N926 0.984 . S
H933 N926 0.984 . S
H934 N922 0.984 . S
H935 N922 0.985 . S
C936 C937 1.363 . S
C936 C942 1.379 1_556 S
C936 N944 1.356 . S
C937 C936 1.363 . S
C937 C943 1.363 . S
C938 C939 1.363 . S
C938 C943 1.379 1_554 S
C938 N945 1.356 . S
C939 C938 1.363 . S
C939 C942 1.363 . S
N940 C942 1.356 . S
N940 H952 0.984 . S
N940 H953 0.985 . S
N941 C943 1.356 . S
N941 H946 0.984 . S
N941 H947 0.985 . S
C942 C936 1.379 1_554 S
C942 C939 1.363 . S
C942 N940 1.356 . S
C943 C937 1.363 . S
C943 C938 1.379 1_556 S
C943 N941 1.356 . S
N944 C936 1.356 . S
N944 H950 0.984 . S
N944 H951 0.984 . S
N945 C938 1.356 . S
N945 H948 0.984 . S
N945 H949 0.985 . S
H946 N941 0.984 . S
H947 N941 0.985 . S
H948 N945 0.984 . S
H949 N945 0.985 . S
H950 N944 0.984 . S
H951 N944 0.984 . S
H952 N940 0.984 . S
H953 N940 0.985 . S
C954 C955 1.363 1_554 S
C954 C960 1.379 . S
C954 N962 1.356 . S
C955 C954 1.363 1_556 S
C955 C961 1.363 1_545 S
C956 C957 1.363 1_556 S
C956 C961 1.379 . S
C956 N963 1.356 . S
C957 C956 1.363 1_554 S
C957 C960 1.363 1_565 S
N958 C960 1.356 1_565 S
N958 H970 0.984 1_565 S
N958 H971 0.985 . S
N959 C961 1.356 1_545 S
N959 H964 0.984 . S
N959 H965 0.985 1_545 S
C960 C954 1.379 . S
C960 C957 1.363 1_545 S
C960 N958 1.356 1_545 S
C961 C955 1.363 1_565 S
C961 C956 1.379 . S
C961 N959 1.356 1_565 S
N962 C954 1.356 . S
N962 H968 0.984 . S
N962 H969 0.986 1_554 S
N963 C956 1.356 . S
N963 H966 0.986 1_556 S
N963 H967 0.984 . S
H964 N959 0.984 . S
H965 N959 0.985 1_565 S
H966 N963 0.986 1_554 S
H967 N963 0.984 . S
H968 N962 0.984 . S
H969 N962 0.986 1_556 S
H970 N958 0.984 1_545 S
H971 N958 0.985 . S
C972 C973 1.363 . S
C972 C978 1.379 . S
C972 N980 1.356 . S
C973 C972 1.363 . S
C973 C979 1.363 . S
C974 C975 1.363 . S
C974 C979 1.379 . S
C974 N981 1.356 . S
C975 C974 1.363 . S
C975 C978 1.363 . S
N976 C978 1.356 . S
N976 H988 0.984 . S
N976 H989 0.985 . S
N977 C979 1.356 . S
N977 H982 0.984 . S
N977 H983 0.985 . S
C978 C972 1.379 . S
C978 C975 1.363 . S
C978 N976 1.356 . S
C979 C973 1.363 . S
C979 C974 1.379 . S
C979 N977 1.356 . S
N980 C972 1.356 . S
N980 H986 0.984 . S
N980 H987 0.984 . S
N981 C974 1.356 . S
N981 H984 0.984 . S
N981 H985 0.985 . S
H982 N977 0.984 . S
H983 N977 0.985 . S
H984 N981 0.984 . S
H985 N981 0.985 . S
H986 N980 0.984 . S
H987 N980 0.984 . S
H988 N976 0.984 . S
H989 N976 0.985 . S
C990 C991 1.363 . S
C990 C996 1.379 . S
C990 N998 1.356 . S
C991 C990 1.363 . S
C991 C997 1.363 . S
C992 C993 1.363 . S
C992 C997 1.379 . S
C992 N999 1.356 . S
C993 C992 1.363 . S
C993 C996 1.363 . S
N994 C996 1.356 . S
N994 H1006 0.984 . S
N994 H1007 0.985 . S
N995 C997 1.356 . S
N995 H1000 0.984 . S
N995 H1001 0.985 . S
C996 C990 1.379 . S
C996 C993 1.363 . S
C996 N994 1.356 . S
C997 C991 1.363 . S
C997 C992 1.379 . S
C997 N995 1.356 . S
N998 C990 1.356 . S
N998 H1004 0.984 . S
N998 H1005 0.984 . S
N999 C992 1.356 . S
N999 H1002 0.984 . S
N999 H1003 0.985 . S
H1000 N995 0.984 . S
H1001 N995 0.985 . S
H1002 N999 0.984 . S
H1003 N999 0.985 . S
H1004 N998 0.984 . S
H1005 N998 0.984 . S
H1006 N994 0.984 . S
H1007 N994 0.985 . S
C1008 C1009 1.363 . S
C1008 C1014 1.379 . S
C1008 N1016 1.356 . S
C1009 C1008 1.363 . S
C1009 C1015 1.363 . S
C1010 C1011 1.363 . S
C1010 C1015 1.379 . S
C1010 N1017 1.356 . S
C1011 C1010 1.363 . S
C1011 C1014 1.363 . S
N1012 C1014 1.356 . S
N1012 H1024 0.984 . S
N1012 H1025 0.985 . S
N1013 C1015 1.356 . S
N1013 H1018 0.984 . S
N1013 H1019 0.985 . S
C1014 C1008 1.379 . S
C1014 C1011 1.363 . S
C1014 N1012 1.356 . S
C1015 C1009 1.363 . S
C1015 C1010 1.379 . S
C1015 N1013 1.356 . S
N1016 C1008 1.356 . S
N1016 H1022 0.984 . S
N1016 H1023 0.984 . S
N1017 C1010 1.356 . S
N1017 H1020 0.984 . S
N1017 H1021 0.985 . S
H1018 N1013 0.984 . S
H1019 N1013 0.985 . S
H1020 N1017 0.984 . S
H1021 N1017 0.985 . S
H1022 N1016 0.984 . S
H1023 N1016 0.984 . S
H1024 N1012 0.984 . S
H1025 N1012 0.985 . S
C1026 C1027 1.363 . S
C1026 C1032 1.379 . S
C1026 N1034 1.356 . S
C1027 C1026 1.363 . S
C1027 C1033 1.363 . S
C1028 C1029 1.363 . S
C1028 C1033 1.379 . S
C1028 N1035 1.356 . S
C1029 C1028 1.363 . S
C1029 C1032 1.363 . S
N1030 C1032 1.356 . S
N1030 H1042 0.984 . S
N1030 H1043 0.985 . S
N1031 C1033 1.356 . S
N1031 H1036 0.984 . S
N1031 H1037 0.985 . S
C1032 C1026 1.379 . S
C1032 C1029 1.363 . S
C1032 N1030 1.356 . S
C1033 C1027 1.363 . S
C1033 C1028 1.379 . S
C1033 N1031 1.356 . S
N1034 C1026 1.356 . S
N1034 H1040 0.984 . S
N1034 H1041 0.984 . S
N1035 C1028 1.356 . S
N1035 H1038 0.984 . S
N1035 H1039 0.985 . S
H1036 N1031 0.984 . S
H1037 N1031 0.985 . S
H1038 N1035 0.984 . S
H1039 N1035 0.985 . S
H1040 N1034 0.984 . S
H1041 N1034 0.984 . S
H1042 N1030 0.984 . S
H1043 N1030 0.985 . S
C1044 C1045 1.363 . S
C1044 C1050 1.379 . S
C1044 N1052 1.356 . S
C1045 C1044 1.363 . S
C1045 C1051 1.363 . S
C1046 C1047 1.363 . S
C1046 C1051 1.379 . S
C1046 N1053 1.356 . S
C1047 C1046 1.363 . S
C1047 C1050 1.363 . S
N1048 C1050 1.356 . S
N1048 H1060 0.984 . S
N1048 H1061 0.985 . S
N1049 C1051 1.356 . S
N1049 H1054 0.984 . S
N1049 H1055 0.985 . S
C1050 C1044 1.379 . S
C1050 C1047 1.363 . S
C1050 N1048 1.356 . S
C1051 C1045 1.363 . S
C1051 C1046 1.379 . S
C1051 N1049 1.356 . S
N1052 C1044 1.356 . S
N1052 H1058 0.984 . S
N1052 H1059 0.984 . S
N1053 C1046 1.356 . S
N1053 H1056 0.984 . S
N1053 H1057 0.985 . S
H1054 N1049 0.984 . S
H1055 N1049 0.985 . S
H1056 N1053 0.984 . S
H1057 N1053 0.985 . S
H1058 N1052 0.984 . S
H1059 N1052 0.984 . S
H1060 N1048 0.984 . S
H1061 N1048 0.985 . S
C1062 C1063 1.363 . S
C1062 C1068 1.379 . S
C1062 N1070 1.356 . S
C1063 C1062 1.363 . S
C1063 C1069 1.363 . S
C1064 C1065 1.363 . S
C1064 C1069 1.379 . S
C1064 N1071 1.356 . S
C1065 C1064 1.363 . S
C1065 C1068 1.363 . S
N1066 C1068 1.356 . S
N1066 H1078 0.984 . S
N1066 H1079 0.985 . S
N1067 C1069 1.356 . S
N1067 H1072 0.984 . S
N1067 H1073 0.985 . S
C1068 C1062 1.379 . S
C1068 C1065 1.363 . S
C1068 N1066 1.356 . S
C1069 C1063 1.363 . S
C1069 C1064 1.379 . S
C1069 N1067 1.356 . S
N1070 C1062 1.356 . S
N1070 H1076 0.984 . S
N1070 H1077 0.984 . S
N1071 C1064 1.356 . S
N1071 H1074 0.984 . S
N1071 H1075 0.985 . S
H1072 N1067 0.984 . S
H1073 N1067 0.985 . S
H1074 N1071 0.984 . S
H1075 N1071 0.985 . S
H1076 N1070 0.984 . S
H1077 N1070 0.984 . S
H1078 N1066 0.984 . S
H1079 N1066 0.985 . S
C1080 C1081 1.363 . S
C1080 C1086 1.379 . S
C1080 N1088 1.356 . S
C1081 C1080 1.363 . S
C1081 C1087 1.363 . S
C1082 C1083 1.363 . S
C1082 C1087 1.379 . S
C1082 N1089 1.356 . S
C1083 C1082 1.363 . S
C1083 C1086 1.363 . S
N1084 C1086 1.356 . S
N1084 H1096 0.984 . S
N1084 H1097 0.985 . S
N1085 C1087 1.356 . S
N1085 H1090 0.984 . S
N1085 H1091 0.985 . S
C1086 C1080 1.379 . S
C1086 C1083 1.363 . S
C1086 N1084 1.356 . S
C1087 C1081 1.363 . S
C1087 C1082 1.379 . S
C1087 N1085 1.356 . S
N1088 C1080 1.356 . S
N1088 H1094 0.984 . S
N1088 H1095 0.984 . S
N1089 C1082 1.356 . S
N1089 H1092 0.984 . S
N1089 H1093 0.985 . S
H1090 N1085 0.984 . S
H1091 N1085 0.985 . S
H1092 N1089 0.984 . S
H1093 N1089 0.985 . S
H1094 N1088 0.984 . S
H1095 N1088 0.984 . S
H1096 N1084 0.984 . S
H1097 N1084 0.985 . S
C1098 C1099 1.363 . S
C1098 C1104 1.379 . S
C1098 N1106 1.356 . S
C1099 C1098 1.363 . S
C1099 C1105 1.363 . S
C1100 C1101 1.363 1_545 S
C1100 C1105 1.379 . S
C1100 N1107 1.356 . S
C1101 C1100 1.363 1_565 S
C1101 C1104 1.363 1_565 S
N1102 C1104 1.356 1_565 S
N1102 H1114 0.984 . S
N1102 H1115 0.985 . S
N1103 C1105 1.356 . S
N1103 H1108 0.984 . S
N1103 H1109 0.985 . S
C1104 C1098 1.379 . S
C1104 C1101 1.363 1_545 S
C1104 N1102 1.356 1_545 S
C1105 C1099 1.363 . S
C1105 C1100 1.379 . S
C1105 N1103 1.356 . S
N1106 C1098 1.356 . S
N1106 H1112 0.984 . S
N1106 H1113 0.984 . S
N1107 C1100 1.356 . S
N1107 H1110 0.984 1_545 S
N1107 H1111 0.985 . S
H1108 N1103 0.984 . S
H1109 N1103 0.985 . S
H1110 N1107 0.984 1_565 S
H1111 N1107 0.985 . S
H1112 N1106 0.984 . S
H1113 N1106 0.984 . S
H1114 N1102 0.984 . S
H1115 N1102 0.985 . S
C1116 C1117 1.363 . S
C1116 C1122 1.379 . S
C1116 N1124 1.356 . S
C1117 C1116 1.363 . S
C1117 C1123 1.363 . S
C1118 C1119 1.363 1_655 S
C1118 C1123 1.379 . S
C1118 N1125 1.356 1_655 S
C1119 C1118 1.363 1_455 S
C1119 C1122 1.363 1_455 S
N1120 C1122 1.356 . S
N1120 H1132 0.984 . S
N1120 H1133 0.985 1_655 S
N1121 C1123 1.356 . S
N1121 H1126 0.984 . S
N1121 H1127 0.985 . S
C1122 C1116 1.379 . S
C1122 C1119 1.363 1_655 S
C1122 N1120 1.356 . S
C1123 C1117 1.363 . S
C1123 C1118 1.379 . S
C1123 N1121 1.356 . S
N1124 C1116 1.356 . S
N1124 H1130 0.984 . S
N1124 H1131 0.984 . S
N1125 C1118 1.356 1_455 S
N1125 H1128 0.984 . S
N1125 H1129 0.985 . S
H1126 N1121 0.984 . S
H1127 N1121 0.985 . S
H1128 N1125 0.984 . S
H1129 N1125 0.985 . S
H1130 N1124 0.984 . S
H1131 N1124 0.984 . S
H1132 N1120 0.984 . S
H1133 N1120 0.985 1_455 S
C1134 C1135 1.363 . S
C1134 C1140 1.379 . S
C1134 N1142 1.356 . S
C1135 C1134 1.363 . S
C1135 C1141 1.363 . S
C1136 C1137 1.363 . S
C1136 C1141 1.379 . S
C1136 N1143 1.356 . S
C1137 C1136 1.363 . S
C1137 C1140 1.363 . S
N1138 C1140 1.356 . S
N1138 H1150 0.984 . S
N1138 H1151 0.985 . S
N1139 C1141 1.356 . S
N1139 H1144 0.984 . S
N1139 H1145 0.985 . S
C1140 C1134 1.379 . S
C1140 C1137 1.363 . S
C1140 N1138 1.356 . S
C1141 C1135 1.363 . S
C1141 C1136 1.379 . S
C1141 N1139 1.356 . S
N1142 C1134 1.356 . S
N1142 H1148 0.984 . S
N1142 H1149 0.984 . S
N1143 C1136 1.356 . S
N1143 H1146 0.984 . S
N1143 H1147 0.985 . S
H1144 N1139 0.984 . S
H1145 N1139 0.985 . S
H1146 N1143 0.984 . S
H1147 N1143 0.985 . S
H1148 N1142 0.984 . S
H1149 N1142 0.984 . S
H1150 N1138 0.984 . S
H1151 N1138 0.985 . S
C1152 C1153 1.363 1_565 S
C1152 C1158 1.379 . S
C1152 N1160 1.356 1_565 S
C1153 C1152 1.363 1_545 S
C1153 C1159 1.363 1_545 S
C1154 C1155 1.363 . S
C1154 C1159 1.379 . S
C1154 N1161 1.356 . S
C1155 C1154 1.363 . S
C1155 C1158 1.363 . S
N1156 C1158 1.356 . S
N1156 H1168 0.984 . S
N1156 H1169 0.985 . S
N1157 C1159 1.356 . S
N1157 H1162 0.984 1_565 S
N1157 H1163 0.985 . S
C1158 C1152 1.379 . S
C1158 C1155 1.363 . S
C1158 N1156 1.356 . S
C1159 C1153 1.363 1_565 S
C1159 C1154 1.379 . S
C1159 N1157 1.356 . S
N1160 C1152 1.356 1_545 S
N1160 H1166 0.984 . S
N1160 H1167 0.984 . S
N1161 C1154 1.356 . S
N1161 H1164 0.984 . S
N1161 H1165 0.985 . S
H1162 N1157 0.984 1_545 S
H1163 N1157 0.985 . S
H1164 N1161 0.984 . S
H1165 N1161 0.985 . S
H1166 N1160 0.984 . S
H1167 N1160 0.984 . S
H1168 N1156 0.984 . S
H1169 N1156 0.985 . S
C1170 C1171 1.363 . S
C1170 C1176 1.379 . S
C1170 N1178 1.356 . S
C1171 C1170 1.363 . S
C1171 C1177 1.363 . S
C1172 C1173 1.363 1_455 S
C1172 C1177 1.379 . S
C1172 N1179 1.356 1_455 S
C1173 C1172 1.363 1_655 S
C1173 C1176 1.363 1_655 S
N1174 C1176 1.363 . S
N1174 H1186 1.000 . S
N1174 H1187 0.963 1_455 S
N1175 C1177 1.356 . S
N1175 H1180 0.984 . S
N1175 H1181 0.985 . S
C1176 C1170 1.379 . S
C1176 C1173 1.363 1_455 S
C1176 N1174 1.363 . S
C1177 C1171 1.363 . S
C1177 C1172 1.379 . S
C1177 N1175 1.356 . S
N1178 C1170 1.356 . S
N1178 H1184 0.984 . S
N1178 H1185 0.984 . S
N1179 C1172 1.356 1_655 S
N1179 H1182 0.984 . S
N1179 H1183 0.985 . S
H1180 N1175 0.984 . S
H1181 N1175 0.985 . S
H1182 N1179 0.984 . S
H1183 N1179 0.985 . S
H1184 N1178 0.984 . S
H1185 N1178 0.984 . S
H1186 N1174 1.000 . S
H1187 N1174 0.963 1_655 S
C1188 C1189 1.363 . S
C1188 C1194 1.379 . S
C1188 N1196 1.356 . S
C1189 C1188 1.363 . S
C1189 C1195 1.363 . S
C1190 C1191 1.363 . S
C1190 C1195 1.379 . S
C1190 N1197 1.356 . S
C1191 C1190 1.363 . S
C1191 C1194 1.363 . S
N1192 C1194 1.356 . S
N1192 H1204 0.984 . S
N1192 H1205 0.985 . S
N1193 C1195 1.356 . S
N1193 H1198 0.984 . S
N1193 H1199 0.985 . S
C1194 C1188 1.379 . S
C1194 C1191 1.363 . S
C1194 N1192 1.356 . S
C1195 C1189 1.363 . S
C1195 C1190 1.379 . S
C1195 N1193 1.356 . S
N1196 C1188 1.356 . S
N1196 H1202 0.984 . S
N1196 H1203 0.984 . S
N1197 C1190 1.356 . S
N1197 H1200 0.984 . S
N1197 H1201 0.985 . S
H1198 N1193 0.984 . S
H1199 N1193 0.985 . S
H1200 N1197 0.984 . S
H1201 N1197 0.985 . S
H1202 N1196 0.984 . S
H1203 N1196 0.984 . S
H1204 N1192 0.984 . S
H1205 N1192 0.985 . S
C1206 C1207 1.363 . S
C1206 C1212 1.379 . S
C1206 N1214 1.356 . S
C1207 C1206 1.363 . S
C1207 C1213 1.363 . S
C1208 C1209 1.363 . S
C1208 C1213 1.379 . S
C1208 N1215 1.356 . S
C1209 C1208 1.363 . S
C1209 C1212 1.363 . S
N1210 C1212 1.356 . S
N1210 H1222 0.984 . S
N1210 H1223 0.985 . S
N1211 C1213 1.356 . S
N1211 H1216 0.984 . S
N1211 H1217 0.985 . S
C1212 C1206 1.379 . S
C1212 C1209 1.363 . S
C1212 N1210 1.356 . S
C1213 C1207 1.363 . S
C1213 C1208 1.379 . S
C1213 N1211 1.356 . S
N1214 C1206 1.356 . S
N1214 H1220 0.984 . S
N1214 H1221 0.984 . S
N1215 C1208 1.356 . S
N1215 H1218 0.984 . S
N1215 H1219 0.985 . S
H1216 N1211 0.984 . S
H1217 N1211 0.985 . S
H1218 N1215 0.984 . S
H1219 N1215 0.985 . S
H1220 N1214 0.984 . S
H1221 N1214 0.984 . S
H1222 N1210 0.984 . S
H1223 N1210 0.985 . S
C1224 C1225 1.363 . S
C1224 C1230 1.379 . S
C1224 N1232 1.356 . S
C1225 C1224 1.363 . S
C1225 C1231 1.363 . S
C1226 C1227 1.363 . S
C1226 C1231 1.379 . S
C1226 N1233 1.356 . S
C1227 C1226 1.363 . S
C1227 C1230 1.363 . S
N1228 C1230 1.356 . S
N1228 H1240 0.984 . S
N1228 H1241 0.985 . S
N1229 C1231 1.356 . S
N1229 H1234 0.984 . S
N1229 H1235 0.985 . S
C1230 C1224 1.379 . S
C1230 C1227 1.363 . S
C1230 N1228 1.356 . S
C1231 C1225 1.363 . S
C1231 C1226 1.379 . S
C1231 N1229 1.356 . S
N1232 C1224 1.356 . S
N1232 H1238 0.984 . S
N1232 H1239 0.984 . S
N1233 C1226 1.356 . S
N1233 H1236 0.984 . S
N1233 H1237 0.985 . S
H1234 N1229 0.984 . S
H1235 N1229 0.985 . S
H1236 N1233 0.984 . S
H1237 N1233 0.985 . S
H1238 N1232 0.984 . S
H1239 N1232 0.984 . S
H1240 N1228 0.984 . S
H1241 N1228 0.985 . S
C1242 C1243 1.363 . S
C1242 C1248 1.379 . S
C1242 N1250 1.356 . S
C1243 C1242 1.363 . S
C1243 C1249 1.363 . S
C1244 C1245 1.363 . S
C1244 C1249 1.379 . S
C1244 N1251 1.356 . S
C1245 C1244 1.363 . S
C1245 C1248 1.363 . S
N1246 C1248 1.356 . S
N1246 H1258 0.984 . S
N1246 H1259 0.985 . S
N1247 C1249 1.356 . S
N1247 H1252 0.984 . S
N1247 H1253 0.985 1_554 S
C1248 C1242 1.379 . S
C1248 C1245 1.363 . S
C1248 N1246 1.356 . S
C1249 C1243 1.363 . S
C1249 C1244 1.379 . S
C1249 N1247 1.356 . S
N1250 C1242 1.356 . S
N1250 H1256 0.984 . S
N1250 H1257 0.984 . S
N1251 C1244 1.356 . S
N1251 H1254 0.984 . S
N1251 H1255 0.985 1_554 S
H1252 N1247 0.984 . S
H1253 N1247 0.985 1_556 S
H1254 N1251 0.984 . S
H1255 N1251 0.985 1_556 S
H1256 N1250 0.984 . S
H1257 N1250 0.984 . S
H1258 N1246 0.984 . S
H1259 N1246 0.985 . S
C1260 C1261 1.363 . S
C1260 C1266 1.379 . S
C1260 N1268 1.356 . S
C1261 C1260 1.363 . S
C1261 C1267 1.363 . S
C1262 C1263 1.363 . S
C1262 C1267 1.379 . S
C1262 N1269 1.356 . S
C1263 C1262 1.363 . S
C1263 C1266 1.363 . S
N1264 C1266 1.356 . S
N1264 H1276 0.984 . S
N1264 H1277 0.985 . S
N1265 C1267 1.356 . S
N1265 H1270 0.984 . S
N1265 H1271 0.985 . S
C1266 C1260 1.379 . S
C1266 C1263 1.363 . S
C1266 N1264 1.356 . S
C1267 C1261 1.363 . S
C1267 C1262 1.379 . S
C1267 N1265 1.356 . S
N1268 C1260 1.356 . S
N1268 H1274 0.984 . S
N1268 H1275 0.984 . S
N1269 C1262 1.356 . S
N1269 H1272 0.984 . S
N1269 H1273 0.985 . S
H1270 N1265 0.984 . S
H1271 N1265 0.985 . S
H1272 N1269 0.984 . S
H1273 N1269 0.985 . S
H1274 N1268 0.984 . S
H1275 N1268 0.984 . S
H1276 N1264 0.984 . S
H1277 N1264 0.985 . S
C1278 C1279 1.363 . S
C1278 C1284 1.379 . S
C1278 N1286 1.356 . S
C1279 C1278 1.363 . S
C1279 C1285 1.363 . S
C1280 C1281 1.363 . S
C1280 C1285 1.379 . S
C1280 N1287 1.356 . S
C1281 C1280 1.363 . S
C1281 C1284 1.363 . S
N1282 C1284 1.356 . S
N1282 H1294 0.984 1_554 S
N1282 H1295 0.985 . S
N1283 C1285 1.356 . S
N1283 H1288 0.984 . S
N1283 H1289 0.985 . S
C1284 C1278 1.379 . S
C1284 C1281 1.363 . S
C1284 N1282 1.356 . S
C1285 C1279 1.363 . S
C1285 C1280 1.379 . S
C1285 N1283 1.356 . S
N1286 C1278 1.356 . S
N1286 H1292 0.984 1_554 S
N1286 H1293 0.984 . S
N1287 C1280 1.356 . S
N1287 H1290 0.984 . S
N1287 H1291 0.985 . S
H1288 N1283 0.984 . S
H1289 N1283 0.985 . S
H1290 N1287 0.984 . S
H1291 N1287 0.985 . S
H1292 N1286 0.984 1_556 S
H1293 N1286 0.984 . S
H1294 N1282 0.984 1_556 S
H1295 N1282 0.985 . S
C1296 C1297 1.363 . S
C1296 C1302 1.379 . S
C1296 N1304 1.356 . S
C1297 C1296 1.363 . S
C1297 C1303 1.363 . S
C1298 C1299 1.363 . S
C1298 C1303 1.379 . S
C1298 N1305 1.356 . S
C1299 C1298 1.363 . S
C1299 C1302 1.363 . S
N1300 C1302 1.356 . S
N1300 H1312 0.984 1_556 S
N1300 H1313 0.985 . S
N1301 C1303 1.356 . S
N1301 H1306 0.984 . S
N1301 H1307 0.985 . S
C1302 C1296 1.379 . S
C1302 C1299 1.363 . S
C1302 N1300 1.356 . S
C1303 C1297 1.363 . S
C1303 C1298 1.379 . S
C1303 N1301 1.356 . S
N1304 C1296 1.356 . S
N1304 H1310 0.984 1_556 S
N1304 H1311 0.984 . S
N1305 C1298 1.356 . S
N1305 H1308 0.984 . S
N1305 H1309 0.985 . S
H1306 N1301 0.984 . S
H1307 N1301 0.985 . S
H1308 N1305 0.984 . S
H1309 N1305 0.985 . S
H1310 N1304 0.984 1_554 S
H1311 N1304 0.984 . S
H1312 N1300 0.984 1_554 S
H1313 N1300 0.985 . S
C1314 C1315 1.363 . S
C1314 C1320 1.379 . S
C1314 N1322 1.356 . S
C1315 C1314 1.363 . S
C1315 C1321 1.363 . S
C1316 C1317 1.363 . S
C1316 C1321 1.379 . S
C1316 N1323 1.356 . S
C1317 C1316 1.363 . S
C1317 C1320 1.363 . S
N1318 C1320 1.356 . S
N1318 H1330 0.984 . S
N1318 H1331 0.985 . S
N1319 C1321 1.356 . S
N1319 H1324 0.984 . S
N1319 H1325 0.985 1_556 S
C1320 C1314 1.379 . S
C1320 C1317 1.363 . S
C1320 N1318 1.356 . S
C1321 C1315 1.363 . S
C1321 C1316 1.379 . S
C1321 N1319 1.356 . S
N1322 C1314 1.356 . S
N1322 H1328 0.984 . S
N1322 H1329 0.984 . S
N1323 C1316 1.356 . S
N1323 H1326 0.984 . S
N1323 H1327 0.985 . S
H1324 N1319 0.984 . S
H1325 N1319 0.985 1_554 S
H1326 N1323 0.984 . S
H1327 N1323 0.985 . S
H1328 N1322 0.984 . S
H1329 N1322 0.984 . S
H1330 N1318 0.984 . S
H1331 N1318 0.985 . S
C1332 C1333 1.363 . S
C1332 C1338 1.379 . S
C1332 N1340 1.356 . S
C1333 C1332 1.363 . S
C1333 C1339 1.363 . S
C1334 C1335 1.363 . S
C1334 C1339 1.379 . S
C1334 N1341 1.356 . S
C1335 C1334 1.363 . S
C1335 C1338 1.363 . S
N1336 C1338 1.356 . S
N1336 H1348 0.984 . S
N1336 H1349 0.985 . S
N1337 C1339 1.356 . S
N1337 H1342 0.984 . S
N1337 H1343 0.985 . S
C1338 C1332 1.379 . S
C1338 C1335 1.363 . S
C1338 N1336 1.356 . S
C1339 C1333 1.363 . S
C1339 C1334 1.379 . S
C1339 N1337 1.356 . S
N1340 C1332 1.356 . S
N1340 H1346 0.984 . S
N1340 H1347 0.984 . S
N1341 C1334 1.356 . S
N1341 H1344 0.984 . S
N1341 H1345 0.985 . S
H1342 N1337 0.984 . S
H1343 N1337 0.985 . S
H1344 N1341 0.984 . S
H1345 N1341 0.985 . S
H1346 N1340 0.984 . S
H1347 N1340 0.984 . S
H1348 N1336 0.984 . S
H1349 N1336 0.985 . S
C1350 C1351 1.363 . S
C1350 C1356 1.379 . S
C1350 N1358 1.356 . S
C1351 C1350 1.363 . S
C1351 C1357 1.363 . S
C1352 C1353 1.363 . S
C1352 C1357 1.379 . S
C1352 N1359 1.356 . S
C1353 C1352 1.363 . S
C1353 C1356 1.363 . S
N1354 C1356 1.356 . S
N1354 H1366 0.984 . S
N1354 H1367 0.985 . S
N1355 C1357 1.356 . S
N1355 H1360 0.984 . S
N1355 H1361 0.985 . S
C1356 C1350 1.379 . S
C1356 C1353 1.363 . S
C1356 N1354 1.356 . S
C1357 C1351 1.363 . S
C1357 C1352 1.379 . S
C1357 N1355 1.356 . S
N1358 C1350 1.356 . S
N1358 H1364 0.984 . S
N1358 H1365 0.984 . S
N1359 C1352 1.356 . S
N1359 H1362 0.984 . S
N1359 H1363 0.985 . S
H1360 N1355 0.984 . S
H1361 N1355 0.985 . S
H1362 N1359 0.984 . S
H1363 N1359 0.985 . S
H1364 N1358 0.984 . S
H1365 N1358 0.984 . S
H1366 N1354 0.984 . S
H1367 N1354 0.985 . S
C1368 C1369 1.363 . S
C1368 C1374 1.379 . S
C1368 N1376 1.356 . S
C1369 C1368 1.363 . S
C1369 C1375 1.363 . S
C1370 C1371 1.363 . S
C1370 C1375 1.379 . S
C1370 N1377 1.356 . S
C1371 C1370 1.363 . S
C1371 C1374 1.363 . S
N1372 C1374 1.356 . S
N1372 H1384 0.984 . S
N1372 H1385 0.985 . S
N1373 C1375 1.356 . S
N1373 H1378 0.984 . S
N1373 H1379 0.985 . S
C1374 C1368 1.379 . S
C1374 C1371 1.363 . S
C1374 N1372 1.356 . S
C1375 C1369 1.363 . S
C1375 C1370 1.379 . S
C1375 N1373 1.356 . S
N1376 C1368 1.356 . S
N1376 H1382 0.984 . S
N1376 H1383 0.984 . S
N1377 C1370 1.356 . S
N1377 H1380 0.984 . S
N1377 H1381 0.985 . S
H1378 N1373 0.984 . S
H1379 N1373 0.985 . S
H1380 N1377 0.984 . S
H1381 N1377 0.985 . S
H1382 N1376 0.984 . S
H1383 N1376 0.984 . S
H1384 N1372 0.984 . S
H1385 N1372 0.985 . S
C1386 C1387 1.363 . S
C1386 C1392 1.379 . S
C1386 N1394 1.356 . S
C1387 C1386 1.363 . S
C1387 C1393 1.363 . S
C1388 C1389 1.363 . S
C1388 C1393 1.379 . S
C1388 N1395 1.356 . S
C1389 C1388 1.363 . S
C1389 C1392 1.363 . S
N1390 C1392 1.356 . S
N1390 H1402 0.984 . S
N1390 H1403 0.985 . S
N1391 C1393 1.356 . S
N1391 H1396 0.984 . S
N1391 H1397 0.985 . S
C1392 C1386 1.379 . S
C1392 C1389 1.363 . S
C1392 N1390 1.356 . S
C1393 C1387 1.363 . S
C1393 C1388 1.379 . S
C1393 N1391 1.356 . S
N1394 C1386 1.356 . S
N1394 H1400 0.984 . S
N1394 H1401 0.984 . S
N1395 C1388 1.356 . S
N1395 H1398 0.984 . S
N1395 H1399 0.985 . S
H1396 N1391 0.984 . S
H1397 N1391 0.985 . S
H1398 N1395 0.984 . S
H1399 N1395 0.985 . S
H1400 N1394 0.984 . S
H1401 N1394 0.984 . S
H1402 N1390 0.984 . S
H1403 N1390 0.985 . S
C595 N310 1.353 . S
C597 N13 1.353 . S
C613 N343 1.353 . S
C615 N46 1.353 . S
C631 N376 1.353 . S
C633 N79 1.353 . S
C649 N112 1.353 . S
C651 N409 1.353 . S
C667 N442 1.353 . S
C669 N145 1.353 . S
C685 N475 1.353 . S
C687 N178 1.353 . S
C703 N211 1.353 . S
C705 N508 1.353 . S
C721 N541 1.353 . S
C723 N244 1.353 . S
C739 N574 1.353 . S
C741 N277 1.353 . S
C757 C579 1.890 . S
C759 C18 1.890 . S
C775 C513 1.890 . S
C777 C51 1.890 . S
C793 C84 1.890 . S
C795 C546 1.890 . S
C811 C249 1.890 . S
C813 C117 1.890 . S
C829 C282 1.890 . S
C831 C150 1.890 . S
C847 C183 1.890 . S
C849 C216 1.890 . S
C865 C315 1.890 . S
C867 C447 1.890 . S
C883 C480 1.889 . S
C885 C348 1.889 . S
C901 C381 1.890 . S
C903 C414 1.890 . S
C919 C21 1.481 . S
C921 C153 1.481 . S
C937 C186 1.481 . S
C939 C54 1.481 . S
C955 C120 1.481 . S
C957 C87 1.481 . S
C973 C351 1.481 . S
C975 C219 1.481 . S
C991 C252 1.481 . S
C993 C384 1.481 . S
C1009 C318 1.481 . S
C1011 C285 1.481 . S
C1027 C417 1.481 . S
C1029 C549 1.481 . S
C1045 C582 1.481 . S
C1047 C450 1.481 . S
C1063 C483 1.481 . S
C1065 C516 1.481 . S
C1081 C73 1.211 . S
C1083 N2 1.248 . S
C1099 C7 1.211 . S
C1101 N35 1.248 . S
C1117 C40 1.211 . S
C1119 N68 1.248 . S
C1135 C139 1.211 . S
C1137 N101 1.248 . S
C1153 N134 1.248 . S
C1155 C172 1.211 . S
C1171 C106 1.211 . S
C1173 N167 1.248 . S
C1189 C271 1.211 . S
C1191 N200 1.248 . S
C1207 C205 1.211 . S
C1209 N233 1.248 . S
C1225 N266 1.248 . S
C1227 C238 1.211 . S
C1243 N299 1.248 . S
C1245 C337 1.211 . S
C1261 C370 1.211 . S
C1263 N332 1.248 . S
C1279 C304 1.211 . S
C1281 N365 1.248 . S
C1297 N398 1.248 . S
C1299 C469 1.211 . S
C1315 C403 1.211 . S
C1317 N431 1.248 . S
C1333 C436 1.211 . S
C1335 N464 1.248 . S
C1351 C535 1.211 . S
C1353 N497 1.248 . S
C1369 C568 1.211 . S
C1371 N530 1.248 . S
C1387 C502 1.211 . S
C1389 N563 1.248 . S
