# Generated by pormake.
# Topology fnj, (5)-cn, num edge types: 1
# Building blocks:
#     Node 0, Type 0, BuildingBlock: BEQFEK_clean_sbu_0, # of connection points: 5
#     Node 1, Type 0, BuildingBlock: BEQFEK_clean_sbu_0, # of connection points: 5
#     Node 2, Type 0, BuildingBlock: BEQFEK_clean_sbu_0, # of connection points: 5
#     Node 3, Type 0, BuildingBlock: BEQFEK_clean_sbu_0, # of connection points: 5
#     Node 4, Type 0, BuildingBlock: BEQFEK_clean_sbu_0, # of connection points: 5
#     Node 5, Type 0, BuildingBlock: BEQFEK_clean_sbu_0, # of connection points: 5
#     Node 6, Type 0, BuildingBlock: BEQFEK_clean_sbu_0, # of connection points: 5
#     Node 7, Type 0, BuildingBlock: BEQFEK_clean_sbu_0, # of connection points: 5
#     Node 8, Type 0, BuildingBlock: BEQFEK_clean_sbu_0, # of connection points: 5
#     Node 9, Type 0, BuildingBlock: BEQFEK_clean_sbu_0, # of connection points: 5
#     Node 10, Type 0, BuildingBlock: BEQFEK_clean_sbu_0, # of connection points: 5
#     Node 11, Type 0, BuildingBlock: BEQFEK_clean_sbu_0, # of connection points: 5
#     Node 12, Type 0, BuildingBlock: BEQFEK_clean_sbu_0, # of connection points: 5
#     Node 13, Type 0, BuildingBlock: BEQFEK_clean_sbu_0, # of connection points: 5
#     Node 14, Type 0, BuildingBlock: BEQFEK_clean_sbu_0, # of connection points: 5
#     Node 15, Type 0, BuildingBlock: BEQFEK_clean_sbu_0, # of connection points: 5
#     Edge 16, Type (0, 0), BuildingBlock: AJUNOK_clean_linker_0, # of connection points: 2
#     Edge 17, Type (0, 0), BuildingBlock: AJUNOK_clean_linker_0, # of connection points: 2
#     Edge 18, Type (0, 0), BuildingBlock: AJUNOK_clean_linker_0, # of connection points: 2
#     Edge 19, Type (0, 0), BuildingBlock: AJUNOK_clean_linker_0, # of connection points: 2
#     Edge 20, Type (0, 0), BuildingBlock: AJUNOK_clean_linker_0, # of connection points: 2
#     Edge 21, Type (0, 0), BuildingBlock: AJUNOK_clean_linker_0, # of connection points: 2
#     Edge 22, Type (0, 0), BuildingBlock: AJUNOK_clean_linker_0, # of connection points: 2
#     Edge 23, Type (0, 0), BuildingBlock: AJUNOK_clean_linker_0, # of connection points: 2
#     Edge 24, Type (0, 0), BuildingBlock: AJUNOK_clean_linker_0, # of connection points: 2
#     Edge 25, Type (0, 0), BuildingBlock: AJUNOK_clean_linker_0, # of connection points: 2
#     Edge 26, Type (0, 0), BuildingBlock: AJUNOK_clean_linker_0, # of connection points: 2
#     Edge 27, Type (0, 0), BuildingBlock: AJUNOK_clean_linker_0, # of connection points: 2
#     Edge 28, Type (0, 0), BuildingBlock: AJUNOK_clean_linker_0, # of connection points: 2
#     Edge 29, Type (0, 0), BuildingBlock: AJUNOK_clean_linker_0, # of connection points: 2
#     Edge 30, Type (0, 0), BuildingBlock: AJUNOK_clean_linker_0, # of connection points: 2
#     Edge 31, Type (0, 0), BuildingBlock: AJUNOK_clean_linker_0, # of connection points: 2
#     Edge 32, Type (0, 0), BuildingBlock: AJUNOK_clean_linker_0, # of connection points: 2
#     Edge 33, Type (0, 0), BuildingBlock: AJUNOK_clean_linker_0, # of connection points: 2
#     Edge 34, Type (0, 0), BuildingBlock: AJUNOK_clean_linker_0, # of connection points: 2
#     Edge 35, Type (0, 0), BuildingBlock: AJUNOK_clean_linker_0, # of connection points: 2
#     Edge 36, Type (0, 0), BuildingBlock: AJUNOK_clean_linker_0, # of connection points: 2
#     Edge 37, Type (0, 0), BuildingBlock: AJUNOK_clean_linker_0, # of connection points: 2
#     Edge 38, Type (0, 0), BuildingBlock: AJUNOK_clean_linker_0, # of connection points: 2
#     Edge 39, Type (0, 0), BuildingBlock: AJUNOK_clean_linker_0, # of connection points: 2
#     Edge 40, Type (0, 0), BuildingBlock: AJUNOK_clean_linker_0, # of connection points: 2
#     Edge 41, Type (0, 0), BuildingBlock: AJUNOK_clean_linker_0, # of connection points: 2
#     Edge 42, Type (0, 0), BuildingBlock: AJUNOK_clean_linker_0, # of connection points: 2
#     Edge 43, Type (0, 0), BuildingBlock: AJUNOK_clean_linker_0, # of connection points: 2
#     Edge 44, Type (0, 0), BuildingBlock: AJUNOK_clean_linker_0, # of connection points: 2
#     Edge 45, Type (0, 0), BuildingBlock: AJUNOK_clean_linker_0, # of connection points: 2
#     Edge 46, Type (0, 0), BuildingBlock: AJUNOK_clean_linker_0, # of connection points: 2
#     Edge 47, Type (0, 0), BuildingBlock: AJUNOK_clean_linker_0, # of connection points: 2
#     Edge 48, Type (0, 0), BuildingBlock: AJUNOK_clean_linker_0, # of connection points: 2
#     Edge 49, Type (0, 0), BuildingBlock: AJUNOK_clean_linker_0, # of connection points: 2
#     Edge 50, Type (0, 0), BuildingBlock: AJUNOK_clean_linker_0, # of connection points: 2
#     Edge 51, Type (0, 0), BuildingBlock: AJUNOK_clean_linker_0, # of connection points: 2
#     Edge 52, Type (0, 0), BuildingBlock: AJUNOK_clean_linker_0, # of connection points: 2
#     Edge 53, Type (0, 0), BuildingBlock: AJUNOK_clean_linker_0, # of connection points: 2
#     Edge 54, Type (0, 0), BuildingBlock: AJUNOK_clean_linker_0, # of connection points: 2
#     Edge 55, Type (0, 0), BuildingBlock: AJUNOK_clean_linker_0, # of connection points: 2
# Relax obj value: 0.155
# Max RMSD: 0.173
# Mean RMSD: 0.173
data_MOF--net-fnj--node1-BEQFEK_clean_sbu_0--edge1-AJUNOK_clean_linker_0
_symmetry_space_group_name_H-M    P1
_symmetry_Int_Tables_number       1
_symmetry_cell_setting            triclinic
loop_
_symmetry_equiv_pos_as_xyz
'x, y, z'
_cell_length_a     55.311858
_cell_length_b     55.349376
_cell_length_c     15.039422
_cell_angle_alpha  90.015224
_cell_angle_beta   90.006915
_cell_angle_gamma 99.926222
loop_
_atom_site_label
_atom_site_type_symbol
_atom_site_fract_x
_atom_site_fract_y
_atom_site_fract_z
_atom_type_partial_charge
Co0 Co 0.3919 0.04815 0.97568 0.0
Co1 Co 0.38751 0.02634 0.16728 0.0
C2 C 0.36878 0.07324 0.11664 0.0
O3 O 0.37635 0.07372 0.03644 0.0
O4 O 0.37184 0.05593 0.16865 0.0
C5 C 0.40593 0.06799 0.78661 0.0
O6 O 0.42165 0.08773 0.80773 0.0
C7 C 0.39928 0.03539 0.35269 0.0
C8 C 0.3817 1.00119 0.41825 0.0
C9 C 0.39397 0.02479 0.43524 0.0
N10 N 0.39048 0.01894 0.28979 0.0
N11 N 0.38029 0.99838 0.32928 0.0
C12 C 0.41036 0.06152 0.33385 0.0
H13 H 0.41086 0.0653 0.26147 0.0
H14 H 0.42943 0.06533 0.35948 0.0
H15 H 0.39979 0.07397 0.36876 0.0
C16 C 0.44449 0.04327 0.00419 0.0
N17 N 0.42118 0.04231 0.03237 0.0
N18 N 0.419 0.03253 0.11245 0.0
C19 C 0.44077 0.0269 0.13748 0.0
C20 C 0.45765 0.03359 0.06987 0.0
C21 C 0.45335 0.05096 0.91292 0.0
H22 H 0.4404 0.04142 0.86284 0.0
H23 H 0.45398 0.07098 0.90595 0.0
H24 H 0.47193 0.04674 0.89998 0.0
O25 O 0.36862 0.01699 0.97219 0.0
O26 O 0.36549 0.99917 0.10443 0.0
H27 H 0.43031 0.99876 0.2348 0.0
H28 H 0.46321 0.00885 0.22543 0.0
C29 C 0.44507 0.01478 0.22365 0.0
H30 H 0.44443 0.02795 0.2787 0.0
H31 H 0.37124 0.98292 0.29573 0.0
O32 O 0.39552 0.05377 0.84657 0.0
C33 C 0.35995 0.9991 0.02208 0.0
Co34 Co 0.28094 0.15983 0.40555 0.0
Co35 Co 0.25706 0.15498 0.21592 0.0
C36 C 0.30491 0.13686 0.26182 0.0
O37 O 0.30637 0.14428 0.34236 0.0
O38 O 0.28684 0.13982 0.21338 0.0
C39 C 0.30039 0.17416 0.59736 0.0
O40 O 0.32055 0.18961 0.57896 0.0
C41 C 0.26537 0.16769 0.03022 0.0
C42 C 0.23326 0.14582 0.96417 0.0
C43 C 0.2558 0.16047 0.94728 0.0
N44 N 0.24945 0.15751 0.09293 0.0
N45 N 0.23008 0.14478 0.05299 0.0
C46 C 0.29031 0.18203 0.05004 0.0
H47 H 0.29522 0.18019 0.12087 0.0
H48 H 0.29031 0.20171 0.03624 0.0
H49 H 0.30431 0.17603 0.00631 0.0
C50 C 0.27637 0.21239 0.37474 0.0
N51 N 0.27451 0.18886 0.34811 0.0
N52 N 0.26349 0.18639 0.27017 0.0
C53 C 0.25773 0.20809 0.2454 0.0
C54 C 0.2659 0.22537 0.31039 0.0
C55 C 0.28802 0.22215 0.46002 0.0
H56 H 0.27734 0.21296 0.51669 0.0
H57 H 0.30684 0.21788 0.46313 0.0
H58 H 0.28909 0.24229 0.46572 0.0
O59 O 0.24979 0.13628 0.41105 0.0
O60 O 0.23058 0.13291 0.28119 0.0
H61 H 0.22876 0.19463 0.15359 0.0
H62 H 0.23254 0.22724 0.1757 0.0
C63 C 0.24232 0.21152 0.16608 0.0
H64 H 0.25428 0.21525 0.1068 0.0
H65 H 0.21544 0.13415 0.0863 0.0
O66 O 0.28666 0.16399 0.53544 0.0
C67 C 0.23142 0.12744 0.36339 0.0
Co68 Co 0.12552 1.00389 0.48246 0.0
Co69 Co 0.129 0.02674 0.67321 0.0
C70 C 0.14791 0.97935 0.62532 0.0
O71 O 0.14061 0.97807 0.54465 0.0
O72 O 0.14473 0.99723 0.67437 0.0
C73 C 0.1114 0.98418 0.29399 0.0
O74 O 0.09711 0.96374 0.31772 0.0
C75 C 0.11511 0.01736 0.85784 0.0
C76 C 0.13412 0.05054 0.92612 0.0
C77 C 0.12036 0.02747 0.94154 0.0
N78 N 0.12528 0.03366 0.79627 0.0
N79 N 0.1363 0.05362 0.83746 0.0
C80 C 0.10262 0.99178 0.83652 0.0
H81 H 0.10684 0.98656 0.76794 0.0
H82 H 0.08248 0.99076 0.84068 0.0
H83 H 0.10791 0.97852 0.88509 0.0
C84 C 0.07259 0.00832 0.50914 0.0
N85 N 0.09597 0.00995 0.53766 0.0
N86 N 0.09793 0.02056 0.61638 0.0
C87 C 0.0761 0.02636 0.63964 0.0
C88 C 0.05925 0.01853 0.57297 0.0
C89 C 0.06372 0.9993 0.4192 0.0
H90 H 0.07601 0.00901 0.36757 0.0
H91 H 0.06423 0.97941 0.41459 0.0
H92 H 0.04471 1.0023 0.40638 0.0
O93 O 0.14938 0.03487 0.48137 0.0
O94 O 0.15121 0.05382 0.61132 0.0
H95 H 0.08774 0.05445 0.73647 0.0
H96 H 0.05488 0.04802 0.71868 0.0
C97 C 0.07177 0.03983 0.7229 0.0
H98 H 0.06963 0.02686 0.77953 0.0
H99 H 0.14646 0.06876 0.80535 0.0
O100 O 0.12193 0.99894 0.3523 0.0
C101 C 0.15781 0.05312 0.53021 0.0
Co102 Co 0.23637 0.8923 0.91038 0.0
Co103 Co 0.25819 0.89591 0.7195 0.0
C104 C 0.21133 0.9151 0.76935 0.0
O105 O 0.21068 0.90748 0.8495 0.0
O106 O 0.22874 0.912 0.71768 0.0
C107 C 0.21682 0.87909 0.10032 0.0
O108 O 0.19613 0.86458 0.08079 0.0
C109 C 0.24934 0.8841 0.53405 0.0
C110 C 0.28443 0.89981 0.47014 0.0
C111 C 0.2605 0.88862 0.45192 0.0
N112 N 0.26577 0.89241 0.5976 0.0
N113 N 0.28686 0.90146 0.55917 0.0
C114 C 0.2229 0.87395 0.55196 0.0
H115 H 0.21097 0.88446 0.51401 0.0
H116 H 0.21872 0.87431 0.62389 0.0
H117 H 0.21873 0.8546 0.5296 0.0
C118 C 0.24074 0.83959 0.88433 0.0
N119 N 0.24204 0.86284 0.85522 0.0
N120 N 0.25181 0.86465 0.77517 0.0
C121 C 0.25717 0.84271 0.75107 0.0
C122 C 0.25026 0.8261 0.81931 0.0
C123 C 0.23276 0.83107 0.97571 0.0
H124 H 0.24311 0.84351 0.02562 0.0
H125 H 0.21296 0.83179 0.98338 0.0
H126 H 0.23576 0.81206 0.98833 0.0
O127 O 0.26734 0.91601 0.91265 0.0
O128 O 0.2855 0.91787 0.78139 0.0
H129 H 0.28557 0.85235 0.65411 0.0
H130 H 0.27463 0.81962 0.66376 0.0
C131 C 0.2692 0.83799 0.66515 0.0
H132 H 0.25617 0.83896 0.60986 0.0
H133 H 0.30249 0.90984 0.59339 0.0
O134 O 0.2311 0.88867 0.03922 0.0
C135 C 0.28534 0.92438 0.86268 0.0
Co136 Co 0.62435 1.00222 0.13914 0.0
Co137 Co 0.62852 0.02585 0.94929 0.0
C138 C 0.64741 0.97832 0.99613 0.0
O139 O 0.6398 0.97669 0.07643 0.0
O140 O 0.64436 0.99638 0.94784 0.0
C141 C 0.61003 0.98288 0.32859 0.0
O142 O 0.59544 0.96251 0.30599 0.0
C143 C 0.61477 0.01659 0.76438 0.0
C144 C 0.63387 0.04971 0.69614 0.0
C145 C 0.62002 0.02669 0.68065 0.0
N146 N 0.625 0.03285 0.82601 0.0
N147 N 0.6361 0.05278 0.78483 0.0
C148 C 0.6022 0.99103 0.78569 0.0
H149 H 0.60656 0.98574 0.85402 0.0
H150 H 0.58206 0.99013 0.78232 0.0
H151 H 0.60729 0.97776 0.73674 0.0
C152 C 0.57164 0.00708 0.11153 0.0
N153 N 0.59501 0.00849 0.08322 0.0
N154 N 0.59723 0.01939 0.00505 0.0
C155 C 0.57553 0.02552 0.98181 0.0
C156 C 0.55852 0.01769 0.04804 0.0
C157 C 0.56271 0.99817 0.20151 0.0
H158 H 0.57505 0.00784 0.25307 0.0
H159 H 0.56309 0.97826 0.20629 0.0
H160 H 0.54375 1.00133 0.21438 0.0
O161 O 0.6478 0.03329 0.14177 0.0
O162 O 0.65054 0.05291 0.01302 0.0
H163 H 0.58754 0.05406 0.8871 0.0
H164 H 0.55459 0.04747 0.90262 0.0
C165 C 0.57153 0.03936 0.89905 0.0
H166 H 0.56972 0.02666 0.84163 0.0
H167 H 0.64631 0.0679 0.81696 0.0
O168 O 0.62064 0.99728 0.2694 0.0
C169 C 0.65639 0.05185 0.09486 0.0
Co170 Co 0.73584 0.89104 0.71061 0.0
Co171 Co 0.75834 0.89594 0.90147 0.0
C172 C 0.7111 0.91457 0.85018 0.0
O173 O 0.71014 0.9065 0.77053 0.0
O174 O 0.72875 0.91187 0.90134 0.0
C175 C 0.71651 0.8767 0.5214 0.0
O176 O 0.69518 0.86363 0.54268 0.0
C177 C 0.74918 0.88265 0.0863 0.0
C178 C 0.78335 0.89976 0.15334 0.0
C179 C 0.75996 0.88681 0.16942 0.0
N180 N 0.76545 0.89256 0.02432 0.0
N181 N 0.78599 0.90248 0.06465 0.0
C182 C 0.72313 0.87139 0.06617 0.0
H183 H 0.7179 0.87584 0.99796 0.0
H184 H 0.72114 0.85115 0.0701 0.0
H185 H 0.71047 0.87752 0.11523 0.0
C186 C 0.74001 0.83855 0.74129 0.0
N187 N 0.74169 0.86203 0.76824 0.0
N188 N 0.75202 0.8644 0.84733 0.0
C189 C 0.75744 0.8426 0.8728 0.0
C190 C 0.74985 0.82543 0.80678 0.0
C191 C 0.72924 0.82898 0.6544 0.0
H192 H 0.74063 0.83812 0.59927 0.0
H193 H 0.71056 0.83345 0.64829 0.0
H194 H 0.72803 0.80883 0.64876 0.0
O195 O 0.76678 0.91468 0.70803 0.0
O196 O 0.78558 0.91782 0.83838 0.0
H197 H 0.78618 0.85532 0.96626 0.0
H198 H 0.78094 0.82254 0.94752 0.0
C199 C 0.77197 0.83891 0.95419 0.0
H200 H 0.75952 0.83624 0.01247 0.0
H201 H 0.80136 0.91205 0.03203 0.0
O202 O 0.73114 0.88658 0.58116 0.0
C203 C 0.785 0.9235 0.75628 0.0
Co204 Co 0.89166 0.04712 0.64163 0.0
Co205 Co 0.88811 0.02488 0.45094 0.0
C206 C 0.86915 0.07204 0.49917 0.0
O207 O 0.87627 0.07271 0.58 0.0
O208 O 0.87249 0.05458 0.44821 0.0
C209 C 0.90518 0.06657 0.8323 0.0
O210 O 0.92 0.08712 0.81354 0.0
C211 C 0.90076 0.03295 0.26531 0.0
C212 C 0.88191 0.99897 0.20167 0.0
C213 C 0.89485 0.02222 0.18309 0.0
N214 N 0.89142 0.017 0.32905 0.0
N215 N 0.88053 0.99654 0.29069 0.0
C216 C 0.91353 0.05862 0.28334 0.0
H217 H 0.9067 0.0717 0.23788 0.0
H218 H 0.91127 0.06381 0.3536 0.0
H219 H 0.93344 0.05988 0.27043 0.0
C220 C 0.9444 0.04241 0.61574 0.0
N221 N 0.92115 0.04116 0.58646 0.0
N222 N 0.91927 0.03092 0.50714 0.0
C223 C 0.94108 0.02505 0.48401 0.0
C224 C 0.95776 0.03226 0.55183 0.0
C225 C 0.95304 0.05096 0.70642 0.0
H226 H 0.94079 0.04076 0.75717 0.0
H227 H 0.95213 0.07073 0.71277 0.0
H228 H 0.97215 0.04823 0.71903 0.0
O229 O 0.86786 0.01614 0.64486 0.0
O230 O 0.86582 0.99801 0.51339 0.0
H231 H 0.93042 0.99637 0.38872 0.0
H232 H 0.96336 0.0055 0.40067 0.0
C233 C 0.94554 0.01207 0.39978 0.0
H234 H 0.94578 0.02486 0.34316 0.0
H235 H 0.87097 0.98148 0.32502 0.0
O236 O 0.89546 0.05255 0.77062 0.0
C237 C 0.85937 0.99821 0.59474 0.0
Co238 Co 0.77832 0.15953 0.22589 0.0
Co239 Co 0.75583 0.15255 0.41666 0.0
C240 C 0.8034 0.13523 0.36427 0.0
O241 O 0.80389 0.14352 0.28496 0.0
O242 O 0.78592 0.13759 0.41673 0.0
C243 C 0.78625 0.15066 0.04587 0.0
O244 O 0.78637 0.12856 0.07747 0.0
C245 C 0.76308 0.15984 0.60567 0.0
C246 C 0.72671 0.14583 0.66333 0.0
C247 C 0.75085 0.1551 0.68538 0.0
N248 N 0.74707 0.15363 0.53893 0.0
N249 N 0.72524 0.14547 0.57372 0.0
C250 C 0.78957 0.17069 0.59353 0.0
H251 H 0.79352 0.17608 0.52328 0.0
H252 H 0.79437 0.18699 0.63717 0.0
H253 H 0.80118 0.15726 0.61413 0.0
C254 C 0.77395 0.21117 0.26392 0.0
N255 N 0.7722 0.18755 0.28869 0.0
N256 N 0.76209 0.18463 0.36797 0.0
C257 C 0.75692 0.2063 0.3961 0.0
C258 C 0.76424 0.22386 0.33103 0.0
C259 C 0.78248 0.22063 0.17405 0.0
H260 H 0.76925 0.21191 0.12319 0.0
H261 H 0.80054 0.21539 0.1593 0.0
H262 H 0.78396 0.24083 0.16933 0.0
O263 O 0.74754 0.13559 0.21517 0.0
O264 O 0.72966 0.13106 0.34726 0.0
H265 H 0.72785 0.19631 0.4901 0.0
H266 H 0.74083 0.22875 0.4901 0.0
C267 C 0.74498 0.20994 0.48325 0.0
H268 H 0.75748 0.20678 0.53797 0.0
H269 H 0.70958 0.13881 0.53648 0.0
O270 O 0.78573 0.16815 0.10015 0.0
C271 C 0.7298 0.12601 0.26445 0.0
Co272 Co 0.8907 0.54779 0.46886 0.0
Co273 Co 0.88678 0.52305 0.65504 0.0
C274 C 0.86827 0.57134 0.6125 0.0
O275 O 0.87628 0.57365 0.53272 0.0
O276 O 0.87094 0.55275 0.6589 0.0
C277 C 0.90387 0.56541 0.27356 0.0
O278 O 0.91503 0.58814 0.285 0.0
C279 C 0.9001 0.53109 0.83986 0.0
C280 C 0.8857 0.49554 0.90236 0.0
C281 C 0.89676 0.51947 0.9222 0.0
N282 N 0.89092 0.51501 0.77625 0.0
N283 N 0.8827 0.49364 0.81373 0.0
C284 C 0.9113 0.55717 0.82043 0.0
H285 H 0.90349 0.56987 0.86475 0.0
H286 H 0.90864 0.56188 0.75005 0.0
H287 H 0.93137 0.55966 0.83209 0.0
C288 C 0.94334 0.54364 0.49485 0.0
N289 N 0.91986 0.54104 0.52278 0.0
N290 N 0.91791 0.52969 0.59985 0.0
C291 C 0.93998 0.52451 0.62319 0.0
C292 C 0.9569 0.53333 0.55772 0.0
C293 C 0.95254 0.55586 0.40984 0.0
H294 H 0.94528 0.57321 0.4026 0.0
H295 H 0.97289 0.55985 0.40784 0.0
H296 H 0.9457 0.54372 0.35326 0.0
O297 O 0.86553 0.51775 0.46585 0.0
O298 O 0.86436 0.49659 0.59104 0.0
H299 H 0.9283 0.49471 0.71322 0.0
H300 H 0.9611 0.5013 0.69448 0.0
C301 C 0.94429 0.50951 0.70262 0.0
H302 H 0.94651 0.52143 0.76237 0.0
H303 H 0.87422 0.4781 0.77931 0.0
O304 O 0.89586 0.55237 0.34003 0.0
C305 C 0.85685 0.49903 0.51192 0.0
Co306 Co 0.77972 0.65943 0.89634 0.0
Co307 Co 0.7574 0.6535 0.70494 0.0
C308 C 0.80475 0.6356 0.75629 0.0
O309 O 0.80502 0.64322 0.83648 0.0
O310 O 0.78757 0.63855 0.70327 0.0
C311 C 0.78671 0.65011 0.07686 0.0
O312 O 0.78583 0.62782 0.04544 0.0
C313 C 0.76392 0.66197 0.51596 0.0
C314 C 0.7278 0.64642 0.45949 0.0
C315 C 0.75159 0.65678 0.43663 0.0
N316 N 0.74829 0.65505 0.5832 0.0
N317 N 0.72657 0.64605 0.5491 0.0
C318 C 0.79041 0.67289 0.52711 0.0
H319 H 0.79483 0.67725 0.59788 0.0
H320 H 0.7947 0.68986 0.48663 0.0
H321 H 0.80196 0.65993 0.50166 0.0
C322 C 0.77544 0.71123 0.86177 0.0
N323 N 0.7738 0.68778 0.83509 0.0
N324 N 0.76363 0.68529 0.75584 0.0
C325 C 0.75826 0.70706 0.72975 0.0
C326 C 0.76548 0.72426 0.79622 0.0
C327 C 0.78617 0.72077 0.94887 0.0
H328 H 0.80311 0.71318 0.96243 0.0
H329 H 0.7905 0.74111 0.9492 0.0
H330 H 0.77285 0.71453 0.00275 0.0
O331 O 0.74876 0.63567 0.90596 0.0
O332 O 0.73127 0.63173 0.77312 0.0
H333 H 0.7295 0.69483 0.63621 0.0
H334 H 0.73663 0.7278 0.64908 0.0
C335 C 0.74449 0.71068 0.64651 0.0
H336 H 0.75719 0.71164 0.58902 0.0
H337 H 0.71125 0.63859 0.58679 0.0
O338 O 0.78712 0.66772 0.02241 0.0
C339 C 0.73114 0.62636 0.85563 0.0
Co340 Co 0.62411 0.50285 0.97169 0.0
Co341 Co 0.62871 0.5254 0.16257 0.0
C342 C 0.64695 0.47787 0.11212 0.0
O343 O 0.63907 0.477 0.03224 0.0
O344 O 0.64436 0.49559 0.16308 0.0
C345 C 0.61011 0.48359 0.78221 0.0
O346 O 0.59726 0.46216 0.80337 0.0
C347 C 0.61518 0.51643 0.34738 0.0
C348 C 0.63256 0.55053 0.41417 0.0
C349 C 0.61949 0.5272 0.43047 0.0
N350 N 0.62515 0.53263 0.28527 0.0
N351 N 0.63521 0.55313 0.32546 0.0
C352 C 0.60381 0.49043 0.32739 0.0
H353 H 0.60808 0.4852 0.25897 0.0
H354 H 0.58357 0.4885 0.33198 0.0
H355 H 0.61002 0.47774 0.37613 0.0
C356 C 0.57175 0.50748 1.0001 0.0
N357 N 0.59508 0.50892 0.02835 0.0
N358 N 0.5973 0.51939 0.10721 0.0
C359 C 0.57552 0.52522 0.1311 0.0
C360 C 0.55859 0.51788 0.06404 0.0
C361 C 0.56227 0.49613 0.91395 0.0
H362 H 0.56723 0.47764 0.90879 0.0
H363 H 0.54204 0.49439 0.90882 0.0
H364 H 0.57104 0.50746 0.85805 0.0
O365 O 0.64791 0.53366 0.96982 0.0
O366 O 0.6509 0.5525 0.10008 0.0
H367 H 0.5882 0.55355 0.22604 0.0
H368 H 0.55553 0.54899 0.20472 0.0
C369 C 0.57163 0.53966 0.21243 0.0
H370 H 0.56837 0.52708 0.2702 0.0
H371 H 0.64488 0.56842 0.29273 0.0
O372 O 0.61982 0.49828 0.84206 0.0
C373 C 0.65671 0.55187 0.01813 0.0
Co374 Co 0.73524 0.39175 0.40151 0.0
Co375 Co 0.75695 0.39434 0.20882 0.0
C376 C 0.70981 0.41325 0.25725 0.0
O377 O 0.70922 0.40673 0.3388 0.0
O378 O 0.72725 0.40955 0.20701 0.0
C379 C 0.71487 0.3778 0.58832 0.0
O380 O 0.69458 0.36355 0.56277 0.0
C381 C 0.74766 0.38003 0.02449 0.0
C382 C 0.7808 0.39923 0.95647 0.0
C383 C 0.75777 0.38541 0.94091 0.0
N384 N 0.76392 0.39024 0.08616 0.0
N385 N 0.78388 0.40133 0.04513 0.0
C386 C 0.7221 0.3674 0.04552 0.0
H387 H 0.71692 0.3713 0.11446 0.0
H388 H 0.72114 0.3473 0.04 0.0
H389 H 0.70879 0.37283 0.99743 0.0
C390 C 0.7402 0.33888 0.37797 0.0
N391 N 0.74134 0.36202 0.34774 0.0
N392 N 0.75145 0.36362 0.26816 0.0
C393 C 0.75733 0.34176 0.24589 0.0
C394 C 0.75014 0.32529 0.31428 0.0
C395 C 0.73199 0.33048 0.46927 0.0
H396 H 0.74153 0.34347 0.51916 0.0
H397 H 0.71196 0.33016 0.47495 0.0
H398 H 0.73587 0.31187 0.4837 0.0
O399 O 0.7663 0.41558 0.40194 0.0
O400 O 0.78356 0.41765 0.26815 0.0
H401 H 0.78488 0.35282 0.14668 0.0
H402 H 0.77818 0.32004 0.16544 0.0
C403 C 0.77019 0.33704 0.16166 0.0
H404 H 0.75685 0.33495 0.10612 0.0
H405 H 0.79896 0.41158 0.07735 0.0
O406 O 0.73001 0.38841 0.53138 0.0
C407 C 0.7837 0.42409 0.34957 0.0
Co408 Co 0.12329 0.50537 0.64856 0.0
Co409 Co 0.12986 0.52787 0.45778 0.0
C410 C 0.14701 0.48012 0.50949 0.0
O411 O 0.13902 0.47971 0.5892 0.0
O412 O 0.14452 0.49756 0.45705 0.0
C413 C 0.13198 0.49746 0.82942 0.0
O414 O 0.15418 0.49726 0.79878 0.0
C415 C 0.12141 0.5208 0.26933 0.0
C416 C 0.13709 0.55663 0.21105 0.0
C417 C 0.1266 0.53279 0.18938 0.0
N418 N 0.12852 0.53665 0.33575 0.0
N419 N 0.13763 0.55819 0.30061 0.0
C420 C 0.10995 0.49452 0.28208 0.0
H421 H 0.10476 0.49077 0.35262 0.0
H422 H 0.09344 0.49009 0.23921 0.0
H423 H 0.12297 0.48251 0.26098 0.0
C424 C 0.07165 0.50996 0.61248 0.0
N425 N 0.09518 0.51164 0.58671 0.0
N426 N 0.09794 0.522 0.50786 0.0
C427 C 0.07626 0.52751 0.4812 0.0
C428 C 0.05884 0.52016 0.54684 0.0
C429 C 0.06179 0.49874 0.69846 0.0
H430 H 0.06948 0.48184 0.71141 0.0
H431 H 0.04145 0.49423 0.69749 0.0
H432 H 0.06768 0.5118 0.75344 0.0
O433 O 0.14748 0.53606 0.65835 0.0
O434 O 0.15177 0.55382 0.526 0.0
H435 H 0.08902 0.55609 0.38759 0.0
H436 H 0.05601 0.54967 0.40091 0.0
C437 C 0.0729 0.54141 0.39805 0.0
H438 H 0.07158 0.52869 0.34054 0.0
H439 H 0.14519 0.57362 0.33755 0.0
O440 O 0.11467 0.49812 0.77443 0.0
C441 C 0.15706 0.55369 0.60855 0.0
Co442 Co 0.23491 0.39203 0.2306 0.0
Co443 Co 0.25804 0.39638 0.42105 0.0
C444 C 0.21055 0.41511 0.37198 0.0
O445 O 0.20936 0.40754 0.29165 0.0
O446 O 0.22836 0.41211 0.42186 0.0
C447 C 0.21559 0.37792 0.04078 0.0
O448 O 0.19428 0.3648 0.062 0.0
C449 C 0.24923 0.38243 0.60561 0.0
C450 C 0.28239 0.40171 0.67336 0.0
C451 C 0.25949 0.38764 0.68917 0.0
N452 N 0.26528 0.39294 0.54388 0.0
N453 N 0.28525 0.40412 0.58467 0.0
C454 C 0.22375 0.36964 0.58439 0.0
H455 H 0.21822 0.37431 0.51668 0.0
H456 H 0.22324 0.34954 0.58592 0.0
H457 H 0.21045 0.37424 0.63422 0.0
C458 C 0.2392 0.33948 0.25949 0.0
N459 N 0.24086 0.36286 0.28751 0.0
N460 N 0.25175 0.36508 0.36567 0.0
C461 C 0.25769 0.34334 0.38913 0.0
C462 C 0.2499 0.32636 0.32278 0.0
C463 C 0.22743 0.32994 0.17408 0.0
H464 H 0.20896 0.33502 0.16989 0.0
H465 H 0.22554 0.3097 0.1693 0.0
H466 H 0.23857 0.33855 0.11748 0.0
O467 O 0.26599 0.41558 0.22833 0.0
O468 O 0.2851 0.41839 0.35812 0.0
H469 H 0.28622 0.35648 0.48305 0.0
H470 H 0.28289 0.32408 0.45828 0.0
C471 C 0.27286 0.33958 0.46874 0.0
H472 H 0.26066 0.33531 0.52719 0.0
H473 H 0.30024 0.41447 0.55233 0.0
O474 O 0.23022 0.38777 0.10065 0.0
C475 C 0.28434 0.42424 0.27626 0.0
Co476 Co 0.39259 0.5467 0.15484 0.0
Co477 Co 0.38621 0.52463 0.96354 0.0
C478 C 0.36863 0.57197 0.01619 0.0
O479 O 0.3766 0.5722 0.09589 0.0
O480 O 0.37124 0.55472 0.96301 0.0
C481 C 0.38374 0.55474 0.3352 0.0
O482 O 0.36155 0.55484 0.3042 0.0
C483 C 0.3944 0.53174 0.77506 0.0
C484 C 0.37903 0.49577 0.71704 0.0
C485 C 0.38923 0.51968 0.69525 0.0
N486 N 0.38754 0.51586 0.84157 0.0
N487 N 0.37861 0.49425 0.80659 0.0
C488 C 0.40561 0.5581 0.78757 0.0
H489 H 0.41068 0.56199 0.85814 0.0
H490 H 0.42217 0.5626 0.74501 0.0
H491 H 0.39249 0.56993 0.76583 0.0
C492 C 0.44442 0.5428 0.11817 0.0
N493 N 0.42082 0.54086 0.09283 0.0
N494 N 0.41815 0.53085 0.01336 0.0
C495 C 0.43996 0.52589 0.98576 0.0
C496 C 0.4574 0.53337 0.05125 0.0
C497 C 0.45415 0.55315 0.20554 0.0
H498 H 0.446 0.56957 0.22192 0.0
H499 H 0.47446 0.55822 0.20438 0.0
H500 H 0.44876 0.53925 0.2583 0.0
O501 O 0.36864 0.51585 0.16445 0.0
O502 O 0.36454 0.49845 0.03147 0.0
H503 H 0.46054 0.50429 0.9044 0.0
H504 H 0.44421 0.52478 0.84484 0.0
C505 C 0.44338 0.51212 0.90233 0.0
H506 H 0.42752 0.49711 0.89248 0.0
H507 H 0.37127 0.47878 0.84366 0.0
O508 O 0.4011 0.55405 0.28054 0.0
C509 C 0.35922 0.4983 0.11401 0.0
Co510 Co 0.28041 0.66053 0.73945 0.0
Co511 Co 0.25629 0.65402 0.9299 0.0
C512 C 0.30434 0.63664 0.88197 0.0
O513 O 0.30546 0.64439 0.80182 0.0
O514 O 0.28645 0.6393 0.93201 0.0
C515 C 0.28636 0.64935 0.56116 0.0
O516 O 0.28455 0.62768 0.59871 0.0
C517 C 0.2616 0.66307 0.12146 0.0
C518 C 0.22831 0.63985 0.17428 0.0
C519 C 0.25035 0.65404 0.19978 0.0
N520 N 0.24693 0.65462 0.05264 0.0
N521 N 0.22681 0.64114 0.08501 0.0
C522 C 0.28692 0.67757 0.11233 0.0
H523 H 0.29295 0.67853 0.04187 0.0
H524 H 0.28698 0.69644 0.13734 0.0
H525 H 0.29996 0.66953 0.1544 0.0
C526 C 0.27574 0.71219 0.77502 0.0
N527 N 0.27386 0.68867 0.80114 0.0
N528 N 0.26284 0.68593 0.87904 0.0
C529 C 0.25708 0.7076 0.90446 0.0
C530 C 0.26524 0.72503 0.83971 0.0
C531 C 0.28492 0.72127 0.68539 0.0
H532 H 0.27248 0.71176 0.63363 0.0
H533 H 0.30339 0.71659 0.67407 0.0
H534 H 0.28573 0.74133 0.67829 0.0
O535 O 0.24951 0.63698 0.72945 0.0
O536 O 0.23042 0.63228 0.85922 0.0
H537 H 0.22851 0.69544 0.99889 0.0
H538 H 0.23597 0.7285 0.98713 0.0
C539 C 0.24355 0.71124 0.98825 0.0
H540 H 0.25637 0.71209 0.04519 0.0
H541 H 0.21287 0.63136 0.04591 0.0
O542 O 0.28805 0.66805 0.61154 0.0
C543 C 0.23126 0.62749 0.77635 0.0
C544 C 0.42181 0.06242 0.63335 0.0
C545 C 0.40208 0.05982 0.69347 0.0
C546 C 0.41911 0.05115 0.54935 0.0
C547 C 0.39657 0.03712 0.5228 0.0
H548 H 0.43969 0.07223 0.6528 0.0
H549 H 0.43499 0.05272 0.50635 0.0
S550 S 0.33858 0.02744 0.6517 0.0
N551 N 0.35881 0.0439 0.71804 0.0
N552 N 0.35374 0.02303 0.56021 0.0
C553 C 0.37652 0.03523 0.58107 0.0
C554 C 0.37926 0.04657 0.6663 0.0
C555 C 0.28182 0.18647 0.83387 0.0
C556 C 0.26844 0.16358 0.85997 0.0
C557 C 0.29331 0.18962 0.75025 0.0
C558 C 0.29158 0.17002 0.6898 0.0
H559 H 0.2828 0.20225 0.87706 0.0
H560 H 0.30269 0.20772 0.73141 0.0
S561 S 0.26135 0.10578 0.73009 0.0
N562 N 0.2561 0.12055 0.82156 0.0
N563 N 0.27721 0.12657 0.66432 0.0
C564 C 0.27896 0.1469 0.71629 0.0
C565 C 0.26746 0.14367 0.80127 0.0
C566 C 0.13565 0.00645 0.17107 0.0
C567 C 0.11348 0.9923 0.20027 0.0
C568 C 0.13759 0.01748 0.08708 0.0
C569 C 0.11739 0.01497 0.02903 0.0
H570 H 0.15158 0.00937 0.21421 0.0
H571 H 0.15507 0.02817 0.06764 0.0
S572 S 0.0547 0.98134 0.07635 0.0
N573 N 0.07071 0.9769 0.16581 0.0
N574 N 0.07411 0.99834 0.0086 0.0
C575 C 0.09507 1.00089 0.05728 0.0
C576 C 0.09318 0.98934 0.14272 0.0
C577 C 0.23216 0.86528 0.3387 0.0
C578 C 0.24855 0.8866 0.36351 0.0
C579 C 0.2208 0.86332 0.25484 0.0
C580 C 0.22573 0.88252 0.19281 0.0
H581 H 0.22868 0.84968 0.38296 0.0
H582 H 0.20895 0.84631 0.23719 0.0
S583 S 0.26592 0.9428 0.22756 0.0
N584 N 0.26805 0.92771 0.32108 0.0
N585 N 0.24707 0.92398 0.16353 0.0
C586 C 0.24167 0.9041 0.21766 0.0
C587 C 0.25308 0.90611 0.30281 0.0
C588 C 0.63677 0.01676 0.53405 0.0
C589 C 0.61677 0.01426 0.59297 0.0
C590 C 0.63458 0.00563 0.45018 0.0
C591 C 0.61235 0.99137 0.42195 0.0
H592 H 0.6543 0.02748 0.55277 0.0
H593 H 0.65039 0.00849 0.40647 0.0
S594 S 0.55391 0.98067 0.54795 0.0
N595 N 0.57352 0.99774 0.61487 0.0
N596 N 0.56966 0.97607 0.45804 0.0
C597 C 0.59222 0.98853 0.48023 0.0
C598 C 0.59435 1.00019 0.56549 0.0
C599 C 0.74024 0.90093 0.40172 0.0
C600 C 0.72518 0.87902 0.42849 0.0
C601 C 0.75132 0.90312 0.31786 0.0
C602 C 0.74792 0.88344 0.25759 0.0
H603 H 0.7437 0.91651 0.44643 0.0
H604 H 0.76262 0.92044 0.30008 0.0
S605 S 0.71224 0.8213 0.29898 0.0
N606 N 0.70832 0.83687 0.39005 0.0
N607 N 0.72991 0.84068 0.23306 0.0
C608 C 0.73317 0.86128 0.28381 0.0
C609 C 0.72156 0.85916 0.36909 0.0
C610 C 0.91873 0.05031 0.0701 0.0
C611 C 0.89715 0.03427 0.09469 0.0
C612 C 0.92088 0.06185 0.98658 0.0
C613 C 0.90163 0.05745 0.9245 0.0
H614 H 0.93435 0.05348 0.11445 0.0
H615 H 0.93806 0.07346 0.96921 0.0
S616 S 0.84074 0.01829 0.95824 0.0
N617 N 0.85572 0.01568 0.05168 0.0
N618 N 0.8599 0.03692 0.89472 0.0
C619 C 0.87982 0.04183 0.94897 0.0
C620 C 0.87758 0.03027 0.03385 0.0
C621 C 0.75632 0.17162 0.8397 0.0
C622 C 0.76185 0.15527 0.77461 0.0
C623 C 0.76566 0.17106 0.9263 0.0
C624 C 0.78039 0.15375 0.95095 0.0
H625 H 0.74444 0.18467 0.82386 0.0
H626 H 0.76033 0.18353 0.97518 0.0
S627 S 0.80071 0.10756 0.80269 0.0
N628 N 0.78356 0.12198 0.73857 0.0
N629 N 0.80079 0.12055 0.90162 0.0
C630 C 0.78647 0.1377 0.88542 0.0
C631 C 0.77726 0.13854 0.7971 0.0
C632 C 0.91759 0.56346 0.11494 0.0
C633 C 0.90196 0.55369 0.18443 0.0
C634 C 0.91665 0.5519 0.03159 0.0
C635 C 0.89947 0.53052 0.01317 0.0
H636 H 0.93107 0.57989 0.12548 0.0
H637 H 0.92989 0.55975 0.98252 0.0
S638 S 0.85555 0.49649 0.17519 0.0
N639 N 0.86982 0.52034 0.23132 0.0
N640 N 0.86744 0.49928 0.07455 0.0
C641 C 0.88417 0.52025 0.08322 0.0
C642 C 0.88543 0.53173 0.16843 0.0
C643 C 0.75856 0.67339 0.28288 0.0
C644 C 0.76262 0.65634 0.34772 0.0
C645 C 0.76782 0.67219 0.19641 0.0
C646 C 0.78102 0.65359 0.17173 0.0
H647 H 0.74784 0.68746 0.29875 0.0
H648 H 0.7636 0.68525 0.14763 0.0
S649 S 0.79749 0.60539 0.32007 0.0
N650 N 0.78157 0.62117 0.384 0.0
N651 N 0.79862 0.61853 0.22118 0.0
C652 C 0.78572 0.63687 0.23721 0.0
C653 C 0.77658 0.63834 0.32535 0.0
C654 C 0.63411 0.50741 0.6622 0.0
C655 C 0.61225 0.49233 0.68939 0.0
C656 C 0.63612 0.51853 0.57841 0.0
C657 C 0.61629 0.51517 0.51867 0.0
H658 H 0.64978 0.51085 0.70651 0.0
H659 H 0.65341 0.52983 0.56026 0.0
S660 S 0.5542 0.47952 0.56163 0.0
N661 N 0.56998 0.47554 0.65211 0.0
N662 N 0.57345 0.49721 0.4953 0.0
C663 C 0.59417 0.50042 0.54541 0.0
C664 C 0.59224 0.48876 0.63059 0.0
C665 C 0.73634 0.40169 0.71334 0.0
C666 C 0.72254 0.37955 0.68247 0.0
C667 C 0.74734 0.40331 0.79733 0.0
C668 C 0.74514 0.3828 0.85368 0.0
H669 H 0.73907 0.41785 0.67136 0.0
H670 H 0.75783 0.42077 0.81804 0.0
S671 S 0.71221 0.32015 0.80211 0.0
N672 N 0.70761 0.33652 0.7138 0.0
N673 N 0.72896 0.33936 0.87125 0.0
C674 C 0.73129 0.36053 0.82402 0.0
C675 C 0.71978 0.35896 0.73852 0.0
C676 C 0.11112 0.51787 0.94826 0.0
C677 C 0.12855 0.50319 0.92425 0.0
C678 C 0.11028 0.52714 0.03485 0.0
C679 C 0.12644 0.52157 0.10057 0.0
H680 H 0.09881 0.52324 0.89886 0.0
H681 H 0.09721 0.53904 0.05014 0.0
S682 S 0.17419 0.48266 0.07453 0.0
N683 N 0.16155 0.48269 0.975 0.0
N684 N 0.15956 0.49977 0.13807 0.0
C685 C 0.14322 0.50615 0.07879 0.0
C686 C 0.14436 0.49702 0.99048 0.0
C687 C 0.23888 0.40219 0.92012 0.0
C688 C 0.22429 0.38013 0.94784 0.0
C689 C 0.25001 0.4043 0.83631 0.0
C690 C 0.24719 0.38437 0.77706 0.0
H691 H 0.24195 0.41795 0.96408 0.0
H692 H 0.26094 0.42175 0.81785 0.0
S693 S 0.21282 0.32183 0.82142 0.0
N694 N 0.20842 0.33762 0.91144 0.0
N695 N 0.23016 0.34127 0.75473 0.0
C696 C 0.23288 0.36206 0.80429 0.0
C697 C 0.22118 0.36004 0.88945 0.0
C698 C 0.40566 0.52553 0.54109 0.0
C699 C 0.38928 0.53082 0.60643 0.0
C700 C 0.40478 0.53474 0.45449 0.0
C701 C 0.38711 0.54909 0.4301 0.0
H702 H 0.41894 0.51388 0.55668 0.0
H703 H 0.41728 0.52957 0.40538 0.0
S704 S 0.34083 0.56889 0.57942 0.0
N705 N 0.35569 0.55207 0.64329 0.0
N706 N 0.35364 0.56903 0.48012 0.0
C707 C 0.37107 0.55501 0.49597 0.0
C708 C 0.37224 0.54594 0.58433 0.0
C709 C 0.26707 0.67456 0.34111 0.0
C710 C 0.26194 0.6534 0.28817 0.0
C711 C 0.27623 0.67346 0.42809 0.0
C712 C 0.28082 0.65118 0.46457 0.0
H713 H 0.26316 0.69185 0.31629 0.0
H714 H 0.27885 0.69 0.46796 0.0
S715 S 0.27347 0.59136 0.34619 0.0
N716 N 0.26405 0.6102 0.274 0.0
N717 N 0.28178 0.60801 0.43571 0.0
C718 C 0.27712 0.63025 0.4094 0.0
C719 C 0.2675 0.63138 0.32172 0.0
C720 C 0.35326 0.0958 0.24331 0.0
C721 C 0.35498 0.09213 0.15078 0.0
C722 C 0.33804 0.11126 0.27877 0.0
C723 C 0.32354 0.12336 0.22322 0.0
H724 H 0.36334 0.08618 0.28917 0.0
H725 H 0.33685 0.11285 0.35036 0.0
S726 S 0.32241 0.12121 0.97579 0.0
N727 N 0.3419 0.10308 0.00419 0.0
N728 N 0.31302 0.13168 0.07014 0.0
C729 C 0.32579 0.12056 0.1303 0.0
C730 C 0.34157 0.10511 0.09427 0.0
C731 C 0.18027 0.07301 0.39705 0.0
C732 C 0.17551 0.07347 0.48938 0.0
C733 C 0.19764 0.09101 0.35607 0.0
C734 C 0.21124 0.11011 0.40573 0.0
H735 H 0.17071 0.0584 0.35562 0.0
H736 H 0.20101 0.08945 0.2855 0.0
S737 S 0.20418 0.12159 0.6471 0.0
N738 N 0.18466 0.09604 0.62756 0.0
N739 N 0.21749 0.12971 0.55085 0.0
C740 C 0.20614 0.11139 0.4974 0.0
C741 C 0.18825 0.09316 0.53908 0.0
C742 C 0.18914 0.9311 0.64262 0.0
C743 C 0.19258 0.92905 0.73515 0.0
C744 C 0.17373 0.94643 0.60748 0.0
C745 C 0.16145 0.96069 0.66339 0.0
H746 H 0.19888 0.9212 0.59656 0.0
H747 H 0.17229 0.94786 0.53591 0.0
S748 S 0.16299 0.96091 0.91086 0.0
N749 N 0.18121 0.94155 0.88202 0.0
N750 N 0.15277 0.97065 0.81668 0.0
C751 C 0.16406 0.95812 0.75623 0.0
C752 C 0.17944 0.94223 0.79191 0.0
C753 C 0.32386 0.96497 0.03331 0.0
C754 C 0.34269 0.97845 0.98204 0.0
C755 C 0.3058 0.94729 0.99406 0.0
C756 C 0.30589 0.94214 0.90196 0.0
H757 H 0.32254 0.9687 0.10371 0.0
H758 H 0.2914 0.93786 0.03652 0.0
S759 S 0.35329 0.97023 0.74062 0.0
N760 N 0.36174 0.98402 0.83577 0.0
N761 N 0.32789 0.9507 0.76236 0.0
C762 C 0.32535 0.9547 0.85076 0.0
C763 C 0.34367 0.97285 0.89066 0.0
C764 C 0.68876 0.93018 0.97733 0.0
C765 C 0.69229 0.92841 0.88473 0.0
C766 C 0.6733 0.94539 0.01295 0.0
C767 C 0.66106 0.9598 0.9575 0.0
H768 H 0.69845 0.92011 0.02305 0.0
H769 H 0.67177 0.94661 0.08455 0.0
S770 S 0.66283 0.96069 0.71004 0.0
N771 N 0.68106 0.94129 0.73828 0.0
N772 N 0.65251 0.97017 0.80449 0.0
C773 C 0.66376 0.9575 0.86457 0.0
C774 C 0.6792 0.94172 0.82839 0.0
C775 C 0.82089 0.95804 0.76654 0.0
C776 C 0.80529 0.94094 0.71445 0.0
C777 C 0.83856 0.97609 0.72704 0.0
C778 C 0.84155 0.9777 0.63378 0.0
H779 H 0.81898 0.95799 0.83824 0.0
H780 H 0.84977 0.98911 0.77035 0.0
S781 S 0.80668 0.93588 0.46773 0.0
N782 N 0.79503 0.92575 0.5645 0.0
N783 N 0.8282 0.95962 0.49091 0.0
C784 C 0.82671 0.96011 0.5811 0.0
C785 C 0.80861 0.9418 0.62122 0.0
C786 C 0.84083 0.10235 0.52188 0.0
C787 C 0.85508 0.09061 0.46417 0.0
C788 C 0.82475 0.11723 0.48885 0.0
C789 C 0.82258 0.1215 0.39685 0.0
H790 H 0.8412 0.09911 0.59288 0.0
H791 H 0.81344 0.12491 0.53609 0.0
S792 S 0.85738 0.09656 0.2179 0.0
N793 N 0.86687 0.08522 0.31052 0.0
N794 N 0.83723 0.11369 0.24898 0.0
C795 C 0.83762 0.11082 0.33871 0.0
C796 C 0.85367 0.09527 0.37222 0.0
C797 C 0.70846 0.10568 0.12958 0.0
C798 C 0.70955 0.1083 0.22309 0.0
C799 C 0.69073 0.08804 0.08815 0.0
C800 C 0.67349 0.0721 0.13845 0.0
H801 H 0.72167 0.11711 0.08759 0.0
H802 H 0.69107 0.0864 0.01639 0.0
S803 S 0.66696 0.07252 0.38478 0.0
N804 N 0.69069 0.09427 0.36412 0.0
N805 N 0.65749 0.06118 0.28686 0.0
C806 C 0.67379 0.07506 0.23183 0.0
C807 C 0.69175 0.09312 0.27393 0.0
C808 C 0.82919 0.62142 0.63228 0.0
C809 C 0.82359 0.62154 0.72373 0.0
C810 C 0.84452 0.60601 0.59731 0.0
C811 C 0.85452 0.58966 0.65213 0.0
H812 H 0.82124 0.633 0.5868 0.0
H813 H 0.84772 0.60626 0.52623 0.0
S814 S 0.84614 0.58334 0.89725 0.0
N815 N 0.83008 0.60467 0.86903 0.0
N816 N 0.85828 0.57526 0.80396 0.0
C817 C 0.84957 0.59009 0.74435 0.0
C818 C 0.83432 0.60614 0.77998 0.0
C819 C 0.70927 0.60547 0.98849 0.0
C820 C 0.7107 0.60855 0.89523 0.0
C821 C 0.69129 0.58775 0.02818 0.0
C822 C 0.67412 0.57218 0.9763 0.0
H823 H 0.7224 0.61662 0.03163 0.0
H824 H 0.69136 0.58577 0.09984 0.0
S825 S 0.66848 0.57382 0.72983 0.0
N826 N 0.69226 0.59531 0.75267 0.0
N827 N 0.65858 0.56207 0.8267 0.0
C828 C 0.67478 0.57558 0.88314 0.0
C829 C 0.69299 0.59373 0.84281 0.0
C830 C 0.66285 0.45589 0.23978 0.0
C831 C 0.66042 0.45881 0.14709 0.0
C832 C 0.67776 0.44011 0.27527 0.0
C833 C 0.69115 0.42687 0.21952 0.0
H834 H 0.65359 0.46634 0.28563 0.0
H835 H 0.67963 0.43917 0.34682 0.0
S836 S 0.68981 0.42656 0.97201 0.0
N837 N 0.67147 0.44583 1.0005 0.0
N838 N 0.69969 0.4166 0.06641 0.0
C839 C 0.68806 0.42887 0.12667 0.0
C840 C 0.67265 0.44468 0.09068 0.0
C841 C 0.81783 0.43714 0.45698 0.0
C842 C 0.80353 0.44279 0.38502 0.0
C843 C 0.83496 0.45538 0.49852 0.0
C844 C 0.83806 0.47996 0.47025 0.0
H845 H 0.81563 0.41849 0.48158 0.0
H846 H 0.84588 0.45017 0.55274 0.0
S847 S 0.80185 0.50455 0.29386 0.0
N848 N 0.79183 0.47467 0.29247 0.0
N849 N 0.82334 0.50917 0.37128 0.0
C850 C 0.82318 0.48584 0.3999 0.0
C851 C 0.80608 0.46721 0.35708 0.0
C852 C 0.16406 0.45818 0.38439 0.0
C853 C 0.16075 0.46099 0.47667 0.0
C854 C 0.17913 0.44234 0.35078 0.0
C855 C 0.19195 0.42899 0.4081 0.0
H856 H 0.15545 0.46879 0.33734 0.0
H857 H 0.18159 0.44145 0.27946 0.0
S858 S 0.18863 0.4285 0.65514 0.0
N859 N 0.17058 0.44786 0.62461 0.0
N860 N 0.19927 0.41858 0.56196 0.0
C861 C 0.18819 0.43097 0.50049 0.0
C862 C 0.17251 0.4468 0.53463 0.0
C863 C 0.32055 0.45845 0.28628 0.0
C864 C 0.30469 0.44156 0.23428 0.0
C865 C 0.33838 0.47634 0.2467 0.0
C866 C 0.34129 0.47794 0.15342 0.0
H867 H 0.31872 0.45837 0.35801 0.0
H868 H 0.34975 0.48924 0.28994 0.0
S869 S 0.30574 0.43652 0.98757 0.0
N870 N 0.29408 0.42651 0.08445 0.0
N871 N 0.32754 0.46 0.0106 0.0
C872 C 0.32616 0.46052 0.10082 0.0
C873 C 0.30789 0.44241 0.14105 0.0
C874 C 0.33657 0.61033 0.85957 0.0
C875 C 0.32309 0.62284 0.91756 0.0
C876 C 0.35185 0.59457 0.89232 0.0
C877 C 0.35469 0.59102 0.98442 0.0
H878 H 0.3345 0.61182 0.78824 0.0
H879 H 0.36102 0.58462 0.84473 0.0
S880 S 0.32486 0.62094 0.16475 0.0
N881 N 0.31455 0.6315 0.0721 0.0
N882 N 0.34362 0.6024 0.1331 0.0
C883 C 0.34224 0.60433 0.04318 0.0
C884 C 0.32636 0.62006 0.00991 0.0
C885 C 0.1772 0.57561 0.74242 0.0
C886 C 0.17497 0.5739 0.64897 0.0
C887 C 0.19486 0.59342 0.78323 0.0
C888 C 0.21122 0.61016 0.73241 0.0
H889 H 0.16538 0.56288 0.78491 0.0
H890 H 0.19609 0.59359 0.85513 0.0
S891 S 0.21222 0.61462 0.48534 0.0
N892 N 0.19004 0.59137 0.50698 0.0
N893 N 0.22314 0.62478 0.58305 0.0
C894 C 0.20875 0.60914 0.63884 0.0
C895 C 0.19067 0.59107 0.59734 0.0
C896 C 0.5027 0.04907 0.05893 0.0
C897 C 0.48322 0.02917 0.06472 0.0
C898 C 0.5271 0.04526 0.05389 0.0
C899 C 0.5327 0.02142 0.05336 0.0
H900 H 0.49903 0.06767 0.05903 0.0
H901 H 0.54169 0.06104 0.05084 0.0
S902 S 0.48817 0.96326 0.06323 0.0
N903 N 0.47098 0.98488 0.06711 0.0
N904 N 0.51687 0.97772 0.05727 0.0
C905 C 0.51336 1.00141 0.05854 0.0
C906 C 0.48858 0.00528 0.06402 0.0
C907 C 0.24604 0.28429 0.38755 0.0
C908 C 0.25409 0.30068 0.31802 0.0
C909 C 0.25003 0.25994 0.38499 0.0
C910 C 0.26234 0.25127 0.31307 0.0
H911 H 0.2364 0.2903 0.44388 0.0
H912 H 0.24323 0.24774 0.43915 0.0
S913 S 0.28867 0.28737 0.11793 0.0
N914 N 0.27607 0.30694 0.17775 0.0
N915 N 0.28344 0.26113 0.17276 0.0
C916 C 0.27075 0.26755 0.2438 0.0
C917 C 0.2667 0.2923 0.24639 0.0
C918 C 0.0272 0.04533 0.56643 0.0
C919 C 0.03329 0.0217 0.56819 0.0
C920 C 1.00264 0.04861 0.56172 0.0
C921 C 0.98348 0.02836 0.55791 0.0
H922 H 0.04155 0.06135 0.56814 0.0
H923 H 0.99859 0.06707 0.56021 0.0
S924 S 0.98977 0.96282 0.56412 0.0
N925 N 0.0183 0.97783 0.56786 0.0
N926 N 0.97208 0.98398 0.55947 0.0
C927 C 0.98932 1.00468 0.56037 0.0
C928 C 0.01428 1.00135 0.56512 0.0
C929 C 0.23798 0.75671 0.83568 0.0
C930 C 0.26176 0.75091 0.83633 0.0
C931 C 0.23438 0.78116 0.83081 0.0
C932 C 0.25444 0.80049 0.82549 0.0
H933 H 0.22209 0.74222 0.8381 0.0
H934 H 0.21582 0.78498 0.83018 0.0
S935 S 0.32024 0.79503 0.82879 0.0
N936 N 0.30556 0.76642 0.83419 0.0
N937 N 0.29879 0.8124 0.8244 0.0
C938 C 0.27825 0.79495 0.82691 0.0
C939 C 0.28191 0.77011 0.83228 0.0
C940 C 0.77013 0.76648 0.73176 0.0
C941 C 0.76122 0.74994 0.79991 0.0
C942 C 0.76628 0.79089 0.73404 0.0
C943 C 0.7533 0.79949 0.80436 0.0
H944 H 0.78034 0.76054 0.67681 0.0
H945 H 0.77372 0.80319 0.68097 0.0
S946 S 0.72476 0.76307 0.99546 0.0
N947 N 0.7378 0.74353 0.93714 0.0
N948 N 0.73074 0.78943 0.94162 0.0
C949 C 0.74407 0.78307 0.87223 0.0
C950 C 0.74796 0.75826 0.86991 0.0
C951 C 0.78049 0.26882 0.32304 0.0
C952 C 0.76031 0.24961 0.329 0.0
C953 C 0.77711 0.29335 0.31897 0.0
C954 C 0.75344 0.29938 0.32019 0.0
H955 H 0.79898 0.26482 0.32159 0.0
H956 H 0.79308 0.30769 0.31488 0.0
S957 S 0.69468 0.25581 0.33304 0.0
N958 N 0.71592 0.23818 0.33448 0.0
N959 N 0.7096 0.28432 0.32722 0.0
C960 C 0.73316 0.28036 0.32655 0.0
C961 C 0.73659 0.25543 0.33067 0.0
C962 C 0.99227 0.51911 0.4821 0.0
C963 C 0.98313 0.53098 0.55421 0.0
C964 C 0.01687 0.5158 0.47983 0.0
C965 C 0.03307 0.52426 0.54957 0.0
H966 H 0.9802 0.51197 0.42794 0.0
H967 H 0.02318 0.50624 0.42385 0.0
S968 S 0.01861 0.55852 0.74898 0.0
N969 N 0.9924 0.55243 0.69413 0.0
N970 N 0.03868 0.54654 0.68939 0.0
C971 C 0.02427 0.5367 0.6208 0.0
C972 C 0.99926 0.53997 0.62325 0.0
C973 C 0.4919 0.51715 0.1246 0.0
C974 C 0.4833 0.52979 0.05336 0.0
C975 C 0.51632 0.51338 0.12758 0.0
C976 C 0.53289 0.52204 0.05928 0.0
H977 H 0.47959 0.50992 0.17791 0.0
H978 H 0.52225 0.50342 0.18324 0.0
S979 S 0.51992 0.55779 0.86182 0.0
N980 N 0.49347 0.55195 0.91534 0.0
N981 N 0.53944 0.54497 0.9211 0.0
C982 C 0.52462 0.53502 0.98845 0.0
C983 C 0.49978 0.53884 0.9854 0.0
loop_
_geom_bond_atom_site_label_1
_geom_bond_atom_site_label_2
_geom_bond_distance
_geom_bond_site_symmetry_2
_ccdc_geom_bond_type
Co0 O3 1.970 1_556 S
Co0 N17 1.989 1_556 S
Co0 O25 1.967 . S
Co0 O32 1.920 . S
Co1 O4 1.966 . S
Co1 N10 2.022 . S
Co1 N18 1.993 . S
Co1 O26 1.941 1_545 S
C2 O3 1.258 . S
C2 O4 1.263 . S
O3 Co0 1.970 1_554 S
O3 C2 1.258 . S
O4 Co1 1.966 . S
O4 C2 1.263 . S
C5 O6 1.235 . S
C5 O32 1.289 . S
O6 C5 1.235 . S
C7 C9 1.400 . S
C7 N10 1.351 . S
C7 C12 1.501 . S
C8 C9 1.387 . S
C8 N11 1.341 1_545 S
C9 C7 1.400 . S
C9 C8 1.387 . S
N10 Co1 2.022 . S
N10 C7 1.351 . S
N10 N11 1.365 1_545 S
N11 C8 1.341 1_565 S
N11 N10 1.365 1_565 S
N11 H31 0.862 . S
C12 C7 1.501 . S
C12 H13 0.961 . S
C12 H14 0.961 . S
C12 H15 0.960 . S
H13 C12 0.961 . S
H14 C12 0.961 . S
H15 C12 0.960 . S
C16 N17 1.342 1_556 S
C16 C20 1.401 1_556 S
C16 C21 1.499 . S
N17 Co0 1.989 1_554 S
N17 C16 1.342 1_554 S
N17 N18 1.388 . S
N18 Co1 1.993 . S
N18 N17 1.388 . S
N18 C19 1.346 . S
C19 N18 1.346 . S
C19 C20 1.396 . S
C19 C29 1.510 . S
C20 C16 1.401 1_554 S
C20 C19 1.396 . S
C21 C16 1.499 . S
C21 H22 0.959 . S
C21 H23 0.960 . S
C21 H24 0.961 . S
H22 C21 0.959 . S
H23 C21 0.960 . S
H24 C21 0.961 . S
O25 Co0 1.967 . S
O25 C33 1.258 1_546 S
O26 Co1 1.941 1_565 S
O26 C33 1.266 . S
H27 C29 0.959 . S
H28 C29 0.961 . S
C29 C19 1.510 . S
C29 H27 0.959 . S
C29 H28 0.961 . S
C29 H30 0.960 . S
H30 C29 0.960 . S
H31 N11 0.862 . S
O32 Co0 1.920 . S
O32 C5 1.289 . S
C33 O25 1.258 1_564 S
C33 O26 1.266 . S
Co34 O37 1.970 . S
Co34 N51 1.989 . S
Co34 O59 1.967 . S
Co34 O66 1.920 . S
Co35 O38 1.966 . S
Co35 N44 2.022 . S
Co35 N52 1.993 . S
Co35 O60 1.941 . S
C36 O37 1.258 . S
C36 O38 1.263 . S
O37 Co34 1.970 . S
O37 C36 1.258 . S
O38 Co35 1.966 . S
O38 C36 1.263 . S
C39 O40 1.235 . S
C39 O66 1.289 . S
O40 C39 1.235 . S
C41 C43 1.400 1_554 S
C41 N44 1.351 . S
C41 C46 1.501 . S
C42 C43 1.387 . S
C42 N45 1.341 1_556 S
C43 C41 1.400 1_556 S
C43 C42 1.387 . S
N44 Co35 2.022 . S
N44 C41 1.351 . S
N44 N45 1.365 . S
N45 C42 1.341 1_554 S
N45 N44 1.365 . S
N45 H65 0.862 . S
C46 C41 1.501 . S
C46 H47 0.961 . S
C46 H48 0.961 . S
C46 H49 0.960 1_554 S
H47 C46 0.961 . S
H48 C46 0.961 . S
H49 C46 0.960 1_556 S
C50 N51 1.342 . S
C50 C54 1.401 . S
C50 C55 1.499 . S
N51 Co34 1.989 . S
N51 C50 1.342 . S
N51 N52 1.388 . S
N52 Co35 1.993 . S
N52 N51 1.388 . S
N52 C53 1.346 . S
C53 N52 1.346 . S
C53 C54 1.396 . S
C53 C63 1.510 . S
C54 C50 1.401 . S
C54 C53 1.396 . S
C55 C50 1.499 . S
C55 H56 0.959 . S
C55 H57 0.960 . S
C55 H58 0.961 . S
H56 C55 0.959 . S
H57 C55 0.960 . S
H58 C55 0.961 . S
O59 Co34 1.967 . S
O59 C67 1.258 . S
O60 Co35 1.941 . S
O60 C67 1.266 . S
H61 C63 0.959 . S
H62 C63 0.961 . S
C63 C53 1.510 . S
C63 H61 0.959 . S
C63 H62 0.961 . S
C63 H64 0.960 . S
H64 C63 0.960 . S
H65 N45 0.862 . S
O66 Co34 1.920 . S
O66 C39 1.289 . S
C67 O59 1.258 . S
C67 O60 1.266 . S
Co68 O71 1.970 1_545 S
Co68 N85 1.989 . S
Co68 O93 1.967 . S
Co68 O100 1.920 . S
Co69 O72 1.966 1_545 S
Co69 N78 2.022 . S
Co69 N86 1.993 . S
Co69 O94 1.941 . S
C70 O71 1.258 . S
C70 O72 1.263 . S
O71 Co68 1.970 1_565 S
O71 C70 1.258 . S
O72 Co69 1.966 1_565 S
O72 C70 1.263 . S
C73 O74 1.235 . S
C73 O100 1.289 1_565 S
O74 C73 1.235 . S
C75 C77 1.400 . S
C75 N78 1.351 . S
C75 C80 1.501 1_545 S
C76 C77 1.387 . S
C76 N79 1.341 . S
C77 C75 1.400 . S
C77 C76 1.387 . S
N78 Co69 2.022 . S
N78 C75 1.351 . S
N78 N79 1.365 . S
N79 C76 1.341 . S
N79 N78 1.365 . S
N79 H99 0.862 . S
C80 C75 1.501 1_565 S
C80 H81 0.961 . S
C80 H82 0.961 . S
C80 H83 0.960 . S
H81 C80 0.961 . S
H82 C80 0.961 . S
H83 C80 0.960 . S
C84 N85 1.342 . S
C84 C88 1.401 . S
C84 C89 1.499 . S
N85 Co68 1.989 . S
N85 C84 1.342 . S
N85 N86 1.388 . S
N86 Co69 1.993 . S
N86 N85 1.388 . S
N86 C87 1.346 . S
C87 N86 1.346 . S
C87 C88 1.396 . S
C87 C97 1.510 . S
C88 C84 1.401 . S
C88 C87 1.396 . S
C89 C84 1.499 . S
C89 H90 0.959 . S
C89 H91 0.960 1_545 S
C89 H92 0.961 . S
H90 C89 0.959 . S
H91 C89 0.960 1_565 S
H92 C89 0.961 . S
O93 Co68 1.967 . S
O93 C101 1.258 . S
O94 Co69 1.941 . S
O94 C101 1.266 . S
H95 C97 0.959 . S
H96 C97 0.961 . S
C97 C87 1.510 . S
C97 H95 0.959 . S
C97 H96 0.961 . S
C97 H98 0.960 . S
H98 C97 0.960 . S
H99 N79 0.862 . S
O100 Co68 1.920 . S
O100 C73 1.289 1_545 S
C101 O93 1.258 . S
C101 O94 1.266 . S
Co102 O105 1.970 . S
Co102 N119 1.989 . S
Co102 O127 1.967 . S
Co102 O134 1.920 1_556 S
Co103 O106 1.966 . S
Co103 N112 2.022 . S
Co103 N120 1.993 . S
Co103 O128 1.941 . S
C104 O105 1.258 . S
C104 O106 1.263 . S
O105 Co102 1.970 . S
O105 C104 1.258 . S
O106 Co103 1.966 . S
O106 C104 1.263 . S
C107 O108 1.235 . S
C107 O134 1.289 . S
O108 C107 1.235 . S
C109 C111 1.400 . S
C109 N112 1.351 . S
C109 C114 1.501 . S
C110 C111 1.387 . S
C110 N113 1.341 . S
C111 C109 1.400 . S
C111 C110 1.387 . S
N112 Co103 2.022 . S
N112 C109 1.351 . S
N112 N113 1.365 . S
N113 C110 1.341 . S
N113 N112 1.365 . S
N113 H133 0.862 . S
C114 C109 1.501 . S
C114 H115 0.961 . S
C114 H116 0.961 . S
C114 H117 0.960 . S
H115 C114 0.961 . S
H116 C114 0.961 . S
H117 C114 0.960 . S
C118 N119 1.342 . S
C118 C122 1.401 . S
C118 C123 1.499 . S
N119 Co102 1.989 . S
N119 C118 1.342 . S
N119 N120 1.388 . S
N120 Co103 1.993 . S
N120 N119 1.388 . S
N120 C121 1.346 . S
C121 N120 1.346 . S
C121 C122 1.396 . S
C121 C131 1.510 . S
C122 C118 1.401 . S
C122 C121 1.396 . S
C123 C118 1.499 . S
C123 H124 0.959 1_556 S
C123 H125 0.960 . S
C123 H126 0.961 . S
H124 C123 0.959 1_554 S
H125 C123 0.960 . S
H126 C123 0.961 . S
O127 Co102 1.967 . S
O127 C135 1.258 . S
O128 Co103 1.941 . S
O128 C135 1.266 . S
H129 C131 0.959 . S
H130 C131 0.961 . S
C131 C121 1.510 . S
C131 H129 0.959 . S
C131 H130 0.961 . S
C131 H132 0.960 . S
H132 C131 0.960 . S
H133 N113 0.862 . S
O134 Co102 1.920 1_554 S
O134 C107 1.289 . S
C135 O127 1.258 . S
C135 O128 1.266 . S
Co136 O139 1.970 1_545 S
Co136 N153 1.989 . S
Co136 O161 1.967 . S
Co136 O168 1.920 . S
Co137 O140 1.966 1_545 S
Co137 N146 2.022 . S
Co137 N154 1.993 1_556 S
Co137 O162 1.941 . S
C138 O139 1.258 . S
C138 O140 1.263 1_554 S
O139 Co136 1.970 1_565 S
O139 C138 1.258 . S
O140 Co137 1.966 1_565 S
O140 C138 1.263 1_556 S
C141 O142 1.235 . S
C141 O168 1.289 1_565 S
O142 C141 1.235 . S
C143 C145 1.400 . S
C143 N146 1.351 . S
C143 C148 1.501 1_545 S
C144 C145 1.387 . S
C144 N147 1.341 . S
C145 C143 1.400 . S
C145 C144 1.387 . S
N146 Co137 2.022 . S
N146 C143 1.351 . S
N146 N147 1.365 . S
N147 C144 1.341 . S
N147 N146 1.365 . S
N147 H167 0.862 . S
C148 C143 1.501 1_565 S
C148 H149 0.961 . S
C148 H150 0.961 . S
C148 H151 0.960 . S
H149 C148 0.961 . S
H150 C148 0.961 . S
H151 C148 0.960 . S
C152 N153 1.342 . S
C152 C156 1.401 . S
C152 C157 1.499 . S
N153 Co136 1.989 . S
N153 C152 1.342 . S
N153 N154 1.388 . S
N154 Co137 1.993 1_554 S
N154 N153 1.388 . S
N154 C155 1.346 1_554 S
C155 N154 1.346 1_556 S
C155 C156 1.396 1_556 S
C155 C165 1.510 . S
C156 C152 1.401 . S
C156 C155 1.396 1_554 S
C157 C152 1.499 . S
C157 H158 0.959 . S
C157 H159 0.960 1_545 S
C157 H160 0.961 . S
H158 C157 0.959 . S
H159 C157 0.960 1_565 S
H160 C157 0.961 . S
O161 Co136 1.967 . S
O161 C169 1.258 . S
O162 Co137 1.941 . S
O162 C169 1.266 1_556 S
H163 C165 0.959 . S
H164 C165 0.961 . S
C165 C155 1.510 . S
C165 H163 0.959 . S
C165 H164 0.961 . S
C165 H166 0.960 . S
H166 C165 0.960 . S
H167 N147 0.862 . S
O168 Co136 1.920 . S
O168 C141 1.289 1_545 S
C169 O161 1.258 . S
C169 O162 1.266 1_554 S
Co170 O173 1.970 . S
Co170 N187 1.989 . S
Co170 O195 1.967 . S
Co170 O202 1.920 . S
Co171 O174 1.966 . S
Co171 N180 2.022 1_556 S
Co171 N188 1.993 . S
Co171 O196 1.941 . S
C172 O173 1.258 . S
C172 O174 1.263 . S
O173 Co170 1.970 . S
O173 C172 1.258 . S
O174 Co171 1.966 . S
O174 C172 1.263 . S
C175 O176 1.235 . S
C175 O202 1.289 . S
O176 C175 1.235 . S
C177 C179 1.400 . S
C177 N180 1.351 . S
C177 C182 1.501 . S
C178 C179 1.387 . S
C178 N181 1.341 . S
C179 C177 1.400 . S
C179 C178 1.387 . S
N180 Co171 2.022 1_554 S
N180 C177 1.351 . S
N180 N181 1.365 . S
N181 C178 1.341 . S
N181 N180 1.365 . S
N181 H201 0.862 . S
C182 C177 1.501 . S
C182 H183 0.961 . S
C182 H184 0.961 . S
C182 H185 0.960 . S
H183 C182 0.961 . S
H184 C182 0.961 . S
H185 C182 0.960 . S
C186 N187 1.342 . S
C186 C190 1.401 . S
C186 C191 1.499 . S
N187 Co170 1.989 . S
N187 C186 1.342 . S
N187 N188 1.388 . S
N188 Co171 1.993 . S
N188 N187 1.388 . S
N188 C189 1.346 . S
C189 N188 1.346 . S
C189 C190 1.396 . S
C189 C199 1.510 . S
C190 C186 1.401 . S
C190 C189 1.396 . S
C191 C186 1.499 . S
C191 H192 0.959 . S
C191 H193 0.960 . S
C191 H194 0.961 . S
H192 C191 0.959 . S
H193 C191 0.960 . S
H194 C191 0.961 . S
O195 Co170 1.967 . S
O195 C203 1.258 . S
O196 Co171 1.941 . S
O196 C203 1.266 . S
H197 C199 0.959 . S
H198 C199 0.961 1_554 S
C199 C189 1.510 . S
C199 H197 0.959 . S
C199 H198 0.961 1_556 S
C199 H200 0.960 1_556 S
H200 C199 0.960 1_554 S
H201 N181 0.862 . S
O202 Co170 1.920 . S
O202 C175 1.289 . S
C203 O195 1.258 . S
C203 O196 1.266 . S
Co204 O207 1.970 . S
Co204 N221 1.989 . S
Co204 O229 1.967 . S
Co204 O236 1.920 . S
Co205 O208 1.966 . S
Co205 N214 2.022 . S
Co205 N222 1.993 . S
Co205 O230 1.941 1_545 S
C206 O207 1.258 . S
C206 O208 1.263 . S
O207 Co204 1.970 . S
O207 C206 1.258 . S
O208 Co205 1.966 . S
O208 C206 1.263 . S
C209 O210 1.235 . S
C209 O236 1.289 . S
O210 C209 1.235 . S
C211 C213 1.400 . S
C211 N214 1.351 . S
C211 C216 1.501 . S
C212 C213 1.387 . S
C212 N215 1.341 1_545 S
C213 C211 1.400 . S
C213 C212 1.387 . S
N214 Co205 2.022 . S
N214 C211 1.351 . S
N214 N215 1.365 1_545 S
N215 C212 1.341 1_565 S
N215 N214 1.365 1_565 S
N215 H235 0.862 . S
C216 C211 1.501 . S
C216 H217 0.961 . S
C216 H218 0.961 . S
C216 H219 0.960 . S
H217 C216 0.961 . S
H218 C216 0.961 . S
H219 C216 0.960 . S
C220 N221 1.342 . S
C220 C224 1.401 . S
C220 C225 1.499 . S
N221 Co204 1.989 . S
N221 C220 1.342 . S
N221 N222 1.388 . S
N222 Co205 1.993 . S
N222 N221 1.388 . S
N222 C223 1.346 . S
C223 N222 1.346 . S
C223 C224 1.396 . S
C223 C233 1.510 . S
C224 C220 1.401 . S
C224 C223 1.396 . S
C225 C220 1.499 . S
C225 H226 0.959 . S
C225 H227 0.960 . S
C225 H228 0.961 . S
H226 C225 0.959 . S
H227 C225 0.960 . S
H228 C225 0.961 . S
O229 Co204 1.967 . S
O229 C237 1.258 1_545 S
O230 Co205 1.941 1_565 S
O230 C237 1.266 . S
H231 C233 0.959 . S
H232 C233 0.961 . S
C233 C223 1.510 . S
C233 H231 0.959 . S
C233 H232 0.961 . S
C233 H234 0.960 . S
H234 C233 0.960 . S
H235 N215 0.862 . S
O236 Co204 1.920 . S
O236 C209 1.289 . S
C237 O229 1.258 1_565 S
C237 O230 1.266 . S
Co238 O241 1.970 . S
Co238 N255 1.989 . S
Co238 O263 1.967 . S
Co238 O270 1.920 . S
Co239 O242 1.966 . S
Co239 N248 2.022 . S
Co239 N256 1.993 . S
Co239 O264 1.941 . S
C240 O241 1.258 . S
C240 O242 1.263 . S
O241 Co238 1.970 . S
O241 C240 1.258 . S
O242 Co239 1.966 . S
O242 C240 1.263 . S
C243 O244 1.235 . S
C243 O270 1.289 . S
O244 C243 1.235 . S
C245 C247 1.400 . S
C245 N248 1.351 . S
C245 C250 1.501 . S
C246 C247 1.387 . S
C246 N249 1.341 . S
C247 C245 1.400 . S
C247 C246 1.387 . S
N248 Co239 2.022 . S
N248 C245 1.351 . S
N248 N249 1.365 . S
N249 C246 1.341 . S
N249 N248 1.365 . S
N249 H269 0.862 . S
C250 C245 1.501 . S
C250 H251 0.961 . S
C250 H252 0.961 . S
C250 H253 0.960 . S
H251 C250 0.961 . S
H252 C250 0.961 . S
H253 C250 0.960 . S
C254 N255 1.342 . S
C254 C258 1.401 . S
C254 C259 1.499 . S
N255 Co238 1.989 . S
N255 C254 1.342 . S
N255 N256 1.388 . S
N256 Co239 1.993 . S
N256 N255 1.388 . S
N256 C257 1.346 . S
C257 N256 1.346 . S
C257 C258 1.396 . S
C257 C267 1.510 . S
C258 C254 1.401 . S
C258 C257 1.396 . S
C259 C254 1.499 . S
C259 H260 0.959 . S
C259 H261 0.960 . S
C259 H262 0.961 . S
H260 C259 0.959 . S
H261 C259 0.960 . S
H262 C259 0.961 . S
O263 Co238 1.967 . S
O263 C271 1.258 . S
O264 Co239 1.941 . S
O264 C271 1.266 . S
H265 C267 0.959 . S
H266 C267 0.961 . S
C267 C257 1.510 . S
C267 H265 0.959 . S
C267 H266 0.961 . S
C267 H268 0.960 . S
H268 C267 0.960 . S
H269 N249 0.862 . S
O270 Co238 1.920 . S
O270 C243 1.289 . S
C271 O263 1.258 . S
C271 O264 1.266 . S
Co272 O275 1.970 . S
Co272 N289 1.989 . S
Co272 O297 1.967 . S
Co272 O304 1.920 . S
Co273 O276 1.966 . S
Co273 N282 2.022 . S
Co273 N290 1.993 . S
Co273 O298 1.941 . S
C274 O275 1.258 . S
C274 O276 1.263 . S
O275 Co272 1.970 . S
O275 C274 1.258 . S
O276 Co273 1.966 . S
O276 C274 1.263 . S
C277 O278 1.235 . S
C277 O304 1.289 . S
O278 C277 1.235 . S
C279 C281 1.400 . S
C279 N282 1.351 . S
C279 C284 1.501 . S
C280 C281 1.387 . S
C280 N283 1.341 . S
C281 C279 1.400 . S
C281 C280 1.387 . S
N282 Co273 2.022 . S
N282 C279 1.351 . S
N282 N283 1.365 . S
N283 C280 1.341 . S
N283 N282 1.365 . S
N283 H303 0.862 . S
C284 C279 1.501 . S
C284 H285 0.961 . S
C284 H286 0.961 . S
C284 H287 0.960 . S
H285 C284 0.961 . S
H286 C284 0.961 . S
H287 C284 0.960 . S
C288 N289 1.342 . S
C288 C292 1.401 . S
C288 C293 1.499 . S
N289 Co272 1.989 . S
N289 C288 1.342 . S
N289 N290 1.388 . S
N290 Co273 1.993 . S
N290 N289 1.388 . S
N290 C291 1.346 . S
C291 N290 1.346 . S
C291 C292 1.396 . S
C291 C301 1.510 . S
C292 C288 1.401 . S
C292 C291 1.396 . S
C293 C288 1.499 . S
C293 H294 0.959 . S
C293 H295 0.960 . S
C293 H296 0.961 . S
H294 C293 0.959 . S
H295 C293 0.960 . S
H296 C293 0.961 . S
O297 Co272 1.967 . S
O297 C305 1.258 . S
O298 Co273 1.941 . S
O298 C305 1.266 . S
H299 C301 0.959 . S
H300 C301 0.961 . S
C301 C291 1.510 . S
C301 H299 0.959 . S
C301 H300 0.961 . S
C301 H302 0.960 . S
H302 C301 0.960 . S
H303 N283 0.862 . S
O304 Co272 1.920 . S
O304 C277 1.289 . S
C305 O297 1.258 . S
C305 O298 1.266 . S
Co306 O309 1.970 . S
Co306 N323 1.989 . S
Co306 O331 1.967 . S
Co306 O338 1.920 1_556 S
Co307 O310 1.966 . S
Co307 N316 2.022 . S
Co307 N324 1.993 . S
Co307 O332 1.941 . S
C308 O309 1.258 . S
C308 O310 1.263 . S
O309 Co306 1.970 . S
O309 C308 1.258 . S
O310 Co307 1.966 . S
O310 C308 1.263 . S
C311 O312 1.235 . S
C311 O338 1.289 . S
O312 C311 1.235 . S
C313 C315 1.400 . S
C313 N316 1.351 . S
C313 C318 1.501 . S
C314 C315 1.387 . S
C314 N317 1.341 . S
C315 C313 1.400 . S
C315 C314 1.387 . S
N316 Co307 2.022 . S
N316 C313 1.351 . S
N316 N317 1.365 . S
N317 C314 1.341 . S
N317 N316 1.365 . S
N317 H337 0.862 . S
C318 C313 1.501 . S
C318 H319 0.961 . S
C318 H320 0.961 . S
C318 H321 0.960 . S
H319 C318 0.961 . S
H320 C318 0.961 . S
H321 C318 0.960 . S
C322 N323 1.342 . S
C322 C326 1.401 . S
C322 C327 1.499 . S
N323 Co306 1.989 . S
N323 C322 1.342 . S
N323 N324 1.388 . S
N324 Co307 1.993 . S
N324 N323 1.388 . S
N324 C325 1.346 . S
C325 N324 1.346 . S
C325 C326 1.396 . S
C325 C335 1.510 . S
C326 C322 1.401 . S
C326 C325 1.396 . S
C327 C322 1.499 . S
C327 H328 0.959 1_556 S
C327 H329 0.960 . S
C327 H330 0.961 . S
H328 C327 0.959 1_554 S
H329 C327 0.960 . S
H330 C327 0.961 . S
O331 Co306 1.967 . S
O331 C339 1.258 . S
O332 Co307 1.941 . S
O332 C339 1.266 . S
H333 C335 0.959 . S
H334 C335 0.961 . S
C335 C325 1.510 . S
C335 H333 0.959 . S
C335 H334 0.961 . S
C335 H336 0.960 . S
H336 C335 0.960 . S
H337 N317 0.862 . S
O338 Co306 1.920 1_554 S
O338 C311 1.289 . S
C339 O331 1.258 . S
C339 O332 1.266 . S
Co340 O343 1.970 1_556 S
Co340 N357 1.989 1_556 S
Co340 O365 1.967 . S
Co340 O372 1.920 . S
Co341 O344 1.966 . S
Co341 N350 2.022 . S
Co341 N358 1.993 . S
Co341 O366 1.941 . S
C342 O343 1.258 . S
C342 O344 1.263 . S
O343 Co340 1.970 1_554 S
O343 C342 1.258 . S
O344 Co341 1.966 . S
O344 C342 1.263 . S
C345 O346 1.235 . S
C345 O372 1.289 . S
O346 C345 1.235 . S
C347 C349 1.400 . S
C347 N350 1.351 . S
C347 C352 1.501 . S
C348 C349 1.387 . S
C348 N351 1.341 . S
C349 C347 1.400 . S
C349 C348 1.387 . S
N350 Co341 2.022 . S
N350 C347 1.351 . S
N350 N351 1.365 . S
N351 C348 1.341 . S
N351 N350 1.365 . S
N351 H371 0.862 . S
C352 C347 1.501 . S
C352 H353 0.961 . S
C352 H354 0.961 . S
C352 H355 0.960 . S
H353 C352 0.961 . S
H354 C352 0.961 . S
H355 C352 0.960 . S
C356 N357 1.342 1_556 S
C356 C360 1.401 1_556 S
C356 C361 1.499 . S
N357 Co340 1.989 1_554 S
N357 C356 1.342 1_554 S
N357 N358 1.388 . S
N358 Co341 1.993 . S
N358 N357 1.388 . S
N358 C359 1.346 . S
C359 N358 1.346 . S
C359 C360 1.396 . S
C359 C369 1.510 . S
C360 C356 1.401 1_554 S
C360 C359 1.396 . S
C361 C356 1.499 . S
C361 H362 0.959 . S
C361 H363 0.960 . S
C361 H364 0.961 . S
H362 C361 0.959 . S
H363 C361 0.960 . S
H364 C361 0.961 . S
O365 Co340 1.967 . S
O365 C373 1.258 1_556 S
O366 Co341 1.941 . S
O366 C373 1.266 . S
H367 C369 0.959 . S
H368 C369 0.961 . S
C369 C359 1.510 . S
C369 H367 0.959 . S
C369 H368 0.961 . S
C369 H370 0.960 . S
H370 C369 0.960 . S
H371 N351 0.862 . S
O372 Co340 1.920 . S
O372 C345 1.289 . S
C373 O365 1.258 1_554 S
C373 O366 1.266 . S
Co374 O377 1.970 . S
Co374 N391 1.989 . S
Co374 O399 1.967 . S
Co374 O406 1.920 . S
Co375 O378 1.966 . S
Co375 N384 2.022 . S
Co375 N392 1.993 . S
Co375 O400 1.941 . S
C376 O377 1.258 . S
C376 O378 1.263 . S
O377 Co374 1.970 . S
O377 C376 1.258 . S
O378 Co375 1.966 . S
O378 C376 1.263 . S
C379 O380 1.235 . S
C379 O406 1.289 . S
O380 C379 1.235 . S
C381 C383 1.400 1_554 S
C381 N384 1.351 . S
C381 C386 1.501 . S
C382 C383 1.387 . S
C382 N385 1.341 1_556 S
C383 C381 1.400 1_556 S
C383 C382 1.387 . S
N384 Co375 2.022 . S
N384 C381 1.351 . S
N384 N385 1.365 . S
N385 C382 1.341 1_554 S
N385 N384 1.365 . S
N385 H405 0.862 . S
C386 C381 1.501 . S
C386 H387 0.961 . S
C386 H388 0.961 . S
C386 H389 0.960 1_554 S
H387 C386 0.961 . S
H388 C386 0.961 . S
H389 C386 0.960 1_556 S
C390 N391 1.342 . S
C390 C394 1.401 . S
C390 C395 1.499 . S
N391 Co374 1.989 . S
N391 C390 1.342 . S
N391 N392 1.388 . S
N392 Co375 1.993 . S
N392 N391 1.388 . S
N392 C393 1.346 . S
C393 N392 1.346 . S
C393 C394 1.396 . S
C393 C403 1.510 . S
C394 C390 1.401 . S
C394 C393 1.396 . S
C395 C390 1.499 . S
C395 H396 0.959 . S
C395 H397 0.960 . S
C395 H398 0.961 . S
H396 C395 0.959 . S
H397 C395 0.960 . S
H398 C395 0.961 . S
O399 Co374 1.967 . S
O399 C407 1.258 . S
O400 Co375 1.941 . S
O400 C407 1.266 . S
H401 C403 0.959 . S
H402 C403 0.961 . S
C403 C393 1.510 . S
C403 H401 0.959 . S
C403 H402 0.961 . S
C403 H404 0.960 . S
H404 C403 0.960 . S
H405 N385 0.862 . S
O406 Co374 1.920 . S
O406 C379 1.289 . S
C407 O399 1.258 . S
C407 O400 1.266 . S
Co408 O411 1.970 . S
Co408 N425 1.989 . S
Co408 O433 1.967 . S
Co408 O440 1.920 . S
Co409 O412 1.966 . S
Co409 N418 2.022 . S
Co409 N426 1.993 . S
Co409 O434 1.941 . S
C410 O411 1.258 . S
C410 O412 1.263 . S
O411 Co408 1.970 . S
O411 C410 1.258 . S
O412 Co409 1.966 . S
O412 C410 1.263 . S
C413 O414 1.235 . S
C413 O440 1.289 . S
O414 C413 1.235 . S
C415 C417 1.400 . S
C415 N418 1.351 . S
C415 C420 1.501 . S
C416 C417 1.387 . S
C416 N419 1.341 . S
C417 C415 1.400 . S
C417 C416 1.387 . S
N418 Co409 2.022 . S
N418 C415 1.351 . S
N418 N419 1.365 . S
N419 C416 1.341 . S
N419 N418 1.365 . S
N419 H439 0.862 . S
C420 C415 1.501 . S
C420 H421 0.961 . S
C420 H422 0.961 . S
C420 H423 0.960 . S
H421 C420 0.961 . S
H422 C420 0.961 . S
H423 C420 0.960 . S
C424 N425 1.342 . S
C424 C428 1.401 . S
C424 C429 1.499 . S
N425 Co408 1.989 . S
N425 C424 1.342 . S
N425 N426 1.388 . S
N426 Co409 1.993 . S
N426 N425 1.388 . S
N426 C427 1.346 . S
C427 N426 1.346 . S
C427 C428 1.396 . S
C427 C437 1.510 . S
C428 C424 1.401 . S
C428 C427 1.396 . S
C429 C424 1.499 . S
C429 H430 0.959 . S
C429 H431 0.960 . S
C429 H432 0.961 . S
H430 C429 0.959 . S
H431 C429 0.960 . S
H432 C429 0.961 . S
O433 Co408 1.967 . S
O433 C441 1.258 . S
O434 Co409 1.941 . S
O434 C441 1.266 . S
H435 C437 0.959 . S
H436 C437 0.961 . S
C437 C427 1.510 . S
C437 H435 0.959 . S
C437 H436 0.961 . S
C437 H438 0.960 . S
H438 C437 0.960 . S
H439 N419 0.862 . S
O440 Co408 1.920 . S
O440 C413 1.289 . S
C441 O433 1.258 . S
C441 O434 1.266 . S
Co442 O445 1.970 . S
Co442 N459 1.989 . S
Co442 O467 1.967 . S
Co442 O474 1.920 . S
Co443 O446 1.966 . S
Co443 N452 2.022 . S
Co443 N460 1.993 . S
Co443 O468 1.941 . S
C444 O445 1.258 . S
C444 O446 1.263 . S
O445 Co442 1.970 . S
O445 C444 1.258 . S
O446 Co443 1.966 . S
O446 C444 1.263 . S
C447 O448 1.235 . S
C447 O474 1.289 . S
O448 C447 1.235 . S
C449 C451 1.400 . S
C449 N452 1.351 . S
C449 C454 1.501 . S
C450 C451 1.387 . S
C450 N453 1.341 . S
C451 C449 1.400 . S
C451 C450 1.387 . S
N452 Co443 2.022 . S
N452 C449 1.351 . S
N452 N453 1.365 . S
N453 C450 1.341 . S
N453 N452 1.365 . S
N453 H473 0.862 . S
C454 C449 1.501 . S
C454 H455 0.961 . S
C454 H456 0.961 . S
C454 H457 0.960 . S
H455 C454 0.961 . S
H456 C454 0.961 . S
H457 C454 0.960 . S
C458 N459 1.342 . S
C458 C462 1.401 . S
C458 C463 1.499 . S
N459 Co442 1.989 . S
N459 C458 1.342 . S
N459 N460 1.388 . S
N460 Co443 1.993 . S
N460 N459 1.388 . S
N460 C461 1.346 . S
C461 N460 1.346 . S
C461 C462 1.396 . S
C461 C471 1.510 . S
C462 C458 1.401 . S
C462 C461 1.396 . S
C463 C458 1.499 . S
C463 H464 0.959 . S
C463 H465 0.960 . S
C463 H466 0.961 . S
H464 C463 0.959 . S
H465 C463 0.960 . S
H466 C463 0.961 . S
O467 Co442 1.967 . S
O467 C475 1.258 . S
O468 Co443 1.941 . S
O468 C475 1.266 . S
H469 C471 0.959 . S
H470 C471 0.961 . S
C471 C461 1.510 . S
C471 H469 0.959 . S
C471 H470 0.961 . S
C471 H472 0.960 . S
H472 C471 0.960 . S
H473 N453 0.862 . S
O474 Co442 1.920 . S
O474 C447 1.289 . S
C475 O467 1.258 . S
C475 O468 1.266 . S
Co476 O479 1.970 . S
Co476 N493 1.989 . S
Co476 O501 1.967 . S
Co476 O508 1.920 . S
Co477 O480 1.966 . S
Co477 N486 2.022 . S
Co477 N494 1.993 1_556 S
Co477 O502 1.941 . S
C478 O479 1.258 . S
C478 O480 1.263 1_554 S
O479 Co476 1.970 . S
O479 C478 1.258 . S
O480 Co477 1.966 . S
O480 C478 1.263 1_556 S
C481 O482 1.235 . S
C481 O508 1.289 . S
O482 C481 1.235 . S
C483 C485 1.400 . S
C483 N486 1.351 . S
C483 C488 1.501 . S
C484 C485 1.387 . S
C484 N487 1.341 . S
C485 C483 1.400 . S
C485 C484 1.387 . S
N486 Co477 2.022 . S
N486 C483 1.351 . S
N486 N487 1.365 . S
N487 C484 1.341 . S
N487 N486 1.365 . S
N487 H507 0.862 . S
C488 C483 1.501 . S
C488 H489 0.961 . S
C488 H490 0.961 . S
C488 H491 0.960 . S
H489 C488 0.961 . S
H490 C488 0.961 . S
H491 C488 0.960 . S
C492 N493 1.342 . S
C492 C496 1.401 . S
C492 C497 1.499 . S
N493 Co476 1.989 . S
N493 C492 1.342 . S
N493 N494 1.388 . S
N494 Co477 1.993 1_554 S
N494 N493 1.388 . S
N494 C495 1.346 1_554 S
C495 N494 1.346 1_556 S
C495 C496 1.396 1_556 S
C495 C505 1.510 . S
C496 C492 1.401 . S
C496 C495 1.396 1_554 S
C497 C492 1.499 . S
C497 H498 0.959 . S
C497 H499 0.960 . S
C497 H500 0.961 . S
H498 C497 0.959 . S
H499 C497 0.960 . S
H500 C497 0.961 . S
O501 Co476 1.967 . S
O501 C509 1.258 . S
O502 Co477 1.941 . S
O502 C509 1.266 1_556 S
H503 C505 0.959 . S
H504 C505 0.961 . S
C505 C495 1.510 . S
C505 H503 0.959 . S
C505 H504 0.961 . S
C505 H506 0.960 . S
H506 C505 0.960 . S
H507 N487 0.862 . S
O508 Co476 1.920 . S
O508 C481 1.289 . S
C509 O501 1.258 . S
C509 O502 1.266 1_554 S
Co510 O513 1.970 . S
Co510 N527 1.989 . S
Co510 O535 1.967 . S
Co510 O542 1.920 . S
Co511 O514 1.966 . S
Co511 N520 2.022 1_556 S
Co511 N528 1.993 . S
Co511 O536 1.941 . S
C512 O513 1.258 . S
C512 O514 1.263 . S
O513 Co510 1.970 . S
O513 C512 1.258 . S
O514 Co511 1.966 . S
O514 C512 1.263 . S
C515 O516 1.235 . S
C515 O542 1.289 . S
O516 C515 1.235 . S
C517 C519 1.400 . S
C517 N520 1.351 . S
C517 C522 1.501 . S
C518 C519 1.387 . S
C518 N521 1.341 . S
C519 C517 1.400 . S
C519 C518 1.387 . S
N520 Co511 2.022 1_554 S
N520 C517 1.351 . S
N520 N521 1.365 . S
N521 C518 1.341 . S
N521 N520 1.365 . S
N521 H541 0.862 . S
C522 C517 1.501 . S
C522 H523 0.961 . S
C522 H524 0.961 . S
C522 H525 0.960 . S
H523 C522 0.961 . S
H524 C522 0.961 . S
H525 C522 0.960 . S
C526 N527 1.342 . S
C526 C530 1.401 . S
C526 C531 1.499 . S
N527 Co510 1.989 . S
N527 C526 1.342 . S
N527 N528 1.388 . S
N528 Co511 1.993 . S
N528 N527 1.388 . S
N528 C529 1.346 . S
C529 N528 1.346 . S
C529 C530 1.396 . S
C529 C539 1.510 . S
C530 C526 1.401 . S
C530 C529 1.396 . S
C531 C526 1.499 . S
C531 H532 0.959 . S
C531 H533 0.960 . S
C531 H534 0.961 . S
H532 C531 0.959 . S
H533 C531 0.960 . S
H534 C531 0.961 . S
O535 Co510 1.967 . S
O535 C543 1.258 . S
O536 Co511 1.941 . S
O536 C543 1.266 . S
H537 C539 0.959 . S
H538 C539 0.961 1_554 S
C539 C529 1.510 . S
C539 H537 0.959 . S
C539 H538 0.961 1_556 S
C539 H540 0.960 1_556 S
H540 C539 0.960 1_554 S
H541 N521 0.862 . S
O542 Co510 1.920 . S
O542 C515 1.289 . S
C543 O535 1.258 . S
C543 O536 1.266 . S
C544 C545 1.369 . S
C544 C546 1.419 . S
C544 H548 0.930 . S
C545 C544 1.369 . S
C545 C554 1.429 . S
C546 C544 1.419 . S
C546 C547 1.363 . S
C546 H549 0.929 . S
C547 C546 1.363 . S
C547 C553 1.428 . S
H548 C544 0.930 . S
H549 C546 0.929 . S
S550 N551 1.613 1_565 S
S550 N552 1.614 . S
N551 S550 1.613 1_545 S
N551 C554 1.350 . S
N552 S550 1.614 . S
N552 C553 1.334 1_565 S
C553 C547 1.428 . S
C553 N552 1.334 1_545 S
C553 C554 1.434 . S
C554 C545 1.429 . S
C554 N551 1.350 . S
C554 C553 1.434 . S
C555 C556 1.369 . S
C555 C557 1.419 . S
C555 H559 0.930 . S
C556 C555 1.369 . S
C556 C565 1.429 . S
C557 C555 1.419 . S
C557 C558 1.363 . S
C557 H560 0.929 . S
C558 C557 1.363 . S
C558 C564 1.428 . S
H559 C555 0.930 . S
H560 C557 0.929 . S
S561 N562 1.613 . S
S561 N563 1.610 . S
N562 S561 1.613 . S
N562 C565 1.350 . S
N563 S561 1.610 . S
N563 C564 1.351 . S
C564 C558 1.428 . S
C564 N563 1.351 . S
C564 C565 1.434 . S
C565 C556 1.429 . S
C565 N562 1.350 . S
C565 C564 1.434 . S
C566 C567 1.369 1_545 S
C566 C568 1.419 . S
C566 H570 0.930 . S
C567 C566 1.369 1_565 S
C567 C576 1.429 . S
C568 C566 1.419 . S
C568 C569 1.363 . S
C568 H571 0.929 . S
C569 C568 1.363 . S
C569 C575 1.428 1_545 S
H570 C566 0.930 . S
H571 C568 0.929 . S
S572 N573 1.613 . S
S572 N574 1.610 . S
N573 S572 1.613 . S
N573 C576 1.350 . S
N574 S572 1.610 . S
N574 C575 1.351 . S
C575 C569 1.428 1_565 S
C575 N574 1.351 . S
C575 C576 1.434 . S
C576 C567 1.429 . S
C576 N573 1.350 . S
C576 C575 1.434 . S
C577 C578 1.369 . S
C577 C579 1.419 . S
C577 H581 0.930 . S
C578 C577 1.369 . S
C578 C587 1.429 . S
C579 C577 1.419 . S
C579 C580 1.363 . S
C579 H582 0.929 . S
C580 C579 1.363 . S
C580 C586 1.428 . S
H581 C577 0.930 . S
H582 C579 0.929 . S
S583 N584 1.613 . S
S583 N585 1.610 . S
N584 S583 1.613 . S
N584 C587 1.350 . S
N585 S583 1.610 . S
N585 C586 1.351 . S
C586 C580 1.428 . S
C586 N585 1.351 . S
C586 C587 1.434 . S
C587 C578 1.429 . S
C587 N584 1.350 . S
C587 C586 1.434 . S
C588 C589 1.369 . S
C588 C590 1.419 . S
C588 H592 0.930 . S
C589 C588 1.369 . S
C589 C598 1.429 1_545 S
C590 C588 1.419 . S
C590 C591 1.363 1_545 S
C590 H593 0.929 . S
C591 C590 1.363 1_565 S
C591 C597 1.428 . S
H592 C588 0.930 . S
H593 C590 0.929 . S
S594 N595 1.613 . S
S594 N596 1.610 . S
N595 S594 1.613 . S
N595 C598 1.350 . S
N596 S594 1.610 . S
N596 C597 1.351 . S
C597 C591 1.428 . S
C597 N596 1.351 . S
C597 C598 1.434 . S
C598 C589 1.429 1_565 S
C598 N595 1.350 . S
C598 C597 1.434 . S
C599 C600 1.369 . S
C599 C601 1.419 . S
C599 H603 0.930 . S
C600 C599 1.369 . S
C600 C609 1.429 . S
C601 C599 1.419 . S
C601 C602 1.363 . S
C601 H604 0.929 . S
C602 C601 1.363 . S
C602 C608 1.428 . S
H603 C599 0.930 . S
H604 C601 0.929 . S
S605 N606 1.613 . S
S605 N607 1.610 . S
N606 S605 1.613 . S
N606 C609 1.350 . S
N607 S605 1.610 . S
N607 C608 1.351 . S
C608 C602 1.428 . S
C608 N607 1.351 . S
C608 C609 1.434 . S
C609 C600 1.429 . S
C609 N606 1.350 . S
C609 C608 1.434 . S
C610 C611 1.369 . S
C610 C612 1.419 1_554 S
C610 H614 0.930 . S
C611 C610 1.369 . S
C611 C620 1.429 . S
C612 C610 1.419 1_556 S
C612 C613 1.363 . S
C612 H615 0.929 . S
C613 C612 1.363 . S
C613 C619 1.428 . S
H614 C610 0.930 . S
H615 C612 0.929 . S
S616 N617 1.613 1_556 S
S616 N618 1.610 1_565 S
N617 S616 1.613 1_554 S
N617 C620 1.350 1_565 S
N618 S616 1.610 1_545 S
N618 C619 1.351 . S
C619 C613 1.428 . S
C619 N618 1.351 . S
C619 C620 1.434 1_556 S
C620 C611 1.429 . S
C620 N617 1.350 1_545 S
C620 C619 1.434 1_554 S
C621 C622 1.369 . S
C621 C623 1.419 . S
C621 H625 0.930 . S
C622 C621 1.369 . S
C622 C631 1.429 . S
C623 C621 1.419 . S
C623 C624 1.363 . S
C623 H626 0.929 . S
C624 C623 1.363 . S
C624 C630 1.428 . S
H625 C621 0.930 . S
H626 C623 0.929 . S
S627 N628 1.613 . S
S627 N629 1.610 . S
N628 S627 1.613 . S
N628 C631 1.350 . S
N629 S627 1.610 . S
N629 C630 1.351 . S
C630 C624 1.428 . S
C630 N629 1.351 . S
C630 C631 1.434 . S
C631 C622 1.429 . S
C631 N628 1.350 . S
C631 C630 1.434 . S
C632 C633 1.369 . S
C632 C634 1.419 . S
C632 H636 0.930 . S
C633 C632 1.369 . S
C633 C642 1.429 . S
C634 C632 1.419 . S
C634 C635 1.363 . S
C634 H637 0.929 . S
C635 C634 1.363 . S
C635 C641 1.428 . S
H636 C632 0.930 . S
H637 C634 0.929 . S
S638 N639 1.613 . S
S638 N640 1.610 . S
N639 S638 1.613 . S
N639 C642 1.350 . S
N640 S638 1.610 . S
N640 C641 1.351 . S
C641 C635 1.428 . S
C641 N640 1.351 . S
C641 C642 1.434 . S
C642 C633 1.429 . S
C642 N639 1.350 . S
C642 C641 1.434 . S
C643 C644 1.369 . S
C643 C645 1.419 . S
C643 H647 0.930 . S
C644 C643 1.369 . S
C644 C653 1.429 . S
C645 C643 1.419 . S
C645 C646 1.363 . S
C645 H648 0.929 . S
C646 C645 1.363 . S
C646 C652 1.428 . S
H647 C643 0.930 . S
H648 C645 0.929 . S
S649 N650 1.613 . S
S649 N651 1.610 . S
N650 S649 1.613 . S
N650 C653 1.350 . S
N651 S649 1.610 . S
N651 C652 1.351 . S
C652 C646 1.428 . S
C652 N651 1.351 . S
C652 C653 1.434 . S
C653 C644 1.429 . S
C653 N650 1.350 . S
C653 C652 1.434 . S
C654 C655 1.369 . S
C654 C656 1.419 . S
C654 H658 0.930 . S
C655 C654 1.369 . S
C655 C664 1.429 . S
C656 C654 1.419 . S
C656 C657 1.363 . S
C656 H659 0.929 . S
C657 C656 1.363 . S
C657 C663 1.428 . S
H658 C654 0.930 . S
H659 C656 0.929 . S
S660 N661 1.613 . S
S660 N662 1.610 . S
N661 S660 1.613 . S
N661 C664 1.350 . S
N662 S660 1.610 . S
N662 C663 1.351 . S
C663 C657 1.428 . S
C663 N662 1.351 . S
C663 C664 1.434 . S
C664 C655 1.429 . S
C664 N661 1.350 . S
C664 C663 1.434 . S
C665 C666 1.369 . S
C665 C667 1.419 . S
C665 H669 0.930 . S
C666 C665 1.369 . S
C666 C675 1.429 . S
C667 C665 1.419 . S
C667 C668 1.363 . S
C667 H670 0.929 . S
C668 C667 1.363 . S
C668 C674 1.428 . S
H669 C665 0.930 . S
H670 C667 0.929 . S
S671 N672 1.613 . S
S671 N673 1.610 . S
N672 S671 1.613 . S
N672 C675 1.350 . S
N673 S671 1.610 . S
N673 C674 1.351 . S
C674 C668 1.428 . S
C674 N673 1.351 . S
C674 C675 1.434 . S
C675 C666 1.429 . S
C675 N672 1.350 . S
C675 C674 1.434 . S
C676 C677 1.369 . S
C676 C678 1.419 1_556 S
C676 H680 0.930 . S
C677 C676 1.369 . S
C677 C686 1.429 . S
C678 C676 1.419 1_554 S
C678 C679 1.363 . S
C678 H681 0.929 . S
C679 C678 1.363 . S
C679 C685 1.428 . S
H680 C676 0.930 . S
H681 C678 0.929 . S
S682 N683 1.613 1_554 S
S682 N684 1.610 . S
N683 S682 1.613 1_556 S
N683 C686 1.350 . S
N684 S682 1.610 . S
N684 C685 1.351 . S
C685 C679 1.428 . S
C685 N684 1.351 . S
C685 C686 1.434 1_554 S
C686 C677 1.429 . S
C686 N683 1.350 . S
C686 C685 1.434 1_556 S
C687 C688 1.369 . S
C687 C689 1.419 . S
C687 H691 0.930 . S
C688 C687 1.369 . S
C688 C697 1.429 . S
C689 C687 1.419 . S
C689 C690 1.363 . S
C689 H692 0.929 . S
C690 C689 1.363 . S
C690 C696 1.428 . S
H691 C687 0.930 . S
H692 C689 0.929 . S
S693 N694 1.613 . S
S693 N695 1.610 . S
N694 S693 1.613 . S
N694 C697 1.350 . S
N695 S693 1.610 . S
N695 C696 1.351 . S
C696 C690 1.428 . S
C696 N695 1.351 . S
C696 C697 1.434 . S
C697 C688 1.429 . S
C697 N694 1.350 . S
C697 C696 1.434 . S
C698 C699 1.369 . S
C698 C700 1.419 . S
C698 H702 0.930 . S
C699 C698 1.369 . S
C699 C708 1.429 . S
C700 C698 1.419 . S
C700 C701 1.363 . S
C700 H703 0.929 . S
C701 C700 1.363 . S
C701 C707 1.428 . S
H702 C698 0.930 . S
H703 C700 0.929 . S
S704 N705 1.613 . S
S704 N706 1.610 . S
N705 S704 1.613 . S
N705 C708 1.350 . S
N706 S704 1.610 . S
N706 C707 1.351 . S
C707 C701 1.428 . S
C707 N706 1.351 . S
C707 C708 1.434 . S
C708 C699 1.429 . S
C708 N705 1.350 . S
C708 C707 1.434 . S
C709 C710 1.369 . S
C709 C711 1.419 . S
C709 H713 0.930 . S
C710 C709 1.369 . S
C710 C719 1.429 . S
C711 C709 1.419 . S
C711 C712 1.363 . S
C711 H714 0.929 . S
C712 C711 1.363 . S
C712 C718 1.428 . S
H713 C709 0.930 . S
H714 C711 0.929 . S
S715 N716 1.613 . S
S715 N717 1.610 . S
N716 S715 1.613 . S
N716 C719 1.350 . S
N717 S715 1.610 . S
N717 C718 1.351 . S
C718 C712 1.428 . S
C718 N717 1.351 . S
C718 C719 1.434 . S
C719 C710 1.429 . S
C719 N716 1.350 . S
C719 C718 1.434 . S
C720 C721 1.369 . S
C720 C722 1.419 . S
C720 H724 0.930 . S
C721 C720 1.369 . S
C721 C730 1.429 . S
C722 C720 1.419 . S
C722 C723 1.363 . S
C722 H725 0.929 . S
C723 C722 1.363 . S
C723 C729 1.428 . S
H724 C720 0.930 . S
H725 C722 0.929 . S
S726 N727 1.613 . S
S726 N728 1.610 . S
N727 S726 1.613 . S
N727 C730 1.350 . S
N728 S726 1.610 . S
N728 C729 1.351 . S
C729 C723 1.428 . S
C729 N728 1.351 . S
C729 C730 1.434 . S
C730 C721 1.429 . S
C730 N727 1.350 . S
C730 C729 1.434 . S
C731 C732 1.369 . S
C731 C733 1.419 . S
C731 H735 0.930 . S
C732 C731 1.369 . S
C732 C741 1.429 . S
C733 C731 1.419 . S
C733 C734 1.363 . S
C733 H736 0.929 . S
C734 C733 1.363 . S
C734 C740 1.428 . S
H735 C731 0.930 . S
H736 C733 0.929 . S
S737 N738 1.613 . S
S737 N739 1.610 . S
N738 S737 1.613 . S
N738 C741 1.350 . S
N739 S737 1.610 . S
N739 C740 1.351 . S
C740 C734 1.428 . S
C740 N739 1.351 . S
C740 C741 1.434 . S
C741 C732 1.429 . S
C741 N738 1.350 . S
C741 C740 1.434 . S
C742 C743 1.369 . S
C742 C744 1.419 . S
C742 H746 0.930 . S
C743 C742 1.369 . S
C743 C752 1.429 . S
C744 C742 1.419 . S
C744 C745 1.363 . S
C744 H747 0.929 . S
C745 C744 1.363 . S
C745 C751 1.428 . S
H746 C742 0.930 . S
H747 C744 0.929 . S
S748 N749 1.613 . S
S748 N750 1.610 . S
N749 S748 1.613 . S
N749 C752 1.350 . S
N750 S748 1.610 . S
N750 C751 1.351 . S
C751 C745 1.428 . S
C751 N750 1.351 . S
C751 C752 1.434 . S
C752 C743 1.429 . S
C752 N749 1.350 . S
C752 C751 1.434 . S
C753 C754 1.369 1_554 S
C753 C755 1.419 1_554 S
C753 H757 0.930 . S
C754 C753 1.369 1_556 S
C754 C763 1.429 . S
C755 C753 1.419 1_556 S
C755 C756 1.363 . S
C755 H758 0.929 . S
C756 C755 1.363 . S
C756 C762 1.428 . S
H757 C753 0.930 . S
H758 C755 0.929 . S
S759 N760 1.613 . S
S759 N761 1.610 . S
N760 S759 1.613 . S
N760 C763 1.350 . S
N761 S759 1.610 . S
N761 C762 1.351 . S
C762 C756 1.428 . S
C762 N761 1.351 . S
C762 C763 1.434 . S
C763 C754 1.429 . S
C763 N760 1.350 . S
C763 C762 1.434 . S
C764 C765 1.369 . S
C764 C766 1.419 1_556 S
C764 H768 0.930 1_556 S
C765 C764 1.369 . S
C765 C774 1.429 . S
C766 C764 1.419 1_554 S
C766 C767 1.363 1_554 S
C766 H769 0.929 . S
C767 C766 1.363 1_556 S
C767 C773 1.428 . S
H768 C764 0.930 1_554 S
H769 C766 0.929 . S
S770 N771 1.613 . S
S770 N772 1.610 . S
N771 S770 1.613 . S
N771 C774 1.350 . S
N772 S770 1.610 . S
N772 C773 1.351 . S
C773 C767 1.428 . S
C773 N772 1.351 . S
C773 C774 1.434 . S
C774 C765 1.429 . S
C774 N771 1.350 . S
C774 C773 1.434 . S
C775 C776 1.369 . S
C775 C777 1.419 . S
C775 H779 0.930 . S
C776 C775 1.369 . S
C776 C785 1.429 . S
C777 C775 1.419 . S
C777 C778 1.363 . S
C777 H780 0.929 . S
C778 C777 1.363 . S
C778 C784 1.428 . S
H779 C775 0.930 . S
H780 C777 0.929 . S
S781 N782 1.613 . S
S781 N783 1.610 . S
N782 S781 1.613 . S
N782 C785 1.350 . S
N783 S781 1.610 . S
N783 C784 1.351 . S
C784 C778 1.428 . S
C784 N783 1.351 . S
C784 C785 1.434 . S
C785 C776 1.429 . S
C785 N782 1.350 . S
C785 C784 1.434 . S
C786 C787 1.369 . S
C786 C788 1.419 . S
C786 H790 0.930 . S
C787 C786 1.369 . S
C787 C796 1.429 . S
C788 C786 1.419 . S
C788 C789 1.363 . S
C788 H791 0.929 . S
C789 C788 1.363 . S
C789 C795 1.428 . S
H790 C786 0.930 . S
H791 C788 0.929 . S
S792 N793 1.613 . S
S792 N794 1.610 . S
N793 S792 1.613 . S
N793 C796 1.350 . S
N794 S792 1.610 . S
N794 C795 1.351 . S
C795 C789 1.428 . S
C795 N794 1.351 . S
C795 C796 1.434 . S
C796 C787 1.429 . S
C796 N793 1.350 . S
C796 C795 1.434 . S
C797 C798 1.369 . S
C797 C799 1.419 . S
C797 H801 0.930 . S
C798 C797 1.369 . S
C798 C807 1.429 . S
C799 C797 1.419 . S
C799 C800 1.363 . S
C799 H802 0.929 . S
C800 C799 1.363 . S
C800 C806 1.428 . S
H801 C797 0.930 . S
H802 C799 0.929 . S
S803 N804 1.613 . S
S803 N805 1.610 . S
N804 S803 1.613 . S
N804 C807 1.350 . S
N805 S803 1.610 . S
N805 C806 1.351 . S
C806 C800 1.428 . S
C806 N805 1.351 . S
C806 C807 1.434 . S
C807 C798 1.429 . S
C807 N804 1.350 . S
C807 C806 1.434 . S
C808 C809 1.369 . S
C808 C810 1.419 . S
C808 H812 0.930 . S
C809 C808 1.369 . S
C809 C818 1.429 . S
C810 C808 1.419 . S
C810 C811 1.363 . S
C810 H813 0.929 . S
C811 C810 1.363 . S
C811 C817 1.428 . S
H812 C808 0.930 . S
H813 C810 0.929 . S
S814 N815 1.613 . S
S814 N816 1.610 . S
N815 S814 1.613 . S
N815 C818 1.350 . S
N816 S814 1.610 . S
N816 C817 1.351 . S
C817 C811 1.428 . S
C817 N816 1.351 . S
C817 C818 1.434 . S
C818 C809 1.429 . S
C818 N815 1.350 . S
C818 C817 1.434 . S
C819 C820 1.369 . S
C819 C821 1.419 . S
C819 H823 0.930 . S
C820 C819 1.369 . S
C820 C829 1.429 . S
C821 C819 1.419 . S
C821 C822 1.363 . S
C821 H824 0.929 1_556 S
C822 C821 1.363 . S
C822 C828 1.428 . S
H823 C819 0.930 . S
H824 C821 0.929 1_554 S
S825 N826 1.613 . S
S825 N827 1.610 . S
N826 S825 1.613 . S
N826 C829 1.350 . S
N827 S825 1.610 . S
N827 C828 1.351 . S
C828 C822 1.428 . S
C828 N827 1.351 . S
C828 C829 1.434 . S
C829 C820 1.429 . S
C829 N826 1.350 . S
C829 C828 1.434 . S
C830 C831 1.369 . S
C830 C832 1.419 . S
C830 H834 0.930 . S
C831 C830 1.369 . S
C831 C840 1.429 . S
C832 C830 1.419 . S
C832 C833 1.363 . S
C832 H835 0.929 . S
C833 C832 1.363 . S
C833 C839 1.428 . S
H834 C830 0.930 . S
H835 C832 0.929 . S
S836 N837 1.613 . S
S836 N838 1.610 . S
N837 S836 1.613 . S
N837 C840 1.350 . S
N838 S836 1.610 . S
N838 C839 1.351 . S
C839 C833 1.428 . S
C839 N838 1.351 . S
C839 C840 1.434 . S
C840 C831 1.429 . S
C840 N837 1.350 . S
C840 C839 1.434 . S
C841 C842 1.369 . S
C841 C843 1.419 . S
C841 H845 0.930 . S
C842 C841 1.369 . S
C842 C851 1.429 . S
C843 C841 1.419 . S
C843 C844 1.363 . S
C843 H846 0.929 . S
C844 C843 1.363 . S
C844 C850 1.428 . S
H845 C841 0.930 . S
H846 C843 0.929 . S
S847 N848 1.613 . S
S847 N849 1.610 . S
N848 S847 1.613 . S
N848 C851 1.350 . S
N849 S847 1.610 . S
N849 C850 1.351 . S
C850 C844 1.428 . S
C850 N849 1.351 . S
C850 C851 1.434 . S
C851 C842 1.429 . S
C851 N848 1.350 . S
C851 C850 1.434 . S
C852 C853 1.369 . S
C852 C854 1.419 . S
C852 H856 0.930 . S
C853 C852 1.369 . S
C853 C862 1.429 . S
C854 C852 1.419 . S
C854 C855 1.363 . S
C854 H857 0.929 . S
C855 C854 1.363 . S
C855 C861 1.428 . S
H856 C852 0.930 . S
H857 C854 0.929 . S
S858 N859 1.613 . S
S858 N860 1.610 . S
N859 S858 1.613 . S
N859 C862 1.350 . S
N860 S858 1.610 . S
N860 C861 1.351 . S
C861 C855 1.428 . S
C861 N860 1.351 . S
C861 C862 1.434 . S
C862 C853 1.429 . S
C862 N859 1.350 . S
C862 C861 1.434 . S
C863 C864 1.369 . S
C863 C865 1.419 . S
C863 H867 0.930 . S
C864 C863 1.369 . S
C864 C873 1.429 . S
C865 C863 1.419 . S
C865 C866 1.363 . S
C865 H868 0.929 . S
C866 C865 1.363 . S
C866 C872 1.428 . S
H867 C863 0.930 . S
H868 C865 0.929 . S
S869 N870 1.613 . S
S869 N871 1.610 . S
N870 S869 1.613 . S
N870 C873 1.350 . S
N871 S869 1.610 . S
N871 C872 1.351 . S
C872 C866 1.428 . S
C872 N871 1.351 . S
C872 C873 1.434 . S
C873 C864 1.429 . S
C873 N870 1.350 . S
C873 C872 1.434 . S
C874 C875 1.369 . S
C874 C876 1.419 . S
C874 H878 0.930 . S
C875 C874 1.369 . S
C875 C884 1.429 . S
C876 C874 1.419 . S
C876 C877 1.363 . S
C876 H879 0.929 . S
C877 C876 1.363 . S
C877 C883 1.428 1_556 S
H878 C874 0.930 . S
H879 C876 0.929 . S
S880 N881 1.613 . S
S880 N882 1.610 . S
N881 S880 1.613 . S
N881 C884 1.350 1_554 S
N882 S880 1.610 . S
N882 C883 1.351 . S
C883 C877 1.428 1_554 S
C883 N882 1.351 . S
C883 C884 1.434 1_554 S
C884 C875 1.429 . S
C884 N881 1.350 1_556 S
C884 C883 1.434 1_556 S
C885 C886 1.369 . S
C885 C887 1.419 . S
C885 H889 0.930 . S
C886 C885 1.369 . S
C886 C895 1.429 . S
C887 C885 1.419 . S
C887 C888 1.363 . S
C887 H890 0.929 . S
C888 C887 1.363 . S
C888 C894 1.428 . S
H889 C885 0.930 . S
H890 C887 0.929 . S
S891 N892 1.613 . S
S891 N893 1.610 . S
N892 S891 1.613 . S
N892 C895 1.350 . S
N893 S891 1.610 . S
N893 C894 1.351 . S
C894 C888 1.428 . S
C894 N893 1.351 . S
C894 C895 1.434 . S
C895 C886 1.429 . S
C895 N892 1.350 . S
C895 C894 1.434 . S
C896 C897 1.369 . S
C896 C898 1.419 . S
C896 H900 0.930 . S
C897 C896 1.369 . S
C897 C906 1.429 1_545 S
C898 C896 1.419 . S
C898 C899 1.363 . S
C898 H901 0.929 . S
C899 C898 1.363 . S
C899 C905 1.428 1_545 S
H900 C896 0.930 . S
H901 C898 0.929 . S
S902 N903 1.613 . S
S902 N904 1.610 . S
N903 S902 1.613 . S
N903 C906 1.350 . S
N904 S902 1.610 . S
N904 C905 1.351 . S
C905 C899 1.428 1_565 S
C905 N904 1.351 . S
C905 C906 1.434 . S
C906 C897 1.429 1_565 S
C906 N903 1.350 . S
C906 C905 1.434 . S
C907 C908 1.369 . S
C907 C909 1.419 . S
C907 H911 0.930 . S
C908 C907 1.369 . S
C908 C917 1.429 . S
C909 C907 1.419 . S
C909 C910 1.363 . S
C909 H912 0.929 . S
C910 C909 1.363 . S
C910 C916 1.428 . S
H911 C907 0.930 . S
H912 C909 0.929 . S
S913 N914 1.613 . S
S913 N915 1.610 . S
N914 S913 1.613 . S
N914 C917 1.350 . S
N915 S913 1.610 . S
N915 C916 1.351 . S
C916 C910 1.428 . S
C916 N915 1.351 . S
C916 C917 1.434 . S
C917 C908 1.429 . S
C917 N914 1.350 . S
C917 C916 1.434 . S
C918 C919 1.369 . S
C918 C920 1.419 1_455 S
C918 H922 0.930 . S
C919 C918 1.369 . S
C919 C928 1.429 1_545 S
C920 C918 1.419 1_655 S
C920 C921 1.363 . S
C920 H923 0.929 . S
C921 C920 1.363 . S
C921 C927 1.428 1_545 S
H922 C918 0.930 . S
H923 C920 0.929 . S
S924 N925 1.613 1_655 S
S924 N926 1.610 . S
N925 S924 1.613 1_455 S
N925 C928 1.350 . S
N926 S924 1.610 . S
N926 C927 1.351 . S
C927 C921 1.428 1_565 S
C927 N926 1.351 . S
C927 C928 1.434 1_655 S
C928 C919 1.429 1_565 S
C928 N925 1.350 . S
C928 C927 1.434 1_455 S
C929 C930 1.369 . S
C929 C931 1.419 . S
C929 H933 0.930 . S
C930 C929 1.369 . S
C930 C939 1.429 . S
C931 C929 1.419 . S
C931 C932 1.363 . S
C931 H934 0.929 . S
C932 C931 1.363 . S
C932 C938 1.428 . S
H933 C929 0.930 . S
H934 C931 0.929 . S
S935 N936 1.613 . S
S935 N937 1.610 . S
N936 S935 1.613 . S
N936 C939 1.350 . S
N937 S935 1.610 . S
N937 C938 1.351 . S
C938 C932 1.428 . S
C938 N937 1.351 . S
C938 C939 1.434 . S
C939 C930 1.429 . S
C939 N936 1.350 . S
C939 C938 1.434 . S
C940 C941 1.369 . S
C940 C942 1.419 . S
C940 H944 0.930 . S
C941 C940 1.369 . S
C941 C950 1.429 . S
C942 C940 1.419 . S
C942 C943 1.363 . S
C942 H945 0.929 . S
C943 C942 1.363 . S
C943 C949 1.428 . S
H944 C940 0.930 . S
H945 C942 0.929 . S
S946 N947 1.613 . S
S946 N948 1.610 . S
N947 S946 1.613 . S
N947 C950 1.350 . S
N948 S946 1.610 . S
N948 C949 1.351 . S
C949 C943 1.428 . S
C949 N948 1.351 . S
C949 C950 1.434 . S
C950 C941 1.429 . S
C950 N947 1.350 . S
C950 C949 1.434 . S
C951 C952 1.369 . S
C951 C953 1.419 . S
C951 H955 0.930 . S
C952 C951 1.369 . S
C952 C961 1.429 . S
C953 C951 1.419 . S
C953 C954 1.363 . S
C953 H956 0.929 . S
C954 C953 1.363 . S
C954 C960 1.428 . S
H955 C951 0.930 . S
H956 C953 0.929 . S
S957 N958 1.613 . S
S957 N959 1.610 . S
N958 S957 1.613 . S
N958 C961 1.350 . S
N959 S957 1.610 . S
N959 C960 1.351 . S
C960 C954 1.428 . S
C960 N959 1.351 . S
C960 C961 1.434 . S
C961 C952 1.429 . S
C961 N958 1.350 . S
C961 C960 1.434 . S
C962 C963 1.369 . S
C962 C964 1.419 1_655 S
C962 H966 0.930 . S
C963 C962 1.369 . S
C963 C972 1.429 . S
C964 C962 1.419 1_455 S
C964 C965 1.363 . S
C964 H967 0.929 . S
C965 C964 1.363 . S
C965 C971 1.428 . S
H966 C962 0.930 . S
H967 C964 0.929 . S
S968 N969 1.613 1_455 S
S968 N970 1.610 . S
N969 S968 1.613 1_655 S
N969 C972 1.350 . S
N970 S968 1.610 . S
N970 C971 1.351 . S
C971 C965 1.428 . S
C971 N970 1.351 . S
C971 C972 1.434 1_455 S
C972 C963 1.429 . S
C972 N969 1.350 . S
C972 C971 1.434 1_655 S
C973 C974 1.369 . S
C973 C975 1.419 . S
C973 H977 0.930 . S
C974 C973 1.369 . S
C974 C983 1.429 1_554 S
C975 C973 1.419 . S
C975 C976 1.363 . S
C975 H978 0.929 . S
C976 C975 1.363 . S
C976 C982 1.428 1_554 S
H977 C973 0.930 . S
H978 C975 0.929 . S
S979 N980 1.613 . S
S979 N981 1.610 . S
N980 S979 1.613 . S
N980 C983 1.350 . S
N981 S979 1.610 . S
N981 C982 1.351 . S
C982 C976 1.428 1_556 S
C982 N981 1.351 . S
C982 C983 1.434 . S
C983 C974 1.429 1_556 S
C983 N980 1.350 . S
C983 C982 1.434 . S
C545 C5 1.403 . S
C547 C9 1.416 . S
C556 C43 1.416 . S
C558 C39 1.408 . S
C567 C73 1.409 . S
C569 C77 1.419 1_554 S
C578 C111 1.415 . S
C580 C107 1.404 . S
C589 C145 1.419 . S
C591 C141 1.409 . S
C600 C175 1.407 . S
C602 C179 1.419 . S
C611 C213 1.416 . S
C613 C209 1.404 . S
C622 C247 1.415 . S
C624 C243 1.408 1_556 S
C633 C277 1.403 . S
C635 C281 1.417 1_554 S
C644 C315 1.417 . S
C646 C311 1.409 . S
C655 C345 1.408 . S
C657 C349 1.419 . S
C666 C379 1.409 . S
C668 C383 1.419 . S
C677 C413 1.410 . S
C679 C417 1.418 . S
C688 C447 1.408 1_556 S
C690 C451 1.419 . S
C699 C485 1.417 . S
C701 C481 1.409 . S
C710 C519 1.416 . S
C712 C515 1.409 . S
C721 C2 1.665 . S
C723 C36 1.663 . S
C732 C101 1.612 . S
C734 C67 1.606 . S
C743 C104 1.665 . S
C745 C70 1.662 . S
C754 C33 1.606 1_556 S
C756 C135 1.611 . S
C765 C172 1.667 . S
C767 C138 1.662 1_556 S
C776 C203 1.609 . S
C778 C237 1.609 . S
C787 C206 1.663 . S
C789 C240 1.666 . S
C798 C271 1.610 . S
C800 C169 1.607 . S
C809 C308 1.665 . S
C811 C274 1.663 . S
C820 C339 1.610 . S
C822 C373 1.607 1_556 S
C831 C342 1.664 . S
C833 C376 1.665 . S
C842 C407 1.612 . S
C844 C305 1.607 . S
C853 C410 1.666 . S
C855 C444 1.662 . S
C864 C475 1.606 . S
C866 C509 1.609 . S
C875 C512 1.662 . S
C877 C478 1.666 1_556 S
C886 C441 1.611 . S
C888 C543 1.607 . S
C897 C20 1.518 . S
C899 C156 1.516 . S
C908 C462 1.516 . S
C910 C54 1.517 . S
C919 C88 1.515 . S
C921 C224 1.518 . S
C930 C530 1.515 . S
C932 C122 1.518 . S
C941 C326 1.517 . S
C943 C190 1.516 . S
C952 C258 1.518 . S
C954 C394 1.516 . S
C963 C292 1.516 . S
C965 C428 1.517 . S
C974 C496 1.517 . S
C976 C360 1.516 . S
