# Generated by pormake.
# Topology xfb, (7)-cn, num edge types: 1
# Building blocks:
#     Node 0, Type 0, BuildingBlock: HICVOG_clean_sbu_0, # of connection points: 7
#     Node 1, Type 0, BuildingBlock: HICVOG_clean_sbu_0, # of connection points: 7
#     Node 2, Type 0, BuildingBlock: HICVOG_clean_sbu_0, # of connection points: 7
#     Node 3, Type 0, BuildingBlock: HICVOG_clean_sbu_0, # of connection points: 7
#     Node 4, Type 0, BuildingBlock: HICVOG_clean_sbu_0, # of connection points: 7
#     Node 5, Type 0, BuildingBlock: HICVOG_clean_sbu_0, # of connection points: 7
#     Node 6, Type 0, BuildingBlock: HICVOG_clean_sbu_0, # of connection points: 7
#     Node 7, Type 0, BuildingBlock: HICVOG_clean_sbu_0, # of connection points: 7
#     Node 8, Type 0, BuildingBlock: HICVOG_clean_sbu_0, # of connection points: 7
#     Node 9, Type 0, BuildingBlock: HICVOG_clean_sbu_0, # of connection points: 7
#     Node 10, Type 0, BuildingBlock: HICVOG_clean_sbu_0, # of connection points: 7
#     Node 11, Type 0, BuildingBlock: HICVOG_clean_sbu_0, # of connection points: 7
#     Node 12, Type 0, BuildingBlock: HICVOG_clean_sbu_0, # of connection points: 7
#     Node 13, Type 0, BuildingBlock: HICVOG_clean_sbu_0, # of connection points: 7
#     Node 14, Type 0, BuildingBlock: HICVOG_clean_sbu_0, # of connection points: 7
#     Node 15, Type 0, BuildingBlock: HICVOG_clean_sbu_0, # of connection points: 7
#     Edge 16, Type (0, 0), BuildingBlock: KIFKEQ_clean_linker_1, # of connection points: 2
#     Edge 17, Type (0, 0), BuildingBlock: KIFKEQ_clean_linker_1, # of connection points: 2
#     Edge 18, Type (0, 0), BuildingBlock: KIFKEQ_clean_linker_1, # of connection points: 2
#     Edge 19, Type (0, 0), BuildingBlock: KIFKEQ_clean_linker_1, # of connection points: 2
#     Edge 20, Type (0, 0), BuildingBlock: KIFKEQ_clean_linker_1, # of connection points: 2
#     Edge 21, Type (0, 0), BuildingBlock: KIFKEQ_clean_linker_1, # of connection points: 2
#     Edge 22, Type (0, 0), BuildingBlock: KIFKEQ_clean_linker_1, # of connection points: 2
#     Edge 23, Type (0, 0), BuildingBlock: KIFKEQ_clean_linker_1, # of connection points: 2
#     Edge 24, Type (0, 0), BuildingBlock: KIFKEQ_clean_linker_1, # of connection points: 2
#     Edge 25, Type (0, 0), BuildingBlock: KIFKEQ_clean_linker_1, # of connection points: 2
#     Edge 26, Type (0, 0), BuildingBlock: KIFKEQ_clean_linker_1, # of connection points: 2
#     Edge 27, Type (0, 0), BuildingBlock: KIFKEQ_clean_linker_1, # of connection points: 2
#     Edge 28, Type (0, 0), BuildingBlock: KIFKEQ_clean_linker_1, # of connection points: 2
#     Edge 29, Type (0, 0), BuildingBlock: KIFKEQ_clean_linker_1, # of connection points: 2
#     Edge 30, Type (0, 0), BuildingBlock: KIFKEQ_clean_linker_1, # of connection points: 2
#     Edge 31, Type (0, 0), BuildingBlock: KIFKEQ_clean_linker_1, # of connection points: 2
#     Edge 32, Type (0, 0), BuildingBlock: KIFKEQ_clean_linker_1, # of connection points: 2
#     Edge 33, Type (0, 0), BuildingBlock: KIFKEQ_clean_linker_1, # of connection points: 2
#     Edge 34, Type (0, 0), BuildingBlock: KIFKEQ_clean_linker_1, # of connection points: 2
#     Edge 35, Type (0, 0), BuildingBlock: KIFKEQ_clean_linker_1, # of connection points: 2
#     Edge 36, Type (0, 0), BuildingBlock: KIFKEQ_clean_linker_1, # of connection points: 2
#     Edge 37, Type (0, 0), BuildingBlock: KIFKEQ_clean_linker_1, # of connection points: 2
#     Edge 38, Type (0, 0), BuildingBlock: KIFKEQ_clean_linker_1, # of connection points: 2
#     Edge 39, Type (0, 0), BuildingBlock: KIFKEQ_clean_linker_1, # of connection points: 2
#     Edge 40, Type (0, 0), BuildingBlock: KIFKEQ_clean_linker_1, # of connection points: 2
#     Edge 41, Type (0, 0), BuildingBlock: KIFKEQ_clean_linker_1, # of connection points: 2
#     Edge 42, Type (0, 0), BuildingBlock: KIFKEQ_clean_linker_1, # of connection points: 2
#     Edge 43, Type (0, 0), BuildingBlock: KIFKEQ_clean_linker_1, # of connection points: 2
#     Edge 44, Type (0, 0), BuildingBlock: KIFKEQ_clean_linker_1, # of connection points: 2
#     Edge 45, Type (0, 0), BuildingBlock: KIFKEQ_clean_linker_1, # of connection points: 2
#     Edge 46, Type (0, 0), BuildingBlock: KIFKEQ_clean_linker_1, # of connection points: 2
#     Edge 47, Type (0, 0), BuildingBlock: KIFKEQ_clean_linker_1, # of connection points: 2
#     Edge 48, Type (0, 0), BuildingBlock: KIFKEQ_clean_linker_1, # of connection points: 2
#     Edge 49, Type (0, 0), BuildingBlock: KIFKEQ_clean_linker_1, # of connection points: 2
#     Edge 50, Type (0, 0), BuildingBlock: KIFKEQ_clean_linker_1, # of connection points: 2
#     Edge 51, Type (0, 0), BuildingBlock: KIFKEQ_clean_linker_1, # of connection points: 2
#     Edge 52, Type (0, 0), BuildingBlock: KIFKEQ_clean_linker_1, # of connection points: 2
#     Edge 53, Type (0, 0), BuildingBlock: KIFKEQ_clean_linker_1, # of connection points: 2
#     Edge 54, Type (0, 0), BuildingBlock: KIFKEQ_clean_linker_1, # of connection points: 2
#     Edge 55, Type (0, 0), BuildingBlock: KIFKEQ_clean_linker_1, # of connection points: 2
#     Edge 56, Type (0, 0), BuildingBlock: KIFKEQ_clean_linker_1, # of connection points: 2
#     Edge 57, Type (0, 0), BuildingBlock: KIFKEQ_clean_linker_1, # of connection points: 2
#     Edge 58, Type (0, 0), BuildingBlock: KIFKEQ_clean_linker_1, # of connection points: 2
#     Edge 59, Type (0, 0), BuildingBlock: KIFKEQ_clean_linker_1, # of connection points: 2
#     Edge 60, Type (0, 0), BuildingBlock: KIFKEQ_clean_linker_1, # of connection points: 2
#     Edge 61, Type (0, 0), BuildingBlock: KIFKEQ_clean_linker_1, # of connection points: 2
#     Edge 62, Type (0, 0), BuildingBlock: KIFKEQ_clean_linker_1, # of connection points: 2
#     Edge 63, Type (0, 0), BuildingBlock: KIFKEQ_clean_linker_1, # of connection points: 2
#     Edge 64, Type (0, 0), BuildingBlock: KIFKEQ_clean_linker_1, # of connection points: 2
#     Edge 65, Type (0, 0), BuildingBlock: KIFKEQ_clean_linker_1, # of connection points: 2
#     Edge 66, Type (0, 0), BuildingBlock: KIFKEQ_clean_linker_1, # of connection points: 2
#     Edge 67, Type (0, 0), BuildingBlock: KIFKEQ_clean_linker_1, # of connection points: 2
#     Edge 68, Type (0, 0), BuildingBlock: KIFKEQ_clean_linker_1, # of connection points: 2
#     Edge 69, Type (0, 0), BuildingBlock: KIFKEQ_clean_linker_1, # of connection points: 2
#     Edge 70, Type (0, 0), BuildingBlock: KIFKEQ_clean_linker_1, # of connection points: 2
#     Edge 71, Type (0, 0), BuildingBlock: KIFKEQ_clean_linker_1, # of connection points: 2
# Relax obj value: 0.142
# Max RMSD: 0.213
# Mean RMSD: 0.213
data_MOF--net-xfb--node1-HICVOG_clean_sbu_0--edge1-KIFKEQ_clean_linker_1
_symmetry_space_group_name_H-M    P1
_symmetry_Int_Tables_number       1
_symmetry_cell_setting            triclinic
loop_
_symmetry_equiv_pos_as_xyz
'x, y, z'
_cell_length_a     59.869549
_cell_length_b     59.832413
_cell_length_c     20.518806
_cell_angle_alpha  89.951456
_cell_angle_beta   90.031754
_cell_angle_gamma 89.987743
loop_
_atom_site_label
_atom_site_type_symbol
_atom_site_fract_x
_atom_site_fract_y
_atom_site_fract_z
_atom_type_partial_charge
Zn0 Zn 0.15197 0.18493 0.12208 0.0
C1 C 0.18865 0.21125 0.26405 0.0
N2 N 0.17232 0.22674 0.26624 0.0
C3 C 0.15651 0.21815 0.22722 0.0
N4 N 0.16294 0.19857 0.20124 0.0
N5 N 0.1825 0.19353 0.22724 0.0
C6 C 0.23192 0.1493 0.25248 0.0
O7 O 0.22548 0.14617 0.19194 0.0
O8 O 0.11881 0.18996 0.11167 0.0
Zn9 Zn 0.18621 0.16366 0.2636 0.0
N10 N 0.1685 0.19684 0.0472 0.0
C11 C 0.19728 0.22098 1.00923 0.0
C12 C 0.18451 0.21235 0.05988 0.0
C13 C 0.16484 0.18947 0.98507 0.0
N14 N 0.19362 0.21375 0.94756 0.0
C15 C 0.17775 0.19821 0.93312 0.0
O16 O 0.17654 0.13814 0.20295 0.0
C17 C 0.16464 0.13531 0.15198 0.0
O18 O 0.1556 0.15167 0.1224 0.0
H19 H 0.18732 0.21809 0.10904 0.0
H20 H 0.15236 0.17673 0.97701 0.0
C21 C 0.17201 0.16665 0.40145 0.0
C22 C 0.15561 0.16536 0.45098 0.0
C23 C 0.12887 0.15442 0.37139 0.0
C24 C 0.14507 0.15565 0.32303 0.0
N25 N 0.16625 0.16179 0.33857 0.0
N26 N 0.13448 0.15931 0.43375 0.0
H27 H 0.18892 0.17186 0.41219 0.0
C28 C 0.10585 0.18749 0.16026 0.0
O29 O 0.11454 0.18356 0.21792 0.0
O30 O 0.21811 0.15765 0.29282 0.0
H31 H 0.14078 0.1519 0.27307 0.0
H32 H 0.21005 0.23334 0.01879 0.0
H33 H 0.11192 0.14968 0.35949 0.0
Zn34 Zn 0.58029 0.40296 0.38154 0.0
C35 C 0.54954 0.43435 0.52821 0.0
N36 N 0.53488 0.41742 0.52319 0.0
C37 C 0.54453 0.40361 0.48036 0.0
N38 N 0.56429 0.41167 0.45941 0.0
N39 N 0.56792 0.43058 0.49133 0.0
C40 C 0.62076 0.47374 0.57908 0.0
O41 O 0.63549 0.45762 0.58597 0.0
O42 O 0.57726 0.36988 0.36458 0.0
Zn43 Zn 0.59742 0.43673 0.52735 0.0
N44 N 0.56886 0.42051 0.30858 0.0
C45 C 0.54534 0.45003 0.27207 0.0
C46 C 0.55386 0.43692 0.32222 0.0
C47 C 0.5758 0.41674 0.24627 0.0
N48 N 0.55213 0.44623 0.21006 0.0
C49 C 0.56714 0.42993 0.19493 0.0
O50 O 0.62395 0.4287 0.4696 0.0
C51 C 0.62857 0.41713 0.41928 0.0
O52 O 0.6134 0.40744 0.38654 0.0
H53 H 0.54849 0.43986 0.37168 0.0
H54 H 0.5881 0.40386 0.23767 0.0
C55 C 0.59603 0.42263 0.66455 0.0
C56 C 0.59786 0.40627 0.7139 0.0
C57 C 0.60832 0.37953 0.63391 0.0
C58 C 0.6065 0.39571 0.58555 0.0
N59 N 0.60038 0.41686 0.60153 0.0
N60 N 0.60392 0.38514 0.69657 0.0
H61 H 0.59075 0.4395 0.67552 0.0
C62 C 0.57874 0.35592 0.41117 0.0
O63 O 0.58058 0.36335 0.47114 0.0
O64 O 0.60166 0.46898 0.55552 0.0
H65 H 0.60974 0.39143 0.53528 0.0
H66 H 0.5334 0.46313 0.28226 0.0
H67 H 0.61307 0.36259 0.62178 0.0
Zn68 Zn 0.36001 0.82893 0.60916 0.0
C69 C 0.32881 0.79994 0.75888 0.0
N70 N 0.34564 0.78511 0.75337 0.0
C71 C 0.35924 0.79473 0.70996 0.0
N72 N 0.35108 0.81433 0.6886 0.0
N73 N 0.33244 0.81825 0.72135 0.0
C74 C 0.28864 0.87238 0.80099 0.0
O75 O 0.30458 0.88738 0.80612 0.0
O76 O 0.39302 0.82461 0.59459 0.0
Zn77 Zn 0.32614 0.84836 0.75401 0.0
N78 N 0.34261 0.81704 0.53659 0.0
C79 C 0.31222 0.79449 0.50108 0.0
C80 C 0.32573 0.80266 0.55085 0.0
C81 C 0.34646 0.82371 0.47398 0.0
N82 N 0.31598 0.80115 0.43886 0.0
C83 C 0.33274 0.81557 0.4232 0.0
O84 O 0.33494 0.87429 0.69311 0.0
C85 C 0.3465 0.87783 0.64192 0.0
O86 O 0.3558 0.86196 0.61112 0.0
H87 H 0.32264 0.79762 0.60061 0.0
H88 H 0.35963 0.83565 0.46455 0.0
C89 C 0.33889 0.84805 0.89291 0.0
C90 C 0.35426 0.85187 0.94404 0.0
C91 C 0.38115 0.86373 0.86608 0.0
C92 C 0.36596 0.85994 0.81605 0.0
N93 N 0.34515 0.85233 0.83014 0.0
N94 N 0.37496 0.85969 0.92849 0.0
H95 H 0.32213 0.84216 0.90259 0.0
C96 C 0.40617 0.82822 0.64217 0.0
O97 O 0.39767 0.83313 0.69941 0.0
O98 O 0.29365 0.85301 0.77982 0.0
H99 H 0.37069 0.86312 0.76607 0.0
H100 H 0.29873 0.78304 0.51182 0.0
H101 H 0.39775 0.86987 0.85548 0.0
Zn102 Zn 0.9135 0.57604 1.0094 0.0
C103 C 0.96787 0.60697 0.97339 0.0
N104 N 0.97673 0.59118 0.01206 0.0
C105 C 0.96128 0.57481 0.01062 0.0
N106 N 0.9434 0.58088 0.97436 0.0
N107 N 0.94816 0.60051 0.94822 0.0
C108 C 0.93625 0.65747 0.90564 0.0
O109 O 0.93227 0.64883 0.96334 0.0
O110 O 0.90802 0.54362 0.03493 0.0
Zn111 Zn 0.93435 0.61125 0.86885 0.0
N112 N 0.91073 0.59519 0.08607 0.0
C113 C 0.90106 0.63182 0.12122 0.0
C114 C 0.90422 0.61637 0.07153 0.0
C115 C 0.91452 0.58883 0.14913 0.0
N116 N 0.90457 0.62552 0.18384 0.0
C117 C 0.91128 0.60448 0.19998 0.0
O118 O 0.90111 0.60759 0.86975 0.0
C119 C 0.88491 0.59821 0.89903 0.0
O120 O 0.88797 0.58588 0.94904 0.0
H121 H 0.90138 0.62116 0.02142 0.0
H122 H 0.91952 0.57181 0.15936 0.0
C123 C 0.93858 0.59795 0.73206 0.0
C124 C 0.94684 0.58453 0.68067 0.0
C125 C 0.96974 0.5652 0.75682 0.0
C126 C 0.96154 0.57843 0.8071 0.0
N127 N 0.94612 0.59453 0.79417 0.0
N128 N 0.9622 0.56849 0.69525 0.0
H129 H 0.92597 0.61055 0.7234 0.0
C130 C 0.8888 0.53895 0.05784 0.0
O131 O 0.8742 0.55517 0.06478 0.0
O132 O 0.93914 0.64442 0.85743 0.0
H133 H 0.96743 0.5758 0.85622 0.0
H134 H 0.89581 0.6487 0.11018 0.0
H135 H 0.98196 0.55231 0.76665 0.0
Zn136 Zn 0.82563 0.84866 0.76331 0.0
C137 C 0.85703 0.7947 0.80816 0.0
N138 N 0.84143 0.78491 0.77085 0.0
C139 C 0.8253 0.80057 0.76719 0.0
N140 N 0.83113 0.81925 0.80021 0.0
N141 N 0.85062 0.81513 0.82802 0.0
C142 C 0.907 0.82777 0.873 0.0
O143 O 0.89885 0.83144 0.81452 0.0
O144 O 0.79308 0.85349 0.73797 0.0
Zn145 Zn 0.86058 0.83014 0.90613 0.0
N146 N 0.84532 0.85084 0.68798 0.0
C147 C 0.88267 0.85855 0.65547 0.0
C148 C 0.86646 0.85708 0.70372 0.0
C149 C 0.83964 0.84598 0.62512 0.0
N150 N 0.8771 0.8538 0.593 0.0
C151 C 0.85602 0.84761 0.57576 0.0
O152 O 0.85699 0.86357 0.90213 0.0
C153 C 0.84718 0.87903 0.87049 0.0
O154 O 0.83489 0.87477 0.82124 0.0
H155 H 0.87073 0.86068 0.75378 0.0
H156 H 0.82281 0.84058 0.61417 0.0
C157 C 0.84694 0.82588 0.04225 0.0
C158 C 0.83364 0.81736 0.09359 0.0
C159 C 0.81375 0.7953 0.01662 0.0
C160 C 0.82693 0.80369 0.96656 0.0
N161 N 0.8433 0.81875 0.97996 0.0
N162 N 0.8174 0.80229 0.07849 0.0
H163 H 0.85976 0.83824 0.05089 0.0
C164 C 0.7881 0.86919 0.69853 0.0
O165 O 0.80423 0.8812 0.67292 0.0
O166 O 0.89356 0.82527 0.92046 0.0
H167 H 0.82412 0.79807 0.91734 0.0
H168 H 0.89958 0.86339 0.66752 0.0
H169 H 0.80069 0.7833 1.00646 0.0
Zn170 Zn 0.41243 0.57549 0.51169 0.0
C171 C 0.467 0.60667 0.54822 0.0
N172 N 0.4758 0.59109 0.50884 0.0
C173 C 0.46031 0.57476 0.50937 0.0
N174 N 0.44243 0.58067 0.54579 0.0
N175 N 0.44724 0.60012 0.57288 0.0
C176 C 0.43542 0.6567 0.61368 0.0
O177 O 0.43122 0.64773 0.55657 0.0
O178 O 0.4072 0.54294 0.48673 0.0
Zn179 Zn 0.43335 0.61076 0.65206 0.0
N180 N 0.40928 0.59453 0.43479 0.0
C181 C 0.39912 0.631 0.39928 0.0
C182 C 0.40248 0.61562 0.44911 0.0
C183 C 0.41316 0.58818 0.3718 0.0
N184 N 0.40273 0.62473 0.33673 0.0
C185 C 0.40973 0.60377 0.3208 0.0
O186 O 0.40013 0.60711 0.65108 0.0
C187 C 0.38391 0.59763 0.62215 0.0
O188 O 0.38693 0.58522 0.57234 0.0
H189 H 0.3996 0.62041 0.49916 0.0
H190 H 0.41841 0.57123 0.36176 0.0
C191 C 0.43756 0.59748 0.78904 0.0
C192 C 0.44569 0.58395 0.84048 0.0
C193 C 0.46832 0.56437 0.76436 0.0
C194 C 0.46022 0.57769 0.71404 0.0
N195 N 0.44502 0.59398 0.72694 0.0
N196 N 0.46086 0.56775 0.82593 0.0
H197 H 0.42508 0.61021 0.79766 0.0
C198 C 0.3879 0.53797 0.46495 0.0
O199 O 0.37302 0.55398 0.45877 0.0
O200 O 0.43827 0.64393 0.66263 0.0
H201 H 0.46604 0.57499 0.66492 0.0
H202 H 0.39364 0.64781 0.41014 0.0
H203 H 0.48038 0.55134 0.75455 0.0
Zn204 Zn 0.68727 0.16355 0.27138 0.0
C205 C 0.65632 0.2179 0.30979 0.0
N206 N 0.67174 0.22689 0.27026 0.0
C207 C 0.68808 0.2114 0.26996 0.0
N208 N 0.68237 0.19342 0.30634 0.0
N209 N 0.66297 0.19809 0.33385 0.0
C210 C 0.60635 0.1864 0.3789 0.0
O211 O 0.61462 0.18239 0.32079 0.0
O212 O 0.71985 0.15799 0.24782 0.0
Zn213 Zn 0.65271 0.18417 0.41335 0.0
N214 N 0.66806 0.16103 0.19472 0.0
C215 C 0.63143 0.15141 0.15965 0.0
C216 C 0.64695 0.15439 0.20926 0.0
C217 C 0.67425 0.16526 0.13179 0.0
N218 N 0.6376 0.1552 0.09709 0.0
C219 C 0.65857 0.16209 0.08102 0.0
O220 O 0.65614 0.15092 0.41175 0.0
C221 C 0.66528 0.13478 0.38156 0.0
O222 O 0.67737 0.13798 0.3312 0.0
H223 H 0.64224 0.15133 0.25931 0.0
H224 H 0.69119 0.17046 0.12159 0.0
C225 C 0.66626 0.18861 0.54948 0.0
C226 C 0.67986 0.19672 0.60061 0.0
C227 C 0.69989 0.21868 0.52375 0.0
C228 C 0.68644 0.21064 0.47371 0.0
N229 N 0.66991 0.19576 0.48716 0.0
N230 N 0.69635 0.21154 0.58559 0.0
H231 H 0.65329 0.17641 0.5585 0.0
C232 C 0.72482 0.14194 0.20967 0.0
O233 O 0.70867 0.12988 0.18435 0.0
O234 O 0.61968 0.18917 0.42652 0.0
H235 H 0.6892 0.21627 0.42441 0.0
H236 H 0.61459 0.14604 0.17067 0.0
H237 H 0.71311 0.23049 0.51352 0.0
Zn238 Zn 0.07964 0.40184 0.14211 0.0
C239 C 0.04786 0.43231 0.9969 0.0
N240 N 0.03312 0.41554 1.00526 0.0
C241 C 0.04362 0.40189 0.04689 0.0
N242 N 0.06363 0.40997 0.06457 0.0
N243 N 0.06686 0.42863 0.03127 0.0
C244 C 0.11624 0.47198 0.92842 0.0
O245 O 0.12899 0.45586 0.90598 0.0
O246 O 0.07454 0.36952 0.16483 0.0
Zn247 Zn 0.09628 0.43479 0.99477 0.0
N248 N 0.07013 0.42131 0.2128 0.0
C249 C 0.05345 0.45558 0.24549 0.0
C250 C 0.06 0.44088 0.19669 0.0
C251 C 0.07402 0.41582 0.27629 0.0
N252 N 0.05746 0.45024 0.30862 0.0
C253 C 0.06765 0.43079 0.32626 0.0
O254 O 0.12332 0.42649 0.05143 0.0
C255 C 0.12793 0.41389 0.09979 0.0
O256 O 0.11273 0.40424 0.13254 0.0
H257 H 0.05705 0.44514 0.14634 0.0
H258 H 0.08183 0.39996 0.28684 0.0
C259 C 0.09326 0.42048 0.85807 0.0
C260 C 0.09575 0.40446 0.80797 0.0
C261 C 0.1085 0.37816 0.88669 0.0
C262 C 0.10619 0.39405 0.93553 0.0
N263 N 0.0988 0.41489 0.92045 0.0
N264 N 0.10331 0.38373 0.8245 0.0
H265 H 0.0868 0.43702 0.84842 0.0
C266 C 0.0772 0.35494 0.12045 0.0
O267 O 0.08112 0.36159 0.0605 0.0
O268 O 0.10027 0.46709 0.96684 0.0
H269 H 0.11015 0.38979 0.9854 0.0
H270 H 0.04535 0.4712 0.23334 0.0
H271 H 0.11436 0.3615 0.89803 0.0
Zn272 Zn 0.65211 0.68226 0.63021 0.0
C273 C 0.68259 0.71405 0.77562 0.0
N274 N 0.66544 0.72843 0.76851 0.0
C275 C 0.65181 0.7178 0.72718 0.0
N276 N 0.66025 0.69802 0.70852 0.0
N277 N 0.67916 0.69508 0.74092 0.0
C278 C 0.73118 0.65185 0.76423 0.0
O279 O 0.72385 0.64767 0.70512 0.0
O280 O 0.61942 0.68656 0.60959 0.0
Zn281 Zn 0.68563 0.66567 0.77764 0.0
N282 N 0.67069 0.69309 0.55905 0.0
C283 C 0.70239 0.71401 0.52479 0.0
C284 C 0.68826 0.70655 0.574 0.0
C285 C 0.66666 0.6868 0.49631 0.0
N286 N 0.69845 0.70772 0.46237 0.0
C287 C 0.68092 0.69433 0.44613 0.0
O288 O 0.67665 0.63897 0.72124 0.0
C289 C 0.66508 0.63406 0.67109 0.0
O290 O 0.6557 0.64908 0.63684 0.0
H291 H 0.69141 0.71142 0.62379 0.0
H292 H 0.65283 0.6757 0.48628 0.0
C293 C 0.67272 0.66606 0.91585 0.0
C294 C 0.65694 0.66318 0.9663 0.0
C295 C 0.62932 0.65433 0.88715 0.0
C296 C 0.64492 0.65719 0.83773 0.0
N297 N 0.66627 0.66286 0.85281 0.0
N298 N 0.63568 0.65732 0.94993 0.0
H299 H 0.6899 0.67037 0.92623 0.0
C300 C 0.60505 0.68391 0.6546 0.0
O301 O 0.61198 0.68033 0.71445 0.0
O302 O 0.718 0.66105 0.80484 0.0
H303 H 0.64013 0.65479 0.78744 0.0
H304 H 0.71646 0.72468 0.53608 0.0
H305 H 0.61229 0.64973 0.87581 0.0
Zn306 Zn 0.07997 0.90165 0.87585 0.0
C307 C 0.05095 0.9371 0.0161 0.0
N308 N 0.03522 0.92104 0.01273 0.0
C309 C 0.04471 0.90555 0.97443 0.0
N310 N 0.06504 0.91195 0.95381 0.0
N311 N 0.06945 0.93127 0.98224 0.0
C312 C 0.11272 0.98214 1.00671 0.0
O313 O 0.11648 0.97544 0.94675 0.0
O314 O 0.07494 0.86863 0.863 0.0
Zn315 Zn 0.09901 0.93635 0.01858 0.0
N316 N 0.06881 0.9188 0.80129 0.0
C317 C 0.04655 0.94921 0.76396 0.0
C318 C 0.05427 0.93568 0.81427 0.0
C319 C 0.07595 0.91489 0.73913 0.0
N320 N 0.05369 0.94543 0.7023 0.0
C321 C 0.06819 0.92862 0.68774 0.0
O322 O 0.12496 0.92721 0.95963 0.0
C323 C 0.12898 0.91496 0.91016 0.0
O324 O 0.11339 0.90518 0.87913 0.0
H325 H 0.04867 0.93871 0.86341 0.0
H326 H 0.08789 0.90166 0.73042 0.0
C327 C 0.09813 0.92277 0.15694 0.0
C328 C 0.10121 0.90684 0.20715 0.0
C329 C 0.11092 0.87972 0.12741 0.0
C330 C 0.10794 0.89546 0.07832 0.0
N331 N 0.10171 0.91664 0.09371 0.0
N332 N 0.10757 0.88577 0.19028 0.0
H333 H 0.09343 0.93982 0.16773 0.0
C334 C 0.07728 0.85547 0.91125 0.0
O335 O 0.08091 0.86396 0.9693 0.0
O336 O 0.10404 0.96847 0.04693 0.0
H337 H 0.11072 0.89091 0.02803 0.0
H338 H 0.03501 0.96271 0.77383 0.0
H339 H 0.11593 0.86282 0.11573 0.0
Zn340 Zn 0.85979 0.33066 0.13079 0.0
C341 C 0.82897 0.30028 0.27901 0.0
N342 N 0.84608 0.2858 0.27312 0.0
C343 C 0.85959 0.29586 0.23029 0.0
N344 N 0.85112 0.31543 0.20965 0.0
N345 N 0.83234 0.31882 0.24223 0.0
C346 C 0.78846 0.37247 0.32341 0.0
O347 O 0.80462 0.38717 0.32973 0.0
O348 O 0.89272 0.32625 0.11525 0.0
Zn349 Zn 0.8257 0.34861 0.27598 0.0
N350 N 0.84214 0.31904 0.0584 0.0
C351 C 0.81149 0.29676 0.02326 0.0
C352 C 0.82512 0.30482 0.07286 0.0
C353 C 0.846 0.32562 0.99575 0.0
N354 N 0.81526 0.30334 0.96098 0.0
C355 C 0.83216 0.31757 0.94514 0.0
O356 O 0.83426 0.37473 0.21635 0.0
C357 C 0.84598 0.37917 0.16611 0.0
O358 O 0.85577 0.36387 0.13406 0.0
H359 H 0.82205 0.2998 0.12261 0.0
H360 H 0.8593 0.33739 0.98612 0.0
C361 C 0.83853 0.34848 0.4147 0.0
C362 C 0.85398 0.35231 0.46559 0.0
C363 C 0.88091 0.36371 0.38718 0.0
C364 C 0.86564 0.35992 0.33738 0.0
N365 N 0.84477 0.35252 0.35182 0.0
N366 N 0.87474 0.35989 0.44973 0.0
H367 H 0.82173 0.34278 0.42464 0.0
C368 C 0.90597 0.32978 0.16264 0.0
O369 O 0.89761 0.33463 0.22006 0.0
O370 O 0.79323 0.35313 0.30155 0.0
H371 H 0.87032 0.36296 0.28731 0.0
H372 H 0.79789 0.28545 0.03416 0.0
H373 H 0.89755 0.36968 0.37631 0.0
Zn374 Zn 0.41362 0.07692 0.51058 0.0
C375 C 0.4686 0.10725 0.47267 0.0
N376 N 0.47749 0.09158 0.51169 0.0
C377 C 0.46175 0.07546 0.51226 0.0
N378 N 0.44374 0.08154 0.47647 0.0
N379 N 0.44867 0.1009 0.44896 0.0
C380 C 0.43436 0.15683 0.40781 0.0
O381 O 0.42704 0.14682 0.46058 0.0
O382 O 0.40773 0.04473 0.5382 0.0
Zn383 Zn 0.43521 0.11166 0.36927 0.0
N384 N 0.41046 0.09636 0.58658 0.0
C385 C 0.39972 0.13274 0.62098 0.0
C386 C 0.40269 0.11707 0.57186 0.0
C387 C 0.41529 0.09052 0.64949 0.0
N388 N 0.40449 0.12704 0.68334 0.0
C389 C 0.41219 0.10638 0.70006 0.0
O390 O 0.40192 0.10801 0.36865 0.0
C391 C 0.38562 0.09871 0.39776 0.0
O392 O 0.38849 0.08667 0.44848 0.0
H393 H 0.39873 0.12136 0.52206 0.0
H394 H 0.4211 0.07377 0.65945 0.0
C395 C 0.44084 0.09936 0.23218 0.0
C396 C 0.44993 0.08662 0.18055 0.0
C397 C 0.47134 0.06606 0.2576 0.0
C398 C 0.46221 0.07853 0.30817 0.0
N399 N 0.44734 0.0951 0.29483 0.0
N400 N 0.46506 0.07039 0.19539 0.0
H401 H 0.42898 0.11263 0.22296 0.0
C402 C 0.3977 0.03161 0.4991 0.0
O403 O 0.39303 0.03876 0.44009 0.0
O404 O 0.44055 0.14488 0.35986 0.0
H405 H 0.46718 0.07514 0.35775 0.0
H406 H 0.3936 0.14931 0.60975 0.0
H407 H 0.48334 0.05297 0.2677 0.0
Zn408 Zn 0.32693 0.34799 0.24166 0.0
C409 C 0.36063 0.2946 0.2827 0.0
N410 N 0.34642 0.2853 0.24023 0.0
C411 C 0.32944 0.29998 0.23744 0.0
N412 N 0.33359 0.3181 0.27509 0.0
N413 N 0.35271 0.31419 0.30566 0.0
C414 C 0.40705 0.33285 0.34778 0.0
O415 O 0.39693 0.34009 0.29505 0.0
O416 O 0.29419 0.35228 0.21759 0.0
Zn417 Zn 0.36195 0.32936 0.38461 0.0
N418 N 0.34602 0.35207 0.16544 0.0
C419 C 0.38159 0.36485 0.12959 0.0
C420 C 0.36603 0.36172 0.17898 0.0
C421 C 0.34081 0.3455 0.10353 0.0
N422 N 0.3765 0.35834 0.06814 0.0
C423 C 0.3565 0.34883 0.05299 0.0
O424 O 0.35689 0.36257 0.38347 0.0
C425 C 0.34684 0.37803 0.35261 0.0
O426 O 0.33513 0.37388 0.30212 0.0
H427 H 0.36995 0.36683 0.22813 0.0
H428 H 0.32489 0.33756 0.09422 0.0
C429 C 0.34885 0.32372 0.52087 0.0
C430 C 0.33629 0.31408 0.57214 0.0
C431 C 0.31773 0.2911 0.49452 0.0
C432 C 0.33016 0.30063 0.44452 0.0
N433 N 0.34553 0.31666 0.45837 0.0
N434 N 0.32107 0.29801 0.55664 0.0
H435 H 0.36084 0.33686 0.52968 0.0
C436 C 0.28883 0.36786 0.1782 0.0
O437 O 0.30468 0.37997 0.15151 0.0
O438 O 0.39529 0.32627 0.39564 0.0
H439 H 0.32752 0.2952 0.39495 0.0
H440 H 0.39763 0.37238 0.13995 0.0
H441 H 0.30547 0.27831 0.48412 0.0
Zn442 Zn 0.91617 0.07664 0.01098 0.0
C443 C 0.96906 0.11093 0.05665 0.0
N444 N 0.9794 0.09699 0.0156 0.0
C445 C 0.96477 0.08002 1.00936 0.0
N446 N 0.94595 0.08382 0.04444 0.0
N447 N 0.94922 0.10283 0.07604 0.0
C448 C 0.93477 0.15822 0.12253 0.0
O449 O 0.93009 0.14986 0.06495 0.0
O450 O 0.91188 0.04399 0.98627 0.0
Zn451 Zn 0.93392 0.11193 0.15417 0.0
N452 N 0.91212 0.0955 0.93451 0.0
C453 C 0.90123 0.13178 0.8993 0.0
C454 C 0.9051 0.1165 0.94905 0.0
C455 C 0.91575 0.08915 0.8715 0.0
N456 N 0.90464 0.12551 0.83666 0.0
C457 C 0.91186 0.10464 0.82062 0.0
O458 O 0.90084 0.10836 0.14867 0.0
C459 C 0.8855 0.09809 0.11813 0.0
O460 O 0.88982 0.08531 0.07004 0.0
H461 H 0.90243 0.12129 0.9992 0.0
H462 H 0.92119 0.07226 0.86143 0.0
C463 C 0.9381 0.09783 0.28976 0.0
C464 C 0.94588 0.0838 0.34041 0.0
C465 C 0.96701 0.06329 0.26277 0.0
C466 C 0.95925 0.07711 0.21316 0.0
N467 N 0.94499 0.09412 0.22729 0.0
N468 N 0.96014 0.0669 0.3248 0.0
H469 H 0.92635 0.11116 0.29922 0.0
C470 C 0.89244 0.03903 0.96555 0.0
O471 O 0.87758 0.05508 0.95974 0.0
O472 O 0.93839 0.14493 0.16983 0.0
H473 H 0.96454 0.07416 0.16364 0.0
H474 H 0.89556 0.14853 0.91029 0.0
H475 H 0.97834 0.0497 0.25207 0.0
Zn476 Zn 0.18521 0.66567 0.74786 0.0
C477 C 0.15528 0.71911 0.80669 0.0
N478 N 0.17065 0.72962 0.77031 0.0
C479 C 0.18632 0.71377 0.76131 0.0
N480 N 0.18048 0.69435 0.79056 0.0
N481 N 0.16137 0.69807 0.82093 0.0
C482 C 0.10455 0.6864 0.87299 0.0
O483 O 0.11105 0.68312 0.81263 0.0
O484 O 0.21732 0.6607 0.71913 0.0
Zn485 Zn 0.15089 0.68005 0.89232 0.0
N486 N 0.16535 0.66629 0.6731 0.0
C487 C 0.12736 0.66288 0.64079 0.0
C488 C 0.1437 0.6622 0.68881 0.0
C489 C 0.17143 0.67116 0.61062 0.0
N490 N 0.13331 0.66763 0.57864 0.0
C491 C 0.15489 0.67179 0.56141 0.0
O492 O 0.15015 0.64749 0.87238 0.0
C493 C 0.16042 0.63261 0.84003 0.0
O494 O 0.17524 0.63761 0.79781 0.0
H495 H 0.13916 0.65862 0.73865 0.0
H496 H 0.18873 0.67487 0.60015 0.0
C497 C 0.16545 0.68559 0.0279 0.0
C498 C 0.18203 0.68642 0.07696 0.0
C499 C 0.21 0.68327 0.99526 0.0
C500 C 0.19359 0.68177 0.94756 0.0
N501 N 0.17171 0.68333 0.96436 0.0
N502 N 0.20386 0.68545 0.05848 0.0
H503 H 0.14787 0.68655 0.03958 0.0
C504 C 0.23055 0.65141 0.7595 0.0
O505 O 0.22333 0.64722 0.81873 0.0
O506 O 0.11925 0.68749 0.91768 0.0
H507 H 0.19825 0.67901 0.89745 0.0
H508 H 0.11005 0.65972 0.65276 0.0
H509 H 0.22749 0.68226 0.98237 0.0
Zn510 Zn 0.57903 0.90085 0.63971 0.0
C511 C 0.54909 0.93324 0.49407 0.0
N512 N 0.53455 0.91611 0.49814 0.0
C513 C 0.54454 0.90201 0.53952 0.0
N514 N 0.5641 0.91014 0.56106 0.0
N515 N 0.5676 0.92931 0.53048 0.0
C516 C 0.6113 0.98069 0.51081 0.0
O517 O 0.61503 0.97321 0.57006 0.0
O518 O 0.57403 0.86795 0.65575 0.0
Zn519 Zn 0.59741 0.93529 0.49582 0.0
N520 N 0.56779 0.91869 0.71236 0.0
C521 C 0.54486 0.94885 0.74768 0.0
C522 C 0.55357 0.93573 0.69789 0.0
C523 C 0.57395 0.91449 0.77523 0.0
N524 N 0.55083 0.94461 0.8102 0.0
C525 C 0.56525 0.92785 0.82599 0.0
O526 O 0.62366 0.92601 0.55448 0.0
C527 C 0.62776 0.9136 0.60364 0.0
O528 O 0.61224 0.90393 0.63509 0.0
H529 H 0.54881 0.93905 0.64808 0.0
H530 H 0.58516 0.90074 0.78533 0.0
C531 C 0.5969 0.92222 0.35701 0.0
C532 C 0.59928 0.90617 0.30677 0.0
C533 C 0.60853 0.87884 0.38673 0.0
C534 C 0.60613 0.89466 0.43567 0.0
N535 N 0.6004 0.91597 0.4202 0.0
N536 N 0.60507 0.88494 0.32394 0.0
H537 H 0.5926 0.93939 0.34664 0.0
C538 C 0.57728 0.85437 0.609 0.0
O539 O 0.58197 0.86236 0.55098 0.0
O540 O 0.6024 0.96762 0.46934 0.0
H541 H 0.60881 0.89004 0.48597 0.0
H542 H 0.53341 0.96234 0.73677 0.0
H543 H 0.61308 0.8618 0.39844 0.0
H544 H 0.20789 0.20287 0.83437 0.0
H545 H 0.14115 0.17838 0.87186 0.0
H546 H 0.20324 0.19493 0.71932 0.0
H547 H 0.137 0.16945 0.757 0.0
H548 H 0.12622 0.18144 0.54025 0.0
H549 H 0.13183 0.18801 0.65577 0.0
H550 H 0.20049 0.16665 0.63786 0.0
H551 H 0.19494 0.1604 0.52139 0.0
C552 C 0.19227 0.19555 0.8185 0.0
C553 C 0.17495 0.19131 0.8634 0.0
C554 C 0.18971 0.19078 0.75216 0.0
C555 C 0.16973 0.18158 0.72831 0.0
C556 C 0.15255 0.17684 0.77323 0.0
C557 C 0.15507 0.18168 0.83975 0.0
C558 C 0.14257 0.17816 0.56072 0.0
C559 C 0.16014 0.17051 0.52096 0.0
C560 C 0.14574 0.18177 0.62739 0.0
C561 C 0.16656 0.17769 0.65678 0.0
C562 C 0.18427 0.17024 0.61699 0.0
C563 C 0.18111 0.16672 0.54992 0.0
H564 H 0.5811 0.37737 0.80328 0.0
H565 H 0.60441 0.44536 0.78326 0.0
H566 H 0.5748 0.38338 0.91881 0.0
H567 H 0.59853 0.45128 0.89968 0.0
H568 H 0.56283 0.4601 0.09609 0.0
H569 H 0.57024 0.45503 0.98087 0.0
H570 H 0.594 0.38812 0.01905 0.0
H571 H 0.58548 0.39263 0.13381 0.0
C572 C 0.58495 0.39363 0.8236 0.0
C573 C 0.59311 0.41091 0.78371 0.0
C574 C 0.58149 0.39703 0.89014 0.0
C575 C 0.58632 0.41776 0.91902 0.0
C576 C 0.59435 0.43516 0.87906 0.0
C577 C 0.59767 0.4318 0.81213 0.0
C578 C 0.56965 0.44425 0.08023 0.0
C579 C 0.57357 0.42685 0.12516 0.0
C580 C 0.57411 0.44144 0.01388 0.0
C581 C 0.58269 0.42116 0.9903 0.0
C582 C 0.58709 0.40389 0.03522 0.0
C583 C 0.58251 0.40664 0.10166 0.0
H584 H 0.30066 0.81714 0.32914 0.0
H585 H 0.37121 0.82868 0.35848 0.0
H586 H 0.30463 0.82664 0.21445 0.0
H587 H 0.37519 0.83795 0.24357 0.0
H588 H 0.37175 0.87343 0.04878 0.0
H589 H 0.3661 0.86567 0.16381 0.0
H590 H 0.32003 0.81278 0.11419 0.0
H591 H 0.32547 0.82076 0.99867 0.0
C592 C 0.31705 0.8217 0.31124 0.0
C593 C 0.33554 0.82233 0.35367 0.0
C594 C 0.31934 0.82705 0.24519 0.0
C595 C 0.34022 0.83308 0.21941 0.0
C596 C 0.35874 0.83379 0.26181 0.0
C597 C 0.35644 0.8285 0.32804 0.0
C598 C 0.3603 0.86019 0.06224 0.0
C599 C 0.34901 0.84782 0.01409 0.0
C600 C 0.35717 0.85564 0.12842 0.0
C601 C 0.34274 0.83847 0.14863 0.0
C602 C 0.33107 0.82633 0.10059 0.0
C603 C 0.33414 0.83095 0.03412 0.0
H604 H 0.93239 0.62246 0.6154 0.0
H605 H 0.94514 0.55203 0.58796 0.0
H606 H 0.9231 0.62599 0.50027 0.0
H607 H 0.93545 0.55546 0.4733 0.0
H608 H 0.94138 0.57508 0.25674 0.0
H609 H 0.94884 0.56999 0.37277 0.0
H610 H 0.89648 0.61711 0.41884 0.0
H611 H 0.88941 0.62251 0.30333 0.0
C612 C 0.93279 0.60762 0.58531 0.0
C613 C 0.93942 0.58692 0.61148 0.0
C614 C 0.92747 0.60964 0.51893 0.0
C615 C 0.92853 0.59101 0.47691 0.0
C616 C 0.93481 0.57028 0.5035 0.0
C617 C 0.94025 0.5683 0.56961 0.0
C618 C 0.93121 0.58407 0.29158 0.0
C619 C 0.91475 0.59919 0.27037 0.0
C620 C 0.93551 0.58119 0.35838 0.0
C621 C 0.92339 0.59327 0.40569 0.0
C622 C 0.90653 0.60788 0.38422 0.0
C623 C 0.90236 0.61086 0.31771 0.0
H624 H 0.80312 0.81334 0.1914 0.0
H625 H 0.87072 0.83578 0.15579 0.0
H626 H 0.80784 0.82062 0.30677 0.0
H627 H 0.87492 0.84414 0.27091 0.0
H628 H 0.88499 0.83073 0.48689 0.0
H629 H 0.8793 0.82475 0.37107 0.0
H630 H 0.81141 0.84853 0.38892 0.0
H631 H 0.81702 0.85409 0.50566 0.0
C632 C 0.81894 0.82009 0.20777 0.0
C633 C 0.83649 0.82395 0.16338 0.0
C634 C 0.82154 0.82448 0.27425 0.0
C635 C 0.84178 0.83292 0.29859 0.0
C636 C 0.85918 0.83732 0.25418 0.0
C637 C 0.85663 0.83283 0.18755 0.0
C638 C 0.86879 0.83463 0.46626 0.0
C639 C 0.85144 0.84275 0.5059 0.0
C640 C 0.86559 0.83137 0.39952 0.0
C641 C 0.84496 0.83634 0.37013 0.0
C642 C 0.82746 0.84426 0.40987 0.0
C643 C 0.83064 0.84738 0.477 0.0
H644 H 0.44396 0.55147 0.93337 0.0
H645 H 0.43133 0.62193 0.90559 0.0
H646 H 0.43426 0.5549 0.04796 0.0
H647 H 0.42198 0.62544 0.02065 0.0
H648 H 0.38791 0.62173 0.21708 0.0
H649 H 0.39517 0.61641 0.10169 0.0
H650 H 0.44768 0.56952 0.14857 0.0
H651 H 0.44008 0.57456 0.26449 0.0
C652 C 0.4391 0.56774 0.95162 0.0
C653 C 0.4383 0.58637 0.90966 0.0
C654 C 0.43365 0.56972 0.01769 0.0
C655 C 0.42737 0.59045 0.04414 0.0
C656 C 0.42635 0.60909 1.00206 0.0
C657 C 0.4317 0.60708 0.93573 0.0
C658 C 0.40094 0.61015 0.20292 0.0
C659 C 0.41333 0.59853 0.25046 0.0
C660 C 0.40521 0.60721 0.13648 0.0
C661 C 0.42217 0.59269 0.11528 0.0
C662 C 0.43429 0.58066 0.16277 0.0
C663 C 0.4299 0.5835 0.2295 0.0
H664 H 0.64034 0.14054 0.9774 0.0
H665 H 0.68813 0.19212 0.02478 0.0
H666 H 0.64599 0.14758 0.86201 0.0
H667 H 0.69351 0.19948 0.90884 0.0
H668 H 0.71212 0.19465 0.69402 0.0
H669 H 0.70823 0.18536 0.80887 0.0
H670 H 0.63753 0.17462 0.78071 0.0
H671 H 0.64148 0.18356 0.66551 0.0
C672 C 0.65211 0.15341 0.96324 0.0
C673 C 0.66382 0.16568 0.01074 0.0
C674 C 0.65524 0.15754 0.89682 0.0
C675 C 0.67007 0.17424 0.87565 0.0
C676 C 0.68215 0.18628 0.92309 0.0
C677 C 0.6791 0.18203 0.98981 0.0
C678 C 0.69572 0.19021 0.71217 0.0
C679 C 0.67716 0.1897 0.66997 0.0
C680 C 0.69348 0.185 0.77834 0.0
C681 C 0.67257 0.17926 0.80455 0.0
C682 C 0.654 0.17856 0.76226 0.0
C683 C 0.65627 0.18367 0.69586 0.0
H684 H 0.09632 0.4 0.38564 0.0
H685 H 0.04842 0.45212 0.42951 0.0
H686 H 0.10223 0.39418 0.50137 0.0
H687 H 0.05489 0.4464 0.54518 0.0
H688 H 0.0927 0.44531 0.74289 0.0
H689 H 0.08559 0.45137 0.62739 0.0
H690 H 0.0808 0.38016 0.59755 0.0
H691 H 0.08744 0.37389 0.71281 0.0
C692 C 0.08675 0.41005 0.41926 0.0
C693 C 0.07156 0.42638 0.39713 0.0
C694 C 0.0903 0.40674 0.48603 0.0
C695 C 0.07901 0.41982 0.53242 0.0
C696 C 0.06401 0.43621 0.51064 0.0
C697 C 0.06029 0.4394 0.44404 0.0
C698 C 0.08971 0.43088 0.71242 0.0
C699 C 0.09049 0.40905 0.73809 0.0
C700 C 0.08575 0.43441 0.64586 0.0
C701 C 0.08274 0.41623 0.60332 0.0
C702 C 0.08338 0.3945 0.62887 0.0
C703 C 0.08714 0.39096 0.69523 0.0
H704 H 0.68788 0.6916 0.02268 0.0
H705 H 0.63787 0.64202 0.06928 0.0
H706 H 0.69397 0.69809 0.13862 0.0
H707 H 0.64417 0.64831 0.18484 0.0
H708 H 0.64166 0.68472 0.38084 0.0
H709 H 0.63707 0.67639 0.26558 0.0
H710 H 0.70837 0.68191 0.23768 0.0
H711 H 0.71298 0.69048 0.35284 0.0
C712 C 0.67851 0.68174 0.05746 0.0
C713 C 0.66243 0.6662 0.03644 0.0
C714 C 0.68197 0.68551 0.12412 0.0
C715 C 0.66946 0.67382 0.17125 0.0
C716 C 0.65379 0.65794 0.15006 0.0
C717 C 0.65027 0.65425 0.08365 0.0
C718 C 0.65643 0.68379 0.35056 0.0
C719 C 0.67774 0.68807 0.37655 0.0
C720 C 0.65378 0.67905 0.2842 0.0
C721 C 0.67236 0.67845 0.24215 0.0
C722 C 0.69366 0.68256 0.2683 0.0
C723 C 0.6963 0.68737 0.33452 0.0
H724 H 0.08028 0.88985 0.62307 0.0
H725 H 0.07142 0.96086 0.59471 0.0
H726 H 0.089 0.88566 0.50775 0.0
H727 H 0.08048 0.95673 0.47986 0.0
H728 H 0.07212 0.93699 0.26456 0.0
H729 H 0.06535 0.9424 0.38066 0.0
H730 H 0.11607 0.89337 0.42563 0.0
H731 H 0.12256 0.88771 0.30993 0.0
C732 C 0.08063 0.90465 0.59271 0.0
C733 C 0.07525 0.92573 0.61859 0.0
C734 C 0.0856 0.90225 0.52629 0.0
C735 C 0.0854 0.92086 0.48407 0.0
C736 C 0.08041 0.94195 0.51036 0.0
C737 C 0.07533 0.94433 0.57651 0.0
C738 C 0.0821 0.92764 0.29912 0.0
C739 C 0.09797 0.91197 0.2776 0.0
C740 C 0.07819 0.9307 0.36594 0.0
C741 C 0.09008 0.91824 0.41289 0.0
C742 C 0.10626 0.90295 0.39116 0.0
C743 C 0.11007 0.89981 0.3246 0.0
H744 H 0.87077 0.33 0.88018 0.0
H745 H 0.80003 0.31949 0.85134 0.0
H746 H 0.87484 0.33897 0.76509 0.0
H747 H 0.8041 0.32867 0.73645 0.0
H748 H 0.82495 0.32162 0.52099 0.0
H749 H 0.81942 0.3141 0.63671 0.0
H750 H 0.86596 0.36673 0.68487 0.0
H751 H 0.87168 0.37407 0.56962 0.0
C752 C 0.85599 0.32999 0.84979 0.0
C753 C 0.83501 0.32419 0.87558 0.0
C754 C 0.85834 0.3351 0.78349 0.0
C755 C 0.83979 0.33457 0.74122 0.0
C756 C 0.81882 0.32893 0.76715 0.0
C757 C 0.81649 0.32376 0.83329 0.0
C758 C 0.83371 0.33186 0.55616 0.0
C759 C 0.84872 0.34853 0.53569 0.0
C760 C 0.83059 0.3275 0.62271 0.0
C761 C 0.84236 0.33971 0.67037 0.0
C762 C 0.85695 0.35668 0.64974 0.0
C763 C 0.86013 0.36097 0.58346 0.0
H764 H 0.43765 0.07243 0.7579 0.0
H765 H 0.39743 0.13036 0.80439 0.0
H766 H 0.44538 0.06715 0.87324 0.0
H767 H 0.40615 0.1257 0.91857 0.0
H768 H 0.40976 0.101 0.12804 0.0
H769 H 0.3999 0.10418 0.01313 0.0
H770 H 0.46639 0.0829 0.95964 0.0
H771 H 0.47603 0.07926 0.07421 0.0
C772 C 0.43025 0.08397 0.79216 0.0
C773 C 0.41673 0.10181 0.77074 0.0
C774 C 0.43499 0.08111 0.85873 0.0
C775 C 0.42648 0.09603 0.90577 0.0
C776 C 0.41278 0.11363 0.88437 0.0
C777 C 0.40796 0.11643 0.8182 0.0
C778 C 0.42238 0.09729 0.09187 0.0
C779 C 0.44379 0.09008 0.11074 0.0
C780 C 0.4167 0.09904 0.02568 0.0
C781 C 0.4323 0.09375 0.97653 0.0
C782 C 0.45374 0.0867 0.99566 0.0
C783 C 0.45934 0.08479 0.06164 0.0
H784 H 0.31677 0.34943 0.98414 0.0
H785 H 0.38702 0.33447 0.96481 0.0
H786 H 0.31156 0.34224 0.86797 0.0
H787 H 0.38179 0.32678 0.84962 0.0
H788 H 0.3715 0.33612 0.63405 0.0
H789 H 0.37505 0.34487 0.74895 0.0
H790 H 0.31109 0.31405 0.78637 0.0
H791 H 0.30687 0.30635 0.67112 0.0
C792 C 0.33101 0.34417 0.9555 0.0
C793 C 0.3523 0.34245 0.98398 0.0
C794 C 0.32806 0.34011 0.88868 0.0
C795 C 0.3463 0.33411 0.84889 0.0
C796 C 0.36744 0.33189 0.87803 0.0
C797 C 0.3704 0.33611 0.94442 0.0
C798 C 0.35791 0.33158 0.66605 0.0
C799 C 0.33877 0.32059 0.6422 0.0
C800 C 0.36013 0.33632 0.73263 0.0
C801 C 0.34343 0.33006 0.77746 0.0
C802 C 0.32421 0.31939 0.75355 0.0
C803 C 0.32191 0.31477 0.68709 0.0
H804 H 0.9435 0.05135 0.43319 0.0
H805 H 0.93336 0.12227 0.40611 0.0
H806 H 0.93432 0.05509 0.54811 0.0
H807 H 0.9244 0.12602 0.52131 0.0
H808 H 0.88987 0.12266 0.71734 0.0
H809 H 0.89682 0.11713 0.60185 0.0
H810 H 0.94912 0.06995 0.64807 0.0
H811 H 0.94197 0.07527 0.76406 0.0
C812 C 0.93929 0.06777 0.45164 0.0
C813 C 0.93901 0.08646 0.40984 0.0
C814 C 0.93413 0.06992 0.5178 0.0
C815 C 0.92864 0.09085 0.54432 0.0
C816 C 0.92817 0.10955 0.50249 0.0
C817 C 0.93328 0.10739 0.43612 0.0
C818 C 0.9028 0.11098 0.70304 0.0
C819 C 0.91527 0.09936 0.75036 0.0
C820 C 0.90688 0.10793 0.6366 0.0
C821 C 0.92366 0.09324 0.61533 0.0
C822 C 0.93586 0.0812 0.66254 0.0
C823 C 0.93171 0.08421 0.72926 0.0
H824 H 0.144 0.67202 0.14187 0.0
H825 H 0.20876 0.70209 0.17412 0.0
H826 H 0.13798 0.67053 0.25896 0.0
H827 H 0.20269 0.70038 0.29125 0.0
H828 H 0.19434 0.66567 0.49244 0.0
H829 H 0.20032 0.67133 0.37614 0.0
H830 H 0.13229 0.69418 0.35511 0.0
H831 H 0.12624 0.6887 0.47108 0.0
C832 C 0.15677 0.6788 0.17347 0.0
C833 C 0.17684 0.68736 0.14795 0.0
C834 C 0.15334 0.67782 0.24092 0.0
C835 C 0.16991 0.68525 0.28453 0.0
C836 C 0.18973 0.69422 0.25909 0.0
C837 C 0.19313 0.69528 0.19178 0.0
C838 C 0.18076 0.67235 0.46357 0.0
C839 C 0.15979 0.67679 0.4917 0.0
C840 C 0.18419 0.67552 0.39663 0.0
C841 C 0.16673 0.68309 0.35623 0.0
C842 C 0.14598 0.68798 0.38458 0.0
C843 C 0.14257 0.68489 0.45129 0.0
H844 H 0.61404 0.88186 0.20325 0.0
H845 H 0.576 0.94137 0.24836 0.0
H846 H 0.60632 0.88714 0.08855 0.0
H847 H 0.56936 0.94725 0.13278 0.0
H848 H 0.53896 0.93614 0.93116 0.0
H849 H 0.548 0.93209 0.04603 0.0
H850 H 0.61403 0.90883 0.99481 0.0
H851 H 0.60477 0.91241 0.8796 0.0
C852 C 0.60424 0.89627 0.18896 0.0
C853 C 0.59574 0.91115 0.23605 0.0
C854 C 0.60001 0.89941 0.12263 0.0
C855 C 0.5872 0.91762 0.10092 0.0
C856 C 0.57906 0.93284 0.14763 0.0
C857 C 0.58319 0.92963 0.2143 0.0
C858 C 0.55542 0.9301 0.94432 0.0
C859 C 0.57101 0.92435 0.89587 0.0
C860 C 0.56068 0.92796 0.01042 0.0
C861 C 0.5818 0.92022 0.03016 0.0
C862 C 0.59746 0.9145 0.98165 0.0
C863 C 0.59212 0.91649 0.91536 0.0
H864 H 0.22088 0.2053 0.17261 0.0
H865 H 0.20799 0.23734 0.35684 0.0
H866 H 0.25247 0.22956 0.15473 0.0
H867 H 0.24126 0.26026 0.34308 0.0
H868 H 0.28899 0.31356 0.288 0.0
H869 H 0.25532 0.29084 0.29321 0.0
H870 H 0.28694 0.24143 0.16969 0.0
H871 H 0.31908 0.26526 0.1591 0.0
C872 C 0.22551 0.21684 0.21095 0.0
C873 C 0.21195 0.21938 0.26624 0.0
C874 C 0.24375 0.231 0.20065 0.0
C875 C 0.24952 0.24756 0.24664 0.0
C876 C 0.23704 0.24854 0.30491 0.0
C877 C 0.21828 0.2349 0.314 0.0
C878 C 0.28819 0.2984 0.2593 0.0
C879 C 0.30679 0.29122 0.2233 0.0
C880 C 0.2691 0.28488 0.26394 0.0
C881 C 0.26839 0.26359 0.23408 0.0
C882 C 0.28638 0.2575 0.19364 0.0
C883 C 0.30504 0.2713 0.1874 0.0
H884 H 0.45426 0.54185 0.59864 0.0
H885 H 0.48642 0.55617 0.41545 0.0
H886 H 0.47867 0.51027 0.61509 0.0
H887 H 0.50955 0.52293 0.42776 0.0
H888 H 0.56317 0.47535 0.48145 0.0
H889 H 0.54022 0.50893 0.47792 0.0
H890 H 0.49069 0.47591 0.59794 0.0
H891 H 0.51469 0.44381 0.60683 0.0
C892 C 0.46584 0.53753 0.56013 0.0
C893 C 0.46837 0.55147 0.50561 0.0
C894 C 0.4801 0.5193 0.56965 0.0
C895 C 0.49676 0.51396 0.52357 0.0
C896 C 0.49773 0.52683 0.46596 0.0
C897 C 0.48398 0.54555 0.45767 0.0
C898 C 0.54792 0.4758 0.50976 0.0
C899 C 0.54073 0.45683 0.54414 0.0
C900 C 0.53428 0.49485 0.50609 0.0
C901 C 0.51291 0.49514 0.53538 0.0
C902 C 0.50683 0.47677 0.57446 0.0
C903 C 0.52072 0.45814 0.57973 0.0
H904 H 0.22026 0.70743 0.84605 0.0
H905 H 0.2038 0.739 0.6636 0.0
H906 H 0.25278 0.7309 0.85669 0.0
H907 H 0.2378 0.76127 0.66994 0.0
H908 H 0.28757 0.81394 0.7151 0.0
H909 H 0.25353 0.79171 0.71634 0.0
H910 H 0.28709 0.74191 0.83438 0.0
H911 H 0.31972 0.76529 0.83888 0.0
C912 C 0.22435 0.71856 0.80624 0.0
C913 C 0.20966 0.72112 0.75352 0.0
C914 C 0.24308 0.73233 0.81244 0.0
C915 C 0.2481 0.74862 0.76484 0.0
C916 C 0.23428 0.74971 0.70914 0.0
C917 C 0.21508 0.73643 0.70423 0.0
C918 C 0.28718 0.79882 0.74412 0.0
C919 C 0.3064 0.79141 0.77685 0.0
C920 C 0.26784 0.78557 0.74312 0.0
C921 C 0.26747 0.76433 0.77336 0.0
C922 C 0.28624 0.75798 0.81042 0.0
C923 C 0.30518 0.77151 0.8131 0.0
H924 H 0.01203 0.44152 0.92149 0.0
H925 H 0.06254 0.47352 0.03883 0.0
H926 H 0.98887 0.47437 0.92858 0.0
H927 H 0.04032 0.50762 0.04077 0.0
H928 H 0.98772 0.55622 0.10386 0.0
H929 H 0.01008 0.52242 0.0926 0.0
H930 H 0.97817 0.50928 0.90707 0.0
H931 H 0.95465 0.54172 0.92212 0.0
C932 C 0.01866 0.45605 0.94638 0.0
C933 C 0.03908 0.45476 0.98004 0.0
C934 C 1.00526 0.47508 0.9506 0.0
C935 C 0.01219 0.49379 0.98694 0.0
C936 C 0.03382 0.49334 0.01458 0.0
C937 C 0.04701 0.47396 0.01179 0.0
C938 C 0.98492 0.54546 0.06219 0.0
C939 C 0.96924 0.55146 0.01442 0.0
C940 C 0.9982 0.52637 0.05456 0.0
C941 C 0.99664 0.51315 0.99784 0.0
C942 C 0.97999 0.51864 0.95183 0.0
C943 C 0.96625 0.53731 0.96057 0.0
H944 H 0.79093 0.80854 0.85011 0.0
H945 H 0.80791 0.77365 0.67333 0.0
H946 H 0.75829 0.78527 0.86331 0.0
H947 H 0.77382 0.75168 0.6819 0.0
H948 H 0.7239 0.69984 0.73337 0.0
H949 H 0.7579 0.7221 0.732 0.0
H950 H 0.72402 0.77382 0.84165 0.0
H951 H 0.69141 0.75046 0.84903 0.0
C952 C 0.78703 0.79659 0.81217 0.0
C953 C 0.80194 0.79298 0.76053 0.0
C954 C 0.7682 0.783 0.81978 0.0
C955 C 0.76328 0.76592 0.77453 0.0
C956 C 0.77727 0.76384 0.71953 0.0
C957 C 0.79655 0.77692 0.7133 0.0
C958 C 0.7242 0.71542 0.76011 0.0
C959 C 0.70492 0.72328 0.79152 0.0
C960 C 0.74352 0.72868 0.75751 0.0
C961 C 0.74382 0.7504 0.78466 0.0
C962 C 0.72494 0.75736 0.82014 0.0
C963 C 0.706 0.74385 0.82445 0.0
H964 H 0.72184 0.20497 0.35635 0.0
H965 H 0.70585 0.23767 0.17501 0.0
H966 H 0.75378 0.22913 0.37023 0.0
H967 H 0.73933 0.26054 0.18461 0.0
H968 H 0.7876 0.3139 0.23528 0.0
H969 H 0.75397 0.29103 0.23408 0.0
H970 H 0.78805 0.24096 0.34987 0.0
H971 H 0.82027 0.26488 0.35664 0.0
C972 C 0.72583 0.21663 0.31767 0.0
C973 C 0.71135 0.21939 0.26447 0.0
C974 C 0.74426 0.23073 0.32569 0.0
C975 C 0.74923 0.24747 0.27937 0.0
C976 C 0.73577 0.24867 0.22299 0.0
C977 C 0.71687 0.23507 0.21624 0.0
C978 C 0.78741 0.29855 0.26324 0.0
C979 C 0.80667 0.29122 0.29592 0.0
C980 C 0.76832 0.28496 0.26086 0.0
C981 C 0.76825 0.26348 0.28969 0.0
C982 C 0.787 0.25719 0.32689 0.0
C983 C 0.8057 0.27103 0.33089 0.0
H984 H 1.00039 0.07084 0.9334 0.0
H985 H 0.95046 0.03877 0.05265 0.0
H986 H 0.02368 0.03818 0.94021 0.0
H987 H 0.97262 1.00467 0.05348 0.0
H988 H 0.02438 0.95457 0.1106 0.0
H989 H 1.00231 0.98863 0.10219 0.0
H990 H 0.03528 1.00401 0.91963 0.0
H991 H 0.05869 0.97146 0.93273 0.0
C992 C 0.99389 0.05631 0.95866 0.0
C993 C 0.9736 0.05756 0.99288 0.0
C994 C 0.00737 0.03734 0.96266 0.0
C995 C 1.00062 0.01855 0.99904 0.0
C996 C 0.97907 0.01897 0.02731 0.0
C997 C 0.96586 0.03835 0.02506 0.0
C998 C 0.0275 0.96591 0.0704 0.0
C999 C 0.04341 0.96049 0.02281 0.0
C1000 C 0.01435 0.98516 0.06426 0.0
C1001 C 0.01621 0.9991 1.00899 0.0
C1002 C 0.03316 0.99416 0.96338 0.0
C1003 C 0.04684 0.97537 0.97092 0.0
H1004 H 0.48793 0.0569 0.60626 0.0
H1005 H 0.45475 0.04213 0.42493 0.0
H1006 H 0.51026 0.02309 0.59539 0.0
H1007 H 0.47839 0.0099 0.40972 0.0
H1008 H 0.51356 0.94311 0.41819 0.0
H1009 H 0.48998 0.97549 0.42767 0.0
H1010 H 0.54034 0.00789 0.54615 0.0
H1011 H 0.56282 0.97401 0.54229 0.0
C1012 C 0.4851 0.04608 0.56475 0.0
C1013 C 0.46943 0.05203 0.51693 0.0
C1014 C 0.4984 0.02698 0.55726 0.0
C1015 C 0.49693 0.01374 0.5005 0.0
C1016 C 0.48021 0.01918 0.45457 0.0
C1017 C 0.46639 0.0378 0.46334 0.0
C1018 C 0.51984 0.95734 0.4452 0.0
C1019 C 0.54004 0.95582 0.47989 0.0
C1020 C 0.5062 0.97615 0.45075 0.0
C1021 C 0.51267 0.99451 0.48928 0.0
C1022 C 0.53411 0.99389 0.51826 0.0
C1023 C 0.54749 0.97466 0.51435 0.0
H1024 H 0.13196 0.01469 0.93229 0.0
H1025 H 0.11097 1.00046 0.12943 0.0
H1026 H 0.14615 0.05086 0.96711 0.0
H1027 H 0.1249 0.03698 0.16415 0.0
H1028 H 0.17217 0.09521 0.21427 0.0
H1029 H 0.16001 0.05802 0.1795 0.0
H1030 H 0.13212 0.08656 1.00401 0.0
H1031 H 0.14448 0.12341 0.03784 0.0
C1032 C 0.13021 0.01932 0.98304 0.0
C1033 C 0.12025 1.00465 0.02798 0.0
C1034 C 0.13832 0.04013 1.003 0.0
C1035 C 0.13671 0.04686 0.06848 0.0
C1036 C 0.12669 0.03221 0.11352 0.0
C1037 C 0.11851 0.01136 0.09348 0.0
C1038 C 0.16371 0.09349 0.16788 0.0
C1039 C 0.15934 0.11236 0.12892 0.0
C1040 C 0.15653 0.0722 0.14827 0.0
C1041 C 0.14499 0.06929 0.08906 0.0
C1042 C 0.14114 0.0881 0.04955 0.0
C1043 C 0.14819 0.10931 0.06919 0.0
H1044 H 0.6663 0.42965 0.48625 0.0
H1045 H 0.64469 0.39386 0.31452 0.0
H1046 H 0.70478 0.41861 0.46435 0.0
H1047 H 0.68315 0.38322 0.29212 0.0
H1048 H 0.7503 0.34719 0.31233 0.0
H1049 H 0.71192 0.35875 0.33496 0.0
H1050 H 0.73549 0.4243 0.39023 0.0
H1051 H 0.77371 0.41265 0.36903 0.0
C1052 C 0.66976 0.41972 0.4433 0.0
C1053 C 0.65231 0.41266 0.40227 0.0
C1054 C 0.69186 0.41339 0.4307 0.0
C1055 C 0.6971 0.39984 0.37672 0.0
C1056 C 0.67972 0.39328 0.33482 0.0
C1057 C 0.65764 0.39959 0.34739 0.0
C1058 C 0.74728 0.36402 0.32959 0.0
C1059 C 0.76511 0.37897 0.33882 0.0
C1060 C 0.72525 0.37073 0.34213 0.0
C1061 C 0.72055 0.39252 0.36423 0.0
C1062 C 0.73845 0.40733 0.37403 0.0
C1063 C 0.76041 0.40065 0.3615 0.0
H1064 H 0.3404 0.91729 0.70895 0.0
H1065 H 0.36398 0.89096 0.52542 0.0
H1066 H 0.35212 0.95482 0.67537 0.0
H1067 H 0.37589 0.92807 0.4927 0.0
H1068 H 0.37581 1.0003 0.42663 0.0
H1069 H 0.36145 0.96422 0.46155 0.0
H1070 H 0.3872 0.9758 0.65525 0.0
H1071 H 0.40134 0.01229 0.62045 0.0
C1072 C 0.34782 0.91951 0.66125 0.0
C1073 C 0.3512 0.90106 0.61992 0.0
C1074 C 0.35476 0.94098 0.6423 0.0
C1075 C 0.36504 0.94448 0.58139 0.0
C1076 C 0.36784 0.92609 0.53961 0.0
C1077 C 0.36106 0.90473 0.55859 0.0
C1078 C 0.3785 0.9952 0.47668 0.0
C1079 C 0.38985 0.00921 0.5206 0.0
C1080 C 0.37028 0.97443 0.49669 0.0
C1081 C 0.37316 0.96704 0.56124 0.0
C1082 C 0.38444 0.98107 0.60539 0.0
C1083 C 0.39274 1.0019 0.58526 0.0
H1084 H 0.76301 0.63258 0.68758 0.0
H1085 H 0.75053 0.65344 0.88577 0.0
H1086 H 0.79931 0.61807 0.71987 0.0
H1087 H 0.78721 0.63912 0.918 0.0
H1088 H 0.84522 0.59077 0.96326 0.0
H1089 H 0.80794 0.60352 0.93117 0.0
H1090 H 0.83544 0.63178 0.75489 0.0
H1091 H 0.87239 0.61886 0.78612 0.0
C1092 C 0.76806 0.63424 0.73804 0.0
C1093 C 0.75383 0.64426 0.78402 0.0
C1094 C 0.78895 0.62593 0.75653 0.0
C1095 C 0.79621 0.62738 0.82157 0.0
C1096 C 0.78202 0.63747 0.86766 0.0
C1097 C 0.76109 0.64588 0.84906 0.0
C1098 C 0.84324 0.59943 0.91724 0.0
C1099 C 0.86185 0.60374 0.87729 0.0
C1100 C 0.82191 0.60696 0.8992 0.0
C1101 C 0.81869 0.61878 0.84058 0.0
C1102 C 0.83723 0.62256 0.80004 0.0
C1103 C 0.85849 0.61518 0.81815 0.0
H1104 H 0.85195 0.02394 0.92356 0.0
H1105 H 0.91815 1.001 0.97435 0.0
H1106 H 0.84043 0.98567 0.90286 0.0
H1107 H 0.90669 0.96252 0.95206 0.0
H1108 H 0.87218 0.89471 0.97269 0.0
H1109 H 0.88311 0.93314 0.99519 0.0
H1110 H 0.84545 0.95542 0.82768 0.0
H1111 H 0.83411 0.91705 0.80587 0.0
C1112 C 0.86414 0.01074 0.92988 0.0
C1113 C 0.886 0.01559 0.95071 0.0
C1114 C 0.85753 0.98874 0.91763 0.0
C1115 C 0.87258 0.97092 0.92574 0.0
C1116 C 0.89454 0.97577 0.94616 0.0
C1117 C 0.90117 0.99786 0.95849 0.0
C1118 C 0.86603 0.9078 0.94091 0.0
C1119 C 0.85219 0.90269 0.88746 0.0
C1120 C 0.87251 0.92986 0.95351 0.0
C1121 C 0.86533 0.94744 0.91304 0.0
C1122 C 0.85113 0.94238 0.86034 0.0
C1123 C 0.84463 0.92032 0.84775 0.0
H1124 H 0.26246 0.63188 0.83553 0.0
H1125 H 0.24958 0.65289 0.63755 0.0
H1126 H 0.29862 0.61723 0.8026 0.0
H1127 H 0.28612 0.63844 0.60468 0.0
H1128 H 0.3441 0.59022 0.55836 0.0
H1129 H 0.30686 0.60289 0.59104 0.0
H1130 H 0.33467 0.63094 0.76713 0.0
H1131 H 0.37157 0.6181 0.73532 0.0
C1132 C 0.26739 0.63353 0.78498 0.0
C1133 C 0.25309 0.64365 0.73926 0.0
C1134 C 0.2882 0.62515 0.76611 0.0
C1135 C 0.29532 0.62662 0.70095 0.0
C1136 C 0.28105 0.63678 0.65511 0.0
C1137 C 0.26019 0.64525 0.67408 0.0
C1138 C 0.3422 0.59881 0.60447 0.0
C1139 C 0.36088 0.6031 0.64418 0.0
C1140 C 0.32089 0.60629 0.62286 0.0
C1141 C 0.31776 0.61804 0.6816 0.0
C1142 C 0.33638 0.62178 0.72191 0.0
C1143 C 0.35761 0.61445 0.70345 0.0
H1144 H 0.63065 0.0121 0.58882 0.0
H1145 H 0.60991 1.00052 0.38997 0.0
H1146 H 0.64529 0.0485 0.55793 0.0
H1147 H 0.62433 0.0373 0.35919 0.0
H1148 H 0.67264 0.09533 0.3161 0.0
H1149 H 0.65989 0.05794 0.34699 0.0
H1150 H 0.63172 0.08482 0.5241 0.0
H1151 H 0.64467 0.12189 0.49409 0.0
C1152 C 0.62905 0.01737 0.53852 0.0
C1153 C 0.61903 1.00337 0.49192 0.0
C1154 C 0.63742 0.03832 0.52084 0.0
C1155 C 0.63603 0.04585 0.45605 0.0
C1156 C 0.62594 0.03189 0.40936 0.0
C1157 C 0.61748 0.0109 0.42712 0.0
C1158 C 0.66401 0.09319 0.36205 0.0
C1159 C 0.65973 0.11166 0.40259 0.0
C1160 C 0.65648 0.0718 0.37941 0.0
C1161 C 0.64467 0.06838 0.43789 0.0
C1162 C 0.64093 0.08677 0.47904 0.0
C1163 C 0.64832 0.10809 0.46163 0.0
H1164 H 0.16603 0.43691 0.06617 0.0
H1165 H 0.14331 0.37737 0.16497 0.0
H1166 H 0.20469 0.42601 0.08675 0.0
H1167 H 0.1816 0.36576 0.18199 0.0
H1168 H 0.25256 0.35838 0.25444 0.0
H1169 H 0.21418 0.3707 0.23875 0.0
H1170 H 0.23301 0.40192 0.05659 0.0
H1171 H 0.27158 0.39073 0.07484 0.0
C1172 C 0.1693 0.42148 0.09215 0.0
C1173 C 0.15156 0.40815 0.11436 0.0
C1174 C 0.19151 0.41505 0.10345 0.0
C1175 C 0.19654 0.39487 0.13603 0.0
C1176 C 0.17865 0.38163 0.15812 0.0
C1177 C 0.15655 0.38827 0.14802 0.0
C1178 C 0.24842 0.3678 0.21095 0.0
C1179 C 0.2651 0.37361 0.16597 0.0
C1180 C 0.22633 0.37484 0.20164 0.0
C1181 C 0.22022 0.38746 0.1463 0.0
C1182 C 0.23696 0.39276 0.10061 0.0
C1183 C 0.25911 0.38611 0.11066 0.0
H1184 H 0.59544 0.51181 0.56631 0.0
H1185 H 0.6605 0.48862 0.62759 0.0
H1186 H 0.60677 0.55028 0.58875 0.0
H1187 H 0.67194 0.52695 0.64855 0.0
H1188 H 0.67699 0.59671 0.741 0.0
H1189 H 0.66591 0.55811 0.72078 0.0
H1190 H 0.6314 0.57878 0.5459 0.0
H1191 H 0.64205 0.61735 0.56664 0.0
C1192 C 0.61213 0.5149 0.58461 0.0
C1193 C 0.62705 0.49711 0.59506 0.0
C1194 C 0.6187 0.53697 0.59702 0.0
C1195 C 0.64034 0.54178 0.6202 0.0
C1196 C 0.65509 0.52391 0.63146 0.0
C1197 C 0.64854 0.50189 0.61907 0.0
C1198 C 0.66722 0.59302 0.69789 0.0
C1199 C 0.66041 0.61023 0.65558 0.0
C1200 C 0.66087 0.57084 0.68624 0.0
C1201 C 0.64758 0.5653 0.63195 0.0
C1202 C 0.64124 0.58245 0.58887 0.0
C1203 C 0.64756 0.6046 0.6005 0.0
H1204 H 0.16739 0.92849 0.97189 0.0
H1205 H 0.14407 0.89015 0.80689 0.0
H1206 H 0.20572 0.91784 0.94664 0.0
H1207 H 0.18241 0.87993 0.78096 0.0
H1208 H 0.251 0.84609 0.79519 0.0
H1209 H 0.21262 0.85685 0.82113 0.0
H1210 H 0.23509 0.92348 0.86877 0.0
H1211 H 0.27331 0.91264 0.84438 0.0
C1212 C 0.17042 0.91804 0.92974 0.0
C1213 C 0.15255 0.91021 0.89153 0.0
C1214 C 0.19245 0.91194 0.91515 0.0
C1215 C 0.19722 0.89789 0.8619 0.0
C1216 C 0.17938 0.89042 0.82301 0.0
C1217 C 0.15736 0.89649 0.8376 0.0
C1218 C 0.24773 0.863 0.81142 0.0
C1219 C 0.26527 0.87848 0.8177 0.0
C1220 C 0.2257 0.86924 0.82588 0.0
C1221 C 0.22068 0.89108 0.84698 0.0
C1222 C 0.2383 0.90645 0.85354 0.0
C1223 C 0.26026 0.90024 0.83915 0.0
H1224 H 0.84891 0.52419 0.10589 0.0
H1225 H 0.91421 0.50083 0.04783 0.0
H1226 H 0.83771 0.48601 0.13042 0.0
H1227 H 0.90312 0.46254 0.07375 0.0
H1228 H 0.86884 0.3948 0.05991 0.0
H1229 H 0.87891 0.43319 0.03442 0.0
H1230 H 0.84393 0.45581 0.20622 0.0
H1231 H 0.83345 0.41733 0.23124 0.0
C1232 C 0.86096 0.51092 0.0987 0.0
C1233 C 0.88247 0.51562 0.07468 0.0
C1234 C 0.85455 0.48898 0.11317 0.0
C1235 C 0.86946 0.47111 0.10401 0.0
C1236 C 0.89106 0.47583 0.08049 0.0
C1237 C 0.89749 0.49781 0.06602 0.0
C1238 C 0.8631 0.40793 0.0921 0.0
C1239 C 0.8503 0.40287 0.14775 0.0
C1240 C 0.86908 0.42999 0.07772 0.0
C1241 C 0.86246 0.44765 0.11853 0.0
C1242 C 0.8492 0.44267 0.17335 0.0
C1243 C 0.84319 0.42057 0.18777 0.0
H1244 H 0.2648 0.13083 0.17773 0.0
H1245 H 0.24992 0.15027 0.37574 0.0
H1246 H 0.30112 0.11698 0.21242 0.0
H1247 H 0.28658 0.13667 0.41036 0.0
H1248 H 0.34559 0.09019 0.45898 0.0
H1249 H 0.30827 0.10191 0.42422 0.0
H1250 H 0.33652 0.13138 0.25065 0.0
H1251 H 0.37353 0.11946 0.28449 0.0
C1252 C 0.26931 0.13229 0.22867 0.0
C1253 C 0.25442 0.14175 0.27387 0.0
C1254 C 0.29022 0.12439 0.24855 0.0
C1255 C 0.29683 0.12569 0.31422 0.0
C1256 C 0.28193 0.13514 0.35955 0.0
C1257 C 0.26099 0.14312 0.33959 0.0
C1258 C 0.34379 0.09892 0.413 0.0
C1259 C 0.36262 0.10384 0.37459 0.0
C1260 C 0.32242 0.10584 0.39341 0.0
C1261 C 0.31937 0.11769 0.33474 0.0
C1262 C 0.33816 0.12211 0.29575 0.0
C1263 C 0.35946 0.11532 0.3154 0.0
H1264 H 0.33325 0.41645 0.29061 0.0
H1265 H 0.3703 0.39325 0.45836 0.0
H1266 H 0.34332 0.45487 0.31708 0.0
H1267 H 0.37998 0.43165 0.48539 0.0
H1268 H 0.41397 0.5002 0.47289 0.0
H1269 H 0.40333 0.46181 0.4466 0.0
H1270 H 0.33714 0.4844 0.39452 0.0
H1271 H 0.34787 0.52266 0.41938 0.0
C1272 C 0.34326 0.41952 0.33366 0.0
C1273 C 0.35094 0.40165 0.37224 0.0
C1274 C 0.34904 0.44161 0.34893 0.0
C1275 C 0.36262 0.44643 0.4032 0.0
C1276 C 0.36985 0.42859 0.44257 0.0
C1277 C 0.3641 0.40652 0.42733 0.0
C1278 C 0.39717 0.49697 0.45567 0.0
C1279 C 0.38181 0.51456 0.44828 0.0
C1280 C 0.391 0.47492 0.44099 0.0
C1281 C 0.36932 0.46992 0.41852 0.0
C1282 C 0.35404 0.48758 0.41087 0.0
C1283 C 0.3602 0.50957 0.42553 0.0
H1284 H 0.74116 0.11828 0.10669 0.0
H1285 H 0.76173 0.15179 0.28289 0.0
H1286 H 0.77964 0.1074 0.08561 0.0
H1287 H 0.80005 0.13979 0.26448 0.0
H1288 H 0.87005 0.13446 0.18366 0.0
H1289 H 0.83175 0.14521 0.20429 0.0
H1290 H 0.80891 0.0841 0.1135 0.0
H1291 H 0.84755 0.07405 0.08921 0.0
C1292 C 0.75394 0.12318 0.14123 0.0
C1293 C 0.74842 0.13598 0.1963 0.0
C1294 C 0.77606 0.11673 0.12954 0.0
C1295 C 0.79323 0.12252 0.17335 0.0
C1296 C 0.78755 0.13531 0.22869 0.0
C1297 C 0.76549 0.14215 0.2396 0.0
C1298 C 0.85688 0.12318 0.16846 0.0
C1299 C 0.86193 0.10331 0.13494 0.0
C1300 C 0.83477 0.12933 0.18068 0.0
C1301 C 0.81693 0.11559 0.16094 0.0
C1302 C 0.82203 0.09542 0.12848 0.0
C1303 C 0.84424 0.08948 0.11505 0.0
H1304 H 0.18502 0.59468 0.81614 0.0
H1305 H 0.12092 0.61708 0.88688 0.0
H1306 H 0.17411 0.55598 0.83692 0.0
H1307 H 0.10952 0.57868 0.90423 0.0
H1308 H 0.10291 0.50967 0.99296 0.0
H1309 H 0.11405 0.54808 0.97149 0.0
H1310 H 0.15195 0.52603 0.80399 0.0
H1311 H 0.14175 0.48752 0.82801 0.0
C1312 C 0.16854 0.59131 0.83551 0.0
C1313 C 0.15395 0.60895 0.85044 0.0
C1314 C 0.16216 0.5691 0.84706 0.0
C1315 C 0.14089 0.564 0.87268 0.0
C1316 C 0.12622 0.58177 0.88616 0.0
C1317 C 0.13273 0.6039 0.87578 0.0
C1318 C 0.11355 0.51307 0.95141 0.0
C1319 C 0.1215 0.49555 0.91234 0.0
C1320 C 0.11989 0.53516 0.93874 0.0
C1321 C 0.13401 0.54037 0.88586 0.0
C1322 C 0.1415 0.52278 0.84596 0.0
C1323 C 0.13547 0.50065 0.85935 0.0
H1324 H 0.64276 0.87735 0.67092 0.0
H1325 H 0.66595 0.9371 0.57417 0.0
H1326 H 0.68097 0.86629 0.6923 0.0
H1327 H 0.70446 0.92675 0.59905 0.0
H1328 H 0.77185 0.89211 0.59387 0.0
H1329 H 0.73342 0.90299 0.57195 0.0
H1330 H 0.7128 0.87168 0.75232 0.0
H1331 H 0.75109 0.85967 0.77169 0.0
C1332 C 0.65606 0.88841 0.65533 0.0
C1333 C 0.65125 0.90817 0.62091 0.0
C1334 C 0.67812 0.88208 0.66795 0.0
C1335 C 0.6961 0.89554 0.64768 0.0
C1336 C 0.69122 0.91562 0.6144 0.0
C1337 C 0.66909 0.92173 0.6006 0.0
C1338 C 0.75903 0.88742 0.62855 0.0
C1339 C 0.7645 0.87496 0.68439 0.0
C1340 C 0.73695 0.89388 0.61638 0.0
C1341 C 0.71974 0.88844 0.66042 0.0
C1342 C 0.72534 0.87591 0.7164 0.0
C1343 C 0.74738 0.86906 0.72784 0.0
H1344 H 0.14696 0.234 0.10609 0.0
H1345 H 0.12315 0.23294 0.30403 0.0
H1346 H 0.12096 0.2638 0.07996 0.0
H1347 H 0.0958 0.26183 0.27764 0.0
H1348 H 0.07478 0.31884 0.03946 0.0
H1349 H 0.08652 0.28068 0.06365 0.0
H1350 H 0.09926 0.2999 0.26355 0.0
H1351 H 0.08637 0.33736 0.23994 0.0
C1352 C 0.13546 0.23955 0.14324 0.0
C1353 C 0.13706 0.23137 0.20698 0.0
C1354 C 0.12038 0.25663 0.12837 0.0
C1355 C 0.10642 0.26568 0.17701 0.0
C1356 C 0.10669 0.25583 0.23937 0.0
C1357 C 0.12215 0.23912 0.25445 0.0
C1358 C 0.07957 0.31465 0.08891 0.0
C1359 C 0.07998 0.33113 0.13759 0.0
C1360 C 0.08646 0.29282 0.10275 0.0
C1361 C 0.09433 0.28714 0.16529 0.0
C1362 C 0.09314 0.30335 0.21494 0.0
C1363 C 0.08586 0.32502 0.20135 0.0
H1364 H 0.53878 0.39167 0.35204 0.0
H1365 H 0.52057 0.37392 0.54844 0.0
H1366 H 0.51027 0.36652 0.30983 0.0
H1367 H 0.49099 0.35027 0.50758 0.0
H1368 H 0.43511 0.31169 0.43324 0.0
H1369 H 0.47413 0.32083 0.45515 0.0
H1370 H 0.47213 0.37063 0.30206 0.0
H1371 H 0.43396 0.3604 0.27795 0.0
C1372 C 0.52922 0.38181 0.38609 0.0
C1373 C 0.53199 0.38458 0.4534 0.0
C1374 C 0.51251 0.36767 0.36207 0.0
C1375 C 0.49781 0.35664 0.40508 0.0
C1376 C 0.50193 0.35816 0.47246 0.0
C1377 C 0.51884 0.37191 0.49617 0.0
C1378 C 0.44329 0.32423 0.40351 0.0
C1379 C 0.43142 0.33564 0.35478 0.0
C1380 C 0.46562 0.32958 0.41616 0.0
C1381 C 0.47634 0.34686 0.38146 0.0
C1382 C 0.46477 0.35708 0.32961 0.0
C1383 C 0.44266 0.35136 0.31607 0.0
H1384 H 0.43224 0.68885 0.51935 0.0
H1385 H 0.43267 0.67972 0.72818 0.0
H1386 H 0.42102 0.72771 0.5338 0.0
H1387 H 0.42065 0.71805 0.74272 0.0
H1388 H 0.39871 0.78619 0.76801 0.0
H1389 H 0.42514 0.75691 0.73747 0.0
H1390 H 0.38668 0.74435 0.5627 0.0
H1391 H 0.36123 0.77435 0.59224 0.0
C1392 C 0.43027 0.69523 0.56839 0.0
C1393 C 0.43296 0.6811 0.62261 0.0
C1394 C 0.42372 0.7175 0.57667 0.0
C1395 C 0.41954 0.72605 0.63934 0.0
C1396 C 0.4239 0.71228 0.69364 0.0
C1397 C 0.43066 0.69013 0.68536 0.0
C1398 C 0.39661 0.77773 0.72173 0.0
C1399 C 0.37817 0.78251 0.68206 0.0
C1400 C 0.41154 0.76078 0.70454 0.0
C1401 C 0.40781 0.74782 0.64835 0.0
C1402 C 0.39031 0.754 0.60602 0.0
C1403 C 0.37563 0.77124 0.62278 0.0
H1404 H 0.08644 0.67713 0.99189 0.0
H1405 H 0.0687 0.68981 0.79125 0.0
H1406 H 0.04882 0.66432 0.0136 0.0
H1407 H 0.03047 0.67797 0.8135 0.0
H1408 H 0.98163 0.64066 0.05048 0.0
H1409 H 0.0105 0.66817 0.02568 0.0
H1410 H 0.01391 0.64296 0.82829 0.0
H1411 H 0.98415 0.61663 0.85286 0.0
C1412 C 0.07426 0.67792 0.9529 0.0
C1413 C 0.08064 0.68406 0.88959 0.0
C1414 C 0.05251 0.67066 0.96538 0.0
C1415 C 0.03651 0.66971 0.91503 0.0
C1416 C 0.04244 0.67788 0.85307 0.0
C1417 C 0.06432 0.68483 0.84039 0.0
C1418 C 0.98809 0.64168 1.00124 0.0
C1419 C 0.98078 0.62666 0.95345 0.0
C1420 C 1.00479 0.65724 0.9871 0.0
C1421 C 0.01504 0.65753 0.92538 0.0
C1422 C 0.0064 0.64349 0.87624 0.0
C1423 C 0.98934 0.62827 0.89018 0.0
H1424 H 0.93222 0.67953 0.78969 0.0
H1425 H 0.93314 0.6903 0.99779 0.0
H1426 H 0.91918 0.71747 0.77318 0.0
H1427 H 0.92092 0.72877 0.98126 0.0
H1428 H 0.85997 0.77383 0.92499 0.0
H1429 H 0.88592 0.74416 0.95341 0.0
H1430 H 0.92265 0.75655 0.77548 0.0
H1431 H 0.89576 0.78566 0.74629 0.0
C1432 C 0.93029 0.69023 0.83187 0.0
C1433 C 0.93327 0.68176 0.8951 0.0
C1434 C 0.92294 0.71216 0.82242 0.0
C1435 C 0.91863 0.72622 0.87598 0.0
C1436 C 0.92352 0.71828 0.93897 0.0
C1437 C 0.93066 0.69625 0.94844 0.0
C1438 C 0.87408 0.77075 0.89337 0.0
C1439 C 0.87606 0.78203 0.83388 0.0
C1440 C 0.88905 0.7537 0.90952 0.0
C1441 C 0.9063 0.74764 0.86629 0.0
C1442 C 0.90931 0.7604 0.80927 0.0
C1443 C 0.89411 0.77722 0.7928 0.0
H1444 H 0.48134 0.64099 0.47422 0.0
H1445 H 0.48334 0.6148 0.66963 0.0
H1446 H 0.5108 0.66759 0.50152 0.0
H1447 H 0.51365 0.64012 0.69655 0.0
H1448 H 0.58668 0.67547 0.53558 0.0
H1449 H 0.54896 0.66307 0.51316 0.0
H1450 H 0.53112 0.67431 0.71482 0.0
H1451 H 0.56946 0.68565 0.73768 0.0
C1452 C 0.48781 0.64135 0.52355 0.0
C1453 C 0.48016 0.62597 0.56997 0.0
C1454 C 0.50486 0.65636 0.5391 0.0
C1455 C 0.51513 0.65573 0.60083 0.0
C1456 C 0.50617 0.64137 0.64867 0.0
C1457 C 0.48876 0.62671 0.63336 0.0
C1458 C 0.5746 0.67574 0.57486 0.0
C1459 C 0.58114 0.68113 0.6386 0.0
C1460 C 0.55279 0.66875 0.56197 0.0
C1461 C 0.53686 0.66734 0.61236 0.0
C1462 C 0.54301 0.67459 0.6751 0.0
C1463 C 0.56496 0.68124 0.68818 0.0
H1464 H 0.57822 0.32117 0.49786 0.0
H1465 H 0.58649 0.33633 0.29345 0.0
H1466 H 0.58968 0.28266 0.47765 0.0
H1467 H 0.59888 0.29845 0.27363 0.0
H1468 H 0.62065 0.23063 0.23884 0.0
H1469 H 0.59394 0.25997 0.26655 0.0
H1470 H 0.62425 0.26564 0.45736 0.0
H1471 H 0.64978 0.23548 0.43022 0.0
C1472 C 0.58222 0.3162 0.44847 0.0
C1473 C 0.5818 0.33187 0.39742 0.0
C1474 C 0.58891 0.29415 0.43691 0.0
C1475 C 0.59558 0.28739 0.37419 0.0
C1476 C 0.59365 0.30278 0.32249 0.0
C1477 C 0.58669 0.32469 0.33391 0.0
C1478 C 0.6209 0.23767 0.28748 0.0
C1479 C 0.63711 0.2309 0.33258 0.0
C1480 C 0.60582 0.25463 0.30322 0.0
C1481 C 0.60722 0.26566 0.36368 0.0
C1482 C 0.62243 0.25753 0.41053 0.0
C1483 C 0.63718 0.24023 0.3951 0.0
H1484 H 0.02515 0.40153 0.16705 0.0
H1485 H 0.03428 0.36173 0.99429 0.0
H1486 H 0.99511 0.37686 0.20231 0.0
H1487 H 1.00512 0.33607 0.03072 0.0
H1488 H 0.93895 0.3332 0.25421 0.0
H1489 H 0.97794 0.34322 0.23583 0.0
H1490 H 0.96641 0.34168 0.02776 0.0
H1491 H 0.92795 0.33088 0.04626 0.0
C1492 C 0.02142 0.38677 0.13845 0.0
C1493 C 0.03184 0.38337 0.07824 0.0
C1494 C 1.00421 0.37256 0.1585 0.0
C1495 C 0.99728 0.35467 0.1186 0.0
C1496 C 0.00956 0.35001 0.06174 0.0
C1497 C 0.02644 0.36449 0.04119 0.0
C1498 C 0.94494 0.33452 0.20455 0.0
C1499 C 0.93029 0.33166 0.15165 0.0
C1500 C 0.96727 0.34035 0.19402 0.0
C1501 C 0.97535 0.34363 0.13037 0.0
C1502 C 0.96101 0.3391 0.07753 0.0
C1503 C 0.93878 0.33306 0.08807 0.0
H1504 H 0.57955 0.83324 0.72671 0.0
H1505 H 0.58014 0.82071 0.51945 0.0
H1506 H 0.59101 0.79503 0.74694 0.0
H1507 H 0.5908 0.78196 0.53964 0.0
H1508 H 0.65009 0.73575 0.60615 0.0
H1509 H 0.62487 0.76538 0.57144 0.0
H1510 H 0.58602 0.75622 0.7472 0.0
H1511 H 0.61222 0.7274 0.78289 0.0
C1512 C 0.58147 0.82211 0.68548 0.0
C1513 C 0.5794 0.83012 0.62148 0.0
C1514 C 0.5879 0.80003 0.69703 0.0
C1515 C 0.59215 0.78534 0.64484 0.0
C1516 C 0.58818 0.7929 0.58095 0.0
C1517 C 0.58197 0.81509 0.56938 0.0
C1518 C 0.63564 0.73953 0.63587 0.0
C1519 C 0.63294 0.72941 0.69688 0.0
C1520 C 0.62111 0.75654 0.61614 0.0
C1521 C 0.60359 0.7636 0.65718 0.0
C1522 C 0.59965 0.75167 0.71519 0.0
C1523 C 0.61444 0.73498 0.73535 0.0
H1524 H 0.02509 0.90183 0.85585 0.0
H1525 H 0.03417 0.86769 0.03879 0.0
H1526 H 0.99516 0.87622 0.82716 0.0
H1527 H 1.0049 0.84108 1.00936 0.0
H1528 H 0.94058 0.82966 0.78294 0.0
H1529 H 0.97908 0.84145 0.80122 0.0
H1530 H 0.96605 0.84525 1.00822 0.0
H1531 H 0.92811 0.83263 0.99005 0.0
C1532 C 0.02135 0.88813 0.88848 0.0
C1533 C 0.03188 0.88657 0.94921 0.0
C1534 C 1.00415 0.87336 0.87217 0.0
C1535 C 0.99725 0.8567 0.91641 0.0
C1536 C 0.00935 0.854 0.97477 0.0
C1537 C 0.02627 0.86904 0.99141 0.0
C1538 C 0.94616 0.83252 0.83247 0.0
C1539 C 0.9312 0.83058 0.88496 0.0
C1540 C 0.9682 0.8394 0.84294 0.0
C1541 C 0.97569 0.84472 0.90607 0.0
C1542 C 0.96111 0.84114 0.95892 0.0
C1543 C 0.93918 0.83402 0.9485 0.0
H1544 H 0.89885 0.28633 0.28821 0.0
H1545 H 0.86176 0.277 0.11046 0.0
H1546 H 0.92498 0.25705 0.25553 0.0
H1547 H 0.88691 0.247 0.07868 0.0
H1548 H 0.93194 0.19139 0.03128 0.0
H1549 H 0.92103 0.23018 0.0491 0.0
H1550 H 0.92003 0.21823 0.257 0.0
H1551 H 0.93176 0.17995 0.23912 0.0
C1552 C 0.89679 0.27843 0.24107 0.0
C1553 C 0.87852 0.2839 0.20146 0.0
C1554 C 0.91153 0.26148 0.22264 0.0
C1555 C 0.9078 0.2492 0.16518 0.0
C1556 C 0.89053 0.25611 0.123 0.0
C1557 C 0.87604 0.27336 0.14102 0.0
C1558 C 0.92987 0.19725 0.08085 0.0
C1559 C 0.93234 0.18252 0.13377 0.0
C1560 C 0.92351 0.21947 0.09106 0.0
C1561 C 0.91926 0.22737 0.15441 0.0
C1562 C 0.92335 0.21297 0.20748 0.0
C1563 C 0.92994 0.19086 0.19728 0.0
H1564 H 0.58515 0.18088 0.49553 0.0
H1565 H 0.57285 0.18507 0.28847 0.0
H1566 H 0.54725 0.16794 0.51268 0.0
H1567 H 0.53439 0.17305 0.30575 0.0
H1568 H 0.48887 0.11208 0.35538 0.0
H1569 H 0.51866 0.13805 0.32927 0.0
H1570 H 0.50834 0.17145 0.51378 0.0
H1571 H 0.47909 0.14444 0.54049 0.0
C1572 C 0.57411 0.17971 0.45381 0.0
C1573 C 0.58214 0.18355 0.39052 0.0
C1574 C 0.55221 0.17241 0.46365 0.0
C1575 C 0.5377 0.16906 0.41047 0.0
C1576 C 0.54522 0.17487 0.3477 0.0
C1577 C 0.56724 0.18189 0.3378 0.0
C1578 C 0.49244 0.12545 0.38914 0.0
C1579 C 0.48173 0.12639 0.44967 0.0
C1580 C 0.50957 0.14046 0.3743 0.0
C1581 C 0.51626 0.15677 0.41982 0.0
C1582 C 0.50405 0.15882 0.47818 0.0
C1583 C 0.48715 0.14355 0.4933 0.0
H1584 H 0.40842 0.1841 0.48159 0.0
H1585 H 0.45337 0.18468 0.31716 0.0
H1586 H 0.39727 0.22199 0.45757 0.0
H1587 H 0.44335 0.22351 0.29511 0.0
H1588 H 0.38895 0.27032 0.21059 0.0
H1589 H 0.41312 0.24057 0.24788 0.0
H1590 H 0.40056 0.25996 0.44772 0.0
H1591 H 0.37473 0.28845 0.40937 0.0
C1592 C 0.41648 0.19262 0.44136 0.0
C1593 C 0.43141 0.18124 0.40036 0.0
C1594 C 0.41022 0.2146 0.42779 0.0
C1595 C 0.41907 0.22598 0.37353 0.0
C1596 C 0.43561 0.21516 0.3361 0.0
C1597 C 0.4415 0.19293 0.34889 0.0
C1598 C 0.39184 0.26857 0.26249 0.0
C1599 C 0.38002 0.28183 0.30703 0.0
C1600 C 0.40592 0.25153 0.28413 0.0
C1601 C 0.40868 0.2474 0.35119 0.0
C1602 C 0.39846 0.26216 0.39571 0.0
C1603 C 0.38395 0.27892 0.37383 0.0
H1604 H 0.97736 0.15071 0.99987 0.0
H1605 H 0.98875 0.11281 0.17527 0.0
H1606 H 1.00619 0.17736 0.03237 0.0
H1607 H 0.01831 0.1385 0.20678 0.0
H1608 H 0.0833 0.18506 0.04484 0.0
H1609 H 0.04509 0.17305 0.02857 0.0
H1610 H 0.03454 0.17294 0.23707 0.0
H1611 H 0.07331 0.18417 0.2533 0.0
C1612 C 0.9856 0.14857 0.04649 0.0
C1613 C 0.98085 0.12995 0.0855 0.0
C1614 C 1.00229 0.16362 0.06481 0.0
C1615 C 0.01502 0.15986 0.12148 0.0
C1616 C 0.00883 0.14216 0.16312 0.0
C1617 C 0.99185 0.12735 0.14523 0.0
C1618 C 0.07273 0.18295 0.08722 0.0
C1619 C 0.08148 0.18511 0.15037 0.0
C1620 C 0.05063 0.1762 0.07793 0.0
C1621 C 0.03667 0.17169 0.13159 0.0
C1622 C 0.04493 0.17576 0.19467 0.0
C1623 C 0.06713 0.18231 0.20397 0.0
H1624 H 0.08065 0.82258 1.00338 0.0
H1625 H 0.08047 0.83343 0.79522 0.0
H1626 H 0.09252 0.78402 0.98635 0.0
H1627 H 0.09308 0.79542 0.7782 0.0
H1628 H 0.11584 0.72774 0.74863 0.0
H1629 H 0.08901 0.75644 0.78096 0.0
H1630 H 0.12732 0.7683 0.95644 0.0
H1631 H 0.15319 0.73871 0.92514 0.0
C1632 C 0.0828 0.81663 0.95393 0.0
C1633 C 0.08001 0.83117 0.90067 0.0
C1634 C 0.08972 0.79455 0.94419 0.0
C1635 C 0.09415 0.7866 0.881 0.0
C1636 C 0.08965 0.80073 0.82761 0.0
C1637 C 0.08255 0.8227 0.83734 0.0
C1638 C 0.11782 0.73591 0.79539 0.0
C1639 C 0.1363 0.7311 0.83484 0.0
C1640 C 0.10268 0.75252 0.81362 0.0
C1641 C 0.10623 0.76511 0.87061 0.0
C1642 C 0.12385 0.75891 0.91252 0.0
C1643 C 0.13876 0.742 0.89471 0.0
H1644 H 0.42822 0.83113 0.52621 0.0
H1645 H 0.43907 0.83011 0.73428 0.0
H1646 H 0.4667 0.84223 0.50941 0.0
H1647 H 0.47809 0.84033 0.71755 0.0
H1648 H 0.52558 0.89933 0.65898 0.0
H1649 H 0.49542 0.87424 0.68954 0.0
H1650 H 0.50536 0.83698 0.51122 0.0
H1651 H 0.53476 0.86313 0.47969 0.0
C1652 C 0.43904 0.83262 0.56832 0.0
C1653 C 0.4305 0.83022 0.63159 0.0
C1654 C 0.46128 0.83883 0.55874 0.0
C1655 C 0.47559 0.84251 0.61222 0.0
C1656 C 0.46746 0.83818 0.67531 0.0
C1657 C 0.44511 0.83223 0.6849 0.0
C1658 C 0.52185 0.88524 0.62778 0.0
C1659 C 0.53239 0.88301 0.56727 0.0
C1660 C 0.50453 0.87077 0.64513 0.0
C1661 C 0.49754 0.85376 0.6022 0.0
C1662 C 0.50984 0.85024 0.54466 0.0
C1663 C 0.52686 0.86499 0.52687 0.0
loop_
_geom_bond_atom_site_label_1
_geom_bond_atom_site_label_2
_geom_bond_distance
_geom_bond_site_symmetry_2
_ccdc_geom_bond_type
Zn0 N4 2.020 . S
Zn0 O8 2.019 . S
Zn0 N10 2.119 . S
Zn0 O18 1.975 . S
C1 N2 1.334 . S
C1 N5 1.336 . S
N2 C1 1.334 . S
N2 C3 1.334 . S
C3 N2 1.334 . S
C3 N4 1.336 . S
N4 Zn0 2.020 . S
N4 C3 1.336 . S
N4 N5 1.354 . S
N5 C1 1.336 . S
N5 N4 1.354 . S
N5 Zn9 2.020 . S
C6 O7 1.244 . S
C6 O30 1.257 . S
O7 C6 1.244 . S
O8 Zn0 2.019 . S
O8 C28 1.257 . S
Zn9 N5 2.020 . S
Zn9 O16 1.975 . S
Zn9 N25 2.119 . S
Zn9 O30 2.019 . S
N10 Zn0 2.119 . S
N10 C12 1.334 . S
N10 C13 1.328 . S
C11 C12 1.391 . S
C11 N14 1.329 1_554 S
C11 H32 0.930 . S
C12 N10 1.334 . S
C12 C11 1.391 . S
C12 H19 0.930 . S
C13 N10 1.328 . S
C13 C15 1.392 1_554 S
C13 H20 0.930 . S
N14 C11 1.329 1_556 S
N14 C15 1.331 . S
C15 C13 1.392 1_556 S
C15 N14 1.331 . S
O16 Zn9 1.975 . S
O16 C17 1.252 . S
C17 O16 1.252 . S
C17 O18 1.252 . S
O18 Zn0 1.975 . S
O18 C17 1.252 . S
H19 C12 0.930 . S
H20 C13 0.930 . S
C21 C22 1.392 . S
C21 N25 1.328 . S
C21 H27 0.930 . S
C22 C21 1.392 . S
C22 N26 1.331 . S
C23 C24 1.391 . S
C23 N26 1.329 . S
C23 H33 0.930 . S
C24 C23 1.391 . S
C24 N25 1.334 . S
C24 H31 0.930 . S
N25 Zn9 2.119 . S
N25 C21 1.328 . S
N25 C24 1.334 . S
N26 C22 1.331 . S
N26 C23 1.329 . S
H27 C21 0.930 . S
C28 O8 1.257 . S
C28 O29 1.244 . S
O29 C28 1.244 . S
O30 C6 1.257 . S
O30 Zn9 2.019 . S
H31 C24 0.930 . S
H32 C11 0.930 . S
H33 C23 0.930 . S
Zn34 N38 2.020 . S
Zn34 O42 2.019 . S
Zn34 N44 2.119 . S
Zn34 O52 1.975 . S
C35 N36 1.334 . S
C35 N39 1.336 . S
N36 C35 1.334 . S
N36 C37 1.334 . S
C37 N36 1.334 . S
C37 N38 1.336 . S
N38 Zn34 2.020 . S
N38 C37 1.336 . S
N38 N39 1.354 . S
N39 C35 1.336 . S
N39 N38 1.354 . S
N39 Zn43 2.020 . S
C40 O41 1.244 . S
C40 O64 1.257 . S
O41 C40 1.244 . S
O42 Zn34 2.019 . S
O42 C62 1.257 . S
Zn43 N39 2.020 . S
Zn43 O50 1.975 . S
Zn43 N59 2.119 . S
Zn43 O64 2.019 . S
N44 Zn34 2.119 . S
N44 C46 1.334 . S
N44 C47 1.328 . S
C45 C46 1.391 . S
C45 N48 1.329 . S
C45 H66 0.930 . S
C46 N44 1.334 . S
C46 C45 1.391 . S
C46 H53 0.930 . S
C47 N44 1.328 . S
C47 C49 1.392 . S
C47 H54 0.930 . S
N48 C45 1.329 . S
N48 C49 1.331 . S
C49 C47 1.392 . S
C49 N48 1.331 . S
O50 Zn43 1.975 . S
O50 C51 1.252 . S
C51 O50 1.252 . S
C51 O52 1.252 . S
O52 Zn34 1.975 . S
O52 C51 1.252 . S
H53 C46 0.930 . S
H54 C47 0.930 . S
C55 C56 1.392 . S
C55 N59 1.328 . S
C55 H61 0.930 . S
C56 C55 1.392 . S
C56 N60 1.331 . S
C57 C58 1.391 . S
C57 N60 1.329 . S
C57 H67 0.930 . S
C58 C57 1.391 . S
C58 N59 1.334 . S
C58 H65 0.930 . S
N59 Zn43 2.119 . S
N59 C55 1.328 . S
N59 C58 1.334 . S
N60 C56 1.331 . S
N60 C57 1.329 . S
H61 C55 0.930 . S
C62 O42 1.257 . S
C62 O63 1.244 . S
O63 C62 1.244 . S
O64 C40 1.257 . S
O64 Zn43 2.019 . S
H65 C58 0.930 . S
H66 C45 0.930 . S
H67 C57 0.930 . S
Zn68 N72 2.020 . S
Zn68 O76 2.019 . S
Zn68 N78 2.119 . S
Zn68 O86 1.975 . S
C69 N70 1.334 . S
C69 N73 1.336 . S
N70 C69 1.334 . S
N70 C71 1.334 . S
C71 N70 1.334 . S
C71 N72 1.336 . S
N72 Zn68 2.020 . S
N72 C71 1.336 . S
N72 N73 1.354 . S
N73 C69 1.336 . S
N73 N72 1.354 . S
N73 Zn77 2.020 . S
C74 O75 1.244 . S
C74 O98 1.257 . S
O75 C74 1.244 . S
O76 Zn68 2.019 . S
O76 C96 1.257 . S
Zn77 N73 2.020 . S
Zn77 O84 1.975 . S
Zn77 N93 2.119 . S
Zn77 O98 2.019 . S
N78 Zn68 2.119 . S
N78 C80 1.334 . S
N78 C81 1.328 . S
C79 C80 1.391 . S
C79 N82 1.329 . S
C79 H100 0.930 . S
C80 N78 1.334 . S
C80 C79 1.391 . S
C80 H87 0.930 . S
C81 N78 1.328 . S
C81 C83 1.392 . S
C81 H88 0.930 . S
N82 C79 1.329 . S
N82 C83 1.331 . S
C83 C81 1.392 . S
C83 N82 1.331 . S
O84 Zn77 1.975 . S
O84 C85 1.252 . S
C85 O84 1.252 . S
C85 O86 1.252 . S
O86 Zn68 1.975 . S
O86 C85 1.252 . S
H87 C80 0.930 . S
H88 C81 0.930 . S
C89 C90 1.392 . S
C89 N93 1.328 . S
C89 H95 0.930 . S
C90 C89 1.392 . S
C90 N94 1.331 . S
C91 C92 1.391 . S
C91 N94 1.329 . S
C91 H101 0.930 . S
C92 C91 1.391 . S
C92 N93 1.334 . S
C92 H99 0.930 . S
N93 Zn77 2.119 . S
N93 C89 1.328 . S
N93 C92 1.334 . S
N94 C90 1.331 . S
N94 C91 1.329 . S
H95 C89 0.930 . S
C96 O76 1.257 . S
C96 O97 1.244 . S
O97 C96 1.244 . S
O98 C74 1.257 . S
O98 Zn77 2.019 . S
H99 C92 0.930 . S
H100 C79 0.930 . S
H101 C91 0.930 . S
Zn102 N106 2.020 . S
Zn102 O110 2.019 . S
Zn102 N112 2.119 . S
Zn102 O120 1.975 . S
C103 N104 1.334 . S
C103 N107 1.336 . S
N104 C103 1.334 . S
N104 C105 1.334 1_556 S
C105 N104 1.334 1_554 S
C105 N106 1.336 . S
N106 Zn102 2.020 . S
N106 C105 1.336 . S
N106 N107 1.354 1_554 S
N107 C103 1.336 . S
N107 N106 1.354 1_556 S
N107 Zn111 2.020 . S
C108 O109 1.244 . S
C108 O132 1.257 . S
O109 C108 1.244 . S
O110 Zn102 2.019 . S
O110 C130 1.257 . S
Zn111 N107 2.020 . S
Zn111 O118 1.975 . S
Zn111 N127 2.119 . S
Zn111 O132 2.019 . S
N112 Zn102 2.119 . S
N112 C114 1.334 . S
N112 C115 1.328 . S
C113 C114 1.391 . S
C113 N116 1.329 . S
C113 H134 0.930 . S
C114 N112 1.334 . S
C114 C113 1.391 . S
C114 H121 0.930 . S
C115 N112 1.328 . S
C115 C117 1.392 . S
C115 H122 0.930 . S
N116 C113 1.329 . S
N116 C117 1.331 . S
C117 C115 1.392 . S
C117 N116 1.331 . S
O118 Zn111 1.975 . S
O118 C119 1.252 . S
C119 O118 1.252 . S
C119 O120 1.252 1_556 S
O120 Zn102 1.975 . S
O120 C119 1.252 1_554 S
H121 C114 0.930 . S
H122 C115 0.930 . S
C123 C124 1.392 . S
C123 N127 1.328 . S
C123 H129 0.930 . S
C124 C123 1.392 . S
C124 N128 1.331 . S
C125 C126 1.391 . S
C125 N128 1.329 . S
C125 H135 0.930 . S
C126 C125 1.391 . S
C126 N127 1.334 . S
C126 H133 0.930 . S
N127 Zn111 2.119 . S
N127 C123 1.328 . S
N127 C126 1.334 . S
N128 C124 1.331 . S
N128 C125 1.329 . S
H129 C123 0.930 . S
C130 O110 1.257 . S
C130 O131 1.243 . S
O131 C130 1.243 . S
O132 C108 1.257 . S
O132 Zn111 2.019 . S
H133 C126 0.930 . S
H134 C113 0.930 . S
H135 C125 0.930 . S
Zn136 N140 2.020 . S
Zn136 O144 2.019 . S
Zn136 N146 2.119 . S
Zn136 O154 1.975 . S
C137 N138 1.334 . S
C137 N141 1.336 . S
N138 C137 1.334 . S
N138 C139 1.334 . S
C139 N138 1.334 . S
C139 N140 1.336 . S
N140 Zn136 2.020 . S
N140 C139 1.336 . S
N140 N141 1.354 . S
N141 C137 1.336 . S
N141 N140 1.354 . S
N141 Zn145 2.020 . S
C142 O143 1.244 . S
C142 O166 1.257 . S
O143 C142 1.244 . S
O144 Zn136 2.019 . S
O144 C164 1.257 . S
Zn145 N141 2.020 . S
Zn145 O152 1.975 . S
Zn145 N161 2.119 . S
Zn145 O166 2.019 . S
N146 Zn136 2.119 . S
N146 C148 1.334 . S
N146 C149 1.328 . S
C147 C148 1.391 . S
C147 N150 1.329 . S
C147 H168 0.930 . S
C148 N146 1.334 . S
C148 C147 1.391 . S
C148 H155 0.930 . S
C149 N146 1.328 . S
C149 C151 1.392 . S
C149 H156 0.930 . S
N150 C147 1.329 . S
N150 C151 1.331 . S
C151 C149 1.392 . S
C151 N150 1.331 . S
O152 Zn145 1.975 . S
O152 C153 1.252 . S
C153 O152 1.252 . S
C153 O154 1.252 . S
O154 Zn136 1.975 . S
O154 C153 1.252 . S
H155 C148 0.930 . S
H156 C149 0.930 . S
C157 C158 1.392 1_556 S
C157 N161 1.328 . S
C157 H163 0.930 . S
C158 C157 1.392 1_554 S
C158 N162 1.331 . S
C159 C160 1.391 . S
C159 N162 1.329 1_556 S
C159 H169 0.930 . S
C160 C159 1.391 . S
C160 N161 1.334 . S
C160 H167 0.930 . S
N161 Zn145 2.119 . S
N161 C157 1.328 . S
N161 C160 1.334 . S
N162 C158 1.331 . S
N162 C159 1.329 1_554 S
H163 C157 0.930 . S
C164 O144 1.257 . S
C164 O165 1.244 . S
O165 C164 1.244 . S
O166 C142 1.257 . S
O166 Zn145 2.019 . S
H167 C160 0.930 . S
H168 C147 0.930 . S
H169 C159 0.930 . S
Zn170 N174 2.020 . S
Zn170 O178 2.019 . S
Zn170 N180 2.119 . S
Zn170 O188 1.975 . S
C171 N172 1.334 . S
C171 N175 1.336 . S
N172 C171 1.334 . S
N172 C173 1.334 . S
C173 N172 1.334 . S
C173 N174 1.336 . S
N174 Zn170 2.020 . S
N174 C173 1.336 . S
N174 N175 1.354 . S
N175 C171 1.336 . S
N175 N174 1.354 . S
N175 Zn179 2.020 . S
C176 O177 1.244 . S
C176 O200 1.257 . S
O177 C176 1.244 . S
O178 Zn170 2.019 . S
O178 C198 1.257 . S
Zn179 N175 2.020 . S
Zn179 O186 1.975 . S
Zn179 N195 2.119 . S
Zn179 O200 2.019 . S
N180 Zn170 2.119 . S
N180 C182 1.334 . S
N180 C183 1.328 . S
C181 C182 1.391 . S
C181 N184 1.329 . S
C181 H202 0.930 . S
C182 N180 1.334 . S
C182 C181 1.391 . S
C182 H189 0.930 . S
C183 N180 1.328 . S
C183 C185 1.392 . S
C183 H190 0.930 . S
N184 C181 1.329 . S
N184 C185 1.331 . S
C185 C183 1.392 . S
C185 N184 1.331 . S
O186 Zn179 1.975 . S
O186 C187 1.252 . S
C187 O186 1.252 . S
C187 O188 1.252 . S
O188 Zn170 1.975 . S
O188 C187 1.252 . S
H189 C182 0.930 . S
H190 C183 0.930 . S
C191 C192 1.392 . S
C191 N195 1.328 . S
C191 H197 0.930 . S
C192 C191 1.392 . S
C192 N196 1.331 . S
C193 C194 1.391 . S
C193 N196 1.329 . S
C193 H203 0.930 . S
C194 C193 1.391 . S
C194 N195 1.334 . S
C194 H201 0.930 . S
N195 Zn179 2.119 . S
N195 C191 1.328 . S
N195 C194 1.334 . S
N196 C192 1.331 . S
N196 C193 1.329 . S
H197 C191 0.930 . S
C198 O178 1.257 . S
C198 O199 1.244 . S
O199 C198 1.244 . S
O200 C176 1.257 . S
O200 Zn179 2.019 . S
H201 C194 0.930 . S
H202 C181 0.930 . S
H203 C193 0.930 . S
Zn204 N208 2.020 . S
Zn204 O212 2.019 . S
Zn204 N214 2.119 . S
Zn204 O222 1.975 . S
C205 N206 1.334 . S
C205 N209 1.336 . S
N206 C205 1.334 . S
N206 C207 1.334 . S
C207 N206 1.334 . S
C207 N208 1.336 . S
N208 Zn204 2.020 . S
N208 C207 1.336 . S
N208 N209 1.354 . S
N209 C205 1.336 . S
N209 N208 1.354 . S
N209 Zn213 2.020 . S
C210 O211 1.244 . S
C210 O234 1.257 . S
O211 C210 1.244 . S
O212 Zn204 2.019 . S
O212 C232 1.257 . S
Zn213 N209 2.020 . S
Zn213 O220 1.975 . S
Zn213 N229 2.119 . S
Zn213 O234 2.019 . S
N214 Zn204 2.119 . S
N214 C216 1.334 . S
N214 C217 1.328 . S
C215 C216 1.391 . S
C215 N218 1.329 . S
C215 H236 0.930 . S
C216 N214 1.334 . S
C216 C215 1.391 . S
C216 H223 0.930 . S
C217 N214 1.328 . S
C217 C219 1.392 . S
C217 H224 0.930 . S
N218 C215 1.329 . S
N218 C219 1.331 . S
C219 C217 1.392 . S
C219 N218 1.331 . S
O220 Zn213 1.975 . S
O220 C221 1.252 . S
C221 O220 1.252 . S
C221 O222 1.252 . S
O222 Zn204 1.975 . S
O222 C221 1.252 . S
H223 C216 0.930 . S
H224 C217 0.930 . S
C225 C226 1.392 . S
C225 N229 1.328 . S
C225 H231 0.930 . S
C226 C225 1.392 . S
C226 N230 1.331 . S
C227 C228 1.391 . S
C227 N230 1.329 . S
C227 H237 0.930 . S
C228 C227 1.391 . S
C228 N229 1.334 . S
C228 H235 0.930 . S
N229 Zn213 2.119 . S
N229 C225 1.328 . S
N229 C228 1.334 . S
N230 C226 1.331 . S
N230 C227 1.329 . S
H231 C225 0.930 . S
C232 O212 1.257 . S
C232 O233 1.244 . S
O233 C232 1.244 . S
O234 C210 1.257 . S
O234 Zn213 2.019 . S
H235 C228 0.930 . S
H236 C215 0.930 . S
H237 C227 0.930 . S
Zn238 N242 2.020 . S
Zn238 O246 2.019 . S
Zn238 N248 2.119 . S
Zn238 O256 1.975 . S
C239 N240 1.334 1_556 S
C239 N243 1.336 . S
N240 C239 1.334 1_554 S
N240 C241 1.334 . S
C241 N240 1.334 . S
C241 N242 1.336 . S
N242 Zn238 2.020 . S
N242 C241 1.336 . S
N242 N243 1.354 1_554 S
N243 C239 1.336 . S
N243 N242 1.354 1_556 S
N243 Zn247 2.020 . S
C244 O245 1.243 . S
C244 O268 1.257 . S
O245 C244 1.243 . S
O246 Zn238 2.019 . S
O246 C266 1.257 . S
Zn247 N243 2.020 . S
Zn247 O254 1.975 . S
Zn247 N263 2.119 . S
Zn247 O268 2.019 . S
N248 Zn238 2.119 . S
N248 C250 1.334 . S
N248 C251 1.328 . S
C249 C250 1.391 . S
C249 N252 1.329 . S
C249 H270 0.930 . S
C250 N248 1.334 . S
C250 C249 1.391 . S
C250 H257 0.930 . S
C251 N248 1.328 . S
C251 C253 1.392 . S
C251 H258 0.930 . S
N252 C249 1.329 . S
N252 C253 1.331 . S
C253 C251 1.392 . S
C253 N252 1.331 . S
O254 Zn247 1.975 . S
O254 C255 1.252 1_556 S
C255 O254 1.252 1_554 S
C255 O256 1.252 . S
O256 Zn238 1.975 . S
O256 C255 1.252 . S
H257 C250 0.930 . S
H258 C251 0.930 . S
C259 C260 1.392 . S
C259 N263 1.328 . S
C259 H265 0.930 . S
C260 C259 1.392 . S
C260 N264 1.331 . S
C261 C262 1.391 . S
C261 N264 1.329 . S
C261 H271 0.930 . S
C262 C261 1.391 . S
C262 N263 1.334 . S
C262 H269 0.930 . S
N263 Zn247 2.119 . S
N263 C259 1.328 . S
N263 C262 1.334 . S
N264 C260 1.331 . S
N264 C261 1.329 . S
H265 C259 0.930 . S
C266 O246 1.257 . S
C266 O267 1.244 . S
O267 C266 1.244 . S
O268 C244 1.257 . S
O268 Zn247 2.019 . S
H269 C262 0.930 . S
H270 C249 0.930 . S
H271 C261 0.930 . S
Zn272 N276 2.020 . S
Zn272 O280 2.019 . S
Zn272 N282 2.119 . S
Zn272 O290 1.975 . S
C273 N274 1.334 . S
C273 N277 1.336 . S
N274 C273 1.334 . S
N274 C275 1.334 . S
C275 N274 1.334 . S
C275 N276 1.336 . S
N276 Zn272 2.020 . S
N276 C275 1.336 . S
N276 N277 1.354 . S
N277 C273 1.336 . S
N277 N276 1.354 . S
N277 Zn281 2.020 . S
C278 O279 1.244 . S
C278 O302 1.257 . S
O279 C278 1.244 . S
O280 Zn272 2.019 . S
O280 C300 1.257 . S
Zn281 N277 2.020 . S
Zn281 O288 1.975 . S
Zn281 N297 2.119 . S
Zn281 O302 2.019 . S
N282 Zn272 2.119 . S
N282 C284 1.334 . S
N282 C285 1.328 . S
C283 C284 1.391 . S
C283 N286 1.329 . S
C283 H304 0.930 . S
C284 N282 1.334 . S
C284 C283 1.391 . S
C284 H291 0.930 . S
C285 N282 1.328 . S
C285 C287 1.392 . S
C285 H292 0.930 . S
N286 C283 1.329 . S
N286 C287 1.331 . S
C287 C285 1.392 . S
C287 N286 1.331 . S
O288 Zn281 1.975 . S
O288 C289 1.252 . S
C289 O288 1.252 . S
C289 O290 1.252 . S
O290 Zn272 1.975 . S
O290 C289 1.252 . S
H291 C284 0.930 . S
H292 C285 0.930 . S
C293 C294 1.392 . S
C293 N297 1.328 . S
C293 H299 0.930 . S
C294 C293 1.392 . S
C294 N298 1.331 . S
C295 C296 1.391 . S
C295 N298 1.329 . S
C295 H305 0.930 . S
C296 C295 1.391 . S
C296 N297 1.334 . S
C296 H303 0.930 . S
N297 Zn281 2.119 . S
N297 C293 1.328 . S
N297 C296 1.334 . S
N298 C294 1.331 . S
N298 C295 1.329 . S
H299 C293 0.930 . S
C300 O280 1.257 . S
C300 O301 1.244 . S
O301 C300 1.244 . S
O302 C278 1.257 . S
O302 Zn281 2.019 . S
H303 C296 0.930 . S
H304 C283 0.930 . S
H305 C295 0.930 . S
Zn306 N310 2.020 . S
Zn306 O314 2.019 . S
Zn306 N316 2.119 . S
Zn306 O324 1.975 . S
C307 N308 1.334 1_554 S
C307 N311 1.336 . S
N308 C307 1.334 1_556 S
N308 C309 1.334 . S
C309 N308 1.334 . S
C309 N310 1.336 . S
N310 Zn306 2.020 . S
N310 C309 1.336 . S
N310 N311 1.354 1_556 S
N311 C307 1.336 . S
N311 N310 1.354 1_554 S
N311 Zn315 2.020 . S
C312 O313 1.243 . S
C312 O336 1.257 . S
O313 C312 1.243 . S
O314 Zn306 2.019 . S
O314 C334 1.257 . S
Zn315 N311 2.020 . S
Zn315 O322 1.975 . S
Zn315 N331 2.119 . S
Zn315 O336 2.019 . S
N316 Zn306 2.119 . S
N316 C318 1.334 . S
N316 C319 1.328 . S
C317 C318 1.391 . S
C317 N320 1.329 . S
C317 H338 0.930 . S
C318 N316 1.334 . S
C318 C317 1.391 . S
C318 H325 0.930 . S
C319 N316 1.328 . S
C319 C321 1.392 . S
C319 H326 0.930 . S
N320 C317 1.329 . S
N320 C321 1.331 . S
C321 C319 1.392 . S
C321 N320 1.331 . S
O322 Zn315 1.975 . S
O322 C323 1.252 1_554 S
C323 O322 1.252 1_556 S
C323 O324 1.252 . S
O324 Zn306 1.975 . S
O324 C323 1.252 . S
H325 C318 0.930 . S
H326 C319 0.930 . S
C327 C328 1.392 . S
C327 N331 1.328 . S
C327 H333 0.930 . S
C328 C327 1.392 . S
C328 N332 1.331 . S
C329 C330 1.391 . S
C329 N332 1.329 . S
C329 H339 0.930 . S
C330 C329 1.391 . S
C330 N331 1.334 . S
C330 H337 0.930 . S
N331 Zn315 2.119 . S
N331 C327 1.328 . S
N331 C330 1.334 . S
N332 C328 1.331 . S
N332 C329 1.329 . S
H333 C327 0.930 . S
C334 O314 1.257 . S
C334 O335 1.244 . S
O335 C334 1.244 . S
O336 C312 1.257 . S
O336 Zn315 2.019 . S
H337 C330 0.930 . S
H338 C317 0.930 . S
H339 C329 0.930 . S
Zn340 N344 2.020 . S
Zn340 O348 2.019 . S
Zn340 N350 2.119 . S
Zn340 O358 1.975 . S
C341 N342 1.334 . S
C341 N345 1.336 . S
N342 C341 1.334 . S
N342 C343 1.334 . S
C343 N342 1.334 . S
C343 N344 1.336 . S
N344 Zn340 2.020 . S
N344 C343 1.336 . S
N344 N345 1.354 . S
N345 C341 1.336 . S
N345 N344 1.354 . S
N345 Zn349 2.020 . S
C346 O347 1.244 . S
C346 O370 1.257 . S
O347 C346 1.244 . S
O348 Zn340 2.019 . S
O348 C368 1.257 . S
Zn349 N345 2.020 . S
Zn349 O356 1.975 . S
Zn349 N365 2.119 . S
Zn349 O370 2.019 . S
N350 Zn340 2.119 . S
N350 C352 1.334 . S
N350 C353 1.328 . S
C351 C352 1.391 . S
C351 N354 1.329 1_554 S
C351 H372 0.930 . S
C352 N350 1.334 . S
C352 C351 1.391 . S
C352 H359 0.930 . S
C353 N350 1.328 . S
C353 C355 1.392 1_554 S
C353 H360 0.930 . S
N354 C351 1.329 1_556 S
N354 C355 1.331 . S
C355 C353 1.392 1_556 S
C355 N354 1.331 . S
O356 Zn349 1.975 . S
O356 C357 1.252 . S
C357 O356 1.252 . S
C357 O358 1.252 . S
O358 Zn340 1.975 . S
O358 C357 1.252 . S
H359 C352 0.930 . S
H360 C353 0.930 . S
C361 C362 1.392 . S
C361 N365 1.328 . S
C361 H367 0.930 . S
C362 C361 1.392 . S
C362 N366 1.331 . S
C363 C364 1.391 . S
C363 N366 1.329 . S
C363 H373 0.930 . S
C364 C363 1.391 . S
C364 N365 1.334 . S
C364 H371 0.930 . S
N365 Zn349 2.119 . S
N365 C361 1.328 . S
N365 C364 1.334 . S
N366 C362 1.331 . S
N366 C363 1.329 . S
H367 C361 0.930 . S
C368 O348 1.257 . S
C368 O369 1.244 . S
O369 C368 1.244 . S
O370 C346 1.257 . S
O370 Zn349 2.019 . S
H371 C364 0.930 . S
H372 C351 0.930 . S
H373 C363 0.930 . S
Zn374 N378 2.020 . S
Zn374 O382 2.019 . S
Zn374 N384 2.119 . S
Zn374 O392 1.975 . S
C375 N376 1.334 . S
C375 N379 1.336 . S
N376 C375 1.334 . S
N376 C377 1.334 . S
C377 N376 1.334 . S
C377 N378 1.336 . S
N378 Zn374 2.020 . S
N378 C377 1.336 . S
N378 N379 1.354 . S
N379 C375 1.336 . S
N379 N378 1.354 . S
N379 Zn383 2.020 . S
C380 O381 1.244 . S
C380 O404 1.257 . S
O381 C380 1.244 . S
O382 Zn374 2.019 . S
O382 C402 1.257 . S
Zn383 N379 2.020 . S
Zn383 O390 1.975 . S
Zn383 N399 2.119 . S
Zn383 O404 2.019 . S
N384 Zn374 2.119 . S
N384 C386 1.334 . S
N384 C387 1.328 . S
C385 C386 1.391 . S
C385 N388 1.329 . S
C385 H406 0.930 . S
C386 N384 1.334 . S
C386 C385 1.391 . S
C386 H393 0.930 . S
C387 N384 1.328 . S
C387 C389 1.392 . S
C387 H394 0.930 . S
N388 C385 1.329 . S
N388 C389 1.331 . S
C389 C387 1.392 . S
C389 N388 1.331 . S
O390 Zn383 1.975 . S
O390 C391 1.252 . S
C391 O390 1.252 . S
C391 O392 1.252 . S
O392 Zn374 1.975 . S
O392 C391 1.252 . S
H393 C386 0.930 . S
H394 C387 0.930 . S
C395 C396 1.392 . S
C395 N399 1.328 . S
C395 H401 0.930 . S
C396 C395 1.392 . S
C396 N400 1.331 . S
C397 C398 1.391 . S
C397 N400 1.329 . S
C397 H407 0.930 . S
C398 C397 1.391 . S
C398 N399 1.334 . S
C398 H405 0.930 . S
N399 Zn383 2.119 . S
N399 C395 1.328 . S
N399 C398 1.334 . S
N400 C396 1.331 . S
N400 C397 1.329 . S
H401 C395 0.930 . S
C402 O382 1.257 . S
C402 O403 1.244 . S
O403 C402 1.244 . S
O404 C380 1.257 . S
O404 Zn383 2.019 . S
H405 C398 0.930 . S
H406 C385 0.930 . S
H407 C397 0.930 . S
Zn408 N412 2.020 . S
Zn408 O416 2.019 . S
Zn408 N418 2.119 . S
Zn408 O426 1.975 . S
C409 N410 1.334 . S
C409 N413 1.336 . S
N410 C409 1.334 . S
N410 C411 1.334 . S
C411 N410 1.334 . S
C411 N412 1.336 . S
N412 Zn408 2.020 . S
N412 C411 1.336 . S
N412 N413 1.354 . S
N413 C409 1.336 . S
N413 N412 1.354 . S
N413 Zn417 2.020 . S
C414 O415 1.244 . S
C414 O438 1.257 . S
O415 C414 1.244 . S
O416 Zn408 2.019 . S
O416 C436 1.257 . S
Zn417 N413 2.020 . S
Zn417 O424 1.975 . S
Zn417 N433 2.119 . S
Zn417 O438 2.019 . S
N418 Zn408 2.119 . S
N418 C420 1.334 . S
N418 C421 1.328 . S
C419 C420 1.391 . S
C419 N422 1.329 . S
C419 H440 0.930 . S
C420 N418 1.334 . S
C420 C419 1.391 . S
C420 H427 0.930 . S
C421 N418 1.328 . S
C421 C423 1.392 . S
C421 H428 0.930 . S
N422 C419 1.329 . S
N422 C423 1.331 . S
C423 C421 1.392 . S
C423 N422 1.331 . S
O424 Zn417 1.975 . S
O424 C425 1.252 . S
C425 O424 1.252 . S
C425 O426 1.252 . S
O426 Zn408 1.975 . S
O426 C425 1.252 . S
H427 C420 0.930 . S
H428 C421 0.930 . S
C429 C430 1.392 . S
C429 N433 1.328 . S
C429 H435 0.930 . S
C430 C429 1.392 . S
C430 N434 1.331 . S
C431 C432 1.391 . S
C431 N434 1.329 . S
C431 H441 0.930 . S
C432 C431 1.391 . S
C432 N433 1.334 . S
C432 H439 0.930 . S
N433 Zn417 2.119 . S
N433 C429 1.328 . S
N433 C432 1.334 . S
N434 C430 1.331 . S
N434 C431 1.329 . S
H435 C429 0.930 . S
C436 O416 1.257 . S
C436 O437 1.244 . S
O437 C436 1.244 . S
O438 C414 1.257 . S
O438 Zn417 2.019 . S
H439 C432 0.930 . S
H440 C419 0.930 . S
H441 C431 0.930 . S
Zn442 N446 2.020 . S
Zn442 O450 2.019 . S
Zn442 N452 2.119 . S
Zn442 O460 1.975 . S
C443 N444 1.334 . S
C443 N447 1.336 . S
N444 C443 1.334 . S
N444 C445 1.334 1_554 S
C445 N444 1.334 1_556 S
C445 N446 1.336 . S
N446 Zn442 2.020 . S
N446 C445 1.336 . S
N446 N447 1.354 1_556 S
N447 C443 1.336 . S
N447 N446 1.354 1_554 S
N447 Zn451 2.020 . S
C448 O449 1.244 . S
C448 O472 1.257 . S
O449 C448 1.244 . S
O450 Zn442 2.019 . S
O450 C470 1.257 . S
Zn451 N447 2.020 . S
Zn451 O458 1.975 . S
Zn451 N467 2.119 . S
Zn451 O472 2.019 . S
N452 Zn442 2.119 . S
N452 C454 1.334 . S
N452 C455 1.328 . S
C453 C454 1.391 . S
C453 N456 1.329 . S
C453 H474 0.930 . S
C454 N452 1.334 . S
C454 C453 1.391 . S
C454 H461 0.930 . S
C455 N452 1.328 . S
C455 C457 1.392 . S
C455 H462 0.930 . S
N456 C453 1.329 . S
N456 C457 1.331 . S
C457 C455 1.392 . S
C457 N456 1.331 . S
O458 Zn451 1.975 . S
O458 C459 1.252 . S
C459 O458 1.252 . S
C459 O460 1.252 1_554 S
O460 Zn442 1.975 . S
O460 C459 1.252 1_556 S
H461 C454 0.930 . S
H462 C455 0.930 . S
C463 C464 1.392 . S
C463 N467 1.328 . S
C463 H469 0.930 . S
C464 C463 1.392 . S
C464 N468 1.331 . S
C465 C466 1.391 . S
C465 N468 1.329 . S
C465 H475 0.930 . S
C466 C465 1.391 . S
C466 N467 1.334 . S
C466 H473 0.930 . S
N467 Zn451 2.119 . S
N467 C463 1.328 . S
N467 C466 1.334 . S
N468 C464 1.331 . S
N468 C465 1.329 . S
H469 C463 0.930 . S
C470 O450 1.257 . S
C470 O471 1.243 . S
O471 C470 1.243 . S
O472 C448 1.257 . S
O472 Zn451 2.019 . S
H473 C466 0.930 . S
H474 C453 0.930 . S
H475 C465 0.930 . S
Zn476 N480 2.020 . S
Zn476 O484 2.019 . S
Zn476 N486 2.119 . S
Zn476 O494 1.975 . S
C477 N478 1.334 . S
C477 N481 1.336 . S
N478 C477 1.334 . S
N478 C479 1.334 . S
C479 N478 1.334 . S
C479 N480 1.336 . S
N480 Zn476 2.020 . S
N480 C479 1.336 . S
N480 N481 1.354 . S
N481 C477 1.336 . S
N481 N480 1.354 . S
N481 Zn485 2.020 . S
C482 O483 1.244 . S
C482 O506 1.257 . S
O483 C482 1.244 . S
O484 Zn476 2.019 . S
O484 C504 1.257 . S
Zn485 N481 2.020 . S
Zn485 O492 1.975 . S
Zn485 N501 2.119 . S
Zn485 O506 2.019 . S
N486 Zn476 2.119 . S
N486 C488 1.334 . S
N486 C489 1.328 . S
C487 C488 1.391 . S
C487 N490 1.329 . S
C487 H508 0.930 . S
C488 N486 1.334 . S
C488 C487 1.391 . S
C488 H495 0.930 . S
C489 N486 1.328 . S
C489 C491 1.392 . S
C489 H496 0.930 . S
N490 C487 1.329 . S
N490 C491 1.331 . S
C491 C489 1.392 . S
C491 N490 1.331 . S
O492 Zn485 1.975 . S
O492 C493 1.252 . S
C493 O492 1.252 . S
C493 O494 1.252 . S
O494 Zn476 1.975 . S
O494 C493 1.252 . S
H495 C488 0.930 . S
H496 C489 0.930 . S
C497 C498 1.392 1_556 S
C497 N501 1.328 . S
C497 H503 0.930 . S
C498 C497 1.392 1_554 S
C498 N502 1.331 . S
C499 C500 1.391 . S
C499 N502 1.329 1_556 S
C499 H509 0.930 . S
C500 C499 1.391 . S
C500 N501 1.334 . S
C500 H507 0.930 . S
N501 Zn485 2.119 . S
N501 C497 1.328 . S
N501 C500 1.334 . S
N502 C498 1.331 . S
N502 C499 1.329 1_554 S
H503 C497 0.930 . S
C504 O484 1.257 . S
C504 O505 1.244 . S
O505 C504 1.244 . S
O506 C482 1.257 . S
O506 Zn485 2.019 . S
H507 C500 0.930 . S
H508 C487 0.930 . S
H509 C499 0.930 . S
Zn510 N514 2.020 . S
Zn510 O518 2.019 . S
Zn510 N520 2.119 . S
Zn510 O528 1.975 . S
C511 N512 1.334 . S
C511 N515 1.336 . S
N512 C511 1.334 . S
N512 C513 1.334 . S
C513 N512 1.334 . S
C513 N514 1.336 . S
N514 Zn510 2.020 . S
N514 C513 1.336 . S
N514 N515 1.354 . S
N515 C511 1.336 . S
N515 N514 1.354 . S
N515 Zn519 2.020 . S
C516 O517 1.244 . S
C516 O540 1.257 . S
O517 C516 1.244 . S
O518 Zn510 2.019 . S
O518 C538 1.257 . S
Zn519 N515 2.020 . S
Zn519 O526 1.975 . S
Zn519 N535 2.119 . S
Zn519 O540 2.019 . S
N520 Zn510 2.119 . S
N520 C522 1.334 . S
N520 C523 1.328 . S
C521 C522 1.391 . S
C521 N524 1.329 . S
C521 H542 0.930 . S
C522 N520 1.334 . S
C522 C521 1.391 . S
C522 H529 0.930 . S
C523 N520 1.328 . S
C523 C525 1.392 . S
C523 H530 0.930 . S
N524 C521 1.329 . S
N524 C525 1.331 . S
C525 C523 1.392 . S
C525 N524 1.331 . S
O526 Zn519 1.975 . S
O526 C527 1.252 . S
C527 O526 1.252 . S
C527 O528 1.252 . S
O528 Zn510 1.975 . S
O528 C527 1.252 . S
H529 C522 0.930 . S
H530 C523 0.930 . S
C531 C532 1.392 . S
C531 N535 1.328 . S
C531 H537 0.930 . S
C532 C531 1.392 . S
C532 N536 1.331 . S
C533 C534 1.391 . S
C533 N536 1.329 . S
C533 H543 0.930 . S
C534 C533 1.391 . S
C534 N535 1.334 . S
C534 H541 0.930 . S
N535 Zn519 2.119 . S
N535 C531 1.328 . S
N535 C534 1.334 . S
N536 C532 1.331 . S
N536 C533 1.329 . S
H537 C531 0.930 . S
C538 O518 1.257 . S
C538 O539 1.244 . S
O539 C538 1.244 . S
O540 C516 1.257 . S
O540 Zn519 2.019 . S
H541 C534 0.930 . S
H542 C521 0.930 . S
H543 C533 0.930 . S
H544 C552 0.950 . S
H545 C557 0.950 . S
H546 C554 0.950 . S
H547 C556 0.950 . S
H548 C558 0.950 . S
H549 C560 0.950 . S
H550 C562 0.950 . S
H551 C563 0.950 . S
C552 H544 0.950 . S
C552 C553 1.386 . S
C552 C554 1.391 . S
C553 C552 1.386 . S
C553 C557 1.393 . S
C554 H546 0.950 . S
C554 C552 1.391 . S
C554 C555 1.400 . S
C555 C554 1.400 . S
C555 C556 1.398 . S
C555 C561 1.491 . S
C556 H547 0.950 . S
C556 C555 1.398 . S
C556 C557 1.391 . S
C557 H545 0.950 . S
C557 C553 1.393 . S
C557 C556 1.391 . S
C558 H548 0.950 . S
C558 C559 1.386 . S
C558 C560 1.391 . S
C559 C558 1.386 . S
C559 C563 1.393 . S
C560 H549 0.950 . S
C560 C558 1.391 . S
C560 C561 1.400 . S
C561 C555 1.491 . S
C561 C560 1.400 . S
C561 C562 1.398 . S
C562 H550 0.950 . S
C562 C561 1.398 . S
C562 C563 1.391 . S
C563 H551 0.950 . S
C563 C559 1.393 . S
C563 C562 1.391 . S
H564 C572 0.950 . S
H565 C577 0.950 . S
H566 C574 0.950 . S
H567 C576 0.950 . S
H568 C578 0.950 . S
H569 C580 0.950 . S
H570 C582 0.950 . S
H571 C583 0.950 . S
C572 H564 0.950 . S
C572 C573 1.386 . S
C572 C574 1.391 . S
C573 C572 1.386 . S
C573 C577 1.393 . S
C574 H566 0.950 . S
C574 C572 1.391 . S
C574 C575 1.400 . S
C575 C574 1.400 . S
C575 C576 1.398 . S
C575 C581 1.491 1_556 S
C576 H567 0.950 . S
C576 C575 1.398 . S
C576 C577 1.391 . S
C577 H565 0.950 . S
C577 C573 1.393 . S
C577 C576 1.391 . S
C578 H568 0.950 . S
C578 C579 1.386 . S
C578 C580 1.391 . S
C579 C578 1.386 . S
C579 C583 1.393 . S
C580 H569 0.950 . S
C580 C578 1.391 . S
C580 C581 1.400 . S
C581 C575 1.491 1_554 S
C581 C580 1.400 . S
C581 C582 1.398 . S
C582 H570 0.950 . S
C582 C581 1.398 . S
C582 C583 1.391 . S
C583 H571 0.950 . S
C583 C579 1.393 . S
C583 C582 1.391 . S
H584 C592 0.950 . S
H585 C597 0.950 . S
H586 C594 0.950 . S
H587 C596 0.950 . S
H588 C598 0.950 . S
H589 C600 0.950 . S
H590 C602 0.950 . S
H591 C603 0.950 . S
C592 H584 0.950 . S
C592 C593 1.386 . S
C592 C594 1.391 . S
C593 C592 1.386 . S
C593 C597 1.393 . S
C594 H586 0.950 . S
C594 C592 1.391 . S
C594 C595 1.400 . S
C595 C594 1.400 . S
C595 C596 1.398 . S
C595 C601 1.491 . S
C596 H587 0.950 . S
C596 C595 1.398 . S
C596 C597 1.391 . S
C597 H585 0.950 . S
C597 C593 1.393 . S
C597 C596 1.391 . S
C598 H588 0.950 . S
C598 C599 1.386 . S
C598 C600 1.391 . S
C599 C598 1.386 . S
C599 C603 1.393 . S
C600 H589 0.950 . S
C600 C598 1.391 . S
C600 C601 1.400 . S
C601 C595 1.491 . S
C601 C600 1.400 . S
C601 C602 1.398 . S
C602 H590 0.950 . S
C602 C601 1.398 . S
C602 C603 1.391 . S
C603 H591 0.950 . S
C603 C599 1.393 . S
C603 C602 1.391 . S
H604 C612 0.950 . S
H605 C617 0.950 . S
H606 C614 0.950 . S
H607 C616 0.950 . S
H608 C618 0.950 . S
H609 C620 0.950 . S
H610 C622 0.950 . S
H611 C623 0.950 . S
C612 H604 0.950 . S
C612 C613 1.386 . S
C612 C614 1.391 . S
C613 C612 1.386 . S
C613 C617 1.393 . S
C614 H606 0.950 . S
C614 C612 1.391 . S
C614 C615 1.400 . S
C615 C614 1.400 . S
C615 C616 1.398 . S
C615 C621 1.491 . S
C616 H607 0.950 . S
C616 C615 1.398 . S
C616 C617 1.391 . S
C617 H605 0.950 . S
C617 C613 1.393 . S
C617 C616 1.391 . S
C618 H608 0.950 . S
C618 C619 1.386 . S
C618 C620 1.391 . S
C619 C618 1.386 . S
C619 C623 1.393 . S
C620 H609 0.950 . S
C620 C618 1.391 . S
C620 C621 1.400 . S
C621 C615 1.491 . S
C621 C620 1.400 . S
C621 C622 1.398 . S
C622 H610 0.950 . S
C622 C621 1.398 . S
C622 C623 1.391 . S
C623 H611 0.950 . S
C623 C619 1.393 . S
C623 C622 1.391 . S
H624 C632 0.950 . S
H625 C637 0.950 . S
H626 C634 0.950 . S
H627 C636 0.950 . S
H628 C638 0.950 . S
H629 C640 0.950 . S
H630 C642 0.950 . S
H631 C643 0.950 . S
C632 H624 0.950 . S
C632 C633 1.386 . S
C632 C634 1.391 . S
C633 C632 1.386 . S
C633 C637 1.393 . S
C634 H626 0.950 . S
C634 C632 1.391 . S
C634 C635 1.400 . S
C635 C634 1.400 . S
C635 C636 1.398 . S
C635 C641 1.491 . S
C636 H627 0.950 . S
C636 C635 1.398 . S
C636 C637 1.391 . S
C637 H625 0.950 . S
C637 C633 1.393 . S
C637 C636 1.391 . S
C638 H628 0.950 . S
C638 C639 1.386 . S
C638 C640 1.391 . S
C639 C638 1.386 . S
C639 C643 1.393 . S
C640 H629 0.950 . S
C640 C638 1.391 . S
C640 C641 1.400 . S
C641 C635 1.491 . S
C641 C640 1.400 . S
C641 C642 1.398 . S
C642 H630 0.950 . S
C642 C641 1.398 . S
C642 C643 1.391 . S
C643 H631 0.950 . S
C643 C639 1.393 . S
C643 C642 1.391 . S
H644 C652 0.950 . S
H645 C657 0.950 . S
H646 C654 0.950 . S
H647 C656 0.950 . S
H648 C658 0.950 . S
H649 C660 0.950 . S
H650 C662 0.950 . S
H651 C663 0.950 . S
C652 H644 0.950 . S
C652 C653 1.386 . S
C652 C654 1.391 . S
C653 C652 1.386 . S
C653 C657 1.393 . S
C654 H646 0.950 . S
C654 C652 1.391 . S
C654 C655 1.400 . S
C655 C654 1.400 . S
C655 C656 1.398 . S
C655 C661 1.491 1_556 S
C656 H647 0.950 . S
C656 C655 1.398 . S
C656 C657 1.391 . S
C657 H645 0.950 . S
C657 C653 1.393 . S
C657 C656 1.391 . S
C658 H648 0.950 . S
C658 C659 1.386 . S
C658 C660 1.391 . S
C659 C658 1.386 . S
C659 C663 1.393 . S
C660 H649 0.950 . S
C660 C658 1.391 . S
C660 C661 1.400 . S
C661 C655 1.491 1_554 S
C661 C660 1.400 . S
C661 C662 1.398 . S
C662 H650 0.950 . S
C662 C661 1.398 . S
C662 C663 1.391 . S
C663 H651 0.950 . S
C663 C659 1.393 . S
C663 C662 1.391 . S
H664 C672 0.950 . S
H665 C677 0.950 . S
H666 C674 0.950 . S
H667 C676 0.950 . S
H668 C678 0.950 . S
H669 C680 0.950 . S
H670 C682 0.950 . S
H671 C683 0.950 . S
C672 H664 0.950 . S
C672 C673 1.386 . S
C672 C674 1.391 . S
C673 C672 1.386 . S
C673 C677 1.393 . S
C674 H666 0.950 . S
C674 C672 1.391 . S
C674 C675 1.400 . S
C675 C674 1.400 . S
C675 C676 1.398 . S
C675 C681 1.491 . S
C676 H667 0.950 . S
C676 C675 1.398 . S
C676 C677 1.391 . S
C677 H665 0.950 . S
C677 C673 1.393 . S
C677 C676 1.391 . S
C678 H668 0.950 . S
C678 C679 1.386 . S
C678 C680 1.391 . S
C679 C678 1.386 . S
C679 C683 1.393 . S
C680 H669 0.950 . S
C680 C678 1.391 . S
C680 C681 1.400 . S
C681 C675 1.491 . S
C681 C680 1.400 . S
C681 C682 1.398 . S
C682 H670 0.950 . S
C682 C681 1.398 . S
C682 C683 1.391 . S
C683 H671 0.950 . S
C683 C679 1.393 . S
C683 C682 1.391 . S
H684 C692 0.950 . S
H685 C697 0.950 . S
H686 C694 0.950 . S
H687 C696 0.950 . S
H688 C698 0.950 . S
H689 C700 0.950 . S
H690 C702 0.950 . S
H691 C703 0.950 . S
C692 H684 0.950 . S
C692 C693 1.386 . S
C692 C694 1.391 . S
C693 C692 1.386 . S
C693 C697 1.393 . S
C694 H686 0.950 . S
C694 C692 1.391 . S
C694 C695 1.400 . S
C695 C694 1.400 . S
C695 C696 1.398 . S
C695 C701 1.491 . S
C696 H687 0.950 . S
C696 C695 1.398 . S
C696 C697 1.391 . S
C697 H685 0.950 . S
C697 C693 1.393 . S
C697 C696 1.391 . S
C698 H688 0.950 . S
C698 C699 1.386 . S
C698 C700 1.391 . S
C699 C698 1.386 . S
C699 C703 1.393 . S
C700 H689 0.950 . S
C700 C698 1.391 . S
C700 C701 1.400 . S
C701 C695 1.491 . S
C701 C700 1.400 . S
C701 C702 1.398 . S
C702 H690 0.950 . S
C702 C701 1.398 . S
C702 C703 1.391 . S
C703 H691 0.950 . S
C703 C699 1.393 . S
C703 C702 1.391 . S
H704 C712 0.950 . S
H705 C717 0.950 . S
H706 C714 0.950 . S
H707 C716 0.950 . S
H708 C718 0.950 . S
H709 C720 0.950 . S
H710 C722 0.950 . S
H711 C723 0.950 . S
C712 H704 0.950 . S
C712 C713 1.386 . S
C712 C714 1.391 . S
C713 C712 1.386 . S
C713 C717 1.393 . S
C714 H706 0.950 . S
C714 C712 1.391 . S
C714 C715 1.400 . S
C715 C714 1.400 . S
C715 C716 1.398 . S
C715 C721 1.491 . S
C716 H707 0.950 . S
C716 C715 1.398 . S
C716 C717 1.391 . S
C717 H705 0.950 . S
C717 C713 1.393 . S
C717 C716 1.391 . S
C718 H708 0.950 . S
C718 C719 1.386 . S
C718 C720 1.391 . S
C719 C718 1.386 . S
C719 C723 1.393 . S
C720 H709 0.950 . S
C720 C718 1.391 . S
C720 C721 1.400 . S
C721 C715 1.491 . S
C721 C720 1.400 . S
C721 C722 1.398 . S
C722 H710 0.950 . S
C722 C721 1.398 . S
C722 C723 1.391 . S
C723 H711 0.950 . S
C723 C719 1.393 . S
C723 C722 1.391 . S
H724 C732 0.950 . S
H725 C737 0.950 . S
H726 C734 0.950 . S
H727 C736 0.950 . S
H728 C738 0.950 . S
H729 C740 0.950 . S
H730 C742 0.950 . S
H731 C743 0.950 . S
C732 H724 0.950 . S
C732 C733 1.386 . S
C732 C734 1.391 . S
C733 C732 1.386 . S
C733 C737 1.393 . S
C734 H726 0.950 . S
C734 C732 1.391 . S
C734 C735 1.400 . S
C735 C734 1.400 . S
C735 C736 1.398 . S
C735 C741 1.491 . S
C736 H727 0.950 . S
C736 C735 1.398 . S
C736 C737 1.391 . S
C737 H725 0.950 . S
C737 C733 1.393 . S
C737 C736 1.391 . S
C738 H728 0.950 . S
C738 C739 1.386 . S
C738 C740 1.391 . S
C739 C738 1.386 . S
C739 C743 1.393 . S
C740 H729 0.950 . S
C740 C738 1.391 . S
C740 C741 1.400 . S
C741 C735 1.491 . S
C741 C740 1.400 . S
C741 C742 1.398 . S
C742 H730 0.950 . S
C742 C741 1.398 . S
C742 C743 1.391 . S
C743 H731 0.950 . S
C743 C739 1.393 . S
C743 C742 1.391 . S
H744 C752 0.950 . S
H745 C757 0.950 . S
H746 C754 0.950 . S
H747 C756 0.950 . S
H748 C758 0.950 . S
H749 C760 0.950 . S
H750 C762 0.950 . S
H751 C763 0.950 . S
C752 H744 0.950 . S
C752 C753 1.386 . S
C752 C754 1.391 . S
C753 C752 1.386 . S
C753 C757 1.393 . S
C754 H746 0.950 . S
C754 C752 1.391 . S
C754 C755 1.400 . S
C755 C754 1.400 . S
C755 C756 1.398 . S
C755 C761 1.491 . S
C756 H747 0.950 . S
C756 C755 1.398 . S
C756 C757 1.391 . S
C757 H745 0.950 . S
C757 C753 1.393 . S
C757 C756 1.391 . S
C758 H748 0.950 . S
C758 C759 1.386 . S
C758 C760 1.391 . S
C759 C758 1.386 . S
C759 C763 1.393 . S
C760 H749 0.950 . S
C760 C758 1.391 . S
C760 C761 1.400 . S
C761 C755 1.491 . S
C761 C760 1.400 . S
C761 C762 1.398 . S
C762 H750 0.950 . S
C762 C761 1.398 . S
C762 C763 1.391 . S
C763 H751 0.950 . S
C763 C759 1.393 . S
C763 C762 1.391 . S
H764 C772 0.950 . S
H765 C777 0.950 . S
H766 C774 0.950 . S
H767 C776 0.950 . S
H768 C778 0.950 . S
H769 C780 0.950 . S
H770 C782 0.950 . S
H771 C783 0.950 . S
C772 H764 0.950 . S
C772 C773 1.386 . S
C772 C774 1.391 . S
C773 C772 1.386 . S
C773 C777 1.393 . S
C774 H766 0.950 . S
C774 C772 1.391 . S
C774 C775 1.400 . S
C775 C774 1.400 . S
C775 C776 1.398 . S
C775 C781 1.491 1_556 S
C776 H767 0.950 . S
C776 C775 1.398 . S
C776 C777 1.391 . S
C777 H765 0.950 . S
C777 C773 1.393 . S
C777 C776 1.391 . S
C778 H768 0.950 . S
C778 C779 1.386 . S
C778 C780 1.391 . S
C779 C778 1.386 . S
C779 C783 1.393 . S
C780 H769 0.950 . S
C780 C778 1.391 . S
C780 C781 1.400 . S
C781 C775 1.491 1_554 S
C781 C780 1.400 . S
C781 C782 1.398 . S
C782 H770 0.950 . S
C782 C781 1.398 . S
C782 C783 1.391 . S
C783 H771 0.950 . S
C783 C779 1.393 . S
C783 C782 1.391 . S
H784 C792 0.950 . S
H785 C797 0.950 . S
H786 C794 0.950 . S
H787 C796 0.950 . S
H788 C798 0.950 . S
H789 C800 0.950 . S
H790 C802 0.950 . S
H791 C803 0.950 . S
C792 H784 0.950 . S
C792 C793 1.386 . S
C792 C794 1.391 . S
C793 C792 1.386 . S
C793 C797 1.393 . S
C794 H786 0.950 . S
C794 C792 1.391 . S
C794 C795 1.400 . S
C795 C794 1.400 . S
C795 C796 1.398 . S
C795 C801 1.491 . S
C796 H787 0.950 . S
C796 C795 1.398 . S
C796 C797 1.391 . S
C797 H785 0.950 . S
C797 C793 1.393 . S
C797 C796 1.391 . S
C798 H788 0.950 . S
C798 C799 1.386 . S
C798 C800 1.391 . S
C799 C798 1.386 . S
C799 C803 1.393 . S
C800 H789 0.950 . S
C800 C798 1.391 . S
C800 C801 1.400 . S
C801 C795 1.491 . S
C801 C800 1.400 . S
C801 C802 1.398 . S
C802 H790 0.950 . S
C802 C801 1.398 . S
C802 C803 1.391 . S
C803 H791 0.950 . S
C803 C799 1.393 . S
C803 C802 1.391 . S
H804 C812 0.950 . S
H805 C817 0.950 . S
H806 C814 0.950 . S
H807 C816 0.950 . S
H808 C818 0.950 . S
H809 C820 0.950 . S
H810 C822 0.950 . S
H811 C823 0.950 . S
C812 H804 0.950 . S
C812 C813 1.386 . S
C812 C814 1.391 . S
C813 C812 1.386 . S
C813 C817 1.393 . S
C814 H806 0.950 . S
C814 C812 1.391 . S
C814 C815 1.400 . S
C815 C814 1.400 . S
C815 C816 1.398 . S
C815 C821 1.491 . S
C816 H807 0.950 . S
C816 C815 1.398 . S
C816 C817 1.391 . S
C817 H805 0.950 . S
C817 C813 1.393 . S
C817 C816 1.391 . S
C818 H808 0.950 . S
C818 C819 1.386 . S
C818 C820 1.391 . S
C819 C818 1.386 . S
C819 C823 1.393 . S
C820 H809 0.950 . S
C820 C818 1.391 . S
C820 C821 1.400 . S
C821 C815 1.491 . S
C821 C820 1.400 . S
C821 C822 1.398 . S
C822 H810 0.950 . S
C822 C821 1.398 . S
C822 C823 1.391 . S
C823 H811 0.950 . S
C823 C819 1.393 . S
C823 C822 1.391 . S
H824 C832 0.950 . S
H825 C837 0.950 . S
H826 C834 0.950 . S
H827 C836 0.950 . S
H828 C838 0.950 . S
H829 C840 0.950 . S
H830 C842 0.950 . S
H831 C843 0.950 . S
C832 H824 0.950 . S
C832 C833 1.386 . S
C832 C834 1.391 . S
C833 C832 1.386 . S
C833 C837 1.393 . S
C834 H826 0.950 . S
C834 C832 1.391 . S
C834 C835 1.400 . S
C835 C834 1.400 . S
C835 C836 1.398 . S
C835 C841 1.491 . S
C836 H827 0.950 . S
C836 C835 1.398 . S
C836 C837 1.391 . S
C837 H825 0.950 . S
C837 C833 1.393 . S
C837 C836 1.391 . S
C838 H828 0.950 . S
C838 C839 1.386 . S
C838 C840 1.391 . S
C839 C838 1.386 . S
C839 C843 1.393 . S
C840 H829 0.950 . S
C840 C838 1.391 . S
C840 C841 1.400 . S
C841 C835 1.491 . S
C841 C840 1.400 . S
C841 C842 1.398 . S
C842 H830 0.950 . S
C842 C841 1.398 . S
C842 C843 1.391 . S
C843 H831 0.950 . S
C843 C839 1.393 . S
C843 C842 1.391 . S
H844 C852 0.950 . S
H845 C857 0.950 . S
H846 C854 0.950 . S
H847 C856 0.950 . S
H848 C858 0.950 . S
H849 C860 0.950 . S
H850 C862 0.950 . S
H851 C863 0.950 . S
C852 H844 0.950 . S
C852 C853 1.386 . S
C852 C854 1.391 . S
C853 C852 1.386 . S
C853 C857 1.393 . S
C854 H846 0.950 . S
C854 C852 1.391 . S
C854 C855 1.400 . S
C855 C854 1.400 . S
C855 C856 1.398 . S
C855 C861 1.491 1_554 S
C856 H847 0.950 . S
C856 C855 1.398 . S
C856 C857 1.391 . S
C857 H845 0.950 . S
C857 C853 1.393 . S
C857 C856 1.391 . S
C858 H848 0.950 . S
C858 C859 1.386 . S
C858 C860 1.391 . S
C859 C858 1.386 . S
C859 C863 1.393 . S
C860 H849 0.950 . S
C860 C858 1.391 . S
C860 C861 1.400 . S
C861 C855 1.491 1_556 S
C861 C860 1.400 . S
C861 C862 1.398 . S
C862 H850 0.950 . S
C862 C861 1.398 . S
C862 C863 1.391 . S
C863 H851 0.950 . S
C863 C859 1.393 . S
C863 C862 1.391 . S
H864 C872 0.950 . S
H865 C877 0.950 . S
H866 C874 0.950 . S
H867 C876 0.950 . S
H868 C878 0.950 . S
H869 C880 0.950 . S
H870 C882 0.950 . S
H871 C883 0.950 . S
C872 H864 0.950 . S
C872 C873 1.386 . S
C872 C874 1.391 . S
C873 C872 1.386 . S
C873 C877 1.393 . S
C874 H866 0.950 . S
C874 C872 1.391 . S
C874 C875 1.400 . S
C875 C874 1.400 . S
C875 C876 1.398 . S
C875 C881 1.491 . S
C876 H867 0.950 . S
C876 C875 1.398 . S
C876 C877 1.391 . S
C877 H865 0.950 . S
C877 C873 1.393 . S
C877 C876 1.391 . S
C878 H868 0.950 . S
C878 C879 1.386 . S
C878 C880 1.391 . S
C879 C878 1.386 . S
C879 C883 1.393 . S
C880 H869 0.950 . S
C880 C878 1.391 . S
C880 C881 1.400 . S
C881 C875 1.491 . S
C881 C880 1.400 . S
C881 C882 1.398 . S
C882 H870 0.950 . S
C882 C881 1.398 . S
C882 C883 1.391 . S
C883 H871 0.950 . S
C883 C879 1.393 . S
C883 C882 1.391 . S
H884 C892 0.950 . S
H885 C897 0.950 . S
H886 C894 0.950 . S
H887 C896 0.950 . S
H888 C898 0.950 . S
H889 C900 0.950 . S
H890 C902 0.950 . S
H891 C903 0.950 . S
C892 H884 0.950 . S
C892 C893 1.386 . S
C892 C894 1.391 . S
C893 C892 1.386 . S
C893 C897 1.393 . S
C894 H886 0.950 . S
C894 C892 1.391 . S
C894 C895 1.400 . S
C895 C894 1.400 . S
C895 C896 1.398 . S
C895 C901 1.491 . S
C896 H887 0.950 . S
C896 C895 1.398 . S
C896 C897 1.391 . S
C897 H885 0.950 . S
C897 C893 1.393 . S
C897 C896 1.391 . S
C898 H888 0.950 . S
C898 C899 1.386 . S
C898 C900 1.391 . S
C899 C898 1.386 . S
C899 C903 1.393 . S
C900 H889 0.950 . S
C900 C898 1.391 . S
C900 C901 1.400 . S
C901 C895 1.491 . S
C901 C900 1.400 . S
C901 C902 1.398 . S
C902 H890 0.950 . S
C902 C901 1.398 . S
C902 C903 1.391 . S
C903 H891 0.950 . S
C903 C899 1.393 . S
C903 C902 1.391 . S
H904 C912 0.950 . S
H905 C917 0.950 . S
H906 C914 0.950 . S
H907 C916 0.950 . S
H908 C918 0.950 . S
H909 C920 0.950 . S
H910 C922 0.950 . S
H911 C923 0.950 . S
C912 H904 0.950 . S
C912 C913 1.386 . S
C912 C914 1.391 . S
C913 C912 1.386 . S
C913 C917 1.393 . S
C914 H906 0.950 . S
C914 C912 1.391 . S
C914 C915 1.400 . S
C915 C914 1.400 . S
C915 C916 1.398 . S
C915 C921 1.491 . S
C916 H907 0.950 . S
C916 C915 1.398 . S
C916 C917 1.391 . S
C917 H905 0.950 . S
C917 C913 1.393 . S
C917 C916 1.391 . S
C918 H908 0.950 . S
C918 C919 1.386 . S
C918 C920 1.391 . S
C919 C918 1.386 . S
C919 C923 1.393 . S
C920 H909 0.950 . S
C920 C918 1.391 . S
C920 C921 1.400 . S
C921 C915 1.491 . S
C921 C920 1.400 . S
C921 C922 1.398 . S
C922 H910 0.950 . S
C922 C921 1.398 . S
C922 C923 1.391 . S
C923 H911 0.950 . S
C923 C919 1.393 . S
C923 C922 1.391 . S
H924 C932 0.950 . S
H925 C937 0.950 . S
H926 C934 0.950 . S
H927 C936 0.950 . S
H928 C938 0.950 . S
H929 C940 0.950 . S
H930 C942 0.950 . S
H931 C943 0.950 . S
C932 H924 0.950 . S
C932 C933 1.386 . S
C932 C934 1.391 . S
C933 C932 1.386 . S
C933 C937 1.393 1_556 S
C934 H926 0.950 . S
C934 C932 1.391 . S
C934 C935 1.400 . S
C935 C934 1.400 . S
C935 C936 1.398 1_556 S
C935 C941 1.491 1_456 S
C936 H927 0.950 . S
C936 C935 1.398 1_554 S
C936 C937 1.391 . S
C937 H925 0.950 . S
C937 C933 1.393 1_554 S
C937 C936 1.391 . S
C938 H928 0.950 . S
C938 C939 1.386 . S
C938 C940 1.391 . S
C939 C938 1.386 . S
C939 C943 1.393 1_554 S
C940 H929 0.950 . S
C940 C938 1.391 . S
C940 C941 1.400 . S
C941 C935 1.491 1_654 S
C941 C940 1.400 . S
C941 C942 1.398 1_554 S
C942 H930 0.950 . S
C942 C941 1.398 1_556 S
C942 C943 1.391 . S
C943 H931 0.950 . S
C943 C939 1.393 1_556 S
C943 C942 1.391 . S
H944 C952 0.950 . S
H945 C957 0.950 . S
H946 C954 0.950 . S
H947 C956 0.950 . S
H948 C958 0.950 . S
H949 C960 0.950 . S
H950 C962 0.950 . S
H951 C963 0.950 . S
C952 H944 0.950 . S
C952 C953 1.386 . S
C952 C954 1.391 . S
C953 C952 1.386 . S
C953 C957 1.393 . S
C954 H946 0.950 . S
C954 C952 1.391 . S
C954 C955 1.400 . S
C955 C954 1.400 . S
C955 C956 1.398 . S
C955 C961 1.491 . S
C956 H947 0.950 . S
C956 C955 1.398 . S
C956 C957 1.391 . S
C957 H945 0.950 . S
C957 C953 1.393 . S
C957 C956 1.391 . S
C958 H948 0.950 . S
C958 C959 1.386 . S
C958 C960 1.391 . S
C959 C958 1.386 . S
C959 C963 1.393 . S
C960 H949 0.950 . S
C960 C958 1.391 . S
C960 C961 1.400 . S
C961 C955 1.491 . S
C961 C960 1.400 . S
C961 C962 1.398 . S
C962 H950 0.950 . S
C962 C961 1.398 . S
C962 C963 1.391 . S
C963 H951 0.950 . S
C963 C959 1.393 . S
C963 C962 1.391 . S
H964 C972 0.950 . S
H965 C977 0.950 . S
H966 C974 0.950 . S
H967 C976 0.950 . S
H968 C978 0.950 . S
H969 C980 0.950 . S
H970 C982 0.950 . S
H971 C983 0.950 . S
C972 H964 0.950 . S
C972 C973 1.386 . S
C972 C974 1.391 . S
C973 C972 1.386 . S
C973 C977 1.393 . S
C974 H966 0.950 . S
C974 C972 1.391 . S
C974 C975 1.400 . S
C975 C974 1.400 . S
C975 C976 1.398 . S
C975 C981 1.491 . S
C976 H967 0.950 . S
C976 C975 1.398 . S
C976 C977 1.391 . S
C977 H965 0.950 . S
C977 C973 1.393 . S
C977 C976 1.391 . S
C978 H968 0.950 . S
C978 C979 1.386 . S
C978 C980 1.391 . S
C979 C978 1.386 . S
C979 C983 1.393 . S
C980 H969 0.950 . S
C980 C978 1.391 . S
C980 C981 1.400 . S
C981 C975 1.491 . S
C981 C980 1.400 . S
C981 C982 1.398 . S
C982 H970 0.950 . S
C982 C981 1.398 . S
C982 C983 1.391 . S
C983 H971 0.950 . S
C983 C979 1.393 . S
C983 C982 1.391 . S
H984 C992 0.950 . S
H985 C997 0.950 . S
H986 C994 0.950 . S
H987 C996 0.950 . S
H988 C998 0.950 . S
H989 C1000 0.950 . S
H990 C1002 0.950 . S
H991 C1003 0.950 . S
C992 H984 0.950 . S
C992 C993 1.386 . S
C992 C994 1.391 . S
C993 C992 1.386 . S
C993 C997 1.393 1_556 S
C994 H986 0.950 . S
C994 C992 1.391 . S
C994 C995 1.400 . S
C995 C994 1.400 . S
C995 C996 1.398 1_556 S
C995 C1001 1.491 1_646 S
C996 H987 0.950 . S
C996 C995 1.398 1_554 S
C996 C997 1.391 . S
C997 H985 0.950 . S
C997 C993 1.393 1_554 S
C997 C996 1.391 . S
C998 H988 0.950 . S
C998 C999 1.386 . S
C998 C1000 1.391 . S
C999 C998 1.386 . S
C999 C1003 1.393 1_554 S
C1000 H989 0.950 . S
C1000 C998 1.391 . S
C1000 C1001 1.400 . S
C1001 C995 1.491 1_464 S
C1001 C1000 1.400 . S
C1001 C1002 1.398 1_554 S
C1002 H990 0.950 . S
C1002 C1001 1.398 1_556 S
C1002 C1003 1.391 . S
C1003 H991 0.950 . S
C1003 C999 1.393 1_556 S
C1003 C1002 1.391 . S
H1004 C1012 0.950 . S
H1005 C1017 0.950 . S
H1006 C1014 0.950 . S
H1007 C1016 0.950 . S
H1008 C1018 0.950 . S
H1009 C1020 0.950 . S
H1010 C1022 0.950 . S
H1011 C1023 0.950 . S
C1012 H1004 0.950 . S
C1012 C1013 1.386 . S
C1012 C1014 1.391 . S
C1013 C1012 1.386 . S
C1013 C1017 1.393 . S
C1014 H1006 0.950 . S
C1014 C1012 1.391 . S
C1014 C1015 1.400 . S
C1015 C1014 1.400 . S
C1015 C1016 1.398 . S
C1015 C1021 1.491 1_545 S
C1016 H1007 0.950 . S
C1016 C1015 1.398 . S
C1016 C1017 1.391 . S
C1017 H1005 0.950 . S
C1017 C1013 1.393 . S
C1017 C1016 1.391 . S
C1018 H1008 0.950 . S
C1018 C1019 1.386 . S
C1018 C1020 1.391 . S
C1019 C1018 1.386 . S
C1019 C1023 1.393 . S
C1020 H1009 0.950 . S
C1020 C1018 1.391 . S
C1020 C1021 1.400 . S
C1021 C1015 1.491 1_565 S
C1021 C1020 1.400 . S
C1021 C1022 1.398 . S
C1022 H1010 0.950 . S
C1022 C1021 1.398 . S
C1022 C1023 1.391 . S
C1023 H1011 0.950 . S
C1023 C1019 1.393 . S
C1023 C1022 1.391 . S
H1024 C1032 0.950 . S
H1025 C1037 0.950 . S
H1026 C1034 0.950 . S
H1027 C1036 0.950 . S
H1028 C1038 0.950 . S
H1029 C1040 0.950 . S
H1030 C1042 0.950 . S
H1031 C1043 0.950 . S
C1032 H1024 0.950 . S
C1032 C1033 1.386 1_545 S
C1032 C1034 1.391 . S
C1033 C1032 1.386 1_565 S
C1033 C1037 1.393 . S
C1034 H1026 0.950 . S
C1034 C1032 1.391 . S
C1034 C1035 1.400 . S
C1035 C1034 1.400 . S
C1035 C1036 1.398 . S
C1035 C1041 1.491 . S
C1036 H1027 0.950 . S
C1036 C1035 1.398 . S
C1036 C1037 1.391 1_545 S
C1037 H1025 0.950 . S
C1037 C1033 1.393 . S
C1037 C1036 1.391 1_565 S
C1038 H1028 0.950 . S
C1038 C1039 1.386 . S
C1038 C1040 1.391 . S
C1039 C1038 1.386 . S
C1039 C1043 1.393 . S
C1040 H1029 0.950 . S
C1040 C1038 1.391 . S
C1040 C1041 1.400 . S
C1041 C1035 1.491 . S
C1041 C1040 1.400 . S
C1041 C1042 1.398 . S
C1042 H1030 0.950 . S
C1042 C1041 1.398 . S
C1042 C1043 1.391 . S
C1043 H1031 0.950 . S
C1043 C1039 1.393 . S
C1043 C1042 1.391 . S
H1044 C1052 0.950 . S
H1045 C1057 0.950 . S
H1046 C1054 0.950 . S
H1047 C1056 0.950 . S
H1048 C1058 0.950 . S
H1049 C1060 0.950 . S
H1050 C1062 0.950 . S
H1051 C1063 0.950 . S
C1052 H1044 0.950 . S
C1052 C1053 1.386 . S
C1052 C1054 1.391 . S
C1053 C1052 1.386 . S
C1053 C1057 1.393 . S
C1054 H1046 0.950 . S
C1054 C1052 1.391 . S
C1054 C1055 1.400 . S
C1055 C1054 1.400 . S
C1055 C1056 1.398 . S
C1055 C1061 1.491 . S
C1056 H1047 0.950 . S
C1056 C1055 1.398 . S
C1056 C1057 1.391 . S
C1057 H1045 0.950 . S
C1057 C1053 1.393 . S
C1057 C1056 1.391 . S
C1058 H1048 0.950 . S
C1058 C1059 1.386 . S
C1058 C1060 1.391 . S
C1059 C1058 1.386 . S
C1059 C1063 1.393 . S
C1060 H1049 0.950 . S
C1060 C1058 1.391 . S
C1060 C1061 1.400 . S
C1061 C1055 1.491 . S
C1061 C1060 1.400 . S
C1061 C1062 1.398 . S
C1062 H1050 0.950 . S
C1062 C1061 1.398 . S
C1062 C1063 1.391 . S
C1063 H1051 0.950 . S
C1063 C1059 1.393 . S
C1063 C1062 1.391 . S
H1064 C1072 0.950 . S
H1065 C1077 0.950 . S
H1066 C1074 0.950 . S
H1067 C1076 0.950 . S
H1068 C1078 0.950 . S
H1069 C1080 0.950 . S
H1070 C1082 0.950 . S
H1071 C1083 0.950 . S
C1072 H1064 0.950 . S
C1072 C1073 1.386 . S
C1072 C1074 1.391 . S
C1073 C1072 1.386 . S
C1073 C1077 1.393 . S
C1074 H1066 0.950 . S
C1074 C1072 1.391 . S
C1074 C1075 1.400 . S
C1075 C1074 1.400 . S
C1075 C1076 1.398 . S
C1075 C1081 1.491 . S
C1076 H1067 0.950 . S
C1076 C1075 1.398 . S
C1076 C1077 1.391 . S
C1077 H1065 0.950 . S
C1077 C1073 1.393 . S
C1077 C1076 1.391 . S
C1078 H1068 0.950 . S
C1078 C1079 1.386 1_565 S
C1078 C1080 1.391 . S
C1079 C1078 1.386 1_545 S
C1079 C1083 1.393 . S
C1080 H1069 0.950 . S
C1080 C1078 1.391 . S
C1080 C1081 1.400 . S
C1081 C1075 1.491 . S
C1081 C1080 1.400 . S
C1081 C1082 1.398 . S
C1082 H1070 0.950 . S
C1082 C1081 1.398 . S
C1082 C1083 1.391 1_565 S
C1083 H1071 0.950 . S
C1083 C1079 1.393 . S
C1083 C1082 1.391 1_545 S
H1084 C1092 0.950 . S
H1085 C1097 0.950 . S
H1086 C1094 0.950 . S
H1087 C1096 0.950 . S
H1088 C1098 0.950 . S
H1089 C1100 0.950 . S
H1090 C1102 0.950 . S
H1091 C1103 0.950 . S
C1092 H1084 0.950 . S
C1092 C1093 1.386 . S
C1092 C1094 1.391 . S
C1093 C1092 1.386 . S
C1093 C1097 1.393 . S
C1094 H1086 0.950 . S
C1094 C1092 1.391 . S
C1094 C1095 1.400 . S
C1095 C1094 1.400 . S
C1095 C1096 1.398 . S
C1095 C1101 1.491 . S
C1096 H1087 0.950 . S
C1096 C1095 1.398 . S
C1096 C1097 1.391 . S
C1097 H1085 0.950 . S
C1097 C1093 1.393 . S
C1097 C1096 1.391 . S
C1098 H1088 0.950 . S
C1098 C1099 1.386 . S
C1098 C1100 1.391 . S
C1099 C1098 1.386 . S
C1099 C1103 1.393 . S
C1100 H1089 0.950 . S
C1100 C1098 1.391 . S
C1100 C1101 1.400 . S
C1101 C1095 1.491 . S
C1101 C1100 1.400 . S
C1101 C1102 1.398 . S
C1102 H1090 0.950 . S
C1102 C1101 1.398 . S
C1102 C1103 1.391 . S
C1103 H1091 0.950 . S
C1103 C1099 1.393 . S
C1103 C1102 1.391 . S
H1104 C1112 0.950 1_545 S
H1105 C1117 0.952 1_545 S
H1106 C1114 0.950 . S
H1107 C1116 0.950 . S
H1108 C1118 0.950 . S
H1109 C1120 0.950 . S
H1110 C1122 0.950 . S
H1111 C1123 0.950 . S
C1112 H1104 0.950 1_565 S
C1112 C1113 1.386 1_565 S
C1112 C1114 1.391 . S
C1113 C1112 1.386 1_545 S
C1113 C1117 1.395 1_545 S
C1114 H1106 0.950 . S
C1114 C1112 1.391 . S
C1114 C1115 1.400 . S
C1115 C1114 1.400 . S
C1115 C1116 1.398 . S
C1115 C1121 1.491 . S
C1116 H1107 0.950 . S
C1116 C1115 1.398 . S
C1116 C1117 1.386 . S
C1117 H1105 0.952 1_565 S
C1117 C1113 1.395 1_565 S
C1117 C1116 1.386 . S
C1118 H1108 0.950 . S
C1118 C1119 1.386 . S
C1118 C1120 1.391 . S
C1119 C1118 1.386 . S
C1119 C1123 1.393 . S
C1120 H1109 0.950 . S
C1120 C1118 1.391 . S
C1120 C1121 1.400 . S
C1121 C1115 1.491 . S
C1121 C1120 1.400 . S
C1121 C1122 1.398 . S
C1122 H1110 0.950 . S
C1122 C1121 1.398 . S
C1122 C1123 1.391 . S
C1123 H1111 0.950 . S
C1123 C1119 1.393 . S
C1123 C1122 1.391 . S
H1124 C1132 0.950 . S
H1125 C1137 0.950 . S
H1126 C1134 0.950 . S
H1127 C1136 0.950 . S
H1128 C1138 0.950 . S
H1129 C1140 0.950 . S
H1130 C1142 0.950 . S
H1131 C1143 0.950 . S
C1132 H1124 0.950 . S
C1132 C1133 1.386 . S
C1132 C1134 1.391 . S
C1133 C1132 1.386 . S
C1133 C1137 1.393 . S
C1134 H1126 0.950 . S
C1134 C1132 1.391 . S
C1134 C1135 1.400 . S
C1135 C1134 1.400 . S
C1135 C1136 1.398 . S
C1135 C1141 1.491 . S
C1136 H1127 0.950 . S
C1136 C1135 1.398 . S
C1136 C1137 1.391 . S
C1137 H1125 0.950 . S
C1137 C1133 1.393 . S
C1137 C1136 1.391 . S
C1138 H1128 0.950 . S
C1138 C1139 1.386 . S
C1138 C1140 1.391 . S
C1139 C1138 1.386 . S
C1139 C1143 1.393 . S
C1140 H1129 0.950 . S
C1140 C1138 1.391 . S
C1140 C1141 1.400 . S
C1141 C1135 1.491 . S
C1141 C1140 1.400 . S
C1141 C1142 1.398 . S
C1142 H1130 0.950 . S
C1142 C1141 1.398 . S
C1142 C1143 1.391 . S
C1143 H1131 0.950 . S
C1143 C1139 1.393 . S
C1143 C1142 1.391 . S
H1144 C1152 0.950 . S
H1145 C1157 0.950 . S
H1146 C1154 0.950 . S
H1147 C1156 0.950 . S
H1148 C1158 0.950 . S
H1149 C1160 0.950 . S
H1150 C1162 0.950 . S
H1151 C1163 0.950 . S
C1152 H1144 0.950 . S
C1152 C1153 1.386 1_545 S
C1152 C1154 1.391 . S
C1153 C1152 1.386 1_565 S
C1153 C1157 1.393 . S
C1154 H1146 0.950 . S
C1154 C1152 1.391 . S
C1154 C1155 1.400 . S
C1155 C1154 1.400 . S
C1155 C1156 1.398 . S
C1155 C1161 1.491 . S
C1156 H1147 0.950 . S
C1156 C1155 1.398 . S
C1156 C1157 1.391 1_545 S
C1157 H1145 0.950 . S
C1157 C1153 1.393 . S
C1157 C1156 1.391 1_565 S
C1158 H1148 0.950 . S
C1158 C1159 1.386 . S
C1158 C1160 1.391 . S
C1159 C1158 1.386 . S
C1159 C1163 1.393 . S
C1160 H1149 0.950 . S
C1160 C1158 1.391 . S
C1160 C1161 1.400 . S
C1161 C1155 1.491 . S
C1161 C1160 1.400 . S
C1161 C1162 1.398 . S
C1162 H1150 0.950 . S
C1162 C1161 1.398 . S
C1162 C1163 1.391 . S
C1163 H1151 0.950 . S
C1163 C1159 1.393 . S
C1163 C1162 1.391 . S
H1164 C1172 0.950 . S
H1165 C1177 0.950 . S
H1166 C1174 0.950 . S
H1167 C1176 0.950 . S
H1168 C1178 0.950 . S
H1169 C1180 0.950 . S
H1170 C1182 0.950 . S
H1171 C1183 0.950 . S
C1172 H1164 0.950 . S
C1172 C1173 1.386 . S
C1172 C1174 1.391 . S
C1173 C1172 1.386 . S
C1173 C1177 1.393 . S
C1174 H1166 0.950 . S
C1174 C1172 1.391 . S
C1174 C1175 1.400 . S
C1175 C1174 1.400 . S
C1175 C1176 1.398 . S
C1175 C1181 1.491 . S
C1176 H1167 0.950 . S
C1176 C1175 1.398 . S
C1176 C1177 1.391 . S
C1177 H1165 0.950 . S
C1177 C1173 1.393 . S
C1177 C1176 1.391 . S
C1178 H1168 0.950 . S
C1178 C1179 1.386 . S
C1178 C1180 1.391 . S
C1179 C1178 1.386 . S
C1179 C1183 1.393 . S
C1180 H1169 0.950 . S
C1180 C1178 1.391 . S
C1180 C1181 1.400 . S
C1181 C1175 1.491 . S
C1181 C1180 1.400 . S
C1181 C1182 1.398 . S
C1182 H1170 0.950 . S
C1182 C1181 1.398 . S
C1182 C1183 1.391 . S
C1183 H1171 0.950 . S
C1183 C1179 1.393 . S
C1183 C1182 1.391 . S
H1184 C1192 0.950 . S
H1185 C1197 0.950 . S
H1186 C1194 0.950 . S
H1187 C1196 0.950 . S
H1188 C1198 0.950 . S
H1189 C1200 0.950 . S
H1190 C1202 0.950 . S
H1191 C1203 0.950 . S
C1192 H1184 0.950 . S
C1192 C1193 1.386 . S
C1192 C1194 1.391 . S
C1193 C1192 1.386 . S
C1193 C1197 1.393 . S
C1194 H1186 0.950 . S
C1194 C1192 1.391 . S
C1194 C1195 1.400 . S
C1195 C1194 1.400 . S
C1195 C1196 1.398 . S
C1195 C1201 1.491 . S
C1196 H1187 0.950 . S
C1196 C1195 1.398 . S
C1196 C1197 1.391 . S
C1197 H1185 0.950 . S
C1197 C1193 1.393 . S
C1197 C1196 1.391 . S
C1198 H1188 0.950 . S
C1198 C1199 1.386 . S
C1198 C1200 1.391 . S
C1199 C1198 1.386 . S
C1199 C1203 1.393 . S
C1200 H1189 0.950 . S
C1200 C1198 1.391 . S
C1200 C1201 1.400 . S
C1201 C1195 1.491 . S
C1201 C1200 1.400 . S
C1201 C1202 1.398 . S
C1202 H1190 0.950 . S
C1202 C1201 1.398 . S
C1202 C1203 1.391 . S
C1203 H1191 0.950 . S
C1203 C1199 1.393 . S
C1203 C1202 1.391 . S
H1204 C1212 0.950 . S
H1205 C1217 0.950 . S
H1206 C1214 0.950 . S
H1207 C1216 0.950 1_554 S
H1208 C1218 0.950 . S
H1209 C1220 0.950 . S
H1210 C1222 0.950 . S
H1211 C1223 0.950 . S
C1212 H1204 0.950 . S
C1212 C1213 1.386 . S
C1212 C1214 1.391 . S
C1213 C1212 1.386 . S
C1213 C1217 1.393 1_556 S
C1214 H1206 0.950 . S
C1214 C1212 1.391 . S
C1214 C1215 1.400 . S
C1215 C1214 1.400 . S
C1215 C1216 1.398 . S
C1215 C1221 1.491 . S
C1216 H1207 0.950 1_556 S
C1216 C1215 1.398 . S
C1216 C1217 1.391 1_556 S
C1217 H1205 0.950 . S
C1217 C1213 1.393 1_554 S
C1217 C1216 1.391 1_554 S
C1218 H1208 0.950 . S
C1218 C1219 1.386 . S
C1218 C1220 1.391 . S
C1219 C1218 1.386 . S
C1219 C1223 1.393 . S
C1220 H1209 0.950 . S
C1220 C1218 1.391 . S
C1220 C1221 1.400 . S
C1221 C1215 1.491 . S
C1221 C1220 1.400 . S
C1221 C1222 1.398 . S
C1222 H1210 0.950 . S
C1222 C1221 1.398 . S
C1222 C1223 1.391 . S
C1223 H1211 0.950 . S
C1223 C1219 1.393 . S
C1223 C1222 1.391 . S
H1224 C1232 0.950 . S
H1225 C1237 0.950 . S
H1226 C1234 0.950 . S
H1227 C1236 0.950 . S
H1228 C1238 0.950 . S
H1229 C1240 0.950 . S
H1230 C1242 0.950 . S
H1231 C1243 0.950 . S
C1232 H1224 0.950 . S
C1232 C1233 1.386 . S
C1232 C1234 1.391 . S
C1233 C1232 1.386 . S
C1233 C1237 1.393 . S
C1234 H1226 0.950 . S
C1234 C1232 1.391 . S
C1234 C1235 1.400 . S
C1235 C1234 1.400 . S
C1235 C1236 1.398 . S
C1235 C1241 1.491 . S
C1236 H1227 0.950 . S
C1236 C1235 1.398 . S
C1236 C1237 1.391 . S
C1237 H1225 0.950 . S
C1237 C1233 1.393 . S
C1237 C1236 1.391 . S
C1238 H1228 0.950 . S
C1238 C1239 1.386 . S
C1238 C1240 1.391 . S
C1239 C1238 1.386 . S
C1239 C1243 1.393 . S
C1240 H1229 0.950 . S
C1240 C1238 1.391 . S
C1240 C1241 1.400 . S
C1241 C1235 1.491 . S
C1241 C1240 1.400 . S
C1241 C1242 1.398 . S
C1242 H1230 0.950 . S
C1242 C1241 1.398 . S
C1242 C1243 1.391 . S
C1243 H1231 0.950 . S
C1243 C1239 1.393 . S
C1243 C1242 1.391 . S
H1244 C1252 0.950 . S
H1245 C1257 0.950 . S
H1246 C1254 0.950 . S
H1247 C1256 0.950 . S
H1248 C1258 0.950 . S
H1249 C1260 0.950 . S
H1250 C1262 0.950 . S
H1251 C1263 0.950 . S
C1252 H1244 0.950 . S
C1252 C1253 1.386 . S
C1252 C1254 1.391 . S
C1253 C1252 1.386 . S
C1253 C1257 1.393 . S
C1254 H1246 0.950 . S
C1254 C1252 1.391 . S
C1254 C1255 1.400 . S
C1255 C1254 1.400 . S
C1255 C1256 1.398 . S
C1255 C1261 1.491 . S
C1256 H1247 0.950 . S
C1256 C1255 1.398 . S
C1256 C1257 1.391 . S
C1257 H1245 0.950 . S
C1257 C1253 1.393 . S
C1257 C1256 1.391 . S
C1258 H1248 0.950 . S
C1258 C1259 1.386 . S
C1258 C1260 1.391 . S
C1259 C1258 1.386 . S
C1259 C1263 1.393 . S
C1260 H1249 0.950 . S
C1260 C1258 1.391 . S
C1260 C1261 1.400 . S
C1261 C1255 1.491 . S
C1261 C1260 1.400 . S
C1261 C1262 1.398 . S
C1262 H1250 0.950 . S
C1262 C1261 1.398 . S
C1262 C1263 1.391 . S
C1263 H1251 0.950 . S
C1263 C1259 1.393 . S
C1263 C1262 1.391 . S
H1264 C1272 0.950 . S
H1265 C1277 0.950 . S
H1266 C1274 0.950 . S
H1267 C1276 0.950 . S
H1268 C1278 0.950 . S
H1269 C1280 0.950 . S
H1270 C1282 0.950 . S
H1271 C1283 0.950 . S
C1272 H1264 0.950 . S
C1272 C1273 1.386 . S
C1272 C1274 1.391 . S
C1273 C1272 1.386 . S
C1273 C1277 1.393 . S
C1274 H1266 0.950 . S
C1274 C1272 1.391 . S
C1274 C1275 1.400 . S
C1275 C1274 1.400 . S
C1275 C1276 1.398 . S
C1275 C1281 1.491 . S
C1276 H1267 0.950 . S
C1276 C1275 1.398 . S
C1276 C1277 1.391 . S
C1277 H1265 0.950 . S
C1277 C1273 1.393 . S
C1277 C1276 1.391 . S
C1278 H1268 0.950 . S
C1278 C1279 1.386 . S
C1278 C1280 1.391 . S
C1279 C1278 1.386 . S
C1279 C1283 1.393 . S
C1280 H1269 0.950 . S
C1280 C1278 1.391 . S
C1280 C1281 1.400 . S
C1281 C1275 1.491 . S
C1281 C1280 1.400 . S
C1281 C1282 1.398 . S
C1282 H1270 0.950 . S
C1282 C1281 1.398 . S
C1282 C1283 1.391 . S
C1283 H1271 0.950 . S
C1283 C1279 1.393 . S
C1283 C1282 1.391 . S
H1284 C1292 0.950 . S
H1285 C1297 0.950 . S
H1286 C1294 0.950 . S
H1287 C1296 0.950 . S
H1288 C1298 0.950 . S
H1289 C1300 0.950 . S
H1290 C1302 0.950 . S
H1291 C1303 0.950 . S
C1292 H1284 0.950 . S
C1292 C1293 1.386 . S
C1292 C1294 1.391 . S
C1293 C1292 1.386 . S
C1293 C1297 1.393 . S
C1294 H1286 0.950 . S
C1294 C1292 1.391 . S
C1294 C1295 1.400 . S
C1295 C1294 1.400 . S
C1295 C1296 1.398 . S
C1295 C1301 1.491 . S
C1296 H1287 0.950 . S
C1296 C1295 1.398 . S
C1296 C1297 1.391 . S
C1297 H1285 0.950 . S
C1297 C1293 1.393 . S
C1297 C1296 1.391 . S
C1298 H1288 0.950 . S
C1298 C1299 1.386 . S
C1298 C1300 1.391 . S
C1299 C1298 1.386 . S
C1299 C1303 1.393 . S
C1300 H1289 0.950 . S
C1300 C1298 1.391 . S
C1300 C1301 1.400 . S
C1301 C1295 1.491 . S
C1301 C1300 1.400 . S
C1301 C1302 1.398 . S
C1302 H1290 0.950 . S
C1302 C1301 1.398 . S
C1302 C1303 1.391 . S
C1303 H1291 0.950 . S
C1303 C1299 1.393 . S
C1303 C1302 1.391 . S
H1304 C1312 0.950 . S
H1305 C1317 0.950 . S
H1306 C1314 0.950 . S
H1307 C1316 0.950 . S
H1308 C1318 0.950 . S
H1309 C1320 0.950 . S
H1310 C1322 0.950 . S
H1311 C1323 0.950 . S
C1312 H1304 0.950 . S
C1312 C1313 1.386 . S
C1312 C1314 1.391 . S
C1313 C1312 1.386 . S
C1313 C1317 1.393 . S
C1314 H1306 0.950 . S
C1314 C1312 1.391 . S
C1314 C1315 1.400 . S
C1315 C1314 1.400 . S
C1315 C1316 1.398 . S
C1315 C1321 1.491 . S
C1316 H1307 0.950 . S
C1316 C1315 1.398 . S
C1316 C1317 1.391 . S
C1317 H1305 0.950 . S
C1317 C1313 1.393 . S
C1317 C1316 1.391 . S
C1318 H1308 0.950 . S
C1318 C1319 1.386 . S
C1318 C1320 1.391 . S
C1319 C1318 1.386 . S
C1319 C1323 1.393 . S
C1320 H1309 0.950 . S
C1320 C1318 1.391 . S
C1320 C1321 1.400 . S
C1321 C1315 1.491 . S
C1321 C1320 1.400 . S
C1321 C1322 1.398 . S
C1322 H1310 0.950 . S
C1322 C1321 1.398 . S
C1322 C1323 1.391 . S
C1323 H1311 0.950 . S
C1323 C1319 1.393 . S
C1323 C1322 1.391 . S
H1324 C1332 0.950 . S
H1325 C1337 0.950 . S
H1326 C1334 0.950 . S
H1327 C1336 0.950 . S
H1328 C1338 0.950 . S
H1329 C1340 0.950 . S
H1330 C1342 0.950 . S
H1331 C1343 0.950 . S
C1332 H1324 0.950 . S
C1332 C1333 1.386 . S
C1332 C1334 1.391 . S
C1333 C1332 1.386 . S
C1333 C1337 1.393 . S
C1334 H1326 0.950 . S
C1334 C1332 1.391 . S
C1334 C1335 1.400 . S
C1335 C1334 1.400 . S
C1335 C1336 1.398 . S
C1335 C1341 1.491 . S
C1336 H1327 0.950 . S
C1336 C1335 1.398 . S
C1336 C1337 1.391 . S
C1337 H1325 0.950 . S
C1337 C1333 1.393 . S
C1337 C1336 1.391 . S
C1338 H1328 0.950 . S
C1338 C1339 1.386 . S
C1338 C1340 1.391 . S
C1339 C1338 1.386 . S
C1339 C1343 1.393 . S
C1340 H1329 0.950 . S
C1340 C1338 1.391 . S
C1340 C1341 1.400 . S
C1341 C1335 1.491 . S
C1341 C1340 1.400 . S
C1341 C1342 1.398 . S
C1342 H1330 0.950 . S
C1342 C1341 1.398 . S
C1342 C1343 1.391 . S
C1343 H1331 0.950 . S
C1343 C1339 1.393 . S
C1343 C1342 1.391 . S
H1344 C1352 0.950 . S
H1345 C1357 0.950 . S
H1346 C1354 0.950 . S
H1347 C1356 0.950 . S
H1348 C1358 0.950 . S
H1349 C1360 0.950 . S
H1350 C1362 0.950 . S
H1351 C1363 0.950 . S
C1352 H1344 0.950 . S
C1352 C1353 1.386 . S
C1352 C1354 1.391 . S
C1353 C1352 1.386 . S
C1353 C1357 1.393 . S
C1354 H1346 0.950 . S
C1354 C1352 1.391 . S
C1354 C1355 1.400 . S
C1355 C1354 1.400 . S
C1355 C1356 1.398 . S
C1355 C1361 1.491 . S
C1356 H1347 0.950 . S
C1356 C1355 1.398 . S
C1356 C1357 1.391 . S
C1357 H1345 0.950 . S
C1357 C1353 1.393 . S
C1357 C1356 1.391 . S
C1358 H1348 0.950 . S
C1358 C1359 1.386 . S
C1358 C1360 1.391 . S
C1359 C1358 1.386 . S
C1359 C1363 1.393 . S
C1360 H1349 0.950 . S
C1360 C1358 1.391 . S
C1360 C1361 1.400 . S
C1361 C1355 1.491 . S
C1361 C1360 1.400 . S
C1361 C1362 1.398 . S
C1362 H1350 0.950 . S
C1362 C1361 1.398 . S
C1362 C1363 1.391 . S
C1363 H1351 0.950 . S
C1363 C1359 1.393 . S
C1363 C1362 1.391 . S
H1364 C1372 0.950 . S
H1365 C1377 0.950 . S
H1366 C1374 0.950 . S
H1367 C1376 0.950 . S
H1368 C1378 0.950 . S
H1369 C1380 0.950 . S
H1370 C1382 0.950 . S
H1371 C1383 0.950 . S
C1372 H1364 0.950 . S
C1372 C1373 1.386 . S
C1372 C1374 1.391 . S
C1373 C1372 1.386 . S
C1373 C1377 1.393 . S
C1374 H1366 0.950 . S
C1374 C1372 1.391 . S
C1374 C1375 1.400 . S
C1375 C1374 1.400 . S
C1375 C1376 1.398 . S
C1375 C1381 1.491 . S
C1376 H1367 0.950 . S
C1376 C1375 1.398 . S
C1376 C1377 1.391 . S
C1377 H1365 0.950 . S
C1377 C1373 1.393 . S
C1377 C1376 1.391 . S
C1378 H1368 0.950 . S
C1378 C1379 1.386 . S
C1378 C1380 1.391 . S
C1379 C1378 1.386 . S
C1379 C1383 1.393 . S
C1380 H1369 0.950 . S
C1380 C1378 1.391 . S
C1380 C1381 1.400 . S
C1381 C1375 1.491 . S
C1381 C1380 1.400 . S
C1381 C1382 1.398 . S
C1382 H1370 0.950 . S
C1382 C1381 1.398 . S
C1382 C1383 1.391 . S
C1383 H1371 0.950 . S
C1383 C1379 1.393 . S
C1383 C1382 1.391 . S
H1384 C1392 0.950 . S
H1385 C1397 0.950 . S
H1386 C1394 0.950 . S
H1387 C1396 0.950 . S
H1388 C1398 0.950 . S
H1389 C1400 0.950 . S
H1390 C1402 0.950 . S
H1391 C1403 0.950 . S
C1392 H1384 0.950 . S
C1392 C1393 1.386 . S
C1392 C1394 1.391 . S
C1393 C1392 1.386 . S
C1393 C1397 1.393 . S
C1394 H1386 0.950 . S
C1394 C1392 1.391 . S
C1394 C1395 1.400 . S
C1395 C1394 1.400 . S
C1395 C1396 1.398 . S
C1395 C1401 1.491 . S
C1396 H1387 0.950 . S
C1396 C1395 1.398 . S
C1396 C1397 1.391 . S
C1397 H1385 0.950 . S
C1397 C1393 1.393 . S
C1397 C1396 1.391 . S
C1398 H1388 0.950 . S
C1398 C1399 1.386 . S
C1398 C1400 1.391 . S
C1399 C1398 1.386 . S
C1399 C1403 1.393 . S
C1400 H1389 0.950 . S
C1400 C1398 1.391 . S
C1400 C1401 1.400 . S
C1401 C1395 1.491 . S
C1401 C1400 1.400 . S
C1401 C1402 1.398 . S
C1402 H1390 0.950 . S
C1402 C1401 1.398 . S
C1402 C1403 1.391 . S
C1403 H1391 0.950 . S
C1403 C1399 1.393 . S
C1403 C1402 1.391 . S
H1404 C1412 0.950 . S
H1405 C1417 0.950 . S
H1406 C1414 0.950 . S
H1407 C1416 0.950 . S
H1408 C1418 0.950 . S
H1409 C1420 0.950 . S
H1410 C1422 0.950 . S
H1411 C1423 0.950 . S
C1412 H1404 0.950 . S
C1412 C1413 1.386 . S
C1412 C1414 1.391 . S
C1413 C1412 1.386 . S
C1413 C1417 1.393 . S
C1414 H1406 0.950 . S
C1414 C1412 1.391 . S
C1414 C1415 1.400 . S
C1415 C1414 1.400 . S
C1415 C1416 1.398 . S
C1415 C1421 1.491 . S
C1416 H1407 0.950 . S
C1416 C1415 1.398 . S
C1416 C1417 1.391 . S
C1417 H1405 0.950 . S
C1417 C1413 1.393 . S
C1417 C1416 1.391 . S
C1418 H1408 0.950 . S
C1418 C1419 1.386 . S
C1418 C1420 1.391 . S
C1419 C1418 1.386 . S
C1419 C1423 1.393 . S
C1420 H1409 0.950 . S
C1420 C1418 1.391 . S
C1420 C1421 1.400 1_655 S
C1421 C1415 1.491 . S
C1421 C1420 1.400 1_455 S
C1421 C1422 1.398 . S
C1422 H1410 0.950 . S
C1422 C1421 1.398 . S
C1422 C1423 1.391 1_455 S
C1423 H1411 0.950 . S
C1423 C1419 1.393 . S
C1423 C1422 1.391 1_655 S
H1424 C1432 0.950 . S
H1425 C1437 0.950 . S
H1426 C1434 0.950 . S
H1427 C1436 0.950 . S
H1428 C1438 0.950 . S
H1429 C1440 0.950 . S
H1430 C1442 0.950 . S
H1431 C1443 0.950 . S
C1432 H1424 0.950 . S
C1432 C1433 1.386 . S
C1432 C1434 1.391 . S
C1433 C1432 1.386 . S
C1433 C1437 1.393 . S
C1434 H1426 0.950 . S
C1434 C1432 1.391 . S
C1434 C1435 1.400 . S
C1435 C1434 1.400 . S
C1435 C1436 1.398 . S
C1435 C1441 1.491 . S
C1436 H1427 0.950 . S
C1436 C1435 1.398 . S
C1436 C1437 1.391 . S
C1437 H1425 0.950 . S
C1437 C1433 1.393 . S
C1437 C1436 1.391 . S
C1438 H1428 0.950 . S
C1438 C1439 1.386 . S
C1438 C1440 1.391 . S
C1439 C1438 1.386 . S
C1439 C1443 1.393 . S
C1440 H1429 0.950 . S
C1440 C1438 1.391 . S
C1440 C1441 1.400 . S
C1441 C1435 1.491 . S
C1441 C1440 1.400 . S
C1441 C1442 1.398 . S
C1442 H1430 0.950 . S
C1442 C1441 1.398 . S
C1442 C1443 1.391 . S
C1443 H1431 0.950 . S
C1443 C1439 1.393 . S
C1443 C1442 1.391 . S
H1444 C1452 0.950 . S
H1445 C1457 0.950 . S
H1446 C1454 0.950 . S
H1447 C1456 0.950 . S
H1448 C1458 0.950 . S
H1449 C1460 0.950 . S
H1450 C1462 0.950 . S
H1451 C1463 0.950 . S
C1452 H1444 0.950 . S
C1452 C1453 1.386 . S
C1452 C1454 1.391 . S
C1453 C1452 1.386 . S
C1453 C1457 1.393 . S
C1454 H1446 0.950 . S
C1454 C1452 1.391 . S
C1454 C1455 1.400 . S
C1455 C1454 1.400 . S
C1455 C1456 1.398 . S
C1455 C1461 1.491 . S
C1456 H1447 0.950 . S
C1456 C1455 1.398 . S
C1456 C1457 1.391 . S
C1457 H1445 0.950 . S
C1457 C1453 1.393 . S
C1457 C1456 1.391 . S
C1458 H1448 0.950 . S
C1458 C1459 1.386 . S
C1458 C1460 1.391 . S
C1459 C1458 1.386 . S
C1459 C1463 1.393 . S
C1460 H1449 0.950 . S
C1460 C1458 1.391 . S
C1460 C1461 1.400 . S
C1461 C1455 1.491 . S
C1461 C1460 1.400 . S
C1461 C1462 1.398 . S
C1462 H1450 0.950 . S
C1462 C1461 1.398 . S
C1462 C1463 1.391 . S
C1463 H1451 0.950 . S
C1463 C1459 1.393 . S
C1463 C1462 1.391 . S
H1464 C1472 0.950 . S
H1465 C1477 0.950 . S
H1466 C1474 0.950 . S
H1467 C1476 0.950 . S
H1468 C1478 0.950 . S
H1469 C1480 0.950 . S
H1470 C1482 0.950 . S
H1471 C1483 0.950 . S
C1472 H1464 0.950 . S
C1472 C1473 1.386 . S
C1472 C1474 1.391 . S
C1473 C1472 1.386 . S
C1473 C1477 1.393 . S
C1474 H1466 0.950 . S
C1474 C1472 1.391 . S
C1474 C1475 1.400 . S
C1475 C1474 1.400 . S
C1475 C1476 1.398 . S
C1475 C1481 1.491 . S
C1476 H1467 0.950 . S
C1476 C1475 1.398 . S
C1476 C1477 1.391 . S
C1477 H1465 0.950 . S
C1477 C1473 1.393 . S
C1477 C1476 1.391 . S
C1478 H1468 0.950 . S
C1478 C1479 1.386 . S
C1478 C1480 1.391 . S
C1479 C1478 1.386 . S
C1479 C1483 1.393 . S
C1480 H1469 0.950 . S
C1480 C1478 1.391 . S
C1480 C1481 1.400 . S
C1481 C1475 1.491 . S
C1481 C1480 1.400 . S
C1481 C1482 1.398 . S
C1482 H1470 0.950 . S
C1482 C1481 1.398 . S
C1482 C1483 1.391 . S
C1483 H1471 0.950 . S
C1483 C1479 1.393 . S
C1483 C1482 1.391 . S
H1484 C1492 0.950 . S
H1485 C1497 0.950 . S
H1486 C1494 0.950 . S
H1487 C1496 0.950 . S
H1488 C1498 0.950 . S
H1489 C1500 0.950 . S
H1490 C1502 0.950 . S
H1491 C1503 0.950 . S
C1492 H1484 0.950 . S
C1492 C1493 1.386 . S
C1492 C1494 1.391 1_455 S
C1493 C1492 1.386 . S
C1493 C1497 1.393 . S
C1494 H1486 0.950 . S
C1494 C1492 1.391 1_655 S
C1494 C1495 1.400 . S
C1495 C1494 1.400 . S
C1495 C1496 1.398 1_655 S
C1495 C1501 1.491 . S
C1496 H1487 0.950 . S
C1496 C1495 1.398 1_455 S
C1496 C1497 1.391 . S
C1497 H1485 0.950 . S
C1497 C1493 1.393 . S
C1497 C1496 1.391 . S
C1498 H1488 0.950 . S
C1498 C1499 1.386 . S
C1498 C1500 1.391 . S
C1499 C1498 1.386 . S
C1499 C1503 1.393 . S
C1500 H1489 0.950 . S
C1500 C1498 1.391 . S
C1500 C1501 1.400 . S
C1501 C1495 1.491 . S
C1501 C1500 1.400 . S
C1501 C1502 1.398 . S
C1502 H1490 0.950 . S
C1502 C1501 1.398 . S
C1502 C1503 1.391 . S
C1503 H1491 0.950 . S
C1503 C1499 1.393 . S
C1503 C1502 1.391 . S
H1504 C1512 0.950 . S
H1505 C1517 0.950 . S
H1506 C1514 0.950 . S
H1507 C1516 0.950 . S
H1508 C1518 0.950 . S
H1509 C1520 0.950 . S
H1510 C1522 0.950 . S
H1511 C1523 0.950 . S
C1512 H1504 0.950 . S
C1512 C1513 1.386 . S
C1512 C1514 1.391 . S
C1513 C1512 1.386 . S
C1513 C1517 1.393 . S
C1514 H1506 0.950 . S
C1514 C1512 1.391 . S
C1514 C1515 1.400 . S
C1515 C1514 1.400 . S
C1515 C1516 1.398 . S
C1515 C1521 1.491 . S
C1516 H1507 0.950 . S
C1516 C1515 1.398 . S
C1516 C1517 1.391 . S
C1517 H1505 0.950 . S
C1517 C1513 1.393 . S
C1517 C1516 1.391 . S
C1518 H1508 0.950 . S
C1518 C1519 1.386 . S
C1518 C1520 1.391 . S
C1519 C1518 1.386 . S
C1519 C1523 1.393 . S
C1520 H1509 0.950 . S
C1520 C1518 1.391 . S
C1520 C1521 1.400 . S
C1521 C1515 1.491 . S
C1521 C1520 1.400 . S
C1521 C1522 1.398 . S
C1522 H1510 0.950 . S
C1522 C1521 1.398 . S
C1522 C1523 1.391 . S
C1523 H1511 0.950 . S
C1523 C1519 1.393 . S
C1523 C1522 1.391 . S
H1524 C1532 0.950 . S
H1525 C1537 0.950 . S
H1526 C1534 0.950 . S
H1527 C1536 0.950 . S
H1528 C1538 0.950 . S
H1529 C1540 0.950 . S
H1530 C1542 0.950 . S
H1531 C1543 0.950 . S
C1532 H1524 0.950 . S
C1532 C1533 1.386 . S
C1532 C1534 1.391 1_455 S
C1533 C1532 1.386 . S
C1533 C1537 1.393 . S
C1534 H1526 0.950 . S
C1534 C1532 1.391 1_655 S
C1534 C1535 1.400 . S
C1535 C1534 1.400 . S
C1535 C1536 1.398 1_655 S
C1535 C1541 1.491 . S
C1536 H1527 0.950 . S
C1536 C1535 1.398 1_455 S
C1536 C1537 1.391 . S
C1537 H1525 0.950 . S
C1537 C1533 1.393 . S
C1537 C1536 1.391 . S
C1538 H1528 0.950 . S
C1538 C1539 1.386 . S
C1538 C1540 1.391 . S
C1539 C1538 1.386 . S
C1539 C1543 1.393 . S
C1540 H1529 0.950 . S
C1540 C1538 1.391 . S
C1540 C1541 1.400 . S
C1541 C1535 1.491 . S
C1541 C1540 1.400 . S
C1541 C1542 1.398 . S
C1542 H1530 0.950 . S
C1542 C1541 1.398 . S
C1542 C1543 1.391 . S
C1543 H1531 0.950 . S
C1543 C1539 1.393 . S
C1543 C1542 1.391 . S
H1544 C1552 0.950 . S
H1545 C1557 0.950 . S
H1546 C1554 0.950 . S
H1547 C1556 0.950 . S
H1548 C1558 0.950 . S
H1549 C1560 0.950 . S
H1550 C1562 0.950 . S
H1551 C1563 0.950 . S
C1552 H1544 0.950 . S
C1552 C1553 1.386 . S
C1552 C1554 1.391 . S
C1553 C1552 1.386 . S
C1553 C1557 1.393 . S
C1554 H1546 0.950 . S
C1554 C1552 1.391 . S
C1554 C1555 1.400 . S
C1555 C1554 1.400 . S
C1555 C1556 1.398 . S
C1555 C1561 1.491 . S
C1556 H1547 0.950 . S
C1556 C1555 1.398 . S
C1556 C1557 1.391 . S
C1557 H1545 0.950 . S
C1557 C1553 1.393 . S
C1557 C1556 1.391 . S
C1558 H1548 0.950 . S
C1558 C1559 1.386 . S
C1558 C1560 1.391 . S
C1559 C1558 1.386 . S
C1559 C1563 1.393 . S
C1560 H1549 0.950 . S
C1560 C1558 1.391 . S
C1560 C1561 1.400 . S
C1561 C1555 1.491 . S
C1561 C1560 1.400 . S
C1561 C1562 1.398 . S
C1562 H1550 0.950 . S
C1562 C1561 1.398 . S
C1562 C1563 1.391 . S
C1563 H1551 0.950 . S
C1563 C1559 1.393 . S
C1563 C1562 1.391 . S
H1564 C1572 0.950 . S
H1565 C1577 0.950 . S
H1566 C1574 0.950 . S
H1567 C1576 0.950 . S
H1568 C1578 0.950 . S
H1569 C1580 0.950 . S
H1570 C1582 0.950 . S
H1571 C1583 0.950 . S
C1572 H1564 0.950 . S
C1572 C1573 1.386 . S
C1572 C1574 1.391 . S
C1573 C1572 1.386 . S
C1573 C1577 1.393 . S
C1574 H1566 0.950 . S
C1574 C1572 1.391 . S
C1574 C1575 1.400 . S
C1575 C1574 1.400 . S
C1575 C1576 1.398 . S
C1575 C1581 1.491 . S
C1576 H1567 0.950 . S
C1576 C1575 1.398 . S
C1576 C1577 1.391 . S
C1577 H1565 0.950 . S
C1577 C1573 1.393 . S
C1577 C1576 1.391 . S
C1578 H1568 0.950 . S
C1578 C1579 1.386 . S
C1578 C1580 1.391 . S
C1579 C1578 1.386 . S
C1579 C1583 1.393 . S
C1580 H1569 0.950 . S
C1580 C1578 1.391 . S
C1580 C1581 1.400 . S
C1581 C1575 1.491 . S
C1581 C1580 1.400 . S
C1581 C1582 1.398 . S
C1582 H1570 0.950 . S
C1582 C1581 1.398 . S
C1582 C1583 1.391 . S
C1583 H1571 0.950 . S
C1583 C1579 1.393 . S
C1583 C1582 1.391 . S
H1584 C1592 0.950 . S
H1585 C1597 0.950 . S
H1586 C1594 0.950 . S
H1587 C1596 0.950 . S
H1588 C1598 0.950 . S
H1589 C1600 0.950 . S
H1590 C1602 0.950 . S
H1591 C1603 0.950 . S
C1592 H1584 0.950 . S
C1592 C1593 1.386 . S
C1592 C1594 1.391 . S
C1593 C1592 1.386 . S
C1593 C1597 1.393 . S
C1594 H1586 0.950 . S
C1594 C1592 1.391 . S
C1594 C1595 1.400 . S
C1595 C1594 1.400 . S
C1595 C1596 1.398 . S
C1595 C1601 1.491 . S
C1596 H1587 0.950 . S
C1596 C1595 1.398 . S
C1596 C1597 1.391 . S
C1597 H1585 0.950 . S
C1597 C1593 1.393 . S
C1597 C1596 1.391 . S
C1598 H1588 0.950 . S
C1598 C1599 1.386 . S
C1598 C1600 1.391 . S
C1599 C1598 1.386 . S
C1599 C1603 1.393 . S
C1600 H1589 0.950 . S
C1600 C1598 1.391 . S
C1600 C1601 1.400 . S
C1601 C1595 1.491 . S
C1601 C1600 1.400 . S
C1601 C1602 1.398 . S
C1602 H1590 0.950 . S
C1602 C1601 1.398 . S
C1602 C1603 1.391 . S
C1603 H1591 0.950 . S
C1603 C1599 1.393 . S
C1603 C1602 1.391 . S
H1604 C1612 0.950 . S
H1605 C1617 0.950 . S
H1606 C1614 0.950 . S
H1607 C1616 0.950 . S
H1608 C1618 0.950 . S
H1609 C1620 0.950 . S
H1610 C1622 0.950 . S
H1611 C1623 0.950 . S
C1612 H1604 0.950 . S
C1612 C1613 1.386 . S
C1612 C1614 1.391 . S
C1613 C1612 1.386 . S
C1613 C1617 1.393 . S
C1614 H1606 0.950 . S
C1614 C1612 1.391 . S
C1614 C1615 1.400 1_655 S
C1615 C1614 1.400 1_455 S
C1615 C1616 1.398 . S
C1615 C1621 1.491 . S
C1616 H1607 0.950 . S
C1616 C1615 1.398 . S
C1616 C1617 1.391 1_455 S
C1617 H1605 0.950 . S
C1617 C1613 1.393 . S
C1617 C1616 1.391 1_655 S
C1618 H1608 0.950 . S
C1618 C1619 1.386 . S
C1618 C1620 1.391 . S
C1619 C1618 1.386 . S
C1619 C1623 1.393 . S
C1620 H1609 0.950 . S
C1620 C1618 1.391 . S
C1620 C1621 1.400 . S
C1621 C1615 1.491 . S
C1621 C1620 1.400 . S
C1621 C1622 1.398 . S
C1622 H1610 0.950 . S
C1622 C1621 1.398 . S
C1622 C1623 1.391 . S
C1623 H1611 0.950 . S
C1623 C1619 1.393 . S
C1623 C1622 1.391 . S
H1624 C1632 0.950 . S
H1625 C1637 0.950 . S
H1626 C1634 0.950 . S
H1627 C1636 0.950 . S
H1628 C1638 0.950 . S
H1629 C1640 0.950 . S
H1630 C1642 0.950 . S
H1631 C1643 0.950 . S
C1632 H1624 0.950 . S
C1632 C1633 1.386 . S
C1632 C1634 1.391 . S
C1633 C1632 1.386 . S
C1633 C1637 1.393 . S
C1634 H1626 0.950 . S
C1634 C1632 1.391 . S
C1634 C1635 1.400 . S
C1635 C1634 1.400 . S
C1635 C1636 1.398 . S
C1635 C1641 1.491 . S
C1636 H1627 0.950 . S
C1636 C1635 1.398 . S
C1636 C1637 1.391 . S
C1637 H1625 0.950 . S
C1637 C1633 1.393 . S
C1637 C1636 1.391 . S
C1638 H1628 0.950 . S
C1638 C1639 1.386 . S
C1638 C1640 1.391 . S
C1639 C1638 1.386 . S
C1639 C1643 1.393 . S
C1640 H1629 0.950 . S
C1640 C1638 1.391 . S
C1640 C1641 1.400 . S
C1641 C1635 1.491 . S
C1641 C1640 1.400 . S
C1641 C1642 1.398 . S
C1642 H1630 0.950 . S
C1642 C1641 1.398 . S
C1642 C1643 1.391 . S
C1643 H1631 0.950 . S
C1643 C1639 1.393 . S
C1643 C1642 1.391 . S
H1644 C1652 0.950 . S
H1645 C1657 0.950 . S
H1646 C1654 0.950 . S
H1647 C1656 0.950 . S
H1648 C1658 0.950 . S
H1649 C1660 0.950 . S
H1650 C1662 0.950 . S
H1651 C1663 0.950 . S
C1652 H1644 0.950 . S
C1652 C1653 1.386 . S
C1652 C1654 1.391 . S
C1653 C1652 1.386 . S
C1653 C1657 1.393 . S
C1654 H1646 0.950 . S
C1654 C1652 1.391 . S
C1654 C1655 1.400 . S
C1655 C1654 1.400 . S
C1655 C1656 1.398 . S
C1655 C1661 1.491 . S
C1656 H1647 0.950 . S
C1656 C1655 1.398 . S
C1656 C1657 1.391 . S
C1657 H1645 0.950 . S
C1657 C1653 1.393 . S
C1657 C1656 1.391 . S
C1658 H1648 0.950 . S
C1658 C1659 1.386 . S
C1658 C1660 1.391 . S
C1659 C1658 1.386 . S
C1659 C1663 1.393 . S
C1660 H1649 0.950 . S
C1660 C1658 1.391 . S
C1660 C1661 1.400 . S
C1661 C1655 1.491 . S
C1661 C1660 1.400 . S
C1661 C1662 1.398 . S
C1662 H1650 0.950 . S
C1662 C1661 1.398 . S
C1662 C1663 1.391 . S
C1663 H1651 0.950 . S
C1663 C1659 1.393 . S
C1663 C1662 1.391 . S
C553 C15 1.510 . S
C559 C22 1.507 . S
C573 C56 1.509 . S
C579 C49 1.509 . S
C593 C83 1.502 . S
C599 C90 1.500 1_554 S
C613 C124 1.503 . S
C619 C117 1.503 . S
C633 C158 1.521 . S
C639 C151 1.521 . S
C653 C192 1.517 . S
C659 C185 1.518 . S
C673 C219 1.511 1_556 S
C679 C226 1.513 . S
C693 C253 1.506 . S
C699 C260 1.503 . S
C713 C294 1.513 1_554 S
C719 C287 1.516 . S
C733 C321 1.497 . S
C739 C328 1.497 . S
C753 C355 1.511 . S
C759 C362 1.512 . S
C773 C389 1.494 . S
C779 C396 1.494 . S
C793 C423 1.508 1_556 S
C799 C430 1.507 . S
C813 C464 1.499 . S
C819 C457 1.500 . S
C833 C498 1.521 . S
C839 C491 1.519 . S
C853 C532 1.492 . S
C859 C525 1.493 . S
C873 C1 2.014 . S
C879 C411 2.014 . S
C893 C173 2.040 . S
C899 C35 2.040 . S
C913 C479 2.040 . S
C919 C69 2.040 . S
C933 C239 2.016 . S
C939 C105 2.016 . S
C953 C139 2.019 . S
C959 C273 2.019 . S
C973 C207 2.033 . S
C979 C341 2.033 . S
C993 C445 2.020 . S
C999 C307 2.020 . S
C1013 C377 2.027 . S
C1019 C511 2.027 . S
C1033 C312 1.318 . S
C1039 C17 1.292 . S
C1053 C51 1.311 . S
C1059 C346 1.329 . S
C1073 C85 1.308 . S
C1079 C402 1.328 . S
C1093 C278 1.316 . S
C1099 C119 1.287 . S
C1113 C470 1.317 . S
C1119 C153 1.287 . S
C1133 C504 1.326 . S
C1139 C187 1.301 . S
C1153 C516 1.326 . S
C1159 C221 1.302 . S
C1173 C255 1.286 . S
C1179 C436 1.316 . S
C1193 C40 1.320 . S
C1199 C289 1.291 . S
C1213 C323 1.305 . S
C1219 C74 1.325 . S
C1233 C130 1.329 . S
C1239 C357 1.311 . S
C1253 C6 1.316 . S
C1259 C391 1.288 . S
C1273 C425 1.286 . S
C1279 C198 1.317 . S
C1293 C232 1.317 . S
C1299 C459 1.288 . S
C1313 C493 1.287 . S
C1319 C244 1.316 . S
C1333 C527 1.310 . S
C1339 C164 1.329 . S
C1353 C3 1.338 . S
C1359 C266 1.392 . S
C1373 C37 1.347 . S
C1379 C414 1.379 . S
C1393 C176 1.378 . S
C1399 C71 1.338 . S
C1413 C482 1.396 . S
C1419 C103 1.330 . S
C1433 C108 1.377 . S
C1439 C137 1.339 . S
C1453 C171 1.337 . S
C1459 C300 1.393 . S
C1473 C62 1.395 . S
C1479 C205 1.331 . S
C1493 C241 1.325 . S
C1499 C368 1.382 . S
C1513 C538 1.397 . S
C1519 C275 1.312 . S
C1533 C309 1.333 . S
C1539 C142 1.395 . S
C1553 C343 1.315 . S
C1559 C448 1.399 . S
C1573 C210 1.397 . S
C1579 C375 1.326 . S
C1593 C380 1.394 . S
C1599 C409 1.312 . S
C1613 C443 1.332 . S
C1619 C28 1.395 . S
C1633 C334 1.399 . S
C1639 C477 1.317 . S
C1653 C96 1.377 . S
C1659 C513 1.344 . S
