# Generated by pormake.
# Topology umm, (4)-cn, num edge types: 1
# Building blocks:
#     Node 0, Type 0, BuildingBlock: QUQFOY_clean_sbu_1, # of connection points: 4
#     Node 1, Type 0, BuildingBlock: QUQFOY_clean_sbu_1, # of connection points: 4
#     Node 2, Type 0, BuildingBlock: QUQFOY_clean_sbu_1, # of connection points: 4
#     Node 3, Type 0, BuildingBlock: QUQFOY_clean_sbu_1, # of connection points: 4
#     Node 4, Type 0, BuildingBlock: QUQFOY_clean_sbu_1, # of connection points: 4
#     Node 5, Type 0, BuildingBlock: QUQFOY_clean_sbu_1, # of connection points: 4
#     Node 6, Type 0, BuildingBlock: QUQFOY_clean_sbu_1, # of connection points: 4
#     Node 7, Type 0, BuildingBlock: QUQFOY_clean_sbu_1, # of connection points: 4
#     Node 8, Type 0, BuildingBlock: QUQFOY_clean_sbu_1, # of connection points: 4
#     Node 9, Type 0, BuildingBlock: QUQFOY_clean_sbu_1, # of connection points: 4
#     Node 10, Type 0, BuildingBlock: QUQFOY_clean_sbu_1, # of connection points: 4
#     Node 11, Type 0, BuildingBlock: QUQFOY_clean_sbu_1, # of connection points: 4
#     Edge 12, Type (0, 0), BuildingBlock: UVAHIK_clean_linker_0, # of connection points: 2
#     Edge 13, Type (0, 0), BuildingBlock: UVAHIK_clean_linker_0, # of connection points: 2
#     Edge 14, Type (0, 0), BuildingBlock: UVAHIK_clean_linker_0, # of connection points: 2
#     Edge 15, Type (0, 0), BuildingBlock: UVAHIK_clean_linker_0, # of connection points: 2
#     Edge 16, Type (0, 0), BuildingBlock: UVAHIK_clean_linker_0, # of connection points: 2
#     Edge 17, Type (0, 0), BuildingBlock: UVAHIK_clean_linker_0, # of connection points: 2
#     Edge 18, Type (0, 0), BuildingBlock: UVAHIK_clean_linker_0, # of connection points: 2
#     Edge 19, Type (0, 0), BuildingBlock: UVAHIK_clean_linker_0, # of connection points: 2
#     Edge 20, Type (0, 0), BuildingBlock: UVAHIK_clean_linker_0, # of connection points: 2
#     Edge 21, Type (0, 0), BuildingBlock: UVAHIK_clean_linker_0, # of connection points: 2
#     Edge 22, Type (0, 0), BuildingBlock: UVAHIK_clean_linker_0, # of connection points: 2
#     Edge 23, Type (0, 0), BuildingBlock: UVAHIK_clean_linker_0, # of connection points: 2
#     Edge 24, Type (0, 0), BuildingBlock: UVAHIK_clean_linker_0, # of connection points: 2
#     Edge 25, Type (0, 0), BuildingBlock: UVAHIK_clean_linker_0, # of connection points: 2
#     Edge 26, Type (0, 0), BuildingBlock: UVAHIK_clean_linker_0, # of connection points: 2
#     Edge 27, Type (0, 0), BuildingBlock: UVAHIK_clean_linker_0, # of connection points: 2
#     Edge 28, Type (0, 0), BuildingBlock: UVAHIK_clean_linker_0, # of connection points: 2
#     Edge 29, Type (0, 0), BuildingBlock: UVAHIK_clean_linker_0, # of connection points: 2
#     Edge 30, Type (0, 0), BuildingBlock: UVAHIK_clean_linker_0, # of connection points: 2
#     Edge 31, Type (0, 0), BuildingBlock: UVAHIK_clean_linker_0, # of connection points: 2
#     Edge 32, Type (0, 0), BuildingBlock: UVAHIK_clean_linker_0, # of connection points: 2
#     Edge 33, Type (0, 0), BuildingBlock: UVAHIK_clean_linker_0, # of connection points: 2
#     Edge 34, Type (0, 0), BuildingBlock: UVAHIK_clean_linker_0, # of connection points: 2
#     Edge 35, Type (0, 0), BuildingBlock: UVAHIK_clean_linker_0, # of connection points: 2
# Relax obj value: 0.043
# Max RMSD: 0.170
# Mean RMSD: 0.170
data_MOF--net-umm--node1-QUQFOY_clean_sbu_1--edge1-UVAHIK_clean_linker_0
_symmetry_space_group_name_H-M    P1
_symmetry_Int_Tables_number       1
_symmetry_cell_setting            triclinic
loop_
_symmetry_equiv_pos_as_xyz
'x, y, z'
_cell_length_a     74.270522
_cell_length_b     74.315177
_cell_length_c     37.267728
_cell_angle_alpha  90.056818
_cell_angle_beta   89.89872
_cell_angle_gamma 119.99973
loop_
_atom_site_label
_atom_site_type_symbol
_atom_site_fract_x
_atom_site_fract_y
_atom_site_fract_z
_atom_type_partial_charge
O0 O 0.43774 0.55237 0.08451 0.0
Cd1 Cd 0.41867 0.56515 0.08357 0.0
Cd2 Cd 0.39215 0.52733 0.05949 0.0
O3 O 0.41345 0.51942 0.0799 0.0
O4 O 0.43079 0.58858 0.11871 0.0
O5 O 0.40045 0.55992 0.12666 0.0
C6 C 0.41488 0.57756 0.13895 0.0
C7 C 0.35612 0.51055 0.06559 0.0
C8 C 0.4324 0.53322 0.08514 0.0
C9 C 0.40687 0.56278 0.00779 0.0
O10 O 0.39984 0.54345 0.01209 0.0
O11 O 0.41395 0.57511 0.03439 0.0
O12 O 0.36495 0.50233 0.04726 0.0
O13 O 0.36792 0.52696 0.0843 0.0
O14 O 0.89673 0.43099 0.43016 0.0
Cd15 Cd 0.86475 0.41255 0.42929 0.0
Cd16 Cd 0.87547 0.38718 0.39558 0.0
O17 O 0.90545 0.40787 0.41342 0.0
O18 O 0.85477 0.42504 0.4662 0.0
O19 O 0.85111 0.39375 0.47167 0.0
C20 C 0.84894 0.40856 0.48529 0.0
C21 C 0.85665 0.351 0.39842 0.0
C22 C 0.9106 0.42605 0.42452 0.0
C23 C 0.85359 0.40442 0.35235 0.0
O24 O 0.86535 0.39658 0.35235 0.0
O25 O 0.8496 0.41066 0.38149 0.0
O26 O 0.87289 0.36056 0.37823 0.0
O27 O 0.85264 0.36206 0.42034 0.0
O28 O 0.47514 0.8908 0.75642 0.0
Cd29 Cd 0.46331 0.85905 0.75685 0.0
Cd30 Cd 0.50033 0.87141 0.7286 0.0
O31 O 0.50823 0.90062 0.74872 0.0
O32 O 0.43966 0.84799 0.79155 0.0
O33 O 0.46843 0.8468 0.80116 0.0
C34 C 0.45059 0.84347 0.81264 0.0
C35 C 0.51722 0.85227 0.73356 0.0
C36 C 0.49409 0.90514 0.7552 0.0
C37 C 0.46375 0.84917 0.68047 0.0
O38 O 0.48296 0.86252 0.68261 0.0
O39 O 0.45254 0.84339 0.7086 0.0
O40 O 0.5251 0.86915 0.71482 0.0
O41 O 0.50113 0.8478 0.7532 0.0
O42 O 0.59353 0.4662 0.09424 0.0
Cd43 Cd 0.6134 0.45422 0.09404 0.0
Cd44 Cd 0.63775 0.49108 0.06629 0.0
O45 O 0.61704 0.49929 0.08802 0.0
O46 O 0.60161 0.43121 0.13001 0.0
O47 O 0.63169 0.46022 0.1373 0.0
C48 C 0.61745 0.44262 0.15007 0.0
C49 C 0.67392 0.5079 0.06869 0.0
C50 C 0.5983 0.4852 0.09404 0.0
C51 C 0.62255 0.45468 0.01744 0.0
O52 O 0.62802 0.47375 0.02033 0.0
O53 O 0.61803 0.44341 0.04541 0.0
O54 O 0.66451 0.5157 0.05094 0.0
O55 O 0.66273 0.49191 0.08876 0.0
O56 O 0.1372 0.5893 0.43662 0.0
Cd57 Cd 0.1692 0.60686 0.43663 0.0
Cd58 Cd 0.15994 0.63386 0.40264 0.0
O59 O 0.12942 0.61282 0.41801 0.0
O60 O 0.17822 0.59393 0.47415 0.0
O61 O 0.18284 0.62563 0.479 0.0
C62 C 0.18436 0.61054 0.49303 0.0
C63 C 0.17757 0.67011 0.40457 0.0
C64 C 0.12373 0.59459 0.42958 0.0
C65 C 0.18229 0.61609 0.3607 0.0
O66 O 0.17176 0.62526 0.36065 0.0
O67 O 0.18456 0.60817 0.38935 0.0
O68 O 0.16188 0.65989 0.38355 0.0
O69 O 0.18157 0.65965 0.42779 0.0
O70 O 0.55781 0.13222 0.75097 0.0
Cd71 Cd 0.56981 0.16398 0.75133 0.0
Cd72 Cd 0.53283 0.15193 0.72363 0.0
O73 O 0.52477 0.12276 0.74418 0.0
O74 O 0.59282 0.17503 0.7872 0.0
O75 O 0.56382 0.17611 0.79483 0.0
C76 C 0.58143 0.17943 0.80744 0.0
C77 C 0.51599 0.17116 0.72834 0.0
C78 C 0.53879 0.11804 0.75032 0.0
C79 C 0.56945 0.17388 0.67514 0.0
O80 O 0.55022 0.16062 0.67753 0.0
O81 O 0.58073 0.17965 0.70314 0.0
O82 O 0.50813 0.15426 0.70968 0.0
O83 O 0.53204 0.17564 0.748 0.0
O84 O 0.47668 0.59166 0.56903 0.0
Cd85 Cd 0.46177 0.60881 0.57027 0.0
Cd86 Cd 0.49762 0.6351 0.60627 0.0
O87 O 0.50775 0.61499 0.58891 0.0
O88 O 0.43907 0.59489 0.5342 0.0
O89 O 0.46542 0.62683 0.52725 0.0
C90 C 0.44871 0.61126 0.51447 0.0
C91 C 0.51567 0.67137 0.60633 0.0
C92 C 0.49544 0.597 0.57617 0.0
C93 C 0.45736 0.61597 0.64743 0.0
O94 O 0.47705 0.6249 0.64813 0.0
O95 O 0.44758 0.60932 0.61801 0.0
O96 O 0.5213 0.66099 0.62659 0.0
O97 O 0.50128 0.66114 0.58288 0.0
O98 O 0.89301 0.46563 0.91746 0.0
Cd99 Cd 0.86116 0.45282 0.91691 0.0
Cd100 Cd 0.87222 0.49031 0.94354 0.0
O101 O 0.90189 0.49848 0.92496 0.0
O102 O 0.85073 0.42934 0.88207 0.0
O103 O 0.84861 0.45762 0.87271 0.0
C104 C 0.84583 0.44001 0.86107 0.0
C105 C 0.85378 0.50797 0.93875 0.0
C106 C 0.90696 0.48471 0.91881 0.0
C107 C 0.8503 0.45358 0.99255 0.0
O108 O 0.86252 0.47301 0.9896 0.0
O109 O 0.84569 0.44182 0.96526 0.0
O110 O 0.87049 0.51529 0.9578 0.0
O111 O 0.84916 0.49206 0.91857 0.0
O112 O 0.43876 0.89023 0.24556 0.0
Cd113 Cd 0.42118 0.85825 0.2452 0.0
Cd114 Cd 0.39402 0.86745 0.27909 0.0
O115 O 0.41508 0.89794 0.2637 0.0
O116 O 0.43425 0.84931 0.20767 0.0
O117 O 0.40256 0.84474 0.20262 0.0
C118 C 0.4177 0.84323 0.18866 0.0
C119 C 0.35775 0.84987 0.2772 0.0
C120 C 0.43339 0.90367 0.25243 0.0
C121 C 0.41164 0.84503 0.321 0.0
O122 O 0.40255 0.85564 0.32108 0.0
O123 O 0.4196 0.84275 0.29236 0.0
O124 O 0.36799 0.86557 0.29821 0.0
O125 O 0.36821 0.84584 0.25395 0.0
O126 O 0.55774 0.43269 0.57917 0.0
Cd127 Cd 0.57025 0.41327 0.58109 0.0
Cd128 Cd 0.53334 0.38891 0.61021 0.0
O129 O 0.52485 0.40943 0.58907 0.0
O130 O 0.5941 0.42586 0.54677 0.0
O131 O 0.5658 0.39548 0.53748 0.0
C132 C 0.58354 0.41015 0.52596 0.0
C133 C 0.51691 0.35282 0.60681 0.0
C134 C 0.53873 0.42789 0.58084 0.0
C135 C 0.5699 0.40459 0.65844 0.0
O136 O 0.55071 0.39871 0.65595 0.0
O137 O 0.58106 0.40923 0.63027 0.0
O138 O 0.50892 0.36191 0.62508 0.0
O139 O 0.53292 0.36431 0.58694 0.0
O140 O 0.13531 0.55215 0.92397 0.0
Cd141 Cd 0.16715 0.56441 0.92402 0.0
Cd142 Cd 0.15524 0.52734 0.95139 0.0
O143 O 0.12609 0.51918 0.93067 0.0
O144 O 0.17822 0.58814 0.88962 0.0
O145 O 0.17982 0.5596 0.87989 0.0
C146 C 0.18305 0.57741 0.86855 0.0
C147 C 0.1746 0.51064 0.94656 0.0
C148 C 0.12123 0.5331 0.92451 0.0
C149 C 0.17674 0.56366 1.00037 0.0
O150 O 0.16362 0.54442 0.99777 0.0
O151 O 0.18252 0.57505 0.97248 0.0
O152 O 0.15761 0.50265 0.96506 0.0
O153 O 0.17912 0.52678 0.9271 0.0
O154 O 0.59402 0.13143 0.24156 0.0
Cd155 Cd 0.61137 0.16344 0.24037 0.0
Cd156 Cd 0.63884 0.15457 0.2751 0.0
O157 O 0.61767 0.12395 0.26068 0.0
O158 O 0.59729 0.17177 0.20392 0.0
O159 O 0.62903 0.17679 0.19652 0.0
C160 C 0.61347 0.17798 0.18379 0.0
C161 C 0.67512 0.17167 0.27366 0.0
C162 C 0.59939 0.1181 0.24918 0.0
C163 C 0.6212 0.17745 0.31589 0.0
O164 O 0.63042 0.16698 0.3164 0.0
O165 O 0.61306 0.17929 0.28717 0.0
O166 O 0.66458 0.15625 0.29506 0.0
O167 O 0.66495 0.17568 0.24986 0.0
C168 C 0.43092 0.60247 0.19019 0.0
C169 C 0.41425 0.58405 0.17638 0.0
C170 C 0.43189 0.60716 0.22675 0.0
C171 C 0.41351 0.58049 0.31342 0.0
H172 H 0.437 0.63632 0.35158 0.0
C173 C 0.42254 0.59474 0.46535 0.0
C174 C 0.44166 0.61122 0.47725 0.0
C175 C 0.417 0.59293 0.42916 0.0
C176 C 0.43052 0.62065 0.34134 0.0
H177 H 0.38492 0.55668 0.18991 0.0
H178 H 0.38649 0.56498 0.25359 0.0
H179 H 0.43091 0.63043 0.28707 0.0
H180 H 0.46955 0.63928 0.46068 0.0
H181 H 0.46003 0.63597 0.39732 0.0
H182 H 0.41356 0.57069 0.36724 0.0
C183 C 0.39902 0.57564 0.23624 0.0
C184 C 0.427 0.61727 0.30436 0.0
C185 C 0.39804 0.57095 0.19966 0.0
C186 C 0.45468 0.62642 0.45239 0.0
C187 C 0.44918 0.62454 0.41605 0.0
C188 C 0.41704 0.58386 0.35025 0.0
C189 C 0.41622 0.59353 0.25041 0.0
C190 C 0.4186 0.59715 0.28991 0.0
C191 C 0.4305 0.60746 0.40384 0.0
C192 C 0.42573 0.60399 0.36473 0.0
H193 H 0.44368 0.61292 0.17302 0.0
H194 H 0.44545 0.62099 0.23671 0.0
H195 H 0.40744 0.56486 0.30323 0.0
H196 H 0.41205 0.58285 0.48384 0.0
H197 H 0.40228 0.57984 0.4209 0.0
C198 C 0.84026 0.42432 0.5372 0.0
C199 C 0.84173 0.40761 0.52276 0.0
C200 C 0.83616 0.42486 0.5737 0.0
C201 C 0.84244 0.40476 0.66008 0.0
H202 H 0.8108 0.4293 0.69734 0.0
C203 C 0.83587 0.41366 0.81201 0.0
C204 C 0.83911 0.43305 0.82368 0.0
C205 C 0.8324 0.40816 0.77575 0.0
C206 C 0.81977 0.4225 0.68736 0.0
H207 H 0.83901 0.37784 0.5351 0.0
H208 H 0.83162 0.37867 0.59879 0.0
H209 H 0.81124 0.42361 0.63283 0.0
H210 H 0.84028 0.46149 0.80655 0.0
H211 H 0.83447 0.45202 0.74318 0.0
H212 H 0.8514 0.40408 0.71429 0.0
C213 C 0.83397 0.39153 0.58194 0.0
C214 C 0.82001 0.41922 0.65038 0.0
C215 C 0.83805 0.39098 0.54537 0.0
C216 C 0.8378 0.44642 0.79848 0.0
C217 C 0.83439 0.44094 0.76212 0.0
C218 C 0.8422 0.40804 0.69697 0.0
C219 C 0.83344 0.40871 0.59672 0.0
C220 C 0.83156 0.41054 0.63623 0.0
C221 C 0.83217 0.42195 0.75018 0.0
C222 C 0.83106 0.41716 0.71109 0.0
H223 H 0.843 0.4374 0.52057 0.0
H224 H 0.83607 0.43842 0.58412 0.0
H225 H 0.85182 0.39841 0.65015 0.0
H226 H 0.83662 0.40292 0.83074 0.0
H227 H 0.83033 0.39324 0.76765 0.0
C228 C 0.424 0.83282 0.86155 0.0
C229 C 0.44358 0.83651 0.84994 0.0
C230 C 0.41839 0.82906 0.89775 0.0
C231 C 0.43282 0.81621 0.98584 0.0
H232 H 0.40773 0.84717 0.02381 0.0
C233 C 0.43396 0.83549 0.13635 0.0
C234 C 0.41699 0.83645 0.15098 0.0
C235 C 0.43466 0.83174 0.09975 0.0
C236 C 0.41437 0.83809 0.01366 0.0
H237 H 0.47225 0.83817 0.8671 0.0
H238 H 0.46257 0.83182 0.93036 0.0
H239 H 0.41365 0.84732 0.95964 0.0
H240 H 0.38697 0.83322 0.13884 0.0
H241 H 0.38809 0.82644 0.07495 0.0
H242 H 0.43396 0.80741 0.04018 0.0
C243 C 0.45144 0.83163 0.91142 0.0
C244 C 0.41778 0.83818 0.97675 0.0
C245 C 0.45703 0.83535 0.87513 0.0
C246 C 0.4003 0.83265 0.12843 0.0
C247 C 0.40102 0.82891 0.09175 0.0
C248 C 0.4294 0.81613 0.02283 0.0
C249 C 0.43224 0.82894 0.92331 0.0
C250 C 0.42727 0.82745 0.96237 0.0
C251 C 0.41842 0.82886 0.07681 0.0
C252 C 0.42037 0.82729 0.03726 0.0
H253 H 0.41319 0.83345 0.84282 0.0
H254 H 0.40332 0.82663 0.90582 0.0
H255 H 0.43989 0.80754 0.97565 0.0
H256 H 0.44709 0.83835 0.15293 0.0
H257 H 0.44839 0.83202 0.0892 0.0
C258 C 0.60161 0.41815 0.20193 0.0
C259 C 0.61818 0.43653 0.18772 0.0
C260 C 0.60075 0.41371 0.23857 0.0
C261 C 0.61958 0.44075 0.32505 0.0
H262 H 0.59553 0.38489 0.3633 0.0
C263 C 0.61015 0.42626 0.47716 0.0
C264 C 0.59074 0.4101 0.48881 0.0
C265 C 0.61582 0.42808 0.44098 0.0
C266 C 0.60219 0.40057 0.35303 0.0
H267 H 0.64742 0.46411 0.20067 0.0
H268 H 0.64609 0.45622 0.26451 0.0
H269 H 0.60165 0.39068 0.2988 0.0
H270 H 0.56249 0.38258 0.47178 0.0
H271 H 0.57229 0.38584 0.40856 0.0
H272 H 0.61974 0.45064 0.37897 0.0
C273 C 0.63353 0.44541 0.24741 0.0
C274 C 0.60571 0.4039 0.31605 0.0
C275 C 0.63438 0.44987 0.21073 0.0
C276 C 0.57757 0.39519 0.46372 0.0
C277 C 0.58323 0.39704 0.42745 0.0
C278 C 0.61609 0.43743 0.36193 0.0
C279 C 0.61645 0.42753 0.26195 0.0
C280 C 0.61424 0.42401 0.30153 0.0
C281 C 0.60221 0.41382 0.41548 0.0
C282 C 0.60716 0.41729 0.37641 0.0
H283 H 0.58884 0.40752 0.185 0.0
H284 H 0.58727 0.3999 0.24877 0.0
H285 H 0.62578 0.45639 0.31486 0.0
H286 H 0.62075 0.43795 0.49579 0.0
H287 H 0.63073 0.44095 0.43286 0.0
C288 C 0.19496 0.62809 0.55317 0.0
C289 C 0.19121 0.61138 0.53066 0.0
C290 C 0.19871 0.62746 0.58984 0.0
C291 C 0.21156 0.5993 0.65885 0.0
H292 H 0.17991 0.61473 0.72185 0.0
C293 C 0.19169 0.57129 0.80616 0.0
C294 C 0.19026 0.58458 0.83141 0.0
C295 C 0.19562 0.57702 0.76996 0.0
C296 C 0.18918 0.61069 0.7048 0.0
H297 H 0.18945 0.58136 0.52877 0.0
H298 H 0.19581 0.58021 0.59249 0.0
H299 H 0.18026 0.62069 0.6577 0.0
H300 H 0.19307 0.61485 0.83878 0.0
H301 H 0.20027 0.62496 0.77595 0.0
H302 H 0.22006 0.58884 0.70606 0.0
C303 C 0.19603 0.59389 0.58191 0.0
C304 C 0.18939 0.61414 0.6679 0.0
C305 C 0.19226 0.5945 0.54532 0.0
C306 C 0.19391 0.60415 0.82 0.0
C307 C 0.19789 0.6099 0.78389 0.0
C308 C 0.21136 0.59586 0.69583 0.0
C309 C 0.19883 0.61013 0.60481 0.0
C310 C 0.20034 0.60823 0.64437 0.0
C311 C 0.19827 0.5962 0.75823 0.0
C312 C 0.19994 0.60127 0.71923 0.0
H313 H 0.19432 0.64135 0.54273 0.0
H314 H 0.20111 0.64039 0.60662 0.0
H315 H 0.22038 0.59482 0.64155 0.0
H316 H 0.18891 0.55608 0.81404 0.0
H317 H 0.19563 0.566 0.75095 0.0
C318 C 0.62861 0.18689 0.1216 0.0
C319 C 0.6133 0.18463 0.14635 0.0
C320 C 0.62677 0.19045 0.08522 0.0
C321 C 0.58629 0.1817 0.01896 0.0
H322 H 0.63308 0.21536 0.95659 0.0
C323 C 0.57407 0.18871 0.86838 0.0
C324 C 0.58752 0.18614 0.84512 0.0
C325 C 0.57847 0.19211 0.90507 0.0
C326 C 0.61986 0.20583 0.97365 0.0
H327 H 0.58474 0.18556 0.15264 0.0
H328 H 0.58178 0.19214 0.0896 0.0
H329 H 0.63866 0.2148 0.02112 0.0
H330 H 0.61671 0.18617 0.84194 0.0
H331 H 0.62428 0.19191 0.90581 0.0
H332 H 0.56754 0.17239 0.97167 0.0
C333 C 0.59493 0.19067 0.09801 0.0
C334 C 0.62307 0.20549 0.01063 0.0
C335 C 0.59671 0.18703 0.13425 0.0
C336 C 0.60599 0.18808 0.85909 0.0
C337 C 0.6104 0.19147 0.89576 0.0
C338 C 0.58309 0.18206 0.98211 0.0
C339 C 0.60963 0.19188 0.07284 0.0
C340 C 0.60632 0.19329 0.03372 0.0
C341 C 0.59644 0.19301 0.91937 0.0
C342 C 0.59984 0.19398 0.9589 0.0
H343 H 0.64155 0.18507 0.13004 0.0
H344 H 0.63832 0.19116 0.06659 0.0
H345 H 0.57308 0.17178 0.03574 0.0
H346 H 0.55975 0.1874 0.85849 0.0
H347 H 0.56756 0.19359 0.92239 0.0
C348 C 0.32227 0.48849 0.03389 0.0
C349 C 0.33377 0.50364 0.05999 0.0
C350 C 0.30292 0.48522 0.02242 0.0
C351 C 0.27262 0.49504 0.98399 0.0
H352 H 0.23136 0.49578 0.04682 0.0
C353 C 0.20976 0.51432 0.93627 0.0
C354 C 0.19003 0.50377 0.95255 0.0
C355 C 0.22578 0.51091 0.94772 0.0
C356 C 0.2426 0.49531 0.02887 0.0
H357 H 0.33318 0.52621 0.09615 0.0
H358 H 0.2993 0.52028 0.07651 0.0
H359 H 0.26145 0.49555 0.0726 0.0
H360 H 0.1714 0.48037 0.99218 0.0
H361 H 0.19926 0.47439 0.01189 0.0
H362 H 0.25394 0.49516 0.94025 0.0
C363 C 0.3053 0.51099 0.0648 0.0
C364 C 0.25995 0.49538 0.04369 0.0
C365 C 0.32475 0.51438 0.07611 0.0
C366 C 0.18639 0.48881 0.97902 0.0
C367 C 0.20243 0.48552 0.99062 0.0
C368 C 0.25536 0.49516 0.96917 0.0
C369 C 0.29447 0.49686 0.03695 0.0
C370 C 0.27527 0.49539 0.02144 0.0
C371 C 0.22249 0.49696 0.97587 0.0
C372 C 0.2402 0.49545 0.99141 0.0
H373 H 0.32869 0.47991 0.02086 0.0
H374 H 0.29482 0.47395 1.0014 0.0
H375 H 0.28422 0.4953 0.96603 0.0
H376 H 0.21317 0.52601 0.91594 0.0
H377 H 0.24106 0.52005 0.93584 0.0
C378 C 0.84507 0.31756 0.36532 0.0
C379 C 0.84132 0.3287 0.39201 0.0
C380 C 0.82912 0.29822 0.35349 0.0
C381 C 0.77556 0.2552 0.37404 0.0
H382 H 0.77119 0.24881 0.27057 0.0
C383 C 0.70768 0.18254 0.309 0.0
C384 C 0.69753 0.18634 0.28065 0.0
C385 C 0.72711 0.19815 0.32116 0.0
C386 C 0.77216 0.25033 0.2995 0.0
H387 H 0.81806 0.32754 0.42867 0.0
H388 H 0.79029 0.29386 0.40815 0.0
H389 H 0.80115 0.2789 0.29694 0.0
H390 H 0.70055 0.20923 0.24145 0.0
H391 H 0.73442 0.23641 0.26254 0.0
H392 H 0.74619 0.22703 0.37656 0.0
C393 C 0.8056 0.30002 0.39638 0.0
C394 C 0.78949 0.26749 0.3147 0.0
C395 C 0.82156 0.31938 0.4082 0.0
C396 C 0.70794 0.2057 0.26321 0.0
C397 C 0.7274 0.22133 0.27537 0.0
C398 C 0.75827 0.238 0.35885 0.0
C399 C 0.80898 0.28949 0.36806 0.0
C400 C 0.79131 0.2703 0.35218 0.0
C401 C 0.73693 0.21798 0.30528 0.0
C402 C 0.75619 0.23545 0.32134 0.0
H403 H 0.8601 0.32421 0.35228 0.0
H404 H 0.83243 0.29038 0.33219 0.0
H405 H 0.7765 0.25674 0.40298 0.0
H406 H 0.70018 0.16781 0.32303 0.0
H407 H 0.73417 0.19486 0.34373 0.0
C408 C 0.53953 0.84073 0.70183 0.0
C409 C 0.5241 0.83684 0.72754 0.0
C410 C 0.54285 0.82474 0.68992 0.0
C411 C 0.53137 0.77086 0.70898 0.0
H412 H 0.53431 0.76728 0.60547 0.0
C413 C 0.51391 0.70397 0.59701 0.0
C414 C 0.52303 0.69362 0.61407 0.0
C415 C 0.51758 0.72331 0.60959 0.0
C416 C 0.53351 0.76804 0.63441 0.0
H417 H 0.501 0.81329 0.76254 0.0
H418 H 0.50687 0.78548 0.74199 0.0
H419 H 0.53424 0.79719 0.63237 0.0
H420 H 0.54427 0.69622 0.65632 0.0
H421 H 0.55084 0.72995 0.67784 0.0
H422 H 0.52995 0.74138 0.71096 0.0
C423 C 0.51644 0.80091 0.73099 0.0
C424 C 0.5337 0.78531 0.6499 0.0
C425 C 0.51307 0.8169 0.74283 0.0
C426 C 0.53692 0.70368 0.64256 0.0
C427 C 0.54053 0.72296 0.65517 0.0
C428 C 0.53129 0.75364 0.69349 0.0
C429 C 0.53089 0.80447 0.70351 0.0
C430 C 0.53237 0.78684 0.68738 0.0
C431 C 0.53042 0.73273 0.63957 0.0
C432 C 0.53211 0.75187 0.65597 0.0
H433 H 0.54837 0.8559 0.68948 0.0
H434 H 0.55439 0.82814 0.66926 0.0
H435 H 0.53046 0.77157 0.73791 0.0
H436 H 0.50305 0.69666 0.57514 0.0
H437 H 0.50945 0.73032 0.59698 0.0
C438 C 0.70694 0.52968 0.03438 0.0
C439 C 0.69613 0.51482 0.06127 0.0
C440 C 0.72612 0.53304 0.0216 0.0
C441 C 0.7562 0.52356 0.98129 0.0
H442 H 0.79863 0.52351 0.04161 0.0
C443 C 0.81872 0.50467 0.92951 0.0
C444 C 0.83859 0.51513 0.94519 0.0
C445 C 0.80285 0.50813 0.94179 0.0
C446 C 0.78706 0.5238 0.02434 0.0
H447 H 0.69776 0.49281 0.09735 0.0
H448 H 0.73131 0.49884 0.07537 0.0
H449 H 0.76883 0.5236 0.06918 0.0
H450 H 0.85766 0.53852 0.98446 0.0
H451 H 0.8301 0.54464 0.00552 0.0
H452 H 0.77429 0.52345 0.93644 0.0
C453 C 0.72492 0.50788 0.06407 0.0
C454 C 0.76987 0.52364 0.04019 0.0
C455 C 0.70565 0.50442 0.07672 0.0
C456 C 0.84255 0.53013 0.97177 0.0
C457 C 0.82668 0.5335 0.98415 0.0
C458 C 0.77332 0.52356 0.96544 0.0
C459 C 0.73507 0.52175 0.03556 0.0
C460 C 0.75412 0.52335 0.01888 0.0
C461 C 0.80645 0.52207 0.97014 0.0
C462 C 0.7889 0.52352 0.98675 0.0
H463 H 0.70012 0.53801 0.02183 0.0
H464 H 0.73369 0.54411 1.00008 0.0
H465 H 0.74426 0.52309 0.96403 0.0
H466 H 0.81507 0.49294 0.90913 0.0
H467 H 0.78745 0.499 0.93043 0.0
C468 C 0.21207 0.70245 0.41441 0.0
C469 C 0.19248 0.69247 0.39769 0.0
C470 C 0.22783 0.72183 0.40215 0.0
C471 C 0.24399 0.75318 0.31907 0.0
H472 H 0.28634 0.79505 0.38032 0.0
C473 C 0.32535 0.81542 0.26739 0.0
C474 C 0.33537 0.83501 0.2841 0.0
C475 C 0.30594 0.79971 0.27965 0.0
C476 C 0.27452 0.78368 0.36275 0.0
H477 H 0.17371 0.69581 0.3566 0.0
H478 H 0.20098 0.72967 0.33578 0.0
H479 H 0.25619 0.76536 0.40721 0.0
H480 H 0.33204 0.85384 0.32522 0.0
H481 H 0.29812 0.82664 0.34606 0.0
H482 H 0.26237 0.77144 0.27462 0.0
C483 C 0.20436 0.72233 0.35781 0.0
C484 C 0.25732 0.7665 0.37824 0.0
C485 C 0.18862 0.70298 0.37005 0.0
C486 C 0.32485 0.83892 0.31177 0.0
C487 C 0.30547 0.82323 0.32402 0.0
C488 C 0.26122 0.77033 0.30359 0.0
C489 C 0.22438 0.73172 0.3729 0.0
C490 C 0.24192 0.75088 0.35662 0.0
C491 C 0.29605 0.80321 0.30892 0.0
C492 C 0.27685 0.78572 0.3252 0.0
H493 H 0.21566 0.69479 0.43561 0.0
H494 H 0.24305 0.7285 0.41436 0.0
H495 H 0.23261 0.74137 0.3015 0.0
H496 H 0.33302 0.8118 0.24617 0.0
H497 H 0.29926 0.78448 0.26744 0.0
C498 C 0.49427 0.18302 0.69569 0.0
C499 C 0.50914 0.1866 0.72227 0.0
C500 C 0.49107 0.1991 0.684 0.0
C501 C 0.50106 0.25218 0.70521 0.0
H502 H 0.50148 0.25812 0.60173 0.0
C503 C 0.52064 0.32134 0.59726 0.0
C504 C 0.51009 0.33058 0.61331 0.0
C505 C 0.51718 0.30194 0.60895 0.0
C506 C 0.50131 0.25668 0.63066 0.0
H507 H 0.5313 0.20964 0.75902 0.0
H508 H 0.52553 0.23761 0.73894 0.0
H509 H 0.50141 0.22794 0.62774 0.0
H510 H 0.48666 0.32596 0.65283 0.0
H511 H 0.48057 0.29216 0.67295 0.0
H512 H 0.50153 0.2812 0.70813 0.0
C513 C 0.51638 0.22236 0.72704 0.0
C514 C 0.50106 0.23927 0.64561 0.0
C515 C 0.51968 0.20629 0.7386 0.0
C516 C 0.49511 0.31937 0.63985 0.0
C517 C 0.49174 0.30005 0.65168 0.0
C518 C 0.50114 0.26951 0.69026 0.0
C519 C 0.50253 0.21914 0.69876 0.0
C520 C 0.50118 0.23691 0.68308 0.0
C521 C 0.50316 0.29136 0.63711 0.0
C522 C 0.50151 0.27211 0.65279 0.0
H523 H 0.48584 0.16806 0.6825 0.0
H524 H 0.48001 0.19599 0.66265 0.0
H525 H 0.50104 0.25081 0.73414 0.0
H526 H 0.53235 0.32955 0.57688 0.0
H527 H 0.52631 0.29575 0.59721 0.0
C528 C 0.44389 0.5066 0.09183 0.0
C529 C 0.44873 0.52746 0.09052 0.0
C530 C 0.4597 0.5016 0.09533 0.0
C531 C 0.51577 0.52457 0.12025 0.0
H532 H 0.51176 0.47847 0.06514 0.0
C533 C 0.58567 0.51107 0.09681 0.0
C534 C 0.58151 0.49042 0.0985 0.0
C535 C 0.56938 0.51548 0.09842 0.0
C536 C 0.51304 0.49127 0.08101 0.0
H537 H 0.47414 0.5594 0.09215 0.0
H538 H 0.50143 0.55074 0.09743 0.0
H539 H 0.48331 0.48587 0.06352 0.0
H540 H 0.55689 0.45831 0.10421 0.0
H541 H 0.52876 0.46604 0.10702 0.0
H542 H 0.54575 0.53018 0.13709 0.0
C543 C 0.48547 0.53817 0.09652 0.0
C544 C 0.49666 0.49548 0.08019 0.0
C545 C 0.46973 0.54314 0.09322 0.0
C546 C 0.56075 0.4744 0.10265 0.0
C547 C 0.54453 0.4788 0.10404 0.0
C548 C 0.53222 0.52044 0.12086 0.0
C549 C 0.48074 0.51734 0.09747 0.0
C550 C 0.49781 0.51225 0.09967 0.0
C551 C 0.54859 0.49935 0.10151 0.0
C552 C 0.53108 0.50376 0.10119 0.0
H553 H 0.42791 0.49413 0.08992 0.0
H554 H 0.45541 0.48538 0.09644 0.0
H555 H 0.51712 0.5374 0.13613 0.0
H556 H 0.60144 0.52378 0.09356 0.0
H557 H 0.57303 0.53149 0.09621 0.0
C558 C 0.93803 0.46053 0.44814 0.0
C559 C 0.9328 0.44224 0.42898 0.0
C560 C 0.9586 0.47683 0.44973 0.0
C561 C 1.0002 0.51403 0.43091 0.0
H562 H 0.04655 0.50399 0.43429 0.0
C563 C 0.08596 0.58036 0.41399 0.0
C564 C 0.10137 0.5787 0.43309 0.0
C565 C 0.06526 0.56402 0.41433 0.0
C566 C 0.03382 0.50716 0.43377 0.0
H567 H 0.94529 0.42665 0.397 0.0
H568 H 0.9812 0.45527 0.39909 0.0
H569 H 1.01124 0.47473 0.4346 0.0
H570 H 0.10686 0.55899 0.46898 0.0
H571 H 0.07093 0.53104 0.47062 0.0
H572 H 0.02278 0.54648 0.43132 0.0
C573 C 0.96942 0.45689 0.41348 0.0
C574 C 1.01348 0.49028 0.43339 0.0
C575 C 0.9488 0.44045 0.4122 0.0
C576 C 0.09545 0.56072 0.45363 0.0
C577 C 0.0748 0.54455 0.4543 0.0
C578 C 0.02054 0.53092 0.43158 0.0
C579 C 0.97457 0.47545 0.43187 0.0
C580 C 0.99635 0.49345 0.43205 0.0
C581 C 0.05945 0.54573 0.43407 0.0
C582 C 0.03767 0.52775 0.43312 0.0
H583 H 0.92614 0.46239 0.46169 0.0
H584 H 0.96193 0.49056 0.46496 0.0
H585 H 0.98748 0.51718 0.42922 0.0
H586 H 0.09002 0.59393 0.3977 0.0
H587 H 0.05397 0.56549 0.39816 0.0
C588 C 0.54946 0.09118 0.75799 0.0
C589 C 0.53348 0.09604 0.75505 0.0
C590 C 0.54493 0.07058 0.76055 0.0
C591 C 0.50319 0.01655 0.74178 0.0
H592 H 0.53798 1.00235 0.79881 0.0
C593 C 0.48297 0.93165 0.7634 0.0
C594 C 0.49914 0.92711 0.7593 0.0
C595 C 0.48717 0.95217 0.76479 0.0
C596 C 0.52823 1.00611 0.78253 0.0
H597 H 0.50004 0.08284 0.75328 0.0
H598 H 0.49204 0.04678 0.75859 0.0
H599 H 0.54456 0.03798 0.79885 0.0
H600 H 0.53255 0.94082 0.75438 0.0
H601 H 0.53993 0.97683 0.75711 0.0
H602 H 0.48675 0.98459 0.72579 0.0
C603 C 0.50818 0.05898 0.75818 0.0
C604 C 0.532 0.02656 0.78249 0.0
C605 C 0.51275 0.07968 0.75539 0.0
C606 C 0.51973 0.94372 0.75757 0.0
C607 C 0.52395 0.96435 0.75924 0.0
C608 C 0.49933 0.99609 0.74206 0.0
C609 C 0.52424 0.05414 0.76052 0.0
C610 C 0.51961 0.03211 0.76193 0.0
C611 C 0.50767 0.9688 0.76235 0.0
C612 C 0.51185 0.99062 0.76232 0.0
H613 H 0.56564 0.10331 0.75763 0.0
H614 H 0.55775 0.06756 0.76164 0.0
H615 H 0.49356 0.02023 0.72508 0.0
H616 H 0.46691 0.91932 0.76496 0.0
H617 H 0.4743 0.95503 0.76778 0.0
C618 C 0.49086 0.56416 0.54905 0.0
C619 C 0.50217 0.58138 0.57163 0.0
C620 C 0.49543 0.54807 0.54751 0.0
C621 C 0.49823 0.51001 0.56586 0.0
H622 H 0.55412 0.51953 0.57777 0.0
C623 C 0.5147 0.44234 0.589 0.0
C624 C 0.5333 0.44441 0.57538 0.0
C625 C 0.51081 0.45894 0.58703 0.0
C626 C 0.53841 0.51652 0.57393 0.0
H627 H 0.52751 0.59541 0.60973 0.0
H628 H 0.53519 0.56707 0.60789 0.0
H629 H 0.54841 0.54897 0.5756 0.0
H630 H 0.56195 0.46524 0.54752 0.0
H631 H 0.55486 0.49372 0.54283 0.0
H632 H 0.48831 0.47762 0.56287 0.0
C633 C 0.52302 0.56615 0.59071 0.0
C634 C 0.53509 0.53349 0.57326 0.0
C635 C 0.51862 0.58243 0.59186 0.0
C636 C 0.54754 0.46316 0.5586 0.0
C637 C 0.54354 0.47962 0.55622 0.0
C638 C 0.50157 0.49306 0.56616 0.0
C639 C 0.51125 0.54855 0.56895 0.0
C640 C 0.51494 0.5305 0.56925 0.0
C641 C 0.52531 0.47793 0.57099 0.0
C642 C 0.52171 0.49604 0.57026 0.0
H643 H 0.47821 0.56295 0.53282 0.0
H644 H 0.48639 0.53515 0.52964 0.0
H645 H 0.48242 0.50694 0.56339 0.0
H646 H 0.50348 0.42816 0.60234 0.0
H647 H 0.49669 0.45704 0.59911 0.0
C648 C 0.08295 0.50681 0.91927 0.0
C649 C 0.09916 0.5276 0.91975 0.0
C650 C 0.06217 0.50204 0.91657 0.0
C651 C 0.02917 0.52531 0.89285 0.0
H652 H 0.98754 0.4795 0.94913 0.0
C653 C 0.94541 0.51107 0.91712 0.0
C654 C 0.92914 0.49033 0.91509 0.0
C655 C 0.96623 0.51581 0.91572 0.0
C656 C 0.99894 0.49224 0.93298 0.0
H657 H 0.1061 0.55965 0.91743 0.0
H658 H 0.0702 0.55138 0.91357 0.0
H659 H 0.02339 0.4869 0.94985 0.0
H660 H 0.92217 0.45839 0.90913 0.0
H661 H 0.95817 0.46666 0.90675 0.0
H662 H 1.00463 0.53082 0.87661 0.0
C663 C 0.07339 0.53868 0.91451 0.0
C664 C 0.01953 0.49644 0.93327 0.0
C665 C 0.09408 0.54343 0.91698 0.0
C666 C 0.93422 0.47455 0.91095 0.0
C667 C 0.95492 0.47926 0.90981 0.0
C668 C 1.00858 0.52119 0.8928 0.0
C669 C 0.0571 0.51793 0.91447 0.0
C670 C 0.03497 0.51305 0.91322 0.0
C671 C 0.9712 0.4999 0.91255 0.0
C672 C 0.99321 0.50458 0.91282 0.0
H673 H 0.08627 0.49422 0.92124 0.0
H674 H 0.05009 0.48586 0.91607 0.0
H675 H 0.0405 0.53802 0.87659 0.0
H676 H 0.9421 0.52361 0.92034 0.0
H677 H 0.97844 0.53188 0.91806 0.0
C678 C 0.46761 0.93195 0.22938 0.0
C679 C 0.44925 0.92604 0.24889 0.0
C680 C 0.4836 0.95266 0.22846 0.0
C681 C 0.52028 0.99434 0.24829 0.0
H682 H 0.509 0.03989 0.24719 0.0
C683 C 0.58564 0.08045 0.26516 0.0
C684 C 0.58354 0.09568 0.24631 0.0
C685 C 0.56949 0.05967 0.26516 0.0
C686 C 0.5125 0.02739 0.2471 0.0
H687 H 0.4332 0.93749 0.28222 0.0
H688 H 0.46131 0.97368 0.28126 0.0
H689 H 0.48021 1.00431 0.24656 0.0
H690 H 0.56319 0.10077 0.21135 0.0
H691 H 0.53556 0.06472 0.21034 0.0
H692 H 0.55258 0.01741 0.24757 0.0
C693 C 0.46322 0.9623 0.26612 0.0
C694 C 0.4959 1.0069 0.24729 0.0
C695 C 0.44707 0.94152 0.26675 0.0
C696 C 0.56527 0.08951 0.22648 0.0
C697 C 0.54928 0.06879 0.22618 0.0
C698 C 0.53688 0.01483 0.24784 0.0
C699 C 0.48185 0.96812 0.24735 0.0
C700 C 0.49953 0.99005 0.24772 0.0
C701 C 0.55094 0.0536 0.24604 0.0
C702 C 0.53326 0.03167 0.24707 0.0
H703 H 0.46976 0.92049 0.215 0.0
H704 H 0.49739 0.95652 0.2129 0.0
H705 H 0.52378 0.98185 0.2493 0.0
H706 H 0.59944 0.08469 0.28091 0.0
H707 H 0.57133 0.04851 0.28105 0.0
C708 C 0.42576 0.59663 0.68649 0.0
C709 C 0.44619 0.61306 0.68167 0.0
C710 C 0.41658 0.59248 0.72058 0.0
C711 C 0.42181 0.61383 0.81258 0.0
H712 H 0.40287 0.55724 0.84265 0.0
C713 C 0.42131 0.59066 0.96068 0.0
C714 C 0.4066 0.57044 0.97139 0.0
C715 C 0.42218 0.59676 0.92487 0.0
C716 C 0.40761 0.57301 0.83473 0.0
H717 H 0.47243 0.63894 0.70793 0.0
H718 H 0.45643 0.63178 0.76699 0.0
H719 H 0.41038 0.56643 0.7798 0.0
H720 H 0.38023 0.54132 0.95399 0.0
H721 H 0.38124 0.55213 0.89218 0.0
H722 H 0.41946 0.62051 0.86775 0.0
C723 C 0.44749 0.62206 0.74471 0.0
C724 C 0.41192 0.57826 0.79857 0.0
C725 C 0.45673 0.62602 0.71091 0.0
C726 C 0.39202 0.55689 0.9463 0.0
C727 C 0.39266 0.56306 0.91081 0.0
C728 C 0.41732 0.60854 0.8488 0.0
C729 C 0.42757 0.6049 0.75016 0.0
C730 C 0.41957 0.59882 0.78724 0.0
C731 C 0.40814 0.58283 0.89932 0.0
C732 C 0.41065 0.58816 0.86045 0.0
H733 H 0.41728 0.58643 0.66438 0.0
H734 H 0.40113 0.57921 0.72405 0.0
H735 H 0.42753 0.62978 0.80449 0.0
H736 H 0.43272 0.60141 0.97952 0.0
H737 H 0.43444 0.61205 0.91696 0.0
C738 C 0.83845 0.42093 0.31296 0.0
C739 C 0.84494 0.4063 0.31782 0.0
C740 C 0.8325 0.424 0.2789 0.0
C741 C 0.81781 0.40159 0.18739 0.0
H742 H 0.84958 0.45891 0.15633 0.0
C743 C 0.83833 0.42554 0.03903 0.0
C744 C 0.84183 0.44511 0.02831 0.0
C745 C 0.83329 0.41917 0.07478 0.0
C746 C 0.84013 0.44286 0.16453 0.0
H747 H 0.84894 0.38244 0.29154 0.0
H748 H 0.83856 0.38776 0.23252 0.0
H749 H 0.84958 0.45055 0.21918 0.0
H750 H 0.84099 0.47258 0.04533 0.0
H751 H 0.83133 0.46117 0.10702 0.0
H752 H 0.80871 0.39384 0.1325 0.0
C753 C 0.83806 0.39688 0.25479 0.0
C754 C 0.84017 0.43809 0.2007 0.0
C755 C 0.84423 0.39401 0.28856 0.0
C756 C 0.83875 0.45755 0.05313 0.0
C757 C 0.83333 0.45105 0.08853 0.0
C758 C 0.8176 0.40637 0.15116 0.0
C759 C 0.83264 0.41225 0.24937 0.0
C760 C 0.82947 0.41737 0.21236 0.0
C761 C 0.83132 0.43215 0.1002 0.0
C762 C 0.8292 0.42704 0.13914 0.0
H763 H 0.83878 0.43057 0.33507 0.0
H764 H 0.82829 0.4359 0.27545 0.0
H765 H 0.80927 0.38548 0.19576 0.0
H766 H 0.84064 0.41569 0.02035 0.0
H767 H 0.83202 0.40458 0.0828 0.0
C768 C 0.43321 0.83065 0.63897 0.0
C769 C 0.45477 0.84073 0.64484 0.0
C770 C 0.42521 0.82441 0.60434 0.0
C771 C 0.4383 0.81556 0.51221 0.0
H772 H 0.40284 0.83727 0.48274 0.0
C773 C 0.43116 0.83605 0.36544 0.0
C774 C 0.41286 0.83573 0.35509 0.0
C775 C 0.43332 0.83078 0.40061 0.0
C776 C 0.4123 0.83058 0.49046 0.0
H777 H 0.48471 0.85102 0.61949 0.0
H778 H 0.47078 0.84022 0.55943 0.0
H779 H 0.41149 0.83808 0.54558 0.0
H780 H 0.38178 0.82778 0.3717 0.0
H781 H 0.38511 0.81764 0.43226 0.0
H782 H 0.43949 0.80852 0.4568 0.0
C783 C 0.46004 0.83709 0.58141 0.0
C784 C 0.41727 0.8311 0.52663 0.0
C785 C 0.46803 0.84349 0.61581 0.0
C786 C 0.39619 0.82847 0.37932 0.0
C787 C 0.39817 0.8228 0.41407 0.0
C788 C 0.43317 0.81488 0.47594 0.0
C789 C 0.4386 0.82791 0.57514 0.0
C790 C 0.43074 0.82409 0.53778 0.0
C791 C 0.41707 0.82478 0.4257 0.0
C792 C 0.4205 0.82285 0.46451 0.0
H793 H 0.42261 0.82822 0.66085 0.0
H794 H 0.40859 0.81725 0.60025 0.0
H795 H 0.44858 0.80987 0.52017 0.0
H796 H 0.44423 0.84166 0.34716 0.0
H797 H 0.44816 0.83262 0.40862 0.0
C798 C 0.5659 0.40092 0.72486 0.0
C799 C 0.57876 0.40572 0.6945 0.0
C800 C 0.57381 0.40219 0.75917 0.0
C801 C 0.62238 0.42885 0.80981 0.0
H802 H 0.58611 0.3939 0.88597 0.0
C803 C 0.61501 0.42494 0.97578 0.0
C804 C 0.62158 0.44606 0.98119 0.0
C805 C 0.61352 0.41714 0.94095 0.0
C806 C 0.59671 0.40357 0.86513 0.0
H807 H 0.61001 0.41511 0.67645 0.0
H808 H 0.62393 0.41725 0.73688 0.0
H809 H 0.57636 0.38417 0.82371 0.0
H810 H 0.63232 0.47564 0.95426 0.0
H811 H 0.62925 0.46211 0.89434 0.0
H812 H 0.64267 0.4483 0.85124 0.0
C813 C 0.60769 0.41268 0.7339 0.0
C814 C 0.59097 0.39813 0.82936 0.0
C815 C 0.59973 0.41145 0.69931 0.0
C816 C 0.62714 0.45926 0.95122 0.0
C817 C 0.62564 0.45152 0.91667 0.0
C818 C 0.62823 0.43416 0.84558 0.0
C819 C 0.5948 0.40817 0.76425 0.0
C820 C 0.60321 0.41127 0.80133 0.0
C821 C 0.61863 0.43035 0.91096 0.0
C822 C 0.61495 0.42215 0.87366 0.0
H823 H 0.54967 0.39646 0.7223 0.0
H824 H 0.56351 0.39911 0.78182 0.0
H825 H 0.63224 0.4393 0.78899 0.0
H826 H 0.61075 0.41439 0.99833 0.0
H827 H 0.60818 0.40077 0.93749 0.0
C828 C 0.18198 0.55909 0.06507 0.0
C829 C 0.18499 0.57247 0.03618 0.0
C830 C 0.18838 0.56696 0.09956 0.0
C831 C 0.19514 0.60989 0.15493 0.0
H832 H 0.21741 0.58711 0.22401 0.0
C833 C 0.19892 0.63133 0.30234 0.0
C834 C 0.19147 0.61468 0.32656 0.0
C835 C 0.20435 0.62917 0.26746 0.0
C836 C 0.21113 0.59358 0.20508 0.0
H837 H 0.19786 0.6047 0.02055 0.0
H838 H 0.20882 0.6185 0.08127 0.0
H839 H 0.21561 0.57792 0.16057 0.0
H840 H 0.18496 0.58314 0.33433 0.0
H841 H 0.19359 0.57891 0.27268 0.0
H842 H 0.18951 0.62461 0.19912 0.0
C843 C 0.20147 0.60188 0.07701 0.0
C844 C 0.21019 0.5884 0.16877 0.0
C845 C 0.19523 0.594 0.0423 0.0
C846 C 0.19074 0.5962 0.31607 0.0
C847 C 0.19577 0.59386 0.28078 0.0
C848 C 0.19591 0.61493 0.19115 0.0
C849 C 0.1978 0.58838 0.10605 0.0
C850 C 0.20179 0.59618 0.14347 0.0
C851 C 0.20193 0.61011 0.25571 0.0
C852 C 0.20355 0.60655 0.21683 0.0
H853 H 0.17431 0.54243 0.06122 0.0
H854 H 0.1851 0.55614 0.12141 0.0
H855 H 0.18826 0.61586 0.1362 0.0
H856 H 0.19991 0.64586 0.31006 0.0
H857 H 0.20965 0.64222 0.24928 0.0
C858 C 0.5999 0.19266 0.63339 0.0
C859 C 0.57834 0.18227 0.63941 0.0
C860 C 0.60785 0.19898 0.59872 0.0
C861 C 0.5943 0.20732 0.50666 0.0
H862 H 0.63078 0.18682 0.47694 0.0
C863 C 0.60151 0.1864 0.36015 0.0
C864 C 0.61997 0.18708 0.34962 0.0
C865 C 0.59937 0.19188 0.39521 0.0
C866 C 0.62103 0.19317 0.48472 0.0
H867 H 0.5483 0.17146 0.61423 0.0
H868 H 0.56212 0.18235 0.55411 0.0
H869 H 0.62214 0.18594 0.53985 0.0
H870 H 0.65134 0.19592 0.36569 0.0
H871 H 0.64803 0.20643 0.42605 0.0
H872 H 0.59279 0.21406 0.45123 0.0
C873 C 0.57292 0.18569 0.57601 0.0
C874 C 0.61606 0.19262 0.52094 0.0
C875 C 0.56499 0.17923 0.61046 0.0
C876 C 0.63681 0.19495 0.37348 0.0
C877 C 0.63485 0.20083 0.40811 0.0
C878 C 0.59941 0.20803 0.47034 0.0
C879 C 0.59438 0.19523 0.5696 0.0
C880 C 0.60223 0.19917 0.53219 0.0
C881 C 0.61581 0.19845 0.42 0.0
C882 C 0.61244 0.20048 0.45882 0.0
H883 H 0.61057 0.19532 0.65521 0.0
H884 H 0.62448 0.20641 0.59453 0.0
H885 H 0.58374 0.21267 0.51468 0.0
H886 H 0.58831 0.18031 0.34216 0.0
H887 H 0.58443 0.18973 0.40343 0.0
loop_
_geom_bond_atom_site_label_1
_geom_bond_atom_site_label_2
_geom_bond_distance
_geom_bond_site_symmetry_2
_ccdc_geom_bond_type
O0 Cd1 2.223 . S
O0 C8 1.315 . S
Cd1 O0 2.223 . S
Cd1 O4 2.297 . S
Cd1 O5 2.439 . S
Cd1 O11 2.240 . S
Cd2 O3 2.240 . S
Cd2 O10 2.223 1_554 S
Cd2 O12 2.297 . S
Cd2 O13 2.439 . S
O3 Cd2 2.240 . S
O3 C8 1.279 . S
O4 Cd1 2.297 . S
O4 C6 1.247 . S
O5 Cd1 2.439 . S
O5 C6 1.208 . S
C6 O4 1.247 . S
C6 O5 1.208 . S
C7 O12 1.247 . S
C7 O13 1.208 . S
C8 O0 1.315 . S
C8 O3 1.279 . S
C9 O10 1.310 1_554 S
C9 O11 1.298 . S
O10 Cd2 2.223 1_556 S
O10 C9 1.310 1_556 S
O11 Cd1 2.240 . S
O11 C9 1.298 . S
O12 Cd2 2.297 . S
O12 C7 1.247 . S
O13 Cd2 2.439 . S
O13 C7 1.208 . S
O14 Cd15 2.223 . S
O14 C22 1.315 . S
Cd15 O14 2.223 . S
Cd15 O18 2.297 . S
Cd15 O19 2.439 . S
Cd15 O25 2.240 . S
Cd16 O17 2.240 . S
Cd16 O24 2.223 . S
Cd16 O26 2.297 . S
Cd16 O27 2.439 . S
O17 Cd16 2.240 . S
O17 C22 1.279 . S
O18 Cd15 2.297 . S
O18 C20 1.247 . S
O19 Cd15 2.439 . S
O19 C20 1.208 . S
C20 O18 1.247 . S
C20 O19 1.208 . S
C21 O26 1.247 . S
C21 O27 1.208 . S
C22 O14 1.315 . S
C22 O17 1.279 . S
C23 O24 1.315 . S
C23 O25 1.279 . S
O24 Cd16 2.223 . S
O24 C23 1.315 . S
O25 Cd15 2.240 . S
O25 C23 1.279 . S
O26 Cd16 2.297 . S
O26 C21 1.247 . S
O27 Cd16 2.439 . S
O27 C21 1.208 . S
O28 Cd29 2.223 . S
O28 C36 1.315 . S
Cd29 O28 2.223 . S
Cd29 O32 2.297 . S
Cd29 O33 2.439 . S
Cd29 O39 2.240 . S
Cd30 O31 2.240 . S
Cd30 O38 2.223 . S
Cd30 O40 2.297 . S
Cd30 O41 2.439 . S
O31 Cd30 2.240 . S
O31 C36 1.279 . S
O32 Cd29 2.297 . S
O32 C34 1.247 . S
O33 Cd29 2.439 . S
O33 C34 1.208 . S
C34 O32 1.247 . S
C34 O33 1.208 . S
C35 O40 1.247 . S
C35 O41 1.208 . S
C36 O28 1.315 . S
C36 O31 1.279 . S
C37 O38 1.315 . S
C37 O39 1.279 . S
O38 Cd30 2.223 . S
O38 C37 1.315 . S
O39 Cd29 2.240 . S
O39 C37 1.279 . S
O40 Cd30 2.297 . S
O40 C35 1.247 . S
O41 Cd30 2.439 . S
O41 C35 1.208 . S
O42 Cd43 2.223 . S
O42 C50 1.315 . S
Cd43 O42 2.223 . S
Cd43 O46 2.297 . S
Cd43 O47 2.439 . S
Cd43 O53 2.240 . S
Cd44 O45 2.240 . S
Cd44 O52 2.223 1_554 S
Cd44 O54 2.297 . S
Cd44 O55 2.439 . S
O45 Cd44 2.240 . S
O45 C50 1.279 . S
O46 Cd43 2.297 . S
O46 C48 1.247 . S
O47 Cd43 2.439 . S
O47 C48 1.208 . S
C48 O46 1.247 . S
C48 O47 1.208 . S
C49 O54 1.247 . S
C49 O55 1.208 . S
C50 O42 1.315 . S
C50 O45 1.279 . S
C51 O52 1.310 1_554 S
C51 O53 1.298 . S
O52 Cd44 2.223 1_556 S
O52 C51 1.310 1_556 S
O53 Cd43 2.240 . S
O53 C51 1.298 . S
O54 Cd44 2.297 . S
O54 C49 1.247 . S
O55 Cd44 2.439 . S
O55 C49 1.208 . S
O56 Cd57 2.223 . S
O56 C64 1.315 . S
Cd57 O56 2.223 . S
Cd57 O60 2.297 . S
Cd57 O61 2.439 . S
Cd57 O67 2.240 . S
Cd58 O59 2.240 . S
Cd58 O66 2.223 . S
Cd58 O68 2.297 . S
Cd58 O69 2.439 . S
O59 Cd58 2.240 . S
O59 C64 1.279 . S
O60 Cd57 2.297 . S
O60 C62 1.247 . S
O61 Cd57 2.439 . S
O61 C62 1.208 . S
C62 O60 1.247 . S
C62 O61 1.208 . S
C63 O68 1.247 . S
C63 O69 1.208 . S
C64 O56 1.315 . S
C64 O59 1.279 . S
C65 O66 1.315 . S
C65 O67 1.279 . S
O66 Cd58 2.223 . S
O66 C65 1.315 . S
O67 Cd57 2.240 . S
O67 C65 1.279 . S
O68 Cd58 2.297 . S
O68 C63 1.247 . S
O69 Cd58 2.439 . S
O69 C63 1.208 . S
O70 Cd71 2.223 . S
O70 C78 1.315 . S
Cd71 O70 2.223 . S
Cd71 O74 2.297 . S
Cd71 O75 2.439 . S
Cd71 O81 2.240 . S
Cd72 O73 2.240 . S
Cd72 O80 2.223 . S
Cd72 O82 2.297 . S
Cd72 O83 2.439 . S
O73 Cd72 2.240 . S
O73 C78 1.279 . S
O74 Cd71 2.297 . S
O74 C76 1.247 . S
O75 Cd71 2.439 . S
O75 C76 1.208 . S
C76 O74 1.247 . S
C76 O75 1.208 . S
C77 O82 1.247 . S
C77 O83 1.208 . S
C78 O70 1.315 . S
C78 O73 1.279 . S
C79 O80 1.315 . S
C79 O81 1.279 . S
O80 Cd72 2.223 . S
O80 C79 1.315 . S
O81 Cd71 2.240 . S
O81 C79 1.279 . S
O82 Cd72 2.297 . S
O82 C77 1.247 . S
O83 Cd72 2.439 . S
O83 C77 1.208 . S
O84 Cd85 2.223 . S
O84 C92 1.315 . S
Cd85 O84 2.223 . S
Cd85 O88 2.297 . S
Cd85 O89 2.439 . S
Cd85 O95 2.240 . S
Cd86 O87 2.240 . S
Cd86 O94 2.223 . S
Cd86 O96 2.297 . S
Cd86 O97 2.439 . S
O87 Cd86 2.240 . S
O87 C92 1.279 . S
O88 Cd85 2.297 . S
O88 C90 1.247 . S
O89 Cd85 2.439 . S
O89 C90 1.208 . S
C90 O88 1.247 . S
C90 O89 1.208 . S
C91 O96 1.247 . S
C91 O97 1.208 . S
C92 O84 1.315 . S
C92 O87 1.279 . S
C93 O94 1.315 . S
C93 O95 1.279 . S
O94 Cd86 2.223 . S
O94 C93 1.315 . S
O95 Cd85 2.240 . S
O95 C93 1.279 . S
O96 Cd86 2.297 . S
O96 C91 1.247 . S
O97 Cd86 2.439 . S
O97 C91 1.208 . S
O98 Cd99 2.223 . S
O98 C106 1.315 . S
Cd99 O98 2.223 . S
Cd99 O102 2.297 . S
Cd99 O103 2.439 . S
Cd99 O109 2.240 . S
Cd100 O101 2.240 . S
Cd100 O108 2.223 1_556 S
Cd100 O110 2.297 . S
Cd100 O111 2.439 . S
O101 Cd100 2.240 . S
O101 C106 1.279 . S
O102 Cd99 2.297 . S
O102 C104 1.247 . S
O103 Cd99 2.439 . S
O103 C104 1.208 . S
C104 O102 1.247 . S
C104 O103 1.208 . S
C105 O110 1.247 . S
C105 O111 1.208 . S
C106 O98 1.315 . S
C106 O101 1.279 . S
C107 O108 1.310 1_556 S
C107 O109 1.298 . S
O108 Cd100 2.223 1_554 S
O108 C107 1.310 1_554 S
O109 Cd99 2.240 . S
O109 C107 1.298 . S
O110 Cd100 2.297 . S
O110 C105 1.247 . S
O111 Cd100 2.439 . S
O111 C105 1.208 . S
O112 Cd113 2.223 . S
O112 C120 1.315 . S
Cd113 O112 2.223 . S
Cd113 O116 2.297 . S
Cd113 O117 2.439 . S
Cd113 O123 2.240 . S
Cd114 O115 2.240 . S
Cd114 O122 2.223 . S
Cd114 O124 2.297 . S
Cd114 O125 2.439 . S
O115 Cd114 2.240 . S
O115 C120 1.279 . S
O116 Cd113 2.297 . S
O116 C118 1.247 . S
O117 Cd113 2.439 . S
O117 C118 1.208 . S
C118 O116 1.247 . S
C118 O117 1.208 . S
C119 O124 1.247 . S
C119 O125 1.208 . S
C120 O112 1.315 . S
C120 O115 1.279 . S
C121 O122 1.315 . S
C121 O123 1.279 . S
O122 Cd114 2.223 . S
O122 C121 1.315 . S
O123 Cd113 2.240 . S
O123 C121 1.279 . S
O124 Cd114 2.297 . S
O124 C119 1.247 . S
O125 Cd114 2.439 . S
O125 C119 1.208 . S
O126 Cd127 2.223 . S
O126 C134 1.315 . S
Cd127 O126 2.223 . S
Cd127 O130 2.297 . S
Cd127 O131 2.439 . S
Cd127 O137 2.240 . S
Cd128 O129 2.240 . S
Cd128 O136 2.223 . S
Cd128 O138 2.297 . S
Cd128 O139 2.439 . S
O129 Cd128 2.240 . S
O129 C134 1.279 . S
O130 Cd127 2.297 . S
O130 C132 1.247 . S
O131 Cd127 2.439 . S
O131 C132 1.208 . S
C132 O130 1.247 . S
C132 O131 1.208 . S
C133 O138 1.247 . S
C133 O139 1.208 . S
C134 O126 1.315 . S
C134 O129 1.279 . S
C135 O136 1.315 . S
C135 O137 1.279 . S
O136 Cd128 2.223 . S
O136 C135 1.315 . S
O137 Cd127 2.240 . S
O137 C135 1.279 . S
O138 Cd128 2.297 . S
O138 C133 1.247 . S
O139 Cd128 2.439 . S
O139 C133 1.208 . S
O140 Cd141 2.223 . S
O140 C148 1.315 . S
Cd141 O140 2.223 . S
Cd141 O144 2.297 . S
Cd141 O145 2.439 . S
Cd141 O151 2.240 . S
Cd142 O143 2.240 . S
Cd142 O150 2.223 1_556 S
Cd142 O152 2.297 . S
Cd142 O153 2.439 . S
O143 Cd142 2.240 . S
O143 C148 1.279 . S
O144 Cd141 2.297 . S
O144 C146 1.247 . S
O145 Cd141 2.439 . S
O145 C146 1.208 . S
C146 O144 1.247 . S
C146 O145 1.208 . S
C147 O152 1.247 . S
C147 O153 1.208 . S
C148 O140 1.315 . S
C148 O143 1.279 . S
C149 O150 1.310 1_556 S
C149 O151 1.298 . S
O150 Cd142 2.223 1_554 S
O150 C149 1.310 1_554 S
O151 Cd141 2.240 . S
O151 C149 1.298 . S
O152 Cd142 2.297 . S
O152 C147 1.247 . S
O153 Cd142 2.439 . S
O153 C147 1.208 . S
O154 Cd155 2.223 . S
O154 C162 1.315 . S
Cd155 O154 2.223 . S
Cd155 O158 2.297 . S
Cd155 O159 2.439 . S
Cd155 O165 2.240 . S
Cd156 O157 2.240 . S
Cd156 O164 2.223 . S
Cd156 O166 2.297 . S
Cd156 O167 2.439 . S
O157 Cd156 2.240 . S
O157 C162 1.279 . S
O158 Cd155 2.297 . S
O158 C160 1.247 . S
O159 Cd155 2.439 . S
O159 C160 1.208 . S
C160 O158 1.247 . S
C160 O159 1.208 . S
C161 O166 1.247 . S
C161 O167 1.208 . S
C162 O154 1.315 . S
C162 O157 1.279 . S
C163 O164 1.315 . S
C163 O165 1.279 . S
O164 Cd156 2.223 . S
O164 C163 1.315 . S
O165 Cd155 2.240 . S
O165 C163 1.279 . S
O166 Cd156 2.297 . S
O166 C161 1.247 . S
O167 Cd156 2.439 . S
O167 C161 1.208 . S
C168 C169 1.349 . S
C168 C170 1.327 . S
C168 H193 0.950 . S
C169 C168 1.349 . S
C169 C185 1.349 . S
C170 C168 1.327 . S
C170 C189 1.429 . S
C170 H194 0.950 . S
C171 C188 1.574 . S
C171 C190 1.368 . S
C171 H195 0.949 . S
H172 C176 0.949 . S
C173 C174 1.349 . S
C173 C175 1.327 . S
C173 H196 0.950 . S
C174 C173 1.349 . S
C174 C186 1.349 . S
C175 C173 1.327 . S
C175 C191 1.429 . S
C175 H197 0.950 . S
C176 H172 0.949 . S
C176 C184 1.574 . S
C176 C192 1.368 . S
H177 C185 0.950 . S
H178 C183 0.950 . S
H179 C184 0.949 . S
H180 C186 0.950 . S
H181 C187 0.950 . S
H182 C188 0.949 . S
C183 H178 0.950 . S
C183 C185 1.327 . S
C183 C189 1.429 . S
C184 C176 1.574 . S
C184 H179 0.949 . S
C184 C190 1.368 . S
C185 C169 1.349 . S
C185 H177 0.950 . S
C185 C183 1.327 . S
C186 C174 1.349 . S
C186 H180 0.950 . S
C186 C187 1.327 . S
C187 H181 0.950 . S
C187 C186 1.327 . S
C187 C191 1.429 . S
C188 C171 1.574 . S
C188 H182 0.949 . S
C188 C192 1.368 . S
C189 C170 1.429 . S
C189 C183 1.429 . S
C189 C190 1.523 . S
C190 C171 1.368 . S
C190 C184 1.368 . S
C190 C189 1.523 . S
C191 C175 1.429 . S
C191 C187 1.429 . S
C191 C192 1.523 . S
C192 C176 1.368 . S
C192 C188 1.368 . S
C192 C191 1.523 . S
H193 C168 0.950 . S
H194 C170 0.950 . S
H195 C171 0.949 . S
H196 C173 0.950 . S
H197 C175 0.950 . S
C198 C199 1.349 . S
C198 C200 1.327 . S
C198 H223 0.950 . S
C199 C198 1.349 . S
C199 C215 1.349 . S
C200 C198 1.327 . S
C200 C219 1.429 . S
C200 H224 0.950 . S
C201 C218 1.574 . S
C201 C220 1.368 . S
C201 H225 0.949 . S
H202 C206 0.949 . S
C203 C204 1.349 . S
C203 C205 1.327 . S
C203 H226 0.950 . S
C204 C203 1.349 . S
C204 C216 1.349 . S
C205 C203 1.327 . S
C205 C221 1.429 . S
C205 H227 0.950 . S
C206 H202 0.949 . S
C206 C214 1.574 . S
C206 C222 1.368 . S
H207 C215 0.950 . S
H208 C213 0.950 . S
H209 C214 0.949 . S
H210 C216 0.950 . S
H211 C217 0.950 . S
H212 C218 0.949 . S
C213 H208 0.950 . S
C213 C215 1.327 . S
C213 C219 1.429 . S
C214 C206 1.574 . S
C214 H209 0.949 . S
C214 C220 1.368 . S
C215 C199 1.349 . S
C215 H207 0.950 . S
C215 C213 1.327 . S
C216 C204 1.349 . S
C216 H210 0.950 . S
C216 C217 1.327 . S
C217 H211 0.950 . S
C217 C216 1.327 . S
C217 C221 1.429 . S
C218 C201 1.574 . S
C218 H212 0.949 . S
C218 C222 1.368 . S
C219 C200 1.429 . S
C219 C213 1.429 . S
C219 C220 1.523 . S
C220 C201 1.368 . S
C220 C214 1.368 . S
C220 C219 1.523 . S
C221 C205 1.429 . S
C221 C217 1.429 . S
C221 C222 1.523 . S
C222 C206 1.368 . S
C222 C218 1.368 . S
C222 C221 1.523 . S
H223 C198 0.950 . S
H224 C200 0.950 . S
H225 C201 0.949 . S
H226 C203 0.950 . S
H227 C205 0.950 . S
C228 C229 1.349 . S
C228 C230 1.327 . S
C228 H253 0.950 . S
C229 C228 1.349 . S
C229 C245 1.349 . S
C230 C228 1.327 . S
C230 C249 1.429 . S
C230 H254 0.950 . S
C231 C248 1.574 1_556 S
C231 C250 1.368 . S
C231 H255 0.949 . S
H232 C236 0.949 . S
C233 C234 1.349 . S
C233 C235 1.327 . S
C233 H256 0.950 . S
C234 C233 1.349 . S
C234 C246 1.349 . S
C235 C233 1.327 . S
C235 C251 1.429 . S
C235 H257 0.950 . S
C236 H232 0.949 . S
C236 C244 1.574 1_554 S
C236 C252 1.368 . S
H237 C245 0.950 . S
H238 C243 0.950 . S
H239 C244 0.949 . S
H240 C246 0.950 . S
H241 C247 0.950 . S
H242 C248 0.949 . S
C243 H238 0.950 . S
C243 C245 1.327 . S
C243 C249 1.429 . S
C244 C236 1.574 1_556 S
C244 H239 0.949 . S
C244 C250 1.368 . S
C245 C229 1.349 . S
C245 H237 0.950 . S
C245 C243 1.327 . S
C246 C234 1.349 . S
C246 H240 0.950 . S
C246 C247 1.327 . S
C247 H241 0.950 . S
C247 C246 1.327 . S
C247 C251 1.429 . S
C248 C231 1.574 1_554 S
C248 H242 0.949 . S
C248 C252 1.368 . S
C249 C230 1.429 . S
C249 C243 1.429 . S
C249 C250 1.523 . S
C250 C231 1.368 . S
C250 C244 1.368 . S
C250 C249 1.523 . S
C251 C235 1.429 . S
C251 C247 1.429 . S
C251 C252 1.523 . S
C252 C236 1.368 . S
C252 C248 1.368 . S
C252 C251 1.523 . S
H253 C228 0.950 . S
H254 C230 0.950 . S
H255 C231 0.949 . S
H256 C233 0.950 . S
H257 C235 0.950 . S
C258 C259 1.349 . S
C258 C260 1.327 . S
C258 H283 0.950 . S
C259 C258 1.349 . S
C259 C275 1.349 . S
C260 C258 1.327 . S
C260 C279 1.429 . S
C260 H284 0.950 . S
C261 C278 1.574 . S
C261 C280 1.368 . S
C261 H285 0.949 . S
H262 C266 0.949 . S
C263 C264 1.349 . S
C263 C265 1.327 . S
C263 H286 0.950 . S
C264 C263 1.349 . S
C264 C276 1.349 . S
C265 C263 1.327 . S
C265 C281 1.429 . S
C265 H287 0.950 . S
C266 H262 0.949 . S
C266 C274 1.574 . S
C266 C282 1.368 . S
H267 C275 0.950 . S
H268 C273 0.950 . S
H269 C274 0.949 . S
H270 C276 0.950 . S
H271 C277 0.950 . S
H272 C278 0.949 . S
C273 H268 0.950 . S
C273 C275 1.327 . S
C273 C279 1.429 . S
C274 C266 1.574 . S
C274 H269 0.949 . S
C274 C280 1.368 . S
C275 C259 1.349 . S
C275 H267 0.950 . S
C275 C273 1.327 . S
C276 C264 1.349 . S
C276 H270 0.950 . S
C276 C277 1.327 . S
C277 H271 0.950 . S
C277 C276 1.327 . S
C277 C281 1.429 . S
C278 C261 1.574 . S
C278 H272 0.949 . S
C278 C282 1.368 . S
C279 C260 1.429 . S
C279 C273 1.429 . S
C279 C280 1.523 . S
C280 C261 1.368 . S
C280 C274 1.368 . S
C280 C279 1.523 . S
C281 C265 1.429 . S
C281 C277 1.429 . S
C281 C282 1.523 . S
C282 C266 1.368 . S
C282 C278 1.368 . S
C282 C281 1.523 . S
H283 C258 0.950 . S
H284 C260 0.950 . S
H285 C261 0.949 . S
H286 C263 0.950 . S
H287 C265 0.950 . S
C288 C289 1.349 . S
C288 C290 1.327 . S
C288 H313 0.950 . S
C289 C288 1.349 . S
C289 C305 1.349 . S
C290 C288 1.327 . S
C290 C309 1.429 . S
C290 H314 0.950 . S
C291 C308 1.574 . S
C291 C310 1.368 . S
C291 H315 0.949 . S
H292 C296 0.949 . S
C293 C294 1.349 . S
C293 C295 1.327 . S
C293 H316 0.950 . S
C294 C293 1.349 . S
C294 C306 1.349 . S
C295 C293 1.327 . S
C295 C311 1.429 . S
C295 H317 0.950 . S
C296 H292 0.949 . S
C296 C304 1.574 . S
C296 C312 1.368 . S
H297 C305 0.950 . S
H298 C303 0.950 . S
H299 C304 0.949 . S
H300 C306 0.950 . S
H301 C307 0.950 . S
H302 C308 0.949 . S
C303 H298 0.950 . S
C303 C305 1.327 . S
C303 C309 1.429 . S
C304 C296 1.574 . S
C304 H299 0.949 . S
C304 C310 1.368 . S
C305 C289 1.349 . S
C305 H297 0.950 . S
C305 C303 1.327 . S
C306 C294 1.349 . S
C306 H300 0.950 . S
C306 C307 1.327 . S
C307 H301 0.950 . S
C307 C306 1.327 . S
C307 C311 1.429 . S
C308 C291 1.574 . S
C308 H302 0.949 . S
C308 C312 1.368 . S
C309 C290 1.429 . S
C309 C303 1.429 . S
C309 C310 1.523 . S
C310 C291 1.368 . S
C310 C304 1.368 . S
C310 C309 1.523 . S
C311 C295 1.429 . S
C311 C307 1.429 . S
C311 C312 1.523 . S
C312 C296 1.368 . S
C312 C308 1.368 . S
C312 C311 1.523 . S
H313 C288 0.950 . S
H314 C290 0.950 . S
H315 C291 0.949 . S
H316 C293 0.950 . S
H317 C295 0.950 . S
C318 C319 1.349 . S
C318 C320 1.327 . S
C318 H343 0.950 . S
C319 C318 1.349 . S
C319 C335 1.349 . S
C320 C318 1.327 . S
C320 C339 1.429 . S
C320 H344 0.950 . S
C321 C338 1.574 1_554 S
C321 C340 1.368 . S
C321 H345 0.949 . S
H322 C326 0.949 . S
C323 C324 1.349 . S
C323 C325 1.327 . S
C323 H346 0.950 . S
C324 C323 1.349 . S
C324 C336 1.349 . S
C325 C323 1.327 . S
C325 C341 1.429 . S
C325 H347 0.950 . S
C326 H322 0.949 . S
C326 C334 1.574 1_556 S
C326 C342 1.368 . S
H327 C335 0.950 . S
H328 C333 0.950 . S
H329 C334 0.949 . S
H330 C336 0.950 . S
H331 C337 0.950 . S
H332 C338 0.949 . S
C333 H328 0.950 . S
C333 C335 1.327 . S
C333 C339 1.429 . S
C334 C326 1.574 1_554 S
C334 H329 0.949 . S
C334 C340 1.368 . S
C335 C319 1.349 . S
C335 H327 0.950 . S
C335 C333 1.327 . S
C336 C324 1.349 . S
C336 H330 0.950 . S
C336 C337 1.327 . S
C337 H331 0.950 . S
C337 C336 1.327 . S
C337 C341 1.429 . S
C338 C321 1.574 1_556 S
C338 H332 0.949 . S
C338 C342 1.368 . S
C339 C320 1.429 . S
C339 C333 1.429 . S
C339 C340 1.523 . S
C340 C321 1.368 . S
C340 C334 1.368 . S
C340 C339 1.523 . S
C341 C325 1.429 . S
C341 C337 1.429 . S
C341 C342 1.523 . S
C342 C326 1.368 . S
C342 C338 1.368 . S
C342 C341 1.523 . S
H343 C318 0.950 . S
H344 C320 0.950 . S
H345 C321 0.949 . S
H346 C323 0.950 . S
H347 C325 0.950 . S
C348 C349 1.349 . S
C348 C350 1.327 . S
C348 H373 0.950 . S
C349 C348 1.349 . S
C349 C365 1.349 . S
C350 C348 1.327 . S
C350 C369 1.429 . S
C350 H374 0.950 . S
C351 C368 1.574 . S
C351 C370 1.368 1_556 S
C351 H375 0.949 . S
H352 C356 0.949 . S
C353 C354 1.349 . S
C353 C355 1.327 . S
C353 H376 0.950 . S
C354 C353 1.349 . S
C354 C366 1.349 . S
C355 C353 1.327 . S
C355 C371 1.429 . S
C355 H377 0.950 . S
C356 H352 0.949 . S
C356 C364 1.574 . S
C356 C372 1.368 1_554 S
H357 C365 0.950 . S
H358 C363 0.950 1_556 S
H359 C364 0.949 . S
H360 C366 0.950 . S
H361 C367 0.950 1_554 S
H362 C368 0.949 . S
C363 H358 0.950 1_554 S
C363 C365 1.327 . S
C363 C369 1.429 . S
C364 C356 1.574 . S
C364 H359 0.949 . S
C364 C370 1.368 . S
C365 C349 1.349 . S
C365 H357 0.950 . S
C365 C363 1.327 . S
C366 C354 1.349 . S
C366 H360 0.950 . S
C366 C367 1.327 . S
C367 H361 0.950 1_556 S
C367 C366 1.327 . S
C367 C371 1.429 . S
C368 C351 1.574 . S
C368 H362 0.949 . S
C368 C372 1.368 . S
C369 C350 1.429 . S
C369 C363 1.429 . S
C369 C370 1.523 . S
C370 C351 1.368 1_554 S
C370 C364 1.368 . S
C370 C369 1.523 . S
C371 C355 1.429 . S
C371 C367 1.429 . S
C371 C372 1.523 . S
C372 C356 1.368 1_556 S
C372 C368 1.368 . S
C372 C371 1.523 . S
H373 C348 0.950 . S
H374 C350 0.950 . S
H375 C351 0.949 . S
H376 C353 0.950 . S
H377 C355 0.950 . S
C378 C379 1.349 . S
C378 C380 1.327 . S
C378 H403 0.950 . S
C379 C378 1.349 . S
C379 C395 1.349 . S
C380 C378 1.327 . S
C380 C399 1.429 . S
C380 H404 0.950 . S
C381 C398 1.574 . S
C381 C400 1.368 . S
C381 H405 0.949 . S
H382 C386 0.949 . S
C383 C384 1.349 . S
C383 C385 1.327 . S
C383 H406 0.950 . S
C384 C383 1.349 . S
C384 C396 1.349 . S
C385 C383 1.327 . S
C385 C401 1.429 . S
C385 H407 0.950 . S
C386 H382 0.949 . S
C386 C394 1.574 . S
C386 C402 1.368 . S
H387 C395 0.950 . S
H388 C393 0.950 . S
H389 C394 0.949 . S
H390 C396 0.950 . S
H391 C397 0.950 . S
H392 C398 0.949 . S
C393 H388 0.950 . S
C393 C395 1.327 . S
C393 C399 1.429 . S
C394 C386 1.574 . S
C394 H389 0.949 . S
C394 C400 1.368 . S
C395 C379 1.349 . S
C395 H387 0.950 . S
C395 C393 1.327 . S
C396 C384 1.349 . S
C396 H390 0.950 . S
C396 C397 1.327 . S
C397 H391 0.950 . S
C397 C396 1.327 . S
C397 C401 1.429 . S
C398 C381 1.574 . S
C398 H392 0.949 . S
C398 C402 1.368 . S
C399 C380 1.429 . S
C399 C393 1.429 . S
C399 C400 1.523 . S
C400 C381 1.368 . S
C400 C394 1.368 . S
C400 C399 1.523 . S
C401 C385 1.429 . S
C401 C397 1.429 . S
C401 C402 1.523 . S
C402 C386 1.368 . S
C402 C398 1.368 . S
C402 C401 1.523 . S
H403 C378 0.950 . S
H404 C380 0.950 . S
H405 C381 0.949 . S
H406 C383 0.950 . S
H407 C385 0.950 . S
C408 C409 1.349 . S
C408 C410 1.327 . S
C408 H433 0.950 . S
C409 C408 1.349 . S
C409 C425 1.349 . S
C410 C408 1.327 . S
C410 C429 1.429 . S
C410 H434 0.950 . S
C411 C428 1.574 . S
C411 C430 1.368 . S
C411 H435 0.949 . S
H412 C416 0.949 . S
C413 C414 1.349 . S
C413 C415 1.327 . S
C413 H436 0.950 . S
C414 C413 1.349 . S
C414 C426 1.349 . S
C415 C413 1.327 . S
C415 C431 1.429 . S
C415 H437 0.950 . S
C416 H412 0.949 . S
C416 C424 1.574 . S
C416 C432 1.368 . S
H417 C425 0.950 . S
H418 C423 0.950 . S
H419 C424 0.949 . S
H420 C426 0.950 . S
H421 C427 0.950 . S
H422 C428 0.949 . S
C423 H418 0.950 . S
C423 C425 1.327 . S
C423 C429 1.429 . S
C424 C416 1.574 . S
C424 H419 0.949 . S
C424 C430 1.368 . S
C425 C409 1.349 . S
C425 H417 0.950 . S
C425 C423 1.327 . S
C426 C414 1.349 . S
C426 H420 0.950 . S
C426 C427 1.327 . S
C427 H421 0.950 . S
C427 C426 1.327 . S
C427 C431 1.429 . S
C428 C411 1.574 . S
C428 H422 0.949 . S
C428 C432 1.368 . S
C429 C410 1.429 . S
C429 C423 1.429 . S
C429 C430 1.523 . S
C430 C411 1.368 . S
C430 C424 1.368 . S
C430 C429 1.523 . S
C431 C415 1.429 . S
C431 C427 1.429 . S
C431 C432 1.523 . S
C432 C416 1.368 . S
C432 C428 1.368 . S
C432 C431 1.523 . S
H433 C408 0.950 . S
H434 C410 0.950 . S
H435 C411 0.949 . S
H436 C413 0.950 . S
H437 C415 0.950 . S
C438 C439 1.349 . S
C438 C440 1.327 . S
C438 H463 0.950 . S
C439 C438 1.349 . S
C439 C455 1.349 . S
C440 C438 1.327 . S
C440 C459 1.429 . S
C440 H464 0.950 . S
C441 C458 1.574 . S
C441 C460 1.368 1_556 S
C441 H465 0.949 . S
H442 C446 0.949 . S
C443 C444 1.349 . S
C443 C445 1.327 . S
C443 H466 0.950 . S
C444 C443 1.349 . S
C444 C456 1.349 . S
C445 C443 1.327 . S
C445 C461 1.429 . S
C445 H467 0.950 . S
C446 H442 0.949 . S
C446 C454 1.574 . S
C446 C462 1.368 1_554 S
H447 C455 0.950 . S
H448 C453 0.950 1_556 S
H449 C454 0.949 . S
H450 C456 0.950 . S
H451 C457 0.950 1_554 S
H452 C458 0.949 . S
C453 H448 0.950 1_554 S
C453 C455 1.327 . S
C453 C459 1.429 . S
C454 C446 1.574 . S
C454 H449 0.949 . S
C454 C460 1.368 . S
C455 C439 1.349 . S
C455 H447 0.950 . S
C455 C453 1.327 . S
C456 C444 1.349 . S
C456 H450 0.950 . S
C456 C457 1.327 . S
C457 H451 0.950 1_556 S
C457 C456 1.327 . S
C457 C461 1.429 . S
C458 C441 1.574 . S
C458 H452 0.949 . S
C458 C462 1.368 . S
C459 C440 1.429 . S
C459 C453 1.429 . S
C459 C460 1.523 . S
C460 C441 1.368 1_554 S
C460 C454 1.368 . S
C460 C459 1.523 . S
C461 C445 1.429 . S
C461 C457 1.429 . S
C461 C462 1.523 . S
C462 C446 1.368 1_556 S
C462 C458 1.368 . S
C462 C461 1.523 . S
H463 C438 0.950 . S
H464 C440 0.950 . S
H465 C441 0.949 . S
H466 C443 0.950 . S
H467 C445 0.950 . S
C468 C469 1.349 . S
C468 C470 1.327 . S
C468 H493 0.950 . S
C469 C468 1.349 . S
C469 C485 1.349 . S
C470 C468 1.327 . S
C470 C489 1.429 . S
C470 H494 0.950 . S
C471 C488 1.574 . S
C471 C490 1.368 . S
C471 H495 0.949 . S
H472 C476 0.949 . S
C473 C474 1.349 . S
C473 C475 1.327 . S
C473 H496 0.950 . S
C474 C473 1.349 . S
C474 C486 1.349 . S
C475 C473 1.327 . S
C475 C491 1.429 . S
C475 H497 0.950 . S
C476 H472 0.949 . S
C476 C484 1.574 . S
C476 C492 1.368 . S
H477 C485 0.950 . S
H478 C483 0.950 . S
H479 C484 0.949 . S
H480 C486 0.950 . S
H481 C487 0.950 . S
H482 C488 0.949 . S
C483 H478 0.950 . S
C483 C485 1.327 . S
C483 C489 1.429 . S
C484 C476 1.574 . S
C484 H479 0.949 . S
C484 C490 1.368 . S
C485 C469 1.349 . S
C485 H477 0.950 . S
C485 C483 1.327 . S
C486 C474 1.349 . S
C486 H480 0.950 . S
C486 C487 1.327 . S
C487 H481 0.950 . S
C487 C486 1.327 . S
C487 C491 1.429 . S
C488 C471 1.574 . S
C488 H482 0.949 . S
C488 C492 1.368 . S
C489 C470 1.429 . S
C489 C483 1.429 . S
C489 C490 1.523 . S
C490 C471 1.368 . S
C490 C484 1.368 . S
C490 C489 1.523 . S
C491 C475 1.429 . S
C491 C487 1.429 . S
C491 C492 1.523 . S
C492 C476 1.368 . S
C492 C488 1.368 . S
C492 C491 1.523 . S
H493 C468 0.950 . S
H494 C470 0.950 . S
H495 C471 0.949 . S
H496 C473 0.950 . S
H497 C475 0.950 . S
C498 C499 1.349 . S
C498 C500 1.327 . S
C498 H523 0.950 . S
C499 C498 1.349 . S
C499 C515 1.349 . S
C500 C498 1.327 . S
C500 C519 1.429 . S
C500 H524 0.950 . S
C501 C518 1.574 . S
C501 C520 1.368 . S
C501 H525 0.949 . S
H502 C506 0.949 . S
C503 C504 1.349 . S
C503 C505 1.327 . S
C503 H526 0.950 . S
C504 C503 1.349 . S
C504 C516 1.349 . S
C505 C503 1.327 . S
C505 C521 1.429 . S
C505 H527 0.950 . S
C506 H502 0.949 . S
C506 C514 1.574 . S
C506 C522 1.368 . S
H507 C515 0.950 . S
H508 C513 0.950 . S
H509 C514 0.949 . S
H510 C516 0.950 . S
H511 C517 0.950 . S
H512 C518 0.949 . S
C513 H508 0.950 . S
C513 C515 1.327 . S
C513 C519 1.429 . S
C514 C506 1.574 . S
C514 H509 0.949 . S
C514 C520 1.368 . S
C515 C499 1.349 . S
C515 H507 0.950 . S
C515 C513 1.327 . S
C516 C504 1.349 . S
C516 H510 0.950 . S
C516 C517 1.327 . S
C517 H511 0.950 . S
C517 C516 1.327 . S
C517 C521 1.429 . S
C518 C501 1.574 . S
C518 H512 0.949 . S
C518 C522 1.368 . S
C519 C500 1.429 . S
C519 C513 1.429 . S
C519 C520 1.523 . S
C520 C501 1.368 . S
C520 C514 1.368 . S
C520 C519 1.523 . S
C521 C505 1.429 . S
C521 C517 1.429 . S
C521 C522 1.523 . S
C522 C506 1.368 . S
C522 C518 1.368 . S
C522 C521 1.523 . S
H523 C498 0.950 . S
H524 C500 0.950 . S
H525 C501 0.949 . S
H526 C503 0.950 . S
H527 C505 0.950 . S
C528 C529 1.349 . S
C528 C530 1.327 . S
C528 H553 0.950 . S
C529 C528 1.349 . S
C529 C545 1.349 . S
C530 C528 1.327 . S
C530 C549 1.429 . S
C530 H554 0.950 . S
C531 C548 1.574 . S
C531 C550 1.368 . S
C531 H555 0.949 . S
H532 C536 0.949 . S
C533 C534 1.349 . S
C533 C535 1.327 . S
C533 H556 0.950 . S
C534 C533 1.349 . S
C534 C546 1.349 . S
C535 C533 1.327 . S
C535 C551 1.429 . S
C535 H557 0.950 . S
C536 H532 0.949 . S
C536 C544 1.574 . S
C536 C552 1.368 . S
H537 C545 0.950 . S
H538 C543 0.950 . S
H539 C544 0.949 . S
H540 C546 0.950 . S
H541 C547 0.950 . S
H542 C548 0.949 . S
C543 H538 0.950 . S
C543 C545 1.327 . S
C543 C549 1.429 . S
C544 C536 1.574 . S
C544 H539 0.949 . S
C544 C550 1.368 . S
C545 C529 1.349 . S
C545 H537 0.950 . S
C545 C543 1.327 . S
C546 C534 1.349 . S
C546 H540 0.950 . S
C546 C547 1.327 . S
C547 H541 0.950 . S
C547 C546 1.327 . S
C547 C551 1.429 . S
C548 C531 1.574 . S
C548 H542 0.949 . S
C548 C552 1.368 . S
C549 C530 1.429 . S
C549 C543 1.429 . S
C549 C550 1.523 . S
C550 C531 1.368 . S
C550 C544 1.368 . S
C550 C549 1.523 . S
C551 C535 1.429 . S
C551 C547 1.429 . S
C551 C552 1.523 . S
C552 C536 1.368 . S
C552 C548 1.368 . S
C552 C551 1.523 . S
H553 C528 0.950 . S
H554 C530 0.950 . S
H555 C531 0.949 . S
H556 C533 0.950 . S
H557 C535 0.950 . S
C558 C559 1.349 . S
C558 C560 1.327 . S
C558 H583 0.950 . S
C559 C558 1.349 . S
C559 C575 1.349 . S
C560 C558 1.327 . S
C560 C579 1.429 . S
C560 H584 0.950 . S
C561 C578 1.574 1_655 S
C561 C580 1.368 . S
C561 H585 0.949 . S
H562 C566 0.949 . S
C563 C564 1.349 . S
C563 C565 1.327 . S
C563 H586 0.950 . S
C564 C563 1.349 . S
C564 C576 1.349 . S
C565 C563 1.327 . S
C565 C581 1.429 . S
C565 H587 0.950 . S
C566 H562 0.949 . S
C566 C574 1.574 1_455 S
C566 C582 1.368 . S
H567 C575 0.950 . S
H568 C573 0.950 . S
H569 C574 0.949 . S
H570 C576 0.950 . S
H571 C577 0.950 . S
H572 C578 0.949 . S
C573 H568 0.950 . S
C573 C575 1.327 . S
C573 C579 1.429 . S
C574 C566 1.574 1_655 S
C574 H569 0.949 . S
C574 C580 1.368 . S
C575 C559 1.349 . S
C575 H567 0.950 . S
C575 C573 1.327 . S
C576 C564 1.349 . S
C576 H570 0.950 . S
C576 C577 1.327 . S
C577 H571 0.950 . S
C577 C576 1.327 . S
C577 C581 1.429 . S
C578 C561 1.574 1_455 S
C578 H572 0.949 . S
C578 C582 1.368 . S
C579 C560 1.429 . S
C579 C573 1.429 . S
C579 C580 1.523 . S
C580 C561 1.368 . S
C580 C574 1.368 . S
C580 C579 1.523 . S
C581 C565 1.429 . S
C581 C577 1.429 . S
C581 C582 1.523 . S
C582 C566 1.368 . S
C582 C578 1.368 . S
C582 C581 1.523 . S
H583 C558 0.950 . S
H584 C560 0.950 . S
H585 C561 0.949 . S
H586 C563 0.950 . S
H587 C565 0.950 . S
C588 C589 1.349 . S
C588 C590 1.327 . S
C588 H613 0.950 . S
C589 C588 1.349 . S
C589 C605 1.349 . S
C590 C588 1.327 . S
C590 C609 1.429 . S
C590 H614 0.950 . S
C591 C608 1.574 1_545 S
C591 C610 1.368 . S
C591 H615 0.949 . S
H592 C596 0.949 . S
C593 C594 1.349 . S
C593 C595 1.327 . S
C593 H616 0.950 . S
C594 C593 1.349 . S
C594 C606 1.349 . S
C595 C593 1.327 . S
C595 C611 1.429 . S
C595 H617 0.950 . S
C596 H592 0.949 . S
C596 C604 1.574 1_565 S
C596 C612 1.368 . S
H597 C605 0.950 . S
H598 C603 0.950 . S
H599 C604 0.949 . S
H600 C606 0.950 . S
H601 C607 0.950 . S
H602 C608 0.949 . S
C603 H598 0.950 . S
C603 C605 1.327 . S
C603 C609 1.429 . S
C604 C596 1.574 1_545 S
C604 H599 0.949 . S
C604 C610 1.368 . S
C605 C589 1.349 . S
C605 H597 0.950 . S
C605 C603 1.327 . S
C606 C594 1.349 . S
C606 H600 0.950 . S
C606 C607 1.327 . S
C607 H601 0.950 . S
C607 C606 1.327 . S
C607 C611 1.429 . S
C608 C591 1.574 1_565 S
C608 H602 0.949 . S
C608 C612 1.368 . S
C609 C590 1.429 . S
C609 C603 1.429 . S
C609 C610 1.523 . S
C610 C591 1.368 . S
C610 C604 1.368 . S
C610 C609 1.523 . S
C611 C595 1.429 . S
C611 C607 1.429 . S
C611 C612 1.523 . S
C612 C596 1.368 . S
C612 C608 1.368 . S
C612 C611 1.523 . S
H613 C588 0.950 . S
H614 C590 0.950 . S
H615 C591 0.949 . S
H616 C593 0.950 . S
H617 C595 0.950 . S
C618 C619 1.349 . S
C618 C620 1.327 . S
C618 H643 0.950 . S
C619 C618 1.349 . S
C619 C635 1.349 . S
C620 C618 1.327 . S
C620 C639 1.429 . S
C620 H644 0.950 . S
C621 C638 1.574 . S
C621 C640 1.368 . S
C621 H645 0.949 . S
H622 C626 0.949 . S
C623 C624 1.349 . S
C623 C625 1.327 . S
C623 H646 0.950 . S
C624 C623 1.349 . S
C624 C636 1.349 . S
C625 C623 1.327 . S
C625 C641 1.429 . S
C625 H647 0.950 . S
C626 H622 0.949 . S
C626 C634 1.574 . S
C626 C642 1.368 . S
H627 C635 0.950 . S
H628 C633 0.950 . S
H629 C634 0.949 . S
H630 C636 0.950 . S
H631 C637 0.950 . S
H632 C638 0.949 . S
C633 H628 0.950 . S
C633 C635 1.327 . S
C633 C639 1.429 . S
C634 C626 1.574 . S
C634 H629 0.949 . S
C634 C640 1.368 . S
C635 C619 1.349 . S
C635 H627 0.950 . S
C635 C633 1.327 . S
C636 C624 1.349 . S
C636 H630 0.950 . S
C636 C637 1.327 . S
C637 H631 0.950 . S
C637 C636 1.327 . S
C637 C641 1.429 . S
C638 C621 1.574 . S
C638 H632 0.949 . S
C638 C642 1.368 . S
C639 C620 1.429 . S
C639 C633 1.429 . S
C639 C640 1.523 . S
C640 C621 1.368 . S
C640 C634 1.368 . S
C640 C639 1.523 . S
C641 C625 1.429 . S
C641 C637 1.429 . S
C641 C642 1.523 . S
C642 C626 1.368 . S
C642 C638 1.368 . S
C642 C641 1.523 . S
H643 C618 0.950 . S
H644 C620 0.950 . S
H645 C621 0.949 . S
H646 C623 0.950 . S
H647 C625 0.950 . S
C648 C649 1.349 . S
C648 C650 1.327 . S
C648 H673 0.950 . S
C649 C648 1.349 . S
C649 C665 1.349 . S
C650 C648 1.327 . S
C650 C669 1.429 . S
C650 H674 0.950 . S
C651 C668 1.574 1_455 S
C651 C670 1.368 . S
C651 H675 0.949 . S
H652 C656 0.949 . S
C653 C654 1.349 . S
C653 C655 1.327 . S
C653 H676 0.950 . S
C654 C653 1.349 . S
C654 C666 1.349 . S
C655 C653 1.327 . S
C655 C671 1.429 . S
C655 H677 0.950 . S
C656 H652 0.949 . S
C656 C664 1.574 1_655 S
C656 C672 1.368 . S
H657 C665 0.950 . S
H658 C663 0.950 . S
H659 C664 0.949 . S
H660 C666 0.950 . S
H661 C667 0.950 . S
H662 C668 0.949 . S
C663 H658 0.950 . S
C663 C665 1.327 . S
C663 C669 1.429 . S
C664 C656 1.574 1_455 S
C664 H659 0.949 . S
C664 C670 1.368 . S
C665 C649 1.349 . S
C665 H657 0.950 . S
C665 C663 1.327 . S
C666 C654 1.349 . S
C666 H660 0.950 . S
C666 C667 1.327 . S
C667 H661 0.950 . S
C667 C666 1.327 . S
C667 C671 1.429 . S
C668 C651 1.574 1_655 S
C668 H662 0.949 . S
C668 C672 1.368 . S
C669 C650 1.429 . S
C669 C663 1.429 . S
C669 C670 1.523 . S
C670 C651 1.368 . S
C670 C664 1.368 . S
C670 C669 1.523 . S
C671 C655 1.429 . S
C671 C667 1.429 . S
C671 C672 1.523 . S
C672 C656 1.368 . S
C672 C668 1.368 . S
C672 C671 1.523 . S
H673 C648 0.950 . S
H674 C650 0.950 . S
H675 C651 0.949 . S
H676 C653 0.950 . S
H677 C655 0.950 . S
C678 C679 1.349 . S
C678 C680 1.327 . S
C678 H703 0.950 . S
C679 C678 1.349 . S
C679 C695 1.349 . S
C680 C678 1.327 . S
C680 C699 1.429 . S
C680 H704 0.950 . S
C681 C698 1.574 1_565 S
C681 C700 1.368 . S
C681 H705 0.949 . S
H682 C686 0.949 . S
C683 C684 1.349 . S
C683 C685 1.327 . S
C683 H706 0.950 . S
C684 C683 1.349 . S
C684 C696 1.349 . S
C685 C683 1.327 . S
C685 C701 1.429 . S
C685 H707 0.950 . S
C686 H682 0.949 . S
C686 C694 1.574 1_545 S
C686 C702 1.368 . S
H687 C695 0.950 . S
H688 C693 0.950 . S
H689 C694 0.949 . S
H690 C696 0.950 . S
H691 C697 0.950 . S
H692 C698 0.949 . S
C693 H688 0.950 . S
C693 C695 1.327 . S
C693 C699 1.429 . S
C694 C686 1.574 1_565 S
C694 H689 0.949 . S
C694 C700 1.368 . S
C695 C679 1.349 . S
C695 H687 0.950 . S
C695 C693 1.327 . S
C696 C684 1.349 . S
C696 H690 0.950 . S
C696 C697 1.327 . S
C697 H691 0.950 . S
C697 C696 1.327 . S
C697 C701 1.429 . S
C698 C681 1.574 1_545 S
C698 H692 0.949 . S
C698 C702 1.368 . S
C699 C680 1.429 . S
C699 C693 1.429 . S
C699 C700 1.523 . S
C700 C681 1.368 . S
C700 C694 1.368 . S
C700 C699 1.523 . S
C701 C685 1.429 . S
C701 C697 1.429 . S
C701 C702 1.523 . S
C702 C686 1.368 . S
C702 C698 1.368 . S
C702 C701 1.523 . S
H703 C678 0.950 . S
H704 C680 0.950 . S
H705 C681 0.949 . S
H706 C683 0.950 . S
H707 C685 0.950 . S
C708 C709 1.349 . S
C708 C710 1.327 . S
C708 H733 0.950 . S
C709 C708 1.349 . S
C709 C725 1.349 . S
C710 C708 1.327 . S
C710 C729 1.429 . S
C710 H734 0.950 . S
C711 C728 1.574 . S
C711 C730 1.368 . S
C711 H735 0.949 . S
H712 C716 0.949 . S
C713 C714 1.349 . S
C713 C715 1.327 . S
C713 H736 0.950 . S
C714 C713 1.349 . S
C714 C726 1.349 . S
C715 C713 1.327 . S
C715 C731 1.429 . S
C715 H737 0.950 . S
C716 H712 0.949 . S
C716 C724 1.574 . S
C716 C732 1.368 . S
H717 C725 0.950 . S
H718 C723 0.950 . S
H719 C724 0.949 . S
H720 C726 0.950 . S
H721 C727 0.950 . S
H722 C728 0.949 . S
C723 H718 0.950 . S
C723 C725 1.327 . S
C723 C729 1.429 . S
C724 C716 1.574 . S
C724 H719 0.949 . S
C724 C730 1.368 . S
C725 C709 1.349 . S
C725 H717 0.950 . S
C725 C723 1.327 . S
C726 C714 1.349 . S
C726 H720 0.950 . S
C726 C727 1.327 . S
C727 H721 0.950 . S
C727 C726 1.327 . S
C727 C731 1.429 . S
C728 C711 1.574 . S
C728 H722 0.949 . S
C728 C732 1.368 . S
C729 C710 1.429 . S
C729 C723 1.429 . S
C729 C730 1.523 . S
C730 C711 1.368 . S
C730 C724 1.368 . S
C730 C729 1.523 . S
C731 C715 1.429 . S
C731 C727 1.429 . S
C731 C732 1.523 . S
C732 C716 1.368 . S
C732 C728 1.368 . S
C732 C731 1.523 . S
H733 C708 0.950 . S
H734 C710 0.950 . S
H735 C711 0.949 . S
H736 C713 0.950 . S
H737 C715 0.950 . S
C738 C739 1.349 . S
C738 C740 1.327 . S
C738 H763 0.950 . S
C739 C738 1.349 . S
C739 C755 1.349 . S
C740 C738 1.327 . S
C740 C759 1.429 . S
C740 H764 0.950 . S
C741 C758 1.574 . S
C741 C760 1.368 . S
C741 H765 0.949 . S
H742 C746 0.949 . S
C743 C744 1.349 . S
C743 C745 1.327 . S
C743 H766 0.950 . S
C744 C743 1.349 . S
C744 C756 1.349 . S
C745 C743 1.327 . S
C745 C761 1.429 . S
C745 H767 0.950 . S
C746 H742 0.949 . S
C746 C754 1.574 . S
C746 C762 1.368 . S
H747 C755 0.950 . S
H748 C753 0.950 . S
H749 C754 0.949 . S
H750 C756 0.950 . S
H751 C757 0.950 . S
H752 C758 0.949 . S
C753 H748 0.950 . S
C753 C755 1.327 . S
C753 C759 1.429 . S
C754 C746 1.574 . S
C754 H749 0.949 . S
C754 C760 1.368 . S
C755 C739 1.349 . S
C755 H747 0.950 . S
C755 C753 1.327 . S
C756 C744 1.349 . S
C756 H750 0.950 . S
C756 C757 1.327 . S
C757 H751 0.950 . S
C757 C756 1.327 . S
C757 C761 1.429 . S
C758 C741 1.574 . S
C758 H752 0.949 . S
C758 C762 1.368 . S
C759 C740 1.429 . S
C759 C753 1.429 . S
C759 C760 1.523 . S
C760 C741 1.368 . S
C760 C754 1.368 . S
C760 C759 1.523 . S
C761 C745 1.429 . S
C761 C757 1.429 . S
C761 C762 1.523 . S
C762 C746 1.368 . S
C762 C758 1.368 . S
C762 C761 1.523 . S
H763 C738 0.950 . S
H764 C740 0.950 . S
H765 C741 0.949 . S
H766 C743 0.950 . S
H767 C745 0.950 . S
C768 C769 1.349 . S
C768 C770 1.327 . S
C768 H793 0.950 . S
C769 C768 1.349 . S
C769 C785 1.349 . S
C770 C768 1.327 . S
C770 C789 1.429 . S
C770 H794 0.950 . S
C771 C788 1.574 . S
C771 C790 1.368 . S
C771 H795 0.949 . S
H772 C776 0.949 . S
C773 C774 1.349 . S
C773 C775 1.327 . S
C773 H796 0.950 . S
C774 C773 1.349 . S
C774 C786 1.349 . S
C775 C773 1.327 . S
C775 C791 1.429 . S
C775 H797 0.950 . S
C776 H772 0.949 . S
C776 C784 1.574 . S
C776 C792 1.368 . S
H777 C785 0.950 . S
H778 C783 0.950 . S
H779 C784 0.949 . S
H780 C786 0.950 . S
H781 C787 0.950 . S
H782 C788 0.949 . S
C783 H778 0.950 . S
C783 C785 1.327 . S
C783 C789 1.429 . S
C784 C776 1.574 . S
C784 H779 0.949 . S
C784 C790 1.368 . S
C785 C769 1.349 . S
C785 H777 0.950 . S
C785 C783 1.327 . S
C786 C774 1.349 . S
C786 H780 0.950 . S
C786 C787 1.327 . S
C787 H781 0.950 . S
C787 C786 1.327 . S
C787 C791 1.429 . S
C788 C771 1.574 . S
C788 H782 0.949 . S
C788 C792 1.368 . S
C789 C770 1.429 . S
C789 C783 1.429 . S
C789 C790 1.523 . S
C790 C771 1.368 . S
C790 C784 1.368 . S
C790 C789 1.523 . S
C791 C775 1.429 . S
C791 C787 1.429 . S
C791 C792 1.523 . S
C792 C776 1.368 . S
C792 C788 1.368 . S
C792 C791 1.523 . S
H793 C768 0.950 . S
H794 C770 0.950 . S
H795 C771 0.949 . S
H796 C773 0.950 . S
H797 C775 0.950 . S
C798 C799 1.349 . S
C798 C800 1.327 . S
C798 H823 0.950 . S
C799 C798 1.349 . S
C799 C815 1.349 . S
C800 C798 1.327 . S
C800 C819 1.429 . S
C800 H824 0.950 . S
C801 C818 1.574 . S
C801 C820 1.368 . S
C801 H825 0.949 . S
H802 C806 0.949 . S
C803 C804 1.349 . S
C803 C805 1.327 . S
C803 H826 0.950 . S
C804 C803 1.349 . S
C804 C816 1.349 . S
C805 C803 1.327 . S
C805 C821 1.429 . S
C805 H827 0.950 . S
C806 H802 0.949 . S
C806 C814 1.574 . S
C806 C822 1.368 . S
H807 C815 0.950 . S
H808 C813 0.950 . S
H809 C814 0.949 . S
H810 C816 0.950 . S
H811 C817 0.950 . S
H812 C818 0.949 . S
C813 H808 0.950 . S
C813 C815 1.327 . S
C813 C819 1.429 . S
C814 C806 1.574 . S
C814 H809 0.949 . S
C814 C820 1.368 . S
C815 C799 1.349 . S
C815 H807 0.950 . S
C815 C813 1.327 . S
C816 C804 1.349 . S
C816 H810 0.950 . S
C816 C817 1.327 . S
C817 H811 0.950 . S
C817 C816 1.327 . S
C817 C821 1.429 . S
C818 C801 1.574 . S
C818 H812 0.949 . S
C818 C822 1.368 . S
C819 C800 1.429 . S
C819 C813 1.429 . S
C819 C820 1.523 . S
C820 C801 1.368 . S
C820 C814 1.368 . S
C820 C819 1.523 . S
C821 C805 1.429 . S
C821 C817 1.429 . S
C821 C822 1.523 . S
C822 C806 1.368 . S
C822 C818 1.368 . S
C822 C821 1.523 . S
H823 C798 0.950 . S
H824 C800 0.950 . S
H825 C801 0.949 . S
H826 C803 0.950 . S
H827 C805 0.950 . S
C828 C829 1.349 . S
C828 C830 1.327 . S
C828 H853 0.950 . S
C829 C828 1.349 . S
C829 C845 1.349 . S
C830 C828 1.327 . S
C830 C849 1.429 . S
C830 H854 0.950 . S
C831 C848 1.574 . S
C831 C850 1.368 . S
C831 H855 0.949 . S
H832 C836 0.949 . S
C833 C834 1.349 . S
C833 C835 1.327 . S
C833 H856 0.950 . S
C834 C833 1.349 . S
C834 C846 1.349 . S
C835 C833 1.327 . S
C835 C851 1.429 . S
C835 H857 0.950 . S
C836 H832 0.949 . S
C836 C844 1.574 . S
C836 C852 1.368 . S
H837 C845 0.950 . S
H838 C843 0.950 . S
H839 C844 0.949 . S
H840 C846 0.950 . S
H841 C847 0.950 . S
H842 C848 0.949 . S
C843 H838 0.950 . S
C843 C845 1.327 . S
C843 C849 1.429 . S
C844 C836 1.574 . S
C844 H839 0.949 . S
C844 C850 1.368 . S
C845 C829 1.349 . S
C845 H837 0.950 . S
C845 C843 1.327 . S
C846 C834 1.349 . S
C846 H840 0.950 . S
C846 C847 1.327 . S
C847 H841 0.950 . S
C847 C846 1.327 . S
C847 C851 1.429 . S
C848 C831 1.574 . S
C848 H842 0.949 . S
C848 C852 1.368 . S
C849 C830 1.429 . S
C849 C843 1.429 . S
C849 C850 1.523 . S
C850 C831 1.368 . S
C850 C844 1.368 . S
C850 C849 1.523 . S
C851 C835 1.429 . S
C851 C847 1.429 . S
C851 C852 1.523 . S
C852 C836 1.368 . S
C852 C848 1.368 . S
C852 C851 1.523 . S
H853 C828 0.950 . S
H854 C830 0.950 . S
H855 C831 0.949 . S
H856 C833 0.950 . S
H857 C835 0.950 . S
C858 C859 1.349 . S
C858 C860 1.327 . S
C858 H883 0.950 . S
C859 C858 1.349 . S
C859 C875 1.349 . S
C860 C858 1.327 . S
C860 C879 1.429 . S
C860 H884 0.950 . S
C861 C878 1.574 . S
C861 C880 1.368 . S
C861 H885 0.949 . S
H862 C866 0.949 . S
C863 C864 1.349 . S
C863 C865 1.327 . S
C863 H886 0.950 . S
C864 C863 1.349 . S
C864 C876 1.349 . S
C865 C863 1.327 . S
C865 C881 1.429 . S
C865 H887 0.950 . S
C866 H862 0.949 . S
C866 C874 1.574 . S
C866 C882 1.368 . S
H867 C875 0.950 . S
H868 C873 0.950 . S
H869 C874 0.949 . S
H870 C876 0.950 . S
H871 C877 0.950 . S
H872 C878 0.949 . S
C873 H868 0.950 . S
C873 C875 1.327 . S
C873 C879 1.429 . S
C874 C866 1.574 . S
C874 H869 0.949 . S
C874 C880 1.368 . S
C875 C859 1.349 . S
C875 H867 0.950 . S
C875 C873 1.327 . S
C876 C864 1.349 . S
C876 H870 0.950 . S
C876 C877 1.327 . S
C877 H871 0.950 . S
C877 C876 1.327 . S
C877 C881 1.429 . S
C878 C861 1.574 . S
C878 H872 0.949 . S
C878 C882 1.368 . S
C879 C860 1.429 . S
C879 C873 1.429 . S
C879 C880 1.523 . S
C880 C861 1.368 . S
C880 C874 1.368 . S
C880 C879 1.523 . S
C881 C865 1.429 . S
C881 C877 1.429 . S
C881 C882 1.523 . S
C882 C866 1.368 . S
C882 C878 1.368 . S
C882 C881 1.523 . S
H883 C858 0.950 . S
H884 C860 0.950 . S
H885 C861 0.949 . S
H886 C863 0.950 . S
H887 C865 0.950 . S
C169 C6 1.466 . S
C174 C90 1.466 . S
C199 C20 1.466 . S
C204 C104 1.466 . S
C229 C34 1.466 . S
C234 C118 1.466 . S
C259 C48 1.466 . S
C264 C132 1.466 . S
C289 C62 1.466 . S
C294 C146 1.466 . S
C319 C160 1.466 . S
C324 C76 1.466 . S
C349 C7 1.329 . S
C354 C147 1.329 . S
C379 C21 1.329 . S
C384 C161 1.329 . S
C409 C35 1.329 . S
C414 C91 1.330 . S
C439 C49 1.329 . S
C444 C105 1.329 . S
C469 C63 1.329 . S
C474 C119 1.329 . S
C499 C77 1.329 . S
C504 C133 1.330 . S
C529 C8 1.171 . S
C534 C50 1.171 . S
C559 C22 1.173 . S
C564 C64 1.173 . S
C589 C78 1.173 . S
C594 C36 1.173 . S
C619 C92 1.174 . S
C624 C134 1.174 . S
C649 C148 1.173 . S
C654 C106 1.173 . S
C679 C120 1.173 . S
C684 C162 1.173 . S
C709 C93 1.113 . S
C714 C9 1.095 1_556 S
C739 C23 1.113 . S
C744 C107 1.095 1_554 S
C769 C37 1.113 . S
C774 C121 1.113 . S
C799 C135 1.113 . S
C804 C51 1.095 1_556 S
C829 C149 1.095 1_554 S
C834 C65 1.113 . S
C859 C79 1.113 . S
C864 C163 1.113 . S
