# Generated by pormake.
# Topology vcc, (6)-cn, num edge types: 1
# Building blocks:
#     Node 0, Type 0, BuildingBlock: PAMTUU_clean_sbu_0, # of connection points: 6
#     Node 1, Type 0, BuildingBlock: PAMTUU_clean_sbu_0, # of connection points: 6
#     Node 2, Type 0, BuildingBlock: PAMTUU_clean_sbu_0, # of connection points: 6
#     Node 3, Type 0, BuildingBlock: PAMTUU_clean_sbu_0, # of connection points: 6
#     Node 4, Type 0, BuildingBlock: PAMTUU_clean_sbu_0, # of connection points: 6
#     Node 5, Type 0, BuildingBlock: PAMTUU_clean_sbu_0, # of connection points: 6
#     Node 6, Type 0, BuildingBlock: PAMTUU_clean_sbu_0, # of connection points: 6
#     Node 7, Type 0, BuildingBlock: PAMTUU_clean_sbu_0, # of connection points: 6
#     Node 8, Type 0, BuildingBlock: PAMTUU_clean_sbu_0, # of connection points: 6
#     Node 9, Type 0, BuildingBlock: PAMTUU_clean_sbu_0, # of connection points: 6
#     Node 10, Type 0, BuildingBlock: PAMTUU_clean_sbu_0, # of connection points: 6
#     Node 11, Type 0, BuildingBlock: PAMTUU_clean_sbu_0, # of connection points: 6
#     Node 12, Type 0, BuildingBlock: PAMTUU_clean_sbu_0, # of connection points: 6
#     Node 13, Type 0, BuildingBlock: PAMTUU_clean_sbu_0, # of connection points: 6
#     Node 14, Type 0, BuildingBlock: PAMTUU_clean_sbu_0, # of connection points: 6
#     Node 15, Type 0, BuildingBlock: PAMTUU_clean_sbu_0, # of connection points: 6
#     Node 16, Type 0, BuildingBlock: PAMTUU_clean_sbu_0, # of connection points: 6
#     Node 17, Type 0, BuildingBlock: PAMTUU_clean_sbu_0, # of connection points: 6
#     Node 18, Type 0, BuildingBlock: PAMTUU_clean_sbu_0, # of connection points: 6
#     Node 19, Type 0, BuildingBlock: PAMTUU_clean_sbu_0, # of connection points: 6
#     Node 20, Type 0, BuildingBlock: PAMTUU_clean_sbu_0, # of connection points: 6
#     Node 21, Type 0, BuildingBlock: PAMTUU_clean_sbu_0, # of connection points: 6
#     Node 22, Type 0, BuildingBlock: PAMTUU_clean_sbu_0, # of connection points: 6
#     Node 23, Type 0, BuildingBlock: PAMTUU_clean_sbu_0, # of connection points: 6
#     Node 24, Type 0, BuildingBlock: PAMTUU_clean_sbu_0, # of connection points: 6
#     Node 25, Type 0, BuildingBlock: PAMTUU_clean_sbu_0, # of connection points: 6
#     Node 26, Type 0, BuildingBlock: PAMTUU_clean_sbu_0, # of connection points: 6
#     Node 27, Type 0, BuildingBlock: PAMTUU_clean_sbu_0, # of connection points: 6
#     Node 28, Type 0, BuildingBlock: PAMTUU_clean_sbu_0, # of connection points: 6
#     Node 29, Type 0, BuildingBlock: PAMTUU_clean_sbu_0, # of connection points: 6
#     Node 30, Type 0, BuildingBlock: PAMTUU_clean_sbu_0, # of connection points: 6
#     Node 31, Type 0, BuildingBlock: PAMTUU_clean_sbu_0, # of connection points: 6
#     Edge 32, Type (0, 0), BuildingBlock: XUDNAN_clean_linker_2, # of connection points: 2
#     Edge 33, Type (0, 0), BuildingBlock: XUDNAN_clean_linker_2, # of connection points: 2
#     Edge 34, Type (0, 0), BuildingBlock: XUDNAN_clean_linker_2, # of connection points: 2
#     Edge 35, Type (0, 0), BuildingBlock: XUDNAN_clean_linker_2, # of connection points: 2
#     Edge 36, Type (0, 0), BuildingBlock: XUDNAN_clean_linker_2, # of connection points: 2
#     Edge 37, Type (0, 0), BuildingBlock: XUDNAN_clean_linker_2, # of connection points: 2
#     Edge 38, Type (0, 0), BuildingBlock: XUDNAN_clean_linker_2, # of connection points: 2
#     Edge 39, Type (0, 0), BuildingBlock: XUDNAN_clean_linker_2, # of connection points: 2
#     Edge 40, Type (0, 0), BuildingBlock: XUDNAN_clean_linker_2, # of connection points: 2
#     Edge 41, Type (0, 0), BuildingBlock: XUDNAN_clean_linker_2, # of connection points: 2
#     Edge 42, Type (0, 0), BuildingBlock: XUDNAN_clean_linker_2, # of connection points: 2
#     Edge 43, Type (0, 0), BuildingBlock: XUDNAN_clean_linker_2, # of connection points: 2
#     Edge 44, Type (0, 0), BuildingBlock: XUDNAN_clean_linker_2, # of connection points: 2
#     Edge 45, Type (0, 0), BuildingBlock: XUDNAN_clean_linker_2, # of connection points: 2
#     Edge 46, Type (0, 0), BuildingBlock: XUDNAN_clean_linker_2, # of connection points: 2
#     Edge 47, Type (0, 0), BuildingBlock: XUDNAN_clean_linker_2, # of connection points: 2
#     Edge 48, Type (0, 0), BuildingBlock: XUDNAN_clean_linker_2, # of connection points: 2
#     Edge 49, Type (0, 0), BuildingBlock: XUDNAN_clean_linker_2, # of connection points: 2
#     Edge 50, Type (0, 0), BuildingBlock: XUDNAN_clean_linker_2, # of connection points: 2
#     Edge 51, Type (0, 0), BuildingBlock: XUDNAN_clean_linker_2, # of connection points: 2
#     Edge 52, Type (0, 0), BuildingBlock: XUDNAN_clean_linker_2, # of connection points: 2
#     Edge 53, Type (0, 0), BuildingBlock: XUDNAN_clean_linker_2, # of connection points: 2
#     Edge 54, Type (0, 0), BuildingBlock: XUDNAN_clean_linker_2, # of connection points: 2
#     Edge 55, Type (0, 0), BuildingBlock: XUDNAN_clean_linker_2, # of connection points: 2
#     Edge 56, Type (0, 0), BuildingBlock: XUDNAN_clean_linker_2, # of connection points: 2
#     Edge 57, Type (0, 0), BuildingBlock: XUDNAN_clean_linker_2, # of connection points: 2
#     Edge 58, Type (0, 0), BuildingBlock: XUDNAN_clean_linker_2, # of connection points: 2
#     Edge 59, Type (0, 0), BuildingBlock: XUDNAN_clean_linker_2, # of connection points: 2
#     Edge 60, Type (0, 0), BuildingBlock: XUDNAN_clean_linker_2, # of connection points: 2
#     Edge 61, Type (0, 0), BuildingBlock: XUDNAN_clean_linker_2, # of connection points: 2
#     Edge 62, Type (0, 0), BuildingBlock: XUDNAN_clean_linker_2, # of connection points: 2
#     Edge 63, Type (0, 0), BuildingBlock: XUDNAN_clean_linker_2, # of connection points: 2
#     Edge 64, Type (0, 0), BuildingBlock: XUDNAN_clean_linker_2, # of connection points: 2
#     Edge 65, Type (0, 0), BuildingBlock: XUDNAN_clean_linker_2, # of connection points: 2
#     Edge 66, Type (0, 0), BuildingBlock: XUDNAN_clean_linker_2, # of connection points: 2
#     Edge 67, Type (0, 0), BuildingBlock: XUDNAN_clean_linker_2, # of connection points: 2
#     Edge 68, Type (0, 0), BuildingBlock: XUDNAN_clean_linker_2, # of connection points: 2
#     Edge 69, Type (0, 0), BuildingBlock: XUDNAN_clean_linker_2, # of connection points: 2
#     Edge 70, Type (0, 0), BuildingBlock: XUDNAN_clean_linker_2, # of connection points: 2
#     Edge 71, Type (0, 0), BuildingBlock: XUDNAN_clean_linker_2, # of connection points: 2
#     Edge 72, Type (0, 0), BuildingBlock: XUDNAN_clean_linker_2, # of connection points: 2
#     Edge 73, Type (0, 0), BuildingBlock: XUDNAN_clean_linker_2, # of connection points: 2
#     Edge 74, Type (0, 0), BuildingBlock: XUDNAN_clean_linker_2, # of connection points: 2
#     Edge 75, Type (0, 0), BuildingBlock: XUDNAN_clean_linker_2, # of connection points: 2
#     Edge 76, Type (0, 0), BuildingBlock: XUDNAN_clean_linker_2, # of connection points: 2
#     Edge 77, Type (0, 0), BuildingBlock: XUDNAN_clean_linker_2, # of connection points: 2
#     Edge 78, Type (0, 0), BuildingBlock: XUDNAN_clean_linker_2, # of connection points: 2
#     Edge 79, Type (0, 0), BuildingBlock: XUDNAN_clean_linker_2, # of connection points: 2
#     Edge 80, Type (0, 0), BuildingBlock: XUDNAN_clean_linker_2, # of connection points: 2
#     Edge 81, Type (0, 0), BuildingBlock: XUDNAN_clean_linker_2, # of connection points: 2
#     Edge 82, Type (0, 0), BuildingBlock: XUDNAN_clean_linker_2, # of connection points: 2
#     Edge 83, Type (0, 0), BuildingBlock: XUDNAN_clean_linker_2, # of connection points: 2
#     Edge 84, Type (0, 0), BuildingBlock: XUDNAN_clean_linker_2, # of connection points: 2
#     Edge 85, Type (0, 0), BuildingBlock: XUDNAN_clean_linker_2, # of connection points: 2
#     Edge 86, Type (0, 0), BuildingBlock: XUDNAN_clean_linker_2, # of connection points: 2
#     Edge 87, Type (0, 0), BuildingBlock: XUDNAN_clean_linker_2, # of connection points: 2
#     Edge 88, Type (0, 0), BuildingBlock: XUDNAN_clean_linker_2, # of connection points: 2
#     Edge 89, Type (0, 0), BuildingBlock: XUDNAN_clean_linker_2, # of connection points: 2
#     Edge 90, Type (0, 0), BuildingBlock: XUDNAN_clean_linker_2, # of connection points: 2
#     Edge 91, Type (0, 0), BuildingBlock: XUDNAN_clean_linker_2, # of connection points: 2
#     Edge 92, Type (0, 0), BuildingBlock: XUDNAN_clean_linker_2, # of connection points: 2
#     Edge 93, Type (0, 0), BuildingBlock: XUDNAN_clean_linker_2, # of connection points: 2
#     Edge 94, Type (0, 0), BuildingBlock: XUDNAN_clean_linker_2, # of connection points: 2
#     Edge 95, Type (0, 0), BuildingBlock: XUDNAN_clean_linker_2, # of connection points: 2
#     Edge 96, Type (0, 0), BuildingBlock: XUDNAN_clean_linker_2, # of connection points: 2
#     Edge 97, Type (0, 0), BuildingBlock: XUDNAN_clean_linker_2, # of connection points: 2
#     Edge 98, Type (0, 0), BuildingBlock: XUDNAN_clean_linker_2, # of connection points: 2
#     Edge 99, Type (0, 0), BuildingBlock: XUDNAN_clean_linker_2, # of connection points: 2
#     Edge 100, Type (0, 0), BuildingBlock: XUDNAN_clean_linker_2, # of connection points: 2
#     Edge 101, Type (0, 0), BuildingBlock: XUDNAN_clean_linker_2, # of connection points: 2
#     Edge 102, Type (0, 0), BuildingBlock: XUDNAN_clean_linker_2, # of connection points: 2
#     Edge 103, Type (0, 0), BuildingBlock: XUDNAN_clean_linker_2, # of connection points: 2
#     Edge 104, Type (0, 0), BuildingBlock: XUDNAN_clean_linker_2, # of connection points: 2
#     Edge 105, Type (0, 0), BuildingBlock: XUDNAN_clean_linker_2, # of connection points: 2
#     Edge 106, Type (0, 0), BuildingBlock: XUDNAN_clean_linker_2, # of connection points: 2
#     Edge 107, Type (0, 0), BuildingBlock: XUDNAN_clean_linker_2, # of connection points: 2
#     Edge 108, Type (0, 0), BuildingBlock: XUDNAN_clean_linker_2, # of connection points: 2
#     Edge 109, Type (0, 0), BuildingBlock: XUDNAN_clean_linker_2, # of connection points: 2
#     Edge 110, Type (0, 0), BuildingBlock: XUDNAN_clean_linker_2, # of connection points: 2
#     Edge 111, Type (0, 0), BuildingBlock: XUDNAN_clean_linker_2, # of connection points: 2
#     Edge 112, Type (0, 0), BuildingBlock: XUDNAN_clean_linker_2, # of connection points: 2
#     Edge 113, Type (0, 0), BuildingBlock: XUDNAN_clean_linker_2, # of connection points: 2
#     Edge 114, Type (0, 0), BuildingBlock: XUDNAN_clean_linker_2, # of connection points: 2
#     Edge 115, Type (0, 0), BuildingBlock: XUDNAN_clean_linker_2, # of connection points: 2
#     Edge 116, Type (0, 0), BuildingBlock: XUDNAN_clean_linker_2, # of connection points: 2
#     Edge 117, Type (0, 0), BuildingBlock: XUDNAN_clean_linker_2, # of connection points: 2
#     Edge 118, Type (0, 0), BuildingBlock: XUDNAN_clean_linker_2, # of connection points: 2
#     Edge 119, Type (0, 0), BuildingBlock: XUDNAN_clean_linker_2, # of connection points: 2
#     Edge 120, Type (0, 0), BuildingBlock: XUDNAN_clean_linker_2, # of connection points: 2
#     Edge 121, Type (0, 0), BuildingBlock: XUDNAN_clean_linker_2, # of connection points: 2
#     Edge 122, Type (0, 0), BuildingBlock: XUDNAN_clean_linker_2, # of connection points: 2
#     Edge 123, Type (0, 0), BuildingBlock: XUDNAN_clean_linker_2, # of connection points: 2
#     Edge 124, Type (0, 0), BuildingBlock: XUDNAN_clean_linker_2, # of connection points: 2
#     Edge 125, Type (0, 0), BuildingBlock: XUDNAN_clean_linker_2, # of connection points: 2
#     Edge 126, Type (0, 0), BuildingBlock: XUDNAN_clean_linker_2, # of connection points: 2
#     Edge 127, Type (0, 0), BuildingBlock: XUDNAN_clean_linker_2, # of connection points: 2
# Relax obj value: 0.308
# Max RMSD: 0.179
# Mean RMSD: 0.179
data_MOF--net-vcc--node1-PAMTUU_clean_sbu_0--edge1-XUDNAN_clean_linker_2
_symmetry_space_group_name_H-M    P1
_symmetry_Int_Tables_number       1
_symmetry_cell_setting            triclinic
loop_
_symmetry_equiv_pos_as_xyz
'x, y, z'
_cell_length_a     36.184672
_cell_length_b     58.073298
_cell_length_c     54.612598
_cell_angle_alpha  89.913611
_cell_angle_beta   89.958306
_cell_angle_gamma 89.958047
loop_
_atom_site_label
_atom_site_type_symbol
_atom_site_fract_x
_atom_site_fract_y
_atom_site_fract_z
_atom_type_partial_charge
Tb0 Tb 0.34671 -0.00137 0.15317 0.0
Tb1 Tb 0.42561 0.00716 0.13008 0.0
C2 C 0.39194 0.95816 0.1311 0.0
C3 C 0.25754 0.99395 0.18945 0.0
C4 C 0.21837 -0.00165 0.23304 0.0
C5 C 0.21411 0.97849 0.21872 0.0
C6 C 0.23397 0.97624 0.19704 0.0
C7 C 0.25704 0.0152 0.20158 0.0
C8 C 0.23677 0.01755 0.22313 0.0
C9 C 0.2833 0.98937 0.16957 0.0
O10 O 0.38709 -0.00341 0.18615 0.0
O11 O 0.44388 0.00555 0.16957 0.0
O12 O 0.41276 0.04067 0.14684 0.0
O13 O 0.35198 0.0353 0.15751 0.0
O14 O 0.47953 -0.00321 0.12057 0.0
O15 O 0.45631 0.02814 0.10615 0.0
O16 O 0.38657 0.00389 0.09713 0.0
O17 O 0.32925 0.00397 0.11413 0.0
O18 O 0.35991 0.96825 0.13229 0.0
O19 O 0.42215 0.96989 0.13499 0.0
C20 C 0.42379 0.00035 0.18931 0.0
O21 O 0.29067 0.00668 0.15525 0.0
O22 O 0.31276 0.97726 0.17476 0.0
C23 C 0.38116 0.04844 0.15551 0.0
C24 C 0.48341 0.00328 0.078 0.0
C25 C 0.46616 0.99256 1.02885 0.0
C26 C 0.4886 0.01169 1.03449 0.0
C27 C 0.49694 0.01709 1.05891 0.0
C28 C 0.46396 0.9831 0.07223 0.0
C29 C 0.45539 0.97783 1.04805 0.0
C30 C 0.4813 0.01222 0.10321 0.0
C31 C 0.34981 0.00391 0.09413 0.0
H32 H 0.19993 0.96348 0.22586 0.0
H33 H 0.23328 0.96 0.18731 0.0
H34 H 0.27436 0.02931 0.19551 0.0
H35 H 0.24003 0.03311 0.23384 0.0
H36 H 0.49824 0.02313 1.02018 0.0
H37 H 0.5118 0.03282 1.06293 0.0
H38 H 0.45266 0.97225 0.08655 0.0
H39 H 0.43766 0.96315 1.04479 0.0
Tb40 Tb 0.95541 0.2502 0.16141 0.0
Tb41 Tb 0.89099 0.23864 0.12503 0.0
C42 C 0.91254 0.28926 0.13579 0.0
C43 C 0.04854 0.24949 0.18883 0.0
C44 C 0.11854 0.23474 0.20436 0.0
C45 C 0.11399 0.25682 0.19408 0.0
C46 C 0.07893 0.26433 0.18692 0.0
C47 C 0.05457 0.2262 0.19449 0.0
C48 C 0.08934 0.21885 0.20214 0.0
C49 C 1.01078 0.25887 0.18743 0.0
O50 O 0.90692 0.24844 0.18808 0.0
O51 O 0.85911 0.2463 0.16042 0.0
O52 O 0.89621 0.21018 0.15053 0.0
O53 O 0.95742 0.21292 0.15748 0.0
O54 O 0.84499 0.24675 0.10292 0.0
O55 O 0.8668 0.21207 0.10486 0.0
O56 O 0.94085 0.23506 0.09986 0.0
O57 O 0.98443 0.25108 0.12449 0.0
O58 O 0.92477 0.28199 0.15692 0.0
O59 O 0.9042 0.2746 0.11854 0.0
C60 C 0.87046 0.24781 0.18391 0.0
O61 O 1.00253 0.27054 0.1678 0.0
O62 O 0.98409 0.24516 0.19416 0.0
C63 C 0.92689 0.20102 0.15847 0.0
C64 C 0.85173 0.22518 1.06606 0.0
C65 C 0.88039 0.2157 1.01904 0.0
C66 C 0.85486 0.20066 1.03009 0.0
C67 C 0.84077 0.20534 1.0534 0.0
C68 C 0.87528 0.24102 1.05439 0.0
C69 C 0.88929 0.23638 1.03102 0.0
C70 C 0.84584 0.22635 0.09274 0.0
C71 C 0.97495 0.24333 0.10237 0.0
H72 H 0.13631 0.26924 0.19466 0.0
H73 H 0.07509 0.2822 0.18177 0.0
H74 H 1.03186 0.21407 0.19517 0.0
H75 H 0.09163 0.20154 0.20937 0.0
H76 H 0.8469 0.1848 1.02113 0.0
H77 H 0.82314 0.19271 1.06219 0.0
H78 H 0.88485 0.25622 1.06394 0.0
H79 H 0.90895 0.24829 1.02307 0.0
Tb80 Tb 0.3769 0.25512 0.23218 0.0
Tb81 Tb 0.44324 0.23537 0.26224 0.0
C82 C 0.4315 0.28745 0.25655 0.0
C83 C 0.33127 0.29352 0.18949 0.0
C84 C 0.34051 0.32407 0.15002 0.0
C85 C 0.30499 0.31642 0.15675 0.0
C86 C 0.30043 0.30119 0.17637 0.0
C87 C 0.36645 0.30214 0.18371 0.0
C88 C 0.37104 0.31732 0.16416 0.0
C89 C 0.32744 0.27586 0.20849 0.0
O90 O 0.42078 0.25 0.20223 0.0
O91 O 0.4717 0.24454 0.2266 0.0
O92 O 0.42595 0.20832 0.23692 0.0
O93 O 0.36569 0.21847 0.23365 0.0
O94 O 0.49321 0.23871 0.28161 0.0
O95 O 0.46628 0.20579 0.27796 0.0
O96 O 0.39724 0.23321 0.28999 0.0
O97 O 0.35328 0.25511 0.2713 0.0
O98 O 0.41848 0.2815 0.23537 0.0
O99 O 0.43663 0.27147 0.27307 0.0
C100 C 0.4576 0.24766 0.20415 0.0
O101 O 0.33981 0.25548 0.2026 0.0
O102 O 0.33864 0.28215 0.23015 0.0
C103 C 0.3919 0.20312 0.23104 0.0
C104 C 0.48807 0.21463 0.31683 0.0
C105 C 0.45825 0.20733 0.36384 0.0
C106 C 0.46965 0.18857 0.34951 0.0
C107 C 0.48488 0.19221 0.32631 0.0
C108 C 0.47986 0.23343 0.33211 0.0
C109 C 0.46552 0.22979 0.35555 0.0
C110 C 0.4907 0.21769 0.29004 0.0
C111 C 0.365 0.24418 0.29147 0.0
H112 H 0.28102 0.32102 0.14592 0.0
H113 H 0.2731 0.29473 0.18069 0.0
H114 H 0.39059 0.29648 0.19374 0.0
H115 H 0.39866 0.32296 0.15938 0.0
H116 H 0.46495 0.17109 0.35571 0.0
H117 H 0.49102 0.17743 0.31492 0.0
H118 H 0.48171 0.25093 0.32534 0.0
H119 H 0.45702 0.24457 0.36625 0.0
Tb120 Tb 0.97473 0.00125 0.22873 0.0
Tb121 Tb 0.90114 0.00351 0.2595 0.0
C122 C 0.93967 0.95776 0.24915 0.0
C123 C 1.02957 0.99073 0.17467 0.0
C124 C 1.00848 0.98324 0.12585 0.0
C125 C 1.00296 0.96597 0.14341 0.0
C126 C 1.01322 0.96973 0.16774 0.0
C127 C 1.03848 0.00693 0.1565 0.0
C128 C 1.02764 0.00332 0.13229 0.0
C129 C 1.02945 -0.00189 0.2005 0.0
O130 O 0.9305 0.00194 0.19901 0.0
O131 O 0.8773 -0.00269 0.22122 0.0
O132 O 0.90437 0.03696 0.2424 0.0
O133 O 0.96657 0.03789 0.23601 0.0
O134 O 0.85241 0.98674 0.27049 0.0
O135 O 0.86727 0.02008 0.28523 0.0
O136 O 0.94588 0.0095 0.28827 0.0
O137 O 0.99824 -0.001 0.26764 0.0
O138 O 0.95072 0.96692 0.22864 0.0
O139 O 0.92792 0.97105 0.26656 0.0
C140 C 0.89372 -0.00101 0.1993 0.0
O141 O 1.01149 0.0172 0.20438 0.0
O142 O 1.0214 0.98258 0.21694 0.0
C143 C 0.93445 0.04832 0.23693 0.0
C144 C 0.84988 0.9918 0.31339 0.0
C145 C 0.87862 0.98072 0.35983 0.0
C146 C 0.85709 0.00069 0.35654 0.0
C147 C 0.8428 0.00616 0.33348 0.0
C148 C 0.86802 0.97065 0.31733 0.0
C149 C 0.8823 0.96521 0.34033 0.0
C150 C 0.84772 0.00139 0.28841 0.0
C151 C 0.98207 0.00436 0.28895 0.0
H152 H 0.98802 0.95042 0.13876 0.0
H153 H 1.00573 0.95694 0.18131 0.0
H154 H 0.0509 0.02326 0.16139 0.0
H155 H 1.03217 0.01682 0.1189 0.0
H156 H 0.85379 0.01303 0.37123 0.0
H157 H 0.82916 0.0226 0.33088 0.0
H158 H 0.87395 0.95911 0.30228 0.0
H159 H 0.89805 0.94946 0.34247 0.0
Tb160 Tb 0.64568 0.98666 1.0131 0.0
Tb161 Tb 0.71369 0.00101 0.98013 0.0
C162 C 0.69176 0.95011 0.98404 0.0
C163 C 0.58536 0.97952 1.06548 0.0
C164 C 0.58388 0.98184 0.11674 0.0
C165 C 0.55741 0.96865 0.10405 0.0
C166 C 0.55846 0.96729 0.0785 0.0
C167 C 0.60956 0.99421 0.07784 0.0
C168 C 0.60905 -0.00474 0.10319 0.0
C169 C 0.59197 0.97498 1.03963 0.0
O170 O 0.69215 0.98638 1.0417 0.0
O171 O 0.73947 7e-05 1.01802 0.0
O172 O 0.68429 0.03287 0.98583 0.0
O173 O 0.65271 0.02311 1.02053 0.0
O174 O 0.76188 0.02107 0.97613 0.0
O175 O 0.74351 -0.00207 0.9476 0.0
O176 O 0.66769 -0.00173 0.95145 0.0
O177 O 0.61794 0.99433 0.97699 0.0
O178 O 0.65851 0.95709 0.98983 0.0
O179 O 0.71953 0.96431 0.98576 0.0
C180 C 0.72733 0.99341 1.04006 0.0
O181 O 0.59186 0.99316 1.0256 0.0
O182 O 0.62055 0.96182 1.03542 0.0
C183 C 0.66535 0.03858 1.00525 0.0
C184 C 0.80781 0.00217 0.95264 0.0
C185 C 0.87304 0.98757 0.9299 0.0
C186 C 0.86999 0.01025 0.9388 0.0
C187 C 0.83709 0.01765 0.9496 0.0
C188 C 0.81401 0.97859 0.94875 0.0
C189 C 0.84657 0.97129 0.93748 0.0
C190 C 0.77006 0.01117 0.95545 0.0
C191 C 0.631 -0.00319 0.95427 0.0
H192 H 0.53713 0.95849 0.11386 0.0
H193 H 0.53946 0.95597 0.06906 0.0
H194 H 0.63061 0.00371 1.06796 0.0
H195 H 0.63047 0.00525 0.11201 0.0
H196 H 0.89071 0.02302 0.93423 0.0
H197 H 0.83326 0.03583 0.95327 0.0
H198 H 0.79221 0.96613 0.95183 0.0
H199 H 0.84813 0.95353 0.93158 0.0
Tb200 Tb 0.19242 0.76205 1.00669 0.0
Tb201 Tb 0.12145 0.74359 0.97958 0.0
C202 C 0.13945 0.79565 0.9781 0.0
C203 C 0.25205 0.77593 1.05883 0.0
C204 C 0.24789 0.77682 0.11057 0.0
C205 C 0.25197 0.79733 0.097 0.0
C206 C 0.25435 0.79684 0.0715 0.0
C207 C 0.2505 0.75528 0.07226 0.0
C208 C 0.24885 0.75572 0.09787 0.0
C209 C 0.24568 0.77641 1.03209 0.0
O210 O 0.14792 0.76441 1.03619 0.0
O211 O 0.10073 0.74403 1.01893 0.0
O212 O 0.16228 0.71644 0.98112 0.0
O213 O 0.18541 0.72634 1.01767 0.0
O214 O 0.08157 0.74452 0.95165 0.0
O215 O 0.0824 0.71697 0.97827 0.0
O216 O 0.16213 0.74811 0.94826 0.0
O217 O 0.21657 0.75408 0.96882 0.0
O218 O 0.17373 0.79008 0.98311 0.0
O219 O 0.11278 0.78063 0.98116 0.0
C220 C 0.11466 0.7545 1.03856 0.0
O221 O 0.2461 0.75674 1.02048 0.0
O222 O 0.21795 0.78927 1.02525 0.0
C223 C 0.1786 0.71058 1.00136 0.0
C224 C 0.07265 0.707 0.93741 0.0
C225 C 0.0816 0.67955 0.89558 0.0
C226 C 0.04622 0.6872 0.90258 0.0
C227 C 0.04179 0.70096 0.9234 0.0
C228 C 0.10754 0.69809 0.93131 0.0
C229 C 0.11198 0.68445 0.91059 0.0
C230 C 0.06969 0.72393 0.95719 0.0
C231 C 0.19896 0.75051 0.94755 0.0
H232 H 0.25093 0.814 0.10578 0.0
H233 H 0.2555 0.81299 1.06157 0.0
H234 H 0.24888 0.73882 1.06303 0.0
H235 H 0.24692 0.73951 0.1076 0.0
H236 H 1.02245 0.68393 0.89105 0.0
H237 H 1.01471 0.70771 0.92788 0.0
H238 H 0.13172 0.70257 0.94186 0.0
H239 H 0.1395 0.67881 0.90552 0.0
Tb240 Tb 0.63745 0.76142 0.87698 0.0
Tb241 Tb 0.70668 0.74624 0.90751 0.0
C242 C 0.68537 0.7974 0.90456 0.0
C243 C 0.58801 0.76645 0.82099 0.0
C244 C 0.60315 0.75808 0.77094 0.0
C245 C 0.58306 0.77777 0.77814 0.0
C246 C 0.57568 0.78196 0.80302 0.0
C247 C 0.60658 0.7464 0.81366 0.0
C248 C 0.61412 0.7423 0.7891 0.0
C249 C 0.58771 0.77253 0.84722 0.0
O250 O 0.68328 0.76328 0.84885 0.0
O251 O 0.72986 0.74447 0.86845 0.0
O252 O 0.67227 0.71596 0.90557 0.0
O253 O 0.64709 0.72518 0.86902 0.0
O254 O 0.75345 0.72479 0.91099 0.0
O255 O 0.73919 0.74988 0.93875 0.0
O256 O 0.6625 0.75005 0.9375 0.0
O257 O 0.61063 0.75356 0.91363 0.0
O258 O 0.65146 0.79083 0.90009 0.0
O259 O 0.71258 0.78292 0.90135 0.0
C260 C 0.71677 0.75375 0.84779 0.0
O261 O 0.5846 0.75527 0.86249 0.0
O262 O 0.61427 0.78643 0.85368 0.0
C263 C 0.65519 0.7098 0.88566 0.0
C264 C 0.8027 0.74311 0.93202 0.0
C265 C 0.87215 0.75455 0.95114 0.0
C266 C 0.86604 0.73256 0.94107 0.0
C267 C 0.83111 0.72671 0.93213 0.0
C268 C 0.81121 0.76618 0.93716 0.0
C269 C 0.84574 0.77189 0.94665 0.0
C270 C 0.764 0.73539 0.93081 0.0
C271 C 0.62551 0.75126 0.93598 0.0
H272 H 0.57382 0.79019 0.76467 0.0
H273 H 0.56168 0.79769 0.80828 0.0
H274 H 0.61702 0.7343 0.82705 0.0
H275 H 0.63047 0.72727 0.78461 0.0
H276 H 0.88642 0.71903 0.94325 0.0
H277 H 0.82542 0.70892 0.92752 0.0
H278 H 0.79011 0.77941 0.93635 0.0
H279 H 0.8494 0.7892 0.95354 0.0
Tb280 Tb 0.18657 0.98533 0.87219 0.0
Tb281 Tb 0.11536 0.00041 0.90239 0.0
C282 C 0.13748 0.94952 0.90012 0.0
C283 C 0.24746 0.97328 0.81983 0.0
C284 C 0.24697 0.97259 0.76837 0.0
C285 C 0.26233 0.95415 0.78155 0.0
C286 C 0.26264 0.95453 0.80716 0.0
C287 C 0.23469 0.99246 0.80665 0.0
C288 C 0.23462 0.99215 0.78112 0.0
C289 C 0.23951 0.97115 0.84612 0.0
O290 O 0.14164 0.98611 0.84311 0.0
O291 O 0.09169 0.00059 0.86371 0.0
O292 O 0.14493 0.03223 0.89708 0.0
O293 O 0.18396 0.02223 0.86576 0.0
O294 O 0.06645 0.01999 0.90586 0.0
O295 O 0.08527 -0.00264 0.93479 0.0
O296 O 0.16033 -0.00171 0.93212 0.0
O297 O 0.21227 0.99279 0.90876 0.0
O298 O 0.17129 0.95659 0.89613 0.0
O299 O 0.10995 0.96367 0.89663 0.0
C300 C 0.10662 0.99357 0.84264 0.0
O301 O 0.2406 0.99008 0.85892 0.0
O302 O 0.21029 0.95892 0.85124 0.0
C303 C 0.16825 0.03772 0.87975 0.0
C304 C 1.02128 0.00316 0.9319 0.0
C305 C 0.96148 0.98669 0.95942 0.0
C306 C 0.96702 0.01056 0.95641 0.0
C307 C 0.99685 0.01869 0.94281 0.0
C308 C 1.01207 0.97969 0.93104 0.0
C309 C 0.9819 0.97152 0.94451 0.0
C310 C 0.0591 0.01101 0.92717 0.0
C311 C 0.19723 -0.00381 0.93075 0.0
H312 H 0.27126 0.9387 0.77218 0.0
H313 H 0.27236 0.93952 0.81706 0.0
H314 H 0.22266 0.00708 0.81604 0.0
H315 H 0.22275 0.00661 0.77133 0.0
H316 H 0.95178 0.02301 0.96714 0.0
H317 H 1.00325 0.03692 0.9433 0.0
H318 H 1.03031 0.96746 0.92218 0.0
H319 H 0.97746 0.9531 0.94561 0.0
Tb320 Tb 0.35815 0.50254 0.66126 0.0
Tb321 Tb 0.4318 0.49977 0.63118 0.0
C322 C 0.38897 0.45577 0.64194 0.0
C323 C 0.30528 0.49265 0.71596 0.0
C324 C 0.32604 0.47039 0.75979 0.0
C325 C 0.29336 0.46404 0.74742 0.0
C326 C 0.28341 0.47486 0.72548 0.0
C327 C 0.3353 0.5007 0.72958 0.0
C328 C 0.34595 0.48949 0.75092 0.0
C329 C 0.30374 0.49802 0.68975 0.0
O330 O 0.40326 0.49944 0.69047 0.0
O331 O 0.4578 0.49767 0.66915 0.0
O332 O 0.43232 0.53359 0.64859 0.0
O333 O 0.37124 0.53871 0.65738 0.0
O334 O 0.47388 0.48196 0.61234 0.0
O335 O 0.46892 0.51882 0.60973 0.0
O336 O 0.38537 0.49992 0.60197 0.0
O337 O 0.33445 0.51004 0.62422 0.0
O338 O 0.36051 0.46955 0.64261 0.0
O339 O 0.42221 0.4644 0.64224 0.0
C340 C 0.44036 0.49828 0.69077 0.0
O341 O 0.31666 0.51797 0.6829 0.0
O342 O 0.31685 0.48155 0.67624 0.0
C343 C 0.40494 0.54672 0.65589 0.0
C344 C 0.48104 0.49947 0.57322 0.0
C345 C 0.4599 0.50552 0.524 0.0
C346 C 0.48466 0.52094 0.53505 0.0
C347 C 0.4954 0.51782 0.55941 0.0
C348 C 0.45843 0.4831 0.56157 0.0
C349 C 0.44815 0.48604 0.53708 0.0
C350 C 0.48345 0.50038 0.6002 0.0
C351 C 0.34932 0.50549 0.60247 0.0
H352 H 0.27606 0.45019 0.75405 0.0
H353 H 0.26013 0.46832 0.71515 0.0
H354 H 0.35249 0.51449 0.72264 0.0
H355 H 0.37117 0.49517 0.75948 0.0
H356 H 0.49407 0.53606 0.52523 0.0
H357 H 0.51275 0.53068 0.56801 0.0
H358 H 0.44656 0.46891 0.57177 0.0
H359 H 0.42875 0.47407 0.52898 0.0
Tb360 Tb 0.95722 0.75089 0.65639 0.0
Tb361 Tb 0.88533 0.7393 0.627 0.0
C362 C 0.91448 0.79052 0.63117 0.0
C363 C 1.03103 0.73778 0.69885 0.0
C364 C 0.05954 0.70403 0.73074 0.0
C365 C 0.08351 0.71845 0.71739 0.0
C366 C 0.06931 0.73521 0.70153 0.0
C367 C 1.00711 0.72307 0.71165 0.0
C368 C 1.02117 0.70647 0.7275 0.0
C369 C 1.01589 0.75413 0.68101 0.0
O370 O 0.91356 0.74587 0.68691 0.0
O371 O 0.86132 0.74878 0.66366 0.0
O372 O 0.89461 0.70935 0.65081 0.0
O373 O 0.95613 0.71426 0.65048 0.0
O374 O 0.83317 0.74879 0.61334 0.0
O375 O 0.85645 0.71531 0.60569 0.0
O376 O 0.93133 0.73458 0.59905 0.0
O377 O 0.97686 0.75574 0.61682 0.0
O378 O 0.93513 0.78464 0.64973 0.0
O379 O 0.89768 0.77511 0.61765 0.0
C380 C 0.87655 0.74795 0.68588 0.0
O381 O 1.01469 0.74637 0.65876 0.0
O382 O 0.98503 0.76418 0.68707 0.0
C383 C 0.9277 0.70143 0.65544 0.0
C384 C 0.82967 0.73482 0.57318 0.0
C385 C 0.84119 0.73489 0.52221 0.0
C386 C 0.81211 0.72197 0.53263 0.0
C387 C 0.80678 0.72167 0.55803 0.0
C388 C 0.85624 0.74934 0.56268 0.0
C389 C 0.86215 0.74927 0.53755 0.0
C390 C 0.83147 0.73047 0.59957 0.0
C391 C 0.96409 0.74505 0.59686 0.0
H392 H 0.11319 0.71691 0.71934 0.0
H393 H 0.08815 0.74607 0.69131 0.0
H394 H 0.97744 0.72438 0.70937 0.0
H395 H 1.00178 0.69606 0.73778 0.0
H396 H 0.79471 0.71117 0.52137 0.0
H397 H 0.78619 0.71031 0.56587 0.0
H398 H 0.87453 0.75944 0.57408 0.0
H399 H 0.88524 0.75916 0.53062 0.0
Tb400 Tb 0.36919 0.74234 0.72611 0.0
Tb401 Tb 0.4403 0.74517 0.75986 0.0
C402 C 0.39496 0.79062 0.7467 0.0
C403 C 0.30355 0.7162 0.68268 0.0
C404 C 0.28388 0.6803 0.65055 0.0
C405 C 0.25756 0.68986 0.66658 0.0
C406 C 0.26731 0.70772 0.68241 0.0
C407 C 0.33038 0.70596 0.66769 0.0
C408 C 0.32058 0.68832 0.65164 0.0
C409 C 0.31332 0.73478 0.6997 0.0
O410 O 0.41653 0.74255 0.69791 0.0
O411 O 0.46607 0.75107 0.72257 0.0
O412 O 0.44437 0.71307 0.73923 0.0
O413 O 0.38315 0.70732 0.73593 0.0
O414 O 0.48497 0.76168 0.77725 0.0
O415 O 0.47393 0.72554 0.78305 0.0
O416 O 0.39363 0.74063 0.78768 0.0
O417 O 0.34383 0.7482 0.76342 0.0
O418 O 0.37179 0.77891 0.73311 0.0
O419 O 0.42296 0.78102 0.75813 0.0
C420 C 0.45265 0.74752 0.70002 0.0
O421 O 0.31608 0.7284 0.72242 0.0
O422 O 0.34027 0.74845 0.69333 0.0
C423 C 0.41667 0.69939 0.7345 0.0
C424 C 0.49153 0.7464 0.8173 0.0
C425 C 0.47909 0.74311 0.86817 0.0
C426 C 0.50823 0.7309 0.85706 0.0
C427 C 0.51419 0.73242 0.83183 0.0
C428 C 0.46386 0.75973 0.82849 0.0
C429 C 0.45775 0.75814 0.85372 0.0
C430 C 0.49215 0.74352 0.79057 0.0
C431 C 0.35744 0.74476 0.78582 0.0
H432 H 0.22921 0.68389 0.6665 0.0
H433 H 0.24645 0.71506 0.69433 0.0
H434 H 0.35878 0.71186 0.66805 0.0
H435 H 0.34155 0.68169 0.63938 0.0
H436 H 0.52551 0.71941 0.86771 0.0
H437 H 0.53528 0.72174 0.8235 0.0
H438 H 0.44545 0.77026 0.81754 0.0
H439 H 0.43469 0.76749 0.86156 0.0
Tb440 Tb 0.97636 0.50386 0.72442 0.0
Tb441 Tb 0.90233 0.50499 0.75468 0.0
C442 C 0.93964 0.45734 0.7406 0.0
C443 C 0.06844 0.52197 0.69864 0.0
C444 C 0.13273 0.5418 0.67918 0.0
C445 C 0.13487 0.52111 0.69258 0.0
C446 C 0.10266 0.51096 0.70173 0.0
C447 C 0.06785 0.5448 0.69008 0.0
C448 C 0.09987 0.55472 0.68053 0.0
C449 C 1.03415 0.50821 0.69922 0.0
O450 O 0.93177 0.50363 0.69499 0.0
O451 O 0.87759 0.49993 0.71647 0.0
O452 O 0.90814 0.53744 0.73454 0.0
O453 O 0.96915 0.53769 0.73993 0.0
O454 O 0.85466 0.49151 0.77169 0.0
O455 O 0.86987 0.52721 0.77589 0.0
O456 O 0.94736 0.50697 0.78464 0.0
O457 O 0.99989 0.50113 0.7623 0.0
O458 O 0.9625 0.46789 0.72581 0.0
O459 O 0.91586 0.46841 0.75444 0.0
C460 C 0.8949 0.50125 0.69477 0.0
O461 O 1.03051 0.49279 0.71643 0.0
O462 O 1.0033 0.51906 0.69474 0.0
C463 C 0.93901 0.54898 0.73518 0.0
C464 C 0.85032 0.50852 0.81118 0.0
C465 C 0.8679 0.51323 0.86126 0.0
C466 C 0.84248 0.52824 0.85004 0.0
C467 C 0.83391 0.52594 0.82521 0.0
C468 C 0.87374 0.49251 0.82275 0.0
C469 C 0.88232 0.49479 0.8476 0.0
C470 C 0.84968 0.51039 0.78427 0.0
C471 C 0.98413 0.50384 0.78412 0.0
H472 H 0.16015 0.5111 0.6926 0.0
H473 H 0.10405 0.49354 0.7088 0.0
H474 H 0.04204 0.5541 0.68814 0.0
H475 H 0.09715 0.57096 0.67094 0.0
H476 H 0.83064 0.54247 0.86018 0.0
H477 H 0.81651 0.53877 0.81656 0.0
H478 H 0.88746 0.4792 0.81225 0.0
H479 H 0.90228 0.48311 0.85565 0.0
Tb480 Tb 0.65323 0.49561 0.50577 0.0
Tb481 Tb 0.7247 0.49236 0.47237 0.0
C482 C 0.6762 0.44964 0.47988 0.0
C483 C 0.59384 0.50264 0.55983 0.0
C484 C 0.59718 0.51227 0.61015 0.0
C485 C 0.57911 0.49238 0.60177 0.0
C486 C 0.57737 0.48764 0.57674 0.0
C487 C 0.60992 0.52321 0.56809 0.0
C488 C 0.61137 0.52804 0.59305 0.0
C489 C 0.5986 0.49515 0.53437 0.0
O490 O 0.69957 0.49199 0.53427 0.0
O491 O 0.74997 0.49786 0.50983 0.0
O492 O 0.72165 0.52904 0.47928 0.0
O493 O 0.67139 0.53107 0.50514 0.0
O494 O 0.77604 0.47642 0.46671 0.0
O495 O 0.75509 0.50136 0.44101 0.0
O496 O 0.67789 0.49202 0.44388 0.0
O497 O 0.62898 0.50219 0.46821 0.0
O498 O 0.64912 0.46353 0.48546 0.0
O499 O 0.71008 0.45703 0.48083 0.0
C500 C 0.73608 0.49539 0.53236 0.0
O501 O 0.60443 0.5113 0.51816 0.0
O502 O 0.62106 0.47777 0.5315 0.0
C503 C 0.69879 0.54069 0.4932 0.0
C504 C 0.78331 0.4678 0.42492 0.0
C505 C 0.78177 0.43269 0.38931 0.0
C506 C 0.76716 0.45464 0.3842 0.0
C507 C 0.76791 0.47197 0.40176 0.0
C508 C 0.79967 0.44624 0.42966 0.0
C509 C 0.79903 0.42886 0.41197 0.0
C510 C 0.77904 0.48491 0.44472 0.0
C511 C 0.64214 0.49788 0.44578 0.0
H512 H 0.5677 0.48006 0.61462 0.0
H513 H 0.56482 0.4717 0.57069 0.0
H514 H 0.62318 0.53497 0.55541 0.0
H515 H 0.62586 0.54335 0.59903 0.0
H516 H 0.75509 0.45852 0.36652 0.0
H517 H 0.75555 0.48845 0.39732 0.0
H518 H 0.81205 0.44258 0.4473 0.0
H519 H 0.81124 0.41231 0.41622 0.0
Tb520 Tb 0.18569 0.2601 0.51034 0.0
Tb521 Tb 0.11973 0.2436 0.47725 0.0
C522 C 0.13967 0.29558 0.47918 0.0
C523 C 0.22886 0.27213 0.56848 0.0
C524 C 0.20645 0.27376 0.61781 0.0
C525 C 0.22785 0.29166 0.60774 0.0
C526 C 0.23894 0.29084 0.58321 0.0
C527 C 0.20969 0.25355 0.57897 0.0
C528 C 0.19865 0.25434 0.6034 0.0
C529 C 0.23152 0.27397 0.5417 0.0
O530 O 0.13782 0.25565 0.5378 0.0
O531 O 0.08882 0.24693 0.51299 0.0
O532 O 0.13318 0.21435 0.50012 0.0
O533 O 0.1931 0.2232 0.5079 0.0
O534 O 0.07139 0.24882 0.45657 0.0
O535 O 0.09845 0.21577 0.4573 0.0
O536 O 0.16815 0.24611 0.45014 0.0
O537 O 0.21681 0.25609 0.47471 0.0
O538 O 0.17251 0.28978 0.48718 0.0
O539 O 0.11287 0.28054 0.47861 0.0
C540 C 0.10166 0.25108 0.53548 0.0
O541 O 0.23512 0.25468 0.52976 0.0
O542 O 0.20633 0.28708 0.53189 0.0
C543 C 0.16639 0.20815 0.50665 0.0
C544 C 0.08028 0.22929 0.41928 0.0
C545 C 0.10644 0.22529 0.37093 0.0
C546 C 0.08322 0.20827 0.38096 0.0
C547 C 0.07038 0.21021 0.40505 0.0
C548 C 0.1021 0.24674 0.40893 0.0
C549 C 0.11509 0.24474 0.38507 0.0
C550 C 0.07487 0.22886 0.44589 0.0
C551 C 0.20424 0.25072 0.45244 0.0
H552 H 0.23468 0.30669 0.61854 0.0
H553 H 0.25344 0.30542 0.57538 0.0
H554 H 0.20107 0.23906 0.56789 0.0
H555 H 0.18185 0.2404 0.61048 0.0
H556 H 0.07552 0.19326 0.37039 0.0
H557 H 0.05413 0.19638 0.41289 0.0
H558 H 0.11084 0.2614 0.41972 0.0
H559 H 0.13326 0.25805 0.37813 0.0
Tb560 Tb 0.62107 0.25721 0.3707 0.0
Tb561 Tb 0.69193 0.24749 0.40276 0.0
C562 C 0.6618 0.29775 0.39901 0.0
C563 C 0.56536 0.2562 0.31675 0.0
C564 C 0.58167 0.24688 0.26738 0.0
C565 C 0.56533 0.26795 0.27406 0.0
C566 C 0.55724 0.27257 0.29862 0.0
C567 C 0.57914 0.23455 0.30981 0.0
C568 C 0.58715 0.22994 0.2854 0.0
C569 C 0.56744 0.26329 0.34252 0.0
O570 O 0.66581 0.25899 0.34175 0.0
O571 O 0.7168 0.24886 0.36396 0.0
O572 O 0.65852 0.21651 0.4007 0.0
O573 O 0.6387 0.22252 0.36244 0.0
O574 O 0.72843 0.252 0.43228 0.0
O575 O 0.73671 0.22476 0.40603 0.0
O576 O 0.64775 0.24921 0.43272 0.0
O577 O 0.59607 0.25119 0.40848 0.0
O578 O 0.63156 0.2892 0.38954 0.0
O579 O 0.69158 0.2851 0.40197 0.0
C580 C 0.70177 0.25382 0.34215 0.0
O581 O 0.56857 0.24669 0.35875 0.0
O582 O 0.59241 0.27902 0.34672 0.0
C583 C 0.64749 0.20829 0.37983 0.0
C584 C 0.74426 0.21555 0.44721 0.0
C585 C 0.73839 0.18631 0.48793 0.0
C586 C 0.7728 0.19582 0.48139 0.0
C587 C 0.77569 0.21044 0.4611 0.0
C588 C 0.71049 0.20491 0.45287 0.0
C589 C 0.70758 0.19036 0.47302 0.0
C590 C 0.74547 0.2327 0.42754 0.0
C591 C 0.61083 0.24981 0.43098 0.0
H592 H 0.5603 0.28121 0.2605 0.0
H593 H 0.54689 0.28944 0.30362 0.0
H594 H 0.58613 0.22165 0.32338 0.0
H595 H 0.60017 0.21367 0.28101 0.0
H596 H 0.79683 0.19323 0.49289 0.0
H597 H 0.80196 0.21847 0.45689 0.0
H598 H 0.68591 0.20863 0.44238 0.0
H599 H 0.68078 0.18333 0.47778 0.0
Tb600 Tb 0.17806 0.49178 0.38301 0.0
Tb601 Tb 0.1075 0.50571 0.41245 0.0
C602 C 0.13332 0.45393 0.41262 0.0
C603 C 0.22897 0.48771 0.32662 0.0
C604 C 0.21118 0.48805 0.27653 0.0
C605 C 0.23728 0.47228 0.28578 0.0
C606 C 0.24602 0.47207 0.31072 0.0
C607 C 0.20533 0.50468 0.31706 0.0
C608 C 0.19655 0.50487 0.29222 0.0
C609 C 0.22933 0.48349 0.35311 0.0
O610 O 0.13176 0.494 0.35357 0.0
O611 O 0.0794 0.49855 0.37664 0.0
O612 O 0.11798 0.53269 0.38616 0.0
O613 O 0.17961 0.52892 0.38842 0.0
O614 O 0.0591 0.50028 0.43314 0.0
O615 O 0.08263 0.5342 0.4293 0.0
O616 O 0.1549 0.50831 0.43989 0.0
O617 O 0.20462 0.49222 0.42069 0.0
O618 O 0.16482 0.45996 0.40255 0.0
O619 O 0.10616 0.4686 0.41543 0.0
C620 C 0.09463 0.49577 0.3546 0.0
O621 O 0.22848 0.50172 0.36697 0.0
O622 O 0.20543 0.46814 0.36029 0.0
C623 C 0.15069 0.54154 0.38376 0.0
C624 C 0.06712 0.52297 0.4686 0.0
C625 C 0.10045 0.53261 0.51414 0.0
C626 C 0.07568 0.54841 0.5034 0.0
C627 C 0.05937 0.54368 0.48072 0.0
C628 C 0.08954 0.50649 0.48015 0.0
C629 C 0.10607 0.51126 0.50257 0.0
C630 C 0.06076 0.52109 0.44212 0.0
C631 C 0.18998 0.50101 0.44105 0.0
H632 H 0.24944 0.45935 0.27398 0.0
H633 H 0.26416 0.4588 0.31781 0.0
H634 H 0.19149 0.51678 0.32906 0.0
H635 H 0.17616 0.51711 0.28573 0.0
H636 H 0.06966 0.56472 0.51209 0.0
H637 H 0.04259 0.55677 0.47196 0.0
H638 H 0.09676 0.49056 0.471 0.0
H639 H 0.12521 0.49869 0.50988 0.0
Tb640 Tb 0.8616 0.9935 0.65607 0.0
Tb641 Tb 0.92912 0.00988 0.62353 0.0
C642 C 0.90968 0.95897 0.62937 0.0
C643 C 0.81686 0.97759 0.71095 0.0
C644 C 0.84208 0.97317 0.75958 0.0
C645 C 0.82189 0.95526 0.74851 0.0
C646 C 0.80957 0.95742 0.72427 0.0
C647 C 0.83567 -0.00425 0.7224 0.0
C648 C 0.84839 0.9935 0.74624 0.0
C649 C 0.8127 0.9781 0.68417 0.0
O650 O 0.90535 -0.00162 0.68574 0.0
O651 O 0.95551 0.00264 0.66062 0.0
O652 O 0.9145 0.0419 0.64223 0.0
O653 O 0.86425 0.0297 0.66468 0.0
O654 O 0.98337 0.00153 0.61328 0.0
O655 O 0.95587 0.03129 0.59797 0.0
O656 O 0.88281 0.01167 0.59592 0.0
O657 O 0.83578 0.99468 0.61742 0.0
O658 O 0.89896 0.96492 0.65112 0.0
O659 O 0.91432 0.97493 0.61294 0.0
C660 C 0.94199 0.00025 0.68334 0.0
O661 O 0.81087 -0.00151 0.67419 0.0
O662 O 0.83596 0.96493 0.67261 0.0
C663 C 0.88796 0.0456 0.6582 0.0
C664 C 0.9904 0.00833 0.57109 0.0
C665 C 0.98973 0.99471 0.52182 0.0
C666 C 1.00533 0.01591 0.52847 0.0
C667 C 1.00558 0.02273 0.55306 0.0
C668 C 0.97708 0.98648 0.56444 0.0
C669 C 0.97663 0.97978 0.53998 0.0
C670 C 0.98367 0.01706 0.59597 0.0
C671 C 0.84844 0.00331 0.59615 0.0
H672 H 0.81614 0.93949 0.75838 0.0
H673 H 0.79579 0.94301 0.71562 0.0
H674 H 0.84255 0.01133 0.71247 0.0
H675 H 0.86453 0.00747 0.75382 0.0
H676 H 1.01517 0.02773 0.51455 0.0
H677 H 1.0158 0.03967 0.55782 0.0
H678 H 0.96513 0.97502 0.57793 0.0
H679 H 0.96418 0.96346 0.53509 0.0
Tb680 Tb 0.44728 0.24913 0.65338 0.0
Tb681 Tb 0.37547 0.23587 0.62469 0.0
C682 C 0.39415 0.2864 0.6349 0.0
C683 C 0.50344 0.2706 0.70351 0.0
C684 C 0.49565 0.29484 0.74792 0.0
C685 C 0.5281 0.29698 0.7337 0.0
C686 C 0.53157 0.28531 0.71143 0.0
C687 C 0.47255 0.26702 0.71843 0.0
C688 C 0.46811 0.27944 0.73994 0.0
C689 C 0.50187 0.26323 0.67794 0.0
O690 O 0.40179 0.25325 0.68255 0.0
O691 O 0.35553 0.23305 0.66385 0.0
O692 O 0.40497 0.20344 0.6305 0.0
O693 O 0.43539 0.21401 0.66503 0.0
O694 O 0.33021 0.24754 0.60423 0.0
O695 O 0.33824 0.21138 0.61038 0.0
O696 O 0.41694 0.24439 0.59472 0.0
O697 O 0.47101 0.2403 0.61564 0.0
O698 O 0.42832 0.27947 0.63401 0.0
O699 O 0.36795 0.27114 0.63701 0.0
C700 C 0.3685 0.24316 0.6841 0.0
O701 O 0.49532 0.24151 0.67379 0.0
O702 O 0.48082 0.27638 0.66469 0.0
C703 C 0.42173 0.19793 0.65098 0.0
C704 C 0.31769 0.2229 0.57093 0.0
C705 C 0.32599 0.21495 0.52032 0.0
C706 C 0.31962 0.19645 0.53638 0.0
C707 C 0.31556 0.2004 0.56153 0.0
C708 C 0.32058 0.24147 0.55445 0.0
C709 C 0.32492 0.23751 0.52945 0.0
C710 C 0.32057 0.22688 0.59766 0.0
C711 C 0.45382 0.24269 0.59407 0.0
H712 H 0.55067 0.3079 0.73942 0.0
H713 H 0.55555 0.28841 0.7 0.0
H714 H 0.45077 0.25552 0.71281 0.0
H715 H 0.44233 0.27735 0.7497 0.0
H716 H 0.32021 0.17889 0.52974 0.0
H717 H 0.31273 0.18579 0.57374 0.0
H718 H 0.3214 0.25909 0.56091 0.0
H719 H 0.32909 0.25208 0.51734 0.0
Tb720 Tb 0.86113 0.25099 0.72829 0.0
Tb721 Tb 0.93403 0.23722 0.75587 0.0
C722 C 0.91503 0.28896 0.74584 0.0
C723 C 0.78689 0.24332 0.68519 0.0
C724 C 0.76148 0.21074 0.65118 0.0
C725 C 0.7363 0.22262 0.6662 0.0
C726 C 0.749 0.23875 0.6832 0.0
C727 C 0.81196 0.23183 0.6699 0.0
C728 C 0.79937 0.21577 0.653 0.0
C729 C 0.80089 0.25619 0.70618 0.0
O730 O 0.90396 0.25341 0.69776 0.0
O731 O 0.95517 0.23791 0.71636 0.0
O732 O 0.89958 0.20671 0.75298 0.0
O733 O 0.87567 0.21639 0.71658 0.0
O734 O 0.97539 0.24427 0.78165 0.0
O735 O 0.97421 0.21178 0.76258 0.0
O736 O 0.89443 0.24455 0.78734 0.0
O737 O 0.83952 0.24571 0.7671 0.0
O738 O 0.88016 0.28332 0.74355 0.0
O739 O 0.94098 0.27321 0.74637 0.0
C740 C 0.93918 0.24626 0.69606 0.0
O741 O 0.80493 0.24333 0.72553 0.0
O742 O 0.82962 0.26938 0.70242 0.0
C743 C 0.88581 0.20052 0.73197 0.0
C744 C 0.98637 0.21136 0.80482 0.0
C745 C 0.98016 0.19841 0.85412 0.0
C746 C 0.94866 0.19944 0.83927 0.0
C747 C 0.95176 0.20574 0.81476 0.0
C748 C 1.01823 0.20854 0.81908 0.0
C749 C 1.01517 0.20219 0.84378 0.0
C750 C 0.98779 0.22319 0.78107 0.0
C751 C 0.85751 0.24535 0.78836 0.0
H752 H 0.70695 0.21912 0.66513 0.0
H753 H 0.72943 0.24702 0.69537 0.0
H754 H 0.84143 0.23473 0.67155 0.0
H755 H 0.8194 0.20739 0.64125 0.0
H756 H 0.92143 0.19661 0.847 0.0
H757 H 0.92687 0.20747 0.80394 0.0
H758 H 0.04512 0.21228 0.81142 0.0
H759 H 1.03975 0.20145 0.85506 0.0
Tb760 Tb 0.45632 0.99292 0.73899 0.0
Tb761 Tb 0.38577 0.01103 0.76626 0.0
C762 C 0.40171 0.95873 0.76237 0.0
C763 C 0.54133 0.97748 0.70101 0.0
C764 C 0.59223 0.98033 0.66244 0.0
C765 C 0.56056 0.96647 0.66026 0.0
C766 C 0.53528 0.96501 0.67944 0.0
C767 C 0.57413 0.99021 0.7037 0.0
C768 C 0.59925 0.99179 0.68448 0.0
C769 C 0.51509 0.97644 0.72147 0.0
O770 O 0.41179 0.99131 0.70858 0.0
O771 O 0.36392 0.01021 0.72778 0.0
O772 O 0.40697 0.04251 0.74874 0.0
O773 O 0.45094 0.02699 0.72323 0.0
O774 O 0.3305 0.00729 0.77766 0.0
O775 O 0.36409 0.03496 0.79135 0.0
O776 O 0.42625 0.00222 0.79669 0.0
O777 O 0.47992 0.00371 0.77568 0.0
O778 O 0.43633 0.96458 0.76103 0.0
O779 O 0.37614 0.97448 0.76041 0.0
C780 C 0.37735 0.00027 0.70758 0.0
O781 O 0.51337 0.99481 0.73508 0.0
O782 O 0.48255 0.96722 0.718 0.0
C783 C 0.43051 0.04438 0.73042 0.0
C784 C 0.32985 0.01428 0.82012 0.0
C785 C 0.3401 0.00155 0.86958 0.0
C786 C 0.32412 0.02296 0.8635 0.0
C787 C 0.31921 0.02932 0.83892 0.0
C788 C 0.34313 0.99229 0.82621 0.0
C789 C 0.34822 0.98602 0.85058 0.0
C790 C 0.33443 0.02266 0.79482 0.0
C791 C 0.46304 0.00286 0.79723 0.0
H792 H 0.55425 0.95777 0.64323 0.0
H793 H 0.51069 0.95461 0.67713 0.0
H794 H 0.58003 -0.00061 0.72051 0.0
H795 H 0.62345 0.00259 0.68647 0.0
H796 H 0.3169 0.0352 0.87766 0.0
H797 H 0.30913 0.04642 0.83462 0.0
H798 H 0.35207 0.98044 0.81209 0.0
H799 H 0.36111 0.96955 0.85431 0.0
Tb800 Tb 0.14538 0.99281 0.51191 0.0
Tb801 Tb 0.22079 -0.00429 0.48388 0.0
C802 C 0.18254 0.94886 0.48962 0.0
C803 C 0.09345 0.97606 0.5634 0.0
C804 C 0.12737 0.96432 0.6081 0.0
C805 C 0.12969 0.94936 0.58802 0.0
C806 C 0.11281 0.95513 0.56588 0.0
C807 C 0.08749 0.98961 0.58426 0.0
C808 C 0.10445 0.98387 0.6064 0.0
C809 C 0.0905 0.98694 0.53907 0.0
O810 O 0.18592 -0.00303 0.54308 0.0
O811 O 0.23991 0.98973 0.52331 0.0
O812 O 0.21372 0.02895 0.50045 0.0
O813 O 0.15102 0.02914 0.50232 0.0
O814 O 0.27396 0.98193 0.48192 0.0
O815 O 0.25811 0.01103 0.45931 0.0
O816 O 0.17841 0.00017 0.45218 0.0
O817 O 0.12414 0.99458 0.47324 0.0
O818 O 0.16685 0.95752 0.5092 0.0
O819 O 0.19983 0.96231 0.47446 0.0
C820 C 0.22226 0.99355 0.54436 0.0
O821 O 0.10791 0.00651 0.53739 0.0
O822 O 0.09741 0.9738 0.52024 0.0
C823 C 0.18269 0.04004 0.50314 0.0
C824 C 0.29633 0.9829 0.4418 0.0
C825 C 0.29873 0.96386 0.395 0.0
C826 C 0.31226 0.98629 0.39917 0.0
C827 C 0.31103 -0.00427 0.42249 0.0
C828 C 0.28841 0.9594 0.43842 0.0
C829 C 0.28983 0.94988 0.41508 0.0
C830 C 0.28292 -0.00494 0.46347 0.0
C831 C 0.14117 -0.00194 0.45185 0.0
H832 H 0.14631 0.93387 0.58897 0.0
H833 H 0.11791 0.94418 0.5502 0.0
H834 H 0.0731 0.00592 0.58282 0.0
H835 H 0.10206 -0.00417 0.62151 0.0
H836 H 0.31944 -0.00237 0.38415 0.0
H837 H 0.3178 0.01377 0.4249 0.0
H838 H 0.27791 0.94891 0.45328 0.0
H839 H 0.28025 0.93239 0.41242 0.0
Tb840 Tb 0.68938 0.76167 0.50478 0.0
Tb841 Tb 0.61653 0.7437 0.4792 0.0
C842 C 0.63504 0.79581 0.47881 0.0
C843 C 0.73991 0.7696 0.55944 0.0
C844 C 0.7237 0.75978 0.60908 0.0
C845 C 0.74102 0.78065 0.60241 0.0
C846 C 0.74879 0.78558 0.57774 0.0
C847 C 0.72507 0.74823 0.56627 0.0
C848 C 0.71703 0.7434 0.59063 0.0
C849 C 0.73814 0.77636 0.53343 0.0
O850 O 0.64749 0.75632 0.53591 0.0
O851 O 0.59284 0.74823 0.51714 0.0
O852 O 0.64256 0.71214 0.49118 0.0
O853 O 0.69922 0.72492 0.50416 0.0
O854 O 0.56872 0.72306 0.47799 0.0
O855 O 0.58536 0.74376 0.44703 0.0
O856 O 0.66023 0.74407 0.44866 0.0
O857 O 0.71282 0.75857 0.46638 0.0
O858 O 0.66973 0.79033 0.48242 0.0
O859 O 0.60896 0.78063 0.48261 0.0
C860 C 0.61109 0.75224 0.53776 0.0
O861 O 0.74415 0.7599 0.51767 0.0
O862 O 0.70864 0.78812 0.52775 0.0
C863 C 0.67605 0.70831 0.49918 0.0
C864 C 0.52192 0.73789 0.45235 0.0
C865 C 0.45872 0.75522 0.42919 0.0
C866 C 0.46609 0.73137 0.42921 0.0
C867 C 0.49768 0.72283 0.4406 0.0
C868 C 0.51158 0.76092 0.45596 0.0
C869 C 0.47976 0.7695 0.44465 0.0
C870 C 0.56004 0.73036 0.45623 0.0
C871 C 0.69577 0.75064 0.44641 0.0
H872 H 0.74735 0.79353 0.61607 0.0
H873 H 0.75985 0.8023 0.57286 0.0
H874 H 0.71725 0.73569 0.55256 0.0
H875 H 0.70301 0.72736 0.59452 0.0
H876 H 0.45058 0.71966 0.41775 0.0
H877 H 0.50509 0.70491 0.43799 0.0
H878 H 0.52982 0.7727 0.46544 0.0
H879 H 0.47426 0.78782 0.44555 0.0
Tb880 Tb 0.14244 0.75972 0.37688 0.0
Tb881 Tb 0.20961 0.74702 0.41161 0.0
C882 C 0.18133 0.79657 0.41086 0.0
C883 C 0.09733 0.77044 0.31915 0.0
C884 C 0.12279 0.77438 0.27044 0.0
C885 C 0.10146 0.792 0.28104 0.0
C886 C 0.08872 0.79 0.30516 0.0
C887 C 0.11621 0.75207 0.30793 0.0
C888 C 0.12861 0.75397 0.28372 0.0
C889 C 0.09462 0.7717 0.34611 0.0
O890 O 0.19049 0.76145 0.34999 0.0
O891 O 0.23802 0.7499 0.3746 0.0
O892 O 0.17783 0.71586 0.40571 0.0
O893 O 0.15545 0.72443 0.36817 0.0
O894 O 0.24109 0.74917 0.44387 0.0
O895 O 0.25549 0.72527 0.41523 0.0
O896 O 0.16268 0.7501 0.43928 0.0
O897 O 0.1134 0.74992 0.41272 0.0
O898 O 0.15033 0.78815 0.40237 0.0
O899 O 0.21173 0.78439 0.41013 0.0
C900 C 0.22594 0.75556 0.35229 0.0
O901 O 0.09302 0.75219 0.35813 0.0
O902 O 0.11832 0.78591 0.35589 0.0
C903 C 0.16498 0.70926 0.38456 0.0
C904 C 0.25929 0.71188 0.45524 0.0
C905 C 0.255 0.67587 0.48954 0.0
C906 C 0.28901 0.68676 0.48465 0.0
C907 C 0.29112 0.70466 0.46756 0.0
C908 C 0.22572 0.70037 0.45924 0.0
C909 C 0.2236 0.68245 0.47617 0.0
C910 C 0.26068 0.73115 0.43794 0.0
C911 C 0.12608 0.74938 0.43593 0.0
H912 H 0.09643 0.80787 0.27113 0.0
H913 H 0.07462 0.80449 0.31347 0.0
H914 H 0.12382 0.73692 0.31838 0.0
H915 H 0.14528 0.74022 0.27611 0.0
H916 H 0.31355 0.68235 0.49499 0.0
H917 H 0.31729 0.71324 0.46446 0.0
H918 H 0.20089 0.70563 0.44972 0.0
H919 H 0.19711 0.67435 0.47953 0.0
Tb920 Tb 0.665 0.98883 0.37861 0.0
Tb921 Tb 0.59822 0.00391 0.41129 0.0
C922 C 0.61868 0.95221 0.40811 0.0
C923 C 0.7223 0.98194 0.3251 0.0
C924 C 0.70561 0.98003 0.27512 0.0
C925 C 0.72887 0.96335 0.28571 0.0
C926 C 0.73712 0.9643 0.31066 0.0
C927 C 0.70277 1e-05 0.31395 0.0
C928 C 0.69454 -0.00091 0.2891 0.0
C929 C 0.71849 0.97842 0.35149 0.0
O930 O 0.61855 0.98747 0.35013 0.0
O931 O 0.57196 0.00264 0.37337 0.0
O932 O 0.63533 0.0329 0.40697 0.0
O933 O 0.65119 0.02389 0.36855 0.0
O934 O 0.55853 -0.00013 0.43885 0.0
O935 O 0.55976 0.0306 0.41649 0.0
O936 O 0.64267 -0.00082 0.4408 0.0
O937 O 0.69251 -0.00275 0.41508 0.0
O938 O 0.65147 0.95862 0.4006 0.0
O939 O 0.59122 0.96688 0.40849 0.0
C940 C 0.58368 -0.00484 0.35152 0.0
O941 O 0.71766 -0.00299 0.36492 0.0
O942 O 0.69205 0.96411 0.35727 0.0
C943 C 0.64593 0.03945 0.3853 0.0
C944 C 0.54993 0.03456 0.45873 0.0
C945 C 0.57322 0.03946 0.50688 0.0
C946 C 0.59544 0.04785 0.48792 0.0
C947 C 0.58374 0.04548 0.46378 0.0
C948 C 0.52512 0.03012 0.47782 0.0
C949 C 0.53675 0.03268 0.50198 0.0
C950 C 0.54685 0.02101 0.43633 0.0
C951 C 0.67949 -0.00143 0.43806 0.0
H952 H 0.73824 0.94868 0.27516 0.0
H953 H 0.75212 0.95018 0.31903 0.0
H954 H 0.69073 0.01371 0.3248 0.0
H955 H 0.67639 0.01212 0.28153 0.0
H956 H 0.62375 0.05295 0.49145 0.0
H957 H 0.6033 0.0491 0.44926 0.0
H958 H 0.499 0.02166 0.47421 0.0
H959 H 0.51941 0.02601 0.51654 0.0
Tb960 Tb 0.85717 0.49283 0.16054 0.0
Tb961 Tb 0.92905 0.50934 0.13276 0.0
C962 C 0.90975 0.45817 0.13869 0.0
C963 C 0.79811 0.45493 0.19742 0.0
C964 C 0.79097 0.41806 0.23059 0.0
C965 C 0.82482 0.42982 0.2281 0.0
C966 C 0.82839 0.44798 0.21157 0.0
C967 C 0.76489 0.44265 0.19882 0.0
C968 C 0.76134 0.42428 0.21524 0.0
C969 C 0.80177 0.4742 0.18027 0.0
O970 O 0.89859 0.49548 0.19178 0.0
O971 O 0.95275 0.50273 0.17111 0.0
O972 O 0.91185 0.53947 0.15353 0.0
O973 O 0.8515 0.52999 0.16163 0.0
O974 O 0.98155 0.50088 0.11878 0.0
O975 O 0.9576 0.53447 0.11265 0.0
O976 O 0.88527 0.51323 0.10329 0.0
O977 O 0.83693 0.49435 0.12092 0.0
O978 O 0.89548 0.46442 0.15944 0.0
O979 O 0.91676 0.47394 0.12236 0.0
C980 C 0.93536 0.49864 0.19241 0.0
O981 O 0.81751 0.49282 0.18868 0.0
O982 O 0.81464 0.46846 0.15888 0.0
C983 C 0.87878 0.54487 0.16155 0.0
C984 C 0.98397 0.51654 0.07894 0.0
C985 C 0.97199 0.51785 1.02787 0.0
C986 C 0.99959 0.53161 1.03876 0.0
C987 C 1.00519 0.53116 1.06415 0.0
C988 C 0.95865 0.5015 1.06793 0.0
C989 C 0.95254 0.50222 1.04276 0.0
C990 C 0.98261 0.5197 0.10563 0.0
C991 C 0.85151 0.50419 0.10106 0.0
H992 H 0.84812 0.42589 0.23982 0.0
H993 H 0.85456 0.45697 0.21028 0.0
H994 H 0.74155 0.44747 0.1875 0.0
H995 H 0.73507 0.41543 0.21647 0.0
H996 H 1.01591 0.5434 1.02784 0.0
H997 H 1.02484 0.54293 0.07232 0.0
H998 H 0.94167 0.49019 0.07899 0.0
H999 H 0.93073 0.49155 1.03539 0.0
Tb1000 Tb 0.46682 0.75445 0.1591 0.0
Tb1001 Tb 0.39327 0.73855 0.13373 0.0
C1002 C 0.4168 0.79038 0.13343 0.0
C1003 C 0.5179 0.76686 0.21375 0.0
C1004 C 0.49399 0.76676 0.26284 0.0
C1005 C 0.50338 0.78755 0.25116 0.0
C1006 C 0.51545 0.78756 0.22687 0.0
C1007 C 0.51169 0.74594 0.22609 0.0
C1008 C 0.50004 0.74591 0.25043 0.0
C1009 C 0.518 0.76765 0.18676 0.0
O1010 O 0.42267 0.75522 0.18939 0.0
O1011 O 0.36964 0.74151 0.17186 0.0
O1012 O 0.40913 0.70842 0.15535 0.0
O1013 O 0.4702 0.71706 0.15949 0.0
O1014 O 0.34022 0.74562 0.11982 0.0
O1015 O 0.36715 0.71326 0.11245 0.0
O1016 O 0.43637 0.74052 0.10278 0.0
O1017 O 0.49051 0.7516 0.12087 0.0
O1018 O 0.45081 0.78389 0.13725 0.0
O1019 O 0.38948 0.77581 0.1356 0.0
C1020 C 0.38688 0.74933 0.19169 0.0
O1021 O 0.5186 0.74795 0.17529 0.0
O1022 O 0.49327 0.78144 0.17752 0.0
C1023 C 0.44283 0.7024 0.1614 0.0
C1024 C 0.3399 0.7318 0.07935 0.0
C1025 C 0.36043 0.73267 1.02965 0.0
C1026 C 0.33696 0.71524 1.0387 0.0
C1027 C 0.32708 0.7147 1.06346 0.0
C1028 C 0.35954 0.75063 0.06976 0.0
C1029 C 0.36969 0.75108 1.04515 0.0
C1030 C 0.34106 0.72745 0.10585 0.0
C1031 C 0.47241 0.74584 0.10055 0.0
H1032 H 0.49904 0.80393 0.26015 0.0
H1033 H 0.51988 0.80391 0.21774 0.0
H1034 H 0.51335 0.72963 0.21655 0.0
H1035 H 0.49418 0.72956 0.25916 0.0
H1036 H 0.32818 0.70121 1.02705 0.0
H1037 H 0.31185 0.70006 0.07051 0.0
H1038 H 0.37001 0.764 0.0817 0.0
H1039 H 0.38773 0.76478 1.03899 0.0
Tb1040 Tb 0.87068 0.75203 0.22357 0.0
Tb1041 Tb 0.93625 0.73986 0.25919 0.0
C1042 C 0.91427 0.7901 0.2504 0.0
C1043 C 0.82511 0.76158 0.16732 0.0
C1044 C 0.85203 0.76464 0.119 0.0
C1045 C 0.82969 0.78226 0.12873 0.0
C1046 C 0.81644 0.78077 0.15278 0.0
C1047 C 0.84588 0.74352 0.15714 0.0
C1048 C 0.85932 0.74508 0.13335 0.0
C1049 C 0.82058 0.76263 0.19405 0.0
O1050 O 0.91563 0.74898 0.19513 0.0
O1051 O 0.9642 0.74505 0.22168 0.0
O1052 O 0.91015 0.70693 0.2507 0.0
O1053 O 0.88408 0.71677 0.21426 0.0
O1054 O 0.98635 0.75037 0.27524 0.0
O1055 O 0.96597 0.71584 0.28016 0.0
O1056 O 0.89108 0.74296 0.28769 0.0
O1057 O 0.84279 0.749 0.26131 0.0
O1058 O 0.9017 0.78346 0.22922 0.0
O1059 O 0.92105 0.77498 0.26744 0.0
C1060 C 0.95189 0.74738 0.19854 0.0
O1061 O 0.82135 0.74295 0.20564 0.0
O1062 O 0.84171 0.77782 0.20457 0.0
C1063 C 0.89542 0.70117 0.2297 0.0
C1064 C 0.9893 0.73405 0.31481 0.0
C1065 C 0.97162 0.73161 0.36492 0.0
C1066 C 0.99552 0.71529 0.35432 0.0
C1067 C 1.00429 0.71651 0.3294 0.0
C1068 C 0.96811 0.75147 0.32585 0.0
C1069 C 0.95946 0.75031 0.35071 0.0
C1070 C 0.98887 0.73146 0.28802 0.0
C1071 C 0.85498 0.74623 0.28443 0.0
H1072 H 0.82312 0.79739 0.11797 0.0
H1073 H 0.8011 0.79509 0.16042 0.0
H1074 H 0.85382 0.72872 0.16803 0.0
H1075 H 0.87691 0.73136 0.12665 0.0
H1076 H 1.00556 0.70082 0.36495 0.0
H1077 H 1.02049 0.70284 0.3212 0.0
H1078 H 0.95581 0.76506 0.31494 0.0
H1079 H 0.94069 0.76299 0.35827 0.0
Tb1080 Tb 0.46991 0.49202 0.2268 0.0
Tb1081 Tb 0.39869 0.50714 0.25577 0.0
C1082 C 0.42057 0.45623 0.25081 0.0
C1083 C 0.51727 0.46097 0.17932 0.0
C1084 C 0.49933 0.43085 0.14071 0.0
C1085 C 0.5237 0.42371 0.15924 0.0
C1086 C 0.5323 0.43863 0.1786 0.0
C1087 C 0.49413 0.46823 0.16017 0.0
C1088 C 0.48513 0.45332 0.1412 0.0
C1089 C 0.52121 0.47544 0.20137 0.0
O1090 O 0.42728 0.4964 0.19652 0.0
O1091 O 0.37338 0.49922 0.21836 0.0
O1092 O 0.4141 0.5367 0.23319 0.0
O1093 O 0.47561 0.52918 0.2306 0.0
O1094 O 0.34662 0.49931 0.27091 0.0
O1095 O 0.37105 0.53304 0.27506 0.0
O1096 O 0.44429 0.51065 0.28431 0.0
O1097 O 0.49232 0.49188 0.26583 0.0
O1098 O 0.43311 0.46279 0.22961 0.0
O1099 O 0.41178 0.47194 0.26682 0.0
C1100 C 0.39024 0.49736 0.1966 0.0
O1101 O 0.50996 0.49676 0.19942 0.0
O1102 O 0.50954 0.46595 0.2216 0.0
C1103 C 0.44784 0.54356 0.22841 0.0
C1104 C 0.34037 0.51826 0.30945 0.0
C1105 C 0.34641 0.5182 0.36108 0.0
C1106 C 0.34396 0.53903 0.34796 0.0
C1107 C 0.34062 0.53903 0.32252 0.0
C1108 C 0.3403 0.49738 0.32252 0.0
C1109 C 0.34305 0.49736 0.3481 0.0
C1110 C 0.34533 0.51896 0.28257 0.0
C1111 C 0.47829 0.50157 0.28596 0.0
H1112 H 0.53541 0.40655 0.15896 0.0
H1113 H 0.54991 0.43257 0.19329 0.0
H1114 H 0.48218 0.48532 0.16006 0.0
H1115 H 0.46715 0.45947 0.12673 0.0
H1116 H 0.34683 0.55547 0.35707 0.0
H1117 H 0.34057 0.55538 0.31291 0.0
H1118 H 0.33976 0.48103 0.31301 0.0
H1119 H 0.3438 0.48099 0.35758 0.0
Tb1120 Tb 0.14711 0.4963 1.00755 0.0
Tb1121 Tb 0.22104 0.49725 0.97684 0.0
C1122 C 0.17599 0.45165 0.98113 0.0
C1123 C 0.09004 0.50035 1.06158 0.0
C1124 C 0.10169 0.49821 0.11241 0.0
C1125 C 0.07169 0.48657 0.10168 0.0
C1126 C 0.06608 0.48752 0.07639 0.0
C1127 C 0.11795 0.51362 0.07249 0.0
C1128 C 0.1237 0.51259 0.09771 0.0
C1129 C 0.09167 0.49566 1.03525 0.0
O1130 O 0.19118 0.48931 1.03693 0.0
O1131 O 0.24097 0.50207 1.01552 0.0
O1132 O 0.20577 0.53335 0.97907 0.0
O1133 O 0.17087 0.53005 1.01365 0.0
O1134 O 0.27844 0.49301 0.9793 0.0
O1135 O 0.25288 0.50162 0.94494 0.0
O1136 O 0.17791 0.4962 0.94681 0.0
O1137 O 0.12476 0.50271 0.96874 0.0
O1138 O 0.14758 0.46381 0.98825 0.0
O1139 O 0.20908 0.46066 0.98037 0.0
C1140 C 0.22682 0.49551 1.03685 0.0
O1141 O 0.09964 0.51305 1.02097 0.0
O1142 O 0.11124 0.47747 1.02995 0.0
C1143 C 0.18949 0.54257 0.99806 0.0
C1144 C 0.30376 0.47602 0.94462 0.0
C1145 C 0.3448 0.4428 0.91901 0.0
C1146 C 0.36263 0.45828 0.9349 0.0
C1147 C 0.34221 0.47495 0.94741 0.0
C1148 C 0.28552 0.45885 0.93131 0.0
C1149 C 0.30587 0.44244 0.91851 0.0
C1150 C 0.28307 0.49496 0.95586 0.0
C1151 C 0.14138 0.49996 0.94691 0.0
H1152 H 0.05389 0.47566 0.11264 0.0
H1153 H 0.04461 0.47702 1.06825 0.0
H1154 H 0.13721 0.52333 1.06133 0.0
H1155 H 0.14726 0.52157 0.10533 0.0
H1156 H 0.39252 0.4588 0.93593 0.0
H1157 H 0.35659 0.48766 0.95835 0.0
H1158 H 0.25567 0.45889 0.92966 0.0
H1159 H 0.29107 0.43102 0.90633 0.0
Tb1160 Tb 0.69548 0.25331 1.01139 0.0
Tb1161 Tb 0.62003 0.25416 0.98276 0.0
C1162 C 0.66707 0.29786 0.98603 0.0
C1163 C 0.74901 0.25523 1.06699 0.0
C1164 C 0.72787 0.2483 0.11623 0.0
C1165 C 0.72365 0.27 0.10508 0.0
C1166 C 0.7346 0.27351 0.08091 0.0
C1167 C 0.75644 0.23423 0.07871 0.0
C1168 C 0.74663 0.23093 0.10321 0.0
C1169 C 0.74962 0.25681 1.03994 0.0
O1170 O 0.65233 0.25782 1.04132 0.0
O1171 O 0.59892 0.24902 1.02155 0.0
O1172 O 0.62469 0.21798 0.99146 0.0
O1173 O 0.68233 0.2169 1.00938 0.0
O1174 O 0.56555 0.26619 0.98286 0.0
O1175 O 0.58714 0.24767 0.95178 0.0
O1176 O 0.66382 0.25327 0.95155 0.0
O1177 O 0.71706 0.24706 0.97348 0.0
O1178 O 0.6956 0.28452 0.98942 0.0
O1179 O 0.63404 0.2898 0.98985 0.0
C1180 C 0.6162 0.25326 1.04255 0.0
O1181 O 0.74187 0.23792 1.02806 0.0
O1182 O 0.73211 0.27442 1.03071 0.0
C1183 C 0.65208 0.2068 1.00171 0.0
C1184 C 0.54564 0.27847 0.94473 0.0
C1185 C 0.51668 0.31241 0.91352 0.0
C1186 C 0.49355 0.30081 0.93016 0.0
C1187 C 0.50793 0.28382 0.94552 0.0
C1188 C 0.56941 0.29152 0.92995 0.0
C1189 C 0.55501 0.30829 0.91433 0.0
C1190 C 0.55993 0.26004 0.96036 0.0
C1191 C 0.70064 0.24939 0.95172 0.0
H1192 H 0.70925 0.28391 0.11417 0.0
H1193 H 0.72884 0.29008 0.07261 0.0
H1194 H 0.76764 0.21985 1.06854 0.0
H1195 H 0.75186 0.21427 0.11141 0.0
H1196 H 0.464 0.30384 0.93019 0.0
H1197 H 0.48945 0.2744 0.95752 0.0
H1198 H 0.59887 0.28815 0.92978 0.0
H1199 H 0.57365 0.31675 0.90168 0.0
Tb1200 Tb 0.14175 0.25076 0.88389 0.0
Tb1201 Tb 0.21975 0.2532 0.91013 0.0
C1202 C 0.17134 0.29678 0.9071 0.0
C1203 C 0.08289 0.25096 0.83033 0.0
C1204 C 0.09111 0.25604 0.77931 0.0
C1205 C 0.06117 0.26642 0.79161 0.0
C1206 C 0.05732 0.26407 0.817 0.0
C1207 C 0.11075 0.23899 0.81788 0.0
C1208 C 0.11494 0.24157 0.7927 0.0
C1209 C 0.08538 0.2534 0.85697 0.0
O1210 O 0.18379 0.25123 0.8524 0.0
O1211 O 0.2402 0.25125 0.87108 0.0
O1212 O 0.21653 0.21773 0.89786 0.0
O1213 O 0.15443 0.21475 0.88981 0.0
O1214 O 0.27319 0.26681 0.91212 0.0
O1215 O 0.25322 0.24364 0.93999 0.0
O1216 O 0.17688 0.25168 0.94154 0.0
O1217 O 0.12081 0.24659 0.92255 0.0
O1218 O 0.14299 0.28329 0.90355 0.0
O1219 O 0.2048 0.28891 0.90452 0.0
C1220 C 0.22077 0.25086 0.85047 0.0
O1221 O 0.09424 0.23495 0.86934 0.0
O1222 O 0.10496 0.2711 0.86368 0.0
C1223 C 0.18722 0.20549 0.89245 0.0
C1224 C 0.29177 0.2745 0.95191 0.0
C1225 C 0.31588 0.30812 0.9854 0.0
C1226 C 0.3415 0.29606 0.97085 0.0
C1227 C 0.3295 0.27935 0.95428 0.0
C1228 C 0.26598 0.287 0.96569 0.0
C1229 C 0.27792 0.30355 0.9824 0.0
C1230 C 0.27941 0.25786 0.93353 0.0
C1231 C 0.13994 0.24858 0.94328 0.0
H1232 H 0.04165 0.27718 0.78186 0.0
H1233 H 1.03564 0.27346 0.82636 0.0
H1234 H 0.13078 0.22878 0.82784 0.0
H1235 H 0.13854 0.23343 0.78417 0.0
H1236 H 0.37085 0.29934 0.97245 0.0
H1237 H 0.34968 0.27024 0.94327 0.0
H1238 H 0.23662 0.28385 0.96365 0.0
H1239 H 0.25736 0.31217 0.99352 0.0
Tb1240 Tb 0.67956 0.49483 0.87949 0.0
Tb1241 Tb 0.60958 0.49683 0.91379 0.0
C1242 C 0.65332 0.45095 0.90813 0.0
C1243 C 0.72903 0.49547 0.82219 0.0
C1244 C 0.70762 0.5048 0.77347 0.0
C1245 C 0.70143 0.48299 0.78389 0.0
C1246 C 0.71246 0.47828 0.80777 0.0
C1247 C 0.73764 0.51672 0.81133 0.0
C1248 C 0.72738 0.52127 0.78711 0.0
C1249 C 0.73139 0.49246 0.84906 0.0
O1250 O 0.63315 0.48769 0.85228 0.0
O1251 O 0.58658 0.5023 0.87541 0.0
O1252 O 0.62595 0.53272 0.91009 0.0
O1253 O 0.65589 0.52863 0.87362 0.0
O1254 O 0.55213 0.49253 0.91496 0.0
O1255 O 0.58182 0.50277 0.94716 0.0
O1256 O 0.65609 0.49469 0.94199 0.0
O1257 O 0.70447 0.50377 0.91663 0.0
O1258 O 0.68116 0.46309 0.90015 0.0
O1259 O 0.62036 0.46008 0.90979 0.0
C1260 C 0.59835 0.49521 0.85347 0.0
O1261 O 0.72507 0.51077 0.86233 0.0
O1262 O 0.71405 0.4745 0.85771 0.0
C1263 C 0.63986 0.54158 0.89004 0.0
C1264 C 0.53129 0.4777 0.95226 0.0
C1265 C 0.499 0.44318 0.98132 0.0
C1266 C 0.48869 0.46637 0.98432 0.0
C1267 C 0.50485 0.48353 0.9699 0.0
C1268 C 0.54 0.45444 0.94828 0.0
C1269 C 0.52404 0.43729 0.96275 0.0
C1270 C 0.55027 0.49587 0.93843 0.0
C1271 C 0.69189 0.49999 0.93946 0.0
H1272 H 0.68598 0.46988 0.77426 0.0
H1273 H 0.70558 0.4616 0.8154 0.0
H1274 H 0.75038 0.53027 0.82196 0.0
H1275 H 0.7336 0.53803 0.77947 0.0
H1276 H 0.46983 0.47137 0.99878 0.0
H1277 H 0.49759 0.50139 0.97306 0.0
H1278 H 0.55978 0.44962 0.93437 0.0
H1279 H 0.53211 0.41952 0.96003 0.0
H1280 H 0.4618 0.82786 0.14069 0.0
H1281 H 0.35349 0.8081 0.11375 0.0
H1282 H 0.3385 0.84898 0.10644 0.0
H1283 H 0.43186 0.87625 0.17347 0.0
H1284 H 0.47173 0.89379 0.16685 0.0
H1285 H 0.4759 0.86291 0.1673 0.0
H1286 H 0.50211 0.86366 0.12315 0.0
H1287 H 0.498 0.8946 0.12257 0.0
H1288 H 0.47611 0.87755 0.09915 0.0
H1289 H 0.33336 0.89144 0.10476 0.0
H1290 H 0.33676 0.93332 0.1104 0.0
H1291 H 0.44807 0.92654 0.13926 0.0
C1292 C 0.43522 0.83212 0.13278 0.0
C1293 C 0.40888 0.81478 0.12761 0.0
C1294 C 0.3741 0.82107 0.11781 0.0
C1295 C 0.36541 0.84424 0.11348 0.0
C1296 C 0.39177 0.86091 0.11907 0.0
C1297 C 0.42595 0.85522 0.12855 0.0
C1298 C 0.44806 0.87667 0.13475 0.0
C1299 C 0.45742 0.87744 0.16222 0.0
C1300 C 0.48315 0.8782 0.11896 0.0
C1301 C 0.42056 0.8953 0.12784 0.0
C1302 C 0.38854 0.88573 0.11851 0.0
C1303 C 0.35837 0.89916 0.11185 0.0
C1304 C 0.36058 0.92297 0.11524 0.0
C1305 C 0.39267 0.93325 0.12535 0.0
C1306 C 0.42336 0.91922 0.13126 0.0
H1307 H 0.90798 0.42232 0.17104 0.0
H1308 H 0.91889 0.43808 0.09365 0.0
H1309 H 0.91922 0.39639 0.08427 0.0
H1310 H 0.96827 0.37257 0.17079 0.0
H1311 H 0.94088 0.35715 0.19298 0.0
H1312 H 0.94178 0.38816 0.19331 0.0
H1313 H 0.87034 0.38899 0.19008 0.0
H1314 H 0.86921 0.358 0.18949 0.0
H1315 H 0.84799 0.37426 0.16512 0.0
H1316 H 0.9149 0.35287 0.08338 0.0
H1317 H 0.91322 0.31094 0.09129 0.0
H1318 H 0.908 0.32405 0.16943 0.0
C1319 C 0.9107 0.41703 0.15211 0.0
C1320 C 0.91331 0.43341 0.13304 0.0
C1321 C 0.91699 0.4258 0.10854 0.0
C1322 C 0.917 0.40217 0.10304 0.0
C1323 C 0.9137 0.38648 0.12227 0.0
C1324 C 0.91118 0.3936 0.14634 0.0
C1325 C 0.9086 0.37334 0.16372 0.0
C1326 C 0.94187 0.37278 0.18123 0.0
C1327 C 0.87185 0.37367 0.17793 0.0
C1328 C 0.90992 0.35362 0.14566 0.0
C1329 C 0.91245 0.36153 0.12182 0.0
C1330 C 0.91321 0.34648 0.10197 0.0
C1331 C 0.91204 0.32272 0.10663 0.0
C1332 C 0.91064 0.31427 0.13096 0.0
C1333 C 0.90933 0.33 0.15065 0.0
H1334 H 0.42782 0.41975 0.21956 0.0
H1335 H 0.41413 0.43649 0.29644 0.0
H1336 H 0.41967 0.39512 0.30699 0.0
H1337 H 0.37461 0.36734 0.22089 0.0
H1338 H 0.40411 0.35301 0.19911 0.0
H1339 H 0.39929 0.38383 0.19816 0.0
H1340 H 0.47046 0.38797 0.2016 0.0
H1341 H 0.47531 0.35713 0.20296 0.0
H1342 H 0.49428 0.37477 0.22698 0.0
H1343 H 0.42827 0.35126 0.3089 0.0
H1344 H 0.43188 0.30915 0.30144 0.0
H1345 H 0.43851 0.32208 0.22332 0.0
C1346 C 0.4258 0.41476 0.23863 0.0
C1347 C 0.42059 0.43138 0.25719 0.0
C1348 C 0.41794 0.42405 0.2819 0.0
C1349 C 0.42132 0.4006 0.28807 0.0
C1350 C 0.42708 0.38469 0.26932 0.0
C1351 C 0.42876 0.3915 0.24506 0.0
C1352 C 0.43395 0.3711 0.2282 0.0
C1353 C 0.40102 0.36868 0.21056 0.0
C1354 C 0.47068 0.37286 0.21411 0.0
C1355 C 0.43485 0.35168 0.2467 0.0
C1356 C 0.43128 0.35977 0.27037 0.0
C1357 C 0.43104 0.34477 0.29042 0.0
C1358 C 0.43338 0.3209 0.28606 0.0
C1359 C 0.43549 0.31235 0.26184 0.0
C1360 C 0.43695 0.32807 0.24207 0.0
H1361 H 0.91762 0.82487 0.21653 0.0
H1362 H 0.92745 0.81084 0.2944 0.0
H1363 H 0.93853 0.85214 0.30204 0.0
H1364 H 0.98932 0.86896 0.2141 0.0
H1365 H 0.96488 0.8862 0.19191 0.0
H1366 H 0.95884 0.8554 0.19238 0.0
H1367 H 0.88803 0.86073 0.19678 0.0
H1368 H 0.89382 0.89151 0.19626 0.0
H1369 H 0.87011 0.87799 0.2215 0.0
H1370 H 0.94395 0.89479 0.30161 0.0
H1371 H 0.94584 0.93644 0.29312 0.0
H1372 H 0.93576 0.92291 0.21525 0.0
C1373 C 0.92221 0.83047 0.23518 0.0
C1374 C 0.92152 0.8147 0.25491 0.0
C1375 C 0.92788 0.82265 0.27903 0.0
C1376 C 0.93423 0.84604 0.28354 0.0
C1377 C 0.93459 0.86114 0.2637 0.0
C1378 C 0.92904 0.85371 0.23998 0.0
C1379 C 0.93034 0.87359 0.222 0.0
C1380 C 0.96278 0.87087 0.20404 0.0
C1381 C 0.89338 0.8761 0.20834 0.0
C1382 C 0.9367 0.89346 0.23941 0.0
C1383 C 0.93905 0.88583 0.26337 0.0
C1384 C 0.94267 0.90097 0.28292 0.0
C1385 C 0.9436 0.92457 0.2779 0.0
C1386 C 0.94125 0.93278 0.25351 0.0
C1387 C 0.93827 0.91701 0.234 0.0
H1388 H 0.71061 0.07476 0.99508 0.0
H1389 H 0.60285 0.05766 1.02472 0.0
H1390 H 0.58815 0.09923 1.02819 0.0
H1391 H 0.72568 0.1251 1.03467 0.0
H1392 H 0.74966 0.14083 1.01104 0.0
H1393 H 0.75179 0.10984 1.01171 0.0
H1394 H 0.72754 0.10844 0.96711 0.0
H1395 H 0.72507 0.13939 0.96635 0.0
H1396 H 0.68456 0.1225 0.95963 0.0
H1397 H 0.58305 0.14239 1.02388 0.0
H1398 H 0.59064 0.1843 1.0173 0.0
H1399 H 0.70394 0.17326 0.99427 0.0
C1400 C 0.68405 0.07982 1.00251 0.0
C1401 C 0.65767 0.06316 1.00949 0.0
C1402 C 0.62338 0.07027 1.01936 0.0
C1403 C 0.6148 0.09378 1.0213 0.0
C1404 C 0.64123 0.10982 1.01385 0.0
C1405 C 0.67547 0.10315 1.00516 0.0
C1406 C 0.69912 0.12377 0.9986 0.0
C1407 C 0.7336 0.12495 1.01499 0.0
C1408 C 0.70967 0.1235 0.9713 0.0
C1409 C 0.67246 0.14312 1.00429 0.0
C1410 C 0.6391 0.13471 1.01286 0.0
C1411 C 0.60925 0.14919 1.01764 0.0
C1412 C 0.61372 0.1729 1.01371 0.0
C1413 C 0.64794 0.18185 1.00553 0.0
C1414 C 0.67772 0.16679 1.00095 0.0
H1415 H 0.18274 0.67638 0.96732 0.0
H1416 H 0.19363 0.68947 1.0452 0.0
H1417 H 0.20154 0.64768 1.05256 0.0
H1418 H 0.13052 0.62619 0.97158 0.0
H1419 H 0.15253 0.61168 0.94632 0.0
H1420 H 0.15085 0.64264 0.94701 0.0
H1421 H 0.2221 0.64446 0.94299 0.0
H1422 H 0.22409 0.61346 0.94212 0.0
H1423 H 0.25058 0.62905 0.96459 0.0
H1424 H 0.2004 0.6044 1.05173 0.0
H1425 H 0.1964 0.56281 1.04257 0.0
H1426 H 0.19037 0.57809 0.96493 0.0
C1427 C 0.18734 0.67051 0.98591 0.0
C1428 C 0.18746 0.68611 1.00575 0.0
C1429 C 0.1936 0.67779 1.02976 0.0
C1430 C 0.19803 0.65411 1.03409 0.0
C1431 C 0.1969 0.63913 1.01415 0.0
C1432 C 0.19233 0.64704 0.99048 0.0
C1433 C 0.19114 0.62738 0.97231 0.0
C1434 C 0.15406 0.62695 0.95851 0.0
C1435 C 0.22394 0.62867 0.95445 0.0
C1436 C 0.19478 0.60704 0.98951 0.0
C1437 C 0.19793 0.61421 1.01358 0.0
C1438 C 0.19871 0.59859 1.03294 0.0
C1439 C 0.19624 0.57505 1.02758 0.0
C1440 C 0.19355 0.56736 1.00305 0.0
C1441 C 0.19323 0.58356 0.98379 0.0
H1442 H 0.65276 0.6755 0.91999 0.0
H1443 H 0.63939 0.68848 0.8422 0.0
H1444 H 0.63039 0.64679 0.83521 0.0
H1445 H 0.70328 0.6241 0.91523 0.0
H1446 H 0.68141 0.61011 0.94091 0.0
H1447 H 0.68454 0.64102 0.93997 0.0
H1448 H 0.6135 0.64417 0.94503 0.0
H1449 H 0.61014 0.61322 0.94608 0.0
H1450 H 0.58367 0.62927 0.92391 0.0
H1451 H 0.62947 0.60356 0.83628 0.0
H1452 H 0.63171 0.56195 0.84559 0.0
H1453 H 0.64166 0.5772 0.92302 0.0
C1454 C 0.64759 0.66961 0.9015 0.0
C1455 C 0.64697 0.68519 0.88159 0.0
C1456 C 0.63991 0.67684 0.85771 0.0
C1457 C 0.63481 0.6532 0.85357 0.0
C1458 C 0.6362 0.63826 0.87357 0.0
C1459 C 0.64188 0.64616 0.89711 0.0
C1460 C 0.64275 0.62649 0.91538 0.0
C1461 C 0.68022 0.62537 0.92864 0.0
C1462 C 0.61059 0.6284 0.93368 0.0
C1463 C 0.63764 0.60619 0.89836 0.0
C1464 C 0.63402 0.61337 0.87431 0.0
C1465 C 0.63163 0.59775 0.85507 0.0
C1466 C 0.63309 0.57418 0.86052 0.0
C1467 C 0.63647 0.56645 0.88503 0.0
C1468 C 0.63831 0.58268 0.90419 0.0
H1469 H 0.13444 0.17199 0.89688 0.0
H1470 H 0.24988 0.1826 0.87855 0.0
H1471 H 0.25681 0.14095 0.87037 0.0
H1472 H 0.14818 0.11921 0.92898 0.0
H1473 H 0.10544 0.10658 0.91869 0.0
H1474 H 0.10931 0.13735 0.92151 0.0
H1475 H 0.08967 0.14206 0.87615 0.0
H1476 H 0.08601 0.11126 0.87312 0.0
H1477 H 0.11529 0.12732 0.85257 0.0
H1478 H 0.25073 0.09783 0.86387 0.0
H1479 H 0.23384 0.05644 0.8642 0.0
H1480 H 0.12364 0.07435 0.88908 0.0
C1481 C 0.16112 0.16557 0.89101 0.0
C1482 C 0.19159 0.18051 0.88825 0.0
C1483 C 0.2262 0.17141 0.88088 0.0
C1484 C 0.23034 0.14782 0.87602 0.0
C1485 C 0.19969 0.13354 0.87886 0.0
C1486 C 0.16588 0.14206 0.88649 0.0
C1487 C 0.13786 0.12296 0.88958 0.0
C1488 C 0.12443 0.12144 0.91627 0.0
C1489 C 0.10529 0.12609 0.87179 0.0
C1490 C 0.16124 0.10235 0.88269 0.0
C1491 C 0.19664 0.10878 0.87613 0.0
C1492 C 0.2231 0.0926 0.86902 0.0
C1493 C 0.21326 0.06918 0.86913 0.0
C1494 C 0.17755 0.06229 0.87676 0.0
C1495 C 0.15123 0.07916 0.8833 0.0
H1496 H 0.44335 0.32227 0.63604 0.0
H1497 H 0.32597 0.30704 0.63279 0.0
H1498 H 0.31221 0.34875 0.63326 0.0
H1499 H 0.43646 0.36959 0.67725 0.0
H1500 H 0.47265 0.38606 0.66284 0.0
H1501 H 0.47333 0.35509 0.66126 0.0
H1502 H 0.47615 0.35718 0.6139 0.0
H1503 H 0.47554 0.38817 0.61532 0.0
H1504 H 0.44129 0.37315 0.5975 0.0
H1505 H 0.31125 0.39195 0.63518 0.0
H1506 H 0.32269 0.43361 0.63833 0.0
H1507 H 0.44096 0.42089 0.64049 0.0
C1508 C 0.41473 0.32767 0.63523 0.0
C1509 C 0.3857 0.31136 0.63432 0.0
C1510 C 0.34865 0.31919 0.63349 0.0
C1511 C 0.34057 0.34284 0.63373 0.0
C1512 C 0.36985 0.35843 0.63482 0.0
C1513 C 0.40618 0.35118 0.63553 0.0
C1514 C 0.4325 0.37144 0.63721 0.0
C1515 C 0.45505 0.37048 0.66106 0.0
C1516 C 0.45786 0.37254 0.61463 0.0
C1517 C 0.40527 0.39127 0.63745 0.0
C1518 C 0.36931 0.38336 0.636 0.0
C1519 C 0.33929 0.39834 0.63624 0.0
C1520 C 0.34614 0.42202 0.63806 0.0
C1521 C 0.38277 0.43061 0.63962 0.0
C1522 C 0.41267 0.41493 0.63924 0.0
H1523 H 0.92165 0.92396 0.6613 0.0
H1524 H 0.90469 0.93836 0.58418 0.0
H1525 H 0.90351 0.89639 0.57565 0.0
H1526 H 0.98212 0.87462 0.65259 0.0
H1527 H 0.96368 0.85971 0.67886 0.0
H1528 H 0.96421 0.89071 0.67819 0.0
H1529 H 0.89358 0.89124 0.68628 0.0
H1530 H 0.89274 0.86026 0.68668 0.0
H1531 H 0.86317 0.87586 0.66592 0.0
H1532 H 0.89921 0.85222 0.5767 0.0
H1533 H 0.89983 0.81043 0.58642 0.0
H1534 H 0.92259 0.82638 0.66249 0.0
C1535 C 0.91802 0.91831 0.64256 0.0
C1536 C 0.91305 0.9343 0.6234 0.0
C1537 C 0.90867 0.9263 0.5991 0.0
C1538 C 0.90776 0.90253 0.59413 0.0
C1539 C 0.91187 0.88717 0.61363 0.0
C1540 C 0.91759 0.89483 0.63728 0.0
C1541 C 0.92158 0.87508 0.65509 0.0
C1542 C 0.9602 0.87503 0.66686 0.0
C1543 C 0.89094 0.87565 0.67464 0.0
C1544 C 0.91673 0.85499 0.63789 0.0
C1545 C 0.91082 0.86217 0.61407 0.0
C1546 C 0.90425 0.84644 0.59525 0.0
C1547 C 0.90441 0.82279 0.60094 0.0
C1548 C 0.91156 0.81524 0.62515 0.0
C1549 C 0.91752 0.83163 0.64375 0.0
H1550 H 0.44834 0.92212 0.76994 0.0
H1551 H 0.33352 0.93934 0.75653 0.0
H1552 H 0.31861 0.89797 0.75287 0.0
H1553 H 0.45503 0.8773 0.72775 0.0
H1554 H 0.48438 0.85921 0.74626 0.0
H1555 H 0.48542 0.88998 0.75013 0.0
H1556 H 0.47053 0.88531 0.79628 0.0
H1557 H 0.46985 0.85448 0.79263 0.0
H1558 H 0.4304 0.86908 0.8055 0.0
H1559 H 0.31786 0.85514 0.74615 0.0
H1560 H 0.32977 0.81364 0.74062 0.0
H1561 H 0.44492 0.82409 0.75988 0.0
C1562 C 0.41991 0.9172 0.76669 0.0
C1563 C 0.39195 0.93399 0.7635 0.0
C1564 C 0.35521 0.92679 0.75915 0.0
C1565 C 0.34656 0.90333 0.75698 0.0
C1566 C 0.37497 0.88727 0.75951 0.0
C1567 C 0.4108 0.89387 0.76467 0.0
C1568 C 0.43646 0.87324 0.76577 0.0
C1569 C 0.46712 0.87505 0.74632 0.0
C1570 C 0.45276 0.87036 0.79158 0.0
C1571 C 0.40964 0.85403 0.75984 0.0
C1572 C 0.37433 0.86251 0.75626 0.0
C1573 C 0.34527 0.84827 0.74926 0.0
C1574 C 0.35239 0.82473 0.746 0.0
C1575 C 0.38825 0.81559 0.7499 0.0
C1576 C 0.41713 0.83051 0.75704 0.0
H1577 H 0.87 0.3269 0.75172 0.0
H1578 H 0.98455 0.30663 0.74121 0.0
H1579 H 1.00285 0.34741 0.74013 0.0
H1580 H 0.87121 0.37564 0.71231 0.0
H1581 H 0.84212 0.39327 0.73146 0.0
H1582 H 0.83772 0.36239 0.73232 0.0
H1583 H 0.84878 0.36269 0.77918 0.0
H1584 H 0.85311 0.39359 0.77849 0.0
H1585 H 0.88969 0.37625 0.79124 0.0
H1586 H 1.00849 0.38982 0.73709 0.0
H1587 H 1.00188 0.43199 0.73511 0.0
H1588 H 0.88441 0.42569 0.74981 0.0
C1589 C 0.89895 0.33105 0.74935 0.0
C1590 C 0.92581 0.31353 0.74647 0.0
C1591 C 0.96343 0.31969 0.74349 0.0
C1592 C 0.97415 0.34283 0.74283 0.0
C1593 C 0.94701 0.35964 0.74546 0.0
C1594 C 0.91025 0.35413 0.74893 0.0
C1595 C 0.88674 0.37569 0.75113 0.0
C1596 C 0.85774 0.3768 0.73058 0.0
C1597 C 0.86851 0.37713 0.77652 0.0
C1598 C 0.916 0.39414 0.74794 0.0
C1599 C 0.95051 0.38439 0.74458 0.0
C1600 C 0.98172 0.39768 0.73998 0.0
C1601 C 0.97763 0.4216 0.73876 0.0
C1602 C 0.94268 0.43205 0.7424 0.0
C1603 C 0.91151 0.41813 0.74728 0.0
H1604 H 0.64632 0.57289 0.50418 0.0
H1605 H 0.76276 0.5652 0.487 0.0
H1606 H 0.77093 0.60739 0.4903 0.0
H1607 H 0.63267 0.6228 0.46852 0.0
H1608 H 0.6001 0.63577 0.48934 0.0
H1609 H 0.60445 0.60494 0.48803 0.0
H1610 H 0.61763 0.60375 0.53467 0.0
H1611 H 0.61341 0.63465 0.53611 0.0
H1612 H 0.65483 0.62077 0.54704 0.0
H1613 H 0.76581 0.65068 0.49457 0.0
H1614 H 0.74658 0.69158 0.49532 0.0
H1615 H 0.63301 0.67056 0.5075 0.0
C1616 C 0.67365 0.58004 0.50145 0.0
C1617 C 0.70399 0.56581 0.49553 0.0
C1618 C 0.73915 0.57585 0.49156 0.0
C1619 C 0.7441 0.59975 0.49354 0.0
C1620 C 0.71353 0.61333 0.4993 0.0
C1621 C 0.67892 0.60383 0.50296 0.0
C1622 C 0.65 0.62225 0.50702 0.0
C1623 C 0.62006 0.62138 0.48703 0.0
C1624 C 0.63297 0.62023 0.53274 0.0
C1625 C 0.6736 0.64363 0.50472 0.0
C1626 C 0.71029 0.63816 0.50075 0.0
C1627 C 0.73716 0.65515 0.49775 0.0
C1628 C 0.72605 0.67831 0.49833 0.0
C1629 C 0.68835 0.68417 0.50146 0.0
C1630 C 0.66201 0.66657 0.50501 0.0
H1631 H 0.12811 0.07311 0.49786 0.0
H1632 H 0.2425 0.06341 0.51969 0.0
H1633 H 0.249 0.10502 0.52614 0.0
H1634 H 0.14312 0.12401 0.46409 0.0
H1635 H 0.10058 0.13785 0.47297 0.0
H1636 H 0.10339 0.10692 0.47225 0.0
H1637 H 0.08251 0.10506 0.51762 0.0
H1638 H 0.07962 0.13604 0.51847 0.0
H1639 H 0.10784 0.12095 0.54044 0.0
H1640 H 0.24531 0.14761 0.52734 0.0
H1641 H 0.2311 0.18894 0.52285 0.0
H1642 H 0.11931 0.17166 0.50038 0.0
C1643 C 0.15427 0.07975 0.50437 0.0
C1644 C 0.18476 0.065 0.50821 0.0
C1645 C 0.21876 0.07436 0.51643 0.0
C1646 C 0.22275 0.098 0.52031 0.0
C1647 C 0.19249 0.11214 0.51597 0.0
C1648 C 0.15887 0.10347 0.50823 0.0
C1649 C 0.13156 0.12276 0.50352 0.0
C1650 C 0.11894 0.12288 0.47661 0.0
C1651 C 0.09842 0.1211 0.52106 0.0
C1652 C 0.15542 0.1435 0.50932 0.0
C1653 C 0.19036 0.13696 0.51669 0.0
C1654 C 0.21789 0.153 0.52188 0.0
C1655 C 0.20957 0.17644 0.51924 0.0
C1656 C 0.17406 0.18356 0.5114 0.0
C1657 C 0.1466 0.16681 0.50669 0.0
H1658 H 0.64958 0.174 0.41432 0.0
H1659 H 0.64317 0.18597 0.33594 0.0
H1660 H 0.64449 0.14399 0.32875 0.0
H1661 H 0.71036 0.12531 0.41261 0.0
H1662 H 0.68728 0.11022 0.43709 0.0
H1663 H 0.68643 0.14122 0.4361 0.0
H1664 H 0.61487 0.14071 0.43733 0.0
H1665 H 0.61546 0.10972 0.43845 0.0
H1666 H 0.58981 0.12432 0.41478 0.0
H1667 H 0.64849 0.1008 0.33006 0.0
H1668 H 0.64858 0.05926 0.3399 0.0
H1669 H 0.64928 0.07552 0.41747 0.0
C1670 C 0.64843 0.16778 0.39565 0.0
C1671 C 0.64645 0.1832 0.37567 0.0
C1672 C 0.64464 0.17443 0.35151 0.0
C1673 C 0.64555 0.15063 0.34724 0.0
C1674 C 0.64786 0.13589 0.36733 0.0
C1675 C 0.64876 0.1441 0.39107 0.0
C1676 C 0.64992 0.12457 0.40946 0.0
C1677 C 0.68562 0.12539 0.42471 0.0
C1678 C 0.61546 0.12485 0.42597 0.0
C1679 C 0.64966 0.10409 0.39233 0.0
C1680 C 0.64888 0.11099 0.36811 0.0
C1681 C 0.64892 0.09517 0.34895 0.0
C1682 C 0.64912 0.07163 0.35472 0.0
C1683 C 0.64882 0.0642 0.37943 0.0
C1684 C 0.64938 0.08069 0.39841 0.0
H1685 H 0.19747 0.673 0.40845 0.0
H1686 H 0.12311 0.68969 0.34861 0.0
H1687 H 0.11554 0.64828 0.33984 0.0
H1688 H 0.24233 0.62425 0.37815 0.0
H1689 H 0.2462 0.60775 0.40602 0.0
H1690 H 0.24693 0.63877 0.40715 0.0
H1691 H 0.19227 0.6385 0.43776 0.0
H1692 H 0.19146 0.60752 0.43688 0.0
H1693 H 0.15024 0.62364 0.42978 0.0
H1694 H 0.11166 0.60549 0.33988 0.0
H1695 H 0.11323 0.56359 0.34796 0.0
H1696 H 0.19339 0.57431 0.40575 0.0
C1697 C 0.17968 0.66793 0.39346 0.0
C1698 C 0.16073 0.68451 0.37925 0.0
C1699 C 0.13791 0.67725 0.35969 0.0
C1700 C 0.1335 0.65379 0.35454 0.0
C1701 C 0.15255 0.63788 0.36888 0.0
C1702 C 0.17541 0.64459 0.38782 0.0
C1703 C 0.19215 0.62395 0.40071 0.0
C1704 C 0.23441 0.62367 0.39782 0.0
C1705 C 0.18083 0.62337 0.42788 0.0
C1706 C 0.17435 0.60455 0.38643 0.0
C1707 C 0.15163 0.61302 0.36815 0.0
C1708 C 0.12989 0.5986 0.35378 0.0
C1709 C 0.13094 0.57491 0.35848 0.0
C1710 C 0.15396 0.56592 0.37708 0.0
C1711 C 0.17645 0.58083 0.39093 0.0
H1712 H 0.2767 0.0054 0.26184 0.0
H1713 H 0.16327 0.98125 0.26313 0.0
H1714 H 0.17394 0.96458 0.30449 0.0
H1715 H 0.31518 0.95596 0.28592 0.0
H1716 H 0.35059 0.97053 0.30316 0.0
H1717 H 0.33268 0.98338 0.27561 0.0
H1718 H 0.31428 0.02057 0.29897 0.0
H1719 H 0.33417 0.00839 0.32622 0.0
H1720 H 0.28696 0.01831 0.32649 0.0
H1721 H 0.19892 0.95003 0.34504 0.0
H1722 H 0.23216 0.94432 0.38379 0.0
H1723 H 0.33163 0.9727 0.35116 0.0
C1724 C 0.25347 -0.00248 0.27116 0.0
C1725 C 0.21887 -0.00494 0.25968 0.0
C1726 C 0.18972 0.98368 0.27203 0.0
C1727 C 0.19576 0.97389 0.29522 0.0
C1728 C 0.23122 0.97529 0.30515 0.0
C1729 C 0.25934 0.98711 0.29358 0.0
C1730 C 0.29538 0.98553 0.30723 0.0
C1731 C 0.32518 0.97311 0.29206 0.0
C1732 C 0.30844 0.00962 0.31521 0.0
C1733 C 0.28323 0.97115 0.32869 0.0
C1734 C 0.24618 0.96537 0.32723 0.0
C1735 C 0.22799 0.95422 0.34628 0.0
C1736 C 0.24741 0.95066 0.3681 0.0
C1737 C 0.28456 0.9582 0.37045 0.0
C1738 C 0.30332 0.96679 0.34983 0.0
H1739 H 0.11682 0.25918 0.33702 0.0
H1740 H 0.13182 0.18584 0.34843 0.0
H1741 H 0.15667 0.18224 0.30647 0.0
H1742 H 0.08408 0.25738 0.28059 0.0
H1743 H 0.10693 0.28298 0.26961 0.0
H1744 H 0.09793 0.2797 0.3016 0.0
H1745 H 0.16853 0.28516 0.31079 0.0
H1746 H 0.17613 0.28873 0.27836 0.0
H1747 H 0.20161 0.26721 0.29502 0.0
H1748 H 0.16775 0.18559 0.26144 0.0
H1749 H 0.15513 0.19473 0.21817 0.0
H1750 H 0.13998 0.26645 0.23759 0.0
C1751 C 0.12645 0.24246 0.33105 0.0
C1752 C 0.12234 0.22283 0.34603 0.0
C1753 C 0.13421 0.20113 0.33717 0.0
C1754 C 0.1491 0.19899 0.31354 0.0
C1755 C 0.15278 0.21879 0.29925 0.0
C1756 C 0.14199 0.24015 0.30784 0.0
C1757 C 0.14378 0.25827 0.28808 0.0
C1758 C 0.10596 0.27022 0.28477 0.0
C1759 C 0.17433 0.27589 0.29342 0.0
C1760 C 0.15397 0.24342 0.26641 0.0
C1761 C 0.16042 0.22082 0.27327 0.0
C1762 C 0.16366 0.20331 0.25591 0.0
C1763 C 0.15658 0.20867 0.23128 0.0
C1764 C 0.14556 0.23122 0.22452 0.0
C1765 C 0.14849 0.24907 0.24193 0.0
H1766 H 0.37459 0.30131 1.01571 0.0
H1767 H 0.2844 0.34853 1.00158 0.0
H1768 H 0.2948 0.3668 1.04152 0.0
H1769 H 0.35319 0.28726 0.06892 0.0
H1770 H 0.39768 0.28572 0.08358 0.0
H1771 H 0.39458 0.28251 1.05116 0.0
H1772 H 0.43997 0.31613 1.04419 0.0
H1773 H 0.44454 0.31942 0.07689 0.0
H1774 H 0.43136 0.3437 1.05824 0.0
H1775 H 0.29991 0.37042 0.08605 0.0
H1776 H 0.30134 0.35997 0.12987 0.0
H1777 H 0.39029 0.31196 0.11557 0.0
C1778 C 0.35853 0.31641 1.02033 0.0
C1779 C 0.32853 0.32336 1.00556 0.0
C1780 C 0.30728 0.3427 1.01269 0.0
C1781 C 0.31332 0.3534 1.03529 0.0
C1782 C 0.3413 0.34492 1.05036 0.0
C1783 C 0.36437 0.32723 1.04285 0.0
C1784 C 0.3874 0.31819 1.06391 0.0
C1785 C 0.38287 0.29191 1.06707 0.0
C1786 C 0.42824 0.32476 1.0606 0.0
C1787 C 0.37032 0.33144 0.08489 0.0
C1788 C 0.34487 0.34748 0.07665 0.0
C1789 C 0.32078 0.35863 0.09274 0.0
C1790 C 0.32154 0.3525 0.11757 0.0
C1791 C 0.34618 0.33534 0.12601 0.0
C1792 C 0.37206 0.32568 0.10968 0.0
H1793 H 1.01873 0.95201 0.08884 0.0
H1794 H 0.95616 0.0125 0.10945 0.0
H1795 H 0.92168 0.01067 0.07054 0.0
H1796 H 1.03447 0.97144 1.0305 0.0
H1797 H 1.03383 0.94347 1.01618 0.0
H1798 H 0.04571 0.94597 1.04791 0.0
H1799 H 0.99357 0.91679 1.0583 0.0
H1800 H 0.98077 0.91512 1.02643 0.0
H1801 H 0.94674 0.92289 1.04909 0.0
H1802 H 0.89701 0.00436 1.02924 0.0
H1803 H 0.90146 0.00453 0.98449 0.0
H1804 H 0.98525 0.95113 0.98827 0.0
C1805 C 0.99698 0.96439 0.08528 0.0
C1806 C 0.98914 0.982 0.1022 0.0
C1807 C 0.96203 -0.00129 0.09668 0.0
C1808 C 0.94191 -0.00245 0.07486 0.0
C1809 C 0.94955 0.97971 1.05863 0.0
C1810 C 0.97743 0.96392 1.06315 0.0
C1811 C 0.98645 0.95022 1.04035 0.0
C1812 C 1.02751 0.95297 1.03332 0.0
C1813 C 0.97626 0.92474 1.04376 0.0
C1814 C 0.96089 0.96178 1.02205 0.0
C1815 C 0.93815 0.97764 1.03338 0.0
C1816 C 0.91467 0.992 1.02013 0.0
C1817 C 0.91734 0.99193 0.99457 0.0
C1818 C 0.94455 0.97839 0.98269 0.0
C1819 C 0.96399 0.96166 0.99654 0.0
H1820 H 0.87967 0.01751 0.8923 0.0
H1821 H 0.90755 0.94762 0.91348 0.0
H1822 H 0.91169 0.93696 0.86972 0.0
H1823 H 0.81709 0.00293 0.85334 0.0
H1824 H 0.82447 0.02555 0.83123 0.0
H1825 H 0.83694 0.03003 0.86259 0.0
H1826 H 0.90313 0.04003 0.84995 0.0
H1827 H 0.89308 0.03526 0.818 0.0
H1828 H 0.93023 0.01979 0.83271 0.0
H1829 H 0.89692 0.93213 0.8243 0.0
H1830 H 0.87144 0.93462 0.7823 0.0
H1831 H 0.84648 0.00685 0.79413 0.0
C1832 C 0.88902 0.00027 0.88807 0.0
C1833 C 0.89289 0.98337 0.90648 0.0
C1834 C 0.90416 0.96087 0.89969 0.0
C1835 C 0.90645 0.95465 0.87484 0.0
C1836 C 0.89783 0.97123 0.85719 0.0
C1837 C 0.89009 0.99374 0.86364 0.0
C1838 C 0.87509 0.00745 0.84236 0.0
C1839 C 0.83612 0.01702 0.84772 0.0
C1840 C 0.90196 0.0268 0.83529 0.0
C1841 C 0.87389 0.98894 0.82313 0.0
C1842 C 0.88776 0.96826 0.83165 0.0
C1843 C 0.88666 0.94838 0.81735 0.0
C1844 C 0.87156 0.94987 0.79367 0.0
C1845 C 0.85711 0.971 0.78478 0.0
C1846 C 0.8582 0.99059 0.79997 0.0
H1847 H 0.1292 0.69663 0.8625 0.0
H1848 H 0.0453 0.64437 0.87216 0.0
H1849 H 0.04611 0.63676 0.82763 0.0
H1850 H 0.08917 0.7223 0.81775 0.0
H1851 H 0.12932 0.73061 0.80026 0.0
H1852 H 0.13353 0.7255 0.83241 0.0
H1853 H 0.18455 0.69523 0.82439 0.0
H1854 H 0.18057 0.70028 0.79191 0.0
H1855 H 0.17575 0.67152 0.80393 0.0
H1856 H 0.04421 0.6416 0.78291 0.0
H1857 H 1.03416 0.66094 0.74334 0.0
H1858 H 0.11544 0.71255 0.76282 0.0
C1859 C 0.11263 0.68266 0.85533 0.0
C1860 C 0.08777 0.67071 0.87061 0.0
C1861 C 0.06493 0.6534 0.86065 0.0
C1862 C 0.06549 0.64888 0.83543 0.0
C1863 C 0.08889 0.66194 0.82052 0.0
C1864 C 0.11222 0.67849 0.83019 0.0
C1865 C 0.12791 0.69395 0.81042 0.0
C1866 C 0.1194 0.71956 0.81552 0.0
C1867 C 0.16968 0.68999 0.80749 0.0
C1868 C 0.10696 0.68501 0.78845 0.0
C1869 C 0.08617 0.66578 0.79436 0.0
C1870 C 0.0609 0.65635 0.77795 0.0
C1871 C 0.05509 0.6676 0.75559 0.0
C1872 C 0.07369 0.68846 0.75016 0.0
C1873 C 0.1014 0.69642 0.76621 0.0
H1874 H 0.88588 0.72235 0.98591 0.0
H1875 H 0.91114 0.79305 0.96663 0.0
H1876 H 0.9212 0.80182 1.01025 0.0
H1877 H 0.82926 0.73352 1.02711 0.0
H1878 H 0.83927 0.71104 1.04893 0.0
H1879 H 0.85028 0.70689 1.01733 0.0
H1880 H 0.91829 0.69882 1.02774 0.0
H1881 H 0.90857 0.70245 1.0599 0.0
H1882 H 0.94448 0.71915 1.04548 0.0
H1883 H 0.90789 0.80577 1.05503 0.0
H1884 H 0.88147 0.80311 0.09671 0.0
H1885 H 0.85958 0.73051 0.08518 0.0
C1886 C 0.89607 0.73931 0.99044 0.0
C1887 C 0.89679 0.75713 0.9728 0.0
C1888 C 0.90974 0.77916 0.97986 0.0
C1889 C 0.91553 0.7843 1.00467 0.0
C1890 C 0.90923 0.76704 1.02198 0.0
C1891 C 0.90102 0.7447 1.01506 0.0
C1892 C 0.8881 0.73038 1.0366 0.0
C1893 C 0.84947 0.71989 1.0322 0.0
C1894 C 0.91656 0.71161 1.04282 0.0
C1895 C 0.88695 0.74864 1.05616 0.0
C1896 C 0.90034 0.76949 1.04774 0.0
C1897 C 0.8983 0.78937 1.06199 0.0
C1898 C 0.88261 0.78779 0.08546 0.0
C1899 C 0.8685 0.76656 0.09422 0.0
C1900 C 0.87088 0.74685 0.07927 0.0
H1901 H 0.39723 0.46377 0.89229 0.0
H1902 H 0.33538 0.40026 0.89726 0.0
H1903 H 0.34157 0.39499 0.85278 0.0
H1904 H 0.35 0.48608 0.85384 0.0
H1905 H 0.3831 0.50128 0.83513 0.0
H1906 H 0.39453 0.49422 0.86594 0.0
H1907 H 0.45281 0.47285 0.85154 0.0
H1908 H 0.4419 0.47924 0.81999 0.0
H1909 H 0.44935 0.44991 0.82944 0.0
H1910 H 0.33236 0.4041 0.80905 0.0
H1911 H 0.31356 0.42441 0.77164 0.0
H1912 H 0.37084 0.48555 0.79733 0.0
C1913 C 0.38743 0.44788 0.8843 0.0
C1914 C 0.36513 0.43272 0.89802 0.0
C1915 C 0.35229 0.41223 0.88695 0.0
C1916 C 0.35569 0.40915 0.8616 0.0
C1917 C 0.37238 0.42656 0.84782 0.0
C1918 C 0.38919 0.4453 0.85895 0.0
C1919 C 0.39607 0.46457 0.84079 0.0
C1920 C 0.37988 0.48784 0.84945 0.0
C1921 C 0.43751 0.46676 0.83514 0.0
C1922 C 0.37564 0.4552 0.81893 0.0
C1923 C 0.36436 0.43277 0.82264 0.0
C1924 C 0.34183 0.4215 0.80578 0.0
C1925 C 0.33043 0.4335 0.78479 0.0
C1926 C 0.34011 0.45698 0.78126 0.0
C1927 C 0.36354 0.46759 0.7986 0.0
H1928 H 0.2024 0.67878 0.52436 0.0
H1929 H 0.30082 0.64083 0.50453 0.0
H1930 H 0.30501 0.62565 0.54656 0.0
H1931 H 0.23193 0.70177 0.57103 0.0
H1932 H 0.19229 0.70068 0.59105 0.0
H1933 H 0.1858 0.69931 0.55875 0.0
H1934 H 0.15069 0.66076 0.56324 0.0
H1935 H 0.15677 0.66212 0.59599 0.0
H1936 H 0.17174 0.63702 0.57933 0.0
H1937 H 0.31202 0.62636 0.59068 0.0
H1938 H 0.32231 0.6436 0.63098 0.0
H1939 H 0.22069 0.68244 0.62369 0.0
C1940 C 0.22336 0.66607 0.52854 0.0
C1941 C 0.2512 0.66089 0.51134 0.0
C1942 C 0.27919 0.64495 0.51753 0.0
C1943 C 0.28151 0.63609 0.54134 0.0
C1944 C 0.25553 0.64324 0.55867 0.0
C1945 C 0.22634 0.65755 0.55239 0.0
C1946 C 0.20755 0.66726 0.57493 0.0
C1947 C 0.20433 0.69379 0.57386 0.0
C1948 C 0.16944 0.65611 0.57859 0.0
C1949 C 0.23425 0.65926 0.59449 0.0
C1950 C 0.26023 0.64417 0.58501 0.0
C1951 C 0.2912 0.63756 0.59848 0.0
C1952 C 0.29705 0.64766 0.62139 0.0
C1953 C 0.2724 0.66452 0.63053 0.0
C1954 C 0.23956 0.66921 0.61751 0.0
H1955 H 0.12164 0.50318 0.55075 0.0
H1956 H 0.1258 0.57517 0.52954 0.0
H1957 H 0.15473 0.58456 0.56912 0.0
H1958 H 0.09415 0.5106 0.60711 0.0
H1959 H 0.1204 0.48749 0.6207 0.0
H1960 H 0.10873 0.4863 0.58896 0.0
H1961 H 0.17874 0.48235 0.57751 0.0
H1962 H 0.18915 0.48288 0.60982 0.0
H1963 H 0.21118 0.50298 0.58949 0.0
H1964 H 0.16776 0.58707 0.6139 0.0
H1965 H 0.15919 0.58222 0.65844 0.0
H1966 H 0.15545 0.50825 0.6487 0.0
C1967 C 0.13009 0.52079 0.55378 0.0
C1968 C 0.12106 0.53836 0.53694 0.0
C1969 C 0.13152 0.56135 0.5423 0.0
C1970 C 0.14876 0.56681 0.56457 0.0
C1971 C 0.15644 0.54904 0.58101 0.0
C1972 C 0.14792 0.5264 0.5756 0.0
C1973 C 0.15321 0.51088 0.59751 0.0
C1974 C 0.11699 0.49813 0.60394 0.0
C1975 C 0.18496 0.49376 0.5933 0.0
C1976 C 0.16339 0.52854 0.61666 0.0
C1977 C 0.16596 0.55045 0.60679 0.0
C1978 C 0.16712 0.56994 0.62174 0.0
C1979 C 0.16238 0.56706 0.64711 0.0
C1980 C 0.15634 0.54486 0.65711 0.0
C1981 C 0.16072 0.52544 0.64186 0.0
H1982 H 0.73017 0.41533 0.25962 0.0
H1983 H 0.83975 0.38667 0.25037 0.0
H1984 H 0.83947 0.37416 0.29335 0.0
H1985 H 0.74081 0.44214 0.30639 0.0
H1986 H 0.69872 0.43682 0.32318 0.0
H1987 H 0.69911 0.43351 0.29076 0.0
H1988 H 0.67635 0.39151 0.29478 0.0
H1989 H 0.67513 0.3948 0.32762 0.0
H1990 H 0.70091 0.3715 0.31408 0.0
H1991 H 0.8394 0.38086 0.33724 0.0
H1992 H 0.83637 0.40233 0.37593 0.0
H1993 H 0.72419 0.42292 0.35926 0.0
C1994 C 0.75299 0.40499 0.26615 0.0
C1995 C 0.78526 0.40246 0.25186 0.0
C1996 C 0.81499 0.38927 0.26118 0.0
C1997 C 0.81488 0.38185 0.28558 0.0
C1998 C 0.78435 0.38708 0.30017 0.0
C1999 C 0.75307 0.39746 0.29049 0.0
C2000 C 0.72715 0.40542 0.3106 0.0
C2001 C 0.71592 0.43096 0.30754 0.0
C2002 C 0.69287 0.38987 0.31185 0.0
C2003 C 0.75159 0.40164 0.33271 0.0
C2004 C 0.7837 0.38999 0.32656 0.0
C2005 C 0.81375 0.38903 0.34258 0.0
C2006 C 0.81188 0.40137 0.3646 0.0
C2007 C 0.78016 0.41452 0.37032 0.0
C2008 C 0.74884 0.4131 0.35507 0.0
H2009 H 0.68863 0.20019 0.52118 0.0
H2010 H 0.77869 0.15223 0.51045 0.0
H2011 H 0.77933 0.14396 0.55485 0.0
H2012 H 0.72656 0.22728 0.56557 0.0
H2013 H 0.6857 0.23371 0.58323 0.0
H2014 H 0.68183 0.22843 0.55113 0.0
H2015 H 0.63471 0.19566 0.55989 0.0
H2016 H 0.63868 0.20133 0.59222 0.0
H2017 H 0.64669 0.1727 0.5806 0.0
H2018 H 0.78241 0.14904 0.59931 0.0
H2019 H 0.79193 0.16928 0.63838 0.0
H2020 H 0.70328 0.21643 0.62043 0.0
C2021 C 0.70693 0.18692 0.52809 0.0
C2022 C 0.73312 0.17648 0.51257 0.0
C2023 C 0.75807 0.16009 0.52216 0.0
C2024 C 0.75836 0.15521 0.5473 0.0
C2025 C 0.73372 0.167 0.56251 0.0
C2026 C 0.70825 0.1825 0.55316 0.0
C2027 C 0.69144 0.1972 0.57314 0.0
C2028 C 0.69677 0.22315 0.56796 0.0
C2029 C 0.65043 0.19135 0.57671 0.0
C2030 C 0.71404 0.18923 0.59477 0.0
C2031 C 0.73685 0.17096 0.58859 0.0
C2032 C 0.76408 0.16294 0.6045 0.0
C2033 C 0.76958 0.17468 0.62654 0.0
C2034 C 0.74859 0.19455 0.63215 0.0
C2035 C 0.71915 0.20101 0.61677 0.0
H2036 H 0.45895 0.29759 0.88689 0.0
H2037 H 0.54071 0.35187 0.89015 0.0
H2038 H 0.52974 0.36052 0.84654 0.0
H2039 H 0.48921 0.27321 0.84073 0.0
H2040 H 0.44695 0.26466 0.82578 0.0
H2041 H 0.44702 0.26968 0.85798 0.0
H2042 H 0.39476 0.29964 0.85319 0.0
H2043 H 0.39428 0.29491 0.82056 0.0
H2044 H 0.40029 0.32356 0.83243 0.0
H2045 H 0.52486 0.3551 0.80164 0.0
H2046 H 0.52615 0.337 0.76102 0.0
H2047 H 0.45411 0.28279 0.78818 0.0
C2048 C 0.47267 0.31236 0.87892 0.0
C2049 C 0.50068 0.32401 0.89182 0.0
C2050 C 0.51912 0.3427 0.88052 0.0
C2051 C 0.51287 0.34779 0.85576 0.0
C2052 C 0.48788 0.33419 0.84275 0.0
C2053 C 0.46736 0.31712 0.85417 0.0
C2054 C 0.44917 0.30135 0.83575 0.0
C2055 C 0.45876 0.27577 0.84034 0.0
C2056 C 0.40713 0.3051 0.83548 0.0
C2057 C 0.46649 0.31032 0.8125 0.0
C2058 C 0.4869 0.33003 0.81659 0.0
C2059 C 0.50836 0.33991 0.79817 0.0
C2060 C 0.50958 0.32912 0.77523 0.0
C2061 C 0.49069 0.30805 0.77113 0.0
C2062 C 0.4682 0.29908 0.79003 0.0
H2063 H 0.60717 0.02293 0.64582 0.0
H2064 H 0.62126 0.95069 0.62878 0.0
H2065 H 0.63377 0.96067 0.58574 0.0
H2066 H 0.55415 0.03539 0.60252 0.0
H2067 H 0.57021 0.06361 0.59377 0.0
H2068 H 0.57854 0.05324 0.62416 0.0
H2069 H 0.64887 0.05916 0.61921 0.0
H2070 H 0.64105 0.07048 0.58887 0.0
H2071 H 0.67262 0.04684 0.59335 0.0
H2072 H 0.61968 0.97546 0.54575 0.0
H2073 H 0.5957 -0.00407 0.50966 0.0
H2074 H 0.58944 0.05922 0.55125 0.0
C2075 C 0.61547 0.00944 0.6333 0.0
C2076 C 0.61341 0.98612 0.64033 0.0
C2077 C 0.62292 0.96865 0.62353 0.0
C2078 C 0.63009 0.97421 0.59912 0.0
C2079 C 0.62792 -0.00274 0.59209 0.0
C2080 C 0.62219 0.0148 0.60881 0.0
C2081 C 0.61401 0.03747 0.59607 0.0
C2082 C 0.57704 0.04799 0.60464 0.0
C2083 C 0.64606 0.05449 0.59957 0.0
C2084 C 0.61189 0.02938 0.56985 0.0
C2085 C 0.62073 0.00622 0.568 0.0
C2086 C 0.61489 0.99383 0.5466 0.0
C2087 C 0.60078 0.00547 0.52637 0.0
C2088 C 0.59155 0.02906 0.52796 0.0
C2089 C 0.59753 0.04132 0.54971 0.0
H2090 H 0.50888 0.79442 0.30228 0.0
H2091 H 0.43743 0.73891 0.27838 0.0
H2092 H 0.40566 0.73952 0.31818 0.0
H2093 H 0.5252 0.77247 0.35834 0.0
H2094 H 0.52726 0.79975 0.37402 0.0
H2095 H 0.53737 0.79838 0.34198 0.0
H2096 H 0.4868 0.82936 0.33426 0.0
H2097 H 0.47573 0.82995 0.36647 0.0
H2098 H 0.44006 0.82415 0.34429 0.0
H2099 H 0.3869 0.74244 0.36151 0.0
H2100 H 0.39566 0.73941 0.4061 0.0
H2101 H 0.48 0.79229 0.40238 0.0
C2102 C 0.48575 0.78291 0.30515 0.0
C2103 C 0.47526 0.76695 0.28702 0.0
C2104 C 0.44613 0.75132 0.29197 0.0
C2105 C 0.42732 0.75186 0.31438 0.0
C2106 C 0.43798 0.76806 0.33176 0.0
C2107 C 0.46707 0.78301 0.32755 0.0
C2108 C 0.47821 0.79539 0.3507 0.0
C2109 C 0.51939 0.79121 0.35661 0.0
C2110 C 0.46967 0.82125 0.34881 0.0
C2111 C 0.45279 0.78374 0.36896 0.0
C2112 C 0.42836 0.76898 0.35747 0.0
C2113 C 0.40563 0.75409 0.37071 0.0
C2114 C 0.41071 0.75252 0.39609 0.0
C2115 C 0.43925 0.76514 0.40766 0.0
C2116 C 0.45775 0.78251 0.39425 0.0
H2117 H 0.54744 0.41118 0.10913 0.0
H2118 H 0.43095 0.4195 0.12401 0.0
H2119 H 0.41631 0.40857 0.08164 0.0
H2120 H 0.55244 0.43903 1.06153 0.0
H2121 H 0.58356 0.42211 1.04301 0.0
H2122 H 0.58435 0.41904 0.0755 0.0
H2123 H 0.57253 0.37528 0.07145 0.0
H2124 H 0.57197 0.37826 1.03855 0.0
H2125 H 0.53345 0.36509 1.05413 0.0
H2126 H 0.41585 0.41414 1.03785 0.0
H2127 H 0.42983 0.43219 0.99801 0.0
H2128 H 0.54607 0.41848 1.00878 0.0
C2129 C 0.51888 0.40905 0.10372 0.0
C2130 C 0.49033 0.41606 0.11956 0.0
C2131 C 0.45314 0.41402 0.11201 0.0
C2132 C 0.44462 0.40773 0.08796 0.0
C2133 C 0.47359 0.40327 0.07178 0.0
C2134 C 0.51013 0.40301 0.07955 0.0
C2135 C 0.53636 0.40268 1.05789 0.0
C2136 C 0.5658 0.42188 1.0596 0.0
C2137 C 0.55464 0.37891 1.05536 0.0
C2138 C 0.50933 0.40679 1.03717 0.0
C2139 C 0.47309 0.40586 1.04535 0.0
C2140 C 0.44387 0.41387 1.03092 0.0
C2141 C 0.45197 0.42422 1.00834 0.0
C2142 C 0.48894 0.42627 1.00037 0.0
C2143 C 0.51754 0.41623 1.01424 0.0
H2144 H 0.44585 0.02591 0.99522 0.0
H2145 H 0.44953 0.9517 1.00564 0.0
H2146 H 0.413 0.94654 0.96809 0.0
H2147 H 0.35643 0.03042 0.97151 0.0
H2148 H 0.36691 0.0516 0.94841 0.0
H2149 H 0.394 0.05025 0.97604 0.0
H2150 H 0.4546 0.04518 0.9512 0.0
H2151 H 0.42779 0.04802 0.92359 0.0
H2152 H 0.45691 0.02322 0.92796 0.0
H2153 H 0.37183 0.94946 0.93138 0.0
H2154 H 0.33979 0.95957 0.89306 0.0
H2155 H 0.36925 0.03138 0.90377 0.0
C2156 C 0.43996 0.0085 0.9894 0.0
C2157 C 0.45018 0.98925 1.00389 0.0
C2158 C 0.44121 0.96683 0.99544 0.0
C2159 C 0.42051 0.96367 0.97404 0.0
C2160 C 0.40968 0.98304 0.96085 0.0
C2161 C 0.42003 0.00496 0.96775 0.0
C2162 C 0.40593 0.02279 0.94971 0.0
C2163 C 0.37922 0.03975 0.96216 0.0
C2164 C 0.43824 0.03554 0.93739 0.0
C2165 C 0.38586 0.00741 0.93169 0.0
C2166 C 0.38788 0.98459 0.93871 0.0
C2167 C 0.37077 0.96721 0.92537 0.0
C2168 C 0.35268 0.97315 0.90358 0.0
C2169 C 0.35249 -0.00377 0.895 0.0
C2170 C 0.36849 0.01361 0.90974 0.0
H2171 H 0.89693 0.24289 0.97917 0.0
H2172 H 0.90849 0.17334 1.00728 0.0
H2173 H 0.94139 0.16199 0.96957 0.0
H2174 H 0.87923 0.22666 0.91776 0.0
H2175 H 0.90325 0.25134 0.90543 0.0
H2176 H 0.88277 0.25293 0.93536 0.0
H2177 H 0.94897 0.26422 0.95259 0.0
H2178 H 0.96558 0.26241 0.92155 0.0
H2179 H 0.98751 0.24561 0.94496 0.0
H2180 H 0.9705 0.1577 0.92759 0.0
H2181 H 0.989 0.16069 0.88381 0.0
H2182 H 0.95777 0.23265 0.8836 0.0
C2183 C 0.90684 0.22536 0.97754 0.0
C2184 C 0.89989 0.20898 0.99614 0.0
C2185 C 0.91286 0.18611 0.99311 0.0
C2186 C 0.93204 0.17956 0.9719 0.0
C2187 C 0.93828 0.1961 0.95388 0.0
C2188 C 0.92606 0.21855 0.9565 0.0
C2189 C 0.93362 0.23251 0.93363 0.0
C2190 C 0.8975 0.2414 0.92239 0.0
C2191 C 0.9605 0.25238 0.93857 0.0
C2192 C 0.95137 0.2144 0.91767 0.0
C2193 C 0.95445 0.19356 0.92972 0.0
C2194 C 0.96862 0.17402 0.91809 0.0
C2195 C 0.97916 0.17583 0.89337 0.0
C2196 C 0.97514 0.19694 0.88078 0.0
C2197 C 0.96163 0.21645 0.89316 0.0
H2198 H 0.46572 0.22739 0.40885 0.0
H2199 H 0.39748 0.1797 0.36796 0.0
H2200 H 0.35496 0.17639 0.40331 0.0
H2201 H 0.45381 0.19832 0.46798 0.0
H2202 H 0.45505 0.22521 0.48426 0.0
H2203 H 0.47971 0.22211 0.45573 0.0
H2204 H 0.44367 0.2581 0.43879 0.0
H2205 H 0.41887 0.26035 0.46729 0.0
H2206 H 0.39389 0.2576 0.4389 0.0
H2207 H 0.31905 0.17922 0.4435 0.0
H2208 H 0.2947 0.18703 0.48525 0.0
H2209 H 0.38688 0.23295 0.4987 0.0
C2210 C 0.44196 0.21614 0.40743 0.0
C2211 C 0.43498 0.20368 0.38582 0.0
C2212 C 0.40366 0.18907 0.38459 0.0
C2213 C 0.3792 0.18723 0.40447 0.0
C2214 C 0.38668 0.19998 0.42548 0.0
C2215 C 0.4175 0.21396 0.4271 0.0
C2216 C 0.41974 0.22562 0.45172 0.0
C2217 C 0.45412 0.21736 0.46576 0.0
C2218 C 0.419 0.25198 0.44901 0.0
C2219 C 0.38476 0.21671 0.46345 0.0
C2220 C 0.36613 0.20172 0.44823 0.0
C2221 C 0.33346 0.19093 0.45557 0.0
C2222 C 0.31983 0.19543 0.47922 0.0
C2223 C 0.33869 0.21079 0.49496 0.0
C2224 C 0.37145 0.22152 0.48683 0.0
H2225 H 0.85653 0.98796 0.4072 0.0
H2226 H 0.95097 0.96732 0.3634 0.0
H2227 H 0.98998 0.96684 0.40046 0.0
H2228 H 0.9042 0.02635 0.44472 0.0
H2229 H 0.87849 0.01972 0.47205 0.0
H2230 H 0.85737 0.01607 0.44248 0.0
H2231 H 0.84323 0.97316 0.45257 0.0
H2232 H 0.86411 0.97646 0.4823 0.0
H2233 H 0.88038 0.95442 0.46183 0.0
H2234 H 1.01978 0.97177 0.44223 0.0
H2235 H 1.03685 0.98084 0.48529 0.0
H2236 H 0.92264 -0.0024 0.50104 0.0
C2237 C 0.88529 0.98302 0.40546 0.0
C2238 C 0.90063 0.97758 0.38247 0.0
C2239 C 0.93841 0.97116 0.38093 0.0
C2240 C 0.96088 0.97096 0.40185 0.0
C2241 C 0.94502 0.97699 0.42418 0.0
C2242 C 0.90799 0.98264 0.42611 0.0
C2243 C 0.89788 0.98938 0.45193 0.0
C2244 C 0.88363 0.01434 0.45286 0.0
C2245 C 0.86973 0.97236 0.4628 0.0
C2246 C 0.93511 0.98713 0.46418 0.0
C2247 C 0.96206 0.9799 0.44796 0.0
C2248 C 0.99892 0.97742 0.45509 0.0
C2249 C 1.0084 0.98259 0.47943 0.0
C2250 C 0.98092 0.98979 0.49612 0.0
C2251 C 0.94397 0.99199 0.48844 0.0
H2252 H 0.60881 0.01401 0.14978 0.0
H2253 H 0.57471 0.94244 0.14395 0.0
H2254 H 0.60027 0.93481 0.18476 0.0
H2255 H 0.69519 -0.00042 0.17269 0.0
H2256 H 0.70008 0.02441 0.19215 0.0
H2257 H 0.67218 0.02611 0.16489 0.0
H2258 H 0.61659 0.03925 0.19014 0.0
H2259 H 0.64347 0.03775 0.21792 0.0
H2260 H 0.60108 0.02188 0.21528 0.0
H2261 H 0.6369 0.93339 0.22317 0.0
H2262 H 0.67594 0.93956 0.25949 0.0
H2263 H 0.69221 0.01087 0.23803 0.0
C2264 C 0.60604 -0.0032 0.15718 0.0
C2265 C 0.58984 0.97885 0.14342 0.0
C2266 C 0.58635 0.95667 0.15411 0.0
C2267 C 0.6013 0.95204 0.17721 0.0
C2268 C 0.61985 0.96967 0.18924 0.0
C2269 C 0.62188 0.99169 0.17978 0.0
C2270 C 0.64678 0.0069 0.19503 0.0
C2271 C 0.68058 0.01474 0.1803 0.0
C2272 C 0.62575 0.02771 0.20522 0.0
C2273 C 0.65775 0.99007 0.21486 0.0
C2274 C 0.64222 0.96865 0.21101 0.0
C2275 C 0.6492 0.95008 0.22644 0.0
C2276 C 0.67186 0.95368 0.2468 0.0
C2277 C 0.68733 0.97566 0.25143 0.0
C2278 C 0.68062 0.99393 0.23497 0.0
H2279 H 0.20315 0.74727 0.13712 0.0
H2280 H 0.27072 0.80873 0.14489 0.0
H2281 H 0.24458 0.81496 0.18595 0.0
H2282 H 0.12707 0.76718 0.16516 0.0
H2283 H 0.11352 0.74166 0.18188 0.0
H2284 H 0.13955 0.73915 0.15386 0.0
H2285 H 0.19144 0.71688 0.17468 0.0
H2286 H 0.16625 0.71749 0.20314 0.0
H2287 H 0.213 0.72798 0.20182 0.0
H2288 H 0.20556 0.8173 0.22365 0.0
H2289 H 0.16568 0.81137 0.25977 0.0
H2290 H 0.1275 0.7466 0.22948 0.0
C2291 C 0.21374 0.76158 0.14764 0.0
C2292 C 0.23852 0.7778 0.13724 0.0
C2293 C 0.25081 0.79646 0.15187 0.0
C2294 C 0.23634 0.80008 0.17537 0.0
C2295 C 0.21048 0.78449 0.18439 0.0
C2296 C 0.20049 0.76507 0.17146 0.0
C2297 C 0.17184 0.75111 0.18533 0.0
C2298 C 0.13578 0.74962 0.17069 0.0
C2299 C 0.18653 0.72697 0.19165 0.0
C2300 C 0.16698 0.76591 0.20798 0.0
C2301 C 0.18903 0.78532 0.20676 0.0
C2302 C 0.18836 0.80211 0.22491 0.0
C2303 C 0.16538 0.79869 0.24525 0.0
C2304 C 0.14345 0.77859 0.24737 0.0
C2305 C 0.1441 0.76208 0.22835 0.0
H2306 H 0.62504 0.79075 0.73674 0.0
H2307 H 0.60938 0.71708 0.74637 0.0
H2308 H 0.6414 0.71003 0.70742 0.0
H2309 H 0.60904 0.7897 0.66887 0.0
H2310 H 0.64219 0.8123 0.664 0.0
H2311 H 0.61637 0.81111 0.6922 0.0
H2312 H 0.67862 0.8118 0.71564 0.0
H2313 H 0.70435 0.81152 0.68739 0.0
H2314 H 0.71224 0.78954 0.7101 0.0
H2315 H 0.68269 0.71049 0.67113 0.0
H2316 H 0.71715 0.71832 0.63336 0.0
H2317 H 0.69758 0.7917 0.64292 0.0
C2318 C 0.62734 0.77316 0.7304 0.0
C2319 C 0.61548 0.75445 0.74514 0.0
C2320 C 0.61933 0.73171 0.73598 0.0
C2321 C 0.63736 0.72749 0.71378 0.0
C2322 C 0.65044 0.74619 0.70044 0.0
C2323 C 0.64445 0.76861 0.70783 0.0
C2324 C 0.66067 0.78551 0.68947 0.0
C2325 C 0.63024 0.80052 0.67796 0.0
C2326 C 0.69075 0.80046 0.70136 0.0
C2327 C 0.67713 0.76897 0.67091 0.0
C2328 C 0.67149 0.74642 0.67796 0.0
C2329 C 0.68615 0.72805 0.66488 0.0
C2330 C 0.70559 0.73274 0.64329 0.0
C2331 C 0.70921 0.75561 0.63438 0.0
C2332 C 0.69547 0.77398 0.64889 0.0
H2333 H 0.18003 0.97903 0.74772 0.0
H2334 H 0.29257 0.95943 0.73024 0.0
H2335 H 0.27417 0.9529 0.68697 0.0
H2336 H 0.13524 0.93776 0.7083 0.0
H2337 H 0.09837 0.95737 0.70095 0.0
H2338 H 0.12161 0.95925 0.73006 0.0
H2339 H 0.1361 0.00296 0.72006 0.0
H2340 H 0.11485 0.00053 0.69033 0.0
H2341 H 0.16211 0.00964 0.6929 0.0
H2342 H 0.24183 0.9494 0.64502 0.0
H2343 H 0.20016 0.95039 0.60914 0.0
H2344 H 0.10944 0.9714 0.65606 0.0
C2345 C 0.20097 0.97363 0.73475 0.0
C2346 C 0.23775 0.96987 0.74217 0.0
C2347 C 0.26418 0.96227 0.72483 0.0
C2348 C 0.25395 0.95855 0.70029 0.0
C2349 C 0.2172 0.96236 0.69363 0.0
C2350 C 0.19125 0.9697 0.71047 0.0
C2351 C 0.15366 0.97268 0.69904 0.0
C2352 C 0.12552 0.95584 0.71028 0.0
C2353 C 0.14086 -0.00209 0.70073 0.0
C2354 C 0.16225 0.96617 0.67303 0.0
C2355 C 0.19893 0.96013 0.67009 0.0
C2356 C 0.21299 0.95388 0.64729 0.0
C2357 C 0.18898 0.95429 0.62705 0.0
C2358 C 0.15142 0.96096 0.62981 0.0
C2359 C 0.13801 0.96648 0.65325 0.0
H2360 H 0.45796 0.48032 0.48137 0.0
H2361 H 0.42043 0.54403 0.51438 0.0
H2362 H 0.38454 0.55309 0.4771 0.0
H2363 H 0.46781 0.50492 0.4194 0.0
H2364 H 0.45425 0.47847 0.40482 0.0
H2365 H 0.47705 0.47771 0.43413 0.0
H2366 H 0.42167 0.45397 0.45134 0.0
H2367 H 0.39865 0.4556 0.42215 0.0
H2368 H 0.37564 0.46568 0.44935 0.0
H2369 H 0.34862 0.55353 0.43802 0.0
H2370 H 0.32452 0.54954 0.39609 0.0
H2371 H 0.39033 0.48752 0.38658 0.0
C2372 C 0.44237 0.49623 0.48054 0.0
C2373 C 0.44185 0.51154 0.5006 0.0
C2374 C 0.42138 0.53226 0.49902 0.0
C2375 C 0.40077 0.53746 0.47804 0.0
C2376 C 0.40117 0.52181 0.45874 0.0
C2377 C 0.42214 0.50191 0.4595 0.0
C2378 C 0.4191 0.48868 0.43567 0.0
C2379 C 0.45681 0.48735 0.42275 0.0
C2380 C 0.40278 0.46456 0.4399 0.0
C2381 C 0.39249 0.50401 0.4217 0.0
C2382 C 0.38207 0.5228 0.43552 0.0
C2383 C 0.35718 0.53915 0.42679 0.0
C2384 C 0.34378 0.53676 0.40286 0.0
C2385 C 0.3559 0.51844 0.38766 0.0
C2386 C 0.38003 0.50162 0.39758 0.0
H2387 H 0.87423 0.76594 0.49055 0.0
H2388 H 0.83778 0.6947 0.4957 0.0
H2389 H 0.86809 0.68639 0.4565 0.0
H2390 H 0.87054 0.77299 0.42534 0.0
H2391 H 0.91284 0.78913 0.4235 0.0
H2392 H 0.88474 0.79044 0.45074 0.0
H2393 H 0.94023 0.77885 0.47597 0.0
H2394 H 0.97 0.77476 0.44984 0.0
H2395 H 0.96209 0.75154 0.47119 0.0
H2396 H 0.90551 0.68485 0.41842 0.0
H2397 H 0.94285 0.69122 0.38132 0.0
H2398 H 0.9597 0.76248 0.40243 0.0
C2399 C 0.8723 0.74858 0.48348 0.0
C2400 C 0.85344 0.73103 0.49649 0.0
C2401 C 0.85127 0.70868 0.48611 0.0
C2402 C 0.86892 0.70365 0.46393 0.0
C2403 C 0.88899 0.72102 0.45247 0.0
C2404 C 0.89049 0.7431 0.4617 0.0
C2405 C 0.91576 0.75828 0.44653 0.0
C2406 C 0.89473 0.77895 0.43588 0.0
C2407 C 0.94904 0.76634 0.46174 0.0
C2408 C 0.92724 0.74137 0.4268 0.0
C2409 C 0.91183 0.71992 0.43084 0.0
C2410 C 0.91791 0.70151 0.41507 0.0
C2411 C 0.93946 0.70525 0.39417 0.0
C2412 C 0.95448 0.72727 0.38913 0.0
C2413 C 0.94869 0.74545 0.4059 0.0
H2414 H 0.45433 0.77326 0.90383 0.0
H2415 H 0.47701 0.70095 0.89012 0.0
H2416 H 0.45222 0.69106 0.93066 0.0
H2417 H 0.47419 0.77148 0.97122 0.0
H2418 H 0.43758 0.79143 0.97783 0.0
H2419 H 0.46169 0.79305 0.94898 0.0
H2420 H 0.39819 0.78906 0.92573 0.0
H2421 H 0.37626 0.78866 0.95535 0.0
H2422 H 0.36832 0.7655 0.9343 0.0
H2423 H 0.41995 0.68818 0.97037 0.0
H2424 H 0.38516 0.69275 1.00866 0.0
H2425 H 0.38036 0.76671 0.99656 0.0
C2426 C 0.45455 0.7554 0.90953 0.0
C2427 C 0.468 0.73792 0.89381 0.0
C2428 C 0.46772 0.71473 0.90196 0.0
C2429 C 0.45342 0.70889 0.92492 0.0
C2430 C 0.43964 0.7264 0.93967 0.0
C2431 C 0.44046 0.74923 0.93255 0.0
C2432 C 0.42241 0.76449 0.9517 0.0
C2433 C 0.45067 0.78107 0.96309 0.0
C2434 C 0.38938 0.77775 0.94108 0.0
C2435 C 0.40986 0.74647 0.97001 0.0
C2436 C 0.42056 0.72469 0.96281 0.0
C2437 C 0.41141 0.70515 0.97625 0.0
C2438 C 0.391 0.70793 0.99781 0.0
C2439 C 0.37937 0.73007 1.00561 0.0
C2440 C 0.38896 0.74955 0.99133 0.0
H2441 H 0.88027 0.48314 0.89957 0.0
H2442 H 0.89026 0.55496 0.87848 0.0
H2443 H 0.91893 0.56374 0.91832 0.0
H2444 H 0.85854 0.49434 0.96376 0.0
H2445 H 0.88404 0.4698 0.97475 0.0
H2446 H 0.86342 0.46919 0.94473 0.0
H2447 H 0.92818 0.46036 0.92493 0.0
H2448 H 0.9468 0.45987 0.95554 0.0
H2449 H 0.96647 0.47874 0.93294 0.0
H2450 H 0.94767 0.56471 0.9599 0.0
H2451 H 0.97145 0.55827 1.00151 0.0
H2452 H 0.9454 0.48543 0.99514 0.0
C2453 C 0.88835 0.50072 0.90342 0.0
C2454 C 0.88271 0.51841 0.886 0.0
C2455 C 0.89361 0.54121 0.89172 0.0
C2456 C 0.9102 0.54635 0.91422 0.0
C2457 C 0.91557 0.52852 0.93091 0.0
C2458 C 0.90474 0.5062 0.92592 0.0
C2459 C 0.9134 0.49034 0.94725 0.0
C2460 C 0.87772 0.48032 0.95827 0.0
C2461 C 0.94027 0.47115 0.93967 0.0
C2462 C 0.93161 0.50715 0.96466 0.0
C2463 C 0.93242 0.52908 0.95492 0.0
C2464 C 0.9474 0.54757 0.9677 0.0
C2465 C 0.96136 0.54363 0.99127 0.0
C2466 C 0.9607 0.52128 1.00182 0.0
C2467 C 0.94605 0.50281 0.98796 0.0
H2468 H 0.69632 0.47651 0.73362 0.0
H2469 H 0.67866 0.54653 0.75922 0.0
H2470 H 0.64576 0.55559 0.72099 0.0
H2471 H 0.70914 0.48898 0.67201 0.0
H2472 H 0.68423 0.46454 0.66019 0.0
H2473 H 0.7064 0.46287 0.68965 0.0
H2474 H 0.64396 0.45296 0.71164 0.0
H2475 H 0.62482 0.45194 0.68119 0.0
H2476 H 0.60377 0.46982 0.70392 0.0
H2477 H 0.61464 0.55711 0.68001 0.0
H2478 H 0.59072 0.5513 0.63802 0.0
H2479 H 0.62532 0.4798 0.64085 0.0
C2480 C 0.68528 0.49371 0.73144 0.0
C2481 C 0.69046 0.5108 0.74955 0.0
C2482 C 0.67606 0.53322 0.74548 0.0
C2483 C 0.65677 0.53848 0.72396 0.0
C2484 C 0.65145 0.52105 0.70687 0.0
C2485 C 0.66501 0.49906 0.71046 0.0
C2486 C 0.65569 0.48345 0.68919 0.0
C2487 C 0.69098 0.4744 0.67701 0.0
C2488 C 0.63062 0.46338 0.69702 0.0
C2489 C 0.63532 0.50026 0.67288 0.0
C2490 C 0.63281 0.52178 0.68351 0.0
C2491 C 0.61625 0.54031 0.67153 0.0
C2492 C 0.60276 0.53687 0.64777 0.0
C2493 C 0.60592 0.51508 0.63638 0.0
C2494 C 0.62177 0.4965 0.64934 0.0
H2495 H 0.12435 0.22885 0.74421 0.0
H2496 H 0.08057 0.2977 0.75603 0.0
H2497 H 0.10468 0.30962 0.71584 0.0
H2498 H 0.20929 0.24886 0.71915 0.0
H2499 H 0.21375 0.22532 0.69781 0.0
H2500 H 0.18956 0.22114 0.72632 0.0
H2501 H 0.1336 0.20667 0.70293 0.0
H2502 H 0.15498 0.21155 0.67355 0.0
H2503 H 0.11139 0.2249 0.68087 0.0
H2504 H 0.13767 0.31484 0.67551 0.0
H2505 H 0.17277 0.31197 0.63683 0.0
H2506 H 0.19933 0.24076 0.65353 0.0
C2507 C 0.11964 0.24646 0.7385 0.0
C2508 C 0.10043 0.26225 0.75355 0.0
C2509 C 0.09446 0.28501 0.74484 0.0
C2510 C 0.10852 0.29209 0.7221 0.0
C2511 C 0.12885 0.27634 0.7084 0.0
C2512 C 0.13427 0.25399 0.71625 0.0
C2513 C 0.15878 0.24075 0.69882 0.0
C2514 C 0.19499 0.23362 0.71129 0.0
C2515 C 0.13852 0.21971 0.68838 0.0
C2516 C 0.16564 0.25897 0.67957 0.0
C2517 C 0.14851 0.27948 0.68555 0.0
C2518 C 0.15132 0.2989 0.67068 0.0
C2519 C 0.17166 0.29716 0.64889 0.0
C2520 C 0.18894 0.27617 0.64223 0.0
C2521 C 0.18623 0.25698 0.65804 0.0
H2522 H 0.71195 0.27778 0.1548 0.0
H2523 H 0.69701 0.20711 0.1303 0.0
H2524 H 0.6579 0.19947 0.16597 0.0
H2525 H 0.7076 0.27026 0.22112 0.0
H2526 H 0.68024 0.29579 0.22431 0.0
H2527 H 0.71212 0.2932 0.19912 0.0
H2528 H 0.65604 0.30258 0.1709 0.0
H2529 H 0.62426 0.30237 0.19632 0.0
H2530 H 0.61681 0.28357 0.17059 0.0
H2531 H 0.617 0.19975 0.20244 0.0
H2532 H 0.58074 0.20746 0.23981 0.0
H2533 H 0.61902 0.27834 0.23924 0.0
C2534 C 0.70079 0.26062 0.15688 0.0
C2535 C 0.70836 0.24303 0.13963 0.0
C2536 C 0.693 0.22081 0.14343 0.0
C2537 C 0.67016 0.21631 0.16354 0.0
C2538 C 0.66235 0.23423 0.17955 0.0
C2539 C 0.67715 0.25596 0.17651 0.0
C2540 C 0.66163 0.27268 0.19517 0.0
C2541 C 0.69226 0.28359 0.21082 0.0
C2542 C 0.63829 0.29139 0.18249 0.0
C2543 C 0.63752 0.25654 0.20998 0.0
C2544 C 0.63785 0.23456 0.20037 0.0
C2545 C 0.61698 0.21678 0.21043 0.0
C2546 C 0.59648 0.22133 0.23162 0.0
C2547 C 0.59737 0.2434 0.24261 0.0
C2548 C 0.61743 0.26134 0.2312 0.0
H2549 H 0.12788 0.52802 0.14765 0.0
H2550 H 0.10354 0.45593 0.13409 0.0
H2551 H 0.12897 0.44579 0.17447 0.0
H2552 H 0.21492 0.51904 0.18045 0.0
H2553 H 0.2056 0.54289 0.20038 0.0
H2554 H 0.18674 0.54268 0.16982 0.0
H2555 H 0.12379 0.54941 0.19095 0.0
H2556 H 0.14107 0.54536 0.22164 0.0
H2557 H 0.10473 0.5272 0.20996 0.0
H2558 H 0.16057 0.4429 0.21459 0.0
H2559 H 0.19107 0.44788 0.25454 0.0
H2560 H 0.19479 0.52181 0.24272 0.0
C2561 C 0.12778 0.51013 0.15324 0.0
C2562 C 0.1134 0.4928 0.13778 0.0
C2563 C 0.1136 0.46958 0.14581 0.0
C2564 C 0.12841 0.46359 0.16859 0.0
C2565 C 0.14291 0.481 0.18315 0.0
C2566 C 0.14252 0.50381 0.17595 0.0
C2567 C 0.15928 0.51916 0.19543 0.0
C2568 C 0.19365 0.53174 0.18589 0.0
C2569 C 0.13055 0.53632 0.20513 0.0
C2570 C 0.16965 0.50128 0.21447 0.0
C2571 C 0.16023 0.47939 0.20686 0.0
C2572 C 0.16811 0.45994 0.22081 0.0
C2573 C 0.18587 0.46293 0.24332 0.0
C2574 C 0.19562 0.48521 0.25164 0.0
C2575 C 0.18749 0.50459 0.2369 0.0
H2576 H 0.44069 0.1684 0.21814 0.0
H2577 H 0.32418 0.18646 0.21747 0.0
H2578 H 0.31002 0.14978 0.19687 0.0
H2579 H 0.4424 0.14093 0.15882 0.0
H2580 H 0.47405 0.11851 0.16789 0.0
H2581 H 0.47556 0.14616 0.1828 0.0
H2582 H 0.46698 0.12643 0.22497 0.0
H2583 H 0.46572 0.09872 0.21021 0.0
H2584 H 0.42814 0.10752 0.22977 0.0
H2585 H 0.30792 0.1114 0.17672 0.0
H2586 H 0.31742 0.07291 0.15919 0.0
H2587 H 0.43551 0.07878 0.17189 0.0
C2588 C 0.41216 0.16461 0.21376 0.0
C2589 C 0.38352 0.18044 0.21953 0.0
C2590 C 0.34663 0.17474 0.21333 0.0
C2591 C 0.3383 0.15392 0.20156 0.0
C2592 C 0.36711 0.13887 0.19596 0.0
C2593 C 0.40331 0.14384 0.20189 0.0
C2594 C 0.42893 0.12445 0.19385 0.0
C2595 C 0.45689 0.13303 0.1747 0.0
C2596 C 0.4486 0.11364 0.21602 0.0
C2597 C 0.4014 0.10777 0.18257 0.0
C2598 C 0.36594 0.11657 0.18402 0.0
C2599 C 0.33555 0.10436 0.17545 0.0
C2600 C 0.34131 0.08243 0.1655 0.0
C2601 C 0.37725 0.07271 0.16403 0.0
C2602 C 0.40778 0.08578 0.17243 0.0
H2603 H 0.98412 0.07651 0.21204 0.0
H2604 H 0.87579 0.07609 0.24642 0.0
H2605 H 0.86462 0.11539 0.23164 0.0
H2606 H 1.00376 0.13868 0.22378 0.0
H2607 H 1.02652 0.14266 0.19472 0.0
H2608 H 1.02806 0.11501 0.20974 0.0
H2609 H 1.00099 0.09586 0.17093 0.0
H2610 H 0.99907 0.12344 0.15586 0.0
H2611 H 0.95785 0.10621 0.1586 0.0
H2612 H 0.86146 0.15232 0.21016 0.0
H2613 H 0.86834 0.18726 0.18529 0.0
H2614 H 0.97959 0.16644 0.16516 0.0
C2615 C 0.95845 0.08492 0.21692 0.0
C2616 C 0.93083 0.0731 0.23045 0.0
C2617 C 0.89736 0.08462 0.23607 0.0
C2618 C 0.89071 0.10703 0.22778 0.0
C2619 C 0.91787 0.11793 0.21396 0.0
C2620 C 0.9513 0.10753 0.20877 0.0
C2621 C 0.9749 0.12313 0.19264 0.0
C2622 C 1.01042 0.13029 0.20602 0.0
C2623 C 0.98371 0.11146 0.16805 0.0
C2624 C 0.94902 0.14356 0.18919 0.0
C2625 C 0.91633 0.14 0.20174 0.0
C2626 C 0.88708 0.15549 0.2005 0.0
C2627 C 0.89121 0.17523 0.18612 0.0
C2628 C 0.92447 0.1796 0.17322 0.0
C2629 C 0.95398 0.16363 0.17498 0.0
H2630 H 0.6356 0.83005 0.92121 0.0
H2631 H 0.75304 0.81698 0.9123 0.0
H2632 H 0.76702 0.85403 0.93214 0.0
H2633 H 0.63943 0.89182 0.9102 0.0
H2634 H 0.60487 0.89845 0.93291 0.0
H2635 H 0.60391 0.87112 0.91736 0.0
H2636 H 0.6053 0.85005 0.9592 0.0
H2637 H 0.60657 0.87732 0.97487 0.0
H2638 H 0.64201 0.85614 0.98052 0.0
H2639 H 0.76871 0.89222 0.95338 0.0
H2640 H 0.75792 0.9295 0.97367 0.0
H2641 H 0.63945 0.91814 0.96966 0.0
C2642 C 0.66425 0.83509 0.92319 0.0
C2643 C 0.6932 0.82055 0.91503 0.0
C2644 C 0.73031 0.82775 0.91827 0.0
C2645 C 0.73859 0.8488 0.92959 0.0
C2646 C 0.7095 0.86255 0.93769 0.0
C2647 C 0.67306 0.85608 0.93458 0.0
C2648 C 0.6471 0.87403 0.94528 0.0
C2649 C 0.62237 0.88447 0.92524 0.0
C2650 C 0.62388 0.86377 0.96621 0.0
C2651 C 0.67466 0.89156 0.95485 0.0
C2652 C 0.7105 0.88455 0.95025 0.0
C2653 C 0.74077 0.89788 0.95709 0.0
C2654 C 0.73432 0.91906 0.96867 0.0
C2655 C 0.69784 0.92682 0.97341 0.0
C2656 C 0.66768 0.91268 0.96653 0.0
H2657 H 0.1891 0.82881 0.96318 0.0
H2658 H 0.07152 0.81462 0.9678 0.0
H2659 H 0.05833 0.85206 0.94806 0.0
H2660 H 0.1835 0.88996 0.97526 0.0
H2661 H 0.21977 0.89719 0.95396 0.0
H2662 H 0.21978 0.86953 0.96892 0.0
H2663 H 0.222 0.84936 0.92667 0.0
H2664 H 0.22177 0.87696 0.91157 0.0
H2665 H 0.18704 0.85585 0.90418 0.0
H2666 H 0.05799 0.89125 0.92752 0.0
H2667 H 0.07038 0.92894 0.90826 0.0
H2668 H 0.18831 0.91737 0.91627 0.0
C2669 C 0.16052 0.8336 0.96024 0.0
C2670 C 0.13133 0.81868 0.96721 0.0
C2671 C 0.09439 0.82566 0.96273 0.0
C2672 C 0.08662 0.84693 0.95148 0.0
C2673 C 0.11605 0.86109 0.94468 0.0
C2674 C 0.15227 0.85471 0.94891 0.0
C2675 C 0.17888 0.87294 0.93957 0.0
C2676 C 0.20183 0.883 0.96069 0.0
C2677 C 0.20389 0.86319 0.91929 0.0
C2678 C 0.15199 0.8906 0.92941 0.0
C2679 C 0.11588 0.88344 0.93257 0.0
C2680 C 0.08618 0.89697 0.92492 0.0
C2681 C 0.09354 0.91839 0.91394 0.0
C2682 C 0.13034 0.92619 0.91057 0.0
C2683 C 0.15987 0.91192 0.91835 0.0
H2684 H 0.36479 0.66612 0.7245 0.0
H2685 H 0.48257 0.67989 0.7207 0.0
H2686 H 0.49208 0.64271 0.69965 0.0
H2687 H 0.37224 0.60388 0.73504 0.0
H2688 H 0.33225 0.59765 0.71653 0.0
H2689 H 0.33545 0.6247 0.7325 0.0
H2690 H 0.32524 0.64603 0.69163 0.0
H2691 H 0.32378 0.61939 0.67479 0.0
H2692 H 0.35695 0.64133 0.6667 0.0
H2693 H 0.48828 0.60488 0.6771 0.0
H2694 H 0.47247 0.56794 0.65764 0.0
H2695 H 0.35699 0.57852 0.67633 0.0
C2696 C 0.39271 0.66118 0.71963 0.0
C2697 C 0.42299 0.67596 0.72439 0.0
C2698 C 0.45897 0.66886 0.71745 0.0
C2699 C 0.46463 0.64779 0.70538 0.0
C2700 C 0.43408 0.63388 0.70054 0.0
C2701 C 0.3989 0.64013 0.70777 0.0
C2702 C 0.37067 0.62228 0.69996 0.0
C2703 C 0.35153 0.61149 0.72234 0.0
C2704 C 0.34242 0.63287 0.68222 0.0
C2705 C 0.39543 0.60502 0.68707 0.0
C2706 C 0.43188 0.6121 0.68756 0.0
C2707 C 0.45985 0.59913 0.67673 0.0
C2708 C 0.4505 0.57816 0.66559 0.0
C2709 C 0.41343 0.57019 0.66533 0.0
C2710 C 0.38556 0.58407 0.67604 0.0
H2711 H 0.87813 0.66582 0.66612 0.0
H2712 H 0.99279 0.68676 0.67441 0.0
H2713 H 1.00569 0.65183 0.6979 0.0
H2714 H 0.86835 0.63871 0.72604 0.0
H2715 H 0.84099 0.61494 0.71507 0.0
H2716 H 0.8392 0.64234 0.69955 0.0
H2717 H 0.8573 0.62264 0.65875 0.0
H2718 H 0.85884 0.59518 0.67411 0.0
H2719 H 0.89863 0.60533 0.65742 0.0
H2720 H 1.00766 0.61519 0.72008 0.0
H2721 H 0.99967 0.57641 0.73721 0.0
H2722 H 0.88471 0.57658 0.71423 0.0
C2723 C 0.90589 0.66299 0.67288 0.0
C2724 C 0.93431 0.67925 0.66841 0.0
C2725 C 0.97037 0.67476 0.67749 0.0
C2726 C 0.97808 0.65492 0.69101 0.0
C2727 C 0.94965 0.63936 0.6952 0.0
C2728 C 0.91437 0.64286 0.68624 0.0
C2729 C 0.88965 0.62252 0.69265 0.0
C2730 C 0.85765 0.63009 0.70932 0.0
C2731 C 0.87526 0.61072 0.66934 0.0
C2732 C 0.91677 0.60714 0.70637 0.0
C2733 C 0.95104 0.61748 0.70778 0.0
C2734 C 0.98096 0.60685 0.71911 0.0
C2735 C 0.97608 0.58477 0.72884 0.0
C2736 C 0.94157 0.57336 0.72713 0.0
C2737 C 0.91134 0.5849 0.71602 0.0
H2738 H 0.71672 0.32466 0.42109 0.0
H2739 H 0.60127 0.32548 0.3989 0.0
H2740 H 0.59333 0.36322 0.41781 0.0
H2741 H 0.70439 0.35214 0.47889 0.0
H2742 H 0.74543 0.36964 0.47725 0.0
H2743 H 0.74366 0.34252 0.46132 0.0
H2744 H 0.75932 0.36293 0.42024 0.0
H2745 H 0.76208 0.38978 0.43658 0.0
H2746 H 0.73176 0.38717 0.41055 0.0
H2747 H 0.59522 0.39919 0.44122 0.0
H2748 H 0.60933 0.43465 0.46379 0.0
H2749 H 0.72427 0.41354 0.46961 0.0
C2750 C 0.68994 0.33292 0.41996 0.0
C2751 C 0.65966 0.32178 0.40851 0.0
C2752 C 0.62506 0.33333 0.40751 0.0
C2753 C 0.62008 0.35489 0.4183 0.0
C2754 C 0.65001 0.36511 0.42986 0.0
C2755 C 0.68448 0.35486 0.43043 0.0
C2756 C 0.71183 0.37016 0.44393 0.0
C2757 C 0.72723 0.35788 0.4667 0.0
C2758 C 0.74309 0.37797 0.42677 0.0
C2759 C 0.68705 0.39029 0.45104 0.0
C2760 C 0.65144 0.38675 0.44286 0.0
C2761 C 0.62308 0.40233 0.44757 0.0
C2762 C 0.63138 0.42239 0.4606 0.0
C2763 C 0.66788 0.42697 0.46859 0.0
C2764 C 0.69607 0.41055 0.46381 0.0
H2765 H 0.19005 0.3292 0.46537 0.0
H2766 H 0.07244 0.31554 0.4718 0.0
H2767 H 0.05879 0.35402 0.45519 0.0
H2768 H 0.18605 0.38984 0.48146 0.0
H2769 H 0.22077 0.39837 0.45959 0.0
H2770 H 0.22175 0.36984 0.47259 0.0
H2771 H 0.22081 0.35229 0.42903 0.0
H2772 H 0.21964 0.38076 0.41589 0.0
H2773 H 0.18432 0.36016 0.40816 0.0
H2774 H 0.05719 0.39375 0.43837 0.0
H2775 H 0.06772 0.43259 0.42171 0.0
H2776 H 0.18628 0.42112 0.42433 0.0
C2777 C 0.16145 0.3344 0.46346 0.0
C2778 C 0.13231 0.31928 0.47003 0.0
C2779 C 0.09527 0.32669 0.46693 0.0
C2780 C 0.08719 0.34857 0.4575 0.0
C2781 C 0.11639 0.36293 0.45102 0.0
C2782 C 0.1528 0.35623 0.45378 0.0
C2783 C 0.1788 0.37504 0.44486 0.0
C2784 C 0.20329 0.38379 0.46588 0.0
C2785 C 0.20228 0.36655 0.4232 0.0
C2786 C 0.15126 0.39331 0.43678 0.0
C2787 C 0.11544 0.3859 0.44063 0.0
C2788 C 0.0851 0.39974 0.43519 0.0
C2789 C 0.09141 0.42183 0.42574 0.0
C2790 C 0.12781 0.42996 0.42157 0.0
C2791 C 0.15812 0.41535 0.42703 0.0
H2792 H 0.89391 0.091 0.64206 0.0
H2793 H 0.88048 0.04873 0.70702 0.0
H2794 H 0.87842 0.08353 0.73269 0.0
H2795 H 0.95052 0.13548 0.66969 0.0
H2796 H 0.92866 0.15888 0.65351 0.0
H2797 H 0.93041 0.13063 0.63995 0.0
H2798 H 0.85911 0.13085 0.63524 0.0
H2799 H 0.85749 0.15914 0.6487 0.0
H2800 H 0.83059 0.13605 0.66175 0.0
H2801 H 0.87995 0.12239 0.75172 0.0
H2802 H 0.88083 0.16364 0.76274 0.0
H2803 H 0.88808 0.18175 0.68576 0.0
C2804 C 0.89069 0.0892 0.66168 0.0
C2805 C 0.88731 0.06719 0.67259 0.0
C2806 C 0.88277 0.06544 0.6983 0.0
C2807 C 0.88172 0.0851 0.71306 0.0
C2808 C 0.88469 0.10654 0.70186 0.0
C2809 C 0.8887 0.10883 0.67677 0.0
C2810 C 0.88995 0.13412 0.66958 0.0
C2811 C 0.9271 0.14013 0.65747 0.0
C2812 C 0.85733 0.14039 0.65283 0.0
C2813 C 0.88622 0.14551 0.69452 0.0
C2814 C 0.88366 0.12921 0.71287 0.0
C2815 C 0.88155 0.13535 0.73751 0.0
C2816 C 0.88208 0.1588 0.74361 0.0
C2817 C 0.88405 0.17587 0.72514 0.0
C2818 C 0.88592 0.16907 0.70026 0.0
H2819 H 0.41862 0.18 0.69769 0.0
H2820 H 0.43052 0.1603 0.62154 0.0
H2821 H 0.43562 0.11942 0.63398 0.0
H2822 H 0.47985 0.13751 0.72423 0.0
H2823 H 0.45089 0.13199 0.75045 0.0
H2824 H 0.44993 0.15982 0.73581 0.0
H2825 H 0.37921 0.15628 0.72985 0.0
H2826 H 0.37991 0.12847 0.74452 0.0
H2827 H 0.36068 0.13151 0.71425 0.0
H2828 H 0.44197 0.08096 0.65471 0.0
H2829 H 0.44233 0.04685 0.68153 0.0
H2830 H 0.42028 0.09023 0.7445 0.0
C2831 C 0.4226 0.16705 0.68368 0.0
C2832 C 0.42471 0.17336 0.6586 0.0
C2833 C 0.42901 0.15589 0.64079 0.0
C2834 C 0.43203 0.13263 0.64772 0.0
C2835 C 0.42988 0.12698 0.67255 0.0
C2836 C 0.42465 0.14362 0.69025 0.0
C2837 C 0.42122 0.13267 0.71553 0.0
C2838 C 0.45233 0.141 0.73251 0.0
C2839 C 0.38298 0.13752 0.72669 0.0
C2840 C 0.42574 0.10728 0.70931 0.0
C2841 C 0.43123 0.10453 0.68441 0.0
C2842 C 0.43743 0.08292 0.67418 0.0
C2843 C 0.43778 0.06362 0.68966 0.0
C2844 C 0.43136 0.06575 0.71518 0.0
C2845 C 0.42507 0.08798 0.72508 0.0
H2846 H 0.22293 0.83653 0.40877 0.0
H2847 H 0.13413 0.80305 0.44845 0.0
H2848 H 0.12768 0.83716 0.4751 0.0
H2849 H 0.26334 0.86819 0.46014 0.0
H2850 H 0.272 0.89377 0.4423 0.0
H2851 H 0.27213 0.86594 0.42773 0.0
H2852 H 0.22279 0.88019 0.39696 0.0
H2853 H 0.22213 0.90798 0.41149 0.0
H2854 H 0.17989 0.8919 0.40826 0.0
H2855 H 0.12989 0.8754 0.4971 0.0
H2856 H 0.13731 0.91595 0.51028 0.0
H2857 H 0.2217 0.92544 0.45466 0.0
C2858 C 0.20254 0.83637 0.42329 0.0
C2859 C 0.1792 0.81716 0.42674 0.0
C2860 C 0.15225 0.81766 0.44556 0.0
C2861 C 0.14849 0.8369 0.46086 0.0
C2862 C 0.17156 0.85573 0.45692 0.0
C2863 C 0.19781 0.85575 0.43844 0.0
C2864 C 0.217 0.87894 0.43692 0.0
C2865 C 0.25859 0.87655 0.44209 0.0
C2866 C 0.21003 0.89042 0.41193 0.0
C2867 C 0.19751 0.8918 0.45739 0.0
C2868 C 0.17173 0.87806 0.46893 0.0
C2869 C 0.15008 0.88633 0.48821 0.0
C2870 C 0.15453 0.90936 0.49565 0.0
C2871 C 0.18011 0.92394 0.48361 0.0
C2872 C 0.202 0.91481 0.46438 0.0
H2873 H 0.68186 0.83009 0.46253 0.0
H2874 H 0.56568 0.8141 0.47291 0.0
H2875 H 0.54884 0.85195 0.45558 0.0
H2876 H 0.67577 0.89064 0.47743 0.0
H2877 H 0.70891 0.8992 0.45451 0.0
H2878 H 0.71179 0.87102 0.46819 0.0
H2879 H 0.70922 0.85247 0.42511 0.0
H2880 H 0.70612 0.88059 0.41131 0.0
H2881 H 0.67128 0.85926 0.40496 0.0
H2882 H 0.54454 0.89193 0.43724 0.0
H2883 H 0.55325 0.93062 0.41921 0.0
H2884 H 0.67206 0.92017 0.41969 0.0
C2885 C 0.65286 0.83458 0.46134 0.0
C2886 C 0.62513 0.81905 0.46926 0.0
C2887 C 0.58751 0.82563 0.46709 0.0
C2888 C 0.57763 0.84713 0.45722 0.0
C2889 C 0.60561 0.86193 0.44946 0.0
C2890 C 0.64247 0.85594 0.45139 0.0
C2891 C 0.66714 0.87488 0.4414 0.0
C2892 C 0.69239 0.8845 0.46159 0.0
C2893 C 0.68977 0.86628 0.41939 0.0
C2894 C 0.63843 0.89247 0.43359 0.0
C2895 C 0.6031 0.88471 0.43846 0.0
C2896 C 0.57209 0.89814 0.43327 0.0
C2897 C 0.57733 0.92011 0.42301 0.0
C2898 C 0.6133 0.92847 0.41785 0.0
C2899 C 0.64415 0.91427 0.42313 0.0
H2900 H 0.90766 0.5869 0.14819 0.0
H2901 H 0.83912 0.55346 0.20282 0.0
H2902 H 0.83655 0.58968 0.22651 0.0
H2903 H 0.96005 0.62221 0.18776 0.0
H2904 H 0.96017 0.64713 0.16804 0.0
H2905 H 0.95632 0.61875 0.15505 0.0
H2906 H 0.89567 0.63053 0.13317 0.0
H2907 H 0.89959 0.65904 0.14587 0.0
H2908 H 0.85817 0.64245 0.15084 0.0
H2909 H 0.8473 0.62833 0.24648 0.0
H2910 H 0.86122 0.66877 0.25772 0.0
H2911 H 0.91631 0.6786 0.18802 0.0
C2912 C 0.89171 0.58736 0.16497 0.0
C2913 C 0.87355 0.56741 0.17371 0.0
C2914 C 0.8529 0.56862 0.1957 0.0
C2915 C 0.85152 0.58906 0.20937 0.0
C2916 C 0.87022 0.60833 0.20051 0.0
C2917 C 0.88907 0.60787 0.17848 0.0
C2918 C 0.90574 0.63124 0.17271 0.0
C2919 C 0.94808 0.62973 0.17078 0.0
C2920 C 0.88877 0.64142 0.14926 0.0
C2921 C 0.894 0.64475 0.19518 0.0
C2922 C 0.87406 0.63109 0.21118 0.0
C2923 C 0.86229 0.6393 0.2339 0.0
C2924 C 0.87051 0.66218 0.24021 0.0
C2925 C 0.88952 0.67668 0.22365 0.0
C2926 C 0.90136 0.66785 0.20086 0.0
H2927 H 0.39621 0.57557 0.21293 0.0
H2928 H 0.51421 0.56583 0.22285 0.0
H2929 H 0.52539 0.60499 0.20679 0.0
H2930 H 0.40285 0.60705 0.15616 0.0
H2931 H 0.36492 0.62611 0.16304 0.0
H2932 H 0.3659 0.59752 0.17588 0.0
H2933 H 0.36012 0.61456 0.21951 0.0
H2934 H 0.35899 0.64319 0.2068 0.0
H2935 H 0.39301 0.63582 0.22961 0.0
H2936 H 0.52394 0.64535 0.18968 0.0
H2937 H 0.51025 0.68368 0.17257 0.0
H2938 H 0.3931 0.66746 0.17265 0.0
C2939 C 0.42441 0.5817 0.21189 0.0
C2940 C 0.45434 0.56751 0.21933 0.0
C2941 C 0.49079 0.57624 0.21735 0.0
C2942 C 0.49744 0.59852 0.20823 0.0
C2943 C 0.46739 0.61196 0.20095 0.0
C2944 C 0.43158 0.60389 0.20262 0.0
C2945 C 0.4043 0.62173 0.19312 0.0
C2946 C 0.38325 0.61255 0.17072 0.0
C2947 C 0.37753 0.62927 0.21347 0.0
C2948 C 0.43033 0.64116 0.18599 0.0
C2949 C 0.46659 0.63513 0.1907 0.0
C2950 C 0.49564 0.65021 0.18588 0.0
C2951 C 0.48751 0.67203 0.1761 0.0
C2952 C 0.45057 0.67876 0.17107 0.0
C2953 C 0.42166 0.66293 0.17608 0.0
H2954 H 0.22687 0.41997 0.96315 0.0
H2955 H 0.10969 0.42974 0.97742 0.0
H2956 H 0.09638 0.39214 0.95904 0.0
H2957 H 0.2174 0.39185 0.9054 0.0
H2958 H 0.25406 0.37132 0.91032 0.0
H2959 H 0.25554 0.39893 0.92522 0.0
H2960 H 0.26102 0.37928 0.96751 0.0
H2961 H 0.26028 0.35152 0.95283 0.0
H2962 H 0.22716 0.3581 0.97647 0.0
H2963 H 0.09469 0.35444 0.93801 0.0
H2964 H 0.10529 0.31686 0.91847 0.0
H2965 H 0.22354 0.32993 0.91839 0.0
C2966 C 0.19843 0.41409 0.96262 0.0
C2967 C 0.16933 0.42797 0.9718 0.0
C2968 C 0.13254 0.41959 0.97063 0.0
C2969 C 0.12463 0.39821 0.9601 0.0
C2970 C 0.15371 0.38517 0.95091 0.0
C2971 C 0.18996 0.39255 0.9523 0.0
C2972 C 0.2159 0.37478 0.94124 0.0
C2973 C 0.23695 0.38482 0.91922 0.0
C2974 C 0.24267 0.36537 0.96067 0.0
C2975 C 0.18845 0.35647 0.93328 0.0
C2976 C 0.15276 0.36296 0.93898 0.0
C2977 C 0.12251 0.34909 0.93352 0.0
C2978 C 0.12889 0.32777 0.92232 0.0
C2979 C 0.16526 0.32036 0.91679 0.0
C2980 C 0.19541 0.33508 0.92222 0.0
H2981 H 0.61445 0.33168 0.97859 0.0
H2982 H 0.73071 0.31604 0.9675 0.0
H2983 H 0.73861 0.35277 0.94557 0.0
H2984 H 0.59758 0.35894 0.92097 0.0
H2985 H 0.5679 0.38106 0.93323 0.0
H2986 H 0.57105 0.35352 0.94832 0.0
H2987 H 0.58863 0.37399 0.98851 0.0
H2988 H 0.58729 0.40179 0.97387 0.0
H2989 H 0.62855 0.39254 0.98934 0.0
H2990 H 0.73395 0.39002 0.92359 0.0
H2991 H 0.71856 0.42762 0.90573 0.0
H2992 H 0.60552 0.42054 0.93161 0.0
C2993 C 0.64163 0.33607 0.97171 0.0
C2994 C 0.672 0.32092 0.97482 0.0
C2995 C 0.70707 0.32734 0.96552 0.0
C2996 C 0.71182 0.34814 0.95289 0.0
C2997 C 0.68132 0.36248 0.94985 0.0
C2998 C 0.647 0.35694 0.95921 0.0
C2999 C 0.61913 0.37587 0.95385 0.0
C3000 C 0.58702 0.3668 0.93816 0.0
C3001 C 0.60506 0.38667 0.97782 0.0
C3002 C 0.64307 0.39266 0.93956 0.0
C3003 C 0.6788 0.38447 0.9375 0.0
C3004 C 0.70612 0.39669 0.92517 0.0
C3005 C 0.69697 0.41808 0.91501 0.0
C3006 C 0.66076 0.42724 0.91724 0.0
C3007 C 0.63338 0.41413 0.9295 0.0
H3008 H 0.27264 0.00467 0.0776 0.0
H3009 H 0.38373 0.00086 1.04827 0.0
H3010 H 0.358 -0.00169 1.00648 0.0
H3011 H 0.2292 0.96528 1.0329 0.0
H3012 H 0.18676 0.98135 1.03023 0.0
H3013 H 0.21331 0.98266 1.05813 0.0
H3014 H 0.21592 0.02689 1.0547 0.0
H3015 H 0.18937 0.0257 1.0268 0.0
H3016 H 0.23359 0.03996 1.02712 0.0
H3017 H 0.31878 -0.0046 0.96534 0.0
H3018 H 0.27372 0.99425 0.93174 0.0
H3019 H 0.18446 0.00069 0.98434 0.0
C3020 C 0.29186 0.00336 1.06249 0.0
C3021 C 0.33141 0.00297 1.06757 0.0
C3022 C 0.35401 0.00121 1.0462 0.0
C3023 C 0.33928 -0.00025 1.02186 0.0
C3024 C 0.30081 0.00017 1.01767 0.0
C3025 C 0.27729 0.00205 1.03753 0.0
C3026 C 0.23684 0.00233 1.02764 0.0
C3027 C 0.21523 0.98168 1.03784 0.0
C3028 C 0.21778 0.02507 1.03448 0.0
C3029 C 0.24106 0.00033 0.99931 0.0
C3030 C 0.27849 -0.001 0.99417 0.0
C3031 C 0.28969 -0.00327 0.96962 0.0
C3032 C 0.26316 -0.004 0.9502 0.0
C3033 C 0.22407 -0.00257 0.95401 0.0
C3034 C 0.21346 -0.00037 0.97965 0.0
H3035 H 0.06176 0.24417 0.95798 0.0
H3036 H 0.17039 0.25148 0.99029 0.0
H3037 H 0.1421 0.25072 1.0315 0.0
H3038 H 1.01065 0.28014 1.00762 0.0
H3039 H 0.97089 0.2621 1.0025 0.0
H3040 H 1.00434 0.26691 0.97845 0.0
H3041 H 1.00517 0.22027 0.97762 0.0
H3042 H 0.97733 0.21873 1.00501 0.0
H3043 H 1.02239 0.20567 1.00436 0.0
H3044 H 0.09947 0.25011 0.0723 0.0
H3045 H 0.05146 0.24844 0.10443 0.0
H3046 H 0.96776 0.24004 1.04855 0.0
C3047 C 0.07997 0.24558 0.97361 0.0
C3048 C 0.11967 0.24783 0.96946 0.0
C3049 C 0.14067 0.24968 0.99155 0.0
C3050 C 0.12442 0.24928 1.01561 0.0
C3051 C 0.08588 0.24703 1.01888 0.0
C3052 C 0.06385 0.24525 0.99829 0.0
C3053 C 1.02296 0.24323 1.00711 0.0
C3054 C 1.00077 0.26425 0.99838 0.0
C3055 C 1.0059 0.22066 0.99793 0.0
C3056 C 1.02519 0.24332 1.03557 0.0
C3057 C 0.06196 0.24603 1.0419 0.0
C3058 C 0.07092 0.24781 1.06697 0.0
C3059 C 0.04278 0.24685 0.08554 0.0
C3060 C 1.00433 0.2438 0.08035 0.0
C3061 C 0.99616 0.24201 1.05429 0.0
H3062 H 0.28697 0.25342 0.30665 0.0
H3063 H 0.39354 0.23584 0.33747 0.0
H3064 H 0.36642 0.23631 0.37884 0.0
H3065 H 0.2531 0.29051 0.35875 0.0
H3066 H 0.20648 0.27984 0.35609 0.0
H3067 H 0.23664 0.28017 0.32975 0.0
H3068 H 0.22172 0.23645 0.32528 0.0
H3069 H 0.19553 0.23622 0.35347 0.0
H3070 H 0.23411 0.21706 0.34974 0.0
H3071 H 0.32649 0.23972 0.42 0.0
H3072 H 0.2801 0.24277 0.45302 0.0
H3073 H 0.19506 0.25507 0.39878 0.0
C3074 C 0.30494 0.24971 0.32198 0.0
C3075 C 0.34388 0.24475 0.31736 0.0
C3076 C 0.36447 0.23979 0.33911 0.0
C3077 C 0.34891 0.24 0.36327 0.0
C3078 C 0.31121 0.24482 0.36705 0.0
C3079 C 0.28929 0.24938 0.34684 0.0
C3080 C 0.24903 0.25301 0.35633 0.0
C3081 C 0.23544 0.27731 0.34983 0.0
C3082 C 0.22356 0.2346 0.34549 0.0
C3083 C 0.2516 0.25011 0.38469 0.0
C3084 C 0.28814 0.24562 0.39037 0.0
C3085 C 0.29796 0.24302 0.41522 0.0
C3086 C 0.2708 0.2449 0.43432 0.0
C3087 C 0.23242 0.24908 0.42982 0.0
C3088 C 0.22336 0.25161 0.40393 0.0
H3089 H 0.05964 0.99323 0.30435 0.0
H3090 H 0.95523 0.01601 0.33494 0.0
H3091 H 0.9836 0.01724 0.37583 0.0
H3092 H 0.08647 0.95681 0.35791 0.0
H3093 H 0.135 0.96369 0.35702 0.0
H3094 H 0.10797 0.96463 0.32929 0.0
H3095 H 0.1277 0.00653 0.32187 0.0
H3096 H 0.15523 0.00566 0.34937 0.0
H3097 H 0.12053 0.02768 0.34556 0.0
H3098 H 1.02342 0.01543 0.41632 0.0
H3099 H 0.06839 0.01169 0.44975 0.0
H3100 H 0.15193 0.99033 0.39753 0.0
C3101 C 0.04244 -0.00141 0.31952 0.0
C3102 C 1.00376 0.00472 0.3148 0.0
C3103 C 0.9841 0.0113 0.33644 0.0
C3104 C 1.00038 0.01203 0.36039 0.0
C3105 C 1.03766 0.00596 0.36425 0.0
C3106 C 0.05869 -0.00066 0.3443 0.0
C3107 C 0.09839 0.99358 0.35417 0.0
C3108 C 0.10752 0.96817 0.34928 0.0
C3109 C 0.12718 0.00929 0.34201 0.0
C3110 C 0.09654 -0.00179 0.38244 0.0
C3111 C 0.06076 0.00519 0.38756 0.0
C3112 C 0.05132 0.01005 0.41201 0.0
C3113 C 0.07779 0.00777 0.4314 0.0
C3114 C 0.11537 0.00078 0.42785 0.0
C3115 C 0.12432 -0.00397 0.40216 0.0
H3116 H 0.81356 -0.00068 0.18566 0.0
H3117 H 0.922 0.99417 0.15229 0.0
H3118 H 0.89238 0.99133 0.11175 0.0
H3119 H 0.76597 0.95988 0.14203 0.0
H3120 H 0.72368 0.97616 0.1405 0.0
H3121 H 0.75219 0.9774 0.16764 0.0
H3122 H 0.75595 0.02201 0.16367 0.0
H3123 H 0.72722 0.02076 0.13656 0.0
H3124 H 0.77177 0.03443 0.13536 0.0
H3125 H 0.8513 0.992 0.07144 0.0
H3126 H 0.80392 0.99189 1.03907 0.0
H3127 H 0.71828 -0.00484 0.09448 0.0
C3128 C 0.83155 -0.00229 0.16993 0.0
C3129 C 0.87162 -0.0028 0.17373 0.0
C3130 C 0.89212 -0.00504 0.15145 0.0
C3131 C 0.87531 0.99346 0.1277 0.0
C3132 C 0.83677 0.99446 0.12466 0.0
C3133 C 0.81493 -0.00364 0.14532 0.0
C3134 C 0.77387 -0.00318 0.13639 0.0
C3135 C 0.75261 0.97638 0.14732 0.0
C3136 C 0.75604 0.01985 0.14347 0.0
C3137 C 0.77591 0.9947 0.10787 0.0
C3138 C 0.81292 0.99365 0.10166 0.0
C3139 C 0.82245 0.99262 0.07665 0.0
C3140 C 0.79462 0.99259 1.0579 0.0
C3141 C 0.75575 0.99324 1.06278 0.0
C3142 C 0.74694 0.99427 0.08891 0.0
H3143 H 0.04097 0.73815 1.05486 0.0
H3144 H 0.1381 0.77267 0.08311 0.0
H3145 H 0.10876 0.7748 0.12374 0.0
H3146 H 0.97339 0.77161 0.09354 0.0
H3147 H 0.94305 0.74741 0.09796 0.0
H3148 H 0.97106 0.74938 0.07066 0.0
H3149 H 0.99746 0.70898 0.08047 0.0
H3150 H 0.96964 0.70762 0.10783 0.0
H3151 H 1.01904 0.70398 0.10975 0.0
H3152 H 0.06638 0.77361 0.16454 0.0
H3153 H 1.02191 0.76688 0.19789 0.0
H3154 H 0.94756 0.73462 0.14621 0.0
C3155 C 0.05642 0.74615 0.06951 0.0
C3156 C 0.09325 0.75523 1.06434 0.0
C3157 C 0.11068 0.76546 0.08515 0.0
C3158 C 0.09385 0.76669 0.10894 0.0
C3159 C 0.05829 0.75761 0.1133 0.0
C3160 C 1.03962 0.74757 0.09396 0.0
C3161 C 1.00119 0.73954 0.10377 0.0
C3162 C 0.97032 0.75277 0.09065 0.0
C3163 C 0.99655 0.71347 0.10023 0.0
C3164 C 1.00145 0.74582 0.13155 0.0
C3165 C 1.0348 0.75648 0.13648 0.0
C3166 C 0.04136 0.76431 0.16052 0.0
C3167 C 1.01505 0.7606 0.1798 0.0
C3168 C 0.98007 0.74987 0.17607 0.0
C3169 C 0.97356 0.74271 0.15082 0.0
H3170 H 0.88734 0.74192 0.74005 0.0
H3171 H 0.80167 0.75705 0.68688 0.0
H3172 H 0.75614 0.75958 0.72006 0.0
H3173 H 0.82677 0.7069 0.78116 0.0
H3174 H 0.84683 0.717 0.80936 0.0
H3175 H 0.87418 0.71639 0.78174 0.0
H3176 H 0.88852 0.75955 0.78674 0.0
H3177 H 0.8612 0.76028 0.81438 0.0
H3178 H 0.85099 0.7798 0.7896 0.0
H3179 H 0.71656 0.76245 0.76052 0.0
H3180 H 0.68882 0.76255 0.80162 0.0
H3181 H 0.79492 0.74407 0.83287 0.0
C3182 C 0.85909 0.74594 0.73517 0.0
C3183 C 0.84974 0.74941 0.70937 0.0
C3184 C 0.81143 0.75432 0.70539 0.0
C3185 C 0.78463 0.75593 0.72461 0.0
C3186 C 0.79462 0.75265 0.74926 0.0
C3187 C 0.83106 0.74754 0.7547 0.0
C3188 C 0.83348 0.74428 0.78313 0.0
C3189 C 0.84609 0.71968 0.78922 0.0
C3190 C 0.86017 0.76202 0.79412 0.0
C3191 C 0.79323 0.7485 0.79269 0.0
C3192 C 0.77153 0.75343 0.77251 0.0
C3193 C 0.73383 0.75844 0.77614 0.0
C3194 C 0.71793 0.75846 0.80018 0.0
C3195 C 0.73822 0.75325 0.82198 0.0
C3196 C 0.77722 0.74809 0.81749 0.0
H3197 H 0.93289 0.00419 0.73752 0.0
H3198 H 1.01765 0.99319 0.68263 0.0
H3199 H 0.06426 0.99056 0.71527 0.0
H3200 H 0.99235 0.03978 0.77667 0.0
H3201 H 0.9776 0.02973 0.80617 0.0
H3202 H 0.94583 0.0293 0.78064 0.0
H3203 H 0.93403 0.9862 0.78338 0.0
H3204 H 0.96148 0.98565 0.81096 0.0
H3205 H 0.9722 0.96647 0.78602 0.0
H3206 H 0.10566 0.98888 0.75519 0.0
H3207 H 0.13452 0.98788 0.79582 0.0
H3208 H 1.02772 0.00134 0.82892 0.0
C3209 C 0.96122 0.00109 0.73212 0.0
C3210 C 0.97001 -0.00119 0.70609 0.0
C3211 C 1.00841 -0.00491 0.70137 0.0
C3212 C 1.03582 0.99349 0.72022 0.0
C3213 C 1.02645 -0.00423 0.74509 0.0
C3214 C 0.98988 -0.00034 0.75118 0.0
C3215 C 0.98816 0.0023 0.77966 0.0
C3216 C 0.9751 0.0267 0.78619 0.0
C3217 C 0.96241 0.98407 0.7907 0.0
C3218 C 1.02876 -0.00149 0.78861 0.0
C3219 C 0.05024 -0.00507 0.76803 0.0
C3220 C 0.08843 0.99129 0.77107 0.0
C3221 C 0.105 0.99083 0.79488 0.0
C3222 C 0.08479 0.99433 0.81706 0.0
C3223 C 0.04533 -0.00158 0.81321 0.0
H3224 H 0.3535 0.48526 0.5523 0.0
H3225 H 0.28417 0.5297 0.59656 0.0
H3226 H 0.24069 0.53352 0.56216 0.0
H3227 H 0.33478 0.51487 0.49288 0.0
H3228 H 0.33313 0.48911 0.47464 0.0
H3229 H 0.36078 0.4898 0.50214 0.0
H3230 H 0.32613 0.45451 0.51903 0.0
H3231 H 0.29865 0.45343 0.49151 0.0
H3232 H 0.27639 0.45513 0.52099 0.0
H3233 H 0.20115 0.53272 0.52163 0.0
H3234 H 0.17185 0.5274 0.48138 0.0
H3235 H 0.26118 0.48199 0.45989 0.0
C3236 C 0.32927 0.4959 0.55495 0.0
C3237 C 0.32375 0.50726 0.57853 0.0
C3238 C 0.29062 0.52065 0.57978 0.0
C3239 C 0.26512 0.52297 0.55987 0.0
C3240 C 0.27097 0.51147 0.53754 0.0
C3241 C 0.30237 0.49808 0.53489 0.0
C3242 C 0.30119 0.48745 0.5086 0.0
C3243 C 0.33452 0.49576 0.49368 0.0
C3244 C 0.30057 0.46105 0.51012 0.0
C3245 C 0.26453 0.49672 0.49707 0.0
C3246 C 0.24785 0.51069 0.51436 0.0
C3247 C 0.21428 0.52156 0.50837 0.0
C3248 C 0.19731 0.51823 0.48495 0.0
C3249 C 0.21241 0.50386 0.46621 0.0
C3250 C 0.24748 0.49309 0.47295 0.0
H3251 H 0.13144 0.76214 0.48825 0.0
H3252 H 0.055 0.731 0.4371 0.0
H3253 H 1.01008 0.72573 0.4706 0.0
H3254 H 0.10508 0.72652 0.54219 0.0
H3255 H 0.10885 0.74954 0.56413 0.0
H3256 H 0.13636 0.75009 0.53658 0.0
H3257 H 0.11016 0.7901 0.5258 0.0
H3258 H 0.08262 0.78969 0.55334 0.0
H3259 H 0.06083 0.7941 0.52403 0.0
H3260 H 0.96828 0.72576 0.51137 0.0
H3261 H 0.93963 0.7281 0.55219 0.0
H3262 H 1.03873 0.76052 0.58027 0.0
C3263 C 0.10512 0.75436 0.48384 0.0
C3264 C 0.09813 0.7471 0.45865 0.0
C3265 C 0.06248 0.7371 0.45516 0.0
C3266 C 1.03602 0.73417 0.47454 0.0
C3267 C 0.04334 0.7419 0.49855 0.0
C3268 C 0.07733 0.75183 0.5033 0.0
C3269 C 0.07796 0.75855 0.53102 0.0
C3270 C 0.10892 0.74541 0.54427 0.0
C3271 C 0.08323 0.78467 0.53371 0.0
C3272 C 1.03931 0.75112 0.5411 0.0
C3273 C 1.01997 0.74145 0.52181 0.0
C3274 C 0.98388 0.73329 0.52624 0.0
C3275 C 0.96739 0.73475 0.55012 0.0
C3276 C 0.98551 0.74447 0.57099 0.0
C3277 C 1.02275 0.75287 0.56567 0.0
H3278 H 0.36853 0.75078 0.83932 0.0
H3279 H 0.28148 0.73895 0.78634 0.0
H3280 H 0.23562 0.73855 0.81973 0.0
H3281 H 0.33059 0.71621 0.88892 0.0
H3282 H 0.33991 0.73519 0.91407 0.0
H3283 H 0.36918 0.73577 0.8873 0.0
H3284 H 0.35894 0.77806 0.88125 0.0
H3285 H 0.32716 0.78091 0.90664 0.0
H3286 H 0.31307 0.78935 0.87652 0.0
H3287 H 0.19594 0.73902 0.86065 0.0
H3288 H 0.16879 0.74186 0.90185 0.0
H3289 H 0.27758 0.75507 0.93195 0.0
C3290 C 0.33988 0.74795 0.83454 0.0
C3291 C 0.33004 0.74469 0.80887 0.0
C3292 C 0.29133 0.74149 0.80486 0.0
C3293 C 0.26446 0.74119 0.82416 0.0
C3294 C 0.27493 0.74445 0.84874 0.0
C3295 C 0.3119 0.74797 0.85402 0.0
C3296 C 0.315 0.75206 0.88219 0.0
C3297 C 0.34023 0.73377 0.89381 0.0
C3298 C 0.32954 0.77649 0.88695 0.0
C3299 C 0.27462 0.74968 0.892 0.0
C3300 C 0.25208 0.74534 0.87208 0.0
C3301 C 0.21389 0.74253 0.87604 0.0
C3302 C 0.19835 0.74423 0.90012 0.0
C3303 C 0.21969 0.74884 0.92162 0.0
C3304 C 0.25916 0.75155 0.91682 0.0
H3305 H 0.06199 0.49647 0.93178 0.0
H3306 H 0.1712 0.50677 0.90093 0.0
H3307 H 0.14395 0.50916 0.85978 0.0
H3308 H 1.02745 0.46059 0.8767 0.0
H3309 H 0.98131 0.47154 0.88119 0.0
H3310 H 1.01303 0.46936 0.90666 0.0
H3311 H 0.99764 0.51364 0.91343 0.0
H3312 H 0.97059 0.51448 0.88571 0.0
H3313 H 1.00931 0.53365 0.88938 0.0
H3314 H 0.10471 0.51012 0.81931 0.0
H3315 H 0.05965 0.50956 0.78573 0.0
H3316 H 0.97132 0.49874 0.83823 0.0
C3317 C 0.08044 0.49942 0.91649 0.0
C3318 C 0.12012 0.5016 0.92112 0.0
C3319 C 0.14151 0.50502 0.89939 0.0
C3320 C 0.1259 0.50645 0.87533 0.0
C3321 C 0.08759 0.50426 0.87154 0.0
C3322 C 0.06494 0.50064 0.89158 0.0
C3323 C 1.02458 0.49794 0.88164 0.0
C3324 C 1.01064 0.47344 0.88688 0.0
C3325 C 0.999 0.51599 0.89325 0.0
C3326 C 1.02779 0.50172 0.85333 0.0
C3327 C 0.06489 0.50489 0.84816 0.0
C3328 C 0.07577 0.50772 0.82361 0.0
C3329 C 0.04925 0.50733 0.80417 0.0
C3330 C 1.0104 0.50431 0.80785 0.0
C3331 C 1.00006 0.50146 0.83359 0.0
H3332 H 0.72522 0.4922 0.58654 0.0
H3333 H 0.81213 0.5015 0.53276 0.0
H3334 H 0.85793 0.5038 0.56595 0.0
H3335 H 0.76411 0.53111 0.63225 0.0
H3336 H 0.75447 0.51465 0.65936 0.0
H3337 H 0.72506 0.51187 0.63276 0.0
H3338 H 0.73523 0.46855 0.62988 0.0
H3339 H 0.76394 0.46895 0.65703 0.0
H3340 H 0.78142 0.45706 0.62898 0.0
H3341 H 0.89801 0.5051 0.60697 0.0
H3342 H 0.925 0.50543 0.64827 0.0
H3343 H 0.81592 0.49566 0.67946 0.0
C3344 C 0.75384 0.49472 0.58148 0.0
C3345 C 0.7635 0.49658 0.55555 0.0
C3346 C 0.8022 0.4999 0.55139 0.0
C3347 C 0.82915 0.50128 0.57062 0.0
C3348 C 0.81883 0.49941 0.59542 0.0
C3349 C 0.78188 0.49619 0.60095 0.0
C3350 C 0.77878 0.49467 0.62944 0.0
C3351 C 0.75404 0.51418 0.63903 0.0
C3352 C 0.76383 0.47093 0.63681 0.0
C3353 C 0.81913 0.49764 0.63909 0.0
C3354 C 0.84169 0.50026 0.61883 0.0
C3355 C 0.87993 0.50305 0.62261 0.0
C3356 C 0.89539 0.50319 0.6468 0.0
C3357 C 0.874 0.50061 0.66872 0.0
C3358 C 0.83448 0.49777 0.66408 0.0
H3359 H 0.11075 0.24388 0.58912 0.0
H3360 H 1.02584 0.25814 0.53528 0.0
H3361 H 0.97905 0.25881 0.56813 0.0
H3362 H 0.05212 0.20547 0.62474 0.0
H3363 H 0.06585 0.21293 0.65521 0.0
H3364 H 0.09841 0.21566 0.63024 0.0
H3365 H 0.11036 0.25787 0.63682 0.0
H3366 H 0.08134 0.25764 0.66377 0.0
H3367 H 0.07255 0.27789 0.63954 0.0
H3368 H 0.9381 0.25885 0.60907 0.0
H3369 H 0.9101 0.25617 0.65013 0.0
H3370 H 1.01737 0.23949 0.68063 0.0
C3371 C 0.08239 0.24732 0.58402 0.0
C3372 C 0.07352 0.25123 0.55825 0.0
C3373 C 1.03505 0.25513 0.55387 0.0
C3374 C 1.00762 0.25559 0.57288 0.0
C3375 C 1.01716 0.25172 0.59757 0.0
C3376 C 0.0538 0.24737 0.60317 0.0
C3377 C 0.05586 0.24256 0.63127 0.0
C3378 C 0.06897 0.21773 0.63565 0.0
C3379 C 0.08163 0.26 0.6436 0.0
C3380 C 1.01543 0.2456 0.64075 0.0
C3381 C 0.99363 0.25088 0.62072 0.0
C3382 C 0.95556 0.25464 0.62452 0.0
C3383 C 0.9395 0.25307 0.64853 0.0
C3384 C 0.96013 0.24755 0.6701 0.0
C3385 C 0.99942 0.24371 0.66544 0.0
H3386 H 0.78162 0.25734 0.32827 0.0
H3387 H 0.67397 0.24671 0.29549 0.0
H3388 H 0.70322 0.24326 0.25497 0.0
H3389 H 0.81889 0.29266 0.27684 0.0
H3390 H 0.86512 0.28119 0.2785 0.0
H3391 H 0.8365 0.28191 0.30554 0.0
H3392 H 0.84579 0.23825 0.31131 0.0
H3393 H 0.87444 0.23743 0.28428 0.0
H3394 H 0.8346 0.21895 0.28659 0.0
H3395 H 0.74657 0.23966 0.21471 0.0
H3396 H 0.79417 0.24072 0.1825 0.0
H3397 H 0.87723 0.25491 0.23753 0.0
C3398 C 0.76388 0.25431 0.31267 0.0
C3399 C 0.72402 0.2523 0.3166 0.0
C3400 C 0.70372 0.2485 0.29447 0.0
C3401 C 0.72055 0.24648 0.27073 0.0
C3402 C 0.7591 0.24867 0.26759 0.0
C3403 C 0.7806 0.25275 0.28811 0.0
C3404 C 0.82153 0.25508 0.27921 0.0
C3405 C 0.83641 0.27914 0.28541 0.0
C3406 C 0.84553 0.23632 0.29107 0.0
C3407 C 0.81988 0.25167 0.25082 0.0
C3408 C 0.78332 0.24778 0.24467 0.0
C3409 C 0.77473 0.24356 0.21984 0.0
C3410 C 0.80275 0.244 0.20117 0.0
C3411 C 0.84099 0.24815 0.20603 0.0
C3412 C 0.84897 0.25187 0.23198 0.0
H3413 H 1.01317 0.50725 0.20834 0.0
H3414 H 0.90714 0.48627 0.23783 0.0
H3415 H 0.93493 0.48315 0.27882 0.0
H3416 H 0.07241 0.47057 0.24832 0.0
H3417 H 0.10756 0.49217 0.25231 0.0
H3418 H 0.07921 0.49215 0.22511 0.0
H3419 H 0.05703 0.53547 0.23532 0.0
H3420 H 0.08987 0.53355 0.26022 0.0
H3421 H 0.04237 0.54111 0.26605 0.0
H3422 H 0.97496 0.48288 0.31968 0.0
H3423 H 1.02048 0.4846 0.35308 0.0
H3424 H 0.10499 0.50472 0.301 0.0
C3425 C 0.99549 0.5019 0.22328 0.0
C3426 C 0.95655 0.49701 0.2183 0.0
C3427 C 0.93622 0.49027 0.23962 0.0
C3428 C 0.95217 0.48839 0.2636 0.0
C3429 C 0.98981 0.49326 0.26772 0.0
C3430 C 1.01135 0.49995 0.24804 0.0
C3431 C 0.05115 0.5046 0.25809 0.0
C3432 C 0.07929 0.48899 0.24516 0.0
C3433 C 0.06083 0.53016 0.25468 0.0
C3434 C 0.04909 0.49877 0.28601 0.0
C3435 C 1.0129 0.49265 0.29103 0.0
C3436 C 1.00319 0.48753 0.31541 0.0
C3437 C 1.02993 0.48861 0.33475 0.0
C3438 C 0.06792 0.49452 0.3311 0.0
C3439 C 0.07705 0.49966 0.30558 0.0
H3440 H 0.76828 -0.002 0.58315 0.0
H3441 H 0.87529 0.00804 0.54901 0.0
H3442 H 0.84567 0.00802 0.50857 0.0
H3443 H 0.72852 0.961 0.53683 0.0
H3444 H 0.68313 0.97325 0.53467 0.0
H3445 H 0.70849 0.97518 0.56304 0.0
H3446 H 0.70309 0.0181 0.56436 0.0
H3447 H 0.67815 0.01998 0.53573 0.0
H3448 H 0.72034 0.0356 0.5396 0.0
H3449 H 0.80338 0.00571 0.46863 0.0
H3450 H 0.75576 0.00352 0.43658 0.0
H3451 H 0.67156 -0.00331 0.49262 0.0
C3452 C 0.78587 5e-05 0.56727 0.0
C3453 C 0.82567 0.0029 0.5708 0.0
C3454 C 0.84561 0.00579 0.54835 0.0
C3455 C 0.82863 0.00567 0.52463 0.0
C3456 C 0.79022 0.00278 0.52188 0.0
C3457 C 0.76889 0.00027 0.54274 0.0
C3458 C 0.72776 -0.00144 0.5342 0.0
C3459 C 0.71092 0.97567 0.54276 0.0
C3460 C 0.70597 0.01922 0.54414 0.0
C3461 C 0.72923 -0.00038 0.50558 0.0
C3462 C 0.76593 0.00219 0.49908 0.0
C3463 C 0.77484 0.00363 0.47401 0.0
C3464 C 0.74681 0.00238 0.45546 0.0
C3465 C 0.70821 -0.00014 0.4606 0.0
C3466 C 0.69999 -0.00141 0.48682 0.0
H3467 H 0.53001 0.23095 0.5766 0.0
H3468 H 0.4267 0.25948 0.55018 0.0
H3469 H 0.45435 0.26456 0.50937 0.0
H3470 H 0.59331 0.26645 0.53986 0.0
H3471 H 0.62529 0.24392 0.53178 0.0
H3472 H 0.59911 0.24193 0.55982 0.0
H3473 H 0.57175 0.20261 0.54708 0.0
H3474 H 0.60015 0.20391 0.51987 0.0
H3475 H 0.55097 0.1997 0.51733 0.0
H3476 H 0.49434 0.26731 0.46864 0.0
H3477 H 0.53855 0.2653 0.43439 0.0
H3478 H 0.61977 0.23488 0.48296 0.0
C3479 C 0.51295 0.23838 0.56238 0.0
C3480 C 0.47489 0.24492 0.56819 0.0
C3481 C 0.45516 0.2542 0.54772 0.0
C3482 C 0.47104 0.25726 0.52387 0.0
C3483 C 0.50782 0.25078 0.51891 0.0
C3484 C 0.52857 0.24125 0.53764 0.0
C3485 C 0.56719 0.2349 0.5266 0.0
C3486 C 0.59807 0.24754 0.54036 0.0
C3487 C 0.57293 0.20872 0.52781 0.0
C3488 C 0.56543 0.24297 0.49929 0.0
C3489 C 0.53047 0.25191 0.49542 0.0
C3490 C 0.52146 0.26011 0.47188 0.0
C3491 C 0.54742 0.25887 0.45205 0.0
C3492 C 0.58412 0.25002 0.45453 0.0
C3493 C 0.5927 0.24201 0.47929 0.0
H3494 H 0.77864 0.25062 0.80345 0.0
H3495 H 0.88746 0.24016 0.83475 0.0
H3496 H 0.85986 0.23965 0.87583 0.0
H3497 H 0.74278 0.28852 0.85321 0.0
H3498 H 0.69671 0.27674 0.85349 0.0
H3499 H 0.72383 0.276 0.82577 0.0
H3500 H 0.71507 0.23207 0.82327 0.0
H3501 H 0.68793 0.23269 0.85099 0.0
H3502 H 0.72799 0.21432 0.84899 0.0
H3503 H 0.82044 0.2413 0.91633 0.0
H3504 H 0.77592 0.2431 0.94981 0.0
H3505 H 0.68752 0.25307 0.89718 0.0
C3506 C 0.797 0.24831 0.81888 0.0
C3507 C 0.83666 0.24549 0.81437 0.0
C3508 C 0.85786 0.2425 0.8362 0.0
C3509 C 0.84205 0.24227 0.86026 0.0
C3510 C 0.80382 0.24525 0.86396 0.0
C3511 C 0.7813 0.2482 0.84378 0.0
C3512 C 0.74074 0.25088 0.85352 0.0
C3513 C 0.72506 0.27443 0.84604 0.0
C3514 C 0.71647 0.23133 0.84359 0.0
C3515 C 0.74397 0.24913 0.88208 0.0
C3516 C 0.781 0.24583 0.88733 0.0
C3517 C 0.79171 0.24374 0.91194 0.0
C3518 C 0.76532 0.24485 0.93137 0.0
C3519 C 0.72653 0.24819 0.92774 0.0
C3520 C 0.71624 0.2504 0.90189 0.0
H3521 H 0.54244 0.00403 0.81022 0.0
H3522 H 0.43445 -0.00033 0.84433 0.0
H3523 H 0.4641 -0.00224 0.8849 0.0
H3524 H 0.59053 0.96501 0.85366 0.0
H3525 H 0.63296 0.98123 0.8545 0.0
H3526 H 0.60395 0.98227 0.82768 0.0
H3527 H 0.60116 0.0265 0.83073 0.0
H3528 H 0.63017 0.02558 0.85756 0.0
H3529 H 0.58583 0.0397 0.85882 0.0
H3530 H 0.50674 -0.00463 0.9243 0.0
H3531 H 0.55465 0.99465 0.95612 0.0
H3532 H 0.63914 0.00084 0.90015 0.0
C3533 C 0.52474 0.0027 0.82613 0.0
C3534 C 0.48476 0.00205 0.82273 0.0
C3535 C 0.46433 0.00027 0.84508 0.0
C3536 C 0.48134 -0.00087 0.86875 0.0
C3537 C 0.52008 -0.00024 0.87132 0.0
C3538 C 0.54167 0.0016 0.85049 0.0
C3539 C 0.58296 0.00207 0.85883 0.0
C3540 C 0.60386 0.98142 0.84801 0.0
C3541 C 0.60113 0.02481 0.85101 0.0
C3542 C 0.58133 0.00024 0.88733 0.0
C3543 C 0.54445 -0.00115 0.89392 0.0
C3544 C 0.53541 -0.00324 0.91889 0.0
C3545 C 0.56357 -0.00372 0.93728 0.0
C3546 C 0.60224 -0.00225 0.932 0.0
C3547 C 0.6106 -0.00025 0.90594 0.0
H3548 H 0.29966 0.98528 0.56089 0.0
H3549 H 0.19224 0.00469 0.58947 0.0
H3550 H 0.21905 0.00806 0.63067 0.0
H3551 H 0.32837 0.95118 0.61579 0.0
H3552 H 0.37611 0.95999 0.61494 0.0
H3553 H 0.34945 0.95909 0.58706 0.0
H3554 H 0.36526 0.00163 0.57867 0.0
H3555 H 0.39196 0.00264 0.60652 0.0
H3556 H 0.35506 0.02299 0.60162 0.0
H3557 H 0.25807 0.01003 0.67128 0.0
H3558 H 0.30284 0.00999 0.70499 0.0
H3559 H 0.38893 0.98845 0.65467 0.0
C3560 C 0.28148 0.99022 0.57572 0.0
C3561 C 0.24254 0.99472 0.57045 0.0
C3562 C 0.22143 0.00108 0.59153 0.0
C3563 C 0.23679 0.00312 0.6156 0.0
C3564 C 0.27443 -0.00139 0.62001 0.0
C3565 C 0.29668 0.99217 0.60059 0.0
C3566 C 0.33648 0.98823 0.61097 0.0
C3567 C 0.34833 0.96313 0.60693 0.0
C3568 C 0.36384 0.00485 0.5987 0.0
C3569 C 0.33326 0.99352 0.63895 0.0
C3570 C 0.29685 -0.0005 0.64347 0.0
C3571 C 0.28647 0.00537 0.66747 0.0
C3572 C 0.31285 0.00531 0.68699 0.0
C3573 C 0.35095 -0.00072 0.68397 0.0
C3574 C 0.3607 0.99316 0.65883 0.0
H3575 H 0.44219 0.74389 0.64606 0.0
H3576 H 0.5289 0.7532 0.69987 0.0
H3577 H 0.57495 0.75471 0.66676 0.0
H3578 H 0.49809 0.70827 0.60322 0.0
H3579 H 0.47903 0.72063 0.57569 0.0
H3580 H 0.45192 0.71996 0.60342 0.0
H3581 H 0.44267 0.76386 0.60071 0.0
H3582 H 0.46976 0.76466 0.57298 0.0
H3583 H 0.48247 0.78243 0.59865 0.0
H3584 H 0.61506 0.75731 0.62565 0.0
H3585 H 0.64195 0.75783 0.58413 0.0
H3586 H 0.53321 0.7463 0.55342 0.0
C3587 C 0.4708 0.74643 0.65111 0.0
C3588 C 0.48032 0.74857 0.67699 0.0
C3589 C 0.51904 0.75166 0.68123 0.0
C3590 C 0.54611 0.75268 0.66205 0.0
C3591 C 0.53586 0.75088 0.63724 0.0
C3592 C 0.49889 0.74768 0.63167 0.0
C3593 C 0.49579 0.74592 0.6032 0.0
C3594 C 0.48026 0.72229 0.59594 0.0
C3595 C 0.47118 0.76537 0.59329 0.0
C3596 C 0.53628 0.74871 0.59366 0.0
C3597 C 0.55883 0.75162 0.61387 0.0
C3598 C 0.59705 0.75487 0.61005 0.0
C3599 C 0.61251 0.7551 0.58581 0.0
C3600 C 0.59111 0.75197 0.56406 0.0
C3601 C 0.55169 0.74872 0.56876 0.0
H3602 H 0.31146 0.73789 0.20883 0.0
H3603 H 0.41346 0.76783 0.23539 0.0
H3604 H 0.38451 0.77329 0.27594 0.0
H3605 H 0.25063 0.77663 0.24732 0.0
H3606 H 0.21634 0.75435 0.25094 0.0
H3607 H 0.24606 0.75476 0.22429 0.0
H3608 H 0.26343 0.7124 0.2354 0.0
H3609 H 0.23575 0.71371 0.26283 0.0
H3610 H 0.28419 0.70668 0.2648 0.0
H3611 H 0.34604 0.77078 0.31824 0.0
H3612 H 0.29989 0.76875 0.3516 0.0
H3613 H 0.21863 0.7435 0.30004 0.0
C3614 C 0.32836 0.74519 0.22318 0.0
C3615 C 0.36629 0.75191 0.21759 0.0
C3616 C 0.38535 0.7619 0.2379 0.0
C3617 C 0.369 0.76483 0.26167 0.0
C3618 C 0.33277 0.75732 0.26667 0.0
C3619 C 0.31234 0.74808 0.24769 0.0
C3620 C 0.27284 0.74309 0.25777 0.0
C3621 C 0.24469 0.75808 0.24426 0.0
C3622 C 0.26348 0.71744 0.25503 0.0
C3623 C 0.27434 0.75011 0.28528 0.0
C3624 C 0.3096 0.75815 0.28998 0.0
C3625 C 0.3184 0.76482 0.31412 0.0
C3626 C 0.29142 0.76359 0.33341 0.0
C3627 C 0.25411 0.75634 0.32967 0.0
C3628 C 0.24607 0.74956 0.30453 0.0
H3629 H 0.59247 0.00181 0.29775 0.0
H3630 H 0.50755 0.98823 0.35174 0.0
H3631 H 0.46066 0.98741 0.31886 0.0
H3632 H 0.53202 0.04038 0.26266 0.0
H3633 H 0.54703 0.0335 0.23229 0.0
H3634 H 0.57891 0.03104 0.25775 0.0
H3635 H 0.59286 0.98895 0.25014 0.0
H3636 H 0.56392 0.98898 0.22316 0.0
H3637 H 0.55581 0.96843 0.24719 0.0
H3638 H 0.41917 0.98758 0.27687 0.0
H3639 H 0.39219 0.99054 0.23534 0.0
H3640 H 0.50064 0.00622 0.20622 0.0
C3641 C 0.56412 -0.00162 0.30291 0.0
C3642 C 0.55535 0.99465 0.32873 0.0
C3643 C 0.51677 0.99099 0.3331 0.0
C3644 C 0.48925 0.99047 0.31405 0.0
C3645 C 0.49873 0.99413 0.28926 0.0
C3646 C 0.53549 -0.00164 0.28375 0.0
C3647 C 0.5377 0.00344 0.25575 0.0
C3648 C 0.5498 0.02853 0.25184 0.0
C3649 C 0.56423 0.98647 0.24331 0.0
C3650 C 0.49754 0.00013 0.24601 0.0
C3651 C 0.47531 -0.00499 0.26588 0.0
C3652 C 0.43713 0.99161 0.2616 0.0
C3653 C 0.42161 0.99336 0.23733 0.0
C3654 C 0.44295 -0.00137 0.21595 0.0
C3655 C 0.48217 0.00207 0.22117 0.0
H3656 H 0.68535 0.48765 0.99207 0.0
H3657 H 0.76363 0.51719 0.94084 0.0
H3658 H 0.8088 0.52147 0.97429 0.0
H3659 H 0.71188 0.52346 1.04551 0.0
H3660 H 0.70738 0.50072 1.06782 0.0
H3661 H 0.68019 0.50006 1.04016 0.0
H3662 H 0.70571 0.45974 1.03017 0.0
H3663 H 0.73296 0.46028 1.05781 0.0
H3664 H 0.75499 0.45535 1.02867 0.0
H3665 H 0.84926 0.52253 1.01523 0.0
H3666 H 0.87714 0.52074 1.05634 0.0
H3667 H 0.77691 0.48956 0.08443 0.0
C3668 C 0.71196 0.49505 0.98765 0.0
C3669 C 0.71942 0.50208 0.96243 0.0
C3670 C 0.75558 0.51147 0.95894 0.0
C3671 C 0.78211 0.51397 0.9783 0.0
C3672 C 0.77403 0.50686 1.00241 0.0
C3673 C 0.73961 0.49748 1.00718 0.0
C3674 C 0.73848 0.4911 1.03499 0.0
C3675 C 0.70763 0.50463 1.04789 0.0
C3676 C 0.73266 0.46507 1.0381 0.0
C3677 C 0.77714 0.49835 1.04511 0.0
C3678 C 0.79707 0.50745 1.02574 0.0
C3679 C 0.83326 0.51541 1.03018 0.0
C3680 C 0.8493 0.51427 1.05419 0.0
C3681 C 0.83059 0.50503 0.0751 0.0
C3682 C 0.79325 0.49688 0.06977 0.0
H3683 H 0.63656 0.75856 0.98939 0.0
H3684 H 0.55133 0.73906 0.93773 0.0
H3685 H 0.50713 0.73494 0.9718 0.0
H3686 H 0.60536 0.72084 1.04043 0.0
H3687 H 0.61488 0.74133 1.06436 0.0
H3688 H 0.64103 0.74214 1.03624 0.0
H3689 H 0.6229 0.78465 1.03006 0.0
H3690 H 0.59671 0.78397 1.05817 0.0
H3691 H 0.57475 0.79263 1.03001 0.0
H3692 H 0.4682 0.73355 1.01349 0.0
H3693 H 0.44233 0.73425 1.05527 0.0
H3694 H 0.54853 0.75619 0.08333 0.0
C3695 C 0.6086 0.75346 0.985 0.0
C3696 C 0.59888 0.74918 0.95945 0.0
C3697 C 0.56109 0.74268 0.95606 0.0
C3698 C 0.5351 0.74031 0.97578 0.0
C3699 C 0.5453 0.74492 1.0002 0.0
C3700 C 0.58138 0.75145 1.00491 0.0
C3701 C 0.58466 0.75557 1.03311 0.0
C3702 C 0.6132 0.73899 1.0442 0.0
C3703 C 0.59542 0.7807 1.03814 0.0
C3704 C 0.54526 0.75039 1.04348 0.0
C3705 C 0.52311 0.74419 1.02392 0.0
C3706 C 0.48588 0.73849 1.02857 0.0
C3707 C 0.47099 0.73903 1.05296 0.0
C3708 C 0.49197 0.74542 0.07408 0.0
C3709 C 0.5304 0.75117 1.06853 0.0
H3710 H 0.77324 0.75771 0.42992 0.0
H3711 H 0.66555 0.74007 0.40089 0.0
H3712 H 0.69247 0.73744 0.35948 0.0
H3713 H 0.80488 0.79188 0.37366 0.0
H3714 H 0.85173 0.78241 0.3786 0.0
H3715 H 0.81976 0.78462 0.40399 0.0
H3716 H 0.83665 0.74012 0.41274 0.0
H3717 H 0.86564 0.74035 0.3858 0.0
H3718 H 0.82862 0.71978 0.38856 0.0
H3719 H 0.73259 0.73778 0.31784 0.0
H3720 H 0.7788 0.73877 0.28452 0.0
H3721 H 0.86425 0.75389 0.33762 0.0
C3722 C 0.75498 0.75325 0.41499 0.0
C3723 C 0.71591 0.74917 0.42017 0.0
C3724 C 0.69483 0.74339 0.39889 0.0
C3725 C 0.71026 0.74184 0.37469 0.0
C3726 C 0.74815 0.74589 0.37038 0.0
C3727 C 0.77035 0.7514 0.39013 0.0
C3728 C 0.81043 0.75486 0.38019 0.0
C3729 C 0.82255 0.77989 0.38439 0.0
C3730 C 0.83696 0.7378 0.39257 0.0
C3731 C 0.80774 0.74993 0.35216 0.0
C3732 C 0.77111 0.74524 0.34693 0.0
C3733 C 0.76116 0.74126 0.32231 0.0
C3734 C 0.78822 0.74192 0.30302 0.0
C3735 C 0.82665 0.74617 0.30709 0.0
C3736 C 0.83587 0.75023 0.33276 0.0
H3737 H 0.55297 0.48593 0.30173 0.0
H3738 H 0.45484 0.51901 0.33072 0.0
H3739 H 0.48452 0.52134 0.37122 0.0
H3740 H 0.57517 0.45234 0.35801 0.0
H3741 H 0.62456 0.45569 0.35562 0.0
H3742 H 0.59635 0.45634 0.32842 0.0
H3743 H 0.62338 0.49594 0.31702 0.0
H3744 H 0.65163 0.49537 0.34421 0.0
H3745 H 0.62082 0.51923 0.33875 0.0
H3746 H 0.52645 0.52117 0.41105 0.0
H3747 H 0.57191 0.51671 0.44412 0.0
H3748 H 0.6474 0.48398 0.39323 0.0
C3749 C 0.53747 0.49378 0.31647 0.0
C3750 C 0.50023 0.50242 0.31154 0.0
C3751 C 0.48261 0.51227 0.33252 0.0
C3752 C 0.49967 0.5137 0.35619 0.0
C3753 C 0.53572 0.5053 0.36022 0.0
C3754 C 0.55455 0.49542 0.34083 0.0
C3755 C 0.59323 0.48763 0.35067 0.0
C3756 C 0.5976 0.46144 0.34801 0.0
C3757 C 0.62412 0.50029 0.33683 0.0
C3758 C 0.59327 0.49462 0.37832 0.0
C3759 C 0.55947 0.50481 0.38318 0.0
C3760 C 0.55246 0.51283 0.40706 0.0
C3761 C 0.57926 0.51026 0.42618 0.0
C3762 C 0.61478 0.49994 0.42271 0.0
C3763 C 0.6213 0.49208 0.39765 0.0
H3764 H 0.31122 0.50354 0.18234 0.0
H3765 H 0.41796 0.48804 0.15037 0.0
H3766 H 0.38918 0.48545 0.10974 0.0
H3767 H 0.25349 0.46652 0.14122 0.0
H3768 H 0.21661 0.48735 0.13956 0.0
H3769 H 0.2467 0.4865 0.16591 0.0
H3770 H 0.26378 0.53122 0.15725 0.0
H3771 H 0.23076 0.52931 0.13243 0.0
H3772 H 0.27746 0.53861 0.12672 0.0
H3773 H 0.34817 0.48548 0.06968 0.0
H3774 H 0.30156 0.48706 1.03694 0.0
H3775 H 0.21676 0.50146 0.09091 0.0
C3776 C 0.32883 0.49947 0.16692 0.0
C3777 C 0.36833 0.49594 0.17106 0.0
C3778 C 0.38854 0.49092 0.14919 0.0
C3779 C 0.37199 0.48937 0.12542 0.0
C3780 C 0.33383 0.49291 0.12212 0.0
C3781 C 0.31233 0.49792 0.14236 0.0
C3782 C 0.27186 0.50157 0.13308 0.0
C3783 C 0.24555 0.48452 0.1457 0.0
C3784 C 0.26012 0.52662 0.13769 0.0
C3785 C 0.27357 0.49694 0.10493 0.0
C3786 C 0.31012 0.49244 0.09917 0.0
C3787 C 0.31966 0.48884 0.07449 0.0
C3788 C 0.29232 0.48982 1.05557 0.0
C3789 C 0.25395 0.49406 1.06 0.0
C3790 C 0.245 0.49765 0.0858 0.0
H3791 H 0.44606 0.25037 0.15025 0.0
H3792 H 0.53414 0.24732 0.20394 0.0
H3793 H 0.57993 0.24844 0.17063 0.0
H3794 H 0.49299 0.2144 0.10353 0.0
H3795 H 0.47728 0.23078 0.07747 0.0
H3796 H 0.45011 0.23016 0.10517 0.0
H3797 H 0.45174 0.27464 0.10757 0.0
H3798 H 0.47772 0.27505 0.07934 0.0
H3799 H 0.49555 0.28926 0.10617 0.0
H3800 H 0.62003 0.25092 0.1303 0.0
H3801 H 0.64731 0.2523 0.08897 0.0
H3802 H 0.53734 0.2526 1.05752 0.0
C3803 C 0.47498 0.24999 0.15525 0.0
C3804 C 0.48502 0.24873 0.18111 0.0
C3805 C 0.52401 0.24824 0.18532 0.0
C3806 C 0.55094 0.24894 0.16611 0.0
C3807 C 0.54032 0.25017 0.14138 0.0
C3808 C 0.50304 0.25059 0.13579 0.0
C3809 C 0.49968 0.25166 0.10729 0.0
C3810 C 0.47875 0.23049 0.0978 0.0
C3811 C 0.47998 0.27397 0.09961 0.0
C3812 C 0.54046 0.25159 0.09783 0.0
C3813 C 0.5633 0.25094 0.11813 0.0
C3814 C 0.60187 0.25127 0.11457 0.0
C3815 C 0.61748 0.25213 0.09045 0.0
C3816 C 0.59578 0.25252 1.06858 0.0
C3817 C 0.55598 0.25219 0.073 0.0
H3818 H 0.37688 0.26365 0.73405 0.0
H3819 H 0.30243 0.22053 0.69214 0.0
H3820 H 0.26168 0.21743 0.72797 0.0
H3821 H 0.36072 0.23246 0.79292 0.0
H3822 H 0.3624 0.2574 0.81243 0.0
H3823 H 0.38791 0.2571 0.78404 0.0
H3824 H 0.35574 0.29397 0.76985 0.0
H3825 H 0.33007 0.29511 0.79814 0.0
H3826 H 0.30595 0.29536 0.76929 0.0
H3827 H 0.22123 0.22258 0.76804 0.0
H3828 H 0.19475 0.22864 0.80915 0.0
H3829 H 0.29263 0.26665 0.83006 0.0
C3830 C 0.3517 0.2538 0.73205 0.0
C3831 C 0.34393 0.24265 0.70861 0.0
C3832 C 0.31026 0.22979 0.70852 0.0
C3833 C 0.286 0.22812 0.72916 0.0
C3834 C 0.29359 0.23975 0.75115 0.0
C3835 C 0.3262 0.25205 0.753 0.0
C3836 C 0.32816 0.26171 0.77971 0.0
C3837 C 0.36182 0.25158 0.79306 0.0
C3838 C 0.33012 0.28811 0.77922 0.0
C3839 C 0.29147 0.25348 0.79218 0.0
C3840 C 0.27198 0.24096 0.77499 0.0
C3841 C 0.23692 0.23223 0.78139 0.0
C3842 C 0.22157 0.23597 0.80527 0.0
C3843 C 0.24023 0.24824 0.82421 0.0
C3844 C 0.27651 0.25699 0.81694 0.0
H3845 H 0.60657 0.48339 0.80061 0.0
H3846 H 0.52581 0.51065 0.85158 0.0
H3847 H 0.48098 0.51437 0.81793 0.0
H3848 H 0.57832 0.52071 0.75015 0.0
H3849 H 0.58255 0.50079 0.72529 0.0
H3850 H 0.6113 0.49756 0.75219 0.0
H3851 H 0.59067 0.45695 0.76009 0.0
H3852 H 0.56125 0.45699 0.73341 0.0
H3853 H 0.54216 0.45036 0.76296 0.0
H3854 H 0.44123 0.51525 0.7767 0.0
H3855 H 0.41471 0.5142 0.73524 0.0
H3856 H 0.51659 0.48538 0.70738 0.0
C3857 C 0.57937 0.48996 0.80499 0.0
C3858 C 0.57113 0.49651 0.83024 0.0
C3859 C 0.53446 0.50523 0.83351 0.0
C3860 C 0.50809 0.5074 0.81402 0.0
C3861 C 0.51685 0.50068 0.78993 0.0
C3862 C 0.55185 0.49214 0.7853 0.0
C3863 C 0.55402 0.48689 0.7573 0.0
C3864 C 0.58338 0.50234 0.7455 0.0
C3865 C 0.56262 0.46129 0.75318 0.0
C3866 C 0.51499 0.49308 0.74699 0.0
C3867 C 0.4942 0.50121 0.76641 0.0
C3868 C 0.45778 0.50856 0.7618 0.0
C3869 C 0.4423 0.50756 0.73764 0.0
C3870 C 0.46156 0.49895 0.7167 0.0
C3871 C 0.49947 0.49185 0.72209 0.0
loop_
_geom_bond_atom_site_label_1
_geom_bond_atom_site_label_2
_geom_bond_distance
_geom_bond_site_symmetry_2
_ccdc_geom_bond_type
Tb0 C9 2.764 . S
Tb0 O10 2.325 . S
Tb0 O13 2.303 1_565 S
Tb0 O17 2.322 . S
Tb0 O18 2.349 . S
Tb0 O21 2.415 1_565 S
Tb0 O22 2.399 . S
Tb1 O11 2.322 . S
Tb1 O12 2.349 . S
Tb1 O14 2.415 1_545 S
Tb1 O15 2.399 . S
Tb1 O16 2.325 . S
Tb1 O19 2.303 1_545 S
Tb1 C30 2.764 . S
C2 O18 1.261 . S
C2 O19 1.257 . S
C3 C6 1.358 . S
C3 C7 1.332 1_565 S
C3 C9 1.504 . S
C4 C5 1.373 . S
C4 C8 1.308 1_565 S
C5 C4 1.373 . S
C5 C6 1.429 . S
C5 H32 0.932 . S
C6 C3 1.358 . S
C6 C5 1.429 . S
C6 H33 0.930 . S
C7 C3 1.332 1_545 S
C7 C8 1.394 . S
C7 H34 0.932 . S
C8 C4 1.308 1_545 S
C8 C7 1.394 . S
C8 H35 0.929 . S
C9 Tb0 2.764 . S
C9 C3 1.504 . S
C9 O21 1.239 1_565 S
C9 O22 1.263 . S
O10 Tb0 2.325 . S
O10 C20 1.236 1_565 S
O11 Tb1 2.322 . S
O11 C20 1.257 . S
O12 Tb1 2.349 . S
O12 C23 1.261 . S
O13 Tb0 2.303 1_545 S
O13 C23 1.257 . S
O14 Tb1 2.415 1_565 S
O14 C30 1.239 1_565 S
O15 Tb1 2.399 . S
O15 C30 1.263 . S
O16 Tb1 2.325 . S
O16 C31 1.236 . S
O17 Tb0 2.322 . S
O17 C31 1.257 1_565 S
O18 Tb0 2.349 . S
O18 C2 1.261 . S
O19 Tb1 2.303 1_565 S
O19 C2 1.257 . S
C20 O10 1.236 1_545 S
C20 O11 1.257 . S
O21 Tb0 2.415 1_545 S
O21 C9 1.239 1_545 S
O22 Tb0 2.399 . S
O22 C9 1.263 . S
C23 O12 1.261 . S
C23 O13 1.257 . S
C24 C27 1.358 . S
C24 C28 1.332 1_545 S
C24 C30 1.504 1_556 S
C25 C26 1.373 . S
C25 C29 1.308 1_545 S
C26 C25 1.373 . S
C26 C27 1.429 . S
C26 H36 0.932 . S
C27 C24 1.358 . S
C27 C26 1.429 . S
C27 H37 0.930 . S
C28 C24 1.332 1_565 S
C28 C29 1.394 . S
C28 H38 0.932 . S
C29 C25 1.308 1_565 S
C29 C28 1.394 . S
C29 H39 0.929 . S
C30 Tb1 2.764 . S
C30 O14 1.239 1_545 S
C30 O15 1.263 . S
C30 C24 1.504 1_554 S
C31 O16 1.236 . S
C31 O17 1.257 1_545 S
H32 C5 0.932 . S
H33 C6 0.930 . S
H34 C7 0.932 . S
H35 C8 0.929 . S
H36 C26 0.932 . S
H37 C27 0.930 . S
H38 C28 0.932 . S
H39 C29 0.929 . S
Tb40 C49 2.764 . S
Tb40 O50 2.325 . S
Tb40 O53 2.303 . S
Tb40 O57 2.322 . S
Tb40 O58 2.349 . S
Tb40 O61 2.415 . S
Tb40 O62 2.399 . S
Tb41 O51 2.322 . S
Tb41 O52 2.349 . S
Tb41 O54 2.415 . S
Tb41 O55 2.399 . S
Tb41 O56 2.325 . S
Tb41 O59 2.303 . S
Tb41 C70 2.764 . S
C42 O58 1.261 . S
C42 O59 1.257 . S
C43 C46 1.358 . S
C43 C47 1.332 . S
C43 C49 1.504 . S
C44 C45 1.373 . S
C44 C48 1.308 . S
C45 C44 1.373 . S
C45 C46 1.429 . S
C45 H72 0.932 . S
C46 C43 1.358 . S
C46 C45 1.429 . S
C46 H73 0.930 . S
C47 C43 1.332 . S
C47 C48 1.394 . S
C47 H74 0.932 . S
C48 C44 1.308 . S
C48 C47 1.394 . S
C48 H75 0.929 . S
C49 Tb40 2.764 . S
C49 C43 1.504 . S
C49 O61 1.239 . S
C49 O62 1.263 . S
O50 Tb40 2.325 . S
O50 C60 1.236 . S
O51 Tb41 2.322 . S
O51 C60 1.257 . S
O52 Tb41 2.349 . S
O52 C63 1.261 . S
O53 Tb40 2.303 . S
O53 C63 1.257 . S
O54 Tb41 2.415 . S
O54 C70 1.239 . S
O55 Tb41 2.399 . S
O55 C70 1.263 . S
O56 Tb41 2.325 . S
O56 C71 1.236 . S
O57 Tb40 2.322 . S
O57 C71 1.257 . S
O58 Tb40 2.349 . S
O58 C42 1.261 . S
O59 Tb41 2.303 . S
O59 C42 1.257 . S
C60 O50 1.236 . S
C60 O51 1.257 . S
O61 Tb40 2.415 . S
O61 C49 1.239 . S
O62 Tb40 2.399 . S
O62 C49 1.263 . S
C63 O52 1.261 . S
C63 O53 1.257 . S
C64 C67 1.358 . S
C64 C68 1.332 . S
C64 C70 1.504 1_556 S
C65 C66 1.373 . S
C65 C69 1.308 . S
C66 C65 1.373 . S
C66 C67 1.429 . S
C66 H76 0.932 . S
C67 C64 1.358 . S
C67 C66 1.429 . S
C67 H77 0.930 . S
C68 C64 1.332 . S
C68 C69 1.394 . S
C68 H78 0.932 . S
C69 C65 1.308 . S
C69 C68 1.394 . S
C69 H79 0.929 . S
C70 Tb41 2.764 . S
C70 O54 1.239 . S
C70 O55 1.263 . S
C70 C64 1.504 1_554 S
C71 O56 1.236 . S
C71 O57 1.257 . S
H72 C45 0.932 . S
H73 C46 0.930 . S
H74 C47 0.932 . S
H75 C48 0.929 . S
H76 C66 0.932 . S
H77 C67 0.930 . S
H78 C68 0.932 . S
H79 C69 0.929 . S
Tb80 C89 2.764 . S
Tb80 O90 2.325 . S
Tb80 O93 2.303 . S
Tb80 O97 2.322 . S
Tb80 O98 2.349 . S
Tb80 O101 2.415 . S
Tb80 O102 2.399 . S
Tb81 O91 2.322 . S
Tb81 O92 2.349 . S
Tb81 O94 2.415 . S
Tb81 O95 2.399 . S
Tb81 O96 2.325 . S
Tb81 O99 2.303 . S
Tb81 C110 2.764 . S
C82 O98 1.261 . S
C82 O99 1.257 . S
C83 C86 1.358 . S
C83 C87 1.332 . S
C83 C89 1.504 . S
C84 C85 1.373 . S
C84 C88 1.308 . S
C85 C84 1.373 . S
C85 C86 1.429 . S
C85 H112 0.932 . S
C86 C83 1.358 . S
C86 C85 1.429 . S
C86 H113 0.930 . S
C87 C83 1.332 . S
C87 C88 1.394 . S
C87 H114 0.932 . S
C88 C84 1.308 . S
C88 C87 1.394 . S
C88 H115 0.929 . S
C89 Tb80 2.764 . S
C89 C83 1.504 . S
C89 O101 1.239 . S
C89 O102 1.263 . S
O90 Tb80 2.325 . S
O90 C100 1.236 . S
O91 Tb81 2.322 . S
O91 C100 1.257 . S
O92 Tb81 2.349 . S
O92 C103 1.261 . S
O93 Tb80 2.303 . S
O93 C103 1.257 . S
O94 Tb81 2.415 . S
O94 C110 1.239 . S
O95 Tb81 2.399 . S
O95 C110 1.263 . S
O96 Tb81 2.325 . S
O96 C111 1.236 . S
O97 Tb80 2.322 . S
O97 C111 1.257 . S
O98 Tb80 2.349 . S
O98 C82 1.261 . S
O99 Tb81 2.303 . S
O99 C82 1.257 . S
C100 O90 1.236 . S
C100 O91 1.257 . S
O101 Tb80 2.415 . S
O101 C89 1.239 . S
O102 Tb80 2.399 . S
O102 C89 1.263 . S
C103 O92 1.261 . S
C103 O93 1.257 . S
C104 C107 1.358 . S
C104 C108 1.332 . S
C104 C110 1.504 . S
C105 C106 1.373 . S
C105 C109 1.308 . S
C106 C105 1.373 . S
C106 C107 1.429 . S
C106 H116 0.932 . S
C107 C104 1.358 . S
C107 C106 1.429 . S
C107 H117 0.930 . S
C108 C104 1.332 . S
C108 C109 1.394 . S
C108 H118 0.932 . S
C109 C105 1.308 . S
C109 C108 1.394 . S
C109 H119 0.929 . S
C110 Tb81 2.764 . S
C110 O94 1.239 . S
C110 O95 1.263 . S
C110 C104 1.504 . S
C111 O96 1.236 . S
C111 O97 1.257 . S
H112 C85 0.932 . S
H113 C86 0.930 . S
H114 C87 0.932 . S
H115 C88 0.929 . S
H116 C106 0.932 . S
H117 C107 0.930 . S
H118 C108 0.932 . S
H119 C109 0.929 . S
Tb120 C129 2.764 . S
Tb120 O130 2.325 . S
Tb120 O133 2.303 1_565 S
Tb120 O137 2.322 . S
Tb120 O138 2.349 . S
Tb120 O141 2.415 1_565 S
Tb120 O142 2.399 . S
Tb121 O131 2.322 . S
Tb121 O132 2.349 . S
Tb121 O134 2.415 1_545 S
Tb121 O135 2.399 . S
Tb121 O136 2.325 . S
Tb121 O139 2.303 1_545 S
Tb121 C150 2.764 . S
C122 O138 1.261 . S
C122 O139 1.257 . S
C123 C126 1.358 . S
C123 C127 1.332 1_565 S
C123 C129 1.504 . S
C124 C125 1.373 . S
C124 C128 1.308 1_565 S
C125 C124 1.373 . S
C125 C126 1.429 . S
C125 H152 0.932 . S
C126 C123 1.358 . S
C126 C125 1.429 . S
C126 H153 0.930 . S
C127 C123 1.332 1_545 S
C127 C128 1.394 . S
C127 H154 0.932 . S
C128 C124 1.308 1_545 S
C128 C127 1.394 . S
C128 H155 0.929 . S
C129 Tb120 2.764 . S
C129 C123 1.504 . S
C129 O141 1.239 1_565 S
C129 O142 1.263 . S
O130 Tb120 2.325 . S
O130 C140 1.236 1_565 S
O131 Tb121 2.322 . S
O131 C140 1.257 . S
O132 Tb121 2.349 . S
O132 C143 1.261 . S
O133 Tb120 2.303 1_545 S
O133 C143 1.257 . S
O134 Tb121 2.415 1_565 S
O134 C150 1.239 1_565 S
O135 Tb121 2.399 . S
O135 C150 1.263 . S
O136 Tb121 2.325 . S
O136 C151 1.236 . S
O137 Tb120 2.322 . S
O137 C151 1.257 1_565 S
O138 Tb120 2.349 . S
O138 C122 1.261 . S
O139 Tb121 2.303 1_565 S
O139 C122 1.257 . S
C140 O130 1.236 1_545 S
C140 O131 1.257 . S
O141 Tb120 2.415 1_545 S
O141 C129 1.239 1_545 S
O142 Tb120 2.399 . S
O142 C129 1.263 . S
C143 O132 1.261 . S
C143 O133 1.257 . S
C144 C147 1.358 . S
C144 C148 1.332 1_545 S
C144 C150 1.504 . S
C145 C146 1.373 . S
C145 C149 1.308 1_545 S
C146 C145 1.373 . S
C146 C147 1.429 . S
C146 H156 0.932 . S
C147 C144 1.358 . S
C147 C146 1.429 . S
C147 H157 0.930 . S
C148 C144 1.332 1_565 S
C148 C149 1.394 . S
C148 H158 0.932 . S
C149 C145 1.308 1_565 S
C149 C148 1.394 . S
C149 H159 0.929 . S
C150 Tb121 2.764 . S
C150 O134 1.239 1_545 S
C150 O135 1.263 . S
C150 C144 1.504 . S
C151 O136 1.236 . S
C151 O137 1.257 1_545 S
H152 C125 0.932 . S
H153 C126 0.930 . S
H154 C127 0.932 . S
H155 C128 0.929 . S
H156 C146 0.932 . S
H157 C147 0.930 . S
H158 C148 0.932 . S
H159 C149 0.929 . S
Tb160 C169 2.764 . S
Tb160 O170 2.325 . S
Tb160 O173 2.303 1_565 S
Tb160 O177 2.322 . S
Tb160 O178 2.349 . S
Tb160 O181 2.415 1_565 S
Tb160 O182 2.399 . S
Tb161 O171 2.322 . S
Tb161 O172 2.349 . S
Tb161 O174 2.415 1_545 S
Tb161 O175 2.399 . S
Tb161 O176 2.325 . S
Tb161 O179 2.303 1_545 S
Tb161 C190 2.764 . S
C162 O178 1.261 . S
C162 O179 1.257 . S
C163 C166 1.358 . S
C163 C167 1.332 1_565 S
C163 C169 1.504 1_554 S
C164 C165 1.373 . S
C164 C168 1.308 1_565 S
C165 C164 1.373 . S
C165 C166 1.429 . S
C165 H192 0.932 . S
C166 C163 1.358 . S
C166 C165 1.429 . S
C166 H193 0.930 . S
C167 C163 1.332 1_545 S
C167 C168 1.394 . S
C167 H194 0.932 . S
C168 C164 1.308 1_545 S
C168 C167 1.394 . S
C168 H195 0.929 . S
C169 Tb160 2.764 . S
C169 C163 1.504 1_556 S
C169 O181 1.239 1_565 S
C169 O182 1.263 . S
O170 Tb160 2.325 . S
O170 C180 1.236 . S
O171 Tb161 2.322 . S
O171 C180 1.257 1_545 S
O172 Tb161 2.349 . S
O172 C183 1.261 . S
O173 Tb160 2.303 1_545 S
O173 C183 1.257 . S
O174 Tb161 2.415 1_565 S
O174 C190 1.239 1_565 S
O175 Tb161 2.399 . S
O175 C190 1.263 . S
O176 Tb161 2.325 . S
O176 C191 1.236 1_545 S
O177 Tb160 2.322 . S
O177 C191 1.257 . S
O178 Tb160 2.349 . S
O178 C162 1.261 . S
O179 Tb161 2.303 1_565 S
O179 C162 1.257 . S
C180 O170 1.236 . S
C180 O171 1.257 1_565 S
O181 Tb160 2.415 1_545 S
O181 C169 1.239 1_545 S
O182 Tb160 2.399 . S
O182 C169 1.263 . S
C183 O172 1.261 . S
C183 O173 1.257 . S
C184 C187 1.358 . S
C184 C188 1.332 1_545 S
C184 C190 1.504 . S
C185 C186 1.373 . S
C185 C189 1.308 1_545 S
C186 C185 1.373 . S
C186 C187 1.429 . S
C186 H196 0.932 . S
C187 C184 1.358 . S
C187 C186 1.429 . S
C187 H197 0.930 . S
C188 C184 1.332 1_565 S
C188 C189 1.394 . S
C188 H198 0.932 . S
C189 C185 1.308 1_565 S
C189 C188 1.394 . S
C189 H199 0.929 . S
C190 Tb161 2.764 . S
C190 O174 1.239 1_545 S
C190 O175 1.263 . S
C190 C184 1.504 . S
C191 O176 1.236 1_565 S
C191 O177 1.257 . S
H192 C165 0.932 . S
H193 C166 0.930 . S
H194 C167 0.932 . S
H195 C168 0.929 . S
H196 C186 0.932 . S
H197 C187 0.930 . S
H198 C188 0.932 . S
H199 C189 0.929 . S
Tb200 C209 2.764 . S
Tb200 O210 2.325 . S
Tb200 O213 2.303 . S
Tb200 O217 2.322 . S
Tb200 O218 2.349 . S
Tb200 O221 2.415 . S
Tb200 O222 2.399 . S
Tb201 O211 2.322 . S
Tb201 O212 2.349 . S
Tb201 O214 2.415 . S
Tb201 O215 2.399 . S
Tb201 O216 2.325 . S
Tb201 O219 2.303 . S
Tb201 C230 2.764 . S
C202 O218 1.261 . S
C202 O219 1.257 . S
C203 C206 1.358 . S
C203 C207 1.332 . S
C203 C209 1.504 1_554 S
C204 C205 1.373 . S
C204 C208 1.308 . S
C205 C204 1.373 . S
C205 C206 1.429 . S
C205 H232 0.932 . S
C206 C203 1.358 . S
C206 C205 1.429 . S
C206 H233 0.930 . S
C207 C203 1.332 . S
C207 C208 1.394 . S
C207 H234 0.932 . S
C208 C204 1.308 . S
C208 C207 1.394 . S
C208 H235 0.929 . S
C209 Tb200 2.764 . S
C209 C203 1.504 1_556 S
C209 O221 1.239 . S
C209 O222 1.263 . S
O210 Tb200 2.325 . S
O210 C220 1.236 . S
O211 Tb201 2.322 . S
O211 C220 1.257 . S
O212 Tb201 2.349 . S
O212 C223 1.261 . S
O213 Tb200 2.303 . S
O213 C223 1.257 . S
O214 Tb201 2.415 . S
O214 C230 1.239 . S
O215 Tb201 2.399 . S
O215 C230 1.263 . S
O216 Tb201 2.325 . S
O216 C231 1.236 . S
O217 Tb200 2.322 . S
O217 C231 1.257 . S
O218 Tb200 2.349 . S
O218 C202 1.261 . S
O219 Tb201 2.303 . S
O219 C202 1.257 . S
C220 O210 1.236 . S
C220 O211 1.257 . S
O221 Tb200 2.415 . S
O221 C209 1.239 . S
O222 Tb200 2.399 . S
O222 C209 1.263 . S
C223 O212 1.261 . S
C223 O213 1.257 . S
C224 C227 1.358 . S
C224 C228 1.332 . S
C224 C230 1.504 . S
C225 C226 1.373 . S
C225 C229 1.308 . S
C226 C225 1.373 . S
C226 C227 1.429 . S
C226 H236 0.932 . S
C227 C224 1.358 . S
C227 C226 1.429 . S
C227 H237 0.930 . S
C228 C224 1.332 . S
C228 C229 1.394 . S
C228 H238 0.932 . S
C229 C225 1.308 . S
C229 C228 1.394 . S
C229 H239 0.929 . S
C230 Tb201 2.764 . S
C230 O214 1.239 . S
C230 O215 1.263 . S
C230 C224 1.504 . S
C231 O216 1.236 . S
C231 O217 1.257 . S
H232 C205 0.932 . S
H233 C206 0.930 . S
H234 C207 0.932 . S
H235 C208 0.929 . S
H236 C226 0.932 . S
H237 C227 0.930 . S
H238 C228 0.932 . S
H239 C229 0.929 . S
Tb240 C249 2.764 . S
Tb240 O250 2.325 . S
Tb240 O253 2.303 . S
Tb240 O257 2.322 . S
Tb240 O258 2.349 . S
Tb240 O261 2.415 . S
Tb240 O262 2.399 . S
Tb241 O251 2.322 . S
Tb241 O252 2.349 . S
Tb241 O254 2.415 . S
Tb241 O255 2.399 . S
Tb241 O256 2.325 . S
Tb241 O259 2.303 . S
Tb241 C270 2.764 . S
C242 O258 1.261 . S
C242 O259 1.257 . S
C243 C246 1.358 . S
C243 C247 1.332 . S
C243 C249 1.504 . S
C244 C245 1.373 . S
C244 C248 1.308 . S
C245 C244 1.373 . S
C245 C246 1.429 . S
C245 H272 0.932 . S
C246 C243 1.358 . S
C246 C245 1.429 . S
C246 H273 0.930 . S
C247 C243 1.332 . S
C247 C248 1.394 . S
C247 H274 0.932 . S
C248 C244 1.308 . S
C248 C247 1.394 . S
C248 H275 0.929 . S
C249 Tb240 2.764 . S
C249 C243 1.504 . S
C249 O261 1.239 . S
C249 O262 1.263 . S
O250 Tb240 2.325 . S
O250 C260 1.236 . S
O251 Tb241 2.322 . S
O251 C260 1.257 . S
O252 Tb241 2.349 . S
O252 C263 1.261 . S
O253 Tb240 2.303 . S
O253 C263 1.257 . S
O254 Tb241 2.415 . S
O254 C270 1.239 . S
O255 Tb241 2.399 . S
O255 C270 1.263 . S
O256 Tb241 2.325 . S
O256 C271 1.236 . S
O257 Tb240 2.322 . S
O257 C271 1.257 . S
O258 Tb240 2.349 . S
O258 C242 1.261 . S
O259 Tb241 2.303 . S
O259 C242 1.257 . S
C260 O250 1.236 . S
C260 O251 1.257 . S
O261 Tb240 2.415 . S
O261 C249 1.239 . S
O262 Tb240 2.399 . S
O262 C249 1.263 . S
C263 O252 1.261 . S
C263 O253 1.257 . S
C264 C267 1.358 . S
C264 C268 1.332 . S
C264 C270 1.504 . S
C265 C266 1.373 . S
C265 C269 1.308 . S
C266 C265 1.373 . S
C266 C267 1.429 . S
C266 H276 0.932 . S
C267 C264 1.358 . S
C267 C266 1.429 . S
C267 H277 0.930 . S
C268 C264 1.332 . S
C268 C269 1.394 . S
C268 H278 0.932 . S
C269 C265 1.308 . S
C269 C268 1.394 . S
C269 H279 0.929 . S
C270 Tb241 2.764 . S
C270 O254 1.239 . S
C270 O255 1.263 . S
C270 C264 1.504 . S
C271 O256 1.236 . S
C271 O257 1.257 . S
H272 C245 0.932 . S
H273 C246 0.930 . S
H274 C247 0.932 . S
H275 C248 0.929 . S
H276 C266 0.932 . S
H277 C267 0.930 . S
H278 C268 0.932 . S
H279 C269 0.929 . S
Tb280 C289 2.764 . S
Tb280 O290 2.325 . S
Tb280 O293 2.303 1_565 S
Tb280 O297 2.322 . S
Tb280 O298 2.349 . S
Tb280 O301 2.415 1_565 S
Tb280 O302 2.399 . S
Tb281 O291 2.322 . S
Tb281 O292 2.349 . S
Tb281 O294 2.415 1_545 S
Tb281 O295 2.399 . S
Tb281 O296 2.325 . S
Tb281 O299 2.303 1_545 S
Tb281 C310 2.764 . S
C282 O298 1.261 . S
C282 O299 1.257 . S
C283 C286 1.358 . S
C283 C287 1.332 1_565 S
C283 C289 1.504 . S
C284 C285 1.373 . S
C284 C288 1.308 1_565 S
C285 C284 1.373 . S
C285 C286 1.429 . S
C285 H312 0.932 . S
C286 C283 1.358 . S
C286 C285 1.429 . S
C286 H313 0.930 . S
C287 C283 1.332 1_545 S
C287 C288 1.394 . S
C287 H314 0.932 . S
C288 C284 1.308 1_545 S
C288 C287 1.394 . S
C288 H315 0.929 . S
C289 Tb280 2.764 . S
C289 C283 1.504 . S
C289 O301 1.239 1_565 S
C289 O302 1.263 . S
O290 Tb280 2.325 . S
O290 C300 1.236 . S
O291 Tb281 2.322 . S
O291 C300 1.257 1_545 S
O292 Tb281 2.349 . S
O292 C303 1.261 . S
O293 Tb280 2.303 1_545 S
O293 C303 1.257 . S
O294 Tb281 2.415 1_565 S
O294 C310 1.239 1_565 S
O295 Tb281 2.399 . S
O295 C310 1.263 . S
O296 Tb281 2.325 . S
O296 C311 1.236 1_545 S
O297 Tb280 2.322 . S
O297 C311 1.257 . S
O298 Tb280 2.349 . S
O298 C282 1.261 . S
O299 Tb281 2.303 1_565 S
O299 C282 1.257 . S
C300 O290 1.236 . S
C300 O291 1.257 1_565 S
O301 Tb280 2.415 1_545 S
O301 C289 1.239 1_545 S
O302 Tb280 2.399 . S
O302 C289 1.263 . S
C303 O292 1.261 . S
C303 O293 1.257 . S
C304 C307 1.358 . S
C304 C308 1.332 1_545 S
C304 C310 1.504 . S
C305 C306 1.373 . S
C305 C309 1.308 1_545 S
C306 C305 1.373 . S
C306 C307 1.429 . S
C306 H316 0.932 . S
C307 C304 1.358 . S
C307 C306 1.429 . S
C307 H317 0.930 . S
C308 C304 1.332 1_565 S
C308 C309 1.394 . S
C308 H318 0.932 . S
C309 C305 1.308 1_565 S
C309 C308 1.394 . S
C309 H319 0.929 . S
C310 Tb281 2.764 . S
C310 O294 1.239 1_545 S
C310 O295 1.263 . S
C310 C304 1.504 . S
C311 O296 1.236 1_565 S
C311 O297 1.257 . S
H312 C285 0.932 . S
H313 C286 0.930 . S
H314 C287 0.932 . S
H315 C288 0.929 . S
H316 C306 0.932 . S
H317 C307 0.930 . S
H318 C308 0.932 . S
H319 C309 0.929 . S
Tb320 C329 2.764 . S
Tb320 O330 2.325 . S
Tb320 O333 2.303 . S
Tb320 O337 2.322 . S
Tb320 O338 2.349 . S
Tb320 O341 2.415 . S
Tb320 O342 2.399 . S
Tb321 O331 2.322 . S
Tb321 O332 2.349 . S
Tb321 O334 2.415 . S
Tb321 O335 2.399 . S
Tb321 O336 2.325 . S
Tb321 O339 2.303 . S
Tb321 C350 2.764 . S
C322 O338 1.261 . S
C322 O339 1.257 . S
C323 C326 1.358 . S
C323 C327 1.332 . S
C323 C329 1.504 . S
C324 C325 1.373 . S
C324 C328 1.308 . S
C325 C324 1.373 . S
C325 C326 1.429 . S
C325 H352 0.932 . S
C326 C323 1.358 . S
C326 C325 1.429 . S
C326 H353 0.930 . S
C327 C323 1.332 . S
C327 C328 1.394 . S
C327 H354 0.932 . S
C328 C324 1.308 . S
C328 C327 1.394 . S
C328 H355 0.929 . S
C329 Tb320 2.764 . S
C329 C323 1.504 . S
C329 O341 1.239 . S
C329 O342 1.263 . S
O330 Tb320 2.325 . S
O330 C340 1.236 . S
O331 Tb321 2.322 . S
O331 C340 1.257 . S
O332 Tb321 2.349 . S
O332 C343 1.261 . S
O333 Tb320 2.303 . S
O333 C343 1.257 . S
O334 Tb321 2.415 . S
O334 C350 1.239 . S
O335 Tb321 2.399 . S
O335 C350 1.263 . S
O336 Tb321 2.325 . S
O336 C351 1.236 . S
O337 Tb320 2.322 . S
O337 C351 1.257 . S
O338 Tb320 2.349 . S
O338 C322 1.261 . S
O339 Tb321 2.303 . S
O339 C322 1.257 . S
C340 O330 1.236 . S
C340 O331 1.257 . S
O341 Tb320 2.415 . S
O341 C329 1.239 . S
O342 Tb320 2.399 . S
O342 C329 1.263 . S
C343 O332 1.261 . S
C343 O333 1.257 . S
C344 C347 1.358 . S
C344 C348 1.332 . S
C344 C350 1.504 . S
C345 C346 1.373 . S
C345 C349 1.308 . S
C346 C345 1.373 . S
C346 C347 1.429 . S
C346 H356 0.932 . S
C347 C344 1.358 . S
C347 C346 1.429 . S
C347 H357 0.930 . S
C348 C344 1.332 . S
C348 C349 1.394 . S
C348 H358 0.932 . S
C349 C345 1.308 . S
C349 C348 1.394 . S
C349 H359 0.929 . S
C350 Tb321 2.764 . S
C350 O334 1.239 . S
C350 O335 1.263 . S
C350 C344 1.504 . S
C351 O336 1.236 . S
C351 O337 1.257 . S
H352 C325 0.932 . S
H353 C326 0.930 . S
H354 C327 0.932 . S
H355 C328 0.929 . S
H356 C346 0.932 . S
H357 C347 0.930 . S
H358 C348 0.932 . S
H359 C349 0.929 . S
Tb360 C369 2.764 . S
Tb360 O370 2.325 . S
Tb360 O373 2.303 . S
Tb360 O377 2.322 . S
Tb360 O378 2.349 . S
Tb360 O381 2.415 . S
Tb360 O382 2.399 . S
Tb361 O371 2.322 . S
Tb361 O372 2.349 . S
Tb361 O374 2.415 . S
Tb361 O375 2.399 . S
Tb361 O376 2.325 . S
Tb361 O379 2.303 . S
Tb361 C390 2.764 . S
C362 O378 1.261 . S
C362 O379 1.257 . S
C363 C366 1.358 . S
C363 C367 1.332 . S
C363 C369 1.504 . S
C364 C365 1.373 . S
C364 C368 1.308 . S
C365 C364 1.373 . S
C365 C366 1.429 . S
C365 H392 0.932 . S
C366 C363 1.358 . S
C366 C365 1.429 . S
C366 H393 0.930 . S
C367 C363 1.332 . S
C367 C368 1.394 . S
C367 H394 0.932 . S
C368 C364 1.308 . S
C368 C367 1.394 . S
C368 H395 0.929 . S
C369 Tb360 2.764 . S
C369 C363 1.504 . S
C369 O381 1.239 . S
C369 O382 1.263 . S
O370 Tb360 2.325 . S
O370 C380 1.236 . S
O371 Tb361 2.322 . S
O371 C380 1.257 . S
O372 Tb361 2.349 . S
O372 C383 1.261 . S
O373 Tb360 2.303 . S
O373 C383 1.257 . S
O374 Tb361 2.415 . S
O374 C390 1.239 . S
O375 Tb361 2.399 . S
O375 C390 1.263 . S
O376 Tb361 2.325 . S
O376 C391 1.236 . S
O377 Tb360 2.322 . S
O377 C391 1.257 . S
O378 Tb360 2.349 . S
O378 C362 1.261 . S
O379 Tb361 2.303 . S
O379 C362 1.257 . S
C380 O370 1.236 . S
C380 O371 1.257 . S
O381 Tb360 2.415 . S
O381 C369 1.239 . S
O382 Tb360 2.399 . S
O382 C369 1.263 . S
C383 O372 1.261 . S
C383 O373 1.257 . S
C384 C387 1.358 . S
C384 C388 1.332 . S
C384 C390 1.504 . S
C385 C386 1.373 . S
C385 C389 1.308 . S
C386 C385 1.373 . S
C386 C387 1.429 . S
C386 H396 0.932 . S
C387 C384 1.358 . S
C387 C386 1.429 . S
C387 H397 0.930 . S
C388 C384 1.332 . S
C388 C389 1.394 . S
C388 H398 0.932 . S
C389 C385 1.308 . S
C389 C388 1.394 . S
C389 H399 0.929 . S
C390 Tb361 2.764 . S
C390 O374 1.239 . S
C390 O375 1.263 . S
C390 C384 1.504 . S
C391 O376 1.236 . S
C391 O377 1.257 . S
H392 C365 0.932 . S
H393 C366 0.930 . S
H394 C367 0.932 . S
H395 C368 0.929 . S
H396 C386 0.932 . S
H397 C387 0.930 . S
H398 C388 0.932 . S
H399 C389 0.929 . S
Tb400 C409 2.764 . S
Tb400 O410 2.325 . S
Tb400 O413 2.303 . S
Tb400 O417 2.322 . S
Tb400 O418 2.349 . S
Tb400 O421 2.415 . S
Tb400 O422 2.399 . S
Tb401 O411 2.322 . S
Tb401 O412 2.349 . S
Tb401 O414 2.415 . S
Tb401 O415 2.399 . S
Tb401 O416 2.325 . S
Tb401 O419 2.303 . S
Tb401 C430 2.764 . S
C402 O418 1.261 . S
C402 O419 1.257 . S
C403 C406 1.358 . S
C403 C407 1.332 . S
C403 C409 1.504 . S
C404 C405 1.373 . S
C404 C408 1.308 . S
C405 C404 1.373 . S
C405 C406 1.429 . S
C405 H432 0.932 . S
C406 C403 1.358 . S
C406 C405 1.429 . S
C406 H433 0.930 . S
C407 C403 1.332 . S
C407 C408 1.394 . S
C407 H434 0.932 . S
C408 C404 1.308 . S
C408 C407 1.394 . S
C408 H435 0.929 . S
C409 Tb400 2.764 . S
C409 C403 1.504 . S
C409 O421 1.239 . S
C409 O422 1.263 . S
O410 Tb400 2.325 . S
O410 C420 1.236 . S
O411 Tb401 2.322 . S
O411 C420 1.257 . S
O412 Tb401 2.349 . S
O412 C423 1.261 . S
O413 Tb400 2.303 . S
O413 C423 1.257 . S
O414 Tb401 2.415 . S
O414 C430 1.239 . S
O415 Tb401 2.399 . S
O415 C430 1.263 . S
O416 Tb401 2.325 . S
O416 C431 1.236 . S
O417 Tb400 2.322 . S
O417 C431 1.257 . S
O418 Tb400 2.349 . S
O418 C402 1.261 . S
O419 Tb401 2.303 . S
O419 C402 1.257 . S
C420 O410 1.236 . S
C420 O411 1.257 . S
O421 Tb400 2.415 . S
O421 C409 1.239 . S
O422 Tb400 2.399 . S
O422 C409 1.263 . S
C423 O412 1.261 . S
C423 O413 1.257 . S
C424 C427 1.358 . S
C424 C428 1.332 . S
C424 C430 1.504 . S
C425 C426 1.373 . S
C425 C429 1.308 . S
C426 C425 1.373 . S
C426 C427 1.429 . S
C426 H436 0.932 . S
C427 C424 1.358 . S
C427 C426 1.429 . S
C427 H437 0.930 . S
C428 C424 1.332 . S
C428 C429 1.394 . S
C428 H438 0.932 . S
C429 C425 1.308 . S
C429 C428 1.394 . S
C429 H439 0.929 . S
C430 Tb401 2.764 . S
C430 O414 1.239 . S
C430 O415 1.263 . S
C430 C424 1.504 . S
C431 O416 1.236 . S
C431 O417 1.257 . S
H432 C405 0.932 . S
H433 C406 0.930 . S
H434 C407 0.932 . S
H435 C408 0.929 . S
H436 C426 0.932 . S
H437 C427 0.930 . S
H438 C428 0.932 . S
H439 C429 0.929 . S
Tb440 C449 2.764 . S
Tb440 O450 2.325 . S
Tb440 O453 2.303 . S
Tb440 O457 2.322 . S
Tb440 O458 2.349 . S
Tb440 O461 2.415 . S
Tb440 O462 2.399 . S
Tb441 O451 2.322 . S
Tb441 O452 2.349 . S
Tb441 O454 2.415 . S
Tb441 O455 2.399 . S
Tb441 O456 2.325 . S
Tb441 O459 2.303 . S
Tb441 C470 2.764 . S
C442 O458 1.261 . S
C442 O459 1.257 . S
C443 C446 1.358 . S
C443 C447 1.332 . S
C443 C449 1.504 . S
C444 C445 1.373 . S
C444 C448 1.308 . S
C445 C444 1.373 . S
C445 C446 1.429 . S
C445 H472 0.932 . S
C446 C443 1.358 . S
C446 C445 1.429 . S
C446 H473 0.930 . S
C447 C443 1.332 . S
C447 C448 1.394 . S
C447 H474 0.932 . S
C448 C444 1.308 . S
C448 C447 1.394 . S
C448 H475 0.929 . S
C449 Tb440 2.764 . S
C449 C443 1.504 . S
C449 O461 1.239 . S
C449 O462 1.263 . S
O450 Tb440 2.325 . S
O450 C460 1.236 . S
O451 Tb441 2.322 . S
O451 C460 1.257 . S
O452 Tb441 2.349 . S
O452 C463 1.261 . S
O453 Tb440 2.303 . S
O453 C463 1.257 . S
O454 Tb441 2.415 . S
O454 C470 1.239 . S
O455 Tb441 2.399 . S
O455 C470 1.263 . S
O456 Tb441 2.325 . S
O456 C471 1.236 . S
O457 Tb440 2.322 . S
O457 C471 1.257 . S
O458 Tb440 2.349 . S
O458 C442 1.261 . S
O459 Tb441 2.303 . S
O459 C442 1.257 . S
C460 O450 1.236 . S
C460 O451 1.257 . S
O461 Tb440 2.415 . S
O461 C449 1.239 . S
O462 Tb440 2.399 . S
O462 C449 1.263 . S
C463 O452 1.261 . S
C463 O453 1.257 . S
C464 C467 1.358 . S
C464 C468 1.332 . S
C464 C470 1.504 . S
C465 C466 1.373 . S
C465 C469 1.308 . S
C466 C465 1.373 . S
C466 C467 1.429 . S
C466 H476 0.932 . S
C467 C464 1.358 . S
C467 C466 1.429 . S
C467 H477 0.930 . S
C468 C464 1.332 . S
C468 C469 1.394 . S
C468 H478 0.932 . S
C469 C465 1.308 . S
C469 C468 1.394 . S
C469 H479 0.929 . S
C470 Tb441 2.764 . S
C470 O454 1.239 . S
C470 O455 1.263 . S
C470 C464 1.504 . S
C471 O456 1.236 . S
C471 O457 1.257 . S
H472 C445 0.932 . S
H473 C446 0.930 . S
H474 C447 0.932 . S
H475 C448 0.929 . S
H476 C466 0.932 . S
H477 C467 0.930 . S
H478 C468 0.932 . S
H479 C469 0.929 . S
Tb480 C489 2.764 . S
Tb480 O490 2.325 . S
Tb480 O493 2.303 . S
Tb480 O497 2.322 . S
Tb480 O498 2.349 . S
Tb480 O501 2.415 . S
Tb480 O502 2.399 . S
Tb481 O491 2.322 . S
Tb481 O492 2.349 . S
Tb481 O494 2.415 . S
Tb481 O495 2.399 . S
Tb481 O496 2.325 . S
Tb481 O499 2.303 . S
Tb481 C510 2.764 . S
C482 O498 1.261 . S
C482 O499 1.257 . S
C483 C486 1.358 . S
C483 C487 1.332 . S
C483 C489 1.504 . S
C484 C485 1.373 . S
C484 C488 1.308 . S
C485 C484 1.373 . S
C485 C486 1.429 . S
C485 H512 0.932 . S
C486 C483 1.358 . S
C486 C485 1.429 . S
C486 H513 0.930 . S
C487 C483 1.332 . S
C487 C488 1.394 . S
C487 H514 0.932 . S
C488 C484 1.308 . S
C488 C487 1.394 . S
C488 H515 0.929 . S
C489 Tb480 2.764 . S
C489 C483 1.504 . S
C489 O501 1.239 . S
C489 O502 1.263 . S
O490 Tb480 2.325 . S
O490 C500 1.236 . S
O491 Tb481 2.322 . S
O491 C500 1.257 . S
O492 Tb481 2.349 . S
O492 C503 1.261 . S
O493 Tb480 2.303 . S
O493 C503 1.257 . S
O494 Tb481 2.415 . S
O494 C510 1.239 . S
O495 Tb481 2.399 . S
O495 C510 1.263 . S
O496 Tb481 2.325 . S
O496 C511 1.236 . S
O497 Tb480 2.322 . S
O497 C511 1.257 . S
O498 Tb480 2.349 . S
O498 C482 1.261 . S
O499 Tb481 2.303 . S
O499 C482 1.257 . S
C500 O490 1.236 . S
C500 O491 1.257 . S
O501 Tb480 2.415 . S
O501 C489 1.239 . S
O502 Tb480 2.399 . S
O502 C489 1.263 . S
C503 O492 1.261 . S
C503 O493 1.257 . S
C504 C507 1.358 . S
C504 C508 1.332 . S
C504 C510 1.504 . S
C505 C506 1.373 . S
C505 C509 1.308 . S
C506 C505 1.373 . S
C506 C507 1.429 . S
C506 H516 0.932 . S
C507 C504 1.358 . S
C507 C506 1.429 . S
C507 H517 0.930 . S
C508 C504 1.332 . S
C508 C509 1.394 . S
C508 H518 0.932 . S
C509 C505 1.308 . S
C509 C508 1.394 . S
C509 H519 0.929 . S
C510 Tb481 2.764 . S
C510 O494 1.239 . S
C510 O495 1.263 . S
C510 C504 1.504 . S
C511 O496 1.236 . S
C511 O497 1.257 . S
H512 C485 0.932 . S
H513 C486 0.930 . S
H514 C487 0.932 . S
H515 C488 0.929 . S
H516 C506 0.932 . S
H517 C507 0.930 . S
H518 C508 0.932 . S
H519 C509 0.929 . S
Tb520 C529 2.764 . S
Tb520 O530 2.325 . S
Tb520 O533 2.303 . S
Tb520 O537 2.322 . S
Tb520 O538 2.349 . S
Tb520 O541 2.415 . S
Tb520 O542 2.399 . S
Tb521 O531 2.322 . S
Tb521 O532 2.349 . S
Tb521 O534 2.415 . S
Tb521 O535 2.399 . S
Tb521 O536 2.325 . S
Tb521 O539 2.303 . S
Tb521 C550 2.764 . S
C522 O538 1.261 . S
C522 O539 1.257 . S
C523 C526 1.358 . S
C523 C527 1.332 . S
C523 C529 1.504 . S
C524 C525 1.373 . S
C524 C528 1.308 . S
C525 C524 1.373 . S
C525 C526 1.429 . S
C525 H552 0.932 . S
C526 C523 1.358 . S
C526 C525 1.429 . S
C526 H553 0.930 . S
C527 C523 1.332 . S
C527 C528 1.394 . S
C527 H554 0.932 . S
C528 C524 1.308 . S
C528 C527 1.394 . S
C528 H555 0.929 . S
C529 Tb520 2.764 . S
C529 C523 1.504 . S
C529 O541 1.239 . S
C529 O542 1.263 . S
O530 Tb520 2.325 . S
O530 C540 1.236 . S
O531 Tb521 2.322 . S
O531 C540 1.257 . S
O532 Tb521 2.349 . S
O532 C543 1.261 . S
O533 Tb520 2.303 . S
O533 C543 1.257 . S
O534 Tb521 2.415 . S
O534 C550 1.239 . S
O535 Tb521 2.399 . S
O535 C550 1.263 . S
O536 Tb521 2.325 . S
O536 C551 1.236 . S
O537 Tb520 2.322 . S
O537 C551 1.257 . S
O538 Tb520 2.349 . S
O538 C522 1.261 . S
O539 Tb521 2.303 . S
O539 C522 1.257 . S
C540 O530 1.236 . S
C540 O531 1.257 . S
O541 Tb520 2.415 . S
O541 C529 1.239 . S
O542 Tb520 2.399 . S
O542 C529 1.263 . S
C543 O532 1.261 . S
C543 O533 1.257 . S
C544 C547 1.358 . S
C544 C548 1.332 . S
C544 C550 1.504 . S
C545 C546 1.373 . S
C545 C549 1.308 . S
C546 C545 1.373 . S
C546 C547 1.429 . S
C546 H556 0.932 . S
C547 C544 1.358 . S
C547 C546 1.429 . S
C547 H557 0.930 . S
C548 C544 1.332 . S
C548 C549 1.394 . S
C548 H558 0.932 . S
C549 C545 1.308 . S
C549 C548 1.394 . S
C549 H559 0.929 . S
C550 Tb521 2.764 . S
C550 O534 1.239 . S
C550 O535 1.263 . S
C550 C544 1.504 . S
C551 O536 1.236 . S
C551 O537 1.257 . S
H552 C525 0.932 . S
H553 C526 0.930 . S
H554 C527 0.932 . S
H555 C528 0.929 . S
H556 C546 0.932 . S
H557 C547 0.930 . S
H558 C548 0.932 . S
H559 C549 0.929 . S
Tb560 C569 2.764 . S
Tb560 O570 2.325 . S
Tb560 O573 2.303 . S
Tb560 O577 2.322 . S
Tb560 O578 2.349 . S
Tb560 O581 2.415 . S
Tb560 O582 2.399 . S
Tb561 O571 2.322 . S
Tb561 O572 2.349 . S
Tb561 O574 2.415 . S
Tb561 O575 2.399 . S
Tb561 O576 2.325 . S
Tb561 O579 2.303 . S
Tb561 C590 2.764 . S
C562 O578 1.261 . S
C562 O579 1.257 . S
C563 C566 1.358 . S
C563 C567 1.332 . S
C563 C569 1.504 . S
C564 C565 1.373 . S
C564 C568 1.308 . S
C565 C564 1.373 . S
C565 C566 1.429 . S
C565 H592 0.932 . S
C566 C563 1.358 . S
C566 C565 1.429 . S
C566 H593 0.930 . S
C567 C563 1.332 . S
C567 C568 1.394 . S
C567 H594 0.932 . S
C568 C564 1.308 . S
C568 C567 1.394 . S
C568 H595 0.929 . S
C569 Tb560 2.764 . S
C569 C563 1.504 . S
C569 O581 1.239 . S
C569 O582 1.263 . S
O570 Tb560 2.325 . S
O570 C580 1.236 . S
O571 Tb561 2.322 . S
O571 C580 1.257 . S
O572 Tb561 2.349 . S
O572 C583 1.261 . S
O573 Tb560 2.303 . S
O573 C583 1.257 . S
O574 Tb561 2.415 . S
O574 C590 1.239 . S
O575 Tb561 2.399 . S
O575 C590 1.263 . S
O576 Tb561 2.325 . S
O576 C591 1.236 . S
O577 Tb560 2.322 . S
O577 C591 1.257 . S
O578 Tb560 2.349 . S
O578 C562 1.261 . S
O579 Tb561 2.303 . S
O579 C562 1.257 . S
C580 O570 1.236 . S
C580 O571 1.257 . S
O581 Tb560 2.415 . S
O581 C569 1.239 . S
O582 Tb560 2.399 . S
O582 C569 1.263 . S
C583 O572 1.261 . S
C583 O573 1.257 . S
C584 C587 1.358 . S
C584 C588 1.332 . S
C584 C590 1.504 . S
C585 C586 1.373 . S
C585 C589 1.308 . S
C586 C585 1.373 . S
C586 C587 1.429 . S
C586 H596 0.932 . S
C587 C584 1.358 . S
C587 C586 1.429 . S
C587 H597 0.930 . S
C588 C584 1.332 . S
C588 C589 1.394 . S
C588 H598 0.932 . S
C589 C585 1.308 . S
C589 C588 1.394 . S
C589 H599 0.929 . S
C590 Tb561 2.764 . S
C590 O574 1.239 . S
C590 O575 1.263 . S
C590 C584 1.504 . S
C591 O576 1.236 . S
C591 O577 1.257 . S
H592 C565 0.932 . S
H593 C566 0.930 . S
H594 C567 0.932 . S
H595 C568 0.929 . S
H596 C586 0.932 . S
H597 C587 0.930 . S
H598 C588 0.932 . S
H599 C589 0.929 . S
Tb600 C609 2.764 . S
Tb600 O610 2.325 . S
Tb600 O613 2.303 . S
Tb600 O617 2.322 . S
Tb600 O618 2.349 . S
Tb600 O621 2.415 . S
Tb600 O622 2.399 . S
Tb601 O611 2.322 . S
Tb601 O612 2.349 . S
Tb601 O614 2.415 . S
Tb601 O615 2.399 . S
Tb601 O616 2.325 . S
Tb601 O619 2.303 . S
Tb601 C630 2.764 . S
C602 O618 1.261 . S
C602 O619 1.257 . S
C603 C606 1.358 . S
C603 C607 1.332 . S
C603 C609 1.504 . S
C604 C605 1.373 . S
C604 C608 1.308 . S
C605 C604 1.373 . S
C605 C606 1.429 . S
C605 H632 0.932 . S
C606 C603 1.358 . S
C606 C605 1.429 . S
C606 H633 0.930 . S
C607 C603 1.332 . S
C607 C608 1.394 . S
C607 H634 0.932 . S
C608 C604 1.308 . S
C608 C607 1.394 . S
C608 H635 0.929 . S
C609 Tb600 2.764 . S
C609 C603 1.504 . S
C609 O621 1.239 . S
C609 O622 1.263 . S
O610 Tb600 2.325 . S
O610 C620 1.236 . S
O611 Tb601 2.322 . S
O611 C620 1.257 . S
O612 Tb601 2.349 . S
O612 C623 1.261 . S
O613 Tb600 2.303 . S
O613 C623 1.257 . S
O614 Tb601 2.415 . S
O614 C630 1.239 . S
O615 Tb601 2.399 . S
O615 C630 1.263 . S
O616 Tb601 2.325 . S
O616 C631 1.236 . S
O617 Tb600 2.322 . S
O617 C631 1.257 . S
O618 Tb600 2.349 . S
O618 C602 1.261 . S
O619 Tb601 2.303 . S
O619 C602 1.257 . S
C620 O610 1.236 . S
C620 O611 1.257 . S
O621 Tb600 2.415 . S
O621 C609 1.239 . S
O622 Tb600 2.399 . S
O622 C609 1.263 . S
C623 O612 1.261 . S
C623 O613 1.257 . S
C624 C627 1.358 . S
C624 C628 1.332 . S
C624 C630 1.504 . S
C625 C626 1.373 . S
C625 C629 1.308 . S
C626 C625 1.373 . S
C626 C627 1.429 . S
C626 H636 0.932 . S
C627 C624 1.358 . S
C627 C626 1.429 . S
C627 H637 0.930 . S
C628 C624 1.332 . S
C628 C629 1.394 . S
C628 H638 0.932 . S
C629 C625 1.308 . S
C629 C628 1.394 . S
C629 H639 0.929 . S
C630 Tb601 2.764 . S
C630 O614 1.239 . S
C630 O615 1.263 . S
C630 C624 1.504 . S
C631 O616 1.236 . S
C631 O617 1.257 . S
H632 C605 0.932 . S
H633 C606 0.930 . S
H634 C607 0.932 . S
H635 C608 0.929 . S
H636 C626 0.932 . S
H637 C627 0.930 . S
H638 C628 0.932 . S
H639 C629 0.929 . S
Tb640 C649 2.764 . S
Tb640 O650 2.325 . S
Tb640 O653 2.303 1_565 S
Tb640 O657 2.322 . S
Tb640 O658 2.349 . S
Tb640 O661 2.415 1_565 S
Tb640 O662 2.399 . S
Tb641 O651 2.322 . S
Tb641 O652 2.349 . S
Tb641 O654 2.415 1_545 S
Tb641 O655 2.399 . S
Tb641 O656 2.325 . S
Tb641 O659 2.303 1_545 S
Tb641 C670 2.764 . S
C642 O658 1.261 . S
C642 O659 1.257 . S
C643 C646 1.358 . S
C643 C647 1.332 1_565 S
C643 C649 1.504 . S
C644 C645 1.373 . S
C644 C648 1.308 1_565 S
C645 C644 1.373 . S
C645 C646 1.429 . S
C645 H672 0.932 . S
C646 C643 1.358 . S
C646 C645 1.429 . S
C646 H673 0.930 . S
C647 C643 1.332 1_545 S
C647 C648 1.394 . S
C647 H674 0.932 . S
C648 C644 1.308 1_545 S
C648 C647 1.394 . S
C648 H675 0.929 . S
C649 Tb640 2.764 . S
C649 C643 1.504 . S
C649 O661 1.239 1_565 S
C649 O662 1.263 . S
O650 Tb640 2.325 . S
O650 C660 1.236 1_565 S
O651 Tb641 2.322 . S
O651 C660 1.257 . S
O652 Tb641 2.349 . S
O652 C663 1.261 . S
O653 Tb640 2.303 1_545 S
O653 C663 1.257 . S
O654 Tb641 2.415 1_565 S
O654 C670 1.239 1_565 S
O655 Tb641 2.399 . S
O655 C670 1.263 . S
O656 Tb641 2.325 . S
O656 C671 1.236 . S
O657 Tb640 2.322 . S
O657 C671 1.257 1_565 S
O658 Tb640 2.349 . S
O658 C642 1.261 . S
O659 Tb641 2.303 1_565 S
O659 C642 1.257 . S
C660 O650 1.236 1_545 S
C660 O651 1.257 . S
O661 Tb640 2.415 1_545 S
O661 C649 1.239 1_545 S
O662 Tb640 2.399 . S
O662 C649 1.263 . S
C663 O652 1.261 . S
C663 O653 1.257 . S
C664 C667 1.358 . S
C664 C668 1.332 1_545 S
C664 C670 1.504 . S
C665 C666 1.373 . S
C665 C669 1.308 1_545 S
C666 C665 1.373 . S
C666 C667 1.429 . S
C666 H676 0.932 . S
C667 C664 1.358 . S
C667 C666 1.429 . S
C667 H677 0.930 . S
C668 C664 1.332 1_565 S
C668 C669 1.394 . S
C668 H678 0.932 . S
C669 C665 1.308 1_565 S
C669 C668 1.394 . S
C669 H679 0.929 . S
C670 Tb641 2.764 . S
C670 O654 1.239 1_545 S
C670 O655 1.263 . S
C670 C664 1.504 . S
C671 O656 1.236 . S
C671 O657 1.257 1_545 S
H672 C645 0.932 . S
H673 C646 0.930 . S
H674 C647 0.932 . S
H675 C648 0.929 . S
H676 C666 0.932 . S
H677 C667 0.930 . S
H678 C668 0.932 . S
H679 C669 0.929 . S
Tb680 C689 2.764 . S
Tb680 O690 2.325 . S
Tb680 O693 2.303 . S
Tb680 O697 2.322 . S
Tb680 O698 2.349 . S
Tb680 O701 2.415 . S
Tb680 O702 2.399 . S
Tb681 O691 2.322 . S
Tb681 O692 2.349 . S
Tb681 O694 2.415 . S
Tb681 O695 2.399 . S
Tb681 O696 2.325 . S
Tb681 O699 2.303 . S
Tb681 C710 2.764 . S
C682 O698 1.261 . S
C682 O699 1.257 . S
C683 C686 1.358 . S
C683 C687 1.332 . S
C683 C689 1.504 . S
C684 C685 1.373 . S
C684 C688 1.308 . S
C685 C684 1.373 . S
C685 C686 1.429 . S
C685 H712 0.932 . S
C686 C683 1.358 . S
C686 C685 1.429 . S
C686 H713 0.930 . S
C687 C683 1.332 . S
C687 C688 1.394 . S
C687 H714 0.932 . S
C688 C684 1.308 . S
C688 C687 1.394 . S
C688 H715 0.929 . S
C689 Tb680 2.764 . S
C689 C683 1.504 . S
C689 O701 1.239 . S
C689 O702 1.263 . S
O690 Tb680 2.325 . S
O690 C700 1.236 . S
O691 Tb681 2.322 . S
O691 C700 1.257 . S
O692 Tb681 2.349 . S
O692 C703 1.261 . S
O693 Tb680 2.303 . S
O693 C703 1.257 . S
O694 Tb681 2.415 . S
O694 C710 1.239 . S
O695 Tb681 2.399 . S
O695 C710 1.263 . S
O696 Tb681 2.325 . S
O696 C711 1.236 . S
O697 Tb680 2.322 . S
O697 C711 1.257 . S
O698 Tb680 2.349 . S
O698 C682 1.261 . S
O699 Tb681 2.303 . S
O699 C682 1.257 . S
C700 O690 1.236 . S
C700 O691 1.257 . S
O701 Tb680 2.415 . S
O701 C689 1.239 . S
O702 Tb680 2.399 . S
O702 C689 1.263 . S
C703 O692 1.261 . S
C703 O693 1.257 . S
C704 C707 1.358 . S
C704 C708 1.332 . S
C704 C710 1.504 . S
C705 C706 1.373 . S
C705 C709 1.308 . S
C706 C705 1.373 . S
C706 C707 1.429 . S
C706 H716 0.932 . S
C707 C704 1.358 . S
C707 C706 1.429 . S
C707 H717 0.930 . S
C708 C704 1.332 . S
C708 C709 1.394 . S
C708 H718 0.932 . S
C709 C705 1.308 . S
C709 C708 1.394 . S
C709 H719 0.929 . S
C710 Tb681 2.764 . S
C710 O694 1.239 . S
C710 O695 1.263 . S
C710 C704 1.504 . S
C711 O696 1.236 . S
C711 O697 1.257 . S
H712 C685 0.932 . S
H713 C686 0.930 . S
H714 C687 0.932 . S
H715 C688 0.929 . S
H716 C706 0.932 . S
H717 C707 0.930 . S
H718 C708 0.932 . S
H719 C709 0.929 . S
Tb720 C729 2.764 . S
Tb720 O730 2.325 . S
Tb720 O733 2.303 . S
Tb720 O737 2.322 . S
Tb720 O738 2.349 . S
Tb720 O741 2.415 . S
Tb720 O742 2.399 . S
Tb721 O731 2.322 . S
Tb721 O732 2.349 . S
Tb721 O734 2.415 . S
Tb721 O735 2.399 . S
Tb721 O736 2.325 . S
Tb721 O739 2.303 . S
Tb721 C750 2.764 . S
C722 O738 1.261 . S
C722 O739 1.257 . S
C723 C726 1.358 . S
C723 C727 1.332 . S
C723 C729 1.504 . S
C724 C725 1.373 . S
C724 C728 1.308 . S
C725 C724 1.373 . S
C725 C726 1.429 . S
C725 H752 0.932 . S
C726 C723 1.358 . S
C726 C725 1.429 . S
C726 H753 0.930 . S
C727 C723 1.332 . S
C727 C728 1.394 . S
C727 H754 0.932 . S
C728 C724 1.308 . S
C728 C727 1.394 . S
C728 H755 0.929 . S
C729 Tb720 2.764 . S
C729 C723 1.504 . S
C729 O741 1.239 . S
C729 O742 1.263 . S
O730 Tb720 2.325 . S
O730 C740 1.236 . S
O731 Tb721 2.322 . S
O731 C740 1.257 . S
O732 Tb721 2.349 . S
O732 C743 1.261 . S
O733 Tb720 2.303 . S
O733 C743 1.257 . S
O734 Tb721 2.415 . S
O734 C750 1.239 . S
O735 Tb721 2.399 . S
O735 C750 1.263 . S
O736 Tb721 2.325 . S
O736 C751 1.236 . S
O737 Tb720 2.322 . S
O737 C751 1.257 . S
O738 Tb720 2.349 . S
O738 C722 1.261 . S
O739 Tb721 2.303 . S
O739 C722 1.257 . S
C740 O730 1.236 . S
C740 O731 1.257 . S
O741 Tb720 2.415 . S
O741 C729 1.239 . S
O742 Tb720 2.399 . S
O742 C729 1.263 . S
C743 O732 1.261 . S
C743 O733 1.257 . S
C744 C747 1.358 . S
C744 C748 1.332 . S
C744 C750 1.504 . S
C745 C746 1.373 . S
C745 C749 1.308 . S
C746 C745 1.373 . S
C746 C747 1.429 . S
C746 H756 0.932 . S
C747 C744 1.358 . S
C747 C746 1.429 . S
C747 H757 0.930 . S
C748 C744 1.332 . S
C748 C749 1.394 . S
C748 H758 0.932 . S
C749 C745 1.308 . S
C749 C748 1.394 . S
C749 H759 0.929 . S
C750 Tb721 2.764 . S
C750 O734 1.239 . S
C750 O735 1.263 . S
C750 C744 1.504 . S
C751 O736 1.236 . S
C751 O737 1.257 . S
H752 C725 0.932 . S
H753 C726 0.930 . S
H754 C727 0.932 . S
H755 C728 0.929 . S
H756 C746 0.932 . S
H757 C747 0.930 . S
H758 C748 0.932 . S
H759 C749 0.929 . S
Tb760 C769 2.764 . S
Tb760 O770 2.325 . S
Tb760 O773 2.303 1_565 S
Tb760 O777 2.322 . S
Tb760 O778 2.349 . S
Tb760 O781 2.415 1_565 S
Tb760 O782 2.399 . S
Tb761 O771 2.322 . S
Tb761 O772 2.349 . S
Tb761 O774 2.415 1_545 S
Tb761 O775 2.399 . S
Tb761 O776 2.325 . S
Tb761 O779 2.303 1_545 S
Tb761 C790 2.764 . S
C762 O778 1.261 . S
C762 O779 1.257 . S
C763 C766 1.358 . S
C763 C767 1.332 1_565 S
C763 C769 1.504 . S
C764 C765 1.373 . S
C764 C768 1.308 1_565 S
C765 C764 1.373 . S
C765 C766 1.429 . S
C765 H792 0.932 . S
C766 C763 1.358 . S
C766 C765 1.429 . S
C766 H793 0.930 . S
C767 C763 1.332 1_545 S
C767 C768 1.394 . S
C767 H794 0.932 . S
C768 C764 1.308 1_545 S
C768 C767 1.394 . S
C768 H795 0.929 . S
C769 Tb760 2.764 . S
C769 C763 1.504 . S
C769 O781 1.239 1_565 S
C769 O782 1.263 . S
O770 Tb760 2.325 . S
O770 C780 1.236 1_565 S
O771 Tb761 2.322 . S
O771 C780 1.257 . S
O772 Tb761 2.349 . S
O772 C783 1.261 . S
O773 Tb760 2.303 1_545 S
O773 C783 1.257 . S
O774 Tb761 2.415 1_565 S
O774 C790 1.239 1_565 S
O775 Tb761 2.399 . S
O775 C790 1.263 . S
O776 Tb761 2.325 . S
O776 C791 1.236 . S
O777 Tb760 2.322 . S
O777 C791 1.257 1_565 S
O778 Tb760 2.349 . S
O778 C762 1.261 . S
O779 Tb761 2.303 1_565 S
O779 C762 1.257 . S
C780 O770 1.236 1_545 S
C780 O771 1.257 . S
O781 Tb760 2.415 1_545 S
O781 C769 1.239 1_545 S
O782 Tb760 2.399 . S
O782 C769 1.263 . S
C783 O772 1.261 . S
C783 O773 1.257 . S
C784 C787 1.358 . S
C784 C788 1.332 1_545 S
C784 C790 1.504 . S
C785 C786 1.373 . S
C785 C789 1.308 1_545 S
C786 C785 1.373 . S
C786 C787 1.429 . S
C786 H796 0.932 . S
C787 C784 1.358 . S
C787 C786 1.429 . S
C787 H797 0.930 . S
C788 C784 1.332 1_565 S
C788 C789 1.394 . S
C788 H798 0.932 . S
C789 C785 1.308 1_565 S
C789 C788 1.394 . S
C789 H799 0.929 . S
C790 Tb761 2.764 . S
C790 O774 1.239 1_545 S
C790 O775 1.263 . S
C790 C784 1.504 . S
C791 O776 1.236 . S
C791 O777 1.257 1_545 S
H792 C765 0.932 . S
H793 C766 0.930 . S
H794 C767 0.932 . S
H795 C768 0.929 . S
H796 C786 0.932 . S
H797 C787 0.930 . S
H798 C788 0.932 . S
H799 C789 0.929 . S
Tb800 C809 2.764 . S
Tb800 O810 2.325 . S
Tb800 O813 2.303 1_565 S
Tb800 O817 2.322 . S
Tb800 O818 2.349 . S
Tb800 O821 2.415 1_565 S
Tb800 O822 2.399 . S
Tb801 O811 2.322 . S
Tb801 O812 2.349 . S
Tb801 O814 2.415 1_545 S
Tb801 O815 2.399 . S
Tb801 O816 2.325 . S
Tb801 O819 2.303 1_545 S
Tb801 C830 2.764 . S
C802 O818 1.261 . S
C802 O819 1.257 . S
C803 C806 1.358 . S
C803 C807 1.332 1_565 S
C803 C809 1.504 . S
C804 C805 1.373 . S
C804 C808 1.308 1_565 S
C805 C804 1.373 . S
C805 C806 1.429 . S
C805 H832 0.932 . S
C806 C803 1.358 . S
C806 C805 1.429 . S
C806 H833 0.930 . S
C807 C803 1.332 1_545 S
C807 C808 1.394 . S
C807 H834 0.932 . S
C808 C804 1.308 1_545 S
C808 C807 1.394 . S
C808 H835 0.929 . S
C809 Tb800 2.764 . S
C809 C803 1.504 . S
C809 O821 1.239 1_565 S
C809 O822 1.263 . S
O810 Tb800 2.325 . S
O810 C820 1.236 . S
O811 Tb801 2.322 . S
O811 C820 1.257 1_545 S
O812 Tb801 2.349 . S
O812 C823 1.261 . S
O813 Tb800 2.303 1_545 S
O813 C823 1.257 . S
O814 Tb801 2.415 1_565 S
O814 C830 1.239 1_565 S
O815 Tb801 2.399 . S
O815 C830 1.263 . S
O816 Tb801 2.325 . S
O816 C831 1.236 1_545 S
O817 Tb800 2.322 . S
O817 C831 1.257 . S
O818 Tb800 2.349 . S
O818 C802 1.261 . S
O819 Tb801 2.303 1_565 S
O819 C802 1.257 . S
C820 O810 1.236 . S
C820 O811 1.257 1_565 S
O821 Tb800 2.415 1_545 S
O821 C809 1.239 1_545 S
O822 Tb800 2.399 . S
O822 C809 1.263 . S
C823 O812 1.261 . S
C823 O813 1.257 . S
C824 C827 1.358 . S
C824 C828 1.332 1_545 S
C824 C830 1.504 . S
C825 C826 1.373 . S
C825 C829 1.308 1_545 S
C826 C825 1.373 . S
C826 C827 1.429 . S
C826 H836 0.932 . S
C827 C824 1.358 . S
C827 C826 1.429 . S
C827 H837 0.930 . S
C828 C824 1.332 1_565 S
C828 C829 1.394 . S
C828 H838 0.932 . S
C829 C825 1.308 1_565 S
C829 C828 1.394 . S
C829 H839 0.929 . S
C830 Tb801 2.764 . S
C830 O814 1.239 1_545 S
C830 O815 1.263 . S
C830 C824 1.504 . S
C831 O816 1.236 1_565 S
C831 O817 1.257 . S
H832 C805 0.932 . S
H833 C806 0.930 . S
H834 C807 0.932 . S
H835 C808 0.929 . S
H836 C826 0.932 . S
H837 C827 0.930 . S
H838 C828 0.932 . S
H839 C829 0.929 . S
Tb840 C849 2.764 . S
Tb840 O850 2.325 . S
Tb840 O853 2.303 . S
Tb840 O857 2.322 . S
Tb840 O858 2.349 . S
Tb840 O861 2.415 . S
Tb840 O862 2.399 . S
Tb841 O851 2.322 . S
Tb841 O852 2.349 . S
Tb841 O854 2.415 . S
Tb841 O855 2.399 . S
Tb841 O856 2.325 . S
Tb841 O859 2.303 . S
Tb841 C870 2.764 . S
C842 O858 1.261 . S
C842 O859 1.257 . S
C843 C846 1.358 . S
C843 C847 1.332 . S
C843 C849 1.504 . S
C844 C845 1.373 . S
C844 C848 1.308 . S
C845 C844 1.373 . S
C845 C846 1.429 . S
C845 H872 0.932 . S
C846 C843 1.358 . S
C846 C845 1.429 . S
C846 H873 0.930 . S
C847 C843 1.332 . S
C847 C848 1.394 . S
C847 H874 0.932 . S
C848 C844 1.308 . S
C848 C847 1.394 . S
C848 H875 0.929 . S
C849 Tb840 2.764 . S
C849 C843 1.504 . S
C849 O861 1.239 . S
C849 O862 1.263 . S
O850 Tb840 2.325 . S
O850 C860 1.236 . S
O851 Tb841 2.322 . S
O851 C860 1.257 . S
O852 Tb841 2.349 . S
O852 C863 1.261 . S
O853 Tb840 2.303 . S
O853 C863 1.257 . S
O854 Tb841 2.415 . S
O854 C870 1.239 . S
O855 Tb841 2.399 . S
O855 C870 1.263 . S
O856 Tb841 2.325 . S
O856 C871 1.236 . S
O857 Tb840 2.322 . S
O857 C871 1.257 . S
O858 Tb840 2.349 . S
O858 C842 1.261 . S
O859 Tb841 2.303 . S
O859 C842 1.257 . S
C860 O850 1.236 . S
C860 O851 1.257 . S
O861 Tb840 2.415 . S
O861 C849 1.239 . S
O862 Tb840 2.399 . S
O862 C849 1.263 . S
C863 O852 1.261 . S
C863 O853 1.257 . S
C864 C867 1.358 . S
C864 C868 1.332 . S
C864 C870 1.504 . S
C865 C866 1.373 . S
C865 C869 1.308 . S
C866 C865 1.373 . S
C866 C867 1.429 . S
C866 H876 0.932 . S
C867 C864 1.358 . S
C867 C866 1.429 . S
C867 H877 0.930 . S
C868 C864 1.332 . S
C868 C869 1.394 . S
C868 H878 0.932 . S
C869 C865 1.308 . S
C869 C868 1.394 . S
C869 H879 0.929 . S
C870 Tb841 2.764 . S
C870 O854 1.239 . S
C870 O855 1.263 . S
C870 C864 1.504 . S
C871 O856 1.236 . S
C871 O857 1.257 . S
H872 C845 0.932 . S
H873 C846 0.930 . S
H874 C847 0.932 . S
H875 C848 0.929 . S
H876 C866 0.932 . S
H877 C867 0.930 . S
H878 C868 0.932 . S
H879 C869 0.929 . S
Tb880 C889 2.764 . S
Tb880 O890 2.325 . S
Tb880 O893 2.303 . S
Tb880 O897 2.322 . S
Tb880 O898 2.349 . S
Tb880 O901 2.415 . S
Tb880 O902 2.399 . S
Tb881 O891 2.322 . S
Tb881 O892 2.349 . S
Tb881 O894 2.415 . S
Tb881 O895 2.399 . S
Tb881 O896 2.325 . S
Tb881 O899 2.303 . S
Tb881 C910 2.764 . S
C882 O898 1.261 . S
C882 O899 1.257 . S
C883 C886 1.358 . S
C883 C887 1.332 . S
C883 C889 1.504 . S
C884 C885 1.373 . S
C884 C888 1.308 . S
C885 C884 1.373 . S
C885 C886 1.429 . S
C885 H912 0.932 . S
C886 C883 1.358 . S
C886 C885 1.429 . S
C886 H913 0.930 . S
C887 C883 1.332 . S
C887 C888 1.394 . S
C887 H914 0.932 . S
C888 C884 1.308 . S
C888 C887 1.394 . S
C888 H915 0.929 . S
C889 Tb880 2.764 . S
C889 C883 1.504 . S
C889 O901 1.239 . S
C889 O902 1.263 . S
O890 Tb880 2.325 . S
O890 C900 1.236 . S
O891 Tb881 2.322 . S
O891 C900 1.257 . S
O892 Tb881 2.349 . S
O892 C903 1.261 . S
O893 Tb880 2.303 . S
O893 C903 1.257 . S
O894 Tb881 2.415 . S
O894 C910 1.239 . S
O895 Tb881 2.399 . S
O895 C910 1.263 . S
O896 Tb881 2.325 . S
O896 C911 1.236 . S
O897 Tb880 2.322 . S
O897 C911 1.257 . S
O898 Tb880 2.349 . S
O898 C882 1.261 . S
O899 Tb881 2.303 . S
O899 C882 1.257 . S
C900 O890 1.236 . S
C900 O891 1.257 . S
O901 Tb880 2.415 . S
O901 C889 1.239 . S
O902 Tb880 2.399 . S
O902 C889 1.263 . S
C903 O892 1.261 . S
C903 O893 1.257 . S
C904 C907 1.358 . S
C904 C908 1.332 . S
C904 C910 1.504 . S
C905 C906 1.373 . S
C905 C909 1.308 . S
C906 C905 1.373 . S
C906 C907 1.429 . S
C906 H916 0.932 . S
C907 C904 1.358 . S
C907 C906 1.429 . S
C907 H917 0.930 . S
C908 C904 1.332 . S
C908 C909 1.394 . S
C908 H918 0.932 . S
C909 C905 1.308 . S
C909 C908 1.394 . S
C909 H919 0.929 . S
C910 Tb881 2.764 . S
C910 O894 1.239 . S
C910 O895 1.263 . S
C910 C904 1.504 . S
C911 O896 1.236 . S
C911 O897 1.257 . S
H912 C885 0.932 . S
H913 C886 0.930 . S
H914 C887 0.932 . S
H915 C888 0.929 . S
H916 C906 0.932 . S
H917 C907 0.930 . S
H918 C908 0.932 . S
H919 C909 0.929 . S
Tb920 C929 2.764 . S
Tb920 O930 2.325 . S
Tb920 O933 2.303 1_565 S
Tb920 O937 2.322 . S
Tb920 O938 2.349 . S
Tb920 O941 2.415 1_565 S
Tb920 O942 2.399 . S
Tb921 O931 2.322 . S
Tb921 O932 2.349 . S
Tb921 O934 2.415 1_545 S
Tb921 O935 2.399 . S
Tb921 O936 2.325 . S
Tb921 O939 2.303 1_545 S
Tb921 C950 2.764 . S
C922 O938 1.261 . S
C922 O939 1.257 . S
C923 C926 1.358 . S
C923 C927 1.332 1_565 S
C923 C929 1.504 . S
C924 C925 1.373 . S
C924 C928 1.308 1_565 S
C925 C924 1.373 . S
C925 C926 1.429 . S
C925 H952 0.932 . S
C926 C923 1.358 . S
C926 C925 1.429 . S
C926 H953 0.930 . S
C927 C923 1.332 1_545 S
C927 C928 1.394 . S
C927 H954 0.932 . S
C928 C924 1.308 1_545 S
C928 C927 1.394 . S
C928 H955 0.929 . S
C929 Tb920 2.764 . S
C929 C923 1.504 . S
C929 O941 1.239 1_565 S
C929 O942 1.263 . S
O930 Tb920 2.325 . S
O930 C940 1.236 . S
O931 Tb921 2.322 . S
O931 C940 1.257 1_545 S
O932 Tb921 2.349 . S
O932 C943 1.261 . S
O933 Tb920 2.303 1_545 S
O933 C943 1.257 . S
O934 Tb921 2.415 1_565 S
O934 C950 1.239 1_565 S
O935 Tb921 2.399 . S
O935 C950 1.263 . S
O936 Tb921 2.325 . S
O936 C951 1.236 1_545 S
O937 Tb920 2.322 . S
O937 C951 1.257 . S
O938 Tb920 2.349 . S
O938 C922 1.261 . S
O939 Tb921 2.303 1_565 S
O939 C922 1.257 . S
C940 O930 1.236 . S
C940 O931 1.257 1_565 S
O941 Tb920 2.415 1_545 S
O941 C929 1.239 1_545 S
O942 Tb920 2.399 . S
O942 C929 1.263 . S
C943 O932 1.261 . S
C943 O933 1.257 . S
C944 C947 1.358 . S
C944 C948 1.332 1_545 S
C944 C950 1.504 . S
C945 C946 1.373 . S
C945 C949 1.308 1_545 S
C946 C945 1.373 . S
C946 C947 1.429 . S
C946 H956 0.932 . S
C947 C944 1.358 . S
C947 C946 1.429 . S
C947 H957 0.930 . S
C948 C944 1.332 1_565 S
C948 C949 1.394 . S
C948 H958 0.932 . S
C949 C945 1.308 1_565 S
C949 C948 1.394 . S
C949 H959 0.929 . S
C950 Tb921 2.764 . S
C950 O934 1.239 1_545 S
C950 O935 1.263 . S
C950 C944 1.504 . S
C951 O936 1.236 1_565 S
C951 O937 1.257 . S
H952 C925 0.932 . S
H953 C926 0.930 . S
H954 C927 0.932 . S
H955 C928 0.929 . S
H956 C946 0.932 . S
H957 C947 0.930 . S
H958 C948 0.932 . S
H959 C949 0.929 . S
Tb960 C969 2.764 . S
Tb960 O970 2.325 . S
Tb960 O973 2.303 . S
Tb960 O977 2.322 . S
Tb960 O978 2.349 . S
Tb960 O981 2.415 . S
Tb960 O982 2.399 . S
Tb961 O971 2.322 . S
Tb961 O972 2.349 . S
Tb961 O974 2.415 . S
Tb961 O975 2.399 . S
Tb961 O976 2.325 . S
Tb961 O979 2.303 . S
Tb961 C990 2.764 . S
C962 O978 1.261 . S
C962 O979 1.257 . S
C963 C966 1.358 . S
C963 C967 1.332 . S
C963 C969 1.504 . S
C964 C965 1.373 . S
C964 C968 1.308 . S
C965 C964 1.373 . S
C965 C966 1.429 . S
C965 H992 0.932 . S
C966 C963 1.358 . S
C966 C965 1.429 . S
C966 H993 0.930 . S
C967 C963 1.332 . S
C967 C968 1.394 . S
C967 H994 0.932 . S
C968 C964 1.308 . S
C968 C967 1.394 . S
C968 H995 0.929 . S
C969 Tb960 2.764 . S
C969 C963 1.504 . S
C969 O981 1.239 . S
C969 O982 1.263 . S
O970 Tb960 2.325 . S
O970 C980 1.236 . S
O971 Tb961 2.322 . S
O971 C980 1.257 . S
O972 Tb961 2.349 . S
O972 C983 1.261 . S
O973 Tb960 2.303 . S
O973 C983 1.257 . S
O974 Tb961 2.415 . S
O974 C990 1.239 . S
O975 Tb961 2.399 . S
O975 C990 1.263 . S
O976 Tb961 2.325 . S
O976 C991 1.236 . S
O977 Tb960 2.322 . S
O977 C991 1.257 . S
O978 Tb960 2.349 . S
O978 C962 1.261 . S
O979 Tb961 2.303 . S
O979 C962 1.257 . S
C980 O970 1.236 . S
C980 O971 1.257 . S
O981 Tb960 2.415 . S
O981 C969 1.239 . S
O982 Tb960 2.399 . S
O982 C969 1.263 . S
C983 O972 1.261 . S
C983 O973 1.257 . S
C984 C987 1.358 . S
C984 C988 1.332 . S
C984 C990 1.504 1_556 S
C985 C986 1.373 . S
C985 C989 1.308 . S
C986 C985 1.373 . S
C986 C987 1.429 . S
C986 H996 0.932 . S
C987 C984 1.358 . S
C987 C986 1.429 . S
C987 H997 0.930 . S
C988 C984 1.332 . S
C988 C989 1.394 . S
C988 H998 0.932 . S
C989 C985 1.308 . S
C989 C988 1.394 . S
C989 H999 0.929 . S
C990 Tb961 2.764 . S
C990 O974 1.239 . S
C990 O975 1.263 . S
C990 C984 1.504 1_554 S
C991 O976 1.236 . S
C991 O977 1.257 . S
H992 C965 0.932 . S
H993 C966 0.930 . S
H994 C967 0.932 . S
H995 C968 0.929 . S
H996 C986 0.932 . S
H997 C987 0.930 . S
H998 C988 0.932 . S
H999 C989 0.929 . S
Tb1000 C1009 2.764 . S
Tb1000 O1010 2.325 . S
Tb1000 O1013 2.303 . S
Tb1000 O1017 2.322 . S
Tb1000 O1018 2.349 . S
Tb1000 O1021 2.415 . S
Tb1000 O1022 2.399 . S
Tb1001 O1011 2.322 . S
Tb1001 O1012 2.349 . S
Tb1001 O1014 2.415 . S
Tb1001 O1015 2.399 . S
Tb1001 O1016 2.325 . S
Tb1001 O1019 2.303 . S
Tb1001 C1030 2.764 . S
C1002 O1018 1.261 . S
C1002 O1019 1.257 . S
C1003 C1006 1.358 . S
C1003 C1007 1.332 . S
C1003 C1009 1.504 . S
C1004 C1005 1.373 . S
C1004 C1008 1.308 . S
C1005 C1004 1.373 . S
C1005 C1006 1.429 . S
C1005 H1032 0.932 . S
C1006 C1003 1.358 . S
C1006 C1005 1.429 . S
C1006 H1033 0.930 . S
C1007 C1003 1.332 . S
C1007 C1008 1.394 . S
C1007 H1034 0.932 . S
C1008 C1004 1.308 . S
C1008 C1007 1.394 . S
C1008 H1035 0.929 . S
C1009 Tb1000 2.764 . S
C1009 C1003 1.504 . S
C1009 O1021 1.239 . S
C1009 O1022 1.263 . S
O1010 Tb1000 2.325 . S
O1010 C1020 1.236 . S
O1011 Tb1001 2.322 . S
O1011 C1020 1.257 . S
O1012 Tb1001 2.349 . S
O1012 C1023 1.261 . S
O1013 Tb1000 2.303 . S
O1013 C1023 1.257 . S
O1014 Tb1001 2.415 . S
O1014 C1030 1.239 . S
O1015 Tb1001 2.399 . S
O1015 C1030 1.263 . S
O1016 Tb1001 2.325 . S
O1016 C1031 1.236 . S
O1017 Tb1000 2.322 . S
O1017 C1031 1.257 . S
O1018 Tb1000 2.349 . S
O1018 C1002 1.261 . S
O1019 Tb1001 2.303 . S
O1019 C1002 1.257 . S
C1020 O1010 1.236 . S
C1020 O1011 1.257 . S
O1021 Tb1000 2.415 . S
O1021 C1009 1.239 . S
O1022 Tb1000 2.399 . S
O1022 C1009 1.263 . S
C1023 O1012 1.261 . S
C1023 O1013 1.257 . S
C1024 C1027 1.358 . S
C1024 C1028 1.332 . S
C1024 C1030 1.504 1_556 S
C1025 C1026 1.373 . S
C1025 C1029 1.308 . S
C1026 C1025 1.373 . S
C1026 C1027 1.429 . S
C1026 H1036 0.932 . S
C1027 C1024 1.358 . S
C1027 C1026 1.429 . S
C1027 H1037 0.930 . S
C1028 C1024 1.332 . S
C1028 C1029 1.394 . S
C1028 H1038 0.932 . S
C1029 C1025 1.308 . S
C1029 C1028 1.394 . S
C1029 H1039 0.929 . S
C1030 Tb1001 2.764 . S
C1030 O1014 1.239 . S
C1030 O1015 1.263 . S
C1030 C1024 1.504 1_554 S
C1031 O1016 1.236 . S
C1031 O1017 1.257 . S
H1032 C1005 0.932 . S
H1033 C1006 0.930 . S
H1034 C1007 0.932 . S
H1035 C1008 0.929 . S
H1036 C1026 0.932 . S
H1037 C1027 0.930 . S
H1038 C1028 0.932 . S
H1039 C1029 0.929 . S
Tb1040 C1049 2.764 . S
Tb1040 O1050 2.325 . S
Tb1040 O1053 2.303 . S
Tb1040 O1057 2.322 . S
Tb1040 O1058 2.349 . S
Tb1040 O1061 2.415 . S
Tb1040 O1062 2.399 . S
Tb1041 O1051 2.322 . S
Tb1041 O1052 2.349 . S
Tb1041 O1054 2.415 . S
Tb1041 O1055 2.399 . S
Tb1041 O1056 2.325 . S
Tb1041 O1059 2.303 . S
Tb1041 C1070 2.764 . S
C1042 O1058 1.261 . S
C1042 O1059 1.257 . S
C1043 C1046 1.358 . S
C1043 C1047 1.332 . S
C1043 C1049 1.504 . S
C1044 C1045 1.373 . S
C1044 C1048 1.308 . S
C1045 C1044 1.373 . S
C1045 C1046 1.429 . S
C1045 H1072 0.932 . S
C1046 C1043 1.358 . S
C1046 C1045 1.429 . S
C1046 H1073 0.930 . S
C1047 C1043 1.332 . S
C1047 C1048 1.394 . S
C1047 H1074 0.932 . S
C1048 C1044 1.308 . S
C1048 C1047 1.394 . S
C1048 H1075 0.929 . S
C1049 Tb1040 2.764 . S
C1049 C1043 1.504 . S
C1049 O1061 1.239 . S
C1049 O1062 1.263 . S
O1050 Tb1040 2.325 . S
O1050 C1060 1.236 . S
O1051 Tb1041 2.322 . S
O1051 C1060 1.257 . S
O1052 Tb1041 2.349 . S
O1052 C1063 1.261 . S
O1053 Tb1040 2.303 . S
O1053 C1063 1.257 . S
O1054 Tb1041 2.415 . S
O1054 C1070 1.239 . S
O1055 Tb1041 2.399 . S
O1055 C1070 1.263 . S
O1056 Tb1041 2.325 . S
O1056 C1071 1.236 . S
O1057 Tb1040 2.322 . S
O1057 C1071 1.257 . S
O1058 Tb1040 2.349 . S
O1058 C1042 1.261 . S
O1059 Tb1041 2.303 . S
O1059 C1042 1.257 . S
C1060 O1050 1.236 . S
C1060 O1051 1.257 . S
O1061 Tb1040 2.415 . S
O1061 C1049 1.239 . S
O1062 Tb1040 2.399 . S
O1062 C1049 1.263 . S
C1063 O1052 1.261 . S
C1063 O1053 1.257 . S
C1064 C1067 1.358 . S
C1064 C1068 1.332 . S
C1064 C1070 1.504 . S
C1065 C1066 1.373 . S
C1065 C1069 1.308 . S
C1066 C1065 1.373 . S
C1066 C1067 1.429 . S
C1066 H1076 0.932 . S
C1067 C1064 1.358 . S
C1067 C1066 1.429 . S
C1067 H1077 0.930 . S
C1068 C1064 1.332 . S
C1068 C1069 1.394 . S
C1068 H1078 0.932 . S
C1069 C1065 1.308 . S
C1069 C1068 1.394 . S
C1069 H1079 0.929 . S
C1070 Tb1041 2.764 . S
C1070 O1054 1.239 . S
C1070 O1055 1.263 . S
C1070 C1064 1.504 . S
C1071 O1056 1.236 . S
C1071 O1057 1.257 . S
H1072 C1045 0.932 . S
H1073 C1046 0.930 . S
H1074 C1047 0.932 . S
H1075 C1048 0.929 . S
H1076 C1066 0.932 . S
H1077 C1067 0.930 . S
H1078 C1068 0.932 . S
H1079 C1069 0.929 . S
Tb1080 C1089 2.764 . S
Tb1080 O1090 2.325 . S
Tb1080 O1093 2.303 . S
Tb1080 O1097 2.322 . S
Tb1080 O1098 2.349 . S
Tb1080 O1101 2.415 . S
Tb1080 O1102 2.399 . S
Tb1081 O1091 2.322 . S
Tb1081 O1092 2.349 . S
Tb1081 O1094 2.415 . S
Tb1081 O1095 2.399 . S
Tb1081 O1096 2.325 . S
Tb1081 O1099 2.303 . S
Tb1081 C1110 2.764 . S
C1082 O1098 1.261 . S
C1082 O1099 1.257 . S
C1083 C1086 1.358 . S
C1083 C1087 1.332 . S
C1083 C1089 1.504 . S
C1084 C1085 1.373 . S
C1084 C1088 1.308 . S
C1085 C1084 1.373 . S
C1085 C1086 1.429 . S
C1085 H1112 0.932 . S
C1086 C1083 1.358 . S
C1086 C1085 1.429 . S
C1086 H1113 0.930 . S
C1087 C1083 1.332 . S
C1087 C1088 1.394 . S
C1087 H1114 0.932 . S
C1088 C1084 1.308 . S
C1088 C1087 1.394 . S
C1088 H1115 0.929 . S
C1089 Tb1080 2.764 . S
C1089 C1083 1.504 . S
C1089 O1101 1.239 . S
C1089 O1102 1.263 . S
O1090 Tb1080 2.325 . S
O1090 C1100 1.236 . S
O1091 Tb1081 2.322 . S
O1091 C1100 1.257 . S
O1092 Tb1081 2.349 . S
O1092 C1103 1.261 . S
O1093 Tb1080 2.303 . S
O1093 C1103 1.257 . S
O1094 Tb1081 2.415 . S
O1094 C1110 1.239 . S
O1095 Tb1081 2.399 . S
O1095 C1110 1.263 . S
O1096 Tb1081 2.325 . S
O1096 C1111 1.236 . S
O1097 Tb1080 2.322 . S
O1097 C1111 1.257 . S
O1098 Tb1080 2.349 . S
O1098 C1082 1.261 . S
O1099 Tb1081 2.303 . S
O1099 C1082 1.257 . S
C1100 O1090 1.236 . S
C1100 O1091 1.257 . S
O1101 Tb1080 2.415 . S
O1101 C1089 1.239 . S
O1102 Tb1080 2.399 . S
O1102 C1089 1.263 . S
C1103 O1092 1.261 . S
C1103 O1093 1.257 . S
C1104 C1107 1.358 . S
C1104 C1108 1.332 . S
C1104 C1110 1.504 . S
C1105 C1106 1.373 . S
C1105 C1109 1.308 . S
C1106 C1105 1.373 . S
C1106 C1107 1.429 . S
C1106 H1116 0.932 . S
C1107 C1104 1.358 . S
C1107 C1106 1.429 . S
C1107 H1117 0.930 . S
C1108 C1104 1.332 . S
C1108 C1109 1.394 . S
C1108 H1118 0.932 . S
C1109 C1105 1.308 . S
C1109 C1108 1.394 . S
C1109 H1119 0.929 . S
C1110 Tb1081 2.764 . S
C1110 O1094 1.239 . S
C1110 O1095 1.263 . S
C1110 C1104 1.504 . S
C1111 O1096 1.236 . S
C1111 O1097 1.257 . S
H1112 C1085 0.932 . S
H1113 C1086 0.930 . S
H1114 C1087 0.932 . S
H1115 C1088 0.929 . S
H1116 C1106 0.932 . S
H1117 C1107 0.930 . S
H1118 C1108 0.932 . S
H1119 C1109 0.929 . S
Tb1120 C1129 2.764 . S
Tb1120 O1130 2.325 . S
Tb1120 O1133 2.303 . S
Tb1120 O1137 2.322 . S
Tb1120 O1138 2.349 . S
Tb1120 O1141 2.415 . S
Tb1120 O1142 2.399 . S
Tb1121 O1131 2.322 . S
Tb1121 O1132 2.349 . S
Tb1121 O1134 2.415 . S
Tb1121 O1135 2.399 . S
Tb1121 O1136 2.325 . S
Tb1121 O1139 2.303 . S
Tb1121 C1150 2.764 . S
C1122 O1138 1.261 . S
C1122 O1139 1.257 . S
C1123 C1126 1.358 . S
C1123 C1127 1.332 . S
C1123 C1129 1.504 1_554 S
C1124 C1125 1.373 . S
C1124 C1128 1.308 . S
C1125 C1124 1.373 . S
C1125 C1126 1.429 . S
C1125 H1152 0.932 . S
C1126 C1123 1.358 . S
C1126 C1125 1.429 . S
C1126 H1153 0.930 . S
C1127 C1123 1.332 . S
C1127 C1128 1.394 . S
C1127 H1154 0.932 . S
C1128 C1124 1.308 . S
C1128 C1127 1.394 . S
C1128 H1155 0.929 . S
C1129 Tb1120 2.764 . S
C1129 C1123 1.504 1_556 S
C1129 O1141 1.239 . S
C1129 O1142 1.263 . S
O1130 Tb1120 2.325 . S
O1130 C1140 1.236 . S
O1131 Tb1121 2.322 . S
O1131 C1140 1.257 . S
O1132 Tb1121 2.349 . S
O1132 C1143 1.261 . S
O1133 Tb1120 2.303 . S
O1133 C1143 1.257 . S
O1134 Tb1121 2.415 . S
O1134 C1150 1.239 . S
O1135 Tb1121 2.399 . S
O1135 C1150 1.263 . S
O1136 Tb1121 2.325 . S
O1136 C1151 1.236 . S
O1137 Tb1120 2.322 . S
O1137 C1151 1.257 . S
O1138 Tb1120 2.349 . S
O1138 C1122 1.261 . S
O1139 Tb1121 2.303 . S
O1139 C1122 1.257 . S
C1140 O1130 1.236 . S
C1140 O1131 1.257 . S
O1141 Tb1120 2.415 . S
O1141 C1129 1.239 . S
O1142 Tb1120 2.399 . S
O1142 C1129 1.263 . S
C1143 O1132 1.261 . S
C1143 O1133 1.257 . S
C1144 C1147 1.358 . S
C1144 C1148 1.332 . S
C1144 C1150 1.504 . S
C1145 C1146 1.373 . S
C1145 C1149 1.308 . S
C1146 C1145 1.373 . S
C1146 C1147 1.429 . S
C1146 H1156 0.932 . S
C1147 C1144 1.358 . S
C1147 C1146 1.429 . S
C1147 H1157 0.930 . S
C1148 C1144 1.332 . S
C1148 C1149 1.394 . S
C1148 H1158 0.932 . S
C1149 C1145 1.308 . S
C1149 C1148 1.394 . S
C1149 H1159 0.929 . S
C1150 Tb1121 2.764 . S
C1150 O1134 1.239 . S
C1150 O1135 1.263 . S
C1150 C1144 1.504 . S
C1151 O1136 1.236 . S
C1151 O1137 1.257 . S
H1152 C1125 0.932 . S
H1153 C1126 0.930 . S
H1154 C1127 0.932 . S
H1155 C1128 0.929 . S
H1156 C1146 0.932 . S
H1157 C1147 0.930 . S
H1158 C1148 0.932 . S
H1159 C1149 0.929 . S
Tb1160 C1169 2.764 . S
Tb1160 O1170 2.325 . S
Tb1160 O1173 2.303 . S
Tb1160 O1177 2.322 . S
Tb1160 O1178 2.349 . S
Tb1160 O1181 2.415 . S
Tb1160 O1182 2.399 . S
Tb1161 O1171 2.322 . S
Tb1161 O1172 2.349 . S
Tb1161 O1174 2.415 . S
Tb1161 O1175 2.399 . S
Tb1161 O1176 2.325 . S
Tb1161 O1179 2.303 . S
Tb1161 C1190 2.764 . S
C1162 O1178 1.261 . S
C1162 O1179 1.257 . S
C1163 C1166 1.358 . S
C1163 C1167 1.332 . S
C1163 C1169 1.504 1_554 S
C1164 C1165 1.373 . S
C1164 C1168 1.308 . S
C1165 C1164 1.373 . S
C1165 C1166 1.429 . S
C1165 H1192 0.932 . S
C1166 C1163 1.358 . S
C1166 C1165 1.429 . S
C1166 H1193 0.930 . S
C1167 C1163 1.332 . S
C1167 C1168 1.394 . S
C1167 H1194 0.932 . S
C1168 C1164 1.308 . S
C1168 C1167 1.394 . S
C1168 H1195 0.929 . S
C1169 Tb1160 2.764 . S
C1169 C1163 1.504 1_556 S
C1169 O1181 1.239 . S
C1169 O1182 1.263 . S
O1170 Tb1160 2.325 . S
O1170 C1180 1.236 . S
O1171 Tb1161 2.322 . S
O1171 C1180 1.257 . S
O1172 Tb1161 2.349 . S
O1172 C1183 1.261 . S
O1173 Tb1160 2.303 . S
O1173 C1183 1.257 . S
O1174 Tb1161 2.415 . S
O1174 C1190 1.239 . S
O1175 Tb1161 2.399 . S
O1175 C1190 1.263 . S
O1176 Tb1161 2.325 . S
O1176 C1191 1.236 . S
O1177 Tb1160 2.322 . S
O1177 C1191 1.257 . S
O1178 Tb1160 2.349 . S
O1178 C1162 1.261 . S
O1179 Tb1161 2.303 . S
O1179 C1162 1.257 . S
C1180 O1170 1.236 . S
C1180 O1171 1.257 . S
O1181 Tb1160 2.415 . S
O1181 C1169 1.239 . S
O1182 Tb1160 2.399 . S
O1182 C1169 1.263 . S
C1183 O1172 1.261 . S
C1183 O1173 1.257 . S
C1184 C1187 1.358 . S
C1184 C1188 1.332 . S
C1184 C1190 1.504 . S
C1185 C1186 1.373 . S
C1185 C1189 1.308 . S
C1186 C1185 1.373 . S
C1186 C1187 1.429 . S
C1186 H1196 0.932 . S
C1187 C1184 1.358 . S
C1187 C1186 1.429 . S
C1187 H1197 0.930 . S
C1188 C1184 1.332 . S
C1188 C1189 1.394 . S
C1188 H1198 0.932 . S
C1189 C1185 1.308 . S
C1189 C1188 1.394 . S
C1189 H1199 0.929 . S
C1190 Tb1161 2.764 . S
C1190 O1174 1.239 . S
C1190 O1175 1.263 . S
C1190 C1184 1.504 . S
C1191 O1176 1.236 . S
C1191 O1177 1.257 . S
H1192 C1165 0.932 . S
H1193 C1166 0.930 . S
H1194 C1167 0.932 . S
H1195 C1168 0.929 . S
H1196 C1186 0.932 . S
H1197 C1187 0.930 . S
H1198 C1188 0.932 . S
H1199 C1189 0.929 . S
Tb1200 C1209 2.764 . S
Tb1200 O1210 2.325 . S
Tb1200 O1213 2.303 . S
Tb1200 O1217 2.322 . S
Tb1200 O1218 2.349 . S
Tb1200 O1221 2.415 . S
Tb1200 O1222 2.399 . S
Tb1201 O1211 2.322 . S
Tb1201 O1212 2.349 . S
Tb1201 O1214 2.415 . S
Tb1201 O1215 2.399 . S
Tb1201 O1216 2.325 . S
Tb1201 O1219 2.303 . S
Tb1201 C1230 2.764 . S
C1202 O1218 1.261 . S
C1202 O1219 1.257 . S
C1203 C1206 1.358 . S
C1203 C1207 1.332 . S
C1203 C1209 1.504 . S
C1204 C1205 1.373 . S
C1204 C1208 1.308 . S
C1205 C1204 1.373 . S
C1205 C1206 1.429 . S
C1205 H1232 0.932 . S
C1206 C1203 1.358 . S
C1206 C1205 1.429 . S
C1206 H1233 0.930 . S
C1207 C1203 1.332 . S
C1207 C1208 1.394 . S
C1207 H1234 0.932 . S
C1208 C1204 1.308 . S
C1208 C1207 1.394 . S
C1208 H1235 0.929 . S
C1209 Tb1200 2.764 . S
C1209 C1203 1.504 . S
C1209 O1221 1.239 . S
C1209 O1222 1.263 . S
O1210 Tb1200 2.325 . S
O1210 C1220 1.236 . S
O1211 Tb1201 2.322 . S
O1211 C1220 1.257 . S
O1212 Tb1201 2.349 . S
O1212 C1223 1.261 . S
O1213 Tb1200 2.303 . S
O1213 C1223 1.257 . S
O1214 Tb1201 2.415 . S
O1214 C1230 1.239 . S
O1215 Tb1201 2.399 . S
O1215 C1230 1.263 . S
O1216 Tb1201 2.325 . S
O1216 C1231 1.236 . S
O1217 Tb1200 2.322 . S
O1217 C1231 1.257 . S
O1218 Tb1200 2.349 . S
O1218 C1202 1.261 . S
O1219 Tb1201 2.303 . S
O1219 C1202 1.257 . S
C1220 O1210 1.236 . S
C1220 O1211 1.257 . S
O1221 Tb1200 2.415 . S
O1221 C1209 1.239 . S
O1222 Tb1200 2.399 . S
O1222 C1209 1.263 . S
C1223 O1212 1.261 . S
C1223 O1213 1.257 . S
C1224 C1227 1.358 . S
C1224 C1228 1.332 . S
C1224 C1230 1.504 . S
C1225 C1226 1.373 . S
C1225 C1229 1.308 . S
C1226 C1225 1.373 . S
C1226 C1227 1.429 . S
C1226 H1236 0.932 . S
C1227 C1224 1.358 . S
C1227 C1226 1.429 . S
C1227 H1237 0.930 . S
C1228 C1224 1.332 . S
C1228 C1229 1.394 . S
C1228 H1238 0.932 . S
C1229 C1225 1.308 . S
C1229 C1228 1.394 . S
C1229 H1239 0.929 . S
C1230 Tb1201 2.764 . S
C1230 O1214 1.239 . S
C1230 O1215 1.263 . S
C1230 C1224 1.504 . S
C1231 O1216 1.236 . S
C1231 O1217 1.257 . S
H1232 C1205 0.932 . S
H1233 C1206 0.930 . S
H1234 C1207 0.932 . S
H1235 C1208 0.929 . S
H1236 C1226 0.932 . S
H1237 C1227 0.930 . S
H1238 C1228 0.932 . S
H1239 C1229 0.929 . S
Tb1240 C1249 2.764 . S
Tb1240 O1250 2.325 . S
Tb1240 O1253 2.303 . S
Tb1240 O1257 2.322 . S
Tb1240 O1258 2.349 . S
Tb1240 O1261 2.415 . S
Tb1240 O1262 2.399 . S
Tb1241 O1251 2.322 . S
Tb1241 O1252 2.349 . S
Tb1241 O1254 2.415 . S
Tb1241 O1255 2.399 . S
Tb1241 O1256 2.325 . S
Tb1241 O1259 2.303 . S
Tb1241 C1270 2.764 . S
C1242 O1258 1.261 . S
C1242 O1259 1.257 . S
C1243 C1246 1.358 . S
C1243 C1247 1.332 . S
C1243 C1249 1.504 . S
C1244 C1245 1.373 . S
C1244 C1248 1.308 . S
C1245 C1244 1.373 . S
C1245 C1246 1.429 . S
C1245 H1272 0.932 . S
C1246 C1243 1.358 . S
C1246 C1245 1.429 . S
C1246 H1273 0.930 . S
C1247 C1243 1.332 . S
C1247 C1248 1.394 . S
C1247 H1274 0.932 . S
C1248 C1244 1.308 . S
C1248 C1247 1.394 . S
C1248 H1275 0.929 . S
C1249 Tb1240 2.764 . S
C1249 C1243 1.504 . S
C1249 O1261 1.239 . S
C1249 O1262 1.263 . S
O1250 Tb1240 2.325 . S
O1250 C1260 1.236 . S
O1251 Tb1241 2.322 . S
O1251 C1260 1.257 . S
O1252 Tb1241 2.349 . S
O1252 C1263 1.261 . S
O1253 Tb1240 2.303 . S
O1253 C1263 1.257 . S
O1254 Tb1241 2.415 . S
O1254 C1270 1.239 . S
O1255 Tb1241 2.399 . S
O1255 C1270 1.263 . S
O1256 Tb1241 2.325 . S
O1256 C1271 1.236 . S
O1257 Tb1240 2.322 . S
O1257 C1271 1.257 . S
O1258 Tb1240 2.349 . S
O1258 C1242 1.261 . S
O1259 Tb1241 2.303 . S
O1259 C1242 1.257 . S
C1260 O1250 1.236 . S
C1260 O1251 1.257 . S
O1261 Tb1240 2.415 . S
O1261 C1249 1.239 . S
O1262 Tb1240 2.399 . S
O1262 C1249 1.263 . S
C1263 O1252 1.261 . S
C1263 O1253 1.257 . S
C1264 C1267 1.358 . S
C1264 C1268 1.332 . S
C1264 C1270 1.504 . S
C1265 C1266 1.373 . S
C1265 C1269 1.308 . S
C1266 C1265 1.373 . S
C1266 C1267 1.429 . S
C1266 H1276 0.932 . S
C1267 C1264 1.358 . S
C1267 C1266 1.429 . S
C1267 H1277 0.930 . S
C1268 C1264 1.332 . S
C1268 C1269 1.394 . S
C1268 H1278 0.932 . S
C1269 C1265 1.308 . S
C1269 C1268 1.394 . S
C1269 H1279 0.929 . S
C1270 Tb1241 2.764 . S
C1270 O1254 1.239 . S
C1270 O1255 1.263 . S
C1270 C1264 1.504 . S
C1271 O1256 1.236 . S
C1271 O1257 1.257 . S
H1272 C1245 0.932 . S
H1273 C1246 0.930 . S
H1274 C1247 0.932 . S
H1275 C1248 0.929 . S
H1276 C1266 0.932 . S
H1277 C1267 0.930 . S
H1278 C1268 0.932 . S
H1279 C1269 0.929 . S
H1280 C1292 0.930 . S
H1281 C1294 0.930 . S
H1282 C1295 0.930 . S
H1283 C1299 0.959 . S
H1284 C1299 0.959 . S
H1285 C1299 0.961 . S
H1286 C1300 0.960 . S
H1287 C1300 0.961 . S
H1288 C1300 0.959 . S
H1289 C1303 0.929 . S
H1290 C1304 0.931 . S
H1291 C1306 0.930 . S
C1292 H1280 0.930 . S
C1292 C1293 1.399 . S
C1292 C1297 1.399 . S
C1293 C1292 1.399 . S
C1293 C1294 1.376 . S
C1294 H1281 0.930 . S
C1294 C1293 1.376 . S
C1294 C1295 1.388 . S
C1295 H1282 0.930 . S
C1295 C1294 1.388 . S
C1295 C1296 1.390 . S
C1296 C1295 1.390 . S
C1296 C1297 1.394 . S
C1296 C1302 1.465 . S
C1297 C1292 1.399 . S
C1297 C1296 1.394 . S
C1297 C1298 1.516 . S
C1298 C1297 1.516 . S
C1298 C1299 1.502 . S
C1298 C1300 1.561 . S
C1298 C1301 1.526 . S
C1299 H1283 0.959 . S
C1299 H1284 0.959 . S
C1299 H1285 0.961 . S
C1299 C1298 1.502 . S
C1300 H1286 0.960 . S
C1300 H1287 0.961 . S
C1300 H1288 0.959 . S
C1300 C1298 1.561 . S
C1301 C1298 1.526 . S
C1301 C1302 1.396 . S
C1301 C1306 1.390 . S
C1302 C1296 1.465 . S
C1302 C1301 1.396 . S
C1302 C1303 1.399 . S
C1303 H1289 0.929 . S
C1303 C1302 1.399 . S
C1303 C1304 1.385 . S
C1304 H1290 0.931 . S
C1304 C1303 1.385 . S
C1304 C1305 1.389 . S
C1305 C1304 1.389 . S
C1305 C1306 1.387 . S
C1306 H1291 0.930 . S
C1306 C1301 1.390 . S
C1306 C1305 1.387 . S
H1307 C1319 0.930 . S
H1308 C1321 0.930 . S
H1309 C1322 0.930 . S
H1310 C1326 0.959 . S
H1311 C1326 0.959 . S
H1312 C1326 0.961 . S
H1313 C1327 0.960 . S
H1314 C1327 0.961 . S
H1315 C1327 0.959 . S
H1316 C1330 0.929 . S
H1317 C1331 0.931 . S
H1318 C1333 0.930 . S
C1319 H1307 0.930 . S
C1319 C1320 1.399 . S
C1319 C1324 1.399 . S
C1320 C1319 1.399 . S
C1320 C1321 1.376 . S
C1321 H1308 0.930 . S
C1321 C1320 1.376 . S
C1321 C1322 1.388 . S
C1322 H1309 0.930 . S
C1322 C1321 1.388 . S
C1322 C1323 1.390 . S
C1323 C1322 1.390 . S
C1323 C1324 1.394 . S
C1323 C1329 1.465 . S
C1324 C1319 1.399 . S
C1324 C1323 1.394 . S
C1324 C1325 1.516 . S
C1325 C1324 1.516 . S
C1325 C1326 1.502 . S
C1325 C1327 1.561 . S
C1325 C1328 1.526 . S
C1326 H1310 0.959 . S
C1326 H1311 0.959 . S
C1326 H1312 0.961 . S
C1326 C1325 1.502 . S
C1327 H1313 0.960 . S
C1327 H1314 0.961 . S
C1327 H1315 0.959 . S
C1327 C1325 1.561 . S
C1328 C1325 1.526 . S
C1328 C1329 1.396 . S
C1328 C1333 1.390 . S
C1329 C1323 1.465 . S
C1329 C1328 1.396 . S
C1329 C1330 1.399 . S
C1330 H1316 0.929 . S
C1330 C1329 1.399 . S
C1330 C1331 1.385 . S
C1331 H1317 0.931 . S
C1331 C1330 1.385 . S
C1331 C1332 1.389 . S
C1332 C1331 1.389 . S
C1332 C1333 1.387 . S
C1333 H1318 0.930 . S
C1333 C1328 1.390 . S
C1333 C1332 1.387 . S
H1334 C1346 0.930 . S
H1335 C1348 0.930 . S
H1336 C1349 0.930 . S
H1337 C1353 0.959 . S
H1338 C1353 0.959 . S
H1339 C1353 0.961 . S
H1340 C1354 0.960 . S
H1341 C1354 0.961 . S
H1342 C1354 0.959 . S
H1343 C1357 0.929 . S
H1344 C1358 0.931 . S
H1345 C1360 0.930 . S
C1346 H1334 0.930 . S
C1346 C1347 1.399 . S
C1346 C1351 1.399 . S
C1347 C1346 1.399 . S
C1347 C1348 1.376 . S
C1348 H1335 0.930 . S
C1348 C1347 1.376 . S
C1348 C1349 1.388 . S
C1349 H1336 0.930 . S
C1349 C1348 1.388 . S
C1349 C1350 1.390 . S
C1350 C1349 1.390 . S
C1350 C1351 1.394 . S
C1350 C1356 1.465 . S
C1351 C1346 1.399 . S
C1351 C1350 1.394 . S
C1351 C1352 1.516 . S
C1352 C1351 1.516 . S
C1352 C1353 1.502 . S
C1352 C1354 1.561 . S
C1352 C1355 1.526 . S
C1353 H1337 0.959 . S
C1353 H1338 0.959 . S
C1353 H1339 0.961 . S
C1353 C1352 1.502 . S
C1354 H1340 0.960 . S
C1354 H1341 0.961 . S
C1354 H1342 0.959 . S
C1354 C1352 1.561 . S
C1355 C1352 1.526 . S
C1355 C1356 1.396 . S
C1355 C1360 1.390 . S
C1356 C1350 1.465 . S
C1356 C1355 1.396 . S
C1356 C1357 1.399 . S
C1357 H1343 0.929 . S
C1357 C1356 1.399 . S
C1357 C1358 1.385 . S
C1358 H1344 0.931 . S
C1358 C1357 1.385 . S
C1358 C1359 1.389 . S
C1359 C1358 1.389 . S
C1359 C1360 1.387 . S
C1360 H1345 0.930 . S
C1360 C1355 1.390 . S
C1360 C1359 1.387 . S
H1361 C1373 0.930 . S
H1362 C1375 0.930 . S
H1363 C1376 0.930 . S
H1364 C1380 0.959 . S
H1365 C1380 0.959 . S
H1366 C1380 0.961 . S
H1367 C1381 0.960 . S
H1368 C1381 0.961 . S
H1369 C1381 0.959 . S
H1370 C1384 0.929 . S
H1371 C1385 0.931 . S
H1372 C1387 0.930 . S
C1373 H1361 0.930 . S
C1373 C1374 1.399 . S
C1373 C1378 1.399 . S
C1374 C1373 1.399 . S
C1374 C1375 1.376 . S
C1375 H1362 0.930 . S
C1375 C1374 1.376 . S
C1375 C1376 1.388 . S
C1376 H1363 0.930 . S
C1376 C1375 1.388 . S
C1376 C1377 1.390 . S
C1377 C1376 1.390 . S
C1377 C1378 1.394 . S
C1377 C1383 1.465 . S
C1378 C1373 1.399 . S
C1378 C1377 1.394 . S
C1378 C1379 1.516 . S
C1379 C1378 1.516 . S
C1379 C1380 1.502 . S
C1379 C1381 1.561 . S
C1379 C1382 1.526 . S
C1380 H1364 0.959 . S
C1380 H1365 0.959 . S
C1380 H1366 0.961 . S
C1380 C1379 1.502 . S
C1381 H1367 0.960 . S
C1381 H1368 0.961 . S
C1381 H1369 0.959 . S
C1381 C1379 1.561 . S
C1382 C1379 1.526 . S
C1382 C1383 1.396 . S
C1382 C1387 1.390 . S
C1383 C1377 1.465 . S
C1383 C1382 1.396 . S
C1383 C1384 1.399 . S
C1384 H1370 0.929 . S
C1384 C1383 1.399 . S
C1384 C1385 1.385 . S
C1385 H1371 0.931 . S
C1385 C1384 1.385 . S
C1385 C1386 1.389 . S
C1386 C1385 1.389 . S
C1386 C1387 1.387 . S
C1387 H1372 0.930 . S
C1387 C1382 1.390 . S
C1387 C1386 1.387 . S
H1388 C1400 0.930 . S
H1389 C1402 0.930 . S
H1390 C1403 0.930 . S
H1391 C1407 0.959 . S
H1392 C1407 0.959 . S
H1393 C1407 0.961 . S
H1394 C1408 0.960 . S
H1395 C1408 0.961 . S
H1396 C1408 0.959 . S
H1397 C1411 0.929 . S
H1398 C1412 0.931 . S
H1399 C1414 0.930 . S
C1400 H1388 0.930 . S
C1400 C1401 1.399 . S
C1400 C1405 1.399 . S
C1401 C1400 1.399 . S
C1401 C1402 1.376 . S
C1402 H1389 0.930 . S
C1402 C1401 1.376 . S
C1402 C1403 1.388 . S
C1403 H1390 0.930 . S
C1403 C1402 1.388 . S
C1403 C1404 1.390 . S
C1404 C1403 1.390 . S
C1404 C1405 1.394 . S
C1404 C1410 1.465 . S
C1405 C1400 1.399 . S
C1405 C1404 1.394 . S
C1405 C1406 1.516 . S
C1406 C1405 1.516 . S
C1406 C1407 1.502 . S
C1406 C1408 1.561 . S
C1406 C1409 1.526 . S
C1407 H1391 0.959 . S
C1407 H1392 0.959 . S
C1407 H1393 0.961 . S
C1407 C1406 1.502 . S
C1408 H1394 0.960 . S
C1408 H1395 0.961 . S
C1408 H1396 0.959 . S
C1408 C1406 1.561 . S
C1409 C1406 1.526 . S
C1409 C1410 1.396 . S
C1409 C1414 1.390 . S
C1410 C1404 1.465 . S
C1410 C1409 1.396 . S
C1410 C1411 1.399 . S
C1411 H1397 0.929 . S
C1411 C1410 1.399 . S
C1411 C1412 1.385 . S
C1412 H1398 0.931 . S
C1412 C1411 1.385 . S
C1412 C1413 1.389 . S
C1413 C1412 1.389 . S
C1413 C1414 1.387 . S
C1414 H1399 0.930 . S
C1414 C1409 1.390 . S
C1414 C1413 1.387 . S
H1415 C1427 0.930 . S
H1416 C1429 0.930 . S
H1417 C1430 0.930 . S
H1418 C1434 0.959 . S
H1419 C1434 0.959 . S
H1420 C1434 0.961 . S
H1421 C1435 0.960 . S
H1422 C1435 0.961 . S
H1423 C1435 0.959 . S
H1424 C1438 0.929 . S
H1425 C1439 0.931 . S
H1426 C1441 0.930 . S
C1427 H1415 0.930 . S
C1427 C1428 1.399 . S
C1427 C1432 1.399 . S
C1428 C1427 1.399 . S
C1428 C1429 1.376 . S
C1429 H1416 0.930 . S
C1429 C1428 1.376 . S
C1429 C1430 1.388 . S
C1430 H1417 0.930 . S
C1430 C1429 1.388 . S
C1430 C1431 1.390 . S
C1431 C1430 1.390 . S
C1431 C1432 1.394 . S
C1431 C1437 1.465 . S
C1432 C1427 1.399 . S
C1432 C1431 1.394 . S
C1432 C1433 1.516 . S
C1433 C1432 1.516 . S
C1433 C1434 1.502 . S
C1433 C1435 1.561 . S
C1433 C1436 1.526 . S
C1434 H1418 0.959 . S
C1434 H1419 0.959 . S
C1434 H1420 0.961 . S
C1434 C1433 1.502 . S
C1435 H1421 0.960 . S
C1435 H1422 0.961 . S
C1435 H1423 0.959 . S
C1435 C1433 1.561 . S
C1436 C1433 1.526 . S
C1436 C1437 1.396 . S
C1436 C1441 1.390 . S
C1437 C1431 1.465 . S
C1437 C1436 1.396 . S
C1437 C1438 1.399 . S
C1438 H1424 0.929 . S
C1438 C1437 1.399 . S
C1438 C1439 1.385 . S
C1439 H1425 0.931 . S
C1439 C1438 1.385 . S
C1439 C1440 1.389 . S
C1440 C1439 1.389 . S
C1440 C1441 1.387 . S
C1441 H1426 0.930 . S
C1441 C1436 1.390 . S
C1441 C1440 1.387 . S
H1442 C1454 0.930 . S
H1443 C1456 0.930 . S
H1444 C1457 0.930 . S
H1445 C1461 0.959 . S
H1446 C1461 0.959 . S
H1447 C1461 0.961 . S
H1448 C1462 0.960 . S
H1449 C1462 0.961 . S
H1450 C1462 0.959 . S
H1451 C1465 0.929 . S
H1452 C1466 0.931 . S
H1453 C1468 0.930 . S
C1454 H1442 0.930 . S
C1454 C1455 1.399 . S
C1454 C1459 1.399 . S
C1455 C1454 1.399 . S
C1455 C1456 1.376 . S
C1456 H1443 0.930 . S
C1456 C1455 1.376 . S
C1456 C1457 1.388 . S
C1457 H1444 0.930 . S
C1457 C1456 1.388 . S
C1457 C1458 1.390 . S
C1458 C1457 1.390 . S
C1458 C1459 1.394 . S
C1458 C1464 1.465 . S
C1459 C1454 1.399 . S
C1459 C1458 1.394 . S
C1459 C1460 1.516 . S
C1460 C1459 1.516 . S
C1460 C1461 1.502 . S
C1460 C1462 1.561 . S
C1460 C1463 1.526 . S
C1461 H1445 0.959 . S
C1461 H1446 0.959 . S
C1461 H1447 0.961 . S
C1461 C1460 1.502 . S
C1462 H1448 0.960 . S
C1462 H1449 0.961 . S
C1462 H1450 0.959 . S
C1462 C1460 1.561 . S
C1463 C1460 1.526 . S
C1463 C1464 1.396 . S
C1463 C1468 1.390 . S
C1464 C1458 1.465 . S
C1464 C1463 1.396 . S
C1464 C1465 1.399 . S
C1465 H1451 0.929 . S
C1465 C1464 1.399 . S
C1465 C1466 1.385 . S
C1466 H1452 0.931 . S
C1466 C1465 1.385 . S
C1466 C1467 1.389 . S
C1467 C1466 1.389 . S
C1467 C1468 1.387 . S
C1468 H1453 0.930 . S
C1468 C1463 1.390 . S
C1468 C1467 1.387 . S
H1469 C1481 0.930 . S
H1470 C1483 0.930 . S
H1471 C1484 0.930 . S
H1472 C1488 0.959 . S
H1473 C1488 0.959 . S
H1474 C1488 0.961 . S
H1475 C1489 0.960 . S
H1476 C1489 0.961 . S
H1477 C1489 0.959 . S
H1478 C1492 0.929 . S
H1479 C1493 0.931 . S
H1480 C1495 0.930 . S
C1481 H1469 0.930 . S
C1481 C1482 1.399 . S
C1481 C1486 1.399 . S
C1482 C1481 1.399 . S
C1482 C1483 1.376 . S
C1483 H1470 0.930 . S
C1483 C1482 1.376 . S
C1483 C1484 1.388 . S
C1484 H1471 0.930 . S
C1484 C1483 1.388 . S
C1484 C1485 1.390 . S
C1485 C1484 1.390 . S
C1485 C1486 1.394 . S
C1485 C1491 1.465 . S
C1486 C1481 1.399 . S
C1486 C1485 1.394 . S
C1486 C1487 1.516 . S
C1487 C1486 1.516 . S
C1487 C1488 1.502 . S
C1487 C1489 1.561 . S
C1487 C1490 1.526 . S
C1488 H1472 0.959 . S
C1488 H1473 0.959 . S
C1488 H1474 0.961 . S
C1488 C1487 1.502 . S
C1489 H1475 0.960 . S
C1489 H1476 0.961 . S
C1489 H1477 0.959 . S
C1489 C1487 1.561 . S
C1490 C1487 1.526 . S
C1490 C1491 1.396 . S
C1490 C1495 1.390 . S
C1491 C1485 1.465 . S
C1491 C1490 1.396 . S
C1491 C1492 1.399 . S
C1492 H1478 0.929 . S
C1492 C1491 1.399 . S
C1492 C1493 1.385 . S
C1493 H1479 0.931 . S
C1493 C1492 1.385 . S
C1493 C1494 1.389 . S
C1494 C1493 1.389 . S
C1494 C1495 1.387 . S
C1495 H1480 0.930 . S
C1495 C1490 1.390 . S
C1495 C1494 1.387 . S
H1496 C1508 0.930 . S
H1497 C1510 0.930 . S
H1498 C1511 0.930 . S
H1499 C1515 0.959 . S
H1500 C1515 0.959 . S
H1501 C1515 0.961 . S
H1502 C1516 0.960 . S
H1503 C1516 0.961 . S
H1504 C1516 0.959 . S
H1505 C1519 0.929 . S
H1506 C1520 0.931 . S
H1507 C1522 0.930 . S
C1508 H1496 0.930 . S
C1508 C1509 1.399 . S
C1508 C1513 1.399 . S
C1509 C1508 1.399 . S
C1509 C1510 1.376 . S
C1510 H1497 0.930 . S
C1510 C1509 1.376 . S
C1510 C1511 1.388 . S
C1511 H1498 0.930 . S
C1511 C1510 1.388 . S
C1511 C1512 1.390 . S
C1512 C1511 1.390 . S
C1512 C1513 1.394 . S
C1512 C1518 1.465 . S
C1513 C1508 1.399 . S
C1513 C1512 1.394 . S
C1513 C1514 1.516 . S
C1514 C1513 1.516 . S
C1514 C1515 1.502 . S
C1514 C1516 1.561 . S
C1514 C1517 1.526 . S
C1515 H1499 0.959 . S
C1515 H1500 0.959 . S
C1515 H1501 0.961 . S
C1515 C1514 1.502 . S
C1516 H1502 0.960 . S
C1516 H1503 0.961 . S
C1516 H1504 0.959 . S
C1516 C1514 1.561 . S
C1517 C1514 1.526 . S
C1517 C1518 1.396 . S
C1517 C1522 1.390 . S
C1518 C1512 1.465 . S
C1518 C1517 1.396 . S
C1518 C1519 1.399 . S
C1519 H1505 0.929 . S
C1519 C1518 1.399 . S
C1519 C1520 1.385 . S
C1520 H1506 0.931 . S
C1520 C1519 1.385 . S
C1520 C1521 1.389 . S
C1521 C1520 1.389 . S
C1521 C1522 1.387 . S
C1522 H1507 0.930 . S
C1522 C1517 1.390 . S
C1522 C1521 1.387 . S
H1523 C1535 0.930 . S
H1524 C1537 0.930 . S
H1525 C1538 0.930 . S
H1526 C1542 0.959 . S
H1527 C1542 0.959 . S
H1528 C1542 0.961 . S
H1529 C1543 0.960 . S
H1530 C1543 0.961 . S
H1531 C1543 0.959 . S
H1532 C1546 0.929 . S
H1533 C1547 0.931 . S
H1534 C1549 0.930 . S
C1535 H1523 0.930 . S
C1535 C1536 1.399 . S
C1535 C1540 1.399 . S
C1536 C1535 1.399 . S
C1536 C1537 1.376 . S
C1537 H1524 0.930 . S
C1537 C1536 1.376 . S
C1537 C1538 1.388 . S
C1538 H1525 0.930 . S
C1538 C1537 1.388 . S
C1538 C1539 1.390 . S
C1539 C1538 1.390 . S
C1539 C1540 1.394 . S
C1539 C1545 1.465 . S
C1540 C1535 1.399 . S
C1540 C1539 1.394 . S
C1540 C1541 1.516 . S
C1541 C1540 1.516 . S
C1541 C1542 1.502 . S
C1541 C1543 1.561 . S
C1541 C1544 1.526 . S
C1542 H1526 0.959 . S
C1542 H1527 0.959 . S
C1542 H1528 0.961 . S
C1542 C1541 1.502 . S
C1543 H1529 0.960 . S
C1543 H1530 0.961 . S
C1543 H1531 0.959 . S
C1543 C1541 1.561 . S
C1544 C1541 1.526 . S
C1544 C1545 1.396 . S
C1544 C1549 1.390 . S
C1545 C1539 1.465 . S
C1545 C1544 1.396 . S
C1545 C1546 1.399 . S
C1546 H1532 0.929 . S
C1546 C1545 1.399 . S
C1546 C1547 1.385 . S
C1547 H1533 0.931 . S
C1547 C1546 1.385 . S
C1547 C1548 1.389 . S
C1548 C1547 1.389 . S
C1548 C1549 1.387 . S
C1549 H1534 0.930 . S
C1549 C1544 1.390 . S
C1549 C1548 1.387 . S
H1550 C1562 0.930 . S
H1551 C1564 0.930 . S
H1552 C1565 0.930 . S
H1553 C1569 0.959 . S
H1554 C1569 0.959 . S
H1555 C1569 0.961 . S
H1556 C1570 0.960 . S
H1557 C1570 0.961 . S
H1558 C1570 0.959 . S
H1559 C1573 0.929 . S
H1560 C1574 0.931 . S
H1561 C1576 0.930 . S
C1562 H1550 0.930 . S
C1562 C1563 1.399 . S
C1562 C1567 1.399 . S
C1563 C1562 1.399 . S
C1563 C1564 1.376 . S
C1564 H1551 0.930 . S
C1564 C1563 1.376 . S
C1564 C1565 1.388 . S
C1565 H1552 0.930 . S
C1565 C1564 1.388 . S
C1565 C1566 1.390 . S
C1566 C1565 1.390 . S
C1566 C1567 1.394 . S
C1566 C1572 1.465 . S
C1567 C1562 1.399 . S
C1567 C1566 1.394 . S
C1567 C1568 1.516 . S
C1568 C1567 1.516 . S
C1568 C1569 1.502 . S
C1568 C1570 1.561 . S
C1568 C1571 1.526 . S
C1569 H1553 0.959 . S
C1569 H1554 0.959 . S
C1569 H1555 0.961 . S
C1569 C1568 1.502 . S
C1570 H1556 0.960 . S
C1570 H1557 0.961 . S
C1570 H1558 0.959 . S
C1570 C1568 1.561 . S
C1571 C1568 1.526 . S
C1571 C1572 1.396 . S
C1571 C1576 1.390 . S
C1572 C1566 1.465 . S
C1572 C1571 1.396 . S
C1572 C1573 1.399 . S
C1573 H1559 0.929 . S
C1573 C1572 1.399 . S
C1573 C1574 1.385 . S
C1574 H1560 0.931 . S
C1574 C1573 1.385 . S
C1574 C1575 1.389 . S
C1575 C1574 1.389 . S
C1575 C1576 1.387 . S
C1576 H1561 0.930 . S
C1576 C1571 1.390 . S
C1576 C1575 1.387 . S
H1577 C1589 0.930 . S
H1578 C1591 0.930 . S
H1579 C1592 0.930 . S
H1580 C1596 0.959 . S
H1581 C1596 0.959 . S
H1582 C1596 0.961 . S
H1583 C1597 0.960 . S
H1584 C1597 0.961 . S
H1585 C1597 0.959 . S
H1586 C1600 0.929 . S
H1587 C1601 0.931 . S
H1588 C1603 0.930 . S
C1589 H1577 0.930 . S
C1589 C1590 1.399 . S
C1589 C1594 1.399 . S
C1590 C1589 1.399 . S
C1590 C1591 1.376 . S
C1591 H1578 0.930 . S
C1591 C1590 1.376 . S
C1591 C1592 1.388 . S
C1592 H1579 0.930 . S
C1592 C1591 1.388 . S
C1592 C1593 1.390 . S
C1593 C1592 1.390 . S
C1593 C1594 1.394 . S
C1593 C1599 1.465 . S
C1594 C1589 1.399 . S
C1594 C1593 1.394 . S
C1594 C1595 1.516 . S
C1595 C1594 1.516 . S
C1595 C1596 1.502 . S
C1595 C1597 1.561 . S
C1595 C1598 1.526 . S
C1596 H1580 0.959 . S
C1596 H1581 0.959 . S
C1596 H1582 0.961 . S
C1596 C1595 1.502 . S
C1597 H1583 0.960 . S
C1597 H1584 0.961 . S
C1597 H1585 0.959 . S
C1597 C1595 1.561 . S
C1598 C1595 1.526 . S
C1598 C1599 1.396 . S
C1598 C1603 1.390 . S
C1599 C1593 1.465 . S
C1599 C1598 1.396 . S
C1599 C1600 1.399 . S
C1600 H1586 0.929 . S
C1600 C1599 1.399 . S
C1600 C1601 1.385 . S
C1601 H1587 0.931 . S
C1601 C1600 1.385 . S
C1601 C1602 1.389 . S
C1602 C1601 1.389 . S
C1602 C1603 1.387 . S
C1603 H1588 0.930 . S
C1603 C1598 1.390 . S
C1603 C1602 1.387 . S
H1604 C1616 0.930 . S
H1605 C1618 0.930 . S
H1606 C1619 0.930 . S
H1607 C1623 0.959 . S
H1608 C1623 0.959 . S
H1609 C1623 0.961 . S
H1610 C1624 0.960 . S
H1611 C1624 0.961 . S
H1612 C1624 0.959 . S
H1613 C1627 0.929 . S
H1614 C1628 0.931 . S
H1615 C1630 0.930 . S
C1616 H1604 0.930 . S
C1616 C1617 1.399 . S
C1616 C1621 1.399 . S
C1617 C1616 1.399 . S
C1617 C1618 1.376 . S
C1618 H1605 0.930 . S
C1618 C1617 1.376 . S
C1618 C1619 1.388 . S
C1619 H1606 0.930 . S
C1619 C1618 1.388 . S
C1619 C1620 1.390 . S
C1620 C1619 1.390 . S
C1620 C1621 1.394 . S
C1620 C1626 1.465 . S
C1621 C1616 1.399 . S
C1621 C1620 1.394 . S
C1621 C1622 1.516 . S
C1622 C1621 1.516 . S
C1622 C1623 1.502 . S
C1622 C1624 1.561 . S
C1622 C1625 1.526 . S
C1623 H1607 0.959 . S
C1623 H1608 0.959 . S
C1623 H1609 0.961 . S
C1623 C1622 1.502 . S
C1624 H1610 0.960 . S
C1624 H1611 0.961 . S
C1624 H1612 0.959 . S
C1624 C1622 1.561 . S
C1625 C1622 1.526 . S
C1625 C1626 1.396 . S
C1625 C1630 1.390 . S
C1626 C1620 1.465 . S
C1626 C1625 1.396 . S
C1626 C1627 1.399 . S
C1627 H1613 0.929 . S
C1627 C1626 1.399 . S
C1627 C1628 1.385 . S
C1628 H1614 0.931 . S
C1628 C1627 1.385 . S
C1628 C1629 1.389 . S
C1629 C1628 1.389 . S
C1629 C1630 1.387 . S
C1630 H1615 0.930 . S
C1630 C1625 1.390 . S
C1630 C1629 1.387 . S
H1631 C1643 0.930 . S
H1632 C1645 0.930 . S
H1633 C1646 0.930 . S
H1634 C1650 0.959 . S
H1635 C1650 0.959 . S
H1636 C1650 0.961 . S
H1637 C1651 0.960 . S
H1638 C1651 0.961 . S
H1639 C1651 0.959 . S
H1640 C1654 0.929 . S
H1641 C1655 0.931 . S
H1642 C1657 0.930 . S
C1643 H1631 0.930 . S
C1643 C1644 1.399 . S
C1643 C1648 1.399 . S
C1644 C1643 1.399 . S
C1644 C1645 1.376 . S
C1645 H1632 0.930 . S
C1645 C1644 1.376 . S
C1645 C1646 1.388 . S
C1646 H1633 0.930 . S
C1646 C1645 1.388 . S
C1646 C1647 1.390 . S
C1647 C1646 1.390 . S
C1647 C1648 1.394 . S
C1647 C1653 1.465 . S
C1648 C1643 1.399 . S
C1648 C1647 1.394 . S
C1648 C1649 1.516 . S
C1649 C1648 1.516 . S
C1649 C1650 1.502 . S
C1649 C1651 1.561 . S
C1649 C1652 1.526 . S
C1650 H1634 0.959 . S
C1650 H1635 0.959 . S
C1650 H1636 0.961 . S
C1650 C1649 1.502 . S
C1651 H1637 0.960 . S
C1651 H1638 0.961 . S
C1651 H1639 0.959 . S
C1651 C1649 1.561 . S
C1652 C1649 1.526 . S
C1652 C1653 1.396 . S
C1652 C1657 1.390 . S
C1653 C1647 1.465 . S
C1653 C1652 1.396 . S
C1653 C1654 1.399 . S
C1654 H1640 0.929 . S
C1654 C1653 1.399 . S
C1654 C1655 1.385 . S
C1655 H1641 0.931 . S
C1655 C1654 1.385 . S
C1655 C1656 1.389 . S
C1656 C1655 1.389 . S
C1656 C1657 1.387 . S
C1657 H1642 0.930 . S
C1657 C1652 1.390 . S
C1657 C1656 1.387 . S
H1658 C1670 0.930 . S
H1659 C1672 0.930 . S
H1660 C1673 0.930 . S
H1661 C1677 0.959 . S
H1662 C1677 0.959 . S
H1663 C1677 0.961 . S
H1664 C1678 0.960 . S
H1665 C1678 0.961 . S
H1666 C1678 0.959 . S
H1667 C1681 0.929 . S
H1668 C1682 0.931 . S
H1669 C1684 0.930 . S
C1670 H1658 0.930 . S
C1670 C1671 1.399 . S
C1670 C1675 1.399 . S
C1671 C1670 1.399 . S
C1671 C1672 1.376 . S
C1672 H1659 0.930 . S
C1672 C1671 1.376 . S
C1672 C1673 1.388 . S
C1673 H1660 0.930 . S
C1673 C1672 1.388 . S
C1673 C1674 1.390 . S
C1674 C1673 1.390 . S
C1674 C1675 1.394 . S
C1674 C1680 1.465 . S
C1675 C1670 1.399 . S
C1675 C1674 1.394 . S
C1675 C1676 1.516 . S
C1676 C1675 1.516 . S
C1676 C1677 1.502 . S
C1676 C1678 1.561 . S
C1676 C1679 1.526 . S
C1677 H1661 0.959 . S
C1677 H1662 0.959 . S
C1677 H1663 0.961 . S
C1677 C1676 1.502 . S
C1678 H1664 0.960 . S
C1678 H1665 0.961 . S
C1678 H1666 0.959 . S
C1678 C1676 1.561 . S
C1679 C1676 1.526 . S
C1679 C1680 1.396 . S
C1679 C1684 1.390 . S
C1680 C1674 1.465 . S
C1680 C1679 1.396 . S
C1680 C1681 1.399 . S
C1681 H1667 0.929 . S
C1681 C1680 1.399 . S
C1681 C1682 1.385 . S
C1682 H1668 0.931 . S
C1682 C1681 1.385 . S
C1682 C1683 1.389 . S
C1683 C1682 1.389 . S
C1683 C1684 1.387 . S
C1684 H1669 0.930 . S
C1684 C1679 1.390 . S
C1684 C1683 1.387 . S
H1685 C1697 0.930 . S
H1686 C1699 0.930 . S
H1687 C1700 0.930 . S
H1688 C1704 0.959 . S
H1689 C1704 0.959 . S
H1690 C1704 0.961 . S
H1691 C1705 0.960 . S
H1692 C1705 0.961 . S
H1693 C1705 0.959 . S
H1694 C1708 0.929 . S
H1695 C1709 0.931 . S
H1696 C1711 0.930 . S
C1697 H1685 0.930 . S
C1697 C1698 1.399 . S
C1697 C1702 1.399 . S
C1698 C1697 1.399 . S
C1698 C1699 1.376 . S
C1699 H1686 0.930 . S
C1699 C1698 1.376 . S
C1699 C1700 1.388 . S
C1700 H1687 0.930 . S
C1700 C1699 1.388 . S
C1700 C1701 1.390 . S
C1701 C1700 1.390 . S
C1701 C1702 1.394 . S
C1701 C1707 1.465 . S
C1702 C1697 1.399 . S
C1702 C1701 1.394 . S
C1702 C1703 1.516 . S
C1703 C1702 1.516 . S
C1703 C1704 1.502 . S
C1703 C1705 1.561 . S
C1703 C1706 1.526 . S
C1704 H1688 0.959 . S
C1704 H1689 0.959 . S
C1704 H1690 0.961 . S
C1704 C1703 1.502 . S
C1705 H1691 0.960 . S
C1705 H1692 0.961 . S
C1705 H1693 0.959 . S
C1705 C1703 1.561 . S
C1706 C1703 1.526 . S
C1706 C1707 1.396 . S
C1706 C1711 1.390 . S
C1707 C1701 1.465 . S
C1707 C1706 1.396 . S
C1707 C1708 1.399 . S
C1708 H1694 0.929 . S
C1708 C1707 1.399 . S
C1708 C1709 1.385 . S
C1709 H1695 0.931 . S
C1709 C1708 1.385 . S
C1709 C1710 1.389 . S
C1710 C1709 1.389 . S
C1710 C1711 1.387 . S
C1711 H1696 0.930 . S
C1711 C1706 1.390 . S
C1711 C1710 1.387 . S
H1712 C1724 0.930 . S
H1713 C1726 0.930 . S
H1714 C1727 0.930 . S
H1715 C1731 0.959 . S
H1716 C1731 0.959 . S
H1717 C1731 0.961 . S
H1718 C1732 0.960 . S
H1719 C1732 0.961 . S
H1720 C1732 0.959 . S
H1721 C1735 0.929 . S
H1722 C1736 0.931 . S
H1723 C1738 0.930 . S
C1724 H1712 0.930 . S
C1724 C1725 1.399 1_545 S
C1724 C1729 1.399 . S
C1725 C1724 1.399 1_565 S
C1725 C1726 1.376 . S
C1726 H1713 0.930 . S
C1726 C1725 1.376 . S
C1726 C1727 1.388 . S
C1727 H1714 0.930 . S
C1727 C1726 1.388 . S
C1727 C1728 1.390 . S
C1728 C1727 1.390 . S
C1728 C1729 1.394 1_565 S
C1728 C1734 1.465 . S
C1729 C1724 1.399 . S
C1729 C1728 1.394 1_545 S
C1729 C1730 1.516 . S
C1730 C1729 1.516 . S
C1730 C1731 1.502 . S
C1730 C1732 1.561 . S
C1730 C1733 1.526 . S
C1731 H1715 0.959 . S
C1731 H1716 0.959 . S
C1731 H1717 0.961 . S
C1731 C1730 1.502 . S
C1732 H1718 0.960 . S
C1732 H1719 0.961 . S
C1732 H1720 0.959 . S
C1732 C1730 1.561 . S
C1733 C1730 1.526 . S
C1733 C1734 1.396 1_545 S
C1733 C1738 1.390 . S
C1734 C1728 1.465 . S
C1734 C1733 1.396 1_565 S
C1734 C1735 1.399 . S
C1735 H1721 0.929 . S
C1735 C1734 1.399 . S
C1735 C1736 1.385 . S
C1736 H1722 0.931 . S
C1736 C1735 1.385 . S
C1736 C1737 1.389 1_565 S
C1737 C1736 1.389 1_545 S
C1737 C1738 1.387 . S
C1738 H1723 0.930 . S
C1738 C1733 1.390 . S
C1738 C1737 1.387 . S
H1739 C1751 0.930 . S
H1740 C1753 0.930 . S
H1741 C1754 0.930 . S
H1742 C1758 0.959 . S
H1743 C1758 0.959 . S
H1744 C1758 0.961 . S
H1745 C1759 0.960 . S
H1746 C1759 0.961 . S
H1747 C1759 0.959 . S
H1748 C1762 0.937 . S
H1749 C1763 0.931 . S
H1750 C1765 0.930 . S
C1751 H1739 0.930 . S
C1751 C1752 1.399 . S
C1751 C1756 1.399 . S
C1752 C1751 1.399 . S
C1752 C1753 1.376 . S
C1753 H1740 0.930 . S
C1753 C1752 1.376 . S
C1753 C1754 1.388 . S
C1754 H1741 0.930 . S
C1754 C1753 1.388 . S
C1754 C1755 1.390 . S
C1755 C1754 1.390 . S
C1755 C1756 1.394 . S
C1755 C1761 1.465 . S
C1756 C1751 1.399 . S
C1756 C1755 1.394 . S
C1756 C1757 1.516 1_455 S
C1757 C1756 1.516 1_655 S
C1757 C1758 1.502 . S
C1757 C1759 1.561 1_655 S
C1757 C1760 1.526 . S
C1758 H1742 0.959 . S
C1758 H1743 0.959 . S
C1758 H1744 0.961 . S
C1758 C1757 1.502 . S
C1759 H1745 0.960 . S
C1759 H1746 0.961 . S
C1759 H1747 0.959 . S
C1759 C1757 1.561 1_455 S
C1760 C1757 1.526 . S
C1760 C1761 1.396 1_655 S
C1760 C1765 1.390 . S
C1761 C1755 1.465 . S
C1761 C1760 1.396 1_455 S
C1761 C1762 1.399 . S
C1762 H1748 0.937 . S
C1762 C1761 1.399 . S
C1762 C1763 1.377 1_455 S
C1763 H1749 0.931 . S
C1763 C1762 1.377 1_655 S
C1763 C1764 1.389 . S
C1764 C1763 1.389 . S
C1764 C1765 1.387 . S
C1765 H1750 0.930 . S
C1765 C1760 1.390 . S
C1765 C1764 1.387 . S
H1766 C1778 0.930 . S
H1767 C1780 0.930 . S
H1768 C1781 0.930 . S
H1769 C1785 0.959 . S
H1770 C1785 0.959 . S
H1771 C1785 0.961 . S
H1772 C1786 0.960 1_556 S
H1773 C1786 0.961 . S
H1774 C1786 0.959 . S
H1775 C1789 0.929 . S
H1776 C1790 0.931 . S
H1777 C1792 0.930 . S
C1778 H1766 0.930 . S
C1778 C1779 1.399 . S
C1778 C1783 1.399 . S
C1779 C1778 1.399 . S
C1779 C1780 1.376 . S
C1780 H1767 0.930 . S
C1780 C1779 1.376 . S
C1780 C1781 1.388 . S
C1781 H1768 0.930 . S
C1781 C1780 1.388 . S
C1781 C1782 1.390 . S
C1782 C1781 1.390 . S
C1782 C1783 1.394 . S
C1782 C1788 1.465 1_556 S
C1783 C1778 1.399 . S
C1783 C1782 1.394 . S
C1783 C1784 1.516 1_556 S
C1784 C1783 1.516 1_554 S
C1784 C1785 1.502 . S
C1784 C1786 1.561 . S
C1784 C1787 1.526 . S
C1785 H1769 0.959 . S
C1785 H1770 0.959 . S
C1785 H1771 0.961 . S
C1785 C1784 1.502 . S
C1786 H1772 0.960 1_554 S
C1786 H1773 0.961 . S
C1786 H1774 0.959 . S
C1786 C1784 1.561 . S
C1787 C1784 1.526 . S
C1787 C1788 1.396 . S
C1787 C1792 1.390 . S
C1788 C1782 1.465 1_554 S
C1788 C1787 1.396 . S
C1788 C1789 1.399 . S
C1789 H1775 0.929 . S
C1789 C1788 1.399 . S
C1789 C1790 1.385 . S
C1790 H1776 0.931 . S
C1790 C1789 1.385 . S
C1790 C1791 1.389 . S
C1791 C1790 1.389 . S
C1791 C1792 1.387 . S
C1792 H1777 0.930 . S
C1792 C1787 1.390 . S
C1792 C1791 1.387 . S
H1793 C1805 0.930 . S
H1794 C1807 0.930 . S
H1795 C1808 0.930 . S
H1796 C1812 0.959 . S
H1797 C1812 0.959 1_556 S
H1798 C1812 0.961 . S
H1799 C1813 0.960 1_554 S
H1800 C1813 0.972 . S
H1801 C1813 0.959 . S
H1802 C1816 0.929 . S
H1803 C1817 0.931 . S
H1804 C1819 0.930 . S
C1805 H1793 0.930 . S
C1805 C1806 1.399 . S
C1805 C1810 1.399 . S
C1806 C1805 1.399 . S
C1806 C1807 1.376 1_565 S
C1807 H1794 0.930 . S
C1807 C1806 1.376 1_545 S
C1807 C1808 1.388 . S
C1808 H1795 0.930 . S
C1808 C1807 1.388 . S
C1808 C1809 1.390 . S
C1809 C1808 1.390 . S
C1809 C1810 1.394 1_545 S
C1809 C1815 1.465 1_554 S
C1810 C1805 1.399 . S
C1810 C1809 1.394 1_565 S
C1810 C1811 1.522 1_655 S
C1811 C1810 1.522 1_455 S
C1811 C1812 1.503 . S
C1811 C1813 1.559 1_454 S
C1811 C1814 1.520 1_554 S
C1812 H1796 0.959 . S
C1812 H1797 0.959 1_554 S
C1812 H1798 0.961 . S
C1812 C1811 1.503 . S
C1813 H1799 0.960 1_556 S
C1813 H1800 0.972 . S
C1813 H1801 0.959 . S
C1813 C1811 1.559 1_656 S
C1814 C1811 1.520 1_556 S
C1814 C1815 1.396 1_465 S
C1814 C1819 1.390 . S
C1815 C1809 1.465 1_556 S
C1815 C1814 1.396 1_645 S
C1815 C1816 1.399 . S
C1816 H1802 0.929 . S
C1816 C1815 1.399 . S
C1816 C1817 1.385 1_655 S
C1817 H1803 0.931 . S
C1817 C1816 1.385 1_455 S
C1817 C1818 1.389 . S
C1818 C1817 1.389 . S
C1818 C1819 1.387 1_545 S
C1819 H1804 0.930 . S
C1819 C1814 1.390 . S
C1819 C1818 1.387 1_565 S
H1820 C1832 0.930 . S
H1821 C1834 0.930 . S
H1822 C1835 0.930 . S
H1823 C1839 0.959 . S
H1824 C1839 0.959 . S
H1825 C1839 0.961 . S
H1826 C1840 0.960 . S
H1827 C1840 0.961 . S
H1828 C1840 0.959 . S
H1829 C1843 0.929 . S
H1830 C1844 0.931 . S
H1831 C1846 0.930 . S
C1832 H1820 0.930 . S
C1832 C1833 1.399 . S
C1832 C1837 1.399 . S
C1833 C1832 1.399 . S
C1833 C1834 1.376 1_545 S
C1834 H1821 0.930 . S
C1834 C1833 1.376 1_565 S
C1834 C1835 1.388 . S
C1835 H1822 0.930 . S
C1835 C1834 1.388 . S
C1835 C1836 1.390 . S
C1836 C1835 1.390 . S
C1836 C1837 1.394 1_565 S
C1836 C1842 1.465 . S
C1837 C1832 1.399 . S
C1837 C1836 1.394 1_545 S
C1837 C1838 1.516 . S
C1838 C1837 1.516 . S
C1838 C1839 1.502 . S
C1838 C1840 1.561 . S
C1838 C1841 1.526 . S
C1839 H1823 0.959 . S
C1839 H1824 0.959 . S
C1839 H1825 0.961 . S
C1839 C1838 1.502 . S
C1840 H1826 0.960 . S
C1840 H1827 0.961 . S
C1840 H1828 0.959 . S
C1840 C1838 1.561 . S
C1841 C1838 1.526 . S
C1841 C1842 1.396 1_545 S
C1841 C1846 1.390 . S
C1842 C1836 1.465 . S
C1842 C1841 1.396 1_565 S
C1842 C1843 1.399 . S
C1843 H1829 0.929 . S
C1843 C1842 1.399 . S
C1843 C1844 1.385 . S
C1844 H1830 0.931 . S
C1844 C1843 1.385 . S
C1844 C1845 1.389 . S
C1845 C1844 1.389 . S
C1845 C1846 1.387 1_565 S
C1846 H1831 0.930 . S
C1846 C1841 1.390 . S
C1846 C1845 1.387 1_545 S
H1847 C1859 0.930 . S
H1848 C1861 0.930 . S
H1849 C1862 0.930 . S
H1850 C1866 0.959 . S
H1851 C1866 0.959 . S
H1852 C1866 0.961 . S
H1853 C1867 0.960 . S
H1854 C1867 0.961 . S
H1855 C1867 0.959 . S
H1856 C1870 0.929 . S
H1857 C1871 0.931 . S
H1858 C1873 0.930 . S
C1859 H1847 0.930 . S
C1859 C1860 1.399 . S
C1859 C1864 1.399 . S
C1860 C1859 1.399 . S
C1860 C1861 1.376 . S
C1861 H1848 0.930 . S
C1861 C1860 1.376 . S
C1861 C1862 1.388 . S
C1862 H1849 0.930 . S
C1862 C1861 1.388 . S
C1862 C1863 1.390 . S
C1863 C1862 1.390 . S
C1863 C1864 1.394 . S
C1863 C1869 1.465 . S
C1864 C1859 1.399 . S
C1864 C1863 1.394 . S
C1864 C1865 1.516 1_455 S
C1865 C1864 1.516 1_655 S
C1865 C1866 1.502 . S
C1865 C1867 1.561 1_655 S
C1865 C1868 1.526 . S
C1866 H1850 0.959 . S
C1866 H1851 0.959 . S
C1866 H1852 0.961 . S
C1866 C1865 1.502 . S
C1867 H1853 0.960 . S
C1867 H1854 0.961 . S
C1867 H1855 0.959 . S
C1867 C1865 1.561 1_455 S
C1868 C1865 1.526 . S
C1868 C1869 1.396 1_655 S
C1868 C1873 1.390 . S
C1869 C1863 1.465 . S
C1869 C1868 1.396 1_455 S
C1869 C1870 1.399 . S
C1870 H1856 0.929 . S
C1870 C1869 1.399 . S
C1870 C1871 1.385 1_455 S
C1871 H1857 0.931 . S
C1871 C1870 1.385 1_655 S
C1871 C1872 1.389 . S
C1872 C1871 1.389 . S
C1872 C1873 1.387 . S
C1873 H1858 0.930 . S
C1873 C1868 1.390 . S
C1873 C1872 1.387 . S
H1874 C1886 0.930 . S
H1875 C1888 0.930 . S
H1876 C1889 0.930 . S
H1877 C1893 0.959 . S
H1878 C1893 0.959 . S
H1879 C1893 0.961 1_556 S
H1880 C1894 0.997 . S
H1881 C1894 0.922 1_554 S
H1882 C1894 0.969 . S
H1883 C1897 0.929 . S
H1884 C1898 0.931 . S
H1885 C1900 0.930 . S
C1886 H1874 0.930 . S
C1886 C1887 1.399 . S
C1886 C1891 1.399 . S
C1887 C1886 1.399 . S
C1887 C1888 1.376 . S
C1888 H1875 0.930 . S
C1888 C1887 1.376 . S
C1888 C1889 1.388 . S
C1889 H1876 0.930 . S
C1889 C1888 1.388 . S
C1889 C1890 1.390 . S
C1890 C1889 1.390 . S
C1890 C1891 1.394 . S
C1890 C1896 1.465 1_556 S
C1891 C1886 1.399 . S
C1891 C1890 1.394 . S
C1891 C1892 1.516 1_556 S
C1892 C1891 1.516 1_554 S
C1892 C1893 1.502 . S
C1892 C1894 1.555 1_554 S
C1892 C1895 1.526 . S
C1893 H1877 0.959 . S
C1893 H1878 0.959 . S
C1893 H1879 0.961 1_554 S
C1893 C1892 1.502 . S
C1894 H1880 0.997 . S
C1894 H1881 0.922 1_556 S
C1894 H1882 0.969 . S
C1894 C1892 1.555 1_556 S
C1895 C1892 1.526 . S
C1895 C1896 1.396 . S
C1895 C1900 1.390 . S
C1896 C1890 1.465 1_554 S
C1896 C1895 1.396 . S
C1896 C1897 1.399 . S
C1897 H1883 0.929 . S
C1897 C1896 1.399 . S
C1897 C1898 1.385 . S
C1898 H1884 0.931 . S
C1898 C1897 1.385 . S
C1898 C1899 1.389 . S
C1899 C1898 1.389 . S
C1899 C1900 1.387 . S
C1900 H1885 0.930 . S
C1900 C1895 1.390 . S
C1900 C1899 1.387 . S
H1901 C1913 0.930 . S
H1902 C1915 0.930 . S
H1903 C1916 0.930 . S
H1904 C1920 0.959 . S
H1905 C1920 0.959 . S
H1906 C1920 0.961 . S
H1907 C1921 0.960 . S
H1908 C1921 0.961 . S
H1909 C1921 0.959 . S
H1910 C1924 0.929 . S
H1911 C1925 0.931 . S
H1912 C1927 0.930 . S
C1913 H1901 0.930 . S
C1913 C1914 1.399 . S
C1913 C1918 1.399 . S
C1914 C1913 1.399 . S
C1914 C1915 1.376 . S
C1915 H1902 0.930 . S
C1915 C1914 1.376 . S
C1915 C1916 1.388 . S
C1916 H1903 0.930 . S
C1916 C1915 1.388 . S
C1916 C1917 1.390 . S
C1917 C1916 1.390 . S
C1917 C1918 1.394 . S
C1917 C1923 1.465 . S
C1918 C1913 1.399 . S
C1918 C1917 1.394 . S
C1918 C1919 1.516 . S
C1919 C1918 1.516 . S
C1919 C1920 1.502 . S
C1919 C1921 1.561 . S
C1919 C1922 1.526 . S
C1920 H1904 0.959 . S
C1920 H1905 0.959 . S
C1920 H1906 0.961 . S
C1920 C1919 1.502 . S
C1921 H1907 0.960 . S
C1921 H1908 0.961 . S
C1921 H1909 0.959 . S
C1921 C1919 1.561 . S
C1922 C1919 1.526 . S
C1922 C1923 1.396 . S
C1922 C1927 1.390 . S
C1923 C1917 1.465 . S
C1923 C1922 1.396 . S
C1923 C1924 1.399 . S
C1924 H1910 0.929 . S
C1924 C1923 1.399 . S
C1924 C1925 1.385 . S
C1925 H1911 0.931 . S
C1925 C1924 1.385 . S
C1925 C1926 1.389 . S
C1926 C1925 1.389 . S
C1926 C1927 1.387 . S
C1927 H1912 0.930 . S
C1927 C1922 1.390 . S
C1927 C1926 1.387 . S
H1928 C1940 0.930 . S
H1929 C1942 0.930 . S
H1930 C1943 0.930 . S
H1931 C1947 0.959 . S
H1932 C1947 0.959 . S
H1933 C1947 0.961 . S
H1934 C1948 0.960 . S
H1935 C1948 0.961 . S
H1936 C1948 0.959 . S
H1937 C1951 0.929 . S
H1938 C1952 0.931 . S
H1939 C1954 0.930 . S
C1940 H1928 0.930 . S
C1940 C1941 1.399 . S
C1940 C1945 1.399 . S
C1941 C1940 1.399 . S
C1941 C1942 1.376 . S
C1942 H1929 0.930 . S
C1942 C1941 1.376 . S
C1942 C1943 1.388 . S
C1943 H1930 0.930 . S
C1943 C1942 1.388 . S
C1943 C1944 1.390 . S
C1944 C1943 1.390 . S
C1944 C1945 1.394 . S
C1944 C1950 1.465 . S
C1945 C1940 1.399 . S
C1945 C1944 1.394 . S
C1945 C1946 1.516 . S
C1946 C1945 1.516 . S
C1946 C1947 1.502 . S
C1946 C1948 1.561 . S
C1946 C1949 1.526 . S
C1947 H1931 0.959 . S
C1947 H1932 0.959 . S
C1947 H1933 0.961 . S
C1947 C1946 1.502 . S
C1948 H1934 0.960 . S
C1948 H1935 0.961 . S
C1948 H1936 0.959 . S
C1948 C1946 1.561 . S
C1949 C1946 1.526 . S
C1949 C1950 1.396 . S
C1949 C1954 1.390 . S
C1950 C1944 1.465 . S
C1950 C1949 1.396 . S
C1950 C1951 1.399 . S
C1951 H1937 0.929 . S
C1951 C1950 1.399 . S
C1951 C1952 1.385 . S
C1952 H1938 0.931 . S
C1952 C1951 1.385 . S
C1952 C1953 1.389 . S
C1953 C1952 1.389 . S
C1953 C1954 1.387 . S
C1954 H1939 0.930 . S
C1954 C1949 1.390 . S
C1954 C1953 1.387 . S
H1955 C1967 0.930 . S
H1956 C1969 0.930 . S
H1957 C1970 0.930 . S
H1958 C1974 0.959 . S
H1959 C1974 0.959 . S
H1960 C1974 0.961 . S
H1961 C1975 0.960 . S
H1962 C1975 0.961 . S
H1963 C1975 0.959 . S
H1964 C1978 0.929 . S
H1965 C1979 0.931 . S
H1966 C1981 0.930 . S
C1967 H1955 0.930 . S
C1967 C1968 1.399 . S
C1967 C1972 1.399 . S
C1968 C1967 1.399 . S
C1968 C1969 1.376 . S
C1969 H1956 0.930 . S
C1969 C1968 1.376 . S
C1969 C1970 1.388 . S
C1970 H1957 0.930 . S
C1970 C1969 1.388 . S
C1970 C1971 1.390 . S
C1971 C1970 1.390 . S
C1971 C1972 1.394 . S
C1971 C1977 1.465 . S
C1972 C1967 1.399 . S
C1972 C1971 1.394 . S
C1972 C1973 1.516 1_455 S
C1973 C1972 1.516 1_655 S
C1973 C1974 1.502 . S
C1973 C1975 1.561 1_655 S
C1973 C1976 1.526 . S
C1974 H1958 0.959 . S
C1974 H1959 0.959 . S
C1974 H1960 0.961 . S
C1974 C1973 1.502 . S
C1975 H1961 0.960 . S
C1975 H1962 0.961 . S
C1975 H1963 0.959 . S
C1975 C1973 1.561 1_455 S
C1976 C1973 1.526 . S
C1976 C1977 1.396 1_655 S
C1976 C1981 1.390 . S
C1977 C1971 1.465 . S
C1977 C1976 1.396 1_455 S
C1977 C1978 1.399 . S
C1978 H1964 0.929 . S
C1978 C1977 1.399 . S
C1978 C1979 1.385 1_455 S
C1979 H1965 0.931 . S
C1979 C1978 1.385 1_655 S
C1979 C1980 1.389 . S
C1980 C1979 1.389 . S
C1980 C1981 1.387 . S
C1981 H1966 0.930 . S
C1981 C1976 1.390 . S
C1981 C1980 1.387 . S
H1982 C1994 0.930 . S
H1983 C1996 0.930 . S
H1984 C1997 0.930 . S
H1985 C2001 0.959 . S
H1986 C2001 0.959 . S
H1987 C2001 0.961 . S
H1988 C2002 0.960 . S
H1989 C2002 0.961 . S
H1990 C2002 0.959 . S
H1991 C2005 0.929 . S
H1992 C2006 0.931 . S
H1993 C2008 0.930 . S
C1994 H1982 0.930 . S
C1994 C1995 1.399 . S
C1994 C1999 1.399 . S
C1995 C1994 1.399 . S
C1995 C1996 1.376 . S
C1996 H1983 0.930 . S
C1996 C1995 1.376 . S
C1996 C1997 1.388 . S
C1997 H1984 0.930 . S
C1997 C1996 1.388 . S
C1997 C1998 1.390 . S
C1998 C1997 1.390 . S
C1998 C1999 1.394 . S
C1998 C2004 1.465 . S
C1999 C1994 1.399 . S
C1999 C1998 1.394 . S
C1999 C2000 1.516 . S
C2000 C1999 1.516 . S
C2000 C2001 1.502 . S
C2000 C2002 1.561 . S
C2000 C2003 1.526 . S
C2001 H1985 0.959 . S
C2001 H1986 0.959 . S
C2001 H1987 0.961 . S
C2001 C2000 1.502 . S
C2002 H1988 0.960 . S
C2002 H1989 0.961 . S
C2002 H1990 0.959 . S
C2002 C2000 1.561 . S
C2003 C2000 1.526 . S
C2003 C2004 1.396 . S
C2003 C2008 1.390 . S
C2004 C1998 1.465 . S
C2004 C2003 1.396 . S
C2004 C2005 1.399 . S
C2005 H1991 0.929 . S
C2005 C2004 1.399 . S
C2005 C2006 1.385 . S
C2006 H1992 0.931 . S
C2006 C2005 1.385 . S
C2006 C2007 1.389 . S
C2007 C2006 1.389 . S
C2007 C2008 1.387 . S
C2008 H1993 0.930 . S
C2008 C2003 1.390 . S
C2008 C2007 1.387 . S
H2009 C2021 0.930 . S
H2010 C2023 0.930 . S
H2011 C2024 0.930 . S
H2012 C2028 0.959 . S
H2013 C2028 0.959 . S
H2014 C2028 0.961 . S
H2015 C2029 0.960 . S
H2016 C2029 0.961 . S
H2017 C2029 0.959 . S
H2018 C2032 0.929 . S
H2019 C2033 0.931 . S
H2020 C2035 0.930 . S
C2021 H2009 0.930 . S
C2021 C2022 1.399 . S
C2021 C2026 1.399 . S
C2022 C2021 1.399 . S
C2022 C2023 1.376 . S
C2023 H2010 0.930 . S
C2023 C2022 1.376 . S
C2023 C2024 1.388 . S
C2024 H2011 0.930 . S
C2024 C2023 1.388 . S
C2024 C2025 1.390 . S
C2025 C2024 1.390 . S
C2025 C2026 1.394 . S
C2025 C2031 1.465 . S
C2026 C2021 1.399 . S
C2026 C2025 1.394 . S
C2026 C2027 1.516 . S
C2027 C2026 1.516 . S
C2027 C2028 1.502 . S
C2027 C2029 1.561 . S
C2027 C2030 1.526 . S
C2028 H2012 0.959 . S
C2028 H2013 0.959 . S
C2028 H2014 0.961 . S
C2028 C2027 1.502 . S
C2029 H2015 0.960 . S
C2029 H2016 0.961 . S
C2029 H2017 0.959 . S
C2029 C2027 1.561 . S
C2030 C2027 1.526 . S
C2030 C2031 1.396 . S
C2030 C2035 1.390 . S
C2031 C2025 1.465 . S
C2031 C2030 1.396 . S
C2031 C2032 1.399 . S
C2032 H2018 0.929 . S
C2032 C2031 1.399 . S
C2032 C2033 1.385 . S
C2033 H2019 0.931 . S
C2033 C2032 1.385 . S
C2033 C2034 1.389 . S
C2034 C2033 1.389 . S
C2034 C2035 1.387 . S
C2035 H2020 0.930 . S
C2035 C2030 1.390 . S
C2035 C2034 1.387 . S
H2036 C2048 0.930 . S
H2037 C2050 0.930 . S
H2038 C2051 0.930 . S
H2039 C2055 0.959 . S
H2040 C2055 0.959 . S
H2041 C2055 0.961 . S
H2042 C2056 0.960 . S
H2043 C2056 0.961 . S
H2044 C2056 0.959 . S
H2045 C2059 0.929 . S
H2046 C2060 0.931 . S
H2047 C2062 0.930 . S
C2048 H2036 0.930 . S
C2048 C2049 1.399 . S
C2048 C2053 1.399 . S
C2049 C2048 1.399 . S
C2049 C2050 1.376 . S
C2050 H2037 0.930 . S
C2050 C2049 1.376 . S
C2050 C2051 1.388 . S
C2051 H2038 0.930 . S
C2051 C2050 1.388 . S
C2051 C2052 1.390 . S
C2052 C2051 1.390 . S
C2052 C2053 1.394 . S
C2052 C2058 1.465 . S
C2053 C2048 1.399 . S
C2053 C2052 1.394 . S
C2053 C2054 1.516 . S
C2054 C2053 1.516 . S
C2054 C2055 1.502 . S
C2054 C2056 1.561 . S
C2054 C2057 1.526 . S
C2055 H2039 0.959 . S
C2055 H2040 0.959 . S
C2055 H2041 0.961 . S
C2055 C2054 1.502 . S
C2056 H2042 0.960 . S
C2056 H2043 0.961 . S
C2056 H2044 0.959 . S
C2056 C2054 1.561 . S
C2057 C2054 1.526 . S
C2057 C2058 1.396 . S
C2057 C2062 1.390 . S
C2058 C2052 1.465 . S
C2058 C2057 1.396 . S
C2058 C2059 1.399 . S
C2059 H2045 0.929 . S
C2059 C2058 1.399 . S
C2059 C2060 1.385 . S
C2060 H2046 0.931 . S
C2060 C2059 1.385 . S
C2060 C2061 1.389 . S
C2061 C2060 1.389 . S
C2061 C2062 1.387 . S
C2062 H2047 0.930 . S
C2062 C2057 1.390 . S
C2062 C2061 1.387 . S
H2063 C2075 0.930 . S
H2064 C2077 0.930 . S
H2065 C2078 0.930 . S
H2066 C2082 0.959 . S
H2067 C2082 0.959 . S
H2068 C2082 0.961 . S
H2069 C2083 0.960 . S
H2070 C2083 0.961 . S
H2071 C2083 0.959 . S
H2072 C2086 0.929 . S
H2073 C2087 0.931 . S
H2074 C2089 0.930 . S
C2075 H2063 0.930 . S
C2075 C2076 1.399 1_545 S
C2075 C2080 1.399 . S
C2076 C2075 1.399 1_565 S
C2076 C2077 1.376 . S
C2077 H2064 0.930 . S
C2077 C2076 1.376 . S
C2077 C2078 1.388 . S
C2078 H2065 0.930 . S
C2078 C2077 1.388 . S
C2078 C2079 1.390 . S
C2079 C2078 1.390 . S
C2079 C2080 1.394 1_565 S
C2079 C2085 1.465 . S
C2080 C2075 1.399 . S
C2080 C2079 1.394 1_545 S
C2080 C2081 1.516 . S
C2081 C2080 1.516 . S
C2081 C2082 1.502 . S
C2081 C2083 1.561 . S
C2081 C2084 1.526 . S
C2082 H2066 0.959 . S
C2082 H2067 0.959 . S
C2082 H2068 0.961 . S
C2082 C2081 1.502 . S
C2083 H2069 0.960 . S
C2083 H2070 0.961 . S
C2083 H2071 0.959 . S
C2083 C2081 1.561 . S
C2084 C2081 1.526 . S
C2084 C2085 1.396 1_545 S
C2084 C2089 1.390 . S
C2085 C2079 1.465 . S
C2085 C2084 1.396 1_565 S
C2085 C2086 1.399 . S
C2086 H2072 0.929 . S
C2086 C2085 1.399 . S
C2086 C2087 1.385 . S
C2087 H2073 0.931 . S
C2087 C2086 1.385 . S
C2087 C2088 1.389 1_565 S
C2088 C2087 1.389 1_545 S
C2088 C2089 1.387 . S
C2089 H2074 0.930 . S
C2089 C2084 1.390 . S
C2089 C2088 1.387 . S
H2090 C2102 0.930 . S
H2091 C2104 0.930 . S
H2092 C2105 0.930 . S
H2093 C2109 0.959 . S
H2094 C2109 0.959 . S
H2095 C2109 0.961 . S
H2096 C2110 0.960 . S
H2097 C2110 0.961 . S
H2098 C2110 0.959 . S
H2099 C2113 0.929 . S
H2100 C2114 0.931 . S
H2101 C2116 0.930 . S
C2102 H2090 0.930 . S
C2102 C2103 1.399 . S
C2102 C2107 1.399 . S
C2103 C2102 1.399 . S
C2103 C2104 1.376 . S
C2104 H2091 0.930 . S
C2104 C2103 1.376 . S
C2104 C2105 1.388 . S
C2105 H2092 0.930 . S
C2105 C2104 1.388 . S
C2105 C2106 1.390 . S
C2106 C2105 1.390 . S
C2106 C2107 1.394 . S
C2106 C2112 1.465 . S
C2107 C2102 1.399 . S
C2107 C2106 1.394 . S
C2107 C2108 1.516 . S
C2108 C2107 1.516 . S
C2108 C2109 1.502 . S
C2108 C2110 1.561 . S
C2108 C2111 1.526 . S
C2109 H2093 0.959 . S
C2109 H2094 0.959 . S
C2109 H2095 0.961 . S
C2109 C2108 1.502 . S
C2110 H2096 0.960 . S
C2110 H2097 0.961 . S
C2110 H2098 0.959 . S
C2110 C2108 1.561 . S
C2111 C2108 1.526 . S
C2111 C2112 1.396 . S
C2111 C2116 1.390 . S
C2112 C2106 1.465 . S
C2112 C2111 1.396 . S
C2112 C2113 1.399 . S
C2113 H2099 0.929 . S
C2113 C2112 1.399 . S
C2113 C2114 1.385 . S
C2114 H2100 0.931 . S
C2114 C2113 1.385 . S
C2114 C2115 1.389 . S
C2115 C2114 1.389 . S
C2115 C2116 1.387 . S
C2116 H2101 0.930 . S
C2116 C2111 1.390 . S
C2116 C2115 1.387 . S
H2117 C2129 0.930 . S
H2118 C2131 0.930 . S
H2119 C2132 0.930 . S
H2120 C2136 0.959 . S
H2121 C2136 0.959 1_556 S
H2122 C2136 0.961 . S
H2123 C2137 0.960 1_554 S
H2124 C2137 0.961 . S
H2125 C2137 0.959 . S
H2126 C2140 0.929 . S
H2127 C2141 0.931 . S
H2128 C2143 0.930 . S
C2129 H2117 0.930 . S
C2129 C2130 1.399 . S
C2129 C2134 1.399 . S
C2130 C2129 1.399 . S
C2130 C2131 1.376 . S
C2131 H2118 0.930 . S
C2131 C2130 1.376 . S
C2131 C2132 1.388 . S
C2132 H2119 0.930 . S
C2132 C2131 1.388 . S
C2132 C2133 1.390 . S
C2133 C2132 1.390 . S
C2133 C2134 1.394 . S
C2133 C2139 1.465 1_554 S
C2134 C2129 1.399 . S
C2134 C2133 1.394 . S
C2134 C2135 1.538 . S
C2135 C2134 1.538 . S
C2135 C2136 1.509 . S
C2135 C2137 1.555 1_554 S
C2135 C2138 1.503 1_554 S
C2136 H2120 0.959 . S
C2136 H2121 0.959 1_554 S
C2136 H2122 0.961 . S
C2136 C2135 1.509 . S
C2137 H2123 0.960 1_556 S
C2137 H2124 0.961 . S
C2137 H2125 0.959 . S
C2137 C2135 1.555 1_556 S
C2138 C2135 1.503 1_556 S
C2138 C2139 1.396 . S
C2138 C2143 1.390 . S
C2139 C2133 1.465 1_556 S
C2139 C2138 1.396 . S
C2139 C2140 1.399 . S
C2140 H2126 0.929 . S
C2140 C2139 1.399 . S
C2140 C2141 1.385 . S
C2141 H2127 0.931 . S
C2141 C2140 1.385 . S
C2141 C2142 1.389 . S
C2142 C2141 1.389 . S
C2142 C2143 1.387 . S
C2143 H2128 0.930 . S
C2143 C2138 1.390 . S
C2143 C2142 1.387 . S
H2144 C2156 0.930 . S
H2145 C2158 0.930 . S
H2146 C2159 0.930 . S
H2147 C2163 0.959 . S
H2148 C2163 0.959 . S
H2149 C2163 0.961 . S
H2150 C2164 0.960 . S
H2151 C2164 0.961 . S
H2152 C2164 0.959 . S
H2153 C2167 0.929 . S
H2154 C2168 0.931 . S
H2155 C2170 0.930 . S
C2156 H2144 0.930 . S
C2156 C2157 1.399 . S
C2156 C2161 1.399 . S
C2157 C2156 1.399 . S
C2157 C2158 1.376 1_545 S
C2158 H2145 0.930 . S
C2158 C2157 1.376 1_565 S
C2158 C2159 1.388 . S
C2159 H2146 0.930 . S
C2159 C2158 1.388 . S
C2159 C2160 1.394 . S
C2160 C2159 1.394 . S
C2160 C2161 1.389 1_565 S
C2160 C2166 1.465 . S
C2161 C2156 1.399 . S
C2161 C2160 1.389 1_545 S
C2161 C2162 1.516 . S
C2162 C2161 1.516 . S
C2162 C2163 1.502 . S
C2162 C2164 1.561 . S
C2162 C2165 1.526 . S
C2163 H2147 0.959 . S
C2163 H2148 0.959 . S
C2163 H2149 0.961 . S
C2163 C2162 1.502 . S
C2164 H2150 0.960 . S
C2164 H2151 0.961 . S
C2164 H2152 0.959 . S
C2164 C2162 1.561 . S
C2165 C2162 1.526 . S
C2165 C2166 1.382 1_545 S
C2165 C2170 1.390 . S
C2166 C2160 1.465 . S
C2166 C2165 1.382 1_565 S
C2166 C2167 1.410 . S
C2167 H2153 0.929 . S
C2167 C2166 1.410 . S
C2167 C2168 1.385 . S
C2168 H2154 0.931 . S
C2168 C2167 1.385 . S
C2168 C2169 1.389 1_565 S
C2169 C2168 1.389 1_545 S
C2169 C2170 1.387 . S
C2170 H2155 0.930 . S
C2170 C2165 1.390 . S
C2170 C2169 1.387 . S
H2171 C2183 0.930 . S
H2172 C2185 0.930 . S
H2173 C2186 0.930 . S
H2174 C2190 0.959 . S
H2175 C2190 0.959 . S
H2176 C2190 0.961 . S
H2177 C2191 0.960 . S
H2178 C2191 0.961 . S
H2179 C2191 0.959 . S
H2180 C2194 0.929 . S
H2181 C2195 0.931 . S
H2182 C2197 0.930 . S
C2183 H2171 0.930 . S
C2183 C2184 1.399 . S
C2183 C2188 1.399 . S
C2184 C2183 1.399 . S
C2184 C2185 1.376 . S
C2185 H2172 0.930 . S
C2185 C2184 1.376 . S
C2185 C2186 1.388 . S
C2186 H2173 0.930 . S
C2186 C2185 1.388 . S
C2186 C2187 1.390 . S
C2187 C2186 1.390 . S
C2187 C2188 1.394 . S
C2187 C2193 1.465 . S
C2188 C2183 1.399 . S
C2188 C2187 1.394 . S
C2188 C2189 1.516 . S
C2189 C2188 1.516 . S
C2189 C2190 1.502 . S
C2189 C2191 1.561 . S
C2189 C2192 1.526 . S
C2190 H2174 0.959 . S
C2190 H2175 0.959 . S
C2190 H2176 0.961 . S
C2190 C2189 1.502 . S
C2191 H2177 0.960 . S
C2191 H2178 0.961 . S
C2191 H2179 0.959 . S
C2191 C2189 1.561 . S
C2192 C2189 1.526 . S
C2192 C2193 1.396 . S
C2192 C2197 1.390 . S
C2193 C2187 1.465 . S
C2193 C2192 1.396 . S
C2193 C2194 1.399 . S
C2194 H2180 0.929 . S
C2194 C2193 1.399 . S
C2194 C2195 1.385 . S
C2195 H2181 0.931 . S
C2195 C2194 1.385 . S
C2195 C2196 1.389 . S
C2196 C2195 1.389 . S
C2196 C2197 1.387 . S
C2197 H2182 0.930 . S
C2197 C2192 1.390 . S
C2197 C2196 1.387 . S
H2198 C2210 0.930 . S
H2199 C2212 0.930 . S
H2200 C2213 0.930 . S
H2201 C2217 0.959 . S
H2202 C2217 0.959 . S
H2203 C2217 0.961 . S
H2204 C2218 0.960 . S
H2205 C2218 0.961 . S
H2206 C2218 0.959 . S
H2207 C2221 0.929 . S
H2208 C2222 0.931 . S
H2209 C2224 0.930 . S
C2210 H2198 0.930 . S
C2210 C2211 1.399 . S
C2210 C2215 1.399 . S
C2211 C2210 1.399 . S
C2211 C2212 1.376 . S
C2212 H2199 0.930 . S
C2212 C2211 1.376 . S
C2212 C2213 1.388 . S
C2213 H2200 0.930 . S
C2213 C2212 1.388 . S
C2213 C2214 1.390 . S
C2214 C2213 1.390 . S
C2214 C2215 1.394 . S
C2214 C2220 1.465 . S
C2215 C2210 1.399 . S
C2215 C2214 1.394 . S
C2215 C2216 1.516 . S
C2216 C2215 1.516 . S
C2216 C2217 1.502 . S
C2216 C2218 1.561 . S
C2216 C2219 1.526 . S
C2217 H2201 0.959 . S
C2217 H2202 0.959 . S
C2217 H2203 0.961 . S
C2217 C2216 1.502 . S
C2218 H2204 0.960 . S
C2218 H2205 0.961 . S
C2218 H2206 0.959 . S
C2218 C2216 1.561 . S
C2219 C2216 1.526 . S
C2219 C2220 1.396 . S
C2219 C2224 1.390 . S
C2220 C2214 1.465 . S
C2220 C2219 1.396 . S
C2220 C2221 1.399 . S
C2221 H2207 0.929 . S
C2221 C2220 1.399 . S
C2221 C2222 1.385 . S
C2222 H2208 0.931 . S
C2222 C2221 1.385 . S
C2222 C2223 1.389 . S
C2223 C2222 1.389 . S
C2223 C2224 1.387 . S
C2224 H2209 0.930 . S
C2224 C2219 1.390 . S
C2224 C2223 1.387 . S
H2225 C2237 0.930 1_565 S
H2226 C2239 0.930 . S
H2227 C2240 0.930 . S
H2228 C2244 0.959 1_545 S
H2229 C2244 0.960 . S
H2230 C2244 0.961 . S
H2231 C2245 0.960 . S
H2232 C2245 0.961 . S
H2233 C2245 0.959 . S
H2234 C2248 0.929 . S
H2235 C2249 0.931 . S
H2236 C2251 0.930 1_565 S
C2237 H2225 0.930 1_545 S
C2237 C2238 1.399 . S
C2237 C2242 1.399 . S
C2238 C2237 1.399 . S
C2238 C2239 1.376 . S
C2239 H2226 0.930 . S
C2239 C2238 1.376 . S
C2239 C2240 1.388 . S
C2240 H2227 0.930 . S
C2240 C2239 1.388 . S
C2240 C2241 1.390 . S
C2241 C2240 1.390 . S
C2241 C2242 1.394 . S
C2241 C2247 1.465 . S
C2242 C2237 1.399 . S
C2242 C2241 1.394 . S
C2242 C2243 1.516 1_545 S
C2243 C2242 1.516 1_565 S
C2243 C2244 1.502 . S
C2243 C2245 1.561 . S
C2243 C2246 1.526 1_565 S
C2244 H2228 0.959 1_565 S
C2244 H2229 0.960 . S
C2244 H2230 0.961 . S
C2244 C2243 1.502 . S
C2245 H2231 0.960 . S
C2245 H2232 0.961 . S
C2245 H2233 0.959 . S
C2245 C2243 1.561 . S
C2246 C2243 1.526 1_545 S
C2246 C2247 1.396 . S
C2246 C2251 1.390 . S
C2247 C2241 1.465 . S
C2247 C2246 1.396 . S
C2247 C2248 1.399 . S
C2248 H2234 0.929 . S
C2248 C2247 1.399 . S
C2248 C2249 1.385 . S
C2249 H2235 0.931 . S
C2249 C2248 1.385 . S
C2249 C2250 1.389 . S
C2250 C2249 1.389 . S
C2250 C2251 1.387 . S
C2251 H2236 0.930 1_545 S
C2251 C2246 1.390 . S
C2251 C2250 1.387 . S
H2252 C2264 0.930 . S
H2253 C2266 0.930 . S
H2254 C2267 0.930 . S
H2255 C2271 0.959 . S
H2256 C2271 0.959 . S
H2257 C2271 0.961 . S
H2258 C2272 0.960 . S
H2259 C2272 0.961 . S
H2260 C2272 0.959 . S
H2261 C2275 0.929 . S
H2262 C2276 0.931 . S
H2263 C2278 0.930 . S
C2264 H2252 0.930 . S
C2264 C2265 1.399 1_545 S
C2264 C2269 1.400 . S
C2265 C2264 1.399 1_565 S
C2265 C2266 1.376 . S
C2266 H2253 0.930 . S
C2266 C2265 1.376 . S
C2266 C2267 1.388 . S
C2267 H2254 0.930 . S
C2267 C2266 1.388 . S
C2267 C2268 1.390 . S
C2268 C2267 1.390 . S
C2268 C2269 1.390 1_565 S
C2268 C2274 1.465 . S
C2269 C2264 1.400 . S
C2269 C2268 1.390 1_545 S
C2269 C2270 1.519 . S
C2270 C2269 1.519 . S
C2270 C2271 1.502 . S
C2270 C2272 1.561 . S
C2270 C2273 1.528 1_545 S
C2271 H2255 0.959 . S
C2271 H2256 0.959 . S
C2271 H2257 0.961 . S
C2271 C2270 1.502 . S
C2272 H2258 0.960 . S
C2272 H2259 0.961 . S
C2272 H2260 0.959 . S
C2272 C2270 1.561 . S
C2273 C2270 1.528 1_565 S
C2273 C2274 1.392 . S
C2273 C2278 1.390 1_565 S
C2274 C2268 1.465 . S
C2274 C2273 1.392 . S
C2274 C2275 1.399 . S
C2275 H2261 0.929 . S
C2275 C2274 1.399 . S
C2275 C2276 1.385 . S
C2276 H2262 0.931 . S
C2276 C2275 1.385 . S
C2276 C2277 1.389 . S
C2277 C2276 1.389 . S
C2277 C2278 1.387 1_565 S
C2278 H2263 0.930 . S
C2278 C2273 1.390 1_545 S
C2278 C2277 1.387 1_545 S
H2279 C2291 0.930 . S
H2280 C2293 0.930 . S
H2281 C2294 0.930 . S
H2282 C2298 0.959 . S
H2283 C2298 0.959 . S
H2284 C2298 0.961 . S
H2285 C2299 0.960 . S
H2286 C2299 0.961 . S
H2287 C2299 0.959 . S
H2288 C2302 0.929 . S
H2289 C2303 0.931 . S
H2290 C2305 0.930 . S
C2291 H2279 0.930 . S
C2291 C2292 1.399 . S
C2291 C2296 1.399 . S
C2292 C2291 1.399 . S
C2292 C2293 1.376 . S
C2293 H2280 0.930 . S
C2293 C2292 1.376 . S
C2293 C2294 1.388 . S
C2294 H2281 0.930 . S
C2294 C2293 1.388 . S
C2294 C2295 1.390 . S
C2295 C2294 1.390 . S
C2295 C2296 1.394 . S
C2295 C2301 1.465 . S
C2296 C2291 1.399 . S
C2296 C2295 1.394 . S
C2296 C2297 1.516 . S
C2297 C2296 1.516 . S
C2297 C2298 1.502 . S
C2297 C2299 1.561 . S
C2297 C2300 1.526 . S
C2298 H2282 0.959 . S
C2298 H2283 0.959 . S
C2298 H2284 0.961 . S
C2298 C2297 1.502 . S
C2299 H2285 0.960 . S
C2299 H2286 0.961 . S
C2299 H2287 0.959 . S
C2299 C2297 1.561 . S
C2300 C2297 1.526 . S
C2300 C2301 1.396 . S
C2300 C2305 1.390 . S
C2301 C2295 1.465 . S
C2301 C2300 1.396 . S
C2301 C2302 1.399 . S
C2302 H2288 0.929 . S
C2302 C2301 1.399 . S
C2302 C2303 1.385 . S
C2303 H2289 0.931 . S
C2303 C2302 1.385 . S
C2303 C2304 1.389 . S
C2304 C2303 1.389 . S
C2304 C2305 1.387 . S
C2305 H2290 0.930 . S
C2305 C2300 1.390 . S
C2305 C2304 1.387 . S
H2306 C2318 0.930 . S
H2307 C2320 0.930 . S
H2308 C2321 0.930 . S
H2309 C2325 0.959 . S
H2310 C2325 0.959 . S
H2311 C2325 0.961 . S
H2312 C2326 0.960 . S
H2313 C2326 0.961 . S
H2314 C2326 0.959 . S
H2315 C2329 0.929 . S
H2316 C2330 0.931 . S
H2317 C2332 0.930 . S
C2318 H2306 0.930 . S
C2318 C2319 1.399 . S
C2318 C2323 1.399 . S
C2319 C2318 1.399 . S
C2319 C2320 1.376 . S
C2320 H2307 0.930 . S
C2320 C2319 1.376 . S
C2320 C2321 1.388 . S
C2321 H2308 0.930 . S
C2321 C2320 1.388 . S
C2321 C2322 1.390 . S
C2322 C2321 1.390 . S
C2322 C2323 1.394 . S
C2322 C2328 1.465 . S
C2323 C2318 1.399 . S
C2323 C2322 1.394 . S
C2323 C2324 1.516 . S
C2324 C2323 1.516 . S
C2324 C2325 1.502 . S
C2324 C2326 1.561 . S
C2324 C2327 1.526 . S
C2325 H2309 0.959 . S
C2325 H2310 0.959 . S
C2325 H2311 0.961 . S
C2325 C2324 1.502 . S
C2326 H2312 0.960 . S
C2326 H2313 0.961 . S
C2326 H2314 0.959 . S
C2326 C2324 1.561 . S
C2327 C2324 1.526 . S
C2327 C2328 1.396 . S
C2327 C2332 1.390 . S
C2328 C2322 1.465 . S
C2328 C2327 1.396 . S
C2328 C2329 1.399 . S
C2329 H2315 0.929 . S
C2329 C2328 1.399 . S
C2329 C2330 1.385 . S
C2330 H2316 0.931 . S
C2330 C2329 1.385 . S
C2330 C2331 1.389 . S
C2331 C2330 1.389 . S
C2331 C2332 1.387 . S
C2332 H2317 0.930 . S
C2332 C2327 1.390 . S
C2332 C2331 1.387 . S
H2333 C2345 0.930 . S
H2334 C2347 0.930 . S
H2335 C2348 0.930 . S
H2336 C2352 0.959 . S
H2337 C2352 0.959 . S
H2338 C2352 0.961 . S
H2339 C2353 0.960 . S
H2340 C2353 0.961 . S
H2341 C2353 0.959 . S
H2342 C2356 0.929 . S
H2343 C2357 0.931 . S
H2344 C2359 0.930 . S
C2345 H2333 0.930 . S
C2345 C2346 1.399 1_545 S
C2345 C2350 1.397 1_545 S
C2346 C2345 1.399 1_565 S
C2346 C2347 1.376 . S
C2347 H2334 0.930 . S
C2347 C2346 1.376 . S
C2347 C2348 1.388 . S
C2348 H2335 0.930 . S
C2348 C2347 1.388 . S
C2348 C2349 1.390 . S
C2349 C2348 1.390 . S
C2349 C2350 1.406 . S
C2349 C2355 1.465 . S
C2350 C2345 1.397 1_565 S
C2350 C2349 1.406 . S
C2350 C2351 1.507 1_565 S
C2351 C2350 1.507 1_545 S
C2351 C2352 1.502 . S
C2351 C2353 1.561 . S
C2351 C2354 1.510 1_545 S
C2352 H2336 0.959 . S
C2352 H2337 0.959 . S
C2352 H2338 0.961 . S
C2352 C2351 1.502 . S
C2353 H2339 0.960 . S
C2353 H2340 0.961 . S
C2353 H2341 0.959 . S
C2353 C2351 1.561 . S
C2354 C2351 1.510 1_565 S
C2354 C2355 1.418 . S
C2354 C2359 1.386 1_565 S
C2355 C2349 1.465 . S
C2355 C2354 1.418 . S
C2355 C2356 1.399 . S
C2356 H2342 0.929 . S
C2356 C2355 1.399 . S
C2356 C2357 1.385 . S
C2357 H2343 0.931 . S
C2357 C2356 1.385 . S
C2357 C2358 1.389 . S
C2358 C2357 1.389 . S
C2358 C2359 1.387 1_565 S
C2359 H2344 0.930 . S
C2359 C2354 1.386 1_545 S
C2359 C2358 1.387 1_545 S
H2360 C2372 0.930 . S
H2361 C2374 0.930 . S
H2362 C2375 0.930 . S
H2363 C2379 0.959 . S
H2364 C2379 0.959 . S
H2365 C2379 0.961 . S
H2366 C2380 0.960 . S
H2367 C2380 0.961 . S
H2368 C2380 0.959 . S
H2369 C2383 0.929 . S
H2370 C2384 0.931 . S
H2371 C2386 0.930 . S
C2372 H2360 0.930 . S
C2372 C2373 1.399 . S
C2372 C2377 1.399 . S
C2373 C2372 1.399 . S
C2373 C2374 1.376 . S
C2374 H2361 0.930 . S
C2374 C2373 1.376 . S
C2374 C2375 1.388 . S
C2375 H2362 0.930 . S
C2375 C2374 1.388 . S
C2375 C2376 1.390 . S
C2376 C2375 1.390 . S
C2376 C2377 1.394 . S
C2376 C2382 1.465 . S
C2377 C2372 1.399 . S
C2377 C2376 1.394 . S
C2377 C2378 1.516 . S
C2378 C2377 1.516 . S
C2378 C2379 1.502 . S
C2378 C2380 1.561 . S
C2378 C2381 1.526 . S
C2379 H2363 0.959 . S
C2379 H2364 0.959 . S
C2379 H2365 0.961 . S
C2379 C2378 1.502 . S
C2380 H2366 0.960 . S
C2380 H2367 0.961 . S
C2380 H2368 0.959 . S
C2380 C2378 1.561 . S
C2381 C2378 1.526 . S
C2381 C2382 1.396 . S
C2381 C2386 1.390 . S
C2382 C2376 1.465 . S
C2382 C2381 1.396 . S
C2382 C2383 1.399 . S
C2383 H2369 0.929 . S
C2383 C2382 1.399 . S
C2383 C2384 1.385 . S
C2384 H2370 0.931 . S
C2384 C2383 1.385 . S
C2384 C2385 1.389 . S
C2385 C2384 1.389 . S
C2385 C2386 1.387 . S
C2386 H2371 0.930 . S
C2386 C2381 1.390 . S
C2386 C2385 1.387 . S
H2387 C2399 0.930 . S
H2388 C2401 0.930 . S
H2389 C2402 0.930 . S
H2390 C2406 0.959 . S
H2391 C2406 0.959 . S
H2392 C2406 0.961 . S
H2393 C2407 0.960 . S
H2394 C2407 0.961 . S
H2395 C2407 0.959 . S
H2396 C2410 0.929 . S
H2397 C2411 0.931 . S
H2398 C2413 0.930 . S
C2399 H2387 0.930 . S
C2399 C2400 1.399 . S
C2399 C2404 1.399 . S
C2400 C2399 1.399 . S
C2400 C2401 1.376 . S
C2401 H2388 0.930 . S
C2401 C2400 1.376 . S
C2401 C2402 1.388 . S
C2402 H2389 0.930 . S
C2402 C2401 1.388 . S
C2402 C2403 1.390 . S
C2403 C2402 1.390 . S
C2403 C2404 1.394 . S
C2403 C2409 1.465 . S
C2404 C2399 1.399 . S
C2404 C2403 1.394 . S
C2404 C2405 1.516 . S
C2405 C2404 1.516 . S
C2405 C2406 1.502 . S
C2405 C2407 1.561 . S
C2405 C2408 1.526 . S
C2406 H2390 0.959 . S
C2406 H2391 0.959 . S
C2406 H2392 0.961 . S
C2406 C2405 1.502 . S
C2407 H2393 0.960 . S
C2407 H2394 0.961 . S
C2407 H2395 0.959 . S
C2407 C2405 1.561 . S
C2408 C2405 1.526 . S
C2408 C2409 1.396 . S
C2408 C2413 1.390 . S
C2409 C2403 1.465 . S
C2409 C2408 1.396 . S
C2409 C2410 1.399 . S
C2410 H2396 0.929 . S
C2410 C2409 1.399 . S
C2410 C2411 1.385 . S
C2411 H2397 0.931 . S
C2411 C2410 1.385 . S
C2411 C2412 1.389 . S
C2412 C2411 1.389 . S
C2412 C2413 1.387 . S
C2413 H2398 0.930 . S
C2413 C2408 1.390 . S
C2413 C2412 1.387 . S
H2414 C2426 0.930 . S
H2415 C2428 0.930 . S
H2416 C2429 0.930 . S
H2417 C2433 0.959 . S
H2418 C2433 0.959 . S
H2419 C2433 0.961 . S
H2420 C2434 0.960 . S
H2421 C2434 0.961 . S
H2422 C2434 0.959 . S
H2423 C2437 0.929 . S
H2424 C2438 0.931 . S
H2425 C2440 0.930 . S
C2426 H2414 0.930 . S
C2426 C2427 1.399 . S
C2426 C2431 1.399 . S
C2427 C2426 1.399 . S
C2427 C2428 1.376 . S
C2428 H2415 0.930 . S
C2428 C2427 1.376 . S
C2428 C2429 1.388 . S
C2429 H2416 0.930 . S
C2429 C2428 1.388 . S
C2429 C2430 1.390 . S
C2430 C2429 1.390 . S
C2430 C2431 1.394 . S
C2430 C2436 1.465 . S
C2431 C2426 1.399 . S
C2431 C2430 1.394 . S
C2431 C2432 1.516 . S
C2432 C2431 1.516 . S
C2432 C2433 1.502 . S
C2432 C2434 1.561 . S
C2432 C2435 1.526 . S
C2433 H2417 0.959 . S
C2433 H2418 0.959 . S
C2433 H2419 0.961 . S
C2433 C2432 1.502 . S
C2434 H2420 0.960 . S
C2434 H2421 0.961 . S
C2434 H2422 0.959 . S
C2434 C2432 1.561 . S
C2435 C2432 1.526 . S
C2435 C2436 1.396 . S
C2435 C2440 1.390 . S
C2436 C2430 1.465 . S
C2436 C2435 1.396 . S
C2436 C2437 1.399 . S
C2437 H2423 0.929 . S
C2437 C2436 1.399 . S
C2437 C2438 1.385 . S
C2438 H2424 0.931 . S
C2438 C2437 1.385 . S
C2438 C2439 1.389 . S
C2439 C2438 1.389 . S
C2439 C2440 1.387 . S
C2440 H2425 0.930 . S
C2440 C2435 1.390 . S
C2440 C2439 1.387 . S
H2441 C2453 0.930 . S
H2442 C2455 0.930 . S
H2443 C2456 0.930 . S
H2444 C2460 0.959 . S
H2445 C2460 0.959 . S
H2446 C2460 0.961 . S
H2447 C2461 0.960 . S
H2448 C2461 0.961 . S
H2449 C2461 0.959 . S
H2450 C2464 0.929 . S
H2451 C2465 0.931 . S
H2452 C2467 0.930 . S
C2453 H2441 0.930 . S
C2453 C2454 1.399 . S
C2453 C2458 1.399 . S
C2454 C2453 1.399 . S
C2454 C2455 1.376 . S
C2455 H2442 0.930 . S
C2455 C2454 1.376 . S
C2455 C2456 1.388 . S
C2456 H2443 0.930 . S
C2456 C2455 1.388 . S
C2456 C2457 1.390 . S
C2457 C2456 1.390 . S
C2457 C2458 1.394 . S
C2457 C2463 1.465 . S
C2458 C2453 1.399 . S
C2458 C2457 1.394 . S
C2458 C2459 1.516 . S
C2459 C2458 1.516 . S
C2459 C2460 1.502 . S
C2459 C2461 1.561 . S
C2459 C2462 1.526 . S
C2460 H2444 0.959 . S
C2460 H2445 0.959 . S
C2460 H2446 0.961 . S
C2460 C2459 1.502 . S
C2461 H2447 0.960 . S
C2461 H2448 0.961 . S
C2461 H2449 0.959 . S
C2461 C2459 1.561 . S
C2462 C2459 1.526 . S
C2462 C2463 1.396 . S
C2462 C2467 1.390 . S
C2463 C2457 1.465 . S
C2463 C2462 1.396 . S
C2463 C2464 1.399 . S
C2464 H2450 0.929 . S
C2464 C2463 1.399 . S
C2464 C2465 1.385 . S
C2465 H2451 0.931 . S
C2465 C2464 1.385 . S
C2465 C2466 1.389 . S
C2466 C2465 1.389 . S
C2466 C2467 1.387 . S
C2467 H2452 0.930 . S
C2467 C2462 1.390 . S
C2467 C2466 1.387 . S
H2468 C2480 0.930 . S
H2469 C2482 0.930 . S
H2470 C2483 0.930 . S
H2471 C2487 0.959 . S
H2472 C2487 0.959 . S
H2473 C2487 0.961 . S
H2474 C2488 0.960 . S
H2475 C2488 0.961 . S
H2476 C2488 0.959 . S
H2477 C2491 0.929 . S
H2478 C2492 0.931 . S
H2479 C2494 0.930 . S
C2480 H2468 0.930 . S
C2480 C2481 1.399 . S
C2480 C2485 1.399 . S
C2481 C2480 1.399 . S
C2481 C2482 1.376 . S
C2482 H2469 0.930 . S
C2482 C2481 1.376 . S
C2482 C2483 1.388 . S
C2483 H2470 0.930 . S
C2483 C2482 1.388 . S
C2483 C2484 1.390 . S
C2484 C2483 1.390 . S
C2484 C2485 1.394 . S
C2484 C2490 1.465 . S
C2485 C2480 1.399 . S
C2485 C2484 1.394 . S
C2485 C2486 1.516 . S
C2486 C2485 1.516 . S
C2486 C2487 1.502 . S
C2486 C2488 1.561 . S
C2486 C2489 1.526 . S
C2487 H2471 0.959 . S
C2487 H2472 0.959 . S
C2487 H2473 0.961 . S
C2487 C2486 1.502 . S
C2488 H2474 0.960 . S
C2488 H2475 0.961 . S
C2488 H2476 0.959 . S
C2488 C2486 1.561 . S
C2489 C2486 1.526 . S
C2489 C2490 1.396 . S
C2489 C2494 1.390 . S
C2490 C2484 1.465 . S
C2490 C2489 1.396 . S
C2490 C2491 1.399 . S
C2491 H2477 0.929 . S
C2491 C2490 1.399 . S
C2491 C2492 1.385 . S
C2492 H2478 0.931 . S
C2492 C2491 1.385 . S
C2492 C2493 1.389 . S
C2493 C2492 1.389 . S
C2493 C2494 1.387 . S
C2494 H2479 0.930 . S
C2494 C2489 1.390 . S
C2494 C2493 1.387 . S
H2495 C2507 0.930 . S
H2496 C2509 0.930 . S
H2497 C2510 0.930 . S
H2498 C2514 0.959 . S
H2499 C2514 0.959 . S
H2500 C2514 0.961 . S
H2501 C2515 0.960 . S
H2502 C2515 0.961 . S
H2503 C2515 0.959 . S
H2504 C2518 0.929 . S
H2505 C2519 0.931 . S
H2506 C2521 0.930 . S
C2507 H2495 0.930 . S
C2507 C2508 1.399 . S
C2507 C2512 1.399 . S
C2508 C2507 1.399 . S
C2508 C2509 1.376 . S
C2509 H2496 0.930 . S
C2509 C2508 1.376 . S
C2509 C2510 1.388 . S
C2510 H2497 0.930 . S
C2510 C2509 1.388 . S
C2510 C2511 1.390 . S
C2511 C2510 1.390 . S
C2511 C2512 1.394 . S
C2511 C2517 1.465 . S
C2512 C2507 1.399 . S
C2512 C2511 1.394 . S
C2512 C2513 1.516 . S
C2513 C2512 1.516 . S
C2513 C2514 1.502 . S
C2513 C2515 1.561 . S
C2513 C2516 1.526 . S
C2514 H2498 0.959 . S
C2514 H2499 0.959 . S
C2514 H2500 0.961 . S
C2514 C2513 1.502 . S
C2515 H2501 0.960 . S
C2515 H2502 0.961 . S
C2515 H2503 0.959 . S
C2515 C2513 1.561 . S
C2516 C2513 1.526 . S
C2516 C2517 1.396 . S
C2516 C2521 1.390 . S
C2517 C2511 1.465 . S
C2517 C2516 1.396 . S
C2517 C2518 1.399 . S
C2518 H2504 0.929 . S
C2518 C2517 1.399 . S
C2518 C2519 1.385 . S
C2519 H2505 0.931 . S
C2519 C2518 1.385 . S
C2519 C2520 1.389 . S
C2520 C2519 1.389 . S
C2520 C2521 1.387 . S
C2521 H2506 0.930 . S
C2521 C2516 1.390 . S
C2521 C2520 1.387 . S
H2522 C2534 0.930 . S
H2523 C2536 0.930 . S
H2524 C2537 0.930 . S
H2525 C2541 0.959 . S
H2526 C2541 0.959 . S
H2527 C2541 0.961 . S
H2528 C2542 0.960 . S
H2529 C2542 0.961 . S
H2530 C2542 0.959 . S
H2531 C2545 0.929 . S
H2532 C2546 0.931 . S
H2533 C2548 0.930 . S
C2534 H2522 0.930 . S
C2534 C2535 1.399 . S
C2534 C2539 1.399 . S
C2535 C2534 1.399 . S
C2535 C2536 1.376 . S
C2536 H2523 0.930 . S
C2536 C2535 1.376 . S
C2536 C2537 1.388 . S
C2537 H2524 0.930 . S
C2537 C2536 1.388 . S
C2537 C2538 1.390 . S
C2538 C2537 1.390 . S
C2538 C2539 1.394 . S
C2538 C2544 1.465 . S
C2539 C2534 1.399 . S
C2539 C2538 1.394 . S
C2539 C2540 1.516 . S
C2540 C2539 1.516 . S
C2540 C2541 1.502 . S
C2540 C2542 1.561 . S
C2540 C2543 1.526 . S
C2541 H2525 0.959 . S
C2541 H2526 0.959 . S
C2541 H2527 0.961 . S
C2541 C2540 1.502 . S
C2542 H2528 0.960 . S
C2542 H2529 0.961 . S
C2542 H2530 0.959 . S
C2542 C2540 1.561 . S
C2543 C2540 1.526 . S
C2543 C2544 1.396 . S
C2543 C2548 1.390 . S
C2544 C2538 1.465 . S
C2544 C2543 1.396 . S
C2544 C2545 1.399 . S
C2545 H2531 0.929 . S
C2545 C2544 1.399 . S
C2545 C2546 1.385 . S
C2546 H2532 0.931 . S
C2546 C2545 1.385 . S
C2546 C2547 1.389 . S
C2547 C2546 1.389 . S
C2547 C2548 1.387 . S
C2548 H2533 0.930 . S
C2548 C2543 1.390 . S
C2548 C2547 1.387 . S
H2549 C2561 0.930 . S
H2550 C2563 0.930 . S
H2551 C2564 0.930 . S
H2552 C2568 0.959 . S
H2553 C2568 0.959 . S
H2554 C2568 0.961 . S
H2555 C2569 0.960 . S
H2556 C2569 0.961 . S
H2557 C2569 0.959 . S
H2558 C2572 0.929 . S
H2559 C2573 0.931 . S
H2560 C2575 0.930 . S
C2561 H2549 0.930 . S
C2561 C2562 1.399 . S
C2561 C2566 1.399 . S
C2562 C2561 1.399 . S
C2562 C2563 1.376 . S
C2563 H2550 0.930 . S
C2563 C2562 1.376 . S
C2563 C2564 1.388 . S
C2564 H2551 0.930 . S
C2564 C2563 1.388 . S
C2564 C2565 1.390 . S
C2565 C2564 1.390 . S
C2565 C2566 1.394 . S
C2565 C2571 1.465 . S
C2566 C2561 1.399 . S
C2566 C2565 1.394 . S
C2566 C2567 1.516 . S
C2567 C2566 1.516 . S
C2567 C2568 1.502 . S
C2567 C2569 1.561 . S
C2567 C2570 1.526 . S
C2568 H2552 0.959 . S
C2568 H2553 0.959 . S
C2568 H2554 0.961 . S
C2568 C2567 1.502 . S
C2569 H2555 0.960 . S
C2569 H2556 0.961 . S
C2569 H2557 0.959 . S
C2569 C2567 1.561 . S
C2570 C2567 1.526 . S
C2570 C2571 1.396 . S
C2570 C2575 1.390 . S
C2571 C2565 1.465 . S
C2571 C2570 1.396 . S
C2571 C2572 1.399 . S
C2572 H2558 0.929 . S
C2572 C2571 1.399 . S
C2572 C2573 1.385 . S
C2573 H2559 0.931 . S
C2573 C2572 1.385 . S
C2573 C2574 1.389 . S
C2574 C2573 1.389 . S
C2574 C2575 1.387 . S
C2575 H2560 0.930 . S
C2575 C2570 1.390 . S
C2575 C2574 1.387 . S
H2576 C2588 0.930 . S
H2577 C2590 0.930 . S
H2578 C2591 0.930 . S
H2579 C2595 0.959 . S
H2580 C2595 0.959 . S
H2581 C2595 0.961 . S
H2582 C2596 0.960 . S
H2583 C2596 0.961 . S
H2584 C2596 0.959 . S
H2585 C2599 0.929 . S
H2586 C2600 0.931 . S
H2587 C2602 0.930 . S
C2588 H2576 0.930 . S
C2588 C2589 1.399 . S
C2588 C2593 1.399 . S
C2589 C2588 1.399 . S
C2589 C2590 1.376 . S
C2590 H2577 0.930 . S
C2590 C2589 1.376 . S
C2590 C2591 1.388 . S
C2591 H2578 0.930 . S
C2591 C2590 1.388 . S
C2591 C2592 1.390 . S
C2592 C2591 1.390 . S
C2592 C2593 1.394 . S
C2592 C2598 1.465 . S
C2593 C2588 1.399 . S
C2593 C2592 1.394 . S
C2593 C2594 1.516 . S
C2594 C2593 1.516 . S
C2594 C2595 1.502 . S
C2594 C2596 1.561 . S
C2594 C2597 1.526 . S
C2595 H2579 0.959 . S
C2595 H2580 0.959 . S
C2595 H2581 0.961 . S
C2595 C2594 1.502 . S
C2596 H2582 0.960 . S
C2596 H2583 0.961 . S
C2596 H2584 0.959 . S
C2596 C2594 1.561 . S
C2597 C2594 1.526 . S
C2597 C2598 1.396 . S
C2597 C2602 1.390 . S
C2598 C2592 1.465 . S
C2598 C2597 1.396 . S
C2598 C2599 1.399 . S
C2599 H2585 0.929 . S
C2599 C2598 1.399 . S
C2599 C2600 1.385 . S
C2600 H2586 0.931 . S
C2600 C2599 1.385 . S
C2600 C2601 1.389 . S
C2601 C2600 1.389 . S
C2601 C2602 1.387 . S
C2602 H2587 0.930 . S
C2602 C2597 1.390 . S
C2602 C2601 1.387 . S
H2603 C2615 0.930 . S
H2604 C2617 0.930 . S
H2605 C2618 0.930 . S
H2606 C2622 0.959 . S
H2607 C2622 0.959 . S
H2608 C2622 0.961 . S
H2609 C2623 0.960 . S
H2610 C2623 0.961 . S
H2611 C2623 0.959 . S
H2612 C2626 0.929 . S
H2613 C2627 0.931 . S
H2614 C2629 0.930 . S
C2615 H2603 0.930 . S
C2615 C2616 1.399 . S
C2615 C2620 1.399 . S
C2616 C2615 1.399 . S
C2616 C2617 1.376 . S
C2617 H2604 0.930 . S
C2617 C2616 1.376 . S
C2617 C2618 1.388 . S
C2618 H2605 0.930 . S
C2618 C2617 1.388 . S
C2618 C2619 1.390 . S
C2619 C2618 1.390 . S
C2619 C2620 1.394 . S
C2619 C2625 1.465 . S
C2620 C2615 1.399 . S
C2620 C2619 1.394 . S
C2620 C2621 1.516 . S
C2621 C2620 1.516 . S
C2621 C2622 1.502 . S
C2621 C2623 1.561 . S
C2621 C2624 1.526 . S
C2622 H2606 0.959 . S
C2622 H2607 0.959 . S
C2622 H2608 0.961 . S
C2622 C2621 1.502 . S
C2623 H2609 0.960 . S
C2623 H2610 0.961 . S
C2623 H2611 0.959 . S
C2623 C2621 1.561 . S
C2624 C2621 1.526 . S
C2624 C2625 1.396 . S
C2624 C2629 1.390 . S
C2625 C2619 1.465 . S
C2625 C2624 1.396 . S
C2625 C2626 1.399 . S
C2626 H2612 0.929 . S
C2626 C2625 1.399 . S
C2626 C2627 1.385 . S
C2627 H2613 0.931 . S
C2627 C2626 1.385 . S
C2627 C2628 1.389 . S
C2628 C2627 1.389 . S
C2628 C2629 1.387 . S
C2629 H2614 0.930 . S
C2629 C2624 1.390 . S
C2629 C2628 1.387 . S
H2630 C2642 0.930 . S
H2631 C2644 0.930 . S
H2632 C2645 0.930 . S
H2633 C2649 0.959 . S
H2634 C2649 0.959 . S
H2635 C2649 0.961 . S
H2636 C2650 0.960 . S
H2637 C2650 0.961 . S
H2638 C2650 0.959 . S
H2639 C2653 0.929 . S
H2640 C2654 0.931 . S
H2641 C2656 0.930 . S
C2642 H2630 0.930 . S
C2642 C2643 1.399 . S
C2642 C2647 1.399 . S
C2643 C2642 1.399 . S
C2643 C2644 1.376 . S
C2644 H2631 0.930 . S
C2644 C2643 1.376 . S
C2644 C2645 1.388 . S
C2645 H2632 0.930 . S
C2645 C2644 1.388 . S
C2645 C2646 1.390 . S
C2646 C2645 1.390 . S
C2646 C2647 1.394 . S
C2646 C2652 1.465 . S
C2647 C2642 1.399 . S
C2647 C2646 1.394 . S
C2647 C2648 1.516 . S
C2648 C2647 1.516 . S
C2648 C2649 1.502 . S
C2648 C2650 1.561 . S
C2648 C2651 1.526 . S
C2649 H2633 0.959 . S
C2649 H2634 0.959 . S
C2649 H2635 0.961 . S
C2649 C2648 1.502 . S
C2650 H2636 0.960 . S
C2650 H2637 0.961 . S
C2650 H2638 0.959 . S
C2650 C2648 1.561 . S
C2651 C2648 1.526 . S
C2651 C2652 1.396 . S
C2651 C2656 1.390 . S
C2652 C2646 1.465 . S
C2652 C2651 1.396 . S
C2652 C2653 1.399 . S
C2653 H2639 0.929 . S
C2653 C2652 1.399 . S
C2653 C2654 1.385 . S
C2654 H2640 0.931 . S
C2654 C2653 1.385 . S
C2654 C2655 1.389 . S
C2655 C2654 1.389 . S
C2655 C2656 1.387 . S
C2656 H2641 0.930 . S
C2656 C2651 1.390 . S
C2656 C2655 1.387 . S
H2657 C2669 0.930 . S
H2658 C2671 0.930 . S
H2659 C2672 0.930 . S
H2660 C2676 0.959 . S
H2661 C2676 0.959 . S
H2662 C2676 0.961 . S
H2663 C2677 0.960 . S
H2664 C2677 0.961 . S
H2665 C2677 0.959 . S
H2666 C2680 0.929 . S
H2667 C2681 0.931 . S
H2668 C2683 0.930 . S
C2669 H2657 0.930 . S
C2669 C2670 1.399 . S
C2669 C2674 1.399 . S
C2670 C2669 1.399 . S
C2670 C2671 1.376 . S
C2671 H2658 0.930 . S
C2671 C2670 1.376 . S
C2671 C2672 1.388 . S
C2672 H2659 0.930 . S
C2672 C2671 1.388 . S
C2672 C2673 1.390 . S
C2673 C2672 1.390 . S
C2673 C2674 1.394 . S
C2673 C2679 1.465 . S
C2674 C2669 1.399 . S
C2674 C2673 1.394 . S
C2674 C2675 1.516 . S
C2675 C2674 1.516 . S
C2675 C2676 1.502 . S
C2675 C2677 1.561 . S
C2675 C2678 1.526 . S
C2676 H2660 0.959 . S
C2676 H2661 0.959 . S
C2676 H2662 0.961 . S
C2676 C2675 1.502 . S
C2677 H2663 0.960 . S
C2677 H2664 0.961 . S
C2677 H2665 0.959 . S
C2677 C2675 1.561 . S
C2678 C2675 1.526 . S
C2678 C2679 1.396 . S
C2678 C2683 1.390 . S
C2679 C2673 1.465 . S
C2679 C2678 1.396 . S
C2679 C2680 1.399 . S
C2680 H2666 0.929 . S
C2680 C2679 1.399 . S
C2680 C2681 1.385 . S
C2681 H2667 0.931 . S
C2681 C2680 1.385 . S
C2681 C2682 1.389 . S
C2682 C2681 1.389 . S
C2682 C2683 1.387 . S
C2683 H2668 0.930 . S
C2683 C2678 1.390 . S
C2683 C2682 1.387 . S
H2684 C2696 0.930 . S
H2685 C2698 0.930 . S
H2686 C2699 0.930 . S
H2687 C2703 0.959 . S
H2688 C2703 0.959 . S
H2689 C2703 0.961 . S
H2690 C2704 0.960 . S
H2691 C2704 0.961 . S
H2692 C2704 0.959 . S
H2693 C2707 0.929 . S
H2694 C2708 0.931 . S
H2695 C2710 0.930 . S
C2696 H2684 0.930 . S
C2696 C2697 1.399 . S
C2696 C2701 1.399 . S
C2697 C2696 1.399 . S
C2697 C2698 1.376 . S
C2698 H2685 0.930 . S
C2698 C2697 1.376 . S
C2698 C2699 1.388 . S
C2699 H2686 0.930 . S
C2699 C2698 1.388 . S
C2699 C2700 1.390 . S
C2700 C2699 1.390 . S
C2700 C2701 1.394 . S
C2700 C2706 1.465 . S
C2701 C2696 1.399 . S
C2701 C2700 1.394 . S
C2701 C2702 1.516 . S
C2702 C2701 1.516 . S
C2702 C2703 1.502 . S
C2702 C2704 1.561 . S
C2702 C2705 1.526 . S
C2703 H2687 0.959 . S
C2703 H2688 0.959 . S
C2703 H2689 0.961 . S
C2703 C2702 1.502 . S
C2704 H2690 0.960 . S
C2704 H2691 0.961 . S
C2704 H2692 0.959 . S
C2704 C2702 1.561 . S
C2705 C2702 1.526 . S
C2705 C2706 1.396 . S
C2705 C2710 1.390 . S
C2706 C2700 1.465 . S
C2706 C2705 1.396 . S
C2706 C2707 1.399 . S
C2707 H2693 0.929 . S
C2707 C2706 1.399 . S
C2707 C2708 1.385 . S
C2708 H2694 0.931 . S
C2708 C2707 1.385 . S
C2708 C2709 1.389 . S
C2709 C2708 1.389 . S
C2709 C2710 1.387 . S
C2710 H2695 0.930 . S
C2710 C2705 1.390 . S
C2710 C2709 1.387 . S
H2711 C2723 0.930 . S
H2712 C2725 0.930 . S
H2713 C2726 0.930 . S
H2714 C2730 0.959 . S
H2715 C2730 0.959 . S
H2716 C2730 0.961 . S
H2717 C2731 0.960 . S
H2718 C2731 0.961 . S
H2719 C2731 0.959 . S
H2720 C2734 0.929 . S
H2721 C2735 0.931 . S
H2722 C2737 0.930 . S
C2723 H2711 0.930 . S
C2723 C2724 1.399 . S
C2723 C2728 1.399 . S
C2724 C2723 1.399 . S
C2724 C2725 1.376 . S
C2725 H2712 0.930 . S
C2725 C2724 1.376 . S
C2725 C2726 1.388 . S
C2726 H2713 0.930 . S
C2726 C2725 1.388 . S
C2726 C2727 1.390 . S
C2727 C2726 1.390 . S
C2727 C2728 1.394 . S
C2727 C2733 1.465 . S
C2728 C2723 1.399 . S
C2728 C2727 1.394 . S
C2728 C2729 1.516 . S
C2729 C2728 1.516 . S
C2729 C2730 1.502 . S
C2729 C2731 1.561 . S
C2729 C2732 1.526 . S
C2730 H2714 0.959 . S
C2730 H2715 0.959 . S
C2730 H2716 0.961 . S
C2730 C2729 1.502 . S
C2731 H2717 0.960 . S
C2731 H2718 0.961 . S
C2731 H2719 0.959 . S
C2731 C2729 1.561 . S
C2732 C2729 1.526 . S
C2732 C2733 1.396 . S
C2732 C2737 1.390 . S
C2733 C2727 1.465 . S
C2733 C2732 1.396 . S
C2733 C2734 1.399 . S
C2734 H2720 0.929 . S
C2734 C2733 1.399 . S
C2734 C2735 1.385 . S
C2735 H2721 0.931 . S
C2735 C2734 1.385 . S
C2735 C2736 1.389 . S
C2736 C2735 1.389 . S
C2736 C2737 1.387 . S
C2737 H2722 0.930 . S
C2737 C2732 1.390 . S
C2737 C2736 1.387 . S
H2738 C2750 0.930 . S
H2739 C2752 0.930 . S
H2740 C2753 0.930 . S
H2741 C2757 0.959 . S
H2742 C2757 0.959 . S
H2743 C2757 0.961 . S
H2744 C2758 0.960 . S
H2745 C2758 0.961 . S
H2746 C2758 0.959 . S
H2747 C2761 0.929 . S
H2748 C2762 0.931 . S
H2749 C2764 0.930 . S
C2750 H2738 0.930 . S
C2750 C2751 1.399 . S
C2750 C2755 1.399 . S
C2751 C2750 1.399 . S
C2751 C2752 1.376 . S
C2752 H2739 0.930 . S
C2752 C2751 1.376 . S
C2752 C2753 1.388 . S
C2753 H2740 0.930 . S
C2753 C2752 1.388 . S
C2753 C2754 1.390 . S
C2754 C2753 1.390 . S
C2754 C2755 1.394 . S
C2754 C2760 1.465 . S
C2755 C2750 1.399 . S
C2755 C2754 1.394 . S
C2755 C2756 1.516 . S
C2756 C2755 1.516 . S
C2756 C2757 1.502 . S
C2756 C2758 1.561 . S
C2756 C2759 1.526 . S
C2757 H2741 0.959 . S
C2757 H2742 0.959 . S
C2757 H2743 0.961 . S
C2757 C2756 1.502 . S
C2758 H2744 0.960 . S
C2758 H2745 0.961 . S
C2758 H2746 0.959 . S
C2758 C2756 1.561 . S
C2759 C2756 1.526 . S
C2759 C2760 1.396 . S
C2759 C2764 1.390 . S
C2760 C2754 1.465 . S
C2760 C2759 1.396 . S
C2760 C2761 1.399 . S
C2761 H2747 0.929 . S
C2761 C2760 1.399 . S
C2761 C2762 1.385 . S
C2762 H2748 0.931 . S
C2762 C2761 1.385 . S
C2762 C2763 1.389 . S
C2763 C2762 1.389 . S
C2763 C2764 1.387 . S
C2764 H2749 0.930 . S
C2764 C2759 1.390 . S
C2764 C2763 1.387 . S
H2765 C2777 0.930 . S
H2766 C2779 0.930 . S
H2767 C2780 0.930 . S
H2768 C2784 0.959 . S
H2769 C2784 0.959 . S
H2770 C2784 0.961 . S
H2771 C2785 0.960 . S
H2772 C2785 0.961 . S
H2773 C2785 0.959 . S
H2774 C2788 0.929 . S
H2775 C2789 0.931 . S
H2776 C2791 0.930 . S
C2777 H2765 0.930 . S
C2777 C2778 1.399 . S
C2777 C2782 1.399 . S
C2778 C2777 1.399 . S
C2778 C2779 1.376 . S
C2779 H2766 0.930 . S
C2779 C2778 1.376 . S
C2779 C2780 1.388 . S
C2780 H2767 0.930 . S
C2780 C2779 1.388 . S
C2780 C2781 1.390 . S
C2781 C2780 1.390 . S
C2781 C2782 1.394 . S
C2781 C2787 1.465 . S
C2782 C2777 1.399 . S
C2782 C2781 1.394 . S
C2782 C2783 1.516 . S
C2783 C2782 1.516 . S
C2783 C2784 1.502 . S
C2783 C2785 1.561 . S
C2783 C2786 1.526 . S
C2784 H2768 0.959 . S
C2784 H2769 0.959 . S
C2784 H2770 0.961 . S
C2784 C2783 1.502 . S
C2785 H2771 0.960 . S
C2785 H2772 0.961 . S
C2785 H2773 0.959 . S
C2785 C2783 1.561 . S
C2786 C2783 1.526 . S
C2786 C2787 1.396 . S
C2786 C2791 1.390 . S
C2787 C2781 1.465 . S
C2787 C2786 1.396 . S
C2787 C2788 1.399 . S
C2788 H2774 0.929 . S
C2788 C2787 1.399 . S
C2788 C2789 1.385 . S
C2789 H2775 0.931 . S
C2789 C2788 1.385 . S
C2789 C2790 1.389 . S
C2790 C2789 1.389 . S
C2790 C2791 1.387 . S
C2791 H2776 0.930 . S
C2791 C2786 1.390 . S
C2791 C2790 1.387 . S
H2792 C2804 0.930 . S
H2793 C2806 0.930 . S
H2794 C2807 0.930 . S
H2795 C2811 0.959 . S
H2796 C2811 0.959 . S
H2797 C2811 0.961 . S
H2798 C2812 0.960 . S
H2799 C2812 0.961 . S
H2800 C2812 0.959 . S
H2801 C2815 0.929 . S
H2802 C2816 0.931 . S
H2803 C2818 0.930 . S
C2804 H2792 0.930 . S
C2804 C2805 1.399 . S
C2804 C2809 1.399 . S
C2805 C2804 1.399 . S
C2805 C2806 1.376 . S
C2806 H2793 0.930 . S
C2806 C2805 1.376 . S
C2806 C2807 1.388 . S
C2807 H2794 0.930 . S
C2807 C2806 1.388 . S
C2807 C2808 1.390 . S
C2808 C2807 1.390 . S
C2808 C2809 1.394 . S
C2808 C2814 1.465 . S
C2809 C2804 1.399 . S
C2809 C2808 1.394 . S
C2809 C2810 1.516 . S
C2810 C2809 1.516 . S
C2810 C2811 1.502 . S
C2810 C2812 1.561 . S
C2810 C2813 1.526 . S
C2811 H2795 0.959 . S
C2811 H2796 0.959 . S
C2811 H2797 0.961 . S
C2811 C2810 1.502 . S
C2812 H2798 0.960 . S
C2812 H2799 0.961 . S
C2812 H2800 0.959 . S
C2812 C2810 1.561 . S
C2813 C2810 1.526 . S
C2813 C2814 1.396 . S
C2813 C2818 1.390 . S
C2814 C2808 1.465 . S
C2814 C2813 1.396 . S
C2814 C2815 1.399 . S
C2815 H2801 0.929 . S
C2815 C2814 1.399 . S
C2815 C2816 1.385 . S
C2816 H2802 0.931 . S
C2816 C2815 1.385 . S
C2816 C2817 1.389 . S
C2817 C2816 1.389 . S
C2817 C2818 1.387 . S
C2818 H2803 0.930 . S
C2818 C2813 1.390 . S
C2818 C2817 1.387 . S
H2819 C2831 0.930 . S
H2820 C2833 0.930 . S
H2821 C2834 0.930 . S
H2822 C2838 0.959 . S
H2823 C2838 0.959 . S
H2824 C2838 0.961 . S
H2825 C2839 0.960 . S
H2826 C2839 0.961 . S
H2827 C2839 0.959 . S
H2828 C2842 0.929 . S
H2829 C2843 0.931 . S
H2830 C2845 0.930 . S
C2831 H2819 0.930 . S
C2831 C2832 1.399 . S
C2831 C2836 1.399 . S
C2832 C2831 1.399 . S
C2832 C2833 1.376 . S
C2833 H2820 0.930 . S
C2833 C2832 1.376 . S
C2833 C2834 1.388 . S
C2834 H2821 0.930 . S
C2834 C2833 1.388 . S
C2834 C2835 1.390 . S
C2835 C2834 1.390 . S
C2835 C2836 1.394 . S
C2835 C2841 1.465 . S
C2836 C2831 1.399 . S
C2836 C2835 1.394 . S
C2836 C2837 1.516 . S
C2837 C2836 1.516 . S
C2837 C2838 1.502 . S
C2837 C2839 1.561 . S
C2837 C2840 1.526 . S
C2838 H2822 0.959 . S
C2838 H2823 0.959 . S
C2838 H2824 0.961 . S
C2838 C2837 1.502 . S
C2839 H2825 0.960 . S
C2839 H2826 0.961 . S
C2839 H2827 0.959 . S
C2839 C2837 1.561 . S
C2840 C2837 1.526 . S
C2840 C2841 1.396 . S
C2840 C2845 1.390 . S
C2841 C2835 1.465 . S
C2841 C2840 1.396 . S
C2841 C2842 1.399 . S
C2842 H2828 0.929 . S
C2842 C2841 1.399 . S
C2842 C2843 1.385 . S
C2843 H2829 0.931 . S
C2843 C2842 1.385 . S
C2843 C2844 1.389 . S
C2844 C2843 1.389 . S
C2844 C2845 1.387 . S
C2845 H2830 0.930 . S
C2845 C2840 1.390 . S
C2845 C2844 1.387 . S
H2846 C2858 0.930 . S
H2847 C2860 0.930 . S
H2848 C2861 0.930 . S
H2849 C2865 0.959 . S
H2850 C2865 0.959 . S
H2851 C2865 0.961 . S
H2852 C2866 0.960 . S
H2853 C2866 0.961 . S
H2854 C2866 0.959 . S
H2855 C2869 0.929 . S
H2856 C2870 0.931 . S
H2857 C2872 0.930 . S
C2858 H2846 0.930 . S
C2858 C2859 1.399 . S
C2858 C2863 1.399 . S
C2859 C2858 1.399 . S
C2859 C2860 1.376 . S
C2860 H2847 0.930 . S
C2860 C2859 1.376 . S
C2860 C2861 1.388 . S
C2861 H2848 0.930 . S
C2861 C2860 1.388 . S
C2861 C2862 1.390 . S
C2862 C2861 1.390 . S
C2862 C2863 1.394 . S
C2862 C2868 1.465 . S
C2863 C2858 1.399 . S
C2863 C2862 1.394 . S
C2863 C2864 1.516 . S
C2864 C2863 1.516 . S
C2864 C2865 1.502 . S
C2864 C2866 1.561 . S
C2864 C2867 1.526 . S
C2865 H2849 0.959 . S
C2865 H2850 0.959 . S
C2865 H2851 0.961 . S
C2865 C2864 1.502 . S
C2866 H2852 0.960 . S
C2866 H2853 0.961 . S
C2866 H2854 0.959 . S
C2866 C2864 1.561 . S
C2867 C2864 1.526 . S
C2867 C2868 1.396 . S
C2867 C2872 1.390 . S
C2868 C2862 1.465 . S
C2868 C2867 1.396 . S
C2868 C2869 1.399 . S
C2869 H2855 0.929 . S
C2869 C2868 1.399 . S
C2869 C2870 1.385 . S
C2870 H2856 0.931 . S
C2870 C2869 1.385 . S
C2870 C2871 1.389 . S
C2871 C2870 1.389 . S
C2871 C2872 1.387 . S
C2872 H2857 0.930 . S
C2872 C2867 1.390 . S
C2872 C2871 1.387 . S
H2873 C2885 0.930 . S
H2874 C2887 0.930 . S
H2875 C2888 0.930 . S
H2876 C2892 0.959 . S
H2877 C2892 0.959 . S
H2878 C2892 0.961 . S
H2879 C2893 0.960 . S
H2880 C2893 0.961 . S
H2881 C2893 0.959 . S
H2882 C2896 0.929 . S
H2883 C2897 0.931 . S
H2884 C2899 0.930 . S
C2885 H2873 0.930 . S
C2885 C2886 1.399 . S
C2885 C2890 1.399 . S
C2886 C2885 1.399 . S
C2886 C2887 1.376 . S
C2887 H2874 0.930 . S
C2887 C2886 1.376 . S
C2887 C2888 1.388 . S
C2888 H2875 0.930 . S
C2888 C2887 1.388 . S
C2888 C2889 1.390 . S
C2889 C2888 1.390 . S
C2889 C2890 1.394 . S
C2889 C2895 1.465 . S
C2890 C2885 1.399 . S
C2890 C2889 1.394 . S
C2890 C2891 1.516 . S
C2891 C2890 1.516 . S
C2891 C2892 1.502 . S
C2891 C2893 1.561 . S
C2891 C2894 1.526 . S
C2892 H2876 0.959 . S
C2892 H2877 0.959 . S
C2892 H2878 0.961 . S
C2892 C2891 1.502 . S
C2893 H2879 0.960 . S
C2893 H2880 0.961 . S
C2893 H2881 0.959 . S
C2893 C2891 1.561 . S
C2894 C2891 1.526 . S
C2894 C2895 1.396 . S
C2894 C2899 1.390 . S
C2895 C2889 1.465 . S
C2895 C2894 1.396 . S
C2895 C2896 1.399 . S
C2896 H2882 0.929 . S
C2896 C2895 1.399 . S
C2896 C2897 1.385 . S
C2897 H2883 0.931 . S
C2897 C2896 1.385 . S
C2897 C2898 1.389 . S
C2898 C2897 1.389 . S
C2898 C2899 1.387 . S
C2899 H2884 0.930 . S
C2899 C2894 1.390 . S
C2899 C2898 1.387 . S
H2900 C2912 0.930 . S
H2901 C2914 0.930 . S
H2902 C2915 0.930 . S
H2903 C2919 0.959 . S
H2904 C2919 0.959 . S
H2905 C2919 0.961 . S
H2906 C2920 0.960 . S
H2907 C2920 0.961 . S
H2908 C2920 0.959 . S
H2909 C2923 0.929 . S
H2910 C2924 0.931 . S
H2911 C2926 0.930 . S
C2912 H2900 0.930 . S
C2912 C2913 1.399 . S
C2912 C2917 1.399 . S
C2913 C2912 1.399 . S
C2913 C2914 1.376 . S
C2914 H2901 0.930 . S
C2914 C2913 1.376 . S
C2914 C2915 1.388 . S
C2915 H2902 0.930 . S
C2915 C2914 1.388 . S
C2915 C2916 1.390 . S
C2916 C2915 1.390 . S
C2916 C2917 1.394 . S
C2916 C2922 1.465 . S
C2917 C2912 1.399 . S
C2917 C2916 1.394 . S
C2917 C2918 1.516 . S
C2918 C2917 1.516 . S
C2918 C2919 1.502 . S
C2918 C2920 1.561 . S
C2918 C2921 1.526 . S
C2919 H2903 0.959 . S
C2919 H2904 0.959 . S
C2919 H2905 0.961 . S
C2919 C2918 1.502 . S
C2920 H2906 0.960 . S
C2920 H2907 0.961 . S
C2920 H2908 0.959 . S
C2920 C2918 1.561 . S
C2921 C2918 1.526 . S
C2921 C2922 1.396 . S
C2921 C2926 1.390 . S
C2922 C2916 1.465 . S
C2922 C2921 1.396 . S
C2922 C2923 1.399 . S
C2923 H2909 0.929 . S
C2923 C2922 1.399 . S
C2923 C2924 1.385 . S
C2924 H2910 0.931 . S
C2924 C2923 1.385 . S
C2924 C2925 1.389 . S
C2925 C2924 1.389 . S
C2925 C2926 1.387 . S
C2926 H2911 0.930 . S
C2926 C2921 1.390 . S
C2926 C2925 1.387 . S
H2927 C2939 0.930 . S
H2928 C2941 0.930 . S
H2929 C2942 0.930 . S
H2930 C2946 0.959 . S
H2931 C2946 0.959 . S
H2932 C2946 0.961 . S
H2933 C2947 0.960 . S
H2934 C2947 0.961 . S
H2935 C2947 0.959 . S
H2936 C2950 0.929 . S
H2937 C2951 0.931 . S
H2938 C2953 0.930 . S
C2939 H2927 0.930 . S
C2939 C2940 1.399 . S
C2939 C2944 1.399 . S
C2940 C2939 1.399 . S
C2940 C2941 1.376 . S
C2941 H2928 0.930 . S
C2941 C2940 1.376 . S
C2941 C2942 1.388 . S
C2942 H2929 0.930 . S
C2942 C2941 1.388 . S
C2942 C2943 1.390 . S
C2943 C2942 1.390 . S
C2943 C2944 1.394 . S
C2943 C2949 1.465 . S
C2944 C2939 1.399 . S
C2944 C2943 1.394 . S
C2944 C2945 1.516 . S
C2945 C2944 1.516 . S
C2945 C2946 1.502 . S
C2945 C2947 1.561 . S
C2945 C2948 1.526 . S
C2946 H2930 0.959 . S
C2946 H2931 0.959 . S
C2946 H2932 0.961 . S
C2946 C2945 1.502 . S
C2947 H2933 0.960 . S
C2947 H2934 0.961 . S
C2947 H2935 0.959 . S
C2947 C2945 1.561 . S
C2948 C2945 1.526 . S
C2948 C2949 1.396 . S
C2948 C2953 1.390 . S
C2949 C2943 1.465 . S
C2949 C2948 1.396 . S
C2949 C2950 1.399 . S
C2950 H2936 0.929 . S
C2950 C2949 1.399 . S
C2950 C2951 1.385 . S
C2951 H2937 0.931 . S
C2951 C2950 1.385 . S
C2951 C2952 1.389 . S
C2952 C2951 1.389 . S
C2952 C2953 1.387 . S
C2953 H2938 0.930 . S
C2953 C2948 1.390 . S
C2953 C2952 1.387 . S
H2954 C2966 0.930 . S
H2955 C2968 0.930 . S
H2956 C2969 0.930 . S
H2957 C2973 0.959 . S
H2958 C2973 0.959 . S
H2959 C2973 0.961 . S
H2960 C2974 0.960 . S
H2961 C2974 0.961 . S
H2962 C2974 0.959 . S
H2963 C2977 0.929 . S
H2964 C2978 0.931 . S
H2965 C2980 0.930 . S
C2966 H2954 0.930 . S
C2966 C2967 1.399 . S
C2966 C2971 1.399 . S
C2967 C2966 1.399 . S
C2967 C2968 1.376 . S
C2968 H2955 0.930 . S
C2968 C2967 1.376 . S
C2968 C2969 1.388 . S
C2969 H2956 0.930 . S
C2969 C2968 1.388 . S
C2969 C2970 1.390 . S
C2970 C2969 1.390 . S
C2970 C2971 1.394 . S
C2970 C2976 1.465 . S
C2971 C2966 1.399 . S
C2971 C2970 1.394 . S
C2971 C2972 1.516 . S
C2972 C2971 1.516 . S
C2972 C2973 1.502 . S
C2972 C2974 1.561 . S
C2972 C2975 1.526 . S
C2973 H2957 0.959 . S
C2973 H2958 0.959 . S
C2973 H2959 0.961 . S
C2973 C2972 1.502 . S
C2974 H2960 0.960 . S
C2974 H2961 0.961 . S
C2974 H2962 0.959 . S
C2974 C2972 1.561 . S
C2975 C2972 1.526 . S
C2975 C2976 1.396 . S
C2975 C2980 1.390 . S
C2976 C2970 1.465 . S
C2976 C2975 1.396 . S
C2976 C2977 1.399 . S
C2977 H2963 0.929 . S
C2977 C2976 1.399 . S
C2977 C2978 1.385 . S
C2978 H2964 0.931 . S
C2978 C2977 1.385 . S
C2978 C2979 1.389 . S
C2979 C2978 1.389 . S
C2979 C2980 1.387 . S
C2980 H2965 0.930 . S
C2980 C2975 1.390 . S
C2980 C2979 1.387 . S
H2981 C2993 0.930 . S
H2982 C2995 0.930 . S
H2983 C2996 0.930 . S
H2984 C3000 0.959 . S
H2985 C3000 0.959 . S
H2986 C3000 0.961 . S
H2987 C3001 0.960 . S
H2988 C3001 0.961 . S
H2989 C3001 0.959 . S
H2990 C3004 0.929 . S
H2991 C3005 0.931 . S
H2992 C3007 0.930 . S
C2993 H2981 0.930 . S
C2993 C2994 1.399 . S
C2993 C2998 1.399 . S
C2994 C2993 1.399 . S
C2994 C2995 1.376 . S
C2995 H2982 0.930 . S
C2995 C2994 1.376 . S
C2995 C2996 1.388 . S
C2996 H2983 0.930 . S
C2996 C2995 1.388 . S
C2996 C2997 1.390 . S
C2997 C2996 1.390 . S
C2997 C2998 1.394 . S
C2997 C3003 1.465 . S
C2998 C2993 1.399 . S
C2998 C2997 1.394 . S
C2998 C2999 1.516 . S
C2999 C2998 1.516 . S
C2999 C3000 1.502 . S
C2999 C3001 1.561 . S
C2999 C3002 1.526 . S
C3000 H2984 0.959 . S
C3000 H2985 0.959 . S
C3000 H2986 0.961 . S
C3000 C2999 1.502 . S
C3001 H2987 0.960 . S
C3001 H2988 0.961 . S
C3001 H2989 0.959 . S
C3001 C2999 1.561 . S
C3002 C2999 1.526 . S
C3002 C3003 1.396 . S
C3002 C3007 1.390 . S
C3003 C2997 1.465 . S
C3003 C3002 1.396 . S
C3003 C3004 1.399 . S
C3004 H2990 0.929 . S
C3004 C3003 1.399 . S
C3004 C3005 1.385 . S
C3005 H2991 0.931 . S
C3005 C3004 1.385 . S
C3005 C3006 1.389 . S
C3006 C3005 1.389 . S
C3006 C3007 1.387 . S
C3007 H2992 0.930 . S
C3007 C3002 1.390 . S
C3007 C3006 1.387 . S
H3008 C3020 0.930 . S
H3009 C3022 0.930 . S
H3010 C3023 0.930 . S
H3011 C3027 0.959 . S
H3012 C3027 0.959 . S
H3013 C3027 0.961 . S
H3014 C3028 0.960 . S
H3015 C3028 0.961 . S
H3016 C3028 0.959 . S
H3017 C3031 0.929 . S
H3018 C3032 0.931 . S
H3019 C3034 0.930 . S
C3020 H3008 0.930 . S
C3020 C3021 1.393 1_545 S
C3020 C3025 1.399 . S
C3021 C3020 1.393 1_565 S
C3021 C3022 1.385 . S
C3022 H3009 0.930 . S
C3022 C3021 1.385 . S
C3022 C3023 1.388 . S
C3023 H3010 0.930 . S
C3023 C3022 1.388 . S
C3023 C3024 1.390 . S
C3024 C3023 1.390 . S
C3024 C3025 1.394 1_565 S
C3024 C3030 1.465 . S
C3025 C3020 1.399 . S
C3025 C3024 1.394 1_545 S
C3025 C3026 1.516 . S
C3026 C3025 1.516 . S
C3026 C3027 1.502 . S
C3026 C3028 1.561 . S
C3026 C3029 1.526 . S
C3027 H3011 0.959 . S
C3027 H3012 0.959 . S
C3027 H3013 0.961 . S
C3027 C3026 1.502 . S
C3028 H3014 0.960 . S
C3028 H3015 0.961 . S
C3028 H3016 0.959 . S
C3028 C3026 1.561 . S
C3029 C3026 1.526 . S
C3029 C3030 1.396 1_545 S
C3029 C3034 1.390 . S
C3030 C3024 1.465 . S
C3030 C3029 1.396 1_565 S
C3030 C3031 1.399 . S
C3031 H3017 0.929 . S
C3031 C3030 1.399 . S
C3031 C3032 1.385 . S
C3032 H3018 0.931 . S
C3032 C3031 1.385 . S
C3032 C3033 1.389 . S
C3033 C3032 1.389 . S
C3033 C3034 1.387 1_565 S
C3034 H3019 0.930 . S
C3034 C3029 1.390 . S
C3034 C3033 1.387 1_545 S
H3035 C3047 0.930 . S
H3036 C3049 0.930 . S
H3037 C3050 0.930 . S
H3038 C3054 0.959 1_455 S
H3039 C3054 0.959 . S
H3040 C3054 0.961 . S
H3041 C3055 0.960 . S
H3042 C3055 0.961 . S
H3043 C3055 0.959 . S
H3044 C3058 0.929 . S
H3045 C3059 0.931 1_554 S
H3046 C3061 0.930 . S
C3047 H3035 0.930 . S
C3047 C3048 1.399 . S
C3047 C3052 1.399 . S
C3048 C3047 1.399 . S
C3048 C3049 1.376 . S
C3049 H3036 0.930 . S
C3049 C3048 1.376 . S
C3049 C3050 1.388 . S
C3050 H3037 0.930 . S
C3050 C3049 1.388 . S
C3050 C3051 1.390 . S
C3051 C3050 1.390 . S
C3051 C3052 1.394 . S
C3051 C3057 1.465 . S
C3052 C3047 1.399 . S
C3052 C3051 1.394 . S
C3052 C3053 1.516 1_455 S
C3053 C3052 1.516 1_655 S
C3053 C3054 1.502 . S
C3053 C3055 1.561 . S
C3053 C3056 1.526 . S
C3054 H3038 0.959 1_655 S
C3054 H3039 0.959 . S
C3054 H3040 0.961 . S
C3054 C3053 1.502 . S
C3055 H3041 0.960 . S
C3055 H3042 0.961 . S
C3055 H3043 0.959 . S
C3055 C3053 1.561 . S
C3056 C3053 1.526 . S
C3056 C3057 1.396 1_655 S
C3056 C3061 1.390 . S
C3057 C3051 1.465 . S
C3057 C3056 1.396 1_455 S
C3057 C3058 1.399 . S
C3058 H3044 0.929 . S
C3058 C3057 1.399 . S
C3058 C3059 1.385 . S
C3059 H3045 0.931 1_556 S
C3059 C3058 1.385 . S
C3059 C3060 1.389 1_455 S
C3060 C3059 1.389 1_655 S
C3060 C3061 1.387 . S
C3061 H3046 0.930 . S
C3061 C3056 1.390 . S
C3061 C3060 1.387 . S
H3062 C3074 0.930 . S
H3063 C3076 0.930 . S
H3064 C3077 0.930 . S
H3065 C3081 0.959 . S
H3066 C3081 0.959 . S
H3067 C3081 0.961 . S
H3068 C3082 0.960 . S
H3069 C3082 0.961 . S
H3070 C3082 0.959 . S
H3071 C3085 0.929 . S
H3072 C3086 0.931 . S
H3073 C3088 0.930 . S
C3074 H3062 0.930 . S
C3074 C3075 1.399 . S
C3074 C3079 1.399 . S
C3075 C3074 1.399 . S
C3075 C3076 1.376 . S
C3076 H3063 0.930 . S
C3076 C3075 1.376 . S
C3076 C3077 1.388 . S
C3077 H3064 0.930 . S
C3077 C3076 1.388 . S
C3077 C3078 1.390 . S
C3078 C3077 1.390 . S
C3078 C3079 1.394 . S
C3078 C3084 1.465 . S
C3079 C3074 1.399 . S
C3079 C3078 1.394 . S
C3079 C3080 1.516 . S
C3080 C3079 1.516 . S
C3080 C3081 1.502 . S
C3080 C3082 1.561 . S
C3080 C3083 1.526 . S
C3081 H3065 0.959 . S
C3081 H3066 0.959 . S
C3081 H3067 0.961 . S
C3081 C3080 1.502 . S
C3082 H3068 0.960 . S
C3082 H3069 0.961 . S
C3082 H3070 0.959 . S
C3082 C3080 1.561 . S
C3083 C3080 1.526 . S
C3083 C3084 1.396 . S
C3083 C3088 1.390 . S
C3084 C3078 1.465 . S
C3084 C3083 1.396 . S
C3084 C3085 1.399 . S
C3085 H3071 0.929 . S
C3085 C3084 1.399 . S
C3085 C3086 1.385 . S
C3086 H3072 0.931 . S
C3086 C3085 1.385 . S
C3086 C3087 1.389 . S
C3087 C3086 1.389 . S
C3087 C3088 1.387 . S
C3088 H3073 0.930 . S
C3088 C3083 1.390 . S
C3088 C3087 1.387 . S
H3089 C3101 0.930 . S
H3090 C3103 0.930 . S
H3091 C3104 0.930 . S
H3092 C3108 0.959 1_655 S
H3093 C3108 0.959 . S
H3094 C3108 0.961 1_655 S
H3095 C3109 0.960 . S
H3096 C3109 0.961 . S
H3097 C3109 0.959 . S
H3098 C3112 0.929 . S
H3099 C3113 0.931 . S
H3100 C3115 0.930 . S
C3101 H3089 0.930 . S
C3101 C3102 1.399 1_565 S
C3101 C3106 1.399 1_655 S
C3102 C3101 1.399 1_545 S
C3102 C3103 1.376 . S
C3103 H3090 0.930 . S
C3103 C3102 1.376 . S
C3103 C3104 1.388 1_655 S
C3104 H3091 0.930 . S
C3104 C3103 1.388 1_455 S
C3104 C3105 1.390 . S
C3105 C3104 1.390 . S
C3105 C3106 1.394 1_545 S
C3105 C3111 1.465 . S
C3106 C3101 1.399 1_455 S
C3106 C3105 1.394 1_565 S
C3106 C3107 1.516 . S
C3107 C3106 1.516 . S
C3107 C3108 1.502 . S
C3107 C3109 1.561 . S
C3107 C3110 1.526 . S
C3108 H3092 0.959 1_455 S
C3108 H3093 0.959 . S
C3108 H3094 0.961 1_455 S
C3108 C3107 1.502 . S
C3109 H3095 0.960 . S
C3109 H3096 0.961 . S
C3109 H3097 0.959 . S
C3109 C3107 1.561 . S
C3110 C3107 1.526 . S
C3110 C3111 1.396 1_565 S
C3110 C3115 1.390 . S
C3111 C3105 1.465 . S
C3111 C3110 1.396 1_545 S
C3111 C3112 1.399 . S
C3112 H3098 0.929 . S
C3112 C3111 1.399 . S
C3112 C3113 1.385 . S
C3113 H3099 0.931 . S
C3113 C3112 1.385 . S
C3113 C3114 1.342 1_545 S
C3114 C3113 1.342 1_565 S
C3114 C3115 1.423 . S
C3115 H3100 0.930 . S
C3115 C3110 1.390 . S
C3115 C3114 1.423 . S
H3116 C3128 0.930 . S
H3117 C3130 0.930 . S
H3118 C3131 0.930 . S
H3119 C3135 0.959 . S
H3120 C3135 0.959 . S
H3121 C3135 0.961 . S
H3122 C3136 0.960 . S
H3123 C3136 0.961 . S
H3124 C3136 0.959 . S
H3125 C3139 0.929 . S
H3126 C3140 0.931 1_556 S
H3127 C3142 0.930 . S
C3128 H3116 0.930 . S
C3128 C3129 1.399 1_565 S
C3128 C3133 1.399 . S
C3129 C3128 1.399 1_545 S
C3129 C3130 1.376 . S
C3130 H3117 0.930 . S
C3130 C3129 1.376 . S
C3130 C3131 1.388 . S
C3131 H3118 0.930 . S
C3131 C3130 1.388 . S
C3131 C3132 1.390 . S
C3132 C3131 1.390 . S
C3132 C3133 1.394 1_545 S
C3132 C3138 1.465 . S
C3133 C3128 1.399 . S
C3133 C3132 1.394 1_565 S
C3133 C3134 1.516 . S
C3134 C3133 1.516 . S
C3134 C3135 1.502 . S
C3134 C3136 1.561 . S
C3134 C3137 1.526 . S
C3135 H3119 0.959 . S
C3135 H3120 0.959 . S
C3135 H3121 0.961 . S
C3135 C3134 1.502 . S
C3136 H3122 0.960 . S
C3136 H3123 0.961 . S
C3136 H3124 0.959 . S
C3136 C3134 1.561 . S
C3137 C3134 1.526 . S
C3137 C3138 1.396 1_565 S
C3137 C3142 1.390 . S
C3138 C3132 1.465 . S
C3138 C3137 1.396 1_545 S
C3138 C3139 1.399 . S
C3139 H3125 0.929 . S
C3139 C3138 1.399 . S
C3139 C3140 1.385 . S
C3140 H3126 0.931 1_554 S
C3140 C3139 1.385 . S
C3140 C3141 1.389 . S
C3141 C3140 1.389 . S
C3141 C3142 1.387 1_545 S
C3142 H3127 0.930 . S
C3142 C3137 1.390 . S
C3142 C3141 1.387 1_565 S
H3143 C3155 0.930 . S
H3144 C3157 0.929 1_456 S
H3145 C3158 0.930 . S
H3146 C3162 0.959 . S
H3147 C3162 0.959 . S
H3148 C3162 0.961 . S
H3149 C3163 0.960 . S
H3150 C3163 0.961 . S
H3151 C3163 0.959 . S
H3152 C3166 0.929 . S
H3153 C3167 0.931 . S
H3154 C3169 0.930 . S
C3155 H3143 0.930 . S
C3155 C3156 1.399 . S
C3155 C3160 1.399 1_455 S
C3156 C3155 1.399 . S
C3156 C3157 1.366 1_455 S
C3157 H3144 0.929 1_654 S
C3157 C3156 1.366 1_655 S
C3157 C3158 1.401 . S
C3158 H3145 0.930 . S
C3158 C3157 1.401 . S
C3158 C3159 1.390 . S
C3159 C3158 1.390 . S
C3159 C3160 1.394 . S
C3159 C3165 1.465 . S
C3160 C3155 1.399 1_655 S
C3160 C3159 1.394 . S
C3160 C3161 1.516 . S
C3161 C3160 1.516 . S
C3161 C3162 1.502 . S
C3161 C3163 1.561 1_655 S
C3161 C3164 1.526 . S
C3162 H3146 0.959 . S
C3162 H3147 0.959 . S
C3162 H3148 0.961 . S
C3162 C3161 1.502 . S
C3163 H3149 0.960 . S
C3163 H3150 0.961 . S
C3163 H3151 0.959 . S
C3163 C3161 1.561 1_455 S
C3164 C3161 1.526 . S
C3164 C3165 1.396 . S
C3164 C3169 1.390 . S
C3165 C3159 1.465 . S
C3165 C3164 1.396 . S
C3165 C3166 1.399 . S
C3166 H3152 0.929 . S
C3166 C3165 1.399 . S
C3166 C3167 1.385 . S
C3167 H3153 0.931 . S
C3167 C3166 1.385 . S
C3167 C3168 1.389 . S
C3168 C3167 1.389 . S
C3168 C3169 1.387 . S
C3169 H3154 0.930 . S
C3169 C3164 1.390 . S
C3169 C3168 1.387 . S
H3170 C3182 0.930 . S
H3171 C3184 0.930 . S
H3172 C3185 0.930 . S
H3173 C3189 0.959 . S
H3174 C3189 0.959 . S
H3175 C3189 0.961 . S
H3176 C3190 0.960 . S
H3177 C3190 0.961 . S
H3178 C3190 0.959 . S
H3179 C3193 0.929 . S
H3180 C3194 0.931 . S
H3181 C3196 0.930 . S
C3182 H3170 0.930 . S
C3182 C3183 1.399 . S
C3182 C3187 1.399 . S
C3183 C3182 1.399 . S
C3183 C3184 1.376 . S
C3184 H3171 0.930 . S
C3184 C3183 1.376 . S
C3184 C3185 1.388 . S
C3185 H3172 0.930 . S
C3185 C3184 1.388 . S
C3185 C3186 1.390 . S
C3186 C3185 1.390 . S
C3186 C3187 1.394 . S
C3186 C3192 1.465 . S
C3187 C3182 1.399 . S
C3187 C3186 1.394 . S
C3187 C3188 1.516 . S
C3188 C3187 1.516 . S
C3188 C3189 1.502 . S
C3188 C3190 1.561 . S
C3188 C3191 1.526 . S
C3189 H3173 0.959 . S
C3189 H3174 0.959 . S
C3189 H3175 0.961 . S
C3189 C3188 1.502 . S
C3190 H3176 0.960 . S
C3190 H3177 0.961 . S
C3190 H3178 0.959 . S
C3190 C3188 1.561 . S
C3191 C3188 1.526 . S
C3191 C3192 1.396 . S
C3191 C3196 1.390 . S
C3192 C3186 1.465 . S
C3192 C3191 1.396 . S
C3192 C3193 1.399 . S
C3193 H3179 0.929 . S
C3193 C3192 1.399 . S
C3193 C3194 1.385 . S
C3194 H3180 0.931 . S
C3194 C3193 1.385 . S
C3194 C3195 1.389 . S
C3195 C3194 1.389 . S
C3195 C3196 1.387 . S
C3196 H3181 0.930 . S
C3196 C3191 1.390 . S
C3196 C3195 1.387 . S
H3197 C3209 0.930 . S
H3198 C3211 0.930 . S
H3199 C3212 0.930 . S
H3200 C3216 0.959 . S
H3201 C3216 0.959 . S
H3202 C3216 0.961 . S
H3203 C3217 0.960 1_655 S
H3204 C3217 0.961 . S
H3205 C3217 0.959 . S
H3206 C3220 0.929 . S
H3207 C3221 0.931 . S
H3208 C3223 0.930 . S
C3209 H3197 0.930 . S
C3209 C3210 1.399 1_565 S
C3209 C3214 1.399 . S
C3210 C3209 1.399 1_545 S
C3210 C3211 1.376 . S
C3211 H3198 0.930 . S
C3211 C3210 1.376 . S
C3211 C3212 1.388 . S
C3212 H3199 0.930 . S
C3212 C3211 1.388 . S
C3212 C3213 1.390 . S
C3213 C3212 1.390 . S
C3213 C3214 1.394 1_545 S
C3213 C3219 1.465 . S
C3214 C3209 1.399 . S
C3214 C3213 1.394 1_565 S
C3214 C3215 1.516 . S
C3215 C3214 1.516 . S
C3215 C3216 1.502 . S
C3215 C3217 1.561 1_655 S
C3215 C3218 1.526 . S
C3216 H3200 0.959 . S
C3216 H3201 0.959 . S
C3216 H3202 0.961 . S
C3216 C3215 1.502 . S
C3217 H3203 0.960 1_455 S
C3217 H3204 0.961 . S
C3217 H3205 0.959 . S
C3217 C3215 1.561 1_455 S
C3218 C3215 1.526 . S
C3218 C3219 1.396 1_565 S
C3218 C3223 1.390 1_655 S
C3219 C3213 1.465 . S
C3219 C3218 1.396 1_545 S
C3219 C3220 1.398 . S
C3220 H3206 0.929 . S
C3220 C3219 1.398 . S
C3220 C3221 1.386 1_655 S
C3221 H3207 0.931 . S
C3221 C3220 1.386 1_455 S
C3221 C3222 1.437 . S
C3222 C3221 1.437 . S
C3222 C3223 1.351 1_545 S
C3223 H3208 0.930 . S
C3223 C3218 1.390 1_455 S
C3223 C3222 1.351 1_565 S
H3224 C3236 0.930 . S
H3225 C3238 0.930 . S
H3226 C3239 0.930 . S
H3227 C3243 0.959 . S
H3228 C3243 0.959 . S
H3229 C3243 0.961 . S
H3230 C3244 0.960 . S
H3231 C3244 0.961 . S
H3232 C3244 0.959 . S
H3233 C3247 0.929 . S
H3234 C3248 0.931 . S
H3235 C3250 0.930 . S
C3236 H3224 0.930 . S
C3236 C3237 1.399 . S
C3236 C3241 1.399 . S
C3237 C3236 1.399 . S
C3237 C3238 1.376 . S
C3238 H3225 0.930 . S
C3238 C3237 1.376 . S
C3238 C3239 1.388 . S
C3239 H3226 0.930 . S
C3239 C3238 1.388 . S
C3239 C3240 1.390 . S
C3240 C3239 1.390 . S
C3240 C3241 1.394 . S
C3240 C3246 1.465 . S
C3241 C3236 1.399 . S
C3241 C3240 1.394 . S
C3241 C3242 1.516 . S
C3242 C3241 1.516 . S
C3242 C3243 1.502 . S
C3242 C3244 1.561 . S
C3242 C3245 1.526 . S
C3243 H3227 0.959 . S
C3243 H3228 0.959 . S
C3243 H3229 0.961 . S
C3243 C3242 1.502 . S
C3244 H3230 0.960 . S
C3244 H3231 0.961 . S
C3244 H3232 0.959 . S
C3244 C3242 1.561 . S
C3245 C3242 1.526 . S
C3245 C3246 1.396 . S
C3245 C3250 1.390 . S
C3246 C3240 1.465 . S
C3246 C3245 1.396 . S
C3246 C3247 1.399 . S
C3247 H3233 0.929 . S
C3247 C3246 1.399 . S
C3247 C3248 1.385 . S
C3248 H3234 0.931 . S
C3248 C3247 1.385 . S
C3248 C3249 1.389 . S
C3249 C3248 1.389 . S
C3249 C3250 1.387 . S
C3250 H3235 0.930 . S
C3250 C3245 1.390 . S
C3250 C3249 1.387 . S
H3251 C3263 0.930 . S
H3252 C3265 0.930 . S
H3253 C3266 0.930 1_655 S
H3254 C3270 0.959 . S
H3255 C3270 0.959 . S
H3256 C3270 0.961 . S
H3257 C3271 0.960 . S
H3258 C3271 0.961 . S
H3259 C3271 0.959 . S
H3260 C3274 0.929 . S
H3261 C3275 0.931 . S
H3262 C3277 0.930 . S
C3263 H3251 0.930 . S
C3263 C3264 1.399 . S
C3263 C3268 1.399 . S
C3264 C3263 1.399 . S
C3264 C3265 1.376 . S
C3265 H3252 0.930 . S
C3265 C3264 1.376 . S
C3265 C3266 1.388 . S
C3266 H3253 0.930 1_455 S
C3266 C3265 1.388 . S
C3266 C3267 1.390 . S
C3267 C3266 1.390 . S
C3267 C3268 1.394 . S
C3267 C3273 1.465 . S
C3268 C3263 1.399 . S
C3268 C3267 1.394 . S
C3268 C3269 1.516 . S
C3269 C3268 1.516 . S
C3269 C3270 1.502 . S
C3269 C3271 1.561 . S
C3269 C3272 1.526 . S
C3270 H3254 0.959 . S
C3270 H3255 0.959 . S
C3270 H3256 0.961 . S
C3270 C3269 1.502 . S
C3271 H3257 0.960 . S
C3271 H3258 0.961 . S
C3271 H3259 0.959 . S
C3271 C3269 1.561 . S
C3272 C3269 1.526 . S
C3272 C3273 1.396 . S
C3272 C3277 1.390 . S
C3273 C3267 1.465 . S
C3273 C3272 1.396 . S
C3273 C3274 1.399 1_455 S
C3274 H3260 0.929 . S
C3274 C3273 1.399 1_655 S
C3274 C3275 1.385 . S
C3275 H3261 0.931 . S
C3275 C3274 1.385 . S
C3275 C3276 1.389 . S
C3276 C3275 1.389 . S
C3276 C3277 1.387 1_655 S
C3277 H3262 0.930 . S
C3277 C3272 1.390 . S
C3277 C3276 1.387 1_455 S
H3278 C3290 0.930 . S
H3279 C3292 0.930 . S
H3280 C3293 0.930 . S
H3281 C3297 0.959 . S
H3282 C3297 0.959 . S
H3283 C3297 0.961 . S
H3284 C3298 0.960 . S
H3285 C3298 0.961 . S
H3286 C3298 0.959 . S
H3287 C3301 0.929 . S
H3288 C3302 0.931 . S
H3289 C3304 0.930 . S
C3290 H3278 0.930 . S
C3290 C3291 1.399 . S
C3290 C3295 1.399 . S
C3291 C3290 1.399 . S
C3291 C3292 1.376 . S
C3292 H3279 0.930 . S
C3292 C3291 1.376 . S
C3292 C3293 1.388 . S
C3293 H3280 0.930 . S
C3293 C3292 1.388 . S
C3293 C3294 1.390 . S
C3294 C3293 1.390 . S
C3294 C3295 1.394 . S
C3294 C3300 1.465 . S
C3295 C3290 1.399 . S
C3295 C3294 1.394 . S
C3295 C3296 1.516 . S
C3296 C3295 1.516 . S
C3296 C3297 1.502 . S
C3296 C3298 1.561 . S
C3296 C3299 1.526 . S
C3297 H3281 0.959 . S
C3297 H3282 0.959 . S
C3297 H3283 0.961 . S
C3297 C3296 1.502 . S
C3298 H3284 0.960 . S
C3298 H3285 0.961 . S
C3298 H3286 0.959 . S
C3298 C3296 1.561 . S
C3299 C3296 1.526 . S
C3299 C3300 1.396 . S
C3299 C3304 1.390 . S
C3300 C3294 1.465 . S
C3300 C3299 1.396 . S
C3300 C3301 1.399 . S
C3301 H3287 0.929 . S
C3301 C3300 1.399 . S
C3301 C3302 1.385 . S
C3302 H3288 0.931 . S
C3302 C3301 1.385 . S
C3302 C3303 1.389 . S
C3303 C3302 1.389 . S
C3303 C3304 1.387 . S
C3304 H3289 0.930 . S
C3304 C3299 1.390 . S
C3304 C3303 1.387 . S
H3305 C3317 0.930 . S
H3306 C3319 0.930 . S
H3307 C3320 0.930 . S
H3308 C3324 0.959 . S
H3309 C3324 0.959 . S
H3310 C3324 0.961 . S
H3311 C3325 0.960 . S
H3312 C3325 0.961 . S
H3313 C3325 0.959 . S
H3314 C3328 0.929 . S
H3315 C3329 0.930 1_655 S
H3316 C3331 0.930 . S
C3317 H3305 0.930 . S
C3317 C3318 1.399 . S
C3317 C3322 1.399 . S
C3318 C3317 1.399 . S
C3318 C3319 1.376 . S
C3319 H3306 0.930 . S
C3319 C3318 1.376 . S
C3319 C3320 1.388 . S
C3320 H3307 0.930 . S
C3320 C3319 1.388 . S
C3320 C3321 1.390 . S
C3321 C3320 1.390 . S
C3321 C3322 1.394 . S
C3321 C3327 1.465 . S
C3322 C3317 1.399 . S
C3322 C3321 1.394 . S
C3322 C3323 1.516 . S
C3323 C3322 1.516 . S
C3323 C3324 1.502 1_455 S
C3323 C3325 1.561 . S
C3323 C3326 1.526 . S
C3324 H3308 0.959 . S
C3324 H3309 0.959 . S
C3324 H3310 0.961 . S
C3324 C3323 1.502 1_655 S
C3325 H3311 0.960 . S
C3325 H3312 0.961 . S
C3325 H3313 0.959 . S
C3325 C3323 1.561 . S
C3326 C3323 1.526 . S
C3326 C3327 1.396 . S
C3326 C3331 1.390 1_455 S
C3327 C3321 1.465 . S
C3327 C3326 1.396 . S
C3327 C3328 1.399 . S
C3328 H3314 0.929 . S
C3328 C3327 1.399 . S
C3328 C3329 1.385 . S
C3329 H3315 0.930 1_455 S
C3329 C3328 1.385 . S
C3329 C3330 1.389 1_455 S
C3330 C3329 1.389 1_655 S
C3330 C3331 1.387 . S
C3331 H3316 0.930 . S
C3331 C3326 1.390 1_655 S
C3331 C3330 1.387 . S
H3332 C3344 0.930 . S
H3333 C3346 0.930 . S
H3334 C3347 0.930 . S
H3335 C3351 0.959 . S
H3336 C3351 0.959 . S
H3337 C3351 0.961 . S
H3338 C3352 0.960 . S
H3339 C3352 0.961 . S
H3340 C3352 0.959 . S
H3341 C3355 0.929 . S
H3342 C3356 0.931 . S
H3343 C3358 0.930 . S
C3344 H3332 0.930 . S
C3344 C3345 1.399 . S
C3344 C3349 1.399 . S
C3345 C3344 1.399 . S
C3345 C3346 1.376 . S
C3346 H3333 0.930 . S
C3346 C3345 1.376 . S
C3346 C3347 1.388 . S
C3347 H3334 0.930 . S
C3347 C3346 1.388 . S
C3347 C3348 1.390 . S
C3348 C3347 1.390 . S
C3348 C3349 1.394 . S
C3348 C3354 1.465 . S
C3349 C3344 1.399 . S
C3349 C3348 1.394 . S
C3349 C3350 1.516 . S
C3350 C3349 1.516 . S
C3350 C3351 1.502 . S
C3350 C3352 1.561 . S
C3350 C3353 1.526 . S
C3351 H3335 0.959 . S
C3351 H3336 0.959 . S
C3351 H3337 0.961 . S
C3351 C3350 1.502 . S
C3352 H3338 0.960 . S
C3352 H3339 0.961 . S
C3352 H3340 0.959 . S
C3352 C3350 1.561 . S
C3353 C3350 1.526 . S
C3353 C3354 1.396 . S
C3353 C3358 1.390 . S
C3354 C3348 1.465 . S
C3354 C3353 1.396 . S
C3354 C3355 1.399 . S
C3355 H3341 0.929 . S
C3355 C3354 1.399 . S
C3355 C3356 1.385 . S
C3356 H3342 0.931 . S
C3356 C3355 1.385 . S
C3356 C3357 1.389 . S
C3357 C3356 1.389 . S
C3357 C3358 1.387 . S
C3358 H3343 0.930 . S
C3358 C3353 1.390 . S
C3358 C3357 1.387 . S
H3359 C3371 0.930 . S
H3360 C3373 0.930 . S
H3361 C3374 0.930 . S
H3362 C3378 0.959 . S
H3363 C3378 0.959 . S
H3364 C3378 0.961 . S
H3365 C3379 0.960 . S
H3366 C3379 0.961 . S
H3367 C3379 0.959 . S
H3368 C3382 0.929 . S
H3369 C3383 0.931 . S
H3370 C3385 0.930 . S
C3371 H3359 0.930 . S
C3371 C3372 1.399 . S
C3371 C3376 1.399 1_455 S
C3372 C3371 1.399 . S
C3372 C3373 1.376 1_455 S
C3373 H3360 0.930 . S
C3373 C3372 1.376 1_655 S
C3373 C3374 1.388 . S
C3374 H3361 0.930 . S
C3374 C3373 1.388 . S
C3374 C3375 1.390 . S
C3375 C3374 1.390 . S
C3375 C3376 1.394 . S
C3375 C3381 1.465 . S
C3376 C3371 1.399 1_655 S
C3376 C3375 1.394 . S
C3376 C3377 1.516 . S
C3377 C3376 1.516 . S
C3377 C3378 1.502 1_655 S
C3377 C3379 1.561 . S
C3377 C3380 1.526 . S
C3378 H3362 0.959 . S
C3378 H3363 0.959 . S
C3378 H3364 0.961 . S
C3378 C3377 1.502 1_455 S
C3379 H3365 0.960 . S
C3379 H3366 0.961 . S
C3379 H3367 0.959 . S
C3379 C3377 1.561 . S
C3380 C3377 1.526 . S
C3380 C3381 1.396 . S
C3380 C3385 1.390 . S
C3381 C3375 1.465 . S
C3381 C3380 1.396 . S
C3381 C3382 1.399 . S
C3382 H3368 0.929 . S
C3382 C3381 1.399 . S
C3382 C3383 1.385 . S
C3383 H3369 0.931 . S
C3383 C3382 1.385 . S
C3383 C3384 1.389 . S
C3384 C3383 1.389 . S
C3384 C3385 1.387 . S
C3385 H3370 0.930 . S
C3385 C3380 1.390 . S
C3385 C3384 1.387 . S
H3386 C3398 0.930 . S
H3387 C3400 0.930 . S
H3388 C3401 0.930 . S
H3389 C3405 0.959 . S
H3390 C3405 0.959 . S
H3391 C3405 0.961 . S
H3392 C3406 0.960 . S
H3393 C3406 0.961 . S
H3394 C3406 0.959 . S
H3395 C3409 0.929 . S
H3396 C3410 0.931 . S
H3397 C3412 0.930 . S
C3398 H3386 0.930 . S
C3398 C3399 1.399 . S
C3398 C3403 1.399 . S
C3399 C3398 1.399 . S
C3399 C3400 1.376 . S
C3400 H3387 0.930 . S
C3400 C3399 1.376 . S
C3400 C3401 1.388 . S
C3401 H3388 0.930 . S
C3401 C3400 1.388 . S
C3401 C3402 1.390 . S
C3402 C3401 1.390 . S
C3402 C3403 1.394 . S
C3402 C3408 1.465 . S
C3403 C3398 1.399 . S
C3403 C3402 1.394 . S
C3403 C3404 1.516 . S
C3404 C3403 1.516 . S
C3404 C3405 1.502 . S
C3404 C3406 1.561 . S
C3404 C3407 1.526 . S
C3405 H3389 0.959 . S
C3405 H3390 0.959 . S
C3405 H3391 0.961 . S
C3405 C3404 1.502 . S
C3406 H3392 0.960 . S
C3406 H3393 0.961 . S
C3406 H3394 0.959 . S
C3406 C3404 1.561 . S
C3407 C3404 1.526 . S
C3407 C3408 1.396 . S
C3407 C3412 1.390 . S
C3408 C3402 1.465 . S
C3408 C3407 1.396 . S
C3408 C3409 1.399 . S
C3409 H3395 0.929 . S
C3409 C3408 1.399 . S
C3409 C3410 1.385 . S
C3410 H3396 0.931 . S
C3410 C3409 1.385 . S
C3410 C3411 1.389 . S
C3411 C3410 1.389 . S
C3411 C3412 1.387 . S
C3412 H3397 0.930 . S
C3412 C3407 1.390 . S
C3412 C3411 1.387 . S
H3413 C3425 0.930 . S
H3414 C3427 0.930 . S
H3415 C3428 0.930 . S
H3416 C3432 0.959 . S
H3417 C3432 0.959 . S
H3418 C3432 0.961 . S
H3419 C3433 0.960 . S
H3420 C3433 0.961 . S
H3421 C3433 0.959 . S
H3422 C3436 0.929 . S
H3423 C3437 0.928 1_455 S
H3424 C3439 0.930 . S
C3425 H3413 0.930 . S
C3425 C3426 1.399 . S
C3425 C3430 1.399 . S
C3426 C3425 1.399 . S
C3426 C3427 1.376 . S
C3427 H3414 0.930 . S
C3427 C3426 1.376 . S
C3427 C3428 1.388 . S
C3428 H3415 0.930 . S
C3428 C3427 1.388 . S
C3428 C3429 1.390 . S
C3429 C3428 1.390 . S
C3429 C3430 1.394 . S
C3429 C3435 1.465 . S
C3430 C3425 1.399 . S
C3430 C3429 1.394 . S
C3430 C3431 1.516 . S
C3431 C3430 1.516 . S
C3431 C3432 1.502 1_655 S
C3431 C3433 1.561 . S
C3431 C3434 1.526 . S
C3432 H3416 0.959 . S
C3432 H3417 0.959 . S
C3432 H3418 0.961 . S
C3432 C3431 1.502 1_455 S
C3433 H3419 0.960 . S
C3433 H3420 0.961 . S
C3433 H3421 0.959 . S
C3433 C3431 1.561 . S
C3434 C3431 1.526 . S
C3434 C3435 1.396 . S
C3434 C3439 1.390 1_655 S
C3435 C3429 1.465 . S
C3435 C3434 1.396 . S
C3435 C3436 1.399 . S
C3436 H3422 0.929 . S
C3436 C3435 1.399 . S
C3436 C3437 1.385 . S
C3437 H3423 0.928 1_655 S
C3437 C3436 1.385 . S
C3437 C3438 1.389 1_655 S
C3438 C3437 1.389 1_455 S
C3438 C3439 1.387 . S
C3439 H3424 0.930 . S
C3439 C3434 1.390 1_455 S
C3439 C3438 1.387 . S
H3440 C3452 0.930 . S
H3441 C3454 0.930 . S
H3442 C3455 0.930 . S
H3443 C3459 0.959 . S
H3444 C3459 0.959 . S
H3445 C3459 0.961 . S
H3446 C3460 0.960 . S
H3447 C3460 0.961 . S
H3448 C3460 0.959 . S
H3449 C3463 0.929 . S
H3450 C3464 0.931 . S
H3451 C3466 0.930 . S
C3452 H3440 0.930 . S
C3452 C3453 1.398 1_545 S
C3452 C3457 1.399 . S
C3453 C3452 1.398 1_565 S
C3453 C3454 1.377 . S
C3454 H3441 0.930 . S
C3454 C3453 1.377 . S
C3454 C3455 1.388 . S
C3455 H3442 0.930 . S
C3455 C3454 1.388 . S
C3455 C3456 1.390 . S
C3456 C3455 1.390 . S
C3456 C3457 1.394 1_565 S
C3456 C3462 1.465 . S
C3457 C3452 1.399 . S
C3457 C3456 1.394 1_545 S
C3457 C3458 1.516 . S
C3458 C3457 1.516 . S
C3458 C3459 1.502 . S
C3458 C3460 1.561 . S
C3458 C3461 1.526 . S
C3459 H3443 0.959 . S
C3459 H3444 0.959 . S
C3459 H3445 0.961 . S
C3459 C3458 1.502 . S
C3460 H3446 0.960 . S
C3460 H3447 0.961 . S
C3460 H3448 0.959 . S
C3460 C3458 1.561 . S
C3461 C3458 1.526 . S
C3461 C3462 1.396 1_545 S
C3461 C3466 1.390 . S
C3462 C3456 1.465 . S
C3462 C3461 1.396 1_565 S
C3462 C3463 1.399 . S
C3463 H3449 0.929 . S
C3463 C3462 1.399 . S
C3463 C3464 1.385 . S
C3464 H3450 0.931 . S
C3464 C3463 1.385 . S
C3464 C3465 1.389 . S
C3465 C3464 1.389 . S
C3465 C3466 1.387 1_565 S
C3466 H3451 0.930 . S
C3466 C3461 1.390 . S
C3466 C3465 1.387 1_545 S
H3467 C3479 0.930 . S
H3468 C3481 0.930 . S
H3469 C3482 0.930 . S
H3470 C3486 0.959 . S
H3471 C3486 0.959 . S
H3472 C3486 0.961 . S
H3473 C3487 0.960 . S
H3474 C3487 0.961 . S
H3475 C3487 0.959 . S
H3476 C3490 0.929 . S
H3477 C3491 0.931 . S
H3478 C3493 0.930 . S
C3479 H3467 0.930 . S
C3479 C3480 1.399 . S
C3479 C3484 1.399 . S
C3480 C3479 1.399 . S
C3480 C3481 1.376 . S
C3481 H3468 0.930 . S
C3481 C3480 1.376 . S
C3481 C3482 1.388 . S
C3482 H3469 0.930 . S
C3482 C3481 1.388 . S
C3482 C3483 1.390 . S
C3483 C3482 1.390 . S
C3483 C3484 1.394 . S
C3483 C3489 1.465 . S
C3484 C3479 1.399 . S
C3484 C3483 1.394 . S
C3484 C3485 1.516 . S
C3485 C3484 1.516 . S
C3485 C3486 1.502 . S
C3485 C3487 1.561 . S
C3485 C3488 1.526 . S
C3486 H3470 0.959 . S
C3486 H3471 0.959 . S
C3486 H3472 0.961 . S
C3486 C3485 1.502 . S
C3487 H3473 0.960 . S
C3487 H3474 0.961 . S
C3487 H3475 0.959 . S
C3487 C3485 1.561 . S
C3488 C3485 1.526 . S
C3488 C3489 1.396 . S
C3488 C3493 1.390 . S
C3489 C3483 1.465 . S
C3489 C3488 1.396 . S
C3489 C3490 1.399 . S
C3490 H3476 0.929 . S
C3490 C3489 1.399 . S
C3490 C3491 1.385 . S
C3491 H3477 0.931 . S
C3491 C3490 1.385 . S
C3491 C3492 1.389 . S
C3492 C3491 1.389 . S
C3492 C3493 1.387 . S
C3493 H3478 0.930 . S
C3493 C3488 1.390 . S
C3493 C3492 1.387 . S
H3494 C3506 0.930 . S
H3495 C3508 0.930 . S
H3496 C3509 0.930 . S
H3497 C3513 0.959 . S
H3498 C3513 0.959 . S
H3499 C3513 0.961 . S
H3500 C3514 0.960 . S
H3501 C3514 0.961 . S
H3502 C3514 0.959 . S
H3503 C3517 0.929 . S
H3504 C3518 0.931 . S
H3505 C3520 0.930 . S
C3506 H3494 0.930 . S
C3506 C3507 1.399 . S
C3506 C3511 1.399 . S
C3507 C3506 1.399 . S
C3507 C3508 1.376 . S
C3508 H3495 0.930 . S
C3508 C3507 1.376 . S
C3508 C3509 1.388 . S
C3509 H3496 0.930 . S
C3509 C3508 1.388 . S
C3509 C3510 1.390 . S
C3510 C3509 1.390 . S
C3510 C3511 1.394 . S
C3510 C3516 1.465 . S
C3511 C3506 1.399 . S
C3511 C3510 1.394 . S
C3511 C3512 1.516 . S
C3512 C3511 1.516 . S
C3512 C3513 1.502 . S
C3512 C3514 1.561 . S
C3512 C3515 1.526 . S
C3513 H3497 0.959 . S
C3513 H3498 0.959 . S
C3513 H3499 0.961 . S
C3513 C3512 1.502 . S
C3514 H3500 0.960 . S
C3514 H3501 0.961 . S
C3514 H3502 0.959 . S
C3514 C3512 1.561 . S
C3515 C3512 1.526 . S
C3515 C3516 1.396 . S
C3515 C3520 1.390 . S
C3516 C3510 1.465 . S
C3516 C3515 1.396 . S
C3516 C3517 1.399 . S
C3517 H3503 0.929 . S
C3517 C3516 1.399 . S
C3517 C3518 1.385 . S
C3518 H3504 0.931 . S
C3518 C3517 1.385 . S
C3518 C3519 1.389 . S
C3519 C3518 1.389 . S
C3519 C3520 1.387 . S
C3520 H3505 0.930 . S
C3520 C3515 1.390 . S
C3520 C3519 1.387 . S
H3521 C3533 0.930 . S
H3522 C3535 0.930 . S
H3523 C3536 0.930 . S
H3524 C3540 0.959 . S
H3525 C3540 0.959 . S
H3526 C3540 0.961 . S
H3527 C3541 0.960 . S
H3528 C3541 0.961 . S
H3529 C3541 0.959 . S
H3530 C3544 0.929 . S
H3531 C3545 0.931 . S
H3532 C3547 0.930 . S
C3533 H3521 0.930 . S
C3533 C3534 1.392 1_545 S
C3533 C3538 1.399 . S
C3534 C3533 1.392 1_565 S
C3534 C3535 1.385 . S
C3535 H3522 0.930 . S
C3535 C3534 1.385 . S
C3535 C3536 1.388 . S
C3536 H3523 0.930 . S
C3536 C3535 1.388 . S
C3536 C3537 1.390 . S
C3537 C3536 1.390 . S
C3537 C3538 1.394 1_565 S
C3537 C3543 1.465 . S
C3538 C3533 1.399 . S
C3538 C3537 1.394 1_545 S
C3538 C3539 1.516 . S
C3539 C3538 1.516 . S
C3539 C3540 1.502 . S
C3539 C3541 1.561 . S
C3539 C3542 1.526 . S
C3540 H3524 0.959 . S
C3540 H3525 0.959 . S
C3540 H3526 0.961 . S
C3540 C3539 1.502 . S
C3541 H3527 0.960 . S
C3541 H3528 0.961 . S
C3541 H3529 0.959 . S
C3541 C3539 1.561 . S
C3542 C3539 1.526 . S
C3542 C3543 1.396 1_545 S
C3542 C3547 1.390 . S
C3543 C3537 1.465 . S
C3543 C3542 1.396 1_565 S
C3543 C3544 1.399 . S
C3544 H3530 0.929 . S
C3544 C3543 1.399 . S
C3544 C3545 1.385 . S
C3545 H3531 0.931 . S
C3545 C3544 1.385 . S
C3545 C3546 1.389 . S
C3546 C3545 1.389 . S
C3546 C3547 1.387 1_565 S
C3547 H3532 0.930 . S
C3547 C3542 1.390 . S
C3547 C3546 1.387 1_545 S
H3548 C3560 0.930 . S
H3549 C3562 0.930 . S
H3550 C3563 0.930 . S
H3551 C3567 0.959 . S
H3552 C3567 0.959 . S
H3553 C3567 0.961 . S
H3554 C3568 0.960 . S
H3555 C3568 0.961 . S
H3556 C3568 0.959 . S
H3557 C3571 0.929 . S
H3558 C3572 0.931 . S
H3559 C3574 0.930 . S
C3560 H3548 0.930 . S
C3560 C3561 1.375 1_565 S
C3560 C3565 1.399 . S
C3561 C3560 1.375 1_545 S
C3561 C3562 1.409 . S
C3562 H3549 0.930 . S
C3562 C3561 1.409 . S
C3562 C3563 1.388 . S
C3563 H3550 0.930 . S
C3563 C3562 1.388 . S
C3563 C3564 1.390 . S
C3564 C3563 1.390 . S
C3564 C3565 1.394 1_545 S
C3564 C3570 1.465 . S
C3565 C3560 1.399 . S
C3565 C3564 1.394 1_565 S
C3565 C3566 1.516 . S
C3566 C3565 1.516 . S
C3566 C3567 1.502 . S
C3566 C3568 1.561 . S
C3566 C3569 1.526 . S
C3567 H3551 0.959 . S
C3567 H3552 0.959 . S
C3567 H3553 0.961 . S
C3567 C3566 1.502 . S
C3568 H3554 0.960 . S
C3568 H3555 0.961 . S
C3568 H3556 0.959 . S
C3568 C3566 1.561 . S
C3569 C3566 1.526 . S
C3569 C3570 1.396 1_565 S
C3569 C3574 1.390 . S
C3570 C3564 1.465 . S
C3570 C3569 1.396 1_545 S
C3570 C3571 1.399 . S
C3571 H3557 0.929 . S
C3571 C3570 1.399 . S
C3571 C3572 1.385 . S
C3572 H3558 0.931 . S
C3572 C3571 1.385 . S
C3572 C3573 1.389 . S
C3573 C3572 1.389 . S
C3573 C3574 1.387 1_545 S
C3574 H3559 0.930 . S
C3574 C3569 1.390 . S
C3574 C3573 1.387 1_565 S
H3575 C3587 0.930 . S
H3576 C3589 0.930 . S
H3577 C3590 0.930 . S
H3578 C3594 0.959 . S
H3579 C3594 0.959 . S
H3580 C3594 0.961 . S
H3581 C3595 0.960 . S
H3582 C3595 0.961 . S
H3583 C3595 0.959 . S
H3584 C3598 0.929 . S
H3585 C3599 0.931 . S
H3586 C3601 0.930 . S
C3587 H3575 0.930 . S
C3587 C3588 1.399 . S
C3587 C3592 1.399 . S
C3588 C3587 1.399 . S
C3588 C3589 1.376 . S
C3589 H3576 0.930 . S
C3589 C3588 1.376 . S
C3589 C3590 1.388 . S
C3590 H3577 0.930 . S
C3590 C3589 1.388 . S
C3590 C3591 1.390 . S
C3591 C3590 1.390 . S
C3591 C3592 1.394 . S
C3591 C3597 1.465 . S
C3592 C3587 1.399 . S
C3592 C3591 1.394 . S
C3592 C3593 1.516 . S
C3593 C3592 1.516 . S
C3593 C3594 1.502 . S
C3593 C3595 1.561 . S
C3593 C3596 1.526 . S
C3594 H3578 0.959 . S
C3594 H3579 0.959 . S
C3594 H3580 0.961 . S
C3594 C3593 1.502 . S
C3595 H3581 0.960 . S
C3595 H3582 0.961 . S
C3595 H3583 0.959 . S
C3595 C3593 1.561 . S
C3596 C3593 1.526 . S
C3596 C3597 1.396 . S
C3596 C3601 1.390 . S
C3597 C3591 1.465 . S
C3597 C3596 1.396 . S
C3597 C3598 1.399 . S
C3598 H3584 0.929 . S
C3598 C3597 1.399 . S
C3598 C3599 1.385 . S
C3599 H3585 0.931 . S
C3599 C3598 1.385 . S
C3599 C3600 1.389 . S
C3600 C3599 1.389 . S
C3600 C3601 1.387 . S
C3601 H3586 0.930 . S
C3601 C3596 1.390 . S
C3601 C3600 1.387 . S
H3602 C3614 0.930 . S
H3603 C3616 0.930 . S
H3604 C3617 0.930 . S
H3605 C3621 0.959 . S
H3606 C3621 0.959 . S
H3607 C3621 0.961 . S
H3608 C3622 0.960 . S
H3609 C3622 0.961 . S
H3610 C3622 0.959 . S
H3611 C3625 0.929 . S
H3612 C3626 0.931 . S
H3613 C3628 0.930 . S
C3614 H3602 0.930 . S
C3614 C3615 1.399 . S
C3614 C3619 1.399 . S
C3615 C3614 1.399 . S
C3615 C3616 1.376 . S
C3616 H3603 0.930 . S
C3616 C3615 1.376 . S
C3616 C3617 1.388 . S
C3617 H3604 0.930 . S
C3617 C3616 1.388 . S
C3617 C3618 1.390 . S
C3618 C3617 1.390 . S
C3618 C3619 1.394 . S
C3618 C3624 1.465 . S
C3619 C3614 1.399 . S
C3619 C3618 1.394 . S
C3619 C3620 1.516 . S
C3620 C3619 1.516 . S
C3620 C3621 1.502 . S
C3620 C3622 1.561 . S
C3620 C3623 1.526 . S
C3621 H3605 0.959 . S
C3621 H3606 0.959 . S
C3621 H3607 0.961 . S
C3621 C3620 1.502 . S
C3622 H3608 0.960 . S
C3622 H3609 0.961 . S
C3622 H3610 0.959 . S
C3622 C3620 1.561 . S
C3623 C3620 1.526 . S
C3623 C3624 1.396 . S
C3623 C3628 1.390 . S
C3624 C3618 1.465 . S
C3624 C3623 1.396 . S
C3624 C3625 1.399 . S
C3625 H3611 0.929 . S
C3625 C3624 1.399 . S
C3625 C3626 1.385 . S
C3626 H3612 0.931 . S
C3626 C3625 1.385 . S
C3626 C3627 1.389 . S
C3627 C3626 1.389 . S
C3627 C3628 1.387 . S
C3628 H3613 0.930 . S
C3628 C3623 1.390 . S
C3628 C3627 1.387 . S
H3629 C3641 0.930 . S
H3630 C3643 0.930 . S
H3631 C3644 0.930 . S
H3632 C3648 0.959 . S
H3633 C3648 0.959 . S
H3634 C3648 0.961 . S
H3635 C3649 0.960 . S
H3636 C3649 0.961 . S
H3637 C3649 0.959 . S
H3638 C3652 0.929 . S
H3639 C3653 0.931 . S
H3640 C3655 0.930 . S
C3641 H3629 0.930 . S
C3641 C3642 1.394 1_565 S
C3641 C3646 1.399 . S
C3642 C3641 1.394 1_545 S
C3642 C3643 1.383 . S
C3643 H3630 0.930 . S
C3643 C3642 1.383 . S
C3643 C3644 1.388 . S
C3644 H3631 0.930 . S
C3644 C3643 1.388 . S
C3644 C3645 1.390 . S
C3645 C3644 1.390 . S
C3645 C3646 1.394 1_545 S
C3645 C3651 1.465 . S
C3646 C3641 1.399 . S
C3646 C3645 1.394 1_565 S
C3646 C3647 1.516 . S
C3647 C3646 1.516 . S
C3647 C3648 1.502 . S
C3647 C3649 1.561 . S
C3647 C3650 1.526 . S
C3648 H3632 0.959 . S
C3648 H3633 0.959 . S
C3648 H3634 0.961 . S
C3648 C3647 1.502 . S
C3649 H3635 0.960 . S
C3649 H3636 0.961 . S
C3649 H3637 0.959 . S
C3649 C3647 1.561 . S
C3650 C3647 1.526 . S
C3650 C3651 1.396 1_565 S
C3650 C3655 1.390 . S
C3651 C3645 1.465 . S
C3651 C3650 1.396 1_545 S
C3651 C3652 1.399 . S
C3652 H3638 0.929 . S
C3652 C3651 1.399 . S
C3652 C3653 1.385 . S
C3653 H3639 0.931 . S
C3653 C3652 1.385 . S
C3653 C3654 1.389 . S
C3654 C3653 1.389 . S
C3654 C3655 1.387 1_545 S
C3655 H3640 0.930 . S
C3655 C3650 1.390 . S
C3655 C3654 1.387 1_565 S
H3656 C3668 0.930 . S
H3657 C3670 0.930 . S
H3658 C3671 0.930 . S
H3659 C3675 0.959 . S
H3660 C3675 0.959 . S
H3661 C3675 0.961 . S
H3662 C3676 0.960 . S
H3663 C3676 0.961 . S
H3664 C3676 0.959 . S
H3665 C3679 0.929 . S
H3666 C3680 0.931 . S
H3667 C3682 0.930 . S
C3668 H3656 0.930 . S
C3668 C3669 1.399 . S
C3668 C3673 1.399 . S
C3669 C3668 1.399 . S
C3669 C3670 1.376 . S
C3670 H3657 0.930 . S
C3670 C3669 1.376 . S
C3670 C3671 1.388 . S
C3671 H3658 0.930 . S
C3671 C3670 1.388 . S
C3671 C3672 1.390 . S
C3672 C3671 1.390 . S
C3672 C3673 1.394 . S
C3672 C3678 1.465 . S
C3673 C3668 1.399 . S
C3673 C3672 1.394 . S
C3673 C3674 1.516 . S
C3674 C3673 1.516 . S
C3674 C3675 1.502 . S
C3674 C3676 1.561 . S
C3674 C3677 1.526 . S
C3675 H3659 0.959 . S
C3675 H3660 0.959 . S
C3675 H3661 0.961 . S
C3675 C3674 1.502 . S
C3676 H3662 0.960 . S
C3676 H3663 0.961 . S
C3676 H3664 0.959 . S
C3676 C3674 1.561 . S
C3677 C3674 1.526 . S
C3677 C3678 1.396 . S
C3677 C3682 1.390 . S
C3678 C3672 1.465 . S
C3678 C3677 1.396 . S
C3678 C3679 1.399 . S
C3679 H3665 0.929 . S
C3679 C3678 1.399 . S
C3679 C3680 1.385 . S
C3680 H3666 0.931 . S
C3680 C3679 1.385 . S
C3680 C3681 1.389 . S
C3681 C3680 1.389 . S
C3681 C3682 1.387 . S
C3682 H3667 0.930 . S
C3682 C3677 1.390 . S
C3682 C3681 1.387 . S
H3683 C3695 0.930 . S
H3684 C3697 0.930 . S
H3685 C3698 0.930 . S
H3686 C3702 0.959 . S
H3687 C3702 0.959 . S
H3688 C3702 0.961 . S
H3689 C3703 0.960 . S
H3690 C3703 0.961 . S
H3691 C3703 0.959 . S
H3692 C3706 0.929 . S
H3693 C3707 0.931 . S
H3694 C3709 0.930 . S
C3695 H3683 0.930 . S
C3695 C3696 1.399 . S
C3695 C3700 1.399 . S
C3696 C3695 1.399 . S
C3696 C3697 1.376 . S
C3697 H3684 0.930 . S
C3697 C3696 1.376 . S
C3697 C3698 1.388 . S
C3698 H3685 0.930 . S
C3698 C3697 1.388 . S
C3698 C3699 1.390 . S
C3699 C3698 1.390 . S
C3699 C3700 1.394 . S
C3699 C3705 1.465 . S
C3700 C3695 1.399 . S
C3700 C3699 1.394 . S
C3700 C3701 1.516 . S
C3701 C3700 1.516 . S
C3701 C3702 1.502 . S
C3701 C3703 1.561 . S
C3701 C3704 1.526 . S
C3702 H3686 0.959 . S
C3702 H3687 0.959 . S
C3702 H3688 0.961 . S
C3702 C3701 1.502 . S
C3703 H3689 0.960 . S
C3703 H3690 0.961 . S
C3703 H3691 0.959 . S
C3703 C3701 1.561 . S
C3704 C3701 1.526 . S
C3704 C3705 1.396 . S
C3704 C3709 1.390 . S
C3705 C3699 1.465 . S
C3705 C3704 1.396 . S
C3705 C3706 1.399 . S
C3706 H3692 0.929 . S
C3706 C3705 1.399 . S
C3706 C3707 1.385 . S
C3707 H3693 0.931 . S
C3707 C3706 1.385 . S
C3707 C3708 1.389 . S
C3708 C3707 1.389 . S
C3708 C3709 1.387 . S
C3709 H3694 0.930 . S
C3709 C3704 1.390 . S
C3709 C3708 1.387 . S
H3710 C3722 0.930 . S
H3711 C3724 0.930 . S
H3712 C3725 0.930 . S
H3713 C3729 0.959 . S
H3714 C3729 0.959 . S
H3715 C3729 0.961 . S
H3716 C3730 0.960 . S
H3717 C3730 0.961 . S
H3718 C3730 0.959 . S
H3719 C3733 0.929 . S
H3720 C3734 0.931 . S
H3721 C3736 0.930 . S
C3722 H3710 0.930 . S
C3722 C3723 1.399 . S
C3722 C3727 1.399 . S
C3723 C3722 1.399 . S
C3723 C3724 1.376 . S
C3724 H3711 0.930 . S
C3724 C3723 1.376 . S
C3724 C3725 1.388 . S
C3725 H3712 0.930 . S
C3725 C3724 1.388 . S
C3725 C3726 1.390 . S
C3726 C3725 1.390 . S
C3726 C3727 1.394 . S
C3726 C3732 1.465 . S
C3727 C3722 1.399 . S
C3727 C3726 1.394 . S
C3727 C3728 1.516 . S
C3728 C3727 1.516 . S
C3728 C3729 1.502 . S
C3728 C3730 1.561 . S
C3728 C3731 1.526 . S
C3729 H3713 0.959 . S
C3729 H3714 0.959 . S
C3729 H3715 0.961 . S
C3729 C3728 1.502 . S
C3730 H3716 0.960 . S
C3730 H3717 0.961 . S
C3730 H3718 0.959 . S
C3730 C3728 1.561 . S
C3731 C3728 1.526 . S
C3731 C3732 1.396 . S
C3731 C3736 1.390 . S
C3732 C3726 1.465 . S
C3732 C3731 1.396 . S
C3732 C3733 1.399 . S
C3733 H3719 0.929 . S
C3733 C3732 1.399 . S
C3733 C3734 1.385 . S
C3734 H3720 0.931 . S
C3734 C3733 1.385 . S
C3734 C3735 1.389 . S
C3735 C3734 1.389 . S
C3735 C3736 1.387 . S
C3736 H3721 0.930 . S
C3736 C3731 1.390 . S
C3736 C3735 1.387 . S
H3737 C3749 0.930 . S
H3738 C3751 0.930 . S
H3739 C3752 0.930 . S
H3740 C3756 0.959 . S
H3741 C3756 0.959 . S
H3742 C3756 0.961 . S
H3743 C3757 0.960 . S
H3744 C3757 0.961 . S
H3745 C3757 0.959 . S
H3746 C3760 0.929 . S
H3747 C3761 0.931 . S
H3748 C3763 0.930 . S
C3749 H3737 0.930 . S
C3749 C3750 1.399 . S
C3749 C3754 1.399 . S
C3750 C3749 1.399 . S
C3750 C3751 1.376 . S
C3751 H3738 0.930 . S
C3751 C3750 1.376 . S
C3751 C3752 1.388 . S
C3752 H3739 0.930 . S
C3752 C3751 1.388 . S
C3752 C3753 1.390 . S
C3753 C3752 1.390 . S
C3753 C3754 1.394 . S
C3753 C3759 1.465 . S
C3754 C3749 1.399 . S
C3754 C3753 1.394 . S
C3754 C3755 1.516 . S
C3755 C3754 1.516 . S
C3755 C3756 1.502 . S
C3755 C3757 1.561 . S
C3755 C3758 1.526 . S
C3756 H3740 0.959 . S
C3756 H3741 0.959 . S
C3756 H3742 0.961 . S
C3756 C3755 1.502 . S
C3757 H3743 0.960 . S
C3757 H3744 0.961 . S
C3757 H3745 0.959 . S
C3757 C3755 1.561 . S
C3758 C3755 1.526 . S
C3758 C3759 1.396 . S
C3758 C3763 1.390 . S
C3759 C3753 1.465 . S
C3759 C3758 1.396 . S
C3759 C3760 1.399 . S
C3760 H3746 0.929 . S
C3760 C3759 1.399 . S
C3760 C3761 1.385 . S
C3761 H3747 0.931 . S
C3761 C3760 1.385 . S
C3761 C3762 1.389 . S
C3762 C3761 1.389 . S
C3762 C3763 1.387 . S
C3763 H3748 0.930 . S
C3763 C3758 1.390 . S
C3763 C3762 1.387 . S
H3764 C3776 0.930 . S
H3765 C3778 0.930 . S
H3766 C3779 0.930 . S
H3767 C3783 0.959 . S
H3768 C3783 0.959 . S
H3769 C3783 0.961 . S
H3770 C3784 0.960 . S
H3771 C3784 0.961 . S
H3772 C3784 0.959 . S
H3773 C3787 0.929 . S
H3774 C3788 0.931 1_556 S
H3775 C3790 0.930 . S
C3776 H3764 0.930 . S
C3776 C3777 1.399 . S
C3776 C3781 1.399 . S
C3777 C3776 1.399 . S
C3777 C3778 1.376 . S
C3778 H3765 0.930 . S
C3778 C3777 1.376 . S
C3778 C3779 1.388 . S
C3779 H3766 0.930 . S
C3779 C3778 1.388 . S
C3779 C3780 1.390 . S
C3780 C3779 1.390 . S
C3780 C3781 1.394 . S
C3780 C3786 1.465 . S
C3781 C3776 1.399 . S
C3781 C3780 1.394 . S
C3781 C3782 1.516 . S
C3782 C3781 1.516 . S
C3782 C3783 1.502 . S
C3782 C3784 1.561 . S
C3782 C3785 1.526 . S
C3783 H3767 0.959 . S
C3783 H3768 0.959 . S
C3783 H3769 0.961 . S
C3783 C3782 1.502 . S
C3784 H3770 0.960 . S
C3784 H3771 0.961 . S
C3784 H3772 0.959 . S
C3784 C3782 1.561 . S
C3785 C3782 1.526 . S
C3785 C3786 1.396 . S
C3785 C3790 1.390 . S
C3786 C3780 1.465 . S
C3786 C3785 1.396 . S
C3786 C3787 1.399 . S
C3787 H3773 0.929 . S
C3787 C3786 1.399 . S
C3787 C3788 1.385 . S
C3788 H3774 0.931 1_554 S
C3788 C3787 1.385 . S
C3788 C3789 1.389 . S
C3789 C3788 1.389 . S
C3789 C3790 1.387 . S
C3790 H3775 0.930 . S
C3790 C3785 1.390 . S
C3790 C3789 1.387 . S
H3791 C3803 0.930 . S
H3792 C3805 0.930 . S
H3793 C3806 0.930 . S
H3794 C3810 0.959 . S
H3795 C3810 0.959 . S
H3796 C3810 0.961 . S
H3797 C3811 0.960 . S
H3798 C3811 0.961 . S
H3799 C3811 0.959 . S
H3800 C3814 0.929 . S
H3801 C3815 0.931 . S
H3802 C3817 0.895 1_556 S
C3803 H3791 0.930 . S
C3803 C3804 1.399 . S
C3803 C3808 1.399 . S
C3804 C3803 1.399 . S
C3804 C3805 1.376 . S
C3805 H3792 0.930 . S
C3805 C3804 1.376 . S
C3805 C3806 1.388 . S
C3806 H3793 0.930 . S
C3806 C3805 1.388 . S
C3806 C3807 1.390 . S
C3807 C3806 1.390 . S
C3807 C3808 1.394 . S
C3807 C3813 1.465 . S
C3808 C3803 1.399 . S
C3808 C3807 1.394 . S
C3808 C3809 1.516 . S
C3809 C3808 1.516 . S
C3809 C3810 1.502 . S
C3809 C3811 1.561 . S
C3809 C3812 1.526 . S
C3810 H3794 0.959 . S
C3810 H3795 0.959 . S
C3810 H3796 0.961 . S
C3810 C3809 1.502 . S
C3811 H3797 0.960 . S
C3811 H3798 0.961 . S
C3811 H3799 0.959 . S
C3811 C3809 1.561 . S
C3812 C3809 1.526 . S
C3812 C3813 1.396 . S
C3812 C3817 1.390 . S
C3813 C3807 1.465 . S
C3813 C3812 1.396 . S
C3813 C3814 1.399 . S
C3814 H3800 0.929 . S
C3814 C3813 1.399 . S
C3814 C3815 1.385 . S
C3815 H3801 0.931 . S
C3815 C3814 1.385 . S
C3815 C3816 1.389 . S
C3816 C3815 1.389 . S
C3816 C3817 1.387 . S
C3817 H3802 0.895 1_554 S
C3817 C3812 1.390 . S
C3817 C3816 1.387 . S
H3818 C3830 0.930 . S
H3819 C3832 0.930 . S
H3820 C3833 0.930 . S
H3821 C3837 0.959 . S
H3822 C3837 0.959 . S
H3823 C3837 0.961 . S
H3824 C3838 0.960 . S
H3825 C3838 0.961 . S
H3826 C3838 0.959 . S
H3827 C3841 0.929 . S
H3828 C3842 0.931 . S
H3829 C3844 0.930 . S
C3830 H3818 0.930 . S
C3830 C3831 1.399 . S
C3830 C3835 1.399 . S
C3831 C3830 1.399 . S
C3831 C3832 1.376 . S
C3832 H3819 0.930 . S
C3832 C3831 1.376 . S
C3832 C3833 1.388 . S
C3833 H3820 0.930 . S
C3833 C3832 1.388 . S
C3833 C3834 1.390 . S
C3834 C3833 1.390 . S
C3834 C3835 1.394 . S
C3834 C3840 1.465 . S
C3835 C3830 1.399 . S
C3835 C3834 1.394 . S
C3835 C3836 1.516 . S
C3836 C3835 1.516 . S
C3836 C3837 1.502 . S
C3836 C3838 1.561 . S
C3836 C3839 1.526 . S
C3837 H3821 0.959 . S
C3837 H3822 0.959 . S
C3837 H3823 0.961 . S
C3837 C3836 1.502 . S
C3838 H3824 0.960 . S
C3838 H3825 0.961 . S
C3838 H3826 0.959 . S
C3838 C3836 1.561 . S
C3839 C3836 1.526 . S
C3839 C3840 1.396 . S
C3839 C3844 1.390 . S
C3840 C3834 1.465 . S
C3840 C3839 1.396 . S
C3840 C3841 1.399 . S
C3841 H3827 0.929 . S
C3841 C3840 1.399 . S
C3841 C3842 1.385 . S
C3842 H3828 0.931 . S
C3842 C3841 1.385 . S
C3842 C3843 1.389 . S
C3843 C3842 1.389 . S
C3843 C3844 1.387 . S
C3844 H3829 0.930 . S
C3844 C3839 1.390 . S
C3844 C3843 1.387 . S
H3845 C3857 0.930 . S
H3846 C3859 0.930 . S
H3847 C3860 0.930 . S
H3848 C3864 0.959 . S
H3849 C3864 0.959 . S
H3850 C3864 0.961 . S
H3851 C3865 0.960 . S
H3852 C3865 0.961 . S
H3853 C3865 0.959 . S
H3854 C3868 0.929 . S
H3855 C3869 0.931 . S
H3856 C3871 0.930 . S
C3857 H3845 0.930 . S
C3857 C3858 1.399 . S
C3857 C3862 1.399 . S
C3858 C3857 1.399 . S
C3858 C3859 1.376 . S
C3859 H3846 0.930 . S
C3859 C3858 1.376 . S
C3859 C3860 1.388 . S
C3860 H3847 0.930 . S
C3860 C3859 1.388 . S
C3860 C3861 1.390 . S
C3861 C3860 1.390 . S
C3861 C3862 1.394 . S
C3861 C3867 1.465 . S
C3862 C3857 1.399 . S
C3862 C3861 1.394 . S
C3862 C3863 1.516 . S
C3863 C3862 1.516 . S
C3863 C3864 1.502 . S
C3863 C3865 1.561 . S
C3863 C3866 1.526 . S
C3864 H3848 0.959 . S
C3864 H3849 0.959 . S
C3864 H3850 0.961 . S
C3864 C3863 1.502 . S
C3865 H3851 0.960 . S
C3865 H3852 0.961 . S
C3865 H3853 0.959 . S
C3865 C3863 1.561 . S
C3866 C3863 1.526 . S
C3866 C3867 1.396 . S
C3866 C3871 1.390 . S
C3867 C3861 1.465 . S
C3867 C3866 1.396 . S
C3867 C3868 1.399 . S
C3868 H3854 0.929 . S
C3868 C3867 1.399 . S
C3868 C3869 1.385 . S
C3869 H3855 0.931 . S
C3869 C3868 1.385 . S
C3869 C3870 1.389 . S
C3870 C3869 1.389 . S
C3870 C3871 1.387 . S
C3871 H3856 0.930 . S
C3871 C3866 1.390 . S
C3871 C3870 1.387 . S
C1293 C1002 1.545 . S
C1305 C2 1.526 . S
C1320 C962 1.588 . S
C1332 C42 1.596 . S
C1347 C1082 1.585 . S
C1359 C82 1.596 . S
C1374 C1042 1.578 . S
C1386 C122 1.595 . S
C1401 C183 1.522 . S
C1413 C1183 1.524 . S
C1428 C223 1.580 . S
C1440 C1143 1.574 . S
C1455 C263 1.589 . S
C1467 C1263 1.584 . S
C1482 C1223 1.529 . S
C1494 C303 1.535 . S
C1509 C682 1.592 . S
C1521 C322 1.570 . S
C1536 C642 1.577 . S
C1548 C362 1.594 . S
C1563 C762 1.548 . S
C1575 C402 1.527 . S
C1590 C722 1.545 . S
C1602 C442 1.526 . S
C1617 C503 1.529 . S
C1629 C863 1.534 . S
C1644 C823 1.528 . S
C1656 C543 1.533 . S
C1671 C583 1.590 . S
C1683 C943 1.585 . S
C1698 C903 1.588 . S
C1710 C623 1.583 . S
C1725 C4 0.586 . S
C1737 C825 0.513 . S
C1752 C545 0.561 . S
C1764 C44 0.531 . S
C1779 C1225 0.561 . S
C1791 C84 0.554 . S
C1806 C124 0.515 . S
C1818 C305 0.587 . S
C1833 C185 0.536 . S
C1845 C644 0.576 . S
C1860 C225 0.554 . S
C1872 C364 0.537 . S
C1887 C265 0.543 . S
C1899 C1044 0.570 . S
C1914 C1145 0.525 . S
C1926 C324 0.584 . S
C1941 C905 0.563 . S
C1953 C404 0.529 . S
C1968 C625 0.563 . S
C1980 C444 0.531 . S
C1995 C964 0.588 . S
C2007 C505 0.513 . S
C2022 C585 0.543 . S
C2034 C724 0.548 . S
C2049 C1185 0.547 . S
C2061 C684 0.566 . S
C2076 C764 0.588 . S
C2088 C945 0.513 . S
C2103 C1004 0.514 . S
C2115 C865 0.586 . S
C2130 C1084 0.515 . S
C2142 C1265 0.587 . S
C2157 C25 1.326 . S
C2169 C785 1.269 . S
C2184 C65 1.243 . S
C2196 C745 1.337 . S
C2211 C105 1.224 . S
C2223 C705 1.361 . S
C2238 C145 1.223 . S
C2250 C665 1.358 . S
C2265 C164 1.343 . S
C2277 C924 1.274 . S
C2292 C204 1.357 . S
C2304 C884 1.251 . S
C2319 C244 1.235 . S
C2331 C844 1.325 . S
C2346 C284 1.353 . S
C2358 C804 1.259 . S
C2373 C345 1.245 . S
C2385 C1105 1.335 . S
C2400 C385 1.250 . S
C2412 C1065 1.330 . S
C2427 C425 1.253 . S
C2439 C1025 1.327 . S
C2454 C465 1.254 . S
C2466 C985 1.325 . S
C2481 C1244 1.226 . S
C2493 C484 1.339 . S
C2508 C1204 1.345 . S
C2520 C524 1.273 . S
C2535 C1164 1.225 . S
C2547 C564 1.342 . S
C2562 C1124 1.343 . S
C2574 C604 1.273 . S
C2589 C103 1.850 . S
C2601 C23 1.849 . S
C2616 C143 1.830 . S
C2628 C63 1.831 . S
C2643 C242 1.837 . S
C2655 C162 1.847 . S
C2670 C202 1.839 . S
C2682 C282 1.848 . S
C2697 C423 1.822 . S
C2709 C343 1.823 . S
C2724 C383 1.847 . S
C2736 C463 1.847 . S
C2751 C562 1.823 . S
C2763 C482 1.820 . S
C2778 C522 1.853 . S
C2790 C602 1.850 . S
C2805 C663 1.843 . S
C2817 C743 1.843 . S
C2832 C703 1.826 . S
C2844 C783 1.827 . S
C2859 C882 1.822 . S
C2871 C802 1.830 . S
C2886 C842 1.853 . S
C2898 C922 1.851 . S
C2913 C983 1.849 . S
C2925 C1063 1.849 . S
C2940 C1103 1.837 . S
C2952 C1023 1.839 . S
C2967 C1122 1.843 . S
C2979 C1202 1.834 . S
C2994 C1162 1.820 . S
C3006 C1242 1.826 . S
C3021 C31 3.104 1_566 S
C3033 C311 3.110 . S
C3048 C1231 3.093 . S
C3060 C71 3.109 1_556 S
C3075 C111 3.105 . S
C3087 C551 3.109 . S
C3102 C151 3.107 . S
C3114 C831 3.098 . S
C3129 C140 3.109 . S
C3141 C180 3.110 1_544 S
C3156 C220 3.103 1_554 S
C3168 C1060 3.094 . S
C3183 C380 3.109 . S
C3195 C260 3.107 . S
C3210 C660 3.110 . S
C3222 C300 3.105 1_545 S
C3237 C351 3.110 . S
C3249 C631 3.094 . S
C3264 C911 3.109 . S
C3276 C391 3.101 . S
C3291 C431 3.112 . S
C3303 C231 3.102 . S
C3318 C1151 3.101 . S
C3330 C471 3.114 . S
C3345 C500 3.114 . S
C3357 C460 3.103 . S
C3372 C540 3.114 . S
C3384 C740 3.102 . S
C3399 C580 3.100 . S
C3411 C60 3.099 . S
C3426 C980 3.093 . S
C3438 C620 3.108 . S
C3453 C671 3.104 1_565 S
C3465 C951 3.110 . S
C3480 C711 3.100 . S
C3492 C591 3.104 . S
C3507 C751 3.104 . S
C3519 C1191 3.109 . S
C3534 C791 3.104 1_565 S
C3546 C191 3.110 . S
C3561 C820 3.110 1_545 S
C3573 C780 3.106 . S
C3588 C420 3.107 . S
C3600 C860 3.102 . S
C3615 C1020 3.092 . S
C3627 C900 3.108 . S
C3642 C940 3.113 1_545 S
C3654 C20 3.104 . S
C3669 C1271 3.100 . S
C3681 C991 3.103 1_556 S
C3696 C271 3.101 . S
C3708 C1031 3.102 1_556 S
C3723 C871 3.092 . S
C3735 C1071 3.110 . S
C3750 C1111 3.105 . S
C3762 C511 3.110 . S
C3777 C1100 3.093 . S
C3789 C1140 3.108 1_554 S
C3804 C100 3.099 . S
C3816 C1180 3.101 1_554 S
C3831 C700 3.110 . S
C3843 C1220 3.107 . S
C3858 C1260 3.114 . S
C3870 C340 3.105 . S
