# Generated by pormake.
# Topology uol, (4)-cn, num edge types: 1
# Building blocks:
#     Node 0, Type 0, BuildingBlock: QUQFOY_clean_sbu_1, # of connection points: 4
#     Node 1, Type 0, BuildingBlock: QUQFOY_clean_sbu_1, # of connection points: 4
#     Node 2, Type 0, BuildingBlock: QUQFOY_clean_sbu_1, # of connection points: 4
#     Node 3, Type 0, BuildingBlock: QUQFOY_clean_sbu_1, # of connection points: 4
#     Node 4, Type 0, BuildingBlock: QUQFOY_clean_sbu_1, # of connection points: 4
#     Node 5, Type 0, BuildingBlock: QUQFOY_clean_sbu_1, # of connection points: 4
#     Node 6, Type 0, BuildingBlock: QUQFOY_clean_sbu_1, # of connection points: 4
#     Node 7, Type 0, BuildingBlock: QUQFOY_clean_sbu_1, # of connection points: 4
#     Node 8, Type 0, BuildingBlock: QUQFOY_clean_sbu_1, # of connection points: 4
#     Node 9, Type 0, BuildingBlock: QUQFOY_clean_sbu_1, # of connection points: 4
#     Node 10, Type 0, BuildingBlock: QUQFOY_clean_sbu_1, # of connection points: 4
#     Node 11, Type 0, BuildingBlock: QUQFOY_clean_sbu_1, # of connection points: 4
#     Edge 12, Type (0, 0), BuildingBlock: AJUNOK_clean_linker_0, # of connection points: 2
#     Edge 13, Type (0, 0), BuildingBlock: AJUNOK_clean_linker_0, # of connection points: 2
#     Edge 14, Type (0, 0), BuildingBlock: AJUNOK_clean_linker_0, # of connection points: 2
#     Edge 15, Type (0, 0), BuildingBlock: AJUNOK_clean_linker_0, # of connection points: 2
#     Edge 16, Type (0, 0), BuildingBlock: AJUNOK_clean_linker_0, # of connection points: 2
#     Edge 17, Type (0, 0), BuildingBlock: AJUNOK_clean_linker_0, # of connection points: 2
#     Edge 18, Type (0, 0), BuildingBlock: AJUNOK_clean_linker_0, # of connection points: 2
#     Edge 19, Type (0, 0), BuildingBlock: AJUNOK_clean_linker_0, # of connection points: 2
#     Edge 20, Type (0, 0), BuildingBlock: AJUNOK_clean_linker_0, # of connection points: 2
#     Edge 21, Type (0, 0), BuildingBlock: AJUNOK_clean_linker_0, # of connection points: 2
#     Edge 22, Type (0, 0), BuildingBlock: AJUNOK_clean_linker_0, # of connection points: 2
#     Edge 23, Type (0, 0), BuildingBlock: AJUNOK_clean_linker_0, # of connection points: 2
#     Edge 24, Type (0, 0), BuildingBlock: AJUNOK_clean_linker_0, # of connection points: 2
#     Edge 25, Type (0, 0), BuildingBlock: AJUNOK_clean_linker_0, # of connection points: 2
#     Edge 26, Type (0, 0), BuildingBlock: AJUNOK_clean_linker_0, # of connection points: 2
#     Edge 27, Type (0, 0), BuildingBlock: AJUNOK_clean_linker_0, # of connection points: 2
#     Edge 28, Type (0, 0), BuildingBlock: AJUNOK_clean_linker_0, # of connection points: 2
#     Edge 29, Type (0, 0), BuildingBlock: AJUNOK_clean_linker_0, # of connection points: 2
#     Edge 30, Type (0, 0), BuildingBlock: AJUNOK_clean_linker_0, # of connection points: 2
#     Edge 31, Type (0, 0), BuildingBlock: AJUNOK_clean_linker_0, # of connection points: 2
#     Edge 32, Type (0, 0), BuildingBlock: AJUNOK_clean_linker_0, # of connection points: 2
#     Edge 33, Type (0, 0), BuildingBlock: AJUNOK_clean_linker_0, # of connection points: 2
#     Edge 34, Type (0, 0), BuildingBlock: AJUNOK_clean_linker_0, # of connection points: 2
#     Edge 35, Type (0, 0), BuildingBlock: AJUNOK_clean_linker_0, # of connection points: 2
# Relax obj value: 0.038
# Max RMSD: 0.149
# Mean RMSD: 0.149
data_MOF--net-uol--node1-QUQFOY_clean_sbu_1--edge1-AJUNOK_clean_linker_0
_symmetry_space_group_name_H-M    P1
_symmetry_Int_Tables_number       1
_symmetry_cell_setting            triclinic
loop_
_symmetry_equiv_pos_as_xyz
'x, y, z'
_cell_length_a     24.451582
_cell_length_b     24.374626
_cell_length_c     52.716898
_cell_angle_alpha  89.913893
_cell_angle_beta   90.069423
_cell_angle_gamma 120.03051
loop_
_atom_site_label
_atom_site_type_symbol
_atom_site_fract_x
_atom_site_fract_y
_atom_site_fract_z
_atom_type_partial_charge
O0 O 0.23036 0.36031 0.07488 0.0
Cd1 Cd 0.22556 0.39706 0.10983 0.0
Cd2 Cd 0.125 0.28039 0.11423 0.0
O3 O 0.13613 0.27445 0.07532 0.0
O4 O 0.27366 0.49138 0.10683 0.0
O5 O 0.1706 0.43659 0.11322 0.0
C6 C 0.22104 0.49088 0.10985 0.0
C7 C 0.03248 0.25202 0.13714 0.0
C8 C 0.18745 0.31125 0.0637 0.0
C9 C 0.23599 0.31447 0.1484 0.0
O10 O 0.18733 0.27111 0.13738 0.0
O11 O 0.25827 0.3719 0.14173 0.0
O12 O 0.04192 0.20964 0.12665 0.0
O13 O 0.07231 0.31075 0.1321 0.0
O14 O 0.8796 0.23455 0.24164 0.0
Cd15 Cd 0.84098 0.22938 0.27731 0.0
Cd16 Cd 0.85966 0.13115 0.28041 0.0
O17 O 0.8703 0.13985 0.24117 0.0
O18 O 0.79356 0.27645 0.27534 0.0
O19 O 0.74692 0.17309 0.28155 0.0
C20 C 0.74203 0.22306 0.27845 0.0
C21 C 0.79802 0.04105 0.30521 0.0
C22 C 0.88411 0.19147 0.2298 0.0
C23 C 0.94088 0.24368 0.31285 0.0
O24 O 0.93549 0.19583 0.30112 0.0
O25 O 0.90216 0.26297 0.30831 0.0
O26 O 0.84769 0.04851 0.29353 0.0
O27 O 0.77962 0.08138 0.30047 0.0
O28 O 0.66231 0.88219 0.40942 0.0
Cd29 Cd 0.62617 0.83926 0.44418 0.0
Cd30 Cd 0.74648 0.86034 0.44886 0.0
O31 O 0.75188 0.88089 0.41012 0.0
O32 O 0.53221 0.79153 0.44105 0.0
O33 O 0.58851 0.74465 0.44728 0.0
C34 C 0.53386 0.73981 0.444 0.0
C35 C 0.78072 0.79918 0.47063 0.0
C36 C 0.71288 0.89233 0.39843 0.0
C37 C 0.70519 0.92944 0.48429 0.0
O38 O 0.75033 0.92652 0.47381 0.0
O39 O 0.64887 0.89533 0.47645 0.0
O40 O 0.82053 0.853 0.46064 0.0
O41 O 0.72155 0.77658 0.46543 0.0
O42 O 0.80553 0.66619 0.57449 0.0
Cd43 Cd 0.81042 0.63166 0.61001 0.0
Cd44 Cd 0.90851 0.74977 0.6133 0.0
O45 O 0.89914 0.75268 0.57409 0.0
O46 O 0.75842 0.53743 0.6074 0.0
O47 O 0.86139 0.58757 0.61388 0.0
C48 C 0.80932 0.5347 0.61052 0.0
C49 C 0.99975 0.78079 0.6377 0.0
C50 C 0.84787 0.71447 0.56273 0.0
C51 C 0.79598 0.71677 0.64595 0.0
O52 O 0.84377 0.75984 0.63441 0.0
O53 O 0.77697 0.65885 0.6411 0.0
O54 O 0.99057 0.82187 0.62585 0.0
O55 O 0.96048 0.72155 0.63328 0.0
O56 O 0.15425 0.79976 0.74161 0.0
Cd57 Cd 0.195 0.80297 0.77665 0.0
Cd58 Cd 0.18246 0.90647 0.781 0.0
O59 O 0.16585 0.89552 0.74202 0.0
O60 O 0.23676 0.75077 0.77376 0.0
O61 O 0.28993 0.85419 0.78002 0.0
C62 C 0.29044 0.80187 0.77681 0.0
C63 C 0.24601 0.99907 0.80415 0.0
C64 C 0.14993 0.84378 0.73039 0.0
C65 C 0.10381 0.79612 0.81527 0.0
O66 O 0.11022 0.84516 0.80409 0.0
O67 O 0.13737 0.77221 0.80862 0.0
O68 O 0.19495 0.98989 0.79312 0.0
O69 O 0.2649 0.95917 0.79938 0.0
O70 O 0.37781 0.15499 0.90912 0.0
Cd71 Cd 0.41141 0.19609 0.94451 0.0
Cd72 Cd 0.29103 0.1693 0.9478 0.0
O73 O 0.28913 0.15775 0.90864 0.0
O74 O 0.50533 0.23927 0.94193 0.0
O75 O 0.45421 0.2914 0.94787 0.0
C76 C 0.5073 0.29273 0.94482 0.0
C77 C 0.25615 0.22676 0.97186 0.0
C78 C 0.32878 0.14679 0.89734 0.0
C79 C 0.32996 0.09586 0.98117 0.0
O80 O 0.2851 0.0961 0.96912 0.0
O81 O 0.38679 0.13735 0.9762 0.0
O82 O 0.21679 0.17543 0.96019 0.0
O83 O 0.31568 0.24916 0.96749 0.0
O84 O 0.66379 0.7979 0.80799 0.0
Cd85 Cd 0.62539 0.80116 0.77321 0.0
Cd86 Cd 0.74362 0.90592 0.7682 0.0
O87 O 0.74961 0.89241 0.80699 0.0
O88 O 0.53162 0.74961 0.7766 0.0
O89 O 0.58216 0.85303 0.77019 0.0
C90 C 0.5293 0.80095 0.7736 0.0
C91 C 0.77727 1.0012 0.7463 0.0
C92 C 0.71309 0.84124 0.81887 0.0
C93 C 0.70727 0.79562 0.73297 0.0
O94 O 0.75076 0.84495 0.74355 0.0
O95 O 0.65068 0.77038 0.74084 0.0
O96 O 0.81724 0.98816 0.75668 0.0
O97 O 0.71804 0.9637 0.75114 0.0
O98 O 0.88212 0.66694 0.97593 0.0
Cd99 Cd 0.84136 0.63039 0.9408 0.0
Cd100 Cd 0.85863 0.74775 0.93653 0.0
O101 O 0.8727 0.75227 0.97566 0.0
O102 O 0.79958 0.53635 0.94388 0.0
O103 O 0.74638 0.58633 0.9375 0.0
C104 C 0.74587 0.53354 0.9409 0.0
C105 C 0.79814 0.77884 0.91235 0.0
C106 C 0.88723 0.71537 0.98729 0.0
C107 C 0.93601 0.71419 0.90294 0.0
O108 O 0.93199 0.75766 0.91451 0.0
O109 O 0.89924 0.65655 0.9089 0.0
O110 O 0.84859 0.81989 0.924 0.0
O111 O 0.77788 0.7196 0.91703 0.0
O112 O 0.23849 0.87349 0.1418 0.0
Cd113 Cd 0.23276 0.83249 0.10681 0.0
Cd114 Cd 0.13406 0.85512 0.10178 0.0
O115 O 0.14861 0.87416 0.14072 0.0
O116 O 0.27827 0.78391 0.10989 0.0
O117 O 0.17549 0.73807 0.10308 0.0
C118 C 0.22485 0.73258 0.10665 0.0
C119 C 0.03861 0.79735 0.07962 0.0
C120 C 0.19824 0.88407 0.15267 0.0
C121 C 0.24718 0.92592 0.06747 0.0
O122 O 0.19779 0.92168 0.07721 0.0
O123 O 0.26893 0.89135 0.07538 0.0
O124 O 0.05391 0.85087 0.09017 0.0
O125 O 0.07378 0.77286 0.08449 0.0
O126 O 0.37082 0.22861 0.30917 0.0
Cd127 Cd 0.40768 0.22438 0.27415 0.0
Cd128 Cd 0.29142 0.12253 0.26998 0.0
O129 O 0.28672 0.13297 0.30899 0.0
O130 O 0.50185 0.27293 0.27701 0.0
O131 O 0.44728 0.16935 0.27109 0.0
C132 C 0.50139 0.22005 0.27436 0.0
C133 C 0.26179 0.03068 0.24626 0.0
C134 C 0.32278 0.1848 0.32053 0.0
C135 C 0.32358 0.23297 0.23587 0.0
O136 O 0.28085 0.18497 0.24746 0.0
O137 O 0.3812 0.25548 0.24203 0.0
O138 O 0.22012 0.03983 0.25746 0.0
O139 O 0.32059 0.07001 0.25115 0.0
O140 O 0.15336 0.36803 0.47508 0.0
Cd141 Cd 0.19632 0.40653 0.44054 0.0
Cd142 Cd 0.17942 0.28768 0.43497 0.0
O143 O 0.15925 0.28063 0.47374 0.0
O144 O 0.24335 0.50065 0.44414 0.0
O145 O 0.29072 0.44489 0.43765 0.0
C146 C 0.29513 0.49943 0.44119 0.0
C147 C 0.23853 0.25175 0.41277 0.0
C148 C 0.14561 0.31767 0.48573 0.0
C149 C 0.10808 0.32765 0.40001 0.0
O150 O 0.11231 0.2829 0.41035 0.0
O151 O 0.1408 0.38406 0.40811 0.0
O152 O 0.18542 0.21271 0.42329 0.0
O153 O 0.26198 0.31135 0.41772 0.0
O154 O 0.80347 0.15881 0.64221 0.0
Cd155 Cd 0.80873 0.19803 0.60662 0.0
Cd156 Cd 0.90492 0.17547 0.6035 0.0
O157 O 0.89647 0.16494 0.64275 0.0
O158 O 0.75732 0.24068 0.60914 0.0
O159 O 0.86024 0.29323 0.60259 0.0
C160 C 0.80841 0.29427 0.60594 0.0
C161 C 0.99561 0.23326 0.57857 0.0
C162 C 0.84545 0.15259 0.65407 0.0
C163 C 0.79153 0.09638 0.5713 0.0
O164 O 0.83853 0.10005 0.58306 0.0
O165 O 0.77435 0.13684 0.57566 0.0
O166 O 0.98571 0.18315 0.59077 0.0
O167 O 0.95754 0.25458 0.58294 0.0
C168 C 0.27747 0.66714 0.10676 0.0
C169 C 0.22128 0.66979 0.10723 0.0
C170 C 0.27657 0.60925 0.10763 0.0
C171 C 0.21946 0.55118 0.1092 0.0
H172 H 0.3229 0.71024 0.10561 0.0
H173 H 0.32138 0.61031 0.10714 0.0
S174 S 0.05874 0.53149 0.11141 0.0
N175 N 0.10654 0.60889 0.10954 0.0
N176 N 0.10484 0.49999 0.11136 0.0
C177 C 0.16273 0.55292 0.1098 0.0
C178 C 0.16363 0.61213 0.10874 0.0
C179 C 0.67721 0.27642 0.27696 0.0
C180 C 0.67958 0.21991 0.2779 0.0
C181 C 0.61956 0.27569 0.27581 0.0
C182 C 0.56147 0.2184 0.27535 0.0
H183 H 0.72034 0.32198 0.27713 0.0
H184 H 0.6208 0.32071 0.27515 0.0
S185 S 0.54099 0.05681 0.27752 0.0
N186 N 0.61826 0.10467 0.27844 0.0
N187 N 0.50994 0.10329 0.27608 0.0
C188 C 0.56293 0.16136 0.27627 0.0
C189 C 0.62185 0.16212 0.27762 0.0
C190 C 0.41591 0.67539 0.44249 0.0
C191 C 0.47439 0.67732 0.44348 0.0
C192 C 0.35873 0.61781 0.44178 0.0
C193 C 0.3572 0.55931 0.44186 0.0
H194 H 0.41399 0.71883 0.44231 0.0
H195 H 0.31528 0.61943 0.44105 0.0
S196 S 0.497 0.53755 0.44444 0.0
N197 N 0.5272 0.61517 0.44466 0.0
N198 N 0.41962 0.50685 0.44315 0.0
C199 C 0.41528 0.56029 0.44282 0.0
C200 C 0.47378 0.6192 0.4437 0.0
C201 C 0.86471 0.47116 0.60902 0.0
C202 C 0.80799 0.47291 0.60963 0.0
C203 C 0.8645 0.41345 0.60751 0.0
C204 C 0.80756 0.35498 0.60674 0.0
H205 H 0.90981 0.51476 0.60953 0.0
H206 H 0.90944 0.41478 0.60715 0.0
S207 S 0.64583 0.33312 0.60791 0.0
N208 N 0.69313 0.41056 0.60935 0.0
N209 N 0.69274 0.3027 0.60663 0.0
C210 C 0.75049 0.35606 0.60738 0.0
C211 C 0.7507 0.41475 0.6088 0.0
C212 C 0.46657 0.85715 0.77463 0.0
C213 C 0.46789 0.80003 0.77434 0.0
C214 C 0.40921 0.85737 0.77567 0.0
C215 C 0.3507 0.80048 0.77627 0.0
H216 H 0.51021 0.90224 0.77417 0.0
H217 H 0.41088 0.90262 0.77582 0.0
S218 S 0.3278 0.6378 0.77587 0.0
N219 N 0.40511 0.68484 0.77479 0.0
N220 N 0.2979 0.68527 0.77663 0.0
C221 C 0.35135 0.74301 0.77598 0.0
C222 C 0.40969 0.74278 0.77505 0.0
C223 C 0.56976 0.41189 0.94314 0.0
C224 C 0.56858 0.35355 0.94416 0.0
C225 C 0.62708 0.46972 0.94188 0.0
C226 C 0.68565 0.47167 0.94177 0.0
H227 H 0.52605 0.41304 0.94312 0.0
H228 H 0.62533 0.51322 0.94112 0.0
S229 S 0.70886 0.33225 0.94443 0.0
N230 N 0.63153 0.30161 0.94514 0.0
N231 N 0.73863 0.40966 0.94286 0.0
C232 C 0.68512 0.41364 0.94289 0.0
C233 C 0.62684 0.35485 0.94406 0.0
C234 C 0.2464 0.21663 0.20196 0.0
C235 C 0.30466 0.25722 0.21367 0.0
C236 C 0.22591 0.23568 0.18078 0.0
C237 C 0.26228 0.29664 0.1703 0.0
H238 H 0.21608 0.16898 0.20902 0.0
H239 H 0.18039 0.20208 0.17281 0.0
S240 S 0.41889 0.42164 0.19368 0.0
N241 N 0.39922 0.36131 0.21311 0.0
N242 N 0.36005 0.39792 0.17324 0.0
C243 C 0.32087 0.3381 0.18172 0.0
C244 C 0.34226 0.31819 0.20334 0.0
C245 C 0.98623 0.31327 0.35148 0.0
C246 C 0.98933 0.27263 0.33321 0.0
C247 C 0.0266 0.33371 0.37275 0.0
C248 C 0.07068 0.31348 0.37648 0.0
H249 H 0.95088 0.32747 0.34989 0.0
H250 H 0.0214 0.36305 0.38685 0.0
S251 S 0.10499 0.21572 0.33263 0.0
N252 N 0.04623 0.21974 0.31907 0.0
N253 N 0.12023 0.2569 0.35908 0.0
C254 C 0.07667 0.27599 0.35774 0.0
C255 C 0.03651 0.25592 0.33609 0.0
C256 C 0.72348 0.05389 0.5322 0.0
C257 C 0.76115 0.04784 0.55106 0.0
C258 C 0.70239 1.01349 0.51094 0.0
C259 C 0.7189 0.96637 0.50788 0.0
H260 H 0.71241 0.09165 0.53328 0.0
H261 H 0.6757 0.02106 0.49632 0.0
S262 S 0.80741 0.9239 0.5534 0.0
N263 N 0.80684 0.98509 0.56647 0.0
N264 N 0.76853 0.91099 0.52644 0.0
C265 C 0.75314 0.95743 0.52721 0.0
C266 C 0.7739 0.99767 0.54885 0.0
C267 C 0.72544 0.69062 0.68432 0.0
C268 C 0.76637 0.73532 0.66635 0.0
C269 C 0.70381 0.70945 0.70552 0.0
C270 C 0.72307 0.7736 0.7095 0.0
H271 H 0.71182 0.64113 0.68252 0.0
H272 H 0.67419 0.67416 0.71937 0.0
S273 S 0.82116 0.90788 0.66643 0.0
N274 N 0.81859 0.84579 0.65274 0.0
N275 N 0.77913 0.88061 0.69262 0.0
C276 C 0.76093 0.81804 0.69107 0.0
C277 C 0.78226 0.79906 0.66948 0.0
C278 C 1.00634 0.79407 0.87125 0.0
C279 C 0.98011 0.73226 0.88108 0.0
C280 C 0.04548 0.81325 0.84999 0.0
C281 C 0.06109 0.77192 0.83755 0.0
H282 H 0.99595 0.82823 0.87978 0.0
H283 H 0.06409 0.86151 0.84341 0.0
S284 S 1.00624 0.60518 0.8557 0.0
N285 N 0.97298 0.62945 0.87676 0.0
N286 N 0.048 0.66625 0.83676 0.0
C287 C 0.03616 0.71011 0.84725 0.0
C288 C 0.99528 0.6901 0.86894 0.0
C289 C 0.2314 0.95797 0.02492 0.0
C290 C 0.27315 0.96559 0.04466 0.0
C291 C 0.25143 0.99849 1.00397 0.0
C292 C 0.31399 0.04913 1.00201 0.0
H293 H 0.18228 0.92089 0.02591 0.0
H294 H 0.21679 0.99094 0.98953 0.0
S295 S 0.44216 0.08834 0.04878 0.0
N296 N 0.3801 0.02552 0.06093 0.0
N297 N 0.41824 0.10332 0.02164 0.0
C298 C 0.35697 0.05604 1.02134 0.0
C299 C 0.33641 0.0139 0.04267 0.0
C300 C 0.26243 0.32756 0.02806 0.0
C301 C 0.20064 0.29428 0.03804 0.0
C302 C 0.27899 0.30768 1.00581 0.0
C303 C 0.23451 0.25387 0.99233 0.0
H304 H 0.29936 0.36788 0.03808 0.0
H305 H 0.32788 0.3334 0.99975 0.0
S306 S 0.06418 0.15467 1.00839 0.0
N307 N 0.09327 0.20811 0.0312 0.0
N308 N 0.12409 0.17109 0.98939 0.0
C309 C 0.17153 0.22253 1.00115 0.0
C310 C 0.15474 0.24257 0.02396 0.0
C311 C 0.92219 0.15903 0.19134 0.0
C312 C 0.91208 0.20438 0.20371 0.0
C313 C 0.95721 0.17345 0.16874 0.0
C314 C 0.98413 0.23404 0.15754 0.0
H315 H 0.9053 0.11268 0.19971 0.0
H316 H 0.96613 0.1377 0.16082 0.0
S317 S 0.9639 0.36705 0.17997 0.0
N318 N 0.92592 0.3105 0.20115 0.0
N319 N 0.99214 0.33743 0.159 0.0
C320 C 0.97078 0.27844 0.16868 0.0
C321 C 0.93472 0.26368 0.19163 0.0
C322 C 0.80401 0.96836 0.33748 0.0
C323 C 0.76936 0.994 0.32623 0.0
C324 C 0.78424 0.93357 0.36022 0.0
C325 C 0.72857 0.92229 0.37265 0.0
H326 H 0.84862 0.97786 0.32939 0.0
H327 H 0.8141 0.91722 0.3685 0.0
S328 S 0.61634 0.97217 0.34924 0.0
N329 N 0.67366 1.00078 0.32803 0.0
N330 N 0.63585 0.93495 0.3704 0.0
C331 C 0.69139 0.94435 0.3607 0.0
C332 C 0.71191 0.98025 0.33764 0.0
C333 C 0.87671 0.78751 0.52502 0.0
C334 C 0.83424 0.72958 0.53674 0.0
C335 C 0.86073 0.8074 0.50256 0.0
C336 C 0.80141 0.77049 0.49082 0.0
H337 H 0.92171 0.81929 0.53383 0.0
H338 H 0.894 0.85387 0.49518 0.0
S339 S 0.67655 0.61069 0.51148 0.0
N340 N 0.7327 0.63209 0.533 0.0
N341 N 0.7028 0.67004 0.49112 0.0
C342 C 0.76018 0.71064 0.50133 0.0
C343 C 0.77653 0.6901 0.52415 0.0
C344 C 0.08953 0.76952 0.69465 0.0
C345 C 0.12041 0.83159 0.70459 0.0
C346 C 0.05386 0.75432 0.67219 0.0
C347 C 0.04773 0.80052 0.65844 0.0
H348 H 0.09046 0.7314 0.70486 0.0
H349 H 0.02878 0.70527 0.66617 0.0
S350 S 0.12599 0.97199 0.67431 0.0
N351 N 0.14727 0.94086 0.69744 0.0
N352 N 0.08093 0.91261 0.65524 0.0
C353 C 0.08173 0.86363 0.66724 0.0
C354 C 0.11775 0.87904 0.69026 0.0
C355 C 0.26021 0.1084 0.85829 0.0
C356 C 0.31481 0.11842 0.8713 0.0
C357 C 0.241 0.07375 0.83554 0.0
C358 C 0.27516 0.04699 0.82484 0.0
H359 H 0.23051 0.12533 0.86619 0.0
H360 H 0.19698 0.06504 0.82708 0.0
S361 S 0.42613 0.06619 0.84933 0.0
N362 N 0.40657 0.10409 0.87007 0.0
N363 N 0.36981 0.03848 0.82767 0.0
C364 C 0.33194 0.05996 0.83673 0.0
C365 C 0.35188 0.09572 0.85982 0.0
C366 C 0.69856 0.7672 0.85486 0.0
C367 C 0.73014 0.82912 0.84473 0.0
C368 C 0.71834 0.75219 0.87757 0.0
C369 C 0.77033 0.79846 0.89137 0.0
H370 H 0.6597 0.72906 0.84464 0.0
H371 H 0.69414 0.70323 0.88375 0.0
S372 S 0.86424 0.96965 0.875 0.0
N373 N 0.81248 0.93834 0.8517 0.0
N374 N 0.84929 0.91048 0.89437 0.0
C375 C 0.79982 0.86144 0.88234 0.0
C376 C 0.77993 0.87663 0.85906 0.0
C377 C 0.94278 0.69669 0.02363 0.0
C378 C 0.91624 0.73152 1.0132 0.0
C379 C 0.97857 0.71582 0.04609 0.0
C380 C 0.9893 0.77046 0.05931 0.0
H381 H 0.93844 0.65574 1.01381 0.0
H382 H 1.00046 0.689 0.05243 0.0
S383 S 0.92286 0.8735 0.04221 0.0
N384 N 0.89787 0.81983 1.01947 0.0
N385 N 0.96454 0.85548 0.06164 0.0
C386 C 0.95931 0.80323 0.05011 0.0
C387 C 0.92308 0.7839 0.02711 0.0
C388 C 0.16812 0.92507 0.19096 0.0
C389 C 0.21206 0.91296 0.17862 0.0
C390 C 0.1831 0.95927 0.21383 0.0
C391 C 0.24294 0.98347 0.2253 0.0
H392 H 0.12238 0.90997 0.18249 0.0
H393 H 0.14845 0.9696 0.22181 0.0
S394 S 0.37255 0.95864 0.20266 0.0
N395 N 0.31628 0.92297 0.18125 0.0
N396 N 0.34425 0.98774 0.22383 0.0
C397 C 0.28603 0.96868 0.21401 0.0
C398 C 0.27067 0.93337 0.19083 0.0
C399 C 0.34 0.25871 0.35684 0.0
C400 C 0.30605 0.19727 0.34637 0.0
C401 C 0.32032 0.27477 0.37928 0.0
C402 C 0.26602 0.23018 0.39242 0.0
H403 H 0.38068 0.29575 0.34708 0.0
H404 H 0.34649 0.32354 0.38568 0.0
S405 S 0.16497 0.06043 0.37508 0.0
N406 N 0.21874 0.08992 0.35245 0.0
N407 N 0.18209 0.11985 0.39456 0.0
C408 C 0.23404 0.16742 0.38314 0.0
C409 C 0.25393 0.15114 0.36017 0.0
C410 C 0.08722 0.33342 0.52167 0.0
C411 C 0.11545 0.30012 0.51139 0.0
C412 C 0.05169 0.31367 0.54416 0.0
C413 C 0.04309 0.25999 0.55762 0.0
H414 H 0.09029 0.37381 0.51175 0.0
H415 H 0.0288 0.33947 0.5505 0.0
S416 S 0.11327 0.16031 0.54063 0.0
N417 N 0.13672 0.21371 0.51778 0.0
N418 N 0.07064 0.17693 0.56005 0.0
C419 C 0.07421 0.22843 0.54842 0.0
C420 C 0.11006 0.24831 0.52535 0.0
C421 C 0.85767 0.07328 0.71455 0.0
C422 C 0.79811 0.05052 0.72607 0.0
C423 C 0.87392 0.10906 0.69206 0.0
C424 C 0.83153 0.1241 0.6801 0.0
H425 H 0.89091 0.06039 0.72212 0.0
H426 H 0.91909 0.12252 0.68341 0.0
S427 S 0.6733 0.08435 0.70474 0.0
N428 N 0.69934 0.05159 0.72531 0.0
N429 N 0.72979 0.11936 0.68338 0.0
C430 C 0.77358 0.10559 0.69248 0.0
C431 C 0.75693 0.06873 0.71532 0.0
loop_
_geom_bond_atom_site_label_1
_geom_bond_atom_site_label_2
_geom_bond_distance
_geom_bond_site_symmetry_2
_ccdc_geom_bond_type
O0 Cd1 2.223 . S
O0 C8 1.315 . S
Cd1 O0 2.223 . S
Cd1 O4 2.297 . S
Cd1 O5 2.439 . S
Cd1 O11 2.240 . S
Cd2 O3 2.240 . S
Cd2 O10 2.223 . S
Cd2 O12 2.302 . S
Cd2 O13 2.439 . S
O3 Cd2 2.240 . S
O3 C8 1.279 . S
O4 Cd1 2.297 . S
O4 C6 1.247 . S
O5 Cd1 2.439 . S
O5 C6 1.208 . S
C6 O4 1.247 . S
C6 O5 1.208 . S
C7 O12 1.240 1_655 S
C7 O13 1.208 1_655 S
C8 O0 1.315 . S
C8 O3 1.279 . S
C9 O10 1.315 . S
C9 O11 1.279 . S
O10 Cd2 2.223 . S
O10 C9 1.315 . S
O11 Cd1 2.240 . S
O11 C9 1.279 . S
O12 Cd2 2.302 . S
O12 C7 1.240 1_455 S
O13 Cd2 2.439 . S
O13 C7 1.208 1_455 S
O14 Cd15 2.223 . S
O14 C22 1.315 . S
Cd15 O14 2.223 . S
Cd15 O18 2.297 . S
Cd15 O19 2.439 . S
Cd15 O25 2.240 . S
Cd16 O17 2.240 . S
Cd16 O24 2.223 . S
Cd16 O26 2.304 . S
Cd16 O27 2.439 . S
O17 Cd16 2.240 . S
O17 C22 1.279 . S
O18 Cd15 2.297 . S
O18 C20 1.247 . S
O19 Cd15 2.439 . S
O19 C20 1.208 . S
C20 O18 1.247 . S
C20 O19 1.208 . S
C21 O26 1.254 1_565 S
C21 O27 1.208 1_565 S
C22 O14 1.315 . S
C22 O17 1.279 . S
C23 O24 1.315 . S
C23 O25 1.279 . S
O24 Cd16 2.223 . S
O24 C23 1.315 . S
O25 Cd15 2.240 . S
O25 C23 1.279 . S
O26 Cd16 2.304 . S
O26 C21 1.254 1_545 S
O27 Cd16 2.439 . S
O27 C21 1.208 1_545 S
O28 Cd29 2.223 . S
O28 C36 1.315 . S
Cd29 O28 2.223 . S
Cd29 O32 2.297 . S
Cd29 O33 2.439 . S
Cd29 O39 2.240 . S
Cd30 O31 2.240 . S
Cd30 O38 2.223 . S
Cd30 O40 2.297 . S
Cd30 O41 2.439 . S
O31 Cd30 2.240 . S
O31 C36 1.279 . S
O32 Cd29 2.297 . S
O32 C34 1.247 . S
O33 Cd29 2.439 . S
O33 C34 1.208 . S
C34 O32 1.247 . S
C34 O33 1.208 . S
C35 O40 1.247 . S
C35 O41 1.208 . S
C36 O28 1.315 . S
C36 O31 1.279 . S
C37 O38 1.315 . S
C37 O39 1.279 . S
O38 Cd30 2.223 . S
O38 C37 1.315 . S
O39 Cd29 2.240 . S
O39 C37 1.279 . S
O40 Cd30 2.297 . S
O40 C35 1.247 . S
O41 Cd30 2.439 . S
O41 C35 1.208 . S
O42 Cd43 2.223 . S
O42 C50 1.315 . S
Cd43 O42 2.223 . S
Cd43 O46 2.297 . S
Cd43 O47 2.439 . S
Cd43 O53 2.240 . S
Cd44 O45 2.240 . S
Cd44 O52 2.223 . S
Cd44 O54 2.302 . S
Cd44 O55 2.439 . S
O45 Cd44 2.240 . S
O45 C50 1.279 . S
O46 Cd43 2.297 . S
O46 C48 1.247 . S
O47 Cd43 2.439 . S
O47 C48 1.208 . S
C48 O46 1.247 . S
C48 O47 1.208 . S
C49 O54 1.240 1_455 S
C49 O55 1.208 1_455 S
C50 O42 1.315 . S
C50 O45 1.279 . S
C51 O52 1.315 . S
C51 O53 1.279 . S
O52 Cd44 2.223 . S
O52 C51 1.315 . S
O53 Cd43 2.240 . S
O53 C51 1.279 . S
O54 Cd44 2.302 . S
O54 C49 1.240 1_655 S
O55 Cd44 2.439 . S
O55 C49 1.208 1_655 S
O56 Cd57 2.223 . S
O56 C64 1.315 . S
Cd57 O56 2.223 . S
Cd57 O60 2.297 . S
Cd57 O61 2.439 . S
Cd57 O67 2.240 . S
Cd58 O59 2.240 . S
Cd58 O66 2.223 . S
Cd58 O68 2.305 . S
Cd58 O69 2.439 . S
O59 Cd58 2.240 . S
O59 C64 1.279 . S
O60 Cd57 2.297 . S
O60 C62 1.247 . S
O61 Cd57 2.439 . S
O61 C62 1.208 . S
C62 O60 1.247 . S
C62 O61 1.208 . S
C63 O68 1.254 1_545 S
C63 O69 1.208 1_545 S
C64 O56 1.315 . S
C64 O59 1.279 . S
C65 O66 1.315 . S
C65 O67 1.279 . S
O66 Cd58 2.223 . S
O66 C65 1.315 . S
O67 Cd57 2.240 . S
O67 C65 1.279 . S
O68 Cd58 2.305 . S
O68 C63 1.254 1_565 S
O69 Cd58 2.439 . S
O69 C63 1.208 1_565 S
O70 Cd71 2.223 . S
O70 C78 1.315 . S
Cd71 O70 2.223 . S
Cd71 O74 2.297 . S
Cd71 O75 2.439 . S
Cd71 O81 2.240 . S
Cd72 O73 2.240 . S
Cd72 O80 2.223 . S
Cd72 O82 2.297 1_556 S
Cd72 O83 2.439 . S
O73 Cd72 2.240 . S
O73 C78 1.279 . S
O74 Cd71 2.297 . S
O74 C76 1.247 . S
O75 Cd71 2.439 . S
O75 C76 1.208 . S
C76 O74 1.247 . S
C76 O75 1.208 . S
C77 O82 1.247 . S
C77 O83 1.208 1_554 S
C78 O70 1.315 . S
C78 O73 1.279 . S
C79 O80 1.315 . S
C79 O81 1.279 . S
O80 Cd72 2.223 . S
O80 C79 1.315 . S
O81 Cd71 2.240 . S
O81 C79 1.279 . S
O82 Cd72 2.297 1_554 S
O82 C77 1.247 . S
O83 Cd72 2.439 . S
O83 C77 1.208 1_556 S
O84 Cd85 2.223 . S
O84 C92 1.315 . S
Cd85 O84 2.223 . S
Cd85 O88 2.297 . S
Cd85 O89 2.439 . S
Cd85 O95 2.240 . S
Cd86 O87 2.240 . S
Cd86 O94 2.223 . S
Cd86 O96 2.302 . S
Cd86 O97 2.439 . S
O87 Cd86 2.240 . S
O87 C92 1.279 . S
O88 Cd85 2.297 . S
O88 C90 1.247 . S
O89 Cd85 2.439 . S
O89 C90 1.208 . S
C90 O88 1.247 . S
C90 O89 1.208 . S
C91 O96 1.240 1_545 S
C91 O97 1.208 1_545 S
C92 O84 1.315 . S
C92 O87 1.279 . S
C93 O94 1.315 . S
C93 O95 1.279 . S
O94 Cd86 2.223 . S
O94 C93 1.315 . S
O95 Cd85 2.240 . S
O95 C93 1.279 . S
O96 Cd86 2.302 . S
O96 C91 1.240 1_565 S
O97 Cd86 2.439 . S
O97 C91 1.208 1_565 S
O98 Cd99 2.223 . S
O98 C106 1.315 . S
Cd99 O98 2.223 . S
Cd99 O102 2.297 . S
Cd99 O103 2.439 . S
Cd99 O109 2.240 . S
Cd100 O101 2.240 . S
Cd100 O108 2.223 . S
Cd100 O110 2.297 . S
Cd100 O111 2.439 . S
O101 Cd100 2.240 . S
O101 C106 1.279 . S
O102 Cd99 2.297 . S
O102 C104 1.247 . S
O103 Cd99 2.439 . S
O103 C104 1.208 . S
C104 O102 1.247 . S
C104 O103 1.208 . S
C105 O110 1.247 . S
C105 O111 1.208 . S
C106 O98 1.315 . S
C106 O101 1.279 . S
C107 O108 1.315 . S
C107 O109 1.279 . S
O108 Cd100 2.223 . S
O108 C107 1.315 . S
O109 Cd99 2.240 . S
O109 C107 1.279 . S
O110 Cd100 2.297 . S
O110 C105 1.247 . S
O111 Cd100 2.439 . S
O111 C105 1.208 . S
O112 Cd113 2.223 . S
O112 C120 1.315 . S
Cd113 O112 2.223 . S
Cd113 O116 2.297 . S
Cd113 O117 2.439 . S
Cd113 O123 2.240 . S
Cd114 O115 2.240 . S
Cd114 O122 2.223 . S
Cd114 O124 2.304 . S
Cd114 O125 2.439 . S
O115 Cd114 2.240 . S
O115 C120 1.279 . S
O116 Cd113 2.297 . S
O116 C118 1.247 . S
O117 Cd113 2.439 . S
O117 C118 1.208 . S
C118 O116 1.247 . S
C118 O117 1.208 . S
C119 O124 1.247 1_656 S
C119 O125 1.186 1_656 S
C120 O112 1.315 . S
C120 O115 1.279 . S
C121 O122 1.315 . S
C121 O123 1.279 . S
O122 Cd114 2.223 . S
O122 C121 1.315 . S
O123 Cd113 2.240 . S
O123 C121 1.279 . S
O124 Cd114 2.304 . S
O124 C119 1.247 1_454 S
O125 Cd114 2.439 . S
O125 C119 1.186 1_454 S
O126 Cd127 2.223 . S
O126 C134 1.315 . S
Cd127 O126 2.223 . S
Cd127 O130 2.297 . S
Cd127 O131 2.439 . S
Cd127 O137 2.240 . S
Cd128 O129 2.240 . S
Cd128 O136 2.223 . S
Cd128 O138 2.302 . S
Cd128 O139 2.439 . S
O129 Cd128 2.240 . S
O129 C134 1.279 . S
O130 Cd127 2.297 . S
O130 C132 1.247 . S
O131 Cd127 2.439 . S
O131 C132 1.208 . S
C132 O130 1.247 . S
C132 O131 1.208 . S
C133 O138 1.240 1_565 S
C133 O139 1.208 1_565 S
C134 O126 1.315 . S
C134 O129 1.279 . S
C135 O136 1.315 . S
C135 O137 1.279 . S
O136 Cd128 2.223 . S
O136 C135 1.315 . S
O137 Cd127 2.240 . S
O137 C135 1.279 . S
O138 Cd128 2.302 . S
O138 C133 1.240 1_545 S
O139 Cd128 2.439 . S
O139 C133 1.208 1_545 S
O140 Cd141 2.223 . S
O140 C148 1.315 . S
Cd141 O140 2.223 . S
Cd141 O144 2.297 . S
Cd141 O145 2.439 . S
Cd141 O151 2.240 . S
Cd142 O143 2.240 . S
Cd142 O150 2.223 . S
Cd142 O152 2.297 . S
Cd142 O153 2.439 . S
O143 Cd142 2.240 . S
O143 C148 1.279 . S
O144 Cd141 2.297 . S
O144 C146 1.247 . S
O145 Cd141 2.439 . S
O145 C146 1.208 . S
C146 O144 1.247 . S
C146 O145 1.208 . S
C147 O152 1.247 . S
C147 O153 1.208 . S
C148 O140 1.315 . S
C148 O143 1.279 . S
C149 O150 1.315 . S
C149 O151 1.279 . S
O150 Cd142 2.223 . S
O150 C149 1.315 . S
O151 Cd141 2.240 . S
O151 C149 1.279 . S
O152 Cd142 2.297 . S
O152 C147 1.247 . S
O153 Cd142 2.439 . S
O153 C147 1.208 . S
O154 Cd155 2.223 . S
O154 C162 1.315 . S
Cd155 O154 2.223 . S
Cd155 O158 2.297 . S
Cd155 O159 2.439 . S
Cd155 O165 2.240 . S
Cd156 O157 2.240 . S
Cd156 O164 2.223 . S
Cd156 O166 2.304 . S
Cd156 O167 2.439 . S
O157 Cd156 2.240 . S
O157 C162 1.279 . S
O158 Cd155 2.297 . S
O158 C160 1.247 . S
O159 Cd155 2.439 . S
O159 C160 1.208 . S
C160 O158 1.247 . S
C160 O159 1.208 . S
C161 O166 1.253 1_455 S
C161 O167 1.208 1_455 S
C162 O154 1.315 . S
C162 O157 1.279 . S
C163 O164 1.315 . S
C163 O165 1.279 . S
O164 Cd156 2.223 . S
O164 C163 1.315 . S
O165 Cd155 2.240 . S
O165 C163 1.279 . S
O166 Cd156 2.304 . S
O166 C161 1.253 1_655 S
O167 Cd156 2.439 . S
O167 C161 1.208 1_655 S
C168 C169 1.369 . S
C168 C170 1.419 . S
C168 H172 0.930 . S
C169 C168 1.369 . S
C169 C178 1.429 . S
C170 C168 1.419 . S
C170 C171 1.363 . S
C170 H173 0.929 . S
C171 C170 1.363 . S
C171 C177 1.428 . S
H172 C168 0.930 . S
H173 C170 0.929 . S
S174 N175 1.613 . S
S174 N176 1.610 . S
N175 S174 1.613 . S
N175 C178 1.350 . S
N176 S174 1.610 . S
N176 C177 1.351 . S
C177 C171 1.428 . S
C177 N176 1.351 . S
C177 C178 1.434 . S
C178 C169 1.429 . S
C178 N175 1.350 . S
C178 C177 1.434 . S
C179 C180 1.369 . S
C179 C181 1.419 . S
C179 H183 0.930 . S
C180 C179 1.369 . S
C180 C189 1.429 . S
C181 C179 1.419 . S
C181 C182 1.363 . S
C181 H184 0.929 . S
C182 C181 1.363 . S
C182 C188 1.428 . S
H183 C179 0.930 . S
H184 C181 0.929 . S
S185 N186 1.613 . S
S185 N187 1.610 . S
N186 S185 1.613 . S
N186 C189 1.350 . S
N187 S185 1.610 . S
N187 C188 1.351 . S
C188 C182 1.428 . S
C188 N187 1.351 . S
C188 C189 1.434 . S
C189 C180 1.429 . S
C189 N186 1.350 . S
C189 C188 1.434 . S
C190 C191 1.369 . S
C190 C192 1.419 . S
C190 H194 0.930 . S
C191 C190 1.369 . S
C191 C200 1.429 . S
C192 C190 1.419 . S
C192 C193 1.363 . S
C192 H195 0.929 . S
C193 C192 1.363 . S
C193 C199 1.428 . S
H194 C190 0.930 . S
H195 C192 0.929 . S
S196 N197 1.613 . S
S196 N198 1.610 . S
N197 S196 1.613 . S
N197 C200 1.350 . S
N198 S196 1.610 . S
N198 C199 1.351 . S
C199 C193 1.428 . S
C199 N198 1.351 . S
C199 C200 1.434 . S
C200 C191 1.429 . S
C200 N197 1.350 . S
C200 C199 1.434 . S
C201 C202 1.369 . S
C201 C203 1.419 . S
C201 H205 0.930 . S
C202 C201 1.369 . S
C202 C211 1.429 . S
C203 C201 1.419 . S
C203 C204 1.363 . S
C203 H206 0.929 . S
C204 C203 1.363 . S
C204 C210 1.428 . S
H205 C201 0.930 . S
H206 C203 0.929 . S
S207 N208 1.613 . S
S207 N209 1.610 . S
N208 S207 1.613 . S
N208 C211 1.350 . S
N209 S207 1.610 . S
N209 C210 1.351 . S
C210 C204 1.428 . S
C210 N209 1.351 . S
C210 C211 1.434 . S
C211 C202 1.429 . S
C211 N208 1.350 . S
C211 C210 1.434 . S
C212 C213 1.369 . S
C212 C214 1.419 . S
C212 H216 0.930 . S
C213 C212 1.369 . S
C213 C222 1.429 . S
C214 C212 1.419 . S
C214 C215 1.363 . S
C214 H217 0.929 . S
C215 C214 1.363 . S
C215 C221 1.428 . S
H216 C212 0.930 . S
H217 C214 0.929 . S
S218 N219 1.613 . S
S218 N220 1.610 . S
N219 S218 1.613 . S
N219 C222 1.350 . S
N220 S218 1.610 . S
N220 C221 1.351 . S
C221 C215 1.428 . S
C221 N220 1.351 . S
C221 C222 1.434 . S
C222 C213 1.429 . S
C222 N219 1.350 . S
C222 C221 1.434 . S
C223 C224 1.369 . S
C223 C225 1.419 . S
C223 H227 0.930 . S
C224 C223 1.369 . S
C224 C233 1.429 . S
C225 C223 1.419 . S
C225 C226 1.363 . S
C225 H228 0.929 . S
C226 C225 1.363 . S
C226 C232 1.428 . S
H227 C223 0.930 . S
H228 C225 0.929 . S
S229 N230 1.613 . S
S229 N231 1.610 . S
N230 S229 1.613 . S
N230 C233 1.350 . S
N231 S229 1.610 . S
N231 C232 1.351 . S
C232 C226 1.428 . S
C232 N231 1.351 . S
C232 C233 1.434 . S
C233 C224 1.429 . S
C233 N230 1.350 . S
C233 C232 1.434 . S
C234 C235 1.369 . S
C234 C236 1.419 . S
C234 H238 0.930 . S
C235 C234 1.369 . S
C235 C244 1.429 . S
C236 C234 1.419 . S
C236 C237 1.363 . S
C236 H239 0.929 . S
C237 C236 1.363 . S
C237 C243 1.428 . S
H238 C234 0.930 . S
H239 C236 0.929 . S
S240 N241 1.613 . S
S240 N242 1.610 . S
N241 S240 1.613 . S
N241 C244 1.350 . S
N242 S240 1.610 . S
N242 C243 1.351 . S
C243 C237 1.428 . S
C243 N242 1.351 . S
C243 C244 1.434 . S
C244 C235 1.429 . S
C244 N241 1.350 . S
C244 C243 1.434 . S
C245 C246 1.369 . S
C245 C247 1.419 1_655 S
C245 H249 0.930 . S
C246 C245 1.369 . S
C246 C255 1.429 . S
C247 C245 1.419 1_455 S
C247 C248 1.363 . S
C247 H250 0.929 . S
C248 C247 1.363 . S
C248 C254 1.428 . S
H249 C245 0.930 . S
H250 C247 0.929 . S
S251 N252 1.613 1_455 S
S251 N253 1.610 . S
N252 S251 1.613 1_655 S
N252 C255 1.350 . S
N253 S251 1.610 . S
N253 C254 1.351 . S
C254 C248 1.428 . S
C254 N253 1.351 . S
C254 C255 1.434 1_455 S
C255 C246 1.429 . S
C255 N252 1.350 . S
C255 C254 1.434 1_655 S
C256 C257 1.369 . S
C256 C258 1.419 1_545 S
C256 H260 0.930 . S
C257 C256 1.369 . S
C257 C266 1.429 . S
C258 C256 1.419 1_565 S
C258 C259 1.363 . S
C258 H261 0.929 . S
C259 C258 1.363 . S
C259 C265 1.428 . S
H260 C256 0.930 . S
H261 C258 0.929 . S
S262 N263 1.613 1_565 S
S262 N264 1.610 . S
N263 S262 1.613 1_545 S
N263 C266 1.350 . S
N264 S262 1.610 . S
N264 C265 1.351 . S
C265 C259 1.428 . S
C265 N264 1.351 . S
C265 C266 1.434 1_565 S
C266 C257 1.429 . S
C266 N263 1.350 . S
C266 C265 1.434 1_545 S
C267 C268 1.369 . S
C267 C269 1.419 . S
C267 H271 0.930 . S
C268 C267 1.369 . S
C268 C277 1.429 . S
C269 C267 1.419 . S
C269 C270 1.363 . S
C269 H272 0.929 . S
C270 C269 1.363 . S
C270 C276 1.428 . S
H271 C267 0.930 . S
H272 C269 0.929 . S
S273 N274 1.613 . S
S273 N275 1.610 . S
N274 S273 1.613 . S
N274 C277 1.350 . S
N275 S273 1.610 . S
N275 C276 1.351 . S
C276 C270 1.428 . S
C276 N275 1.351 . S
C276 C277 1.434 . S
C277 C268 1.429 . S
C277 N274 1.350 . S
C277 C276 1.434 . S
C278 C279 1.369 . S
C278 C280 1.419 1_655 S
C278 H282 0.930 . S
C279 C278 1.369 . S
C279 C288 1.429 . S
C280 C278 1.419 1_455 S
C280 C281 1.363 . S
C280 H283 0.929 . S
C281 C280 1.363 . S
C281 C287 1.428 . S
H282 C278 0.930 . S
H283 C280 0.929 . S
S284 N285 1.613 . S
S284 N286 1.610 1_655 S
N285 S284 1.613 . S
N285 C288 1.350 . S
N286 S284 1.610 1_455 S
N286 C287 1.351 . S
C287 C281 1.428 . S
C287 N286 1.351 . S
C287 C288 1.434 1_455 S
C288 C279 1.429 . S
C288 N285 1.350 . S
C288 C287 1.434 1_655 S
C289 C290 1.369 1_556 S
C289 C291 1.419 1_565 S
C289 H293 0.930 . S
C290 C289 1.369 1_554 S
C290 C299 1.429 . S
C291 C289 1.419 1_545 S
C291 C292 1.363 . S
C291 H294 0.929 . S
C292 C291 1.363 . S
C292 C298 1.428 1_556 S
H293 C289 0.930 . S
H294 C291 0.929 . S
S295 N296 1.613 1_545 S
S295 N297 1.610 . S
N296 S295 1.613 1_565 S
N296 C299 1.350 . S
N297 S295 1.610 . S
N297 C298 1.351 . S
C298 C292 1.428 1_554 S
C298 N297 1.351 . S
C298 C299 1.434 1_545 S
C299 C290 1.429 . S
C299 N296 1.350 . S
C299 C298 1.434 1_565 S
C300 C301 1.369 . S
C300 C302 1.419 . S
C300 H304 0.930 . S
C301 C300 1.369 . S
C301 C310 1.429 . S
C302 C300 1.419 . S
C302 C303 1.363 . S
C302 H305 0.929 . S
C303 C302 1.363 . S
C303 C309 1.428 . S
H304 C300 0.930 . S
H305 C302 0.929 . S
S306 N307 1.613 . S
S306 N308 1.610 . S
N307 S306 1.613 . S
N307 C310 1.350 . S
N308 S306 1.610 . S
N308 C309 1.351 . S
C309 C303 1.428 . S
C309 N308 1.351 . S
C309 C310 1.434 . S
C310 C301 1.429 . S
C310 N307 1.350 . S
C310 C309 1.434 . S
C311 C312 1.369 . S
C311 C313 1.419 . S
C311 H315 0.930 . S
C312 C311 1.369 . S
C312 C321 1.429 . S
C313 C311 1.419 . S
C313 C314 1.363 . S
C313 H316 0.929 . S
C314 C313 1.363 . S
C314 C320 1.428 . S
H315 C311 0.930 . S
H316 C313 0.929 . S
S317 N318 1.613 1_455 S
S317 N319 1.610 . S
N318 S317 1.613 1_655 S
N318 C321 1.350 . S
N319 S317 1.610 . S
N319 C320 1.351 1_455 S
C320 C314 1.428 . S
C320 N319 1.351 1_655 S
C320 C321 1.434 . S
C321 C312 1.429 . S
C321 N318 1.350 . S
C321 C320 1.434 . S
C322 C323 1.369 . S
C322 C324 1.419 . S
C322 H326 0.930 . S
C323 C322 1.369 . S
C323 C332 1.429 . S
C324 C322 1.419 . S
C324 C325 1.363 . S
C324 H327 0.929 . S
C325 C324 1.363 . S
C325 C331 1.428 . S
H326 C322 0.930 . S
H327 C324 0.929 . S
S328 N329 1.613 . S
S328 N330 1.610 1_545 S
N329 S328 1.613 . S
N329 C332 1.350 1_545 S
N330 S328 1.610 1_565 S
N330 C331 1.351 . S
C331 C325 1.428 . S
C331 N330 1.351 . S
C331 C332 1.434 . S
C332 C323 1.429 . S
C332 N329 1.350 1_565 S
C332 C331 1.434 . S
C333 C334 1.369 . S
C333 C335 1.419 . S
C333 H337 0.930 . S
C334 C333 1.369 . S
C334 C343 1.429 . S
C335 C333 1.419 . S
C335 C336 1.363 . S
C335 H338 0.929 . S
C336 C335 1.363 . S
C336 C342 1.428 . S
H337 C333 0.930 . S
H338 C335 0.929 . S
S339 N340 1.613 . S
S339 N341 1.610 . S
N340 S339 1.613 . S
N340 C343 1.350 . S
N341 S339 1.610 . S
N341 C342 1.351 . S
C342 C336 1.428 . S
C342 N341 1.351 . S
C342 C343 1.434 . S
C343 C334 1.429 . S
C343 N340 1.350 . S
C343 C342 1.434 . S
C344 C345 1.369 . S
C344 C346 1.419 . S
C344 H348 0.930 . S
C345 C344 1.369 . S
C345 C354 1.429 . S
C346 C344 1.419 . S
C346 C347 1.363 . S
C346 H349 0.929 1_455 S
C347 C346 1.363 . S
C347 C353 1.428 . S
H348 C344 0.930 . S
H349 C346 0.929 1_655 S
S350 N351 1.613 . S
S350 N352 1.610 . S
N351 S350 1.613 . S
N351 C354 1.350 . S
N352 S350 1.610 . S
N352 C353 1.351 . S
C353 C347 1.428 . S
C353 N352 1.351 . S
C353 C354 1.434 . S
C354 C345 1.429 . S
C354 N351 1.350 . S
C354 C353 1.434 . S
C355 C356 1.369 . S
C355 C357 1.419 . S
C355 H359 0.930 . S
C356 C355 1.369 . S
C356 C365 1.429 . S
C357 C355 1.419 . S
C357 C358 1.363 . S
C357 H360 0.929 . S
C358 C357 1.363 . S
C358 C364 1.428 . S
H359 C355 0.930 . S
H360 C357 0.929 . S
S361 N362 1.613 1_565 S
S361 N363 1.610 . S
N362 S361 1.613 1_545 S
N362 C365 1.350 . S
N363 S361 1.610 . S
N363 C364 1.351 1_565 S
C364 C358 1.428 . S
C364 N363 1.351 1_545 S
C364 C365 1.434 . S
C365 C356 1.429 . S
C365 N362 1.350 . S
C365 C364 1.434 . S
C366 C367 1.369 . S
C366 C368 1.419 . S
C366 H370 0.930 . S
C367 C366 1.369 . S
C367 C376 1.429 . S
C368 C366 1.419 . S
C368 C369 1.363 . S
C368 H371 0.929 . S
C369 C368 1.363 . S
C369 C375 1.428 . S
H370 C366 0.930 . S
H371 C368 0.929 . S
S372 N373 1.613 . S
S372 N374 1.610 . S
N373 S372 1.613 . S
N373 C376 1.350 . S
N374 S372 1.610 . S
N374 C375 1.351 . S
C375 C369 1.428 . S
C375 N374 1.351 . S
C375 C376 1.434 . S
C376 C367 1.429 . S
C376 N373 1.350 . S
C376 C375 1.434 . S
C377 C378 1.369 . S
C377 C379 1.419 . S
C377 H381 0.930 . S
C378 C377 1.369 . S
C378 C387 1.429 . S
C379 C377 1.419 . S
C379 C380 1.363 . S
C379 H382 0.929 . S
C380 C379 1.363 . S
C380 C386 1.428 . S
H381 C377 0.930 . S
H382 C379 0.929 . S
S383 N384 1.613 . S
S383 N385 1.610 . S
N384 S383 1.613 . S
N384 C387 1.350 . S
N385 S383 1.610 . S
N385 C386 1.351 . S
C386 C380 1.428 . S
C386 N385 1.351 . S
C386 C387 1.434 . S
C387 C378 1.429 . S
C387 N384 1.350 . S
C387 C386 1.434 . S
C388 C389 1.369 . S
C388 C390 1.419 . S
C388 H392 0.930 . S
C389 C388 1.369 . S
C389 C398 1.429 . S
C390 C388 1.419 . S
C390 C391 1.363 . S
C390 H393 0.929 . S
C391 C390 1.363 . S
C391 C397 1.428 . S
H392 C388 0.930 . S
H393 C390 0.929 . S
S394 N395 1.613 . S
S394 N396 1.610 . S
N395 S394 1.613 . S
N395 C398 1.350 . S
N396 S394 1.610 . S
N396 C397 1.351 . S
C397 C391 1.428 . S
C397 N396 1.351 . S
C397 C398 1.434 . S
C398 C389 1.429 . S
C398 N395 1.350 . S
C398 C397 1.434 . S
C399 C400 1.369 . S
C399 C401 1.419 . S
C399 H403 0.930 . S
C400 C399 1.369 . S
C400 C409 1.429 . S
C401 C399 1.419 . S
C401 C402 1.363 . S
C401 H404 0.929 . S
C402 C401 1.363 . S
C402 C408 1.428 . S
H403 C399 0.930 . S
H404 C401 0.929 . S
S405 N406 1.613 . S
S405 N407 1.610 . S
N406 S405 1.613 . S
N406 C409 1.350 . S
N407 S405 1.610 . S
N407 C408 1.351 . S
C408 C402 1.428 . S
C408 N407 1.351 . S
C408 C409 1.434 . S
C409 C400 1.429 . S
C409 N406 1.350 . S
C409 C408 1.434 . S
C410 C411 1.369 . S
C410 C412 1.419 . S
C410 H414 0.930 . S
C411 C410 1.369 . S
C411 C420 1.429 . S
C412 C410 1.419 . S
C412 C413 1.363 . S
C412 H415 0.929 1_455 S
C413 C412 1.363 . S
C413 C419 1.428 . S
H414 C410 0.930 . S
H415 C412 0.929 1_655 S
S416 N417 1.613 . S
S416 N418 1.610 . S
N417 S416 1.613 . S
N417 C420 1.350 . S
N418 S416 1.610 . S
N418 C419 1.351 . S
C419 C413 1.428 . S
C419 N418 1.351 . S
C419 C420 1.434 . S
C420 C411 1.429 . S
C420 N417 1.350 . S
C420 C419 1.434 . S
C421 C422 1.369 . S
C421 C423 1.419 . S
C421 H425 0.930 1_545 S
C422 C421 1.369 . S
C422 C431 1.429 . S
C423 C421 1.419 . S
C423 C424 1.363 . S
C423 H426 0.929 . S
C424 C423 1.363 . S
C424 C430 1.428 . S
H425 C421 0.930 1_565 S
H426 C423 0.929 . S
S427 N428 1.613 . S
S427 N429 1.610 . S
N428 S427 1.613 . S
N428 C431 1.350 . S
N429 S427 1.610 . S
N429 C430 1.351 . S
C430 C424 1.428 . S
C430 N429 1.351 . S
C430 C431 1.434 . S
C431 C422 1.429 . S
C431 N428 1.350 . S
C431 C430 1.434 . S
C169 C118 1.406 . S
C171 C6 1.404 . S
C180 C20 1.407 . S
C182 C132 1.405 . S
C191 C34 1.406 . S
C193 C146 1.406 . S
C202 C48 1.401 . S
C204 C160 1.403 . S
C213 C90 1.405 . S
C215 C62 1.403 . S
C224 C76 1.403 . S
C226 C104 1.401 . S
C235 C135 1.134 . S
C237 C9 1.136 . S
C246 C23 1.128 . S
C248 C149 1.129 . S
C257 C163 1.129 . S
C259 C37 1.132 . S
C268 C51 1.128 . S
C270 C93 1.131 . S
C279 C107 1.140 . S
C281 C65 1.137 . S
C290 C121 1.131 . S
C292 C79 1.134 . S
C301 C8 1.446 . S
C303 C77 1.456 . S
C312 C22 1.437 . S
C314 C7 1.460 . S
C323 C21 1.456 . S
C325 C36 1.443 . S
C334 C50 1.440 . S
C336 C35 1.458 . S
C345 C64 1.446 . S
C347 C49 1.456 . S
C356 C78 1.438 . S
C358 C63 1.460 . S
C367 C92 1.443 . S
C369 C105 1.458 . S
C378 C106 1.446 . S
C380 C119 1.489 . S
C389 C120 1.437 . S
C391 C133 1.462 . S
C400 C134 1.445 . S
C402 C147 1.456 . S
C411 C148 1.444 . S
C413 C161 1.457 . S
C422 C91 1.462 . S
C424 C162 1.438 . S
