# Generated by pormake.
# Topology zfo, (5)-cn, num edge types: 1
# Building blocks:
#     Node 0, Type 0, BuildingBlock: XOMCOT_clean_sbu_1, # of connection points: 5
#     Node 1, Type 0, BuildingBlock: XOMCOT_clean_sbu_1, # of connection points: 5
#     Node 2, Type 0, BuildingBlock: XOMCOT_clean_sbu_1, # of connection points: 5
#     Node 3, Type 0, BuildingBlock: XOMCOT_clean_sbu_1, # of connection points: 5
#     Node 4, Type 0, BuildingBlock: XOMCOT_clean_sbu_1, # of connection points: 5
#     Node 5, Type 0, BuildingBlock: XOMCOT_clean_sbu_1, # of connection points: 5
#     Node 6, Type 0, BuildingBlock: XOMCOT_clean_sbu_1, # of connection points: 5
#     Node 7, Type 0, BuildingBlock: XOMCOT_clean_sbu_1, # of connection points: 5
#     Node 8, Type 0, BuildingBlock: XOMCOT_clean_sbu_1, # of connection points: 5
#     Node 9, Type 0, BuildingBlock: XOMCOT_clean_sbu_1, # of connection points: 5
#     Node 10, Type 0, BuildingBlock: XOMCOT_clean_sbu_1, # of connection points: 5
#     Node 11, Type 0, BuildingBlock: XOMCOT_clean_sbu_1, # of connection points: 5
#     Node 12, Type 0, BuildingBlock: XOMCOT_clean_sbu_1, # of connection points: 5
#     Node 13, Type 0, BuildingBlock: XOMCOT_clean_sbu_1, # of connection points: 5
#     Node 14, Type 0, BuildingBlock: XOMCOT_clean_sbu_1, # of connection points: 5
#     Node 15, Type 0, BuildingBlock: XOMCOT_clean_sbu_1, # of connection points: 5
#     Edge 16, Type (0, 0), BuildingBlock: XIVTED_clean_linker_0, # of connection points: 2
#     Edge 17, Type (0, 0), BuildingBlock: XIVTED_clean_linker_0, # of connection points: 2
#     Edge 18, Type (0, 0), BuildingBlock: XIVTED_clean_linker_0, # of connection points: 2
#     Edge 19, Type (0, 0), BuildingBlock: XIVTED_clean_linker_0, # of connection points: 2
#     Edge 20, Type (0, 0), BuildingBlock: XIVTED_clean_linker_0, # of connection points: 2
#     Edge 21, Type (0, 0), BuildingBlock: XIVTED_clean_linker_0, # of connection points: 2
#     Edge 22, Type (0, 0), BuildingBlock: XIVTED_clean_linker_0, # of connection points: 2
#     Edge 23, Type (0, 0), BuildingBlock: XIVTED_clean_linker_0, # of connection points: 2
#     Edge 24, Type (0, 0), BuildingBlock: XIVTED_clean_linker_0, # of connection points: 2
#     Edge 25, Type (0, 0), BuildingBlock: XIVTED_clean_linker_0, # of connection points: 2
#     Edge 26, Type (0, 0), BuildingBlock: XIVTED_clean_linker_0, # of connection points: 2
#     Edge 27, Type (0, 0), BuildingBlock: XIVTED_clean_linker_0, # of connection points: 2
#     Edge 28, Type (0, 0), BuildingBlock: XIVTED_clean_linker_0, # of connection points: 2
#     Edge 29, Type (0, 0), BuildingBlock: XIVTED_clean_linker_0, # of connection points: 2
#     Edge 30, Type (0, 0), BuildingBlock: XIVTED_clean_linker_0, # of connection points: 2
#     Edge 31, Type (0, 0), BuildingBlock: XIVTED_clean_linker_0, # of connection points: 2
#     Edge 32, Type (0, 0), BuildingBlock: XIVTED_clean_linker_0, # of connection points: 2
#     Edge 33, Type (0, 0), BuildingBlock: XIVTED_clean_linker_0, # of connection points: 2
#     Edge 34, Type (0, 0), BuildingBlock: XIVTED_clean_linker_0, # of connection points: 2
#     Edge 35, Type (0, 0), BuildingBlock: XIVTED_clean_linker_0, # of connection points: 2
#     Edge 36, Type (0, 0), BuildingBlock: XIVTED_clean_linker_0, # of connection points: 2
#     Edge 37, Type (0, 0), BuildingBlock: XIVTED_clean_linker_0, # of connection points: 2
#     Edge 38, Type (0, 0), BuildingBlock: XIVTED_clean_linker_0, # of connection points: 2
#     Edge 39, Type (0, 0), BuildingBlock: XIVTED_clean_linker_0, # of connection points: 2
#     Edge 40, Type (0, 0), BuildingBlock: XIVTED_clean_linker_0, # of connection points: 2
#     Edge 41, Type (0, 0), BuildingBlock: XIVTED_clean_linker_0, # of connection points: 2
#     Edge 42, Type (0, 0), BuildingBlock: XIVTED_clean_linker_0, # of connection points: 2
#     Edge 43, Type (0, 0), BuildingBlock: XIVTED_clean_linker_0, # of connection points: 2
#     Edge 44, Type (0, 0), BuildingBlock: XIVTED_clean_linker_0, # of connection points: 2
#     Edge 45, Type (0, 0), BuildingBlock: XIVTED_clean_linker_0, # of connection points: 2
#     Edge 46, Type (0, 0), BuildingBlock: XIVTED_clean_linker_0, # of connection points: 2
#     Edge 47, Type (0, 0), BuildingBlock: XIVTED_clean_linker_0, # of connection points: 2
#     Edge 48, Type (0, 0), BuildingBlock: XIVTED_clean_linker_0, # of connection points: 2
#     Edge 49, Type (0, 0), BuildingBlock: XIVTED_clean_linker_0, # of connection points: 2
#     Edge 50, Type (0, 0), BuildingBlock: XIVTED_clean_linker_0, # of connection points: 2
#     Edge 51, Type (0, 0), BuildingBlock: XIVTED_clean_linker_0, # of connection points: 2
#     Edge 52, Type (0, 0), BuildingBlock: XIVTED_clean_linker_0, # of connection points: 2
#     Edge 53, Type (0, 0), BuildingBlock: XIVTED_clean_linker_0, # of connection points: 2
#     Edge 54, Type (0, 0), BuildingBlock: XIVTED_clean_linker_0, # of connection points: 2
#     Edge 55, Type (0, 0), BuildingBlock: XIVTED_clean_linker_0, # of connection points: 2
# Relax obj value: 0.175
# Max RMSD: 0.150
# Mean RMSD: 0.150
data_MOF--net-zfo--node1-XOMCOT_clean_sbu_1--edge1-XIVTED_clean_linker_0
_symmetry_space_group_name_H-M    P1
_symmetry_Int_Tables_number       1
_symmetry_cell_setting            triclinic
loop_
_symmetry_equiv_pos_as_xyz
'x, y, z'
_cell_length_a     35.358369
_cell_length_b     35.449351
_cell_length_c     51.524002
_cell_angle_alpha  90.072785
_cell_angle_beta   90.054153
_cell_angle_gamma 90.098082
loop_
_atom_site_label
_atom_site_type_symbol
_atom_site_fract_x
_atom_site_fract_y
_atom_site_fract_z
_atom_type_partial_charge
C0 C 0.98421 0.24597 0.18686 0.0
C1 C 0.94576 0.24395 0.18984 0.0
N2 N 0.92937 0.25683 0.168 0.0
N3 N 0.99243 0.26047 0.16336 0.0
C4 C 0.95833 0.26658 0.15212 0.0
H5 H 0.00493 0.23608 0.20068 0.0
Co6 Co 0.04249 0.26487 0.15222 0.0
C7 C 0.0399 0.27673 0.09575 0.0
O8 O 0.06645 0.25101 0.09384 0.0
N9 N 0.09407 0.26977 0.14228 0.0
C10 C 0.14689 0.29716 0.12785 0.0
C11 C 0.10828 0.30018 0.12976 0.0
C12 C 0.1252 0.24945 0.1487 0.0
N13 N 0.15754 0.26527 0.13988 0.0
O14 O 0.04533 0.31453 0.16687 0.0
H15 H 0.09166 0.32387 0.12313 0.0
H16 H 0.12481 0.2242 0.1603 0.0
O17 O 0.02631 0.28546 0.11804 0.0
C18 C 0.05577 0.31163 0.19047 0.0
O19 O 0.06295 0.27791 0.19976 0.0
N20 N 0.03954 0.2147 0.14066 0.0
C21 C 0.02742 0.13718 0.13559 0.0
C22 C 0.00945 0.16266 0.11886 0.0
C23 C 0.01516 0.2014 0.12212 0.0
C24 C 0.05629 0.19027 0.15744 0.0
C25 C 0.05157 0.15148 0.15483 0.0
H26 H 0.99796 0.22043 0.11086 0.0
H27 H 0.07126 0.201 0.17416 0.0
H28 H 0.95476 0.27728 0.13262 0.0
H29 H 0.93101 0.23228 0.20639 0.0
H30 H 0.16585 0.31779 0.11943 0.0
H31 H 0.98921 0.15295 0.10453 0.0
H32 H 0.06544 0.13297 0.16856 0.0
C33 C 0.77141 0.98153 0.68994 0.0
C34 C 0.77471 0.94308 0.69119 0.0
N35 N 0.75486 0.9279 0.67146 0.0
N36 N 0.74928 0.99098 0.66967 0.0
C37 C 0.73978 0.9576 0.65854 0.0
H38 H 0.78516 0.00152 0.70272 0.0
Co39 Co 0.73984 0.04158 0.66163 0.0
C40 C 0.72054 0.04505 0.60633 0.0
O41 O 0.74268 0.07477 0.60505 0.0
N42 N 0.72995 0.09349 0.6547 0.0
C43 C 0.69683 0.14481 0.64418 0.0
C44 C 0.69583 0.10625 0.64671 0.0
C45 C 0.75083 0.12541 0.65767 0.0
N46 N 0.73145 0.15684 0.65114 0.0
O47 O 0.69207 0.03892 0.67916 0.0
H48 H 0.67153 0.08849 0.64292 0.0
H49 H 0.77963 0.1262 0.66447 0.0
O50 O 0.71659 0.02731 0.62785 0.0
C51 C 0.69749 0.04494 0.70329 0.0
O52 O 0.73229 0.05021 0.71147 0.0
N53 N 0.78836 0.04396 0.6473 0.0
C54 C 0.86588 0.03578 0.63933 0.0
C55 C 0.8399 0.01871 0.62241 0.0
C56 C 0.80115 0.02254 0.62703 0.0
C57 C 0.81336 0.06055 0.66385 0.0
C58 C 0.85209 0.0579 0.65979 0.0
H59 H 0.78192 0.00565 0.61562 0.0
H60 H 0.80324 0.07361 0.68149 0.0
H61 H 0.72242 0.95509 0.64131 0.0
H62 H 0.79154 0.92752 0.70508 0.0
H63 H 0.67356 0.16272 0.63835 0.0
H64 H 0.84935 1.00017 0.60701 0.0
H65 H 0.87108 0.07124 0.67353 0.0
C66 C 0.01342 0.76224 0.1856 0.0
C67 C 0.05196 0.76429 0.18794 0.0
N68 N 0.0675 0.74589 0.16775 0.0
N69 N 0.00437 0.74232 0.16417 0.0
C70 C 0.03802 0.73293 0.15346 0.0
H71 H 0.99315 0.7752 0.19851 0.0
Co72 Co 0.95398 0.73434 0.15498 0.0
C73 C 0.95161 0.71842 0.0989 0.0
O74 O 0.92183 0.74048 0.09788 0.0
N75 N 0.90216 0.7259 0.14714 0.0
C76 C 0.84986 0.6948 0.13558 0.0
C77 C 0.88858 0.69305 0.13746 0.0
C78 C 0.87067 0.7466 0.15187 0.0
N79 N 0.83866 0.72848 0.14475 0.0
O80 O 0.95531 0.68531 0.17072 0.0
H81 H 0.90583 0.66902 0.13231 0.0
H82 H 0.87059 0.77416 0.16068 0.0
O83 O 0.9689 0.71338 0.12054 0.0
C84 C 0.9489 0.68852 0.19497 0.0
O85 O 0.94362 0.7224 0.20464 0.0
N86 N 0.95291 0.7839 0.14227 0.0
C87 C 0.96166 0.86158 0.13561 0.0
C88 C 0.9785 0.83614 0.11828 0.0
C89 C 0.97446 0.79735 0.12227 0.0
C90 C 0.93689 0.80833 0.15942 0.0
C91 C 0.93995 0.84715 0.15608 0.0
H92 H 0.99111 0.77857 0.11043 0.0
H93 H 0.9238 0.79763 0.17687 0.0
H94 H 0.04091 0.71708 0.13561 0.0
H95 H 0.0674 0.77927 0.20291 0.0
H96 H 0.83128 0.67251 0.12889 0.0
H97 H 0.99684 0.84601 0.10288 0.0
H98 H 0.92688 0.86566 0.17019 0.0
C99 C 0.24001 0.02073 0.69021 0.0
C100 C 0.23443 0.0589 0.69126 0.0
N101 N 0.24912 0.07459 0.66969 0.0
N102 N 0.25862 0.0118 0.66826 0.0
C103 C 0.26388 0.0453 0.65605 0.0
H104 H 0.22991 1.00054 0.70428 0.0
Co105 Co 0.26731 0.96116 0.65968 0.0
C106 C 0.28623 0.95799 0.6043 0.0
O107 O 0.26377 0.92852 0.60286 0.0
N108 N 0.27625 0.90912 0.65234 0.0
C109 C 0.30815 0.8571 0.64161 0.0
C110 C 0.30997 0.89566 0.64412 0.0
C111 C 0.2548 0.87762 0.65546 0.0
N112 N 0.27342 0.84576 0.64882 0.0
O113 O 0.31539 0.96297 0.67697 0.0
H114 H 0.33457 0.91293 0.64023 0.0
H115 H 0.22615 0.87746 0.66254 0.0
O116 O 0.29041 0.97554 0.62591 0.0
C117 C 0.31041 0.95433 0.70076 0.0
O118 O 0.27597 0.94647 0.70862 0.0
N119 N 0.21857 0.95965 0.64559 0.0
C120 C 0.14108 0.96837 0.63767 0.0
C121 C 0.1671 0.98489 0.6206 0.0
C122 C 0.20585 0.98082 0.62519 0.0
C123 C 0.19353 0.94371 0.66235 0.0
C124 C 0.15479 0.94666 0.65834 0.0
H125 H 0.22513 0.99724 0.61358 0.0
H126 H 0.20369 0.93071 0.67999 0.0
H127 H 0.27684 0.04796 0.63712 0.0
H128 H 0.22025 0.07381 0.70678 0.0
H129 H 0.33098 0.83871 0.63567 0.0
H130 H 0.15773 0.00313 0.60503 0.0
H131 H 0.13577 0.93374 0.6722 0.0
C132 C 0.49191 0.25304 0.83334 0.0
C133 C 0.45385 0.25002 0.82826 0.0
N134 N 0.43774 0.23029 0.84763 0.0
N135 N 0.49994 0.23503 0.85572 0.0
C136 C 0.46631 0.22112 0.86386 0.0
H137 H 0.51208 0.26921 0.82218 0.0
Co138 Co 0.54763 0.23559 0.87172 0.0
C139 C 0.51556 0.22246 0.92563 0.0
O140 O 0.51811 0.25806 0.93224 0.0
N141 N 0.59616 0.23552 0.88732 0.0
C142 C 0.64399 0.24223 0.91504 0.0
C143 C 0.60544 0.24142 0.91243 0.0
C144 C 0.62995 0.23278 0.87507 0.0
N145 N 0.65963 0.23691 0.89151 0.0
O146 O 0.55769 0.18675 0.85705 0.0
H147 H 0.58596 0.24671 0.92798 0.0
H148 H 0.6326 0.22887 0.85436 0.0
O149 O 0.52674 0.21113 0.90331 0.0
C150 C 0.56677 0.19047 0.83323 0.0
O151 O 0.57005 0.22469 0.82372 0.0
N152 N 0.53864 0.28603 0.88318 0.0
C153 C 0.52764 0.36368 0.88997 0.0
C154 C 0.49802 0.33817 0.89427 0.0
C155 C 0.50387 0.29963 0.89024 0.0
C156 C 0.56739 0.31087 0.87838 0.0
C157 C 0.56277 0.34949 0.88218 0.0
H158 H 0.48018 0.28083 0.89286 0.0
H159 H 0.59385 0.30122 0.8704 0.0
H160 H 0.4623 0.20646 0.88205 0.0
H161 H 0.43877 0.26365 0.81258 0.0
H162 H 0.65914 0.24812 0.93284 0.0
H163 H 0.4701 0.34798 0.8996 0.0
H164 H 0.58636 0.36818 0.8783 0.0
C165 C 0.73418 0.48343 0.33475 0.0
C166 C 0.73483 0.44485 0.33283 0.0
N167 N 0.75616 0.43138 0.35234 0.0
N168 N 0.75536 0.49432 0.3552 0.0
C169 C 0.76818 0.46187 0.36578 0.0
H170 H 0.71892 0.50244 0.32214 0.0
Co171 Co 0.76262 0.54468 0.36362 0.0
C172 C 0.78544 0.54846 0.41845 0.0
O173 O 0.76261 0.57751 0.42063 0.0
N174 N 0.77074 0.5964 0.37095 0.0
C175 C 0.80299 0.64816 0.38185 0.0
C176 C 0.80504 0.60995 0.37807 0.0
C177 C 0.74862 0.62755 0.36959 0.0
N178 N 0.76752 0.65915 0.3765 0.0
O179 O 0.80981 0.54434 0.34518 0.0
H180 H 0.83014 0.59294 0.38058 0.0
H181 H 0.71936 0.6276 0.36368 0.0
O182 O 0.78813 0.53095 0.39671 0.0
C183 C 0.80465 0.54989 0.32099 0.0
O184 O 0.7699 0.55411 0.31247 0.0
N185 N 0.71444 0.54431 0.37927 0.0
C186 C 0.63823 0.53214 0.39126 0.0
C187 C 0.66689 0.5156 0.4062 0.0
C188 C 0.70479 0.52152 0.39965 0.0
C189 C 0.68683 0.56 0.36431 0.0
C190 C 0.64864 0.55508 0.3703 0.0
H191 H 0.72592 0.50547 0.4099 0.0
H192 H 0.6944 0.57436 0.34656 0.0
H193 H 0.78608 0.46051 0.38279 0.0
H194 H 0.71997 0.42789 0.31859 0.0
H195 H 0.82604 0.66664 0.3874 0.0
H196 H 0.66008 0.49695 0.42216 0.0
H197 H 0.62744 0.56708 0.35758 0.0
C198 C 0.52448 0.7446 0.83283 0.0
C199 C 0.56201 0.74971 0.82707 0.0
N200 N 0.57583 0.77666 0.84278 0.0
N201 N 0.51435 0.76773 0.85252 0.0
C202 C 0.54616 0.78806 0.85733 0.0
H203 H 0.50605 0.72478 0.82319 0.0
Co204 Co 0.46521 0.76944 0.86769 0.0
C205 C 0.5142 0.78636 0.91454 0.0
O206 O 0.53948 0.76099 0.90786 0.0
N207 N 0.41657 0.77078 0.88188 0.0
C208 C 0.36857 0.7671 0.90959 0.0
C209 C 0.40714 0.76984 0.90726 0.0
C210 C 0.38316 0.76858 0.86915 0.0
N211 N 0.35344 0.76617 0.88562 0.0
O212 O 0.45802 0.81872 0.85314 0.0
H213 H 0.42692 0.76978 0.92323 0.0
H214 H 0.38084 0.76731 0.84822 0.0
O215 O 0.48514 0.79165 0.90016 0.0
C216 C 0.4515 0.81553 0.82887 0.0
O217 O 0.4504 0.78157 0.81865 0.0
N218 N 0.46988 0.7195 0.87949 0.0
C219 C 0.47711 0.64195 0.88633 0.0
C220 C 0.48192 0.66661 0.90739 0.0
C221 C 0.47741 0.70548 0.90367 0.0
C222 C 0.46065 0.6955 0.85985 0.0
C223 C 0.46479 0.65673 0.86262 0.0
H224 H 0.47981 0.72372 0.92029 0.0
H225 H 0.45063 0.70674 0.8416 0.0
H226 H 0.54802 0.81039 0.87158 0.0
H227 H 0.57839 0.73334 0.81335 0.0
H228 H 0.35291 0.76564 0.9276 0.0
H229 H 0.48999 0.65613 0.92634 0.0
H230 H 0.45879 0.63852 0.84622 0.0
C231 C 0.26944 0.51747 0.33273 0.0
C232 C 0.26888 0.55608 0.33117 0.0
N233 N 0.24646 0.56921 0.35022 0.0
N234 N 0.24717 0.50622 0.35248 0.0
C235 C 0.23374 0.53848 0.36302 0.0
H236 H 0.28527 0.49866 0.32029 0.0
Co237 Co 0.23921 0.45571 0.36005 0.0
C238 C 0.21483 0.45061 0.41448 0.0
O239 O 0.23701 0.42107 0.41655 0.0
N240 N 0.23039 0.40385 0.36652 0.0
C241 C 0.19731 0.35217 0.37627 0.0
C242 C 0.19567 0.39042 0.3727 0.0
C243 C 0.2524 0.37258 0.36555 0.0
N244 N 0.23298 0.34102 0.37177 0.0
O245 O 0.1924 0.45708 0.3412 0.0
H246 H 0.1706 0.40758 0.37483 0.0
H247 H 0.282 0.37245 0.36056 0.0
O248 O 0.21315 0.46883 0.393 0.0
C249 C 0.19738 0.45266 0.31688 0.0
O250 O 0.2321 0.44929 0.30815 0.0
N251 N 0.28704 0.45511 0.37625 0.0
C252 C 0.36305 0.46632 0.38932 0.0
C253 C 0.33418 0.48254 0.40422 0.0
C254 C 0.2964 0.47713 0.39714 0.0
C255 C 0.31484 0.43961 0.36138 0.0
C256 C 0.35294 0.44408 0.36788 0.0
H257 H 0.27518 0.49303 0.40741 0.0
H258 H 0.30754 0.42575 0.34336 0.0
H259 H 0.21482 0.53953 0.3795 0.0
H260 H 0.2844 0.5733 0.31748 0.0
H261 H 0.17392 0.3338 0.38122 0.0
H262 H 0.34076 0.50063 0.42058 0.0
H263 H 0.37433 0.43231 0.35521 0.0
C264 C 0.02154 0.77109 0.82855 0.0
C265 C 0.05987 0.77455 0.82589 0.0
N266 N 0.07669 0.75941 0.84694 0.0
N267 N 0.01359 0.75334 0.85096 0.0
C268 C 0.04779 0.74645 0.86185 0.0
H269 H 1.00065 0.78188 0.81518 0.0
Co270 Co 0.96338 0.74678 0.8611 0.0
C271 C 0.96336 0.72443 0.91597 0.0
O272 O 0.9361 0.74919 0.91898 0.0
N273 N 0.91153 0.7399 0.86977 0.0
C274 C 0.85865 0.70994 0.88142 0.0
C275 C 0.8972 0.70711 0.87897 0.0
C276 C 0.8805 0.76156 0.86559 0.0
N277 N 0.8482 0.74417 0.87291 0.0
O278 O 0.96114 0.7005 0.84171 0.0
H279 H 0.91376 0.68223 0.88319 0.0
H280 H 0.88091 0.78907 0.85675 0.0
O281 O 0.97869 0.7198 0.89357 0.0
C282 C 0.94988 0.70783 0.81873 0.0
O283 O 0.94086 0.7428 0.81305 0.0
N284 N 0.96611 0.79414 0.87759 0.0
C285 C 0.97793 0.86889 0.89263 0.0
C286 C 0.99638 0.83945 0.9055 0.0
C287 C 0.99077 0.80237 0.89731 0.0
C288 C 0.94922 0.82267 0.86425 0.0
C289 C 0.95387 0.86016 0.87185 0.0
H290 H 0.00811 0.78079 0.90593 0.0
H291 H 0.93421 0.8166 0.84647 0.0
H292 H 0.05129 0.73351 0.88069 0.0
H293 H 0.07401 0.78764 0.80963 0.0
H294 H 0.83956 0.68796 0.88787 0.0
H295 H 0.01615 0.84511 0.9211 0.0
H296 H 0.94071 0.88224 0.86049 0.0
C297 C 0.24006 0.01524 0.33419 0.0
C298 C 0.24145 0.05368 0.33131 0.0
N299 N 0.26186 0.06804 0.35104 0.0
N300 N 0.25986 0.0053 0.35548 0.0
C301 C 0.27258 0.03821 0.36556 0.0
H302 H 0.22525 0.99572 0.32164 0.0
Co303 Co 0.26636 0.9554 0.3655 0.0
C304 C 0.28374 0.9559 0.42119 0.0
O305 O 0.2597 0.92778 0.42328 0.0
N306 N 0.27386 0.90417 0.37464 0.0
C307 C 0.3051 0.85315 0.38799 0.0
C308 C 0.30713 0.89137 0.38415 0.0
C309 C 0.25252 0.87258 0.37198 0.0
N310 N 0.27076 0.84139 0.38028 0.0
O311 O 0.31437 0.95444 0.34803 0.0
H312 H 0.33166 0.90883 0.3879 0.0
H313 H 0.22444 0.87183 0.36384 0.0
O314 O 0.28964 0.9713 0.39902 0.0
C315 C 0.30755 0.94619 0.32435 0.0
O316 O 0.27232 0.94 0.31741 0.0
N317 N 0.21728 0.95655 0.37944 0.0
C318 C 0.1399 0.9681 0.38695 0.0
C319 C 0.16654 0.98595 0.40301 0.0
C320 C 0.20518 0.98047 0.39857 0.0
C321 C 0.19167 0.93943 0.36357 0.0
C322 C 0.15298 0.94391 0.36739 0.0
H323 H 0.22499 0.99772 0.40923 0.0
H324 H 0.20132 0.92433 0.3466 0.0
H325 H 0.28951 0.04037 0.383 0.0
H326 H 0.2277 0.06997 0.31626 0.0
H327 H 0.32765 0.83516 0.39493 0.0
H328 H 0.15773 0.00607 0.41764 0.0
H329 H 0.13354 0.92996 0.35425 0.0
C330 C 0.9882 0.22792 0.83235 0.0
C331 C 0.94961 0.22495 0.83098 0.0
N332 N 0.9346 0.24668 0.84975 0.0
N333 N 0.99774 0.25168 0.85172 0.0
C334 C 0.96439 0.26253 0.86222 0.0
H335 H 0.00821 0.21313 0.8202 0.0
Co336 Co 0.0482 0.26225 0.85899 0.0
C337 C 0.05294 0.28949 0.91298 0.0
O338 O 0.084 0.26943 0.91495 0.0
N339 N 0.10008 0.27314 0.86479 0.0
C340 C 0.15191 0.30739 0.87244 0.0
C341 C 0.11319 0.30811 0.8704 0.0
C342 C 0.13184 0.252 0.86252 0.0
N343 N 0.16355 0.27208 0.86741 0.0
O344 O 0.04503 0.30753 0.8387 0.0
H345 H 0.09557 0.33276 0.87291 0.0
H346 H 0.13231 0.22258 0.85726 0.0
O347 O 0.03423 0.28956 0.89157 0.0
C348 C 0.05143 0.30004 0.81488 0.0
O349 O 0.05785 0.26481 0.80832 0.0
N350 N 0.05076 0.21585 0.87652 0.0
C351 C 0.04362 0.14105 0.89262 0.0
C352 C 0.0265 0.1702 0.90667 0.0
C353 C 0.0297 0.20728 0.89799 0.0
C354 C 0.06687 0.18765 0.86237 0.0
C355 C 0.06448 0.15017 0.87039 0.0
H356 H 0.01277 0.22833 0.90754 0.0
H357 H 0.07944 0.19397 0.84376 0.0
H358 H 0.96194 0.28158 0.87855 0.0
H359 H 0.9338 0.20729 0.81767 0.0
H360 H 0.17019 0.33118 0.87658 0.0
H361 H 0.00919 0.16421 0.92351 0.0
H362 H 0.0766 0.12832 0.85827 0.0
C363 C 0.76557 0.98415 0.33718 0.0
C364 C 0.76433 0.94565 0.33458 0.0
N365 N 0.74248 0.93175 0.35369 0.0
N366 N 0.74432 0.99455 0.35769 0.0
C367 C 0.7308 0.96189 0.36756 0.0
H368 H 0.78106 0.00345 0.3249 0.0
Co369 Co 0.73664 0.0446 0.36689 0.0
C370 C 0.72074 0.046 0.42274 0.0
O371 O 0.74385 0.07499 0.42406 0.0
N372 N 0.72787 0.09592 0.37525 0.0
C373 C 0.69554 0.14653 0.38816 0.0
C374 C 0.69429 0.10822 0.38454 0.0
C375 C 0.74865 0.12786 0.37258 0.0
N376 N 0.72973 0.15882 0.38059 0.0
O377 O 0.68805 0.04341 0.3502 0.0
H378 H 0.67016 0.0903 0.38844 0.0
H379 H 0.77691 0.129 0.36482 0.0
O380 O 0.7149 0.0294 0.40095 0.0
C381 C 0.69334 0.04961 0.32607 0.0
O382 O 0.72813 0.05487 0.31788 0.0
N383 N 0.78614 0.04549 0.38015 0.0
C384 C 0.86406 0.03619 0.3866 0.0
C385 C 0.83847 0.01836 0.4034 0.0
C386 C 0.79954 0.02273 0.39951 0.0
C387 C 0.81073 0.06266 0.36362 0.0
C388 C 0.84965 0.05933 0.3669 0.0
H389 H 0.78056 0.00545 0.41079 0.0
H390 H 0.80007 0.0769 0.34659 0.0
H391 H 0.71243 0.96017 0.38431 0.0
H392 H 0.77898 0.92904 0.32011 0.0
H393 H 0.67264 0.16417 0.39499 0.0
H394 H 0.84829 0.99902 0.41819 0.0
H395 H 0.86824 0.07327 0.35323 0.0
C396 C 0.51221 0.74809 0.18889 0.0
C397 C 0.55038 0.75136 0.1935 0.0
N398 N 0.56584 0.77154 0.17409 0.0
N399 N 0.50344 0.7663 0.16672 0.0
C400 C 0.5367 0.78087 0.15838 0.0
H401 H 0.49254 0.73132 0.20007 0.0
Co402 Co 0.45572 0.76442 0.15055 0.0
C403 C 0.4874 0.77515 0.09642 0.0
O404 O 0.48302 0.73942 0.09058 0.0
N405 N 0.40705 0.76332 0.13483 0.0
C406 C 0.35936 0.75798 0.10681 0.0
C407 C 0.39783 0.75918 0.10953 0.0
C408 C 0.37311 0.76461 0.14708 0.0
N409 N 0.34357 0.76136 0.13042 0.0
O410 O 0.44469 0.81336 0.16485 0.0
H411 H 0.41714 0.75596 0.09368 0.0
H412 H 0.37021 0.76724 0.16789 0.0
O413 O 0.47684 0.78806 0.11853 0.0
C414 C 0.43571 0.80876 0.18863 0.0
O415 O 0.43294 0.77422 0.19763 0.0
N416 N 0.46578 0.71393 0.13965 0.0
C417 C 0.47971 0.63686 0.13305 0.0
C418 C 0.50861 0.66331 0.12945 0.0
C419 C 0.50125 0.70151 0.1332 0.0
C420 C 0.43763 0.68817 0.14382 0.0
C421 C 0.44374 0.64966 0.14008 0.0
H422 H 0.52426 0.72106 0.13045 0.0
H423 H 0.41053 0.69695 0.15125 0.0
H424 H 0.54009 0.79572 0.14021 0.0
H425 H 0.566 0.73733 0.20877 0.0
H426 H 0.34434 0.75349 0.08876 0.0
H427 H 0.53687 0.65454 0.12406 0.0
H428 H 0.42099 0.62996 0.14396 0.0
C429 C 0.2419 0.5192 0.68714 0.0
C430 C 0.2381 0.55726 0.69145 0.0
N431 N 0.22179 0.57282 0.67043 0.0
N432 N 0.22775 0.51043 0.66356 0.0
C433 C 0.21517 0.54375 0.65397 0.0
H434 H 0.2565 0.49963 0.69969 0.0
Co435 Co 0.23273 0.46235 0.64814 0.0
C436 C 0.22632 0.49418 0.59335 0.0
O437 O 0.26301 0.49595 0.59018 0.0
N438 N 0.23694 0.41351 0.63303 0.0
C439 C 0.25013 0.36648 0.60581 0.0
C440 C 0.24707 0.40488 0.60845 0.0
C441 C 0.23382 0.37948 0.6449 0.0
N442 N 0.24204 0.35039 0.62877 0.0
O443 O 0.18247 0.45008 0.65959 0.0
H444 H 0.25354 0.4249 0.59343 0.0
H445 H 0.22745 0.37617 0.66529 0.0
O446 O 0.21219 0.48127 0.6145 0.0
C447 C 0.18467 0.44072 0.68345 0.0
O448 O 0.21823 0.43903 0.69433 0.0
N449 N 0.28441 0.47334 0.64023 0.0
C450 C 0.36219 0.48666 0.63666 0.0
C451 C 0.33639 0.51583 0.63242 0.0
C452 C 0.29776 0.50878 0.63474 0.0
C453 C 0.30965 0.4453 0.64582 0.0
C454 C 0.34848 0.45104 0.64347 0.0
H455 H 0.27875 0.53195 0.63136 0.0
H456 H 0.30013 0.41844 0.65314 0.0
H457 H 0.20398 0.5472 0.63458 0.0
H458 H 0.24939 0.57274 0.70785 0.0
H459 H 0.25823 0.35164 0.58832 0.0
H460 H 0.34594 0.54394 0.62742 0.0
H461 H 0.36766 0.42818 0.64805 0.0
C462 C 0.48357 0.24701 0.1916 0.0
C463 C 0.44516 0.24473 0.19557 0.0
N464 N 0.42984 0.22465 0.176 0.0
N465 N 0.49263 0.22831 0.16966 0.0
C466 C 0.45929 0.2144 0.16085 0.0
H467 H 0.50327 0.26345 0.20304 0.0
Co468 Co 0.54078 0.22901 0.15404 0.0
C469 C 0.50775 0.21706 0.10019 0.0
O470 O 0.50846 0.25309 0.0947 0.0
N471 N 0.58953 0.22878 0.13858 0.0
C472 C 0.63651 0.23459 0.11014 0.0
C473 C 0.59806 0.23397 0.11328 0.0
C474 C 0.62372 0.2264 0.15043 0.0
N475 N 0.65286 0.22997 0.1335 0.0
O476 O 0.55063 0.18014 0.1686 0.0
H477 H 0.57809 0.23899 0.09794 0.0
H478 H 0.62712 0.22319 0.17117 0.0
O479 O 0.52027 0.20498 0.122 0.0
C480 C 0.55963 0.18487 0.19238 0.0
O481 O 0.5626 0.21949 0.20129 0.0
N482 N 0.53223 0.27986 0.14291 0.0
C483 C 0.52243 0.35771 0.13592 0.0
C484 C 0.49196 0.33277 0.13301 0.0
C485 C 0.49728 0.29421 0.13699 0.0
C486 C 0.56172 0.30424 0.14677 0.0
C487 C 0.55775 0.34285 0.14268 0.0
H488 H 0.47303 0.276 0.13497 0.0
H489 H 0.58848 0.29436 0.1541 0.0
H490 H 0.45618 0.19922 0.14276 0.0
H491 H 0.42942 0.25929 0.21054 0.0
H492 H 0.6512 0.24002 0.09211 0.0
H493 H 0.46384 0.34297 0.12856 0.0
H494 H 0.58214 0.36094 0.14542 0.0
C495 C 0.76263 0.48352 0.69174 0.0
C496 C 0.76596 0.44547 0.69619 0.0
N497 N 0.7822 0.42953 0.67528 0.0
N498 N 0.777 0.49186 0.66818 0.0
C499 C 0.78914 0.4583 0.65871 0.0
H500 H 0.74839 0.50346 0.70424 0.0
Co501 Co 0.77369 0.53994 0.65278 0.0
C502 C 0.77846 0.50675 0.59814 0.0
O503 O 0.74172 0.50418 0.59563 0.0
N504 N 0.77133 0.58865 0.63758 0.0
C505 C 0.76008 0.63584 0.61021 0.0
C506 C 0.76171 0.59738 0.61294 0.0
C507 C 0.77549 0.62261 0.64941 0.0
N508 N 0.76858 0.65191 0.63319 0.0
O509 O 0.82446 0.55042 0.66406 0.0
H510 H 0.75422 0.57737 0.59805 0.0
H511 H 0.78227 0.62567 0.66976 0.0
O512 O 0.79311 0.52024 0.619 0.0
C513 C 0.82269 0.55986 0.68795 0.0
O514 O 0.78931 0.56236 0.69896 0.0
N515 N 0.72139 0.53102 0.64512 0.0
C516 C 0.64286 0.52176 0.64121 0.0
C517 C 0.66721 0.49107 0.63773 0.0
C518 C 0.70617 0.49611 0.64029 0.0
C519 C 0.69759 0.56047 0.65024 0.0
C520 C 0.65858 0.5568 0.64764 0.0
H521 H 0.72392 0.47176 0.63766 0.0
H522 H 0.70835 0.58709 0.6572 0.0
H523 H 0.80058 0.45453 0.63943 0.0
H524 H 0.75461 0.43029 0.71266 0.0
H525 H 0.75133 0.65061 0.59286 0.0
H526 H 0.6563 0.46312 0.63366 0.0
H527 H 0.64096 0.58127 0.65097 0.0
H528 H 0.01468 0.09077 0.17686 0.0
H529 H 0.9669 0.90717 0.09242 0.0
H530 H 0.01729 0.09094 0.09308 0.0
H531 H 0.97721 0.90909 0.17592 0.0
H532 H 0.98312 0.97454 0.09148 0.0
H533 H 0.99866 0.02423 0.17616 0.0
C534 C 0.01236 0.07668 0.15826 0.0
C535 C 0.01792 0.09641 0.13498 0.0
C536 C 0.98164 0.96013 0.10997 0.0
C537 C 0.99862 0.01991 0.13403 0.0
C538 C 0.97248 0.92173 0.11052 0.0
C539 C 0.97023 0.90253 0.13431 0.0
C540 C 0.98867 0.9793 0.13337 0.0
C541 C 0.97764 0.9228 0.15717 0.0
C542 C 0.00286 0.03864 0.15787 0.0
C543 C 0.01322 0.0768 0.11148 0.0
N544 N 0.98648 0.95995 0.15611 0.0
N545 N 0.00389 0.03953 0.11158 0.0
H546 H 0.09535 0.97399 0.59437 0.0
H547 H 0.91257 0.01965 0.67976 0.0
H548 H 0.09426 0.98555 0.67781 0.0
H549 H 0.91176 0.02902 0.59621 0.0
H550 H 0.97898 0.00359 0.67836 0.0
H551 H 0.02794 0.991 0.59351 0.0
C552 C 0.08096 0.97999 0.61245 0.0
C553 C 0.1003 0.97771 0.63623 0.0
C554 C 0.96453 0.00937 0.66026 0.0
C555 C 0.02371 0.99704 0.63538 0.0
C556 C 0.92653 0.01891 0.66107 0.0
C557 C 0.90668 0.02647 0.63809 0.0
C558 C 0.98312 0.00699 0.63628 0.0
C559 C 0.92608 0.02352 0.61438 0.0
C560 C 0.04259 0.98963 0.61194 0.0
C561 C 0.08037 0.98584 0.65908 0.0
N562 N 0.96339 0.01404 0.61406 0.0
N563 N 0.04329 0.99502 0.65805 0.0
H564 H 0.51663 0.59951 0.85194 0.0
H565 H 0.48739 0.40381 0.92647 0.0
H566 H 0.45851 0.592 0.92535 0.0
H567 H 0.55273 0.41757 0.85638 0.0
H568 H 0.47596 0.4721 0.92707 0.0
H569 H 0.52985 0.53234 0.85394 0.0
C570 C 0.5065 0.58359 0.86847 0.0
C571 C 0.48608 0.60126 0.88837 0.0
C572 C 0.49298 0.4601 0.91169 0.0
C573 C 0.50142 0.52404 0.89095 0.0
C574 C 0.49936 0.42117 0.91126 0.0
C575 C 0.52123 0.40498 0.89142 0.0
C576 C 0.50835 0.48284 0.89202 0.0
C577 C 0.53627 0.4288 0.8723 0.0
C578 C 0.51424 0.54521 0.86969 0.0
C579 C 0.47439 0.57942 0.90962 0.0
N580 N 0.52946 0.4664 0.87306 0.0
N581 N 0.48201 0.54178 0.91029 0.0
H582 H 0.60766 0.46247 0.40059 0.0
H583 H 0.39357 0.53553 0.40028 0.0
H584 H 0.57684 0.57938 0.39123 0.0
H585 H 0.42441 0.41896 0.38894 0.0
H586 H 0.46053 0.55174 0.40453 0.0
H587 H 0.54062 0.44603 0.40386 0.0
C588 C 0.58681 0.48478 0.39964 0.0
C589 C 0.59786 0.52239 0.39562 0.0
C590 C 0.45264 0.52257 0.40131 0.0
C591 C 0.52106 0.50367 0.39909 0.0
C592 C 0.4144 0.51323 0.3991 0.0
C593 C 0.40337 0.4758 0.39425 0.0
C594 C 0.48013 0.49428 0.39881 0.0
C595 C 0.43169 0.4482 0.39246 0.0
C596 C 0.54854 0.47531 0.40129 0.0
C597 C 0.56954 0.55001 0.3941 0.0
N598 N 0.46876 0.458 0.3947 0.0
N599 N 0.53245 0.5401 0.3958 0.0
H600 H 0.0932 0.08177 0.89368 0.0
H601 H 0.92907 0.92826 0.89753 0.0
H602 H 0.97562 0.10949 0.90523 0.0
H603 H 0.04762 0.89999 0.90098 0.0
H604 H 0.9456 0.99487 0.90278 0.0
H605 H 0.07753 0.01491 0.8988 0.0
C606 C 0.06418 0.07376 0.89759 0.0
C607 C 0.03567 0.10112 0.89896 0.0
C608 C 0.96798 0.97406 0.90274 0.0
C609 C 0.01743 0.0249 0.90461 0.0
C610 C 0.95854 0.93611 0.89965 0.0
C611 C 0.98702 0.90868 0.89874 0.0
C612 C 0.00621 0.98465 0.90455 0.0
C613 C 0.02475 0.92023 0.90179 0.0
C614 C 0.05524 0.03567 0.90058 0.0
C615 C 0.99854 0.08933 0.90425 0.0
N616 N 0.03329 0.95741 0.90425 0.0
N617 N 0.99043 0.05207 0.90658 0.0
H618 H 0.09538 0.9786 0.43037 0.0
H619 H 0.91092 0.02302 0.34559 0.0
H620 H 0.09173 0.98131 0.34664 0.0
H621 H 0.9105 0.02751 0.42933 0.0
H622 H 0.97757 0.00731 0.34648 0.0
H623 H 0.02814 0.99605 0.43132 0.0
C624 C 0.08048 0.98279 0.41223 0.0
C625 C 0.09913 0.97796 0.38839 0.0
C626 C 0.96312 0.01187 0.36474 0.0
C627 C 0.02252 0.99787 0.38933 0.0
C628 C 0.92497 0.02123 0.36423 0.0
C629 C 0.90508 0.0272 0.38742 0.0
C630 C 0.98186 0.00815 0.38862 0.0
C631 C 0.92473 0.02313 0.41099 0.0
C632 C 0.04215 0.99266 0.41279 0.0
C633 C 0.07844 0.98374 0.36548 0.0
N634 N 0.96212 0.0139 0.411 0.0
N635 N 0.0414 0.99332 0.36656 0.0
H636 H 0.47687 0.39627 0.10168 0.0
H637 H 0.5399 0.59924 0.15349 0.0
H638 H 0.55519 0.41374 0.16501 0.0
H639 H 0.43768 0.58168 0.10924 0.0
H640 H 0.5517 0.53147 0.15243 0.0
H641 H 0.46713 0.46455 0.09941 0.0
C642 C 0.49199 0.41435 0.11511 0.0
C643 C 0.51699 0.3991 0.13353 0.0
C644 C 0.52673 0.54242 0.14288 0.0
C645 C 0.5064 0.47713 0.13069 0.0
C646 C 0.52015 0.58111 0.1433 0.0
C647 C 0.48778 0.59601 0.13141 0.0
C648 C 0.50091 0.51844 0.13034 0.0
C649 C 0.46281 0.57119 0.11882 0.0
C650 C 0.48651 0.45329 0.11371 0.0
C651 C 0.53624 0.42405 0.15014 0.0
N652 N 0.46991 0.53352 0.11858 0.0
N653 N 0.53056 0.46177 0.1483 0.0
H654 H 0.40117 0.54549 0.65797 0.0
H655 H 0.60293 0.47783 0.60679 0.0
H656 H 0.41643 0.44382 0.61306 0.0
H657 H 0.58793 0.55477 0.67106 0.0
H658 H 0.53428 0.47011 0.60429 0.0
H659 H 0.4696 0.55529 0.65774 0.0
C660 C 0.41896 0.52545 0.64784 0.0
C661 C 0.40329 0.49379 0.63554 0.0
C662 C 0.54614 0.48871 0.61888 0.0
C663 C 0.48137 0.50463 0.63535 0.0
C664 C 0.58529 0.49299 0.62043 0.0
C665 C 0.6013 0.51703 0.63915 0.0
C666 C 0.52288 0.50883 0.63603 0.0
C667 C 0.57694 0.53648 0.656 0.0
C668 C 0.45796 0.53089 0.64788 0.0
C669 C 0.42756 0.46841 0.62297 0.0
N670 N 0.53897 0.53199 0.654 0.0
N671 N 0.46549 0.47439 0.62316 0.0
H672 H 0.07008 0.33814 0.07252 0.0
H673 H 0.98356 0.27743 0.93542 0.0
H674 H 0.9837 0.2535 0.06331 0.0
H675 H 0.08959 0.33524 0.94652 0.0
H676 H 0.96959 0.28601 0.98184 0.0
H677 H 0.06306 0.3549 0.02662 0.0
C678 C 0.04852 0.32419 0.06101 0.0
C679 C 0.02704 0.29484 0.07164 0.0
C680 C 0.99536 0.29784 0.97391 0.0
C681 C 0.0198 0.31268 0.01896 0.0
C682 C 0.00313 0.29331 0.94739 0.0
C683 C 0.03782 0.30562 0.93724 0.0
C684 C 0.02236 0.3151 0.99016 0.0
C685 C 0.06252 0.3254 0.95366 0.0
C686 C 0.04478 0.33343 0.03477 0.0
C687 C 1.00031 0.27673 0.05581 0.0
N688 N 0.05453 0.32917 0.97931 0.0
N689 N 0.99777 0.28557 0.03013 0.0
H690 H 0.73324 0.97994 0.44882 0.0
H691 H 0.66713 0.08122 0.57868 0.0
H692 H 0.67215 0.08472 0.45281 0.0
H693 H 0.73699 0.98192 0.57794 0.0
H694 H 0.65334 0.07176 0.53268 0.0
H695 H 0.72041 0.96964 0.49525 0.0
C696 C 0.71578 0.99993 0.45926 0.0
C697 C 0.70345 0.03308 0.44712 0.0
C698 C 0.67093 0.05136 0.54259 0.0
C699 C 0.68949 0.02214 0.50006 0.0
C700 C 0.67844 0.05659 0.56893 0.0
C701 C 0.70289 0.03213 0.58202 0.0
C702 C 0.68898 0.02206 0.529 0.0
C703 C 0.71758 0.0011 0.56849 0.0
C704 C 0.7088 0.9943 0.48578 0.0
C705 C 0.68187 0.05868 0.46153 0.0
N706 N 0.71102 0.99733 0.54252 0.0
N707 N 0.67593 0.0529 0.48725 0.0
H708 H 0.92905 0.66642 0.94027 0.0
H709 H 0.02039 0.72884 0.07529 0.0
H710 H 0.02423 0.74174 0.9463 0.0
H711 H 0.91231 0.67438 0.06578 0.0
H712 H 0.03384 0.71732 0.02901 0.0
H713 H 0.9354 0.65154 0.9864 0.0
C714 C 0.95239 0.67849 0.95112 0.0
C715 C 0.97649 0.70485 0.93947 0.0
C716 C 0.00767 0.70691 0.03726 0.0
C717 C 0.9828 0.68966 0.99263 0.0
C718 C 1.00019 0.71316 0.06368 0.0
C719 C 0.96527 0.70236 0.07423 0.0
C720 C 0.98005 0.68961 0.02151 0.0
C721 C 0.93962 0.68298 0.05831 0.0
C722 C 0.95571 0.67046 0.97756 0.0
C723 C 0.00552 0.72073 0.95455 0.0
N724 N 0.94735 0.67752 0.03277 0.0
N725 N 0.00747 0.71345 0.9805 0.0
H726 H 0.27119 0.02203 0.44713 0.0
H727 H 0.33966 0.92192 0.57658 0.0
H728 H 0.33401 0.91827 0.45065 0.0
H729 H 0.2696 0.02108 0.57604 0.0
H730 H 0.3531 0.93129 0.53055 0.0
H731 H 0.28477 0.03277 0.49342 0.0
C732 C 0.28922 0.0024 0.45741 0.0
C733 C 0.30184 0.9694 0.44518 0.0
C734 C 0.33556 0.95169 0.54051 0.0
C735 C 0.31656 0.98077 0.49803 0.0
C736 C 0.32825 0.94652 0.56687 0.0
C737 C 0.30384 0.97096 0.58003 0.0
C738 C 0.31736 0.98092 0.52697 0.0
C739 C 0.289 0.00193 0.56654 0.0
C740 C 0.29662 0.00827 0.48387 0.0
C741 C 0.32412 0.94422 0.45943 0.0
N742 N 0.29536 0.00564 0.54056 0.0
N743 N 0.3304 0.95018 0.48512 0.0
H744 H 0.55603 0.16726 0.07732 0.0
H745 H 0.44748 0.2127 0.94837 0.0
H746 H 0.44325 0.21221 0.07237 0.0
H747 H 0.56317 0.17546 0.95141 0.0
H748 H 0.43797 0.18952 0.99252 0.0
H749 H 0.55161 0.14754 0.03174 0.0
C750 C 0.52963 0.17119 0.06699 0.0
C751 C 0.49996 0.19143 0.07841 0.0
C752 C 0.46517 0.1852 0.98335 0.0
C753 C 0.49509 0.17026 0.02628 0.0
C754 C 0.47041 0.19808 0.95803 0.0
C755 C 0.50606 0.1958 0.94639 0.0
C756 C 0.49625 0.17121 0.99741 0.0
C757 C 0.53515 0.17737 0.95978 0.0
C758 C 0.52725 0.16039 0.04088 0.0
C759 C 0.4667 0.19668 0.06412 0.0
N760 N 0.52992 0.16663 0.98489 0.0
N761 N 0.46541 0.18684 0.03867 0.0
H762 H 0.83297 0.55388 0.57887 0.0
H763 H 0.79139 0.47578 0.43637 0.0
H764 H 0.77202 0.45134 0.56217 0.0
H765 H 0.81986 0.59087 0.45513 0.0
H766 H 0.80657 0.45764 0.48129 0.0
H767 H 0.85121 0.55782 0.53299 0.0
C768 C 0.82486 0.53133 0.56578 0.0
C769 C 0.80075 0.50241 0.57415 0.0
C770 C 0.81053 0.48667 0.47533 0.0
C771 C 0.82066 0.50709 0.52176 0.0
C772 C 0.80214 0.49691 0.44969 0.0
C773 C 0.80406 0.53488 0.44227 0.0
C774 C 0.82113 0.51462 0.4934 0.0
C775 C 0.81767 0.56133 0.46028 0.0
C776 C 0.83486 0.5338 0.53954 0.0
C777 C 0.79045 0.47423 0.55633 0.0
N778 N 0.82526 0.55082 0.48507 0.0
N779 N 0.79991 0.47758 0.53088 0.0
H780 H 0.55675 0.78191 0.07518 0.0
H781 H 0.45965 0.82739 0.94028 0.0
H782 H 0.44189 0.82034 0.06759 0.0
H783 H 0.57209 0.78214 0.94959 0.0
H784 H 0.45817 0.84163 0.98677 0.0
H785 H 0.56873 0.80018 0.0302 0.0
C786 C 0.53457 0.79588 0.06431 0.0
C787 C 0.49846 0.80003 0.07502 0.0
C788 C 0.48343 0.82921 0.97854 0.0
C789 C 0.51109 0.81896 0.02314 0.0
C790 C 0.48428 0.82101 0.95197 0.0
C791 C 0.51562 0.8025 0.94111 0.0
C792 C 0.51417 0.81893 0.99433 0.0
C793 C 0.54696 0.79562 0.95717 0.0
C794 C 0.54118 0.80581 0.03851 0.0
C795 C 0.47028 0.81725 0.06002 0.0
N796 N 0.5452 0.80329 0.98298 0.0
N797 N 0.47692 0.82532 0.0346 0.0
H798 H 0.23043 0.55115 0.55859 0.0
H799 H 0.17789 0.40838 0.44993 0.0
H800 H 0.17254 0.44651 0.57374 0.0
H801 H 0.2113 0.52282 0.43361 0.0
H802 H 0.16278 0.4266 0.4944 0.0
H803 H 0.21067 0.54758 0.51323 0.0
C804 C 0.21226 0.52813 0.5525 0.0
C805 C 0.2032 0.49899 0.5698 0.0
C806 C 0.17244 0.44809 0.48103 0.0
C807 C 0.18183 0.49377 0.51768 0.0
C808 C 0.18101 0.43767 0.45562 0.0
C809 C 0.19611 0.46411 0.43826 0.0
C810 C 0.18016 0.48502 0.48942 0.0
C811 C 0.19966 0.50164 0.44647 0.0
C812 C 0.20117 0.52594 0.52654 0.0
C813 C 0.17993 0.46963 0.56099 0.0
N814 N 0.19266 0.51082 0.47171 0.0
N815 N 0.17087 0.46723 0.53534 0.0
H816 H 0.08824 0.37962 0.17777 0.0
H817 H 0.12658 0.42476 0.32768 0.0
H818 H 0.04076 0.31719 0.24168 0.0
H819 H 0.1966 0.4642 0.26478 0.0
H820 H 0.08083 0.4008 0.29579 0.0
H821 H 0.11364 0.42595 0.20889 0.0
C822 C 0.08215 0.37639 0.19825 0.0
C823 C 0.06284 0.3445 0.20731 0.0
C824 C 0.10585 0.41543 0.28901 0.0
C825 C 0.09179 0.39676 0.24282 0.0
C826 C 0.13181 0.42928 0.30721 0.0
C827 C 0.16564 0.44587 0.2988 0.0
C828 C 0.1138 0.41846 0.26232 0.0
C829 C 0.1711 0.45095 0.27204 0.0
C830 C 0.09685 0.40258 0.21601 0.0
C831 C 0.05597 0.34127 0.23403 0.0
N832 N 0.14572 0.43688 0.25474 0.0
N833 N 0.07076 0.3668 0.25087 0.0
H834 H 0.62788 0.07635 0.69376 0.0
H835 H 0.59901 0.12172 0.84471 0.0
H836 H 0.69739 0.0309 0.75495 0.0
H837 H 0.55134 0.18649 0.78197 0.0
H838 H 0.6211 0.07479 0.81289 0.0
H839 H 0.58521 0.10259 0.72673 0.0
C840 C 0.63345 0.07087 0.71409 0.0
C841 C 0.66635 0.05192 0.72172 0.0
C842 C 0.60513 0.09893 0.8062 0.0
C843 C 0.61828 0.08213 0.75942 0.0
C844 C 0.59242 0.12553 0.82435 0.0
C845 C 0.57394 0.15818 0.81583 0.0
C846 C 0.59886 0.10505 0.77952 0.0
C847 C 0.56613 0.16195 0.78925 0.0
C848 C 0.60934 0.0861 0.73291 0.0
C849 C 0.6725 0.04584 0.74832 0.0
N850 N 0.57892 0.13596 0.77203 0.0
N851 N 0.64902 0.06133 0.76623 0.0
H852 H 0.80509 0.53576 0.26928 0.0
H853 H 0.96786 0.68225 0.24563 0.0
H854 H 0.87523 0.57927 0.33094 0.0
H855 H 0.91291 0.62186 0.18348 0.0
H856 H 0.94229 0.63703 0.27669 0.0
H857 H 0.8509 0.55849 0.23755 0.0
C858 C 0.83061 0.54949 0.27614 0.0
C859 C 0.83621 0.55611 0.30273 0.0
C860 C 0.93647 0.63298 0.25624 0.0
C861 C 0.8885 0.58295 0.26644 0.0
C862 C 0.95116 0.65876 0.23848 0.0
C863 C 0.94219 0.65585 0.21203 0.0
C864 C 0.91181 0.60457 0.24757 0.0
C865 C 0.92052 0.62499 0.20373 0.0
C866 C 0.8568 0.56244 0.258 0.0
C867 C 0.86984 0.5737 0.3106 0.0
N868 N 0.90532 0.60098 0.22154 0.0
N869 N 0.89437 0.58725 0.29249 0.0
H870 H 0.41453 0.88145 0.84117 0.0
H871 H 0.38214 0.92819 0.69081 0.0
H872 H 0.46818 0.8226 0.7779 0.0
H873 H 0.30934 0.96593 0.75266 0.0
H874 H 0.42696 0.90449 0.72343 0.0
H875 H 0.38902 0.92724 0.8099 0.0
C876 C 0.42177 0.87882 0.82082 0.0
C877 C 0.44295 0.84802 0.81198 0.0
C878 C 0.40155 0.91875 0.72983 0.0
C879 C 0.41394 0.8998 0.77624 0.0
C880 C 0.37619 0.93251 0.71122 0.0
C881 C 0.3419 0.94854 0.71913 0.0
C882 C 0.39248 0.92132 0.7564 0.0
C883 C 0.33532 0.95321 0.74581 0.0
C884 C 0.40707 0.90474 0.80297 0.0
C885 C 0.45141 0.84569 0.78541 0.0
N886 N 0.3601 0.93926 0.76349 0.0
N887 N 0.43656 0.87093 0.76846 0.0
H888 H 0.95657 0.71723 0.76683 0.0
H889 H 0.83863 0.53442 0.73594 0.0
H890 H 0.9319 0.63256 0.82439 0.0
H891 H 0.88019 0.60925 0.67665 0.0
H892 H 0.88165 0.56352 0.76721 0.0
H893 H 0.93798 0.67319 0.73277 0.0
C894 C 0.94772 0.68904 0.77226 0.0
C895 C 0.94523 0.67864 0.79848 0.0
C896 C 0.88223 0.57304 0.74725 0.0
C897 C 0.92328 0.6281 0.75948 0.0
C898 C 0.8578 0.55629 0.72937 0.0
C899 C 0.856 0.56955 0.70376 0.0
C900 C 0.90433 0.60401 0.73965 0.0
C901 C 0.88105 0.59808 0.69619 0.0
C902 C 0.9372 0.66385 0.75276 0.0
C903 C 0.93408 0.6417 0.80441 0.0
N904 N 0.90367 0.61496 0.71423 0.0
N905 N 0.92277 0.61795 0.78505 0.0
H906 H 0.30387 0.9637 0.27341 0.0
H907 H 0.45834 0.81255 0.23853 0.0
H908 H 0.37777 0.91394 0.33038 0.0
H909 H 0.39754 0.87551 0.18049 0.0
H910 H 0.43699 0.85683 0.27163 0.0
H911 H 0.34486 0.94027 0.23893 0.0
C912 C 0.32935 0.94854 0.27864 0.0
C913 C 0.33735 0.94041 0.30473 0.0
C914 C 0.42882 0.86157 0.25164 0.0
C915 C 0.38396 0.9126 0.26528 0.0
C916 C 0.441 0.83627 0.23271 0.0
C917 C 0.42931 0.84026 0.20683 0.0
C918 C 0.40397 0.89071 0.24479 0.0
C919 C 0.40714 0.87151 0.20026 0.0
C920 C 0.35272 0.93511 0.25893 0.0
C921 C 0.37068 0.92084 0.31049 0.0
N922 N 0.39449 0.89517 0.21925 0.0
N923 N 0.39239 0.90688 0.29087 0.0
H924 H 0.07213 0.37427 0.82169 0.0
H925 H 0.12352 0.39598 0.67117 0.0
H926 H 0.04336 0.29264 0.76273 0.0
H927 H 0.17207 0.46279 0.73271 0.0
H928 H 0.07871 0.36882 0.7026 0.0
H929 H 0.09334 0.41762 0.78751 0.0
C930 C 0.06938 0.36588 0.80155 0.0
C931 C 0.05658 0.32966 0.79502 0.0
C932 C 0.0986 0.39011 0.70906 0.0
C933 C 0.08097 0.37873 0.75592 0.0
C934 C 0.12387 0.40579 0.69109 0.0
C935 C 0.15155 0.43131 0.69952 0.0
C936 C 0.10114 0.40033 0.73546 0.0
C937 C 0.15127 0.44283 0.72558 0.0
C938 C 0.08168 0.39048 0.78205 0.0
C939 C 0.05369 0.32013 0.76861 0.0
N940 N 0.12681 0.42699 0.74267 0.0
N941 N 0.06623 0.34427 0.75006 0.0
H942 H 0.62305 0.08026 0.33467 0.0
H943 H 0.59411 0.11661 0.18257 0.0
H944 H 0.69381 0.03316 0.27479 0.0
H945 H 0.54283 0.18252 0.24343 0.0
H946 H 0.6173 0.0721 0.21559 0.0
H947 H 0.5798 0.10356 0.30095 0.0
C948 C 0.62882 0.07383 0.3145 0.0
C949 C 0.66218 0.05527 0.30741 0.0
C950 C 0.60028 0.09591 0.22162 0.0
C951 C 0.61344 0.08206 0.26886 0.0
C952 C 0.58692 0.12111 0.20277 0.0
C953 C 0.5671 0.15344 0.21041 0.0
C954 C 0.59338 0.10313 0.2481 0.0
C955 C 0.55861 0.15817 0.23683 0.0
C956 C 0.60437 0.08736 0.29524 0.0
C957 C 0.66857 0.04789 0.28099 0.0
N958 N 0.5721 0.13358 0.25473 0.0
N959 N 0.64474 0.0617 0.26266 0.0
H960 H 0.39772 0.22691 0.12813 0.0
H961 H 0.18548 0.22995 0.18259 0.0
H962 H 0.37117 0.21896 0.2096 0.0
H963 H 0.21724 0.27307 0.10751 0.0
H964 H 0.25189 0.21386 0.19088 0.0
H965 H 0.33012 0.23142 0.1184 0.0
C966 C 0.37763 0.22535 0.14394 0.0
C967 C 0.39009 0.22258 0.16975 0.0
C968 C 0.24424 0.22661 0.17252 0.0
C969 C 0.31265 0.22816 0.15875 0.0
C970 C 0.20634 0.23555 0.16772 0.0
C971 C 0.19589 0.25304 0.14436 0.0
C972 C 0.2718 0.23475 0.15369 0.0
C973 C 0.22418 0.26005 0.12588 0.0
C974 C 0.33906 0.22831 0.13839 0.0
C975 C 0.36274 0.22137 0.18948 0.0
N976 N 0.26079 0.2509 0.13093 0.0
N977 N 0.32532 0.22425 0.18359 0.0
H978 H 0.71215 0.2139 0.6189 0.0
H979 H 0.79901 0.37376 0.70906 0.0
H980 H 0.77949 0.1881 0.68633 0.0
H981 H 0.76651 0.39429 0.62973 0.0
H982 H 0.79168 0.30579 0.70163 0.0
H983 H 0.73055 0.2803 0.6229 0.0
C984 C 0.73091 0.22225 0.63451 0.0
C985 C 0.74416 0.1955 0.65238 0.0
C986 C 0.78669 0.3251 0.68573 0.0
C987 C 0.76523 0.27148 0.65719 0.0
C988 C 0.79084 0.36382 0.68998 0.0
C989 C 0.78341 0.38961 0.66999 0.0
C990 C 0.77422 0.31204 0.66142 0.0
C991 C 0.77291 0.37535 0.64558 0.0
C992 C 0.74161 0.26008 0.63669 0.0
C993 C 0.7688 0.20776 0.67206 0.0
N994 N 0.7681 0.33757 0.64209 0.0
N995 N 0.77818 0.24492 0.67414 0.0
H996 H 0.59927 0.76621 0.12688 0.0
H997 H 0.80987 0.77052 0.18409 0.0
H998 H 0.62322 0.78093 0.20832 0.0
H999 H 0.77975 0.71496 0.11252 0.0
H1000 H 0.74325 0.78776 0.19032 0.0
H1001 H 0.66723 0.76128 0.11839 0.0
C1002 C 0.61888 0.76924 0.14289 0.0
C1003 C 0.60565 0.77395 0.16837 0.0
C1004 C 0.75133 0.77204 0.17317 0.0
C1005 C 0.68334 0.76797 0.15883 0.0
C1006 C 0.7893 0.76241 0.16954 0.0
C1007 C 0.80021 0.7411 0.14783 0.0
C1008 C 0.72423 0.76079 0.15474 0.0
C1009 C 0.77237 0.73098 0.12967 0.0
C1010 C 0.65762 0.76604 0.13808 0.0
C1011 C 0.63234 0.77704 0.18845 0.0
N1012 N 0.73568 0.74092 0.13351 0.0
N1013 N 0.66993 0.77391 0.18328 0.0
H1014 H 0.23725 0.60711 0.62456 0.0
H1015 H 0.22491 0.81587 0.68417 0.0
H1016 H 0.20564 0.62947 0.70384 0.0
H1017 H 0.29147 0.78779 0.61684 0.0
H1018 H 0.20594 0.74943 0.68779 0.0
H1019 H 0.24495 0.67512 0.61748 0.0
C1020 C 0.2311 0.6264 0.6403 0.0
C1021 C 0.2208 0.61268 0.66484 0.0
C1022 C 0.2245 0.7579 0.67213 0.0
C1023 C 0.22992 0.69043 0.65699 0.0
C1024 C 0.23515 0.79582 0.66997 0.0
C1025 C 0.26001 0.80732 0.65027 0.0
C1026 C 0.23836 0.73136 0.65422 0.0
C1027 C 0.27269 0.78003 0.63252 0.0
C1028 C 0.23588 0.66516 0.63634 0.0
C1029 C 0.21383 0.63894 0.6847 0.0
N1030 N 0.26175 0.74338 0.63491 0.0
N1031 N 0.2186 0.67651 0.68037 0.0
H1032 H 0.87687 0.24652 0.81539 0.0
H1033 H 0.71887 0.22795 0.92481 0.0
H1034 H 0.90175 0.25358 0.89716 0.0
H1035 H 0.69254 0.24957 0.8443 0.0
H1036 H 0.78582 0.23412 0.91486 0.0
H1037 H 0.80932 0.24521 0.82539 0.0
C1038 C 0.86801 0.24797 0.83548 0.0
C1039 C 0.89489 0.24995 0.8555 0.0
C1040 C 0.76537 0.23765 0.89939 0.0
C1041 C 0.81759 0.24818 0.86714 0.0
C1042 C 0.72694 0.23421 0.90504 0.0
C1043 C 0.69956 0.23852 0.88544 0.0
C1044 C 0.77685 0.24506 0.87386 0.0
C1045 C 0.71231 0.24569 0.86008 0.0
C1046 C 0.82947 0.24732 0.84117 0.0
C1047 C 0.88192 0.25226 0.88117 0.0
N1048 N 0.74997 0.24868 0.85504 0.0
N1049 N 0.84417 0.25092 0.88628 0.0
H1050 H 0.78317 0.71302 0.41187 0.0
H1051 H 0.72772 0.87788 0.31815 0.0
H1052 H 0.72225 0.69232 0.34083 0.0
H1053 H 0.74196 0.89639 0.40021 0.0
H1054 H 0.72467 0.80981 0.32593 0.0
H1055 H 0.76775 0.78019 0.40852 0.0
C1056 C 0.76613 0.72271 0.39574 0.0
C1057 C 0.75415 0.69738 0.37649 0.0
C1058 C 0.72781 0.82874 0.34231 0.0
C1059 C 0.73688 0.77395 0.37228 0.0
C1060 C 0.72972 0.86747 0.33785 0.0
C1061 C 0.73536 0.89251 0.35857 0.0
C1062 C 0.73249 0.81494 0.36762 0.0
C1063 C 0.7375 0.87786 0.38378 0.0
C1064 C 0.75719 0.7609 0.39388 0.0
C1065 C 0.73188 0.71106 0.35606 0.0
N1066 N 0.73677 0.83989 0.38758 0.0
N1067 N 0.72452 0.74862 0.35421 0.0
H1068 H 0.13124 0.80245 0.82392 0.0
H1069 H 0.29958 0.72977 0.9136 0.0
H1070 H 0.11514 0.71715 0.88275 0.0
H1071 H 0.31663 0.79381 0.84346 0.0
H1072 H 0.23186 0.72673 0.90411 0.0
H1073 H 0.19852 0.80153 0.83235 0.0
C1074 C 0.14161 0.78315 0.83847 0.0
C1075 C 0.11691 0.75946 0.8524 0.0
C1076 C 0.25041 0.7413 0.89074 0.0
C1077 C 0.19499 0.75904 0.86256 0.0
C1078 C 0.28907 0.74326 0.8962 0.0
C1079 C 0.31382 0.76236 0.87938 0.0
C1080 C 0.23621 0.75889 0.86839 0.0
C1081 C 0.29866 0.77867 0.85688 0.0
C1082 C 0.18035 0.78284 0.84335 0.0
C1083 C 0.13273 0.73604 0.87155 0.0
N1084 N 0.26082 0.77682 0.85216 0.0
N1085 N 0.17073 0.73648 0.87609 0.0
H1086 H 0.21478 0.2873 0.40658 0.0
H1087 H 0.27891 0.12153 0.31583 0.0
H1088 H 0.28071 0.3076 0.33774 0.0
H1089 H 0.25821 0.10412 0.3973 0.0
H1090 H 0.28051 0.18976 0.3233 0.0
H1091 H 0.23071 0.22018 0.40399 0.0
C1092 C 0.23298 0.27753 0.39109 0.0
C1093 C 0.24627 0.30275 0.37222 0.0
C1094 C 0.27626 0.17105 0.33964 0.0
C1095 C 0.2642 0.2262 0.36889 0.0
C1096 C 0.27519 0.13222 0.33535 0.0
C1097 C 0.26818 0.10743 0.35597 0.0
C1098 C 0.26935 0.18519 0.36464 0.0
C1099 C 0.2638 0.12245 0.38096 0.0
C1100 C 0.24222 0.23936 0.38968 0.0
C1101 C 0.27004 0.28896 0.35265 0.0
N1102 N 0.26375 0.16048 0.38455 0.0
N1103 N 0.27772 0.25142 0.3512 0.0
H1104 H 0.63091 0.78204 0.80657 0.0
H1105 H 0.79124 0.73537 0.90714 0.0
H1106 H 0.61113 0.78622 0.88901 0.0
H1107 H 0.81798 0.7825 0.83236 0.0
H1108 H 0.72476 0.7525 0.90064 0.0
H1109 H 0.69931 0.78195 0.8148 0.0
C1110 C 0.64107 0.78368 0.82637 0.0
C1111 C 0.61541 0.78407 0.84713 0.0
C1112 C 0.74521 0.75959 0.88578 0.0
C1113 C 0.69335 0.78302 0.85675 0.0
C1114 C 0.78302 0.74964 0.88944 0.0
C1115 C 0.80994 0.75748 0.87023 0.0
C1116 C 0.73403 0.77667 0.86243 0.0
C1117 C 0.79804 0.77619 0.84767 0.0
C1118 C 0.68001 0.78364 0.83107 0.0
C1119 C 0.62993 0.78615 0.87246 0.0
N1120 N 0.7608 0.78462 0.84418 0.0
N1121 N 0.66792 0.78481 0.87658 0.0
H1122 H 0.23325 0.62476 0.31584 0.0
H1123 H 0.28491 0.78588 0.41478 0.0
H1124 H 0.24532 0.60246 0.39757 0.0
H1125 H 0.22876 0.80897 0.34228 0.0
H1126 H 0.27033 0.71871 0.40942 0.0
H1127 H 0.23078 0.69244 0.32513 0.0
C1128 C 0.23491 0.63428 0.33578 0.0
C1129 C 0.23972 0.60827 0.35598 0.0
C1130 C 0.26067 0.73853 0.39488 0.0
C1131 C 0.23755 0.68544 0.36677 0.0
C1132 C 0.26916 0.77674 0.39787 0.0
C1133 C 0.25825 0.80282 0.37884 0.0
C1134 C 0.24182 0.72624 0.37241 0.0
C1135 C 0.23755 0.78974 0.35741 0.0
C1136 C 0.23336 0.67279 0.3411 0.0
C1137 C 0.24147 0.62177 0.38153 0.0
N1138 N 0.23054 0.75224 0.35454 0.0
N1139 N 0.24107 0.65957 0.3862 0.0
H1140 H 0.40194 0.23845 0.89373 0.0
H1141 H 0.19423 0.2234 0.83274 0.0
H1142 H 0.38251 0.21712 0.81244 0.0
H1143 H 0.2207 0.29199 0.89944 0.0
H1144 H 0.26141 0.2062 0.82927 0.0
H1145 H 0.33338 0.24286 0.90036 0.0
C1146 C 0.38317 0.23385 0.87741 0.0
C1147 C 0.39776 0.22749 0.85247 0.0
C1148 C 0.25237 0.22474 0.84478 0.0
C1149 C 0.3196 0.23264 0.85988 0.0
C1150 C 0.21414 0.23436 0.84684 0.0
C1151 C 0.20213 0.25932 0.86629 0.0
C1152 C 0.2785 0.23963 0.86263 0.0
C1153 C 0.22902 0.27303 0.88399 0.0
C1154 C 0.34415 0.23672 0.88115 0.0
C1155 C 0.37225 0.22232 0.83189 0.0
N1156 N 0.26595 0.26299 0.88177 0.0
N1157 N 0.33436 0.22507 0.83602 0.0
H1158 H 0.71371 0.21429 0.41485 0.0
H1159 H 0.77077 0.37608 0.31795 0.0
H1160 H 0.77285 0.19157 0.34343 0.0
H1161 H 0.75454 0.39767 0.39945 0.0
H1162 H 0.77222 0.30829 0.32686 0.0
H1163 H 0.72844 0.28148 0.41003 0.0
C1164 C 0.73009 0.22351 0.39827 0.0
C1165 C 0.74185 0.19753 0.3794 0.0
C1166 C 0.76893 0.3278 0.34289 0.0
C1167 C 0.75853 0.27414 0.37363 0.0
C1168 C 0.76798 0.36638 0.33778 0.0
C1169 C 0.76232 0.39222 0.358 0.0
C1170 C 0.76329 0.31495 0.36835 0.0
C1171 C 0.75909 0.37849 0.3834 0.0
C1172 C 0.73868 0.26174 0.39561 0.0
C1173 C 0.76338 0.21073 0.35844 0.0
N1174 N 0.75895 0.34065 0.38784 0.0
N1175 N 0.77052 0.24824 0.35588 0.0
H1176 H 0.12412 0.74011 0.20278 0.0
H1177 H 0.28521 0.77553 0.09742 0.0
H1178 H 0.10196 0.74682 0.12065 0.0
H1179 H 0.30974 0.74286 0.17637 0.0
H1180 H 0.21807 0.76814 0.10615 0.0
H1181 H 0.192 0.74314 0.194 0.0
C1182 C 0.13363 0.74204 0.18286 0.0
C1183 C 0.1074 0.74343 0.1624 0.0
C1184 C 0.23812 0.76246 0.12156 0.0
C1185 C 0.18509 0.74719 0.1522 0.0
C1186 C 0.27665 0.76658 0.1166 0.0
C1187 C 0.30356 0.75943 0.1361 0.0
C1188 C 0.22602 0.75145 0.14632 0.0
C1189 C 0.29025 0.74893 0.16075 0.0
C1190 C 0.17237 0.74368 0.17786 0.0
C1191 C 0.12123 0.74543 0.13695 0.0
N1192 N 0.25244 0.74526 0.16514 0.0
N1193 N 0.15913 0.74763 0.13257 0.0
H1194 H 0.28667 0.29759 0.60584 0.0
H1195 H 0.1987 0.12675 0.6871 0.0
H1196 H 0.20228 0.31185 0.66543 0.0
H1197 H 0.29484 0.11359 0.63634 0.0
H1198 H 0.1978 0.19379 0.67758 0.0
H1199 H 0.28822 0.23006 0.61502 0.0
C1200 C 0.26827 0.28654 0.62079 0.0
C1201 C 0.24405 0.31058 0.63476 0.0
C1202 C 0.2192 0.17635 0.66854 0.0
C1203 C 0.24595 0.2329 0.6455 0.0
C1204 C 0.21991 0.13786 0.67407 0.0
C1205 C 0.24732 0.11418 0.66283 0.0
C1206 C 0.24588 0.19172 0.65143 0.0
C1207 C 0.27317 0.13053 0.64544 0.0
C1208 C 0.26938 0.24791 0.62612 0.0
C1209 C 0.22151 0.29455 0.65428 0.0
N1210 N 0.27187 0.16827 0.64033 0.0
N1211 N 0.22288 0.25675 0.65896 0.0
H1212 H 0.71052 0.21493 0.10027 0.0
H1213 H 0.87271 0.26691 0.20256 0.0
H1214 H 0.68741 0.25046 0.17881 0.0
H1215 H 0.89438 0.24556 0.12154 0.0
H1216 H 0.80498 0.25992 0.19451 0.0
H1217 H 0.77787 0.22396 0.10813 0.0
C1218 C 0.71952 0.22472 0.11919 0.0
C1219 C 0.69297 0.23225 0.13883 0.0
C1220 C 0.82446 0.25694 0.17844 0.0
C1221 C 0.7706 0.24236 0.14804 0.0
C1222 C 0.86316 0.26086 0.18303 0.0
C1223 C 0.88929 0.2566 0.16271 0.0
C1224 C 0.81158 0.24841 0.15334 0.0
C1225 C 0.87526 0.24933 0.13772 0.0
C1226 C 0.75812 0.22981 0.12367 0.0
C1227 C 0.70666 0.24404 0.16313 0.0
N1228 N 0.83738 0.24518 0.13377 0.0
N1229 N 0.74449 0.24882 0.16701 0.0
H1230 H 0.74956 0.89528 0.6237 0.0
H1231 H 0.7604 0.6849 0.68084 0.0
H1232 H 0.7558 0.8697 0.70537 0.0
H1233 H 0.77259 0.71094 0.59941 0.0
H1234 H 0.75475 0.75221 0.69003 0.0
H1235 H 0.75219 0.82742 0.61412 0.0
C1236 C 0.75103 0.87539 0.6396 0.0
C1237 C 0.75274 0.88818 0.66535 0.0
C1238 C 0.75866 0.74315 0.67014 0.0
C1239 C 0.75611 0.81061 0.65461 0.0
C1240 C 0.76218 0.70459 0.66487 0.0
C1241 C 0.76689 0.69181 0.63925 0.0
C1242 C 0.75972 0.76935 0.64968 0.0
C1243 C 0.7684 0.71909 0.61942 0.0
C1244 C 0.75286 0.83669 0.63414 0.0
C1245 C 0.755 0.86113 0.68522 0.0
N1246 N 0.76474 0.75642 0.62504 0.0
N1247 N 0.75668 0.82376 0.67945 0.0
loop_
_geom_bond_atom_site_label_1
_geom_bond_atom_site_label_2
_geom_bond_distance
_geom_bond_site_symmetry_2
_ccdc_geom_bond_type
C0 C1 1.351 . S
C0 N3 1.368 . S
C0 H5 0.931 . S
C1 C0 1.351 . S
C1 N2 1.373 . S
C1 H29 0.930 . S
N2 C1 1.373 . S
N2 C4 1.340 . S
N3 C0 1.368 . S
N3 C4 1.321 . S
N3 Co6 2.135 1_655 S
C4 N2 1.340 . S
C4 N3 1.321 . S
C4 H28 0.930 . S
H5 C0 0.931 . S
Co6 N3 2.135 1_455 S
Co6 N9 2.121 . S
Co6 O14 2.055 . S
Co6 O17 2.039 . S
Co6 N20 2.140 . S
C7 O8 1.227 . S
C7 O17 1.265 . S
O8 C7 1.227 . S
N9 Co6 2.121 . S
N9 C11 1.375 . S
N9 C12 1.313 . S
C10 C11 1.338 . S
C10 N13 1.377 . S
C10 H30 0.930 . S
C11 N9 1.375 . S
C11 C10 1.338 . S
C11 H15 0.931 . S
C12 N9 1.313 . S
C12 N13 1.344 . S
C12 H16 0.930 . S
N13 C10 1.377 . S
N13 C12 1.344 . S
O14 Co6 2.055 . S
O14 C18 1.253 . S
H15 C11 0.931 . S
H16 C12 0.930 . S
O17 Co6 2.039 . S
O17 C7 1.265 . S
C18 O14 1.253 . S
C18 O19 1.227 . S
O19 C18 1.227 . S
N20 Co6 2.140 . S
N20 C23 1.346 . S
N20 C24 1.345 . S
C21 C22 1.387 1_455 S
C21 C25 1.391 . S
C22 C21 1.387 1_655 S
C22 C23 1.369 1_655 S
C22 H31 0.929 . S
C23 N20 1.346 . S
C23 C22 1.369 1_455 S
C23 H26 0.928 1_455 S
C24 N20 1.345 . S
C24 C25 1.371 . S
C24 H27 0.931 . S
C25 C21 1.391 . S
C25 C24 1.371 . S
C25 H32 0.930 . S
H26 C23 0.928 1_655 S
H27 C24 0.931 . S
H28 C4 0.930 . S
H29 C1 0.930 . S
H30 C10 0.930 . S
H31 C22 0.929 . S
H32 C25 0.930 . S
C33 C34 1.351 . S
C33 N36 1.368 . S
C33 H38 0.931 . S
C34 C33 1.351 . S
C34 N35 1.373 . S
C34 H62 0.930 . S
N35 C34 1.373 . S
N35 C37 1.340 . S
N36 C33 1.368 . S
N36 C37 1.321 . S
N36 Co39 2.135 1_565 S
C37 N35 1.340 . S
C37 N36 1.321 . S
C37 H61 0.930 . S
H38 C33 0.931 . S
Co39 N36 2.135 1_545 S
Co39 N42 2.121 . S
Co39 O47 2.055 . S
Co39 O50 2.039 . S
Co39 N53 2.140 . S
C40 O41 1.227 . S
C40 O50 1.265 . S
O41 C40 1.227 . S
N42 Co39 2.121 . S
N42 C44 1.375 . S
N42 C45 1.313 . S
C43 C44 1.338 . S
C43 N46 1.377 . S
C43 H63 0.930 . S
C44 N42 1.375 . S
C44 C43 1.338 . S
C44 H48 0.931 . S
C45 N42 1.313 . S
C45 N46 1.344 . S
C45 H49 0.930 . S
N46 C43 1.377 . S
N46 C45 1.344 . S
O47 Co39 2.055 . S
O47 C51 1.253 . S
H48 C44 0.931 . S
H49 C45 0.930 . S
O50 Co39 2.039 . S
O50 C40 1.265 . S
C51 O47 1.253 . S
C51 O52 1.227 . S
O52 C51 1.227 . S
N53 Co39 2.140 . S
N53 C56 1.346 . S
N53 C57 1.345 . S
C54 C55 1.387 1_545 S
C54 C58 1.391 . S
C55 C54 1.387 1_565 S
C55 C56 1.369 1_565 S
C55 H64 0.929 . S
C56 N53 1.346 . S
C56 C55 1.369 1_545 S
C56 H59 0.928 1_545 S
C57 N53 1.345 . S
C57 C58 1.371 . S
C57 H60 0.931 . S
C58 C54 1.391 . S
C58 C57 1.371 . S
C58 H65 0.930 . S
H59 C56 0.928 1_565 S
H60 C57 0.931 . S
H61 C37 0.930 . S
H62 C34 0.930 . S
H63 C43 0.930 . S
H64 C55 0.929 . S
H65 C58 0.930 . S
C66 C67 1.351 . S
C66 N69 1.368 . S
C66 H71 0.931 . S
C67 C66 1.351 . S
C67 N68 1.373 . S
C67 H95 0.930 . S
N68 C67 1.373 . S
N68 C70 1.340 . S
N69 C66 1.368 . S
N69 C70 1.321 . S
N69 Co72 2.135 1_455 S
C70 N68 1.340 . S
C70 N69 1.321 . S
C70 H94 0.930 . S
H71 C66 0.931 . S
Co72 N69 2.135 1_655 S
Co72 N75 2.121 . S
Co72 O80 2.055 . S
Co72 O83 2.039 . S
Co72 N86 2.140 . S
C73 O74 1.227 . S
C73 O83 1.265 . S
O74 C73 1.227 . S
N75 Co72 2.121 . S
N75 C77 1.375 . S
N75 C78 1.313 . S
C76 C77 1.338 . S
C76 N79 1.377 . S
C76 H96 0.930 . S
C77 N75 1.375 . S
C77 C76 1.338 . S
C77 H81 0.931 . S
C78 N75 1.313 . S
C78 N79 1.344 . S
C78 H82 0.930 . S
N79 C76 1.377 . S
N79 C78 1.344 . S
O80 Co72 2.055 . S
O80 C84 1.253 . S
H81 C77 0.931 . S
H82 C78 0.930 . S
O83 Co72 2.039 . S
O83 C73 1.265 . S
C84 O80 1.253 . S
C84 O85 1.227 . S
O85 C84 1.227 . S
N86 Co72 2.140 . S
N86 C89 1.346 . S
N86 C90 1.345 . S
C87 C88 1.387 1_655 S
C87 C91 1.391 . S
C88 C87 1.387 1_455 S
C88 C89 1.369 1_455 S
C88 H97 0.929 . S
C89 N86 1.346 . S
C89 C88 1.369 1_655 S
C89 H92 0.928 1_655 S
C90 N86 1.345 . S
C90 C91 1.371 . S
C90 H93 0.931 . S
C91 C87 1.391 . S
C91 C90 1.371 . S
C91 H98 0.930 . S
H92 C89 0.928 1_455 S
H93 C90 0.931 . S
H94 C70 0.930 . S
H95 C67 0.930 . S
H96 C76 0.930 . S
H97 C88 0.929 . S
H98 C91 0.930 . S
C99 C100 1.351 . S
C99 N102 1.368 . S
C99 H104 0.931 . S
C100 C99 1.351 . S
C100 N101 1.373 . S
C100 H128 0.930 . S
N101 C100 1.373 . S
N101 C103 1.340 . S
N102 C99 1.368 . S
N102 C103 1.321 . S
N102 Co105 2.135 1_545 S
C103 N101 1.340 . S
C103 N102 1.321 . S
C103 H127 0.930 . S
H104 C99 0.931 . S
Co105 N102 2.135 1_565 S
Co105 N108 2.121 . S
Co105 O113 2.055 . S
Co105 O116 2.039 . S
Co105 N119 2.140 . S
C106 O107 1.227 . S
C106 O116 1.265 . S
O107 C106 1.227 . S
N108 Co105 2.121 . S
N108 C110 1.375 . S
N108 C111 1.313 . S
C109 C110 1.338 . S
C109 N112 1.377 . S
C109 H129 0.930 . S
C110 N108 1.375 . S
C110 C109 1.338 . S
C110 H114 0.931 . S
C111 N108 1.313 . S
C111 N112 1.344 . S
C111 H115 0.930 . S
N112 C109 1.377 . S
N112 C111 1.344 . S
O113 Co105 2.055 . S
O113 C117 1.253 . S
H114 C110 0.931 . S
H115 C111 0.930 . S
O116 Co105 2.039 . S
O116 C106 1.265 . S
C117 O113 1.253 . S
C117 O118 1.227 . S
O118 C117 1.227 . S
N119 Co105 2.140 . S
N119 C122 1.346 . S
N119 C123 1.345 . S
C120 C121 1.387 1_565 S
C120 C124 1.391 . S
C121 C120 1.387 1_545 S
C121 C122 1.369 1_545 S
C121 H130 0.929 . S
C122 N119 1.346 . S
C122 C121 1.369 1_565 S
C122 H125 0.928 1_565 S
C123 N119 1.345 . S
C123 C124 1.371 . S
C123 H126 0.931 . S
C124 C120 1.391 . S
C124 C123 1.371 . S
C124 H131 0.930 . S
H125 C122 0.928 1_545 S
H126 C123 0.931 . S
H127 C103 0.930 . S
H128 C100 0.930 . S
H129 C109 0.930 . S
H130 C121 0.929 . S
H131 C124 0.930 . S
C132 C133 1.351 . S
C132 N135 1.368 . S
C132 H137 0.931 . S
C133 C132 1.351 . S
C133 N134 1.373 . S
C133 H161 0.930 . S
N134 C133 1.373 . S
N134 C136 1.340 . S
N135 C132 1.368 . S
N135 C136 1.321 . S
N135 Co138 2.135 . S
C136 N134 1.340 . S
C136 N135 1.321 . S
C136 H160 0.930 . S
H137 C132 0.931 . S
Co138 N135 2.135 . S
Co138 N141 2.121 . S
Co138 O146 2.055 . S
Co138 O149 2.039 . S
Co138 N152 2.140 . S
C139 O140 1.227 . S
C139 O149 1.265 . S
O140 C139 1.227 . S
N141 Co138 2.121 . S
N141 C143 1.375 . S
N141 C144 1.313 . S
C142 C143 1.338 . S
C142 N145 1.377 . S
C142 H162 0.930 . S
C143 N141 1.375 . S
C143 C142 1.338 . S
C143 H147 0.931 . S
C144 N141 1.313 . S
C144 N145 1.344 . S
C144 H148 0.930 . S
N145 C142 1.377 . S
N145 C144 1.344 . S
O146 Co138 2.055 . S
O146 C150 1.253 . S
H147 C143 0.931 . S
H148 C144 0.930 . S
O149 Co138 2.039 . S
O149 C139 1.265 . S
C150 O146 1.253 . S
C150 O151 1.227 . S
O151 C150 1.227 . S
N152 Co138 2.140 . S
N152 C155 1.346 . S
N152 C156 1.345 . S
C153 C154 1.387 . S
C153 C157 1.391 . S
C154 C153 1.387 . S
C154 C155 1.369 . S
C154 H163 0.929 . S
C155 N152 1.346 . S
C155 C154 1.369 . S
C155 H158 0.928 . S
C156 N152 1.345 . S
C156 C157 1.371 . S
C156 H159 0.931 . S
C157 C153 1.391 . S
C157 C156 1.371 . S
C157 H164 0.930 . S
H158 C155 0.928 . S
H159 C156 0.931 . S
H160 C136 0.930 . S
H161 C133 0.930 . S
H162 C142 0.930 . S
H163 C154 0.929 . S
H164 C157 0.930 . S
C165 C166 1.351 . S
C165 N168 1.368 . S
C165 H170 0.931 . S
C166 C165 1.351 . S
C166 N167 1.373 . S
C166 H194 0.930 . S
N167 C166 1.373 . S
N167 C169 1.340 . S
N168 C165 1.368 . S
N168 C169 1.321 . S
N168 Co171 2.135 . S
C169 N167 1.340 . S
C169 N168 1.321 . S
C169 H193 0.930 . S
H170 C165 0.931 . S
Co171 N168 2.135 . S
Co171 N174 2.121 . S
Co171 O179 2.055 . S
Co171 O182 2.039 . S
Co171 N185 2.140 . S
C172 O173 1.227 . S
C172 O182 1.265 . S
O173 C172 1.227 . S
N174 Co171 2.121 . S
N174 C176 1.375 . S
N174 C177 1.313 . S
C175 C176 1.338 . S
C175 N178 1.377 . S
C175 H195 0.930 . S
C176 N174 1.375 . S
C176 C175 1.338 . S
C176 H180 0.931 . S
C177 N174 1.313 . S
C177 N178 1.344 . S
C177 H181 0.930 . S
N178 C175 1.377 . S
N178 C177 1.344 . S
O179 Co171 2.055 . S
O179 C183 1.253 . S
H180 C176 0.931 . S
H181 C177 0.930 . S
O182 Co171 2.039 . S
O182 C172 1.265 . S
C183 O179 1.253 . S
C183 O184 1.227 . S
O184 C183 1.227 . S
N185 Co171 2.140 . S
N185 C188 1.346 . S
N185 C189 1.345 . S
C186 C187 1.387 . S
C186 C190 1.391 . S
C187 C186 1.387 . S
C187 C188 1.369 . S
C187 H196 0.929 . S
C188 N185 1.346 . S
C188 C187 1.369 . S
C188 H191 0.928 . S
C189 N185 1.345 . S
C189 C190 1.371 . S
C189 H192 0.931 . S
C190 C186 1.391 . S
C190 C189 1.371 . S
C190 H197 0.930 . S
H191 C188 0.928 . S
H192 C189 0.931 . S
H193 C169 0.930 . S
H194 C166 0.930 . S
H195 C175 0.930 . S
H196 C187 0.929 . S
H197 C190 0.930 . S
C198 C199 1.351 . S
C198 N201 1.368 . S
C198 H203 0.931 . S
C199 C198 1.351 . S
C199 N200 1.373 . S
C199 H227 0.930 . S
N200 C199 1.373 . S
N200 C202 1.340 . S
N201 C198 1.368 . S
N201 C202 1.321 . S
N201 Co204 2.135 . S
C202 N200 1.340 . S
C202 N201 1.321 . S
C202 H226 0.930 . S
H203 C198 0.931 . S
Co204 N201 2.135 . S
Co204 N207 2.121 . S
Co204 O212 2.055 . S
Co204 O215 2.039 . S
Co204 N218 2.140 . S
C205 O206 1.227 . S
C205 O215 1.265 . S
O206 C205 1.227 . S
N207 Co204 2.121 . S
N207 C209 1.375 . S
N207 C210 1.313 . S
C208 C209 1.338 . S
C208 N211 1.377 . S
C208 H228 0.930 . S
C209 N207 1.375 . S
C209 C208 1.338 . S
C209 H213 0.931 . S
C210 N207 1.313 . S
C210 N211 1.344 . S
C210 H214 0.930 . S
N211 C208 1.377 . S
N211 C210 1.344 . S
O212 Co204 2.055 . S
O212 C216 1.253 . S
H213 C209 0.931 . S
H214 C210 0.930 . S
O215 Co204 2.039 . S
O215 C205 1.265 . S
C216 O212 1.253 . S
C216 O217 1.227 . S
O217 C216 1.227 . S
N218 Co204 2.140 . S
N218 C221 1.346 . S
N218 C222 1.345 . S
C219 C220 1.387 . S
C219 C223 1.391 . S
C220 C219 1.387 . S
C220 C221 1.369 . S
C220 H229 0.929 . S
C221 N218 1.346 . S
C221 C220 1.369 . S
C221 H224 0.928 . S
C222 N218 1.345 . S
C222 C223 1.371 . S
C222 H225 0.931 . S
C223 C219 1.391 . S
C223 C222 1.371 . S
C223 H230 0.930 . S
H224 C221 0.928 . S
H225 C222 0.931 . S
H226 C202 0.930 . S
H227 C199 0.930 . S
H228 C208 0.930 . S
H229 C220 0.929 . S
H230 C223 0.930 . S
C231 C232 1.351 . S
C231 N234 1.368 . S
C231 H236 0.931 . S
C232 C231 1.351 . S
C232 N233 1.373 . S
C232 H260 0.930 . S
N233 C232 1.373 . S
N233 C235 1.340 . S
N234 C231 1.368 . S
N234 C235 1.321 . S
N234 Co237 2.135 . S
C235 N233 1.340 . S
C235 N234 1.321 . S
C235 H259 0.930 . S
H236 C231 0.931 . S
Co237 N234 2.135 . S
Co237 N240 2.121 . S
Co237 O245 2.055 . S
Co237 O248 2.039 . S
Co237 N251 2.140 . S
C238 O239 1.227 . S
C238 O248 1.265 . S
O239 C238 1.227 . S
N240 Co237 2.121 . S
N240 C242 1.375 . S
N240 C243 1.313 . S
C241 C242 1.338 . S
C241 N244 1.377 . S
C241 H261 0.930 . S
C242 N240 1.375 . S
C242 C241 1.338 . S
C242 H246 0.931 . S
C243 N240 1.313 . S
C243 N244 1.344 . S
C243 H247 0.930 . S
N244 C241 1.377 . S
N244 C243 1.344 . S
O245 Co237 2.055 . S
O245 C249 1.253 . S
H246 C242 0.931 . S
H247 C243 0.930 . S
O248 Co237 2.039 . S
O248 C238 1.265 . S
C249 O245 1.253 . S
C249 O250 1.227 . S
O250 C249 1.227 . S
N251 Co237 2.140 . S
N251 C254 1.346 . S
N251 C255 1.345 . S
C252 C253 1.387 . S
C252 C256 1.391 . S
C253 C252 1.387 . S
C253 C254 1.369 . S
C253 H262 0.929 . S
C254 N251 1.346 . S
C254 C253 1.369 . S
C254 H257 0.928 . S
C255 N251 1.345 . S
C255 C256 1.371 . S
C255 H258 0.931 . S
C256 C252 1.391 . S
C256 C255 1.371 . S
C256 H263 0.930 . S
H257 C254 0.928 . S
H258 C255 0.931 . S
H259 C235 0.930 . S
H260 C232 0.930 . S
H261 C241 0.930 . S
H262 C253 0.929 . S
H263 C256 0.930 . S
C264 C265 1.351 . S
C264 N267 1.368 . S
C264 H269 0.931 . S
C265 C264 1.351 . S
C265 N266 1.373 . S
C265 H293 0.930 . S
N266 C265 1.373 . S
N266 C268 1.340 . S
N267 C264 1.368 . S
N267 C268 1.321 . S
N267 Co270 2.135 1_455 S
C268 N266 1.340 . S
C268 N267 1.321 . S
C268 H292 0.930 . S
H269 C264 0.931 . S
Co270 N267 2.135 1_655 S
Co270 N273 2.121 . S
Co270 O278 2.055 . S
Co270 O281 2.039 . S
Co270 N284 2.140 . S
C271 O272 1.227 . S
C271 O281 1.265 . S
O272 C271 1.227 . S
N273 Co270 2.121 . S
N273 C275 1.375 . S
N273 C276 1.313 . S
C274 C275 1.338 . S
C274 N277 1.377 . S
C274 H294 0.930 . S
C275 N273 1.375 . S
C275 C274 1.338 . S
C275 H279 0.931 . S
C276 N273 1.313 . S
C276 N277 1.344 . S
C276 H280 0.930 . S
N277 C274 1.377 . S
N277 C276 1.344 . S
O278 Co270 2.055 . S
O278 C282 1.253 . S
H279 C275 0.931 . S
H280 C276 0.930 . S
O281 Co270 2.039 . S
O281 C271 1.265 . S
C282 O278 1.253 . S
C282 O283 1.227 . S
O283 C282 1.227 . S
N284 Co270 2.140 . S
N284 C287 1.346 . S
N284 C288 1.345 . S
C285 C286 1.387 1_655 S
C285 C289 1.391 . S
C286 C285 1.387 1_455 S
C286 C287 1.369 1_455 S
C286 H295 0.929 . S
C287 N284 1.346 . S
C287 C286 1.369 1_655 S
C287 H290 0.928 1_655 S
C288 N284 1.345 . S
C288 C289 1.371 . S
C288 H291 0.931 . S
C289 C285 1.391 . S
C289 C288 1.371 . S
C289 H296 0.930 . S
H290 C287 0.928 1_455 S
H291 C288 0.931 . S
H292 C268 0.930 . S
H293 C265 0.930 . S
H294 C274 0.930 . S
H295 C286 0.929 . S
H296 C289 0.930 . S
C297 C298 1.351 . S
C297 N300 1.368 . S
C297 H302 0.931 . S
C298 C297 1.351 . S
C298 N299 1.373 . S
C298 H326 0.930 . S
N299 C298 1.373 . S
N299 C301 1.340 . S
N300 C297 1.368 . S
N300 C301 1.321 . S
N300 Co303 2.135 1_545 S
C301 N299 1.340 . S
C301 N300 1.321 . S
C301 H325 0.930 . S
H302 C297 0.931 . S
Co303 N300 2.135 1_565 S
Co303 N306 2.121 . S
Co303 O311 2.055 . S
Co303 O314 2.039 . S
Co303 N317 2.140 . S
C304 O305 1.227 . S
C304 O314 1.265 . S
O305 C304 1.227 . S
N306 Co303 2.121 . S
N306 C308 1.375 . S
N306 C309 1.313 . S
C307 C308 1.338 . S
C307 N310 1.377 . S
C307 H327 0.930 . S
C308 N306 1.375 . S
C308 C307 1.338 . S
C308 H312 0.931 . S
C309 N306 1.313 . S
C309 N310 1.344 . S
C309 H313 0.930 . S
N310 C307 1.377 . S
N310 C309 1.344 . S
O311 Co303 2.055 . S
O311 C315 1.253 . S
H312 C308 0.931 . S
H313 C309 0.930 . S
O314 Co303 2.039 . S
O314 C304 1.265 . S
C315 O311 1.253 . S
C315 O316 1.227 . S
O316 C315 1.227 . S
N317 Co303 2.140 . S
N317 C320 1.346 . S
N317 C321 1.345 . S
C318 C319 1.387 1_565 S
C318 C322 1.391 . S
C319 C318 1.387 1_545 S
C319 C320 1.369 1_545 S
C319 H328 0.929 . S
C320 N317 1.346 . S
C320 C319 1.369 1_565 S
C320 H323 0.928 1_565 S
C321 N317 1.345 . S
C321 C322 1.371 . S
C321 H324 0.931 . S
C322 C318 1.391 . S
C322 C321 1.371 . S
C322 H329 0.930 . S
H323 C320 0.928 1_545 S
H324 C321 0.931 . S
H325 C301 0.930 . S
H326 C298 0.930 . S
H327 C307 0.930 . S
H328 C319 0.929 . S
H329 C322 0.930 . S
C330 C331 1.351 . S
C330 N333 1.368 . S
C330 H335 0.931 . S
C331 C330 1.351 . S
C331 N332 1.373 . S
C331 H359 0.930 . S
N332 C331 1.373 . S
N332 C334 1.340 . S
N333 C330 1.368 . S
N333 C334 1.321 . S
N333 Co336 2.135 1_655 S
C334 N332 1.340 . S
C334 N333 1.321 . S
C334 H358 0.930 . S
H335 C330 0.931 . S
Co336 N333 2.135 1_455 S
Co336 N339 2.121 . S
Co336 O344 2.055 . S
Co336 O347 2.039 . S
Co336 N350 2.140 . S
C337 O338 1.227 . S
C337 O347 1.265 . S
O338 C337 1.227 . S
N339 Co336 2.121 . S
N339 C341 1.375 . S
N339 C342 1.313 . S
C340 C341 1.338 . S
C340 N343 1.377 . S
C340 H360 0.930 . S
C341 N339 1.375 . S
C341 C340 1.338 . S
C341 H345 0.931 . S
C342 N339 1.313 . S
C342 N343 1.344 . S
C342 H346 0.930 . S
N343 C340 1.377 . S
N343 C342 1.344 . S
O344 Co336 2.055 . S
O344 C348 1.253 . S
H345 C341 0.931 . S
H346 C342 0.930 . S
O347 Co336 2.039 . S
O347 C337 1.265 . S
C348 O344 1.253 . S
C348 O349 1.227 . S
O349 C348 1.227 . S
N350 Co336 2.140 . S
N350 C353 1.346 . S
N350 C354 1.345 . S
C351 C352 1.387 1_455 S
C351 C355 1.391 . S
C352 C351 1.387 1_655 S
C352 C353 1.369 1_655 S
C352 H361 0.929 . S
C353 N350 1.346 . S
C353 C352 1.369 1_455 S
C353 H356 0.928 1_455 S
C354 N350 1.345 . S
C354 C355 1.371 . S
C354 H357 0.931 . S
C355 C351 1.391 . S
C355 C354 1.371 . S
C355 H362 0.930 . S
H356 C353 0.928 1_655 S
H357 C354 0.931 . S
H358 C334 0.930 . S
H359 C331 0.930 . S
H360 C340 0.930 . S
H361 C352 0.929 . S
H362 C355 0.930 . S
C363 C364 1.351 . S
C363 N366 1.368 . S
C363 H368 0.931 . S
C364 C363 1.351 . S
C364 N365 1.373 . S
C364 H392 0.930 . S
N365 C364 1.373 . S
N365 C367 1.340 . S
N366 C363 1.368 . S
N366 C367 1.321 . S
N366 Co369 2.135 1_565 S
C367 N365 1.340 . S
C367 N366 1.321 . S
C367 H391 0.930 . S
H368 C363 0.931 . S
Co369 N366 2.135 1_545 S
Co369 N372 2.121 . S
Co369 O377 2.055 . S
Co369 O380 2.039 . S
Co369 N383 2.140 . S
C370 O371 1.227 . S
C370 O380 1.265 . S
O371 C370 1.227 . S
N372 Co369 2.121 . S
N372 C374 1.375 . S
N372 C375 1.313 . S
C373 C374 1.338 . S
C373 N376 1.377 . S
C373 H393 0.930 . S
C374 N372 1.375 . S
C374 C373 1.338 . S
C374 H378 0.931 . S
C375 N372 1.313 . S
C375 N376 1.344 . S
C375 H379 0.930 . S
N376 C373 1.377 . S
N376 C375 1.344 . S
O377 Co369 2.055 . S
O377 C381 1.253 . S
H378 C374 0.931 . S
H379 C375 0.930 . S
O380 Co369 2.039 . S
O380 C370 1.265 . S
C381 O377 1.253 . S
C381 O382 1.227 . S
O382 C381 1.227 . S
N383 Co369 2.140 . S
N383 C386 1.346 . S
N383 C387 1.345 . S
C384 C385 1.387 1_545 S
C384 C388 1.391 . S
C385 C384 1.387 1_565 S
C385 C386 1.369 1_565 S
C385 H394 0.929 . S
C386 N383 1.346 . S
C386 C385 1.369 1_545 S
C386 H389 0.928 1_545 S
C387 N383 1.345 . S
C387 C388 1.371 . S
C387 H390 0.931 . S
C388 C384 1.391 . S
C388 C387 1.371 . S
C388 H395 0.930 . S
H389 C386 0.928 1_565 S
H390 C387 0.931 . S
H391 C367 0.930 . S
H392 C364 0.930 . S
H393 C373 0.930 . S
H394 C385 0.929 . S
H395 C388 0.930 . S
C396 C397 1.351 . S
C396 N399 1.368 . S
C396 H401 0.931 . S
C397 C396 1.351 . S
C397 N398 1.373 . S
C397 H425 0.930 . S
N398 C397 1.373 . S
N398 C400 1.340 . S
N399 C396 1.368 . S
N399 C400 1.321 . S
N399 Co402 2.135 . S
C400 N398 1.340 . S
C400 N399 1.321 . S
C400 H424 0.930 . S
H401 C396 0.931 . S
Co402 N399 2.135 . S
Co402 N405 2.121 . S
Co402 O410 2.055 . S
Co402 O413 2.039 . S
Co402 N416 2.140 . S
C403 O404 1.227 . S
C403 O413 1.265 . S
O404 C403 1.227 . S
N405 Co402 2.121 . S
N405 C407 1.375 . S
N405 C408 1.313 . S
C406 C407 1.338 . S
C406 N409 1.377 . S
C406 H426 0.930 . S
C407 N405 1.375 . S
C407 C406 1.338 . S
C407 H411 0.931 . S
C408 N405 1.313 . S
C408 N409 1.344 . S
C408 H412 0.930 . S
N409 C406 1.377 . S
N409 C408 1.344 . S
O410 Co402 2.055 . S
O410 C414 1.253 . S
H411 C407 0.931 . S
H412 C408 0.930 . S
O413 Co402 2.039 . S
O413 C403 1.265 . S
C414 O410 1.253 . S
C414 O415 1.227 . S
O415 C414 1.227 . S
N416 Co402 2.140 . S
N416 C419 1.346 . S
N416 C420 1.345 . S
C417 C418 1.387 . S
C417 C421 1.391 . S
C418 C417 1.387 . S
C418 C419 1.369 . S
C418 H427 0.929 . S
C419 N416 1.346 . S
C419 C418 1.369 . S
C419 H422 0.928 . S
C420 N416 1.345 . S
C420 C421 1.371 . S
C420 H423 0.931 . S
C421 C417 1.391 . S
C421 C420 1.371 . S
C421 H428 0.930 . S
H422 C419 0.928 . S
H423 C420 0.931 . S
H424 C400 0.930 . S
H425 C397 0.930 . S
H426 C406 0.930 . S
H427 C418 0.929 . S
H428 C421 0.930 . S
C429 C430 1.351 . S
C429 N432 1.368 . S
C429 H434 0.931 . S
C430 C429 1.351 . S
C430 N431 1.373 . S
C430 H458 0.930 . S
N431 C430 1.373 . S
N431 C433 1.340 . S
N432 C429 1.368 . S
N432 C433 1.321 . S
N432 Co435 2.135 . S
C433 N431 1.340 . S
C433 N432 1.321 . S
C433 H457 0.930 . S
H434 C429 0.931 . S
Co435 N432 2.135 . S
Co435 N438 2.121 . S
Co435 O443 2.055 . S
Co435 O446 2.039 . S
Co435 N449 2.140 . S
C436 O437 1.227 . S
C436 O446 1.265 . S
O437 C436 1.227 . S
N438 Co435 2.121 . S
N438 C440 1.375 . S
N438 C441 1.313 . S
C439 C440 1.338 . S
C439 N442 1.377 . S
C439 H459 0.930 . S
C440 N438 1.375 . S
C440 C439 1.338 . S
C440 H444 0.931 . S
C441 N438 1.313 . S
C441 N442 1.344 . S
C441 H445 0.930 . S
N442 C439 1.377 . S
N442 C441 1.344 . S
O443 Co435 2.055 . S
O443 C447 1.253 . S
H444 C440 0.931 . S
H445 C441 0.930 . S
O446 Co435 2.039 . S
O446 C436 1.265 . S
C447 O443 1.253 . S
C447 O448 1.227 . S
O448 C447 1.227 . S
N449 Co435 2.140 . S
N449 C452 1.346 . S
N449 C453 1.345 . S
C450 C451 1.387 . S
C450 C454 1.391 . S
C451 C450 1.387 . S
C451 C452 1.369 . S
C451 H460 0.929 . S
C452 N449 1.346 . S
C452 C451 1.369 . S
C452 H455 0.928 . S
C453 N449 1.345 . S
C453 C454 1.371 . S
C453 H456 0.931 . S
C454 C450 1.391 . S
C454 C453 1.371 . S
C454 H461 0.930 . S
H455 C452 0.928 . S
H456 C453 0.931 . S
H457 C433 0.930 . S
H458 C430 0.930 . S
H459 C439 0.930 . S
H460 C451 0.929 . S
H461 C454 0.930 . S
C462 C463 1.351 . S
C462 N465 1.368 . S
C462 H467 0.931 . S
C463 C462 1.351 . S
C463 N464 1.373 . S
C463 H491 0.930 . S
N464 C463 1.373 . S
N464 C466 1.340 . S
N465 C462 1.368 . S
N465 C466 1.321 . S
N465 Co468 2.135 . S
C466 N464 1.340 . S
C466 N465 1.321 . S
C466 H490 0.930 . S
H467 C462 0.931 . S
Co468 N465 2.135 . S
Co468 N471 2.121 . S
Co468 O476 2.055 . S
Co468 O479 2.039 . S
Co468 N482 2.140 . S
C469 O470 1.227 . S
C469 O479 1.265 . S
O470 C469 1.227 . S
N471 Co468 2.121 . S
N471 C473 1.375 . S
N471 C474 1.313 . S
C472 C473 1.338 . S
C472 N475 1.377 . S
C472 H492 0.930 . S
C473 N471 1.375 . S
C473 C472 1.338 . S
C473 H477 0.931 . S
C474 N471 1.313 . S
C474 N475 1.344 . S
C474 H478 0.930 . S
N475 C472 1.377 . S
N475 C474 1.344 . S
O476 Co468 2.055 . S
O476 C480 1.253 . S
H477 C473 0.931 . S
H478 C474 0.930 . S
O479 Co468 2.039 . S
O479 C469 1.265 . S
C480 O476 1.253 . S
C480 O481 1.227 . S
O481 C480 1.227 . S
N482 Co468 2.140 . S
N482 C485 1.346 . S
N482 C486 1.345 . S
C483 C484 1.387 . S
C483 C487 1.391 . S
C484 C483 1.387 . S
C484 C485 1.369 . S
C484 H493 0.929 . S
C485 N482 1.346 . S
C485 C484 1.369 . S
C485 H488 0.928 . S
C486 N482 1.345 . S
C486 C487 1.371 . S
C486 H489 0.931 . S
C487 C483 1.391 . S
C487 C486 1.371 . S
C487 H494 0.930 . S
H488 C485 0.928 . S
H489 C486 0.931 . S
H490 C466 0.930 . S
H491 C463 0.930 . S
H492 C472 0.930 . S
H493 C484 0.929 . S
H494 C487 0.930 . S
C495 C496 1.351 . S
C495 N498 1.368 . S
C495 H500 0.931 . S
C496 C495 1.351 . S
C496 N497 1.373 . S
C496 H524 0.930 . S
N497 C496 1.373 . S
N497 C499 1.340 . S
N498 C495 1.368 . S
N498 C499 1.321 . S
N498 Co501 2.135 . S
C499 N497 1.340 . S
C499 N498 1.321 . S
C499 H523 0.930 . S
H500 C495 0.931 . S
Co501 N498 2.135 . S
Co501 N504 2.121 . S
Co501 O509 2.055 . S
Co501 O512 2.039 . S
Co501 N515 2.140 . S
C502 O503 1.227 . S
C502 O512 1.265 . S
O503 C502 1.227 . S
N504 Co501 2.121 . S
N504 C506 1.375 . S
N504 C507 1.313 . S
C505 C506 1.338 . S
C505 N508 1.377 . S
C505 H525 0.930 . S
C506 N504 1.375 . S
C506 C505 1.338 . S
C506 H510 0.931 . S
C507 N504 1.313 . S
C507 N508 1.344 . S
C507 H511 0.930 . S
N508 C505 1.377 . S
N508 C507 1.344 . S
O509 Co501 2.055 . S
O509 C513 1.253 . S
H510 C506 0.931 . S
H511 C507 0.930 . S
O512 Co501 2.039 . S
O512 C502 1.265 . S
C513 O509 1.253 . S
C513 O514 1.227 . S
O514 C513 1.227 . S
N515 Co501 2.140 . S
N515 C518 1.346 . S
N515 C519 1.345 . S
C516 C517 1.387 . S
C516 C520 1.391 . S
C517 C516 1.387 . S
C517 C518 1.369 . S
C517 H526 0.929 . S
C518 N515 1.346 . S
C518 C517 1.369 . S
C518 H521 0.928 . S
C519 N515 1.345 . S
C519 C520 1.371 . S
C519 H522 0.931 . S
C520 C516 1.391 . S
C520 C519 1.371 . S
C520 H527 0.930 . S
H521 C518 0.928 . S
H522 C519 0.931 . S
H523 C499 0.930 . S
H524 C496 0.930 . S
H525 C505 0.930 . S
H526 C517 0.929 . S
H527 C520 0.930 . S
H528 C534 0.930 1_655 S
H529 C538 0.930 1_455 S
H530 C543 0.929 . S
H531 C541 0.929 . S
H532 C536 0.929 . S
H533 C542 0.929 . S
C534 H528 0.930 1_455 S
C534 C535 1.367 . S
C534 C542 1.378 1_455 S
C535 C534 1.367 . S
C535 C543 1.433 . S
C536 H532 0.929 . S
C536 C538 1.378 1_455 S
C536 C540 1.350 1_455 S
C537 C540 1.463 1_445 S
C537 C542 1.350 1_455 S
C537 N545 1.427 . S
C538 H529 0.930 1_655 S
C538 C536 1.378 1_655 S
C538 C539 1.367 . S
C539 C538 1.367 . S
C539 C541 1.433 . S
C540 C536 1.350 1_655 S
C540 C537 1.463 1_665 S
C540 N544 1.427 . S
C541 H531 0.929 . S
C541 C539 1.433 . S
C541 N544 1.384 . S
C542 H533 0.929 . S
C542 C534 1.378 1_655 S
C542 C537 1.350 1_655 S
C543 H530 0.929 . S
C543 C535 1.433 . S
C543 N545 1.384 . S
N544 C540 1.427 . S
N544 C541 1.384 . S
N545 C537 1.427 . S
N545 C543 1.384 . S
H546 C552 0.930 . S
H547 C556 0.930 . S
H548 C561 0.929 . S
H549 C559 0.929 . S
H550 C554 0.929 1_565 S
H551 C560 0.929 1_545 S
C552 H546 0.930 . S
C552 C553 1.367 . S
C552 C560 1.378 . S
C553 C552 1.367 . S
C553 C561 1.433 . S
C554 H550 0.929 1_545 S
C554 C556 1.378 . S
C554 C558 1.350 . S
C555 C558 1.463 1_465 S
C555 C560 1.350 . S
C555 N563 1.427 . S
C556 H547 0.930 . S
C556 C554 1.378 . S
C556 C557 1.367 . S
C557 C556 1.367 . S
C557 C559 1.433 . S
C558 C554 1.350 . S
C558 C555 1.463 1_645 S
C558 N562 1.427 . S
C559 H549 0.929 . S
C559 C557 1.433 . S
C559 N562 1.384 . S
C560 H551 0.929 1_565 S
C560 C552 1.378 . S
C560 C555 1.350 . S
C561 H548 0.929 . S
C561 C553 1.433 . S
C561 N563 1.384 . S
N562 C558 1.427 . S
N562 C559 1.384 . S
N563 C555 1.427 . S
N563 C561 1.384 . S
H564 C570 0.930 . S
H565 C574 0.930 . S
H566 C579 0.929 . S
H567 C577 0.929 . S
H568 C572 0.929 . S
H569 C578 0.929 . S
C570 H564 0.930 . S
C570 C571 1.367 . S
C570 C578 1.378 . S
C571 C570 1.367 . S
C571 C579 1.433 . S
C572 H568 0.929 . S
C572 C574 1.378 . S
C572 C576 1.350 . S
C573 C576 1.463 . S
C573 C578 1.350 . S
C573 N581 1.427 . S
C574 H565 0.930 . S
C574 C572 1.378 . S
C574 C575 1.367 . S
C575 C574 1.367 . S
C575 C577 1.433 . S
C576 C572 1.350 . S
C576 C573 1.463 . S
C576 N580 1.427 . S
C577 H567 0.929 . S
C577 C575 1.433 . S
C577 N580 1.384 . S
C578 H569 0.929 . S
C578 C570 1.378 . S
C578 C573 1.350 . S
C579 H566 0.929 . S
C579 C571 1.433 . S
C579 N581 1.384 . S
N580 C576 1.427 . S
N580 C577 1.384 . S
N581 C573 1.427 . S
N581 C579 1.384 . S
H582 C588 0.930 . S
H583 C592 0.930 . S
H584 C597 0.929 . S
H585 C595 0.929 . S
H586 C590 0.929 . S
H587 C596 0.929 . S
C588 H582 0.930 . S
C588 C589 1.367 . S
C588 C596 1.378 . S
C589 C588 1.367 . S
C589 C597 1.433 . S
C590 H586 0.929 . S
C590 C592 1.378 . S
C590 C594 1.350 . S
C591 C594 1.463 . S
C591 C596 1.350 . S
C591 N599 1.427 . S
C592 H583 0.930 . S
C592 C590 1.378 . S
C592 C593 1.367 . S
C593 C592 1.367 . S
C593 C595 1.433 . S
C594 C590 1.350 . S
C594 C591 1.463 . S
C594 N598 1.427 . S
C595 H585 0.929 . S
C595 C593 1.433 . S
C595 N598 1.384 . S
C596 H587 0.929 . S
C596 C588 1.378 . S
C596 C591 1.350 . S
C597 H584 0.929 . S
C597 C589 1.433 . S
C597 N599 1.384 . S
N598 C594 1.427 . S
N598 C595 1.384 . S
N599 C591 1.427 . S
N599 C597 1.384 . S
H600 C606 0.930 . S
H601 C610 0.930 . S
H602 C615 0.929 . S
H603 C613 0.929 . S
H604 C608 0.929 . S
H605 C614 0.929 . S
C606 H600 0.930 . S
C606 C607 1.367 . S
C606 C614 1.378 . S
C607 C606 1.367 . S
C607 C615 1.433 1_455 S
C608 H604 0.929 . S
C608 C610 1.378 . S
C608 C612 1.350 . S
C609 C612 1.463 1_445 S
C609 C614 1.350 . S
C609 N617 1.427 1_455 S
C610 H601 0.930 . S
C610 C608 1.378 . S
C610 C611 1.367 . S
C611 C610 1.367 . S
C611 C613 1.433 1_655 S
C612 C608 1.350 . S
C612 C609 1.463 1_665 S
C612 N616 1.427 1_655 S
C613 H603 0.929 . S
C613 C611 1.433 1_455 S
C613 N616 1.384 . S
C614 H605 0.929 . S
C614 C606 1.378 . S
C614 C609 1.350 . S
C615 H602 0.929 . S
C615 C607 1.433 1_655 S
C615 N617 1.384 . S
N616 C612 1.427 1_455 S
N616 C613 1.384 . S
N617 C609 1.427 1_655 S
N617 C615 1.384 . S
H618 C624 0.930 . S
H619 C628 0.930 . S
H620 C633 0.929 . S
H621 C631 0.929 . S
H622 C626 0.929 . S
H623 C632 0.929 . S
C624 H618 0.930 . S
C624 C625 1.367 . S
C624 C632 1.378 . S
C625 C624 1.367 . S
C625 C633 1.433 . S
C626 H622 0.929 . S
C626 C628 1.378 . S
C626 C630 1.350 . S
C627 C630 1.463 1_465 S
C627 C632 1.350 . S
C627 N635 1.427 . S
C628 H619 0.930 . S
C628 C626 1.378 . S
C628 C629 1.367 . S
C629 C628 1.367 . S
C629 C631 1.433 . S
C630 C626 1.350 . S
C630 C627 1.463 1_645 S
C630 N634 1.427 . S
C631 H621 0.929 . S
C631 C629 1.433 . S
C631 N634 1.384 . S
C632 H623 0.929 . S
C632 C624 1.378 . S
C632 C627 1.350 . S
C633 H620 0.929 . S
C633 C625 1.433 . S
C633 N635 1.384 . S
N634 C630 1.427 . S
N634 C631 1.384 . S
N635 C627 1.427 . S
N635 C633 1.384 . S
H636 C642 0.930 . S
H637 C646 0.930 . S
H638 C651 0.929 . S
H639 C649 0.929 . S
H640 C644 0.929 . S
H641 C650 0.929 . S
C642 H636 0.930 . S
C642 C643 1.367 . S
C642 C650 1.378 . S
C643 C642 1.367 . S
C643 C651 1.433 . S
C644 H640 0.929 . S
C644 C646 1.378 . S
C644 C648 1.350 . S
C645 C648 1.463 . S
C645 C650 1.350 . S
C645 N653 1.427 . S
C646 H637 0.930 . S
C646 C644 1.378 . S
C646 C647 1.367 . S
C647 C646 1.367 . S
C647 C649 1.433 . S
C648 C644 1.350 . S
C648 C645 1.463 . S
C648 N652 1.427 . S
C649 H639 0.929 . S
C649 C647 1.433 . S
C649 N652 1.384 . S
C650 H641 0.929 . S
C650 C642 1.378 . S
C650 C645 1.350 . S
C651 H638 0.929 . S
C651 C643 1.433 . S
C651 N653 1.384 . S
N652 C648 1.427 . S
N652 C649 1.384 . S
N653 C645 1.427 . S
N653 C651 1.384 . S
H654 C660 0.930 . S
H655 C664 0.930 . S
H656 C669 0.929 . S
H657 C667 0.929 . S
H658 C662 0.929 . S
H659 C668 0.929 . S
C660 H654 0.930 . S
C660 C661 1.367 . S
C660 C668 1.378 . S
C661 C660 1.367 . S
C661 C669 1.433 . S
C662 H658 0.929 . S
C662 C664 1.378 . S
C662 C666 1.350 . S
C663 C666 1.463 . S
C663 C668 1.350 . S
C663 N671 1.427 . S
C664 H655 0.930 . S
C664 C662 1.378 . S
C664 C665 1.367 . S
C665 C664 1.367 . S
C665 C667 1.433 . S
C666 C662 1.350 . S
C666 C663 1.463 . S
C666 N670 1.427 . S
C667 H657 0.929 . S
C667 C665 1.433 . S
C667 N670 1.384 . S
C668 H659 0.929 . S
C668 C660 1.378 . S
C668 C663 1.350 . S
C669 H656 0.929 . S
C669 C661 1.433 . S
C669 N671 1.384 . S
N670 C666 1.427 . S
N670 C667 1.384 . S
N671 C663 1.427 . S
N671 C669 1.384 . S
H672 C678 0.930 . S
H673 C682 0.922 1_655 S
H674 C687 0.931 1_655 S
H675 C685 0.929 . S
H676 C680 0.920 1_655 S
H677 C686 0.929 . S
C678 H672 0.930 . S
C678 C679 1.367 . S
C678 C686 1.378 . S
C679 C678 1.367 . S
C679 C687 1.432 . S
C680 H676 0.920 1_455 S
C680 C682 1.378 . S
C680 C684 1.358 . S
C681 C684 1.463 1_554 S
C681 C686 1.350 . S
C681 N689 1.434 . S
C682 H673 0.922 1_455 S
C682 C680 1.378 . S
C682 C683 1.375 . S
C683 C682 1.375 . S
C683 C685 1.433 . S
C684 C680 1.358 . S
C684 C681 1.463 1_556 S
C684 N688 1.427 . S
C685 H675 0.929 . S
C685 C683 1.433 . S
C685 N688 1.384 . S
C686 H677 0.929 . S
C686 C678 1.378 . S
C686 C681 1.350 . S
C687 H674 0.931 1_455 S
C687 C679 1.432 . S
C687 N689 1.384 . S
N688 C684 1.427 . S
N688 C685 1.384 . S
N689 C681 1.434 . S
N689 C687 1.384 . S
H690 C696 0.923 1_565 S
H691 C700 0.930 . S
H692 C705 0.929 . S
H693 C703 0.928 . S
H694 C698 0.929 . S
H695 C704 0.921 1_565 S
C696 H690 0.923 1_545 S
C696 C697 1.374 . S
C696 C704 1.378 . S
C697 C696 1.374 . S
C697 C705 1.433 . S
C698 H694 0.929 . S
C698 C700 1.378 . S
C698 C702 1.350 . S
C699 C702 1.463 . S
C699 C704 1.357 . S
C699 N707 1.427 . S
C700 H691 0.930 . S
C700 C698 1.378 . S
C700 C701 1.367 . S
C701 C700 1.367 . S
C701 C703 1.435 1_545 S
C702 C698 1.350 . S
C702 C699 1.463 . S
C702 N706 1.432 . S
C703 H693 0.928 . S
C703 C701 1.435 1_565 S
C703 N706 1.384 1_565 S
C704 H695 0.921 1_545 S
C704 C696 1.378 . S
C704 C699 1.357 . S
C705 H692 0.929 . S
C705 C697 1.433 . S
C705 N707 1.384 . S
N706 C702 1.432 . S
N706 C703 1.384 1_545 S
N707 C699 1.427 . S
N707 C705 1.384 . S
H708 C714 0.930 . S
H709 C718 0.930 . S
H710 C723 0.929 . S
H711 C721 0.929 . S
H712 C716 0.929 . S
H713 C722 0.929 . S
C714 H708 0.930 . S
C714 C715 1.367 . S
C714 C722 1.378 . S
C715 C714 1.367 . S
C715 C723 1.433 . S
C716 H712 0.929 . S
C716 C718 1.378 . S
C716 C720 1.350 . S
C717 C720 1.463 1_556 S
C717 C722 1.350 . S
C717 N725 1.427 . S
C718 H709 0.930 . S
C718 C716 1.378 . S
C718 C719 1.367 . S
C719 C718 1.367 . S
C719 C721 1.433 . S
C720 C716 1.350 . S
C720 C717 1.463 1_554 S
C720 N724 1.427 . S
C721 H711 0.929 . S
C721 C719 1.433 . S
C721 N724 1.384 . S
C722 H713 0.929 . S
C722 C714 1.378 . S
C722 C717 1.350 . S
C723 H710 0.929 . S
C723 C715 1.433 . S
C723 N725 1.384 . S
N724 C720 1.427 . S
N724 C721 1.384 . S
N725 C717 1.427 . S
N725 C723 1.384 . S
H726 C732 0.948 . S
H727 C736 0.930 . S
H728 C741 0.929 . S
H729 C739 0.929 . S
H730 C734 0.929 . S
H731 C740 0.947 . S
C732 H726 0.948 . S
C732 C733 1.349 1_545 S
C732 C740 1.378 . S
C733 C732 1.349 1_565 S
C733 C741 1.433 . S
C734 H730 0.929 . S
C734 C736 1.378 . S
C734 C738 1.350 . S
C735 C738 1.463 . S
C735 C740 1.332 1_565 S
C735 N743 1.427 . S
C736 H727 0.930 . S
C736 C734 1.378 . S
C736 C737 1.367 . S
C737 C736 1.367 . S
C737 C739 1.433 1_565 S
C738 C734 1.350 . S
C738 C735 1.463 . S
C738 N742 1.406 1_565 S
C739 H729 0.929 . S
C739 C737 1.433 1_545 S
C739 N742 1.384 . S
C740 H731 0.947 . S
C740 C732 1.378 . S
C740 C735 1.332 1_545 S
C741 H728 0.929 . S
C741 C733 1.433 . S
C741 N743 1.384 . S
N742 C738 1.406 1_545 S
N742 C739 1.384 . S
N743 C735 1.427 . S
N743 C741 1.384 . S
H744 C750 0.930 . S
H745 C754 0.930 . S
H746 C759 0.929 . S
H747 C757 0.929 . S
H748 C752 0.929 . S
H749 C758 0.929 . S
C750 H744 0.930 . S
C750 C751 1.367 . S
C750 C758 1.378 . S
C751 C750 1.367 . S
C751 C759 1.433 . S
C752 H748 0.929 . S
C752 C754 1.378 . S
C752 C756 1.350 . S
C753 C756 1.463 1_554 S
C753 C758 1.350 . S
C753 N761 1.427 . S
C754 H745 0.930 . S
C754 C752 1.378 . S
C754 C755 1.367 . S
C755 C754 1.367 . S
C755 C757 1.433 . S
C756 C752 1.350 . S
C756 C753 1.463 1_556 S
C756 N760 1.427 . S
C757 H747 0.929 . S
C757 C755 1.433 . S
C757 N760 1.384 . S
C758 H749 0.929 . S
C758 C750 1.378 . S
C758 C753 1.350 . S
C759 H746 0.929 . S
C759 C751 1.433 . S
C759 N761 1.384 . S
N760 C756 1.427 . S
N760 C757 1.384 . S
N761 C753 1.427 . S
N761 C759 1.384 . S
H762 C768 0.930 . S
H763 C772 0.930 . S
H764 C777 0.929 . S
H765 C775 0.929 . S
H766 C770 0.929 . S
H767 C776 0.929 . S
C768 H762 0.930 . S
C768 C769 1.367 . S
C768 C776 1.378 . S
C769 C768 1.367 . S
C769 C777 1.433 . S
C770 H766 0.929 . S
C770 C772 1.378 . S
C770 C774 1.350 . S
C771 C774 1.463 . S
C771 C776 1.350 . S
C771 N779 1.427 . S
C772 H763 0.930 . S
C772 C770 1.378 . S
C772 C773 1.367 . S
C773 C772 1.367 . S
C773 C775 1.433 . S
C774 C770 1.350 . S
C774 C771 1.463 . S
C774 N778 1.427 . S
C775 H765 0.929 . S
C775 C773 1.433 . S
C775 N778 1.384 . S
C776 H767 0.929 . S
C776 C768 1.378 . S
C776 C771 1.350 . S
C777 H764 0.929 . S
C777 C769 1.433 . S
C777 N779 1.384 . S
N778 C774 1.427 . S
N778 C775 1.384 . S
N779 C771 1.427 . S
N779 C777 1.384 . S
H780 C786 0.930 . S
H781 C790 0.930 . S
H782 C795 0.929 . S
H783 C793 0.929 . S
H784 C788 0.929 . S
H785 C794 0.929 . S
C786 H780 0.930 . S
C786 C787 1.367 . S
C786 C794 1.378 . S
C787 C786 1.367 . S
C787 C795 1.433 . S
C788 H784 0.929 . S
C788 C790 1.378 . S
C788 C792 1.350 . S
C789 C792 1.463 1_554 S
C789 C794 1.350 . S
C789 N797 1.427 . S
C790 H781 0.930 . S
C790 C788 1.378 . S
C790 C791 1.367 . S
C791 C790 1.367 . S
C791 C793 1.433 . S
C792 C788 1.350 . S
C792 C789 1.463 1_556 S
C792 N796 1.427 . S
C793 H783 0.929 . S
C793 C791 1.433 . S
C793 N796 1.384 . S
C794 H785 0.929 . S
C794 C786 1.378 . S
C794 C789 1.350 . S
C795 H782 0.929 . S
C795 C787 1.433 . S
C795 N797 1.384 . S
N796 C792 1.427 . S
N796 C793 1.384 . S
N797 C789 1.427 . S
N797 C795 1.384 . S
H798 C804 0.930 . S
H799 C808 0.930 . S
H800 C813 0.929 . S
H801 C811 0.929 . S
H802 C806 0.929 . S
H803 C812 0.929 . S
C804 H798 0.930 . S
C804 C805 1.367 . S
C804 C812 1.378 . S
C805 C804 1.367 . S
C805 C813 1.433 . S
C806 H802 0.929 . S
C806 C808 1.378 . S
C806 C810 1.350 . S
C807 C810 1.463 . S
C807 C812 1.350 . S
C807 N815 1.427 . S
C808 H799 0.930 . S
C808 C806 1.378 . S
C808 C809 1.367 . S
C809 C808 1.367 . S
C809 C811 1.433 . S
C810 C806 1.350 . S
C810 C807 1.463 . S
C810 N814 1.427 . S
C811 H801 0.929 . S
C811 C809 1.433 . S
C811 N814 1.384 . S
C812 H803 0.929 . S
C812 C804 1.378 . S
C812 C807 1.350 . S
C813 H800 0.929 . S
C813 C805 1.433 . S
C813 N815 1.384 . S
N814 C810 1.427 . S
N814 C811 1.384 . S
N815 C807 1.427 . S
N815 C813 1.384 . S
H816 C822 0.930 . S
H817 C826 0.930 . S
H818 C831 0.929 . S
H819 C829 0.929 . S
H820 C824 0.929 . S
H821 C830 0.929 . S
C822 H816 0.930 . S
C822 C823 1.367 . S
C822 C830 1.378 . S
C823 C822 1.367 . S
C823 C831 1.433 . S
C824 H820 0.929 . S
C824 C826 1.378 . S
C824 C828 1.350 . S
C825 C828 1.463 . S
C825 C830 1.350 . S
C825 N833 1.427 . S
C826 H817 0.930 . S
C826 C824 1.378 . S
C826 C827 1.367 . S
C827 C826 1.367 . S
C827 C829 1.433 . S
C828 C824 1.350 . S
C828 C825 1.463 . S
C828 N832 1.427 . S
C829 H819 0.929 . S
C829 C827 1.433 . S
C829 N832 1.384 . S
C830 H821 0.929 . S
C830 C822 1.378 . S
C830 C825 1.350 . S
C831 H818 0.929 . S
C831 C823 1.433 . S
C831 N833 1.384 . S
N832 C828 1.427 . S
N832 C829 1.384 . S
N833 C825 1.427 . S
N833 C831 1.384 . S
H834 C840 0.930 . S
H835 C844 0.930 . S
H836 C849 0.929 . S
H837 C847 0.929 . S
H838 C842 0.929 . S
H839 C848 0.929 . S
C840 H834 0.930 . S
C840 C841 1.367 . S
C840 C848 1.378 . S
C841 C840 1.367 . S
C841 C849 1.433 . S
C842 H838 0.929 . S
C842 C844 1.378 . S
C842 C846 1.350 . S
C843 C846 1.463 . S
C843 C848 1.350 . S
C843 N851 1.427 . S
C844 H835 0.930 . S
C844 C842 1.378 . S
C844 C845 1.367 . S
C845 C844 1.367 . S
C845 C847 1.433 . S
C846 C842 1.350 . S
C846 C843 1.463 . S
C846 N850 1.427 . S
C847 H837 0.929 . S
C847 C845 1.433 . S
C847 N850 1.384 . S
C848 H839 0.929 . S
C848 C840 1.378 . S
C848 C843 1.350 . S
C849 H836 0.929 . S
C849 C841 1.433 . S
C849 N851 1.384 . S
N850 C846 1.427 . S
N850 C847 1.384 . S
N851 C843 1.427 . S
N851 C849 1.384 . S
H852 C858 0.930 . S
H853 C862 0.930 . S
H854 C867 0.929 . S
H855 C865 0.929 . S
H856 C860 0.929 . S
H857 C866 0.929 . S
C858 H852 0.930 . S
C858 C859 1.367 . S
C858 C866 1.378 . S
C859 C858 1.367 . S
C859 C867 1.433 . S
C860 H856 0.929 . S
C860 C862 1.378 . S
C860 C864 1.350 . S
C861 C864 1.463 . S
C861 C866 1.350 . S
C861 N869 1.427 . S
C862 H853 0.930 . S
C862 C860 1.378 . S
C862 C863 1.367 . S
C863 C862 1.367 . S
C863 C865 1.433 . S
C864 C860 1.350 . S
C864 C861 1.463 . S
C864 N868 1.427 . S
C865 H855 0.929 . S
C865 C863 1.433 . S
C865 N868 1.384 . S
C866 H857 0.929 . S
C866 C858 1.378 . S
C866 C861 1.350 . S
C867 H854 0.929 . S
C867 C859 1.433 . S
C867 N869 1.384 . S
N868 C864 1.427 . S
N868 C865 1.384 . S
N869 C861 1.427 . S
N869 C867 1.384 . S
H870 C876 0.930 . S
H871 C880 0.930 . S
H872 C885 0.929 . S
H873 C883 0.929 . S
H874 C878 0.929 . S
H875 C884 0.929 . S
C876 H870 0.930 . S
C876 C877 1.367 . S
C876 C884 1.378 . S
C877 C876 1.367 . S
C877 C885 1.433 . S
C878 H874 0.929 . S
C878 C880 1.378 . S
C878 C882 1.350 . S
C879 C882 1.463 . S
C879 C884 1.350 . S
C879 N887 1.427 . S
C880 H871 0.930 . S
C880 C878 1.378 . S
C880 C881 1.367 . S
C881 C880 1.367 . S
C881 C883 1.433 . S
C882 C878 1.350 . S
C882 C879 1.463 . S
C882 N886 1.427 . S
C883 H873 0.929 . S
C883 C881 1.433 . S
C883 N886 1.384 . S
C884 H875 0.929 . S
C884 C876 1.378 . S
C884 C879 1.350 . S
C885 H872 0.929 . S
C885 C877 1.433 . S
C885 N887 1.384 . S
N886 C882 1.427 . S
N886 C883 1.384 . S
N887 C879 1.427 . S
N887 C885 1.384 . S
H888 C894 0.930 . S
H889 C898 0.930 . S
H890 C903 0.929 . S
H891 C901 0.929 . S
H892 C896 0.929 . S
H893 C902 0.929 . S
C894 H888 0.930 . S
C894 C895 1.367 . S
C894 C902 1.378 . S
C895 C894 1.367 . S
C895 C903 1.433 . S
C896 H892 0.929 . S
C896 C898 1.378 . S
C896 C900 1.350 . S
C897 C900 1.463 . S
C897 C902 1.350 . S
C897 N905 1.427 . S
C898 H889 0.930 . S
C898 C896 1.378 . S
C898 C899 1.367 . S
C899 C898 1.367 . S
C899 C901 1.433 . S
C900 C896 1.350 . S
C900 C897 1.463 . S
C900 N904 1.427 . S
C901 H891 0.929 . S
C901 C899 1.433 . S
C901 N904 1.384 . S
C902 H893 0.929 . S
C902 C894 1.378 . S
C902 C897 1.350 . S
C903 H890 0.929 . S
C903 C895 1.433 . S
C903 N905 1.384 . S
N904 C900 1.427 . S
N904 C901 1.384 . S
N905 C897 1.427 . S
N905 C903 1.384 . S
H906 C912 0.930 . S
H907 C916 0.930 . S
H908 C921 0.929 . S
H909 C919 0.929 . S
H910 C914 0.929 . S
H911 C920 0.929 . S
C912 H906 0.930 . S
C912 C913 1.367 . S
C912 C920 1.378 . S
C913 C912 1.367 . S
C913 C921 1.433 . S
C914 H910 0.929 . S
C914 C916 1.378 . S
C914 C918 1.350 . S
C915 C918 1.463 . S
C915 C920 1.350 . S
C915 N923 1.427 . S
C916 H907 0.930 . S
C916 C914 1.378 . S
C916 C917 1.367 . S
C917 C916 1.367 . S
C917 C919 1.433 . S
C918 C914 1.350 . S
C918 C915 1.463 . S
C918 N922 1.427 . S
C919 H909 0.929 . S
C919 C917 1.433 . S
C919 N922 1.384 . S
C920 H911 0.929 . S
C920 C912 1.378 . S
C920 C915 1.350 . S
C921 H908 0.929 . S
C921 C913 1.433 . S
C921 N923 1.384 . S
N922 C918 1.427 . S
N922 C919 1.384 . S
N923 C915 1.427 . S
N923 C921 1.384 . S
H924 C930 0.930 . S
H925 C934 0.930 . S
H926 C939 0.929 . S
H927 C937 0.929 . S
H928 C932 0.929 . S
H929 C938 0.929 . S
C930 H924 0.930 . S
C930 C931 1.367 . S
C930 C938 1.378 . S
C931 C930 1.367 . S
C931 C939 1.433 . S
C932 H928 0.929 . S
C932 C934 1.378 . S
C932 C936 1.350 . S
C933 C936 1.463 . S
C933 C938 1.350 . S
C933 N941 1.427 . S
C934 H925 0.930 . S
C934 C932 1.378 . S
C934 C935 1.367 . S
C935 C934 1.367 . S
C935 C937 1.433 . S
C936 C932 1.350 . S
C936 C933 1.463 . S
C936 N940 1.427 . S
C937 H927 0.929 . S
C937 C935 1.433 . S
C937 N940 1.384 . S
C938 H929 0.929 . S
C938 C930 1.378 . S
C938 C933 1.350 . S
C939 H926 0.929 . S
C939 C931 1.433 . S
C939 N941 1.384 . S
N940 C936 1.427 . S
N940 C937 1.384 . S
N941 C933 1.427 . S
N941 C939 1.384 . S
H942 C948 0.930 . S
H943 C952 0.930 . S
H944 C957 0.929 . S
H945 C955 0.929 . S
H946 C950 0.929 . S
H947 C956 0.929 . S
C948 H942 0.930 . S
C948 C949 1.367 . S
C948 C956 1.378 . S
C949 C948 1.367 . S
C949 C957 1.433 . S
C950 H946 0.929 . S
C950 C952 1.378 . S
C950 C954 1.350 . S
C951 C954 1.463 . S
C951 C956 1.350 . S
C951 N959 1.427 . S
C952 H943 0.930 . S
C952 C950 1.378 . S
C952 C953 1.367 . S
C953 C952 1.367 . S
C953 C955 1.433 . S
C954 C950 1.350 . S
C954 C951 1.463 . S
C954 N958 1.427 . S
C955 H945 0.929 . S
C955 C953 1.433 . S
C955 N958 1.384 . S
C956 H947 0.929 . S
C956 C948 1.378 . S
C956 C951 1.350 . S
C957 H944 0.929 . S
C957 C949 1.433 . S
C957 N959 1.384 . S
N958 C954 1.427 . S
N958 C955 1.384 . S
N959 C951 1.427 . S
N959 C957 1.384 . S
H960 C966 0.930 . S
H961 C970 0.930 . S
H962 C975 0.929 . S
H963 C973 0.929 . S
H964 C968 0.929 . S
H965 C974 0.929 . S
C966 H960 0.930 . S
C966 C967 1.367 . S
C966 C974 1.378 . S
C967 C966 1.367 . S
C967 C975 1.433 . S
C968 H964 0.929 . S
C968 C970 1.378 . S
C968 C972 1.350 . S
C969 C972 1.463 . S
C969 C974 1.350 . S
C969 N977 1.427 . S
C970 H961 0.930 . S
C970 C968 1.378 . S
C970 C971 1.367 . S
C971 C970 1.367 . S
C971 C973 1.433 . S
C972 C968 1.350 . S
C972 C969 1.463 . S
C972 N976 1.427 . S
C973 H963 0.929 . S
C973 C971 1.433 . S
C973 N976 1.384 . S
C974 H965 0.929 . S
C974 C966 1.378 . S
C974 C969 1.350 . S
C975 H962 0.929 . S
C975 C967 1.433 . S
C975 N977 1.384 . S
N976 C972 1.427 . S
N976 C973 1.384 . S
N977 C969 1.427 . S
N977 C975 1.384 . S
H978 C984 0.930 . S
H979 C988 0.930 . S
H980 C993 0.929 . S
H981 C991 0.929 . S
H982 C986 0.929 . S
H983 C992 0.929 . S
C984 H978 0.930 . S
C984 C985 1.367 . S
C984 C992 1.378 . S
C985 C984 1.367 . S
C985 C993 1.433 . S
C986 H982 0.929 . S
C986 C988 1.378 . S
C986 C990 1.350 . S
C987 C990 1.463 . S
C987 C992 1.350 . S
C987 N995 1.427 . S
C988 H979 0.930 . S
C988 C986 1.378 . S
C988 C989 1.367 . S
C989 C988 1.367 . S
C989 C991 1.433 . S
C990 C986 1.350 . S
C990 C987 1.463 . S
C990 N994 1.427 . S
C991 H981 0.929 . S
C991 C989 1.433 . S
C991 N994 1.384 . S
C992 H983 0.929 . S
C992 C984 1.378 . S
C992 C987 1.350 . S
C993 H980 0.929 . S
C993 C985 1.433 . S
C993 N995 1.384 . S
N994 C990 1.427 . S
N994 C991 1.384 . S
N995 C987 1.427 . S
N995 C993 1.384 . S
H996 C1002 0.930 . S
H997 C1006 0.930 . S
H998 C1011 0.929 . S
H999 C1009 0.929 . S
H1000 C1004 0.929 . S
H1001 C1010 0.929 . S
C1002 H996 0.930 . S
C1002 C1003 1.367 . S
C1002 C1010 1.378 . S
C1003 C1002 1.367 . S
C1003 C1011 1.433 . S
C1004 H1000 0.929 . S
C1004 C1006 1.378 . S
C1004 C1008 1.350 . S
C1005 C1008 1.463 . S
C1005 C1010 1.350 . S
C1005 N1013 1.427 . S
C1006 H997 0.930 . S
C1006 C1004 1.378 . S
C1006 C1007 1.367 . S
C1007 C1006 1.367 . S
C1007 C1009 1.433 . S
C1008 C1004 1.350 . S
C1008 C1005 1.463 . S
C1008 N1012 1.427 . S
C1009 H999 0.929 . S
C1009 C1007 1.433 . S
C1009 N1012 1.384 . S
C1010 H1001 0.929 . S
C1010 C1002 1.378 . S
C1010 C1005 1.350 . S
C1011 H998 0.929 . S
C1011 C1003 1.433 . S
C1011 N1013 1.384 . S
N1012 C1008 1.427 . S
N1012 C1009 1.384 . S
N1013 C1005 1.427 . S
N1013 C1011 1.384 . S
H1014 C1020 0.930 . S
H1015 C1024 0.930 . S
H1016 C1029 0.929 . S
H1017 C1027 0.929 . S
H1018 C1022 0.929 . S
H1019 C1028 0.929 . S
C1020 H1014 0.930 . S
C1020 C1021 1.367 . S
C1020 C1028 1.378 . S
C1021 C1020 1.367 . S
C1021 C1029 1.433 . S
C1022 H1018 0.929 . S
C1022 C1024 1.378 . S
C1022 C1026 1.350 . S
C1023 C1026 1.463 . S
C1023 C1028 1.350 . S
C1023 N1031 1.427 . S
C1024 H1015 0.930 . S
C1024 C1022 1.378 . S
C1024 C1025 1.367 . S
C1025 C1024 1.367 . S
C1025 C1027 1.433 . S
C1026 C1022 1.350 . S
C1026 C1023 1.463 . S
C1026 N1030 1.427 . S
C1027 H1017 0.929 . S
C1027 C1025 1.433 . S
C1027 N1030 1.384 . S
C1028 H1019 0.929 . S
C1028 C1020 1.378 . S
C1028 C1023 1.350 . S
C1029 H1016 0.929 . S
C1029 C1021 1.433 . S
C1029 N1031 1.384 . S
N1030 C1026 1.427 . S
N1030 C1027 1.384 . S
N1031 C1023 1.427 . S
N1031 C1029 1.384 . S
H1032 C1038 0.930 . S
H1033 C1042 0.930 . S
H1034 C1047 0.929 . S
H1035 C1045 0.929 . S
H1036 C1040 0.929 . S
H1037 C1046 0.929 . S
C1038 H1032 0.930 . S
C1038 C1039 1.367 . S
C1038 C1046 1.378 . S
C1039 C1038 1.367 . S
C1039 C1047 1.433 . S
C1040 H1036 0.929 . S
C1040 C1042 1.378 . S
C1040 C1044 1.350 . S
C1041 C1044 1.463 . S
C1041 C1046 1.350 . S
C1041 N1049 1.427 . S
C1042 H1033 0.930 . S
C1042 C1040 1.378 . S
C1042 C1043 1.367 . S
C1043 C1042 1.367 . S
C1043 C1045 1.433 . S
C1044 C1040 1.350 . S
C1044 C1041 1.463 . S
C1044 N1048 1.427 . S
C1045 H1035 0.929 . S
C1045 C1043 1.433 . S
C1045 N1048 1.384 . S
C1046 H1037 0.929 . S
C1046 C1038 1.378 . S
C1046 C1041 1.350 . S
C1047 H1034 0.929 . S
C1047 C1039 1.433 . S
C1047 N1049 1.384 . S
N1048 C1044 1.427 . S
N1048 C1045 1.384 . S
N1049 C1041 1.427 . S
N1049 C1047 1.384 . S
H1050 C1056 0.930 . S
H1051 C1060 0.930 . S
H1052 C1065 0.929 . S
H1053 C1063 0.929 . S
H1054 C1058 0.929 . S
H1055 C1064 0.929 . S
C1056 H1050 0.930 . S
C1056 C1057 1.367 . S
C1056 C1064 1.378 . S
C1057 C1056 1.367 . S
C1057 C1065 1.433 . S
C1058 H1054 0.929 . S
C1058 C1060 1.378 . S
C1058 C1062 1.350 . S
C1059 C1062 1.463 . S
C1059 C1064 1.350 . S
C1059 N1067 1.427 . S
C1060 H1051 0.930 . S
C1060 C1058 1.378 . S
C1060 C1061 1.367 . S
C1061 C1060 1.367 . S
C1061 C1063 1.433 . S
C1062 C1058 1.350 . S
C1062 C1059 1.463 . S
C1062 N1066 1.427 . S
C1063 H1053 0.929 . S
C1063 C1061 1.433 . S
C1063 N1066 1.384 . S
C1064 H1055 0.929 . S
C1064 C1056 1.378 . S
C1064 C1059 1.350 . S
C1065 H1052 0.929 . S
C1065 C1057 1.433 . S
C1065 N1067 1.384 . S
N1066 C1062 1.427 . S
N1066 C1063 1.384 . S
N1067 C1059 1.427 . S
N1067 C1065 1.384 . S
H1068 C1074 0.930 . S
H1069 C1078 0.930 . S
H1070 C1083 0.929 . S
H1071 C1081 0.929 . S
H1072 C1076 0.929 . S
H1073 C1082 0.929 . S
C1074 H1068 0.930 . S
C1074 C1075 1.367 . S
C1074 C1082 1.378 . S
C1075 C1074 1.367 . S
C1075 C1083 1.433 . S
C1076 H1072 0.929 . S
C1076 C1078 1.378 . S
C1076 C1080 1.350 . S
C1077 C1080 1.463 . S
C1077 C1082 1.350 . S
C1077 N1085 1.427 . S
C1078 H1069 0.930 . S
C1078 C1076 1.378 . S
C1078 C1079 1.367 . S
C1079 C1078 1.367 . S
C1079 C1081 1.433 . S
C1080 C1076 1.350 . S
C1080 C1077 1.463 . S
C1080 N1084 1.427 . S
C1081 H1071 0.929 . S
C1081 C1079 1.433 . S
C1081 N1084 1.384 . S
C1082 H1073 0.929 . S
C1082 C1074 1.378 . S
C1082 C1077 1.350 . S
C1083 H1070 0.929 . S
C1083 C1075 1.433 . S
C1083 N1085 1.384 . S
N1084 C1080 1.427 . S
N1084 C1081 1.384 . S
N1085 C1077 1.427 . S
N1085 C1083 1.384 . S
H1086 C1092 0.930 . S
H1087 C1096 0.930 . S
H1088 C1101 0.929 . S
H1089 C1099 0.929 . S
H1090 C1094 0.929 . S
H1091 C1100 0.929 . S
C1092 H1086 0.930 . S
C1092 C1093 1.367 . S
C1092 C1100 1.378 . S
C1093 C1092 1.367 . S
C1093 C1101 1.433 . S
C1094 H1090 0.929 . S
C1094 C1096 1.378 . S
C1094 C1098 1.350 . S
C1095 C1098 1.463 . S
C1095 C1100 1.350 . S
C1095 N1103 1.427 . S
C1096 H1087 0.930 . S
C1096 C1094 1.378 . S
C1096 C1097 1.367 . S
C1097 C1096 1.367 . S
C1097 C1099 1.433 . S
C1098 C1094 1.350 . S
C1098 C1095 1.463 . S
C1098 N1102 1.427 . S
C1099 H1089 0.929 . S
C1099 C1097 1.433 . S
C1099 N1102 1.384 . S
C1100 H1091 0.929 . S
C1100 C1092 1.378 . S
C1100 C1095 1.350 . S
C1101 H1088 0.929 . S
C1101 C1093 1.433 . S
C1101 N1103 1.384 . S
N1102 C1098 1.427 . S
N1102 C1099 1.384 . S
N1103 C1095 1.427 . S
N1103 C1101 1.384 . S
H1104 C1110 0.930 . S
H1105 C1114 0.930 . S
H1106 C1119 0.929 . S
H1107 C1117 0.929 . S
H1108 C1112 0.929 . S
H1109 C1118 0.929 . S
C1110 H1104 0.930 . S
C1110 C1111 1.367 . S
C1110 C1118 1.378 . S
C1111 C1110 1.367 . S
C1111 C1119 1.433 . S
C1112 H1108 0.929 . S
C1112 C1114 1.378 . S
C1112 C1116 1.350 . S
C1113 C1116 1.463 . S
C1113 C1118 1.350 . S
C1113 N1121 1.427 . S
C1114 H1105 0.930 . S
C1114 C1112 1.378 . S
C1114 C1115 1.367 . S
C1115 C1114 1.367 . S
C1115 C1117 1.433 . S
C1116 C1112 1.350 . S
C1116 C1113 1.463 . S
C1116 N1120 1.427 . S
C1117 H1107 0.929 . S
C1117 C1115 1.433 . S
C1117 N1120 1.384 . S
C1118 H1109 0.929 . S
C1118 C1110 1.378 . S
C1118 C1113 1.350 . S
C1119 H1106 0.929 . S
C1119 C1111 1.433 . S
C1119 N1121 1.384 . S
N1120 C1116 1.427 . S
N1120 C1117 1.384 . S
N1121 C1113 1.427 . S
N1121 C1119 1.384 . S
H1122 C1128 0.930 . S
H1123 C1132 0.930 . S
H1124 C1137 0.929 . S
H1125 C1135 0.929 . S
H1126 C1130 0.929 . S
H1127 C1136 0.929 . S
C1128 H1122 0.930 . S
C1128 C1129 1.367 . S
C1128 C1136 1.378 . S
C1129 C1128 1.367 . S
C1129 C1137 1.433 . S
C1130 H1126 0.929 . S
C1130 C1132 1.378 . S
C1130 C1134 1.350 . S
C1131 C1134 1.463 . S
C1131 C1136 1.350 . S
C1131 N1139 1.427 . S
C1132 H1123 0.930 . S
C1132 C1130 1.378 . S
C1132 C1133 1.367 . S
C1133 C1132 1.367 . S
C1133 C1135 1.433 . S
C1134 C1130 1.350 . S
C1134 C1131 1.463 . S
C1134 N1138 1.427 . S
C1135 H1125 0.929 . S
C1135 C1133 1.433 . S
C1135 N1138 1.384 . S
C1136 H1127 0.929 . S
C1136 C1128 1.378 . S
C1136 C1131 1.350 . S
C1137 H1124 0.929 . S
C1137 C1129 1.433 . S
C1137 N1139 1.384 . S
N1138 C1134 1.427 . S
N1138 C1135 1.384 . S
N1139 C1131 1.427 . S
N1139 C1137 1.384 . S
H1140 C1146 0.930 . S
H1141 C1150 0.930 . S
H1142 C1155 0.929 . S
H1143 C1153 0.929 . S
H1144 C1148 0.929 . S
H1145 C1154 0.929 . S
C1146 H1140 0.930 . S
C1146 C1147 1.367 . S
C1146 C1154 1.378 . S
C1147 C1146 1.367 . S
C1147 C1155 1.433 . S
C1148 H1144 0.929 . S
C1148 C1150 1.378 . S
C1148 C1152 1.350 . S
C1149 C1152 1.463 . S
C1149 C1154 1.350 . S
C1149 N1157 1.427 . S
C1150 H1141 0.930 . S
C1150 C1148 1.378 . S
C1150 C1151 1.367 . S
C1151 C1150 1.367 . S
C1151 C1153 1.433 . S
C1152 C1148 1.350 . S
C1152 C1149 1.463 . S
C1152 N1156 1.427 . S
C1153 H1143 0.929 . S
C1153 C1151 1.433 . S
C1153 N1156 1.384 . S
C1154 H1145 0.929 . S
C1154 C1146 1.378 . S
C1154 C1149 1.350 . S
C1155 H1142 0.929 . S
C1155 C1147 1.433 . S
C1155 N1157 1.384 . S
N1156 C1152 1.427 . S
N1156 C1153 1.384 . S
N1157 C1149 1.427 . S
N1157 C1155 1.384 . S
H1158 C1164 0.930 . S
H1159 C1168 0.930 . S
H1160 C1173 0.929 . S
H1161 C1171 0.929 . S
H1162 C1166 0.929 . S
H1163 C1172 0.929 . S
C1164 H1158 0.930 . S
C1164 C1165 1.367 . S
C1164 C1172 1.378 . S
C1165 C1164 1.367 . S
C1165 C1173 1.433 . S
C1166 H1162 0.929 . S
C1166 C1168 1.378 . S
C1166 C1170 1.350 . S
C1167 C1170 1.463 . S
C1167 C1172 1.350 . S
C1167 N1175 1.427 . S
C1168 H1159 0.930 . S
C1168 C1166 1.378 . S
C1168 C1169 1.367 . S
C1169 C1168 1.367 . S
C1169 C1171 1.433 . S
C1170 C1166 1.350 . S
C1170 C1167 1.463 . S
C1170 N1174 1.427 . S
C1171 H1161 0.929 . S
C1171 C1169 1.433 . S
C1171 N1174 1.384 . S
C1172 H1163 0.929 . S
C1172 C1164 1.378 . S
C1172 C1167 1.350 . S
C1173 H1160 0.929 . S
C1173 C1165 1.433 . S
C1173 N1175 1.384 . S
N1174 C1170 1.427 . S
N1174 C1171 1.384 . S
N1175 C1167 1.427 . S
N1175 C1173 1.384 . S
H1176 C1182 0.930 . S
H1177 C1186 0.930 . S
H1178 C1191 0.929 . S
H1179 C1189 0.929 . S
H1180 C1184 0.929 . S
H1181 C1190 0.929 . S
C1182 H1176 0.930 . S
C1182 C1183 1.367 . S
C1182 C1190 1.378 . S
C1183 C1182 1.367 . S
C1183 C1191 1.433 . S
C1184 H1180 0.929 . S
C1184 C1186 1.378 . S
C1184 C1188 1.350 . S
C1185 C1188 1.463 . S
C1185 C1190 1.350 . S
C1185 N1193 1.427 . S
C1186 H1177 0.930 . S
C1186 C1184 1.378 . S
C1186 C1187 1.367 . S
C1187 C1186 1.367 . S
C1187 C1189 1.433 . S
C1188 C1184 1.350 . S
C1188 C1185 1.463 . S
C1188 N1192 1.427 . S
C1189 H1179 0.929 . S
C1189 C1187 1.433 . S
C1189 N1192 1.384 . S
C1190 H1181 0.929 . S
C1190 C1182 1.378 . S
C1190 C1185 1.350 . S
C1191 H1178 0.929 . S
C1191 C1183 1.433 . S
C1191 N1193 1.384 . S
N1192 C1188 1.427 . S
N1192 C1189 1.384 . S
N1193 C1185 1.427 . S
N1193 C1191 1.384 . S
H1194 C1200 0.930 . S
H1195 C1204 0.930 . S
H1196 C1209 0.929 . S
H1197 C1207 0.929 . S
H1198 C1202 0.929 . S
H1199 C1208 0.929 . S
C1200 H1194 0.930 . S
C1200 C1201 1.367 . S
C1200 C1208 1.378 . S
C1201 C1200 1.367 . S
C1201 C1209 1.433 . S
C1202 H1198 0.929 . S
C1202 C1204 1.378 . S
C1202 C1206 1.350 . S
C1203 C1206 1.463 . S
C1203 C1208 1.350 . S
C1203 N1211 1.427 . S
C1204 H1195 0.930 . S
C1204 C1202 1.378 . S
C1204 C1205 1.367 . S
C1205 C1204 1.367 . S
C1205 C1207 1.433 . S
C1206 C1202 1.350 . S
C1206 C1203 1.463 . S
C1206 N1210 1.427 . S
C1207 H1197 0.929 . S
C1207 C1205 1.433 . S
C1207 N1210 1.384 . S
C1208 H1199 0.929 . S
C1208 C1200 1.378 . S
C1208 C1203 1.350 . S
C1209 H1196 0.929 . S
C1209 C1201 1.433 . S
C1209 N1211 1.384 . S
N1210 C1206 1.427 . S
N1210 C1207 1.384 . S
N1211 C1203 1.427 . S
N1211 C1209 1.384 . S
H1212 C1218 0.930 . S
H1213 C1222 0.930 . S
H1214 C1227 0.929 . S
H1215 C1225 0.929 . S
H1216 C1220 0.929 . S
H1217 C1226 0.929 . S
C1218 H1212 0.930 . S
C1218 C1219 1.367 . S
C1218 C1226 1.378 . S
C1219 C1218 1.367 . S
C1219 C1227 1.433 . S
C1220 H1216 0.929 . S
C1220 C1222 1.378 . S
C1220 C1224 1.350 . S
C1221 C1224 1.463 . S
C1221 C1226 1.350 . S
C1221 N1229 1.427 . S
C1222 H1213 0.930 . S
C1222 C1220 1.378 . S
C1222 C1223 1.367 . S
C1223 C1222 1.367 . S
C1223 C1225 1.433 . S
C1224 C1220 1.350 . S
C1224 C1221 1.463 . S
C1224 N1228 1.427 . S
C1225 H1215 0.929 . S
C1225 C1223 1.433 . S
C1225 N1228 1.384 . S
C1226 H1217 0.929 . S
C1226 C1218 1.378 . S
C1226 C1221 1.350 . S
C1227 H1214 0.929 . S
C1227 C1219 1.433 . S
C1227 N1229 1.384 . S
N1228 C1224 1.427 . S
N1228 C1225 1.384 . S
N1229 C1221 1.427 . S
N1229 C1227 1.384 . S
H1230 C1236 0.930 . S
H1231 C1240 0.930 . S
H1232 C1245 0.929 . S
H1233 C1243 0.929 . S
H1234 C1238 0.929 . S
H1235 C1244 0.929 . S
C1236 H1230 0.930 . S
C1236 C1237 1.367 . S
C1236 C1244 1.378 . S
C1237 C1236 1.367 . S
C1237 C1245 1.433 . S
C1238 H1234 0.929 . S
C1238 C1240 1.378 . S
C1238 C1242 1.350 . S
C1239 C1242 1.463 . S
C1239 C1244 1.350 . S
C1239 N1247 1.427 . S
C1240 H1231 0.930 . S
C1240 C1238 1.378 . S
C1240 C1241 1.367 . S
C1241 C1240 1.367 . S
C1241 C1243 1.433 . S
C1242 C1238 1.350 . S
C1242 C1239 1.463 . S
C1242 N1246 1.427 . S
C1243 H1233 0.929 . S
C1243 C1241 1.433 . S
C1243 N1246 1.384 . S
C1244 H1235 0.929 . S
C1244 C1236 1.378 . S
C1244 C1239 1.350 . S
C1245 H1232 0.929 . S
C1245 C1237 1.433 . S
C1245 N1247 1.384 . S
N1246 C1242 1.427 . S
N1246 C1243 1.384 . S
N1247 C1239 1.427 . S
N1247 C1245 1.384 . S
C535 C21 1.333 . S
C539 C87 1.327 . S
C553 C120 1.327 . S
C557 C54 1.333 . S
C571 C219 1.333 . S
C575 C153 1.327 . S
C589 C186 1.330 . S
C593 C252 1.329 . S
C607 C351 1.331 . S
C611 C285 1.331 . S
C625 C318 1.328 . S
C629 C384 1.333 . S
C643 C483 1.327 . S
C647 C417 1.332 . S
C661 C450 1.331 . S
C665 C516 1.328 . S
C679 C7 1.492 . S
C683 C337 1.484 . S
C697 C370 1.484 . S
C701 C40 1.492 . S
C715 C271 1.484 . S
C719 C73 1.492 . S
C733 C304 1.485 . S
C737 C106 1.492 . S
C751 C469 1.485 . S
C755 C139 1.492 . S
C769 C502 1.492 . S
C773 C172 1.484 . S
C787 C403 1.493 . S
C791 C205 1.484 . S
C805 C436 1.483 . S
C809 C238 1.493 . S
C823 C18 1.290 . S
C827 C249 1.290 . S
C841 C51 1.288 . S
C845 C150 1.293 . S
C859 C183 1.295 . S
C863 C84 1.295 . S
C877 C216 1.287 . S
C881 C117 1.297 . S
C895 C282 1.291 . S
C899 C513 1.298 . S
C913 C315 1.289 . S
C917 C414 1.299 . S
C931 C348 1.296 . S
C935 C447 1.287 . S
C949 C381 1.287 . S
C953 C480 1.295 . S
C967 N464 1.269 . S
C971 N13 1.267 . S
C985 N46 1.262 . S
C989 N497 1.263 . S
C1003 N398 1.270 . S
C1007 N79 1.268 . S
C1021 N431 1.268 . S
C1025 N112 1.263 . S
C1039 N332 1.259 . S
C1043 N145 1.255 . S
C1057 N178 1.258 . S
C1061 N365 1.263 . S
C1075 N266 1.260 . S
C1079 N211 1.256 . S
C1093 N244 1.258 . S
C1097 N299 1.260 . S
C1111 N200 1.260 . S
C1115 N277 1.258 . S
C1129 N233 1.260 . S
C1133 N310 1.255 . S
C1147 N134 1.269 . S
C1151 N343 1.265 . S
C1165 N376 1.256 . S
C1169 N167 1.259 . S
C1183 N68 1.259 . S
C1187 N409 1.256 . S
C1201 N442 1.256 . S
C1205 N101 1.261 . S
C1219 N475 1.260 . S
C1223 N2 1.262 . S
C1237 N35 1.270 . S
C1241 N508 1.266 . S
