# Generated by pormake.
# Topology sog, (5)-cn, num edge types: 1
# Building blocks:
#     Node 0, Type 0, BuildingBlock: XOMCOT_clean_sbu_0, # of connection points: 5
#     Node 1, Type 0, BuildingBlock: XOMCOT_clean_sbu_0, # of connection points: 5
#     Node 2, Type 0, BuildingBlock: XOMCOT_clean_sbu_0, # of connection points: 5
#     Node 3, Type 0, BuildingBlock: XOMCOT_clean_sbu_0, # of connection points: 5
#     Node 4, Type 0, BuildingBlock: XOMCOT_clean_sbu_0, # of connection points: 5
#     Node 5, Type 0, BuildingBlock: XOMCOT_clean_sbu_0, # of connection points: 5
#     Node 6, Type 0, BuildingBlock: XOMCOT_clean_sbu_0, # of connection points: 5
#     Node 7, Type 0, BuildingBlock: XOMCOT_clean_sbu_0, # of connection points: 5
#     Node 8, Type 0, BuildingBlock: XOMCOT_clean_sbu_0, # of connection points: 5
#     Node 9, Type 0, BuildingBlock: XOMCOT_clean_sbu_0, # of connection points: 5
#     Node 10, Type 0, BuildingBlock: XOMCOT_clean_sbu_0, # of connection points: 5
#     Node 11, Type 0, BuildingBlock: XOMCOT_clean_sbu_0, # of connection points: 5
#     Node 12, Type 0, BuildingBlock: XOMCOT_clean_sbu_0, # of connection points: 5
#     Node 13, Type 0, BuildingBlock: XOMCOT_clean_sbu_0, # of connection points: 5
#     Node 14, Type 0, BuildingBlock: XOMCOT_clean_sbu_0, # of connection points: 5
#     Node 15, Type 0, BuildingBlock: XOMCOT_clean_sbu_0, # of connection points: 5
#     Node 16, Type 0, BuildingBlock: XOMCOT_clean_sbu_0, # of connection points: 5
#     Node 17, Type 0, BuildingBlock: XOMCOT_clean_sbu_0, # of connection points: 5
#     Node 18, Type 0, BuildingBlock: XOMCOT_clean_sbu_0, # of connection points: 5
#     Node 19, Type 0, BuildingBlock: XOMCOT_clean_sbu_0, # of connection points: 5
#     Node 20, Type 0, BuildingBlock: XOMCOT_clean_sbu_0, # of connection points: 5
#     Node 21, Type 0, BuildingBlock: XOMCOT_clean_sbu_0, # of connection points: 5
#     Node 22, Type 0, BuildingBlock: XOMCOT_clean_sbu_0, # of connection points: 5
#     Node 23, Type 0, BuildingBlock: XOMCOT_clean_sbu_0, # of connection points: 5
#     Node 24, Type 0, BuildingBlock: XOMCOT_clean_sbu_0, # of connection points: 5
#     Node 25, Type 0, BuildingBlock: XOMCOT_clean_sbu_0, # of connection points: 5
#     Node 26, Type 0, BuildingBlock: XOMCOT_clean_sbu_0, # of connection points: 5
#     Node 27, Type 0, BuildingBlock: XOMCOT_clean_sbu_0, # of connection points: 5
#     Node 28, Type 0, BuildingBlock: XOMCOT_clean_sbu_0, # of connection points: 5
#     Node 29, Type 0, BuildingBlock: XOMCOT_clean_sbu_0, # of connection points: 5
#     Node 30, Type 0, BuildingBlock: XOMCOT_clean_sbu_0, # of connection points: 5
#     Node 31, Type 0, BuildingBlock: XOMCOT_clean_sbu_0, # of connection points: 5
#     Edge 32, Type (0, 0), BuildingBlock: KIFKEQ_clean_linker_1, # of connection points: 2
#     Edge 33, Type (0, 0), BuildingBlock: KIFKEQ_clean_linker_1, # of connection points: 2
#     Edge 34, Type (0, 0), BuildingBlock: KIFKEQ_clean_linker_1, # of connection points: 2
#     Edge 35, Type (0, 0), BuildingBlock: KIFKEQ_clean_linker_1, # of connection points: 2
#     Edge 36, Type (0, 0), BuildingBlock: KIFKEQ_clean_linker_1, # of connection points: 2
#     Edge 37, Type (0, 0), BuildingBlock: KIFKEQ_clean_linker_1, # of connection points: 2
#     Edge 38, Type (0, 0), BuildingBlock: KIFKEQ_clean_linker_1, # of connection points: 2
#     Edge 39, Type (0, 0), BuildingBlock: KIFKEQ_clean_linker_1, # of connection points: 2
#     Edge 40, Type (0, 0), BuildingBlock: KIFKEQ_clean_linker_1, # of connection points: 2
#     Edge 41, Type (0, 0), BuildingBlock: KIFKEQ_clean_linker_1, # of connection points: 2
#     Edge 42, Type (0, 0), BuildingBlock: KIFKEQ_clean_linker_1, # of connection points: 2
#     Edge 43, Type (0, 0), BuildingBlock: KIFKEQ_clean_linker_1, # of connection points: 2
#     Edge 44, Type (0, 0), BuildingBlock: KIFKEQ_clean_linker_1, # of connection points: 2
#     Edge 45, Type (0, 0), BuildingBlock: KIFKEQ_clean_linker_1, # of connection points: 2
#     Edge 46, Type (0, 0), BuildingBlock: KIFKEQ_clean_linker_1, # of connection points: 2
#     Edge 47, Type (0, 0), BuildingBlock: KIFKEQ_clean_linker_1, # of connection points: 2
#     Edge 48, Type (0, 0), BuildingBlock: KIFKEQ_clean_linker_1, # of connection points: 2
#     Edge 49, Type (0, 0), BuildingBlock: KIFKEQ_clean_linker_1, # of connection points: 2
#     Edge 50, Type (0, 0), BuildingBlock: KIFKEQ_clean_linker_1, # of connection points: 2
#     Edge 51, Type (0, 0), BuildingBlock: KIFKEQ_clean_linker_1, # of connection points: 2
#     Edge 52, Type (0, 0), BuildingBlock: KIFKEQ_clean_linker_1, # of connection points: 2
#     Edge 53, Type (0, 0), BuildingBlock: KIFKEQ_clean_linker_1, # of connection points: 2
#     Edge 54, Type (0, 0), BuildingBlock: KIFKEQ_clean_linker_1, # of connection points: 2
#     Edge 55, Type (0, 0), BuildingBlock: KIFKEQ_clean_linker_1, # of connection points: 2
#     Edge 56, Type (0, 0), BuildingBlock: KIFKEQ_clean_linker_1, # of connection points: 2
#     Edge 57, Type (0, 0), BuildingBlock: KIFKEQ_clean_linker_1, # of connection points: 2
#     Edge 58, Type (0, 0), BuildingBlock: KIFKEQ_clean_linker_1, # of connection points: 2
#     Edge 59, Type (0, 0), BuildingBlock: KIFKEQ_clean_linker_1, # of connection points: 2
#     Edge 60, Type (0, 0), BuildingBlock: KIFKEQ_clean_linker_1, # of connection points: 2
#     Edge 61, Type (0, 0), BuildingBlock: KIFKEQ_clean_linker_1, # of connection points: 2
#     Edge 62, Type (0, 0), BuildingBlock: KIFKEQ_clean_linker_1, # of connection points: 2
#     Edge 63, Type (0, 0), BuildingBlock: KIFKEQ_clean_linker_1, # of connection points: 2
#     Edge 64, Type (0, 0), BuildingBlock: KIFKEQ_clean_linker_1, # of connection points: 2
#     Edge 65, Type (0, 0), BuildingBlock: KIFKEQ_clean_linker_1, # of connection points: 2
#     Edge 66, Type (0, 0), BuildingBlock: KIFKEQ_clean_linker_1, # of connection points: 2
#     Edge 67, Type (0, 0), BuildingBlock: KIFKEQ_clean_linker_1, # of connection points: 2
#     Edge 68, Type (0, 0), BuildingBlock: KIFKEQ_clean_linker_1, # of connection points: 2
#     Edge 69, Type (0, 0), BuildingBlock: KIFKEQ_clean_linker_1, # of connection points: 2
#     Edge 70, Type (0, 0), BuildingBlock: KIFKEQ_clean_linker_1, # of connection points: 2
#     Edge 71, Type (0, 0), BuildingBlock: KIFKEQ_clean_linker_1, # of connection points: 2
#     Edge 72, Type (0, 0), BuildingBlock: KIFKEQ_clean_linker_1, # of connection points: 2
#     Edge 73, Type (0, 0), BuildingBlock: KIFKEQ_clean_linker_1, # of connection points: 2
#     Edge 74, Type (0, 0), BuildingBlock: KIFKEQ_clean_linker_1, # of connection points: 2
#     Edge 75, Type (0, 0), BuildingBlock: KIFKEQ_clean_linker_1, # of connection points: 2
#     Edge 76, Type (0, 0), BuildingBlock: KIFKEQ_clean_linker_1, # of connection points: 2
#     Edge 77, Type (0, 0), BuildingBlock: KIFKEQ_clean_linker_1, # of connection points: 2
#     Edge 78, Type (0, 0), BuildingBlock: KIFKEQ_clean_linker_1, # of connection points: 2
#     Edge 79, Type (0, 0), BuildingBlock: KIFKEQ_clean_linker_1, # of connection points: 2
#     Edge 80, Type (0, 0), BuildingBlock: KIFKEQ_clean_linker_1, # of connection points: 2
#     Edge 81, Type (0, 0), BuildingBlock: KIFKEQ_clean_linker_1, # of connection points: 2
#     Edge 82, Type (0, 0), BuildingBlock: KIFKEQ_clean_linker_1, # of connection points: 2
#     Edge 83, Type (0, 0), BuildingBlock: KIFKEQ_clean_linker_1, # of connection points: 2
#     Edge 84, Type (0, 0), BuildingBlock: KIFKEQ_clean_linker_1, # of connection points: 2
#     Edge 85, Type (0, 0), BuildingBlock: KIFKEQ_clean_linker_1, # of connection points: 2
#     Edge 86, Type (0, 0), BuildingBlock: KIFKEQ_clean_linker_1, # of connection points: 2
#     Edge 87, Type (0, 0), BuildingBlock: KIFKEQ_clean_linker_1, # of connection points: 2
#     Edge 88, Type (0, 0), BuildingBlock: KIFKEQ_clean_linker_1, # of connection points: 2
#     Edge 89, Type (0, 0), BuildingBlock: KIFKEQ_clean_linker_1, # of connection points: 2
#     Edge 90, Type (0, 0), BuildingBlock: KIFKEQ_clean_linker_1, # of connection points: 2
#     Edge 91, Type (0, 0), BuildingBlock: KIFKEQ_clean_linker_1, # of connection points: 2
#     Edge 92, Type (0, 0), BuildingBlock: KIFKEQ_clean_linker_1, # of connection points: 2
#     Edge 93, Type (0, 0), BuildingBlock: KIFKEQ_clean_linker_1, # of connection points: 2
#     Edge 94, Type (0, 0), BuildingBlock: KIFKEQ_clean_linker_1, # of connection points: 2
#     Edge 95, Type (0, 0), BuildingBlock: KIFKEQ_clean_linker_1, # of connection points: 2
#     Edge 96, Type (0, 0), BuildingBlock: KIFKEQ_clean_linker_1, # of connection points: 2
#     Edge 97, Type (0, 0), BuildingBlock: KIFKEQ_clean_linker_1, # of connection points: 2
#     Edge 98, Type (0, 0), BuildingBlock: KIFKEQ_clean_linker_1, # of connection points: 2
#     Edge 99, Type (0, 0), BuildingBlock: KIFKEQ_clean_linker_1, # of connection points: 2
#     Edge 100, Type (0, 0), BuildingBlock: KIFKEQ_clean_linker_1, # of connection points: 2
#     Edge 101, Type (0, 0), BuildingBlock: KIFKEQ_clean_linker_1, # of connection points: 2
#     Edge 102, Type (0, 0), BuildingBlock: KIFKEQ_clean_linker_1, # of connection points: 2
#     Edge 103, Type (0, 0), BuildingBlock: KIFKEQ_clean_linker_1, # of connection points: 2
#     Edge 104, Type (0, 0), BuildingBlock: KIFKEQ_clean_linker_1, # of connection points: 2
#     Edge 105, Type (0, 0), BuildingBlock: KIFKEQ_clean_linker_1, # of connection points: 2
#     Edge 106, Type (0, 0), BuildingBlock: KIFKEQ_clean_linker_1, # of connection points: 2
#     Edge 107, Type (0, 0), BuildingBlock: KIFKEQ_clean_linker_1, # of connection points: 2
#     Edge 108, Type (0, 0), BuildingBlock: KIFKEQ_clean_linker_1, # of connection points: 2
#     Edge 109, Type (0, 0), BuildingBlock: KIFKEQ_clean_linker_1, # of connection points: 2
#     Edge 110, Type (0, 0), BuildingBlock: KIFKEQ_clean_linker_1, # of connection points: 2
#     Edge 111, Type (0, 0), BuildingBlock: KIFKEQ_clean_linker_1, # of connection points: 2
# Relax obj value: 0.168
# Max RMSD: 0.188
# Mean RMSD: 0.188
data_MOF--net-sog--node1-XOMCOT_clean_sbu_0--edge1-KIFKEQ_clean_linker_1
_symmetry_space_group_name_H-M    P1
_symmetry_Int_Tables_number       1
_symmetry_cell_setting            triclinic
loop_
_symmetry_equiv_pos_as_xyz
'x, y, z'
_cell_length_a     85.451136
_cell_length_b     17.69094
_cell_length_c     120.95977
_cell_angle_alpha  89.992482
_cell_angle_beta   89.999979
_cell_angle_gamma 90.013134
loop_
_atom_site_label
_atom_site_type_symbol
_atom_site_fract_x
_atom_site_fract_y
_atom_site_fract_z
_atom_type_partial_charge
Co0 Co 0.45469 0.15824 0.04169 0.0
C1 C 0.45124 0.99087 0.04202 0.0
C2 C 0.43104 0.04456 0.03519 0.0
C3 C 0.42926 0.96751 0.03418 0.0
N4 N 0.44462 0.05952 0.04047 0.0
N5 N 0.44202 0.9338 0.03849 0.0
H6 H 0.46316 0.98249 0.04465 0.0
H7 H 0.42329 0.08659 0.03172 0.0
C8 C 0.42164 0.19384 0.04782 0.0
O9 O 0.42172 0.13451 0.05436 0.0
N10 N 0.46471 0.25581 0.04244 0.0
C11 C 0.47806 0.27338 0.04775 0.0
C12 C 0.48004 0.35069 0.04736 0.0
C13 C 0.45886 0.32193 0.03878 0.0
N14 N 0.46788 0.3812 0.04179 0.0
C15 C 0.46315 0.09535 0.06284 0.0
C16 C 0.4499 0.20844 0.07551 0.0
C17 C 0.45679 0.14639 0.08079 0.0
C18 C 0.46368 0.08993 0.07433 0.0
C19 C 0.44947 0.21109 0.06398 0.0
N20 N 0.45535 0.15304 0.05777 0.0
H21 H 0.46945 0.05423 0.05808 0.0
H22 H 0.44445 0.26026 0.06006 0.0
H23 H 0.48544 0.2332 0.05202 0.0
H24 H 0.44804 0.3265 0.0342 0.0
O25 O 0.47452 0.11187 0.03845 0.0
O26 O 0.45787 0.15627 0.02591 0.0
O27 O 0.43369 0.21009 0.04203 0.0
C28 C 0.47099 0.12179 0.02809 0.0
H29 H 0.41955 0.93893 0.03024 0.0
H30 H 0.48931 0.38207 0.05137 0.0
H31 H 0.44475 0.25413 0.08023 0.0
H32 H 0.46974 0.04283 0.07812 0.0
Co33 Co 0.7928 0.07697 0.04302 0.0
C34 C 0.79614 0.24215 0.04423 0.0
C35 C 0.8168 0.19081 0.03748 0.0
C36 C 0.81845 0.26831 0.03698 0.0
N37 N 0.80282 0.17474 0.04205 0.0
N38 N 0.80537 0.30038 0.04114 0.0
H39 H 0.78454 0.24824 0.04769 0.0
H40 H 0.8249 0.14933 0.03427 0.0
C41 C 0.81842 0.98112 0.052 0.0
O42 O 0.80854 0.96016 0.05975 0.0
N43 N 0.78257 0.97795 0.04342 0.0
C44 C 0.76716 0.96271 0.04463 0.0
C45 C 0.76482 0.88592 0.04383 0.0
C46 C 0.78909 0.91012 0.04106 0.0
N47 N 0.77868 0.85284 0.04166 0.0
C48 C 0.77731 0.08115 0.06422 0.0
C49 C 0.80329 0.12533 0.07621 0.0
C50 C 0.78928 0.11036 0.08178 0.0
C51 C 0.77612 0.08915 0.07565 0.0
C52 C 0.80403 0.11556 0.06478 0.0
N53 N 0.79132 0.09017 0.05898 0.0
H54 H 0.76686 0.06927 0.05964 0.0
H55 H 0.81496 0.12688 0.06061 0.0
H56 H 0.75801 0.00424 0.04562 0.0
H57 H 0.80119 0.90237 0.03881 0.0
O58 O 0.77339 0.12375 0.03903 0.0
O59 O 0.79064 0.07697 0.0271 0.0
O60 O 0.81403 0.02695 0.04441 0.0
C61 C 0.77755 0.11307 0.02882 0.0
H62 H 0.82815 0.29856 0.0333 0.0
H63 H 0.75371 0.85698 0.04452 0.0
H64 H 0.81368 0.14287 0.08066 0.0
H65 H 0.76493 0.08004 0.07965 0.0
Co66 Co 0.45144 0.09954 0.203 0.0
C67 C 0.44795 0.26681 0.20226 0.0
C68 C 0.42723 0.21332 0.2083 0.0
C69 C 0.42539 0.29039 0.20919 0.0
N70 N 0.44122 0.19818 0.2036 0.0
N71 N 0.43848 0.32399 0.20539 0.0
H72 H 0.46007 0.27509 0.20009 0.0
H73 H 0.41924 0.17147 0.21153 0.0
C74 C 0.41874 0.06107 0.19599 0.0
O75 O 0.41895 0.11919 0.18922 0.0
N76 N 0.46159 0.00208 0.20284 0.0
C77 C 0.47528 0.98452 0.19799 0.0
C78 C 0.47728 0.90727 0.19848 0.0
C79 C 0.45554 0.93595 0.20634 0.0
N80 N 0.46478 0.8767 0.20366 0.0
C81 C 0.46107 0.16042 0.18199 0.0
C82 C 0.44864 0.04588 0.16918 0.0
C83 C 0.45562 0.108 0.16397 0.0
C84 C 0.46213 0.1651 0.17052 0.0
C85 C 0.44766 0.04397 0.18069 0.0
N86 N 0.45313 0.10275 0.18695 0.0
H87 H 0.467 0.20233 0.18684 0.0
H88 H 0.4425 0.99496 0.18457 0.0
H89 H 0.48289 0.02464 0.1939 0.0
H90 H 0.44443 0.93131 0.21055 0.0
O91 O 0.47106 0.14639 0.2068 0.0
O92 O 0.45347 0.10397 0.21883 0.0
O93 O 0.43053 0.04695 0.20215 0.0
C94 C 0.46676 0.13795 0.21704 0.0
H95 H 0.4154 0.31905 0.21274 0.0
H96 H 0.48679 0.87592 0.19476 0.0
H97 H 0.44376 0.99974 0.1644 0.0
H98 H 0.46825 0.21234 0.1668 0.0
Co99 Co 0.79487 0.17839 0.20329 0.0
C100 C 0.79852 0.01356 0.20171 0.0
C101 C 0.8185 0.06557 0.20931 0.0
C102 C 0.82017 0.98829 0.20994 0.0
N103 N 0.80494 0.08106 0.20415 0.0
N104 N 0.80753 0.95542 0.20521 0.0
H105 H 0.7872 0.00777 0.19782 0.0
H106 H 0.82619 0.10737 0.21293 0.0
C107 C 0.81981 0.27586 0.19379 0.0
O108 O 0.80932 0.2977 0.18651 0.0
N109 N 0.78466 0.27729 0.20308 0.0
C110 C 0.76926 0.2936 0.20203 0.0
C111 C 0.76717 0.3706 0.20299 0.0
C112 C 0.79139 0.34437 0.20551 0.0
N113 N 0.78119 0.40228 0.20502 0.0
C114 C 0.77851 0.17302 0.18239 0.0
C115 C 0.80417 0.13015 0.16997 0.0
C116 C 0.78993 0.14407 0.16464 0.0
C117 C 0.77693 0.16472 0.17098 0.0
C118 C 0.80528 0.14023 0.18137 0.0
N119 N 0.79272 0.16481 0.18739 0.0
H120 H 0.76821 0.1845 0.18717 0.0
H121 H 0.81638 0.12947 0.18535 0.0
H122 H 0.75999 0.25276 0.20099 0.0
H123 H 0.80347 0.35121 0.20793 0.0
O124 O 0.77557 0.13228 0.20779 0.0
O125 O 0.79351 0.17882 0.21923 0.0
O126 O 0.81608 0.22808 0.20131 0.0
C127 C 0.78021 0.14375 0.21788 0.0
H128 H 0.82957 0.95909 0.21413 0.0
H129 H 0.75623 0.40088 0.20214 0.0
H130 H 0.81444 0.11312 0.16535 0.0
H131 H 0.76559 0.17315 0.16717 0.0
Co132 Co 0.54436 0.81962 0.95282 0.0
C133 C 0.54794 0.98682 0.95172 0.0
C134 C 0.56823 0.93341 0.95848 0.0
C135 C 0.57013 0.01043 0.95926 0.0
N136 N 0.5545 0.91824 0.95343 0.0
N137 N 0.55731 0.04404 0.95503 0.0
H138 H 0.536 0.99511 0.94915 0.0
H139 H 0.57599 0.89154 0.96199 0.0
C140 C 0.57713 0.78466 0.94568 0.0
O141 O 0.57666 0.84358 0.93906 0.0
N142 N 0.53431 0.72208 0.95262 0.0
C143 C 0.52048 0.70482 0.94794 0.0
C144 C 0.51854 0.62753 0.94829 0.0
C145 C 0.54051 0.65574 0.95587 0.0
N146 N 0.53121 0.59665 0.95321 0.0
C147 C 0.53316 0.87834 0.93209 0.0
C148 C 0.54677 0.76913 0.91889 0.0
C149 C 0.53851 0.8283 0.91386 0.0
C150 C 0.53138 0.8825 0.92064 0.0
C151 C 0.5482 0.76705 0.93037 0.0
N152 N 0.54221 0.82366 0.9368 0.0
H153 H 0.52682 0.91783 0.93712 0.0
H154 H 0.55407 0.71933 0.93408 0.0
H155 H 0.51272 0.74523 0.94407 0.0
H156 H 0.55176 0.65088 0.95988 0.0
O157 O 0.52481 0.86582 0.95697 0.0
O158 O 0.54275 0.82283 0.96869 0.0
O159 O 0.56534 0.76807 0.9517 0.0
C160 C 0.52939 0.85661 0.96714 0.0
H161 H 0.57996 0.03907 0.96303 0.0
H162 H 0.50891 0.59644 0.94467 0.0
H163 H 0.55225 0.7251 0.91403 0.0
H164 H 0.52422 0.92704 0.91715 0.0
Co165 Co 0.2043 0.91172 0.95254 0.0
C166 C 0.2007 0.74445 0.95207 0.0
C167 C 0.18092 0.79814 0.95949 0.0
C168 C 0.17914 0.72109 0.96047 0.0
N169 N 0.19424 0.81311 0.95389 0.0
N170 N 0.19163 0.68735 0.95579 0.0
H171 H 0.21246 0.73602 0.9491 0.0
H172 H 0.1734 0.84016 0.9632 0.0
C173 C 0.17094 0.94757 0.9471 0.0
O174 O 0.17067 0.88845 0.94052 0.0
N175 N 0.2143 0.00924 0.95162 0.0
C176 C 0.22747 0.02673 0.94608 0.0
C177 C 0.22943 0.10406 0.94636 0.0
C178 C 0.20855 0.07545 0.95532 0.0
N179 N 0.21745 0.13469 0.95211 0.0
C180 C 0.21273 0.85028 0.93132 0.0
C181 C 0.19851 0.96106 0.91875 0.0
C182 C 0.20594 0.90077 0.91336 0.0
C183 C 0.2133 0.84546 0.91982 0.0
C184 C 0.19818 0.96344 0.93028 0.0
N185 N 0.20455 0.90641 0.93644 0.0
H186 H 0.21932 0.80996 0.93604 0.0
H187 H 0.19298 0.01204 0.93424 0.0
H188 H 0.23471 0.98646 0.94171 0.0
H189 H 0.19788 0.08012 0.96006 0.0
O190 O 0.2242 0.8652 0.95556 0.0
O191 O 0.20787 0.90997 0.96827 0.0
O192 O 0.18331 0.96367 0.95255 0.0
C193 C 0.22092 0.8754 0.96596 0.0
H194 H 0.16962 0.69251 0.96463 0.0
H195 H 0.23855 0.13538 0.94218 0.0
H196 H 0.19327 0.00687 0.91411 0.0
H197 H 0.21947 0.79861 0.91605 0.0
Co198 Co 0.54499 0.91771 0.79237 0.0
C199 C 0.54824 0.7526 0.79339 0.0
C200 C 0.56913 0.80424 0.78705 0.0
C201 C 0.5708 0.72675 0.78652 0.0
N202 N 0.55499 0.82006 0.79138 0.0
N203 N 0.55758 0.69444 0.79043 0.0
H204 H 0.53653 0.74648 0.79668 0.0
H205 H 0.57736 0.84589 0.78404 0.0
C206 C 0.56971 0.01698 0.8017 0.0
O207 O 0.55923 0.03898 0.80898 0.0
N208 N 0.53475 0.01661 0.79284 0.0
C209 C 0.51952 0.03231 0.79475 0.0
C210 C 0.5172 0.10906 0.79391 0.0
C211 C 0.54111 0.08402 0.79003 0.0
N212 N 0.53087 0.14172 0.79106 0.0
C213 C 0.52832 0.90226 0.81301 0.0
C214 C 0.5543 0.86856 0.82569 0.0
C215 C 0.53969 0.87444 0.83086 0.0
C216 C 0.52654 0.89032 0.82435 0.0
C217 C 0.55554 0.88127 0.81435 0.0
N218 N 0.54277 0.90201 0.80823 0.0
H219 H 0.51797 0.90918 0.80809 0.0
H220 H 0.56685 0.8748 0.81048 0.0
H221 H 0.51041 0.9913 0.79617 0.0
H222 H 0.55305 0.091 0.7873 0.0
O223 O 0.52568 0.87249 0.78763 0.0
O224 O 0.54377 0.92036 0.77643 0.0
O225 O 0.56614 0.96755 0.7944 0.0
C226 C 0.53041 0.88568 0.7776 0.0
H227 H 0.58064 0.69672 0.78301 0.0
H228 H 0.5062 0.13823 0.79508 0.0
H229 H 0.56474 0.85519 0.83037 0.0
H230 H 0.51494 0.89188 0.82794 0.0
Co231 Co 0.20333 0.8499 0.79089 0.0
C232 C 0.19975 0.01709 0.79165 0.0
C233 C 0.1794 0.96355 0.785 0.0
C234 C 0.17755 0.04061 0.78413 0.0
N235 N 0.19314 0.94844 0.79005 0.0
N236 N 0.1904 0.07427 0.78831 0.0
H237 H 0.21172 0.02542 0.79417 0.0
H238 H 0.17161 0.92168 0.78153 0.0
C239 C 0.17026 0.81142 0.79711 0.0
O240 O 0.17009 0.86932 0.80392 0.0
N241 N 0.21346 0.75246 0.79132 0.0
C242 C 0.22694 0.73497 0.79647 0.0
C243 C 0.22891 0.65766 0.79611 0.0
C244 C 0.20752 0.68624 0.78777 0.0
N245 N 0.2166 0.62702 0.7907 0.0
C246 C 0.21255 0.91022 0.81203 0.0
C247 C 0.199 0.79786 0.82469 0.0
C248 C 0.20623 0.85886 0.83003 0.0
C249 C 0.21332 0.91483 0.82353 0.0
C250 C 0.19845 0.79573 0.81316 0.0
N251 N 0.20443 0.85359 0.80697 0.0
H252 H 0.21881 0.95143 0.80726 0.0
H253 H 0.19327 0.74697 0.80922 0.0
H254 H 0.2344 0.77519 0.80067 0.0
H255 H 0.19658 0.6815 0.78335 0.0
O256 O 0.22311 0.89672 0.78735 0.0
O257 O 0.2059 0.85352 0.77511 0.0
O258 O 0.18241 0.79736 0.79132 0.0
C259 C 0.21913 0.88752 0.77705 0.0
H260 H 0.16773 0.06926 0.78035 0.0
H261 H 0.23825 0.62635 0.80004 0.0
H262 H 0.19397 0.75157 0.82935 0.0
H263 H 0.21935 0.96224 0.82727 0.0
Co264 Co 0.45439 0.66134 0.54106 0.0
C265 C 0.45082 0.49404 0.54152 0.0
C266 C 0.4312 0.54767 0.53388 0.0
C267 C 0.42946 0.47063 0.53288 0.0
N268 N 0.44438 0.56268 0.53964 0.0
N269 N 0.44185 0.43693 0.53769 0.0
H270 H 0.46251 0.48566 0.54462 0.0
H271 H 0.42376 0.58968 0.53008 0.0
C272 C 0.42097 0.69625 0.54628 0.0
O273 O 0.42072 0.63692 0.55282 0.0
N274 N 0.46437 0.75889 0.54204 0.0
C275 C 0.47749 0.7763 0.54764 0.0
C276 C 0.47947 0.85361 0.54736 0.0
C277 C 0.45866 0.82512 0.53831 0.0
N278 N 0.46755 0.8843 0.54155 0.0
C279 C 0.46246 0.60015 0.56238 0.0
C280 C 0.44815 0.71166 0.57476 0.0
C281 C 0.45545 0.65146 0.58024 0.0
C282 C 0.46286 0.59573 0.57389 0.0
C283 C 0.44797 0.71358 0.56323 0.0
N284 N 0.4544 0.65625 0.55715 0.0
H285 H 0.46909 0.55958 0.55774 0.0
H286 H 0.44285 0.76209 0.55919 0.0
H287 H 0.48469 0.73599 0.55204 0.0
H288 H 0.44803 0.82983 0.53352 0.0
O289 O 0.47435 0.6149 0.5382 0.0
O290 O 0.45819 0.6595 0.52537 0.0
O291 O 0.43337 0.71304 0.54091 0.0
C292 C 0.47121 0.62497 0.52778 0.0
H293 H 0.42005 0.44204 0.5286 0.0
H294 H 0.48857 0.88485 0.55158 0.0
H295 H 0.44288 0.75779 0.57931 0.0
H296 H 0.46893 0.54892 0.57773 0.0
Co297 Co 0.79541 0.59811 0.54173 0.0
C298 C 0.79862 0.76565 0.54217 0.0
C299 C 0.81974 0.71234 0.53684 0.0
C300 C 0.82158 0.78934 0.53591 0.0
N301 N 0.80549 0.69713 0.54115 0.0
N302 N 0.80824 0.82282 0.53927 0.0
H303 H 0.78637 0.77378 0.54397 0.0
H304 H 0.82798 0.67058 0.53391 0.0
C305 C 0.82755 0.56234 0.54955 0.0
O306 O 0.82604 0.61858 0.55657 0.0
N307 N 0.78546 0.50034 0.54181 0.0
C308 C 0.7714 0.48277 0.54613 0.0
C309 C 0.76946 0.40554 0.54556 0.0
C310 C 0.7918 0.43428 0.53857 0.0
N311 N 0.78235 0.37509 0.54087 0.0
C312 C 0.78593 0.66022 0.56269 0.0
C313 C 0.79712 0.54297 0.57555 0.0
C314 C 0.79062 0.60641 0.58072 0.0
C315 C 0.7847 0.66485 0.57415 0.0
C316 C 0.79826 0.54107 0.56404 0.0
N317 N 0.79345 0.60113 0.55777 0.0
H318 H 0.78049 0.70353 0.55782 0.0
H319 H 0.80323 0.49153 0.56018 0.0
H320 H 0.76345 0.52291 0.54985 0.0
H321 H 0.80326 0.42963 0.53484 0.0
O322 O 0.7758 0.64429 0.538 0.0
O323 O 0.7933 0.60251 0.52585 0.0
O324 O 0.81653 0.54721 0.54275 0.0
C325 C 0.77998 0.63619 0.52773 0.0
H326 H 0.83177 0.81804 0.53266 0.0
H327 H 0.75964 0.37415 0.54885 0.0
H328 H 0.80157 0.49594 0.58034 0.0
H329 H 0.77896 0.71328 0.57784 0.0
Co330 Co 0.45348 0.6012 0.70277 0.0
C331 C 0.45016 0.76872 0.70255 0.0
C332 C 0.43054 0.71492 0.71018 0.0
C333 C 0.42881 0.79189 0.71124 0.0
N334 N 0.44368 0.70011 0.70437 0.0
N335 N 0.4412 0.82567 0.70644 0.0
H336 H 0.46185 0.77716 0.69946 0.0
H337 H 0.42307 0.67274 0.71392 0.0
C338 C 0.42024 0.57106 0.69697 0.0
O339 O 0.42088 0.63139 0.69064 0.0
N340 N 0.46323 0.5034 0.70166 0.0
C341 C 0.47653 0.48607 0.69627 0.0
C342 C 0.47848 0.40878 0.69655 0.0
C343 C 0.45736 0.4372 0.70525 0.0
N344 N 0.46635 0.3781 0.70215 0.0
C345 C 0.46201 0.66412 0.68161 0.0
C346 C 0.44773 0.55411 0.66893 0.0
C347 C 0.45512 0.61475 0.66361 0.0
C348 C 0.46253 0.66964 0.67012 0.0
C349 C 0.44743 0.55108 0.68045 0.0
N350 N 0.4538 0.60781 0.68668 0.0
H351 H 0.46866 0.70397 0.68637 0.0
H352 H 0.4422 0.50234 0.68436 0.0
H353 H 0.48393 0.52649 0.69206 0.0
H354 H 0.44657 0.43251 0.70987 0.0
O355 O 0.47351 0.64618 0.70584 0.0
O356 O 0.45711 0.60137 0.7185 0.0
O357 O 0.43224 0.55102 0.70256 0.0
C358 C 0.47026 0.63527 0.71623 0.0
H359 H 0.4194 0.82035 0.71553 0.0
H360 H 0.48774 0.37757 0.69251 0.0
H361 H 0.44247 0.50852 0.66425 0.0
H362 H 0.46871 0.71666 0.6664 0.0
Co363 Co 0.79551 0.66035 0.70274 0.0
C364 C 0.79887 0.49305 0.70212 0.0
C365 C 0.8193 0.54631 0.70867 0.0
C366 C 0.821 0.46923 0.70972 0.0
N367 N 0.8056 0.56154 0.70356 0.0
N368 N 0.80806 0.43583 0.70564 0.0
H369 H 0.78704 0.48493 0.69932 0.0
H370 H 0.82711 0.58825 0.7121 0.0
C371 C 0.82829 0.69513 0.69569 0.0
O372 O 0.82785 0.63556 0.6892 0.0
N373 N 0.78544 0.75794 0.70236 0.0
C374 C 0.77124 0.7738 0.69816 0.0
C375 C 0.76902 0.85087 0.69853 0.0
C376 C 0.79162 0.82504 0.70532 0.0
N377 N 0.78191 0.88319 0.70297 0.0
C378 C 0.78513 0.59938 0.68194 0.0
C379 C 0.79839 0.70997 0.66881 0.0
C380 C 0.79084 0.64875 0.66378 0.0
C381 C 0.78389 0.59374 0.67048 0.0
C382 C 0.7995 0.71286 0.6803 0.0
N383 N 0.79369 0.65568 0.68671 0.0
H384 H 0.77878 0.55964 0.68691 0.0
H385 H 0.80503 0.76145 0.68404 0.0
H386 H 0.76325 0.73241 0.69476 0.0
H387 H 0.80321 0.83124 0.70875 0.0
O388 O 0.77586 0.61435 0.70667 0.0
O389 O 0.79351 0.65768 0.71859 0.0
O390 O 0.81652 0.71191 0.70172 0.0
C391 C 0.78017 0.62394 0.71689 0.0
H392 H 0.83053 0.44044 0.71383 0.0
H393 H 0.75877 0.88059 0.69559 0.0
H394 H 0.80358 0.75468 0.6639 0.0
H395 H 0.77729 0.54754 0.6669 0.0
Co396 Co 0.54587 0.33135 0.4526 0.0
C397 C 0.54957 0.49815 0.45092 0.0
C398 C 0.56796 0.44656 0.46026 0.0
C399 C 0.56969 0.52371 0.46089 0.0
N400 N 0.55553 0.43032 0.45379 0.0
N401 N 0.55804 0.55599 0.45506 0.0
H402 H 0.5388 0.50567 0.44644 0.0
H403 H 0.57479 0.40516 0.46473 0.0
C404 C 0.57908 0.30749 0.44602 0.0
O405 O 0.57799 0.36958 0.4401 0.0
N406 N 0.53617 0.23336 0.45177 0.0
C407 C 0.52185 0.21806 0.44771 0.0
C408 C 0.51977 0.14094 0.44766 0.0
C409 C 0.5426 0.1659 0.4542 0.0
N410 N 0.53285 0.10825 0.4517 0.0
C411 C 0.53312 0.38731 0.43213 0.0
C412 C 0.55002 0.29318 0.4184 0.0
C413 C 0.53996 0.34661 0.4136 0.0
C414 C 0.5311 0.39263 0.4207 0.0
C415 C 0.55129 0.28834 0.42986 0.0
N416 N 0.5438 0.33874 0.43658 0.0
H417 H 0.52565 0.42065 0.43739 0.0
H418 H 0.55823 0.24308 0.43326 0.0
H419 H 0.51367 0.25998 0.44472 0.0
H420 H 0.55436 0.15904 0.45734 0.0
O421 O 0.52612 0.37497 0.45689 0.0
O422 O 0.54404 0.33047 0.46848 0.0
O423 O 0.56723 0.28324 0.45141 0.0
C424 C 0.5306 0.3637 0.46704 0.0
H425 H 0.57824 0.55362 0.46584 0.0
H426 H 0.50947 0.11133 0.44476 0.0
H427 H 0.557 0.25518 0.41343 0.0
H428 H 0.52245 0.43162 0.41752 0.0
Co429 Co 0.20118 0.41781 0.45316 0.0
C430 C 0.19779 0.25047 0.45267 0.0
C431 C 0.1772 0.30402 0.45891 0.0
C432 C 0.17537 0.22697 0.45985 0.0
N433 N 0.19108 0.31907 0.45404 0.0
N434 N 0.18837 0.19335 0.45591 0.0
H435 H 0.20985 0.24216 0.45037 0.0
H436 H 0.16925 0.34597 0.46217 0.0
C437 C 0.16834 0.45401 0.44622 0.0
O438 O 0.1686 0.39516 0.43959 0.0
N439 N 0.2112 0.51544 0.45271 0.0
C440 C 0.22484 0.53298 0.44777 0.0
C441 C 0.22681 0.61026 0.44821 0.0
C442 C 0.20516 0.58156 0.4562 0.0
N443 N 0.21435 0.6408 0.45344 0.0
C444 C 0.21113 0.3553 0.43234 0.0
C445 C 0.19828 0.4667 0.41915 0.0
C446 C 0.20564 0.40483 0.41414 0.0
C447 C 0.21234 0.34931 0.42088 0.0
C448 C 0.19716 0.46989 0.43066 0.0
N449 N 0.20284 0.41257 0.4371 0.0
H450 H 0.21727 0.3149 0.43732 0.0
H451 H 0.19176 0.51887 0.43438 0.0
H452 H 0.23244 0.49278 0.44371 0.0
H453 H 0.1941 0.58616 0.46048 0.0
O454 O 0.22087 0.37206 0.45705 0.0
O455 O 0.2033 0.41551 0.46901 0.0
O456 O 0.1802 0.46961 0.45223 0.0
C457 C 0.21664 0.38186 0.46729 0.0
H458 H 0.16544 0.19833 0.46349 0.0
H459 H 0.2363 0.64162 0.44446 0.0
H460 H 0.19327 0.51173 0.41422 0.0
H461 H 0.21876 0.30243 0.41732 0.0
Co462 Co 0.5447 0.42474 0.29105 0.0
C463 C 0.54906 0.2576 0.29215 0.0
C464 C 0.56476 0.31129 0.28078 0.0
C465 C 0.56648 0.23437 0.27977 0.0
N466 N 0.55397 0.32606 0.28864 0.0
N467 N 0.55658 0.20089 0.28692 0.0
H468 H 0.53941 0.24854 0.29772 0.0
H469 H 0.57045 0.35371 0.27575 0.0
C470 C 0.57868 0.44392 0.29558 0.0
O471 O 0.57802 0.37956 0.30099 0.0
N472 N 0.53542 0.52281 0.29304 0.0
C473 C 0.52149 0.53828 0.29771 0.0
C474 C 0.51952 0.61551 0.29789 0.0
C475 C 0.54173 0.59016 0.29044 0.0
N476 N 0.5323 0.64821 0.29335 0.0
C477 C 0.53358 0.36511 0.31165 0.0
C478 C 0.55218 0.45226 0.32526 0.0
C479 C 0.54166 0.40112 0.33012 0.0
C480 C 0.53206 0.35836 0.32308 0.0
C481 C 0.55295 0.45891 0.31378 0.0
N482 N 0.54442 0.41236 0.30707 0.0
H483 H 0.52553 0.33412 0.30651 0.0
H484 H 0.56016 0.50316 0.31039 0.0
H485 H 0.51342 0.4964 0.30086 0.0
H486 H 0.55314 0.59631 0.28671 0.0
O487 O 0.52449 0.38263 0.28774 0.0
O488 O 0.54078 0.43045 0.27531 0.0
O489 O 0.56629 0.47158 0.29125 0.0
C490 C 0.5276 0.39637 0.27743 0.0
H491 H 0.57404 0.20533 0.27398 0.0
H492 H 0.50941 0.64488 0.30113 0.0
H493 H 0.55977 0.48764 0.33021 0.0
H494 H 0.52309 0.32125 0.32631 0.0
Co495 Co 0.20401 0.34042 0.29207 0.0
C496 C 0.20065 0.50773 0.29254 0.0
C497 C 0.17991 0.45416 0.28653 0.0
C498 C 0.17808 0.53121 0.2856 0.0
N499 N 0.19389 0.43914 0.29125 0.0
N500 N 0.19117 0.56484 0.28938 0.0
H501 H 0.21276 0.51603 0.29469 0.0
H502 H 0.17189 0.41218 0.28337 0.0
C503 C 0.17132 0.30437 0.29936 0.0
O504 O 0.17168 0.36342 0.30595 0.0
N505 N 0.21402 0.2428 0.29244 0.0
C506 C 0.22775 0.22529 0.29725 0.0
C507 C 0.22972 0.14802 0.29679 0.0
C508 C 0.20793 0.17668 0.289 0.0
N509 N 0.21717 0.11746 0.29166 0.0
C510 C 0.21413 0.40366 0.31285 0.0
C511 C 0.20132 0.29238 0.32608 0.0
C512 C 0.20842 0.35501 0.33106 0.0
C513 C 0.21516 0.41038 0.32431 0.0
C514 C 0.20037 0.28848 0.31457 0.0
N515 N 0.20597 0.34586 0.3081 0.0
H516 H 0.22023 0.44414 0.30784 0.0
H517 H 0.19507 0.23915 0.31088 0.0
H518 H 0.23543 0.26551 0.30124 0.0
H519 H 0.19679 0.17207 0.28481 0.0
O520 O 0.22362 0.38615 0.2879 0.0
O521 O 0.20573 0.34227 0.27621 0.0
O522 O 0.18305 0.28865 0.29324 0.0
C523 C 0.21911 0.37598 0.27773 0.0
H524 H 0.16807 0.55984 0.28206 0.0
H525 H 0.23928 0.11668 0.30045 0.0
H526 H 0.19628 0.24747 0.33102 0.0
H527 H 0.22139 0.45787 0.32786 0.0
Co528 Co 0.95284 0.16704 0.54169 0.0
C529 C 0.94959 0.00193 0.54273 0.0
C530 C 0.92858 0.05357 0.53661 0.0
C531 C 0.9269 0.97607 0.53608 0.0
N532 N 0.9428 0.0694 0.5408 0.0
N533 N 0.94019 0.94376 0.53985 0.0
H534 H 0.96137 0.99581 0.54589 0.0
H535 H 0.9203 0.09523 0.53368 0.0
C536 C 0.92841 0.26635 0.55135 0.0
O537 O 0.9391 0.28777 0.55852 0.0
N538 N 0.96311 0.26592 0.54205 0.0
C539 C 0.97838 0.28165 0.54381 0.0
C540 C 0.98068 0.35842 0.54294 0.0
C541 C 0.95669 0.33332 0.53931 0.0
N542 N 0.96696 0.39105 0.54023 0.0
C543 C 0.96996 0.15148 0.56216 0.0
C544 C 0.94424 0.11768 0.5751 0.0
C545 C 0.95895 0.12366 0.58013 0.0
C546 C 0.97196 0.13953 0.57348 0.0
C547 C 0.94277 0.13032 0.56377 0.0
N548 N 0.9554 0.15118 0.55753 0.0
H549 H 0.9802 0.15849 0.55713 0.0
H550 H 0.93138 0.12383 0.56001 0.0
H551 H 0.98752 0.24066 0.54514 0.0
H552 H 0.9447 0.34027 0.5367 0.0
O553 O 0.97203 0.12176 0.53674 0.0
O554 O 0.95373 0.1697 0.52573 0.0
O555 O 0.93176 0.21707 0.54397 0.0
C556 C 0.9671 0.13489 0.52676 0.0
H557 H 0.91699 0.94605 0.53265 0.0
H558 H 0.9917 0.38762 0.544 0.0
H559 H 0.93388 0.10435 0.57988 0.0
H560 H 0.98364 0.14115 0.57695 0.0
Co561 Co 0.29421 0.07754 0.54022 0.0
C562 C 0.298 0.24451 0.54135 0.0
C563 C 0.31681 0.19199 0.5326 0.0
C564 C 0.3184 0.26917 0.53166 0.0
N565 N 0.30424 0.17619 0.53896 0.0
N566 N 0.30647 0.3021 0.53711 0.0
H567 H 0.28691 0.25241 0.54539 0.0
H568 H 0.32378 0.15036 0.52829 0.0
C569 C 0.32777 0.04439 0.54508 0.0
O570 O 0.32798 0.1045 0.55147 0.0
N571 N 0.28414 0.98009 0.54107 0.0
C572 C 0.27037 0.96456 0.54598 0.0
C573 C 0.26813 0.88746 0.54585 0.0
C574 C 0.29002 0.91274 0.53794 0.0
N575 N 0.28056 0.85482 0.54086 0.0
C576 C 0.28544 0.13372 0.56169 0.0
C577 C 0.301 0.02459 0.57377 0.0
C578 C 0.29294 0.0817 0.5794 0.0
C579 C 0.28486 0.13607 0.57321 0.0
C580 C 0.3012 0.02426 0.56225 0.0
N581 N 0.29423 0.08085 0.55632 0.0
H582 H 0.27831 0.17289 0.55715 0.0
H583 H 0.30674 0.97727 0.55811 0.0
H584 H 0.26276 0.00617 0.54971 0.0
H585 H 0.30129 0.90611 0.53402 0.0
O586 O 0.27429 0.12475 0.53746 0.0
O587 O 0.29034 0.08093 0.52452 0.0
O588 O 0.31528 0.02604 0.53992 0.0
C589 C 0.27737 0.11566 0.52702 0.0
H590 H 0.32702 0.29846 0.52669 0.0
H591 H 0.25821 0.8579 0.54934 0.0
H592 H 0.3068 0.97945 0.57823 0.0
H593 H 0.27812 0.18007 0.57722 0.0
Co594 Co 0.95474 0.07655 0.70213 0.0
C595 C 0.95108 0.24335 0.70049 0.0
C596 C 0.93113 0.19107 0.70793 0.0
C597 C 0.92941 0.26828 0.70867 0.0
N598 N 0.94455 0.17509 0.70252 0.0
N599 N 0.94204 0.30108 0.70405 0.0
H600 H 0.96268 0.25111 0.69724 0.0
H601 H 0.92361 0.14961 0.71179 0.0
C602 C 0.9219 0.04156 0.69514 0.0
O603 O 0.92225 0.10111 0.68864 0.0
N604 N 0.96494 0.97921 0.70212 0.0
C605 C 0.97931 0.96376 0.69816 0.0
C606 C 0.98153 0.88668 0.69843 0.0
C607 C 0.95867 0.9118 0.70483 0.0
N608 N 0.96848 0.85394 0.70255 0.0
C609 C 0.96647 0.13194 0.68134 0.0
C610 C 0.95224 0.02391 0.66826 0.0
C611 C 0.96086 0.08164 0.66317 0.0
C612 C 0.96831 0.13518 0.66989 0.0
C613 C 0.95075 0.02278 0.67974 0.0
N614 N 0.95701 0.07907 0.6861 0.0
H615 H 0.9731 0.17057 0.68634 0.0
H616 H 0.94465 0.9759 0.68349 0.0
H617 H 0.98738 0.00541 0.69494 0.0
H618 H 0.94692 0.90507 0.70796 0.0
O619 O 0.97421 0.12382 0.70626 0.0
O620 O 0.95628 0.08128 0.71801 0.0
O621 O 0.93379 0.02455 0.70105 0.0
C622 C 0.96959 0.11552 0.71644 0.0
H623 H 0.92013 0.29769 0.71298 0.0
H624 H 0.99187 0.8572 0.6956 0.0
H625 H 0.94655 0.98029 0.66344 0.0
H626 H 0.97576 0.17842 0.66635 0.0
Co627 Co 0.29609 0.16326 0.70123 0.0
C628 C 0.29946 0.99823 0.70051 0.0
C629 C 0.31971 0.05003 0.70777 0.0
C630 C 0.32133 0.97252 0.70841 0.0
N631 N 0.30601 0.06575 0.7028 0.0
N632 N 0.3085 0.94015 0.70391 0.0
H633 H 0.28809 0.99201 0.69668 0.0
H634 H 0.32765 0.09177 0.71113 0.0
C635 C 0.32172 0.25965 0.69244 0.0
O636 O 0.31194 0.27928 0.68455 0.0
N637 N 0.28592 0.2621 0.70018 0.0
C638 C 0.27075 0.27769 0.69801 0.0
C639 C 0.26842 0.35457 0.69867 0.0
C640 C 0.29222 0.32976 0.70291 0.0
N641 N 0.282 0.38736 0.70167 0.0
C642 C 0.28107 0.14863 0.67998 0.0
C643 C 0.3078 0.11071 0.66837 0.0
C644 C 0.29368 0.11924 0.66261 0.0
C645 C 0.28014 0.13691 0.6686 0.0
C646 C 0.30819 0.12312 0.67975 0.0
N647 N 0.29511 0.14616 0.68533 0.0
H648 H 0.27041 0.15759 0.68447 0.0
H649 H 0.31915 0.11542 0.68407 0.0
H650 H 0.26166 0.23651 0.69656 0.0
H651 H 0.30405 0.33701 0.70584 0.0
O652 O 0.27652 0.11761 0.70522 0.0
O653 O 0.29346 0.16731 0.71711 0.0
O654 O 0.31734 0.21328 0.69996 0.0
C655 C 0.28035 0.13129 0.71542 0.0
H656 H 0.33083 0.94251 0.71237 0.0
H657 H 0.25745 0.38374 0.69734 0.0
H658 H 0.31851 0.09591 0.6641 0.0
H659 H 0.26885 0.14042 0.66455 0.0
Co660 Co 0.04202 0.83878 0.45198 0.0
C661 C 0.0454 0.00616 0.45184 0.0
C662 C 0.06517 0.95255 0.45929 0.0
C663 C 0.06674 0.0296 0.46052 0.0
N664 N 0.052 0.93758 0.45351 0.0
N665 N 0.05421 0.0632 0.45588 0.0
H666 H 0.03387 0.01445 0.4485 0.0
H667 H 0.07266 0.9104 0.46301 0.0
C668 C 0.07539 0.80468 0.44648 0.0
O669 O 0.07555 0.86508 0.44015 0.0
N670 N 0.03205 0.74119 0.45091 0.0
C671 C 0.01839 0.72518 0.4459 0.0
C672 C 0.01617 0.64804 0.44615 0.0
C673 C 0.03788 0.67418 0.45424 0.0
N674 N 0.0285 0.61587 0.45134 0.0
C675 C 0.0338 0.90182 0.43082 0.0
C676 C 0.04811 0.79185 0.41814 0.0
C677 C 0.04105 0.85352 0.41288 0.0
C678 C 0.03361 0.9083 0.41934 0.0
C679 C 0.04822 0.78822 0.42967 0.0
N680 N 0.04185 0.845 0.43589 0.0
H681 H 0.02701 0.94122 0.43554 0.0
H682 H 0.05335 0.73925 0.43357 0.0
H683 H 0.01081 0.76649 0.44206 0.0
H684 H 0.04902 0.66819 0.45835 0.0
O685 O 0.02208 0.88499 0.45497 0.0
O686 O 0.03832 0.83972 0.4677 0.0
O687 O 0.06308 0.78717 0.4519 0.0
C688 C 0.02528 0.87443 0.46537 0.0
H689 H 0.07587 0.0582 0.4651 0.0
H690 H 0.0063 0.61821 0.44265 0.0
H691 H 0.05362 0.74725 0.4134 0.0
H692 H 0.02735 0.9548 0.41554 0.0
Co693 Co 0.70601 0.92378 0.4518 0.0
C694 C 0.70284 0.75858 0.45107 0.0
C695 C 0.68223 0.81028 0.45782 0.0
C696 C 0.68056 0.73283 0.45839 0.0
N697 N 0.69618 0.82601 0.4532 0.0
N698 N 0.69359 0.70055 0.45421 0.0
H699 H 0.71439 0.75237 0.44751 0.0
H700 H 0.67411 0.85199 0.46096 0.0
C701 C 0.68039 0.01747 0.44236 0.0
O702 O 0.69033 0.03783 0.43461 0.0
N703 N 0.71606 0.02296 0.45096 0.0
C704 C 0.73142 0.03856 0.4496 0.0
C705 C 0.73367 0.11542 0.45029 0.0
C706 C 0.70948 0.09068 0.45329 0.0
N707 N 0.71981 0.14817 0.45254 0.0
C708 C 0.72167 0.91491 0.43064 0.0
C709 C 0.6956 0.86976 0.41884 0.0
C710 C 0.70957 0.88402 0.41319 0.0
C711 C 0.7228 0.90554 0.41922 0.0
C712 C 0.69494 0.8809 0.43023 0.0
N713 N 0.70767 0.907 0.43593 0.0
H714 H 0.73215 0.92719 0.43518 0.0
H715 H 0.68401 0.87027 0.43444 0.0
H716 H 0.74063 0.99727 0.44867 0.0
H717 H 0.6974 0.09809 0.45564 0.0
O718 O 0.72554 0.87946 0.45626 0.0
O719 O 0.70777 0.9279 0.46768 0.0
O720 O 0.68473 0.97234 0.45004 0.0
C721 C 0.72111 0.89329 0.46635 0.0
H722 H 0.67083 0.70276 0.46207 0.0
H723 H 0.74475 0.14463 0.44953 0.0
H724 H 0.68516 0.852 0.41446 0.0
H725 H 0.73396 0.91411 0.41516 0.0
Co726 Co 0.04522 0.92221 0.29091 0.0
C727 C 0.04851 0.75484 0.29127 0.0
C728 C 0.06895 0.8083 0.28476 0.0
C729 C 0.07062 0.73126 0.28363 0.0
N730 N 0.05527 0.82336 0.2899 0.0
N731 N 0.05768 0.69774 0.28769 0.0
H732 H 0.03668 0.74666 0.29407 0.0
H733 H 0.07677 0.85038 0.28138 0.0
C734 C 0.07803 0.95617 0.29795 0.0
O735 O 0.07762 0.89594 0.30431 0.0
N736 N 0.0352 0.01986 0.29145 0.0
C737 C 0.02107 0.03577 0.29576 0.0
C738 C 0.01887 0.11287 0.2954 0.0
C739 C 0.04135 0.08689 0.28843 0.0
N740 N 0.03169 0.1451 0.29085 0.0
C741 C 0.03512 0.85939 0.3117 0.0
C742 C 0.04856 0.96899 0.32491 0.0
C743 C 0.04127 0.90685 0.32989 0.0
C744 C 0.03421 0.85238 0.32316 0.0
C745 C 0.04937 0.97316 0.31341 0.0
N746 N 0.0435 0.91639 0.30694 0.0
H747 H 0.02869 0.82001 0.30671 0.0
H748 H 0.05476 0.02225 0.30971 0.0
H749 H 0.01313 0.99441 0.29921 0.0
H750 H 0.05288 0.09299 0.28489 0.0
O751 O 0.02553 0.87667 0.28692 0.0
O752 O 0.04316 0.9208 0.27506 0.0
O753 O 0.06624 0.97353 0.29197 0.0
C754 C 0.02981 0.88706 0.27671 0.0
H755 H 0.08015 0.70261 0.2795 0.0
H756 H 0.00867 0.14264 0.29841 0.0
H757 H 0.0538 0.01335 0.32985 0.0
H758 H 0.0278 0.8055 0.32672 0.0
Co759 Co 0.70692 0.82368 0.29138 0.0
C760 C 0.70352 0.98886 0.29275 0.0
C761 C 0.68308 0.9377 0.28564 0.0
C762 C 0.68145 0.0152 0.28516 0.0
N763 N 0.69691 0.9215 0.29042 0.0
N764 N 0.69439 0.04718 0.28954 0.0
H765 H 0.71502 0.99489 0.29638 0.0
H766 H 0.6751 0.89634 0.28224 0.0
C767 C 0.68096 0.72662 0.29957 0.0
O768 O 0.6906 0.70461 0.30741 0.0
N769 N 0.71718 0.72467 0.29176 0.0
C770 C 0.73253 0.70953 0.29327 0.0
C771 C 0.73493 0.6328 0.29246 0.0
C772 C 0.71079 0.65685 0.2892 0.0
N773 N 0.72119 0.59963 0.28999 0.0
C774 C 0.72151 0.82566 0.31287 0.0
C775 C 0.69504 0.86778 0.32447 0.0
C776 C 0.70884 0.85233 0.33027 0.0
C777 C 0.72226 0.83221 0.32434 0.0
C778 C 0.69476 0.85949 0.313 0.0
N779 N 0.70771 0.83505 0.30739 0.0
H780 H 0.73215 0.81466 0.30846 0.0
H781 H 0.68399 0.87122 0.30865 0.0
H782 H 0.74162 0.75109 0.29451 0.0
H783 H 0.69878 0.64903 0.28671 0.0
O784 O 0.7265 0.87098 0.28796 0.0
O785 O 0.70983 0.82566 0.27552 0.0
O786 O 0.68562 0.77345 0.29219 0.0
C787 C 0.72285 0.86149 0.27763 0.0
H788 H 0.67189 0.04552 0.28131 0.0
H789 H 0.74602 0.60396 0.29339 0.0
H790 H 0.68448 0.88464 0.32877 0.0
H791 H 0.7333 0.82291 0.32852 0.0
Co792 Co 0.95127 0.65243 0.04048 0.0
C793 C 0.94807 0.48493 0.04104 0.0
C794 C 0.92729 0.53831 0.03509 0.0
C795 C 0.92545 0.46134 0.03417 0.0
N796 N 0.94129 0.55342 0.03978 0.0
N797 N 0.93857 0.42781 0.03791 0.0
H798 H 0.96021 0.47675 0.04314 0.0
H799 H 0.91925 0.58021 0.03193 0.0
C800 C 0.91895 0.68454 0.04834 0.0
O801 O 0.92035 0.62586 0.05494 0.0
N802 N 0.96116 0.75027 0.04068 0.0
C803 C 0.97519 0.76764 0.04506 0.0
C804 C 0.97713 0.84487 0.04458 0.0
C805 C 0.95483 0.81644 0.0375 0.0
N806 N 0.96426 0.87552 0.03988 0.0
C807 C 0.96189 0.59048 0.06124 0.0
C808 C 0.94965 0.70358 0.07439 0.0
C809 C 0.95695 0.64166 0.07947 0.0
C810 C 0.96339 0.58534 0.0727 0.0
C811 C 0.94829 0.70602 0.06291 0.0
N812 N 0.95361 0.64783 0.05649 0.0
H813 H 0.96769 0.54901 0.05624 0.0
H814 H 0.94292 0.75504 0.05918 0.0
H815 H 0.98313 0.72729 0.04875 0.0
H816 H 0.94341 0.82118 0.03372 0.0
O817 O 0.97086 0.60742 0.03623 0.0
O818 O 0.95276 0.64993 0.02459 0.0
O819 O 0.93017 0.70281 0.04189 0.0
C820 C 0.96623 0.61688 0.02608 0.0
H821 H 0.91542 0.43271 0.03067 0.0
H822 H 0.98694 0.87609 0.04792 0.0
H823 H 0.94513 0.75024 0.07922 0.0
H824 H 0.96945 0.53718 0.07619 0.0
Co825 Co 0.29604 0.58043 0.041 0.0
C826 C 0.29941 0.74769 0.04153 0.0
C827 C 0.31977 0.69443 0.03487 0.0
C828 C 0.32144 0.77152 0.03379 0.0
N829 N 0.30613 0.67921 0.04006 0.0
N830 N 0.30855 0.80492 0.03793 0.0
H831 H 0.28762 0.75578 0.0444 0.0
H832 H 0.32754 0.65245 0.03141 0.0
C833 C 0.32894 0.54558 0.04786 0.0
O834 O 0.32877 0.60554 0.05428 0.0
N835 N 0.28596 0.48287 0.04151 0.0
C836 C 0.27186 0.46698 0.04588 0.0
C837 C 0.26964 0.38989 0.04553 0.0
C838 C 0.29206 0.41581 0.03846 0.0
N839 N 0.28242 0.3576 0.04093 0.0
C840 C 0.28578 0.64241 0.06181 0.0
C841 C 0.29944 0.53343 0.07502 0.0
C842 C 0.29199 0.59505 0.08001 0.0
C843 C 0.28482 0.6492 0.07327 0.0
C844 C 0.3003 0.52948 0.06351 0.0
N845 N 0.29431 0.58597 0.05705 0.0
H846 H 0.27927 0.68148 0.05682 0.0
H847 H 0.30579 0.48067 0.05981 0.0
H848 H 0.26396 0.50836 0.04937 0.0
H849 H 0.30356 0.40968 0.03487 0.0
O850 O 0.27639 0.62633 0.03698 0.0
O851 O 0.29405 0.58209 0.02515 0.0
O852 O 0.31701 0.52878 0.042 0.0
C853 C 0.28073 0.61607 0.02678 0.0
H854 H 0.33093 0.8003 0.02961 0.0
H855 H 0.25947 0.36014 0.0486 0.0
H856 H 0.30477 0.48928 0.07995 0.0
H857 H 0.27828 0.69565 0.07684 0.0
Co858 Co 0.95502 0.5897 0.20159 0.0
C859 C 0.95189 0.7572 0.2011 0.0
C860 C 0.93087 0.70417 0.2067 0.0
C861 C 0.92918 0.78119 0.20777 0.0
N862 N 0.94496 0.68879 0.20215 0.0
N863 N 0.94247 0.81443 0.20429 0.0
H864 H 0.96396 0.76515 0.19881 0.0
H865 H 0.92274 0.66244 0.20979 0.0
C866 C 0.92278 0.55484 0.1939 0.0
O867 O 0.92433 0.61083 0.18684 0.0
N868 N 0.96501 0.49188 0.20151 0.0
C869 C 0.97958 0.47611 0.19797 0.0
C870 C 0.98181 0.39911 0.19849 0.0
C871 C 0.9586 0.42473 0.2042 0.0
N872 N 0.96856 0.36674 0.20234 0.0
C873 C 0.96477 0.65072 0.18059 0.0
C874 C 0.95296 0.53482 0.16775 0.0
C875 C 0.95962 0.59782 0.16255 0.0
C876 C 0.9659 0.65542 0.16912 0.0
C877 C 0.95196 0.5328 0.17927 0.0
N878 N 0.957 0.59245 0.18553 0.0
H879 H 0.97047 0.6933 0.18545 0.0
H880 H 0.94685 0.48362 0.18314 0.0
H881 H 0.98786 0.51751 0.19494 0.0
H882 H 0.94667 0.41826 0.20702 0.0
O883 O 0.97461 0.6362 0.20536 0.0
O884 O 0.9571 0.5942 0.21747 0.0
O885 O 0.93386 0.53911 0.20061 0.0
C886 C 0.97039 0.62812 0.21561 0.0
H887 H 0.91934 0.81 0.21151 0.0
H888 H 0.99233 0.36947 0.19607 0.0
H889 H 0.94824 0.48834 0.16297 0.0
H890 H 0.97181 0.70336 0.16542 0.0
Co891 Co 0.29448 0.66365 0.20215 0.0
C892 C 0.29794 0.49634 0.20194 0.0
C893 C 0.31814 0.55018 0.20875 0.0
C894 C 0.31991 0.47312 0.20979 0.0
N895 N 0.30456 0.56503 0.20347 0.0
N896 N 0.30716 0.43934 0.20548 0.0
H897 H 0.28603 0.48786 0.1993 0.0
H898 H 0.32589 0.59232 0.21219 0.0
C899 C 0.32761 0.69963 0.196 0.0
O900 O 0.32777 0.63963 0.1896 0.0
N901 N 0.28447 0.76119 0.20129 0.0
C902 C 0.27122 0.7788 0.19586 0.0
C903 C 0.26924 0.85611 0.19624 0.0
C904 C 0.29025 0.82728 0.20502 0.0
N905 N 0.28128 0.8866 0.20195 0.0
C906 C 0.28574 0.59953 0.18115 0.0
C907 C 0.29926 0.71034 0.16819 0.0
C908 C 0.29224 0.64802 0.16306 0.0
C909 C 0.2852 0.59277 0.16967 0.0
C910 C 0.29973 0.71425 0.17971 0.0
N911 N 0.29372 0.65721 0.18607 0.0
H912 H 0.2793 0.55946 0.186 0.0
H913 H 0.30486 0.76363 0.18352 0.0
H914 H 0.26392 0.73864 0.19152 0.0
H915 H 0.30096 0.83175 0.20972 0.0
O916 O 0.27467 0.61743 0.20556 0.0
O917 O 0.29142 0.66288 0.21794 0.0
O918 O 0.31545 0.71576 0.20168 0.0
C919 C 0.27828 0.62826 0.21589 0.0
H920 H 0.32962 0.44456 0.21373 0.0
H921 H 0.26003 0.88751 0.19216 0.0
H922 H 0.3045 0.75522 0.16335 0.0
H923 H 0.27901 0.5456 0.166 0.0
Co924 Co 0.04448 0.33041 0.95224 0.0
C925 C 0.04856 0.49731 0.95148 0.0
C926 C 0.06582 0.44361 0.96161 0.0
C927 C 0.06759 0.52062 0.96255 0.0
N928 N 0.05412 0.42877 0.95444 0.0
N929 N 0.05665 0.55443 0.95621 0.0
H930 H 0.03803 0.50568 0.94675 0.0
H931 H 0.07218 0.40134 0.96624 0.0
C932 C 0.07863 0.30168 0.94838 0.0
O933 O 0.07942 0.36531 0.9428 0.0
N934 N 0.03488 0.23279 0.95039 0.0
C935 C 0.02231 0.21587 0.94416 0.0
C936 C 0.02047 0.13848 0.94406 0.0
C937 C 0.04041 0.16621 0.95409 0.0
N938 N 0.03193 0.10723 0.95026 0.0
C939 C 0.03496 0.39024 0.93123 0.0
C940 C 0.05361 0.29848 0.91831 0.0
C941 C 0.04401 0.35205 0.91308 0.0
C942 C 0.03433 0.39704 0.91975 0.0
C943 C 0.05347 0.29194 0.9298 0.0
N944 N 0.04498 0.34073 0.93619 0.0
H945 H 0.02683 0.42288 0.93607 0.0
H946 H 0.05996 0.24611 0.93347 0.0
H947 H 0.01537 0.25666 0.93966 0.0
H948 H 0.05059 0.16126 0.95934 0.0
O949 O 0.02431 0.37485 0.95506 0.0
O950 O 0.04006 0.32723 0.96787 0.0
O951 O 0.06565 0.28011 0.95259 0.0
C952 C 0.02707 0.36193 0.96546 0.0
H953 H 0.07598 0.54914 0.96779 0.0
H954 H 0.01178 0.10773 0.93936 0.0
H955 H 0.06118 0.26124 0.91366 0.0
H956 H 0.02598 0.43607 0.9162 0.0
Co957 Co 0.70541 0.41814 0.95335 0.0
C958 C 0.70142 0.25169 0.95153 0.0
C959 C 0.68333 0.30314 0.96118 0.0
C960 C 0.68162 0.22593 0.9618 0.0
N961 N 0.69556 0.31952 0.95454 0.0
N962 N 0.69309 0.19369 0.95579 0.0
H963 H 0.71205 0.24432 0.94689 0.0
H964 H 0.67666 0.34446 0.96579 0.0
C965 C 0.67187 0.44592 0.94741 0.0
O966 O 0.67195 0.38278 0.94169 0.0
N967 N 0.7153 0.51582 0.95249 0.0
C968 C 0.72939 0.5311 0.94805 0.0
C969 C 0.7315 0.60825 0.94798 0.0
C970 C 0.70907 0.58334 0.95515 0.0
N971 N 0.71867 0.64104 0.9524 0.0
C972 C 0.71801 0.36292 0.93288 0.0
C973 C 0.70047 0.45412 0.91913 0.0
C974 C 0.71079 0.40169 0.91434 0.0
C975 C 0.71995 0.35725 0.92146 0.0
C976 C 0.69932 0.45965 0.93059 0.0
N977 N 0.70718 0.41069 0.93733 0.0
H978 H 0.72564 0.33035 0.93812 0.0
H979 H 0.69226 0.50453 0.93395 0.0
H980 H 0.73736 0.48919 0.94479 0.0
H981 H 0.69752 0.59022 0.95864 0.0
O982 O 0.72513 0.37325 0.95746 0.0
O983 O 0.70752 0.41842 0.96921 0.0
O984 O 0.68422 0.46808 0.95241 0.0
C985 C 0.72082 0.38423 0.96764 0.0
H986 H 0.67324 0.19595 0.96689 0.0
H987 H 0.74163 0.63778 0.94479 0.0
H988 H 0.69324 0.49095 0.91415 0.0
H989 H 0.7288 0.31919 0.9183 0.0
Co990 Co 0.04476 0.42196 0.79025 0.0
C991 C 0.04899 0.25555 0.79169 0.0
C992 C 0.06612 0.30746 0.78124 0.0
C993 C 0.06771 0.23021 0.78044 0.0
N994 N 0.05458 0.32357 0.78849 0.0
N995 N 0.05683 0.19767 0.78696 0.0
H996 H 0.03883 0.24799 0.79681 0.0
H997 H 0.07234 0.34898 0.77637 0.0
C998 C 0.0788 0.45187 0.79439 0.0
O999 O 0.07959 0.38809 0.79993 0.0
N1000 N 0.03487 0.51937 0.7917 0.0
C1001 C 0.02145 0.53467 0.79707 0.0
C1002 C 0.01933 0.61185 0.79722 0.0
C1003 C 0.04066 0.58689 0.78855 0.0
N1004 N 0.03147 0.64467 0.79191 0.0
C1005 C 0.03453 0.36568 0.81132 0.0
C1006 C 0.05326 0.45737 0.82419 0.0
C1007 C 0.04352 0.40459 0.82946 0.0
C1008 C 0.03375 0.3598 0.82281 0.0
C1009 C 0.05326 0.46302 0.81269 0.0
N1010 N 0.04479 0.41397 0.80634 0.0
H1011 H 0.02639 0.33301 0.80648 0.0
H1012 H 0.05988 0.50828 0.809 0.0
H1013 H 0.014 0.4928 0.80091 0.0
H1014 H 0.05165 0.59368 0.78426 0.0
O1015 O 0.02477 0.376 0.78725 0.0
O1016 O 0.0408 0.42275 0.77453 0.0
O1017 O 0.06588 0.47306 0.79007 0.0
C1018 C 0.02783 0.38747 0.77685 0.0
H1019 H 0.07556 0.20046 0.77493 0.0
H1020 H 0.00969 0.64136 0.80109 0.0
H1021 H 0.06088 0.49454 0.82882 0.0
H1022 H 0.02528 0.32147 0.82638 0.0
Co1023 Co 0.70443 0.33204 0.79191 0.0
C1024 C 0.70079 0.49891 0.79348 0.0
C1025 C 0.68192 0.44693 0.78468 0.0
C1026 C 0.68019 0.52408 0.78399 0.0
N1027 N 0.69465 0.43092 0.79085 0.0
N1028 N 0.69215 0.55661 0.78947 0.0
H1029 H 0.71181 0.50661 0.79763 0.0
H1030 H 0.67488 0.40542 0.7804 0.0
C1031 C 0.67145 0.30568 0.79866 0.0
O1032 O 0.6728 0.3657 0.805 0.0
N1033 N 0.71419 0.23411 0.7926 0.0
C1034 C 0.72856 0.21872 0.79656 0.0
C1035 C 0.73065 0.14161 0.79653 0.0
C1036 C 0.70774 0.16667 0.79016 0.0
N1037 N 0.71753 0.10897 0.79255 0.0
C1038 C 0.71677 0.38754 0.81243 0.0
C1039 C 0.7005 0.29036 0.82609 0.0
C1040 C 0.71032 0.34483 0.83092 0.0
C1041 C 0.71891 0.3921 0.82384 0.0
C1042 C 0.69919 0.28602 0.81462 0.0
N1043 N 0.70631 0.33803 0.80795 0.0
H1044 H 0.72405 0.42217 0.80723 0.0
H1045 H 0.69245 0.24025 0.81114 0.0
H1046 H 0.73677 0.26055 0.79955 0.0
H1047 H 0.69593 0.15982 0.78712 0.0
O1048 O 0.72414 0.37685 0.78804 0.0
O1049 O 0.70677 0.33311 0.77599 0.0
O1050 O 0.68305 0.28344 0.79283 0.0
C1051 C 0.72008 0.36701 0.7778 0.0
H1052 H 0.67142 0.55377 0.77922 0.0
H1053 H 0.74099 0.11199 0.79935 0.0
H1054 H 0.69376 0.25122 0.83104 0.0
H1055 H 0.72747 0.43165 0.82699 0.0
H1056 H 0.46497 0.25551 0.09565 0.0
H1057 H 0.44901 0.02456 0.09336 0.0
H1058 H 0.46533 0.2458 0.11576 0.0
H1059 H 0.44882 0.01519 0.11346 0.0
H1060 H 0.46443 0.99896 0.14927 0.0
H1061 H 0.46534 0.00846 0.12915 0.0
H1062 H 0.44834 0.23834 0.13117 0.0
H1063 H 0.44799 0.22922 0.15126 0.0
C1064 C 0.4614 0.20292 0.09948 0.0
C1065 C 0.45697 0.14079 0.09298 0.0
C1066 C 0.46155 0.19732 0.11099 0.0
C1067 C 0.45708 0.12972 0.11625 0.0
C1068 C 0.45261 0.06765 0.10971 0.0
C1069 C 0.45264 0.07303 0.09819 0.0
C1070 C 0.46088 0.05135 0.14537 0.0
C1071 C 0.45616 0.11339 0.15178 0.0
C1072 C 0.46134 0.05682 0.13385 0.0
C1073 C 0.4569 0.12419 0.12851 0.0
C1074 C 0.45213 0.1861 0.13498 0.0
C1075 C 0.45186 0.18086 0.14649 0.0
H1076 H 0.7991 0.22727 0.09471 0.0
H1077 H 0.77763 0.00648 0.09614 0.0
H1078 H 0.79832 0.23503 0.11492 0.0
H1079 H 0.77693 0.01409 0.11634 0.0
H1080 H 0.79959 0.02718 0.15166 0.0
H1081 H 0.79858 0.01928 0.13147 0.0
H1082 H 0.77675 0.23922 0.13016 0.0
H1083 H 0.77768 0.24695 0.15036 0.0
C1084 C 0.79422 0.18056 0.09937 0.0
C1085 C 0.78843 0.1163 0.09393 0.0
C1086 C 0.79368 0.18518 0.11088 0.0
C1087 C 0.78757 0.12511 0.11713 0.0
C1088 C 0.78176 0.06092 0.11169 0.0
C1089 C 0.78207 0.05681 0.10017 0.0
C1090 C 0.79454 0.0736 0.14704 0.0
C1091 C 0.78872 0.13766 0.15251 0.0
C1092 C 0.79388 0.06891 0.13553 0.0
C1093 C 0.78761 0.12873 0.12932 0.0
C1094 C 0.78171 0.19262 0.13479 0.0
C1095 C 0.78215 0.19678 0.14631 0.0
H1096 H 0.53428 0.71313 0.89897 0.0
H1097 H 0.54018 0.95539 0.9011 0.0
H1098 H 0.53353 0.72201 0.87884 0.0
H1099 H 0.53923 0.96415 0.88101 0.0
H1100 H 0.52256 0.95928 0.84529 0.0
H1101 H 0.52096 0.94579 0.86534 0.0
H1102 H 0.55219 0.75407 0.86383 0.0
H1103 H 0.55348 0.76637 0.84375 0.0
C1104 C 0.53547 0.76821 0.89515 0.0
C1105 C 0.53735 0.83354 0.90164 0.0
C1106 C 0.535 0.77326 0.88363 0.0
C1107 C 0.53633 0.84375 0.87837 0.0
C1108 C 0.53795 0.90915 0.88485 0.0
C1109 C 0.53848 0.9041 0.89636 0.0
C1110 C 0.52891 0.91366 0.84923 0.0
C1111 C 0.53819 0.86405 0.84296 0.0
C1112 C 0.52811 0.90639 0.86071 0.0
C1113 C 0.5365 0.84909 0.86615 0.0
C1114 C 0.5455 0.79843 0.85986 0.0
C1115 C 0.54637 0.80595 0.84838 0.0
H1116 H 0.18269 0.82308 0.84441 0.0
H1117 H 0.23024 0.90621 0.8434 0.0
H1118 H 0.18287 0.83216 0.86449 0.0
H1119 H 0.23012 0.9191 0.86344 0.0
H1120 H 0.2302 0.85648 0.90003 0.0
H1121 H 0.23025 0.84412 0.87999 0.0
H1122 H 0.18263 0.92609 0.87885 0.0
H1123 H 0.1823 0.93462 0.89894 0.0
C1124 C 0.1932 0.84314 0.84847 0.0
C1125 C 0.20645 0.8639 0.84229 0.0
C1126 C 0.19323 0.84935 0.85998 0.0
C1127 C 0.20648 0.87674 0.86558 0.0
C1128 C 0.21976 0.89713 0.8594 0.0
C1129 C 0.21976 0.89064 0.84789 0.0
C1130 C 0.21968 0.87105 0.89552 0.0
C1131 C 0.20621 0.89614 0.9011 0.0
C1132 C 0.21977 0.8649 0.88401 0.0
C1133 C 0.20644 0.88402 0.87781 0.0
C1134 C 0.19303 0.9099 0.88339 0.0
C1135 C 0.19291 0.91576 0.8949 0.0
H1136 H 0.47925 0.66035 0.65024 0.0
H1137 H 0.43144 0.58088 0.64924 0.0
H1138 H 0.47925 0.6722 0.6302 0.0
H1139 H 0.43173 0.58865 0.62915 0.0
H1140 H 0.43172 0.68721 0.59448 0.0
H1141 H 0.43185 0.68055 0.61458 0.0
H1142 H 0.4793 0.5961 0.61382 0.0
H1143 H 0.47947 0.60682 0.59377 0.0
C1144 C 0.46873 0.64544 0.64575 0.0
C1145 C 0.45532 0.61996 0.65136 0.0
C1146 C 0.4688 0.65128 0.63424 0.0
C1147 C 0.45549 0.63136 0.62806 0.0
C1148 C 0.44212 0.60542 0.63366 0.0
C1149 C 0.44202 0.59997 0.64518 0.0
C1150 C 0.44225 0.66821 0.59861 0.0
C1151 C 0.45558 0.64749 0.5925 0.0
C1152 C 0.44226 0.66341 0.61013 0.0
C1153 C 0.45556 0.63745 0.61582 0.0
C1154 C 0.46891 0.61705 0.60971 0.0
C1155 C 0.46893 0.62222 0.5982 0.0
H1156 H 0.79724 0.52478 0.6513 0.0
H1157 H 0.78284 0.75807 0.6489 0.0
H1158 H 0.79686 0.51424 0.63122 0.0
H1159 H 0.78193 0.74727 0.62881 0.0
H1160 H 0.79925 0.72636 0.59333 0.0
H1161 H 0.79895 0.73625 0.61341 0.0
H1162 H 0.78004 0.50991 0.6156 0.0
H1163 H 0.78087 0.49955 0.59548 0.0
C1164 C 0.7938 0.5735 0.64645 0.0
C1165 C 0.79011 0.64227 0.65161 0.0
C1166 C 0.79351 0.56746 0.63495 0.0
C1167 C 0.78937 0.62991 0.62838 0.0
C1168 C 0.78546 0.69845 0.6336 0.0
C1169 C 0.78592 0.70468 0.6451 0.0
C1170 C 0.79496 0.67898 0.59813 0.0
C1171 C 0.79009 0.61221 0.59289 0.0
C1172 C 0.79471 0.68467 0.60963 0.0
C1173 C 0.78942 0.62396 0.61614 0.0
C1174 C 0.78442 0.55731 0.61085 0.0
C1175 C 0.78484 0.55135 0.59935 0.0
H1176 H 0.53332 0.47394 0.40137 0.0
H1177 H 0.54358 0.23565 0.39778 0.0
H1178 H 0.53177 0.48614 0.38151 0.0
H1179 H 0.54411 0.25012 0.37799 0.0
H1180 H 0.53341 0.27546 0.34223 0.0
H1181 H 0.53075 0.26399 0.36201 0.0
H1182 H 0.54632 0.49525 0.36589 0.0
H1183 H 0.54692 0.50981 0.34608 0.0
C1184 C 0.53527 0.42397 0.3964 0.0
C1185 C 0.53868 0.35383 0.40133 0.0
C1186 C 0.53472 0.43141 0.38491 0.0
C1187 C 0.53802 0.36948 0.37799 0.0
C1188 C 0.54127 0.2992 0.38293 0.0
C1189 C 0.54134 0.29124 0.3944 0.0
C1190 C 0.53587 0.32472 0.34724 0.0
C1191 C 0.5404 0.39366 0.34239 0.0
C1192 C 0.53466 0.31757 0.3587 0.0
C1193 C 0.53845 0.37836 0.36571 0.0
C1194 C 0.54303 0.44723 0.36087 0.0
C1195 C 0.54375 0.45511 0.34939 0.0
H1196 H 0.21678 0.2487 0.34633 0.0
H1197 H 0.20074 0.47901 0.34319 0.0
H1198 H 0.2169 0.26148 0.36641 0.0
H1199 H 0.20026 0.49138 0.36324 0.0
H1200 H 0.21442 0.51293 0.39926 0.0
H1201 H 0.216 0.50098 0.3792 0.0
H1202 H 0.1997 0.27004 0.38159 0.0
H1203 H 0.19872 0.28161 0.40164 0.0
C1204 C 0.21317 0.30186 0.34996 0.0
C1205 C 0.20876 0.36287 0.34324 0.0
C1206 C 0.21316 0.30921 0.36146 0.0
C1207 C 0.20853 0.37743 0.36648 0.0
C1208 C 0.20417 0.43847 0.35969 0.0
C1209 C 0.20438 0.43138 0.3482 0.0
C1210 C 0.21116 0.45978 0.39545 0.0
C1211 C 0.20647 0.39817 0.40197 0.0
C1212 C 0.21201 0.45289 0.38396 0.0
C1213 C 0.20798 0.3845 0.37873 0.0
C1214 C 0.2032 0.32306 0.38531 0.0
C1215 C 0.20256 0.32971 0.3968 0.0
H1216 H 0.96456 0.96524 0.64841 0.0
H1217 H 0.95979 0.20815 0.65026 0.0
H1218 H 0.96526 0.97288 0.62828 0.0
H1219 H 0.96064 0.21567 0.63016 0.0
H1220 H 0.97653 0.20813 0.59434 0.0
H1221 H 0.97843 0.19538 0.61439 0.0
H1222 H 0.94677 0.00512 0.6133 0.0
H1223 H 0.94522 0.0165 0.59323 0.0
C1224 C 0.96361 0.02021 0.64453 0.0
C1225 C 0.96205 0.08608 0.65094 0.0
C1226 C 0.96405 0.02455 0.633 0.0
C1227 C 0.96299 0.09485 0.62765 0.0
C1228 C 0.96171 0.16078 0.63406 0.0
C1229 C 0.96123 0.15644 0.64557 0.0
C1230 C 0.97016 0.16292 0.59838 0.0
C1231 C 0.96067 0.1135 0.59223 0.0
C1232 C 0.97113 0.15609 0.60986 0.0
C1233 C 0.96269 0.09948 0.61542 0.0
C1234 C 0.9535 0.04894 0.60924 0.0
C1235 C 0.95248 0.05597 0.59776 0.0
H1236 H 0.31739 0.05843 0.5935 0.0
H1237 H 0.26794 0.10899 0.59295 0.0
H1238 H 0.31723 0.06455 0.61364 0.0
H1239 H 0.26773 0.11457 0.61309 0.0
H1240 H 0.27804 0.20724 0.64777 0.0
H1241 H 0.27756 0.19531 0.62772 0.0
H1242 H 0.30745 0.9988 0.62987 0.0
H1243 H 0.308 0.01114 0.64996 0.0
C1244 C 0.30645 0.07004 0.5977 0.0
C1245 C 0.2927 0.08357 0.59165 0.0
C1246 C 0.30635 0.07341 0.60923 0.0
C1247 C 0.29247 0.09018 0.61496 0.0
C1248 C 0.27867 0.10277 0.60891 0.0
C1249 C 0.27879 0.0996 0.59738 0.0
C1250 C 0.28436 0.161 0.64397 0.0
C1251 C 0.29307 0.11017 0.65044 0.0
C1252 C 0.28408 0.15411 0.63248 0.0
C1253 C 0.29247 0.0961 0.6272 0.0
C1254 C 0.30106 0.04479 0.63368 0.0
C1255 C 0.30137 0.05181 0.64518 0.0
H1256 H 0.03323 0.74599 0.39769 0.0
H1257 H 0.04907 0.9767 0.40073 0.0
H1258 H 0.03277 0.75889 0.37761 0.0
H1259 H 0.04925 0.9892 0.38067 0.0
H1260 H 0.03303 0.01301 0.34517 0.0
H1261 H 0.03259 0.99931 0.36523 0.0
H1262 H 0.04909 0.7692 0.36198 0.0
H1263 H 0.04889 0.7825 0.34193 0.0
C1264 C 0.03679 0.79915 0.39402 0.0
C1265 C 0.04115 0.8604 0.40071 0.0
C1266 C 0.03658 0.80659 0.38253 0.0
C1267 C 0.04096 0.87517 0.37749 0.0
C1268 C 0.0455 0.93609 0.38424 0.0
C1269 C 0.04548 0.92891 0.39573 0.0
C1270 C 0.03656 0.95965 0.34879 0.0
C1271 C 0.04097 0.89878 0.34205 0.0
C1272 C 0.03638 0.95177 0.36027 0.0
C1273 C 0.04085 0.88315 0.36526 0.0
C1274 C 0.0453 0.82238 0.35845 0.0
C1275 C 0.04526 0.83 0.34697 0.0
H1276 H 0.69852 0.96775 0.34329 0.0
H1277 H 0.72015 0.74733 0.34458 0.0
H1278 H 0.69923 0.97475 0.36351 0.0
H1279 H 0.72079 0.75419 0.36479 0.0
H1280 H 0.69942 0.76694 0.40041 0.0
H1281 H 0.69958 0.75913 0.38019 0.0
H1282 H 0.72115 0.97956 0.37845 0.0
H1283 H 0.72105 0.98723 0.39866 0.0
C1284 C 0.70338 0.92086 0.34792 0.0
C1285 C 0.7093 0.85705 0.34244 0.0
C1286 C 0.70388 0.92505 0.35944 0.0
C1287 C 0.71007 0.86499 0.36565 0.0
C1288 C 0.71589 0.801 0.36016 0.0
C1289 C 0.71562 0.79731 0.34864 0.0
C1290 C 0.70422 0.8135 0.39568 0.0
C1291 C 0.71024 0.87763 0.40103 0.0
C1292 C 0.70439 0.80889 0.38416 0.0
C1293 C 0.71035 0.86886 0.37783 0.0
C1294 C 0.71641 0.93287 0.38318 0.0
C1295 C 0.71646 0.93698 0.3947 0.0
H1296 H 0.95167 0.72027 0.15019 0.0
H1297 H 0.96799 0.48997 0.14745 0.0
H1298 H 0.95151 0.73138 0.13008 0.0
H1299 H 0.9677 0.50095 0.12727 0.0
H1300 H 0.98116 0.58778 0.09219 0.0
H1301 H 0.98206 0.57595 0.11229 0.0
H1302 H 0.93578 0.67232 0.11457 0.0
H1303 H 0.93459 0.68217 0.09451 0.0
C1304 C 0.95532 0.67222 0.14528 0.0
C1305 C 0.95985 0.60427 0.15036 0.0
C1306 C 0.9551 0.67839 0.13378 0.0
C1307 C 0.95956 0.61697 0.12714 0.0
C1308 C 0.9643 0.54927 0.13221 0.0
C1309 C 0.96435 0.54281 0.14373 0.0
C1310 C 0.97109 0.60564 0.09695 0.0
C1311 C 0.95779 0.63597 0.09171 0.0
C1312 C 0.97165 0.59903 0.10846 0.0
C1313 C 0.95901 0.62337 0.11496 0.0
C1314 C 0.94577 0.65405 0.10975 0.0
C1315 C 0.94513 0.65995 0.09826 0.0
H1316 H 0.28407 0.48802 0.09527 0.0
H1317 H 0.29914 0.71984 0.0921 0.0
H1318 H 0.28357 0.50138 0.11534 0.0
H1319 H 0.29929 0.73284 0.11215 0.0
H1320 H 0.28381 0.75476 0.14791 0.0
H1321 H 0.28309 0.74177 0.12783 0.0
H1322 H 0.30013 0.5124 0.1308 0.0
H1323 H 0.3002 0.52495 0.15085 0.0
C1324 C 0.28741 0.54161 0.09891 0.0
C1325 C 0.29163 0.60292 0.09218 0.0
C1326 C 0.2872 0.54931 0.1104 0.0
C1327 C 0.29143 0.6182 0.11541 0.0
C1328 C 0.29567 0.67941 0.10861 0.0
C1329 C 0.29567 0.67197 0.09712 0.0
C1330 C 0.28742 0.70175 0.14422 0.0
C1331 C 0.29204 0.64082 0.15089 0.0
C1332 C 0.28707 0.69427 0.13272 0.0
C1333 C 0.29156 0.62598 0.12765 0.0
C1334 C 0.29629 0.56529 0.13439 0.0
C1335 C 0.29642 0.57249 0.14588 0.0
H1336 H 0.03717 0.27798 0.84192 0.0
H1337 H 0.04927 0.51456 0.84515 0.0
H1338 H 0.03606 0.26679 0.86178 0.0
H1339 H 0.05027 0.5006 0.86495 0.0
H1340 H 0.03795 0.47929 0.90069 0.0
H1341 H 0.03654 0.49068 0.88084 0.0
H1342 H 0.05014 0.25614 0.87752 0.0
H1343 H 0.04943 0.24211 0.89733 0.0
C1344 C 0.03966 0.32777 0.84681 0.0
C1345 C 0.04327 0.39731 0.84176 0.0
C1346 C 0.03937 0.32082 0.8583 0.0
C1347 C 0.0432 0.38253 0.86513 0.0
C1348 C 0.04697 0.45186 0.86008 0.0
C1349 C 0.04676 0.45946 0.8486 0.0
C1350 C 0.04025 0.42941 0.89577 0.0
C1351 C 0.04375 0.35962 0.90078 0.0
C1352 C 0.03978 0.43645 0.88428 0.0
C1353 C 0.04332 0.37456 0.87742 0.0
C1354 C 0.04704 0.30503 0.88242 0.0
C1355 C 0.047 0.29737 0.89391 0.0
H1356 H 0.71714 0.47231 0.84306 0.0
H1357 H 0.70669 0.23422 0.84687 0.0
H1358 H 0.71953 0.48449 0.86281 0.0
H1359 H 0.70682 0.24909 0.86666 0.0
H1360 H 0.71851 0.27505 0.90226 0.0
H1361 H 0.72054 0.2625 0.88246 0.0
H1362 H 0.70591 0.49528 0.87861 0.0
H1363 H 0.70609 0.51079 0.89837 0.0
C1364 C 0.71531 0.4223 0.84804 0.0
C1365 C 0.7117 0.35215 0.84318 0.0
C1366 C 0.71632 0.42982 0.8595 0.0
C1367 C 0.71317 0.36816 0.8665 0.0
C1368 C 0.70958 0.29796 0.86165 0.0
C1369 C 0.70912 0.28979 0.85018 0.0
C1370 C 0.71617 0.3244 0.89725 0.0
C1371 C 0.71207 0.39399 0.90209 0.0
C1372 C 0.71699 0.31664 0.88578 0.0
C1373 C 0.71323 0.37749 0.87877 0.0
C1374 C 0.70917 0.44709 0.88362 0.0
C1375 C 0.70888 0.45557 0.89508 0.0
H1376 H 0.54008 0.88582 0.98788 0.0
H1377 H 0.49917 0.90554 0.96712 0.0
H1378 H 0.52664 0.95391 0.00255 0.0
H1379 H 0.48537 0.97045 0.98197 0.0
H1380 H 0.4701 0.15187 0.00596 0.0
H1381 H 0.48449 0.08723 0.99133 0.0
H1382 H 0.50679 0.94526 0.01582 0.0
H1383 H 0.49301 0.01239 0.03038 0.0
C1384 C 0.52808 0.90342 0.98655 0.0
C1385 C 0.52064 0.89033 0.97639 0.0
C1386 C 0.52035 0.9424 0.99497 0.0
C1387 C 0.50491 0.96814 0.99345 0.0
C1388 C 0.49736 0.95305 0.98335 0.0
C1389 C 0.50519 0.91508 0.97488 0.0
C1390 C 0.47824 0.10747 0.00818 0.0
C1391 C 0.48052 0.08742 0.01928 0.0
C1392 C 0.48637 0.06981 -0.00019 0.0
C1393 C 0.49674 0.01048 0.00237 0.0
C1394 C 0.49912 0.99135 0.01353 0.0
C1395 C 0.49118 0.02977 0.02189 0.0
H1396 H 0.77917 0.08392 0.00659 0.0
H1397 H 0.75652 0.22643 0.03076 0.0
H1398 H 0.76544 0.15093 0.9918 0.0
H1399 H 0.74354 0.29562 0.01613 0.0
H1400 H 0.71036 0.35683 0.98846 0.0
H1401 H 0.72368 0.28763 0.00302 0.0
H1402 H 0.76469 0.26748 0.98226 0.0
H1403 H 0.75094 0.33359 0.96746 0.0
C1404 C 0.77125 0.12945 0.00872 0.0
C1405 C 0.76876 0.14938 0.0198 0.0
C1406 C 0.76351 0.16844 0.00027 0.0
C1407 C 0.75336 0.22889 0.00275 0.0
C1408 C 0.75097 0.24847 0.01388 0.0
C1409 C 0.75846 0.2088 0.02229 0.0
C1410 C 0.72228 0.33838 0.98706 0.0
C1411 C 0.72965 0.35082 0.97687 0.0
C1412 C 0.72995 0.2987 0.99542 0.0
C1413 C 0.74529 0.27166 0.99384 0.0
C1414 C 0.75279 0.28603 0.9837 0.0
C1415 C 0.745 0.32472 0.97527 0.0
H1416 H 0.45635 0.17202 0.23768 0.0
H1417 H 0.49711 0.18501 0.21667 0.0
H1418 H 0.47019 0.24096 0.25206 0.0
H1419 H 0.51134 0.2506 0.23126 0.0
H1420 H 0.52852 0.42786 0.25528 0.0
H1421 H 0.51336 0.36687 0.24066 0.0
H1422 H 0.48994 0.2295 0.2652 0.0
H1423 H 0.50441 0.29302 0.2797 0.0
C1424 C 0.4684 0.18834 0.23623 0.0
C1425 C 0.4757 0.17286 0.2261 0.0
C1426 C 0.47636 0.22785 0.24448 0.0
C1427 C 0.49191 0.25162 0.24285 0.0
C1428 C 0.49928 0.23468 0.23275 0.0
C1429 C 0.49121 0.19626 0.22442 0.0
C1430 C 0.51994 0.38544 0.25751 0.0
C1431 C 0.51759 0.36547 0.26861 0.0
C1432 C 0.51137 0.34983 0.24914 0.0
C1433 C 0.50047 0.29273 0.25172 0.0
C1434 C 0.498 0.27398 0.26288 0.0
C1435 C 0.50636 0.31033 0.27122 0.0
H1436 H 0.74982 0.09916 0.21811 0.0
H1437 H 0.79132 0.10996 0.23841 0.0
H1438 H 0.73625 0.02997 0.23263 0.0
H1439 H 0.77805 0.03767 0.25277 0.0
H1440 H 0.74493 0.96968 0.28042 0.0
H1441 H 0.75842 0.0417 0.26629 0.0
H1442 H 0.7355 0.90925 0.24096 0.0
H1443 H 0.72134 0.83934 0.25523 0.0
C1444 C 0.756 0.08693 0.22572 0.0
C1445 C 0.77157 0.11015 0.22718 0.0
C1446 C 0.7483 0.04643 0.23399 0.0
C1447 C 0.75609 0.02726 0.24384 0.0
C1448 C 0.7716 0.05212 0.24536 0.0
C1449 C 0.77923 0.09364 0.23714 0.0
C1450 C 0.74288 0.9553 0.27183 0.0
C1451 C 0.73212 0.89867 0.26891 0.0
C1452 C 0.75067 0.9966 0.26372 0.0
C1453 C 0.74806 0.9816 0.25246 0.0
C1454 C 0.73757 0.92341 0.24955 0.0
C1455 C 0.72958 0.88273 0.2577 0.0
H1456 H 0.22073 0.9079 0.988 0.0
H1457 H 0.24273 0.76497 0.9636 0.0
H1458 H 0.23545 0.84451 0.00258 0.0
H1459 H 0.25685 0.69901 0.97813 0.0
H1460 H 0.29085 0.64207 0.0058 0.0
H1461 H 0.27708 0.70842 0.99112 0.0
H1462 H 0.23642 0.72899 0.01222 0.0
H1463 H 0.25057 0.66583 0.02707 0.0
C1464 C 0.22874 0.86298 0.98577 0.0
C1465 C 0.23067 0.8416 0.97469 0.0
C1466 C 0.23705 0.82603 0.99412 0.0
C1467 C 0.24727 0.76607 0.99157 0.0
C1468 C 0.2493 0.74559 0.98042 0.0
C1469 C 0.24118 0.78333 0.97208 0.0
C1470 C 0.27892 0.66019 0.00725 0.0
C1471 C 0.27176 0.64876 0.01755 0.0
C1472 C 0.27099 0.69815 -0.00117 0.0
C1473 C 0.25563 0.72455 0.00048 0.0
C1474 C 0.24835 0.71107 0.01073 0.0
C1475 C 0.25638 0.67411 0.0192 0.0
H1476 H 0.493 0.74146 0.71387 0.0
H1477 H 0.4697 0.60339 0.73829 0.0
H1478 H 0.50748 0.80554 0.72842 0.0
H1479 H 0.48472 0.66493 0.75287 0.0
H1480 H 0.49991 0.84299 0.77719 0.0
H1481 H 0.48589 0.78185 0.76216 0.0
H1482 H 0.52742 0.79455 0.74179 0.0
H1483 H 0.54119 0.85899 0.75673 0.0
C1484 C 0.49122 0.72376 0.72235 0.0
C1485 C 0.48022 0.66754 0.72497 0.0
C1486 C 0.49955 0.7604 0.7307 0.0
C1487 C 0.49721 0.74095 0.74185 0.0
C1488 C 0.48656 0.6827 0.7444 0.0
C1489 C 0.47806 0.64681 0.73606 0.0
C1490 C 0.50597 0.83347 0.76945 0.0
C1491 C 0.52161 0.85579 0.7681 0.0
C1492 C 0.49799 0.79762 0.76086 0.0
C1493 C 0.50557 0.78216 0.75079 0.0
C1494 C 0.52115 0.80615 0.74938 0.0
C1495 C 0.52906 0.84307 0.75794 0.0
H1496 H 0.28137 0.16854 0.73741 0.0
H1497 H 0.25861 0.02057 0.714 0.0
H1498 H 0.26647 0.11033 0.75244 0.0
H1499 H 0.24442 0.9601 0.7289 0.0
H1500 H 0.20966 0.91422 0.75599 0.0
H1501 H 0.22404 0.97777 0.74139 0.0
H1502 H 0.26416 0.99821 0.76301 0.0
H1503 H 0.24933 0.93778 0.77783 0.0
C1504 C 0.27319 0.12364 0.7355 0.0
C1505 C 0.27101 0.09965 0.72455 0.0
C1506 C 0.26476 0.08973 0.7441 0.0
C1507 C 0.25419 0.03044 0.74191 0.0
C1508 C 0.25214 0.00664 0.73091 0.0
C1509 C 0.26034 0.04123 0.72234 0.0
C1510 C 0.22159 0.9318 0.7576 0.0
C1511 C 0.22843 0.92065 0.76801 0.0
C1512 C 0.22988 0.96814 0.74921 0.0
C1513 C 0.24533 0.99304 0.75097 0.0
C1514 C 0.25222 0.98099 0.7614 0.0
C1515 C 0.2438 0.94564 0.76986 0.0
H1516 H 0.47108 0.65611 0.5057 0.0
H1517 H 0.49311 0.51502 0.53033 0.0
H1518 H 0.48571 0.59135 0.49123 0.0
H1519 H 0.50717 0.44776 0.51589 0.0
H1520 H 0.54098 0.38945 0.48797 0.0
H1521 H 0.52733 0.4559 0.50272 0.0
H1522 H 0.48632 0.47426 0.48192 0.0
H1523 H 0.50031 0.41094 0.46702 0.0
C1524 C 0.47909 0.61134 0.50801 0.0
C1525 C 0.48102 0.59077 0.51912 0.0
C1526 C 0.48735 0.57359 0.49972 0.0
C1527 C 0.49752 0.51366 0.50236 0.0
C1528 C 0.49962 0.4942 0.51354 0.0
C1529 C 0.49154 0.5327 0.52183 0.0
C1530 C 0.52899 0.40699 0.48662 0.0
C1531 C 0.52169 0.39512 0.47637 0.0
C1532 C 0.52114 0.44505 0.49507 0.0
C1533 C 0.50574 0.47112 0.4935 0.0
C1534 C 0.49829 0.45671 0.48334 0.0
C1535 C 0.50623 0.41964 0.47484 0.0
H1536 H 0.75167 0.85098 0.46655 0.0
H1537 H 0.71057 0.86599 0.4872 0.0
H1538 H 0.76585 0.78941 0.48151 0.0
H1539 H 0.72441 0.801 0.502 0.0
H1540 H 0.75783 0.74474 0.52988 0.0
H1541 H 0.74411 0.81158 0.5153 0.0
H1542 H 0.76736 0.67292 0.49084 0.0
H1543 H 0.78174 0.60865 0.50553 0.0
C1544 C 0.7457 0.84122 0.47432 0.0
C1545 C 0.73007 0.86345 0.47576 0.0
C1546 C 0.75375 0.80512 0.48286 0.0
C1547 C 0.74625 0.78933 0.49295 0.0
C1548 C 0.73066 0.81307 0.49442 0.0
C1549 C 0.7227 0.85031 0.48593 0.0
C1550 C 0.75992 0.72812 0.52139 0.0
C1551 C 0.77081 0.67135 0.51882 0.0
C1552 C 0.752 0.76635 0.51301 0.0
C1553 C 0.7546 0.74788 0.50186 0.0
C1554 C 0.76529 0.68978 0.49932 0.0
C1555 C 0.77342 0.65234 0.50772 0.0
H1556 H 0.71852 0.33709 0.75561 0.0
H1557 H 0.74227 0.4752 0.77981 0.0
H1558 H 0.73326 0.3993 0.74087 0.0
H1559 H 0.75631 0.53983 0.7652 0.0
H1560 H 0.79033 0.5929 0.73769 0.0
H1561 H 0.77625 0.52645 0.75221 0.0
H1562 H 0.73531 0.51488 0.73123 0.0
H1563 H 0.74976 0.57803 0.71652 0.0
C1564 C 0.72689 0.3807 0.75776 0.0
C1565 C 0.72937 0.40083 0.76883 0.0
C1566 C 0.73522 0.41692 0.74933 0.0
C1567 C 0.74599 0.47482 0.75182 0.0
C1568 C 0.7484 0.49456 0.76295 0.0
C1569 C 0.74029 0.45759 0.77134 0.0
C1570 C 0.77827 0.57675 0.73624 0.0
C1571 C 0.7711 0.59085 0.72602 0.0
C1572 C 0.77017 0.5387 0.74456 0.0
C1573 C 0.75461 0.51508 0.74292 0.0
C1574 C 0.74736 0.53079 0.73273 0.0
C1575 C 0.75557 0.56776 0.72434 0.0
H1576 H 0.25586 0.22693 0.52986 0.0
H1577 H 0.27708 0.08584 0.50489 0.0
H1578 H 0.24153 0.29504 0.51564 0.0
H1579 H 0.26217 0.15152 0.49063 0.0
H1580 H 0.24681 0.33281 0.4667 0.0
H1581 H 0.26122 0.26848 0.48131 0.0
H1582 H 0.22095 0.28737 0.50281 0.0
H1583 H 0.20689 0.35479 0.48835 0.0
C1584 C 0.25719 0.20945 0.52133 0.0
C1585 C 0.26753 0.15098 0.51846 0.0
C1586 C 0.24895 0.24845 0.51316 0.0
C1587 C 0.25071 0.22914 0.50195 0.0
C1588 C 0.26077 0.16909 0.49915 0.0
C1589 C 0.26919 0.13084 0.50731 0.0
C1590 C 0.24114 0.32394 0.47461 0.0
C1591 C 0.22578 0.34898 0.47642 0.0
C1592 C 0.24932 0.28631 0.48295 0.0
C1593 C 0.24221 0.27188 0.49323 0.0
C1594 C 0.2269 0.29825 0.49507 0.0
C1595 C 0.21881 0.33685 0.48677 0.0
H1596 H 0.27919 0.66195 0.2379 0.0
H1597 H 0.25625 0.5184 0.21401 0.0
H1598 H 0.26467 0.60044 0.25276 0.0
H1599 H 0.24234 0.4543 0.2288 0.0
H1600 H 0.20871 0.40158 0.25681 0.0
H1601 H 0.22241 0.46612 0.24193 0.0
H1602 H 0.26343 0.48612 0.26268 0.0
H1603 H 0.24936 0.42479 0.27774 0.0
C1604 C 0.27102 0.61727 0.23584 0.0
C1605 C 0.26876 0.59525 0.22482 0.0
C1606 C 0.26282 0.5814 0.24435 0.0
C1607 C 0.25238 0.52189 0.24202 0.0
C1608 C 0.25005 0.50062 0.23093 0.0
C1609 C 0.25806 0.53728 0.22243 0.0
C1610 C 0.2207 0.41922 0.25815 0.0
C1611 C 0.22799 0.40811 0.26841 0.0
C1612 C 0.22859 0.45614 0.2496 0.0
C1613 C 0.24404 0.48175 0.25108 0.0
C1614 C 0.25144 0.46874 0.26131 0.0
C1615 C 0.24345 0.43284 0.26991 0.0
H1616 H 0.02567 0.84362 0.48746 0.0
H1617 H 0.00317 0.98362 0.46291 0.0
H1618 H 0.01115 0.90836 0.50199 0.0
H1619 H 0.98917 0.0507 0.47741 0.0
H1620 H 0.95592 0.10913 0.50595 0.0
H1621 H 0.96919 0.04283 0.49095 0.0
H1622 H 0.01095 0.02675 0.51103 0.0
H1623 H 0.99743 0.08996 0.52611 0.0
C1624 C 0.01758 0.8881 0.48519 0.0
C1625 C 0.01551 0.90843 0.47408 0.0
C1626 C 0.00937 0.92581 0.49351 0.0
C1627 C 0.99911 0.98549 0.4909 0.0
C1628 C 0.99681 0.00454 0.47973 0.0
C1629 C 0.00486 0.96613 0.47141 0.0
C1630 C 0.96799 0.09214 0.50708 0.0
C1631 C 0.97565 0.10443 0.51718 0.0
C1632 C 0.97562 0.05413 0.49849 0.0
C1633 C 0.9911 0.0285 0.49982 0.0
C1634 C 0.9989 0.04375 0.50981 0.0
C1635 C 0.99122 0.08078 0.51841 0.0
H1636 H 0.95886 0.14514 0.73718 0.0
H1637 H -0.00043 0.16766 0.71629 0.0
H1638 H 0.97207 0.21561 0.75171 0.0
H1639 H 0.01314 0.23508 0.731 0.0
H1640 H 0.02809 0.41817 0.75472 0.0
H1641 H 0.01361 0.35248 0.74023 0.0
H1642 H 0.99209 0.20944 0.76494 0.0
H1643 H 0.00596 0.27748 0.77936 0.0
C1644 C 0.97076 0.1639 0.73579 0.0
C1645 C 0.97821 0.1508 0.72563 0.0
C1646 C 0.97837 0.20428 0.74413 0.0
C1647 C 0.99368 0.23153 0.74254 0.0
C1648 C 0.00124 0.21654 0.73244 0.0
C1649 C 0.99354 0.17711 0.72405 0.0
C1650 C 0.02008 0.37339 0.75703 0.0
C1651 C 0.01807 0.3532 0.76815 0.0
C1652 C 0.0119 0.33512 0.74873 0.0
C1653 C 0.00176 0.27506 0.75138 0.0
C1654 C -0.00041 0.25603 0.76257 0.0
C1655 C 0.00758 0.295 0.77086 0.0
H1656 H -0.0005 0.8394 0.27708 0.0
H1657 H 0.03979 0.85989 0.25574 0.0
H1658 H 0.98509 0.77718 0.26226 0.0
H1659 H 0.02576 0.79443 0.24111 0.0
H1660 H 0.9919 0.73969 0.21356 0.0
H1661 H 0.00565 0.80603 0.22818 0.0
H1662 H 0.98347 0.66216 0.25251 0.0
H1663 H 0.96905 0.59832 0.23778 0.0
C1664 C 0.00525 0.83061 0.2692 0.0
C1665 C 0.02071 0.85484 0.26752 0.0
C1666 C 0.99707 0.79419 0.26074 0.0
C1667 C 0.00426 0.78019 0.25048 0.0
C1668 C 0.01972 0.80528 0.24882 0.0
C1669 C 0.0278 0.84273 0.25721 0.0
C1670 C 0.99006 0.72181 0.22203 0.0
C1671 C 0.97949 0.66355 0.22455 0.0
C1672 C 0.99799 0.75976 0.23043 0.0
C1673 C 0.99574 0.73951 0.24156 0.0
C1674 C 0.9853 0.68026 0.24405 0.0
C1675 C 0.97715 0.64309 0.23563 0.0
H1676 H 0.00442 0.46832 0.96295 0.0
H1677 H 0.02705 0.32868 0.98749 0.0
H1678 H 0.9898 0.53246 0.9774 0.0
H1679 H 0.01187 0.39039 0.00198 0.0
H1680 H 0.99657 0.57067 0.02615 0.0
H1681 H 0.01071 0.50738 0.01133 0.0
H1682 H 0.96963 0.52163 0.99054 0.0
H1683 H 0.95579 0.58804 0.00522 0.0
C1684 C 0.00601 0.45021 0.97143 0.0
C1685 C 0.01688 0.39356 0.97411 0.0
C1686 C 0.9976 0.48691 0.97973 0.0
C1687 C -0.00029 0.46709 0.99089 0.0
C1688 C 0.0102 0.40836 0.9935 0.0
C1689 C 0.01878 0.37237 0.9852 0.0
C1690 C 0.99065 0.56094 0.01836 0.0
C1691 C 0.97513 0.58447 0.0168 0.0
C1692 C 0.99868 0.52389 0.0099 0.0
C1693 C 0.99127 0.50852 -0.00024 0.0
C1694 C 0.97578 0.53325 -0.00182 0.0
C1695 C 0.96783 0.57128 0.00659 0.0
H1696 H 0.43043 0.82425 0.02495 0.0
H1697 H 0.46214 0.86176 0.05224 0.0
H1698 H 0.43696 0.69015 0.02515 0.0
H1699 H 0.46877 0.72803 0.05232 0.0
H1700 H 0.48842 0.4984 0.04207 0.0
H1701 H 0.48228 0.63276 0.04086 0.0
H1702 H 0.43326 0.57908 0.03723 0.0
H1703 H 0.4393 0.44525 0.03855 0.0
C1704 C 0.43871 0.80407 0.03103 0.0
C1705 C 0.44577 0.85418 0.03856 0.0
C1706 C 0.44248 0.72712 0.03113 0.0
C1707 C 0.45343 0.6985 0.03872 0.0
C1708 C 0.4605 0.7485 0.04624 0.0
C1709 C 0.45668 0.82528 0.04618 0.0
C1710 C 0.47633 0.51514 0.04105 0.0
C1711 C 0.46438 0.46058 0.04043 0.0
C1712 C 0.47281 0.5922 0.04035 0.0
C1713 C 0.45728 0.61658 0.03898 0.0
C1714 C 0.44537 0.56214 0.03814 0.0
C1715 C 0.44887 0.48516 0.03888 0.0
H1716 H 0.80241 0.78516 0.03042 0.0
H1717 H 0.76251 0.73857 0.05125 0.0
H1718 H 0.8088 0.65099 0.03012 0.0
H1719 H 0.76891 0.60459 0.05099 0.0
H1720 H 0.8253 0.41908 0.04258 0.0
H1721 H 0.81858 0.55316 0.0423 0.0
H1722 H 0.76965 0.49531 0.03911 0.0
H1723 H 0.77638 0.36167 0.03947 0.0
C1724 C 0.79502 0.74646 0.03496 0.0
C1725 C 0.78194 0.77291 0.04087 0.0
C1726 C 0.7987 0.66943 0.03481 0.0
C1727 C 0.78941 0.6169 0.04057 0.0
C1728 C 0.7762 0.64323 0.04633 0.0
C1729 C 0.7725 0.7202 0.04647 0.0
C1730 C 0.81312 0.43509 0.04178 0.0
C1731 C 0.80139 0.37963 0.04113 0.0
C1732 C 0.80926 0.51193 0.04158 0.0
C1733 C 0.79356 0.53513 0.04068 0.0
C1734 C 0.78184 0.47955 0.04 0.0
C1735 C 0.7857 0.4028 0.04023 0.0
H1736 H 0.436 0.81255 0.20586 0.0
H1737 H 0.48528 0.75937 0.20398 0.0
H1738 H 0.42983 0.67874 0.20676 0.0
H1739 H 0.47904 0.62496 0.20478 0.0
H1740 H 0.45969 0.39635 0.1925 0.0
H1741 H 0.4664 0.53007 0.1928 0.0
H1742 H 0.43256 0.56708 0.21875 0.0
H1743 H 0.42594 0.43313 0.21856 0.0
C1744 C 0.44557 0.77264 0.20581 0.0
C1745 C 0.46118 0.79726 0.20483 0.0
C1746 C 0.442 0.69563 0.2063 0.0
C1747 C 0.45393 0.64114 0.2058 0.0
C1748 C 0.46955 0.66554 0.20501 0.0
C1749 C 0.47313 0.74264 0.20455 0.0
C1750 C 0.45379 0.43267 0.19837 0.0
C1751 C 0.44228 0.40358 0.20552 0.0
C1752 C 0.45765 0.50943 0.19854 0.0
C1753 C 0.45004 0.5592 0.20582 0.0
C1754 C 0.43851 0.53034 0.21295 0.0
C1755 C 0.43469 0.45346 0.21282 0.0
H1756 H 0.8079 0.468 0.19811 0.0
H1757 H 0.76295 0.51604 0.21274 0.0
H1758 H 0.81415 0.60183 0.19802 0.0
H1759 H 0.76935 0.65071 0.21304 0.0
H1760 H 0.77899 0.89059 0.20147 0.0
H1761 H 0.77271 0.75716 0.20142 0.0
H1762 H 0.82077 0.70422 0.2094 0.0
H1763 H 0.82733 0.83724 0.20869 0.0
C1764 C 0.79946 0.50726 0.2015 0.0
C1765 C 0.78497 0.48153 0.20549 0.0
C1766 C 0.80304 0.58417 0.20147 0.0
C1767 C 0.7923 0.63745 0.20556 0.0
C1768 C 0.77782 0.61154 0.20965 0.0
C1769 C 0.77416 0.53442 0.20955 0.0
C1770 C 0.78833 0.85091 0.20304 0.0
C1771 C 0.80374 0.87569 0.20506 0.0
C1772 C 0.78463 0.77394 0.20319 0.0
C1773 C 0.79619 0.71956 0.20545 0.0
C1774 C 0.81157 0.74422 0.20748 0.0
C1775 C 0.81531 0.82106 0.20721 0.0
H1776 H 0.56957 0.15349 0.96828 0.0
H1777 H 0.53654 0.11638 0.94176 0.0
H1778 H 0.56308 0.28746 0.96827 0.0
H1779 H 0.52992 0.25025 0.94191 0.0
H1780 H 0.51072 0.47923 0.95346 0.0
H1781 H 0.51699 0.34484 0.95411 0.0
H1782 H 0.5662 0.39867 0.95595 0.0
H1783 H 0.56004 0.53257 0.95513 0.0
C1784 C 0.56102 0.1737 0.96239 0.0
C1785 C 0.55359 0.1237 0.95502 0.0
C1786 C 0.55727 0.25061 0.96242 0.0
C1787 C 0.54595 0.27936 0.95512 0.0
C1788 C 0.53851 0.22957 0.94776 0.0
C1789 C 0.54231 0.15276 0.94768 0.0
C1790 C 0.52288 0.46256 0.95395 0.0
C1791 C 0.53484 0.51719 0.95423 0.0
C1792 C 0.52646 0.38548 0.95433 0.0
C1793 C 0.54209 0.36119 0.95506 0.0
C1794 C 0.55403 0.41562 0.95553 0.0
C1795 C 0.55047 0.49262 0.95509 0.0
H1796 H 0.18895 0.19855 0.95576 0.0
H1797 H 0.23791 0.25209 0.95138 0.0
H1798 H 0.1829 0.3324 0.95712 0.0
H1799 H 0.23176 0.38644 0.95261 0.0
H1800 H 0.21114 0.61533 0.94159 0.0
H1801 H 0.21775 0.48156 0.94135 0.0
H1802 H 0.18708 0.4435 0.96916 0.0
H1803 H 0.18059 0.57758 0.96953 0.0
C1804 C 0.19848 0.23856 0.95525 0.0
C1805 C 0.21395 0.21408 0.95345 0.0
C1806 C 0.19498 0.31553 0.956 0.0
C1807 C 0.20683 0.37006 0.95493 0.0
C1808 C 0.22233 0.34579 0.9533 0.0
C1809 C 0.22585 0.26874 0.95259 0.0
C1810 C 0.20593 0.57881 0.94775 0.0
C1811 C 0.19535 0.60768 0.9556 0.0
C1812 C 0.20973 0.50201 0.9476 0.0
C1813 C 0.20298 0.45196 0.95525 0.0
C1814 C 0.19235 0.48052 0.96308 0.0
C1815 C 0.1886 0.55748 0.96326 0.0
H1816 H 0.57759 0.57581 0.79173 0.0
H1817 H 0.52862 0.63254 0.78884 0.0
H1818 H 0.57093 0.44164 0.79142 0.0
H1819 H 0.52197 0.4989 0.78849 0.0
H1820 H 0.5544 0.20937 0.77953 0.0
H1821 H 0.56088 0.34346 0.77921 0.0
H1822 H 0.52156 0.39008 0.80057 0.0
H1823 H 0.51509 0.25639 0.80092 0.0
C1824 C 0.56542 0.55971 0.79097 0.0
C1825 C 0.55365 0.61507 0.79039 0.0
C1826 C 0.5616 0.48279 0.79075 0.0
C1827 C 0.5459 0.45941 0.78994 0.0
C1828 C 0.53415 0.51483 0.78932 0.0
C1829 C 0.53797 0.59162 0.78955 0.0
C1830 C 0.54715 0.24804 0.78418 0.0
C1831 C 0.53419 0.22165 0.79024 0.0
C1832 C 0.55089 0.32505 0.78401 0.0
C1833 C 0.54177 0.37763 0.78988 0.0
C1834 C 0.5287 0.35139 0.79581 0.0
C1835 C 0.52497 0.2745 0.79599 0.0
H1836 H 0.17837 0.18385 0.77498 0.0
H1837 H 0.21097 0.14644 0.80174 0.0
H1838 H 0.18491 0.31786 0.77504 0.0
H1839 H 0.21762 0.28024 0.80169 0.0
H1840 H 0.23705 0.50953 0.79082 0.0
H1841 H 0.23079 0.37515 0.78993 0.0
H1842 H 0.18169 0.42934 0.78708 0.0
H1843 H 0.18787 0.5632 0.78809 0.0
C1844 C 0.18684 0.20403 0.78093 0.0
C1845 C 0.19414 0.15393 0.78835 0.0
C1846 C 0.19062 0.28097 0.78094 0.0
C1847 C 0.20183 0.30966 0.78834 0.0
C1848 C 0.20913 0.25971 0.79575 0.0
C1849 C 0.20531 0.1829 0.79578 0.0
C1850 C 0.22492 0.49289 0.79004 0.0
C1851 C 0.213 0.5476 0.78953 0.0
C1852 C 0.22133 0.41582 0.78953 0.0
C1853 C 0.20573 0.39157 0.78846 0.0
C1854 C 0.19384 0.44615 0.78775 0.0
C1855 C 0.19742 0.52315 0.7883 0.0
H1856 H 0.46107 0.36484 0.55208 0.0
H1857 H 0.43114 0.32733 0.52381 0.0
H1858 H 0.46769 0.23107 0.55237 0.0
H1859 H 0.43763 0.19328 0.52422 0.0
H1860 H 0.43913 0.94838 0.53767 0.0
H1861 H 0.43314 0.08225 0.53626 0.0
H1862 H 0.48194 0.13597 0.54119 0.0
H1863 H 0.48803 0.0016 0.54246 0.0
C1864 C 0.456 0.32837 0.54586 0.0
C1865 C 0.44558 0.3573 0.53791 0.0
C1866 C 0.45981 0.25159 0.54603 0.0
C1867 C 0.45322 0.20162 0.5383 0.0
C1868 C 0.44276 0.23024 0.53037 0.0
C1869 C 0.43901 0.30718 0.53016 0.0
C1870 C 0.44867 0.9883 0.53826 0.0
C1871 C 0.4641 0.96372 0.54019 0.0
C1872 C 0.4452 0.06529 0.53748 0.0
C1873 C 0.45705 0.11973 0.53865 0.0
C1874 C 0.47251 0.09538 0.54042 0.0
C1875 C 0.476 0.01831 0.54115 0.0
H1876 H 0.82163 0.93209 0.52655 0.0
H1877 H 0.78623 0.89481 0.55149 0.0
H1878 H 0.81517 0.06622 0.52629 0.0
H1879 H 0.77967 0.02861 0.5511 0.0
H1880 H 0.76178 0.25855 0.53947 0.0
H1881 H 0.76794 0.12409 0.53862 0.0
H1882 H 0.81728 0.17669 0.53877 0.0
H1883 H 0.8112 0.31071 0.53977 0.0
C1884 C 0.81255 0.95233 0.53202 0.0
C1885 C 0.80446 0.90233 0.53904 0.0
C1886 C 0.80882 0.02926 0.53185 0.0
C1887 C 0.79687 0.05792 0.53864 0.0
C1888 C 0.78875 0.00803 0.54562 0.0
C1889 C 0.79252 0.93125 0.54584 0.0
C1890 C 0.77394 0.24154 0.53936 0.0
C1891 C 0.78597 0.29578 0.53971 0.0
C1892 C 0.77746 0.16446 0.53887 0.0
C1893 C 0.7931 0.13982 0.53866 0.0
C1894 C 0.80512 0.19395 0.53878 0.0
C1895 C 0.80161 0.27096 0.53932 0.0
H1896 H 0.4604 0.89773 0.69204 0.0
H1897 H 0.43036 0.93527 0.72026 0.0
H1898 H 0.46688 0.03162 0.69168 0.0
H1899 H 0.43668 0.06954 0.71975 0.0
H1900 H 0.4379 0.31365 0.70573 0.0
H1901 H 0.43204 0.17965 0.70731 0.0
H1902 H 0.48101 0.12704 0.70308 0.0
H1903 H 0.48699 0.26145 0.70168 0.0
C1904 C 0.45528 0.93422 0.69823 0.0
C1905 C 0.44488 0.90531 0.7062 0.0
C1906 C 0.45899 0.01105 0.69801 0.0
C1907 C 0.45232 0.06101 0.7057 0.0
C1908 C 0.44188 0.03245 0.71364 0.0
C1909 C 0.43823 0.95544 0.71391 0.0
C1910 C 0.44749 0.27394 0.70533 0.0
C1911 C 0.46295 0.29875 0.70357 0.0
C1912 C 0.4441 0.19694 0.70621 0.0
C1913 C 0.45605 0.14286 0.70528 0.0
C1914 C 0.47152 0.16744 0.70367 0.0
C1915 C 0.47494 0.2445 0.70286 0.0
H1916 H 0.80355 0.94989 0.71633 0.0
H1917 H 0.76803 0.99906 0.6919 0.0
H1918 H 0.80995 0.08388 0.71738 0.0
H1919 H 0.77432 0.13262 0.69311 0.0
H1920 H 0.77904 0.37273 0.7064 0.0
H1921 H 0.7726 0.23894 0.70621 0.0
H1922 H 0.82179 0.18338 0.70555 0.0
H1923 H 0.8283 0.3178 0.7056 0.0
C1924 C 0.79711 0.98888 0.71116 0.0
C1925 C 0.78525 0.96302 0.70401 0.0
C1926 C 0.8008 0.06582 0.71177 0.0
C1927 C 0.79265 0.11886 0.70533 0.0
C1928 C 0.78067 0.09331 0.6983 0.0
C1929 C 0.77704 0.01645 0.69763 0.0
C1930 C 0.78852 0.33232 0.70608 0.0
C1931 C 0.80422 0.35634 0.70589 0.0
C1932 C 0.7848 0.25544 0.70601 0.0
C1933 C 0.79667 0.20054 0.70581 0.0
C1934 C 0.81237 0.22432 0.70583 0.0
C1935 C 0.8161 0.30135 0.70585 0.0
H1936 H 0.5293 0.6195 0.45296 0.0
H1937 H 0.57844 0.67268 0.45605 0.0
H1938 H 0.52312 0.75362 0.45229 0.0
H1939 H 0.57225 0.8073 0.45539 0.0
H1940 H 0.55315 0.03923 0.46567 0.0
H1941 H 0.55933 0.90482 0.46649 0.0
H1942 H 0.52646 0.8621 0.44009 0.0
H1943 H 0.52031 0.99618 0.43925 0.0
C1944 C 0.53882 0.65974 0.45335 0.0
C1945 C 0.55439 0.63537 0.45449 0.0
C1946 C 0.53526 0.7367 0.45299 0.0
C1947 C 0.5472 0.79108 0.45377 0.0
C1948 C 0.56277 0.76678 0.45492 0.0
C1949 C 0.56633 0.68974 0.45528 0.0
C1950 C 0.54731 0.00125 0.46 0.0
C1951 C 0.53621 0.02858 0.45241 0.0
C1952 C 0.55086 0.92424 0.46046 0.0
C1953 C 0.54339 0.87285 0.45335 0.0
C1954 C 0.53225 0.90009 0.4458 0.0
C1955 C 0.5287 0.97703 0.44533 0.0
H1956 H 0.20925 0.12129 0.44275 0.0
H1957 H 0.17605 0.0839 0.46914 0.0
H1958 H 0.21588 0.98752 0.44286 0.0
H1959 H 0.18258 0.94982 0.46914 0.0
H1960 H 0.18563 0.70493 0.45584 0.0
H1961 H 0.17953 0.83879 0.45696 0.0
H1962 H 0.22873 0.89229 0.45474 0.0
H1963 H 0.23491 0.75789 0.45374 0.0
C1964 C 0.20346 0.08482 0.44865 0.0
C1965 C 0.19213 0.11375 0.45595 0.0
C1966 C 0.20727 0.00804 0.44871 0.0
C1967 C 0.19979 0.9581 0.45603 0.0
C1968 C 0.18843 0.98676 0.46331 0.0
C1969 C 0.18466 0.06369 0.46329 0.0
C1970 C 0.19521 0.74481 0.45578 0.0
C1971 C 0.21079 0.72017 0.45469 0.0
C1972 C 0.19168 0.8218 0.4564 0.0
C1973 C 0.20364 0.87619 0.4559 0.0
C1974 C 0.21924 0.85175 0.45498 0.0
C1975 C 0.22277 0.77468 0.45441 0.0
H1976 H 0.55728 0.09722 0.27053 0.0
H1977 H 0.54823 0.12535 0.30537 0.0
H1978 H 0.55097 0.96338 0.27196 0.0
H1979 H 0.54235 0.99075 0.30696 0.0
H1980 H 0.51775 0.76476 0.30391 0.0
H1981 H 0.52335 0.89852 0.30211 0.0
H1982 H 0.56055 0.84785 0.27907 0.0
H1983 H 0.55432 0.71471 0.28027 0.0
C1984 C 0.55416 0.07437 0.27853 0.0
C1985 C 0.55329 0.12146 0.28785 0.0
C1986 C 0.55056 0.99763 0.27937 0.0
C1987 C 0.54618 0.96604 0.28959 0.0
C1988 C 0.54541 0.01331 0.29893 0.0
C1989 C 0.54884 0.09028 0.29805 0.0
C1990 C 0.52698 0.7818 0.29832 0.0
C1991 C 0.53555 0.72804 0.29225 0.0
C1992 C 0.53034 0.85881 0.29741 0.0
C1993 C 0.54246 0.88415 0.29048 0.0
C1994 C 0.55101 0.83058 0.28439 0.0
C1995 C 0.54754 0.75369 0.28521 0.0
H1996 H 0.1786 0.67426 0.27628 0.0
H1997 H 0.21231 0.6369 0.30235 0.0
H1998 H 0.18513 0.80837 0.27622 0.0
H1999 H 0.21893 0.77069 0.30218 0.0
H2000 H 0.23773 1.00044 0.29118 0.0
H2001 H 0.23155 0.86603 0.29021 0.0
H2002 H 0.1823 0.91935 0.28841 0.0
H2003 H 0.18841 0.05322 0.28949 0.0
C2004 C 0.18732 0.69449 0.28205 0.0
C2005 C 0.19493 0.64444 0.28931 0.0
C2006 C 0.19109 0.77143 0.28199 0.0
C2007 C 0.20259 0.8001 0.28916 0.0
C2008 C 0.21021 0.75016 0.29641 0.0
C2009 C 0.2064 0.67337 0.2965 0.0
C2010 C 0.22559 0.98361 0.29061 0.0
C2011 C 0.2136 0.03807 0.29043 0.0
C2012 C 0.22204 0.90652 0.29006 0.0
C2013 C 0.20643 0.88203 0.28927 0.0
C2014 C 0.19447 0.93638 0.28887 0.0
C2015 C 0.198 0.01338 0.28946 0.0
H2016 H 0.9432 0.45859 0.52892 0.0
H2017 H 0.98292 0.50583 0.54991 0.0
H2018 H 0.93671 0.59266 0.52864 0.0
H2019 H 0.97645 0.63952 0.54962 0.0
H2020 H 0.92022 0.82501 0.54131 0.0
H2021 H 0.92688 0.69087 0.54092 0.0
H2022 H 0.97579 0.74834 0.53755 0.0
H2023 H 0.96914 0.88196 0.53797 0.0
C2024 C 0.95055 0.49731 0.53349 0.0
C2025 C 0.96362 0.47098 0.53943 0.0
C2026 C 0.9468 0.57431 0.53335 0.0
C2027 C 0.95603 0.62695 0.53913 0.0
C2028 C 0.96921 0.60078 0.54493 0.0
C2029 C 0.97295 0.52389 0.54508 0.0
C2030 C 0.93238 0.80897 0.54043 0.0
C2031 C 0.94413 0.86439 0.53975 0.0
C2032 C 0.9362 0.73206 0.54018 0.0
C2033 C 0.95188 0.70873 0.53922 0.0
C2034 C 0.96362 0.76422 0.53849 0.0
C2035 C 0.9598 0.841 0.53876 0.0
H2036 H 0.32654 0.4202 0.53558 0.0
H2037 H 0.27753 0.3648 0.53891 0.0
H2038 H 0.32005 0.55457 0.53606 0.0
H2039 H 0.27109 0.4986 0.53947 0.0
H2040 H 0.26837 0.74044 0.55315 0.0
H2041 H 0.27456 0.60672 0.55189 0.0
H2042 H 0.3066 0.65272 0.52512 0.0
H2043 H 0.30032 0.78683 0.52629 0.0
C2044 C 0.31439 0.4366 0.53635 0.0
C2045 C 0.3026 0.38153 0.53731 0.0
C2046 C 0.31067 0.51359 0.53661 0.0
C2047 C 0.29506 0.53728 0.53785 0.0
C2048 C 0.28326 0.48224 0.53871 0.0
C2049 C 0.28698 0.40537 0.53842 0.0
C2050 C 0.27656 0.7223 0.54688 0.0
C2051 C 0.28381 0.77495 0.53982 0.0
C2052 C 0.28013 0.64539 0.54617 0.0
C2053 C 0.29109 0.61903 0.53842 0.0
C2054 C 0.29828 0.67137 0.5313 0.0
C2055 C 0.29466 0.74835 0.53197 0.0
H2056 H 0.92186 0.41924 0.70423 0.0
H2057 H 0.9711 0.36389 0.70414 0.0
H2058 H 0.9284 0.55361 0.70428 0.0
H2059 H 0.97759 0.49765 0.7041 0.0
H2060 H 0.98226 0.7401 0.69101 0.0
H2061 H 0.97586 0.60642 0.69167 0.0
H2062 H 0.94029 0.65123 0.71615 0.0
H2063 H 0.94677 0.78533 0.7156 0.0
C2064 C 0.93406 0.43563 0.70428 0.0
C2065 C 0.94592 0.38054 0.70409 0.0
C2066 C 0.93781 0.51262 0.70433 0.0
C2067 C 0.95352 0.53634 0.70416 0.0
C2068 C 0.96537 0.4813 0.70404 0.0
C2069 C 0.96163 0.40442 0.70402 0.0
C2070 C 0.97324 0.72171 0.69667 0.0
C2071 C 0.96507 0.77404 0.70326 0.0
C2072 C 0.96954 0.64481 0.69702 0.0
C2073 C 0.95756 0.61811 0.70395 0.0
C2074 C 0.94944 0.67013 0.7106 0.0
C2075 C 0.95317 0.74711 0.71028 0.0
H2076 H 0.32859 0.82163 0.70333 0.0
H2077 H 0.27946 0.87822 0.70431 0.0
H2078 H 0.32193 0.68745 0.7032 0.0
H2079 H 0.2728 0.74453 0.70423 0.0
H2080 H 0.26689 0.50225 0.69139 0.0
H2081 H 0.27326 0.63614 0.69211 0.0
H2082 H 0.31102 0.58862 0.71481 0.0
H2083 H 0.30465 0.4545 0.71408 0.0
C2084 C 0.31638 0.80547 0.70359 0.0
C2085 C 0.30458 0.86078 0.70375 0.0
C2086 C 0.31255 0.72854 0.70354 0.0
C2087 C 0.29682 0.70509 0.70369 0.0
C2088 C 0.28502 0.76049 0.70391 0.0
C2089 C 0.28885 0.8373 0.70394 0.0
C2090 C 0.2764 0.52029 0.69667 0.0
C2091 C 0.28524 0.46725 0.70266 0.0
C2092 C 0.28008 0.59724 0.69707 0.0
C2093 C 0.29269 0.62327 0.70349 0.0
C2094 C 0.3014 0.57042 0.70962 0.0
C2095 C 0.29773 0.4934 0.70921 0.0
H2096 H 0.07441 0.18128 0.45686 0.0
H2097 H 0.02519 0.12633 0.45524 0.0
H2098 H 0.06794 0.31571 0.45637 0.0
H2099 H 0.0188 0.26012 0.4546 0.0
H2100 H 0.01579 0.49925 0.43973 0.0
H2101 H 0.02189 0.36574 0.44145 0.0
H2102 H 0.05491 0.41595 0.46744 0.0
H2103 H 0.04867 0.54984 0.46588 0.0
C2104 C 0.06223 0.19773 0.45649 0.0
C2105 C 0.05037 0.14271 0.45596 0.0
C2106 C 0.05852 0.27477 0.45621 0.0
C2107 C 0.04286 0.29855 0.45537 0.0
C2108 C 0.03099 0.24363 0.45504 0.0
C2109 C 0.03469 0.16674 0.45537 0.0
C2110 C 0.02418 0.48222 0.44594 0.0
C2111 C 0.03171 0.53606 0.45266 0.0
C2112 C 0.0277 0.40537 0.44691 0.0
C2113 C 0.0389 0.38022 0.45457 0.0
C2114 C 0.04638 0.43367 0.46135 0.0
C2115 C 0.04278 0.51058 0.46044 0.0
H2116 H 0.67346 0.58266 0.45281 0.0
H2117 H 0.72251 0.63828 0.45548 0.0
H2118 H 0.68 0.44837 0.45277 0.0
H2119 H 0.72906 0.50447 0.45551 0.0
H2120 H 0.73564 0.26266 0.44277 0.0
H2121 H 0.7293 0.39666 0.4433 0.0
H2122 H 0.69003 0.34934 0.46471 0.0
H2123 H 0.69636 0.21513 0.46415 0.0
C2124 C 0.68562 0.56621 0.45345 0.0
C2125 C 0.69745 0.62122 0.45407 0.0
C2126 C 0.68938 0.48927 0.45346 0.0
C2127 C 0.70507 0.46559 0.45413 0.0
C2128 C 0.71689 0.52069 0.4548 0.0
C2129 C 0.71313 0.59752 0.45476 0.0
C2130 C 0.72579 0.28085 0.44772 0.0
C2131 C 0.71652 0.22794 0.45341 0.0
C2132 C 0.72213 0.35778 0.44801 0.0
C2133 C 0.70912 0.38382 0.45402 0.0
C2134 C 0.69997 0.33107 0.45984 0.0
C2135 C 0.70362 0.25406 0.45953 0.0
H2136 H 0.01797 0.26128 0.30195 0.0
H2137 H 0.05311 0.21144 0.27727 0.0
H2138 H 0.02421 0.39485 0.30058 0.0
H2139 H 0.05946 0.34541 0.27606 0.0
H2140 H 0.07794 0.57979 0.28762 0.0
H2141 H 0.07147 0.44536 0.28777 0.0
H2142 H 0.02226 0.50066 0.28737 0.0
H2143 H 0.02867 0.63447 0.28706 0.0
C2144 C 0.02689 0.27852 0.29613 0.0
C2145 C 0.035 0.2249 0.28972 0.0
C2146 C 0.03049 0.35537 0.29536 0.0
C2147 C 0.04234 0.38073 0.28822 0.0
C2148 C 0.05041 0.3275 0.28176 0.0
C2149 C 0.04675 0.25057 0.28247 0.0
C2150 C 0.06575 0.56329 0.28744 0.0
C2151 C 0.05386 0.61823 0.28745 0.0
C2152 C 0.06204 0.48624 0.28752 0.0
C2153 C 0.04635 0.4624 0.28765 0.0
C2154 C 0.03446 0.51723 0.28748 0.0
C2155 C 0.03816 0.59412 0.28735 0.0
H2156 H 0.67447 0.16604 0.29061 0.0
H2157 H 0.72345 0.1083 0.28831 0.0
H2158 H 0.68123 0.30008 0.29029 0.0
H2159 H 0.73023 0.24189 0.28792 0.0
H2160 H 0.73704 0.48572 0.29993 0.0
H2161 H 0.73062 0.35179 0.29969 0.0
H2162 H 0.69142 0.39726 0.27814 0.0
H2163 H 0.69783 0.53144 0.27841 0.0
C2164 C 0.68667 0.18196 0.28998 0.0
C2165 C 0.69841 0.12641 0.28957 0.0
C2166 C 0.69056 0.25878 0.28976 0.0
C2167 C 0.70629 0.28188 0.28908 0.0
C2168 C 0.71802 0.22622 0.28864 0.0
C2169 C 0.71413 0.14949 0.28889 0.0
C2170 C 0.7272 0.46717 0.295 0.0
C2171 C 0.71796 0.51966 0.2892 0.0
C2172 C 0.72349 0.39021 0.29488 0.0
C2173 C 0.71046 0.36364 0.28894 0.0
C2174 C 0.70137 0.4159 0.28297 0.0
C2175 C 0.70507 0.49294 0.28311 0.0
H2176 H 0.98488 0.99205 0.03876 0.0
H2177 H 0.93544 0.94005 0.03856 0.0
H2178 H 0.97875 0.12653 0.03791 0.0
H2179 H 0.92941 0.0741 0.03754 0.0
H2180 H 0.92566 0.3185 0.02496 0.0
H2181 H 0.93206 0.18434 0.02489 0.0
H2182 H 0.96656 0.22184 0.05038 0.0
H2183 H 0.96002 0.35573 0.05062 0.0
C2184 C 0.97272 0.00907 0.03854 0.0
C2185 C 0.96068 0.95487 0.03875 0.0
C2186 C 0.96922 0.08616 0.03805 0.0
C2187 C 0.9536 0.11081 0.03768 0.0
C2188 C 0.94156 0.05677 0.03767 0.0
C2189 C 0.94505 0.97975 0.03823 0.0
C2190 C 0.9345 0.29827 0.03063 0.0
C2191 C 0.94232 0.34826 0.0378 0.0
C2192 C 0.9382 0.22132 0.03056 0.0
C2193 C 0.94984 0.19266 0.0376 0.0
C2194 C 0.9577 0.24249 0.04473 0.0
C2195 C 0.95395 0.3193 0.04486 0.0
H2196 H 0.32877 0.92309 0.03776 0.0
H2197 H 0.27951 0.86798 0.03746 0.0
H2198 H 0.32226 0.05748 0.03789 0.0
H2199 H 0.27306 0.00173 0.03773 0.0
H2200 H 0.26876 0.24155 0.05212 0.0
H2201 H 0.27503 0.10801 0.05082 0.0
H2202 H 0.31017 0.15708 0.0262 0.0
H2203 H 0.30378 0.29102 0.02734 0.0
C2204 C 0.31658 0.93948 0.03763 0.0
C2205 C 0.3047 0.88442 0.03771 0.0
C2206 C 0.31284 0.01651 0.03771 0.0
C2207 C 0.29714 0.04024 0.03789 0.0
C2208 C 0.28527 0.98528 0.0378 0.0
C2209 C 0.289 0.90841 0.03768 0.0
C2210 C 0.27766 0.22424 0.04629 0.0
C2211 C 0.28573 0.27777 0.03984 0.0
C2212 C 0.28128 0.14739 0.04557 0.0
C2213 C 0.29311 0.12192 0.03842 0.0
C2214 C 0.30114 0.17505 0.03191 0.0
C2215 C 0.29746 0.25198 0.03257 0.0
H2216 H 0.92232 0.93252 0.20343 0.0
H2217 H 0.9714 0.87716 0.20631 0.0
H2218 H 0.92885 0.06683 0.20366 0.0
H2219 H 0.97789 0.011 0.20638 0.0
H2220 H 0.94613 0.30029 0.21503 0.0
H2221 H 0.93979 0.16616 0.21601 0.0
H2222 H 0.97713 0.11708 0.19307 0.0
H2223 H 0.98334 0.25082 0.19192 0.0
C2224 C 0.93447 0.94887 0.20421 0.0
C2225 C 0.94632 0.89382 0.20474 0.0
C2226 C 0.93822 0.02583 0.20434 0.0
C2227 C 0.9539 0.04947 0.20498 0.0
C2228 C 0.96572 0.99453 0.20569 0.0
C2229 C 0.96198 0.91767 0.2056 0.0
C2230 C 0.95295 0.26116 0.21013 0.0
C2231 C 0.96525 0.28693 0.20337 0.0
C2232 C 0.94931 0.18419 0.21071 0.0
C2233 C 0.95795 0.13107 0.20462 0.0
C2234 C 0.97039 0.15652 0.19799 0.0
C2235 C 0.97397 0.23343 0.19735 0.0
H2236 H 0.28726 0.36726 0.19159 0.0
H2237 H 0.31853 0.32986 0.21912 0.0
H2238 H 0.28061 0.23355 0.19146 0.0
H2239 H 0.31196 0.19575 0.2189 0.0
H2240 H 0.30975 0.95071 0.20567 0.0
H2241 H 0.31579 0.08445 0.20704 0.0
H2242 H 0.2669 0.13825 0.20266 0.0
H2243 H 0.26078 0.00392 0.20136 0.0
C2244 C 0.29261 0.33079 0.19769 0.0
C2245 C 0.30341 0.35971 0.20539 0.0
C2246 C 0.28878 0.25402 0.19761 0.0
C2247 C 0.29571 0.20402 0.2052 0.0
C2248 C 0.30655 0.23268 0.21287 0.0
C2249 C 0.31034 0.30963 0.21298 0.0
C2250 C 0.30021 0.99059 0.20517 0.0
C2251 C 0.28475 0.966 0.20337 0.0
C2252 C 0.3037 0.06757 0.20595 0.0
C2253 C 0.29184 0.12207 0.20492 0.0
C2254 C 0.27635 0.09768 0.20331 0.0
C2255 C 0.27284 0.02061 0.20257 0.0
H2256 H 0.01186 0.9894 0.94754 0.0
H2257 H 0.05975 0.04316 0.956 0.0
H2258 H 0.01789 0.85515 0.94901 0.0
H2259 H 0.0656 0.90934 0.95766 0.0
H2260 H 0.06477 0.66482 0.97082 0.0
H2261 H 0.05865 0.79886 0.9696 0.0
H2262 H 0.03435 0.76039 0.93883 0.0
H2263 H 0.04072 0.62643 0.93987 0.0
C2264 C 0.02366 0.97294 0.94968 0.0
C2265 C 0.03529 0.0277 0.95163 0.0
C2266 C 0.02711 0.8959 0.95053 0.0
C2267 C 0.04222 0.87178 0.95344 0.0
C2268 C 0.05379 0.92626 0.95554 0.0
C2269 C 0.05039 0.00322 0.95461 0.0
C2270 C 0.0583 0.68469 0.96371 0.0
C2271 C 0.05324 0.63426 0.95545 0.0
C2272 C 0.05475 0.76167 0.96305 0.0
C2273 C 0.04597 0.79004 0.95415 0.0
C2274 C 0.04093 0.73993 0.94588 0.0
C2275 C 0.04458 0.66305 0.94649 0.0
H2276 H 0.69882 0.71041 0.96668 0.0
H2277 H 0.73072 0.75322 0.93968 0.0
H2278 H 0.69253 0.84469 0.96749 0.0
H2279 H 0.72447 0.88716 0.94052 0.0
H2280 H 0.72179 0.13049 0.9531 0.0
H2281 H 0.72806 0.99651 0.95244 0.0
H2282 H 0.67915 0.94187 0.95665 0.0
H2283 H 0.67286 0.07639 0.95732 0.0
C2284 C 0.70444 0.74827 0.96088 0.0
C2285 C 0.71531 0.72081 0.95313 0.0
C2286 C 0.70082 0.82527 0.96134 0.0
C2287 C 0.70799 0.87664 0.95406 0.0
C2288 C 0.71892 0.84928 0.94636 0.0
C2289 C 0.72253 0.77236 0.9459 0.0
C2290 C 0.71233 0.09009 0.95374 0.0
C2291 C 0.69679 0.11427 0.9552 0.0
C2292 C 0.71594 0.01315 0.95338 0.0
C2293 C 0.70411 0.95846 0.95448 0.0
C2294 C 0.68857 0.98256 0.95594 0.0
C2295 C 0.68495 0.0596 0.9563 0.0
H2296 H 0.04966 0.71371 0.77649 0.0
H2297 H 0.02086 0.7576 0.80514 0.0
H2298 H 0.05586 0.8479 0.77523 0.0
H2299 H 0.02702 0.89146 0.80385 0.0
H2300 H 0.07673 0.07998 0.78423 0.0
H2301 H 0.07045 0.9455 0.78521 0.0
H2302 H 0.02218 1.00068 0.7921 0.0
H2303 H 0.02844 0.13459 0.79109 0.0
C2304 C 0.04469 0.75174 0.78255 0.0
C2305 C 0.03472 0.72451 0.79091 0.0
C2306 C 0.04827 0.82874 0.78183 0.0
C2307 C 0.04195 0.88045 0.78944 0.0
C2308 C 0.0319 0.85336 0.79775 0.0
C2309 C 0.02834 0.77642 0.79847 0.0
C2310 C 0.06478 0.06334 0.78589 0.0
C2311 C 0.05314 0.1182 0.78766 0.0
C2312 C 0.06116 0.9863 0.78644 0.0
C2313 C 0.04581 0.96231 0.78876 0.0
C2314 C 0.03418 0.01718 0.79049 0.0
C2315 C 0.03779 0.09412 0.78994 0.0
H2316 H 0.6969 0.04031 0.77877 0.0
H2317 H 0.73042 0.99632 0.80473 0.0
H2318 H 0.6907 0.90591 0.77792 0.0
H2319 H 0.72427 0.86225 0.80384 0.0
H2320 H 0.721 0.62003 0.79089 0.0
H2321 H 0.72725 0.75413 0.79143 0.0
H2322 H 0.67804 0.80811 0.78926 0.0
H2323 H 0.67177 0.67352 0.78876 0.0
C2324 C 0.70289 0.00215 0.78433 0.0
C2325 C 0.71417 0.02926 0.79181 0.0
C2326 C 0.69933 0.92513 0.78385 0.0
C2327 C 0.70699 0.87348 0.79082 0.0
C2328 C 0.71833 0.90046 0.79824 0.0
C2329 C 0.72188 0.97741 0.79873 0.0
C2330 C 0.71148 0.66032 0.79068 0.0
C2331 C 0.69586 0.63601 0.78986 0.0
C2332 C 0.71508 0.73727 0.79095 0.0
C2333 C 0.70314 0.79173 0.79041 0.0
C2334 C 0.68752 0.76752 0.78954 0.0
C2335 C 0.68392 0.69048 0.78927 0.0
H2336 H 0.35873 0.57666 0.05477 0.0
H2337 H 0.33007 0.39901 0.04094 0.0
H2338 H 0.38127 0.49118 0.05476 0.0
H2339 H 0.35248 0.31404 0.041 0.0
H2340 H 0.39219 0.16557 0.05559 0.0
H2341 H 0.36978 0.25153 0.05569 0.0
H2342 H 0.39788 0.42365 0.03998 0.0
H2343 H 0.4202 0.33777 0.03977 0.0
C2344 C 0.35724 0.5195 0.05174 0.0
C2345 C 0.34264 0.49468 0.04782 0.0
C2346 C 0.37013 0.47079 0.05169 0.0
C2347 C 0.36857 0.3961 0.04789 0.0
C2348 C 0.35396 0.37118 0.04405 0.0
C2349 C 0.34116 0.42009 0.04395 0.0
C2350 C 0.39357 0.22167 0.05214 0.0
C2351 C 0.40795 0.24486 0.04766 0.0
C2352 C 0.38075 0.2707 0.05217 0.0
C2353 C 0.38215 0.34418 0.04787 0.0
C2354 C 0.39653 0.36751 0.04343 0.0
C2355 C 0.40928 0.31814 0.04325 0.0
H2356 H 0.833 0.90315 0.06837 0.0
H2357 H 0.83898 0.97734 0.0346 0.0
H2358 H 0.85769 0.83556 0.06743 0.0
H2359 H 0.86359 0.90734 0.03353 0.0
H2360 H 0.89127 0.64884 0.0582 0.0
H2361 H 0.86751 0.72407 0.05889 0.0
H2362 H 0.89025 0.90036 0.04005 0.0
H2363 H 0.91394 0.82365 0.03906 0.0
C2364 C 0.8396 0.90493 0.06073 0.0
C2365 C 0.83399 0.94508 0.05153 0.0
C2366 C 0.85372 0.86573 0.06017 0.0
C2367 C 0.86253 0.86502 0.05035 0.0
C2368 C 0.85715 0.90709 0.04124 0.0
C2369 C 0.84303 0.947 0.04184 0.0
C2370 C 0.89121 0.7036 0.05419 0.0
C2371 C 0.90449 0.7303 0.04859 0.0
C2372 C 0.87761 0.74704 0.05465 0.0
C2373 C 0.877 0.81865 0.04961 0.0
C2374 C 0.89026 0.84518 0.04393 0.0
C2375 C 0.90386 0.80134 0.0434 0.0
H2376 H 0.32801 0.84628 0.20283 0.0
H2377 H 0.35761 0.67146 0.18928 0.0
H2378 H 0.34997 0.93432 0.20261 0.0
H2379 H 0.3797 0.75968 0.1892 0.0
H2380 H 0.41756 0.91853 0.20449 0.0
H2381 H 0.39562 0.83052 0.20426 0.0
H2382 H 0.36731 0.99716 0.18755 0.0
H2383 H 0.38941 0.08529 0.18761 0.0
C2384 C 0.33922 0.82655 0.19986 0.0
C2385 C 0.34109 0.75192 0.1961 0.0
C2386 C 0.35175 0.87713 0.19966 0.0
C2387 C 0.36649 0.85373 0.19587 0.0
C2388 C 0.36845 0.77892 0.19221 0.0
C2389 C 0.35582 0.72862 0.19223 0.0
C2390 C 0.40669 0.93652 0.20076 0.0
C2391 C 0.40523 0.00888 0.19607 0.0
C2392 C 0.39416 0.88591 0.20058 0.0
C2393 C 0.37982 0.90709 0.19587 0.0
C2394 C 0.37825 0.97968 0.19128 0.0
C2395 C 0.3909 0.02992 0.19129 0.0
H2396 H 0.82759 0.40887 0.18409 0.0
H2397 H 0.84682 0.22807 0.20387 0.0
H2398 H 0.85253 0.47355 0.18446 0.0
H2399 H 0.8723 0.29115 0.20376 0.0
H2400 H 0.90172 0.54114 0.17722 0.0
H2401 H 0.8776 0.46866 0.17708 0.0
H2402 H 0.8866 0.39567 0.21062 0.0
H2403 H 0.91126 0.46545 0.21048 0.0
C2404 C 0.83724 0.38237 0.18841 0.0
C2405 C 0.83526 0.31322 0.19392 0.0
C2406 C 0.85164 0.41929 0.18855 0.0
C2407 C 0.86457 0.38735 0.19402 0.0
C2408 C 0.86258 0.31793 0.19956 0.0
C2409 C 0.84802 0.28148 0.19957 0.0
C2410 C 0.89855 0.50953 0.18456 0.0
C2411 C 0.90828 0.50954 0.1939 0.0
C2412 C 0.88466 0.4682 0.18452 0.0
C2413 C 0.87996 0.42699 0.1939 0.0
C2414 C 0.88987 0.42604 0.2032 0.0
C2415 C 0.90395 0.46645 0.20316 0.0
H2416 H 0.64211 0.40834 0.94126 0.0
H2417 H 0.67009 0.59509 0.9531 0.0
H2418 H 0.61916 0.49072 0.9407 0.0
H2419 H 0.64718 0.67706 0.9525 0.0
H2420 H 0.60624 0.81441 0.93735 0.0
H2421 H 0.6292 0.7319 0.93771 0.0
H2422 H 0.60238 0.56088 0.95473 0.0
H2423 H 0.57951 0.64308 0.95445 0.0
C2424 C 0.64336 0.46685 0.94374 0.0
C2425 C 0.6579 0.49512 0.94725 0.0
C2426 C 0.63022 0.51384 0.94346 0.0
C2427 C 0.63143 0.59021 0.94654 0.0
C2428 C 0.64597 0.61857 0.95 0.0
C2429 C 0.65905 0.5714 0.95041 0.0
C2430 C 0.60525 0.75922 0.94117 0.0
C2431 C 0.59107 0.73531 0.94588 0.0
C2432 C 0.6184 0.71221 0.94141 0.0
C2433 C 0.61753 0.64007 0.94624 0.0
C2434 C 0.60332 0.61597 0.95088 0.0
C2435 C 0.59026 0.66328 0.95076 0.0
H2436 H 0.1414 0.92278 0.93918 0.0
H2437 H 0.16956 0.08788 0.95644 0.0
H2438 H 0.11908 0.00904 0.93983 0.0
H2439 H 0.14731 0.17386 0.95702 0.0
H2440 H 0.109 0.33443 0.94312 0.0
H2441 H 0.13132 0.24802 0.94308 0.0
H2442 H 0.1014 0.06707 0.95437 0.0
H2443 H 0.07913 0.15309 0.95445 0.0
C2444 C 0.14283 0.9773 0.94312 0.0
C2445 C 0.15726 0.99849 0.94775 0.0
C2446 C 0.13004 0.02649 0.94353 0.0
C2447 C 0.1315 0.09813 0.94845 0.0
C2448 C 0.14591 0.11926 0.95308 0.0
C2449 C 0.15862 0.06978 0.9528 0.0
C2450 C 0.1072 0.27631 0.94564 0.0
C2451 C 0.0923 0.25062 0.94879 0.0
C2452 C 0.11998 0.22699 0.94565 0.0
C2453 C 0.11805 0.15087 0.94869 0.0
C2454 C 0.10318 0.12529 0.95189 0.0
C2455 C 0.09045 0.17475 0.952 0.0
H2456 H 0.64938 0.30575 0.81481 0.0
H2457 H 0.66084 0.20337 0.78344 0.0
H2458 H 0.62547 0.23216 0.81567 0.0
H2459 H 0.63636 0.13218 0.78395 0.0
H2460 H 0.59732 0.96574 0.79299 0.0
H2461 H 0.62236 0.03262 0.79234 0.0
H2462 H 0.6007 0.22648 0.80788 0.0
H2463 H 0.57616 0.15827 0.80903 0.0
C2464 C 0.64667 0.2681 0.80802 0.0
C2465 C 0.6569 0.26076 0.79902 0.0
C2466 C 0.63288 0.22607 0.80847 0.0
C2467 C 0.6288 0.17669 0.79981 0.0
C2468 C 0.63916 0.1689 0.79083 0.0
C2469 C 0.65314 0.21009 0.79048 0.0
C2470 C 0.59803 0.02251 0.79631 0.0
C2471 C 0.58489 0.05648 0.80118 0.0
C2472 C 0.61232 0.06112 0.79588 0.0
C2473 C 0.61365 0.13495 0.80014 0.0
C2474 C 0.60032 0.16906 0.8048 0.0
C2475 C 0.58618 0.13005 0.80542 0.0
H2476 H 0.10927 0.41943 0.79936 0.0
H2477 H 0.07887 0.60259 0.78946 0.0
H2478 H 0.13137 0.50715 0.79997 0.0
H2479 H 0.10092 0.68983 0.79011 0.0
H2480 H 0.14096 0.83166 0.80582 0.0
H2481 H 0.11882 0.74416 0.80498 0.0
H2482 H 0.14686 0.58653 0.78628 0.0
H2483 H 0.16887 0.67372 0.787 0.0
C2484 C 0.10731 0.47823 0.79728 0.0
C2485 C 0.09233 0.50396 0.79433 0.0
C2486 C 0.11996 0.52832 0.7976 0.0
C2487 C 0.11782 0.60525 0.79512 0.0
C2488 C 0.10286 0.63095 0.79216 0.0
C2489 C 0.09027 0.58076 0.7917 0.0
C2490 C 0.14239 0.77842 0.80151 0.0
C2491 C 0.15669 0.75965 0.79649 0.0
C2492 C 0.12971 0.72853 0.801 0.0
C2493 C 0.13117 0.65856 0.79559 0.0
C2494 C 0.14546 0.63976 0.7906 0.0
C2495 C 0.15805 0.68996 0.79098 0.0
H2496 H 0.41968 0.83909 0.53781 0.0
H2497 H 0.39113 0.6671 0.55321 0.0
H2498 H 0.39719 0.92376 0.53717 0.0
H2499 H 0.36857 0.75196 0.55248 0.0
H2500 H 0.32906 0.89868 0.53764 0.0
H2501 H 0.35159 0.8141 0.53762 0.0
H2502 H 0.38022 0.99152 0.55147 0.0
H2503 H 0.35766 0.07638 0.55155 0.0
C2504 C 0.4086 0.8192 0.54101 0.0
C2505 C 0.40719 0.74641 0.54557 0.0
C2506 C 0.39576 0.86787 0.54069 0.0
C2507 C 0.38118 0.84436 0.54479 0.0
C2508 C 0.37967 0.77123 0.5492 0.0
C2509 C 0.39259 0.72287 0.54966 0.0
C2510 C 0.34016 0.91991 0.54062 0.0
C2511 C 0.34158 0.99428 0.5446 0.0
C2512 C 0.35302 0.87126 0.54068 0.0
C2513 C 0.36761 0.8963 0.54457 0.0
C2514 C 0.36912 0.971 0.54836 0.0
C2515 C 0.35619 0.01939 0.54845 0.0
H2516 H 0.84881 0.55195 0.56617 0.0
H2517 H 0.83839 0.4659 0.53358 0.0
H2518 H 0.87241 0.47586 0.56676 0.0
H2519 H 0.86253 0.39213 0.5339 0.0
H2520 H 0.90085 0.21944 0.54199 0.0
H2521 H 0.87591 0.28738 0.54168 0.0
H2522 H 0.89747 0.47348 0.55918 0.0
H2523 H 0.92192 0.40437 0.55992 0.0
C2524 C 0.85167 0.51732 0.55907 0.0
C2525 C 0.84184 0.51549 0.54978 0.0
C2526 C 0.86527 0.47386 0.55937 0.0
C2527 C 0.86956 0.42842 0.55032 0.0
C2528 C 0.85956 0.42579 0.54107 0.0
C2529 C 0.84578 0.46851 0.54084 0.0
C2530 C 0.90015 0.2747 0.54581 0.0
C2531 C 0.91325 0.30623 0.55109 0.0
C2532 C 0.88591 0.3139 0.54558 0.0
C2533 C 0.88459 0.38585 0.55049 0.0
C2534 C 0.89786 0.41747 0.55559 0.0
C2535 C 0.91194 0.37792 0.55597 0.0
H2536 H 0.33576 0.34488 0.67661 0.0
H2537 H 0.34228 0.2616 0.70987 0.0
H2538 H 0.35985 0.41692 0.67805 0.0
H2539 H 0.36635 0.33572 0.71143 0.0
H2540 H 0.39175 0.60671 0.68839 0.0
H2541 H 0.36846 0.52806 0.68765 0.0
H2542 H 0.39312 0.34924 0.70465 0.0
H2543 H 0.4164 0.4291 0.70566 0.0
C2544 C 0.34235 0.34191 0.68424 0.0
C2545 C 0.33705 0.29799 0.69316 0.0
C2546 C 0.35613 0.38368 0.6851 0.0
C2547 C 0.36491 0.38308 0.69492 0.0
C2548 C 0.35989 0.33716 0.70373 0.0
C2549 C 0.34609 0.29486 0.70285 0.0
C2550 C 0.39221 0.55074 0.69201 0.0
C2551 C 0.40594 0.52405 0.69704 0.0
C2552 C 0.37888 0.5054 0.69152 0.0
C2553 C 0.37898 0.43194 0.69596 0.0
C2554 C 0.39262 0.40571 0.70121 0.0
C2555 C 0.40597 0.45138 0.70176 0.0
H2556 H 0.83006 0.84074 0.70306 0.0
H2557 H 0.85764 0.66391 0.68797 0.0
H2558 H 0.85265 0.92479 0.70266 0.0
H2559 H 0.88031 0.74832 0.68764 0.0
H2560 H 0.92034 0.89547 0.7023 0.0
H2561 H 0.89771 0.81165 0.70221 0.0
H2562 H 0.8696 0.98913 0.68787 0.0
H2563 H 0.89232 0.07338 0.6879 0.0
C2564 C 0.84095 0.81965 0.6997 0.0
C2565 C 0.84208 0.74553 0.69558 0.0
C2566 C 0.85384 0.86805 0.6994 0.0
C2567 C 0.8682 0.84302 0.69511 0.0
C2568 C 0.86939 0.76882 0.69105 0.0
C2569 C 0.85641 0.72069 0.6912 0.0
C2570 C 0.90935 0.91684 0.69916 0.0
C2571 C 0.90811 0.9912 0.69515 0.0
C2572 C 0.89643 0.86857 0.69903 0.0
C2573 C 0.88194 0.89395 0.69502 0.0
C2574 C 0.88064 0.96838 0.69106 0.0
C2575 C 0.89364 0.0164 0.69104 0.0
H2576 H 0.65912 0.01487 0.4593 0.0
H2577 H 0.66647 0.10153 0.4263 0.0
H2578 H 0.63439 0.0836 0.46038 0.0
H2579 H 0.64165 0.16819 0.42725 0.0
H2580 H 0.60721 0.3496 0.43741 0.0
H2581 H 0.63122 0.27621 0.43665 0.0
H2582 H 0.60802 0.09046 0.4531 0.0
H2583 H 0.58404 0.16493 0.45414 0.0
C2584 C 0.65536 0.04778 0.45223 0.0
C2585 C 0.6648 0.05335 0.44275 0.0
C2586 C 0.64117 0.08694 0.45283 0.0
C2587 C 0.63612 0.13205 0.44394 0.0
C2588 C 0.64536 0.13539 0.43434 0.0
C2589 C 0.65955 0.09673 0.43377 0.0
C2590 C 0.60721 0.29315 0.44088 0.0
C2591 C 0.59371 0.26305 0.44581 0.0
C2592 C 0.62096 0.25084 0.44038 0.0
C2593 C 0.62151 0.17716 0.44473 0.0
C2594 C 0.60803 0.14727 0.44976 0.0
C2595 C 0.59428 0.18986 0.45032 0.0
H2596 H 0.07636 0.6574 0.45323 0.0
H2597 H 0.10537 0.83653 0.44018 0.0
H2598 H 0.09879 0.57215 0.45313 0.0
H2599 H 0.12786 0.75101 0.44016 0.0
H2600 H 0.16665 0.59662 0.45468 0.0
H2601 H 0.14422 0.68167 0.45475 0.0
H2602 H 0.11642 0.51149 0.43836 0.0
H2603 H 0.13897 0.42623 0.43817 0.0
C2604 C 0.08753 0.67876 0.4504 0.0
C2605 C 0.08911 0.75382 0.44674 0.0
C2606 C 0.10034 0.62972 0.45027 0.0
C2607 C 0.11502 0.65502 0.44662 0.0
C2608 C 0.11667 0.73025 0.44307 0.0
C2609 C 0.1038 0.77904 0.44305 0.0
C2610 C 0.15577 0.5772 0.4511 0.0
C2611 C 0.15459 0.50467 0.44642 0.0
C2612 C 0.14296 0.62611 0.45109 0.0
C2613 C 0.12862 0.60313 0.44655 0.0
C2614 C 0.12734 0.53037 0.44197 0.0
C2615 C 0.14025 0.48178 0.44183 0.0
H2616 H 0.60739 0.39569 0.30225 0.0
H2617 H 0.58358 0.58923 0.28837 0.0
H2618 H 0.63168 0.4669 0.30275 0.0
H2619 H 0.60797 0.6614 0.28911 0.0
H2620 H 0.65947 0.73728 0.28273 0.0
H2621 H 0.63449 0.67022 0.28122 0.0
H2622 H 0.64217 0.57056 0.31337 0.0
H2623 H 0.66707 0.63569 0.31478 0.0
C2624 C 0.60733 0.45356 0.29933 0.0
C2625 C 0.59352 0.48692 0.29535 0.0
C2626 C 0.62125 0.49456 0.29967 0.0
C2627 C 0.62172 0.57017 0.29611 0.0
C2628 C 0.608 0.60314 0.29187 0.0
C2629 C 0.59403 0.56188 0.29148 0.0
C2630 C 0.65575 0.7013 0.28948 0.0
C2631 C 0.66532 0.69119 0.29882 0.0
C2632 C 0.64143 0.66312 0.28863 0.0
C2633 C 0.63645 0.61429 0.29711 0.0
C2634 C 0.64583 0.60631 0.30658 0.0
C2635 C 0.66009 0.64409 0.30741 0.0
H2636 H 0.14193 0.33331 0.30729 0.0
H2637 H 0.16965 0.16073 0.29132 0.0
H2638 H 0.11929 0.24851 0.30712 0.0
H2639 H 0.14713 0.07617 0.29127 0.0
H2640 H 0.10755 0.92359 0.30521 0.0
H2641 H 0.13016 0.0084 0.30578 0.0
H2642 H 0.10204 0.18805 0.29204 0.0
H2643 H 0.07951 0.10358 0.29139 0.0
C2644 C 0.1432 0.27734 0.30377 0.0
C2645 C 0.15756 0.25375 0.2993 0.0
C2646 C 0.13025 0.22901 0.30364 0.0
C2647 C 0.1315 0.15586 0.2992 0.0
C2648 C 0.14589 0.13206 0.29483 0.0
C2649 C 0.15875 0.18069 0.2948 0.0
C2650 C 0.10621 0.98115 0.3023 0.0
C2651 C 0.09178 0.00678 0.2982 0.0
C2652 C 0.11914 0.02951 0.3026 0.0
C2653 C 0.1178 0.1047 0.29897 0.0
C2654 C 0.10335 0.13051 0.29497 0.0
C2655 C 0.09049 0.0819 0.29451 0.0
loop_
_geom_bond_atom_site_label_1
_geom_bond_atom_site_label_2
_geom_bond_distance
_geom_bond_site_symmetry_2
_ccdc_geom_bond_type
Co0 N4 2.148 . S
Co0 N10 2.128 . S
Co0 N20 2.194 . S
Co0 O25 2.351 . S
Co0 O26 2.155 . S
Co0 O27 2.096 . S
C1 N4 1.301 . S
C1 N5 1.328 1_545 S
C1 H6 0.930 . S
C2 C3 1.333 1_545 S
C2 N4 1.317 . S
C2 H7 0.930 . S
C3 C2 1.333 1_565 S
C3 N5 1.350 . S
C3 H29 0.931 . S
N4 Co0 2.148 . S
N4 C1 1.301 . S
N4 C2 1.317 . S
N5 C1 1.328 1_565 S
N5 C3 1.350 . S
H6 C1 0.930 . S
H7 C2 0.930 . S
C8 O9 1.224 . S
C8 O27 1.247 . S
O9 C8 1.224 . S
N10 Co0 2.128 . S
N10 C11 1.355 . S
N10 C13 1.311 . S
C11 N10 1.355 . S
C11 C12 1.363 . S
C11 H23 0.929 . S
C12 C11 1.363 . S
C12 N14 1.375 . S
C12 H30 0.931 . S
C13 N10 1.311 . S
C13 N14 1.347 . S
C13 H24 0.929 . S
N14 C12 1.375 . S
N14 C13 1.347 . S
C15 C18 1.365 . S
C15 N20 1.328 . S
C15 H21 0.929 . S
C16 C17 1.362 . S
C16 C19 1.378 . S
C16 H31 0.929 . S
C17 C16 1.362 . S
C17 C18 1.366 . S
C18 C15 1.365 . S
C18 C17 1.366 . S
C18 H32 0.930 . S
C19 C16 1.378 . S
C19 N20 1.315 . S
C19 H22 0.930 . S
N20 Co0 2.194 . S
N20 C15 1.328 . S
N20 C19 1.315 . S
H21 C15 0.929 . S
H22 C19 0.930 . S
H23 C11 0.929 . S
H24 C13 0.929 . S
O25 Co0 2.351 . S
O25 C28 1.244 . S
O26 Co0 2.155 . S
O26 C28 1.240 . S
O27 Co0 2.096 . S
O27 C8 1.247 . S
C28 O25 1.244 . S
C28 O26 1.240 . S
H29 C3 0.931 . S
H30 C12 0.931 . S
H31 C16 0.929 . S
H32 C18 0.930 . S
Co33 N37 2.148 . S
Co33 N43 2.128 1_545 S
Co33 N53 2.194 . S
Co33 O58 2.351 . S
Co33 O59 2.155 . S
Co33 O60 2.096 . S
C34 N37 1.301 . S
C34 N38 1.328 . S
C34 H39 0.930 . S
C35 C36 1.333 . S
C35 N37 1.317 . S
C35 H40 0.930 . S
C36 C35 1.333 . S
C36 N38 1.350 . S
C36 H62 0.931 . S
N37 Co33 2.148 . S
N37 C34 1.301 . S
N37 C35 1.317 . S
N38 C34 1.328 . S
N38 C36 1.350 . S
H39 C34 0.930 . S
H40 C35 0.930 . S
C41 O42 1.224 . S
C41 O60 1.247 . S
O42 C41 1.224 . S
N43 Co33 2.128 1_565 S
N43 C44 1.355 . S
N43 C46 1.311 . S
C44 N43 1.355 . S
C44 C45 1.363 . S
C44 H56 0.929 . S
C45 C44 1.363 . S
C45 N47 1.375 . S
C45 H63 0.931 . S
C46 N43 1.311 . S
C46 N47 1.347 . S
C46 H57 0.929 . S
N47 C45 1.375 . S
N47 C46 1.347 . S
C48 C51 1.365 . S
C48 N53 1.328 . S
C48 H54 0.929 . S
C49 C50 1.362 . S
C49 C52 1.378 . S
C49 H64 0.929 . S
C50 C49 1.362 . S
C50 C51 1.366 . S
C51 C48 1.365 . S
C51 C50 1.366 . S
C51 H65 0.930 . S
C52 C49 1.378 . S
C52 N53 1.315 . S
C52 H55 0.930 . S
N53 Co33 2.194 . S
N53 C48 1.328 . S
N53 C52 1.315 . S
H54 C48 0.929 . S
H55 C52 0.930 . S
H56 C44 0.929 . S
H57 C46 0.929 . S
O58 Co33 2.351 . S
O58 C61 1.244 . S
O59 Co33 2.155 . S
O59 C61 1.240 . S
O60 Co33 2.096 . S
O60 C41 1.247 . S
C61 O58 1.244 . S
C61 O59 1.240 . S
H62 C36 0.931 . S
H63 C45 0.931 . S
H64 C49 0.929 . S
H65 C51 0.930 . S
Co66 N70 2.148 . S
Co66 N76 2.128 1_545 S
Co66 N86 2.194 . S
Co66 O91 2.351 . S
Co66 O92 2.155 . S
Co66 O93 2.096 . S
C67 N70 1.301 . S
C67 N71 1.328 . S
C67 H72 0.930 . S
C68 C69 1.333 . S
C68 N70 1.317 . S
C68 H73 0.930 . S
C69 C68 1.333 . S
C69 N71 1.350 . S
C69 H95 0.931 . S
N70 Co66 2.148 . S
N70 C67 1.301 . S
N70 C68 1.317 . S
N71 C67 1.328 . S
N71 C69 1.350 . S
H72 C67 0.930 . S
H73 C68 0.930 . S
C74 O75 1.224 . S
C74 O93 1.247 . S
O75 C74 1.224 . S
N76 Co66 2.128 1_565 S
N76 C77 1.355 . S
N76 C79 1.311 . S
C77 N76 1.355 . S
C77 C78 1.363 . S
C77 H89 0.929 . S
C78 C77 1.363 . S
C78 N80 1.375 . S
C78 H96 0.931 . S
C79 N76 1.311 . S
C79 N80 1.347 . S
C79 H90 0.929 . S
N80 C78 1.375 . S
N80 C79 1.347 . S
C81 C84 1.365 . S
C81 N86 1.328 . S
C81 H87 0.929 . S
C82 C83 1.362 . S
C82 C85 1.378 . S
C82 H97 0.929 . S
C83 C82 1.362 . S
C83 C84 1.366 . S
C84 C81 1.365 . S
C84 C83 1.366 . S
C84 H98 0.930 . S
C85 C82 1.378 . S
C85 N86 1.315 . S
C85 H88 0.930 . S
N86 Co66 2.194 . S
N86 C81 1.328 . S
N86 C85 1.315 . S
H87 C81 0.929 . S
H88 C85 0.930 . S
H89 C77 0.929 . S
H90 C79 0.929 . S
O91 Co66 2.351 . S
O91 C94 1.244 . S
O92 Co66 2.155 . S
O92 C94 1.240 . S
O93 Co66 2.096 . S
O93 C74 1.247 . S
C94 O91 1.244 . S
C94 O92 1.240 . S
H95 C69 0.931 . S
H96 C78 0.931 . S
H97 C82 0.929 . S
H98 C84 0.930 . S
Co99 N103 2.148 . S
Co99 N109 2.128 . S
Co99 N119 2.194 . S
Co99 O124 2.351 . S
Co99 O125 2.155 . S
Co99 O126 2.096 . S
C100 N103 1.301 . S
C100 N104 1.328 1_545 S
C100 H105 0.930 . S
C101 C102 1.333 1_545 S
C101 N103 1.317 . S
C101 H106 0.930 . S
C102 C101 1.333 1_565 S
C102 N104 1.350 . S
C102 H128 0.931 . S
N103 Co99 2.148 . S
N103 C100 1.301 . S
N103 C101 1.317 . S
N104 C100 1.328 1_565 S
N104 C102 1.350 . S
H105 C100 0.930 . S
H106 C101 0.930 . S
C107 O108 1.224 . S
C107 O126 1.247 . S
O108 C107 1.224 . S
N109 Co99 2.128 . S
N109 C110 1.355 . S
N109 C112 1.311 . S
C110 N109 1.355 . S
C110 C111 1.363 . S
C110 H122 0.929 . S
C111 C110 1.363 . S
C111 N113 1.375 . S
C111 H129 0.931 . S
C112 N109 1.311 . S
C112 N113 1.347 . S
C112 H123 0.929 . S
N113 C111 1.375 . S
N113 C112 1.347 . S
C114 C117 1.365 . S
C114 N119 1.328 . S
C114 H120 0.929 . S
C115 C116 1.362 . S
C115 C118 1.378 . S
C115 H130 0.929 . S
C116 C115 1.362 . S
C116 C117 1.366 . S
C117 C114 1.365 . S
C117 C116 1.366 . S
C117 H131 0.930 . S
C118 C115 1.378 . S
C118 N119 1.315 . S
C118 H121 0.930 . S
N119 Co99 2.194 . S
N119 C114 1.328 . S
N119 C118 1.315 . S
H120 C114 0.929 . S
H121 C118 0.930 . S
H122 C110 0.929 . S
H123 C112 0.929 . S
O124 Co99 2.351 . S
O124 C127 1.244 . S
O125 Co99 2.155 . S
O125 C127 1.240 . S
O126 Co99 2.096 . S
O126 C107 1.247 . S
C127 O124 1.244 . S
C127 O125 1.240 . S
H128 C102 0.931 . S
H129 C111 0.931 . S
H130 C115 0.929 . S
H131 C117 0.930 . S
Co132 N136 2.148 . S
Co132 N142 2.128 . S
Co132 N152 2.194 . S
Co132 O157 2.351 . S
Co132 O158 2.155 . S
Co132 O159 2.096 . S
C133 N136 1.301 . S
C133 N137 1.328 1_565 S
C133 H138 0.930 . S
C134 C135 1.333 1_565 S
C134 N136 1.317 . S
C134 H139 0.930 . S
C135 C134 1.333 1_545 S
C135 N137 1.350 . S
C135 H161 0.931 . S
N136 Co132 2.148 . S
N136 C133 1.301 . S
N136 C134 1.317 . S
N137 C133 1.328 1_545 S
N137 C135 1.350 . S
H138 C133 0.930 . S
H139 C134 0.930 . S
C140 O141 1.224 . S
C140 O159 1.247 . S
O141 C140 1.224 . S
N142 Co132 2.128 . S
N142 C143 1.355 . S
N142 C145 1.311 . S
C143 N142 1.355 . S
C143 C144 1.363 . S
C143 H155 0.929 . S
C144 C143 1.363 . S
C144 N146 1.375 . S
C144 H162 0.931 . S
C145 N142 1.311 . S
C145 N146 1.347 . S
C145 H156 0.929 . S
N146 C144 1.375 . S
N146 C145 1.347 . S
C147 C150 1.365 . S
C147 N152 1.328 . S
C147 H153 0.929 . S
C148 C149 1.362 . S
C148 C151 1.378 . S
C148 H163 0.929 . S
C149 C148 1.362 . S
C149 C150 1.366 . S
C150 C147 1.365 . S
C150 C149 1.366 . S
C150 H164 0.930 . S
C151 C148 1.378 . S
C151 N152 1.315 . S
C151 H154 0.930 . S
N152 Co132 2.194 . S
N152 C147 1.328 . S
N152 C151 1.315 . S
H153 C147 0.929 . S
H154 C151 0.930 . S
H155 C143 0.929 . S
H156 C145 0.929 . S
O157 Co132 2.351 . S
O157 C160 1.244 . S
O158 Co132 2.155 . S
O158 C160 1.240 . S
O159 Co132 2.096 . S
O159 C140 1.247 . S
C160 O157 1.244 . S
C160 O158 1.240 . S
H161 C135 0.931 . S
H162 C144 0.931 . S
H163 C148 0.929 . S
H164 C150 0.930 . S
Co165 N169 2.148 . S
Co165 N175 2.128 1_565 S
Co165 N185 2.194 . S
Co165 O190 2.351 . S
Co165 O191 2.155 . S
Co165 O192 2.096 . S
C166 N169 1.301 . S
C166 N170 1.328 . S
C166 H171 0.930 . S
C167 C168 1.333 . S
C167 N169 1.317 . S
C167 H172 0.930 . S
C168 C167 1.333 . S
C168 N170 1.350 . S
C168 H194 0.931 . S
N169 Co165 2.148 . S
N169 C166 1.301 . S
N169 C167 1.317 . S
N170 C166 1.328 . S
N170 C168 1.350 . S
H171 C166 0.930 . S
H172 C167 0.930 . S
C173 O174 1.224 . S
C173 O192 1.247 . S
O174 C173 1.224 . S
N175 Co165 2.128 1_545 S
N175 C176 1.355 . S
N175 C178 1.311 . S
C176 N175 1.355 . S
C176 C177 1.363 . S
C176 H188 0.929 . S
C177 C176 1.363 . S
C177 N179 1.375 . S
C177 H195 0.931 . S
C178 N175 1.311 . S
C178 N179 1.347 . S
C178 H189 0.929 . S
N179 C177 1.375 . S
N179 C178 1.347 . S
C180 C183 1.365 . S
C180 N185 1.328 . S
C180 H186 0.929 . S
C181 C182 1.362 . S
C181 C184 1.378 . S
C181 H196 0.929 . S
C182 C181 1.362 . S
C182 C183 1.366 . S
C183 C180 1.365 . S
C183 C182 1.366 . S
C183 H197 0.930 . S
C184 C181 1.378 . S
C184 N185 1.315 . S
C184 H187 0.930 . S
N185 Co165 2.194 . S
N185 C180 1.328 . S
N185 C184 1.315 . S
H186 C180 0.929 . S
H187 C184 0.930 . S
H188 C176 0.929 . S
H189 C178 0.929 . S
O190 Co165 2.351 . S
O190 C193 1.244 . S
O191 Co165 2.155 . S
O191 C193 1.240 . S
O192 Co165 2.096 . S
O192 C173 1.247 . S
C193 O190 1.244 . S
C193 O191 1.240 . S
H194 C168 0.931 . S
H195 C177 0.931 . S
H196 C181 0.929 . S
H197 C183 0.930 . S
Co198 N202 2.148 . S
Co198 N208 2.128 1_565 S
Co198 N218 2.194 . S
Co198 O223 2.351 . S
Co198 O224 2.155 . S
Co198 O225 2.096 . S
C199 N202 1.301 . S
C199 N203 1.328 . S
C199 H204 0.930 . S
C200 C201 1.333 . S
C200 N202 1.317 . S
C200 H205 0.930 . S
C201 C200 1.333 . S
C201 N203 1.350 . S
C201 H227 0.931 . S
N202 Co198 2.148 . S
N202 C199 1.301 . S
N202 C200 1.317 . S
N203 C199 1.328 . S
N203 C201 1.350 . S
H204 C199 0.930 . S
H205 C200 0.930 . S
C206 O207 1.224 . S
C206 O225 1.247 . S
O207 C206 1.224 . S
N208 Co198 2.128 1_545 S
N208 C209 1.355 . S
N208 C211 1.311 . S
C209 N208 1.355 . S
C209 C210 1.363 . S
C209 H221 0.929 . S
C210 C209 1.363 . S
C210 N212 1.375 . S
C210 H228 0.931 . S
C211 N208 1.311 . S
C211 N212 1.347 . S
C211 H222 0.929 . S
N212 C210 1.375 . S
N212 C211 1.347 . S
C213 C216 1.365 . S
C213 N218 1.328 . S
C213 H219 0.929 . S
C214 C215 1.362 . S
C214 C217 1.378 . S
C214 H229 0.929 . S
C215 C214 1.362 . S
C215 C216 1.366 . S
C216 C213 1.365 . S
C216 C215 1.366 . S
C216 H230 0.930 . S
C217 C214 1.378 . S
C217 N218 1.315 . S
C217 H220 0.930 . S
N218 Co198 2.194 . S
N218 C213 1.328 . S
N218 C217 1.315 . S
H219 C213 0.929 . S
H220 C217 0.930 . S
H221 C209 0.929 . S
H222 C211 0.929 . S
O223 Co198 2.351 . S
O223 C226 1.244 . S
O224 Co198 2.155 . S
O224 C226 1.240 . S
O225 Co198 2.096 . S
O225 C206 1.247 . S
C226 O223 1.244 . S
C226 O224 1.240 . S
H227 C201 0.931 . S
H228 C210 0.931 . S
H229 C214 0.929 . S
H230 C216 0.930 . S
Co231 N235 2.148 . S
Co231 N241 2.128 . S
Co231 N251 2.194 . S
Co231 O256 2.351 . S
Co231 O257 2.155 . S
Co231 O258 2.096 . S
C232 N235 1.301 . S
C232 N236 1.328 1_565 S
C232 H237 0.930 . S
C233 C234 1.333 1_565 S
C233 N235 1.317 . S
C233 H238 0.930 . S
C234 C233 1.333 1_545 S
C234 N236 1.350 . S
C234 H260 0.931 . S
N235 Co231 2.148 . S
N235 C232 1.301 . S
N235 C233 1.317 . S
N236 C232 1.328 1_545 S
N236 C234 1.350 . S
H237 C232 0.930 . S
H238 C233 0.930 . S
C239 O240 1.224 . S
C239 O258 1.247 . S
O240 C239 1.224 . S
N241 Co231 2.128 . S
N241 C242 1.355 . S
N241 C244 1.311 . S
C242 N241 1.355 . S
C242 C243 1.363 . S
C242 H254 0.929 . S
C243 C242 1.363 . S
C243 N245 1.375 . S
C243 H261 0.931 . S
C244 N241 1.311 . S
C244 N245 1.347 . S
C244 H255 0.929 . S
N245 C243 1.375 . S
N245 C244 1.347 . S
C246 C249 1.365 . S
C246 N251 1.328 . S
C246 H252 0.929 . S
C247 C248 1.362 . S
C247 C250 1.378 . S
C247 H262 0.929 . S
C248 C247 1.362 . S
C248 C249 1.366 . S
C249 C246 1.365 . S
C249 C248 1.366 . S
C249 H263 0.930 . S
C250 C247 1.378 . S
C250 N251 1.315 . S
C250 H253 0.930 . S
N251 Co231 2.194 . S
N251 C246 1.328 . S
N251 C250 1.315 . S
H252 C246 0.929 . S
H253 C250 0.930 . S
H254 C242 0.929 . S
H255 C244 0.929 . S
O256 Co231 2.351 . S
O256 C259 1.244 . S
O257 Co231 2.155 . S
O257 C259 1.240 . S
O258 Co231 2.096 . S
O258 C239 1.247 . S
C259 O256 1.244 . S
C259 O257 1.240 . S
H260 C234 0.931 . S
H261 C243 0.931 . S
H262 C247 0.929 . S
H263 C249 0.930 . S
Co264 N268 2.148 . S
Co264 N274 2.128 . S
Co264 N284 2.194 . S
Co264 O289 2.351 . S
Co264 O290 2.155 . S
Co264 O291 2.096 . S
C265 N268 1.301 . S
C265 N269 1.328 . S
C265 H270 0.930 . S
C266 C267 1.333 . S
C266 N268 1.317 . S
C266 H271 0.930 . S
C267 C266 1.333 . S
C267 N269 1.350 . S
C267 H293 0.931 . S
N268 Co264 2.148 . S
N268 C265 1.301 . S
N268 C266 1.317 . S
N269 C265 1.328 . S
N269 C267 1.350 . S
H270 C265 0.930 . S
H271 C266 0.930 . S
C272 O273 1.224 . S
C272 O291 1.247 . S
O273 C272 1.224 . S
N274 Co264 2.128 . S
N274 C275 1.355 . S
N274 C277 1.311 . S
C275 N274 1.355 . S
C275 C276 1.363 . S
C275 H287 0.929 . S
C276 C275 1.363 . S
C276 N278 1.375 . S
C276 H294 0.931 . S
C277 N274 1.311 . S
C277 N278 1.347 . S
C277 H288 0.929 . S
N278 C276 1.375 . S
N278 C277 1.347 . S
C279 C282 1.365 . S
C279 N284 1.328 . S
C279 H285 0.929 . S
C280 C281 1.362 . S
C280 C283 1.378 . S
C280 H295 0.929 . S
C281 C280 1.362 . S
C281 C282 1.366 . S
C282 C279 1.365 . S
C282 C281 1.366 . S
C282 H296 0.930 . S
C283 C280 1.378 . S
C283 N284 1.315 . S
C283 H286 0.930 . S
N284 Co264 2.194 . S
N284 C279 1.328 . S
N284 C283 1.315 . S
H285 C279 0.929 . S
H286 C283 0.930 . S
H287 C275 0.929 . S
H288 C277 0.929 . S
O289 Co264 2.351 . S
O289 C292 1.244 . S
O290 Co264 2.155 . S
O290 C292 1.240 . S
O291 Co264 2.096 . S
O291 C272 1.247 . S
C292 O289 1.244 . S
C292 O290 1.240 . S
H293 C267 0.931 . S
H294 C276 0.931 . S
H295 C280 0.929 . S
H296 C282 0.930 . S
Co297 N301 2.148 . S
Co297 N307 2.128 . S
Co297 N317 2.194 . S
Co297 O322 2.351 . S
Co297 O323 2.155 . S
Co297 O324 2.096 . S
C298 N301 1.301 . S
C298 N302 1.328 . S
C298 H303 0.930 . S
C299 C300 1.333 . S
C299 N301 1.317 . S
C299 H304 0.930 . S
C300 C299 1.333 . S
C300 N302 1.350 . S
C300 H326 0.931 . S
N301 Co297 2.148 . S
N301 C298 1.301 . S
N301 C299 1.317 . S
N302 C298 1.328 . S
N302 C300 1.350 . S
H303 C298 0.930 . S
H304 C299 0.930 . S
C305 O306 1.224 . S
C305 O324 1.247 . S
O306 C305 1.224 . S
N307 Co297 2.128 . S
N307 C308 1.355 . S
N307 C310 1.311 . S
C308 N307 1.355 . S
C308 C309 1.363 . S
C308 H320 0.929 . S
C309 C308 1.363 . S
C309 N311 1.375 . S
C309 H327 0.931 . S
C310 N307 1.311 . S
C310 N311 1.347 . S
C310 H321 0.929 . S
N311 C309 1.375 . S
N311 C310 1.347 . S
C312 C315 1.365 . S
C312 N317 1.328 . S
C312 H318 0.929 . S
C313 C314 1.362 . S
C313 C316 1.378 . S
C313 H328 0.929 . S
C314 C313 1.362 . S
C314 C315 1.366 . S
C315 C312 1.365 . S
C315 C314 1.366 . S
C315 H329 0.930 . S
C316 C313 1.378 . S
C316 N317 1.315 . S
C316 H319 0.930 . S
N317 Co297 2.194 . S
N317 C312 1.328 . S
N317 C316 1.315 . S
H318 C312 0.929 . S
H319 C316 0.930 . S
H320 C308 0.929 . S
H321 C310 0.929 . S
O322 Co297 2.351 . S
O322 C325 1.244 . S
O323 Co297 2.155 . S
O323 C325 1.240 . S
O324 Co297 2.096 . S
O324 C305 1.247 . S
C325 O322 1.244 . S
C325 O323 1.240 . S
H326 C300 0.931 . S
H327 C309 0.931 . S
H328 C313 0.929 . S
H329 C315 0.930 . S
Co330 N334 2.148 . S
Co330 N340 2.128 . S
Co330 N350 2.194 . S
Co330 O355 2.351 . S
Co330 O356 2.155 . S
Co330 O357 2.096 . S
C331 N334 1.301 . S
C331 N335 1.328 . S
C331 H336 0.930 . S
C332 C333 1.333 . S
C332 N334 1.317 . S
C332 H337 0.930 . S
C333 C332 1.333 . S
C333 N335 1.350 . S
C333 H359 0.931 . S
N334 Co330 2.148 . S
N334 C331 1.301 . S
N334 C332 1.317 . S
N335 C331 1.328 . S
N335 C333 1.350 . S
H336 C331 0.930 . S
H337 C332 0.930 . S
C338 O339 1.224 . S
C338 O357 1.247 . S
O339 C338 1.224 . S
N340 Co330 2.128 . S
N340 C341 1.355 . S
N340 C343 1.311 . S
C341 N340 1.355 . S
C341 C342 1.363 . S
C341 H353 0.929 . S
C342 C341 1.363 . S
C342 N344 1.375 . S
C342 H360 0.931 . S
C343 N340 1.311 . S
C343 N344 1.347 . S
C343 H354 0.929 . S
N344 C342 1.375 . S
N344 C343 1.347 . S
C345 C348 1.365 . S
C345 N350 1.328 . S
C345 H351 0.929 . S
C346 C347 1.362 . S
C346 C349 1.378 . S
C346 H361 0.929 . S
C347 C346 1.362 . S
C347 C348 1.366 . S
C348 C345 1.365 . S
C348 C347 1.366 . S
C348 H362 0.930 . S
C349 C346 1.378 . S
C349 N350 1.315 . S
C349 H352 0.930 . S
N350 Co330 2.194 . S
N350 C345 1.328 . S
N350 C349 1.315 . S
H351 C345 0.929 . S
H352 C349 0.930 . S
H353 C341 0.929 . S
H354 C343 0.929 . S
O355 Co330 2.351 . S
O355 C358 1.244 . S
O356 Co330 2.155 . S
O356 C358 1.240 . S
O357 Co330 2.096 . S
O357 C338 1.247 . S
C358 O355 1.244 . S
C358 O356 1.240 . S
H359 C333 0.931 . S
H360 C342 0.931 . S
H361 C346 0.929 . S
H362 C348 0.930 . S
Co363 N367 2.148 . S
Co363 N373 2.128 . S
Co363 N383 2.194 . S
Co363 O388 2.351 . S
Co363 O389 2.155 . S
Co363 O390 2.096 . S
C364 N367 1.301 . S
C364 N368 1.328 . S
C364 H369 0.930 . S
C365 C366 1.333 . S
C365 N367 1.317 . S
C365 H370 0.930 . S
C366 C365 1.333 . S
C366 N368 1.350 . S
C366 H392 0.931 . S
N367 Co363 2.148 . S
N367 C364 1.301 . S
N367 C365 1.317 . S
N368 C364 1.328 . S
N368 C366 1.350 . S
H369 C364 0.930 . S
H370 C365 0.930 . S
C371 O372 1.224 . S
C371 O390 1.247 . S
O372 C371 1.224 . S
N373 Co363 2.128 . S
N373 C374 1.355 . S
N373 C376 1.311 . S
C374 N373 1.355 . S
C374 C375 1.363 . S
C374 H386 0.929 . S
C375 C374 1.363 . S
C375 N377 1.375 . S
C375 H393 0.931 . S
C376 N373 1.311 . S
C376 N377 1.347 . S
C376 H387 0.929 . S
N377 C375 1.375 . S
N377 C376 1.347 . S
C378 C381 1.365 . S
C378 N383 1.328 . S
C378 H384 0.929 . S
C379 C380 1.362 . S
C379 C382 1.378 . S
C379 H394 0.929 . S
C380 C379 1.362 . S
C380 C381 1.366 . S
C381 C378 1.365 . S
C381 C380 1.366 . S
C381 H395 0.930 . S
C382 C379 1.378 . S
C382 N383 1.315 . S
C382 H385 0.930 . S
N383 Co363 2.194 . S
N383 C378 1.328 . S
N383 C382 1.315 . S
H384 C378 0.929 . S
H385 C382 0.930 . S
H386 C374 0.929 . S
H387 C376 0.929 . S
O388 Co363 2.351 . S
O388 C391 1.244 . S
O389 Co363 2.155 . S
O389 C391 1.240 . S
O390 Co363 2.096 . S
O390 C371 1.247 . S
C391 O388 1.244 . S
C391 O389 1.240 . S
H392 C366 0.931 . S
H393 C375 0.931 . S
H394 C379 0.929 . S
H395 C381 0.930 . S
Co396 N400 2.148 . S
Co396 N406 2.128 . S
Co396 N416 2.194 . S
Co396 O421 2.351 . S
Co396 O422 2.155 . S
Co396 O423 2.096 . S
C397 N400 1.301 . S
C397 N401 1.328 . S
C397 H402 0.930 . S
C398 C399 1.333 . S
C398 N400 1.317 . S
C398 H403 0.930 . S
C399 C398 1.333 . S
C399 N401 1.350 . S
C399 H425 0.931 . S
N400 Co396 2.148 . S
N400 C397 1.301 . S
N400 C398 1.317 . S
N401 C397 1.328 . S
N401 C399 1.350 . S
H402 C397 0.930 . S
H403 C398 0.930 . S
C404 O405 1.224 . S
C404 O423 1.247 . S
O405 C404 1.224 . S
N406 Co396 2.128 . S
N406 C407 1.355 . S
N406 C409 1.311 . S
C407 N406 1.355 . S
C407 C408 1.363 . S
C407 H419 0.929 . S
C408 C407 1.363 . S
C408 N410 1.375 . S
C408 H426 0.931 . S
C409 N406 1.311 . S
C409 N410 1.347 . S
C409 H420 0.929 . S
N410 C408 1.375 . S
N410 C409 1.347 . S
C411 C414 1.365 . S
C411 N416 1.328 . S
C411 H417 0.929 . S
C412 C413 1.362 . S
C412 C415 1.378 . S
C412 H427 0.929 . S
C413 C412 1.362 . S
C413 C414 1.366 . S
C414 C411 1.365 . S
C414 C413 1.366 . S
C414 H428 0.930 . S
C415 C412 1.378 . S
C415 N416 1.315 . S
C415 H418 0.930 . S
N416 Co396 2.194 . S
N416 C411 1.328 . S
N416 C415 1.315 . S
H417 C411 0.929 . S
H418 C415 0.930 . S
H419 C407 0.929 . S
H420 C409 0.929 . S
O421 Co396 2.351 . S
O421 C424 1.244 . S
O422 Co396 2.155 . S
O422 C424 1.240 . S
O423 Co396 2.096 . S
O423 C404 1.247 . S
C424 O421 1.244 . S
C424 O422 1.240 . S
H425 C399 0.931 . S
H426 C408 0.931 . S
H427 C412 0.929 . S
H428 C414 0.930 . S
Co429 N433 2.148 . S
Co429 N439 2.128 . S
Co429 N449 2.194 . S
Co429 O454 2.351 . S
Co429 O455 2.155 . S
Co429 O456 2.096 . S
C430 N433 1.301 . S
C430 N434 1.328 . S
C430 H435 0.930 . S
C431 C432 1.333 . S
C431 N433 1.317 . S
C431 H436 0.930 . S
C432 C431 1.333 . S
C432 N434 1.350 . S
C432 H458 0.931 . S
N433 Co429 2.148 . S
N433 C430 1.301 . S
N433 C431 1.317 . S
N434 C430 1.328 . S
N434 C432 1.350 . S
H435 C430 0.930 . S
H436 C431 0.930 . S
C437 O438 1.224 . S
C437 O456 1.247 . S
O438 C437 1.224 . S
N439 Co429 2.128 . S
N439 C440 1.355 . S
N439 C442 1.311 . S
C440 N439 1.355 . S
C440 C441 1.363 . S
C440 H452 0.929 . S
C441 C440 1.363 . S
C441 N443 1.375 . S
C441 H459 0.931 . S
C442 N439 1.311 . S
C442 N443 1.347 . S
C442 H453 0.929 . S
N443 C441 1.375 . S
N443 C442 1.347 . S
C444 C447 1.365 . S
C444 N449 1.328 . S
C444 H450 0.929 . S
C445 C446 1.362 . S
C445 C448 1.378 . S
C445 H460 0.929 . S
C446 C445 1.362 . S
C446 C447 1.366 . S
C447 C444 1.365 . S
C447 C446 1.366 . S
C447 H461 0.930 . S
C448 C445 1.378 . S
C448 N449 1.315 . S
C448 H451 0.930 . S
N449 Co429 2.194 . S
N449 C444 1.328 . S
N449 C448 1.315 . S
H450 C444 0.929 . S
H451 C448 0.930 . S
H452 C440 0.929 . S
H453 C442 0.929 . S
O454 Co429 2.351 . S
O454 C457 1.244 . S
O455 Co429 2.155 . S
O455 C457 1.240 . S
O456 Co429 2.096 . S
O456 C437 1.247 . S
C457 O454 1.244 . S
C457 O455 1.240 . S
H458 C432 0.931 . S
H459 C441 0.931 . S
H460 C445 0.929 . S
H461 C447 0.930 . S
Co462 N466 2.148 . S
Co462 N472 2.128 . S
Co462 N482 2.194 . S
Co462 O487 2.351 . S
Co462 O488 2.155 . S
Co462 O489 2.096 . S
C463 N466 1.301 . S
C463 N467 1.328 . S
C463 H468 0.930 . S
C464 C465 1.333 . S
C464 N466 1.317 . S
C464 H469 0.930 . S
C465 C464 1.333 . S
C465 N467 1.350 . S
C465 H491 0.931 . S
N466 Co462 2.148 . S
N466 C463 1.301 . S
N466 C464 1.317 . S
N467 C463 1.328 . S
N467 C465 1.350 . S
H468 C463 0.930 . S
H469 C464 0.930 . S
C470 O471 1.224 . S
C470 O489 1.247 . S
O471 C470 1.224 . S
N472 Co462 2.128 . S
N472 C473 1.355 . S
N472 C475 1.311 . S
C473 N472 1.355 . S
C473 C474 1.363 . S
C473 H485 0.929 . S
C474 C473 1.363 . S
C474 N476 1.375 . S
C474 H492 0.931 . S
C475 N472 1.311 . S
C475 N476 1.347 . S
C475 H486 0.929 . S
N476 C474 1.375 . S
N476 C475 1.347 . S
C477 C480 1.365 . S
C477 N482 1.328 . S
C477 H483 0.929 . S
C478 C479 1.362 . S
C478 C481 1.378 . S
C478 H493 0.929 . S
C479 C478 1.362 . S
C479 C480 1.366 . S
C480 C477 1.365 . S
C480 C479 1.366 . S
C480 H494 0.930 . S
C481 C478 1.378 . S
C481 N482 1.315 . S
C481 H484 0.930 . S
N482 Co462 2.194 . S
N482 C477 1.328 . S
N482 C481 1.315 . S
H483 C477 0.929 . S
H484 C481 0.930 . S
H485 C473 0.929 . S
H486 C475 0.929 . S
O487 Co462 2.351 . S
O487 C490 1.244 . S
O488 Co462 2.155 . S
O488 C490 1.240 . S
O489 Co462 2.096 . S
O489 C470 1.247 . S
C490 O487 1.244 . S
C490 O488 1.240 . S
H491 C465 0.931 . S
H492 C474 0.931 . S
H493 C478 0.929 . S
H494 C480 0.930 . S
Co495 N499 2.148 . S
Co495 N505 2.128 . S
Co495 N515 2.194 . S
Co495 O520 2.351 . S
Co495 O521 2.155 . S
Co495 O522 2.096 . S
C496 N499 1.301 . S
C496 N500 1.328 . S
C496 H501 0.930 . S
C497 C498 1.333 . S
C497 N499 1.317 . S
C497 H502 0.930 . S
C498 C497 1.333 . S
C498 N500 1.350 . S
C498 H524 0.931 . S
N499 Co495 2.148 . S
N499 C496 1.301 . S
N499 C497 1.317 . S
N500 C496 1.328 . S
N500 C498 1.350 . S
H501 C496 0.930 . S
H502 C497 0.930 . S
C503 O504 1.224 . S
C503 O522 1.247 . S
O504 C503 1.224 . S
N505 Co495 2.128 . S
N505 C506 1.355 . S
N505 C508 1.311 . S
C506 N505 1.355 . S
C506 C507 1.363 . S
C506 H518 0.929 . S
C507 C506 1.363 . S
C507 N509 1.375 . S
C507 H525 0.931 . S
C508 N505 1.311 . S
C508 N509 1.347 . S
C508 H519 0.929 . S
N509 C507 1.375 . S
N509 C508 1.347 . S
C510 C513 1.365 . S
C510 N515 1.328 . S
C510 H516 0.929 . S
C511 C512 1.362 . S
C511 C514 1.378 . S
C511 H526 0.929 . S
C512 C511 1.362 . S
C512 C513 1.366 . S
C513 C510 1.365 . S
C513 C512 1.366 . S
C513 H527 0.930 . S
C514 C511 1.378 . S
C514 N515 1.315 . S
C514 H517 0.930 . S
N515 Co495 2.194 . S
N515 C510 1.328 . S
N515 C514 1.315 . S
H516 C510 0.929 . S
H517 C514 0.930 . S
H518 C506 0.929 . S
H519 C508 0.929 . S
O520 Co495 2.351 . S
O520 C523 1.244 . S
O521 Co495 2.155 . S
O521 C523 1.240 . S
O522 Co495 2.096 . S
O522 C503 1.247 . S
C523 O520 1.244 . S
C523 O521 1.240 . S
H524 C498 0.931 . S
H525 C507 0.931 . S
H526 C511 0.929 . S
H527 C513 0.930 . S
Co528 N532 2.148 . S
Co528 N538 2.128 . S
Co528 N548 2.194 . S
Co528 O553 2.351 . S
Co528 O554 2.155 . S
Co528 O555 2.096 . S
C529 N532 1.301 . S
C529 N533 1.328 1_545 S
C529 H534 0.930 . S
C530 C531 1.333 1_545 S
C530 N532 1.317 . S
C530 H535 0.930 . S
C531 C530 1.333 1_565 S
C531 N533 1.350 . S
C531 H557 0.931 . S
N532 Co528 2.148 . S
N532 C529 1.301 . S
N532 C530 1.317 . S
N533 C529 1.328 1_565 S
N533 C531 1.350 . S
H534 C529 0.930 . S
H535 C530 0.930 . S
C536 O537 1.224 . S
C536 O555 1.247 . S
O537 C536 1.224 . S
N538 Co528 2.128 . S
N538 C539 1.355 . S
N538 C541 1.311 . S
C539 N538 1.355 . S
C539 C540 1.363 . S
C539 H551 0.929 . S
C540 C539 1.363 . S
C540 N542 1.375 . S
C540 H558 0.931 . S
C541 N538 1.311 . S
C541 N542 1.347 . S
C541 H552 0.929 . S
N542 C540 1.375 . S
N542 C541 1.347 . S
C543 C546 1.365 . S
C543 N548 1.328 . S
C543 H549 0.929 . S
C544 C545 1.362 . S
C544 C547 1.378 . S
C544 H559 0.929 . S
C545 C544 1.362 . S
C545 C546 1.366 . S
C546 C543 1.365 . S
C546 C545 1.366 . S
C546 H560 0.930 . S
C547 C544 1.378 . S
C547 N548 1.315 . S
C547 H550 0.930 . S
N548 Co528 2.194 . S
N548 C543 1.328 . S
N548 C547 1.315 . S
H549 C543 0.929 . S
H550 C547 0.930 . S
H551 C539 0.929 . S
H552 C541 0.929 . S
O553 Co528 2.351 . S
O553 C556 1.244 . S
O554 Co528 2.155 . S
O554 C556 1.240 . S
O555 Co528 2.096 . S
O555 C536 1.247 . S
C556 O553 1.244 . S
C556 O554 1.240 . S
H557 C531 0.931 . S
H558 C540 0.931 . S
H559 C544 0.929 . S
H560 C546 0.930 . S
Co561 N565 2.148 . S
Co561 N571 2.128 1_545 S
Co561 N581 2.194 . S
Co561 O586 2.351 . S
Co561 O587 2.155 . S
Co561 O588 2.096 . S
C562 N565 1.301 . S
C562 N566 1.328 . S
C562 H567 0.930 . S
C563 C564 1.333 . S
C563 N565 1.317 . S
C563 H568 0.930 . S
C564 C563 1.333 . S
C564 N566 1.350 . S
C564 H590 0.931 . S
N565 Co561 2.148 . S
N565 C562 1.301 . S
N565 C563 1.317 . S
N566 C562 1.328 . S
N566 C564 1.350 . S
H567 C562 0.930 . S
H568 C563 0.930 . S
C569 O570 1.224 . S
C569 O588 1.247 . S
O570 C569 1.224 . S
N571 Co561 2.128 1_565 S
N571 C572 1.355 . S
N571 C574 1.311 . S
C572 N571 1.355 . S
C572 C573 1.363 . S
C572 H584 0.929 . S
C573 C572 1.363 . S
C573 N575 1.375 . S
C573 H591 0.931 . S
C574 N571 1.311 . S
C574 N575 1.347 . S
C574 H585 0.929 . S
N575 C573 1.375 . S
N575 C574 1.347 . S
C576 C579 1.365 . S
C576 N581 1.328 . S
C576 H582 0.929 . S
C577 C578 1.362 . S
C577 C580 1.378 . S
C577 H592 0.929 . S
C578 C577 1.362 . S
C578 C579 1.366 . S
C579 C576 1.365 . S
C579 C578 1.366 . S
C579 H593 0.930 . S
C580 C577 1.378 . S
C580 N581 1.315 . S
C580 H583 0.930 . S
N581 Co561 2.194 . S
N581 C576 1.328 . S
N581 C580 1.315 . S
H582 C576 0.929 . S
H583 C580 0.930 . S
H584 C572 0.929 . S
H585 C574 0.929 . S
O586 Co561 2.351 . S
O586 C589 1.244 . S
O587 Co561 2.155 . S
O587 C589 1.240 . S
O588 Co561 2.096 . S
O588 C569 1.247 . S
C589 O586 1.244 . S
C589 O587 1.240 . S
H590 C564 0.931 . S
H591 C573 0.931 . S
H592 C577 0.929 . S
H593 C579 0.930 . S
Co594 N598 2.148 . S
Co594 N604 2.128 1_545 S
Co594 N614 2.194 . S
Co594 O619 2.351 . S
Co594 O620 2.155 . S
Co594 O621 2.096 . S
C595 N598 1.301 . S
C595 N599 1.328 . S
C595 H600 0.930 . S
C596 C597 1.333 . S
C596 N598 1.317 . S
C596 H601 0.930 . S
C597 C596 1.333 . S
C597 N599 1.350 . S
C597 H623 0.931 . S
N598 Co594 2.148 . S
N598 C595 1.301 . S
N598 C596 1.317 . S
N599 C595 1.328 . S
N599 C597 1.350 . S
H600 C595 0.930 . S
H601 C596 0.930 . S
C602 O603 1.224 . S
C602 O621 1.247 . S
O603 C602 1.224 . S
N604 Co594 2.128 1_565 S
N604 C605 1.355 . S
N604 C607 1.311 . S
C605 N604 1.355 . S
C605 C606 1.363 . S
C605 H617 0.929 . S
C606 C605 1.363 . S
C606 N608 1.375 . S
C606 H624 0.931 . S
C607 N604 1.311 . S
C607 N608 1.347 . S
C607 H618 0.929 . S
N608 C606 1.375 . S
N608 C607 1.347 . S
C609 C612 1.365 . S
C609 N614 1.328 . S
C609 H615 0.929 . S
C610 C611 1.362 . S
C610 C613 1.378 . S
C610 H625 0.929 . S
C611 C610 1.362 . S
C611 C612 1.366 . S
C612 C609 1.365 . S
C612 C611 1.366 . S
C612 H626 0.930 . S
C613 C610 1.378 . S
C613 N614 1.315 . S
C613 H616 0.930 . S
N614 Co594 2.194 . S
N614 C609 1.328 . S
N614 C613 1.315 . S
H615 C609 0.929 . S
H616 C613 0.930 . S
H617 C605 0.929 . S
H618 C607 0.929 . S
O619 Co594 2.351 . S
O619 C622 1.244 . S
O620 Co594 2.155 . S
O620 C622 1.240 . S
O621 Co594 2.096 . S
O621 C602 1.247 . S
C622 O619 1.244 . S
C622 O620 1.240 . S
H623 C597 0.931 . S
H624 C606 0.931 . S
H625 C610 0.929 . S
H626 C612 0.930 . S
Co627 N631 2.148 . S
Co627 N637 2.128 . S
Co627 N647 2.194 . S
Co627 O652 2.351 . S
Co627 O653 2.155 . S
Co627 O654 2.096 . S
C628 N631 1.301 . S
C628 N632 1.328 1_545 S
C628 H633 0.930 . S
C629 C630 1.333 1_545 S
C629 N631 1.317 . S
C629 H634 0.930 . S
C630 C629 1.333 1_565 S
C630 N632 1.350 . S
C630 H656 0.931 . S
N631 Co627 2.148 . S
N631 C628 1.301 . S
N631 C629 1.317 . S
N632 C628 1.328 1_565 S
N632 C630 1.350 . S
H633 C628 0.930 . S
H634 C629 0.930 . S
C635 O636 1.224 . S
C635 O654 1.247 . S
O636 C635 1.224 . S
N637 Co627 2.128 . S
N637 C638 1.355 . S
N637 C640 1.311 . S
C638 N637 1.355 . S
C638 C639 1.363 . S
C638 H650 0.929 . S
C639 C638 1.363 . S
C639 N641 1.375 . S
C639 H657 0.931 . S
C640 N637 1.311 . S
C640 N641 1.347 . S
C640 H651 0.929 . S
N641 C639 1.375 . S
N641 C640 1.347 . S
C642 C645 1.365 . S
C642 N647 1.328 . S
C642 H648 0.929 . S
C643 C644 1.362 . S
C643 C646 1.378 . S
C643 H658 0.929 . S
C644 C643 1.362 . S
C644 C645 1.366 . S
C645 C642 1.365 . S
C645 C644 1.366 . S
C645 H659 0.930 . S
C646 C643 1.378 . S
C646 N647 1.315 . S
C646 H649 0.930 . S
N647 Co627 2.194 . S
N647 C642 1.328 . S
N647 C646 1.315 . S
H648 C642 0.929 . S
H649 C646 0.930 . S
H650 C638 0.929 . S
H651 C640 0.929 . S
O652 Co627 2.351 . S
O652 C655 1.244 . S
O653 Co627 2.155 . S
O653 C655 1.240 . S
O654 Co627 2.096 . S
O654 C635 1.247 . S
C655 O652 1.244 . S
C655 O653 1.240 . S
H656 C630 0.931 . S
H657 C639 0.931 . S
H658 C643 0.929 . S
H659 C645 0.930 . S
Co660 N664 2.148 . S
Co660 N670 2.128 . S
Co660 N680 2.194 . S
Co660 O685 2.351 . S
Co660 O686 2.155 . S
Co660 O687 2.096 . S
C661 N664 1.301 . S
C661 N665 1.328 1_565 S
C661 H666 0.930 . S
C662 C663 1.333 1_565 S
C662 N664 1.317 . S
C662 H667 0.930 . S
C663 C662 1.333 1_545 S
C663 N665 1.350 . S
C663 H689 0.931 . S
N664 Co660 2.148 . S
N664 C661 1.301 . S
N664 C662 1.317 . S
N665 C661 1.328 1_545 S
N665 C663 1.350 . S
H666 C661 0.930 . S
H667 C662 0.930 . S
C668 O669 1.224 . S
C668 O687 1.247 . S
O669 C668 1.224 . S
N670 Co660 2.128 . S
N670 C671 1.355 . S
N670 C673 1.311 . S
C671 N670 1.355 . S
C671 C672 1.363 . S
C671 H683 0.929 . S
C672 C671 1.363 . S
C672 N674 1.375 . S
C672 H690 0.931 . S
C673 N670 1.311 . S
C673 N674 1.347 . S
C673 H684 0.929 . S
N674 C672 1.375 . S
N674 C673 1.347 . S
C675 C678 1.365 . S
C675 N680 1.328 . S
C675 H681 0.929 . S
C676 C677 1.362 . S
C676 C679 1.378 . S
C676 H691 0.929 . S
C677 C676 1.362 . S
C677 C678 1.366 . S
C678 C675 1.365 . S
C678 C677 1.366 . S
C678 H692 0.930 . S
C679 C676 1.378 . S
C679 N680 1.315 . S
C679 H682 0.930 . S
N680 Co660 2.194 . S
N680 C675 1.328 . S
N680 C679 1.315 . S
H681 C675 0.929 . S
H682 C679 0.930 . S
H683 C671 0.929 . S
H684 C673 0.929 . S
O685 Co660 2.351 . S
O685 C688 1.244 . S
O686 Co660 2.155 . S
O686 C688 1.240 . S
O687 Co660 2.096 . S
O687 C668 1.247 . S
C688 O685 1.244 . S
C688 O686 1.240 . S
H689 C663 0.931 . S
H690 C672 0.931 . S
H691 C676 0.929 . S
H692 C678 0.930 . S
Co693 N697 2.148 . S
Co693 N703 2.128 1_565 S
Co693 N713 2.194 . S
Co693 O718 2.351 . S
Co693 O719 2.155 . S
Co693 O720 2.096 . S
C694 N697 1.301 . S
C694 N698 1.328 . S
C694 H699 0.930 . S
C695 C696 1.333 . S
C695 N697 1.317 . S
C695 H700 0.930 . S
C696 C695 1.333 . S
C696 N698 1.350 . S
C696 H722 0.931 . S
N697 Co693 2.148 . S
N697 C694 1.301 . S
N697 C695 1.317 . S
N698 C694 1.328 . S
N698 C696 1.350 . S
H699 C694 0.930 . S
H700 C695 0.930 . S
C701 O702 1.224 . S
C701 O720 1.247 . S
O702 C701 1.224 . S
N703 Co693 2.128 1_545 S
N703 C704 1.355 . S
N703 C706 1.311 . S
C704 N703 1.355 . S
C704 C705 1.363 . S
C704 H716 0.929 . S
C705 C704 1.363 . S
C705 N707 1.375 . S
C705 H723 0.931 . S
C706 N703 1.311 . S
C706 N707 1.347 . S
C706 H717 0.929 . S
N707 C705 1.375 . S
N707 C706 1.347 . S
C708 C711 1.365 . S
C708 N713 1.328 . S
C708 H714 0.929 . S
C709 C710 1.362 . S
C709 C712 1.378 . S
C709 H724 0.929 . S
C710 C709 1.362 . S
C710 C711 1.366 . S
C711 C708 1.365 . S
C711 C710 1.366 . S
C711 H725 0.930 . S
C712 C709 1.378 . S
C712 N713 1.315 . S
C712 H715 0.930 . S
N713 Co693 2.194 . S
N713 C708 1.328 . S
N713 C712 1.315 . S
H714 C708 0.929 . S
H715 C712 0.930 . S
H716 C704 0.929 . S
H717 C706 0.929 . S
O718 Co693 2.351 . S
O718 C721 1.244 . S
O719 Co693 2.155 . S
O719 C721 1.240 . S
O720 Co693 2.096 . S
O720 C701 1.247 . S
C721 O718 1.244 . S
C721 O719 1.240 . S
H722 C696 0.931 . S
H723 C705 0.931 . S
H724 C709 0.929 . S
H725 C711 0.930 . S
Co726 N730 2.148 . S
Co726 N736 2.128 1_565 S
Co726 N746 2.194 . S
Co726 O751 2.351 . S
Co726 O752 2.155 . S
Co726 O753 2.096 . S
C727 N730 1.301 . S
C727 N731 1.328 . S
C727 H732 0.930 . S
C728 C729 1.333 . S
C728 N730 1.317 . S
C728 H733 0.930 . S
C729 C728 1.333 . S
C729 N731 1.350 . S
C729 H755 0.931 . S
N730 Co726 2.148 . S
N730 C727 1.301 . S
N730 C728 1.317 . S
N731 C727 1.328 . S
N731 C729 1.350 . S
H732 C727 0.930 . S
H733 C728 0.930 . S
C734 O735 1.224 . S
C734 O753 1.247 . S
O735 C734 1.224 . S
N736 Co726 2.128 1_545 S
N736 C737 1.355 . S
N736 C739 1.311 . S
C737 N736 1.355 . S
C737 C738 1.363 . S
C737 H749 0.929 . S
C738 C737 1.363 . S
C738 N740 1.375 . S
C738 H756 0.931 . S
C739 N736 1.311 . S
C739 N740 1.347 . S
C739 H750 0.929 . S
N740 C738 1.375 . S
N740 C739 1.347 . S
C741 C744 1.365 . S
C741 N746 1.328 . S
C741 H747 0.929 . S
C742 C743 1.362 . S
C742 C745 1.378 . S
C742 H757 0.929 . S
C743 C742 1.362 . S
C743 C744 1.366 . S
C744 C741 1.365 . S
C744 C743 1.366 . S
C744 H758 0.930 . S
C745 C742 1.378 . S
C745 N746 1.315 . S
C745 H748 0.930 . S
N746 Co726 2.194 . S
N746 C741 1.328 . S
N746 C745 1.315 . S
H747 C741 0.929 . S
H748 C745 0.930 . S
H749 C737 0.929 . S
H750 C739 0.929 . S
O751 Co726 2.351 . S
O751 C754 1.244 . S
O752 Co726 2.155 . S
O752 C754 1.240 . S
O753 Co726 2.096 . S
O753 C734 1.247 . S
C754 O751 1.244 . S
C754 O752 1.240 . S
H755 C729 0.931 . S
H756 C738 0.931 . S
H757 C742 0.929 . S
H758 C744 0.930 . S
Co759 N763 2.148 . S
Co759 N769 2.128 . S
Co759 N779 2.194 . S
Co759 O784 2.351 . S
Co759 O785 2.155 . S
Co759 O786 2.096 . S
C760 N763 1.301 . S
C760 N764 1.328 1_565 S
C760 H765 0.930 . S
C761 C762 1.333 1_565 S
C761 N763 1.317 . S
C761 H766 0.930 . S
C762 C761 1.333 1_545 S
C762 N764 1.350 . S
C762 H788 0.931 . S
N763 Co759 2.148 . S
N763 C760 1.301 . S
N763 C761 1.317 . S
N764 C760 1.328 1_545 S
N764 C762 1.350 . S
H765 C760 0.930 . S
H766 C761 0.930 . S
C767 O768 1.224 . S
C767 O786 1.247 . S
O768 C767 1.224 . S
N769 Co759 2.128 . S
N769 C770 1.355 . S
N769 C772 1.311 . S
C770 N769 1.355 . S
C770 C771 1.363 . S
C770 H782 0.929 . S
C771 C770 1.363 . S
C771 N773 1.375 . S
C771 H789 0.931 . S
C772 N769 1.311 . S
C772 N773 1.347 . S
C772 H783 0.929 . S
N773 C771 1.375 . S
N773 C772 1.347 . S
C774 C777 1.365 . S
C774 N779 1.328 . S
C774 H780 0.929 . S
C775 C776 1.362 . S
C775 C778 1.378 . S
C775 H790 0.929 . S
C776 C775 1.362 . S
C776 C777 1.366 . S
C777 C774 1.365 . S
C777 C776 1.366 . S
C777 H791 0.930 . S
C778 C775 1.378 . S
C778 N779 1.315 . S
C778 H781 0.930 . S
N779 Co759 2.194 . S
N779 C774 1.328 . S
N779 C778 1.315 . S
H780 C774 0.929 . S
H781 C778 0.930 . S
H782 C770 0.929 . S
H783 C772 0.929 . S
O784 Co759 2.351 . S
O784 C787 1.244 . S
O785 Co759 2.155 . S
O785 C787 1.240 . S
O786 Co759 2.096 . S
O786 C767 1.247 . S
C787 O784 1.244 . S
C787 O785 1.240 . S
H788 C762 0.931 . S
H789 C771 0.931 . S
H790 C775 0.929 . S
H791 C777 0.930 . S
Co792 N796 2.148 . S
Co792 N802 2.128 . S
Co792 N812 2.194 . S
Co792 O817 2.351 . S
Co792 O818 2.155 . S
Co792 O819 2.096 . S
C793 N796 1.301 . S
C793 N797 1.328 . S
C793 H798 0.930 . S
C794 C795 1.333 . S
C794 N796 1.317 . S
C794 H799 0.930 . S
C795 C794 1.333 . S
C795 N797 1.350 . S
C795 H821 0.931 . S
N796 Co792 2.148 . S
N796 C793 1.301 . S
N796 C794 1.317 . S
N797 C793 1.328 . S
N797 C795 1.350 . S
H798 C793 0.930 . S
H799 C794 0.930 . S
C800 O801 1.224 . S
C800 O819 1.247 . S
O801 C800 1.224 . S
N802 Co792 2.128 . S
N802 C803 1.355 . S
N802 C805 1.311 . S
C803 N802 1.355 . S
C803 C804 1.363 . S
C803 H815 0.929 . S
C804 C803 1.363 . S
C804 N806 1.375 . S
C804 H822 0.931 . S
C805 N802 1.311 . S
C805 N806 1.347 . S
C805 H816 0.929 . S
N806 C804 1.375 . S
N806 C805 1.347 . S
C807 C810 1.365 . S
C807 N812 1.328 . S
C807 H813 0.929 . S
C808 C809 1.362 . S
C808 C811 1.378 . S
C808 H823 0.929 . S
C809 C808 1.362 . S
C809 C810 1.366 . S
C810 C807 1.365 . S
C810 C809 1.366 . S
C810 H824 0.930 . S
C811 C808 1.378 . S
C811 N812 1.315 . S
C811 H814 0.930 . S
N812 Co792 2.194 . S
N812 C807 1.328 . S
N812 C811 1.315 . S
H813 C807 0.929 . S
H814 C811 0.930 . S
H815 C803 0.929 . S
H816 C805 0.929 . S
O817 Co792 2.351 . S
O817 C820 1.244 . S
O818 Co792 2.155 . S
O818 C820 1.240 . S
O819 Co792 2.096 . S
O819 C800 1.247 . S
C820 O817 1.244 . S
C820 O818 1.240 . S
H821 C795 0.931 . S
H822 C804 0.931 . S
H823 C808 0.929 . S
H824 C810 0.930 . S
Co825 N829 2.148 . S
Co825 N835 2.128 . S
Co825 N845 2.194 . S
Co825 O850 2.351 . S
Co825 O851 2.155 . S
Co825 O852 2.096 . S
C826 N829 1.301 . S
C826 N830 1.328 . S
C826 H831 0.930 . S
C827 C828 1.333 . S
C827 N829 1.317 . S
C827 H832 0.930 . S
C828 C827 1.333 . S
C828 N830 1.350 . S
C828 H854 0.931 . S
N829 Co825 2.148 . S
N829 C826 1.301 . S
N829 C827 1.317 . S
N830 C826 1.328 . S
N830 C828 1.350 . S
H831 C826 0.930 . S
H832 C827 0.930 . S
C833 O834 1.224 . S
C833 O852 1.247 . S
O834 C833 1.224 . S
N835 Co825 2.128 . S
N835 C836 1.355 . S
N835 C838 1.311 . S
C836 N835 1.355 . S
C836 C837 1.363 . S
C836 H848 0.929 . S
C837 C836 1.363 . S
C837 N839 1.375 . S
C837 H855 0.931 . S
C838 N835 1.311 . S
C838 N839 1.347 . S
C838 H849 0.929 . S
N839 C837 1.375 . S
N839 C838 1.347 . S
C840 C843 1.365 . S
C840 N845 1.328 . S
C840 H846 0.929 . S
C841 C842 1.362 . S
C841 C844 1.378 . S
C841 H856 0.929 . S
C842 C841 1.362 . S
C842 C843 1.366 . S
C843 C840 1.365 . S
C843 C842 1.366 . S
C843 H857 0.930 . S
C844 C841 1.378 . S
C844 N845 1.315 . S
C844 H847 0.930 . S
N845 Co825 2.194 . S
N845 C840 1.328 . S
N845 C844 1.315 . S
H846 C840 0.929 . S
H847 C844 0.930 . S
H848 C836 0.929 . S
H849 C838 0.929 . S
O850 Co825 2.351 . S
O850 C853 1.244 . S
O851 Co825 2.155 . S
O851 C853 1.240 . S
O852 Co825 2.096 . S
O852 C833 1.247 . S
C853 O850 1.244 . S
C853 O851 1.240 . S
H854 C828 0.931 . S
H855 C837 0.931 . S
H856 C841 0.929 . S
H857 C843 0.930 . S
Co858 N862 2.148 . S
Co858 N868 2.128 . S
Co858 N878 2.194 . S
Co858 O883 2.351 . S
Co858 O884 2.155 . S
Co858 O885 2.096 . S
C859 N862 1.301 . S
C859 N863 1.328 . S
C859 H864 0.930 . S
C860 C861 1.333 . S
C860 N862 1.317 . S
C860 H865 0.930 . S
C861 C860 1.333 . S
C861 N863 1.350 . S
C861 H887 0.931 . S
N862 Co858 2.148 . S
N862 C859 1.301 . S
N862 C860 1.317 . S
N863 C859 1.328 . S
N863 C861 1.350 . S
H864 C859 0.930 . S
H865 C860 0.930 . S
C866 O867 1.224 . S
C866 O885 1.247 . S
O867 C866 1.224 . S
N868 Co858 2.128 . S
N868 C869 1.355 . S
N868 C871 1.311 . S
C869 N868 1.355 . S
C869 C870 1.363 . S
C869 H881 0.929 . S
C870 C869 1.363 . S
C870 N872 1.375 . S
C870 H888 0.931 . S
C871 N868 1.311 . S
C871 N872 1.347 . S
C871 H882 0.929 . S
N872 C870 1.375 . S
N872 C871 1.347 . S
C873 C876 1.365 . S
C873 N878 1.328 . S
C873 H879 0.929 . S
C874 C875 1.362 . S
C874 C877 1.378 . S
C874 H889 0.929 . S
C875 C874 1.362 . S
C875 C876 1.366 . S
C876 C873 1.365 . S
C876 C875 1.366 . S
C876 H890 0.930 . S
C877 C874 1.378 . S
C877 N878 1.315 . S
C877 H880 0.930 . S
N878 Co858 2.194 . S
N878 C873 1.328 . S
N878 C877 1.315 . S
H879 C873 0.929 . S
H880 C877 0.930 . S
H881 C869 0.929 . S
H882 C871 0.929 . S
O883 Co858 2.351 . S
O883 C886 1.244 . S
O884 Co858 2.155 . S
O884 C886 1.240 . S
O885 Co858 2.096 . S
O885 C866 1.247 . S
C886 O883 1.244 . S
C886 O884 1.240 . S
H887 C861 0.931 . S
H888 C870 0.931 . S
H889 C874 0.929 . S
H890 C876 0.930 . S
Co891 N895 2.148 . S
Co891 N901 2.128 . S
Co891 N911 2.194 . S
Co891 O916 2.351 . S
Co891 O917 2.155 . S
Co891 O918 2.096 . S
C892 N895 1.301 . S
C892 N896 1.328 . S
C892 H897 0.930 . S
C893 C894 1.333 . S
C893 N895 1.317 . S
C893 H898 0.930 . S
C894 C893 1.333 . S
C894 N896 1.350 . S
C894 H920 0.931 . S
N895 Co891 2.148 . S
N895 C892 1.301 . S
N895 C893 1.317 . S
N896 C892 1.328 . S
N896 C894 1.350 . S
H897 C892 0.930 . S
H898 C893 0.930 . S
C899 O900 1.224 . S
C899 O918 1.247 . S
O900 C899 1.224 . S
N901 Co891 2.128 . S
N901 C902 1.355 . S
N901 C904 1.311 . S
C902 N901 1.355 . S
C902 C903 1.363 . S
C902 H914 0.929 . S
C903 C902 1.363 . S
C903 N905 1.375 . S
C903 H921 0.931 . S
C904 N901 1.311 . S
C904 N905 1.347 . S
C904 H915 0.929 . S
N905 C903 1.375 . S
N905 C904 1.347 . S
C906 C909 1.365 . S
C906 N911 1.328 . S
C906 H912 0.929 . S
C907 C908 1.362 . S
C907 C910 1.378 . S
C907 H922 0.929 . S
C908 C907 1.362 . S
C908 C909 1.366 . S
C909 C906 1.365 . S
C909 C908 1.366 . S
C909 H923 0.930 . S
C910 C907 1.378 . S
C910 N911 1.315 . S
C910 H913 0.930 . S
N911 Co891 2.194 . S
N911 C906 1.328 . S
N911 C910 1.315 . S
H912 C906 0.929 . S
H913 C910 0.930 . S
H914 C902 0.929 . S
H915 C904 0.929 . S
O916 Co891 2.351 . S
O916 C919 1.244 . S
O917 Co891 2.155 . S
O917 C919 1.240 . S
O918 Co891 2.096 . S
O918 C899 1.247 . S
C919 O916 1.244 . S
C919 O917 1.240 . S
H920 C894 0.931 . S
H921 C903 0.931 . S
H922 C907 0.929 . S
H923 C909 0.930 . S
Co924 N928 2.148 . S
Co924 N934 2.128 . S
Co924 N944 2.194 . S
Co924 O949 2.351 . S
Co924 O950 2.155 . S
Co924 O951 2.096 . S
C925 N928 1.301 . S
C925 N929 1.328 . S
C925 H930 0.930 . S
C926 C927 1.333 . S
C926 N928 1.317 . S
C926 H931 0.930 . S
C927 C926 1.333 . S
C927 N929 1.350 . S
C927 H953 0.931 . S
N928 Co924 2.148 . S
N928 C925 1.301 . S
N928 C926 1.317 . S
N929 C925 1.328 . S
N929 C927 1.350 . S
H930 C925 0.930 . S
H931 C926 0.930 . S
C932 O933 1.224 . S
C932 O951 1.247 . S
O933 C932 1.224 . S
N934 Co924 2.128 . S
N934 C935 1.355 . S
N934 C937 1.311 . S
C935 N934 1.355 . S
C935 C936 1.363 . S
C935 H947 0.929 . S
C936 C935 1.363 . S
C936 N938 1.375 . S
C936 H954 0.931 . S
C937 N934 1.311 . S
C937 N938 1.347 . S
C937 H948 0.929 . S
N938 C936 1.375 . S
N938 C937 1.347 . S
C939 C942 1.365 . S
C939 N944 1.328 . S
C939 H945 0.929 . S
C940 C941 1.362 . S
C940 C943 1.378 . S
C940 H955 0.929 . S
C941 C940 1.362 . S
C941 C942 1.366 . S
C942 C939 1.365 . S
C942 C941 1.366 . S
C942 H956 0.930 . S
C943 C940 1.378 . S
C943 N944 1.315 . S
C943 H946 0.930 . S
N944 Co924 2.194 . S
N944 C939 1.328 . S
N944 C943 1.315 . S
H945 C939 0.929 . S
H946 C943 0.930 . S
H947 C935 0.929 . S
H948 C937 0.929 . S
O949 Co924 2.351 . S
O949 C952 1.244 . S
O950 Co924 2.155 . S
O950 C952 1.240 . S
O951 Co924 2.096 . S
O951 C932 1.247 . S
C952 O949 1.244 . S
C952 O950 1.240 . S
H953 C927 0.931 . S
H954 C936 0.931 . S
H955 C940 0.929 . S
H956 C942 0.930 . S
Co957 N961 2.148 . S
Co957 N967 2.128 . S
Co957 N977 2.194 . S
Co957 O982 2.351 . S
Co957 O983 2.155 . S
Co957 O984 2.096 . S
C958 N961 1.301 . S
C958 N962 1.328 . S
C958 H963 0.930 . S
C959 C960 1.333 . S
C959 N961 1.317 . S
C959 H964 0.930 . S
C960 C959 1.333 . S
C960 N962 1.350 . S
C960 H986 0.931 . S
N961 Co957 2.148 . S
N961 C958 1.301 . S
N961 C959 1.317 . S
N962 C958 1.328 . S
N962 C960 1.350 . S
H963 C958 0.930 . S
H964 C959 0.930 . S
C965 O966 1.224 . S
C965 O984 1.247 . S
O966 C965 1.224 . S
N967 Co957 2.128 . S
N967 C968 1.355 . S
N967 C970 1.311 . S
C968 N967 1.355 . S
C968 C969 1.363 . S
C968 H980 0.929 . S
C969 C968 1.363 . S
C969 N971 1.375 . S
C969 H987 0.931 . S
C970 N967 1.311 . S
C970 N971 1.347 . S
C970 H981 0.929 . S
N971 C969 1.375 . S
N971 C970 1.347 . S
C972 C975 1.365 . S
C972 N977 1.328 . S
C972 H978 0.929 . S
C973 C974 1.362 . S
C973 C976 1.378 . S
C973 H988 0.929 . S
C974 C973 1.362 . S
C974 C975 1.366 . S
C975 C972 1.365 . S
C975 C974 1.366 . S
C975 H989 0.930 . S
C976 C973 1.378 . S
C976 N977 1.315 . S
C976 H979 0.930 . S
N977 Co957 2.194 . S
N977 C972 1.328 . S
N977 C976 1.315 . S
H978 C972 0.929 . S
H979 C976 0.930 . S
H980 C968 0.929 . S
H981 C970 0.929 . S
O982 Co957 2.351 . S
O982 C985 1.244 . S
O983 Co957 2.155 . S
O983 C985 1.240 . S
O984 Co957 2.096 . S
O984 C965 1.247 . S
C985 O982 1.244 . S
C985 O983 1.240 . S
H986 C960 0.931 . S
H987 C969 0.931 . S
H988 C973 0.929 . S
H989 C975 0.930 . S
Co990 N994 2.148 . S
Co990 N1000 2.128 . S
Co990 N1010 2.194 . S
Co990 O1015 2.351 . S
Co990 O1016 2.155 . S
Co990 O1017 2.096 . S
C991 N994 1.301 . S
C991 N995 1.328 . S
C991 H996 0.930 . S
C992 C993 1.333 . S
C992 N994 1.317 . S
C992 H997 0.930 . S
C993 C992 1.333 . S
C993 N995 1.350 . S
C993 H1019 0.931 . S
N994 Co990 2.148 . S
N994 C991 1.301 . S
N994 C992 1.317 . S
N995 C991 1.328 . S
N995 C993 1.350 . S
H996 C991 0.930 . S
H997 C992 0.930 . S
C998 O999 1.224 . S
C998 O1017 1.247 . S
O999 C998 1.224 . S
N1000 Co990 2.128 . S
N1000 C1001 1.355 . S
N1000 C1003 1.311 . S
C1001 N1000 1.355 . S
C1001 C1002 1.363 . S
C1001 H1013 0.929 . S
C1002 C1001 1.363 . S
C1002 N1004 1.375 . S
C1002 H1020 0.931 . S
C1003 N1000 1.311 . S
C1003 N1004 1.347 . S
C1003 H1014 0.929 . S
N1004 C1002 1.375 . S
N1004 C1003 1.347 . S
C1005 C1008 1.365 . S
C1005 N1010 1.328 . S
C1005 H1011 0.929 . S
C1006 C1007 1.362 . S
C1006 C1009 1.378 . S
C1006 H1021 0.929 . S
C1007 C1006 1.362 . S
C1007 C1008 1.366 . S
C1008 C1005 1.365 . S
C1008 C1007 1.366 . S
C1008 H1022 0.930 . S
C1009 C1006 1.378 . S
C1009 N1010 1.315 . S
C1009 H1012 0.930 . S
N1010 Co990 2.194 . S
N1010 C1005 1.328 . S
N1010 C1009 1.315 . S
H1011 C1005 0.929 . S
H1012 C1009 0.930 . S
H1013 C1001 0.929 . S
H1014 C1003 0.929 . S
O1015 Co990 2.351 . S
O1015 C1018 1.244 . S
O1016 Co990 2.155 . S
O1016 C1018 1.240 . S
O1017 Co990 2.096 . S
O1017 C998 1.247 . S
C1018 O1015 1.244 . S
C1018 O1016 1.240 . S
H1019 C993 0.931 . S
H1020 C1002 0.931 . S
H1021 C1006 0.929 . S
H1022 C1008 0.930 . S
Co1023 N1027 2.148 . S
Co1023 N1033 2.128 . S
Co1023 N1043 2.194 . S
Co1023 O1048 2.351 . S
Co1023 O1049 2.155 . S
Co1023 O1050 2.096 . S
C1024 N1027 1.301 . S
C1024 N1028 1.328 . S
C1024 H1029 0.930 . S
C1025 C1026 1.333 . S
C1025 N1027 1.317 . S
C1025 H1030 0.930 . S
C1026 C1025 1.333 . S
C1026 N1028 1.350 . S
C1026 H1052 0.931 . S
N1027 Co1023 2.148 . S
N1027 C1024 1.301 . S
N1027 C1025 1.317 . S
N1028 C1024 1.328 . S
N1028 C1026 1.350 . S
H1029 C1024 0.930 . S
H1030 C1025 0.930 . S
C1031 O1032 1.224 . S
C1031 O1050 1.247 . S
O1032 C1031 1.224 . S
N1033 Co1023 2.128 . S
N1033 C1034 1.355 . S
N1033 C1036 1.311 . S
C1034 N1033 1.355 . S
C1034 C1035 1.363 . S
C1034 H1046 0.929 . S
C1035 C1034 1.363 . S
C1035 N1037 1.375 . S
C1035 H1053 0.931 . S
C1036 N1033 1.311 . S
C1036 N1037 1.347 . S
C1036 H1047 0.929 . S
N1037 C1035 1.375 . S
N1037 C1036 1.347 . S
C1038 C1041 1.365 . S
C1038 N1043 1.328 . S
C1038 H1044 0.929 . S
C1039 C1040 1.362 . S
C1039 C1042 1.378 . S
C1039 H1054 0.929 . S
C1040 C1039 1.362 . S
C1040 C1041 1.366 . S
C1041 C1038 1.365 . S
C1041 C1040 1.366 . S
C1041 H1055 0.930 . S
C1042 C1039 1.378 . S
C1042 N1043 1.315 . S
C1042 H1045 0.930 . S
N1043 Co1023 2.194 . S
N1043 C1038 1.328 . S
N1043 C1042 1.315 . S
H1044 C1038 0.929 . S
H1045 C1042 0.930 . S
H1046 C1034 0.929 . S
H1047 C1036 0.929 . S
O1048 Co1023 2.351 . S
O1048 C1051 1.244 . S
O1049 Co1023 2.155 . S
O1049 C1051 1.240 . S
O1050 Co1023 2.096 . S
O1050 C1031 1.247 . S
C1051 O1048 1.244 . S
C1051 O1049 1.240 . S
H1052 C1026 0.931 . S
H1053 C1035 0.931 . S
H1054 C1039 0.929 . S
H1055 C1041 0.930 . S
H1056 C1064 0.950 . S
H1057 C1069 0.950 . S
H1058 C1066 0.950 . S
H1059 C1068 0.950 . S
H1060 C1070 0.950 . S
H1061 C1072 0.950 . S
H1062 C1074 0.950 . S
H1063 C1075 0.950 . S
C1064 H1056 0.950 . S
C1064 C1065 1.386 . S
C1064 C1066 1.391 . S
C1065 C1064 1.386 . S
C1065 C1069 1.393 . S
C1066 H1058 0.950 . S
C1066 C1064 1.391 . S
C1066 C1067 1.400 . S
C1067 C1066 1.400 . S
C1067 C1068 1.398 . S
C1067 C1073 1.491 . S
C1068 H1059 0.950 . S
C1068 C1067 1.398 . S
C1068 C1069 1.391 . S
C1069 H1057 0.950 . S
C1069 C1065 1.393 . S
C1069 C1068 1.391 . S
C1070 H1060 0.950 . S
C1070 C1071 1.386 . S
C1070 C1072 1.391 . S
C1071 C1070 1.386 . S
C1071 C1075 1.393 . S
C1072 H1061 0.950 . S
C1072 C1070 1.391 . S
C1072 C1073 1.400 . S
C1073 C1067 1.491 . S
C1073 C1072 1.400 . S
C1073 C1074 1.398 . S
C1074 H1062 0.950 . S
C1074 C1073 1.398 . S
C1074 C1075 1.391 . S
C1075 H1063 0.950 . S
C1075 C1071 1.393 . S
C1075 C1074 1.391 . S
H1076 C1084 0.950 . S
H1077 C1089 0.950 . S
H1078 C1086 0.950 . S
H1079 C1088 0.950 . S
H1080 C1090 0.950 . S
H1081 C1092 0.950 . S
H1082 C1094 0.950 . S
H1083 C1095 0.950 . S
C1084 H1076 0.950 . S
C1084 C1085 1.386 . S
C1084 C1086 1.391 . S
C1085 C1084 1.386 . S
C1085 C1089 1.393 . S
C1086 H1078 0.950 . S
C1086 C1084 1.391 . S
C1086 C1087 1.400 . S
C1087 C1086 1.400 . S
C1087 C1088 1.398 . S
C1087 C1093 1.491 . S
C1088 H1079 0.950 . S
C1088 C1087 1.398 . S
C1088 C1089 1.391 . S
C1089 H1077 0.950 . S
C1089 C1085 1.393 . S
C1089 C1088 1.391 . S
C1090 H1080 0.950 . S
C1090 C1091 1.386 . S
C1090 C1092 1.391 . S
C1091 C1090 1.386 . S
C1091 C1095 1.393 . S
C1092 H1081 0.950 . S
C1092 C1090 1.391 . S
C1092 C1093 1.400 . S
C1093 C1087 1.491 . S
C1093 C1092 1.400 . S
C1093 C1094 1.398 . S
C1094 H1082 0.950 . S
C1094 C1093 1.398 . S
C1094 C1095 1.391 . S
C1095 H1083 0.950 . S
C1095 C1091 1.393 . S
C1095 C1094 1.391 . S
H1096 C1104 0.950 . S
H1097 C1109 0.950 . S
H1098 C1106 0.950 . S
H1099 C1108 0.950 . S
H1100 C1110 0.950 . S
H1101 C1112 0.950 . S
H1102 C1114 0.950 . S
H1103 C1115 0.950 . S
C1104 H1096 0.950 . S
C1104 C1105 1.386 . S
C1104 C1106 1.391 . S
C1105 C1104 1.386 . S
C1105 C1109 1.393 . S
C1106 H1098 0.950 . S
C1106 C1104 1.391 . S
C1106 C1107 1.400 . S
C1107 C1106 1.400 . S
C1107 C1108 1.398 . S
C1107 C1113 1.491 . S
C1108 H1099 0.950 . S
C1108 C1107 1.398 . S
C1108 C1109 1.391 . S
C1109 H1097 0.950 . S
C1109 C1105 1.393 . S
C1109 C1108 1.391 . S
C1110 H1100 0.950 . S
C1110 C1111 1.386 . S
C1110 C1112 1.391 . S
C1111 C1110 1.386 . S
C1111 C1115 1.393 . S
C1112 H1101 0.950 . S
C1112 C1110 1.391 . S
C1112 C1113 1.400 . S
C1113 C1107 1.491 . S
C1113 C1112 1.400 . S
C1113 C1114 1.398 . S
C1114 H1102 0.950 . S
C1114 C1113 1.398 . S
C1114 C1115 1.391 . S
C1115 H1103 0.950 . S
C1115 C1111 1.393 . S
C1115 C1114 1.391 . S
H1116 C1124 0.950 . S
H1117 C1129 0.950 . S
H1118 C1126 0.950 . S
H1119 C1128 0.950 . S
H1120 C1130 0.950 . S
H1121 C1132 0.950 . S
H1122 C1134 0.950 . S
H1123 C1135 0.950 . S
C1124 H1116 0.950 . S
C1124 C1125 1.386 . S
C1124 C1126 1.391 . S
C1125 C1124 1.386 . S
C1125 C1129 1.393 . S
C1126 H1118 0.950 . S
C1126 C1124 1.391 . S
C1126 C1127 1.400 . S
C1127 C1126 1.400 . S
C1127 C1128 1.398 . S
C1127 C1133 1.491 . S
C1128 H1119 0.950 . S
C1128 C1127 1.398 . S
C1128 C1129 1.391 . S
C1129 H1117 0.950 . S
C1129 C1125 1.393 . S
C1129 C1128 1.391 . S
C1130 H1120 0.950 . S
C1130 C1131 1.386 . S
C1130 C1132 1.391 . S
C1131 C1130 1.386 . S
C1131 C1135 1.393 . S
C1132 H1121 0.950 . S
C1132 C1130 1.391 . S
C1132 C1133 1.400 . S
C1133 C1127 1.491 . S
C1133 C1132 1.400 . S
C1133 C1134 1.398 . S
C1134 H1122 0.950 . S
C1134 C1133 1.398 . S
C1134 C1135 1.391 . S
C1135 H1123 0.950 . S
C1135 C1131 1.393 . S
C1135 C1134 1.391 . S
H1136 C1144 0.950 . S
H1137 C1149 0.950 . S
H1138 C1146 0.950 . S
H1139 C1148 0.950 . S
H1140 C1150 0.950 . S
H1141 C1152 0.950 . S
H1142 C1154 0.950 . S
H1143 C1155 0.950 . S
C1144 H1136 0.950 . S
C1144 C1145 1.386 . S
C1144 C1146 1.391 . S
C1145 C1144 1.386 . S
C1145 C1149 1.393 . S
C1146 H1138 0.950 . S
C1146 C1144 1.391 . S
C1146 C1147 1.400 . S
C1147 C1146 1.400 . S
C1147 C1148 1.398 . S
C1147 C1153 1.491 . S
C1148 H1139 0.950 . S
C1148 C1147 1.398 . S
C1148 C1149 1.391 . S
C1149 H1137 0.950 . S
C1149 C1145 1.393 . S
C1149 C1148 1.391 . S
C1150 H1140 0.950 . S
C1150 C1151 1.386 . S
C1150 C1152 1.391 . S
C1151 C1150 1.386 . S
C1151 C1155 1.393 . S
C1152 H1141 0.950 . S
C1152 C1150 1.391 . S
C1152 C1153 1.400 . S
C1153 C1147 1.491 . S
C1153 C1152 1.400 . S
C1153 C1154 1.398 . S
C1154 H1142 0.950 . S
C1154 C1153 1.398 . S
C1154 C1155 1.391 . S
C1155 H1143 0.950 . S
C1155 C1151 1.393 . S
C1155 C1154 1.391 . S
H1156 C1164 0.950 . S
H1157 C1169 0.950 . S
H1158 C1166 0.950 . S
H1159 C1168 0.950 . S
H1160 C1170 0.950 . S
H1161 C1172 0.950 . S
H1162 C1174 0.950 . S
H1163 C1175 0.950 . S
C1164 H1156 0.950 . S
C1164 C1165 1.386 . S
C1164 C1166 1.391 . S
C1165 C1164 1.386 . S
C1165 C1169 1.393 . S
C1166 H1158 0.950 . S
C1166 C1164 1.391 . S
C1166 C1167 1.400 . S
C1167 C1166 1.400 . S
C1167 C1168 1.398 . S
C1167 C1173 1.491 . S
C1168 H1159 0.950 . S
C1168 C1167 1.398 . S
C1168 C1169 1.391 . S
C1169 H1157 0.950 . S
C1169 C1165 1.393 . S
C1169 C1168 1.391 . S
C1170 H1160 0.950 . S
C1170 C1171 1.386 . S
C1170 C1172 1.391 . S
C1171 C1170 1.386 . S
C1171 C1175 1.393 . S
C1172 H1161 0.950 . S
C1172 C1170 1.391 . S
C1172 C1173 1.400 . S
C1173 C1167 1.491 . S
C1173 C1172 1.400 . S
C1173 C1174 1.398 . S
C1174 H1162 0.950 . S
C1174 C1173 1.398 . S
C1174 C1175 1.391 . S
C1175 H1163 0.950 . S
C1175 C1171 1.393 . S
C1175 C1174 1.391 . S
H1176 C1184 0.950 . S
H1177 C1189 0.950 . S
H1178 C1186 0.950 . S
H1179 C1188 0.950 . S
H1180 C1190 0.950 . S
H1181 C1192 0.950 . S
H1182 C1194 0.950 . S
H1183 C1195 0.950 . S
C1184 H1176 0.950 . S
C1184 C1185 1.386 . S
C1184 C1186 1.391 . S
C1185 C1184 1.386 . S
C1185 C1189 1.393 . S
C1186 H1178 0.950 . S
C1186 C1184 1.391 . S
C1186 C1187 1.400 . S
C1187 C1186 1.400 . S
C1187 C1188 1.398 . S
C1187 C1193 1.491 . S
C1188 H1179 0.950 . S
C1188 C1187 1.398 . S
C1188 C1189 1.391 . S
C1189 H1177 0.950 . S
C1189 C1185 1.393 . S
C1189 C1188 1.391 . S
C1190 H1180 0.950 . S
C1190 C1191 1.386 . S
C1190 C1192 1.391 . S
C1191 C1190 1.386 . S
C1191 C1195 1.393 . S
C1192 H1181 0.950 . S
C1192 C1190 1.391 . S
C1192 C1193 1.400 . S
C1193 C1187 1.491 . S
C1193 C1192 1.400 . S
C1193 C1194 1.398 . S
C1194 H1182 0.950 . S
C1194 C1193 1.398 . S
C1194 C1195 1.391 . S
C1195 H1183 0.950 . S
C1195 C1191 1.393 . S
C1195 C1194 1.391 . S
H1196 C1204 0.950 . S
H1197 C1209 0.950 . S
H1198 C1206 0.950 . S
H1199 C1208 0.950 . S
H1200 C1210 0.950 . S
H1201 C1212 0.950 . S
H1202 C1214 0.950 . S
H1203 C1215 0.950 . S
C1204 H1196 0.950 . S
C1204 C1205 1.386 . S
C1204 C1206 1.391 . S
C1205 C1204 1.386 . S
C1205 C1209 1.393 . S
C1206 H1198 0.950 . S
C1206 C1204 1.391 . S
C1206 C1207 1.400 . S
C1207 C1206 1.400 . S
C1207 C1208 1.398 . S
C1207 C1213 1.491 . S
C1208 H1199 0.950 . S
C1208 C1207 1.398 . S
C1208 C1209 1.391 . S
C1209 H1197 0.950 . S
C1209 C1205 1.393 . S
C1209 C1208 1.391 . S
C1210 H1200 0.950 . S
C1210 C1211 1.386 . S
C1210 C1212 1.391 . S
C1211 C1210 1.386 . S
C1211 C1215 1.393 . S
C1212 H1201 0.950 . S
C1212 C1210 1.391 . S
C1212 C1213 1.400 . S
C1213 C1207 1.491 . S
C1213 C1212 1.400 . S
C1213 C1214 1.398 . S
C1214 H1202 0.950 . S
C1214 C1213 1.398 . S
C1214 C1215 1.391 . S
C1215 H1203 0.950 . S
C1215 C1211 1.393 . S
C1215 C1214 1.391 . S
H1216 C1224 0.950 . S
H1217 C1229 0.950 . S
H1218 C1226 0.950 . S
H1219 C1228 0.950 . S
H1220 C1230 0.950 . S
H1221 C1232 0.950 . S
H1222 C1234 0.950 . S
H1223 C1235 0.950 . S
C1224 H1216 0.950 . S
C1224 C1225 1.386 . S
C1224 C1226 1.391 . S
C1225 C1224 1.386 . S
C1225 C1229 1.393 . S
C1226 H1218 0.950 . S
C1226 C1224 1.391 . S
C1226 C1227 1.400 . S
C1227 C1226 1.400 . S
C1227 C1228 1.398 . S
C1227 C1233 1.491 . S
C1228 H1219 0.950 . S
C1228 C1227 1.398 . S
C1228 C1229 1.391 . S
C1229 H1217 0.950 . S
C1229 C1225 1.393 . S
C1229 C1228 1.391 . S
C1230 H1220 0.950 . S
C1230 C1231 1.386 . S
C1230 C1232 1.391 . S
C1231 C1230 1.386 . S
C1231 C1235 1.393 . S
C1232 H1221 0.950 . S
C1232 C1230 1.391 . S
C1232 C1233 1.400 . S
C1233 C1227 1.491 . S
C1233 C1232 1.400 . S
C1233 C1234 1.398 . S
C1234 H1222 0.950 . S
C1234 C1233 1.398 . S
C1234 C1235 1.391 . S
C1235 H1223 0.950 . S
C1235 C1231 1.393 . S
C1235 C1234 1.391 . S
H1236 C1244 0.950 . S
H1237 C1249 0.950 . S
H1238 C1246 0.950 . S
H1239 C1248 0.950 . S
H1240 C1250 0.950 . S
H1241 C1252 0.950 . S
H1242 C1254 0.950 . S
H1243 C1255 0.950 . S
C1244 H1236 0.950 . S
C1244 C1245 1.386 . S
C1244 C1246 1.391 . S
C1245 C1244 1.386 . S
C1245 C1249 1.393 . S
C1246 H1238 0.950 . S
C1246 C1244 1.391 . S
C1246 C1247 1.400 . S
C1247 C1246 1.400 . S
C1247 C1248 1.398 . S
C1247 C1253 1.491 . S
C1248 H1239 0.950 . S
C1248 C1247 1.398 . S
C1248 C1249 1.391 . S
C1249 H1237 0.950 . S
C1249 C1245 1.393 . S
C1249 C1248 1.391 . S
C1250 H1240 0.950 . S
C1250 C1251 1.386 . S
C1250 C1252 1.391 . S
C1251 C1250 1.386 . S
C1251 C1255 1.393 . S
C1252 H1241 0.950 . S
C1252 C1250 1.391 . S
C1252 C1253 1.400 . S
C1253 C1247 1.491 . S
C1253 C1252 1.400 . S
C1253 C1254 1.398 . S
C1254 H1242 0.950 . S
C1254 C1253 1.398 . S
C1254 C1255 1.391 . S
C1255 H1243 0.950 . S
C1255 C1251 1.393 . S
C1255 C1254 1.391 . S
H1256 C1264 0.950 . S
H1257 C1269 0.950 . S
H1258 C1266 0.950 . S
H1259 C1268 0.950 . S
H1260 C1270 0.950 . S
H1261 C1272 0.950 . S
H1262 C1274 0.950 . S
H1263 C1275 0.950 . S
C1264 H1256 0.950 . S
C1264 C1265 1.386 . S
C1264 C1266 1.391 . S
C1265 C1264 1.386 . S
C1265 C1269 1.393 . S
C1266 H1258 0.950 . S
C1266 C1264 1.391 . S
C1266 C1267 1.400 . S
C1267 C1266 1.400 . S
C1267 C1268 1.398 . S
C1267 C1273 1.491 . S
C1268 H1259 0.950 . S
C1268 C1267 1.398 . S
C1268 C1269 1.391 . S
C1269 H1257 0.950 . S
C1269 C1265 1.393 . S
C1269 C1268 1.391 . S
C1270 H1260 0.950 . S
C1270 C1271 1.386 . S
C1270 C1272 1.391 . S
C1271 C1270 1.386 . S
C1271 C1275 1.393 . S
C1272 H1261 0.950 . S
C1272 C1270 1.391 . S
C1272 C1273 1.400 . S
C1273 C1267 1.491 . S
C1273 C1272 1.400 . S
C1273 C1274 1.398 . S
C1274 H1262 0.950 . S
C1274 C1273 1.398 . S
C1274 C1275 1.391 . S
C1275 H1263 0.950 . S
C1275 C1271 1.393 . S
C1275 C1274 1.391 . S
H1276 C1284 0.950 . S
H1277 C1289 0.950 . S
H1278 C1286 0.950 . S
H1279 C1288 0.950 . S
H1280 C1290 0.950 . S
H1281 C1292 0.950 . S
H1282 C1294 0.950 . S
H1283 C1295 0.950 . S
C1284 H1276 0.950 . S
C1284 C1285 1.386 . S
C1284 C1286 1.391 . S
C1285 C1284 1.386 . S
C1285 C1289 1.393 . S
C1286 H1278 0.950 . S
C1286 C1284 1.391 . S
C1286 C1287 1.400 . S
C1287 C1286 1.400 . S
C1287 C1288 1.398 . S
C1287 C1293 1.491 . S
C1288 H1279 0.950 . S
C1288 C1287 1.398 . S
C1288 C1289 1.391 . S
C1289 H1277 0.950 . S
C1289 C1285 1.393 . S
C1289 C1288 1.391 . S
C1290 H1280 0.950 . S
C1290 C1291 1.386 . S
C1290 C1292 1.391 . S
C1291 C1290 1.386 . S
C1291 C1295 1.393 . S
C1292 H1281 0.950 . S
C1292 C1290 1.391 . S
C1292 C1293 1.400 . S
C1293 C1287 1.491 . S
C1293 C1292 1.400 . S
C1293 C1294 1.398 . S
C1294 H1282 0.950 . S
C1294 C1293 1.398 . S
C1294 C1295 1.391 . S
C1295 H1283 0.950 . S
C1295 C1291 1.393 . S
C1295 C1294 1.391 . S
H1296 C1304 0.950 . S
H1297 C1309 0.950 . S
H1298 C1306 0.950 . S
H1299 C1308 0.950 . S
H1300 C1310 0.950 . S
H1301 C1312 0.950 . S
H1302 C1314 0.950 . S
H1303 C1315 0.950 . S
C1304 H1296 0.950 . S
C1304 C1305 1.386 . S
C1304 C1306 1.391 . S
C1305 C1304 1.386 . S
C1305 C1309 1.393 . S
C1306 H1298 0.950 . S
C1306 C1304 1.391 . S
C1306 C1307 1.400 . S
C1307 C1306 1.400 . S
C1307 C1308 1.398 . S
C1307 C1313 1.491 . S
C1308 H1299 0.950 . S
C1308 C1307 1.398 . S
C1308 C1309 1.391 . S
C1309 H1297 0.950 . S
C1309 C1305 1.393 . S
C1309 C1308 1.391 . S
C1310 H1300 0.950 . S
C1310 C1311 1.386 . S
C1310 C1312 1.391 . S
C1311 C1310 1.386 . S
C1311 C1315 1.393 . S
C1312 H1301 0.950 . S
C1312 C1310 1.391 . S
C1312 C1313 1.400 . S
C1313 C1307 1.491 . S
C1313 C1312 1.400 . S
C1313 C1314 1.398 . S
C1314 H1302 0.950 . S
C1314 C1313 1.398 . S
C1314 C1315 1.391 . S
C1315 H1303 0.950 . S
C1315 C1311 1.393 . S
C1315 C1314 1.391 . S
H1316 C1324 0.950 . S
H1317 C1329 0.950 . S
H1318 C1326 0.950 . S
H1319 C1328 0.950 . S
H1320 C1330 0.950 . S
H1321 C1332 0.950 . S
H1322 C1334 0.950 . S
H1323 C1335 0.950 . S
C1324 H1316 0.950 . S
C1324 C1325 1.386 . S
C1324 C1326 1.391 . S
C1325 C1324 1.386 . S
C1325 C1329 1.393 . S
C1326 H1318 0.950 . S
C1326 C1324 1.391 . S
C1326 C1327 1.400 . S
C1327 C1326 1.400 . S
C1327 C1328 1.398 . S
C1327 C1333 1.491 . S
C1328 H1319 0.950 . S
C1328 C1327 1.398 . S
C1328 C1329 1.391 . S
C1329 H1317 0.950 . S
C1329 C1325 1.393 . S
C1329 C1328 1.391 . S
C1330 H1320 0.950 . S
C1330 C1331 1.386 . S
C1330 C1332 1.391 . S
C1331 C1330 1.386 . S
C1331 C1335 1.393 . S
C1332 H1321 0.950 . S
C1332 C1330 1.391 . S
C1332 C1333 1.400 . S
C1333 C1327 1.491 . S
C1333 C1332 1.400 . S
C1333 C1334 1.398 . S
C1334 H1322 0.950 . S
C1334 C1333 1.398 . S
C1334 C1335 1.391 . S
C1335 H1323 0.950 . S
C1335 C1331 1.393 . S
C1335 C1334 1.391 . S
H1336 C1344 0.950 . S
H1337 C1349 0.950 . S
H1338 C1346 0.950 . S
H1339 C1348 0.950 . S
H1340 C1350 0.950 . S
H1341 C1352 0.950 . S
H1342 C1354 0.950 . S
H1343 C1355 0.950 . S
C1344 H1336 0.950 . S
C1344 C1345 1.386 . S
C1344 C1346 1.391 . S
C1345 C1344 1.386 . S
C1345 C1349 1.393 . S
C1346 H1338 0.950 . S
C1346 C1344 1.391 . S
C1346 C1347 1.400 . S
C1347 C1346 1.400 . S
C1347 C1348 1.398 . S
C1347 C1353 1.491 . S
C1348 H1339 0.950 . S
C1348 C1347 1.398 . S
C1348 C1349 1.391 . S
C1349 H1337 0.950 . S
C1349 C1345 1.393 . S
C1349 C1348 1.391 . S
C1350 H1340 0.950 . S
C1350 C1351 1.386 . S
C1350 C1352 1.391 . S
C1351 C1350 1.386 . S
C1351 C1355 1.393 . S
C1352 H1341 0.950 . S
C1352 C1350 1.391 . S
C1352 C1353 1.400 . S
C1353 C1347 1.491 . S
C1353 C1352 1.400 . S
C1353 C1354 1.398 . S
C1354 H1342 0.950 . S
C1354 C1353 1.398 . S
C1354 C1355 1.391 . S
C1355 H1343 0.950 . S
C1355 C1351 1.393 . S
C1355 C1354 1.391 . S
H1356 C1364 0.950 . S
H1357 C1369 0.950 . S
H1358 C1366 0.950 . S
H1359 C1368 0.950 . S
H1360 C1370 0.950 . S
H1361 C1372 0.950 . S
H1362 C1374 0.950 . S
H1363 C1375 0.950 . S
C1364 H1356 0.950 . S
C1364 C1365 1.386 . S
C1364 C1366 1.391 . S
C1365 C1364 1.386 . S
C1365 C1369 1.393 . S
C1366 H1358 0.950 . S
C1366 C1364 1.391 . S
C1366 C1367 1.400 . S
C1367 C1366 1.400 . S
C1367 C1368 1.398 . S
C1367 C1373 1.491 . S
C1368 H1359 0.950 . S
C1368 C1367 1.398 . S
C1368 C1369 1.391 . S
C1369 H1357 0.950 . S
C1369 C1365 1.393 . S
C1369 C1368 1.391 . S
C1370 H1360 0.950 . S
C1370 C1371 1.386 . S
C1370 C1372 1.391 . S
C1371 C1370 1.386 . S
C1371 C1375 1.393 . S
C1372 H1361 0.950 . S
C1372 C1370 1.391 . S
C1372 C1373 1.400 . S
C1373 C1367 1.491 . S
C1373 C1372 1.400 . S
C1373 C1374 1.398 . S
C1374 H1362 0.950 . S
C1374 C1373 1.398 . S
C1374 C1375 1.391 . S
C1375 H1363 0.950 . S
C1375 C1371 1.393 . S
C1375 C1374 1.391 . S
H1376 C1384 0.950 . S
H1377 C1389 0.950 . S
H1378 C1386 0.950 1_554 S
H1379 C1388 0.950 1_545 S
H1380 C1390 0.950 . S
H1381 C1392 0.950 1_556 S
H1382 C1394 0.950 1_565 S
H1383 C1395 0.950 . S
C1384 H1376 0.950 . S
C1384 C1385 1.386 . S
C1384 C1386 1.391 . S
C1385 C1384 1.386 . S
C1385 C1389 1.393 . S
C1386 H1378 0.950 1_556 S
C1386 C1384 1.391 . S
C1386 C1387 1.400 . S
C1387 C1386 1.400 . S
C1387 C1388 1.398 . S
C1387 C1393 1.491 1_566 S
C1388 H1379 0.950 1_565 S
C1388 C1387 1.398 . S
C1388 C1389 1.391 . S
C1389 H1377 0.950 . S
C1389 C1385 1.393 . S
C1389 C1388 1.391 . S
C1390 H1380 0.950 . S
C1390 C1391 1.386 . S
C1390 C1392 1.391 . S
C1391 C1390 1.386 . S
C1391 C1395 1.393 . S
C1392 H1381 0.950 1_554 S
C1392 C1390 1.391 . S
C1392 C1393 1.400 . S
C1393 C1387 1.491 1_544 S
C1393 C1392 1.400 . S
C1393 C1394 1.398 . S
C1394 H1382 0.950 1_545 S
C1394 C1393 1.398 . S
C1394 C1395 1.391 . S
C1395 H1383 0.950 . S
C1395 C1391 1.393 . S
C1395 C1394 1.391 . S
H1396 C1404 0.950 . S
H1397 C1409 0.950 . S
H1398 C1406 0.950 1_556 S
H1399 C1408 0.950 . S
H1400 C1410 0.950 . S
H1401 C1412 0.950 1_554 S
H1402 C1414 0.950 . S
H1403 C1415 0.950 . S
C1404 H1396 0.950 . S
C1404 C1405 1.386 . S
C1404 C1406 1.391 . S
C1405 C1404 1.386 . S
C1405 C1409 1.393 . S
C1406 H1398 0.950 1_554 S
C1406 C1404 1.391 . S
C1406 C1407 1.400 . S
C1407 C1406 1.400 . S
C1407 C1408 1.398 . S
C1407 C1413 1.491 1_554 S
C1408 H1399 0.950 . S
C1408 C1407 1.398 . S
C1408 C1409 1.391 . S
C1409 H1397 0.950 . S
C1409 C1405 1.393 . S
C1409 C1408 1.391 . S
C1410 H1400 0.950 . S
C1410 C1411 1.386 . S
C1410 C1412 1.391 . S
C1411 C1410 1.386 . S
C1411 C1415 1.393 . S
C1412 H1401 0.950 1_556 S
C1412 C1410 1.391 . S
C1412 C1413 1.400 . S
C1413 C1407 1.491 1_556 S
C1413 C1412 1.400 . S
C1413 C1414 1.398 . S
C1414 H1402 0.950 . S
C1414 C1413 1.398 . S
C1414 C1415 1.391 . S
C1415 H1403 0.950 . S
C1415 C1411 1.393 . S
C1415 C1414 1.391 . S
H1416 C1424 0.950 . S
H1417 C1429 0.950 . S
H1418 C1426 0.950 . S
H1419 C1428 0.950 . S
H1420 C1430 0.950 . S
H1421 C1432 0.950 . S
H1422 C1434 0.950 . S
H1423 C1435 0.950 . S
C1424 H1416 0.950 . S
C1424 C1425 1.386 . S
C1424 C1426 1.391 . S
C1425 C1424 1.386 . S
C1425 C1429 1.393 . S
C1426 H1418 0.950 . S
C1426 C1424 1.391 . S
C1426 C1427 1.400 . S
C1427 C1426 1.400 . S
C1427 C1428 1.398 . S
C1427 C1433 1.491 . S
C1428 H1419 0.950 . S
C1428 C1427 1.398 . S
C1428 C1429 1.391 . S
C1429 H1417 0.950 . S
C1429 C1425 1.393 . S
C1429 C1428 1.391 . S
C1430 H1420 0.950 . S
C1430 C1431 1.386 . S
C1430 C1432 1.391 . S
C1431 C1430 1.386 . S
C1431 C1435 1.393 . S
C1432 H1421 0.950 . S
C1432 C1430 1.391 . S
C1432 C1433 1.400 . S
C1433 C1427 1.491 . S
C1433 C1432 1.400 . S
C1433 C1434 1.398 . S
C1434 H1422 0.950 . S
C1434 C1433 1.398 . S
C1434 C1435 1.391 . S
C1435 H1423 0.950 . S
C1435 C1431 1.393 . S
C1435 C1434 1.391 . S
H1436 C1444 0.950 . S
H1437 C1449 0.950 . S
H1438 C1446 0.950 . S
H1439 C1448 0.950 . S
H1440 C1450 0.950 . S
H1441 C1452 0.950 . S
H1442 C1454 0.950 . S
H1443 C1455 0.950 . S
C1444 H1436 0.950 . S
C1444 C1445 1.386 . S
C1444 C1446 1.391 . S
C1445 C1444 1.386 . S
C1445 C1449 1.393 . S
C1446 H1438 0.950 . S
C1446 C1444 1.391 . S
C1446 C1447 1.400 . S
C1447 C1446 1.400 . S
C1447 C1448 1.398 . S
C1447 C1453 1.491 1_545 S
C1448 H1439 0.950 . S
C1448 C1447 1.398 . S
C1448 C1449 1.391 . S
C1449 H1437 0.950 . S
C1449 C1445 1.393 . S
C1449 C1448 1.391 . S
C1450 H1440 0.950 . S
C1450 C1451 1.386 . S
C1450 C1452 1.391 . S
C1451 C1450 1.386 . S
C1451 C1455 1.393 . S
C1452 H1441 0.950 . S
C1452 C1450 1.391 . S
C1452 C1453 1.400 . S
C1453 C1447 1.491 1_565 S
C1453 C1452 1.400 . S
C1453 C1454 1.398 . S
C1454 H1442 0.950 . S
C1454 C1453 1.398 . S
C1454 C1455 1.391 . S
C1455 H1443 0.950 . S
C1455 C1451 1.393 . S
C1455 C1454 1.391 . S
H1456 C1464 0.950 . S
H1457 C1469 0.950 . S
H1458 C1466 0.950 . S
H1459 C1468 0.950 . S
H1460 C1470 0.950 . S
H1461 C1472 0.950 . S
H1462 C1474 0.950 . S
H1463 C1475 0.950 . S
C1464 H1456 0.950 . S
C1464 C1465 1.386 . S
C1464 C1466 1.391 . S
C1465 C1464 1.386 . S
C1465 C1469 1.393 . S
C1466 H1458 0.950 . S
C1466 C1464 1.391 . S
C1466 C1467 1.400 . S
C1467 C1466 1.400 . S
C1467 C1468 1.398 . S
C1467 C1473 1.491 1_556 S
C1468 H1459 0.950 . S
C1468 C1467 1.398 . S
C1468 C1469 1.391 . S
C1469 H1457 0.950 . S
C1469 C1465 1.393 . S
C1469 C1468 1.391 . S
C1470 H1460 0.950 . S
C1470 C1471 1.386 . S
C1470 C1472 1.391 . S
C1471 C1470 1.386 . S
C1471 C1475 1.393 . S
C1472 H1461 0.950 . S
C1472 C1470 1.391 . S
C1472 C1473 1.400 . S
C1473 C1467 1.491 1_554 S
C1473 C1472 1.400 . S
C1473 C1474 1.398 . S
C1474 H1462 0.950 . S
C1474 C1473 1.398 . S
C1474 C1475 1.391 . S
C1475 H1463 0.950 . S
C1475 C1471 1.393 . S
C1475 C1474 1.391 . S
H1476 C1484 0.950 . S
H1477 C1489 0.950 . S
H1478 C1486 0.950 . S
H1479 C1488 0.950 . S
H1480 C1490 0.950 . S
H1481 C1492 0.950 . S
H1482 C1494 0.950 . S
H1483 C1495 0.950 . S
C1484 H1476 0.950 . S
C1484 C1485 1.386 . S
C1484 C1486 1.391 . S
C1485 C1484 1.386 . S
C1485 C1489 1.393 . S
C1486 H1478 0.950 . S
C1486 C1484 1.391 . S
C1486 C1487 1.400 . S
C1487 C1486 1.400 . S
C1487 C1488 1.398 . S
C1487 C1493 1.491 . S
C1488 H1479 0.950 . S
C1488 C1487 1.398 . S
C1488 C1489 1.391 . S
C1489 H1477 0.950 . S
C1489 C1485 1.393 . S
C1489 C1488 1.391 . S
C1490 H1480 0.950 . S
C1490 C1491 1.386 . S
C1490 C1492 1.391 . S
C1491 C1490 1.386 . S
C1491 C1495 1.393 . S
C1492 H1481 0.950 . S
C1492 C1490 1.391 . S
C1492 C1493 1.400 . S
C1493 C1487 1.491 . S
C1493 C1492 1.400 . S
C1493 C1494 1.398 . S
C1494 H1482 0.950 . S
C1494 C1493 1.398 . S
C1494 C1495 1.391 . S
C1495 H1483 0.950 . S
C1495 C1491 1.393 . S
C1495 C1494 1.391 . S
H1496 C1504 0.950 . S
H1497 C1509 0.950 . S
H1498 C1506 0.950 . S
H1499 C1508 0.950 . S
H1500 C1510 0.950 . S
H1501 C1512 0.950 . S
H1502 C1514 0.950 . S
H1503 C1515 0.950 . S
C1504 H1496 0.950 . S
C1504 C1505 1.386 . S
C1504 C1506 1.391 . S
C1505 C1504 1.386 . S
C1505 C1509 1.393 . S
C1506 H1498 0.950 . S
C1506 C1504 1.391 . S
C1506 C1507 1.400 . S
C1507 C1506 1.400 . S
C1507 C1508 1.398 1_545 S
C1507 C1513 1.491 1_545 S
C1508 H1499 0.950 . S
C1508 C1507 1.398 1_565 S
C1508 C1509 1.391 1_565 S
C1509 H1497 0.950 . S
C1509 C1505 1.393 . S
C1509 C1508 1.391 1_545 S
C1510 H1500 0.950 . S
C1510 C1511 1.386 . S
C1510 C1512 1.391 . S
C1511 C1510 1.386 . S
C1511 C1515 1.393 . S
C1512 H1501 0.950 . S
C1512 C1510 1.391 . S
C1512 C1513 1.400 . S
C1513 C1507 1.491 1_565 S
C1513 C1512 1.400 . S
C1513 C1514 1.398 1_565 S
C1514 H1502 0.950 . S
C1514 C1513 1.398 1_545 S
C1514 C1515 1.391 1_545 S
C1515 H1503 0.950 . S
C1515 C1511 1.393 . S
C1515 C1514 1.391 1_565 S
H1516 C1524 0.950 . S
H1517 C1529 0.950 . S
H1518 C1526 0.950 . S
H1519 C1528 0.950 . S
H1520 C1530 0.950 . S
H1521 C1532 0.950 . S
H1522 C1534 0.950 . S
H1523 C1535 0.950 . S
C1524 H1516 0.950 . S
C1524 C1525 1.386 . S
C1524 C1526 1.391 . S
C1525 C1524 1.386 . S
C1525 C1529 1.393 . S
C1526 H1518 0.950 . S
C1526 C1524 1.391 . S
C1526 C1527 1.400 . S
C1527 C1526 1.400 . S
C1527 C1528 1.398 . S
C1527 C1533 1.491 . S
C1528 H1519 0.950 . S
C1528 C1527 1.398 . S
C1528 C1529 1.391 . S
C1529 H1517 0.950 . S
C1529 C1525 1.393 . S
C1529 C1528 1.391 . S
C1530 H1520 0.950 . S
C1530 C1531 1.386 . S
C1530 C1532 1.391 . S
C1531 C1530 1.386 . S
C1531 C1535 1.393 . S
C1532 H1521 0.950 . S
C1532 C1530 1.391 . S
C1532 C1533 1.400 . S
C1533 C1527 1.491 . S
C1533 C1532 1.400 . S
C1533 C1534 1.398 . S
C1534 H1522 0.950 . S
C1534 C1533 1.398 . S
C1534 C1535 1.391 . S
C1535 H1523 0.950 . S
C1535 C1531 1.393 . S
C1535 C1534 1.391 . S
H1536 C1544 0.950 . S
H1537 C1549 0.950 . S
H1538 C1546 0.950 . S
H1539 C1548 0.950 . S
H1540 C1550 0.950 . S
H1541 C1552 0.950 . S
H1542 C1554 0.950 . S
H1543 C1555 0.950 . S
C1544 H1536 0.950 . S
C1544 C1545 1.386 . S
C1544 C1546 1.391 . S
C1545 C1544 1.386 . S
C1545 C1549 1.393 . S
C1546 H1538 0.950 . S
C1546 C1544 1.391 . S
C1546 C1547 1.400 . S
C1547 C1546 1.400 . S
C1547 C1548 1.398 . S
C1547 C1553 1.491 . S
C1548 H1539 0.950 . S
C1548 C1547 1.398 . S
C1548 C1549 1.391 . S
C1549 H1537 0.950 . S
C1549 C1545 1.393 . S
C1549 C1548 1.391 . S
C1550 H1540 0.950 . S
C1550 C1551 1.386 . S
C1550 C1552 1.391 . S
C1551 C1550 1.386 . S
C1551 C1555 1.393 . S
C1552 H1541 0.950 . S
C1552 C1550 1.391 . S
C1552 C1553 1.400 . S
C1553 C1547 1.491 . S
C1553 C1552 1.400 . S
C1553 C1554 1.398 . S
C1554 H1542 0.950 . S
C1554 C1553 1.398 . S
C1554 C1555 1.391 . S
C1555 H1543 0.950 . S
C1555 C1551 1.393 . S
C1555 C1554 1.391 . S
H1556 C1564 0.950 . S
H1557 C1569 0.950 . S
H1558 C1566 0.950 . S
H1559 C1568 0.950 . S
H1560 C1570 0.950 . S
H1561 C1572 0.950 . S
H1562 C1574 0.950 . S
H1563 C1575 0.950 . S
C1564 H1556 0.950 . S
C1564 C1565 1.386 . S
C1564 C1566 1.391 . S
C1565 C1564 1.386 . S
C1565 C1569 1.393 . S
C1566 H1558 0.950 . S
C1566 C1564 1.391 . S
C1566 C1567 1.400 . S
C1567 C1566 1.400 . S
C1567 C1568 1.398 . S
C1567 C1573 1.491 . S
C1568 H1559 0.950 . S
C1568 C1567 1.398 . S
C1568 C1569 1.391 . S
C1569 H1557 0.950 . S
C1569 C1565 1.393 . S
C1569 C1568 1.391 . S
C1570 H1560 0.950 . S
C1570 C1571 1.386 . S
C1570 C1572 1.391 . S
C1571 C1570 1.386 . S
C1571 C1575 1.393 . S
C1572 H1561 0.950 . S
C1572 C1570 1.391 . S
C1572 C1573 1.400 . S
C1573 C1567 1.491 . S
C1573 C1572 1.400 . S
C1573 C1574 1.398 . S
C1574 H1562 0.950 . S
C1574 C1573 1.398 . S
C1574 C1575 1.391 . S
C1575 H1563 0.950 . S
C1575 C1571 1.393 . S
C1575 C1574 1.391 . S
H1576 C1584 0.950 . S
H1577 C1589 0.950 . S
H1578 C1586 0.950 . S
H1579 C1588 0.950 . S
H1580 C1590 0.950 . S
H1581 C1592 0.950 . S
H1582 C1594 0.950 . S
H1583 C1595 0.950 . S
C1584 H1576 0.950 . S
C1584 C1585 1.386 . S
C1584 C1586 1.391 . S
C1585 C1584 1.386 . S
C1585 C1589 1.393 . S
C1586 H1578 0.950 . S
C1586 C1584 1.391 . S
C1586 C1587 1.400 . S
C1587 C1586 1.400 . S
C1587 C1588 1.398 . S
C1587 C1593 1.491 . S
C1588 H1579 0.950 . S
C1588 C1587 1.398 . S
C1588 C1589 1.391 . S
C1589 H1577 0.950 . S
C1589 C1585 1.393 . S
C1589 C1588 1.391 . S
C1590 H1580 0.950 . S
C1590 C1591 1.386 . S
C1590 C1592 1.391 . S
C1591 C1590 1.386 . S
C1591 C1595 1.393 . S
C1592 H1581 0.950 . S
C1592 C1590 1.391 . S
C1592 C1593 1.400 . S
C1593 C1587 1.491 . S
C1593 C1592 1.400 . S
C1593 C1594 1.398 . S
C1594 H1582 0.950 . S
C1594 C1593 1.398 . S
C1594 C1595 1.391 . S
C1595 H1583 0.950 . S
C1595 C1591 1.393 . S
C1595 C1594 1.391 . S
H1596 C1604 0.950 . S
H1597 C1609 0.950 . S
H1598 C1606 0.950 . S
H1599 C1608 0.950 . S
H1600 C1610 0.950 . S
H1601 C1612 0.950 . S
H1602 C1614 0.950 . S
H1603 C1615 0.950 . S
C1604 H1596 0.950 . S
C1604 C1605 1.386 . S
C1604 C1606 1.391 . S
C1605 C1604 1.386 . S
C1605 C1609 1.393 . S
C1606 H1598 0.950 . S
C1606 C1604 1.391 . S
C1606 C1607 1.400 . S
C1607 C1606 1.400 . S
C1607 C1608 1.398 . S
C1607 C1613 1.491 . S
C1608 H1599 0.950 . S
C1608 C1607 1.398 . S
C1608 C1609 1.391 . S
C1609 H1597 0.950 . S
C1609 C1605 1.393 . S
C1609 C1608 1.391 . S
C1610 H1600 0.950 . S
C1610 C1611 1.386 . S
C1610 C1612 1.391 . S
C1611 C1610 1.386 . S
C1611 C1615 1.393 . S
C1612 H1601 0.950 . S
C1612 C1610 1.391 . S
C1612 C1613 1.400 . S
C1613 C1607 1.491 . S
C1613 C1612 1.400 . S
C1613 C1614 1.398 . S
C1614 H1602 0.950 . S
C1614 C1613 1.398 . S
C1614 C1615 1.391 . S
C1615 H1603 0.950 . S
C1615 C1611 1.393 . S
C1615 C1614 1.391 . S
H1616 C1624 0.950 . S
H1617 C1629 0.950 . S
H1618 C1626 0.950 1_545 S
H1619 C1628 0.950 . S
H1620 C1630 0.950 . S
H1621 C1632 0.950 1_565 S
H1622 C1634 0.950 . S
H1623 C1635 0.950 . S
C1624 H1616 0.950 . S
C1624 C1625 1.386 . S
C1624 C1626 1.391 . S
C1625 C1624 1.386 . S
C1625 C1629 1.393 1_455 S
C1626 H1618 0.950 1_565 S
C1626 C1624 1.391 . S
C1626 C1627 1.400 . S
C1627 C1626 1.400 . S
C1627 C1628 1.398 1_455 S
C1627 C1633 1.491 1_465 S
C1628 H1619 0.950 . S
C1628 C1627 1.398 1_655 S
C1628 C1629 1.391 . S
C1629 H1617 0.950 . S
C1629 C1625 1.393 1_655 S
C1629 C1628 1.391 . S
C1630 H1620 0.950 . S
C1630 C1631 1.386 . S
C1630 C1632 1.391 . S
C1631 C1630 1.386 . S
C1631 C1635 1.393 1_655 S
C1632 H1621 0.950 1_545 S
C1632 C1630 1.391 . S
C1632 C1633 1.400 . S
C1633 C1627 1.491 1_645 S
C1633 C1632 1.400 . S
C1633 C1634 1.398 1_655 S
C1634 H1622 0.950 . S
C1634 C1633 1.398 1_455 S
C1634 C1635 1.391 . S
C1635 H1623 0.950 . S
C1635 C1631 1.393 1_455 S
C1635 C1634 1.391 . S
H1636 C1644 0.950 . S
H1637 C1649 0.935 1_455 S
H1638 C1646 0.950 . S
H1639 C1648 0.950 . S
H1640 C1650 0.950 . S
H1641 C1652 0.950 . S
H1642 C1654 0.950 . S
H1643 C1655 0.934 1_655 S
C1644 H1636 0.950 . S
C1644 C1645 1.386 . S
C1644 C1646 1.391 . S
C1645 C1644 1.386 . S
C1645 C1649 1.393 . S
C1646 H1638 0.950 . S
C1646 C1644 1.391 . S
C1646 C1647 1.400 . S
C1647 C1646 1.400 . S
C1647 C1648 1.398 1_655 S
C1647 C1653 1.491 1_655 S
C1648 H1639 0.950 . S
C1648 C1647 1.398 1_455 S
C1648 C1649 1.391 1_455 S
C1649 H1637 0.935 1_655 S
C1649 C1645 1.393 . S
C1649 C1648 1.391 1_655 S
C1650 H1640 0.950 . S
C1650 C1651 1.386 . S
C1650 C1652 1.391 . S
C1651 C1650 1.386 . S
C1651 C1655 1.393 . S
C1652 H1641 0.950 . S
C1652 C1650 1.391 . S
C1652 C1653 1.400 . S
C1653 C1647 1.491 1_455 S
C1653 C1652 1.400 . S
C1653 C1654 1.398 1_455 S
C1654 H1642 0.950 . S
C1654 C1653 1.398 1_655 S
C1654 C1655 1.391 1_655 S
C1655 H1643 0.934 1_455 S
C1655 C1651 1.393 . S
C1655 C1654 1.391 1_455 S
H1656 C1664 0.950 . S
H1657 C1669 0.950 . S
H1658 C1666 0.951 . S
H1659 C1668 0.950 . S
H1660 C1670 0.950 . S
H1661 C1672 0.951 . S
H1662 C1674 0.950 . S
H1663 C1675 0.950 . S
C1664 H1656 0.950 . S
C1664 C1665 1.386 . S
C1664 C1666 1.391 . S
C1665 C1664 1.386 . S
C1665 C1669 1.393 . S
C1666 H1658 0.951 . S
C1666 C1664 1.391 . S
C1666 C1667 1.400 . S
C1667 C1666 1.400 . S
C1667 C1668 1.398 . S
C1667 C1673 1.491 1_455 S
C1668 H1659 0.950 . S
C1668 C1667 1.398 . S
C1668 C1669 1.391 . S
C1669 H1657 0.950 . S
C1669 C1665 1.393 . S
C1669 C1668 1.391 . S
C1670 H1660 0.950 . S
C1670 C1671 1.386 . S
C1670 C1672 1.391 . S
C1671 C1670 1.386 . S
C1671 C1675 1.393 . S
C1672 H1661 0.951 . S
C1672 C1670 1.391 . S
C1672 C1673 1.400 . S
C1673 C1667 1.491 1_655 S
C1673 C1672 1.400 . S
C1673 C1674 1.398 . S
C1674 H1662 0.950 . S
C1674 C1673 1.398 . S
C1674 C1675 1.391 . S
C1675 H1663 0.950 . S
C1675 C1671 1.393 . S
C1675 C1674 1.391 . S
H1676 C1684 0.950 . S
H1677 C1689 0.950 . S
H1678 C1686 0.950 . S
H1679 C1688 0.950 . S
H1680 C1690 0.950 . S
H1681 C1692 0.950 . S
H1682 C1694 0.950 . S
H1683 C1695 0.950 . S
C1684 H1676 0.950 . S
C1684 C1685 1.386 1_655 S
C1684 C1686 1.391 . S
C1685 C1684 1.386 1_455 S
C1685 C1689 1.393 . S
C1686 H1678 0.950 . S
C1686 C1684 1.391 . S
C1686 C1687 1.400 1_655 S
C1687 C1686 1.400 1_455 S
C1687 C1688 1.398 . S
C1687 C1693 1.491 1_456 S
C1688 H1679 0.950 . S
C1688 C1687 1.398 . S
C1688 C1689 1.391 . S
C1689 H1677 0.950 . S
C1689 C1685 1.393 . S
C1689 C1688 1.391 . S
C1690 H1680 0.950 . S
C1690 C1691 1.386 1_455 S
C1690 C1692 1.391 . S
C1691 C1690 1.386 1_655 S
C1691 C1695 1.393 . S
C1692 H1681 0.950 . S
C1692 C1690 1.391 . S
C1692 C1693 1.400 1_455 S
C1693 C1687 1.491 1_654 S
C1693 C1692 1.400 1_655 S
C1693 C1694 1.398 . S
C1694 H1682 0.950 . S
C1694 C1693 1.398 . S
C1694 C1695 1.391 . S
C1695 H1683 0.950 . S
C1695 C1691 1.393 . S
C1695 C1694 1.391 . S
H1696 C1704 0.950 . S
H1697 C1709 0.950 . S
H1698 C1706 0.950 . S
H1699 C1708 0.950 . S
H1700 C1710 0.950 . S
H1701 C1712 0.950 . S
H1702 C1714 0.950 . S
H1703 C1715 0.950 . S
C1704 H1696 0.950 . S
C1704 C1705 1.386 . S
C1704 C1706 1.391 . S
C1705 C1704 1.386 . S
C1705 C1709 1.393 . S
C1706 H1698 0.950 . S
C1706 C1704 1.391 . S
C1706 C1707 1.400 . S
C1707 C1706 1.400 . S
C1707 C1708 1.398 . S
C1707 C1713 1.491 . S
C1708 H1699 0.950 . S
C1708 C1707 1.398 . S
C1708 C1709 1.391 . S
C1709 H1697 0.950 . S
C1709 C1705 1.393 . S
C1709 C1708 1.391 . S
C1710 H1700 0.950 . S
C1710 C1711 1.386 . S
C1710 C1712 1.391 . S
C1711 C1710 1.386 . S
C1711 C1715 1.393 . S
C1712 H1701 0.950 . S
C1712 C1710 1.391 . S
C1712 C1713 1.400 . S
C1713 C1707 1.491 . S
C1713 C1712 1.400 . S
C1713 C1714 1.398 . S
C1714 H1702 0.950 . S
C1714 C1713 1.398 . S
C1714 C1715 1.391 . S
C1715 H1703 0.950 . S
C1715 C1711 1.393 . S
C1715 C1714 1.391 . S
H1716 C1724 0.950 . S
H1717 C1729 0.950 . S
H1718 C1726 0.950 . S
H1719 C1728 0.950 . S
H1720 C1730 0.950 . S
H1721 C1732 0.950 . S
H1722 C1734 0.950 . S
H1723 C1735 0.950 . S
C1724 H1716 0.950 . S
C1724 C1725 1.386 . S
C1724 C1726 1.391 . S
C1725 C1724 1.386 . S
C1725 C1729 1.393 . S
C1726 H1718 0.950 . S
C1726 C1724 1.391 . S
C1726 C1727 1.400 . S
C1727 C1726 1.400 . S
C1727 C1728 1.398 . S
C1727 C1733 1.491 . S
C1728 H1719 0.950 . S
C1728 C1727 1.398 . S
C1728 C1729 1.391 . S
C1729 H1717 0.950 . S
C1729 C1725 1.393 . S
C1729 C1728 1.391 . S
C1730 H1720 0.950 . S
C1730 C1731 1.386 . S
C1730 C1732 1.391 . S
C1731 C1730 1.386 . S
C1731 C1735 1.393 . S
C1732 H1721 0.950 . S
C1732 C1730 1.391 . S
C1732 C1733 1.400 . S
C1733 C1727 1.491 . S
C1733 C1732 1.400 . S
C1733 C1734 1.398 . S
C1734 H1722 0.950 . S
C1734 C1733 1.398 . S
C1734 C1735 1.391 . S
C1735 H1723 0.950 . S
C1735 C1731 1.393 . S
C1735 C1734 1.391 . S
H1736 C1744 0.950 . S
H1737 C1749 0.950 . S
H1738 C1746 0.950 . S
H1739 C1748 0.950 . S
H1740 C1750 0.950 . S
H1741 C1752 0.950 . S
H1742 C1754 0.950 . S
H1743 C1755 0.950 . S
C1744 H1736 0.950 . S
C1744 C1745 1.386 . S
C1744 C1746 1.391 . S
C1745 C1744 1.386 . S
C1745 C1749 1.393 . S
C1746 H1738 0.950 . S
C1746 C1744 1.391 . S
C1746 C1747 1.400 . S
C1747 C1746 1.400 . S
C1747 C1748 1.398 . S
C1747 C1753 1.491 . S
C1748 H1739 0.950 . S
C1748 C1747 1.398 . S
C1748 C1749 1.391 . S
C1749 H1737 0.950 . S
C1749 C1745 1.393 . S
C1749 C1748 1.391 . S
C1750 H1740 0.950 . S
C1750 C1751 1.386 . S
C1750 C1752 1.391 . S
C1751 C1750 1.386 . S
C1751 C1755 1.393 . S
C1752 H1741 0.950 . S
C1752 C1750 1.391 . S
C1752 C1753 1.400 . S
C1753 C1747 1.491 . S
C1753 C1752 1.400 . S
C1753 C1754 1.398 . S
C1754 H1742 0.950 . S
C1754 C1753 1.398 . S
C1754 C1755 1.391 . S
C1755 H1743 0.950 . S
C1755 C1751 1.393 . S
C1755 C1754 1.391 . S
H1756 C1764 0.950 . S
H1757 C1769 0.950 . S
H1758 C1766 0.950 . S
H1759 C1768 0.950 . S
H1760 C1770 0.950 . S
H1761 C1772 0.950 . S
H1762 C1774 0.950 . S
H1763 C1775 0.950 . S
C1764 H1756 0.950 . S
C1764 C1765 1.386 . S
C1764 C1766 1.391 . S
C1765 C1764 1.386 . S
C1765 C1769 1.393 . S
C1766 H1758 0.950 . S
C1766 C1764 1.391 . S
C1766 C1767 1.400 . S
C1767 C1766 1.400 . S
C1767 C1768 1.398 . S
C1767 C1773 1.491 . S
C1768 H1759 0.950 . S
C1768 C1767 1.398 . S
C1768 C1769 1.391 . S
C1769 H1757 0.950 . S
C1769 C1765 1.393 . S
C1769 C1768 1.391 . S
C1770 H1760 0.950 . S
C1770 C1771 1.386 . S
C1770 C1772 1.391 . S
C1771 C1770 1.386 . S
C1771 C1775 1.393 . S
C1772 H1761 0.950 . S
C1772 C1770 1.391 . S
C1772 C1773 1.400 . S
C1773 C1767 1.491 . S
C1773 C1772 1.400 . S
C1773 C1774 1.398 . S
C1774 H1762 0.950 . S
C1774 C1773 1.398 . S
C1774 C1775 1.391 . S
C1775 H1763 0.950 . S
C1775 C1771 1.393 . S
C1775 C1774 1.391 . S
H1776 C1784 0.950 . S
H1777 C1789 0.950 . S
H1778 C1786 0.950 . S
H1779 C1788 0.950 . S
H1780 C1790 0.950 . S
H1781 C1792 0.950 . S
H1782 C1794 0.950 . S
H1783 C1795 0.950 . S
C1784 H1776 0.950 . S
C1784 C1785 1.386 . S
C1784 C1786 1.391 . S
C1785 C1784 1.386 . S
C1785 C1789 1.393 . S
C1786 H1778 0.950 . S
C1786 C1784 1.391 . S
C1786 C1787 1.400 . S
C1787 C1786 1.400 . S
C1787 C1788 1.398 . S
C1787 C1793 1.491 . S
C1788 H1779 0.950 . S
C1788 C1787 1.398 . S
C1788 C1789 1.391 . S
C1789 H1777 0.950 . S
C1789 C1785 1.393 . S
C1789 C1788 1.391 . S
C1790 H1780 0.950 . S
C1790 C1791 1.386 . S
C1790 C1792 1.391 . S
C1791 C1790 1.386 . S
C1791 C1795 1.393 . S
C1792 H1781 0.950 . S
C1792 C1790 1.391 . S
C1792 C1793 1.400 . S
C1793 C1787 1.491 . S
C1793 C1792 1.400 . S
C1793 C1794 1.398 . S
C1794 H1782 0.950 . S
C1794 C1793 1.398 . S
C1794 C1795 1.391 . S
C1795 H1783 0.950 . S
C1795 C1791 1.393 . S
C1795 C1794 1.391 . S
H1796 C1804 0.950 . S
H1797 C1809 0.950 . S
H1798 C1806 0.950 . S
H1799 C1808 0.950 . S
H1800 C1810 0.950 . S
H1801 C1812 0.950 . S
H1802 C1814 0.950 . S
H1803 C1815 0.950 . S
C1804 H1796 0.950 . S
C1804 C1805 1.386 . S
C1804 C1806 1.391 . S
C1805 C1804 1.386 . S
C1805 C1809 1.393 . S
C1806 H1798 0.950 . S
C1806 C1804 1.391 . S
C1806 C1807 1.400 . S
C1807 C1806 1.400 . S
C1807 C1808 1.398 . S
C1807 C1813 1.491 . S
C1808 H1799 0.950 . S
C1808 C1807 1.398 . S
C1808 C1809 1.391 . S
C1809 H1797 0.950 . S
C1809 C1805 1.393 . S
C1809 C1808 1.391 . S
C1810 H1800 0.950 . S
C1810 C1811 1.386 . S
C1810 C1812 1.391 . S
C1811 C1810 1.386 . S
C1811 C1815 1.393 . S
C1812 H1801 0.950 . S
C1812 C1810 1.391 . S
C1812 C1813 1.400 . S
C1813 C1807 1.491 . S
C1813 C1812 1.400 . S
C1813 C1814 1.398 . S
C1814 H1802 0.950 . S
C1814 C1813 1.398 . S
C1814 C1815 1.391 . S
C1815 H1803 0.950 . S
C1815 C1811 1.393 . S
C1815 C1814 1.391 . S
H1816 C1824 0.950 . S
H1817 C1829 0.950 . S
H1818 C1826 0.950 . S
H1819 C1828 0.950 . S
H1820 C1830 0.950 . S
H1821 C1832 0.950 . S
H1822 C1834 0.950 . S
H1823 C1835 0.950 . S
C1824 H1816 0.950 . S
C1824 C1825 1.386 . S
C1824 C1826 1.391 . S
C1825 C1824 1.386 . S
C1825 C1829 1.393 . S
C1826 H1818 0.950 . S
C1826 C1824 1.391 . S
C1826 C1827 1.400 . S
C1827 C1826 1.400 . S
C1827 C1828 1.398 . S
C1827 C1833 1.491 . S
C1828 H1819 0.950 . S
C1828 C1827 1.398 . S
C1828 C1829 1.391 . S
C1829 H1817 0.950 . S
C1829 C1825 1.393 . S
C1829 C1828 1.391 . S
C1830 H1820 0.950 . S
C1830 C1831 1.386 . S
C1830 C1832 1.391 . S
C1831 C1830 1.386 . S
C1831 C1835 1.393 . S
C1832 H1821 0.950 . S
C1832 C1830 1.391 . S
C1832 C1833 1.400 . S
C1833 C1827 1.491 . S
C1833 C1832 1.400 . S
C1833 C1834 1.398 . S
C1834 H1822 0.950 . S
C1834 C1833 1.398 . S
C1834 C1835 1.391 . S
C1835 H1823 0.950 . S
C1835 C1831 1.393 . S
C1835 C1834 1.391 . S
H1836 C1844 0.950 . S
H1837 C1849 0.950 . S
H1838 C1846 0.950 . S
H1839 C1848 0.950 . S
H1840 C1850 0.950 . S
H1841 C1852 0.950 . S
H1842 C1854 0.950 . S
H1843 C1855 0.950 . S
C1844 H1836 0.950 . S
C1844 C1845 1.386 . S
C1844 C1846 1.391 . S
C1845 C1844 1.386 . S
C1845 C1849 1.393 . S
C1846 H1838 0.950 . S
C1846 C1844 1.391 . S
C1846 C1847 1.400 . S
C1847 C1846 1.400 . S
C1847 C1848 1.398 . S
C1847 C1853 1.491 . S
C1848 H1839 0.950 . S
C1848 C1847 1.398 . S
C1848 C1849 1.391 . S
C1849 H1837 0.950 . S
C1849 C1845 1.393 . S
C1849 C1848 1.391 . S
C1850 H1840 0.950 . S
C1850 C1851 1.386 . S
C1850 C1852 1.391 . S
C1851 C1850 1.386 . S
C1851 C1855 1.393 . S
C1852 H1841 0.950 . S
C1852 C1850 1.391 . S
C1852 C1853 1.400 . S
C1853 C1847 1.491 . S
C1853 C1852 1.400 . S
C1853 C1854 1.398 . S
C1854 H1842 0.950 . S
C1854 C1853 1.398 . S
C1854 C1855 1.391 . S
C1855 H1843 0.950 . S
C1855 C1851 1.393 . S
C1855 C1854 1.391 . S
H1856 C1864 0.950 . S
H1857 C1869 0.950 . S
H1858 C1866 0.950 . S
H1859 C1868 0.950 . S
H1860 C1870 0.950 1_565 S
H1861 C1872 0.950 . S
H1862 C1874 0.950 . S
H1863 C1875 0.950 . S
C1864 H1856 0.950 . S
C1864 C1865 1.386 . S
C1864 C1866 1.391 . S
C1865 C1864 1.386 . S
C1865 C1869 1.393 . S
C1866 H1858 0.950 . S
C1866 C1864 1.391 . S
C1866 C1867 1.400 . S
C1867 C1866 1.400 . S
C1867 C1868 1.398 . S
C1867 C1873 1.491 . S
C1868 H1859 0.950 . S
C1868 C1867 1.398 . S
C1868 C1869 1.391 . S
C1869 H1857 0.950 . S
C1869 C1865 1.393 . S
C1869 C1868 1.391 . S
C1870 H1860 0.950 1_545 S
C1870 C1871 1.386 1_545 S
C1870 C1872 1.391 . S
C1871 C1870 1.386 1_565 S
C1871 C1875 1.393 1_565 S
C1872 H1861 0.950 . S
C1872 C1870 1.391 . S
C1872 C1873 1.400 . S
C1873 C1867 1.491 . S
C1873 C1872 1.400 . S
C1873 C1874 1.398 . S
C1874 H1862 0.950 . S
C1874 C1873 1.398 . S
C1874 C1875 1.391 . S
C1875 H1863 0.950 . S
C1875 C1871 1.393 1_545 S
C1875 C1874 1.391 . S
H1876 C1884 0.950 . S
H1877 C1889 0.950 . S
H1878 C1886 0.950 1_545 S
H1879 C1888 0.950 . S
H1880 C1890 0.950 . S
H1881 C1892 0.950 . S
H1882 C1894 0.950 . S
H1883 C1895 0.950 . S
C1884 H1876 0.950 . S
C1884 C1885 1.386 . S
C1884 C1886 1.391 . S
C1885 C1884 1.386 . S
C1885 C1889 1.393 . S
C1886 H1878 0.950 1_565 S
C1886 C1884 1.391 . S
C1886 C1887 1.400 1_565 S
C1887 C1886 1.400 1_545 S
C1887 C1888 1.398 1_545 S
C1887 C1893 1.491 . S
C1888 H1879 0.950 . S
C1888 C1887 1.398 1_565 S
C1888 C1889 1.391 . S
C1889 H1877 0.950 . S
C1889 C1885 1.393 . S
C1889 C1888 1.391 . S
C1890 H1880 0.950 . S
C1890 C1891 1.386 . S
C1890 C1892 1.391 . S
C1891 C1890 1.386 . S
C1891 C1895 1.393 . S
C1892 H1881 0.950 . S
C1892 C1890 1.391 . S
C1892 C1893 1.400 . S
C1893 C1887 1.491 . S
C1893 C1892 1.400 . S
C1893 C1894 1.398 . S
C1894 H1882 0.950 . S
C1894 C1893 1.398 . S
C1894 C1895 1.391 . S
C1895 H1883 0.950 . S
C1895 C1891 1.393 . S
C1895 C1894 1.391 . S
H1896 C1904 0.950 . S
H1897 C1909 0.950 . S
H1898 C1906 0.950 . S
H1899 C1908 0.950 1_545 S
H1900 C1910 0.950 . S
H1901 C1912 0.950 . S
H1902 C1914 0.950 . S
H1903 C1915 0.950 . S
C1904 H1896 0.950 . S
C1904 C1905 1.386 . S
C1904 C1906 1.391 . S
C1905 C1904 1.386 . S
C1905 C1909 1.393 . S
C1906 H1898 0.950 . S
C1906 C1904 1.391 . S
C1906 C1907 1.400 1_565 S
C1907 C1906 1.400 1_545 S
C1907 C1908 1.398 1_545 S
C1907 C1913 1.491 . S
C1908 H1899 0.950 1_565 S
C1908 C1907 1.398 1_565 S
C1908 C1909 1.391 . S
C1909 H1897 0.950 . S
C1909 C1905 1.393 . S
C1909 C1908 1.391 . S
C1910 H1900 0.950 . S
C1910 C1911 1.386 . S
C1910 C1912 1.391 . S
C1911 C1910 1.386 . S
C1911 C1915 1.393 . S
C1912 H1901 0.950 . S
C1912 C1910 1.391 . S
C1912 C1913 1.400 . S
C1913 C1907 1.491 . S
C1913 C1912 1.400 . S
C1913 C1914 1.398 . S
C1914 H1902 0.950 . S
C1914 C1913 1.398 . S
C1914 C1915 1.391 . S
C1915 H1903 0.950 . S
C1915 C1911 1.393 . S
C1915 C1914 1.391 . S
H1916 C1924 0.950 1_565 S
H1917 C1929 0.950 . S
H1918 C1926 0.950 . S
H1919 C1928 0.950 . S
H1920 C1930 0.950 . S
H1921 C1932 0.950 . S
H1922 C1934 0.950 . S
H1923 C1935 0.950 . S
C1924 H1916 0.950 1_545 S
C1924 C1925 1.386 1_545 S
C1924 C1926 1.391 . S
C1925 C1924 1.386 1_565 S
C1925 C1929 1.393 1_565 S
C1926 H1918 0.950 . S
C1926 C1924 1.391 . S
C1926 C1927 1.400 . S
C1927 C1926 1.400 . S
C1927 C1928 1.398 . S
C1927 C1933 1.491 . S
C1928 H1919 0.950 . S
C1928 C1927 1.398 . S
C1928 C1929 1.391 . S
C1929 H1917 0.950 . S
C1929 C1925 1.393 1_545 S
C1929 C1928 1.391 . S
C1930 H1920 0.950 . S
C1930 C1931 1.386 . S
C1930 C1932 1.391 . S
C1931 C1930 1.386 . S
C1931 C1935 1.393 . S
C1932 H1921 0.950 . S
C1932 C1930 1.391 . S
C1932 C1933 1.400 . S
C1933 C1927 1.491 . S
C1933 C1932 1.400 . S
C1933 C1934 1.398 . S
C1934 H1922 0.950 . S
C1934 C1933 1.398 . S
C1934 C1935 1.391 . S
C1935 H1923 0.950 . S
C1935 C1931 1.393 . S
C1935 C1934 1.391 . S
H1936 C1944 0.950 . S
H1937 C1949 0.950 . S
H1938 C1946 0.950 . S
H1939 C1948 0.950 . S
H1940 C1950 0.950 1_545 S
H1941 C1952 0.950 . S
H1942 C1954 0.950 . S
H1943 C1955 0.950 . S
C1944 H1936 0.950 . S
C1944 C1945 1.386 . S
C1944 C1946 1.391 . S
C1945 C1944 1.386 . S
C1945 C1949 1.393 . S
C1946 H1938 0.950 . S
C1946 C1944 1.391 . S
C1946 C1947 1.400 . S
C1947 C1946 1.400 . S
C1947 C1948 1.398 . S
C1947 C1953 1.491 . S
C1948 H1939 0.950 . S
C1948 C1947 1.398 . S
C1948 C1949 1.391 . S
C1949 H1937 0.950 . S
C1949 C1945 1.393 . S
C1949 C1948 1.391 . S
C1950 H1940 0.950 1_565 S
C1950 C1951 1.386 1_565 S
C1950 C1952 1.391 . S
C1951 C1950 1.386 1_545 S
C1951 C1955 1.393 1_545 S
C1952 H1941 0.950 . S
C1952 C1950 1.391 . S
C1952 C1953 1.400 . S
C1953 C1947 1.491 . S
C1953 C1952 1.400 . S
C1953 C1954 1.398 . S
C1954 H1942 0.950 . S
C1954 C1953 1.398 . S
C1954 C1955 1.391 . S
C1955 H1943 0.950 . S
C1955 C1951 1.393 1_565 S
C1955 C1954 1.391 . S
H1956 C1964 0.950 . S
H1957 C1969 0.950 . S
H1958 C1966 0.950 . S
H1959 C1968 0.950 1_565 S
H1960 C1970 0.950 . S
H1961 C1972 0.950 . S
H1962 C1974 0.950 . S
H1963 C1975 0.950 . S
C1964 H1956 0.950 . S
C1964 C1965 1.386 . S
C1964 C1966 1.391 . S
C1965 C1964 1.386 . S
C1965 C1969 1.393 . S
C1966 H1958 0.950 . S
C1966 C1964 1.391 . S
C1966 C1967 1.400 1_545 S
C1967 C1966 1.400 1_565 S
C1967 C1968 1.398 1_565 S
C1967 C1973 1.491 . S
C1968 H1959 0.950 1_545 S
C1968 C1967 1.398 1_545 S
C1968 C1969 1.391 . S
C1969 H1957 0.950 . S
C1969 C1965 1.393 . S
C1969 C1968 1.391 . S
C1970 H1960 0.950 . S
C1970 C1971 1.386 . S
C1970 C1972 1.391 . S
C1971 C1970 1.386 . S
C1971 C1975 1.393 . S
C1972 H1961 0.950 . S
C1972 C1970 1.391 . S
C1972 C1973 1.400 . S
C1973 C1967 1.491 . S
C1973 C1972 1.400 . S
C1973 C1974 1.398 . S
C1974 H1962 0.950 . S
C1974 C1973 1.398 . S
C1974 C1975 1.391 . S
C1975 H1963 0.950 . S
C1975 C1971 1.393 . S
C1975 C1974 1.391 . S
H1976 C1984 0.950 . S
H1977 C1989 0.950 . S
H1978 C1986 0.950 1_565 S
H1979 C1988 0.950 1_565 S
H1980 C1990 0.950 . S
H1981 C1992 0.950 . S
H1982 C1994 0.950 . S
H1983 C1995 0.950 . S
C1984 H1976 0.950 . S
C1984 C1985 1.386 . S
C1984 C1986 1.391 . S
C1985 C1984 1.386 . S
C1985 C1989 1.393 . S
C1986 H1978 0.950 1_545 S
C1986 C1984 1.391 . S
C1986 C1987 1.400 1_545 S
C1987 C1986 1.400 1_565 S
C1987 C1988 1.398 1_565 S
C1987 C1993 1.491 . S
C1988 H1979 0.950 1_545 S
C1988 C1987 1.398 1_545 S
C1988 C1989 1.391 . S
C1989 H1977 0.950 . S
C1989 C1985 1.393 . S
C1989 C1988 1.391 . S
C1990 H1980 0.950 . S
C1990 C1991 1.386 . S
C1990 C1992 1.391 . S
C1991 C1990 1.386 . S
C1991 C1995 1.393 . S
C1992 H1981 0.950 . S
C1992 C1990 1.391 . S
C1992 C1993 1.400 . S
C1993 C1987 1.491 . S
C1993 C1992 1.400 . S
C1993 C1994 1.398 . S
C1994 H1982 0.950 . S
C1994 C1993 1.398 . S
C1994 C1995 1.391 . S
C1995 H1983 0.950 . S
C1995 C1991 1.393 . S
C1995 C1994 1.391 . S
H1996 C2004 0.950 . S
H1997 C2009 0.950 . S
H1998 C2006 0.950 . S
H1999 C2008 0.950 . S
H2000 C2010 0.950 . S
H2001 C2012 0.950 . S
H2002 C2014 0.950 . S
H2003 C2015 0.950 1_545 S
C2004 H1996 0.950 . S
C2004 C2005 1.386 . S
C2004 C2006 1.391 . S
C2005 C2004 1.386 . S
C2005 C2009 1.393 . S
C2006 H1998 0.950 . S
C2006 C2004 1.391 . S
C2006 C2007 1.400 . S
C2007 C2006 1.400 . S
C2007 C2008 1.398 . S
C2007 C2013 1.491 . S
C2008 H1999 0.950 . S
C2008 C2007 1.398 . S
C2008 C2009 1.391 . S
C2009 H1997 0.950 . S
C2009 C2005 1.393 . S
C2009 C2008 1.391 . S
C2010 H2000 0.950 . S
C2010 C2011 1.386 1_565 S
C2010 C2012 1.391 . S
C2011 C2010 1.386 1_545 S
C2011 C2015 1.393 1_545 S
C2012 H2001 0.950 . S
C2012 C2010 1.391 . S
C2012 C2013 1.400 . S
C2013 C2007 1.491 . S
C2013 C2012 1.400 . S
C2013 C2014 1.398 . S
C2014 H2002 0.950 . S
C2014 C2013 1.398 . S
C2014 C2015 1.391 . S
C2015 H2003 0.950 1_565 S
C2015 C2011 1.393 1_565 S
C2015 C2014 1.391 . S
H2016 C2024 0.950 . S
H2017 C2029 0.950 . S
H2018 C2026 0.950 . S
H2019 C2028 0.950 . S
H2020 C2030 0.950 . S
H2021 C2032 0.950 . S
H2022 C2034 0.950 . S
H2023 C2035 0.950 . S
C2024 H2016 0.950 . S
C2024 C2025 1.386 . S
C2024 C2026 1.391 . S
C2025 C2024 1.386 . S
C2025 C2029 1.393 . S
C2026 H2018 0.950 . S
C2026 C2024 1.391 . S
C2026 C2027 1.400 . S
C2027 C2026 1.400 . S
C2027 C2028 1.398 . S
C2027 C2033 1.491 . S
C2028 H2019 0.950 . S
C2028 C2027 1.398 . S
C2028 C2029 1.391 . S
C2029 H2017 0.950 . S
C2029 C2025 1.393 . S
C2029 C2028 1.391 . S
C2030 H2020 0.950 . S
C2030 C2031 1.386 . S
C2030 C2032 1.391 . S
C2031 C2030 1.386 . S
C2031 C2035 1.393 . S
C2032 H2021 0.950 . S
C2032 C2030 1.391 . S
C2032 C2033 1.400 . S
C2033 C2027 1.491 . S
C2033 C2032 1.400 . S
C2033 C2034 1.398 . S
C2034 H2022 0.950 . S
C2034 C2033 1.398 . S
C2034 C2035 1.391 . S
C2035 H2023 0.950 . S
C2035 C2031 1.393 . S
C2035 C2034 1.391 . S
H2036 C2044 0.950 . S
H2037 C2049 0.950 . S
H2038 C2046 0.950 . S
H2039 C2048 0.950 . S
H2040 C2050 0.950 . S
H2041 C2052 0.950 . S
H2042 C2054 0.950 . S
H2043 C2055 0.950 . S
C2044 H2036 0.950 . S
C2044 C2045 1.386 . S
C2044 C2046 1.391 . S
C2045 C2044 1.386 . S
C2045 C2049 1.393 . S
C2046 H2038 0.950 . S
C2046 C2044 1.391 . S
C2046 C2047 1.400 . S
C2047 C2046 1.400 . S
C2047 C2048 1.398 . S
C2047 C2053 1.491 . S
C2048 H2039 0.950 . S
C2048 C2047 1.398 . S
C2048 C2049 1.391 . S
C2049 H2037 0.950 . S
C2049 C2045 1.393 . S
C2049 C2048 1.391 . S
C2050 H2040 0.950 . S
C2050 C2051 1.386 . S
C2050 C2052 1.391 . S
C2051 C2050 1.386 . S
C2051 C2055 1.393 . S
C2052 H2041 0.950 . S
C2052 C2050 1.391 . S
C2052 C2053 1.400 . S
C2053 C2047 1.491 . S
C2053 C2052 1.400 . S
C2053 C2054 1.398 . S
C2054 H2042 0.950 . S
C2054 C2053 1.398 . S
C2054 C2055 1.391 . S
C2055 H2043 0.950 . S
C2055 C2051 1.393 . S
C2055 C2054 1.391 . S
H2056 C2064 0.950 . S
H2057 C2069 0.950 . S
H2058 C2066 0.950 . S
H2059 C2068 0.950 . S
H2060 C2070 0.950 . S
H2061 C2072 0.950 . S
H2062 C2074 0.950 . S
H2063 C2075 0.950 . S
C2064 H2056 0.950 . S
C2064 C2065 1.386 . S
C2064 C2066 1.391 . S
C2065 C2064 1.386 . S
C2065 C2069 1.393 . S
C2066 H2058 0.950 . S
C2066 C2064 1.391 . S
C2066 C2067 1.400 . S
C2067 C2066 1.400 . S
C2067 C2068 1.398 . S
C2067 C2073 1.491 . S
C2068 H2059 0.950 . S
C2068 C2067 1.398 . S
C2068 C2069 1.391 . S
C2069 H2057 0.950 . S
C2069 C2065 1.393 . S
C2069 C2068 1.391 . S
C2070 H2060 0.950 . S
C2070 C2071 1.386 . S
C2070 C2072 1.391 . S
C2071 C2070 1.386 . S
C2071 C2075 1.393 . S
C2072 H2061 0.950 . S
C2072 C2070 1.391 . S
C2072 C2073 1.400 . S
C2073 C2067 1.491 . S
C2073 C2072 1.400 . S
C2073 C2074 1.398 . S
C2074 H2062 0.950 . S
C2074 C2073 1.398 . S
C2074 C2075 1.391 . S
C2075 H2063 0.950 . S
C2075 C2071 1.393 . S
C2075 C2074 1.391 . S
H2076 C2084 0.950 . S
H2077 C2089 0.950 . S
H2078 C2086 0.950 . S
H2079 C2088 0.950 . S
H2080 C2090 0.950 . S
H2081 C2092 0.950 . S
H2082 C2094 0.950 . S
H2083 C2095 0.950 . S
C2084 H2076 0.950 . S
C2084 C2085 1.386 . S
C2084 C2086 1.391 . S
C2085 C2084 1.386 . S
C2085 C2089 1.393 . S
C2086 H2078 0.950 . S
C2086 C2084 1.391 . S
C2086 C2087 1.400 . S
C2087 C2086 1.400 . S
C2087 C2088 1.398 . S
C2087 C2093 1.491 . S
C2088 H2079 0.950 . S
C2088 C2087 1.398 . S
C2088 C2089 1.391 . S
C2089 H2077 0.950 . S
C2089 C2085 1.393 . S
C2089 C2088 1.391 . S
C2090 H2080 0.950 . S
C2090 C2091 1.386 . S
C2090 C2092 1.391 . S
C2091 C2090 1.386 . S
C2091 C2095 1.393 . S
C2092 H2081 0.950 . S
C2092 C2090 1.391 . S
C2092 C2093 1.400 . S
C2093 C2087 1.491 . S
C2093 C2092 1.400 . S
C2093 C2094 1.398 . S
C2094 H2082 0.950 . S
C2094 C2093 1.398 . S
C2094 C2095 1.391 . S
C2095 H2083 0.950 . S
C2095 C2091 1.393 . S
C2095 C2094 1.391 . S
H2096 C2104 0.950 . S
H2097 C2109 0.950 . S
H2098 C2106 0.950 . S
H2099 C2108 0.950 . S
H2100 C2110 0.950 . S
H2101 C2112 0.950 . S
H2102 C2114 0.950 . S
H2103 C2115 0.950 . S
C2104 H2096 0.950 . S
C2104 C2105 1.386 . S
C2104 C2106 1.391 . S
C2105 C2104 1.386 . S
C2105 C2109 1.393 . S
C2106 H2098 0.950 . S
C2106 C2104 1.391 . S
C2106 C2107 1.400 . S
C2107 C2106 1.400 . S
C2107 C2108 1.398 . S
C2107 C2113 1.491 . S
C2108 H2099 0.950 . S
C2108 C2107 1.398 . S
C2108 C2109 1.391 . S
C2109 H2097 0.950 . S
C2109 C2105 1.393 . S
C2109 C2108 1.391 . S
C2110 H2100 0.950 . S
C2110 C2111 1.386 . S
C2110 C2112 1.391 . S
C2111 C2110 1.386 . S
C2111 C2115 1.393 . S
C2112 H2101 0.950 . S
C2112 C2110 1.391 . S
C2112 C2113 1.400 . S
C2113 C2107 1.491 . S
C2113 C2112 1.400 . S
C2113 C2114 1.398 . S
C2114 H2102 0.950 . S
C2114 C2113 1.398 . S
C2114 C2115 1.391 . S
C2115 H2103 0.950 . S
C2115 C2111 1.393 . S
C2115 C2114 1.391 . S
H2116 C2124 0.950 . S
H2117 C2129 0.950 . S
H2118 C2126 0.950 . S
H2119 C2128 0.950 . S
H2120 C2130 0.950 . S
H2121 C2132 0.950 . S
H2122 C2134 0.950 . S
H2123 C2135 0.950 . S
C2124 H2116 0.950 . S
C2124 C2125 1.386 . S
C2124 C2126 1.391 . S
C2125 C2124 1.386 . S
C2125 C2129 1.393 . S
C2126 H2118 0.950 . S
C2126 C2124 1.391 . S
C2126 C2127 1.400 . S
C2127 C2126 1.400 . S
C2127 C2128 1.398 . S
C2127 C2133 1.491 . S
C2128 H2119 0.950 . S
C2128 C2127 1.398 . S
C2128 C2129 1.391 . S
C2129 H2117 0.950 . S
C2129 C2125 1.393 . S
C2129 C2128 1.391 . S
C2130 H2120 0.950 . S
C2130 C2131 1.386 . S
C2130 C2132 1.391 . S
C2131 C2130 1.386 . S
C2131 C2135 1.393 . S
C2132 H2121 0.950 . S
C2132 C2130 1.391 . S
C2132 C2133 1.400 . S
C2133 C2127 1.491 . S
C2133 C2132 1.400 . S
C2133 C2134 1.398 . S
C2134 H2122 0.950 . S
C2134 C2133 1.398 . S
C2134 C2135 1.391 . S
C2135 H2123 0.950 . S
C2135 C2131 1.393 . S
C2135 C2134 1.391 . S
H2136 C2144 0.950 . S
H2137 C2149 0.950 . S
H2138 C2146 0.950 . S
H2139 C2148 0.950 . S
H2140 C2150 0.950 . S
H2141 C2152 0.950 . S
H2142 C2154 0.950 . S
H2143 C2155 0.950 . S
C2144 H2136 0.950 . S
C2144 C2145 1.386 . S
C2144 C2146 1.391 . S
C2145 C2144 1.386 . S
C2145 C2149 1.393 . S
C2146 H2138 0.950 . S
C2146 C2144 1.391 . S
C2146 C2147 1.400 . S
C2147 C2146 1.400 . S
C2147 C2148 1.398 . S
C2147 C2153 1.491 . S
C2148 H2139 0.950 . S
C2148 C2147 1.398 . S
C2148 C2149 1.391 . S
C2149 H2137 0.950 . S
C2149 C2145 1.393 . S
C2149 C2148 1.391 . S
C2150 H2140 0.950 . S
C2150 C2151 1.386 . S
C2150 C2152 1.391 . S
C2151 C2150 1.386 . S
C2151 C2155 1.393 . S
C2152 H2141 0.950 . S
C2152 C2150 1.391 . S
C2152 C2153 1.400 . S
C2153 C2147 1.491 . S
C2153 C2152 1.400 . S
C2153 C2154 1.398 . S
C2154 H2142 0.950 . S
C2154 C2153 1.398 . S
C2154 C2155 1.391 . S
C2155 H2143 0.950 . S
C2155 C2151 1.393 . S
C2155 C2154 1.391 . S
H2156 C2164 0.950 . S
H2157 C2169 0.950 . S
H2158 C2166 0.950 . S
H2159 C2168 0.950 . S
H2160 C2170 0.950 . S
H2161 C2172 0.950 . S
H2162 C2174 0.950 . S
H2163 C2175 0.950 . S
C2164 H2156 0.950 . S
C2164 C2165 1.386 . S
C2164 C2166 1.391 . S
C2165 C2164 1.386 . S
C2165 C2169 1.393 . S
C2166 H2158 0.950 . S
C2166 C2164 1.391 . S
C2166 C2167 1.400 . S
C2167 C2166 1.400 . S
C2167 C2168 1.398 . S
C2167 C2173 1.491 . S
C2168 H2159 0.950 . S
C2168 C2167 1.398 . S
C2168 C2169 1.391 . S
C2169 H2157 0.950 . S
C2169 C2165 1.393 . S
C2169 C2168 1.391 . S
C2170 H2160 0.950 . S
C2170 C2171 1.386 . S
C2170 C2172 1.391 . S
C2171 C2170 1.386 . S
C2171 C2175 1.393 . S
C2172 H2161 0.950 . S
C2172 C2170 1.391 . S
C2172 C2173 1.400 . S
C2173 C2167 1.491 . S
C2173 C2172 1.400 . S
C2173 C2174 1.398 . S
C2174 H2162 0.950 . S
C2174 C2173 1.398 . S
C2174 C2175 1.391 . S
C2175 H2163 0.950 . S
C2175 C2171 1.393 . S
C2175 C2174 1.391 . S
H2176 C2184 0.950 . S
H2177 C2189 0.950 1_565 S
H2178 C2186 0.950 . S
H2179 C2188 0.950 . S
H2180 C2190 0.950 . S
H2181 C2192 0.950 . S
H2182 C2194 0.950 . S
H2183 C2195 0.950 . S
C2184 H2176 0.950 . S
C2184 C2185 1.386 1_545 S
C2184 C2186 1.391 . S
C2185 C2184 1.386 1_565 S
C2185 C2189 1.393 1_565 S
C2186 H2178 0.950 . S
C2186 C2184 1.391 . S
C2186 C2187 1.400 . S
C2187 C2186 1.400 . S
C2187 C2188 1.398 . S
C2187 C2193 1.491 . S
C2188 H2179 0.950 . S
C2188 C2187 1.398 . S
C2188 C2189 1.391 . S
C2189 H2177 0.950 1_545 S
C2189 C2185 1.393 1_545 S
C2189 C2188 1.391 . S
C2190 H2180 0.950 . S
C2190 C2191 1.386 . S
C2190 C2192 1.391 . S
C2191 C2190 1.386 . S
C2191 C2195 1.393 . S
C2192 H2181 0.950 . S
C2192 C2190 1.391 . S
C2192 C2193 1.400 . S
C2193 C2187 1.491 . S
C2193 C2192 1.400 . S
C2193 C2194 1.398 . S
C2194 H2182 0.950 . S
C2194 C2193 1.398 . S
C2194 C2195 1.391 . S
C2195 H2183 0.950 . S
C2195 C2191 1.393 . S
C2195 C2194 1.391 . S
H2196 C2204 0.950 . S
H2197 C2209 0.950 . S
H2198 C2206 0.950 1_545 S
H2199 C2208 0.950 . S
H2200 C2210 0.950 . S
H2201 C2212 0.950 . S
H2202 C2214 0.950 . S
H2203 C2215 0.950 . S
C2204 H2196 0.950 . S
C2204 C2205 1.386 . S
C2204 C2206 1.391 . S
C2205 C2204 1.386 . S
C2205 C2209 1.393 . S
C2206 H2198 0.950 1_565 S
C2206 C2204 1.391 . S
C2206 C2207 1.400 1_565 S
C2207 C2206 1.400 1_545 S
C2207 C2208 1.398 1_545 S
C2207 C2213 1.491 . S
C2208 H2199 0.950 . S
C2208 C2207 1.398 1_565 S
C2208 C2209 1.391 . S
C2209 H2197 0.950 . S
C2209 C2205 1.393 . S
C2209 C2208 1.391 . S
C2210 H2200 0.950 . S
C2210 C2211 1.386 . S
C2210 C2212 1.391 . S
C2211 C2210 1.386 . S
C2211 C2215 1.393 . S
C2212 H2201 0.950 . S
C2212 C2210 1.391 . S
C2212 C2213 1.400 . S
C2213 C2207 1.491 . S
C2213 C2212 1.400 . S
C2213 C2214 1.398 . S
C2214 H2202 0.950 . S
C2214 C2213 1.398 . S
C2214 C2215 1.391 . S
C2215 H2203 0.950 . S
C2215 C2211 1.393 . S
C2215 C2214 1.391 . S
H2216 C2224 0.950 . S
H2217 C2229 0.950 . S
H2218 C2226 0.950 1_545 S
H2219 C2228 0.950 1_545 S
H2220 C2230 0.950 . S
H2221 C2232 0.950 . S
H2222 C2234 0.950 . S
H2223 C2235 0.950 . S
C2224 H2216 0.950 . S
C2224 C2225 1.386 . S
C2224 C2226 1.391 . S
C2225 C2224 1.386 . S
C2225 C2229 1.393 . S
C2226 H2218 0.950 1_565 S
C2226 C2224 1.391 . S
C2226 C2227 1.400 1_565 S
C2227 C2226 1.400 1_545 S
C2227 C2228 1.398 1_545 S
C2227 C2233 1.491 . S
C2228 H2219 0.950 1_565 S
C2228 C2227 1.398 1_565 S
C2228 C2229 1.391 . S
C2229 H2217 0.950 . S
C2229 C2225 1.393 . S
C2229 C2228 1.391 . S
C2230 H2220 0.950 . S
C2230 C2231 1.386 . S
C2230 C2232 1.391 . S
C2231 C2230 1.386 . S
C2231 C2235 1.393 . S
C2232 H2221 0.950 . S
C2232 C2230 1.391 . S
C2232 C2233 1.400 . S
C2233 C2227 1.491 . S
C2233 C2232 1.400 . S
C2233 C2234 1.398 . S
C2234 H2222 0.950 . S
C2234 C2233 1.398 . S
C2234 C2235 1.391 . S
C2235 H2223 0.950 . S
C2235 C2231 1.393 . S
C2235 C2234 1.391 . S
H2236 C2244 0.950 . S
H2237 C2249 0.950 . S
H2238 C2246 0.950 . S
H2239 C2248 0.950 . S
H2240 C2250 0.950 1_565 S
H2241 C2252 0.950 . S
H2242 C2254 0.950 . S
H2243 C2255 0.950 . S
C2244 H2236 0.950 . S
C2244 C2245 1.386 . S
C2244 C2246 1.391 . S
C2245 C2244 1.386 . S
C2245 C2249 1.393 . S
C2246 H2238 0.950 . S
C2246 C2244 1.391 . S
C2246 C2247 1.400 . S
C2247 C2246 1.400 . S
C2247 C2248 1.398 . S
C2247 C2253 1.491 . S
C2248 H2239 0.950 . S
C2248 C2247 1.398 . S
C2248 C2249 1.391 . S
C2249 H2237 0.950 . S
C2249 C2245 1.393 . S
C2249 C2248 1.391 . S
C2250 H2240 0.950 1_545 S
C2250 C2251 1.386 1_545 S
C2250 C2252 1.391 . S
C2251 C2250 1.386 1_565 S
C2251 C2255 1.393 1_565 S
C2252 H2241 0.950 . S
C2252 C2250 1.391 . S
C2252 C2253 1.400 . S
C2253 C2247 1.491 . S
C2253 C2252 1.400 . S
C2253 C2254 1.398 . S
C2254 H2242 0.950 . S
C2254 C2253 1.398 . S
C2254 C2255 1.391 . S
C2255 H2243 0.950 . S
C2255 C2251 1.393 1_545 S
C2255 C2254 1.391 . S
H2256 C2264 0.950 . S
H2257 C2269 0.950 1_545 S
H2258 C2266 0.950 . S
H2259 C2268 0.950 . S
H2260 C2270 0.950 . S
H2261 C2272 0.950 . S
H2262 C2274 0.950 . S
H2263 C2275 0.950 . S
C2264 H2256 0.950 . S
C2264 C2265 1.386 1_565 S
C2264 C2266 1.391 . S
C2265 C2264 1.386 1_545 S
C2265 C2269 1.393 1_545 S
C2266 H2258 0.950 . S
C2266 C2264 1.391 . S
C2266 C2267 1.400 . S
C2267 C2266 1.400 . S
C2267 C2268 1.398 . S
C2267 C2273 1.491 . S
C2268 H2259 0.950 . S
C2268 C2267 1.398 . S
C2268 C2269 1.391 . S
C2269 H2257 0.950 1_565 S
C2269 C2265 1.393 1_565 S
C2269 C2268 1.391 . S
C2270 H2260 0.950 . S
C2270 C2271 1.386 . S
C2270 C2272 1.391 . S
C2271 C2270 1.386 . S
C2271 C2275 1.393 . S
C2272 H2261 0.950 . S
C2272 C2270 1.391 . S
C2272 C2273 1.400 . S
C2273 C2267 1.491 . S
C2273 C2272 1.400 . S
C2273 C2274 1.398 . S
C2274 H2262 0.950 . S
C2274 C2273 1.398 . S
C2274 C2275 1.391 . S
C2275 H2263 0.950 . S
C2275 C2271 1.393 . S
C2275 C2274 1.391 . S
H2276 C2284 0.950 . S
H2277 C2289 0.950 . S
H2278 C2286 0.950 . S
H2279 C2288 0.950 . S
H2280 C2290 0.950 . S
H2281 C2292 0.950 . S
H2282 C2294 0.950 1_565 S
H2283 C2295 0.950 . S
C2284 H2276 0.950 . S
C2284 C2285 1.386 . S
C2284 C2286 1.391 . S
C2285 C2284 1.386 . S
C2285 C2289 1.393 . S
C2286 H2278 0.950 . S
C2286 C2284 1.391 . S
C2286 C2287 1.400 . S
C2287 C2286 1.400 . S
C2287 C2288 1.398 . S
C2287 C2293 1.491 . S
C2288 H2279 0.950 . S
C2288 C2287 1.398 . S
C2288 C2289 1.391 . S
C2289 H2277 0.950 . S
C2289 C2285 1.393 . S
C2289 C2288 1.391 . S
C2290 H2280 0.950 . S
C2290 C2291 1.386 . S
C2290 C2292 1.391 . S
C2291 C2290 1.386 . S
C2291 C2295 1.393 . S
C2292 H2281 0.950 . S
C2292 C2290 1.391 . S
C2292 C2293 1.400 1_545 S
C2293 C2287 1.491 . S
C2293 C2292 1.400 1_565 S
C2293 C2294 1.398 1_565 S
C2294 H2282 0.950 1_545 S
C2294 C2293 1.398 1_545 S
C2294 C2295 1.391 . S
C2295 H2283 0.950 . S
C2295 C2291 1.393 . S
C2295 C2294 1.391 . S
H2296 C2304 0.950 . S
H2297 C2309 0.950 . S
H2298 C2306 0.950 . S
H2299 C2308 0.950 . S
H2300 C2310 0.950 . S
H2301 C2312 0.950 1_565 S
H2302 C2314 0.950 1_565 S
H2303 C2315 0.950 . S
C2304 H2296 0.950 . S
C2304 C2305 1.386 . S
C2304 C2306 1.391 . S
C2305 C2304 1.386 . S
C2305 C2309 1.393 . S
C2306 H2298 0.950 . S
C2306 C2304 1.391 . S
C2306 C2307 1.400 . S
C2307 C2306 1.400 . S
C2307 C2308 1.398 . S
C2307 C2313 1.491 . S
C2308 H2299 0.950 . S
C2308 C2307 1.398 . S
C2308 C2309 1.391 . S
C2309 H2297 0.950 . S
C2309 C2305 1.393 . S
C2309 C2308 1.391 . S
C2310 H2300 0.950 . S
C2310 C2311 1.386 . S
C2310 C2312 1.391 . S
C2311 C2310 1.386 . S
C2311 C2315 1.393 . S
C2312 H2301 0.950 1_545 S
C2312 C2310 1.391 . S
C2312 C2313 1.400 1_545 S
C2313 C2307 1.491 . S
C2313 C2312 1.400 1_565 S
C2313 C2314 1.398 1_565 S
C2314 H2302 0.950 1_545 S
C2314 C2313 1.398 1_545 S
C2314 C2315 1.391 . S
C2315 H2303 0.950 . S
C2315 C2311 1.393 . S
C2315 C2314 1.391 . S
H2316 C2324 0.950 1_545 S
H2317 C2329 0.950 . S
H2318 C2326 0.950 . S
H2319 C2328 0.950 . S
H2320 C2330 0.950 . S
H2321 C2332 0.950 . S
H2322 C2334 0.950 . S
H2323 C2335 0.950 . S
C2324 H2316 0.950 1_565 S
C2324 C2325 1.386 1_565 S
C2324 C2326 1.391 . S
C2325 C2324 1.386 1_545 S
C2325 C2329 1.393 1_545 S
C2326 H2318 0.950 . S
C2326 C2324 1.391 . S
C2326 C2327 1.400 . S
C2327 C2326 1.400 . S
C2327 C2328 1.398 . S
C2327 C2333 1.491 . S
C2328 H2319 0.950 . S
C2328 C2327 1.398 . S
C2328 C2329 1.391 . S
C2329 H2317 0.950 . S
C2329 C2325 1.393 1_565 S
C2329 C2328 1.391 . S
C2330 H2320 0.950 . S
C2330 C2331 1.386 . S
C2330 C2332 1.391 . S
C2331 C2330 1.386 . S
C2331 C2335 1.393 . S
C2332 H2321 0.950 . S
C2332 C2330 1.391 . S
C2332 C2333 1.400 . S
C2333 C2327 1.491 . S
C2333 C2332 1.400 . S
C2333 C2334 1.398 . S
C2334 H2322 0.950 . S
C2334 C2333 1.398 . S
C2334 C2335 1.391 . S
C2335 H2323 0.950 . S
C2335 C2331 1.393 . S
C2335 C2334 1.391 . S
H2336 C2344 0.950 . S
H2337 C2349 0.950 . S
H2338 C2346 0.950 . S
H2339 C2348 0.950 . S
H2340 C2350 0.950 . S
H2341 C2352 0.950 . S
H2342 C2354 0.950 . S
H2343 C2355 0.950 . S
C2344 H2336 0.950 . S
C2344 C2345 1.386 . S
C2344 C2346 1.391 . S
C2345 C2344 1.386 . S
C2345 C2349 1.393 . S
C2346 H2338 0.950 . S
C2346 C2344 1.391 . S
C2346 C2347 1.400 . S
C2347 C2346 1.400 . S
C2347 C2348 1.398 . S
C2347 C2353 1.491 . S
C2348 H2339 0.950 . S
C2348 C2347 1.398 . S
C2348 C2349 1.391 . S
C2349 H2337 0.950 . S
C2349 C2345 1.393 . S
C2349 C2348 1.391 . S
C2350 H2340 0.950 . S
C2350 C2351 1.386 . S
C2350 C2352 1.391 . S
C2351 C2350 1.386 . S
C2351 C2355 1.393 . S
C2352 H2341 0.950 . S
C2352 C2350 1.391 . S
C2352 C2353 1.400 . S
C2353 C2347 1.491 . S
C2353 C2352 1.400 . S
C2353 C2354 1.398 . S
C2354 H2342 0.950 . S
C2354 C2353 1.398 . S
C2354 C2355 1.391 . S
C2355 H2343 0.950 . S
C2355 C2351 1.393 . S
C2355 C2354 1.391 . S
H2356 C2364 0.950 1_545 S
H2357 C2369 0.950 . S
H2358 C2366 0.950 . S
H2359 C2368 0.950 . S
H2360 C2370 0.950 . S
H2361 C2372 0.950 . S
H2362 C2374 0.950 . S
H2363 C2375 0.950 . S
C2364 H2356 0.950 1_565 S
C2364 C2365 1.386 . S
C2364 C2366 1.391 . S
C2365 C2364 1.386 . S
C2365 C2369 1.393 . S
C2366 H2358 0.950 . S
C2366 C2364 1.391 . S
C2366 C2367 1.400 . S
C2367 C2366 1.400 . S
C2367 C2368 1.398 . S
C2367 C2373 1.491 . S
C2368 H2359 0.950 . S
C2368 C2367 1.398 . S
C2368 C2369 1.391 . S
C2369 H2357 0.950 . S
C2369 C2365 1.393 . S
C2369 C2368 1.391 . S
C2370 H2360 0.950 . S
C2370 C2371 1.386 . S
C2370 C2372 1.391 . S
C2371 C2370 1.386 . S
C2371 C2375 1.393 . S
C2372 H2361 0.950 . S
C2372 C2370 1.391 . S
C2372 C2373 1.400 . S
C2373 C2367 1.491 . S
C2373 C2372 1.400 . S
C2373 C2374 1.398 . S
C2374 H2362 0.950 . S
C2374 C2373 1.398 . S
C2374 C2375 1.391 . S
C2375 H2363 0.950 . S
C2375 C2371 1.393 . S
C2375 C2374 1.391 . S
H2376 C2384 0.950 . S
H2377 C2389 0.950 . S
H2378 C2386 0.950 . S
H2379 C2388 0.950 . S
H2380 C2390 0.950 . S
H2381 C2392 0.950 . S
H2382 C2394 0.950 . S
H2383 C2395 0.950 . S
C2384 H2376 0.950 . S
C2384 C2385 1.386 . S
C2384 C2386 1.391 . S
C2385 C2384 1.386 . S
C2385 C2389 1.393 . S
C2386 H2378 0.950 . S
C2386 C2384 1.391 . S
C2386 C2387 1.400 . S
C2387 C2386 1.400 . S
C2387 C2388 1.398 . S
C2387 C2393 1.491 . S
C2388 H2379 0.950 . S
C2388 C2387 1.398 . S
C2388 C2389 1.391 . S
C2389 H2377 0.950 . S
C2389 C2385 1.393 . S
C2389 C2388 1.391 . S
C2390 H2380 0.950 . S
C2390 C2391 1.386 . S
C2390 C2392 1.391 . S
C2391 C2390 1.386 . S
C2391 C2395 1.393 . S
C2392 H2381 0.950 . S
C2392 C2390 1.391 . S
C2392 C2393 1.400 . S
C2393 C2387 1.491 . S
C2393 C2392 1.400 . S
C2393 C2394 1.398 . S
C2394 H2382 0.950 . S
C2394 C2393 1.398 . S
C2394 C2395 1.391 . S
C2395 H2383 0.950 . S
C2395 C2391 1.393 . S
C2395 C2394 1.391 . S
H2396 C2404 0.950 . S
H2397 C2409 0.950 . S
H2398 C2406 0.950 . S
H2399 C2408 0.950 . S
H2400 C2410 0.950 . S
H2401 C2412 0.950 . S
H2402 C2414 0.950 . S
H2403 C2415 0.950 . S
C2404 H2396 0.950 . S
C2404 C2405 1.386 . S
C2404 C2406 1.391 . S
C2405 C2404 1.386 . S
C2405 C2409 1.393 . S
C2406 H2398 0.950 . S
C2406 C2404 1.391 . S
C2406 C2407 1.400 . S
C2407 C2406 1.400 . S
C2407 C2408 1.398 . S
C2407 C2413 1.491 . S
C2408 H2399 0.950 . S
C2408 C2407 1.398 . S
C2408 C2409 1.391 . S
C2409 H2397 0.950 . S
C2409 C2405 1.393 . S
C2409 C2408 1.391 . S
C2410 H2400 0.950 . S
C2410 C2411 1.386 . S
C2410 C2412 1.391 . S
C2411 C2410 1.386 . S
C2411 C2415 1.393 . S
C2412 H2401 0.950 . S
C2412 C2410 1.391 . S
C2412 C2413 1.400 . S
C2413 C2407 1.491 . S
C2413 C2412 1.400 . S
C2413 C2414 1.398 . S
C2414 H2402 0.950 . S
C2414 C2413 1.398 . S
C2414 C2415 1.391 . S
C2415 H2403 0.950 . S
C2415 C2411 1.393 . S
C2415 C2414 1.391 . S
H2416 C2424 0.950 . S
H2417 C2429 0.950 . S
H2418 C2426 0.950 . S
H2419 C2428 0.950 . S
H2420 C2430 0.950 . S
H2421 C2432 0.950 . S
H2422 C2434 0.950 . S
H2423 C2435 0.950 . S
C2424 H2416 0.950 . S
C2424 C2425 1.386 . S
C2424 C2426 1.391 . S
C2425 C2424 1.386 . S
C2425 C2429 1.393 . S
C2426 H2418 0.950 . S
C2426 C2424 1.391 . S
C2426 C2427 1.400 . S
C2427 C2426 1.400 . S
C2427 C2428 1.398 . S
C2427 C2433 1.491 . S
C2428 H2419 0.950 . S
C2428 C2427 1.398 . S
C2428 C2429 1.391 . S
C2429 H2417 0.950 . S
C2429 C2425 1.393 . S
C2429 C2428 1.391 . S
C2430 H2420 0.950 . S
C2430 C2431 1.386 . S
C2430 C2432 1.391 . S
C2431 C2430 1.386 . S
C2431 C2435 1.393 . S
C2432 H2421 0.950 . S
C2432 C2430 1.391 . S
C2432 C2433 1.400 . S
C2433 C2427 1.491 . S
C2433 C2432 1.400 . S
C2433 C2434 1.398 . S
C2434 H2422 0.950 . S
C2434 C2433 1.398 . S
C2434 C2435 1.391 . S
C2435 H2423 0.950 . S
C2435 C2431 1.393 . S
C2435 C2434 1.391 . S
H2436 C2444 0.950 . S
H2437 C2449 0.950 . S
H2438 C2446 0.950 . S
H2439 C2448 0.950 . S
H2440 C2450 0.950 . S
H2441 C2452 0.950 . S
H2442 C2454 0.950 . S
H2443 C2455 0.950 . S
C2444 H2436 0.950 . S
C2444 C2445 1.386 1_565 S
C2444 C2446 1.391 1_565 S
C2445 C2444 1.386 1_545 S
C2445 C2449 1.393 . S
C2446 H2438 0.950 . S
C2446 C2444 1.391 1_545 S
C2446 C2447 1.400 . S
C2447 C2446 1.400 . S
C2447 C2448 1.398 . S
C2447 C2453 1.491 . S
C2448 H2439 0.950 . S
C2448 C2447 1.398 . S
C2448 C2449 1.391 . S
C2449 H2437 0.950 . S
C2449 C2445 1.393 . S
C2449 C2448 1.391 . S
C2450 H2440 0.950 . S
C2450 C2451 1.386 . S
C2450 C2452 1.391 . S
C2451 C2450 1.386 . S
C2451 C2455 1.393 . S
C2452 H2441 0.950 . S
C2452 C2450 1.391 . S
C2452 C2453 1.400 . S
C2453 C2447 1.491 . S
C2453 C2452 1.400 . S
C2453 C2454 1.398 . S
C2454 H2442 0.950 . S
C2454 C2453 1.398 . S
C2454 C2455 1.391 . S
C2455 H2443 0.950 . S
C2455 C2451 1.393 . S
C2455 C2454 1.391 . S
H2456 C2464 0.950 . S
H2457 C2469 0.950 . S
H2458 C2466 0.950 . S
H2459 C2468 0.950 . S
H2460 C2470 0.950 . S
H2461 C2472 0.950 . S
H2462 C2474 0.950 . S
H2463 C2475 0.950 . S
C2464 H2456 0.950 . S
C2464 C2465 1.386 . S
C2464 C2466 1.391 . S
C2465 C2464 1.386 . S
C2465 C2469 1.393 . S
C2466 H2458 0.950 . S
C2466 C2464 1.391 . S
C2466 C2467 1.400 . S
C2467 C2466 1.400 . S
C2467 C2468 1.398 . S
C2467 C2473 1.491 . S
C2468 H2459 0.950 . S
C2468 C2467 1.398 . S
C2468 C2469 1.391 . S
C2469 H2457 0.950 . S
C2469 C2465 1.393 . S
C2469 C2468 1.391 . S
C2470 H2460 0.950 . S
C2470 C2471 1.386 1_565 S
C2470 C2472 1.391 1_565 S
C2471 C2470 1.386 1_545 S
C2471 C2475 1.393 . S
C2472 H2461 0.950 . S
C2472 C2470 1.391 1_545 S
C2472 C2473 1.400 . S
C2473 C2467 1.491 . S
C2473 C2472 1.400 . S
C2473 C2474 1.398 . S
C2474 H2462 0.950 . S
C2474 C2473 1.398 . S
C2474 C2475 1.391 . S
C2475 H2463 0.950 . S
C2475 C2471 1.393 . S
C2475 C2474 1.391 . S
H2476 C2484 0.950 . S
H2477 C2489 0.950 . S
H2478 C2486 0.950 . S
H2479 C2488 0.950 . S
H2480 C2490 0.950 . S
H2481 C2492 0.950 . S
H2482 C2494 0.950 . S
H2483 C2495 0.950 . S
C2484 H2476 0.950 . S
C2484 C2485 1.386 . S
C2484 C2486 1.391 . S
C2485 C2484 1.386 . S
C2485 C2489 1.393 . S
C2486 H2478 0.950 . S
C2486 C2484 1.391 . S
C2486 C2487 1.400 . S
C2487 C2486 1.400 . S
C2487 C2488 1.398 . S
C2487 C2493 1.491 . S
C2488 H2479 0.950 . S
C2488 C2487 1.398 . S
C2488 C2489 1.391 . S
C2489 H2477 0.950 . S
C2489 C2485 1.393 . S
C2489 C2488 1.391 . S
C2490 H2480 0.950 . S
C2490 C2491 1.386 . S
C2490 C2492 1.391 . S
C2491 C2490 1.386 . S
C2491 C2495 1.393 . S
C2492 H2481 0.950 . S
C2492 C2490 1.391 . S
C2492 C2493 1.400 . S
C2493 C2487 1.491 . S
C2493 C2492 1.400 . S
C2493 C2494 1.398 . S
C2494 H2482 0.950 . S
C2494 C2493 1.398 . S
C2494 C2495 1.391 . S
C2495 H2483 0.950 . S
C2495 C2491 1.393 . S
C2495 C2494 1.391 . S
H2496 C2504 0.950 . S
H2497 C2509 0.950 . S
H2498 C2506 0.950 . S
H2499 C2508 0.950 . S
H2500 C2510 0.950 . S
H2501 C2512 0.950 . S
H2502 C2514 0.950 . S
H2503 C2515 0.950 . S
C2504 H2496 0.950 . S
C2504 C2505 1.386 . S
C2504 C2506 1.391 . S
C2505 C2504 1.386 . S
C2505 C2509 1.393 . S
C2506 H2498 0.950 . S
C2506 C2504 1.391 . S
C2506 C2507 1.400 . S
C2507 C2506 1.400 . S
C2507 C2508 1.398 . S
C2507 C2513 1.491 . S
C2508 H2499 0.950 . S
C2508 C2507 1.398 . S
C2508 C2509 1.391 . S
C2509 H2497 0.950 . S
C2509 C2505 1.393 . S
C2509 C2508 1.391 . S
C2510 H2500 0.950 . S
C2510 C2511 1.386 . S
C2510 C2512 1.391 . S
C2511 C2510 1.386 . S
C2511 C2515 1.393 1_565 S
C2512 H2501 0.950 . S
C2512 C2510 1.391 . S
C2512 C2513 1.400 . S
C2513 C2507 1.491 . S
C2513 C2512 1.400 . S
C2513 C2514 1.398 . S
C2514 H2502 0.950 . S
C2514 C2513 1.398 . S
C2514 C2515 1.391 1_565 S
C2515 H2503 0.950 . S
C2515 C2511 1.393 1_545 S
C2515 C2514 1.391 1_545 S
H2516 C2524 0.950 . S
H2517 C2529 0.950 . S
H2518 C2526 0.950 . S
H2519 C2528 0.950 . S
H2520 C2530 0.950 . S
H2521 C2532 0.950 . S
H2522 C2534 0.950 . S
H2523 C2535 0.950 . S
C2524 H2516 0.950 . S
C2524 C2525 1.386 . S
C2524 C2526 1.391 . S
C2525 C2524 1.386 . S
C2525 C2529 1.393 . S
C2526 H2518 0.950 . S
C2526 C2524 1.391 . S
C2526 C2527 1.400 . S
C2527 C2526 1.400 . S
C2527 C2528 1.398 . S
C2527 C2533 1.491 . S
C2528 H2519 0.950 . S
C2528 C2527 1.398 . S
C2528 C2529 1.391 . S
C2529 H2517 0.950 . S
C2529 C2525 1.393 . S
C2529 C2528 1.391 . S
C2530 H2520 0.950 . S
C2530 C2531 1.386 . S
C2530 C2532 1.391 . S
C2531 C2530 1.386 . S
C2531 C2535 1.393 . S
C2532 H2521 0.950 . S
C2532 C2530 1.391 . S
C2532 C2533 1.400 . S
C2533 C2527 1.491 . S
C2533 C2532 1.400 . S
C2533 C2534 1.398 . S
C2534 H2522 0.950 . S
C2534 C2533 1.398 . S
C2534 C2535 1.391 . S
C2535 H2523 0.950 . S
C2535 C2531 1.393 . S
C2535 C2534 1.391 . S
H2536 C2544 0.950 . S
H2537 C2549 0.950 . S
H2538 C2546 0.950 . S
H2539 C2548 0.950 . S
H2540 C2550 0.950 . S
H2541 C2552 0.950 . S
H2542 C2554 0.950 . S
H2543 C2555 0.950 . S
C2544 H2536 0.950 . S
C2544 C2545 1.386 . S
C2544 C2546 1.391 . S
C2545 C2544 1.386 . S
C2545 C2549 1.393 . S
C2546 H2538 0.950 . S
C2546 C2544 1.391 . S
C2546 C2547 1.400 . S
C2547 C2546 1.400 . S
C2547 C2548 1.398 . S
C2547 C2553 1.491 . S
C2548 H2539 0.950 . S
C2548 C2547 1.398 . S
C2548 C2549 1.391 . S
C2549 H2537 0.950 . S
C2549 C2545 1.393 . S
C2549 C2548 1.391 . S
C2550 H2540 0.950 . S
C2550 C2551 1.386 . S
C2550 C2552 1.391 . S
C2551 C2550 1.386 . S
C2551 C2555 1.393 . S
C2552 H2541 0.950 . S
C2552 C2550 1.391 . S
C2552 C2553 1.400 . S
C2553 C2547 1.491 . S
C2553 C2552 1.400 . S
C2553 C2554 1.398 . S
C2554 H2542 0.950 . S
C2554 C2553 1.398 . S
C2554 C2555 1.391 . S
C2555 H2543 0.950 . S
C2555 C2551 1.393 . S
C2555 C2554 1.391 . S
H2556 C2564 0.950 . S
H2557 C2569 0.950 . S
H2558 C2566 0.950 . S
H2559 C2568 0.950 . S
H2560 C2570 0.950 . S
H2561 C2572 0.950 . S
H2562 C2574 0.950 1_545 S
H2563 C2575 0.950 . S
C2564 H2556 0.950 . S
C2564 C2565 1.386 . S
C2564 C2566 1.391 . S
C2565 C2564 1.386 . S
C2565 C2569 1.393 . S
C2566 H2558 0.950 . S
C2566 C2564 1.391 . S
C2566 C2567 1.400 . S
C2567 C2566 1.400 . S
C2567 C2568 1.398 . S
C2567 C2573 1.491 . S
C2568 H2559 0.950 . S
C2568 C2567 1.398 . S
C2568 C2569 1.391 . S
C2569 H2557 0.950 . S
C2569 C2565 1.393 . S
C2569 C2568 1.391 . S
C2570 H2560 0.950 . S
C2570 C2571 1.386 . S
C2570 C2572 1.391 . S
C2571 C2570 1.386 . S
C2571 C2575 1.393 1_565 S
C2572 H2561 0.950 . S
C2572 C2570 1.391 . S
C2572 C2573 1.400 . S
C2573 C2567 1.491 . S
C2573 C2572 1.400 . S
C2573 C2574 1.398 . S
C2574 H2562 0.950 1_565 S
C2574 C2573 1.398 . S
C2574 C2575 1.391 1_565 S
C2575 H2563 0.950 . S
C2575 C2571 1.393 1_545 S
C2575 C2574 1.391 1_545 S
H2576 C2584 0.950 . S
H2577 C2589 0.950 . S
H2578 C2586 0.950 . S
H2579 C2588 0.950 . S
H2580 C2590 0.950 . S
H2581 C2592 0.950 . S
H2582 C2594 0.950 . S
H2583 C2595 0.950 . S
C2584 H2576 0.950 . S
C2584 C2585 1.386 . S
C2584 C2586 1.391 . S
C2585 C2584 1.386 . S
C2585 C2589 1.393 . S
C2586 H2578 0.950 . S
C2586 C2584 1.391 . S
C2586 C2587 1.400 . S
C2587 C2586 1.400 . S
C2587 C2588 1.398 . S
C2587 C2593 1.491 . S
C2588 H2579 0.950 . S
C2588 C2587 1.398 . S
C2588 C2589 1.391 . S
C2589 H2577 0.950 . S
C2589 C2585 1.393 . S
C2589 C2588 1.391 . S
C2590 H2580 0.950 . S
C2590 C2591 1.386 . S
C2590 C2592 1.391 . S
C2591 C2590 1.386 . S
C2591 C2595 1.393 . S
C2592 H2581 0.950 . S
C2592 C2590 1.391 . S
C2592 C2593 1.400 . S
C2593 C2587 1.491 . S
C2593 C2592 1.400 . S
C2593 C2594 1.398 . S
C2594 H2582 0.950 . S
C2594 C2593 1.398 . S
C2594 C2595 1.391 . S
C2595 H2583 0.950 . S
C2595 C2591 1.393 . S
C2595 C2594 1.391 . S
H2596 C2604 0.950 . S
H2597 C2609 0.950 . S
H2598 C2606 0.950 . S
H2599 C2608 0.950 . S
H2600 C2610 0.950 . S
H2601 C2612 0.950 . S
H2602 C2614 0.950 . S
H2603 C2615 0.950 . S
C2604 H2596 0.950 . S
C2604 C2605 1.386 . S
C2604 C2606 1.391 . S
C2605 C2604 1.386 . S
C2605 C2609 1.393 . S
C2606 H2598 0.950 . S
C2606 C2604 1.391 . S
C2606 C2607 1.400 . S
C2607 C2606 1.400 . S
C2607 C2608 1.398 . S
C2607 C2613 1.491 . S
C2608 H2599 0.950 . S
C2608 C2607 1.398 . S
C2608 C2609 1.391 . S
C2609 H2597 0.950 . S
C2609 C2605 1.393 . S
C2609 C2608 1.391 . S
C2610 H2600 0.950 . S
C2610 C2611 1.386 . S
C2610 C2612 1.391 . S
C2611 C2610 1.386 . S
C2611 C2615 1.393 . S
C2612 H2601 0.950 . S
C2612 C2610 1.391 . S
C2612 C2613 1.400 . S
C2613 C2607 1.491 . S
C2613 C2612 1.400 . S
C2613 C2614 1.398 . S
C2614 H2602 0.950 . S
C2614 C2613 1.398 . S
C2614 C2615 1.391 . S
C2615 H2603 0.950 . S
C2615 C2611 1.393 . S
C2615 C2614 1.391 . S
H2616 C2624 0.950 . S
H2617 C2629 0.950 . S
H2618 C2626 0.950 . S
H2619 C2628 0.950 . S
H2620 C2630 0.950 . S
H2621 C2632 0.950 . S
H2622 C2634 0.950 . S
H2623 C2635 0.950 . S
C2624 H2616 0.950 . S
C2624 C2625 1.386 . S
C2624 C2626 1.391 . S
C2625 C2624 1.386 . S
C2625 C2629 1.393 . S
C2626 H2618 0.950 . S
C2626 C2624 1.391 . S
C2626 C2627 1.400 . S
C2627 C2626 1.400 . S
C2627 C2628 1.398 . S
C2627 C2633 1.491 . S
C2628 H2619 0.950 . S
C2628 C2627 1.398 . S
C2628 C2629 1.391 . S
C2629 H2617 0.950 . S
C2629 C2625 1.393 . S
C2629 C2628 1.391 . S
C2630 H2620 0.950 . S
C2630 C2631 1.386 . S
C2630 C2632 1.391 . S
C2631 C2630 1.386 . S
C2631 C2635 1.393 . S
C2632 H2621 0.950 . S
C2632 C2630 1.391 . S
C2632 C2633 1.400 . S
C2633 C2627 1.491 . S
C2633 C2632 1.400 . S
C2633 C2634 1.398 . S
C2634 H2622 0.950 . S
C2634 C2633 1.398 . S
C2634 C2635 1.391 . S
C2635 H2623 0.950 . S
C2635 C2631 1.393 . S
C2635 C2634 1.391 . S
H2636 C2644 0.950 . S
H2637 C2649 0.950 . S
H2638 C2646 0.950 . S
H2639 C2648 0.950 . S
H2640 C2650 0.950 . S
H2641 C2652 0.950 . S
H2642 C2654 0.950 . S
H2643 C2655 0.950 . S
C2644 H2636 0.950 . S
C2644 C2645 1.386 . S
C2644 C2646 1.391 . S
C2645 C2644 1.386 . S
C2645 C2649 1.393 . S
C2646 H2638 0.950 . S
C2646 C2644 1.391 . S
C2646 C2647 1.400 . S
C2647 C2646 1.400 . S
C2647 C2648 1.398 . S
C2647 C2653 1.491 . S
C2648 H2639 0.950 . S
C2648 C2647 1.398 . S
C2648 C2649 1.391 . S
C2649 H2637 0.950 . S
C2649 C2645 1.393 . S
C2649 C2648 1.391 . S
C2650 H2640 0.950 . S
C2650 C2651 1.386 1_565 S
C2650 C2652 1.391 1_565 S
C2651 C2650 1.386 1_545 S
C2651 C2655 1.393 . S
C2652 H2641 0.950 . S
C2652 C2650 1.391 1_545 S
C2652 C2653 1.400 . S
C2653 C2647 1.491 . S
C2653 C2652 1.400 . S
C2653 C2654 1.398 . S
C2654 H2642 0.950 . S
C2654 C2653 1.398 . S
C2654 C2655 1.391 . S
C2655 H2643 0.950 . S
C2655 C2651 1.393 . S
C2655 C2654 1.391 . S
C1065 C17 1.509 . S
C1071 C83 1.520 . S
C1085 C50 1.525 . S
C1091 C116 1.517 . S
C1105 C149 1.525 . S
C1111 C215 1.516 . S
C1125 C248 1.520 . S
C1131 C182 1.523 . S
C1145 C347 1.523 . S
C1151 C281 1.519 . S
C1165 C380 1.523 . S
C1171 C314 1.509 . S
C1185 C413 1.511 . S
C1191 C479 1.525 . S
C1205 C512 1.525 . S
C1211 C446 1.513 . S
C1225 C611 1.510 . S
C1231 C545 1.518 . S
C1245 C578 1.512 . S
C1251 C644 1.514 . S
C1265 C677 1.517 . S
C1271 C743 1.510 . S
C1285 C776 1.515 . S
C1291 C710 1.525 . S
C1305 C875 1.515 . S
C1311 C809 1.511 . S
C1325 C842 1.510 . S
C1331 C908 1.516 . S
C1345 C1007 1.512 . S
C1351 C941 1.525 . S
C1365 C1040 1.512 . S
C1371 C974 1.525 . S
C1385 C160 1.183 . S
C1391 C28 1.183 . S
C1405 C61 1.206 . S
C1411 C985 1.206 . S
C1425 C94 1.191 . S
C1431 C490 1.191 . S
C1445 C127 1.187 . S
C1451 C787 1.187 . S
C1465 C193 1.189 . S
C1471 C853 1.189 . S
C1485 C358 1.180 . S
C1491 C226 1.180 . S
C1505 C655 1.200 . S
C1511 C259 1.200 . S
C1525 C292 1.197 . S
C1531 C424 1.197 . S
C1545 C721 1.197 . S
C1551 C325 1.197 . S
C1565 C1051 1.180 . S
C1571 C391 1.180 . S
C1585 C589 1.193 . S
C1591 C457 1.193 . S
C1605 C919 1.203 . S
C1611 C523 1.203 . S
C1625 C688 1.191 . S
C1631 C556 1.191 . S
C1645 C622 1.207 . S
C1651 C1018 1.207 . S
C1665 C754 1.207 . S
C1671 C886 1.207 . S
C1685 C952 1.194 . S
C1691 C820 1.194 . S
C1705 N5 1.184 . S
C1711 N14 1.182 . S
C1725 N47 1.186 . S
C1731 N38 1.186 . S
C1745 N80 1.181 . S
C1751 N71 1.184 . S
C1765 N113 1.178 . S
C1771 N104 1.181 . S
C1785 N137 1.181 . S
C1791 N146 1.179 . S
C1805 N179 1.186 . S
C1811 N170 1.186 . S
C1825 N203 1.186 . S
C1831 N212 1.186 . S
C1845 N236 1.184 . S
C1851 N245 1.184 . S
C1865 N269 1.185 . S
C1871 N278 1.185 . S
C1885 N302 1.183 . S
C1891 N311 1.181 . S
C1905 N335 1.183 . S
C1911 N344 1.182 . S
C1925 N377 1.178 . S
C1931 N368 1.182 . S
C1945 N401 1.182 . S
C1951 N410 1.178 . S
C1965 N434 1.183 . S
C1971 N443 1.181 . S
C1985 N467 1.181 . S
C1991 N476 1.178 . S
C2005 N500 1.186 . S
C2011 N509 1.186 . S
C2025 N542 1.186 . S
C2031 N533 1.186 . S
C2045 N566 1.186 . S
C2051 N575 1.186 . S
C2065 N599 1.186 . S
C2071 N608 1.186 . S
C2085 N632 1.182 . S
C2091 N641 1.179 . S
C2105 N665 1.182 . S
C2111 N674 1.180 . S
C2125 N698 1.182 . S
C2131 N707 1.180 . S
C2145 N740 1.179 . S
C2151 N731 1.182 . S
C2165 N764 1.183 . S
C2171 N773 1.183 . S
C2185 N806 1.185 . S
C2191 N797 1.185 . S
C2205 N830 1.185 . S
C2211 N839 1.184 . S
C2225 N863 1.181 . S
C2231 N872 1.178 . S
C2245 N896 1.183 . S
C2251 N905 1.182 . S
C2265 N938 1.182 . S
C2271 N929 1.184 . S
C2285 N971 1.180 . S
C2291 N962 1.182 . S
C2305 N1004 1.178 . S
C2311 N995 1.181 . S
C2325 N1037 1.180 . S
C2331 N1028 1.182 . S
C2345 C833 1.491 . S
C2351 C8 1.501 . S
C2365 C41 1.492 1_565 S
C2371 C800 1.497 . S
C2385 C899 1.495 . S
C2391 C74 1.493 1_565 S
C2405 C107 1.506 . S
C2411 C866 1.499 . S
C2425 C965 1.505 . S
C2431 C140 1.493 . S
C2445 C173 1.502 1_545 S
C2451 C932 1.491 . S
C2465 C1031 1.501 . S
C2471 C206 1.491 1_545 S
C2485 C998 1.494 . S
C2491 C239 1.495 . S
C2505 C272 1.504 . S
C2511 C569 1.492 1_565 S
C2525 C305 1.496 . S
C2531 C536 1.506 . S
C2545 C635 1.491 . S
C2551 C338 1.500 . S
C2565 C371 1.505 . S
C2571 C602 1.493 1_565 S
C2585 C701 1.492 1_545 S
C2591 C404 1.496 . S
C2605 C668 1.492 . S
C2611 C437 1.504 . S
C2625 C470 1.501 . S
C2631 C767 1.505 . S
C2645 C503 1.506 . S
C2651 C734 1.493 1_545 S
