# Generated by pormake.
# Topology umy, (4)-cn, num edge types: 1
# Building blocks:
#     Node 0, Type 0, BuildingBlock: KUFVIS_clean_sbu_0, # of connection points: 4
#     Node 1, Type 0, BuildingBlock: KUFVIS_clean_sbu_0, # of connection points: 4
#     Node 2, Type 0, BuildingBlock: KUFVIS_clean_sbu_0, # of connection points: 4
#     Node 3, Type 0, BuildingBlock: KUFVIS_clean_sbu_0, # of connection points: 4
#     Node 4, Type 0, BuildingBlock: KUFVIS_clean_sbu_0, # of connection points: 4
#     Node 5, Type 0, BuildingBlock: KUFVIS_clean_sbu_0, # of connection points: 4
#     Node 6, Type 0, BuildingBlock: KUFVIS_clean_sbu_0, # of connection points: 4
#     Node 7, Type 0, BuildingBlock: KUFVIS_clean_sbu_0, # of connection points: 4
#     Node 8, Type 0, BuildingBlock: KUFVIS_clean_sbu_0, # of connection points: 4
#     Node 9, Type 0, BuildingBlock: KUFVIS_clean_sbu_0, # of connection points: 4
#     Node 10, Type 0, BuildingBlock: KUFVIS_clean_sbu_0, # of connection points: 4
#     Node 11, Type 0, BuildingBlock: KUFVIS_clean_sbu_0, # of connection points: 4
#     Edge 12, Type (0, 0), BuildingBlock: EZIPEK_clean_linker_0, # of connection points: 2
#     Edge 13, Type (0, 0), BuildingBlock: EZIPEK_clean_linker_0, # of connection points: 2
#     Edge 14, Type (0, 0), BuildingBlock: EZIPEK_clean_linker_0, # of connection points: 2
#     Edge 15, Type (0, 0), BuildingBlock: EZIPEK_clean_linker_0, # of connection points: 2
#     Edge 16, Type (0, 0), BuildingBlock: EZIPEK_clean_linker_0, # of connection points: 2
#     Edge 17, Type (0, 0), BuildingBlock: EZIPEK_clean_linker_0, # of connection points: 2
#     Edge 18, Type (0, 0), BuildingBlock: EZIPEK_clean_linker_0, # of connection points: 2
#     Edge 19, Type (0, 0), BuildingBlock: EZIPEK_clean_linker_0, # of connection points: 2
#     Edge 20, Type (0, 0), BuildingBlock: EZIPEK_clean_linker_0, # of connection points: 2
#     Edge 21, Type (0, 0), BuildingBlock: EZIPEK_clean_linker_0, # of connection points: 2
#     Edge 22, Type (0, 0), BuildingBlock: EZIPEK_clean_linker_0, # of connection points: 2
#     Edge 23, Type (0, 0), BuildingBlock: EZIPEK_clean_linker_0, # of connection points: 2
#     Edge 24, Type (0, 0), BuildingBlock: EZIPEK_clean_linker_0, # of connection points: 2
#     Edge 25, Type (0, 0), BuildingBlock: EZIPEK_clean_linker_0, # of connection points: 2
#     Edge 26, Type (0, 0), BuildingBlock: EZIPEK_clean_linker_0, # of connection points: 2
#     Edge 27, Type (0, 0), BuildingBlock: EZIPEK_clean_linker_0, # of connection points: 2
#     Edge 28, Type (0, 0), BuildingBlock: EZIPEK_clean_linker_0, # of connection points: 2
#     Edge 29, Type (0, 0), BuildingBlock: EZIPEK_clean_linker_0, # of connection points: 2
#     Edge 30, Type (0, 0), BuildingBlock: EZIPEK_clean_linker_0, # of connection points: 2
#     Edge 31, Type (0, 0), BuildingBlock: EZIPEK_clean_linker_0, # of connection points: 2
#     Edge 32, Type (0, 0), BuildingBlock: EZIPEK_clean_linker_0, # of connection points: 2
#     Edge 33, Type (0, 0), BuildingBlock: EZIPEK_clean_linker_0, # of connection points: 2
#     Edge 34, Type (0, 0), BuildingBlock: EZIPEK_clean_linker_0, # of connection points: 2
#     Edge 35, Type (0, 0), BuildingBlock: EZIPEK_clean_linker_0, # of connection points: 2
# Relax obj value: 0.090
# Max RMSD: 0.078
# Mean RMSD: 0.078
data_MOF--net-umy--node1-KUFVIS_clean_sbu_0--edge1-EZIPEK_clean_linker_0
_symmetry_space_group_name_H-M    P1
_symmetry_Int_Tables_number       1
_symmetry_cell_setting            triclinic
loop_
_symmetry_equiv_pos_as_xyz
'x, y, z'
_cell_length_a     27.822164
_cell_length_b     27.917802
_cell_length_c     37.93896
_cell_angle_alpha  89.98077
_cell_angle_beta   89.950204
_cell_angle_gamma 120.06769
loop_
_atom_site_label
_atom_site_type_symbol
_atom_site_fract_x
_atom_site_fract_y
_atom_site_fract_z
_atom_type_partial_charge
Mn0 Mn 0.10285 0.36613 0.1387 0.0
Mn1 Mn 0.23148 0.47907 0.13088 0.0
C2 C 0.17232 0.38054 0.17849 0.0
C3 C 1.01322 0.31573 0.16239 0.0
C4 C 0.18935 0.37848 0.08382 0.0
O5 O 0.08731 0.41836 0.10965 0.0
O6 O 0.17473 0.49197 0.10748 0.0
C7 C 0.22312 0.56756 0.16829 0.0
N8 N 0.24695 0.53546 0.1649 0.0
C9 C 0.32286 0.59631 0.20253 0.0
C10 C 0.29899 0.62989 0.20632 0.0
C11 C 0.24846 0.61497 0.18958 0.0
C12 C 0.29503 0.54886 0.18158 0.0
H13 H 0.18605 0.55809 0.15404 0.0
C14 C 0.12236 0.46844 0.10142 0.0
O15 O 0.02624 0.30167 0.13289 0.0
O16 O 0.05067 0.36185 0.17651 0.0
N17 N 0.28909 0.47205 0.15355 0.0
C18 C 0.30671 0.4353 0.14704 0.0
C19 C 0.35422 0.44161 0.16423 0.0
C20 C 0.38424 0.48676 0.18692 0.0
C21 C 0.36584 0.52458 0.1927 0.0
C22 C 0.31679 0.51468 0.17607 0.0
H23 H 0.28468 0.40143 0.12887 0.0
O24 O 0.13151 0.33129 0.17176 0.0
O25 O 0.17317 0.4207 0.16047 0.0
O26 O 0.14071 0.3512 0.09682 0.0
O27 O 0.22489 0.42663 0.0942 0.0
C28 C 0.39473 0.57227 0.21376 0.0
C29 C 0.37377 0.60864 0.21811 0.0
H30 H 0.3194 0.66761 0.22161 0.0
H31 H 0.22996 0.64088 0.1922 0.0
H32 H 0.36826 0.41235 0.1595 0.0
H33 H 0.42158 0.49221 0.19952 0.0
H34 H 0.43326 0.58156 0.22653 0.0
H35 H 0.39683 0.64572 0.23373 0.0
Mn36 Mn 0.74782 0.084 0.29787 0.0
Mn37 Mn 0.74879 0.20574 0.29118 0.0
C38 C 0.79679 0.15441 0.33899 0.0
C39 C 0.71381 0.9935 0.31855 0.0
C40 C 0.81536 0.17383 0.24356 0.0
O41 O 0.67881 0.06295 0.26799 0.0
O42 O 0.68011 0.14461 0.27008 0.0
C43 C 0.65116 0.19018 0.33113 0.0
N44 N 0.70737 0.21696 0.32714 0.0
C45 C 0.71802 0.29345 0.36223 0.0
C46 C 0.6602 0.26722 0.36577 0.0
C47 C 0.62671 0.21466 0.35103 0.0
C48 C 0.74026 0.26638 0.34287 0.0
H49 H 0.62492 0.15173 0.31784 0.0
C50 C 0.65695 0.0931 0.26235 0.0
O51 O 0.74334 1.01109 0.29009 0.0
O52 O 0.70136 0.02719 0.33414 0.0
N53 N 0.81274 0.26804 0.31123 0.0
C54 C 0.86596 0.29436 0.29878 0.0
C55 C 0.90515 0.3459 0.31269 0.0
C56 C 0.88859 0.37172 0.33767 0.0
C57 C 0.8329 0.34579 0.34829 0.0
C58 C 0.79626 0.29277 0.3351 0.0
H59 H 0.87888 0.2762 0.27853 0.0
O60 O 0.81023 0.11704 0.33229 0.0
O61 O 0.75583 0.15096 0.32052 0.0
O62 O 0.80116 0.12719 0.25747 0.0
O63 O 0.7944 0.2032 0.25253 0.0
C64 C 0.81157 0.37254 0.36908 0.0
C65 C 0.75402 0.34715 0.37499 0.0
H66 H 0.64101 0.28752 0.37931 0.0
H67 H 0.582 0.19418 0.35367 0.0
H68 H 0.9477 0.3663 0.30347 0.0
H69 H 0.91846 0.41245 0.34738 0.0
H70 H 0.83865 0.41401 0.37891 0.0
H71 H 0.73774 0.37021 0.38834 0.0
Mn72 Mn 0.67679 0.7522 0.46696 0.0
Mn73 Mn 0.55678 0.75192 0.45448 0.0
C74 C 0.65253 0.80323 0.50444 0.0
C75 C 0.73325 0.72167 0.49315 0.0
C76 C 0.65298 0.80269 0.40294 0.0
O77 O 0.62729 0.67881 0.44085 0.0
O78 O 0.54481 0.67737 0.44324 0.0
C79 C 0.47081 0.67079 0.50179 0.0
N80 N 0.50596 0.72469 0.49308 0.0
C81 C 0.45339 0.75445 0.52798 0.0
C82 C 0.41599 0.69914 0.53633 0.0
C83 C 0.42536 0.65722 0.52387 0.0
C84 C 0.49775 0.76552 0.50555 0.0
H85 H 0.47547 0.63808 0.49034 0.0
C86 C 0.57411 0.65424 0.43776 0.0
O87 O 0.74577 0.74667 0.46296 0.0
O88 O 0.68663 0.71149 0.50722 0.0
N89 N 0.5664 0.82311 0.46599 0.0
C90 C 0.59806 0.87255 0.44928 0.0
C91 C 0.59462 0.91901 0.45964 0.0
C92 C 0.55736 0.91388 0.48629 0.0
C93 C 0.52383 0.86227 0.50225 0.0
C94 C 0.53063 0.81783 0.49179 0.0
H95 H 0.626 0.8769 0.42826 0.0
O96 O 0.70425 0.81835 0.49865 0.0
O97 O 0.61741 0.762 0.48554 0.0
O98 O 0.68768 0.79961 0.42312 0.0
O99 O 0.60241 0.78186 0.41179 0.0
C100 C 0.48198 0.85261 0.52678 0.0
C101 C 0.44594 0.79851 0.53897 0.0
H102 H 0.37887 0.68822 0.55134 0.0
H103 H 0.39633 0.61435 0.53011 0.0
H104 H 0.62011 0.95851 0.44679 0.0
H105 H 0.55392 0.94952 0.4937 0.0
H106 H 0.47544 0.88602 0.53514 0.0
H107 H 0.41164 0.7911 0.55596 0.0
Mn108 Mn 0.94099 0.65988 0.63553 0.0
Mn109 Mn 0.80575 0.56035 0.63238 0.0
C110 C 0.8789 0.65741 0.67813 0.0
C111 C 0.03133 0.70529 0.65871 0.0
C112 C 0.85627 0.65771 0.58296 0.0
O113 O 0.94582 0.59943 0.60723 0.0
O114 O 0.85436 0.53896 0.60668 0.0
C115 C 0.80425 0.4661 0.6693 0.0
N116 N 0.78456 0.50166 0.66548 0.0
C117 C 0.70473 0.44433 0.70148 0.0
C118 C 0.72297 0.40591 0.70448 0.0
C119 C 0.77361 0.41748 0.68906 0.0
C120 C 0.73722 0.49216 0.68164 0.0
H121 H 0.84289 0.47477 0.65726 0.0
C122 C 0.90426 0.55252 0.59839 0.0
O123 O 1.02026 0.71863 0.62829 0.0
O124 O 0.99204 0.66051 0.67308 0.0
N125 N 0.75524 0.5758 0.65717 0.0
C126 C 0.7457 0.6188 0.65312 0.0
C127 C 0.70049 0.61744 0.6706 0.0
C128 C 0.66476 0.57117 0.69118 0.0
C129 C 0.67542 0.52731 0.69476 0.0
C130 C 0.72234 0.5321 0.67784 0.0
H131 H 0.77211 0.65352 0.63643 0.0
O132 O 0.92173 0.7031 0.66787 0.0
O133 O 0.87006 0.61359 0.66059 0.0
O134 O 0.90618 0.67921 0.59367 0.0
O135 O 0.81663 0.61449 0.59631 0.0
C136 C 0.64128 0.47888 0.71425 0.0
C137 C 0.65553 0.43707 0.71718 0.0
H138 H 0.69883 0.36766 0.71889 0.0
H139 H 0.78853 0.38859 0.69197 0.0
H140 H 0.69253 0.65142 0.66765 0.0
H141 H 0.6293 0.56974 0.70406 0.0
H142 H 0.60417 0.47348 0.7272 0.0
H143 H 0.62884 0.39995 0.73207 0.0
Mn144 Mn 0.29167 0.9348 0.79913 0.0
Mn145 Mn 0.27642 0.80694 0.7934 0.0
C146 C 0.23437 0.86713 0.8393 0.0
C147 C 0.32894 0.02316 0.82442 0.0
C148 C 0.22193 0.84932 0.74309 0.0
O149 O 0.36152 0.95081 0.77272 0.0
O150 O 0.34861 0.8639 0.77197 0.0
C151 C 0.36968 0.80857 0.83169 0.0
N152 N 0.31405 0.7881 0.82804 0.0
C153 C 0.29364 0.70971 0.86484 0.0
C154 C 0.35073 0.73044 0.8691 0.0
C155 C 0.38889 0.78042 0.85282 0.0
C156 C 0.27696 0.7399 0.84372 0.0
H157 H 0.39919 0.84501 0.81764 0.0
C158 C 0.37758 0.91623 0.76593 0.0
O159 O 0.30445 1.01189 0.79397 0.0
O160 O 0.33655 0.98509 0.83835 0.0
N161 N 0.20945 0.75037 0.81455 0.0
C162 C 0.15587 0.73623 0.8077 0.0
C163 C 0.11242 0.6892 0.82389 0.0
C164 C 0.1245 0.65666 0.84641 0.0
C165 C 0.18002 0.67222 0.8531 0.0
C166 C 0.22154 0.72067 0.83722 0.0
H167 H 0.14639 0.76055 0.78992 0.0
O168 O 0.22587 0.9065 0.82909 0.0
O169 O 0.2746 0.86491 0.82281 0.0
O170 O 0.24174 0.89784 0.75572 0.0
O171 O 0.23393 0.81449 0.75522 0.0
C172 C 0.19585 0.64121 0.8745 0.0
C173 C 0.25263 0.65952 0.87991 0.0
H174 H 0.36586 0.70806 0.88447 0.0
H175 H 0.43304 0.79637 0.85573 0.0
H176 H 0.06974 0.67756 0.81855 0.0
H177 H 0.09086 0.61979 0.85833 0.0
H178 H 0.16474 0.6031 0.88675 0.0
H179 H 0.26425 0.63471 0.8958 0.0
Mn180 Mn 0.37004 0.2767 0.97309 0.0
Mn181 Mn 0.48668 0.2685 0.96284 0.0
C182 C 0.39032 0.22493 0.01273 0.0
C183 C 0.31774 0.31336 -0.00228 0.0
C184 C 0.38668 0.21066 0.91511 0.0
O185 O 0.42008 0.34573 0.94382 0.0
O186 O 0.49883 0.3403 0.9444 0.0
C187 C 0.57405 0.35931 0.00456 0.0
N188 N 0.54052 0.30397 -0.00079 0.0
C189 C 0.59991 0.28346 0.03444 0.0
C190 C 0.63548 0.34028 0.03961 0.0
C191 C 0.62182 0.3783 0.02535 0.0
C192 C 0.55217 0.26683 0.01407 0.0
H193 H 0.5659 0.3889 0.99174 0.0
C194 C 0.47201 0.3656 0.9378 0.0
O195 O 0.30308 0.28554 0.96855 0.0
O196 O 0.36457 0.32327 0.01126 0.0
N197 N 0.47907 0.20073 0.98055 0.0
C198 C 0.44768 0.14856 0.96731 0.0
C199 C 0.45458 0.10535 0.98035 0.0
C200 C 0.49564 0.1166 0.0056 0.0
C201 C 0.52952 0.17102 0.01739 0.0
C202 C 0.51882 0.21202 0.00479 0.0
H203 H 0.41726 0.13958 0.94706 0.0
O204 O 0.33961 0.21302 0.00674 0.0
O205 O 0.42764 0.26454 0.9935 0.0
O206 O 0.35565 0.22478 0.93122 0.0
O207 O 0.437 0.22871 0.92339 0.0
C208 C 0.57591 0.18671 0.03916 0.0
C209 C 0.61196 0.24299 0.04673 0.0
H210 H 0.6739 0.35526 0.05409 0.0
H211 H 0.64922 0.42225 0.02922 0.0
H212 H 0.4291 0.06372 0.97039 0.0
H213 H 0.50207 0.08349 0.0148 0.0
H214 H 0.5859 0.15614 0.04868 0.0
H215 H 0.64977 0.25469 0.06113 0.0
Mn216 Mn 0.66957 0.92773 0.6894 0.0
Mn217 Mn 0.54954 0.80565 0.69868 0.0
C218 C 0.64672 0.85544 0.64967 0.0
C219 C 0.72591 0.01599 0.66495 0.0
C220 C 0.64842 0.84256 0.74674 0.0
O221 O 0.6214 0.94999 0.71795 0.0
O222 O 0.54145 0.86697 0.71853 0.0
C223 C 0.46634 0.81751 0.65741 0.0
N224 N 0.49633 0.79175 0.66258 0.0
C225 C 0.43298 0.71441 0.62694 0.0
C226 C 0.40119 0.73999 0.62165 0.0
C227 C 0.41861 0.79229 0.6363 0.0
C228 C 0.48121 0.74238 0.6473 0.0
H229 H 0.47741 0.85588 0.67043 0.0
C230 C 0.5696 0.91907 0.72481 0.0
O231 O 0.7386 1.00185 0.69451 0.0
O232 O 0.67901 0.98058 0.65081 0.0
N233 N 0.55284 0.74383 0.67967 0.0
C234 C 0.58237 0.72025 0.69179 0.0
C235 C 0.57205 0.66932 0.67802 0.0
C236 C 0.52947 0.64161 0.6533 0.0
C237 C 0.49769 0.66521 0.64262 0.0
C238 C 0.51189 0.71758 0.65579 0.0
H239 H 0.6139 0.74016 0.71168 0.0
O240 O 0.69799 0.8919 0.6564 0.0
O241 O 0.61015 0.8596 0.66855 0.0
O242 O 0.68046 0.88839 0.73167 0.0
O243 O 0.5984 0.81116 0.73755 0.0
C244 C 0.45021 0.63709 0.62134 0.0
C245 C 0.41698 0.6609 0.61448 0.0
H246 H 0.36292 0.71961 0.60672 0.0
H247 H 0.39415 0.81218 0.63243 0.0
H248 H 0.59602 0.65088 0.68707 0.0
H249 H 0.52035 0.60144 0.64359 0.0
H250 H 0.43744 0.59602 0.61145 0.0
H251 H 0.37857 0.6371 0.6001 0.0
Mn252 Mn 0.746 0.66347 0.86246 0.0
Mn253 Mn 0.76532 0.55331 0.86915 0.0
C254 C 0.80515 0.65507 0.82288 0.0
C255 C 0.70609 0.71172 0.83686 0.0
C256 C 0.81819 0.65145 0.91839 0.0
O257 O 0.67714 0.60876 0.88944 0.0
O258 O 0.69312 0.53683 0.89102 0.0
C259 C 0.67223 0.46092 0.83131 0.0
N260 N 0.72783 0.49612 0.83499 0.0
C261 C 0.74861 0.43793 0.79872 0.0
C262 C 0.69155 0.40127 0.79463 0.0
C263 C 0.65323 0.41319 0.81061 0.0
C264 C 0.76507 0.48503 0.81952 0.0
H265 H 0.64259 0.4682 0.84494 0.0
C266 C 0.66282 0.55876 0.89685 0.0
O267 O 0.73072 0.72607 0.86724 0.0
O268 O 0.69958 0.66623 0.82331 0.0
N269 N 0.83234 0.56418 0.84775 0.0
C270 C 0.88583 0.60403 0.85428 0.0
C271 C 0.92941 0.60058 0.83813 0.0
C272 C 0.91756 0.55554 0.81609 0.0
C273 C 0.86212 0.515 0.80984 0.0
C274 C 0.82045 0.52183 0.82564 0.0
H275 H 0.89511 0.63798 0.87181 0.0
O276 O 0.81127 0.70237 0.83221 0.0
O277 O 0.76556 0.61207 0.83939 0.0
O278 O 0.79699 0.6788 0.90551 0.0
O279 O 0.80764 0.60475 0.90677 0.0
C280 C 0.84652 0.46782 0.78886 0.0
C281 C 0.78979 0.42896 0.78368 0.0
H282 H 0.67658 0.36355 0.77956 0.0
H283 H 0.60911 0.38489 0.80772 0.0
H284 H 0.97202 0.63202 0.84317 0.0
H285 H 0.95131 0.55245 0.8042 0.0
H286 H 0.87777 0.46097 0.77665 0.0
H287 H 0.77833 0.39249 0.76789 0.0
Mn288 Mn 0.10069 0.74526 0.02615 0.0
Mn289 Mn 0.23109 0.76563 0.03325 0.0
C290 C 0.1687 0.80354 0.98635 0.0
C291 C 1.01132 0.708 0.00199 0.0
C292 C 0.18365 0.81557 0.08313 0.0
O293 O 0.08656 0.67519 0.05159 0.0
O294 O 0.1755 0.69274 0.05438 0.0
C295 C 0.23545 0.67504 0.99592 0.0
N296 N 0.25323 0.73003 -0.00086 0.0
C297 C 0.33377 0.75379 0.9633 0.0
C298 C 0.31574 0.69737 0.95942 0.0
C299 C 0.26603 0.65783 0.97543 0.0
C300 C 0.30122 0.76845 0.98376 0.0
H301 H 0.19939 0.6446 0.00987 0.0
C302 C 0.12288 0.66152 0.05924 0.0
O303 O 0.02315 0.73079 0.03286 0.0
O304 O 0.04968 0.70223 0.9864 0.0
N305 N 0.28637 0.83347 0.01231 0.0
C306 C 0.29809 0.8862 0.01898 0.0
C307 C 0.3445 0.93074 0.00297 0.0
C308 C 0.37902 0.92061 0.9809 0.0
C309 C 0.36602 0.86594 0.97445 0.0
C310 C 0.31797 0.82322 0.99005 0.0
H311 H 0.27233 0.89419 0.0365 0.0
O312 O 0.12888 0.81148 0.99672 0.0
O313 O 0.1719 0.76422 0.00303 0.0
O314 O 0.13529 0.79381 0.07001 0.0
O315 O 0.22079 0.80658 0.07126 0.0
C316 C 0.39924 0.85213 0.95361 0.0
C317 C 0.38359 0.79611 0.94852 0.0
H318 H 0.34005 0.68385 0.94462 0.0
H319 H 0.25219 0.6142 0.97287 0.0
H320 H 0.35418 0.97279 0.00809 0.0
H321 H 0.41545 0.9551 0.96917 0.0
H322 H 0.43711 0.88424 0.9416 0.0
H323 H 0.41011 0.78609 0.93309 0.0
Mn324 Mn 0.36688 0.09121 0.19645 0.0
Mn325 Mn 0.48716 0.21281 0.20578 0.0
C326 C 0.38933 0.16469 0.15744 0.0
C327 C 0.30999 1.0031 0.17214 0.0
C328 C 0.38981 0.17378 0.25577 0.0
O329 O 0.4161 0.06838 0.22332 0.0
O330 O 0.49709 0.15059 0.22232 0.0
C331 C 0.572 0.20783 0.16203 0.0
N332 N 0.5392 0.23029 0.16825 0.0
C333 C 0.59815 0.30981 0.13252 0.0
C334 C 0.63292 0.28783 0.12647 0.0
C335 C 0.61911 0.23604 0.14057 0.0
C336 C 0.55125 0.27948 0.15379 0.0
H337 H 0.56405 0.17018 0.17484 0.0
C338 C 0.46862 0.09826 0.22825 0.0
O339 O 0.29814 0.01702 0.20205 0.0
O340 O 0.35614 0.03884 0.15727 0.0
N341 N 0.48107 0.27459 0.18957 0.0
C342 C 0.45099 0.29624 0.20384 0.0
C343 C 0.45846 0.34681 0.19128 0.0
C344 C 0.49846 0.37593 0.16528 0.0
C345 C 0.53071 0.35422 0.15219 0.0
C346 C 0.51959 0.30224 0.16447 0.0
H347 H 0.42109 0.2751 0.22449 0.0
O348 O 0.33807 0.12806 0.1643 0.0
O349 O 0.42586 0.15984 0.17581 0.0
O350 O 0.35692 0.12932 0.23975 0.0
O351 O 0.43998 0.20432 0.24643 0.0
C352 C 0.57585 0.3839 0.12927 0.0
C353 C 0.61047 0.36245 0.12033 0.0
H354 H 0.67102 0.31095 0.11161 0.0
H355 H 0.64599 0.21898 0.1361 0.0
H356 H 0.43408 0.36374 0.20208 0.0
H357 H 0.50527 0.41573 0.15636 0.0
H358 H 0.58608 0.42458 0.11987 0.0
H359 H 0.64753 0.38777 0.10501 0.0
Mn360 Mn 0.30168 0.36427 0.36298 0.0
Mn361 Mn 0.30011 0.48417 0.36859 0.0
C362 C 0.26067 0.38593 0.31645 0.0
C363 C 0.33449 0.30543 0.3449 0.0
C364 C 0.22616 0.38328 0.41252 0.0
O365 O 0.36821 0.40969 0.39467 0.0
O366 O 0.3631 0.48775 0.39576 0.0
C367 C 0.40733 0.57059 0.33858 0.0
N368 N 0.35093 0.54502 0.34016 0.0
C369 C 0.35086 0.62102 0.31022 0.0
C370 C 0.40902 0.64828 0.30844 0.0
C371 C 0.43731 0.62263 0.32231 0.0
C372 C 0.32331 0.56925 0.32666 0.0
H373 H 0.42918 0.55187 0.35015 0.0
C374 C 0.38722 0.46016 0.40319 0.0
O375 O 0.30311 0.29443 0.37238 0.0
O376 O 0.34985 0.35218 0.32914 0.0
N377 N 0.24329 0.4886 0.34334 0.0
C378 C 0.18731 0.45381 0.34389 0.0
C379 C 0.15252 0.47077 0.32825 0.0
C380 C 0.17568 0.52363 0.31288 0.0
C381 C 0.23357 0.55846 0.31246 0.0
C382 C 0.26604 0.53894 0.328 0.0
H383 H 0.16951 0.41384 0.35659 0.0
O384 O 0.24186 0.33587 0.32781 0.0
O385 O 0.29899 0.42535 0.3364 0.0
O386 O 0.2452 0.3531 0.40177 0.0
O387 O 0.24438 0.43191 0.40145 0.0
C388 C 0.26045 0.61132 0.29671 0.0
C389 C 0.31905 0.6428 0.29596 0.0
H390 H 0.43231 0.68859 0.29611 0.0
H391 H 0.48218 0.64335 0.32099 0.0
H392 H 0.10794 0.44353 0.32849 0.0
H393 H 0.14872 0.53668 0.30101 0.0
H394 H 0.2365 0.62786 0.28472 0.0
H395 H 0.33929 0.6833 0.28372 0.0
Mn396 Mn 0.93854 0.27945 0.5213 0.0
Mn397 Mn 0.809 0.26096 0.53032 0.0
C398 C 0.86773 0.22423 0.48112 0.0
C399 C 0.0284 0.32068 0.49657 0.0
C400 C 0.85494 0.20608 0.57745 0.0
O401 O 0.95313 0.34676 0.55207 0.0
O402 O 0.86544 0.33141 0.55101 0.0
C403 C 0.81215 0.3537 0.49149 0.0
N404 N 0.79084 0.29811 0.49518 0.0
C405 C 0.71022 0.27862 0.46111 0.0
C406 C 0.73044 0.33559 0.45809 0.0
C407 C 0.78237 0.3733 0.47239 0.0
C408 C 0.74226 0.26138 0.47978 0.0
H409 H 0.85031 0.38293 0.50439 0.0
C410 C 0.91698 0.36131 0.55876 0.0
O411 O 1.01623 0.29274 0.5257 0.0
O412 O 0.99018 0.32913 0.48362 0.0
N413 N 0.75057 0.19384 0.51061 0.0
C414 C 0.72971 0.1412 0.52302 0.0
C415 C 0.67969 0.09828 0.50943 0.0
C416 C 0.64963 0.11038 0.48489 0.0
C417 C 0.66977 0.16535 0.47444 0.0
C418 C 0.72163 0.20605 0.48728 0.0
H419 H 0.75109 0.13171 0.54305 0.0
O420 O 0.90928 0.21656 0.48692 0.0
O421 O 0.86712 0.26244 0.50014 0.0
O422 O 0.90187 0.22473 0.56238 0.0
O423 O 0.81955 0.21968 0.56842 0.0
C424 C 0.63822 0.18179 0.45418 0.0
C425 C 0.65764 0.23841 0.44856 0.0
H426 H 0.70588 0.35082 0.44539 0.0
H427 H 0.79824 0.41735 0.47003 0.0
H428 H 0.66365 0.05622 0.51855 0.0
H429 H 0.61002 0.07749 0.47543 0.0
H430 H 0.59749 0.15143 0.44459 0.0
H431 H 0.63079 0.25059 0.43569 0.0
C432 C 0.09767 0.5883 0.10564 0.0
C433 C 0.10363 0.60351 0.06967 0.0
C434 C 0.10398 0.51876 0.0532 0.0
C435 C 0.10179 0.50542 0.08932 0.0
N436 N 0.07724 0.51593 0.14854 0.0
N437 N 0.09223 0.57487 0.00891 0.0
C438 C 0.09166 0.53623 0.11507 0.0
C439 C 0.09969 0.56563 0.0433 0.0
N440 N 0.10049 0.62468 0.13074 0.0
N441 N 0.11269 0.48816 0.02864 0.0
H442 H 0.08911 0.60907 0.0011 0.0
H443 H 0.08469 0.54664 0.98877 0.0
H444 H 0.11341 0.45222 0.03524 0.0
H445 H 0.12147 0.49965 0.00226 0.0
H446 H 0.10322 0.61899 0.15763 0.0
H447 H 0.1027 0.6621 0.12433 0.0
H448 H 0.06513 0.53423 0.16787 0.0
H449 H 0.073 0.47804 0.15604 0.0
C450 C 0.58431 0.06939 0.21615 0.0
C451 C 0.59796 0.06707 0.2517 0.0
C452 C 0.51216 0.06307 0.27142 0.0
C453 C 0.50151 0.07116 0.23616 0.0
N454 N 0.51392 0.06046 0.17452 0.0
N455 N 0.5665 0.04075 0.31133 0.0
C456 C 0.5329 0.06639 0.20832 0.0
C457 C 0.55837 0.05595 0.27866 0.0
N458 N 0.62197 0.07796 0.19032 0.0
N459 N 0.48044 0.06585 0.29793 0.0
H460 H 0.60055 0.03586 0.31689 0.0
H461 H 0.53756 0.02865 0.33167 0.0
H462 H 0.44544 0.06938 0.29294 0.0
H463 H 0.49003 0.06689 0.32455 0.0
H464 H 0.61751 0.08668 0.16423 0.0
H465 H 0.65895 0.07826 0.19564 0.0
H466 H 0.53291 0.05313 0.15318 0.0
H467 H 0.47628 0.05835 0.16853 0.0
C468 C 0.50675 0.56034 0.4595 0.0
C469 C 0.54173 0.59366 0.43176 0.0
C470 C 0.48802 0.51851 0.39037 0.0
C471 C 0.44517 0.49329 0.41599 0.0
N472 N 0.41481 0.48633 0.47595 0.0
N473 N 0.56914 0.60368 0.37094 0.0
C474 C 0.45539 0.51233 0.45116 0.0
C475 C 0.53438 0.57187 0.39732 0.0
N476 N 0.52253 0.57568 0.49359 0.0
N477 N 0.4829 0.4925 0.35898 0.0
H478 H 0.60415 0.6422 0.37575 0.0
H479 H 0.562 0.59306 0.34437 0.0
H480 H 0.44892 0.45371 0.3533 0.0
H481 H 0.51429 0.50695 0.34009 0.0
H482 H 0.50074 0.5515 0.51521 0.0
H483 H 0.56038 0.61074 0.49984 0.0
H484 H 0.41701 0.50193 0.5012 0.0
H485 H 0.37784 0.4498 0.47045 0.0
C486 C 0.87174 0.45109 0.59258 0.0
C487 C 0.91274 0.5064 0.58431 0.0
C488 C 0.96956 0.46749 0.56128 0.0
C489 C 0.93099 0.41502 0.57608 0.0
N490 N 0.85856 0.36732 0.61902 0.0
N491 N 1.00347 0.5666 0.55885 0.0
C492 C 0.88835 0.41188 0.59766 0.0
C493 C 0.96326 0.5148 0.56864 0.0
N494 N 0.81629 0.43339 0.59116 0.0
N495 N 1.00984 0.47174 0.53883 0.0
H496 H 0.99678 0.6001 0.55791 0.0
H497 H 0.04341 0.57601 0.55163 0.0
H498 H 1.01714 0.43915 0.53429 0.0
H499 H 0.03463 0.50697 0.52386 0.0
H500 H 0.78618 0.39226 0.59604 0.0
H501 H 0.8007 0.45654 0.57937 0.0
H502 H 0.82669 0.36413 0.63518 0.0
H503 H 0.86963 0.33699 0.62238 0.0
C504 C 0.52356 0.94328 0.77242 0.0
C505 C 0.53642 0.94412 0.73634 0.0
C506 C 0.45145 0.94404 0.71954 0.0
C507 C 0.43615 0.93804 0.7555 0.0
N508 N 0.46536 0.95297 0.81623 0.0
N509 N 0.52479 0.96572 0.6768 0.0
C510 C 0.47516 0.94516 0.78202 0.0
C511 C 0.50457 0.95211 0.71034 0.0
N512 N 0.55573 0.93728 0.79718 0.0
N513 N 0.41424 0.93907 0.69432 0.0
H514 H 0.56364 0.9714 0.66987 0.0
H515 H 0.50549 0.97573 0.65696 0.0
H516 H 0.3758 0.93495 0.7006 0.0
H517 H 0.42041 0.93664 0.66745 0.0
H518 H 0.54488 0.92946 0.82371 0.0
H519 H 0.59259 0.9381 0.79057 0.0
H520 H 0.49414 0.96252 0.83639 0.0
H521 H 0.42994 0.95426 0.82381 0.0
C522 C 0.51785 0.43788 0.89102 0.0
C523 C 0.50662 0.4241 0.92708 0.0
C524 C 0.59127 0.50923 0.94397 0.0
C525 C 0.60481 0.52068 0.90787 0.0
N526 N 0.57348 0.50796 0.84761 0.0
N527 N 0.52066 0.45416 0.98744 0.0
C528 C 0.56518 0.48914 0.88156 0.0
C529 C 0.53927 0.4628 0.95342 0.0
N530 N 0.48517 0.40057 0.86602 0.0
N531 N 0.62916 0.54104 0.96898 0.0
H532 H 0.48257 0.42016 0.99467 0.0
H533 H 0.54041 0.48259 0.00765 0.0
H534 H 0.66655 0.57654 0.96258 0.0
H535 H 0.62463 0.53109 0.99569 0.0
H536 H 0.49496 0.40496 0.83928 0.0
H537 H 0.44904 0.3638 0.87252 0.0
H538 H 0.54415 0.48907 0.8277 0.0
H539 H 0.60814 0.54526 0.84006 0.0
C540 C 0.23121 0.37933 0.02484 0.0
C541 C 0.20942 0.35253 0.05767 0.0
C542 C 0.25652 0.29866 0.05017 0.0
C543 C 0.27892 0.32581 0.01748 0.0
N544 N 0.28075 0.38503 0.97066 0.0
N545 N 0.18941 0.27665 0.09697 0.0
C546 C 0.26368 0.36367 0.00372 0.0
C547 C 0.21814 0.3089 0.06878 0.0
N548 N 0.22184 0.42084 0.01442 0.0
N549 N 0.2728 0.26377 0.06402 0.0
H550 H 0.16116 0.28246 0.11163 0.0
H551 H 0.18925 0.24051 0.10395 0.0
H552 H 0.29688 0.25105 0.05038 0.0
H553 H 0.26521 0.24978 0.08998 0.0
H554 H 0.2417 0.44706 0.99321 0.0
H555 H 0.19492 0.43022 0.02797 0.0
H556 H 0.26664 0.40829 0.95745 0.0
H557 H 0.30706 0.37698 0.95537 0.0
C558 C 0.91805 0.21655 0.2337 0.0
C559 C 0.86467 0.20082 0.21978 0.0
C560 C 0.9085 0.25657 0.16646 0.0
C561 C 0.96171 0.27617 0.18188 0.0
N562 N 1.01774 0.27604 0.23059 0.0
N563 N 0.80785 0.20437 0.17329 0.0
C564 C 0.96656 0.25621 0.21549 0.0
C565 C 0.85965 0.22014 0.18607 0.0
N566 N 0.92278 0.19365 0.2645 0.0
N567 N 0.90475 0.27327 0.13318 0.0
H568 H 0.7716 0.17458 0.18572 0.0
H569 H 0.80021 0.22133 0.15107 0.0
H570 H 0.93904 0.30309 0.11921 0.0
H571 H 0.86823 0.25647 0.11862 0.0
H572 H 0.95961 0.19665 0.27327 0.0
H573 H 0.88957 0.16832 0.28075 0.0
H574 H 0.02389 0.27139 0.25713 0.0
H575 H 0.05496 0.29963 0.21722 0.0
C576 C 0.72886 0.88218 0.36743 0.0
C577 C 0.6723 0.84092 0.37142 0.0
C578 C 0.64501 0.89406 0.33277 0.0
C579 C 0.7 0.93948 0.33449 0.0
N580 N 0.79498 0.97798 0.35385 0.0
N581 N 0.5836 0.79559 0.34238 0.0
C582 C 0.74237 0.9336 0.35142 0.0
C583 C 0.63226 0.84319 0.3493 0.0
N584 N 0.76956 0.87071 0.37637 0.0
N585 N 0.60465 0.90008 0.31633 0.0
H586 H 0.57626 0.75709 0.35126 0.0
H587 H 0.55403 0.79304 0.32451 0.0
H588 H 0.61301 0.93604 0.30285 0.0
H589 H 0.56254 0.87082 0.31778 0.0
H590 H 0.81163 0.8977 0.37176 0.0
H591 H 0.76073 0.83096 0.38326 0.0
H592 H 0.8257 0.97828 0.36966 0.0
H593 H 0.80697 0.01614 0.34213 0.0
C594 C 0.79944 0.74373 0.54351 0.0
C595 C 0.77353 0.71165 0.51295 0.0
C596 C 0.82169 0.65923 0.52257 0.0
C597 C 0.84028 0.68535 0.55579 0.0
N598 N 0.84652 0.7516 0.59884 0.0
N599 N 0.75911 0.63874 0.4729 0.0
C600 C 0.8299 0.72809 0.56625 0.0
C601 C 0.78516 0.66991 0.50197 0.0
N602 N 0.79582 0.78988 0.5504 0.0
N603 N 0.8391 0.62404 0.51103 0.0
H604 H 0.73267 0.64593 0.45713 0.0
H605 H 0.76096 0.60384 0.46544 0.0
H606 H 0.86603 0.6161 0.52578 0.0
H607 H 0.83104 0.6066 0.48597 0.0
H608 H 0.8182 0.81817 0.57019 0.0
H609 H 0.77418 0.80279 0.53427 0.0
H610 H 0.83356 0.77716 0.61023 0.0
H611 H 0.87115 0.74312 0.61548 0.0
C612 C 0.13587 0.76577 0.66479 0.0
C613 C 0.08175 0.74577 0.67901 0.0
C614 C 0.12258 0.81305 0.72772 0.0
C615 C 0.17651 0.82689 0.71642 0.0
N616 N 0.23587 0.81756 0.67438 0.0
N617 N 0.02439 0.74739 0.72689 0.0
C618 C 0.18346 0.80397 0.68469 0.0
C619 C 0.07533 0.76868 0.71119 0.0
N620 N 0.14187 0.74756 0.63253 0.0
N621 N 0.11624 0.84226 0.75448 0.0
H622 H 0.98763 0.71694 0.71592 0.0
H623 H 1.01878 0.7568 0.75258 0.0
H624 H 0.14948 0.8746 0.76759 0.0
H625 H 0.07826 0.83859 0.76127 0.0
H626 H 0.17927 0.76493 0.61879 0.0
H627 H 0.10868 0.71634 0.61858 0.0
H628 H 0.24442 0.79764 0.65422 0.0
H629 H 0.27128 0.84811 0.68712 0.0
C630 C 0.31265 0.06427 0.87909 0.0
C631 C 0.33859 0.07256 0.84543 0.0
C632 C 0.38672 0.17351 0.85467 0.0
C633 C 0.36264 0.16484 0.88884 0.0
N634 N 0.29639 0.10286 0.93187 0.0
N635 N 0.39492 0.13437 0.7991 0.0
C636 C 0.32338 0.11055 0.90034 0.0
C637 C 0.37358 0.12711 0.83244 0.0
N638 N 0.27866 1.01171 0.89134 0.0
N639 N 0.42332 0.22641 0.84405 0.0
H640 H 0.3894 0.10163 0.78313 0.0
H641 H 0.41661 0.17242 0.78644 0.0
H642 H 0.43047 0.26103 0.85869 0.0
H643 H 0.44739 0.23663 0.82133 0.0
H644 H 0.26682 1.00191 0.91757 0.0
H645 H 0.26319 0.9768 0.87553 0.0
H646 H 0.2616 0.06591 0.93942 0.0
H647 H 0.3062 0.13395 0.95029 0.0
C648 C 0.66036 0.76996 0.82873 0.0
C649 C 0.69523 0.75034 0.81554 0.0
C650 C 0.70968 0.80314 0.76055 0.0
C651 C 0.67123 0.81897 0.77253 0.0
N652 N 0.61089 0.81999 0.81754 0.0
N653 N 0.75409 0.74857 0.76906 0.0
C654 C 0.64728 0.80348 0.80671 0.0
C655 C 0.72051 0.76749 0.78165 0.0
N656 N 0.63913 0.75575 0.86209 0.0
N657 N 0.73594 0.82197 0.72877 0.0
H658 H 0.76986 0.72913 0.78463 0.0
H659 H 0.76541 0.75039 0.74274 0.0
H660 H 0.72579 0.84319 0.71048 0.0
H661 H 0.77033 0.81936 0.7208 0.0
H662 H 0.61776 0.77231 0.87494 0.0
H663 H 0.64423 0.72803 0.87784 0.0
H664 H 0.58698 0.80616 0.84032 0.0
H665 H 0.60366 0.84752 0.80303 0.0
C666 C 0.85855 0.64941 0.97677 0.0
C667 C 0.86442 0.67687 0.9442 0.0
C668 C 0.96513 0.73142 0.95332 0.0
C669 C 0.96018 0.69803 0.983 0.0
N670 N 0.90247 0.62426 0.02296 0.0
N671 N 0.9239 0.74172 0.8999 0.0
C672 C 0.90682 0.65722 0.99506 0.0
C673 C 0.91777 0.71794 0.93235 0.0
N674 N 0.80646 0.61585 0.98998 0.0
N675 N 1.01493 0.77724 0.94559 0.0
H676 H 0.89059 0.73532 0.88416 0.0
H677 H 0.96217 0.76511 0.88745 0.0
H678 H 0.05077 0.78856 0.95989 0.0
H679 H 1.01967 0.8069 0.92711 0.0
H680 H 0.79857 0.59775 0.01486 0.0
H681 H 0.77089 0.61015 0.977 0.0
H682 H 0.86536 0.59 0.03095 0.0
H683 H 0.93691 0.62897 0.03686 0.0
C684 C 0.25985 0.8996 0.16312 0.0
C685 C 0.26899 0.95246 0.15312 0.0
C686 C 0.21093 0.91255 0.10062 0.0
C687 C 0.20206 0.85956 0.11031 0.0
N688 N 0.20717 0.79992 0.15398 0.0
N689 N 0.24105 1.0067 0.1184 0.0
C690 C 0.22294 0.85229 0.14278 0.0
C691 C 0.24053 0.95803 0.1238 0.0
N692 N 0.28829 0.89508 0.19107 0.0
N693 N 0.19451 0.92051 0.06822 0.0
H694 H 0.26179 0.0407 0.13503 0.0
H695 H 0.21649 1.01158 0.09968 0.0
H696 H 0.17161 0.88852 0.05056 0.0
H697 H 0.20691 0.95949 0.05773 0.0
H698 H 0.28833 0.85887 0.19755 0.0
H699 H 0.3147 0.92878 0.20679 0.0
H700 H 0.21698 0.79084 0.17863 0.0
H701 H 0.17985 0.76488 0.13955 0.0
C702 C 0.4045 0.22563 0.31273 0.0
C703 C 0.36884 0.19612 0.28403 0.0
C704 C 0.30275 0.22311 0.30576 0.0
C705 C 0.34397 0.26262 0.32838 0.0
N706 N 0.43542 0.30264 0.35348 0.0
N707 N 0.28717 0.17744 0.24982 0.0
C708 C 0.39528 0.2641 0.33205 0.0
C709 C 0.31819 0.19671 0.27985 0.0
N710 N 0.44645 0.21609 0.32186 0.0
N711 N 0.249 0.21145 0.30841 0.0
H712 H 0.29824 0.16239 0.2281 0.0
H713 H 0.25324 0.18263 0.24471 0.0
H714 H 0.2361 0.23038 0.32684 0.0
H715 H 0.21663 0.17925 0.29449 0.0
H716 H 0.47116 0.23329 0.34409 0.0
H717 H 0.45235 0.18609 0.30938 0.0
H718 H 0.47587 0.30963 0.35425 0.0
H719 H 0.42891 0.32981 0.36895 0.0
C720 C 0.182 0.38432 0.47038 0.0
C721 C 0.17694 0.36057 0.43646 0.0
C722 C 0.07505 0.31073 0.44212 0.0
C723 C 0.07991 0.33446 0.47617 0.0
N724 N 0.1374 0.38888 0.52454 0.0
N725 N 0.11978 0.29578 0.39167 0.0
C726 C 0.13331 0.3695 0.49092 0.0
C727 C 0.12377 0.32201 0.42293 0.0
N728 N 0.23363 0.42223 0.48249 0.0
N729 N 0.02364 0.27782 0.42773 0.0
H730 H 0.15378 0.30487 0.37574 0.0
H731 H 0.08333 0.26224 0.38227 0.0
H732 H 0.98682 0.26318 0.44176 0.0
H733 H 1.01677 0.26646 0.40131 0.0
H734 H 0.24081 0.44643 0.50485 0.0
H735 H 0.27006 0.43101 0.46927 0.0
H736 H 0.17437 0.40943 0.53859 0.0
H737 H 0.10304 0.38242 0.53931 0.0
C738 C 0.81993 0.10601 0.59089 0.0
C739 C 0.83524 0.15984 0.60318 0.0
C740 C 0.78217 0.11996 0.65778 0.0
C741 C 0.76672 0.06624 0.64532 0.0
N742 N 0.78322 1.0093 0.60485 0.0
N743 N 0.84247 0.21944 0.65095 0.0
C744 C 0.7895 0.05969 0.61337 0.0
C745 C 0.82003 0.16715 0.63762 0.0
N746 N 0.83134 0.0985 0.55693 0.0
N747 N 0.75873 0.12572 0.68798 0.0
H748 H 0.87133 0.2541 0.63682 0.0
H749 H 0.8369 0.2281 0.67682 0.0
H750 H 0.73135 0.09208 0.70344 0.0
H751 H 0.76349 0.16326 0.69657 0.0
H752 H 0.81397 0.05985 0.54489 0.0
H753 H 0.85522 0.13102 0.53977 0.0
H754 H 0.80378 1.00317 0.58392 0.0
H755 H 0.76187 0.97452 0.62077 0.0
C756 C 0.24333 0.34825 0.25264 0.0
C757 C 0.25449 0.39175 0.27705 0.0
C758 C 0.22037 0.4323 0.2345 0.0
C759 C 0.20695 0.38874 0.21027 0.0
N760 N 0.22442 0.31619 0.19194 0.0
N761 N 0.2971 0.48911 0.27145 0.0
C762 C 0.22395 0.3497 0.21805 0.0
C763 C 0.25506 0.43842 0.26319 0.0
N764 N 0.25425 0.30741 0.26146 0.0
N765 N 0.19982 0.46725 0.23137 0.0
H766 H 0.33175 0.49323 0.28472 0.0
H767 H 0.30058 0.52461 0.26001 0.0
H768 H 0.16899 0.46128 0.21346 0.0
H769 H 0.21059 0.4995 0.24914 0.0
H770 H 0.23827 0.27015 0.24783 0.0
H771 H 0.2812 0.31213 0.28176 0.0
H772 H 0.24107 0.29033 0.19487 0.0
H773 H 0.21371 0.31881 0.166 0.0
C774 C 0.79765 0.15722 0.43768 0.0
C775 C 0.84224 0.21058 0.44555 0.0
C776 C 0.86039 0.22657 0.3825 0.0
C777 C 0.80912 0.17876 0.37482 0.0
N778 N 0.7216 0.10554 0.39774 0.0
N779 N 0.9067 0.30224 0.42322 0.0
C780 C 0.77487 0.1467 0.4033 0.0
C781 C 0.87016 0.24766 0.41726 0.0
N782 N 0.77994 0.11536 0.4616 0.0
N783 N 0.90162 0.24915 0.35795 0.0
H784 H 0.91175 0.32012 0.448 0.0
H785 H 0.92609 0.33035 0.40267 0.0
H786 H 0.89765 0.23144 0.33315 0.0
H787 H 0.94127 0.28174 0.36382 0.0
H788 H 0.75018 0.07463 0.45551 0.0
H789 H 0.79919 0.12057 0.48599 0.0
H790 H 0.69515 0.08292 0.41842 0.0
H791 H 0.70232 0.09917 0.37331 0.0
C792 C 0.63981 0.78861 0.60276 0.0
C793 C 0.63385 0.83392 0.6131 0.0
C794 C 0.64017 0.86062 0.55113 0.0
C795 C 0.63726 0.81064 0.54076 0.0
N796 N 0.61301 0.71768 0.55889 0.0
N797 N 0.60974 0.90251 0.59465 0.0
C798 C 0.62963 0.77123 0.56719 0.0
C799 C 0.62736 0.86625 0.58652 0.0
N800 N 0.65859 0.76429 0.62585 0.0
N801 N 0.65806 0.90381 0.52819 0.0
H802 H 0.59595 0.905 0.61972 0.0
H803 H 0.60205 0.92447 0.57536 0.0
H804 H 0.67152 0.90225 0.50279 0.0
H805 H 0.6648 0.9426 0.53582 0.0
H806 H 0.66724 0.7335 0.61816 0.0
H807 H 0.67107 0.7791 0.65139 0.0
H808 H 0.60483 0.68786 0.57816 0.0
H809 H 0.60014 0.7017 0.5337 0.0
C810 C 0.83104 0.6054 0.73478 0.0
C811 C 0.85767 0.65507 0.71489 0.0
C812 C 0.86747 0.70293 0.77059 0.0
C813 C 0.82697 0.65284 0.78706 0.0
N814 N 0.75165 0.56109 0.772 0.0
N815 N 0.88584 0.75288 0.71589 0.0
C816 C 0.80296 0.60476 0.76578 0.0
C817 C 0.87118 0.70472 0.73326 0.0
N818 N 0.83721 0.56127 0.72738 0.0
N819 N 0.9031 0.74814 0.78987 0.0
H820 H 0.8822 0.75467 0.68863 0.0
H821 H 0.8937 0.78877 0.72925 0.0
H822 H 0.90647 0.74659 0.81717 0.0
H823 H 0.93422 0.78416 0.77801 0.0
H824 H 0.81684 0.52506 0.74222 0.0
H825 H 0.86763 0.56376 0.71024 0.0
H826 H 0.73574 0.52555 0.7566 0.0
H827 H 0.72323 0.56337 0.78875 0.0
C828 C 0.17651 0.85658 0.89338 0.0
C829 C 0.2154 0.84551 0.87604 0.0
C830 C 0.21448 0.79668 0.929 0.0
C831 C 0.1895 0.82112 0.94926 0.0
N832 N 0.16514 0.89373 0.94788 0.0
N833 N 0.29244 0.83117 0.89062 0.0
C834 C 0.17624 0.85745 0.93074 0.0
C835 C 0.24093 0.82277 0.89728 0.0
N836 N 0.13935 0.86514 0.87505 0.0
N837 N 0.20763 0.74614 0.9364 0.0
H838 H 0.31967 0.86116 0.87305 0.0
H839 H 0.30978 0.81336 0.90654 0.0
H840 H 0.17744 0.71868 0.9538 0.0
H841 H 0.22689 0.72955 0.92112 0.0
H842 H 0.10988 0.87171 0.8878 0.0
H843 H 0.13301 0.85775 0.84803 0.0
H844 H 0.15703 0.92138 0.93421 0.0
H845 H 0.17221 0.90169 0.9748 0.0
C846 C 0.39863 0.23407 0.11133 0.0
C847 C 0.40244 0.18722 0.12099 0.0
C848 C 0.39706 0.16321 0.05865 0.0
C849 C 0.40344 0.21493 0.04898 0.0
N850 N 0.42857 0.30729 0.06854 0.0
N851 N 0.42421 0.11747 0.10129 0.0
C852 C 0.41081 0.25324 0.07608 0.0
C853 C 0.40841 0.15534 0.09388 0.0
N854 N 0.37995 0.25814 0.13466 0.0
N855 N 0.37654 0.12033 0.03537 0.0
H856 H 0.43766 0.11376 0.12619 0.0
H857 H 0.43102 0.09553 0.08154 0.0
H858 H 0.36287 0.12323 0.0103 0.0
H859 H 0.36762 0.08064 0.04261 0.0
H860 H 0.37284 0.29013 0.12745 0.0
H861 H 0.36593 0.24196 0.15979 0.0
H862 H 0.43643 0.33645 0.0882 0.0
H863 H 0.44244 0.324 0.04356 0.0
loop_
_geom_bond_atom_site_label_1
_geom_bond_atom_site_label_2
_geom_bond_distance
_geom_bond_site_symmetry_2
_ccdc_geom_bond_type
Mn0 O5 2.095 . S
Mn0 O15 2.162 1_455 S
Mn0 O16 2.297 . S
Mn0 O24 2.385 . S
Mn0 O25 2.209 . S
Mn0 O26 2.094 . S
Mn1 O6 2.121 . S
Mn1 N8 2.257 . S
Mn1 N17 2.282 . S
Mn1 O25 2.215 . S
Mn1 O27 2.117 . S
C2 O24 1.234 . S
C2 O25 1.283 . S
C3 O15 1.281 . S
C3 O16 1.236 1_655 S
C4 O26 1.240 . S
C4 O27 1.264 . S
O5 Mn0 2.095 . S
O5 C14 1.250 . S
O6 Mn1 2.121 . S
O6 C14 1.258 . S
C7 N8 1.326 . S
C7 C11 1.460 . S
C7 H13 0.929 . S
N8 Mn1 2.257 . S
N8 C7 1.326 . S
N8 C12 1.362 . S
C9 C10 1.258 . S
C9 C12 1.431 . S
C9 C29 1.449 . S
C10 C9 1.258 . S
C10 C11 1.477 . S
C10 H30 0.931 . S
C11 C7 1.460 . S
C11 C10 1.477 . S
C11 H31 0.930 . S
C12 N8 1.362 . S
C12 C9 1.431 . S
C12 C22 1.476 . S
H13 C7 0.929 . S
C14 O5 1.250 . S
C14 O6 1.258 . S
O15 Mn0 2.162 1_655 S
O15 C3 1.281 . S
O16 Mn0 2.297 . S
O16 C3 1.236 1_455 S
N17 Mn1 2.282 . S
N17 C18 1.328 . S
N17 C22 1.318 . S
C18 N17 1.328 . S
C18 C19 1.457 . S
C18 H23 0.929 . S
C19 C18 1.457 . S
C19 C20 1.291 . S
C19 H32 0.931 . S
C20 C19 1.291 . S
C20 C21 1.373 . S
C20 H33 0.929 . S
C21 C20 1.373 . S
C21 C22 1.396 . S
C21 C28 1.403 . S
C22 C12 1.476 . S
C22 N17 1.318 . S
C22 C21 1.396 . S
H23 C18 0.929 . S
O24 Mn0 2.385 . S
O24 C2 1.234 . S
O25 Mn0 2.209 . S
O25 Mn1 2.215 . S
O25 C2 1.283 . S
O26 Mn0 2.094 . S
O26 C4 1.240 . S
O27 Mn1 2.117 . S
O27 C4 1.264 . S
C28 C21 1.403 . S
C28 C29 1.399 . S
C28 H34 0.929 . S
C29 C9 1.449 . S
C29 C28 1.399 . S
C29 H35 0.930 . S
H30 C10 0.931 . S
H31 C11 0.930 . S
H32 C19 0.931 . S
H33 C20 0.929 . S
H34 C28 0.929 . S
H35 C29 0.930 . S
Mn36 O41 2.095 . S
Mn36 O51 2.162 1_545 S
Mn36 O52 2.297 . S
Mn36 O60 2.385 . S
Mn36 O61 2.209 . S
Mn36 O62 2.094 . S
Mn37 O42 2.121 . S
Mn37 N44 2.257 . S
Mn37 N53 2.282 . S
Mn37 O61 2.215 . S
Mn37 O63 2.117 . S
C38 O60 1.234 . S
C38 O61 1.283 . S
C39 O51 1.281 . S
C39 O52 1.236 1_565 S
C40 O62 1.240 . S
C40 O63 1.264 . S
O41 Mn36 2.095 . S
O41 C50 1.250 . S
O42 Mn37 2.121 . S
O42 C50 1.258 . S
C43 N44 1.326 . S
C43 C47 1.460 . S
C43 H49 0.929 . S
N44 Mn37 2.257 . S
N44 C43 1.326 . S
N44 C48 1.362 . S
C45 C46 1.258 . S
C45 C48 1.431 . S
C45 C65 1.449 . S
C46 C45 1.258 . S
C46 C47 1.477 . S
C46 H66 0.931 . S
C47 C43 1.460 . S
C47 C46 1.477 . S
C47 H67 0.930 . S
C48 N44 1.362 . S
C48 C45 1.431 . S
C48 C58 1.476 . S
H49 C43 0.929 . S
C50 O41 1.250 . S
C50 O42 1.258 . S
O51 Mn36 2.162 1_565 S
O51 C39 1.281 . S
O52 Mn36 2.297 . S
O52 C39 1.236 1_545 S
N53 Mn37 2.282 . S
N53 C54 1.328 . S
N53 C58 1.318 . S
C54 N53 1.328 . S
C54 C55 1.457 . S
C54 H59 0.929 . S
C55 C54 1.457 . S
C55 C56 1.291 . S
C55 H68 0.931 . S
C56 C55 1.291 . S
C56 C57 1.373 . S
C56 H69 0.929 . S
C57 C56 1.373 . S
C57 C58 1.396 . S
C57 C64 1.403 . S
C58 C48 1.476 . S
C58 N53 1.318 . S
C58 C57 1.396 . S
H59 C54 0.929 . S
O60 Mn36 2.385 . S
O60 C38 1.234 . S
O61 Mn36 2.209 . S
O61 Mn37 2.215 . S
O61 C38 1.283 . S
O62 Mn36 2.094 . S
O62 C40 1.240 . S
O63 Mn37 2.117 . S
O63 C40 1.264 . S
C64 C57 1.403 . S
C64 C65 1.399 . S
C64 H70 0.929 . S
C65 C45 1.449 . S
C65 C64 1.399 . S
C65 H71 0.930 . S
H66 C46 0.931 . S
H67 C47 0.930 . S
H68 C55 0.931 . S
H69 C56 0.929 . S
H70 C64 0.929 . S
H71 C65 0.930 . S
Mn72 O77 2.095 . S
Mn72 O87 2.162 . S
Mn72 O88 2.297 . S
Mn72 O96 2.385 . S
Mn72 O97 2.209 . S
Mn72 O98 2.094 . S
Mn73 O78 2.121 . S
Mn73 N80 2.257 . S
Mn73 N89 2.282 . S
Mn73 O97 2.215 . S
Mn73 O99 2.117 . S
C74 O96 1.234 . S
C74 O97 1.283 . S
C75 O87 1.281 . S
C75 O88 1.236 . S
C76 O98 1.240 . S
C76 O99 1.264 . S
O77 Mn72 2.095 . S
O77 C86 1.250 . S
O78 Mn73 2.121 . S
O78 C86 1.258 . S
C79 N80 1.326 . S
C79 C83 1.460 . S
C79 H85 0.929 . S
N80 Mn73 2.257 . S
N80 C79 1.326 . S
N80 C84 1.362 . S
C81 C82 1.258 . S
C81 C84 1.431 . S
C81 C101 1.449 . S
C82 C81 1.258 . S
C82 C83 1.477 . S
C82 H102 0.931 . S
C83 C79 1.460 . S
C83 C82 1.477 . S
C83 H103 0.930 . S
C84 N80 1.362 . S
C84 C81 1.431 . S
C84 C94 1.476 . S
H85 C79 0.929 . S
C86 O77 1.250 . S
C86 O78 1.258 . S
O87 Mn72 2.162 . S
O87 C75 1.281 . S
O88 Mn72 2.297 . S
O88 C75 1.236 . S
N89 Mn73 2.282 . S
N89 C90 1.328 . S
N89 C94 1.318 . S
C90 N89 1.328 . S
C90 C91 1.457 . S
C90 H95 0.929 . S
C91 C90 1.457 . S
C91 C92 1.291 . S
C91 H104 0.931 . S
C92 C91 1.291 . S
C92 C93 1.373 . S
C92 H105 0.929 . S
C93 C92 1.373 . S
C93 C94 1.396 . S
C93 C100 1.403 . S
C94 C84 1.476 . S
C94 N89 1.318 . S
C94 C93 1.396 . S
H95 C90 0.929 . S
O96 Mn72 2.385 . S
O96 C74 1.234 . S
O97 Mn72 2.209 . S
O97 Mn73 2.215 . S
O97 C74 1.283 . S
O98 Mn72 2.094 . S
O98 C76 1.240 . S
O99 Mn73 2.117 . S
O99 C76 1.264 . S
C100 C93 1.403 . S
C100 C101 1.399 . S
C100 H106 0.929 . S
C101 C81 1.449 . S
C101 C100 1.399 . S
C101 H107 0.930 . S
H102 C82 0.931 . S
H103 C83 0.930 . S
H104 C91 0.931 . S
H105 C92 0.929 . S
H106 C100 0.929 . S
H107 C101 0.930 . S
Mn108 O113 2.095 . S
Mn108 O123 2.162 1_655 S
Mn108 O124 2.297 . S
Mn108 O132 2.385 . S
Mn108 O133 2.209 . S
Mn108 O134 2.094 . S
Mn109 O114 2.121 . S
Mn109 N116 2.257 . S
Mn109 N125 2.282 . S
Mn109 O133 2.215 . S
Mn109 O135 2.117 . S
C110 O132 1.234 . S
C110 O133 1.283 . S
C111 O123 1.281 . S
C111 O124 1.236 1_455 S
C112 O134 1.240 . S
C112 O135 1.264 . S
O113 Mn108 2.095 . S
O113 C122 1.250 . S
O114 Mn109 2.121 . S
O114 C122 1.258 . S
C115 N116 1.326 . S
C115 C119 1.460 . S
C115 H121 0.929 . S
N116 Mn109 2.257 . S
N116 C115 1.326 . S
N116 C120 1.362 . S
C117 C118 1.258 . S
C117 C120 1.431 . S
C117 C137 1.449 . S
C118 C117 1.258 . S
C118 C119 1.477 . S
C118 H138 0.931 . S
C119 C115 1.460 . S
C119 C118 1.477 . S
C119 H139 0.930 . S
C120 N116 1.362 . S
C120 C117 1.431 . S
C120 C130 1.476 . S
H121 C115 0.929 . S
C122 O113 1.250 . S
C122 O114 1.258 . S
O123 Mn108 2.162 1_455 S
O123 C111 1.281 . S
O124 Mn108 2.297 . S
O124 C111 1.236 1_655 S
N125 Mn109 2.282 . S
N125 C126 1.328 . S
N125 C130 1.318 . S
C126 N125 1.328 . S
C126 C127 1.457 . S
C126 H131 0.929 . S
C127 C126 1.457 . S
C127 C128 1.291 . S
C127 H140 0.931 . S
C128 C127 1.291 . S
C128 C129 1.373 . S
C128 H141 0.929 . S
C129 C128 1.373 . S
C129 C130 1.396 . S
C129 C136 1.403 . S
C130 C120 1.476 . S
C130 N125 1.318 . S
C130 C129 1.396 . S
H131 C126 0.929 . S
O132 Mn108 2.385 . S
O132 C110 1.234 . S
O133 Mn108 2.209 . S
O133 Mn109 2.215 . S
O133 C110 1.283 . S
O134 Mn108 2.094 . S
O134 C112 1.240 . S
O135 Mn109 2.117 . S
O135 C112 1.264 . S
C136 C129 1.403 . S
C136 C137 1.399 . S
C136 H142 0.929 . S
C137 C117 1.449 . S
C137 C136 1.399 . S
C137 H143 0.930 . S
H138 C118 0.931 . S
H139 C119 0.930 . S
H140 C127 0.931 . S
H141 C128 0.929 . S
H142 C136 0.929 . S
H143 C137 0.930 . S
Mn144 O149 2.095 . S
Mn144 O159 2.162 1_565 S
Mn144 O160 2.297 . S
Mn144 O168 2.385 . S
Mn144 O169 2.209 . S
Mn144 O170 2.094 . S
Mn145 O150 2.121 . S
Mn145 N152 2.257 . S
Mn145 N161 2.282 . S
Mn145 O169 2.215 . S
Mn145 O171 2.117 . S
C146 O168 1.234 . S
C146 O169 1.283 . S
C147 O159 1.281 . S
C147 O160 1.236 1_545 S
C148 O170 1.240 . S
C148 O171 1.264 . S
O149 Mn144 2.095 . S
O149 C158 1.250 . S
O150 Mn145 2.121 . S
O150 C158 1.258 . S
C151 N152 1.326 . S
C151 C155 1.460 . S
C151 H157 0.929 . S
N152 Mn145 2.257 . S
N152 C151 1.326 . S
N152 C156 1.362 . S
C153 C154 1.258 . S
C153 C156 1.431 . S
C153 C173 1.449 . S
C154 C153 1.258 . S
C154 C155 1.477 . S
C154 H174 0.931 . S
C155 C151 1.460 . S
C155 C154 1.477 . S
C155 H175 0.930 . S
C156 N152 1.362 . S
C156 C153 1.431 . S
C156 C166 1.476 . S
H157 C151 0.929 . S
C158 O149 1.250 . S
C158 O150 1.258 . S
O159 Mn144 2.162 1_545 S
O159 C147 1.281 . S
O160 Mn144 2.297 . S
O160 C147 1.236 1_565 S
N161 Mn145 2.282 . S
N161 C162 1.328 . S
N161 C166 1.318 . S
C162 N161 1.328 . S
C162 C163 1.457 . S
C162 H167 0.929 . S
C163 C162 1.457 . S
C163 C164 1.291 . S
C163 H176 0.931 . S
C164 C163 1.291 . S
C164 C165 1.373 . S
C164 H177 0.929 . S
C165 C164 1.373 . S
C165 C166 1.396 . S
C165 C172 1.403 . S
C166 C156 1.476 . S
C166 N161 1.318 . S
C166 C165 1.396 . S
H167 C162 0.929 . S
O168 Mn144 2.385 . S
O168 C146 1.234 . S
O169 Mn144 2.209 . S
O169 Mn145 2.215 . S
O169 C146 1.283 . S
O170 Mn144 2.094 . S
O170 C148 1.240 . S
O171 Mn145 2.117 . S
O171 C148 1.264 . S
C172 C165 1.403 . S
C172 C173 1.399 . S
C172 H178 0.929 . S
C173 C153 1.449 . S
C173 C172 1.399 . S
C173 H179 0.930 . S
H174 C154 0.931 . S
H175 C155 0.930 . S
H176 C163 0.931 . S
H177 C164 0.929 . S
H178 C172 0.929 . S
H179 C173 0.930 . S
Mn180 O185 2.095 . S
Mn180 O195 2.162 . S
Mn180 O196 2.297 1_556 S
Mn180 O204 2.385 1_556 S
Mn180 O205 2.209 1_556 S
Mn180 O206 2.094 . S
Mn181 O186 2.121 . S
Mn181 N188 2.257 1_556 S
Mn181 N197 2.282 . S
Mn181 O205 2.215 1_556 S
Mn181 O207 2.117 . S
C182 O204 1.234 . S
C182 O205 1.283 . S
C183 O195 1.281 . S
C183 O196 1.236 1_556 S
C184 O206 1.240 . S
C184 O207 1.264 . S
O185 Mn180 2.095 . S
O185 C194 1.250 . S
O186 Mn181 2.121 . S
O186 C194 1.258 . S
C187 N188 1.326 . S
C187 C191 1.460 . S
C187 H193 0.929 1_554 S
N188 Mn181 2.257 1_554 S
N188 C187 1.326 . S
N188 C192 1.362 . S
C189 C190 1.258 . S
C189 C192 1.431 . S
C189 C209 1.449 . S
C190 C189 1.258 . S
C190 C191 1.477 . S
C190 H210 0.931 . S
C191 C187 1.460 . S
C191 C190 1.477 . S
C191 H211 0.930 . S
C192 N188 1.362 . S
C192 C189 1.431 . S
C192 C202 1.476 . S
H193 C187 0.929 1_556 S
C194 O185 1.250 . S
C194 O186 1.258 . S
O195 Mn180 2.162 . S
O195 C183 1.281 . S
O196 Mn180 2.297 1_554 S
O196 C183 1.236 1_554 S
N197 Mn181 2.282 . S
N197 C198 1.328 . S
N197 C202 1.318 1_556 S
C198 N197 1.328 . S
C198 C199 1.457 1_556 S
C198 H203 0.929 . S
C199 C198 1.457 1_554 S
C199 C200 1.291 . S
C199 H212 0.931 . S
C200 C199 1.291 . S
C200 C201 1.373 . S
C200 H213 0.929 . S
C201 C200 1.373 . S
C201 C202 1.396 . S
C201 C208 1.403 . S
C202 C192 1.476 . S
C202 N197 1.318 1_554 S
C202 C201 1.396 . S
H203 C198 0.929 . S
O204 Mn180 2.385 1_554 S
O204 C182 1.234 . S
O205 Mn180 2.209 1_554 S
O205 Mn181 2.215 1_554 S
O205 C182 1.283 . S
O206 Mn180 2.094 . S
O206 C184 1.240 . S
O207 Mn181 2.117 . S
O207 C184 1.264 . S
C208 C201 1.403 . S
C208 C209 1.399 . S
C208 H214 0.929 . S
C209 C189 1.449 . S
C209 C208 1.399 . S
C209 H215 0.930 . S
H210 C190 0.931 . S
H211 C191 0.930 . S
H212 C199 0.931 . S
H213 C200 0.929 . S
H214 C208 0.929 . S
H215 C209 0.930 . S
Mn216 O221 2.095 . S
Mn216 O231 2.162 1_565 S
Mn216 O232 2.297 . S
Mn216 O240 2.385 . S
Mn216 O241 2.209 . S
Mn216 O242 2.094 . S
Mn217 O222 2.121 . S
Mn217 N224 2.257 . S
Mn217 N233 2.282 . S
Mn217 O241 2.215 . S
Mn217 O243 2.117 . S
C218 O240 1.234 . S
C218 O241 1.283 . S
C219 O231 1.281 . S
C219 O232 1.236 1_545 S
C220 O242 1.240 . S
C220 O243 1.264 . S
O221 Mn216 2.095 . S
O221 C230 1.250 . S
O222 Mn217 2.121 . S
O222 C230 1.258 . S
C223 N224 1.326 . S
C223 C227 1.460 . S
C223 H229 0.929 . S
N224 Mn217 2.257 . S
N224 C223 1.326 . S
N224 C228 1.362 . S
C225 C226 1.258 . S
C225 C228 1.431 . S
C225 C245 1.449 . S
C226 C225 1.258 . S
C226 C227 1.477 . S
C226 H246 0.931 . S
C227 C223 1.460 . S
C227 C226 1.477 . S
C227 H247 0.930 . S
C228 N224 1.362 . S
C228 C225 1.431 . S
C228 C238 1.476 . S
H229 C223 0.929 . S
C230 O221 1.250 . S
C230 O222 1.258 . S
O231 Mn216 2.162 1_545 S
O231 C219 1.281 . S
O232 Mn216 2.297 . S
O232 C219 1.236 1_565 S
N233 Mn217 2.282 . S
N233 C234 1.328 . S
N233 C238 1.318 . S
C234 N233 1.328 . S
C234 C235 1.457 . S
C234 H239 0.929 . S
C235 C234 1.457 . S
C235 C236 1.291 . S
C235 H248 0.931 . S
C236 C235 1.291 . S
C236 C237 1.373 . S
C236 H249 0.929 . S
C237 C236 1.373 . S
C237 C238 1.396 . S
C237 C244 1.403 . S
C238 C228 1.476 . S
C238 N233 1.318 . S
C238 C237 1.396 . S
H239 C234 0.929 . S
O240 Mn216 2.385 . S
O240 C218 1.234 . S
O241 Mn216 2.209 . S
O241 Mn217 2.215 . S
O241 C218 1.283 . S
O242 Mn216 2.094 . S
O242 C220 1.240 . S
O243 Mn217 2.117 . S
O243 C220 1.264 . S
C244 C237 1.403 . S
C244 C245 1.399 . S
C244 H250 0.929 . S
C245 C225 1.449 . S
C245 C244 1.399 . S
C245 H251 0.930 . S
H246 C226 0.931 . S
H247 C227 0.930 . S
H248 C235 0.931 . S
H249 C236 0.929 . S
H250 C244 0.929 . S
H251 C245 0.930 . S
Mn252 O257 2.095 . S
Mn252 O267 2.162 . S
Mn252 O268 2.297 . S
Mn252 O276 2.385 . S
Mn252 O277 2.209 . S
Mn252 O278 2.094 . S
Mn253 O258 2.121 . S
Mn253 N260 2.257 . S
Mn253 N269 2.282 . S
Mn253 O277 2.215 . S
Mn253 O279 2.117 . S
C254 O276 1.234 . S
C254 O277 1.283 . S
C255 O267 1.281 . S
C255 O268 1.236 . S
C256 O278 1.240 . S
C256 O279 1.264 . S
O257 Mn252 2.095 . S
O257 C266 1.250 . S
O258 Mn253 2.121 . S
O258 C266 1.258 . S
C259 N260 1.326 . S
C259 C263 1.460 . S
C259 H265 0.929 . S
N260 Mn253 2.257 . S
N260 C259 1.326 . S
N260 C264 1.362 . S
C261 C262 1.258 . S
C261 C264 1.431 . S
C261 C281 1.449 . S
C262 C261 1.258 . S
C262 C263 1.477 . S
C262 H282 0.931 . S
C263 C259 1.460 . S
C263 C262 1.477 . S
C263 H283 0.930 . S
C264 N260 1.362 . S
C264 C261 1.431 . S
C264 C274 1.476 . S
H265 C259 0.929 . S
C266 O257 1.250 . S
C266 O258 1.258 . S
O267 Mn252 2.162 . S
O267 C255 1.281 . S
O268 Mn252 2.297 . S
O268 C255 1.236 . S
N269 Mn253 2.282 . S
N269 C270 1.328 . S
N269 C274 1.318 . S
C270 N269 1.328 . S
C270 C271 1.457 . S
C270 H275 0.929 . S
C271 C270 1.457 . S
C271 C272 1.291 . S
C271 H284 0.931 . S
C272 C271 1.291 . S
C272 C273 1.373 . S
C272 H285 0.929 . S
C273 C272 1.373 . S
C273 C274 1.396 . S
C273 C280 1.403 . S
C274 C264 1.476 . S
C274 N269 1.318 . S
C274 C273 1.396 . S
H275 C270 0.929 . S
O276 Mn252 2.385 . S
O276 C254 1.234 . S
O277 Mn252 2.209 . S
O277 Mn253 2.215 . S
O277 C254 1.283 . S
O278 Mn252 2.094 . S
O278 C256 1.240 . S
O279 Mn253 2.117 . S
O279 C256 1.264 . S
C280 C273 1.403 . S
C280 C281 1.399 . S
C280 H286 0.929 . S
C281 C261 1.449 . S
C281 C280 1.399 . S
C281 H287 0.930 . S
H282 C262 0.931 . S
H283 C263 0.930 . S
H284 C271 0.931 . S
H285 C272 0.929 . S
H286 C280 0.929 . S
H287 C281 0.930 . S
Mn288 O293 2.095 . S
Mn288 O303 2.162 1_455 S
Mn288 O304 2.297 1_554 S
Mn288 O312 2.385 1_554 S
Mn288 O313 2.209 1_554 S
Mn288 O314 2.094 . S
Mn289 O294 2.121 . S
Mn289 N296 2.257 1_554 S
Mn289 N305 2.282 . S
Mn289 O313 2.215 1_554 S
Mn289 O315 2.117 . S
C290 O312 1.234 . S
C290 O313 1.283 . S
C291 O303 1.281 . S
C291 O304 1.236 1_654 S
C292 O314 1.240 . S
C292 O315 1.264 . S
O293 Mn288 2.095 . S
O293 C302 1.250 . S
O294 Mn289 2.121 . S
O294 C302 1.258 . S
C295 N296 1.326 . S
C295 C299 1.460 . S
C295 H301 0.929 1_556 S
N296 Mn289 2.257 1_556 S
N296 C295 1.326 . S
N296 C300 1.362 . S
C297 C298 1.258 . S
C297 C300 1.431 . S
C297 C317 1.449 . S
C298 C297 1.258 . S
C298 C299 1.477 . S
C298 H318 0.931 . S
C299 C295 1.460 . S
C299 C298 1.477 . S
C299 H319 0.930 . S
C300 N296 1.362 . S
C300 C297 1.431 . S
C300 C310 1.476 . S
H301 C295 0.929 1_554 S
C302 O293 1.250 . S
C302 O294 1.258 . S
O303 Mn288 2.162 1_655 S
O303 C291 1.281 . S
O304 Mn288 2.297 1_556 S
O304 C291 1.236 1_456 S
N305 Mn289 2.282 . S
N305 C306 1.328 . S
N305 C310 1.318 1_554 S
C306 N305 1.328 . S
C306 C307 1.457 1_554 S
C306 H311 0.929 . S
C307 C306 1.457 1_556 S
C307 C308 1.291 . S
C307 H320 0.931 . S
C308 C307 1.291 . S
C308 C309 1.373 . S
C308 H321 0.929 . S
C309 C308 1.373 . S
C309 C310 1.396 . S
C309 C316 1.403 . S
C310 C300 1.476 . S
C310 N305 1.318 1_556 S
C310 C309 1.396 . S
H311 C306 0.929 . S
O312 Mn288 2.385 1_556 S
O312 C290 1.234 . S
O313 Mn288 2.209 1_556 S
O313 Mn289 2.215 1_556 S
O313 C290 1.283 . S
O314 Mn288 2.094 . S
O314 C292 1.240 . S
O315 Mn289 2.117 . S
O315 C292 1.264 . S
C316 C309 1.403 . S
C316 C317 1.399 . S
C316 H322 0.929 . S
C317 C297 1.449 . S
C317 C316 1.399 . S
C317 H323 0.930 . S
H318 C298 0.931 . S
H319 C299 0.930 . S
H320 C307 0.931 . S
H321 C308 0.929 . S
H322 C316 0.929 . S
H323 C317 0.930 . S
Mn324 O329 2.095 . S
Mn324 O339 2.162 1_545 S
Mn324 O340 2.297 . S
Mn324 O348 2.385 . S
Mn324 O349 2.209 . S
Mn324 O350 2.094 . S
Mn325 O330 2.121 . S
Mn325 N332 2.257 . S
Mn325 N341 2.282 . S
Mn325 O349 2.215 . S
Mn325 O351 2.117 . S
C326 O348 1.234 . S
C326 O349 1.283 . S
C327 O339 1.281 . S
C327 O340 1.236 1_565 S
C328 O350 1.240 . S
C328 O351 1.264 . S
O329 Mn324 2.095 . S
O329 C338 1.250 . S
O330 Mn325 2.121 . S
O330 C338 1.258 . S
C331 N332 1.326 . S
C331 C335 1.460 . S
C331 H337 0.929 . S
N332 Mn325 2.257 . S
N332 C331 1.326 . S
N332 C336 1.362 . S
C333 C334 1.258 . S
C333 C336 1.431 . S
C333 C353 1.449 . S
C334 C333 1.258 . S
C334 C335 1.477 . S
C334 H354 0.931 . S
C335 C331 1.460 . S
C335 C334 1.477 . S
C335 H355 0.930 . S
C336 N332 1.362 . S
C336 C333 1.431 . S
C336 C346 1.476 . S
H337 C331 0.929 . S
C338 O329 1.250 . S
C338 O330 1.258 . S
O339 Mn324 2.162 1_565 S
O339 C327 1.281 . S
O340 Mn324 2.297 . S
O340 C327 1.236 1_545 S
N341 Mn325 2.282 . S
N341 C342 1.328 . S
N341 C346 1.318 . S
C342 N341 1.328 . S
C342 C343 1.457 . S
C342 H347 0.929 . S
C343 C342 1.457 . S
C343 C344 1.291 . S
C343 H356 0.931 . S
C344 C343 1.291 . S
C344 C345 1.373 . S
C344 H357 0.929 . S
C345 C344 1.373 . S
C345 C346 1.396 . S
C345 C352 1.403 . S
C346 C336 1.476 . S
C346 N341 1.318 . S
C346 C345 1.396 . S
H347 C342 0.929 . S
O348 Mn324 2.385 . S
O348 C326 1.234 . S
O349 Mn324 2.209 . S
O349 Mn325 2.215 . S
O349 C326 1.283 . S
O350 Mn324 2.094 . S
O350 C328 1.240 . S
O351 Mn325 2.117 . S
O351 C328 1.264 . S
C352 C345 1.403 . S
C352 C353 1.399 . S
C352 H358 0.929 . S
C353 C333 1.449 . S
C353 C352 1.399 . S
C353 H359 0.930 . S
H354 C334 0.931 . S
H355 C335 0.930 . S
H356 C343 0.931 . S
H357 C344 0.929 . S
H358 C352 0.929 . S
H359 C353 0.930 . S
Mn360 O365 2.095 . S
Mn360 O375 2.162 . S
Mn360 O376 2.297 . S
Mn360 O384 2.385 . S
Mn360 O385 2.209 . S
Mn360 O386 2.094 . S
Mn361 O366 2.121 . S
Mn361 N368 2.257 . S
Mn361 N377 2.282 . S
Mn361 O385 2.215 . S
Mn361 O387 2.117 . S
C362 O384 1.234 . S
C362 O385 1.283 . S
C363 O375 1.281 . S
C363 O376 1.236 . S
C364 O386 1.240 . S
C364 O387 1.264 . S
O365 Mn360 2.095 . S
O365 C374 1.250 . S
O366 Mn361 2.121 . S
O366 C374 1.258 . S
C367 N368 1.326 . S
C367 C371 1.460 . S
C367 H373 0.929 . S
N368 Mn361 2.257 . S
N368 C367 1.326 . S
N368 C372 1.362 . S
C369 C370 1.258 . S
C369 C372 1.431 . S
C369 C389 1.449 . S
C370 C369 1.258 . S
C370 C371 1.477 . S
C370 H390 0.931 . S
C371 C367 1.460 . S
C371 C370 1.477 . S
C371 H391 0.930 . S
C372 N368 1.362 . S
C372 C369 1.431 . S
C372 C382 1.476 . S
H373 C367 0.929 . S
C374 O365 1.250 . S
C374 O366 1.258 . S
O375 Mn360 2.162 . S
O375 C363 1.281 . S
O376 Mn360 2.297 . S
O376 C363 1.236 . S
N377 Mn361 2.282 . S
N377 C378 1.328 . S
N377 C382 1.318 . S
C378 N377 1.328 . S
C378 C379 1.457 . S
C378 H383 0.929 . S
C379 C378 1.457 . S
C379 C380 1.291 . S
C379 H392 0.931 . S
C380 C379 1.291 . S
C380 C381 1.373 . S
C380 H393 0.929 . S
C381 C380 1.373 . S
C381 C382 1.396 . S
C381 C388 1.403 . S
C382 C372 1.476 . S
C382 N377 1.318 . S
C382 C381 1.396 . S
H383 C378 0.929 . S
O384 Mn360 2.385 . S
O384 C362 1.234 . S
O385 Mn360 2.209 . S
O385 Mn361 2.215 . S
O385 C362 1.283 . S
O386 Mn360 2.094 . S
O386 C364 1.240 . S
O387 Mn361 2.117 . S
O387 C364 1.264 . S
C388 C381 1.403 . S
C388 C389 1.399 . S
C388 H394 0.929 . S
C389 C369 1.449 . S
C389 C388 1.399 . S
C389 H395 0.930 . S
H390 C370 0.931 . S
H391 C371 0.930 . S
H392 C379 0.931 . S
H393 C380 0.929 . S
H394 C388 0.929 . S
H395 C389 0.930 . S
Mn396 O401 2.095 . S
Mn396 O411 2.162 1_655 S
Mn396 O412 2.297 . S
Mn396 O420 2.385 . S
Mn396 O421 2.209 . S
Mn396 O422 2.094 . S
Mn397 O402 2.121 . S
Mn397 N404 2.257 . S
Mn397 N413 2.282 . S
Mn397 O421 2.215 . S
Mn397 O423 2.117 . S
C398 O420 1.234 . S
C398 O421 1.283 . S
C399 O411 1.281 . S
C399 O412 1.236 1_455 S
C400 O422 1.240 . S
C400 O423 1.264 . S
O401 Mn396 2.095 . S
O401 C410 1.250 . S
O402 Mn397 2.121 . S
O402 C410 1.258 . S
C403 N404 1.326 . S
C403 C407 1.460 . S
C403 H409 0.929 . S
N404 Mn397 2.257 . S
N404 C403 1.326 . S
N404 C408 1.362 . S
C405 C406 1.258 . S
C405 C408 1.431 . S
C405 C425 1.449 . S
C406 C405 1.258 . S
C406 C407 1.477 . S
C406 H426 0.931 . S
C407 C403 1.460 . S
C407 C406 1.477 . S
C407 H427 0.930 . S
C408 N404 1.362 . S
C408 C405 1.431 . S
C408 C418 1.476 . S
H409 C403 0.929 . S
C410 O401 1.250 . S
C410 O402 1.258 . S
O411 Mn396 2.162 1_455 S
O411 C399 1.281 . S
O412 Mn396 2.297 . S
O412 C399 1.236 1_655 S
N413 Mn397 2.282 . S
N413 C414 1.328 . S
N413 C418 1.318 . S
C414 N413 1.328 . S
C414 C415 1.457 . S
C414 H419 0.929 . S
C415 C414 1.457 . S
C415 C416 1.291 . S
C415 H428 0.931 . S
C416 C415 1.291 . S
C416 C417 1.373 . S
C416 H429 0.929 . S
C417 C416 1.373 . S
C417 C418 1.396 . S
C417 C424 1.403 . S
C418 C408 1.476 . S
C418 N413 1.318 . S
C418 C417 1.396 . S
H419 C414 0.929 . S
O420 Mn396 2.385 . S
O420 C398 1.234 . S
O421 Mn396 2.209 . S
O421 Mn397 2.215 . S
O421 C398 1.283 . S
O422 Mn396 2.094 . S
O422 C400 1.240 . S
O423 Mn397 2.117 . S
O423 C400 1.264 . S
C424 C417 1.403 . S
C424 C425 1.399 . S
C424 H430 0.929 . S
C425 C405 1.449 . S
C425 C424 1.399 . S
C425 H431 0.930 . S
H426 C406 0.931 . S
H427 C407 0.930 . S
H428 C415 0.931 . S
H429 C416 0.929 . S
H430 C424 0.929 . S
H431 C425 0.930 . S
C432 C433 1.363 . S
C432 C438 1.379 . S
C432 N440 1.356 . S
C433 C432 1.363 . S
C433 C439 1.363 . S
C434 C435 1.363 . S
C434 C439 1.379 . S
C434 N441 1.356 . S
C435 C434 1.363 . S
C435 C438 1.363 . S
N436 C438 1.356 . S
N436 H448 0.984 . S
N436 H449 0.985 . S
N437 C439 1.356 . S
N437 H442 0.984 . S
N437 H443 0.985 . S
C438 C432 1.379 . S
C438 C435 1.363 . S
C438 N436 1.356 . S
C439 C433 1.363 . S
C439 C434 1.379 . S
C439 N437 1.356 . S
N440 C432 1.356 . S
N440 H446 0.984 . S
N440 H447 0.984 . S
N441 C434 1.356 . S
N441 H444 0.984 . S
N441 H445 0.985 . S
H442 N437 0.984 . S
H443 N437 0.985 . S
H444 N441 0.984 . S
H445 N441 0.985 . S
H446 N440 0.984 . S
H447 N440 0.984 . S
H448 N436 0.984 . S
H449 N436 0.985 . S
C450 C451 1.363 . S
C450 C456 1.379 . S
C450 N458 1.356 . S
C451 C450 1.363 . S
C451 C457 1.363 . S
C452 C453 1.363 . S
C452 C457 1.379 . S
C452 N459 1.356 . S
C453 C452 1.363 . S
C453 C456 1.363 . S
N454 C456 1.356 . S
N454 H466 0.984 1_545 S
N454 H467 0.985 . S
N455 C457 1.356 . S
N455 H460 0.984 . S
N455 H461 0.985 . S
C456 C450 1.379 . S
C456 C453 1.363 . S
C456 N454 1.356 . S
C457 C451 1.363 . S
C457 C452 1.379 . S
C457 N455 1.356 . S
N458 C450 1.356 . S
N458 H464 0.984 1_545 S
N458 H465 0.984 . S
N459 C452 1.356 . S
N459 H462 0.984 . S
N459 H463 0.985 . S
H460 N455 0.984 . S
H461 N455 0.985 . S
H462 N459 0.984 . S
H463 N459 0.985 . S
H464 N458 0.984 1_565 S
H465 N458 0.984 . S
H466 N454 0.984 1_565 S
H467 N454 0.985 . S
C468 C469 1.363 . S
C468 C474 1.379 . S
C468 N476 1.356 . S
C469 C468 1.363 . S
C469 C475 1.363 . S
C470 C471 1.363 . S
C470 C475 1.379 . S
C470 N477 1.356 . S
C471 C470 1.363 . S
C471 C474 1.363 . S
N472 C474 1.356 . S
N472 H484 0.984 . S
N472 H485 0.985 . S
N473 C475 1.356 . S
N473 H478 0.984 . S
N473 H479 0.985 . S
C474 C468 1.379 . S
C474 C471 1.363 . S
C474 N472 1.356 . S
C475 C469 1.363 . S
C475 C470 1.379 . S
C475 N473 1.356 . S
N476 C468 1.356 . S
N476 H482 0.984 . S
N476 H483 0.984 . S
N477 C470 1.356 . S
N477 H480 0.984 . S
N477 H481 0.985 . S
H478 N473 0.984 . S
H479 N473 0.985 . S
H480 N477 0.984 . S
H481 N477 0.985 . S
H482 N476 0.984 . S
H483 N476 0.984 . S
H484 N472 0.984 . S
H485 N472 0.985 . S
C486 C487 1.363 . S
C486 C492 1.379 . S
C486 N494 1.356 . S
C487 C486 1.363 . S
C487 C493 1.363 . S
C488 C489 1.363 . S
C488 C493 1.379 . S
C488 N495 1.356 . S
C489 C488 1.363 . S
C489 C492 1.363 . S
N490 C492 1.356 . S
N490 H502 0.984 . S
N490 H503 0.985 . S
N491 C493 1.356 . S
N491 H496 0.984 . S
N491 H497 0.985 1_655 S
C492 C486 1.379 . S
C492 C489 1.363 . S
C492 N490 1.356 . S
C493 C487 1.363 . S
C493 C488 1.379 . S
C493 N491 1.356 . S
N494 C486 1.356 . S
N494 H500 0.984 . S
N494 H501 0.984 . S
N495 C488 1.356 . S
N495 H498 0.984 . S
N495 H499 0.985 1_655 S
H496 N491 0.984 . S
H497 N491 0.985 1_455 S
H498 N495 0.984 . S
H499 N495 0.985 1_455 S
H500 N494 0.984 . S
H501 N494 0.984 . S
H502 N490 0.984 . S
H503 N490 0.985 . S
C504 C505 1.363 . S
C504 C510 1.379 . S
C504 N512 1.356 . S
C505 C504 1.363 . S
C505 C511 1.363 . S
C506 C507 1.363 . S
C506 C511 1.379 . S
C506 N513 1.356 . S
C507 C506 1.363 . S
C507 C510 1.363 . S
N508 C510 1.356 . S
N508 H520 0.984 1_565 S
N508 H521 0.985 . S
N509 C511 1.356 . S
N509 H514 0.984 . S
N509 H515 0.985 . S
C510 C504 1.379 . S
C510 C507 1.363 . S
C510 N508 1.356 . S
C511 C505 1.363 . S
C511 C506 1.379 . S
C511 N509 1.356 . S
N512 C504 1.356 . S
N512 H518 0.984 1_565 S
N512 H519 0.984 . S
N513 C506 1.356 . S
N513 H516 0.984 . S
N513 H517 0.985 . S
H514 N509 0.984 . S
H515 N509 0.985 . S
H516 N513 0.984 . S
H517 N513 0.985 . S
H518 N512 0.984 1_545 S
H519 N512 0.984 . S
H520 N508 0.984 1_545 S
H521 N508 0.985 . S
C522 C523 1.363 . S
C522 C528 1.379 . S
C522 N530 1.356 . S
C523 C522 1.363 . S
C523 C529 1.363 . S
C524 C525 1.363 . S
C524 C529 1.379 . S
C524 N531 1.356 . S
C525 C524 1.363 . S
C525 C528 1.363 . S
N526 C528 1.356 . S
N526 H538 0.984 . S
N526 H539 0.985 . S
N527 C529 1.356 . S
N527 H532 0.984 . S
N527 H533 0.985 . S
C528 C522 1.379 . S
C528 C525 1.363 . S
C528 N526 1.356 . S
C529 C523 1.363 . S
C529 C524 1.379 . S
C529 N527 1.356 . S
N530 C522 1.356 . S
N530 H536 0.984 . S
N530 H537 0.984 . S
N531 C524 1.356 . S
N531 H534 0.984 . S
N531 H535 0.985 . S
H532 N527 0.984 . S
H533 N527 0.985 . S
H534 N531 0.984 . S
H535 N531 0.985 . S
H536 N530 0.984 . S
H537 N530 0.984 . S
H538 N526 0.984 . S
H539 N526 0.985 . S
C540 C541 1.363 . S
C540 C546 1.379 . S
C540 N548 1.356 . S
C541 C540 1.363 . S
C541 C547 1.363 . S
C542 C543 1.363 . S
C542 C547 1.379 . S
C542 N549 1.356 . S
C543 C542 1.363 . S
C543 C546 1.363 . S
N544 C546 1.356 1_556 S
N544 H556 0.984 . S
N544 H557 0.985 . S
N545 C547 1.356 . S
N545 H550 0.984 . S
N545 H551 0.985 . S
C546 C540 1.379 . S
C546 C543 1.363 . S
C546 N544 1.356 1_554 S
C547 C541 1.363 . S
C547 C542 1.379 . S
C547 N545 1.356 . S
N548 C540 1.356 . S
N548 H554 0.984 . S
N548 H555 0.984 . S
N549 C542 1.356 . S
N549 H552 0.984 . S
N549 H553 0.985 . S
H550 N545 0.984 . S
H551 N545 0.985 . S
H552 N549 0.984 . S
H553 N549 0.985 . S
H554 N548 0.984 . S
H555 N548 0.984 . S
H556 N544 0.984 . S
H557 N544 0.985 . S
C558 C559 1.363 . S
C558 C564 1.379 . S
C558 N566 1.356 . S
C559 C558 1.363 . S
C559 C565 1.363 . S
C560 C561 1.363 . S
C560 C565 1.379 . S
C560 N567 1.356 . S
C561 C560 1.363 . S
C561 C564 1.363 . S
N562 C564 1.356 . S
N562 H574 0.984 1_655 S
N562 H575 0.985 1_655 S
N563 C565 1.356 . S
N563 H568 0.984 . S
N563 H569 0.985 . S
C564 C558 1.379 . S
C564 C561 1.363 . S
C564 N562 1.356 . S
C565 C559 1.363 . S
C565 C560 1.379 . S
C565 N563 1.356 . S
N566 C558 1.356 . S
N566 H572 0.984 . S
N566 H573 0.984 . S
N567 C560 1.356 . S
N567 H570 0.984 . S
N567 H571 0.985 . S
H568 N563 0.984 . S
H569 N563 0.985 . S
H570 N567 0.984 . S
H571 N567 0.985 . S
H572 N566 0.984 . S
H573 N566 0.984 . S
H574 N562 0.984 1_455 S
H575 N562 0.985 1_455 S
C576 C577 1.363 . S
C576 C582 1.379 . S
C576 N584 1.356 . S
C577 C576 1.363 . S
C577 C583 1.363 . S
C578 C579 1.363 . S
C578 C583 1.379 . S
C578 N585 1.356 . S
C579 C578 1.363 . S
C579 C582 1.363 . S
N580 C582 1.356 . S
N580 H592 0.984 . S
N580 H593 0.985 . S
N581 C583 1.356 . S
N581 H586 0.984 . S
N581 H587 0.985 . S
C582 C576 1.379 . S
C582 C579 1.363 . S
C582 N580 1.356 . S
C583 C577 1.363 . S
C583 C578 1.379 . S
C583 N581 1.356 . S
N584 C576 1.356 . S
N584 H590 0.984 . S
N584 H591 0.984 . S
N585 C578 1.356 . S
N585 H588 0.984 . S
N585 H589 0.985 . S
H586 N581 0.984 . S
H587 N581 0.985 . S
H588 N585 0.984 . S
H589 N585 0.985 . S
H590 N584 0.984 . S
H591 N584 0.984 . S
H592 N580 0.984 . S
H593 N580 0.985 . S
C594 C595 1.363 . S
C594 C600 1.379 . S
C594 N602 1.356 . S
C595 C594 1.363 . S
C595 C601 1.363 . S
C596 C597 1.363 . S
C596 C601 1.379 . S
C596 N603 1.356 . S
C597 C596 1.363 . S
C597 C600 1.363 . S
N598 C600 1.356 . S
N598 H610 0.984 . S
N598 H611 0.985 . S
N599 C601 1.356 . S
N599 H604 0.984 . S
N599 H605 0.985 . S
C600 C594 1.379 . S
C600 C597 1.363 . S
C600 N598 1.356 . S
C601 C595 1.363 . S
C601 C596 1.379 . S
C601 N599 1.356 . S
N602 C594 1.356 . S
N602 H608 0.984 . S
N602 H609 0.984 . S
N603 C596 1.356 . S
N603 H606 0.984 . S
N603 H607 0.985 . S
H604 N599 0.984 . S
H605 N599 0.985 . S
H606 N603 0.984 . S
H607 N603 0.985 . S
H608 N602 0.984 . S
H609 N602 0.984 . S
H610 N598 0.984 . S
H611 N598 0.985 . S
C612 C613 1.363 . S
C612 C618 1.379 . S
C612 N620 1.356 . S
C613 C612 1.363 . S
C613 C619 1.363 . S
C614 C615 1.363 . S
C614 C619 1.379 . S
C614 N621 1.356 . S
C615 C614 1.363 . S
C615 C618 1.363 . S
N616 C618 1.356 . S
N616 H628 0.984 . S
N616 H629 0.985 . S
N617 C619 1.356 . S
N617 H622 0.984 1_455 S
N617 H623 0.985 1_455 S
C618 C612 1.379 . S
C618 C615 1.363 . S
C618 N616 1.356 . S
C619 C613 1.363 . S
C619 C614 1.379 . S
C619 N617 1.356 . S
N620 C612 1.356 . S
N620 H626 0.984 . S
N620 H627 0.984 . S
N621 C614 1.356 . S
N621 H624 0.984 . S
N621 H625 0.985 . S
H622 N617 0.984 1_655 S
H623 N617 0.985 1_655 S
H624 N621 0.984 . S
H625 N621 0.985 . S
H626 N620 0.984 . S
H627 N620 0.984 . S
H628 N616 0.984 . S
H629 N616 0.985 . S
C630 C631 1.363 . S
C630 C636 1.379 . S
C630 N638 1.356 . S
C631 C630 1.363 . S
C631 C637 1.363 . S
C632 C633 1.363 . S
C632 C637 1.379 . S
C632 N639 1.356 . S
C633 C632 1.363 . S
C633 C636 1.363 . S
N634 C636 1.356 . S
N634 H646 0.984 . S
N634 H647 0.985 . S
N635 C637 1.356 . S
N635 H640 0.984 . S
N635 H641 0.985 . S
C636 C630 1.379 . S
C636 C633 1.363 . S
C636 N634 1.356 . S
C637 C631 1.363 . S
C637 C632 1.379 . S
C637 N635 1.356 . S
N638 C630 1.356 . S
N638 H644 0.990 . S
N638 H645 0.984 1_545 S
N639 C632 1.356 . S
N639 H642 0.984 . S
N639 H643 0.985 . S
H640 N635 0.984 . S
H641 N635 0.985 . S
H642 N639 0.984 . S
H643 N639 0.985 . S
H644 N638 0.990 . S
H645 N638 0.984 1_565 S
H646 N634 0.984 . S
H647 N634 0.985 . S
C648 C649 1.363 . S
C648 C654 1.379 . S
C648 N656 1.356 . S
C649 C648 1.363 . S
C649 C655 1.363 . S
C650 C651 1.363 . S
C650 C655 1.379 . S
C650 N657 1.356 . S
C651 C650 1.363 . S
C651 C654 1.363 . S
N652 C654 1.356 . S
N652 H664 0.984 . S
N652 H665 0.985 . S
N653 C655 1.356 . S
N653 H658 0.984 . S
N653 H659 0.985 . S
C654 C648 1.379 . S
C654 C651 1.363 . S
C654 N652 1.356 . S
C655 C649 1.363 . S
C655 C650 1.379 . S
C655 N653 1.356 . S
N656 C648 1.356 . S
N656 H662 0.984 . S
N656 H663 0.984 . S
N657 C650 1.356 . S
N657 H660 0.984 . S
N657 H661 0.985 . S
H658 N653 0.984 . S
H659 N653 0.985 . S
H660 N657 0.984 . S
H661 N657 0.985 . S
H662 N656 0.984 . S
H663 N656 0.984 . S
H664 N652 0.984 . S
H665 N652 0.985 . S
C666 C667 1.363 . S
C666 C672 1.379 . S
C666 N674 1.356 . S
C667 C666 1.363 . S
C667 C673 1.363 . S
C668 C669 1.363 . S
C668 C673 1.379 . S
C668 N675 1.356 . S
C669 C668 1.363 . S
C669 C672 1.363 . S
N670 C672 1.356 1_554 S
N670 H682 0.984 . S
N670 H683 0.985 . S
N671 C673 1.356 . S
N671 H676 0.984 . S
N671 H677 0.985 . S
C672 C666 1.379 . S
C672 C669 1.363 . S
C672 N670 1.356 1_556 S
C673 C667 1.363 . S
C673 C668 1.379 . S
C673 N671 1.356 . S
N674 C666 1.356 . S
N674 H680 0.984 . S
N674 H681 0.984 . S
N675 C668 1.356 . S
N675 H678 0.984 1_655 S
N675 H679 0.985 1_655 S
H676 N671 0.984 . S
H677 N671 0.985 . S
H678 N675 0.984 1_455 S
H679 N675 0.985 1_455 S
H680 N674 0.984 . S
H681 N674 0.984 . S
H682 N670 0.984 . S
H683 N670 0.985 . S
C684 C685 1.363 . S
C684 C690 1.379 . S
C684 N692 1.356 . S
C685 C684 1.363 . S
C685 C691 1.363 . S
C686 C687 1.363 . S
C686 C691 1.379 . S
C686 N693 1.356 . S
C687 C686 1.363 . S
C687 C690 1.363 . S
N688 C690 1.356 . S
N688 H700 0.984 . S
N688 H701 0.985 . S
N689 C691 1.356 . S
N689 H694 0.984 1_565 S
N689 H695 0.985 1_565 S
C690 C684 1.379 . S
C690 C687 1.363 . S
C690 N688 1.356 . S
C691 C685 1.363 . S
C691 C686 1.379 . S
C691 N689 1.356 . S
N692 C684 1.356 . S
N692 H698 0.984 . S
N692 H699 0.984 . S
N693 C686 1.356 . S
N693 H696 0.984 . S
N693 H697 0.985 . S
H694 N689 0.984 1_545 S
H695 N689 0.985 1_545 S
H696 N693 0.984 . S
H697 N693 0.985 . S
H698 N692 0.984 . S
H699 N692 0.984 . S
H700 N688 0.984 . S
H701 N688 0.985 . S
C702 C703 1.363 . S
C702 C708 1.379 . S
C702 N710 1.356 . S
C703 C702 1.363 . S
C703 C709 1.363 . S
C704 C705 1.363 . S
C704 C709 1.379 . S
C704 N711 1.356 . S
C705 C704 1.363 . S
C705 C708 1.363 . S
N706 C708 1.356 . S
N706 H718 0.984 . S
N706 H719 0.985 . S
N707 C709 1.356 . S
N707 H712 0.984 . S
N707 H713 0.985 . S
C708 C702 1.379 . S
C708 C705 1.363 . S
C708 N706 1.356 . S
C709 C703 1.363 . S
C709 C704 1.379 . S
C709 N707 1.356 . S
N710 C702 1.356 . S
N710 H716 0.984 . S
N710 H717 0.984 . S
N711 C704 1.356 . S
N711 H714 0.984 . S
N711 H715 0.985 . S
H712 N707 0.984 . S
H713 N707 0.985 . S
H714 N711 0.984 . S
H715 N711 0.985 . S
H716 N710 0.984 . S
H717 N710 0.984 . S
H718 N706 0.984 . S
H719 N706 0.985 . S
C720 C721 1.363 . S
C720 C726 1.379 . S
C720 N728 1.356 . S
C721 C720 1.363 . S
C721 C727 1.363 . S
C722 C723 1.363 . S
C722 C727 1.379 . S
C722 N729 1.356 . S
C723 C722 1.363 . S
C723 C726 1.363 . S
N724 C726 1.356 . S
N724 H736 0.984 . S
N724 H737 0.985 . S
N725 C727 1.356 . S
N725 H730 0.984 . S
N725 H731 0.985 . S
C726 C720 1.379 . S
C726 C723 1.363 . S
C726 N724 1.356 . S
C727 C721 1.363 . S
C727 C722 1.379 . S
C727 N725 1.356 . S
N728 C720 1.356 . S
N728 H734 0.984 . S
N728 H735 0.984 . S
N729 C722 1.356 . S
N729 H732 0.984 . S
N729 H733 0.985 . S
H730 N725 0.984 . S
H731 N725 0.985 . S
H732 N729 0.984 . S
H733 N729 0.985 . S
H734 N728 0.984 . S
H735 N728 0.984 . S
H736 N724 0.984 . S
H737 N724 0.985 . S
C738 C739 1.363 . S
C738 C744 1.379 . S
C738 N746 1.356 . S
C739 C738 1.363 . S
C739 C745 1.363 . S
C740 C741 1.363 . S
C740 C745 1.379 . S
C740 N747 1.356 . S
C741 C740 1.363 . S
C741 C744 1.363 . S
N742 C744 1.356 . S
N742 H754 0.966 1_545 S
N742 H755 0.985 1_545 S
N743 C745 1.356 . S
N743 H748 0.984 . S
N743 H749 0.985 . S
C744 C738 1.379 . S
C744 C741 1.363 . S
C744 N742 1.356 . S
C745 C739 1.363 . S
C745 C740 1.379 . S
C745 N743 1.356 . S
N746 C738 1.356 . S
N746 H752 0.984 . S
N746 H753 0.984 . S
N747 C740 1.356 . S
N747 H750 0.984 . S
N747 H751 0.985 . S
H748 N743 0.984 . S
H749 N743 0.985 . S
H750 N747 0.984 . S
H751 N747 0.985 . S
H752 N746 0.984 . S
H753 N746 0.984 . S
H754 N742 0.966 1_565 S
H755 N742 0.985 1_565 S
C756 C757 1.363 . S
C756 C762 1.379 . S
C756 N764 1.356 . S
C757 C756 1.363 . S
C757 C763 1.363 . S
C758 C759 1.363 . S
C758 C763 1.379 . S
C758 N765 1.356 . S
C759 C758 1.363 . S
C759 C762 1.363 . S
N760 C762 1.356 . S
N760 H772 0.984 . S
N760 H773 0.985 . S
N761 C763 1.356 . S
N761 H766 0.984 . S
N761 H767 0.985 . S
C762 C756 1.379 . S
C762 C759 1.363 . S
C762 N760 1.356 . S
C763 C757 1.363 . S
C763 C758 1.379 . S
C763 N761 1.356 . S
N764 C756 1.356 . S
N764 H770 0.984 . S
N764 H771 0.984 . S
N765 C758 1.356 . S
N765 H768 0.984 . S
N765 H769 0.985 . S
H766 N761 0.984 . S
H767 N761 0.985 . S
H768 N765 0.984 . S
H769 N765 0.985 . S
H770 N764 0.984 . S
H771 N764 0.984 . S
H772 N760 0.984 . S
H773 N760 0.985 . S
C774 C775 1.363 . S
C774 C780 1.379 . S
C774 N782 1.356 . S
C775 C774 1.363 . S
C775 C781 1.363 . S
C776 C777 1.363 . S
C776 C781 1.379 . S
C776 N783 1.356 . S
C777 C776 1.363 . S
C777 C780 1.363 . S
N778 C780 1.356 . S
N778 H790 0.984 . S
N778 H791 0.985 . S
N779 C781 1.356 . S
N779 H784 0.984 . S
N779 H785 0.985 . S
C780 C774 1.379 . S
C780 C777 1.363 . S
C780 N778 1.356 . S
C781 C775 1.363 . S
C781 C776 1.379 . S
C781 N779 1.356 . S
N782 C774 1.356 . S
N782 H788 0.984 . S
N782 H789 0.984 . S
N783 C776 1.356 . S
N783 H786 0.984 . S
N783 H787 0.985 . S
H784 N779 0.984 . S
H785 N779 0.985 . S
H786 N783 0.984 . S
H787 N783 0.985 . S
H788 N782 0.984 . S
H789 N782 0.984 . S
H790 N778 0.984 . S
H791 N778 0.985 . S
C792 C793 1.363 . S
C792 C798 1.379 . S
C792 N800 1.356 . S
C793 C792 1.363 . S
C793 C799 1.363 . S
C794 C795 1.363 . S
C794 C799 1.379 . S
C794 N801 1.356 . S
C795 C794 1.363 . S
C795 C798 1.363 . S
N796 C798 1.356 . S
N796 H808 0.984 . S
N796 H809 0.985 . S
N797 C799 1.356 . S
N797 H802 0.984 . S
N797 H803 0.985 . S
C798 C792 1.379 . S
C798 C795 1.363 . S
C798 N796 1.356 . S
C799 C793 1.363 . S
C799 C794 1.379 . S
C799 N797 1.356 . S
N800 C792 1.356 . S
N800 H806 0.984 . S
N800 H807 0.984 . S
N801 C794 1.356 . S
N801 H804 0.984 . S
N801 H805 0.985 . S
H802 N797 0.984 . S
H803 N797 0.985 . S
H804 N801 0.984 . S
H805 N801 0.985 . S
H806 N800 0.984 . S
H807 N800 0.984 . S
H808 N796 0.984 . S
H809 N796 0.985 . S
C810 C811 1.363 . S
C810 C816 1.379 . S
C810 N818 1.356 . S
C811 C810 1.363 . S
C811 C817 1.363 . S
C812 C813 1.363 . S
C812 C817 1.379 . S
C812 N819 1.356 . S
C813 C812 1.363 . S
C813 C816 1.363 . S
N814 C816 1.356 . S
N814 H826 0.984 . S
N814 H827 0.985 . S
N815 C817 1.356 . S
N815 H820 0.984 . S
N815 H821 0.985 . S
C816 C810 1.379 . S
C816 C813 1.363 . S
C816 N814 1.356 . S
C817 C811 1.363 . S
C817 C812 1.379 . S
C817 N815 1.356 . S
N818 C810 1.356 . S
N818 H824 0.984 . S
N818 H825 0.984 . S
N819 C812 1.356 . S
N819 H822 0.984 . S
N819 H823 0.985 . S
H820 N815 0.984 . S
H821 N815 0.985 . S
H822 N819 0.984 . S
H823 N819 0.985 . S
H824 N818 0.984 . S
H825 N818 0.984 . S
H826 N814 0.984 . S
H827 N814 0.985 . S
C828 C829 1.363 . S
C828 C834 1.379 . S
C828 N836 1.356 . S
C829 C828 1.363 . S
C829 C835 1.363 . S
C830 C831 1.363 . S
C830 C835 1.379 . S
C830 N837 1.356 . S
C831 C830 1.363 . S
C831 C834 1.363 . S
N832 C834 1.356 . S
N832 H844 0.984 . S
N832 H845 0.985 . S
N833 C835 1.356 . S
N833 H838 0.984 . S
N833 H839 0.985 . S
C834 C828 1.379 . S
C834 C831 1.363 . S
C834 N832 1.356 . S
C835 C829 1.363 . S
C835 C830 1.379 . S
C835 N833 1.356 . S
N836 C828 1.356 . S
N836 H842 0.984 . S
N836 H843 0.984 . S
N837 C830 1.356 . S
N837 H840 0.984 . S
N837 H841 0.985 . S
H838 N833 0.984 . S
H839 N833 0.985 . S
H840 N837 0.984 . S
H841 N837 0.985 . S
H842 N836 0.984 . S
H843 N836 0.984 . S
H844 N832 0.984 . S
H845 N832 0.985 . S
C846 C847 1.363 . S
C846 C852 1.379 . S
C846 N854 1.356 . S
C847 C846 1.363 . S
C847 C853 1.363 . S
C848 C849 1.363 . S
C848 C853 1.379 . S
C848 N855 1.356 . S
C849 C848 1.363 . S
C849 C852 1.363 . S
N850 C852 1.356 . S
N850 H862 0.984 . S
N850 H863 0.985 . S
N851 C853 1.356 . S
N851 H856 0.984 . S
N851 H857 0.985 . S
C852 C846 1.379 . S
C852 C849 1.363 . S
C852 N850 1.356 . S
C853 C847 1.363 . S
C853 C848 1.379 . S
C853 N851 1.356 . S
N854 C846 1.356 . S
N854 H860 0.984 . S
N854 H861 0.984 . S
N855 C848 1.356 . S
N855 H858 0.981 1_554 S
N855 H859 0.985 . S
H856 N851 0.984 . S
H857 N851 0.985 . S
H858 N855 0.981 1_556 S
H859 N855 0.985 . S
H860 N854 0.984 . S
H861 N854 0.984 . S
H862 N850 0.984 . S
H863 N850 0.985 . S
C433 C302 1.287 . S
C435 C14 1.287 . S
C451 C50 1.287 . S
C453 C338 1.287 . S
C469 C86 1.287 . S
C471 C374 1.287 . S
C487 C122 1.287 . S
C489 C410 1.287 . S
C505 C230 1.287 . S
C507 C158 1.287 . S
C523 C194 1.287 . S
C525 C266 1.287 . S
C541 C4 1.529 . S
C543 C183 1.544 1_554 S
C559 C40 1.529 . S
C561 C3 1.544 . S
C577 C76 1.529 . S
C579 C39 1.544 . S
C595 C75 1.544 . S
C597 C112 1.529 . S
C613 C111 1.544 . S
C615 C148 1.529 . S
C631 C147 1.544 . S
C633 C184 1.529 . S
C649 C255 1.544 . S
C651 C220 1.529 . S
C667 C256 1.529 . S
C669 C291 1.544 1_556 S
C685 C327 1.544 . S
C687 C292 1.529 . S
C703 C328 1.529 . S
C705 C363 1.544 . S
C721 C364 1.529 . S
C723 C399 1.544 . S
C739 C400 1.529 . S
C741 C219 1.544 . S
C757 C362 1.311 . S
C759 C2 1.311 . S
C775 C398 1.311 . S
C777 C38 1.311 . S
C793 C218 1.311 . S
C795 C74 1.311 . S
C811 C110 1.311 . S
C813 C254 1.311 . S
C829 C146 1.311 . S
C831 C290 1.311 . S
C847 C326 1.311 . S
C849 C182 1.311 . S
