# Generated by pormake.
# Topology ukh, (4)-cn, num edge types: 1
# Building blocks:
#     Node 0, Type 0, BuildingBlock: TATPOV_clean_sbu_0, # of connection points: 4
#     Node 1, Type 0, BuildingBlock: TATPOV_clean_sbu_0, # of connection points: 4
#     Node 2, Type 0, BuildingBlock: TATPOV_clean_sbu_0, # of connection points: 4
#     Node 3, Type 0, BuildingBlock: TATPOV_clean_sbu_0, # of connection points: 4
#     Node 4, Type 0, BuildingBlock: TATPOV_clean_sbu_0, # of connection points: 4
#     Node 5, Type 0, BuildingBlock: TATPOV_clean_sbu_0, # of connection points: 4
#     Node 6, Type 0, BuildingBlock: TATPOV_clean_sbu_0, # of connection points: 4
#     Node 7, Type 0, BuildingBlock: TATPOV_clean_sbu_0, # of connection points: 4
#     Node 8, Type 0, BuildingBlock: TATPOV_clean_sbu_0, # of connection points: 4
#     Node 9, Type 0, BuildingBlock: TATPOV_clean_sbu_0, # of connection points: 4
#     Node 10, Type 0, BuildingBlock: TATPOV_clean_sbu_0, # of connection points: 4
#     Node 11, Type 0, BuildingBlock: TATPOV_clean_sbu_0, # of connection points: 4
#     Edge 12, Type (0, 0), BuildingBlock: CIFDUS_clean_linker_0, # of connection points: 2
#     Edge 13, Type (0, 0), BuildingBlock: CIFDUS_clean_linker_0, # of connection points: 2
#     Edge 14, Type (0, 0), BuildingBlock: CIFDUS_clean_linker_0, # of connection points: 2
#     Edge 15, Type (0, 0), BuildingBlock: CIFDUS_clean_linker_0, # of connection points: 2
#     Edge 16, Type (0, 0), BuildingBlock: CIFDUS_clean_linker_0, # of connection points: 2
#     Edge 17, Type (0, 0), BuildingBlock: CIFDUS_clean_linker_0, # of connection points: 2
#     Edge 18, Type (0, 0), BuildingBlock: CIFDUS_clean_linker_0, # of connection points: 2
#     Edge 19, Type (0, 0), BuildingBlock: CIFDUS_clean_linker_0, # of connection points: 2
#     Edge 20, Type (0, 0), BuildingBlock: CIFDUS_clean_linker_0, # of connection points: 2
#     Edge 21, Type (0, 0), BuildingBlock: CIFDUS_clean_linker_0, # of connection points: 2
#     Edge 22, Type (0, 0), BuildingBlock: CIFDUS_clean_linker_0, # of connection points: 2
#     Edge 23, Type (0, 0), BuildingBlock: CIFDUS_clean_linker_0, # of connection points: 2
#     Edge 24, Type (0, 0), BuildingBlock: CIFDUS_clean_linker_0, # of connection points: 2
#     Edge 25, Type (0, 0), BuildingBlock: CIFDUS_clean_linker_0, # of connection points: 2
#     Edge 26, Type (0, 0), BuildingBlock: CIFDUS_clean_linker_0, # of connection points: 2
#     Edge 27, Type (0, 0), BuildingBlock: CIFDUS_clean_linker_0, # of connection points: 2
#     Edge 28, Type (0, 0), BuildingBlock: CIFDUS_clean_linker_0, # of connection points: 2
#     Edge 29, Type (0, 0), BuildingBlock: CIFDUS_clean_linker_0, # of connection points: 2
#     Edge 30, Type (0, 0), BuildingBlock: CIFDUS_clean_linker_0, # of connection points: 2
#     Edge 31, Type (0, 0), BuildingBlock: CIFDUS_clean_linker_0, # of connection points: 2
#     Edge 32, Type (0, 0), BuildingBlock: CIFDUS_clean_linker_0, # of connection points: 2
#     Edge 33, Type (0, 0), BuildingBlock: CIFDUS_clean_linker_0, # of connection points: 2
#     Edge 34, Type (0, 0), BuildingBlock: CIFDUS_clean_linker_0, # of connection points: 2
#     Edge 35, Type (0, 0), BuildingBlock: CIFDUS_clean_linker_0, # of connection points: 2
# Relax obj value: 0.151
# Max RMSD: 0.200
# Mean RMSD: 0.200
data_MOF--net-ukh--node1-TATPOV_clean_sbu_0--edge1-CIFDUS_clean_linker_0
_symmetry_space_group_name_H-M    P1
_symmetry_Int_Tables_number       1
_symmetry_cell_setting            triclinic
loop_
_symmetry_equiv_pos_as_xyz
'x, y, z'
_cell_length_a     27.212359
_cell_length_b     27.295487
_cell_length_c     55.935303
_cell_angle_alpha  90.193424
_cell_angle_beta   89.986929
_cell_angle_gamma 120.12852
loop_
_atom_site_label
_atom_site_type_symbol
_atom_site_fract_x
_atom_site_fract_y
_atom_site_fract_z
_atom_type_partial_charge
Zn0 Zn 0.32967 0.2073 0.03105 0.0
Zn1 Zn 0.32136 0.20736 0.07692 0.0
O2 O 0.34552 0.14833 0.06833 0.0
O3 O 0.36645 0.16044 0.03014 0.0
O4 O 0.3248 0.21052 0.11314 0.0
O5 O 0.37545 0.29051 0.02891 0.0
O6 O 0.37388 0.29172 0.0682 0.0
C7 C 0.36342 0.13556 0.04954 0.0
C8 C 0.21513 0.16699 0.04652 0.0
O9 O 0.23835 0.18058 0.06716 0.0
O10 O 0.24483 0.17135 0.02835 0.0
C11 C 0.29639 0.16923 0.12722 0.0
O12 O 0.25954 0.11956 0.11825 0.0
C13 C 0.38925 0.31792 0.04834 0.0
Zn14 Zn 0.10553 0.3635 0.33238 0.0
Zn15 Zn 0.10757 0.35409 0.3798 0.0
O16 O 0.18744 0.37471 0.36754 0.0
O17 O 0.18758 0.38891 0.32885 0.0
O18 O 0.11536 0.35456 0.41591 0.0
O19 O 0.08056 0.42025 0.33558 0.0
O20 O 0.08085 0.41195 0.3747 0.0
C21 C 0.21329 0.3878 0.34748 0.0
C22 C 0.02824 0.25051 0.34992 0.0
O23 O 0.04632 0.27297 0.37045 0.0
O24 O 0.04755 0.28009 0.33119 0.0
C25 C 0.11927 0.31745 0.42816 0.0
O26 O 0.11735 0.27388 0.41719 0.0
C27 C 0.07223 0.43374 0.3562 0.0
Zn28 Zn 0.74382 0.11082 0.68748 0.0
Zn29 Zn 0.76972 0.09995 0.7323 0.0
O30 O 0.83401 0.17837 0.72026 0.0
O31 O 0.81036 0.18772 0.68367 0.0
O32 O 0.78689 0.09891 0.76779 0.0
O33 O 0.66964 0.10196 0.69722 0.0
O34 O 0.68766 0.08585 0.73381 0.0
C35 C 0.84458 0.20719 0.70106 0.0
C36 C 0.76407 0.01679 0.69428 0.0
O37 O 0.77279 0.03319 0.71608 0.0
O38 O 0.75106 0.04271 0.67906 0.0
C39 C 0.83521 0.12984 0.77755 0.0
O40 O 0.87899 0.16253 0.76402 0.0
C41 C 0.65452 0.08941 0.71874 0.0
Zn42 Zn 0.61422 0.74444 0.99231 0.0
Zn43 Zn 0.6142 0.76289 0.0396 0.0
O44 O 0.59732 0.82047 0.02293 0.0
O45 O 0.59137 0.80131 0.98446 0.0
O46 O 0.60586 0.77384 0.07505 0.0
O47 O 0.55532 0.6633 0.99621 0.0
O48 O 0.55721 0.67818 0.03499 0.0
C49 C 0.58872 0.83042 1.0015 0.0
C50 C 0.72255 0.78032 0.01574 0.0
O51 O 0.69619 0.77996 0.03466 0.0
O52 O 0.69728 0.76806 0.99571 0.0
C53 C 0.64572 0.8054 0.0894 0.0
O54 O 0.6979 0.83503 0.08128 0.0
C55 C 0.53838 0.64484 0.01707 0.0
Zn56 Zn 0.86092 0.66032 0.35229 0.0
Zn57 Zn 0.85981 0.67145 0.39768 0.0
O58 O 0.77906 0.64968 0.3849 0.0
O59 O 0.77822 0.62608 0.34727 0.0
O60 O 0.85383 0.67924 0.43357 0.0
O61 O 0.89564 0.61219 0.35548 0.0
O62 O 0.88718 0.61311 0.39456 0.0
C63 C 0.75258 0.63128 0.36505 0.0
C64 C 0.93763 0.77296 0.36617 0.0
O65 O 0.92347 0.75068 0.38688 0.0
O66 O 0.91299 0.74373 0.34779 0.0
C67 C 0.89793 0.69839 0.44668 0.0
O68 O 0.94701 0.71319 0.43656 0.0
C69 C 0.90232 0.59694 0.37596 0.0
Zn70 Zn 0.23181 0.86663 0.69655 0.0
Zn71 Zn 0.20075 0.86304 0.74159 0.0
O72 O 0.14828 0.78416 0.72664 0.0
O73 O 0.18156 0.78368 0.69088 0.0
O74 O 0.17662 0.85314 0.77637 0.0
O75 O 0.31279 0.9012 0.70658 0.0
O76 O 0.28677 0.89291 0.74434 0.0
C77 C 0.14543 0.7583 0.70718 0.0
C78 C 0.18527 0.93908 0.70623 0.0
O79 O 0.18421 0.92346 0.72782 0.0
O80 O 0.20151 0.91885 0.68963 0.0
C81 C 0.17565 0.81231 0.78771 0.0
O82 O 0.18873 0.77834 0.77622 0.0
C83 C 0.32531 0.90775 0.72856 0.0
Zn84 Zn 0.7456 0.61423 0.67743 0.0
Zn85 Zn 0.76588 0.64907 0.63196 0.0
O86 O 0.83112 0.63462 0.64192 0.0
O87 O 0.81244 0.60341 0.67889 0.0
O88 O 0.77944 0.66761 0.59647 0.0
O89 O 0.67009 0.54906 0.66852 0.0
O90 O 0.68451 0.58015 0.63146 0.0
C91 C 0.84391 0.61669 0.66064 0.0
C92 C 0.76485 0.72791 0.67085 0.0
O93 O 0.77031 0.7189 0.64883 0.0
O94 O 0.75438 0.69001 0.68627 0.0
C95 C 0.82763 0.68811 0.58631 0.0
O96 O 0.87286 0.70206 0.59942 0.0
C97 C 0.65299 0.54453 0.64718 0.0
Zn98 Zn 0.09048 0.75134 0.02214 0.0
Zn99 Zn 0.1033 0.76318 0.97439 0.0
O100 O 0.18089 0.82334 0.98838 0.0
O101 O 0.17098 0.81149 0.02734 0.0
O102 O 0.11458 0.77342 0.93856 0.0
O103 O 0.07253 0.67135 0.01864 0.0
O104 O 0.08176 0.68013 0.97949 0.0
C105 C 0.20153 0.8369 1.00945 0.0
C106 C 0.01268 0.77979 1.00037 0.0
O107 O 0.03732 0.77776 0.9813 0.0
O108 O 0.02815 0.77083 0.02045 0.0
C109 C 0.11798 0.81618 0.92796 0.0
O110 O 0.1141 0.85474 0.94062 0.0
C111 C 0.07129 0.65033 0.9983 0.0
Zn112 Zn 0.36572 0.12535 0.3637 0.0
Zn113 Zn 0.32908 0.12018 0.31781 0.0
O114 O 0.35228 0.20039 0.32977 0.0
O115 O 0.3808 0.20478 0.367 0.0
O116 O 0.30338 0.11695 0.28348 0.0
O117 O 0.42643 0.11136 0.3509 0.0
O118 O 0.39278 0.10133 0.31426 0.0
C119 C 0.37115 0.22767 0.34937 0.0
C120 C 0.24822 0.0397 0.35622 0.0
O121 O 0.25819 0.05873 0.33491 0.0
O122 O 0.28743 0.06007 0.37178 0.0
C123 C 0.33234 0.15674 0.26881 0.0
O124 O 0.37888 0.2017 0.27639 0.0
C125 C 0.42822 0.10087 0.32896 0.0
Zn126 Zn 0.22622 0.3229 0.66183 0.0
Zn127 Zn 0.19938 0.2978 0.61691 0.0
O128 O 0.14544 0.32408 0.63066 0.0
O129 O 0.17762 0.35731 0.66665 0.0
O130 O 0.17695 0.28119 0.5819 0.0
O131 O 0.30784 0.36868 0.65345 0.0
O132 O 0.28565 0.35548 0.61518 0.0
C133 C 0.14229 0.34727 0.65004 0.0
C134 C 0.18178 0.20541 0.6527 0.0
O135 O 0.18324 0.22103 0.63108 0.0
O136 O 0.19518 0.24094 0.66955 0.0
C137 C 0.17454 0.31821 0.56896 0.0
O138 O 0.18558 0.36649 0.57879 0.0
C139 C 0.32265 0.37712 0.63175 0.0
Zn140 Zn 0.87265 0.21645 1.01147 0.0
Zn141 Zn 0.87284 0.19669 0.96529 0.0
O142 O 0.78996 0.1473 0.97712 0.0
O143 O 0.78851 0.17142 0.01454 0.0
O144 O 0.86744 0.17835 0.92973 0.0
O145 O 0.91192 0.2989 1.00504 0.0
O146 O 0.90699 0.28358 0.96621 0.0
C147 C 0.76252 0.14228 0.99636 0.0
C148 C 0.94121 0.16761 1.00063 0.0
O149 O 0.92818 0.17262 0.97919 0.0
O150 O 0.92029 0.18091 0.01798 0.0
C151 C 0.91093 0.20305 0.91633 0.0
O152 O 0.95988 0.23995 0.92593 0.0
C153 C 0.92177 0.31765 0.9839 0.0
Zn154 Zn 0.64183 0.88845 0.32622 0.0
Zn155 Zn 0.65478 0.8835 0.28054 0.0
O156 O 0.62838 0.80278 0.29386 0.0
O157 O 0.60551 0.80562 0.3313 0.0
O158 O 0.66792 0.8777 0.24514 0.0
O159 O 0.59638 0.92538 0.32045 0.0
O160 O 0.59852 0.91388 0.28153 0.0
C161 C 0.60922 0.77804 0.31389 0.0
C162 C 0.75596 0.96056 0.31338 0.0
O163 O 0.73435 0.94443 0.29258 0.0
O164 O 0.72534 0.93926 0.3317 0.0
C165 C 0.62814 0.84781 0.23048 0.0
O166 O 0.57572 0.81876 0.23841 0.0
C167 C 0.58271 0.93128 0.29952 0.0
H168 H 0.52164 0.58447 0.05795 0.0
H169 H 0.47308 0.56753 0.98352 0.0
H170 H 0.42287 0.46488 0.987 0.0
H171 H 0.39762 0.38082 1.01014 0.0
H172 H 0.44456 0.39465 0.0846 0.0
H173 H 0.49117 0.49822 0.0821 0.0
C174 C 0.49925 0.55823 0.04263 0.0
C175 C 0.5013 0.58347 0.02047 0.0
C176 C 0.47115 0.49902 0.04463 0.0
C177 C 0.47242 0.54908 1.00072 0.0
C178 C 0.44389 0.49041 1.00265 0.0
C179 C 0.41828 0.40632 0.02586 0.0
C180 C 0.41849 0.38025 0.04743 0.0
C181 C 0.44409 0.4651 0.02434 0.0
C182 C 0.44436 0.4139 0.06773 0.0
C183 C 0.47078 0.47298 0.06631 0.0
H184 H 0.01675 0.44778 0.39416 0.0
H185 H 0.07587 0.50598 0.32243 0.0
H186 H 0.02886 0.56158 0.32279 0.0
H187 H 0.9676 0.58954 0.34206 0.0
H188 H 0.9068 0.53425 0.41373 0.0
H189 H 0.95801 0.48135 0.41482 0.0
C190 C 0.01989 0.47328 0.37878 0.0
C191 C 0.04933 0.47237 0.35822 0.0
C192 C -0.00799 0.50493 0.37895 0.0
C193 C 0.05301 0.50548 0.33838 0.0
C194 C 0.02609 0.53725 0.33853 0.0
C195 C 0.96508 0.56572 0.35796 0.0
C196 C 0.93261 0.5649 0.37763 0.0
C197 C -0.00535 0.53631 0.35847 0.0
C198 C 0.93112 0.535 0.39827 0.0
C199 C 0.96044 0.50492 0.39888 0.0
H200 H 0.39801 0.00997 0.71231 0.0
H201 H 0.38611 0.87992 0.75934 0.0
H202 H 0.49018 0.93156 0.76408 0.0
H203 H 0.58439 0.00672 0.74956 0.0
H204 H 0.59296 0.13367 0.70122 0.0
H205 H 0.49008 0.09129 0.70279 0.0
C206 C 0.41835 -0.00648 0.7239 0.0
C207 C 0.38544 0.94117 0.73512 0.0
C208 C 0.47736 0.02298 0.72628 0.0
C209 C 0.4113 0.92021 0.75045 0.0
C210 C 0.47056 0.94961 0.75306 0.0
C211 C 0.56369 0.02595 0.74001 0.0
C212 C 0.59577 0.07273 0.72506 0.0
C213 C 0.50413 0.00011 0.74037 0.0
C214 C 0.5688 0.09729 0.71263 0.0
C215 C 0.51007 0.07295 0.71342 0.0
H216 H 0.58142 0.54736 0.61371 0.0
H217 H 0.59336 0.44274 0.6685 0.0
H218 H 0.49153 0.3774 0.66598 0.0
H219 H 0.39849 0.35784 0.65277 0.0
H220 H 0.38256 0.46164 0.59903 0.0
H221 H 0.4868 0.5195 0.59627 0.0
C222 C 0.56175 0.50947 0.62461 0.0
C223 C 0.59447 0.50016 0.64153 0.0
C224 C 0.50262 0.47267 0.62352 0.0
C225 C 0.56876 0.45108 0.65561 0.0
C226 C 0.51059 0.4138 0.65423 0.0
C227 C 0.41798 0.39275 0.64022 0.0
C228 C 0.38366 0.40655 0.62647 0.0
C229 C 0.47702 0.42552 0.63901 0.0
C230 C 0.40869 0.45081 0.60988 0.0
C231 C 0.46806 0.48386 0.60842 0.0
H232 H -0.01073 0.39519 0.01594 0.0
H233 H 0.92444 0.37868 0.94422 0.0
H234 H 0.9706 0.48233 0.94121 0.0
H235 H 0.02255 0.57695 0.96078 0.0
H236 H 0.08377 0.58915 0.03304 0.0
H237 H 0.04612 0.48748 0.03393 0.0
C238 C 0.98515 0.4141 0.99958 0.0
C239 C 0.95261 0.37952 0.98051 0.0
C240 C 0.01118 0.47288 0.99811 0.0
C241 C 0.94895 0.40465 0.95922 0.0
C242 C 0.97521 0.46376 0.95754 0.0
C243 C 0.02835 0.55729 0.97651 0.0
C244 C 0.05525 0.59027 0.99692 0.0
C245 C 0.00551 0.49826 0.9771 0.0
C246 C 0.06254 0.56449 0.01724 0.0
C247 C 0.04103 0.50639 0.01779 0.0
H248 H 0.41712 0.02826 0.29293 0.0
H249 H 0.53185 0.13666 0.34796 0.0
H250 H 0.59396 0.09797 0.34087 0.0
H251 H 0.60869 0.0252 0.32333 0.0
H252 H 0.49394 0.91208 0.26967 0.0
H253 H 0.43885 0.96122 0.27155 0.0
C254 C 0.4564 0.04415 0.30292 0.0
C255 C 0.4697 0.08463 0.32116 0.0
C256 C 0.49126 0.02042 0.29921 0.0
C257 C 0.5205 0.10496 0.33408 0.0
C258 C 0.55596 0.08286 0.33006 0.0
C259 C 0.57191 0.0117 0.31183 0.0
C260 C 0.55437 0.96466 0.29677 0.0
C261 C 0.54056 0.0392 0.31338 0.0
C262 C 0.50772 0.94814 0.28151 0.0
C263 C 0.47624 0.976 0.28272 0.0
H264 H 0.38149 0.23593 0.23385 0.0
H265 H 0.24576 0.06481 0.24611 0.0
H266 H 0.22169 0.05397 0.20361 0.0
H267 H 0.2412 0.092 0.16265 0.0
H268 H 0.37673 0.26348 0.15072 0.0
H269 H 0.39855 0.27508 0.19333 0.0
C270 C 0.34648 0.19629 0.22729 0.0
C271 C 0.31573 0.15119 0.24321 0.0
C272 C 0.33284 0.19028 0.2028 0.0
C273 C 0.27027 0.10026 0.23432 0.0
C274 C 0.2565 0.09396 0.20997 0.0
C275 C 0.27537 0.132 0.16936 0.0
C276 C 0.30737 0.17666 0.15338 0.0
C277 C 0.28781 0.13851 0.194 0.0
C278 C 0.35134 0.22828 0.1625 0.0
C279 C 0.36398 0.235 0.18692 0.0
H280 H 0.12639 0.24541 0.45999 0.0
H281 H 0.13108 0.40563 0.45565 0.0
H282 H 0.14747 0.41925 0.49862 0.0
H283 H 0.16235 0.38697 0.53736 0.0
H284 H 0.15739 0.22675 0.54208 0.0
H285 H 0.13908 0.21192 0.49913 0.0
C286 C 0.13087 0.28326 0.46843 0.0
C287 C 0.12763 0.32446 0.45449 0.0
C288 C 0.1403 0.29094 0.49327 0.0
C289 C 0.13339 0.37316 0.46584 0.0
C290 C 0.14283 0.38107 0.49046 0.0
C291 C 0.15716 0.34869 0.52905 0.0
C292 C 0.16146 0.30816 0.543 0.0
C293 C 0.14665 0.34042 0.50434 0.0
C294 C 0.15435 0.25874 0.53184 0.0
C295 C 0.14393 0.25023 0.50724 0.0
H296 H 0.93065 0.19533 0.80387 0.0
H297 H 0.75245 0.07185 0.81098 0.0
H298 H 0.76031 0.08224 0.85443 0.0
H299 H 0.81693 0.12931 0.89046 0.0
H300 H -0.005 0.25311 0.88303 0.0
H301 H 0.98785 0.23951 0.83981 0.0
C302 C 0.89353 0.17033 0.81489 0.0
C303 C 0.84098 0.13299 0.80405 0.0
C304 C 0.89822 0.17678 0.8399 0.0
C305 C 0.79346 0.10098 0.81874 0.0
C306 C 0.79787 0.10699 0.84364 0.0
C307 C 0.85425 0.15317 0.87941 0.0
C308 C 0.90637 0.19241 0.89009 0.0
C309 C 0.84989 0.14525 0.85443 0.0
C310 C 0.95427 0.22273 0.87541 0.0
C311 C 0.95026 0.21502 0.85062 0.0
H312 H 0.72061 0.86586 0.12508 0.0
H313 H 0.54249 0.75032 0.11168 0.0
H314 H 0.5215 0.75328 0.15389 0.0
H315 H 0.55344 0.78824 0.19471 0.0
H316 H 0.73152 0.90357 0.20823 0.0
H317 H 0.75256 0.90098 0.16597 0.0
C318 C 0.67717 0.84135 0.13136 0.0
C319 C 0.63327 0.80793 0.11512 0.0
C320 C 0.66529 0.84312 0.15574 0.0
C321 C 0.57723 0.77644 0.12368 0.0
C322 C 0.56512 0.77807 0.14787 0.0
C323 C 0.59689 0.81284 0.18845 0.0
C324 C 0.64076 0.84602 0.20473 0.0
C325 C 0.60878 0.81119 0.16407 0.0
C326 C 0.69681 0.8776 0.19619 0.0
C327 C 0.70894 0.87618 0.17197 0.0
H328 H 0.92245 0.72271 0.55912 0.0
H329 H 0.74228 0.66005 0.55373 0.0
H330 H 0.74818 0.65893 0.51017 0.0
H331 H 0.80389 0.67235 0.47354 0.0
H332 H 0.98394 0.73439 0.47925 0.0
H333 H 0.9785 0.73907 0.52262 0.0
C334 C 0.88447 0.70916 0.54846 0.0
C335 C 0.83198 0.69135 0.5598 0.0
C336 C 0.88804 0.70818 0.52339 0.0
C337 C 0.78328 0.67395 0.54557 0.0
C338 C 0.78657 0.67316 0.52061 0.0
C339 C 0.84199 0.68706 0.48425 0.0
C340 C 0.89419 0.70272 0.47305 0.0
C341 C 0.83862 0.6896 0.50932 0.0
C342 C 0.94311 0.72188 0.48729 0.0
C343 C 0.94009 0.7246 0.51216 0.0
H344 H 0.1295 0.74556 0.89683 0.0
H345 H 0.12618 0.90191 0.89994 0.0
H346 H 0.14203 0.91385 0.85686 0.0
H347 H 0.15868 0.88085 0.81828 0.0
H348 H 0.16294 0.72493 0.81552 0.0
H349 H 0.14469 0.71197 0.85835 0.0
C350 C 0.13213 0.78224 0.88811 0.0
C351 C 0.12675 0.8228 0.90169 0.0
C352 C 0.14144 0.789 0.86332 0.0
C353 C 0.13025 0.87001 0.89001 0.0
C354 C 0.13931 0.87691 0.86533 0.0
C355 C 0.15536 0.84391 0.82702 0.0
C356 C 0.16231 0.80403 0.81363 0.0
C357 C 0.1452 0.83679 0.8518 0.0
C358 C 0.15797 0.75646 0.82532 0.0
C359 C 0.14753 0.74895 0.84987 0.0
H360 H 0.25224 0.88045 0.05213 0.0
H361 H 0.27633 0.90945 0.97609 0.0
H362 H 0.34921 0.00771 0.98347 0.0
H363 H 0.38292 0.08853 1.01054 0.0
H364 H 0.34523 0.06104 0.08591 0.0
H365 H 0.30349 0.95925 0.07999 0.0
C366 C 0.27447 0.90777 0.03714 0.0
C367 C 0.25723 0.8884 0.01357 0.0
C368 C 0.3137 0.96494 0.04149 0.0
C369 C 0.28773 0.92376 0.9944 0.0
C370 C 0.32928 0.98007 0.99862 0.0
C371 C 0.36731 0.0605 0.02585 0.0
C372 C 0.36456 0.08199 0.04844 0.0
C373 C 0.33923 0.00192 0.02199 0.0
C374 C 0.34633 0.04543 0.0682 0.0
C375 C 0.3218 0.98708 0.06477 0.0
H376 H 0.27822 0.37936 0.38247 0.0
H377 H 0.27057 0.39694 0.30608 0.0
H378 H 0.33353 0.35898 0.2999 0.0
H379 H 0.36685 0.29685 0.31561 0.0
H380 H 0.37272 0.27748 0.39194 0.0
H381 H 0.33592 0.34122 0.39864 0.0
C382 C 0.29194 0.37681 0.36452 0.0
C383 C 0.26755 0.38827 0.34475 0.0
C384 C 0.32699 0.35344 0.361 0.0
C385 C 0.28728 0.38666 0.32165 0.0
C386 C 0.32309 0.36457 0.31804 0.0
C387 C 0.36187 0.3081 0.33371 0.0
C388 C 0.37014 0.28068 0.35317 0.0
C389 C 0.33947 0.34385 0.33748 0.0
C390 C 0.36534 0.29697 0.37657 0.0
C391 C 0.34391 0.33322 0.38046 0.0
H392 H 0.88703 0.26184 0.6592 0.0
H393 H 0.93038 0.26436 0.73364 0.0
H394 H 0.03085 0.32525 0.72411 0.0
H395 H 0.10506 0.35602 0.69384 0.0
H396 H 0.06074 0.33923 0.61896 0.0
H397 H 0.96207 0.30728 0.62945 0.0
C398 C 0.91821 0.27689 0.6735 0.0
C399 C 0.90141 0.25716 0.69701 0.0
C400 C 0.97592 0.30881 0.66768 0.0
C401 C 0.94229 0.27797 0.71533 0.0
C402 C -0.00022 0.31258 0.70986 0.0
C403 C 0.07428 0.34717 0.67975 0.0
C404 C 0.08986 0.34854 0.65563 0.0
C405 C 0.01712 0.32504 0.68592 0.0
C406 C 0.04958 0.33761 0.63765 0.0
C407 C -0.00692 0.31889 0.64366 0.0
H408 H 0.59175 0.90893 0.03263 0.0
H409 H 0.58693 0.87187 0.95729 0.0
H410 H 0.62906 0.97186 0.94795 0.0
H411 H 0.69331 0.06857 0.96222 0.0
H412 H 0.70103 0.10549 0.03768 0.0
H413 H 0.6303 0.00742 0.04572 0.0
C414 C 0.59789 0.92244 0.01411 0.0
C415 C 0.58923 0.88353 0.99581 0.0
C416 C 0.62385 0.98035 1.00886 0.0
C417 C 0.59524 0.9013 0.97185 0.0
C418 C 0.61969 0.95867 0.96644 0.0
C419 C 0.67792 0.05568 0.98031 0.0
C420 C 0.70459 0.09338 0.99942 0.0
C421 C 0.63851 -0.0013 0.98495 0.0
C422 C 0.68264 0.07675 0.02266 0.0
C423 C 0.64235 0.02044 0.02735 0.0
H424 H 0.59279 0.7266 0.35691 0.0
H425 H 0.6186 0.70614 0.2822 0.0
H426 H 0.65041 0.63978 0.2927 0.0
H427 H 0.69653 0.61221 0.3229 0.0
H428 H 0.68644 0.648 0.39742 0.0
H429 H 0.62149 0.68203 0.38733 0.0
C430 C 0.60366 0.70634 0.34281 0.0
C431 C 0.60552 0.72304 0.31885 0.0
C432 C 0.62597 0.67173 0.34909 0.0
C433 C 0.61812 0.6951 0.30082 0.0
C434 C 0.63679 0.65749 0.30685 0.0
C435 C 0.67885 0.62584 0.33708 0.0
C436 C 0.69812 0.62974 0.36079 0.0
C437 C 0.64508 0.64924 0.33095 0.0
C438 C 0.67342 0.64586 0.37896 0.0
C439 C 0.63661 0.66578 0.37316 0.0
H440 H 0.10401 0.71907 0.66295 0.0
H441 H 0.06607 0.68145 0.73784 0.0
H442 H 0.96582 0.61904 0.72819 0.0
H443 H 0.88862 0.59683 0.7002 0.0
H444 H 0.92621 0.64729 0.62631 0.0
H445 H 0.02684 0.682 0.6337 0.0
C446 C 0.07421 0.69563 0.67711 0.0
C447 C 0.09211 0.70587 0.70115 0.0
C448 C 0.01625 0.66321 0.6716 0.0
C449 C 0.05309 0.67486 0.71924 0.0
C450 C -0.00429 0.63961 0.71373 0.0
C451 C 0.91852 0.61407 0.68551 0.0
C452 C 0.9002 0.62119 0.66291 0.0
C453 C 0.97651 0.63683 0.69021 0.0
C454 C 0.93935 0.64244 0.644 0.0
C455 C -0.00303 0.66253 0.64825 0.0
H456 H 0.98073 0.15875 0.04407 0.0
H457 H 0.00146 0.14265 0.9684 0.0
H458 H 0.08424 0.13276 0.97658 0.0
H459 H 0.15692 0.14081 1.00461 0.0
H460 H 0.13955 0.16287 0.08005 0.0
H461 H 0.04843 0.15735 0.07251 0.0
C462 C 0.00278 0.15229 0.02932 0.0
C463 C 0.98532 0.1523 1.00559 0.0
C464 C 0.05111 0.14808 0.03411 0.0
C465 C 0.01416 0.14328 0.9868 0.0
C466 C 0.06163 0.1378 0.99146 0.0
C467 C 0.13293 0.14358 0.01952 0.0
C468 C 0.15557 0.15313 0.04285 0.0
C469 C 0.08149 0.14201 0.01497 0.0
C470 C 0.12343 0.15595 0.06191 0.0
C471 C 0.07143 0.15306 0.05759 0.0
H472 H 0.8109 0.00819 0.35506 0.0
H473 H 0.83235 0.02234 0.27839 0.0
H474 H 0.92188 0.11125 0.2833 0.0
H475 H -0.0119 0.18941 0.309 0.0
H476 H 0.96499 0.17715 0.38558 0.0
H477 H 0.88199 0.08256 0.381 0.0
C478 C 0.83547 0.03021 0.33939 0.0
C479 C 0.81447 0.0089 0.31635 0.0
C480 C 0.88624 0.08189 0.34231 0.0
C481 C 0.84723 0.03787 0.29631 0.0
C482 C 0.89833 0.08887 0.2991 0.0
C483 C 0.96528 0.16595 0.32475 0.0
C484 C 0.98227 0.19076 0.3476 0.0
C485 C 0.91727 0.11204 0.32197 0.0
C486 C 0.95263 0.15931 0.36779 0.0
C487 C 0.90509 0.10526 0.36517 0.0
H488 H 0.76725 0.81146 0.64325 0.0
H489 H 0.77249 0.76575 0.71663 0.0
H490 H 0.77521 0.85182 0.7304 0.0
H491 H 0.77244 0.93869 0.72182 0.0
H492 H 0.76461 0.98294 0.64844 0.0
H493 H 0.76676 0.89938 0.63464 0.0
C494 C 0.76938 0.82051 0.66224 0.0
C495 C 0.76944 0.78196 0.67881 0.0
C496 C 0.77026 0.86992 0.67014 0.0
C497 C 0.77203 0.79441 0.7034 0.0
C498 C 0.77363 0.84373 0.71135 0.0
C499 C 0.77157 0.93024 0.70282 0.0
C500 C 0.76813 0.96705 0.68627 0.0
C501 C 0.77218 0.88157 0.69491 0.0
C502 C 0.76689 0.95525 0.66167 0.0
C503 C 0.76818 0.9074 0.65369 0.0
H504 H 0.79155 0.79082 0.97865 0.0
H505 H 0.78562 0.79219 0.0558 0.0
H506 H 0.87749 0.79664 0.05773 0.0
H507 H 0.955 0.79171 0.03756 0.0
H508 H 0.95975 0.78862 0.9604 0.0
H509 H 0.87277 0.79364 0.95849 0.0
C510 C 0.81049 0.79262 0.99593 0.0
C511 C 0.78131 0.79045 0.01706 0.0
C512 C 0.86289 0.79446 0.99691 0.0
C513 C 0.80694 0.79351 0.03925 0.0
C514 C 0.8594 0.79584 0.04037 0.0
C515 C 0.93734 0.7926 0.02029 0.0
C516 C 0.96355 0.78905 0.99915 0.0
C517 C 0.88705 0.79498 0.01932 0.0
C518 C 0.94034 0.79093 0.97696 0.0
C519 C 0.89051 0.79368 0.97585 0.0
H520 H 0.02492 0.83198 0.39724 0.0
H521 H 0.96318 0.84105 0.32727 0.0
H522 H 0.05316 0.9264 0.31846 0.0
H523 H 0.15217 -0.00695 0.32909 0.0
H524 H 0.21521 0.98265 0.39862 0.0
H525 H 0.12208 0.90334 0.40905 0.0
C526 C 0.03075 0.85335 0.38027 0.0
C527 C 0.98757 0.83004 0.3629 0.0
C528 C 0.08321 0.90165 0.37505 0.0
C529 C -0.00408 0.85798 0.34091 0.0
C530 C 0.04746 0.90665 0.33579 0.0
C531 C 0.14555 0.97364 0.34657 0.0
C532 C 0.19089 -0.0066 0.3629 0.0
C533 C 0.09195 0.92787 0.35245 0.0
C534 C 0.18124 0.96809 0.38559 0.0
C535 C 0.12792 0.92272 0.39162 0.0
H536 H 0.17193 0.97146 0.66204 0.0
H537 H 0.16939 0.00819 0.73704 0.0
H538 H 0.16155 0.09098 0.72677 0.0
H539 H 0.16591 0.15802 0.69665 0.0
H540 H 0.17149 0.12284 0.62167 0.0
H541 H 0.1669 0.03363 0.63185 0.0
C542 C 0.16907 -0.00282 0.67619 0.0
C543 C 0.17213 0.98411 0.70031 0.0
C544 C 0.16543 0.04507 0.67016 0.0
C545 C 0.16747 0.01743 0.71836 0.0
C546 C 0.16321 0.06491 0.71249 0.0
C547 C 0.16547 0.1306 0.68247 0.0
C548 C 0.1699 0.14754 0.65842 0.0
C549 C 0.16379 0.07994 0.68847 0.0
C550 C 0.16843 0.11104 0.64031 0.0
C551 C 0.16606 0.06014 0.64614 0.0
loop_
_geom_bond_atom_site_label_1
_geom_bond_atom_site_label_2
_geom_bond_distance
_geom_bond_site_symmetry_2
_ccdc_geom_bond_type
Zn0 O3 2.031 . S
Zn0 O5 2.049 . S
Zn0 O10 2.067 . S
Zn1 O2 1.962 . S
Zn1 O4 1.986 . S
Zn1 O6 1.996 . S
Zn1 O9 1.943 . S
O2 Zn1 1.962 . S
O2 C7 1.254 . S
O3 Zn0 2.031 . S
O3 C7 1.269 . S
O4 Zn1 1.986 . S
O4 C11 1.262 . S
O5 Zn0 2.049 . S
O5 C13 1.260 . S
O6 Zn1 1.996 . S
O6 C13 1.257 . S
C7 O2 1.254 . S
C7 O3 1.269 . S
C8 O9 1.249 . S
C8 O10 1.270 . S
O9 Zn1 1.943 . S
O9 C8 1.249 . S
O10 Zn0 2.067 . S
O10 C8 1.270 . S
C11 O4 1.262 . S
C11 O12 1.232 . S
O12 C11 1.232 . S
C13 O5 1.260 . S
C13 O6 1.257 . S
Zn14 O17 2.031 . S
Zn14 O19 2.049 . S
Zn14 O24 2.067 . S
Zn15 O16 1.962 . S
Zn15 O18 1.986 . S
Zn15 O20 1.996 . S
Zn15 O23 1.943 . S
O16 Zn15 1.962 . S
O16 C21 1.254 . S
O17 Zn14 2.031 . S
O17 C21 1.269 . S
O18 Zn15 1.986 . S
O18 C25 1.262 . S
O19 Zn14 2.049 . S
O19 C27 1.260 . S
O20 Zn15 1.996 . S
O20 C27 1.257 . S
C21 O16 1.254 . S
C21 O17 1.269 . S
C22 O23 1.249 . S
C22 O24 1.270 . S
O23 Zn15 1.943 . S
O23 C22 1.249 . S
O24 Zn14 2.067 . S
O24 C22 1.270 . S
C25 O18 1.262 . S
C25 O26 1.232 . S
O26 C25 1.232 . S
C27 O19 1.260 . S
C27 O20 1.257 . S
Zn28 O31 2.031 . S
Zn28 O33 2.049 . S
Zn28 O38 2.067 . S
Zn29 O30 1.962 . S
Zn29 O32 1.986 . S
Zn29 O34 1.996 . S
Zn29 O37 1.943 . S
O30 Zn29 1.962 . S
O30 C35 1.254 . S
O31 Zn28 2.031 . S
O31 C35 1.269 . S
O32 Zn29 1.986 . S
O32 C39 1.262 . S
O33 Zn28 2.049 . S
O33 C41 1.260 . S
O34 Zn29 1.996 . S
O34 C41 1.257 . S
C35 O30 1.254 . S
C35 O31 1.269 . S
C36 O37 1.249 . S
C36 O38 1.270 . S
O37 Zn29 1.943 . S
O37 C36 1.249 . S
O38 Zn28 2.067 . S
O38 C36 1.270 . S
C39 O32 1.262 . S
C39 O40 1.232 . S
O40 C39 1.232 . S
C41 O33 1.260 . S
C41 O34 1.257 . S
Zn42 O45 2.031 . S
Zn42 O47 2.049 . S
Zn42 O52 2.067 . S
Zn43 O44 1.962 . S
Zn43 O46 1.986 . S
Zn43 O48 1.996 . S
Zn43 O51 1.943 . S
O44 Zn43 1.962 . S
O44 C49 1.254 . S
O45 Zn42 2.031 . S
O45 C49 1.269 . S
O46 Zn43 1.986 . S
O46 C53 1.262 . S
O47 Zn42 2.049 . S
O47 C55 1.260 . S
O48 Zn43 1.996 . S
O48 C55 1.257 . S
C49 O44 1.254 . S
C49 O45 1.269 . S
C50 O51 1.249 . S
C50 O52 1.270 . S
O51 Zn43 1.943 . S
O51 C50 1.249 . S
O52 Zn42 2.067 . S
O52 C50 1.270 . S
C53 O46 1.262 . S
C53 O54 1.232 . S
O54 C53 1.232 . S
C55 O47 1.260 . S
C55 O48 1.257 . S
Zn56 O59 2.031 . S
Zn56 O61 2.049 . S
Zn56 O66 2.067 . S
Zn57 O58 1.962 . S
Zn57 O60 1.986 . S
Zn57 O62 1.996 . S
Zn57 O65 1.943 . S
O58 Zn57 1.962 . S
O58 C63 1.254 . S
O59 Zn56 2.031 . S
O59 C63 1.269 . S
O60 Zn57 1.986 . S
O60 C67 1.262 . S
O61 Zn56 2.049 . S
O61 C69 1.260 . S
O62 Zn57 1.996 . S
O62 C69 1.257 . S
C63 O58 1.254 . S
C63 O59 1.269 . S
C64 O65 1.249 . S
C64 O66 1.270 . S
O65 Zn57 1.943 . S
O65 C64 1.249 . S
O66 Zn56 2.067 . S
O66 C64 1.270 . S
C67 O60 1.262 . S
C67 O68 1.232 . S
O68 C67 1.232 . S
C69 O61 1.260 . S
C69 O62 1.257 . S
Zn70 O73 2.031 . S
Zn70 O75 2.049 . S
Zn70 O80 2.067 . S
Zn71 O72 1.962 . S
Zn71 O74 1.986 . S
Zn71 O76 1.996 . S
Zn71 O79 1.943 . S
O72 Zn71 1.962 . S
O72 C77 1.254 . S
O73 Zn70 2.031 . S
O73 C77 1.269 . S
O74 Zn71 1.986 . S
O74 C81 1.262 . S
O75 Zn70 2.049 . S
O75 C83 1.260 . S
O76 Zn71 1.996 . S
O76 C83 1.257 . S
C77 O72 1.254 . S
C77 O73 1.269 . S
C78 O79 1.249 . S
C78 O80 1.270 . S
O79 Zn71 1.943 . S
O79 C78 1.249 . S
O80 Zn70 2.067 . S
O80 C78 1.270 . S
C81 O74 1.262 . S
C81 O82 1.232 . S
O82 C81 1.232 . S
C83 O75 1.260 . S
C83 O76 1.257 . S
Zn84 O87 2.031 . S
Zn84 O89 2.049 . S
Zn84 O94 2.067 . S
Zn85 O86 1.962 . S
Zn85 O88 1.986 . S
Zn85 O90 1.996 . S
Zn85 O93 1.943 . S
O86 Zn85 1.962 . S
O86 C91 1.254 . S
O87 Zn84 2.031 . S
O87 C91 1.269 . S
O88 Zn85 1.986 . S
O88 C95 1.262 . S
O89 Zn84 2.049 . S
O89 C97 1.260 . S
O90 Zn85 1.996 . S
O90 C97 1.257 . S
C91 O86 1.254 . S
C91 O87 1.269 . S
C92 O93 1.249 . S
C92 O94 1.270 . S
O93 Zn85 1.943 . S
O93 C92 1.249 . S
O94 Zn84 2.067 . S
O94 C92 1.270 . S
C95 O88 1.262 . S
C95 O96 1.232 . S
O96 C95 1.232 . S
C97 O89 1.260 . S
C97 O90 1.257 . S
Zn98 O101 2.031 . S
Zn98 O103 2.049 . S
Zn98 O108 2.067 . S
Zn99 O100 1.962 . S
Zn99 O102 1.986 . S
Zn99 O104 1.996 . S
Zn99 O107 1.943 . S
O100 Zn99 1.962 . S
O100 C105 1.254 . S
O101 Zn98 2.031 . S
O101 C105 1.269 . S
O102 Zn99 1.986 . S
O102 C109 1.262 . S
O103 Zn98 2.049 . S
O103 C111 1.260 . S
O104 Zn99 1.996 . S
O104 C111 1.257 . S
C105 O100 1.254 . S
C105 O101 1.269 . S
C106 O107 1.249 . S
C106 O108 1.270 . S
O107 Zn99 1.943 . S
O107 C106 1.249 . S
O108 Zn98 2.067 . S
O108 C106 1.270 . S
C109 O102 1.262 . S
C109 O110 1.232 . S
O110 C109 1.232 . S
C111 O103 1.260 . S
C111 O104 1.257 . S
Zn112 O115 2.031 . S
Zn112 O117 2.049 . S
Zn112 O122 2.067 . S
Zn113 O114 1.962 . S
Zn113 O116 1.986 . S
Zn113 O118 1.996 . S
Zn113 O121 1.943 . S
O114 Zn113 1.962 . S
O114 C119 1.254 . S
O115 Zn112 2.031 . S
O115 C119 1.269 . S
O116 Zn113 1.986 . S
O116 C123 1.262 . S
O117 Zn112 2.049 . S
O117 C125 1.260 . S
O118 Zn113 1.996 . S
O118 C125 1.257 . S
C119 O114 1.254 . S
C119 O115 1.269 . S
C120 O121 1.249 . S
C120 O122 1.270 . S
O121 Zn113 1.943 . S
O121 C120 1.249 . S
O122 Zn112 2.067 . S
O122 C120 1.270 . S
C123 O116 1.262 . S
C123 O124 1.232 . S
O124 C123 1.232 . S
C125 O117 1.260 . S
C125 O118 1.257 . S
Zn126 O129 2.031 . S
Zn126 O131 2.049 . S
Zn126 O136 2.067 . S
Zn127 O128 1.962 . S
Zn127 O130 1.986 . S
Zn127 O132 1.996 . S
Zn127 O135 1.943 . S
O128 Zn127 1.962 . S
O128 C133 1.254 . S
O129 Zn126 2.031 . S
O129 C133 1.269 . S
O130 Zn127 1.986 . S
O130 C137 1.262 . S
O131 Zn126 2.049 . S
O131 C139 1.260 . S
O132 Zn127 1.996 . S
O132 C139 1.257 . S
C133 O128 1.254 . S
C133 O129 1.269 . S
C134 O135 1.249 . S
C134 O136 1.270 . S
O135 Zn127 1.943 . S
O135 C134 1.249 . S
O136 Zn126 2.067 . S
O136 C134 1.270 . S
C137 O130 1.262 . S
C137 O138 1.232 . S
O138 C137 1.232 . S
C139 O131 1.260 . S
C139 O132 1.257 . S
Zn140 O143 2.031 . S
Zn140 O145 2.049 . S
Zn140 O150 2.067 . S
Zn141 O142 1.962 . S
Zn141 O144 1.986 . S
Zn141 O146 1.996 . S
Zn141 O149 1.943 . S
O142 Zn141 1.962 . S
O142 C147 1.254 . S
O143 Zn140 2.031 . S
O143 C147 1.269 . S
O144 Zn141 1.986 . S
O144 C151 1.262 . S
O145 Zn140 2.049 . S
O145 C153 1.260 . S
O146 Zn141 1.996 . S
O146 C153 1.257 . S
C147 O142 1.254 . S
C147 O143 1.269 . S
C148 O149 1.249 . S
C148 O150 1.270 . S
O149 Zn141 1.943 . S
O149 C148 1.249 . S
O150 Zn140 2.067 . S
O150 C148 1.270 . S
C151 O144 1.262 . S
C151 O152 1.232 . S
O152 C151 1.232 . S
C153 O145 1.260 . S
C153 O146 1.257 . S
Zn154 O157 2.031 . S
Zn154 O159 2.049 . S
Zn154 O164 2.067 . S
Zn155 O156 1.962 . S
Zn155 O158 1.986 . S
Zn155 O160 1.996 . S
Zn155 O163 1.943 . S
O156 Zn155 1.962 . S
O156 C161 1.254 . S
O157 Zn154 2.031 . S
O157 C161 1.269 . S
O158 Zn155 1.986 . S
O158 C165 1.262 . S
O159 Zn154 2.049 . S
O159 C167 1.260 . S
O160 Zn155 1.996 . S
O160 C167 1.257 . S
C161 O156 1.254 . S
C161 O157 1.269 . S
C162 O163 1.249 . S
C162 O164 1.270 . S
O163 Zn155 1.943 . S
O163 C162 1.249 . S
O164 Zn154 2.067 . S
O164 C162 1.270 . S
C165 O158 1.262 . S
C165 O166 1.232 . S
O166 C165 1.232 . S
C167 O159 1.260 . S
C167 O160 1.257 . S
H168 C174 0.930 . S
H169 C177 0.930 . S
H170 C178 0.930 1_556 S
H171 C179 0.930 . S
H172 C182 0.930 . S
H173 C183 0.930 . S
C174 H168 0.930 . S
C174 C175 1.355 . S
C174 C176 1.415 . S
C175 C174 1.355 . S
C175 C177 1.419 . S
C176 C174 1.415 . S
C176 C181 1.425 . S
C176 C183 1.409 . S
C177 H169 0.930 . S
C177 C175 1.419 . S
C177 C178 1.362 . S
C178 H170 0.930 1_554 S
C178 C177 1.362 . S
C178 C181 1.409 . S
C179 H171 0.930 . S
C179 C180 1.355 . S
C179 C181 1.415 . S
C180 C179 1.355 . S
C180 C182 1.419 . S
C181 C176 1.425 . S
C181 C178 1.409 . S
C181 C179 1.415 . S
C182 H172 0.930 . S
C182 C180 1.419 . S
C182 C183 1.362 . S
C183 H173 0.930 . S
C183 C176 1.409 . S
C183 C182 1.362 . S
H184 C190 0.930 1_655 S
H185 C193 0.930 . S
H186 C194 0.930 . S
H187 C195 0.930 1_455 S
H188 C198 0.930 . S
H189 C199 0.930 . S
C190 H184 0.930 1_455 S
C190 C191 1.355 . S
C190 C192 1.415 1_455 S
C191 C190 1.355 . S
C191 C193 1.419 . S
C192 C190 1.415 1_655 S
C192 C197 1.425 1_655 S
C192 C199 1.409 . S
C193 H185 0.930 . S
C193 C191 1.419 . S
C193 C194 1.362 . S
C194 H186 0.930 . S
C194 C193 1.362 . S
C194 C197 1.409 . S
C195 H187 0.930 1_655 S
C195 C196 1.355 . S
C195 C197 1.415 1_655 S
C196 C195 1.355 . S
C196 C198 1.419 . S
C197 C192 1.425 1_455 S
C197 C194 1.409 . S
C197 C195 1.415 1_455 S
C198 H188 0.930 . S
C198 C196 1.419 . S
C198 C199 1.362 . S
C199 H189 0.930 . S
C199 C192 1.409 . S
C199 C198 1.362 . S
H200 C206 0.930 1_545 S
H201 C209 0.930 . S
H202 C210 0.930 . S
H203 C211 0.930 1_565 S
H204 C214 0.930 . S
H205 C215 0.930 . S
C206 H200 0.930 1_565 S
C206 C207 1.355 . S
C206 C208 1.415 1_565 S
C207 C206 1.355 . S
C207 C209 1.419 . S
C208 C206 1.415 1_545 S
C208 C213 1.425 1_545 S
C208 C215 1.409 . S
C209 H201 0.930 . S
C209 C207 1.419 . S
C209 C210 1.362 . S
C210 H202 0.930 . S
C210 C209 1.362 . S
C210 C213 1.409 . S
C211 H203 0.930 1_545 S
C211 C212 1.355 . S
C211 C213 1.415 1_545 S
C212 C211 1.355 . S
C212 C214 1.419 . S
C213 C208 1.425 1_565 S
C213 C210 1.409 . S
C213 C211 1.415 1_565 S
C214 H204 0.930 . S
C214 C212 1.419 . S
C214 C215 1.362 . S
C215 H205 0.930 . S
C215 C208 1.409 . S
C215 C214 1.362 . S
H216 C222 0.930 . S
H217 C225 0.930 . S
H218 C226 0.930 . S
H219 C227 0.930 . S
H220 C230 0.930 . S
H221 C231 0.930 . S
C222 H216 0.930 . S
C222 C223 1.355 . S
C222 C224 1.415 . S
C223 C222 1.355 . S
C223 C225 1.419 . S
C224 C222 1.415 . S
C224 C229 1.425 . S
C224 C231 1.409 . S
C225 H217 0.930 . S
C225 C223 1.419 . S
C225 C226 1.362 . S
C226 H218 0.930 . S
C226 C225 1.362 . S
C226 C229 1.409 . S
C227 H219 0.930 . S
C227 C228 1.355 . S
C227 C229 1.415 . S
C228 C227 1.355 . S
C228 C230 1.419 . S
C229 C224 1.425 . S
C229 C226 1.409 . S
C229 C227 1.415 . S
C230 H220 0.930 . S
C230 C228 1.419 . S
C230 C231 1.362 . S
C231 H221 0.930 . S
C231 C224 1.409 . S
C231 C230 1.362 . S
H232 C238 0.930 . S
H233 C241 0.930 . S
H234 C242 0.930 . S
H235 C243 0.930 . S
H236 C246 0.930 . S
H237 C247 0.930 . S
C238 H232 0.930 . S
C238 C239 1.355 . S
C238 C240 1.415 . S
C239 C238 1.355 . S
C239 C241 1.419 1_655 S
C240 C238 1.415 . S
C240 C245 1.425 1_655 S
C240 C247 1.409 . S
C241 H233 0.930 . S
C241 C239 1.419 1_455 S
C241 C242 1.362 . S
C242 H234 0.930 . S
C242 C241 1.362 . S
C242 C245 1.409 . S
C243 H235 0.930 . S
C243 C244 1.355 . S
C243 C245 1.415 . S
C244 C243 1.355 . S
C244 C246 1.419 1_455 S
C245 C240 1.425 1_455 S
C245 C242 1.409 . S
C245 C243 1.415 . S
C246 H236 0.930 . S
C246 C244 1.419 1_655 S
C246 C247 1.362 . S
C247 H237 0.930 . S
C247 C240 1.409 . S
C247 C246 1.362 . S
H248 C254 0.930 . S
H249 C257 0.930 . S
H250 C258 0.922 1_565 S
H251 C259 0.930 . S
H252 C262 0.930 . S
H253 C263 0.922 1_545 S
C254 H248 0.930 . S
C254 C255 1.355 . S
C254 C256 1.415 . S
C255 C254 1.355 . S
C255 C257 1.419 . S
C256 C254 1.415 . S
C256 C261 1.425 1_545 S
C256 C263 1.399 1_545 S
C257 H249 0.930 . S
C257 C255 1.419 . S
C257 C258 1.380 . S
C258 H250 0.922 1_545 S
C258 C257 1.380 . S
C258 C261 1.399 1_545 S
C259 H251 0.930 . S
C259 C260 1.355 . S
C259 C261 1.415 . S
C260 C259 1.355 . S
C260 C262 1.419 . S
C261 C256 1.425 1_565 S
C261 C258 1.399 1_565 S
C261 C259 1.415 . S
C262 H252 0.930 . S
C262 C260 1.419 . S
C262 C263 1.380 . S
C263 H253 0.922 1_565 S
C263 C256 1.399 1_565 S
C263 C262 1.380 . S
H264 C270 0.930 . S
H265 C273 0.930 . S
H266 C274 0.930 . S
H267 C275 0.930 . S
H268 C278 0.930 . S
H269 C279 0.930 . S
C270 H264 0.930 . S
C270 C271 1.355 . S
C270 C272 1.415 . S
C271 C270 1.355 . S
C271 C273 1.419 . S
C272 C270 1.415 . S
C272 C277 1.425 . S
C272 C279 1.409 . S
C273 H265 0.930 . S
C273 C271 1.419 . S
C273 C274 1.362 . S
C274 H266 0.930 . S
C274 C273 1.362 . S
C274 C277 1.409 . S
C275 H267 0.930 . S
C275 C276 1.355 . S
C275 C277 1.415 . S
C276 C275 1.355 . S
C276 C278 1.419 . S
C277 C272 1.425 . S
C277 C274 1.409 . S
C277 C275 1.415 . S
C278 H268 0.930 . S
C278 C276 1.419 . S
C278 C279 1.362 . S
C279 H269 0.930 . S
C279 C272 1.409 . S
C279 C278 1.362 . S
H280 C286 0.930 . S
H281 C289 0.930 . S
H282 C290 0.930 . S
H283 C291 0.930 . S
H284 C294 0.930 . S
H285 C295 0.930 . S
C286 H280 0.930 . S
C286 C287 1.355 . S
C286 C288 1.415 . S
C287 C286 1.355 . S
C287 C289 1.419 . S
C288 C286 1.415 . S
C288 C293 1.425 . S
C288 C295 1.409 . S
C289 H281 0.930 . S
C289 C287 1.419 . S
C289 C290 1.362 . S
C290 H282 0.930 . S
C290 C289 1.362 . S
C290 C293 1.409 . S
C291 H283 0.930 . S
C291 C292 1.355 . S
C291 C293 1.415 . S
C292 C291 1.355 . S
C292 C294 1.419 . S
C293 C288 1.425 . S
C293 C290 1.409 . S
C293 C291 1.415 . S
C294 H284 0.930 . S
C294 C292 1.419 . S
C294 C295 1.362 . S
C295 H285 0.930 . S
C295 C288 1.409 . S
C295 C294 1.362 . S
H296 C302 0.930 . S
H297 C305 0.930 . S
H298 C306 0.930 . S
H299 C307 0.930 . S
H300 C310 0.930 . S
H301 C311 0.930 . S
C302 H296 0.930 . S
C302 C303 1.355 . S
C302 C304 1.415 . S
C303 C302 1.355 . S
C303 C305 1.419 . S
C304 C302 1.415 . S
C304 C309 1.425 . S
C304 C311 1.409 . S
C305 H297 0.930 . S
C305 C303 1.419 . S
C305 C306 1.362 . S
C306 H298 0.930 . S
C306 C305 1.362 . S
C306 C309 1.409 . S
C307 H299 0.930 . S
C307 C308 1.355 . S
C307 C309 1.415 . S
C308 C307 1.355 . S
C308 C310 1.419 . S
C309 C304 1.425 . S
C309 C306 1.409 . S
C309 C307 1.415 . S
C310 H300 0.930 . S
C310 C308 1.419 . S
C310 C311 1.362 . S
C311 H301 0.930 . S
C311 C304 1.409 . S
C311 C310 1.362 . S
H312 C318 0.930 . S
H313 C321 0.930 . S
H314 C322 0.930 . S
H315 C323 0.930 . S
H316 C326 0.930 . S
H317 C327 0.930 . S
C318 H312 0.930 . S
C318 C319 1.355 . S
C318 C320 1.415 . S
C319 C318 1.355 . S
C319 C321 1.419 . S
C320 C318 1.415 . S
C320 C325 1.425 . S
C320 C327 1.409 . S
C321 H313 0.930 . S
C321 C319 1.419 . S
C321 C322 1.362 . S
C322 H314 0.930 . S
C322 C321 1.362 . S
C322 C325 1.409 . S
C323 H315 0.930 . S
C323 C324 1.355 . S
C323 C325 1.415 . S
C324 C323 1.355 . S
C324 C326 1.419 . S
C325 C320 1.425 . S
C325 C322 1.409 . S
C325 C323 1.415 . S
C326 H316 0.930 . S
C326 C324 1.419 . S
C326 C327 1.362 . S
C327 H317 0.930 . S
C327 C320 1.409 . S
C327 C326 1.362 . S
H328 C334 0.930 . S
H329 C337 0.930 . S
H330 C338 0.930 . S
H331 C339 0.930 . S
H332 C342 0.930 . S
H333 C343 0.930 . S
C334 H328 0.930 . S
C334 C335 1.355 . S
C334 C336 1.415 . S
C335 C334 1.355 . S
C335 C337 1.419 . S
C336 C334 1.415 . S
C336 C341 1.425 . S
C336 C343 1.409 . S
C337 H329 0.930 . S
C337 C335 1.419 . S
C337 C338 1.362 . S
C338 H330 0.930 . S
C338 C337 1.362 . S
C338 C341 1.409 . S
C339 H331 0.930 . S
C339 C340 1.355 . S
C339 C341 1.415 . S
C340 C339 1.355 . S
C340 C342 1.419 . S
C341 C336 1.425 . S
C341 C338 1.409 . S
C341 C339 1.415 . S
C342 H332 0.930 . S
C342 C340 1.419 . S
C342 C343 1.362 . S
C343 H333 0.930 . S
C343 C336 1.409 . S
C343 C342 1.362 . S
H344 C350 0.930 . S
H345 C353 0.930 . S
H346 C354 0.930 . S
H347 C355 0.930 . S
H348 C358 0.930 . S
H349 C359 0.930 . S
C350 H344 0.930 . S
C350 C351 1.355 . S
C350 C352 1.415 . S
C351 C350 1.355 . S
C351 C353 1.419 . S
C352 C350 1.415 . S
C352 C357 1.425 . S
C352 C359 1.409 . S
C353 H345 0.930 . S
C353 C351 1.419 . S
C353 C354 1.362 . S
C354 H346 0.930 . S
C354 C353 1.362 . S
C354 C357 1.409 . S
C355 H347 0.930 . S
C355 C356 1.355 . S
C355 C357 1.415 . S
C356 C355 1.355 . S
C356 C358 1.419 . S
C357 C352 1.425 . S
C357 C354 1.409 . S
C357 C355 1.415 . S
C358 H348 0.930 . S
C358 C356 1.419 . S
C358 C359 1.362 . S
C359 H349 0.930 . S
C359 C352 1.409 . S
C359 C358 1.362 . S
H360 C366 0.930 1_554 S
H361 C369 0.930 . S
H362 C370 0.930 . S
H363 C371 0.930 1_556 S
H364 C374 0.930 . S
H365 C375 0.930 . S
C366 H360 0.930 1_556 S
C366 C367 1.355 . S
C366 C368 1.415 1_556 S
C367 C366 1.355 . S
C367 C369 1.419 . S
C368 C366 1.415 1_554 S
C368 C373 1.425 1_564 S
C368 C375 1.409 1_565 S
C369 H361 0.930 . S
C369 C367 1.419 . S
C369 C370 1.362 . S
C370 H362 0.930 . S
C370 C369 1.362 . S
C370 C373 1.409 1_565 S
C371 H363 0.930 1_554 S
C371 C372 1.355 . S
C371 C373 1.415 1_554 S
C372 C371 1.355 . S
C372 C374 1.419 . S
C373 C368 1.425 1_546 S
C373 C370 1.409 1_545 S
C373 C371 1.415 1_556 S
C374 H364 0.930 . S
C374 C372 1.419 . S
C374 C375 1.362 . S
C375 H365 0.930 . S
C375 C368 1.409 1_545 S
C375 C374 1.362 . S
H376 C382 0.930 . S
H377 C385 0.930 . S
H378 C386 0.930 . S
H379 C387 0.930 . S
H380 C390 0.930 . S
H381 C391 0.930 . S
C382 H376 0.930 . S
C382 C383 1.355 . S
C382 C384 1.415 . S
C383 C382 1.355 . S
C383 C385 1.419 . S
C384 C382 1.415 . S
C384 C389 1.425 . S
C384 C391 1.409 . S
C385 H377 0.930 . S
C385 C383 1.419 . S
C385 C386 1.362 . S
C386 H378 0.930 . S
C386 C385 1.362 . S
C386 C389 1.409 . S
C387 H379 0.930 . S
C387 C388 1.355 . S
C387 C389 1.415 . S
C388 C387 1.355 . S
C388 C390 1.419 . S
C389 C384 1.425 . S
C389 C386 1.409 . S
C389 C387 1.415 . S
C390 H380 0.930 . S
C390 C388 1.419 . S
C390 C391 1.362 . S
C391 H381 0.930 . S
C391 C384 1.409 . S
C391 C390 1.362 . S
H392 C398 0.930 . S
H393 C401 0.930 . S
H394 C402 0.930 . S
H395 C403 0.930 . S
H396 C406 0.930 . S
H397 C407 0.930 . S
C398 H392 0.930 . S
C398 C399 1.355 . S
C398 C400 1.415 . S
C399 C398 1.355 . S
C399 C401 1.419 . S
C400 C398 1.415 . S
C400 C405 1.425 1_655 S
C400 C407 1.409 1_655 S
C401 H393 0.930 . S
C401 C399 1.419 . S
C401 C402 1.362 . S
C402 H394 0.930 . S
C402 C401 1.362 . S
C402 C405 1.409 1_655 S
C403 H395 0.930 . S
C403 C404 1.355 . S
C403 C405 1.415 . S
C404 C403 1.355 . S
C404 C406 1.419 . S
C405 C400 1.425 1_455 S
C405 C402 1.409 1_455 S
C405 C403 1.415 . S
C406 H396 0.930 . S
C406 C404 1.419 . S
C406 C407 1.362 . S
C407 H397 0.930 . S
C407 C400 1.409 1_455 S
C407 C406 1.362 . S
H408 C414 0.930 . S
H409 C417 0.930 . S
H410 C418 0.930 . S
H411 C419 0.930 . S
H412 C422 0.930 . S
H413 C423 0.930 . S
C414 H408 0.930 . S
C414 C415 1.355 . S
C414 C416 1.415 . S
C415 C414 1.355 . S
C415 C417 1.419 1_554 S
C416 C414 1.415 . S
C416 C421 1.425 1_564 S
C416 C423 1.409 1_565 S
C417 H409 0.930 . S
C417 C415 1.419 1_556 S
C417 C418 1.362 . S
C418 H410 0.930 . S
C418 C417 1.362 . S
C418 C421 1.409 1_565 S
C419 H411 0.930 . S
C419 C420 1.355 . S
C419 C421 1.415 . S
C420 C419 1.355 . S
C420 C422 1.419 1_556 S
C421 C416 1.425 1_546 S
C421 C418 1.409 1_545 S
C421 C419 1.415 . S
C422 H412 0.930 . S
C422 C420 1.419 1_554 S
C422 C423 1.362 . S
C423 H413 0.930 . S
C423 C416 1.409 1_545 S
C423 C422 1.362 . S
H424 C430 0.930 . S
H425 C433 0.930 . S
H426 C434 0.930 . S
H427 C435 0.930 . S
H428 C438 0.930 . S
H429 C439 0.930 . S
C430 H424 0.930 . S
C430 C431 1.355 . S
C430 C432 1.415 . S
C431 C430 1.355 . S
C431 C433 1.419 . S
C432 C430 1.415 . S
C432 C437 1.425 . S
C432 C439 1.409 . S
C433 H425 0.930 . S
C433 C431 1.419 . S
C433 C434 1.362 . S
C434 H426 0.930 . S
C434 C433 1.362 . S
C434 C437 1.409 . S
C435 H427 0.930 . S
C435 C436 1.355 . S
C435 C437 1.415 . S
C436 C435 1.355 . S
C436 C438 1.419 . S
C437 C432 1.425 . S
C437 C434 1.409 . S
C437 C435 1.415 . S
C438 H428 0.930 . S
C438 C436 1.419 . S
C438 C439 1.362 . S
C439 H429 0.930 . S
C439 C432 1.409 . S
C439 C438 1.362 . S
H440 C446 0.930 . S
H441 C449 0.930 . S
H442 C450 0.930 1_655 S
H443 C451 0.930 . S
H444 C454 0.930 . S
H445 C455 0.930 1_455 S
C446 H440 0.930 . S
C446 C447 1.355 . S
C446 C448 1.415 . S
C447 C446 1.355 . S
C447 C449 1.419 . S
C448 C446 1.415 . S
C448 C453 1.425 1_455 S
C448 C455 1.409 1_455 S
C449 H441 0.930 . S
C449 C447 1.419 . S
C449 C450 1.362 . S
C450 H442 0.930 1_455 S
C450 C449 1.362 . S
C450 C453 1.409 1_455 S
C451 H443 0.930 . S
C451 C452 1.355 . S
C451 C453 1.415 . S
C452 C451 1.355 . S
C452 C454 1.419 . S
C453 C448 1.425 1_655 S
C453 C450 1.409 1_655 S
C453 C451 1.415 . S
C454 H444 0.930 . S
C454 C452 1.419 . S
C454 C455 1.362 . S
C455 H445 0.930 1_655 S
C455 C448 1.409 1_655 S
C455 C454 1.362 . S
H456 C462 0.930 . S
H457 C465 0.930 . S
H458 C466 0.930 . S
H459 C467 0.930 . S
H460 C470 0.930 . S
H461 C471 0.930 . S
C462 H456 0.930 . S
C462 C463 1.355 . S
C462 C464 1.424 . S
C463 C462 1.355 . S
C463 C465 1.419 . S
C464 C462 1.424 . S
C464 C469 1.424 1_556 S
C464 C471 1.400 1_556 S
C465 H457 0.930 . S
C465 C463 1.419 . S
C465 C466 1.362 . S
C466 H458 0.930 . S
C466 C465 1.362 . S
C466 C469 1.400 1_556 S
C467 H459 0.930 . S
C467 C468 1.355 . S
C467 C469 1.424 . S
C468 C467 1.355 . S
C468 C470 1.419 . S
C469 C464 1.424 1_554 S
C469 C466 1.400 1_554 S
C469 C467 1.424 . S
C470 H460 0.930 . S
C470 C468 1.419 . S
C470 C471 1.362 . S
C471 H461 0.930 . S
C471 C464 1.400 1_554 S
C471 C470 1.362 . S
H472 C478 0.930 . S
H473 C481 0.930 . S
H474 C482 0.930 . S
H475 C483 0.930 . S
H476 C486 0.930 . S
H477 C487 0.930 . S
C478 H472 0.930 . S
C478 C479 1.355 . S
C478 C480 1.415 . S
C479 C478 1.355 . S
C479 C481 1.419 . S
C480 C478 1.415 . S
C480 C485 1.425 . S
C480 C487 1.409 . S
C481 H473 0.930 . S
C481 C479 1.419 . S
C481 C482 1.362 . S
C482 H474 0.930 . S
C482 C481 1.362 . S
C482 C485 1.409 . S
C483 H475 0.930 . S
C483 C484 1.355 . S
C483 C485 1.415 . S
C484 C483 1.355 . S
C484 C486 1.419 . S
C485 C480 1.425 . S
C485 C482 1.409 . S
C485 C483 1.415 . S
C486 H476 0.930 . S
C486 C484 1.419 . S
C486 C487 1.362 . S
C487 H477 0.930 . S
C487 C480 1.409 . S
C487 C486 1.362 . S
H488 C494 0.930 . S
H489 C497 0.930 . S
H490 C498 0.930 . S
H491 C499 0.930 . S
H492 C502 0.930 1_545 S
H493 C503 0.930 . S
C494 H488 0.930 . S
C494 C495 1.355 . S
C494 C496 1.415 . S
C495 C494 1.355 . S
C495 C497 1.419 . S
C496 C494 1.415 . S
C496 C501 1.425 . S
C496 C503 1.409 . S
C497 H489 0.930 . S
C497 C495 1.419 . S
C497 C498 1.362 . S
C498 H490 0.930 . S
C498 C497 1.362 . S
C498 C501 1.409 . S
C499 H491 0.930 . S
C499 C500 1.355 . S
C499 C501 1.415 . S
C500 C499 1.355 . S
C500 C502 1.419 . S
C501 C496 1.425 . S
C501 C498 1.409 . S
C501 C499 1.415 . S
C502 H492 0.930 1_565 S
C502 C500 1.419 . S
C502 C503 1.362 . S
C503 H493 0.930 . S
C503 C496 1.409 . S
C503 C502 1.362 . S
H504 C510 0.930 1_556 S
H505 C513 0.930 . S
H506 C514 0.930 . S
H507 C515 0.930 1_554 S
H508 C518 0.930 . S
H509 C519 0.930 . S
C510 H504 0.930 1_554 S
C510 C511 1.355 . S
C510 C512 1.415 1_554 S
C511 C510 1.355 . S
C511 C513 1.419 . S
C512 C510 1.415 1_556 S
C512 C517 1.425 1_556 S
C512 C519 1.409 . S
C513 H505 0.930 . S
C513 C511 1.419 . S
C513 C514 1.362 . S
C514 H506 0.930 . S
C514 C513 1.362 . S
C514 C517 1.409 . S
C515 H507 0.930 1_556 S
C515 C516 1.355 . S
C515 C517 1.415 1_556 S
C516 C515 1.355 . S
C516 C518 1.419 . S
C517 C512 1.425 1_554 S
C517 C514 1.409 . S
C517 C515 1.415 1_554 S
C518 H508 0.930 . S
C518 C516 1.419 . S
C518 C519 1.362 . S
C519 H509 0.930 . S
C519 C512 1.409 . S
C519 C518 1.362 . S
H520 C526 0.930 . S
H521 C529 0.930 . S
H522 C530 0.930 . S
H523 C531 0.930 . S
H524 C534 0.930 1_545 S
H525 C535 0.930 . S
C526 H520 0.930 . S
C526 C527 1.355 . S
C526 C528 1.415 . S
C527 C526 1.355 . S
C527 C529 1.419 . S
C528 C526 1.415 . S
C528 C533 1.425 . S
C528 C535 1.409 . S
C529 H521 0.930 . S
C529 C527 1.419 . S
C529 C530 1.362 . S
C530 H522 0.930 . S
C530 C529 1.362 . S
C530 C533 1.409 . S
C531 H523 0.930 . S
C531 C532 1.355 . S
C531 C533 1.415 . S
C532 C531 1.355 . S
C532 C534 1.419 . S
C533 C528 1.425 . S
C533 C530 1.409 . S
C533 C531 1.415 . S
C534 H524 0.930 1_565 S
C534 C532 1.419 . S
C534 C535 1.362 . S
C535 H525 0.930 . S
C535 C528 1.409 . S
C535 C534 1.362 . S
H536 C542 0.930 . S
H537 C545 0.930 1_565 S
H538 C546 0.930 . S
H539 C547 0.930 . S
H540 C550 0.930 . S
H541 C551 0.930 . S
C542 H536 0.930 . S
C542 C543 1.355 . S
C542 C544 1.415 . S
C543 C542 1.355 . S
C543 C545 1.419 . S
C544 C542 1.415 . S
C544 C549 1.425 . S
C544 C551 1.409 . S
C545 H537 0.930 1_545 S
C545 C543 1.419 . S
C545 C546 1.362 . S
C546 H538 0.930 . S
C546 C545 1.362 . S
C546 C549 1.409 . S
C547 H539 0.930 . S
C547 C548 1.355 . S
C547 C549 1.415 . S
C548 C547 1.355 . S
C548 C550 1.419 . S
C549 C544 1.425 . S
C549 C546 1.409 . S
C549 C547 1.415 . S
C550 H540 0.930 . S
C550 C548 1.419 . S
C550 C551 1.362 . S
C551 H541 0.930 . S
C551 C544 1.409 . S
C551 C550 1.362 . S
C175 C55 1.343 . S
C180 C13 1.411 . S
C191 C27 1.382 . S
C196 C69 1.439 . S
C207 C83 1.387 . S
C212 C41 1.438 . S
C223 C97 1.408 . S
C228 C139 1.429 . S
C239 C153 1.377 . S
C244 C111 1.352 . S
C255 C125 1.343 . S
C260 C167 1.409 . S
C271 C123 1.536 . S
C276 C11 1.537 . S
C287 C25 1.534 . S
C292 C137 1.534 . S
C303 C39 1.530 . S
C308 C151 1.529 . S
C319 C53 1.538 . S
C324 C165 1.538 . S
C335 C95 1.535 . S
C340 C67 1.535 . S
C351 C109 1.506 . S
C356 C81 1.506 . S
C367 C105 1.030 . S
C372 C7 1.086 . S
C383 C21 1.089 . S
C388 C119 1.043 . S
C399 C35 1.085 . S
C404 C133 1.030 . S
C415 C49 1.080 . S
C420 C147 1.060 . S
C431 C161 1.031 . S
C436 C63 1.087 . S
C447 C77 1.030 . S
C452 C91 1.071 . S
C463 C148 1.297 1_455 S
C468 C8 1.340 . S
C479 C162 1.364 1_545 S
C484 C22 1.335 1_655 S
C495 C92 1.282 . S
C500 C36 1.306 1_565 S
C511 C50 1.341 . S
C516 C106 1.364 1_655 S
C527 C64 1.282 1_455 S
C532 C120 1.299 1_565 S
C543 C78 1.344 1_545 S
C548 C134 1.300 . S
