# Generated by pormake.
# Topology irl, (4)-cn, num edge types: 1
# Building blocks:
#     Node 0, Type 0, BuildingBlock: NAHDIM_clean_sbu_0, # of connection points: 4
#     Node 1, Type 0, BuildingBlock: NAHDIM_clean_sbu_0, # of connection points: 4
#     Node 2, Type 0, BuildingBlock: NAHDIM_clean_sbu_0, # of connection points: 4
#     Node 3, Type 0, BuildingBlock: NAHDIM_clean_sbu_0, # of connection points: 4
#     Node 4, Type 0, BuildingBlock: NAHDIM_clean_sbu_0, # of connection points: 4
#     Node 5, Type 0, BuildingBlock: NAHDIM_clean_sbu_0, # of connection points: 4
#     Node 6, Type 0, BuildingBlock: NAHDIM_clean_sbu_0, # of connection points: 4
#     Node 7, Type 0, BuildingBlock: NAHDIM_clean_sbu_0, # of connection points: 4
#     Edge 8, Type (0, 0), BuildingBlock: UVAHIK_clean_linker_0, # of connection points: 2
#     Edge 9, Type (0, 0), BuildingBlock: UVAHIK_clean_linker_0, # of connection points: 2
#     Edge 10, Type (0, 0), BuildingBlock: UVAHIK_clean_linker_0, # of connection points: 2
#     Edge 11, Type (0, 0), BuildingBlock: UVAHIK_clean_linker_0, # of connection points: 2
#     Edge 12, Type (0, 0), BuildingBlock: UVAHIK_clean_linker_0, # of connection points: 2
#     Edge 13, Type (0, 0), BuildingBlock: UVAHIK_clean_linker_0, # of connection points: 2
#     Edge 14, Type (0, 0), BuildingBlock: UVAHIK_clean_linker_0, # of connection points: 2
#     Edge 15, Type (0, 0), BuildingBlock: UVAHIK_clean_linker_0, # of connection points: 2
#     Edge 16, Type (0, 0), BuildingBlock: UVAHIK_clean_linker_0, # of connection points: 2
#     Edge 17, Type (0, 0), BuildingBlock: UVAHIK_clean_linker_0, # of connection points: 2
#     Edge 18, Type (0, 0), BuildingBlock: UVAHIK_clean_linker_0, # of connection points: 2
#     Edge 19, Type (0, 0), BuildingBlock: UVAHIK_clean_linker_0, # of connection points: 2
#     Edge 20, Type (0, 0), BuildingBlock: UVAHIK_clean_linker_0, # of connection points: 2
#     Edge 21, Type (0, 0), BuildingBlock: UVAHIK_clean_linker_0, # of connection points: 2
#     Edge 22, Type (0, 0), BuildingBlock: UVAHIK_clean_linker_0, # of connection points: 2
#     Edge 23, Type (0, 0), BuildingBlock: UVAHIK_clean_linker_0, # of connection points: 2
# Relax obj value: 0.192
# Max RMSD: 0.181
# Mean RMSD: 0.181
data_MOF--net-irl--node1-NAHDIM_clean_sbu_0--edge1-UVAHIK_clean_linker_0
_symmetry_space_group_name_H-M    P1
_symmetry_Int_Tables_number       1
_symmetry_cell_setting            triclinic
loop_
_symmetry_equiv_pos_as_xyz
'x, y, z'
_cell_length_a     51.457774
_cell_length_b     46.228852
_cell_length_c     34.047648
_cell_angle_alpha  89.99911
_cell_angle_beta   90.101864
_cell_angle_gamma 90.092057
loop_
_atom_site_label
_atom_site_type_symbol
_atom_site_fract_x
_atom_site_fract_y
_atom_site_fract_z
_atom_type_partial_charge
C0 C 0.10954 0.23566 0.00592 0.0
O1 O 0.09508 0.25827 0.01404 0.0
O2 O 0.05199 0.22602 0.06324 0.0
Zn3 Zn 0.06037 0.20867 0.0108 0.0
O4 O 0.04308 0.23003 0.96696 0.0
C5 C 0.04799 0.15157 0.03997 0.0
O6 O 0.05541 0.16282 0.07362 0.0
O7 O 0.09882 0.211 0.00282 0.0
C8 C 0.01854 0.23051 0.96309 0.0
O9 O 0.00399 0.21769 0.98958 0.0
C10 C 0.0431 0.25129 0.06898 0.0
O11 O 0.03797 0.26807 0.03883 0.0
O12 O 0.04869 0.1671 0.00918 0.0
C13 C 0.88637 0.79413 0.03254 0.0
O14 O 0.90147 0.7867 0.06199 0.0
O15 O 0.95515 0.78276 0.02842 0.0
Zn16 Zn 0.93456 0.80552 0.98918 0.0
O17 O 0.93933 0.78904 0.93541 0.0
C18 C 0.95104 0.85911 0.02304 0.0
O19 O 0.94756 0.8443 0.05555 0.0
O20 O 0.89642 0.80322 0.00078 0.0
C21 C 0.95978 0.77626 0.92397 0.0
O22 O 0.97965 0.77389 0.94802 0.0
C23 C 0.95174 0.75602 0.03539 0.0
O24 O 0.93389 0.74163 0.0158 0.0
O25 O 0.94644 0.84698 0.99024 0.0
C26 C 0.10228 0.7701 0.4777 0.0
O27 O 0.08777 0.74699 0.4726 0.0
O28 O 0.04282 0.78 0.42233 0.0
Zn29 Zn 0.05286 0.79725 0.47425 0.0
O30 O 0.03717 0.77599 0.51962 0.0
C31 C 0.02185 0.84896 0.46158 0.0
O32 O 0.00639 0.83123 0.44245 0.0
O33 O 0.09149 0.79474 0.47943 0.0
C34 C 0.01294 0.77196 0.52412 0.0
O35 O -0.00328 0.78124 0.4971 0.0
C36 C 0.03432 0.75443 0.41729 0.0
O37 O 0.03058 0.73755 0.44779 0.0
O38 O 0.04256 0.83918 0.47701 0.0
C39 C 0.88331 0.2339 0.49685 0.0
O40 O 0.8958 0.25033 0.52209 0.0
O41 O 0.95573 0.2246 0.45869 0.0
Zn42 Zn 0.93199 0.20425 0.49644 0.0
O43 O 0.93767 0.21747 0.55187 0.0
C44 C 0.96025 0.15137 0.50451 0.0
O45 O 0.97766 0.16917 0.51923 0.0
O46 O 0.89491 0.2124 0.48165 0.0
C47 C 0.95683 0.23255 0.56354 0.0
O48 O 0.97511 0.23985 0.53854 0.0
C49 C 0.95302 0.25092 0.44871 0.0
O50 O 0.93443 0.26637 0.46463 0.0
O51 O 0.93864 0.16148 0.49279 0.0
C52 C 0.61775 0.71368 0.0003 0.0
O53 O 0.60221 0.73167 0.98188 0.0
O54 O 0.5564 0.70277 0.06855 0.0
Zn55 Zn 0.56931 0.68661 0.01772 0.0
O56 O 0.55377 0.70771 0.97191 0.0
C57 C 0.53698 0.6372 0.02736 0.0
O58 O 0.52216 0.65701 0.0435 0.0
O59 O 0.60813 0.69168 0.01736 0.0
C60 C 0.5308 0.71768 0.97076 0.0
O61 O 0.51547 0.71432 0.00122 0.0
C62 C 0.55614 0.72958 0.07676 0.0
O63 O 0.56399 0.74843 0.05044 0.0
O64 O 0.55909 0.64455 0.01401 0.0
C65 C 0.3867 0.26237 0.96759 0.0
O66 O 0.40004 0.24173 0.95043 0.0
O67 O 0.45364 0.26602 0.02605 0.0
Zn68 Zn 0.43766 0.28546 0.97933 0.0
O69 O 0.44886 0.26656 0.92941 0.0
C70 C 0.4389 0.34574 0.00052 0.0
O71 O 0.41935 0.33799 0.02297 0.0
O72 O 0.39873 0.28373 0.98256 0.0
C73 C 0.46906 0.25113 0.92529 0.0
O74 O 0.4845 0.24677 0.95548 0.0
C75 C 0.44394 0.24445 0.04396 0.0
O76 O 0.42212 0.23299 0.03127 0.0
O77 O 0.44966 0.32689 0.97882 0.0
C78 C 0.61107 0.28759 0.45513 0.0
O79 O 0.59522 0.26654 0.44506 0.0
O80 O 0.54669 0.29627 0.42649 0.0
Zn81 Zn 0.56302 0.31362 0.47476 0.0
O82 O 0.55356 0.29132 0.52312 0.0
C83 C 0.53072 0.36466 0.4691 0.0
O84 O 0.51442 0.34657 0.45232 0.0
O85 O 0.60167 0.3109 0.46878 0.0
C86 C 0.53049 0.28948 0.53606 0.0
O87 O 0.51162 0.30256 0.5171 0.0
C88 C 0.53505 0.272 0.42538 0.0
O89 O 0.53214 0.25695 0.45778 0.0
O90 O 0.55265 0.3554 0.48085 0.0
C91 C 0.37959 0.74305 0.51436 0.0
O92 O 0.39402 0.76512 0.52528 0.0
O93 O 0.44777 0.73747 0.47196 0.0
Zn94 Zn 0.42889 0.71519 0.51398 0.0
O95 O 0.43771 0.73014 0.56754 0.0
C96 C 0.46162 0.6647 0.51686 0.0
O97 O 0.47923 0.68385 0.52721 0.0
O98 O 0.3904 0.71893 0.50736 0.0
C99 C 0.45859 0.7433 0.57641 0.0
O100 O 0.47633 0.74764 0.54934 0.0
C101 C 0.4363 0.7447 0.44038 0.0
O102 O 0.41162 0.73824 0.43585 0.0
O103 O 0.43857 0.67312 0.50986 0.0
C104 C 0.96368 0.90552 0.98998 0.0
C105 C 0.96066 0.88929 0.0246 0.0
C106 C 0.97309 0.93388 0.99151 0.0
C107 C 0.01103 0.98361 0.05396 0.0
H108 H 0.97911 0.04331 0.99016 0.0
C109 C 0.03639 0.10459 0.07228 0.0
C110 C 0.03849 0.12136 0.038 0.0
C111 C 0.02705 0.07621 0.07049 0.0
C112 C 0.98846 0.02683 0.00781 0.0
H113 H 0.96504 0.8902 0.08799 0.0
H114 H 0.98133 0.9397 0.0906 0.0
H115 H 0.96242 0.99396 0.98725 0.0
H116 H 0.03261 0.12136 0.97486 0.0
H117 H 0.01666 0.07176 0.97171 0.0
H118 H 0.03714 0.01639 0.07441 0.0
C119 C 0.97667 0.93039 0.06226 0.0
C120 C 0.97887 0.99855 0.00616 0.0
C121 C 0.96718 0.90207 0.06076 0.0
C122 C 0.03116 0.10907 0.00186 0.0
C123 C 0.02186 0.08068 7e-05 0.0
C124 C 0.02067 0.01186 0.05554 0.0
C125 C 0.97977 0.9466 0.02765 0.0
C126 C 0.99002 0.97663 0.02927 0.0
C127 C 0.01962 0.06393 0.03438 0.0
C128 C 0.00948 0.03382 0.03252 0.0
H129 H 0.95888 0.8963 0.96163 0.0
H130 H 0.97552 0.9457 0.96428 0.0
H131 H 0.0203 0.96711 0.07168 0.0
H132 H 0.04178 0.11342 0.10061 0.0
H133 H 0.02526 0.06405 0.09754 0.0
C134 C 0.03228 0.89907 0.48483 0.0
C135 C 0.01521 0.87998 0.46556 0.0
C136 C 0.02604 0.92832 0.48881 0.0
C137 C 0.97074 0.97885 0.48844 0.0
H138 H 0.0241 0.0368 0.47127 0.0
C139 C 0.94808 0.10128 0.48289 0.0
C140 C 0.96599 0.12012 0.50081 0.0
C141 C 0.95379 0.07189 0.47867 0.0
C142 C 0.00904 0.02089 0.47664 0.0
H143 H 0.97816 0.87668 0.43538 0.0
H144 H 0.96733 0.92782 0.44219 0.0
H145 H 0.0346 0.98575 0.46348 0.0
H146 H 0.00382 0.12276 0.52884 0.0
H147 H 0.01361 0.07148 0.52196 0.0
H148 H 0.94521 0.01399 0.5018 0.0
C149 C 0.98545 0.92006 0.45451 0.0
C150 C 0.01506 0.99163 0.47212 0.0
C151 C 0.99173 0.8908 0.4504 0.0
C152 C 0.98963 0.10888 0.51472 0.0
C153 C -0.00468 0.07949 0.51056 0.0
C154 C 0.96472 0.00813 0.49305 0.0
C155 C 0.00256 0.93915 0.47371 0.0
C156 C -0.004 0.97027 0.47804 0.0
C157 C 0.97753 0.06066 0.49232 0.0
C158 C 0.98382 0.0295 0.48729 0.0
H159 H 0.0505 0.89145 0.49696 0.0
H160 H 0.03948 0.94238 0.5042 0.0
H161 H 0.95571 0.96289 0.49373 0.0
H162 H 0.92971 0.10925 0.47174 0.0
H163 H 0.93978 0.05806 0.46406 0.0
C164 C 0.54188 0.58616 0.00322 0.0
C165 C 0.52761 0.607 0.02407 0.0
C166 C 0.53251 0.55787 -0.00055 0.0
C167 C 0.47179 0.51489 0.00652 0.0
H168 H 0.51887 0.44974 0.01456 0.0
C169 C 0.43595 0.39716 0.02334 0.0
C170 C 0.44879 0.37583 0.00132 0.0
C171 C 0.44557 0.42543 0.02474 0.0
C172 C 0.50553 0.46773 0.01182 0.0
H173 H 0.49249 0.61434 0.05781 0.0
H174 H 0.47646 0.56504 0.05189 0.0
H175 H 0.53589 0.49888 0.01991 0.0
H176 H 0.48176 0.36752 0.9633 0.0
H177 H 0.49851 0.41688 0.96579 0.0
H178 H 0.4414 0.4837 -0.00105 0.0
C179 C 0.49462 0.57062 0.03773 0.0
C180 C 0.51527 0.49589 0.01483 0.0
C181 C 0.50392 0.59888 0.04136 0.0
C182 C 0.4714 0.38343 0.98058 0.0
C183 C 0.4811 0.41166 0.98217 0.0
C184 C 0.46205 0.48675 0.00369 0.0
C185 C 0.5087 0.54979 0.01655 0.0
C186 C 0.4985 0.51982 0.01241 0.0
C187 C 0.46832 0.43295 0.00432 0.0
C188 C 0.47878 0.46286 0.00647 0.0
H189 H 0.56016 0.59176 0.98942 0.0
H190 H 0.54372 0.54246 0.98258 0.0
H191 H 0.45839 0.53281 0.00375 0.0
H192 H 0.4185 0.39203 0.03968 0.0
H193 H 0.43544 0.44129 0.0424 0.0
C194 C 0.54152 0.41517 0.49055 0.0
C195 C 0.52362 0.39544 0.47445 0.0
C196 C 0.53482 0.44422 0.49555 0.0
C197 C 0.47838 0.49274 0.50466 0.0
H198 H 0.52781 0.5526 0.47646 0.0
C199 C 0.4503 0.61357 0.4991 0.0
C200 C 0.4686 0.63378 0.51289 0.0
C201 C 0.457 0.58445 0.49489 0.0
C202 C 0.5139 0.53617 0.48496 0.0
H203 H 0.48459 0.39079 0.45104 0.0
H204 H 0.47295 0.4415 0.45966 0.0
H205 H 0.53954 0.50189 0.4683 0.0
H206 H 0.50824 0.63916 0.53346 0.0
H207 H 0.5198 0.58832 0.52667 0.0
H208 H 0.45276 0.52696 0.5215 0.0
C209 C 0.4921 0.43443 0.46871 0.0
C210 C 0.52062 0.5071 0.48023 0.0
C211 C 0.49884 0.4054 0.46356 0.0
C212 C 0.49371 0.62419 0.52259 0.0
C213 C 0.50039 0.59505 0.51847 0.0
C214 C 0.47168 0.52181 0.50951 0.0
C215 C 0.51003 0.45417 0.4847 0.0
C216 C 0.50292 0.48506 0.48996 0.0
C217 C 0.48214 0.57483 0.50447 0.0
C218 C 0.48934 0.54389 0.49965 0.0
H219 H 0.56076 0.4082 0.49933 0.0
H220 H 0.54896 0.45882 0.50837 0.0
H221 H 0.46445 0.47626 0.51296 0.0
H222 H 0.43081 0.62025 0.49122 0.0
H223 H 0.44258 0.56955 0.48351 0.0
C224 C 0.04789 0.24496 0.14134 0.0
C225 C 0.03876 0.26146 0.10956 0.0
C226 C 0.043 0.25359 0.17981 0.0
C227 C -0.00476 0.29252 0.23717 0.0
H228 H 0.04431 0.27795 0.32147 0.0
C229 C 0.96152 0.28872 0.39757 0.0
C230 C 0.96864 0.26272 0.41608 0.0
C231 C 0.97398 0.29753 0.3631 0.0
C232 C 0.03045 0.28234 0.29825 0.0
H233 H 0.01798 0.30044 0.09318 0.0
H234 H 0.00913 0.31539 0.16084 0.0
H235 H 0.05915 0.27709 0.2534 0.0
H236 H -0.00436 0.22674 0.41475 0.0
H237 H 0.01716 0.24194 0.35477 0.0
H238 H 0.96625 0.2962 0.28176 0.0
C239 C 0.0201 0.29577 0.15575 0.0
C240 C 0.03893 0.28183 0.25934 0.0
C241 C 0.02518 0.28722 0.11709 0.0
C242 C 0.98956 0.24676 0.401 0.0
C243 C 0.00208 0.25563 0.36677 0.0
C244 C 0.98675 0.293 0.27609 0.0
C245 C 0.02877 0.27886 0.18747 0.0
C246 C 0.02118 0.28571 0.22837 0.0
C247 C 0.99391 0.28063 0.34679 0.0
C248 C 0.00406 0.28671 0.30692 0.0
H249 H 0.05852 0.22506 0.13658 0.0
H250 H 0.04956 0.23981 0.20357 0.0
H251 H 0.98107 0.2954 0.21393 0.0
H252 H 0.94556 0.30158 0.40863 0.0
H253 H 0.96745 0.31704 0.34851 0.0
C254 C 0.03923 0.75917 0.3448 0.0
C255 C 0.02945 0.74375 0.37708 0.0
C256 C 0.03434 0.74976 0.30664 0.0
C257 C 0.986 0.71221 0.24917 0.0
H258 H 0.03766 0.72048 0.16708 0.0
C259 C 0.95595 0.71744 0.08677 0.0
C260 C 0.96556 0.74262 0.06872 0.0
C261 C 0.96688 0.70755 0.12196 0.0
C262 C 0.02306 0.7178 0.18967 0.0
H263 H 0.00724 0.70603 0.39478 0.0
H264 H -0.00185 0.68987 0.32754 0.0
H265 H 0.05111 0.72184 0.23585 0.0
H266 H -0.00474 0.77589 0.0716 0.0
H267 H 0.01417 0.75882 0.13262 0.0
H268 H 0.95773 0.71006 0.20315 0.0
C269 C 0.00979 0.70913 0.33205 0.0
C270 C 0.03075 0.71858 0.22897 0.0
C271 C 0.01498 0.71838 0.37043 0.0
C272 C 0.98731 0.75655 0.08498 0.0
C273 C -0.00168 0.74657 0.11981 0.0
C274 C 0.97828 0.71154 0.20982 0.0
C275 C 0.01936 0.72484 0.29983 0.0
C276 C 0.01214 0.71712 0.25905 0.0
C277 C 0.98777 0.72249 0.13933 0.0
C278 C -0.0034 0.71568 0.17974 0.0
H279 H 0.05057 0.77871 0.34892 0.0
H280 H 0.04158 0.76261 0.28238 0.0
H281 H 0.97124 0.71115 0.27177 0.0
H282 H 0.93922 0.70622 0.07482 0.0
H283 H 0.95847 0.68883 0.13625 0.0
C284 C 0.97652 0.75975 0.57001 0.0
C285 C 0.00323 0.76003 0.56158 0.0
C286 C 0.9678 0.75248 0.6076 0.0
C287 C 0.98873 0.72296 0.70456 0.0
H288 H 0.94228 0.7816 0.74537 0.0
C289 C 0.98514 0.75628 0.8674 0.0
C290 C 0.96135 0.76545 0.88322 0.0
C291 C 0.98687 0.74855 0.82781 0.0
C292 C 0.9548 0.76462 0.73443 0.0
H293 H 0.04159 0.75073 0.585 0.0
H294 H 0.02648 0.73862 0.65044 0.0
H295 H 0.95078 0.77952 0.67543 0.0
H296 H 0.92039 0.7719 0.87067 0.0
H297 H 0.92339 0.75812 0.80186 0.0
H298 H 0.99352 0.70891 0.76411 0.0
C299 C 0.01219 0.74377 0.62813 0.0
C300 C 0.95965 0.76339 0.69421 0.0
C301 C 0.02088 0.751 0.59063 0.0
C302 C 0.9391 0.76535 0.85922 0.0
C303 C 0.94081 0.75749 0.81977 0.0
C304 C 0.98388 0.7242 0.74491 0.0
C305 C 0.98564 0.74534 0.6374 0.0
C306 C 0.9772 0.74307 0.67892 0.0
C307 C 0.96483 0.74971 0.80337 0.0
C308 C 0.96737 0.74554 0.76035 0.0
H309 H 0.96241 0.76631 0.54813 0.0
H310 H 0.94717 0.75345 0.61373 0.0
H311 H 0.00208 0.70679 0.69356 0.0
H312 H 0.0026 0.75604 0.8852 0.0
H313 H 0.00573 0.74295 0.81598 0.0
C314 C 0.02296 0.25434 0.8976 0.0
C315 C 0.00697 0.24193 0.9265 0.0
C316 C 0.01296 0.26103 0.86061 0.0
C317 C 0.96246 0.23495 0.79458 0.0
H318 H 0.98751 0.29648 0.72702 0.0
C319 C 0.93753 0.23613 0.6306 0.0
C320 C 0.95866 0.24093 0.6053 0.0
C321 C 0.93965 0.24218 0.6706 0.0
C322 C 0.98037 0.27918 0.74555 0.0
H323 H 0.9675 0.22899 0.94035 0.0
H324 H 0.94998 0.24089 0.87568 0.0
H325 H -0.00269 0.29774 0.79728 0.0
H326 H -0.00179 0.25695 0.60181 0.0
H327 H 0.00214 0.26691 0.67192 0.0
H328 H 0.94641 0.21575 0.74296 0.0
C329 C 0.97036 0.24494 0.88149 0.0
C330 C 0.98592 0.27993 0.78574 0.0
C331 C 0.98038 0.23823 0.91856 0.0
C332 C 0.98163 0.25294 0.62059 0.0
C333 C 0.98379 0.25887 0.66072 0.0
C334 C 0.95694 0.2342 0.7545 0.0
C335 C 0.98675 0.2555 0.85173 0.0
C336 C 0.97753 0.25745 0.81052 0.0
C337 C 0.96298 0.25302 0.68627 0.0
C338 C 0.96632 0.25594 0.72938 0.0
H339 H 0.04351 0.25769 0.90289 0.0
H340 H 0.02617 0.26891 0.8383 0.0
H341 H 0.95609 0.21702 0.81266 0.0
H342 H 0.91942 0.22727 0.61963 0.0
H343 H 0.92312 0.23792 0.6894 0.0
C344 C 0.54249 0.71836 0.14526 0.0
C345 C 0.54761 0.73907 0.11609 0.0
C346 C 0.53452 0.72688 0.18254 0.0
C347 C 0.50089 0.78408 0.23477 0.0
H348 H 0.52602 0.74167 0.32544 0.0
C349 C 0.43922 0.76109 0.37062 0.0
C350 C 0.45129 0.75669 0.40715 0.0
C351 C 0.45397 0.768 0.33757 0.0
C352 C 0.51912 0.75428 0.30074 0.0
H353 H 0.5484 0.78502 0.10317 0.0
H354 H 0.53407 0.79993 0.16875 0.0
H355 H 0.54755 0.73589 0.26251 0.0
H356 H 0.48802 0.75866 0.43847 0.0
H357 H 0.51377 0.77104 0.38076 0.0
H358 H 0.47195 0.80186 0.2729 0.0
C359 C 0.53638 0.77711 0.1625 0.0
C360 C 0.53129 0.75067 0.26455 0.0
C361 C 0.5446 0.76857 0.12507 0.0
C362 C 0.47818 0.7615 0.41059 0.0
C363 C 0.49294 0.76853 0.37752 0.0
C364 C 0.48867 0.78772 0.27108 0.0
C365 C 0.53136 0.75629 0.1916 0.0
C366 C 0.52166 0.76462 0.23092 0.0
C367 C 0.48112 0.77079 0.34039 0.0
C368 C 0.49706 0.77201 0.30413 0.0
H369 H 0.54459 0.69546 0.13936 0.0
H370 H 0.53029 0.7103 0.20411 0.0
H371 H 0.49308 0.79513 0.20931 0.0
H372 H 0.41851 0.75777 0.36702 0.0
H373 H 0.44423 0.76931 0.30941 0.0
C374 C 0.53645 0.2716 0.35227 0.0
C375 C 0.52652 0.26005 0.38732 0.0
C376 C 0.52885 0.26028 0.31613 0.0
C377 C 0.47509 0.22603 0.26707 0.0
H378 H 0.52548 0.21508 0.18378 0.0
C379 C 0.44266 0.21527 0.10604 0.0
C380 C 0.45583 0.23457 0.0811 0.0
C381 C 0.45256 0.20903 0.14338 0.0
C382 C 0.51116 0.21791 0.20675 0.0
H383 H 0.50087 0.22758 0.4121 0.0
H384 H 0.48695 0.20823 0.34834 0.0
H385 H 0.54041 0.22233 0.25116 0.0
H386 H 0.49047 0.26096 0.07467 0.0
H387 H 0.50744 0.25048 0.13953 0.0
H388 H 0.44589 0.22357 0.22246 0.0
C389 C 0.50087 0.22583 0.34916 0.0
C390 C 0.51971 0.22199 0.24524 0.0
C391 C 0.50882 0.23689 0.38551 0.0
C392 C 0.47976 0.24616 0.09327 0.0
C393 C 0.48964 0.23989 0.1304 0.0
C394 C 0.46652 0.22219 0.22847 0.0
C395 C 0.51092 0.2374 0.3142 0.0
C396 C 0.50179 0.2272 0.27544 0.0
C397 C 0.47585 0.22185 0.15628 0.0
C398 C 0.48453 0.21928 0.19769 0.0
H399 H 0.55023 0.28934 0.3527 0.0
H400 H 0.53655 0.26991 0.28957 0.0
H401 H 0.4609 0.23012 0.28986 0.0
H402 H 0.42423 0.20586 0.09738 0.0
H403 H 0.44164 0.19482 0.16255 0.0
C404 C 0.45813 0.24322 0.8548 0.0
C405 C 0.47605 0.24062 0.88576 0.0
C406 C 0.46552 0.2371 0.81637 0.0
C407 C 0.52346 0.24064 0.75613 0.0
H408 H 0.47587 0.21472 0.67492 0.0
C409 C 0.54569 0.26006 0.5933 0.0
C410 C 0.52528 0.27354 0.5728 0.0
C411 C 0.54121 0.24699 0.62962 0.0
C412 C 0.48942 0.22188 0.6973 0.0
H413 H 0.51522 0.22753 0.90116 0.0
H414 H 0.5282 0.21681 0.83365 0.0
H415 H 0.46532 0.20624 0.74391 0.0
H416 H 0.48394 0.2826 0.57339 0.0
H417 H 0.47619 0.26017 0.63703 0.0
H418 H 0.54698 0.25745 0.70981 0.0
C419 C 0.5085 0.22392 0.83922 0.0
C420 C 0.48342 0.217 0.73674 0.0
C421 C 0.50105 0.22997 0.87784 0.0
C422 C 0.50009 0.27253 0.58853 0.0
C423 C 0.49561 0.25943 0.62485 0.0
C424 C 0.52949 0.24544 0.71675 0.0
C425 C 0.49101 0.22825 0.80797 0.0
C426 C 0.4999 0.22735 0.76659 0.0
C427 C 0.51623 0.24707 0.64615 0.0
C428 C 0.51206 0.23708 0.687 0.0
H429 H 0.43861 0.25108 0.85999 0.0
H430 H 0.45164 0.241 0.79302 0.0
H431 H 0.53644 0.2492 0.77837 0.0
H432 H 0.5653 0.2602 0.58178 0.0
H433 H 0.55742 0.23736 0.64517 0.0
C434 C 0.49446 0.73631 0.92873 0.0
C435 C 0.52111 0.73105 0.93417 0.0
C436 C 0.48517 0.74598 0.89242 0.0
C437 C 0.50519 0.77661 0.7963 0.0
H438 H 0.44979 0.72835 0.75529 0.0
C439 C 0.48869 0.75727 0.63107 0.0
C440 C 0.46338 0.75158 0.61765 0.0
C441 C 0.49342 0.76175 0.67105 0.0
C442 C 0.46485 0.74256 0.76639 0.0
H443 H 0.55909 0.73356 0.90673 0.0
H444 H 0.54289 0.75019 0.84355 0.0
H445 H 0.46196 0.72447 0.82394 0.0
H446 H 0.42293 0.7483 0.63495 0.0
H447 H 0.43107 0.75681 0.70442 0.0
H448 H 0.50853 0.79413 0.7383 0.0
C449 C 0.52916 0.74698 0.86724 0.0
C450 C 0.47184 0.7403 0.80584 0.0
C451 C 0.53841 0.73716 0.90336 0.0
C452 C 0.44272 0.75216 0.64454 0.0
C453 C 0.44739 0.75695 0.68437 0.0
C454 C 0.4981 0.779 0.75679 0.0
C455 C 0.50239 0.75079 0.86107 0.0
C456 C 0.49251 0.75675 0.82098 0.0
C457 C 0.47288 0.76092 0.69829 0.0
C458 C 0.47827 0.76146 0.74115 0.0
H459 H 0.48067 0.73198 0.952 0.0
H460 H 0.46446 0.74901 0.88856 0.0
H461 H 0.52101 0.78981 0.80735 0.0
H462 H 0.50499 0.75698 0.611 0.0
H463 H 0.51332 0.76446 0.68076 0.0
C464 C 0.34353 0.28356 0.98518 0.0
C465 C 0.35812 0.26037 0.97028 0.0
C466 C 0.31653 0.28149 0.98802 0.0
C467 C 0.26017 0.23989 0.95052 0.0
H468 H 0.22587 0.27074 0.04277 0.0
C469 C 0.15307 0.21542 0.98832 0.0
C470 C 0.13788 0.23891 0.0008 0.0
C471 C 0.17989 0.21853 0.98369 0.0
C472 C 0.23517 0.26228 0.01667 0.0
H473 H 0.35587 0.21681 0.94679 0.0
H474 H 0.30885 0.21299 0.95249 0.0
H475 H 0.27288 0.27523 0.03644 0.0
H476 H 0.13886 0.28407 0.01817 0.0
H477 H 0.18571 0.28941 0.01019 0.0
H478 H 0.2224 0.22656 0.93113 0.0
C479 C 0.31819 0.23299 0.96127 0.0
C480 C 0.26208 0.2649 0.01298 0.0
C481 C 0.34517 0.23511 0.95822 0.0
C482 C 0.15003 0.26555 0.00854 0.0
C483 C 0.17686 0.26859 0.00417 0.0
C484 C 0.23327 0.23712 0.95434 0.0
C485 C 0.30355 0.25614 0.97623 0.0
C486 C 0.2749 0.25371 0.97988 0.0
C487 C 0.19204 0.24511 0.99173 0.0
C488 C 0.22053 0.24827 0.98747 0.0
H489 H 0.35295 0.30338 -0.00547 0.0
H490 H 0.3058 0.29988 -0.00087 0.0
H491 H 0.26938 0.23146 0.92434 0.0
H492 H 0.14428 0.19461 0.98212 0.0
H493 H 0.19117 0.19999 0.97442 0.0
C494 C 0.66165 0.70532 0.03017 0.0
C495 C 0.64578 0.72018 0.00327 0.0
C496 C 0.6878 0.7129 0.03458 0.0
C497 C 0.74185 0.74857 0.98387 0.0
H498 H 0.76965 0.76136 0.08843 0.0
C499 C 0.84173 0.80068 0.00539 0.0
C500 C 0.85813 0.78866 0.03405 0.0
C501 C 0.81555 0.79297 0.0037 0.0
C502 C 0.76228 0.75755 0.05907 0.0
H503 H 0.64499 0.75415 0.95931 0.0
H504 H 0.69064 0.76712 0.96674 0.0
H505 H 0.72479 0.74493 0.08047 0.0
H506 H 0.85978 0.75995 0.08436 0.0
H507 H 0.81408 0.74599 0.08094 0.0
H508 H 0.77922 0.76073 0.96229 0.0
C509 C 0.68286 0.74966 0.98442 0.0
C510 C 0.73661 0.74815 0.05454 0.0
C511 C 0.6567 0.7423 0.98029 0.0
C512 C 0.84758 0.76964 0.06201 0.0
C513 C 0.82138 0.76169 0.06008 0.0
C514 C 0.7675 0.75774 0.98837 0.0
C515 C 0.6986 0.73522 0.01183 0.0
C516 C 0.72611 0.74383 0.01687 0.0
C517 C 0.80521 0.77281 0.03036 0.0
C518 C 0.77797 0.76264 0.02599 0.0
H519 H 0.65377 0.68821 0.04836 0.0
H520 H 0.6996 0.70126 0.05567 0.0
H521 H 0.73435 0.74498 0.95451 0.0
H522 H 0.84923 0.81566 0.98371 0.0
H523 H 0.80349 0.80253 0.98108 0.0
C524 C 0.14291 0.74047 0.47707 0.0
C525 C 0.13078 0.76748 0.4814 0.0
C526 C 0.16985 0.73801 0.48053 0.0
C527 C 0.23035 0.7809 0.476 0.0
H528 H 0.25968 0.7154 0.53166 0.0
C529 C 0.33919 0.77309 0.51623 0.0
C530 C 0.35117 0.74617 0.51018 0.0
C531 C 0.31228 0.77591 0.51254 0.0
C532 C 0.25177 0.73366 0.51571 0.0
H533 H 0.13736 0.81308 0.49296 0.0
H534 H 0.18432 0.80868 0.49956 0.0
H535 H 0.21264 0.7199 0.52572 0.0
H536 H 0.34435 0.70112 0.49532 0.0
H537 H 0.29743 0.70611 0.48878 0.0
H538 H 0.26953 0.79471 0.46622 0.0
C539 C 0.17306 0.78949 0.49287 0.0
C540 C 0.22484 0.73623 0.51227 0.0
C541 C 0.14613 0.79197 0.48931 0.0
C542 C 0.33571 0.72215 0.50028 0.0
C543 C 0.30882 0.72495 0.49674 0.0
C544 C 0.25728 0.77837 0.47956 0.0
C545 C 0.18522 0.76248 0.4885 0.0
C546 C 0.21383 0.75984 0.4923 0.0
C547 C 0.29682 0.75184 0.50289 0.0
C548 C 0.26825 0.75469 0.49937 0.0
H549 H 0.13163 0.72121 0.4708 0.0
H550 H 0.17867 0.71696 0.47647 0.0
H551 H 0.22248 0.79911 0.45993 0.0
H552 H 0.35056 0.79199 0.52392 0.0
H553 H 0.30352 0.79684 0.51781 0.0
C554 C 0.6497 0.25849 0.43499 0.0
C555 C 0.63946 0.28353 0.45245 0.0
C556 C 0.67648 0.25379 0.43437 0.0
C557 C 0.7401 0.2903 0.4478 0.0
H558 H 0.76362 0.21312 0.47466 0.0
C559 C 0.84402 0.26543 0.50087 0.0
C560 C 0.85601 0.24026 0.48662 0.0
C561 C 0.81803 0.27117 0.49217 0.0
C562 C 0.75737 0.23467 0.46656 0.0
H563 H 0.64928 0.32361 0.48216 0.0
H564 H 0.69598 0.31515 0.48177 0.0
H565 H 0.71732 0.22247 0.46747 0.0
H566 H 0.8503 0.20158 0.45151 0.0
H567 H 0.80479 0.21161 0.43645 0.0
H568 H 0.78024 0.30258 0.44798 0.0
C569 C 0.68336 0.29934 0.46799 0.0
C570 C 0.73084 0.24005 0.46237 0.0
C571 C 0.65658 0.30411 0.46844 0.0
C572 C 0.84158 0.22112 0.46303 0.0
C573 C 0.81552 0.22679 0.45452 0.0
C574 C 0.76664 0.28494 0.45218 0.0
C575 C 0.69359 0.27396 0.45136 0.0
C576 C 0.72188 0.26799 0.45334 0.0
C577 C 0.80346 0.25179 0.4692 0.0
C578 C 0.77551 0.25714 0.46199 0.0
H579 H 0.63703 0.24233 0.42211 0.0
H580 H 0.68377 0.23425 0.42075 0.0
H581 H 0.73384 0.31195 0.4402 0.0
H582 H 0.85463 0.28064 0.51906 0.0
H583 H 0.80916 0.29044 0.50425 0.0
loop_
_geom_bond_atom_site_label_1
_geom_bond_atom_site_label_2
_geom_bond_distance
_geom_bond_site_symmetry_2
_ccdc_geom_bond_type
C0 O1 1.160 . S
C0 O7 1.185 1_554 S
O1 C0 1.160 . S
O2 Zn3 1.899 . S
O2 C10 1.284 . S
Zn3 O2 1.899 . S
Zn3 O4 2.032 1_554 S
Zn3 O7 2.086 1_554 S
Zn3 O12 1.977 1_554 S
O4 Zn3 2.032 1_556 S
O4 C8 1.278 . S
C5 O6 1.203 . S
C5 O12 1.267 1_554 S
O6 C5 1.203 . S
O7 C0 1.185 1_556 S
O7 Zn3 2.086 1_556 S
C8 O4 1.278 . S
C8 O9 1.211 . S
O9 C8 1.211 . S
C10 O2 1.284 . S
C10 O11 1.273 . S
O11 C10 1.273 . S
O12 Zn3 1.977 1_556 S
O12 C5 1.267 1_556 S
C13 O14 1.160 . S
C13 O20 1.185 1_554 S
O14 C13 1.160 . S
O15 Zn16 1.899 . S
O15 C23 1.284 . S
Zn16 O15 1.899 . S
Zn16 O17 2.032 1_554 S
Zn16 O20 2.086 1_554 S
Zn16 O25 1.977 1_554 S
O17 Zn16 2.032 1_556 S
O17 C21 1.278 . S
C18 O19 1.203 . S
C18 O25 1.267 1_554 S
O19 C18 1.203 . S
O20 C13 1.185 1_556 S
O20 Zn16 2.086 1_556 S
C21 O17 1.278 . S
C21 O22 1.211 . S
O22 C21 1.211 . S
C23 O15 1.284 . S
C23 O24 1.273 . S
O24 C23 1.273 . S
O25 Zn16 1.977 1_556 S
O25 C18 1.267 1_556 S
C26 O27 1.160 . S
C26 O33 1.185 . S
O27 C26 1.160 . S
O28 Zn29 1.899 . S
O28 C36 1.284 . S
Zn29 O28 1.899 . S
Zn29 O30 2.032 . S
Zn29 O33 2.086 . S
Zn29 O38 1.977 . S
O30 Zn29 2.032 . S
O30 C34 1.278 . S
C31 O32 1.203 . S
C31 O38 1.267 . S
O32 C31 1.203 . S
O33 C26 1.185 . S
O33 Zn29 2.086 . S
C34 O30 1.278 . S
C34 O35 1.211 . S
O35 C34 1.211 . S
C36 O28 1.284 . S
C36 O37 1.273 . S
O37 C36 1.273 . S
O38 Zn29 1.977 . S
O38 C31 1.267 . S
C39 O40 1.160 . S
C39 O46 1.185 . S
O40 C39 1.160 . S
O41 Zn42 1.899 . S
O41 C49 1.284 . S
Zn42 O41 1.899 . S
Zn42 O43 2.032 . S
Zn42 O46 2.086 . S
Zn42 O51 1.977 . S
O43 Zn42 2.032 . S
O43 C47 1.278 . S
C44 O45 1.203 . S
C44 O51 1.267 . S
O45 C44 1.203 . S
O46 C39 1.185 . S
O46 Zn42 2.086 . S
C47 O43 1.278 . S
C47 O48 1.211 . S
O48 C47 1.211 . S
C49 O41 1.284 . S
C49 O50 1.273 . S
O50 C49 1.273 . S
O51 Zn42 1.977 . S
O51 C44 1.267 . S
C52 O53 1.160 . S
C52 O59 1.185 1_554 S
O53 C52 1.160 . S
O54 Zn55 1.899 . S
O54 C62 1.284 . S
Zn55 O54 1.899 . S
Zn55 O56 2.032 1_554 S
Zn55 O59 2.086 1_554 S
Zn55 O64 1.977 1_554 S
O56 Zn55 2.032 1_556 S
O56 C60 1.278 . S
C57 O58 1.203 . S
C57 O64 1.267 1_554 S
O58 C57 1.203 . S
O59 C52 1.185 1_556 S
O59 Zn55 2.086 1_556 S
C60 O56 1.278 . S
C60 O61 1.211 . S
O61 C60 1.211 . S
C62 O54 1.284 . S
C62 O63 1.273 . S
O63 C62 1.273 . S
O64 Zn55 1.977 1_556 S
O64 C57 1.267 1_556 S
C65 O66 1.160 . S
C65 O72 1.185 1_554 S
O66 C65 1.160 . S
O67 Zn68 1.899 . S
O67 C75 1.284 . S
Zn68 O67 1.899 . S
Zn68 O69 2.032 1_554 S
Zn68 O72 2.086 1_554 S
Zn68 O77 1.977 1_554 S
O69 Zn68 2.032 1_556 S
O69 C73 1.278 . S
C70 O71 1.203 . S
C70 O77 1.267 1_554 S
O71 C70 1.203 . S
O72 C65 1.185 1_556 S
O72 Zn68 2.086 1_556 S
C73 O69 1.278 . S
C73 O74 1.211 . S
O74 C73 1.211 . S
C75 O67 1.284 . S
C75 O76 1.273 . S
O76 C75 1.273 . S
O77 Zn68 1.977 1_556 S
O77 C70 1.267 1_556 S
C78 O79 1.160 . S
C78 O85 1.185 . S
O79 C78 1.160 . S
O80 Zn81 1.899 . S
O80 C88 1.284 . S
Zn81 O80 1.899 . S
Zn81 O82 2.032 . S
Zn81 O85 2.086 . S
Zn81 O90 1.977 . S
O82 Zn81 2.032 . S
O82 C86 1.278 . S
C83 O84 1.203 . S
C83 O90 1.267 . S
O84 C83 1.203 . S
O85 C78 1.185 . S
O85 Zn81 2.086 . S
C86 O82 1.278 . S
C86 O87 1.211 . S
O87 C86 1.211 . S
C88 O80 1.284 . S
C88 O89 1.273 . S
O89 C88 1.273 . S
O90 Zn81 1.977 . S
O90 C83 1.267 . S
C91 O92 1.160 . S
C91 O98 1.185 . S
O92 C91 1.160 . S
O93 Zn94 1.899 . S
O93 C101 1.284 . S
Zn94 O93 1.899 . S
Zn94 O95 2.032 . S
Zn94 O98 2.086 . S
Zn94 O103 1.977 . S
O95 Zn94 2.032 . S
O95 C99 1.278 . S
C96 O97 1.203 . S
C96 O103 1.267 . S
O97 C96 1.203 . S
O98 C91 1.185 . S
O98 Zn94 2.086 . S
C99 O95 1.278 . S
C99 O100 1.211 . S
O100 C99 1.211 . S
C101 O93 1.284 . S
C101 O102 1.273 . S
O102 C101 1.273 . S
O103 Zn94 1.977 . S
O103 C96 1.267 . S
C104 C105 1.349 1_556 S
C104 C106 1.327 . S
C104 H129 0.950 . S
C105 C104 1.349 1_554 S
C105 C121 1.349 . S
C106 C104 1.327 . S
C106 C125 1.429 1_556 S
C106 H130 0.950 . S
C107 C124 1.574 1_565 S
C107 C126 1.368 1_455 S
C107 H131 0.949 . S
H108 C112 0.949 . S
C109 C110 1.349 . S
C109 C111 1.327 . S
C109 H132 0.950 . S
C110 C109 1.349 . S
C110 C122 1.349 1_554 S
C111 C109 1.327 . S
C111 C127 1.429 . S
C111 H133 0.950 . S
C112 H108 0.949 . S
C112 C120 1.574 1_545 S
C112 C128 1.368 1_656 S
H113 C121 0.950 . S
H114 C119 0.950 1_455 S
H115 C120 0.949 . S
H116 C122 0.950 . S
H117 C123 0.950 1_655 S
H118 C124 0.949 . S
C119 H114 0.950 1_655 S
C119 C121 1.327 . S
C119 C125 1.429 . S
C120 C112 1.574 1_565 S
C120 H115 0.949 . S
C120 C126 1.368 1_556 S
C121 C105 1.349 . S
C121 H113 0.950 . S
C121 C119 1.327 . S
C122 C110 1.349 1_556 S
C122 H116 0.950 . S
C122 C123 1.327 . S
C123 H117 0.950 1_455 S
C123 C122 1.327 . S
C123 C127 1.429 1_556 S
C124 C107 1.574 1_545 S
C124 H118 0.949 . S
C124 C128 1.368 . S
C125 C106 1.429 1_554 S
C125 C119 1.429 . S
C125 C126 1.523 . S
C126 C107 1.368 1_655 S
C126 C120 1.368 1_554 S
C126 C125 1.523 . S
C127 C111 1.429 . S
C127 C123 1.429 1_554 S
C127 C128 1.523 . S
C128 C112 1.368 1_454 S
C128 C124 1.368 . S
C128 C127 1.523 . S
H129 C104 0.950 . S
H130 C106 0.950 . S
H131 C107 0.949 . S
H132 C109 0.950 . S
H133 C111 0.950 . S
C134 C135 1.349 . S
C134 C136 1.327 . S
C134 H159 0.950 . S
C135 C134 1.349 . S
C135 C151 1.349 . S
C136 C134 1.327 . S
C136 C155 1.429 . S
C136 H160 0.950 . S
C137 C154 1.574 1_565 S
C137 C156 1.368 1_655 S
C137 H161 0.949 . S
H138 C142 0.949 . S
C139 C140 1.349 . S
C139 C141 1.327 . S
C139 H162 0.950 . S
C140 C139 1.349 . S
C140 C152 1.349 . S
C141 C139 1.327 . S
C141 C157 1.429 . S
C141 H163 0.950 . S
C142 H138 0.949 . S
C142 C150 1.574 1_545 S
C142 C158 1.368 1_455 S
H143 C151 0.950 . S
H144 C149 0.950 1_655 S
H145 C150 0.949 . S
H146 C152 0.950 . S
H147 C153 0.950 1_455 S
H148 C154 0.949 . S
C149 H144 0.950 1_455 S
C149 C151 1.327 . S
C149 C155 1.429 . S
C150 C142 1.574 1_565 S
C150 H145 0.949 . S
C150 C156 1.368 . S
C151 C135 1.349 . S
C151 H143 0.950 . S
C151 C149 1.327 . S
C152 C140 1.349 . S
C152 H146 0.950 . S
C152 C153 1.327 . S
C153 H147 0.950 1_655 S
C153 C152 1.327 . S
C153 C157 1.429 . S
C154 C137 1.574 1_545 S
C154 H148 0.949 . S
C154 C158 1.368 . S
C155 C136 1.429 . S
C155 C149 1.429 . S
C155 C156 1.523 . S
C156 C137 1.368 1_455 S
C156 C150 1.368 . S
C156 C155 1.523 . S
C157 C141 1.429 . S
C157 C153 1.429 . S
C157 C158 1.523 . S
C158 C142 1.368 1_655 S
C158 C154 1.368 . S
C158 C157 1.523 . S
H159 C134 0.950 . S
H160 C136 0.950 . S
H161 C137 0.949 . S
H162 C139 0.950 . S
H163 C141 0.950 . S
C164 C165 1.349 1_556 S
C164 C166 1.327 . S
C164 H189 0.950 . S
C165 C164 1.349 1_554 S
C165 C181 1.349 . S
C166 C164 1.327 . S
C166 C185 1.429 1_556 S
C166 H190 0.950 . S
C167 C184 1.574 . S
C167 C186 1.368 . S
C167 H191 0.949 . S
H168 C172 0.949 . S
C169 C170 1.349 . S
C169 C171 1.327 . S
C169 H192 0.950 . S
C170 C169 1.349 . S
C170 C182 1.349 1_554 S
C171 C169 1.327 . S
C171 C187 1.429 . S
C171 H193 0.950 . S
C172 H168 0.949 . S
C172 C180 1.574 . S
C172 C188 1.368 1_556 S
H173 C181 0.950 . S
H174 C179 0.950 . S
H175 C180 0.949 . S
H176 C182 0.950 . S
H177 C183 0.950 . S
H178 C184 0.949 . S
C179 H174 0.950 . S
C179 C181 1.327 . S
C179 C185 1.429 . S
C180 C172 1.574 . S
C180 H175 0.949 . S
C180 C186 1.368 1_556 S
C181 C165 1.349 . S
C181 H173 0.950 . S
C181 C179 1.327 . S
C182 C170 1.349 1_556 S
C182 H176 0.950 . S
C182 C183 1.327 . S
C183 H177 0.950 . S
C183 C182 1.327 . S
C183 C187 1.429 1_556 S
C184 C167 1.574 . S
C184 H178 0.949 . S
C184 C188 1.368 . S
C185 C166 1.429 1_554 S
C185 C179 1.429 . S
C185 C186 1.523 . S
C186 C167 1.368 . S
C186 C180 1.368 1_554 S
C186 C185 1.523 . S
C187 C171 1.429 . S
C187 C183 1.429 1_554 S
C187 C188 1.523 . S
C188 C172 1.368 1_554 S
C188 C184 1.368 . S
C188 C187 1.523 . S
H189 C164 0.950 . S
H190 C166 0.950 . S
H191 C167 0.949 . S
H192 C169 0.950 . S
H193 C171 0.950 . S
C194 C195 1.349 . S
C194 C196 1.327 . S
C194 H219 0.950 . S
C195 C194 1.349 . S
C195 C211 1.349 . S
C196 C194 1.327 . S
C196 C215 1.429 . S
C196 H220 0.950 . S
C197 C214 1.574 . S
C197 C216 1.368 . S
C197 H221 0.949 . S
H198 C202 0.949 . S
C199 C200 1.349 . S
C199 C201 1.327 . S
C199 H222 0.950 . S
C200 C199 1.349 . S
C200 C212 1.349 . S
C201 C199 1.327 . S
C201 C217 1.429 . S
C201 H223 0.950 . S
C202 H198 0.949 . S
C202 C210 1.574 . S
C202 C218 1.368 . S
H203 C211 0.950 . S
H204 C209 0.950 . S
H205 C210 0.949 . S
H206 C212 0.950 . S
H207 C213 0.950 . S
H208 C214 0.949 . S
C209 H204 0.950 . S
C209 C211 1.327 . S
C209 C215 1.429 . S
C210 C202 1.574 . S
C210 H205 0.949 . S
C210 C216 1.368 . S
C211 C195 1.349 . S
C211 H203 0.950 . S
C211 C209 1.327 . S
C212 C200 1.349 . S
C212 H206 0.950 . S
C212 C213 1.327 . S
C213 H207 0.950 . S
C213 C212 1.327 . S
C213 C217 1.429 . S
C214 C197 1.574 . S
C214 H208 0.949 . S
C214 C218 1.368 . S
C215 C196 1.429 . S
C215 C209 1.429 . S
C215 C216 1.523 . S
C216 C197 1.368 . S
C216 C210 1.368 . S
C216 C215 1.523 . S
C217 C201 1.429 . S
C217 C213 1.429 . S
C217 C218 1.523 . S
C218 C202 1.368 . S
C218 C214 1.368 . S
C218 C217 1.523 . S
H219 C194 0.950 . S
H220 C196 0.950 . S
H221 C197 0.949 . S
H222 C199 0.950 . S
H223 C201 0.950 . S
C224 C225 1.349 . S
C224 C226 1.327 . S
C224 H249 0.950 . S
C225 C224 1.349 . S
C225 C241 1.349 . S
C226 C224 1.327 . S
C226 C245 1.429 . S
C226 H250 0.950 . S
C227 C244 1.574 . S
C227 C246 1.368 1_655 S
C227 H251 0.949 . S
H228 C232 0.949 . S
C229 C230 1.349 . S
C229 C231 1.327 . S
C229 H252 0.950 . S
C230 C229 1.349 . S
C230 C242 1.349 . S
C231 C229 1.327 . S
C231 C247 1.429 . S
C231 H253 0.950 . S
C232 H228 0.949 . S
C232 C240 1.574 . S
C232 C248 1.368 1_455 S
H233 C241 0.950 . S
H234 C239 0.950 1_655 S
H235 C240 0.949 . S
H236 C242 0.950 . S
H237 C243 0.950 1_455 S
H238 C244 0.949 . S
C239 H234 0.950 1_455 S
C239 C241 1.327 . S
C239 C245 1.429 . S
C240 C232 1.574 . S
C240 H235 0.949 . S
C240 C246 1.368 . S
C241 C225 1.349 . S
C241 H233 0.950 . S
C241 C239 1.327 . S
C242 C230 1.349 . S
C242 H236 0.950 . S
C242 C243 1.327 . S
C243 H237 0.950 1_655 S
C243 C242 1.327 . S
C243 C247 1.429 . S
C244 C227 1.574 . S
C244 H238 0.949 . S
C244 C248 1.368 . S
C245 C226 1.429 . S
C245 C239 1.429 . S
C245 C246 1.523 . S
C246 C227 1.368 1_455 S
C246 C240 1.368 . S
C246 C245 1.523 . S
C247 C231 1.429 . S
C247 C243 1.429 . S
C247 C248 1.523 . S
C248 C232 1.368 1_655 S
C248 C244 1.368 . S
C248 C247 1.523 . S
H249 C224 0.950 . S
H250 C226 0.950 . S
H251 C227 0.949 . S
H252 C229 0.950 . S
H253 C231 0.950 . S
C254 C255 1.349 . S
C254 C256 1.327 . S
C254 H279 0.950 . S
C255 C254 1.349 . S
C255 C271 1.349 . S
C256 C254 1.327 . S
C256 C275 1.429 . S
C256 H280 0.950 . S
C257 C274 1.574 . S
C257 C276 1.368 1_655 S
C257 H281 0.949 . S
H258 C262 0.949 . S
C259 C260 1.349 . S
C259 C261 1.327 . S
C259 H282 0.950 . S
C260 C259 1.349 . S
C260 C272 1.349 . S
C261 C259 1.327 . S
C261 C277 1.429 . S
C261 H283 0.950 . S
C262 H258 0.949 . S
C262 C270 1.574 . S
C262 C278 1.368 1_455 S
H263 C271 0.950 . S
H264 C269 0.950 1_655 S
H265 C270 0.949 . S
H266 C272 0.950 . S
H267 C273 0.950 1_455 S
H268 C274 0.949 . S
C269 H264 0.950 1_455 S
C269 C271 1.327 . S
C269 C275 1.429 . S
C270 C262 1.574 . S
C270 H265 0.949 . S
C270 C276 1.368 . S
C271 C255 1.349 . S
C271 H263 0.950 . S
C271 C269 1.327 . S
C272 C260 1.349 . S
C272 H266 0.950 . S
C272 C273 1.327 . S
C273 H267 0.950 1_655 S
C273 C272 1.327 . S
C273 C277 1.429 . S
C274 C257 1.574 . S
C274 H268 0.949 . S
C274 C278 1.368 . S
C275 C256 1.429 . S
C275 C269 1.429 . S
C275 C276 1.523 . S
C276 C257 1.368 1_455 S
C276 C270 1.368 . S
C276 C275 1.523 . S
C277 C261 1.429 . S
C277 C273 1.429 . S
C277 C278 1.523 . S
C278 C262 1.368 1_655 S
C278 C274 1.368 . S
C278 C277 1.523 . S
H279 C254 0.950 . S
H280 C256 0.950 . S
H281 C257 0.949 . S
H282 C259 0.950 . S
H283 C261 0.950 . S
C284 C285 1.349 . S
C284 C286 1.327 . S
C284 H309 0.950 . S
C285 C284 1.349 . S
C285 C301 1.349 . S
C286 C284 1.327 . S
C286 C305 1.429 . S
C286 H310 0.950 1_455 S
C287 C304 1.574 . S
C287 C306 1.368 . S
C287 H311 0.949 . S
H288 C292 0.949 . S
C289 C290 1.349 . S
C289 C291 1.327 . S
C289 H312 0.950 . S
C290 C289 1.349 . S
C290 C302 1.349 . S
C291 C289 1.327 . S
C291 C307 1.429 . S
C291 H313 0.950 1_655 S
C292 H288 0.949 . S
C292 C300 1.574 . S
C292 C308 1.368 . S
H293 C301 0.950 . S
H294 C299 0.950 . S
H295 C300 0.949 . S
H296 C302 0.950 . S
H297 C303 0.950 . S
H298 C304 0.949 . S
C299 H294 0.950 . S
C299 C301 1.327 . S
C299 C305 1.429 . S
C300 C292 1.574 . S
C300 H295 0.949 . S
C300 C306 1.368 1_655 S
C301 C285 1.349 . S
C301 H293 0.950 . S
C301 C299 1.327 . S
C302 C290 1.349 . S
C302 H296 0.950 . S
C302 C303 1.327 . S
C303 H297 0.950 . S
C303 C302 1.327 . S
C303 C307 1.429 . S
C304 C287 1.574 . S
C304 H298 0.949 . S
C304 C308 1.368 1_455 S
C305 C286 1.429 . S
C305 C299 1.429 . S
C305 C306 1.523 . S
C306 C287 1.368 . S
C306 C300 1.368 1_455 S
C306 C305 1.523 . S
C307 C291 1.429 . S
C307 C303 1.429 . S
C307 C308 1.523 . S
C308 C292 1.368 . S
C308 C304 1.368 1_655 S
C308 C307 1.523 . S
H309 C284 0.950 . S
H310 C286 0.950 1_655 S
H311 C287 0.949 . S
H312 C289 0.950 . S
H313 C291 0.950 1_455 S
C314 C315 1.349 . S
C314 C316 1.327 . S
C314 H339 0.950 . S
C315 C314 1.349 . S
C315 C331 1.349 . S
C316 C314 1.327 . S
C316 C335 1.429 . S
C316 H340 0.950 . S
C317 C334 1.574 . S
C317 C336 1.368 1_655 S
C317 H341 0.949 . S
H318 C322 0.949 . S
C319 C320 1.349 . S
C319 C321 1.327 . S
C319 H342 0.950 . S
C320 C319 1.349 . S
C320 C332 1.349 . S
C321 C319 1.327 . S
C321 C337 1.429 . S
C321 H343 0.950 . S
C322 H318 0.949 . S
C322 C330 1.574 . S
C322 C338 1.368 1_455 S
H323 C331 0.950 . S
H324 C329 0.950 1_655 S
H325 C330 0.949 . S
H326 C332 0.950 . S
H327 C333 0.950 1_455 S
H328 C334 0.949 . S
C329 H324 0.950 1_455 S
C329 C331 1.327 . S
C329 C335 1.429 . S
C330 C322 1.574 . S
C330 H325 0.949 . S
C330 C336 1.368 . S
C331 C315 1.349 . S
C331 H323 0.950 . S
C331 C329 1.327 . S
C332 C320 1.349 . S
C332 H326 0.950 . S
C332 C333 1.327 . S
C333 H327 0.950 1_655 S
C333 C332 1.327 . S
C333 C337 1.429 . S
C334 C317 1.574 . S
C334 H328 0.949 . S
C334 C338 1.368 . S
C335 C316 1.429 . S
C335 C329 1.429 . S
C335 C336 1.523 . S
C336 C317 1.368 1_455 S
C336 C330 1.368 . S
C336 C335 1.523 . S
C337 C321 1.429 . S
C337 C333 1.429 . S
C337 C338 1.523 . S
C338 C322 1.368 1_655 S
C338 C334 1.368 . S
C338 C337 1.523 . S
H339 C314 0.950 . S
H340 C316 0.950 . S
H341 C317 0.949 . S
H342 C319 0.950 . S
H343 C321 0.950 . S
C344 C345 1.349 . S
C344 C346 1.327 . S
C344 H369 0.950 . S
C345 C344 1.349 . S
C345 C361 1.349 . S
C346 C344 1.327 . S
C346 C365 1.429 . S
C346 H370 0.950 . S
C347 C364 1.574 . S
C347 C366 1.368 . S
C347 H371 0.949 . S
H348 C352 0.949 . S
C349 C350 1.349 . S
C349 C351 1.327 . S
C349 H372 0.950 . S
C350 C349 1.349 . S
C350 C362 1.349 . S
C351 C349 1.327 . S
C351 C367 1.429 . S
C351 H373 0.950 . S
C352 H348 0.949 . S
C352 C360 1.574 . S
C352 C368 1.368 . S
H353 C361 0.950 . S
H354 C359 0.950 . S
H355 C360 0.949 . S
H356 C362 0.950 . S
H357 C363 0.950 . S
H358 C364 0.949 . S
C359 H354 0.950 . S
C359 C361 1.327 . S
C359 C365 1.429 . S
C360 C352 1.574 . S
C360 H355 0.949 . S
C360 C366 1.368 . S
C361 C345 1.349 . S
C361 H353 0.950 . S
C361 C359 1.327 . S
C362 C350 1.349 . S
C362 H356 0.950 . S
C362 C363 1.327 . S
C363 H357 0.950 . S
C363 C362 1.327 . S
C363 C367 1.429 . S
C364 C347 1.574 . S
C364 H358 0.949 . S
C364 C368 1.368 . S
C365 C346 1.429 . S
C365 C359 1.429 . S
C365 C366 1.523 . S
C366 C347 1.368 . S
C366 C360 1.368 . S
C366 C365 1.523 . S
C367 C351 1.429 . S
C367 C363 1.429 . S
C367 C368 1.523 . S
C368 C352 1.368 . S
C368 C364 1.368 . S
C368 C367 1.523 . S
H369 C344 0.950 . S
H370 C346 0.950 . S
H371 C347 0.949 . S
H372 C349 0.950 . S
H373 C351 0.950 . S
C374 C375 1.349 . S
C374 C376 1.327 . S
C374 H399 0.950 . S
C375 C374 1.349 . S
C375 C391 1.349 . S
C376 C374 1.327 . S
C376 C395 1.429 . S
C376 H400 0.950 . S
C377 C394 1.574 . S
C377 C396 1.368 . S
C377 H401 0.949 . S
H378 C382 0.949 . S
C379 C380 1.349 . S
C379 C381 1.327 . S
C379 H402 0.950 . S
C380 C379 1.349 . S
C380 C392 1.349 . S
C381 C379 1.327 . S
C381 C397 1.429 . S
C381 H403 0.950 . S
C382 H378 0.949 . S
C382 C390 1.574 . S
C382 C398 1.368 . S
H383 C391 0.950 . S
H384 C389 0.950 . S
H385 C390 0.949 . S
H386 C392 0.950 . S
H387 C393 0.950 . S
H388 C394 0.949 . S
C389 H384 0.950 . S
C389 C391 1.327 . S
C389 C395 1.429 . S
C390 C382 1.574 . S
C390 H385 0.949 . S
C390 C396 1.368 . S
C391 C375 1.349 . S
C391 H383 0.950 . S
C391 C389 1.327 . S
C392 C380 1.349 . S
C392 H386 0.950 . S
C392 C393 1.327 . S
C393 H387 0.950 . S
C393 C392 1.327 . S
C393 C397 1.429 . S
C394 C377 1.574 . S
C394 H388 0.949 . S
C394 C398 1.368 . S
C395 C376 1.429 . S
C395 C389 1.429 . S
C395 C396 1.523 . S
C396 C377 1.368 . S
C396 C390 1.368 . S
C396 C395 1.523 . S
C397 C381 1.429 . S
C397 C393 1.429 . S
C397 C398 1.523 . S
C398 C382 1.368 . S
C398 C394 1.368 . S
C398 C397 1.523 . S
H399 C374 0.950 . S
H400 C376 0.950 . S
H401 C377 0.949 . S
H402 C379 0.950 . S
H403 C381 0.950 . S
C404 C405 1.349 . S
C404 C406 1.327 . S
C404 H429 0.950 . S
C405 C404 1.349 . S
C405 C421 1.349 . S
C406 C404 1.327 . S
C406 C425 1.429 . S
C406 H430 0.950 . S
C407 C424 1.574 . S
C407 C426 1.368 . S
C407 H431 0.949 . S
H408 C412 0.949 . S
C409 C410 1.349 . S
C409 C411 1.327 . S
C409 H432 0.950 . S
C410 C409 1.349 . S
C410 C422 1.349 . S
C411 C409 1.327 . S
C411 C427 1.429 . S
C411 H433 0.950 . S
C412 H408 0.949 . S
C412 C420 1.574 . S
C412 C428 1.368 . S
H413 C421 0.950 . S
H414 C419 0.950 . S
H415 C420 0.949 . S
H416 C422 0.950 . S
H417 C423 0.950 . S
H418 C424 0.949 . S
C419 H414 0.950 . S
C419 C421 1.327 . S
C419 C425 1.429 . S
C420 C412 1.574 . S
C420 H415 0.949 . S
C420 C426 1.368 . S
C421 C405 1.349 . S
C421 H413 0.950 . S
C421 C419 1.327 . S
C422 C410 1.349 . S
C422 H416 0.950 . S
C422 C423 1.327 . S
C423 H417 0.950 . S
C423 C422 1.327 . S
C423 C427 1.429 . S
C424 C407 1.574 . S
C424 H418 0.949 . S
C424 C428 1.368 . S
C425 C406 1.429 . S
C425 C419 1.429 . S
C425 C426 1.523 . S
C426 C407 1.368 . S
C426 C420 1.368 . S
C426 C425 1.523 . S
C427 C411 1.429 . S
C427 C423 1.429 . S
C427 C428 1.523 . S
C428 C412 1.368 . S
C428 C424 1.368 . S
C428 C427 1.523 . S
H429 C404 0.950 . S
H430 C406 0.950 . S
H431 C407 0.949 . S
H432 C409 0.950 . S
H433 C411 0.950 . S
C434 C435 1.349 . S
C434 C436 1.327 . S
C434 H459 0.950 . S
C435 C434 1.349 . S
C435 C451 1.349 . S
C436 C434 1.327 . S
C436 C455 1.429 . S
C436 H460 0.950 . S
C437 C454 1.574 . S
C437 C456 1.368 . S
C437 H461 0.949 . S
H438 C442 0.949 . S
C439 C440 1.349 . S
C439 C441 1.327 . S
C439 H462 0.950 . S
C440 C439 1.349 . S
C440 C452 1.349 . S
C441 C439 1.327 . S
C441 C457 1.429 . S
C441 H463 0.950 . S
C442 H438 0.949 . S
C442 C450 1.574 . S
C442 C458 1.368 . S
H443 C451 0.950 . S
H444 C449 0.950 . S
H445 C450 0.949 . S
H446 C452 0.950 . S
H447 C453 0.950 . S
H448 C454 0.949 . S
C449 H444 0.950 . S
C449 C451 1.327 . S
C449 C455 1.429 . S
C450 C442 1.574 . S
C450 H445 0.949 . S
C450 C456 1.368 . S
C451 C435 1.349 . S
C451 H443 0.950 . S
C451 C449 1.327 . S
C452 C440 1.349 . S
C452 H446 0.950 . S
C452 C453 1.327 . S
C453 H447 0.950 . S
C453 C452 1.327 . S
C453 C457 1.429 . S
C454 C437 1.574 . S
C454 H448 0.949 . S
C454 C458 1.368 . S
C455 C436 1.429 . S
C455 C449 1.429 . S
C455 C456 1.523 . S
C456 C437 1.368 . S
C456 C450 1.368 . S
C456 C455 1.523 . S
C457 C441 1.429 . S
C457 C453 1.429 . S
C457 C458 1.523 . S
C458 C442 1.368 . S
C458 C454 1.368 . S
C458 C457 1.523 . S
H459 C434 0.950 . S
H460 C436 0.950 . S
H461 C437 0.949 . S
H462 C439 0.950 . S
H463 C441 0.950 . S
C464 C465 1.350 1_554 S
C464 C466 1.327 . S
C464 H489 0.950 . S
C465 C464 1.350 1_556 S
C465 C481 1.348 . S
C466 C464 1.327 . S
C466 C485 1.429 1_554 S
C466 H490 0.950 . S
C467 C484 1.574 . S
C467 C486 1.368 . S
C467 H491 0.949 . S
H468 C472 0.949 . S
C469 C470 1.348 . S
C469 C471 1.327 . S
C469 H492 0.950 . S
C470 C469 1.348 . S
C470 C482 1.350 1_556 S
C471 C469 1.327 . S
C471 C487 1.428 . S
C471 H493 0.950 . S
C472 H468 0.949 . S
C472 C480 1.574 . S
C472 C488 1.369 1_554 S
H473 C481 0.950 . S
H474 C479 0.950 . S
H475 C480 0.949 . S
H476 C482 0.950 . S
H477 C483 0.950 . S
H478 C484 0.949 . S
C479 H474 0.950 . S
C479 C481 1.327 . S
C479 C485 1.428 . S
C480 C472 1.574 . S
C480 H475 0.949 . S
C480 C486 1.369 1_554 S
C481 C465 1.348 . S
C481 H473 0.950 . S
C481 C479 1.327 . S
C482 C470 1.350 1_554 S
C482 H476 0.950 . S
C482 C483 1.327 . S
C483 H477 0.950 . S
C483 C482 1.327 . S
C483 C487 1.429 1_554 S
C484 C467 1.574 . S
C484 H478 0.949 . S
C484 C488 1.368 . S
C485 C466 1.429 1_556 S
C485 C479 1.428 . S
C485 C486 1.523 . S
C486 C467 1.368 . S
C486 C480 1.369 1_556 S
C486 C485 1.523 . S
C487 C471 1.428 . S
C487 C483 1.429 1_556 S
C487 C488 1.523 . S
C488 C472 1.369 1_556 S
C488 C484 1.368 . S
C488 C487 1.523 . S
H489 C464 0.950 . S
H490 C466 0.950 . S
H491 C467 0.949 . S
H492 C469 0.950 . S
H493 C471 0.950 . S
C494 C495 1.350 1_554 S
C494 C496 1.327 . S
C494 H519 0.950 . S
C495 C494 1.350 1_556 S
C495 C511 1.348 . S
C496 C494 1.327 . S
C496 C515 1.429 1_554 S
C496 H520 0.950 . S
C497 C514 1.574 . S
C497 C516 1.368 . S
C497 H521 0.949 . S
H498 C502 0.949 . S
C499 C500 1.348 . S
C499 C501 1.327 . S
C499 H522 0.950 . S
C500 C499 1.348 . S
C500 C512 1.350 1_556 S
C501 C499 1.327 . S
C501 C517 1.428 . S
C501 H523 0.950 . S
C502 H498 0.949 . S
C502 C510 1.574 . S
C502 C518 1.369 1_554 S
H503 C511 0.950 . S
H504 C509 0.950 . S
H505 C510 0.949 . S
H506 C512 0.950 . S
H507 C513 0.950 . S
H508 C514 0.949 . S
C509 H504 0.950 . S
C509 C511 1.327 . S
C509 C515 1.428 . S
C510 C502 1.574 . S
C510 H505 0.949 . S
C510 C516 1.369 1_554 S
C511 C495 1.348 . S
C511 H503 0.950 . S
C511 C509 1.327 . S
C512 C500 1.350 1_554 S
C512 H506 0.950 . S
C512 C513 1.327 . S
C513 H507 0.950 . S
C513 C512 1.327 . S
C513 C517 1.429 1_554 S
C514 C497 1.574 . S
C514 H508 0.949 . S
C514 C518 1.368 . S
C515 C496 1.429 1_556 S
C515 C509 1.428 . S
C515 C516 1.523 . S
C516 C497 1.368 . S
C516 C510 1.369 1_556 S
C516 C515 1.523 . S
C517 C501 1.428 . S
C517 C513 1.429 1_556 S
C517 C518 1.523 . S
C518 C502 1.369 1_556 S
C518 C514 1.368 . S
C518 C517 1.523 . S
H519 C494 0.950 . S
H520 C496 0.950 . S
H521 C497 0.949 . S
H522 C499 0.950 . S
H523 C501 0.950 . S
C524 C525 1.349 . S
C524 C526 1.327 . S
C524 H549 0.950 . S
C525 C524 1.349 . S
C525 C541 1.349 . S
C526 C524 1.327 . S
C526 C545 1.429 . S
C526 H550 0.950 . S
C527 C544 1.574 . S
C527 C546 1.368 . S
C527 H551 0.949 . S
H528 C532 0.949 . S
C529 C530 1.349 . S
C529 C531 1.327 . S
C529 H552 0.950 . S
C530 C529 1.349 . S
C530 C542 1.349 . S
C531 C529 1.327 . S
C531 C547 1.429 . S
C531 H553 0.950 . S
C532 H528 0.949 . S
C532 C540 1.574 . S
C532 C548 1.368 . S
H533 C541 0.950 . S
H534 C539 0.950 . S
H535 C540 0.949 . S
H536 C542 0.950 . S
H537 C543 0.950 . S
H538 C544 0.949 . S
C539 H534 0.950 . S
C539 C541 1.327 . S
C539 C545 1.429 . S
C540 C532 1.574 . S
C540 H535 0.949 . S
C540 C546 1.368 . S
C541 C525 1.349 . S
C541 H533 0.950 . S
C541 C539 1.327 . S
C542 C530 1.349 . S
C542 H536 0.950 . S
C542 C543 1.327 . S
C543 H537 0.950 . S
C543 C542 1.327 . S
C543 C547 1.429 . S
C544 C527 1.574 . S
C544 H538 0.949 . S
C544 C548 1.368 . S
C545 C526 1.429 . S
C545 C539 1.429 . S
C545 C546 1.523 . S
C546 C527 1.368 . S
C546 C540 1.368 . S
C546 C545 1.523 . S
C547 C531 1.429 . S
C547 C543 1.429 . S
C547 C548 1.523 . S
C548 C532 1.368 . S
C548 C544 1.368 . S
C548 C547 1.523 . S
H549 C524 0.950 . S
H550 C526 0.950 . S
H551 C527 0.949 . S
H552 C529 0.950 . S
H553 C531 0.950 . S
C554 C555 1.349 . S
C554 C556 1.327 . S
C554 H579 0.950 . S
C555 C554 1.349 . S
C555 C571 1.349 . S
C556 C554 1.327 . S
C556 C575 1.429 . S
C556 H580 0.950 . S
C557 C574 1.574 . S
C557 C576 1.368 . S
C557 H581 0.949 . S
H558 C562 0.949 . S
C559 C560 1.349 . S
C559 C561 1.327 . S
C559 H582 0.950 . S
C560 C559 1.349 . S
C560 C572 1.349 . S
C561 C559 1.327 . S
C561 C577 1.429 . S
C561 H583 0.950 . S
C562 H558 0.949 . S
C562 C570 1.574 . S
C562 C578 1.368 . S
H563 C571 0.950 . S
H564 C569 0.950 . S
H565 C570 0.949 . S
H566 C572 0.950 . S
H567 C573 0.950 . S
H568 C574 0.949 . S
C569 H564 0.950 . S
C569 C571 1.327 . S
C569 C575 1.429 . S
C570 C562 1.574 . S
C570 H565 0.949 . S
C570 C576 1.368 . S
C571 C555 1.349 . S
C571 H563 0.950 . S
C571 C569 1.327 . S
C572 C560 1.349 . S
C572 H566 0.950 . S
C572 C573 1.327 . S
C573 H567 0.950 . S
C573 C572 1.327 . S
C573 C577 1.429 . S
C574 C557 1.574 . S
C574 H568 0.949 . S
C574 C578 1.368 . S
C575 C556 1.429 . S
C575 C569 1.429 . S
C575 C576 1.523 . S
C576 C557 1.368 . S
C576 C570 1.368 . S
C576 C575 1.523 . S
C577 C561 1.429 . S
C577 C573 1.429 . S
C577 C578 1.523 . S
C578 C562 1.368 . S
C578 C574 1.368 . S
C578 C577 1.523 . S
H579 C554 0.950 . S
H580 C556 0.950 . S
H581 C557 0.949 . S
H582 C559 0.950 . S
H583 C561 0.950 . S
C105 C18 1.476 . S
C110 C5 1.476 . S
C135 C31 1.476 . S
C140 C44 1.476 . S
C165 C57 1.476 . S
C170 C70 1.476 . S
C195 C83 1.476 . S
C200 C96 1.476 . S
C225 C10 1.000 . S
C230 C49 1.000 . S
C255 C36 1.000 . S
C260 C23 1.000 . S
C285 C34 0.944 . S
C290 C21 0.944 . S
C315 C8 0.944 . S
C320 C47 0.944 . S
C345 C62 1.000 . S
C350 C101 1.000 . S
C375 C88 1.000 . S
C380 C75 1.000 . S
C405 C73 0.944 . S
C410 C86 0.944 . S
C435 C60 0.944 . S
C440 C99 0.944 . S
C465 C65 1.528 1_556 S
C470 C0 1.528 1_556 S
C495 C52 1.528 1_556 S
C500 C13 1.528 1_556 S
C525 C26 1.528 . S
C530 C91 1.528 . S
C555 C78 1.528 . S
C560 C39 1.528 . S
