# Generated by pormake.
# Topology fnj, (5)-cn, num edge types: 1
# Building blocks:
#     Node 0, Type 0, BuildingBlock: XOMCOT_clean_sbu_1, # of connection points: 5
#     Node 1, Type 0, BuildingBlock: XOMCOT_clean_sbu_1, # of connection points: 5
#     Node 2, Type 0, BuildingBlock: XOMCOT_clean_sbu_1, # of connection points: 5
#     Node 3, Type 0, BuildingBlock: XOMCOT_clean_sbu_1, # of connection points: 5
#     Node 4, Type 0, BuildingBlock: XOMCOT_clean_sbu_1, # of connection points: 5
#     Node 5, Type 0, BuildingBlock: XOMCOT_clean_sbu_1, # of connection points: 5
#     Node 6, Type 0, BuildingBlock: XOMCOT_clean_sbu_1, # of connection points: 5
#     Node 7, Type 0, BuildingBlock: XOMCOT_clean_sbu_1, # of connection points: 5
#     Node 8, Type 0, BuildingBlock: XOMCOT_clean_sbu_1, # of connection points: 5
#     Node 9, Type 0, BuildingBlock: XOMCOT_clean_sbu_1, # of connection points: 5
#     Node 10, Type 0, BuildingBlock: XOMCOT_clean_sbu_1, # of connection points: 5
#     Node 11, Type 0, BuildingBlock: XOMCOT_clean_sbu_1, # of connection points: 5
#     Node 12, Type 0, BuildingBlock: XOMCOT_clean_sbu_1, # of connection points: 5
#     Node 13, Type 0, BuildingBlock: XOMCOT_clean_sbu_1, # of connection points: 5
#     Node 14, Type 0, BuildingBlock: XOMCOT_clean_sbu_1, # of connection points: 5
#     Node 15, Type 0, BuildingBlock: XOMCOT_clean_sbu_1, # of connection points: 5
#     Edge 16, Type (0, 0), BuildingBlock: ZUJKAS_clean_linker_0, # of connection points: 2
#     Edge 17, Type (0, 0), BuildingBlock: ZUJKAS_clean_linker_0, # of connection points: 2
#     Edge 18, Type (0, 0), BuildingBlock: ZUJKAS_clean_linker_0, # of connection points: 2
#     Edge 19, Type (0, 0), BuildingBlock: ZUJKAS_clean_linker_0, # of connection points: 2
#     Edge 20, Type (0, 0), BuildingBlock: ZUJKAS_clean_linker_0, # of connection points: 2
#     Edge 21, Type (0, 0), BuildingBlock: ZUJKAS_clean_linker_0, # of connection points: 2
#     Edge 22, Type (0, 0), BuildingBlock: ZUJKAS_clean_linker_0, # of connection points: 2
#     Edge 23, Type (0, 0), BuildingBlock: ZUJKAS_clean_linker_0, # of connection points: 2
#     Edge 24, Type (0, 0), BuildingBlock: ZUJKAS_clean_linker_0, # of connection points: 2
#     Edge 25, Type (0, 0), BuildingBlock: ZUJKAS_clean_linker_0, # of connection points: 2
#     Edge 26, Type (0, 0), BuildingBlock: ZUJKAS_clean_linker_0, # of connection points: 2
#     Edge 27, Type (0, 0), BuildingBlock: ZUJKAS_clean_linker_0, # of connection points: 2
#     Edge 28, Type (0, 0), BuildingBlock: ZUJKAS_clean_linker_0, # of connection points: 2
#     Edge 29, Type (0, 0), BuildingBlock: ZUJKAS_clean_linker_0, # of connection points: 2
#     Edge 30, Type (0, 0), BuildingBlock: ZUJKAS_clean_linker_0, # of connection points: 2
#     Edge 31, Type (0, 0), BuildingBlock: ZUJKAS_clean_linker_0, # of connection points: 2
#     Edge 32, Type (0, 0), BuildingBlock: ZUJKAS_clean_linker_0, # of connection points: 2
#     Edge 33, Type (0, 0), BuildingBlock: ZUJKAS_clean_linker_0, # of connection points: 2
#     Edge 34, Type (0, 0), BuildingBlock: ZUJKAS_clean_linker_0, # of connection points: 2
#     Edge 35, Type (0, 0), BuildingBlock: ZUJKAS_clean_linker_0, # of connection points: 2
#     Edge 36, Type (0, 0), BuildingBlock: ZUJKAS_clean_linker_0, # of connection points: 2
#     Edge 37, Type (0, 0), BuildingBlock: ZUJKAS_clean_linker_0, # of connection points: 2
#     Edge 38, Type (0, 0), BuildingBlock: ZUJKAS_clean_linker_0, # of connection points: 2
#     Edge 39, Type (0, 0), BuildingBlock: ZUJKAS_clean_linker_0, # of connection points: 2
#     Edge 40, Type (0, 0), BuildingBlock: ZUJKAS_clean_linker_0, # of connection points: 2
#     Edge 41, Type (0, 0), BuildingBlock: ZUJKAS_clean_linker_0, # of connection points: 2
#     Edge 42, Type (0, 0), BuildingBlock: ZUJKAS_clean_linker_0, # of connection points: 2
#     Edge 43, Type (0, 0), BuildingBlock: ZUJKAS_clean_linker_0, # of connection points: 2
#     Edge 44, Type (0, 0), BuildingBlock: ZUJKAS_clean_linker_0, # of connection points: 2
#     Edge 45, Type (0, 0), BuildingBlock: ZUJKAS_clean_linker_0, # of connection points: 2
#     Edge 46, Type (0, 0), BuildingBlock: ZUJKAS_clean_linker_0, # of connection points: 2
#     Edge 47, Type (0, 0), BuildingBlock: ZUJKAS_clean_linker_0, # of connection points: 2
#     Edge 48, Type (0, 0), BuildingBlock: ZUJKAS_clean_linker_0, # of connection points: 2
#     Edge 49, Type (0, 0), BuildingBlock: ZUJKAS_clean_linker_0, # of connection points: 2
#     Edge 50, Type (0, 0), BuildingBlock: ZUJKAS_clean_linker_0, # of connection points: 2
#     Edge 51, Type (0, 0), BuildingBlock: ZUJKAS_clean_linker_0, # of connection points: 2
#     Edge 52, Type (0, 0), BuildingBlock: ZUJKAS_clean_linker_0, # of connection points: 2
#     Edge 53, Type (0, 0), BuildingBlock: ZUJKAS_clean_linker_0, # of connection points: 2
#     Edge 54, Type (0, 0), BuildingBlock: ZUJKAS_clean_linker_0, # of connection points: 2
#     Edge 55, Type (0, 0), BuildingBlock: ZUJKAS_clean_linker_0, # of connection points: 2
# Relax obj value: 0.157
# Max RMSD: 0.165
# Mean RMSD: 0.158
data_MOF--net-fnj--node1-XOMCOT_clean_sbu_1--edge1-ZUJKAS_clean_linker_0
_symmetry_space_group_name_H-M    P1
_symmetry_Int_Tables_number       1
_symmetry_cell_setting            triclinic
loop_
_symmetry_equiv_pos_as_xyz
'x, y, z'
_cell_length_a     96.146008
_cell_length_b     96.079226
_cell_length_c     22.013776
_cell_angle_alpha  95.005249
_cell_angle_beta   95.020283
_cell_angle_gamma 90.129919
loop_
_atom_site_label
_atom_site_type_symbol
_atom_site_fract_x
_atom_site_fract_y
_atom_site_fract_z
_atom_type_partial_charge
C0 C 0.3978 0.02471 0.1666 0.0
C1 C 0.39688 0.02312 0.2276 0.0
N2 N 0.40044 0.03535 0.25994 0.0
N3 N 0.40177 0.03793 0.16034 0.0
C4 C 0.40344 0.04413 0.21804 0.0
H5 H 0.39579 0.01669 0.12922 0.0
Co6 Co 0.40458 0.04546 0.08711 0.0
C7 C 0.39135 0.07344 0.09716 0.0
O8 O 0.38859 0.07243 0.03742 0.0
N9 N 0.408 0.053 0.01304 0.0
C10 C 0.41745 0.06673 0.95085 0.0
C11 C 0.41605 0.06446 0.01072 0.0
C12 C 0.40494 0.04832 0.95346 0.0
N13 N 0.41046 0.05654 0.91466 0.0
O14 O 0.42371 0.04934 0.11545 0.0
H15 H 0.42063 0.07084 0.05039 0.0
H16 H 0.39923 0.03883 0.93825 0.0
O17 O 0.39831 0.06378 0.12232 0.0
C18 C 0.43067 0.0382 0.10586 0.0
O19 O 0.42379 0.02659 0.08654 0.0
N20 N 0.3862 0.04016 0.05786 0.0
C21 C 0.36053 0.02742 0.01863 0.0
C22 C 0.36125 0.03944 0.05959 0.0
C23 C 0.37425 0.04541 0.08014 0.0
C24 C 0.38564 0.02818 0.01978 0.0
C25 C 0.37292 0.02175 0.99879 0.0
H26 H 0.3746 0.05366 0.11655 0.0
H27 H 0.39523 0.02329 0.00738 0.0
H28 H 0.40671 0.0549 0.22905 0.0
H29 H 0.39408 0.0136 0.24672 0.0
H30 H 0.42317 0.07527 0.93544 0.0
H31 H 0.35193 0.04371 0.07813 0.0
H32 H 0.37281 0.01226 0.96833 0.0
C33 C 0.26292 0.18727 0.39732 0.0
C34 C 0.26505 0.18745 0.46002 0.0
N35 N 0.25262 0.18559 0.48229 0.0
N36 N 0.24923 0.18516 0.38003 0.0
C37 C 0.2432 0.18432 0.43278 0.0
H38 H 0.27084 0.18852 0.36618 0.0
Co39 Co 0.24125 0.18374 0.29976 0.0
C40 C 0.21849 0.16249 0.29629 0.0
O41 O 0.22288 0.15735 0.24411 0.0
N42 N 0.23298 0.18281 0.21776 0.0
C43 C 0.2168 0.18567 0.14106 0.0
C44 C 0.21938 0.18562 0.20337 0.0
C45 C 0.23848 0.18157 0.16291 0.0
N46 N 0.22886 0.18317 0.11544 0.0
O47 O 0.2331 0.20212 0.31414 0.0
H48 H 0.21183 0.18786 0.23645 0.0
H49 H 0.24944 0.18031 0.15747 0.0
O50 O 0.22469 0.17337 0.32478 0.0
C51 C 0.24162 0.2103 0.29248 0.0
O52 O 0.25259 0.20477 0.26845 0.0
N53 N 0.25135 0.16713 0.28503 0.0
C54 C 0.27198 0.14692 0.26994 0.0
C55 C 0.26087 0.14466 0.30549 0.0
C56 C 0.2507 0.15502 0.31317 0.0
C57 C 0.26257 0.1697 0.25385 0.0
C58 C 0.27272 0.15967 0.24422 0.0
H59 H 0.24281 0.15355 0.3441 0.0
H60 H 0.26413 0.17998 0.23928 0.0
H61 H 0.23214 0.18259 0.43488 0.0
H62 H 0.27497 0.189 0.48712 0.0
H63 H 0.20681 0.18762 0.11685 0.0
H64 H 0.26022 0.13514 0.32809 0.0
H65 H 0.28151 0.1622 0.21942 0.0
C66 C 0.09899 0.02359 0.43615 0.0
C67 C 0.09857 0.02163 0.37337 0.0
N68 N 0.10058 0.0341 0.35152 0.0
N69 N 0.10137 0.03721 0.454 0.0
C70 C 0.10217 0.04338 0.40156 0.0
H71 H 0.09777 0.01559 0.46695 0.0
Co72 Co 0.103 0.04503 0.53442 0.0
C73 C 0.12427 0.06778 0.53833 0.0
O74 O 0.12944 0.06329 0.59024 0.0
N75 N 0.10418 0.05313 0.61659 0.0
C76 C 0.10165 0.06912 0.69447 0.0
C77 C 0.1012 0.06666 0.6319 0.0
C78 C 0.10602 0.04752 0.6711 0.0
N79 N 0.10463 0.05703 0.71906 0.0
O80 O 0.08464 0.05331 0.52118 0.0
H81 H 0.0985 0.07423 0.59933 0.0
H82 H 0.10804 0.03665 0.67631 0.0
O83 O 0.11339 0.06162 0.50969 0.0
C84 C 0.07655 0.0447 0.54287 0.0
O85 O 0.08219 0.03365 0.56593 0.0
N86 N 0.11954 0.03477 0.54804 0.0
C87 C 0.13942 0.01374 0.56165 0.0
C88 C 0.14195 0.02509 0.52776 0.0
C89 C 0.13175 0.03545 0.52068 0.0
C90 C 0.11673 0.02337 0.57774 0.0
C91 C 0.12655 0.01299 0.58641 0.0
H92 H 0.13342 0.04353 0.4909 0.0
H93 H 0.10642 0.02193 0.59225 0.0
H94 H 0.10372 0.05449 0.40012 0.0
H95 H 0.09713 0.01171 0.34622 0.0
H96 H 0.09937 0.0789 0.71973 0.0
H97 H 0.15156 0.02581 0.50595 0.0
H98 H 0.12377 0.00407 0.60986 0.0
C99 C 0.26312 0.88829 0.66177 0.0
C100 C 0.26484 0.88916 0.60087 0.0
N101 N 0.25259 0.88583 0.56818 0.0
N102 N 0.24981 0.88457 0.66765 0.0
C103 C 0.24368 0.88301 0.60981 0.0
H104 H 0.27111 0.89014 0.69935 0.0
Co105 Co 0.24224 0.88191 0.74087 0.0
C106 C 0.21443 0.89533 0.73098 0.0
O107 O 0.21574 0.89842 0.79054 0.0
N108 N 0.23467 0.87862 0.81504 0.0
C109 C 0.22082 0.8694 0.87735 0.0
C110 C 0.22312 0.87071 0.81745 0.0
C111 C 0.23936 0.88169 0.8746 0.0
N112 N 0.23107 0.87631 0.91347 0.0
O113 O 0.23826 0.86277 0.71298 0.0
H114 H 0.21671 0.86616 0.77783 0.0
H115 H 0.24891 0.88731 0.88976 0.0
O116 O 0.22394 0.88821 0.70554 0.0
C117 C 0.2493 0.85568 0.72301 0.0
O118 O 0.26096 0.86245 0.74249 0.0
N119 N 0.2476 0.90032 0.76963 0.0
C120 C 0.26027 0.92604 0.80864 0.0
C121 C 0.24838 0.92525 0.76704 0.0
C122 C 0.24244 0.91223 0.7466 0.0
C123 C 0.25952 0.90092 0.8081 0.0
C124 C 0.26591 0.91367 0.82901 0.0
H125 H 0.23427 0.91181 0.70983 0.0
H126 H 0.26439 0.89135 0.82095 0.0
H127 H 0.23287 0.87993 0.5985 0.0
H128 H 0.27445 0.89174 0.58205 0.0
H129 H 0.2122 0.86381 0.89283 0.0
H130 H 0.24416 0.93454 0.74803 0.0
H131 H 0.27533 0.91383 0.85993 0.0
C132 C 0.60723 0.04293 0.92027 0.0
C133 C 0.60795 0.04452 0.85911 0.0
N134 N 0.60406 0.03236 0.82681 0.0
N135 N 0.60304 0.02978 0.92662 0.0
C136 C 0.60107 0.02363 0.86892 0.0
H137 H 0.60952 0.05088 0.95773 0.0
Co138 Co 0.60025 0.02222 0.99978 0.0
C139 C 0.61396 0.99459 0.99017 0.0
O140 O 0.61687 0.99595 0.04983 0.0
N141 N 0.59681 0.01457 0.07387 0.0
C142 C 0.58757 1.00045 0.13521 0.0
C143 C 0.58899 1.00291 0.07553 0.0
C144 C 0.59967 0.01916 0.1337 0.0
N145 N 0.59431 0.0107 0.17194 0.0
O146 O 0.58113 0.01833 0.97145 0.0
H147 H 0.58461 0.99652 0.03553 0.0
H148 H 0.60512 0.02875 0.14967 0.0
O149 O 0.60661 0.00393 0.96447 0.0
C150 C 0.57416 0.02947 0.98085 0.0
O151 O 0.58103 0.04109 1.00011 0.0
N152 N 0.61867 0.02748 0.02896 0.0
C153 C 0.64465 0.03875 0.07373 0.0
C154 C 0.64361 0.02788 0.02682 0.0
C155 C 0.63046 0.02257 0.00416 0.0
C156 C 0.61951 0.03887 0.0705 0.0
C157 C 0.63239 0.0444 0.09501 0.0
H158 H 0.62985 0.01499 0.965 0.0
H159 H 0.61005 0.04391 0.08372 0.0
H160 H 0.59759 0.01291 0.85808 0.0
H161 H 0.61083 0.054 0.83991 0.0
H162 H 0.58204 0.99172 0.15014 0.0
H163 H 0.65283 0.02368 0.00721 0.0
H164 H 0.63274 0.05335 0.12867 0.0
C165 C 0.74078 0.88439 0.67183 0.0
C166 C 0.73909 0.88438 0.60917 0.0
N167 N 0.75182 0.88408 0.58777 0.0
N168 N 0.75452 0.88418 0.69012 0.0
C169 C 0.76098 0.88391 0.63795 0.0
H170 H 0.73251 0.88454 0.70212 0.0
Co171 Co 0.76241 0.88399 0.77043 0.0
C172 C 0.78658 0.90389 0.77922 0.0
O173 O 0.78305 0.90836 0.83385 0.0
N174 N 0.77058 0.88334 0.85165 0.0
C175 C 0.78649 0.87876 0.92706 0.0
C176 C 0.78376 0.87893 0.86481 0.0
C177 C 0.76544 0.88547 0.90709 0.0
N178 N 0.77492 0.88285 0.95359 0.0
O179 O 0.76968 0.86541 0.75097 0.0
H180 H 0.79093 0.87586 0.83097 0.0
H181 H 0.75497 0.88877 0.91412 0.0
O182 O 0.7794 0.89396 0.7481 0.0
C183 C 0.7594 0.85718 0.75596 0.0
O184 O 0.74745 0.86278 0.76908 0.0
N185 N 0.75317 0.90085 0.79021 0.0
C186 C 0.73321 0.9215 0.8105 0.0
C187 C 0.7447 0.9241 0.77764 0.0
C188 C 0.75456 0.91354 0.76736 0.0
C189 C 0.74166 0.89806 0.81911 0.0
C190 C 0.73181 0.90826 0.83121 0.0
H191 H 0.76276 0.91535 0.73841 0.0
H192 H 0.73975 0.88754 0.83039 0.0
H193 H 0.77219 0.88335 0.63683 0.0
H194 H 0.72922 0.88476 0.58177 0.0
H195 H 0.7961 0.87548 0.95076 0.0
H196 H 0.74588 0.93406 0.75901 0.0
H197 H 0.72277 0.90554 0.854 0.0
C198 C 0.90532 0.04447 0.64759 0.0
C199 C 0.90569 0.04644 0.71036 0.0
N200 N 0.90408 0.03391 0.73234 0.0
N201 N 0.90339 0.03078 0.62986 0.0
C202 C 0.90279 0.0246 0.68238 0.0
H203 H 0.90628 0.05251 0.61672 0.0
Co204 Co 0.90198 0.02288 0.54954 0.0
C205 C 0.88134 0.99953 0.5456 0.0
O206 O 0.87613 0.00364 0.49298 0.0
N207 N 0.90106 0.01471 0.46747 0.0
C208 C 0.90408 0.99878 0.38991 0.0
C209 C 0.90443 1.00127 0.45245 0.0
C210 C 0.89907 0.02024 0.41282 0.0
N211 N 0.90076 0.01076 0.36505 0.0
O212 O 0.92052 0.01501 0.56338 0.0
H213 H 0.90732 0.99379 0.48521 0.0
H214 H 0.89675 0.03104 0.40733 0.0
O215 O 0.89193 0.00613 0.57449 0.0
C216 C 0.92846 0.02375 0.5417 0.0
O217 O 0.92264 0.03468 0.51839 0.0
N218 N 0.88523 0.03273 0.53533 0.0
C219 C 0.86489 0.05328 0.52131 0.0
C220 C 0.86263 0.04192 0.55554 0.0
C221 C 0.87305 0.03178 0.56263 0.0
C222 C 0.88777 0.04416 0.50533 0.0
C223 C 0.87769 0.05428 0.49629 0.0
H224 H 0.87156 0.02367 0.59251 0.0
H225 H 0.89804 0.04583 0.49088 0.0
H226 H 0.90161 0.01344 0.68394 0.0
H227 H 0.90681 0.0564 0.73742 0.0
H228 H 0.90665 0.98906 0.36487 0.0
H229 H 0.85306 0.04106 0.57758 0.0
H230 H 0.88021 0.06323 0.47243 0.0
C231 C 0.74392 0.17919 0.40578 0.0
C232 C 0.74212 0.17877 0.46689 0.0
N233 N 0.75432 0.18235 0.49963 0.0
N234 N 0.75721 0.18292 0.39979 0.0
C235 C 0.76326 0.18488 0.45766 0.0
H236 H 0.73604 0.17689 0.36805 0.0
Co237 Co 0.76497 0.18506 0.32656 0.0
C238 C 0.79285 0.17192 0.34083 0.0
O239 O 0.79183 0.16838 0.28159 0.0
N240 N 0.77277 0.18782 0.25222 0.0
C241 C 0.78679 0.19665 0.18931 0.0
C242 C 0.78435 0.19568 0.24938 0.0
C243 C 0.76817 0.18449 0.19272 0.0
N244 N 0.77656 0.18962 0.15369 0.0
O245 O 0.7686 0.20438 0.3517 0.0
H246 H 0.79062 0.20053 0.2888 0.0
H247 H 0.75881 0.17858 0.1774 0.0
O248 O 0.78323 0.17928 0.36422 0.0
C249 C 0.7575 0.21122 0.33958 0.0
O250 O 0.74605 0.20419 0.31923 0.0
N251 N 0.75997 0.16639 0.3006 0.0
C252 C 0.74821 0.14007 0.26466 0.0
C253 C 0.75948 0.14166 0.30964 0.0
C254 C 0.765 0.15495 0.328 0.0
C255 C 0.74847 0.16509 0.25973 0.0
C256 C 0.74264 0.15202 0.23986 0.0
H257 H 0.77273 0.15599 0.36656 0.0
H258 H 0.74344 0.17435 0.24417 0.0
H259 H 0.77397 0.18832 0.46872 0.0
H260 H 0.73259 0.17585 0.4855 0.0
H261 H 0.7952 0.20243 0.17315 0.0
H262 H 0.76373 0.13276 0.33172 0.0
H263 H 0.73345 0.15136 0.20756 0.0
C264 C 0.90137 0.52478 0.66505 0.0
C265 C 0.90099 0.52284 0.72606 0.0
N266 N 0.90251 0.5354 0.75829 0.0
N267 N 0.90317 0.5385 0.65893 0.0
C268 C 0.90383 0.54471 0.7166 0.0
H269 H 0.90067 0.51668 0.62758 0.0
Co270 Co 0.90555 0.54618 0.58577 0.0
C271 C 0.89208 0.57402 0.596 0.0
O272 O 0.88952 0.5731 0.53619 0.0
N273 N 0.90857 0.5538 0.51132 0.0
C274 C 0.91847 0.56696 0.44802 0.0
C275 C 0.91725 0.56478 0.50815 0.0
C276 C 0.90466 0.54953 0.45192 0.0
N277 N 0.91052 0.55737 0.41278 0.0
O278 O 0.92468 0.55035 0.61335 0.0
H279 H 0.92251 0.5708 0.54732 0.0
H280 H 0.89812 0.54056 0.43671 0.0
O281 O 0.89904 0.56437 0.62124 0.0
C282 C 0.93183 0.53941 0.60192 0.0
O283 O 0.92515 0.52781 0.58058 0.0
N284 N 0.88725 0.54054 0.55767 0.0
C285 C 0.86179 0.5273 0.51941 0.0
C286 C 0.86235 0.53936 0.56018 0.0
C287 C 0.87526 0.54561 0.58013 0.0
C288 C 0.88687 0.5285 0.52005 0.0
C289 C 0.87426 0.52185 0.4994 0.0
H290 H 0.87551 0.55398 0.61604 0.0
H291 H 0.89654 0.52387 0.50697 0.0
H292 H 0.90579 0.55576 0.72815 0.0
H293 H 0.89974 0.51297 0.74528 0.0
H294 H 0.92476 0.57495 0.43147 0.0
H295 H 0.853 0.54349 0.57885 0.0
H296 H 0.8743 0.51239 0.46877 0.0
C297 C 0.76408 0.6835 0.91084 0.0
C298 C 0.76574 0.68344 0.97346 0.0
N299 N 0.753 0.68365 0.99471 0.0
N300 N 0.75034 0.68364 0.89239 0.0
C301 C 0.74386 0.68381 0.94446 0.0
H302 H 0.77237 0.68347 0.8807 0.0
Co303 Co 0.74249 0.684 0.81209 0.0
C304 C 0.71855 0.66384 0.80137 0.0
O305 O 0.72219 0.65966 0.74662 0.0
N306 N 0.73436 0.68483 0.73093 0.0
C307 C 0.71843 0.68945 0.65564 0.0
C308 C 0.72118 0.68926 0.71787 0.0
C309 C 0.73947 0.68269 0.67544 0.0
N310 N 0.72999 0.68535 0.62902 0.0
O311 O 0.735 0.70245 0.83252 0.0
H312 H 0.71401 0.69228 0.75176 0.0
H313 H 0.74992 0.67932 0.66832 0.0
O314 O 0.7256 0.67371 0.83351 0.0
C315 C 0.74522 0.7108 0.82816 0.0
O316 O 0.75724 0.70536 0.81512 0.0
N317 N 0.75196 0.66734 0.7914 0.0
C318 C 0.77241 0.64722 0.77046 0.0
C319 C 0.76083 0.64417 0.80211 0.0
C320 C 0.75074 0.65448 0.8128 0.0
C321 C 0.76349 0.67053 0.76341 0.0
C322 C 0.77359 0.66063 0.75118 0.0
H323 H 0.74248 0.65233 0.84094 0.0
H324 H 0.76519 0.68116 0.75296 0.0
H325 H 0.73264 0.68433 0.94546 0.0
H326 H 0.77561 0.68311 0.00095 0.0
H327 H 0.70881 0.69273 0.63201 0.0
H328 H 0.75977 0.63406 0.81961 0.0
H329 H 0.78266 0.66372 0.72946 0.0
C330 C 0.60169 0.52255 0.9208 0.0
C331 C 0.60161 0.52084 0.85814 0.0
N332 N 0.60201 0.53357 0.83693 0.0
N333 N 0.60224 0.5363 0.9393 0.0
C334 C 0.60233 0.54276 0.88724 0.0
H335 H 0.60141 0.51428 0.95099 0.0
Co336 Co 0.6026 0.54413 0.01989 0.0
C337 C 0.62302 0.56779 0.028 0.0
O338 O 0.62769 0.5639 0.08178 0.0
N339 N 0.60251 0.55223 0.10143 0.0
C340 C 0.59854 0.56819 0.17757 0.0
C341 C 0.5984 0.56549 0.11521 0.0
C342 C 0.6048 0.54701 0.15665 0.0
N343 N 0.60253 0.55652 0.20358 0.0
O344 O 0.58412 0.55182 0.00235 0.0
H345 H 0.5953 0.57274 0.08171 0.0
H346 H 0.60796 0.53646 0.16321 0.0
O347 O 0.61281 0.56097 0.99727 0.0
C348 C 0.57585 0.54166 0.00885 0.0
O349 O 0.58141 0.52973 0.02252 0.0
N350 N 0.61927 0.53443 0.03763 0.0
C351 C 0.6386 0.51277 0.04686 0.0
C352 C 0.64169 0.52473 0.01774 0.0
C353 C 0.63173 0.53538 0.01252 0.0
C354 C 0.61623 0.52285 0.06568 0.0
C355 C 0.62579 0.51216 0.07226 0.0
H356 H 0.63368 0.54375 0.98464 0.0
H357 H 0.60585 0.52143 0.07951 0.0
H358 H 0.60241 0.55399 0.88627 0.0
H359 H 0.60148 0.51094 0.83062 0.0
H360 H 0.5955 0.57785 0.20173 0.0
H361 H 0.65131 0.52545 0.99598 0.0
H362 H 0.62287 0.50318 0.09504 0.0
C363 C 0.76363 0.3878 0.16211 0.0
C364 C 0.7654 0.38843 0.10112 0.0
N365 N 0.75315 0.38509 0.06829 0.0
N366 N 0.75029 0.38421 0.16805 0.0
C367 C 0.74419 0.38255 0.11018 0.0
H368 H 0.77159 0.38977 0.19972 0.0
Co369 Co 0.74261 0.3816 0.24116 0.0
C370 C 0.7148 0.39517 0.23015 0.0
O371 O 0.71561 0.39782 0.28991 0.0
N372 N 0.73491 0.37838 0.31525 0.0
C373 C 0.72097 0.36925 0.37768 0.0
C374 C 0.72342 0.37035 0.31772 0.0
C375 C 0.73942 0.38171 0.37487 0.0
N376 N 0.73108 0.37638 0.41362 0.0
O377 O 0.73842 0.36253 0.21278 0.0
H378 H 0.71718 0.36555 0.27813 0.0
H379 H 0.74865 0.38782 0.3904 0.0
O380 O 0.72449 0.38818 0.20543 0.0
C381 C 0.74941 0.35539 0.22322 0.0
O382 O 0.76104 0.3621 0.24379 0.0
N383 N 0.74821 0.39989 0.2704 0.0
C384 C 0.76119 0.42539 0.31096 0.0
C385 C 0.74929 0.42485 0.26935 0.0
C386 C 0.74317 0.41194 0.24829 0.0
C387 C 0.76013 0.40025 0.30877 0.0
C388 C 0.76665 0.41288 0.33057 0.0
H389 H 0.73495 0.41173 0.21182 0.0
H390 H 0.76482 0.39056 0.32131 0.0
H391 H 0.73344 0.37923 0.09906 0.0
H392 H 0.77498 0.39124 0.08266 0.0
H393 H 0.71261 0.36334 0.39354 0.0
H394 H 0.74517 0.43425 0.25089 0.0
H395 H 0.77601 0.41281 0.36172 0.0
C396 C 0.10689 0.54357 0.4064 0.0
C397 C 0.10781 0.54521 0.34547 0.0
N398 N 0.10437 0.53297 0.31297 0.0
N399 N 0.10302 0.53031 0.41249 0.0
C400 C 0.10143 0.52413 0.35474 0.0
H401 H 0.10878 0.5516 0.44383 0.0
Co402 Co 0.10015 0.52282 0.48574 0.0
C403 C 0.11367 0.49503 0.47723 0.0
O404 O 0.11645 0.49634 0.53697 0.0
N405 N 0.09667 0.51532 0.55986 0.0
C406 C 0.08732 0.50149 0.62197 0.0
C407 C 0.08868 0.50381 0.56211 0.0
C408 C 0.09975 0.51996 0.61947 0.0
N409 N 0.0943 0.51168 0.65822 0.0
O410 O 0.08109 0.51878 0.45689 0.0
H411 H 0.08414 0.49742 0.52242 0.0
H412 H 0.10547 0.52945 0.63478 0.0
O413 O 0.1066 0.50451 0.45121 0.0
C414 C 0.074 0.52987 0.46554 0.0
O415 O 0.08074 0.54159 0.48444 0.0
N416 N 0.11846 0.52827 0.51541 0.0
C417 C 0.14401 0.54115 0.55546 0.0
C418 C 0.14341 0.52917 0.51432 0.0
C419 C 0.13047 0.52313 0.49333 0.0
C420 C 0.11889 0.54025 0.55349 0.0
C421 C 0.13155 0.54675 0.5749 0.0
H422 H 0.13021 0.51489 0.45684 0.0
H423 H 0.10925 0.54507 0.56565 0.0
H424 H 0.09822 0.51334 0.34361 0.0
H425 H 0.1105 0.55478 0.32648 0.0
H426 H 0.08168 0.49289 0.63734 0.0
H427 H 0.15279 0.52498 0.49604 0.0
H428 H 0.13157 0.55622 0.60546 0.0
C429 C 0.243 0.38098 0.18889 0.0
C430 C 0.24095 0.38062 0.12614 0.0
N431 N 0.25341 0.38243 0.10392 0.0
N432 N 0.25666 0.38312 0.2064 0.0
C433 C 0.26276 0.38385 0.15376 0.0
H434 H 0.23502 0.37986 0.21988 0.0
Co435 Co 0.26459 0.38456 0.2867 0.0
C436 C 0.28767 0.40555 0.29062 0.0
O437 O 0.28355 0.41069 0.34332 0.0
N438 N 0.27281 0.38552 0.36871 0.0
C439 C 0.28884 0.38264 0.44605 0.0
C440 C 0.2863 0.38235 0.38355 0.0
C441 C 0.26729 0.38733 0.42344 0.0
N442 N 0.27683 0.38572 0.4711 0.0
O443 O 0.27274 0.36617 0.27244 0.0
H444 H 0.29379 0.37962 0.35069 0.0
H445 H 0.25646 0.38945 0.42899 0.0
O446 O 0.28116 0.3949 0.26175 0.0
C447 C 0.26426 0.35798 0.29427 0.0
O448 O 0.25331 0.3635 0.31852 0.0
N449 N 0.2545 0.40115 0.30131 0.0
C450 C 0.23354 0.42107 0.31534 0.0
C451 C 0.24494 0.42367 0.28187 0.0
C452 C 0.25528 0.41345 0.27465 0.0
C453 C 0.24311 0.39832 0.33089 0.0
C454 C 0.23276 0.40816 0.33974 0.0
H455 H 0.26339 0.41517 0.24514 0.0
H456 H 0.24163 0.38797 0.34502 0.0
H457 H 0.27388 0.3852 0.15203 0.0
H458 H 0.23099 0.37934 0.09928 0.0
H459 H 0.2986 0.38018 0.47093 0.0
H460 H 0.2457 0.43333 0.26042 0.0
H461 H 0.22381 0.40535 0.36293 0.0
C462 C 0.40386 0.54682 0.16837 0.0
C463 C 0.40389 0.54865 0.231 0.0
N464 N 0.40262 0.53601 0.25215 0.0
N465 N 0.40255 0.53309 0.14998 0.0
C466 C 0.40184 0.52675 0.20208 0.0
H467 H 0.40483 0.55499 0.13815 0.0
Co468 Co 0.40258 0.52532 0.06946 0.0
C469 C 0.38303 0.50084 0.05914 0.0
O470 O 0.37871 0.50436 0.00433 0.0
N471 N 0.4031 0.51738 0.98798 0.0
C472 C 0.40836 0.50199 0.91197 0.0
C473 C 0.40835 0.50457 0.97426 0.0
C474 C 0.4001 0.52241 0.93274 0.0
N475 N 0.40317 0.51324 0.88567 0.0
O476 O 0.42122 0.51806 0.08818 0.0
H477 H 0.41215 0.49757 0.00774 0.0
H478 H 0.39585 0.5326 0.92659 0.0
O479 O 0.39271 0.50817 0.09117 0.0
C480 C 0.4294 0.52826 0.08132 0.0
O481 O 0.42375 0.54008 0.06662 0.0
N482 N 0.38571 0.53459 0.05081 0.0
C483 C 0.36565 0.55539 0.03974 0.0
C484 C 0.36265 0.54312 0.06654 0.0
C485 C 0.373 0.5329 0.07294 0.0
C486 C 0.38864 0.54653 0.025 0.0
C487 C 0.37875 0.55694 0.01833 0.0
H488 H 0.37106 0.52423 0.09911 0.0
H489 H 0.39908 0.54835 0.01263 0.0
H490 H 0.40113 0.51555 0.20352 0.0
H491 H 0.4047 0.55854 0.25876 0.0
H492 H 0.41233 0.49271 0.88822 0.0
H493 H 0.35274 0.54184 0.08539 0.0
H494 H 0.38154 0.56643 0.99881 0.0
C495 C 0.24253 0.68003 0.91481 0.0
C496 C 0.2409 0.67918 0.9758 0.0
N497 N 0.25322 0.68237 0.00808 0.0
N498 N 0.25586 0.6836 0.90851 0.0
C499 C 0.2621 0.68509 0.96616 0.0
H500 H 0.23448 0.67825 0.87744 0.0
Co501 Co 0.26339 0.68613 0.83512 0.0
C502 C 0.29087 0.6721 0.84401 0.0
O503 O 0.28926 0.66888 0.78456 0.0
N504 N 0.27095 0.68929 0.76084 0.0
C505 C 0.28498 0.69827 0.69857 0.0
C506 C 0.2827 0.6969 0.75845 0.0
C507 C 0.26611 0.68647 0.70133 0.0
N508 N 0.27451 0.69171 0.66248 0.0
O509 O 0.26766 0.70522 0.86291 0.0
H510 H 0.28926 0.70122 0.79807 0.0
H511 H 0.2564 0.68116 0.68619 0.0
O512 O 0.28164 0.67956 0.86989 0.0
C513 C 0.25669 0.71242 0.85297 0.0
O514 O 0.24496 0.70576 0.83361 0.0
N515 N 0.25774 0.6678 0.80653 0.0
C516 C 0.2447 0.64223 0.76801 0.0
C517 C 0.25653 0.6429 0.80997 0.0
C518 C 0.26264 0.65586 0.83018 0.0
C519 C 0.24586 0.66732 0.76783 0.0
C520 C 0.2393 0.65464 0.74711 0.0
H521 H 0.27075 0.65622 0.86727 0.0
H522 H 0.24114 0.67694 0.75477 0.0
H523 H 0.27295 0.68804 0.97711 0.0
H524 H 0.2313 0.67668 0.99496 0.0
H525 H 0.29372 0.70367 0.68308 0.0
H526 H 0.26056 0.63359 0.82943 0.0
H527 H 0.22992 0.65458 0.71598 0.0
H528 H 0.39061 0.04184 0.83935 0.0
H529 H 0.38919 0.03841 0.72775 0.0
H530 H 0.42604 0.06403 0.72728 0.0
H531 H 0.42796 0.06698 0.83871 0.0
H532 H 0.38598 0.05751 0.64322 0.0
H533 H 0.43603 0.02972 0.62123 0.0
H534 H 0.42836 0.03254 0.69316 0.0
H535 H 0.43803 0.04634 0.66518 0.0
C536 C 0.39856 0.04657 0.81577 0.0
C537 C 0.40947 0.05461 0.84852 0.0
C538 C 0.39766 0.04468 0.7518 0.0
C539 C 0.40764 0.05076 0.71915 0.0
C540 C 0.4184 0.05897 0.75149 0.0
H541 H 0.41758 0.05384 0.3309 0.0
H542 H 0.41896 0.05824 0.44269 0.0
C543 C 0.41936 0.0608 0.81541 0.0
C544 C 0.40661 0.04878 0.65122 0.0
H545 H 0.42445 0.03698 0.52956 0.0
C546 C 0.39437 0.05296 0.61839 0.0
C547 C 0.41757 0.04285 0.61883 0.0
C548 C 0.43068 0.03748 0.65136 0.0
C549 C 0.39286 0.05153 0.5541 0.0
C550 C 0.40384 0.04568 0.52187 0.0
C551 C 0.41609 0.04155 0.55453 0.0
C552 C 0.40265 0.0434 0.45418 0.0
C553 C 0.37962 0.05646 0.52101 0.0
C554 C 0.39307 0.03357 0.42381 0.0
C555 C 0.39228 0.03103 0.36012 0.0
C556 C 0.40105 0.03828 0.32551 0.0
C557 C 0.41057 0.04821 0.35612 0.0
C558 C 0.41143 0.05067 0.41996 0.0
H559 H 0.37355 0.06344 0.55156 0.0
H560 H 0.382 0.06209 0.48114 0.0
H561 H 0.37296 0.04727 0.50365 0.0
H562 H 0.38632 0.02773 0.44949 0.0
H563 H 0.38474 0.02342 0.33793 0.0
H564 H 0.25032 0.17123 0.05743 0.0
H565 H 0.25447 0.17187 0.9498 0.0
H566 H 0.21651 0.19499 0.91888 0.0
H567 H 0.21261 0.19502 0.02663 0.0
H568 H 0.23893 0.16154 0.8465 0.0
H569 H 0.24416 0.21901 0.84673 0.0
H570 H 0.2443 0.2104 0.9164 0.0
H571 H 0.22803 0.21371 0.87342 0.0
C572 C 0.24295 0.17665 0.02813 0.0
C573 C 0.23118 0.18318 0.05136 0.0
C574 C 0.24529 0.1769 0.96636 0.0
C575 C 0.23595 0.1837 0.92643 0.0
C576 C 0.22406 0.18997 0.94905 0.0
H577 H 0.22902 0.19307 0.53551 0.0
H578 H 0.22482 0.19213 0.64334 0.0
C579 C 0.22174 0.1898 0.01079 0.0
C580 C 0.23847 0.184 0.86088 0.0
H581 H 0.24223 0.20598 0.74922 0.0
C582 C 0.23974 0.17126 0.82535 0.0
C583 C 0.23954 0.19669 0.83324 0.0
C584 C 0.23908 0.21073 0.86953 0.0
C585 C 0.24178 0.17087 0.7628 0.0
C586 C 0.24268 0.18355 0.73518 0.0
C587 C 0.24144 0.19628 0.77055 0.0
C588 C 0.24513 0.18382 0.66974 0.0
C589 C 0.24275 0.15692 0.72635 0.0
C590 C 0.25797 0.17956 0.64908 0.0
C591 C 0.26041 0.18012 0.58764 0.0
C592 C 0.25003 0.18493 0.54558 0.0
C593 C 0.23716 0.18917 0.56651 0.0
C594 C 0.23477 0.1887 0.62812 0.0
H595 H 0.23908 0.14821 0.7511 0.0
H596 H 0.2365 0.15688 0.68145 0.0
H597 H 0.25379 0.15497 0.71743 0.0
H598 H 0.26615 0.1759 0.68064 0.0
H599 H 0.27038 0.17665 0.57296 0.0
H600 H 0.11279 0.05637 0.30785 0.0
H601 H 0.11389 0.06075 0.20069 0.0
H602 H 0.09125 0.02241 0.14362 0.0
H603 H 0.08976 0.01806 0.25043 0.0
H604 H 0.1171 0.02699 0.08447 0.0
H605 H 0.08032 0.07159 0.07885 0.0
H606 H 0.09391 0.07251 0.14071 0.0
H607 H 0.08054 0.05932 0.1366 0.0
C608 C 0.10785 0.04894 0.27276 0.0
C609 C 0.10114 0.03685 0.28822 0.0
C610 C 0.10854 0.05146 0.21143 0.0
C611 C 0.10257 0.04195 0.16437 0.0
C612 C 0.09593 0.02987 0.17938 0.0
H613 H 0.09742 0.0333 0.76735 0.0
H614 H 0.09755 0.0296 0.87583 0.0
C615 C 0.09516 0.02737 0.2406 0.0
C616 C 0.10344 0.04443 0.09934 0.0
H617 H 0.09163 0.06559 0.98955 0.0
C618 C 0.11154 0.03542 0.06357 0.0
C619 C 0.09624 0.05548 0.07254 0.0
C620 C 0.08717 0.06527 0.10881 0.0
C621 C 0.11273 0.03723 0.0016 0.0
C622 C 0.10531 0.04814 0.97434 0.0
C623 C 0.0973 0.05722 0.01041 0.0
C624 C 0.10556 0.05024 0.90838 0.0
C625 C 0.12215 0.02761 0.96636 0.0
C626 C 0.10969 0.06318 0.89041 0.0
C627 C 0.1095 0.06536 0.82836 0.0
C628 C 0.10519 0.05464 0.78299 0.0
C629 C 0.10107 0.04168 0.8011 0.0
C630 C 0.10116 0.03954 0.86316 0.0
H631 H 0.13015 0.02283 0.99742 0.0
H632 H 0.11579 0.01902 0.94064 0.0
H633 H 0.12755 0.03326 0.93313 0.0
H634 H 0.11308 0.07161 0.92446 0.0
H635 H 0.11281 0.07542 0.81584 0.0
H636 H 0.23382 0.8691 0.49662 0.0
H637 H 0.22992 0.86748 0.38473 0.0
H638 H 0.26098 0.89968 0.37917 0.0
H639 H 0.265 0.90126 0.49067 0.0
H640 H 0.22143 0.88694 0.30574 0.0
H641 H 0.27468 0.86892 0.26221 0.0
H642 H 0.26818 0.86926 0.33678 0.0
H643 H 0.27465 0.88502 0.31007 0.0
C644 C 0.23976 0.87588 0.47158 0.0
C645 C 0.24983 0.8852 0.50252 0.0
C646 C 0.23756 0.87491 0.40763 0.0
C647 C 0.24538 0.88324 0.37347 0.0
C648 C 0.25512 0.89285 0.40439 0.0
H649 H 0.24602 0.89606 0.98844 0.0
H650 H 0.24925 0.89768 0.1002 0.0
C651 C 0.25739 0.89376 0.46818 0.0
C652 C 0.24326 0.882 0.30556 0.0
H653 H 0.2603 0.87561 0.17622 0.0
C654 C 0.2299 0.88437 0.27742 0.0
C655 C 0.25433 0.87862 0.26862 0.0
C656 C 0.26873 0.87517 0.29588 0.0
C657 C 0.22739 0.88374 0.21339 0.0
C658 C 0.2385 0.88056 0.17667 0.0
C659 C 0.25184 0.87813 0.20466 0.0
C660 C 0.23646 0.87955 0.10894 0.0
C661 C 0.21294 0.88672 0.18539 0.0
C662 C 0.22835 0.86871 0.0769 0.0
C663 C 0.22661 0.86762 0.01295 0.0
C664 C 0.23294 0.87739 0.97963 0.0
C665 C 0.24112 0.88824 0.01219 0.0
C666 C 0.24292 0.88925 0.07618 0.0
H667 H 0.20626 0.89168 0.21975 0.0
H668 H 0.21347 0.89366 0.14786 0.0
H669 H 0.20786 0.87677 0.16553 0.0
H670 H 0.22348 0.86098 0.10139 0.0
H671 H 0.22046 0.85899 0.98977 0.0
H672 H 0.61937 0.04428 0.74723 0.0
H673 H 0.6174 0.03985 0.63567 0.0
H674 H 0.58503 0.00922 0.64544 0.0
H675 H 0.58676 0.01377 0.7571 0.0
H676 H 0.62041 0.01329 0.5638 0.0
H677 H 0.56792 0.0367 0.52289 0.0
H678 H 0.57876 0.0403 0.59381 0.0
H679 H 0.5695 0.02396 0.57824 0.0
C680 C 0.61174 0.03669 0.72569 0.0
C681 C 0.60315 0.02945 0.76114 0.0
C682 C 0.6107 0.0341 0.66196 0.0
C683 C 0.60097 0.02433 0.63233 0.0
C684 C 0.59249 0.01693 0.66744 0.0
H685 H 0.57698 0.99989 0.24755 0.0
H686 H 0.57902 1.00252 0.35923 0.0
C687 C 0.59358 0.01946 0.73128 0.0
C688 C 0.59977 0.02186 0.56465 0.0
H689 H 0.57791 0.02595 0.43675 0.0
C690 C 0.61113 0.01605 0.53591 0.0
C691 C 0.58762 0.02543 0.52857 0.0
C692 C 0.57526 0.03204 0.55716 0.0
C693 C 0.61063 0.01358 0.4719 0.0
C694 C 0.59857 0.01736 0.43564 0.0
C695 C 0.58716 0.02307 0.46454 0.0
C696 C 0.59758 0.01557 0.36766 0.0
C697 C 0.62293 0.00667 0.4439 0.0
C698 C 0.60724 0.02214 0.33506 0.0
C699 C 0.60621 0.02051 0.27106 0.0
C700 C 0.59537 0.01241 0.23813 0.0
C701 C 0.58559 0.006 0.27107 0.0
C702 C 0.58668 0.00758 0.33507 0.0
H703 H 0.6293 1.00077 0.47738 0.0
H704 H 0.61947 0.9994 0.40338 0.0
H705 H 0.62975 0.01482 0.42896 0.0
H706 H 0.61556 0.02861 0.3591 0.0
H707 H 0.61401 0.02551 0.24759 0.0
H708 H 0.73467 0.87568 0.48643 0.0
H709 H 0.7396 0.87622 0.37982 0.0
H710 H 0.78085 0.8926 0.43785 0.0
H711 H 0.77594 0.89241 0.54496 0.0
H712 H 0.74807 0.90069 0.32164 0.0
H713 H 0.78693 0.85786 0.31469 0.0
H714 H 0.77484 0.86004 0.37308 0.0
H715 H 0.78976 0.87141 0.37633 0.0
C716 C 0.74477 0.8795 0.47684 0.0
C717 C 0.7549 0.88402 0.52465 0.0
C718 C 0.74758 0.87972 0.41574 0.0
C719 C 0.76062 0.88433 0.40103 0.0
C720 C 0.77079 0.88881 0.44833 0.0
H721 H 0.79458 0.88864 0.04838 0.0
H722 H 0.79127 0.88975 0.1577 0.0
C723 C 0.76797 0.88865 0.50958 0.0
C724 C 0.76337 0.88472 0.33603 0.0
H725 H 0.78255 0.86955 0.22524 0.0
C726 C 0.75561 0.8939 0.30046 0.0
C727 C 0.77327 0.87591 0.30883 0.0
C728 C 0.78165 0.86566 0.34486 0.0
C729 C 0.75753 0.89455 0.23827 0.0
C730 C 0.76721 0.8855 0.21057 0.0
C731 C 0.77511 0.87645 0.24646 0.0
C732 C 0.76913 0.88507 0.14422 0.0
C733 C 0.74933 0.90509 0.20316 0.0
C734 C 0.75783 0.88192 0.10027 0.0
C735 C 0.75969 0.88133 0.03783 0.0
C736 C 0.77294 0.88369 0.01801 0.0
C737 C 0.78428 0.88668 0.06215 0.0
C738 C 0.78239 0.88736 0.12461 0.0
H739 H 0.74577 0.91384 0.23424 0.0
H740 H 0.75562 0.90945 0.16923 0.0
H741 H 0.73991 0.8999 0.17825 0.0
H742 H 0.74759 0.87972 0.11426 0.0
H743 H 0.75081 0.87871 0.00511 0.0
H744 H 0.90731 0.03467 0.31657 0.0
H745 H 0.90708 0.03838 0.20807 0.0
H746 H 0.89279 0.99595 0.15967 0.0
H747 H 0.89316 0.99214 0.26834 0.0
H748 H 0.91401 1.00261 0.09458 0.0
H749 H 0.87427 0.04423 0.08625 0.0
H750 H 0.88853 0.04844 0.14307 0.0
H751 H 0.87719 0.03387 0.15064 0.0
C752 C 0.90391 0.0262 0.28287 0.0
C753 C 0.90017 0.01313 0.30108 0.0
C754 C 0.90376 0.02834 0.22079 0.0
C755 C 0.89967 0.01752 0.17562 0.0
C756 C 0.89593 0.00447 0.19368 0.0
H757 H 0.89255 0.01128 0.77609 0.0
H758 H 0.8916 0.00684 0.88327 0.0
C759 C 0.89618 1.00229 0.25576 0.0
C760 C 0.89984 0.01965 0.10963 0.0
H761 H 0.88742 0.04048 0.99932 0.0
C762 C 0.9081 0.01081 0.07365 0.0
C763 C 0.89211 0.03035 0.08226 0.0
C764 C 0.88242 0.03967 0.11739 0.0
C765 C 0.9091 0.0126 0.01152 0.0
C766 C 0.90157 0.02345 0.98461 0.0
C767 C 0.89323 0.03222 0.02029 0.0
C768 C 0.90235 0.02598 0.91955 0.0
C769 C 0.91844 1.0031 0.97536 0.0
C770 C 0.90861 0.03826 0.9045 0.0
C771 C 0.90929 0.04079 0.84325 0.0
C772 C 0.9036 0.03114 0.79566 0.0
C773 C 0.89727 0.01885 0.81117 0.0
C774 C 0.89666 0.0163 0.87251 0.0
H775 H 0.92549 0.99698 0.0054 0.0
H776 H 0.9119 0.99566 0.94352 0.0
H777 H 0.92487 0.00924 0.94752 0.0
H778 H 0.91306 0.04585 0.94024 0.0
H779 H 0.91441 0.05027 0.83339 0.0
H780 H 0.73552 0.18606 0.58478 0.0
H781 H 0.74023 0.1869 0.69579 0.0
H782 H 0.78415 0.18164 0.67612 0.0
H783 H 0.77955 0.18047 0.56474 0.0
H784 H 0.75417 0.16551 0.76491 0.0
H785 H 0.78157 0.21704 0.79973 0.0
H786 H 0.77048 0.21169 0.73112 0.0
H787 H 0.78766 0.20458 0.74239 0.0
C788 C 0.74618 0.18498 0.60375 0.0
C789 C 0.75715 0.1832 0.56543 0.0
C790 C 0.74885 0.18554 0.66735 0.0
C791 C 0.76254 0.18447 0.69411 0.0
C792 C 0.77353 0.18271 0.65632 0.0
H793 H 0.79679 0.18924 0.07533 0.0
H794 H 0.7936 0.18737 0.96335 0.0
C795 C 0.77087 0.18208 0.5926 0.0
C796 C 0.7652 0.1849 0.76158 0.0
H797 H 0.78021 0.20461 0.88685 0.0
C798 C 0.75986 0.17405 0.79169 0.0
C799 C 0.7727 0.19601 0.79615 0.0
C800 C 0.77838 0.20807 0.76601 0.0
C801 C 0.7619 0.17395 0.85561 0.0
C802 C 0.76916 0.18522 0.89046 0.0
C803 C 0.77463 0.196 0.86016 0.0
C804 C 0.77105 0.18612 0.95841 0.0
C805 C 0.75647 0.16165 0.88499 0.0
C806 C 0.75944 0.1862 0.99294 0.0
C807 C 0.76124 0.18721 0.0569 0.0
C808 C 0.77469 0.18836 0.08769 0.0
C809 C 0.7863 0.18846 0.053 0.0
C810 C 0.78449 0.18735 0.98902 0.0
H811 H 0.75506 0.15224 0.85185 0.0
H812 H 0.76365 0.15903 0.9246 0.0
H813 H 0.74615 0.16427 0.90159 0.0
H814 H 0.74895 0.18567 0.97044 0.0
H815 H 0.75208 0.18739 0.08222 0.0
H816 H 0.88738 0.5495 0.33902 0.0
H817 H 0.88522 0.54636 0.22686 0.0
H818 H 0.92879 0.55717 0.22604 0.0
H819 H 0.93078 0.56084 0.33782 0.0
H820 H 0.91421 0.56956 0.14144 0.0
H821 H 0.8977 0.51397 0.12068 0.0
H822 H 0.88603 0.52502 0.16157 0.0
H823 H 0.90378 0.52313 0.19308 0.0
C824 C 0.89648 0.55112 0.3147 0.0
C825 C 0.90925 0.55537 0.34696 0.0
C826 C 0.89527 0.54926 0.25068 0.0
C827 C 0.90691 0.55124 0.21784 0.0
C828 C 0.91966 0.55556 0.2502 0.0
H829 H 0.91461 0.51939 0.84232 0.0
H830 H 0.91571 0.5239 0.9537 0.0
C831 C 0.92079 0.55767 0.31404 0.0
C832 C 0.90586 0.54906 0.14983 0.0
H833 H 0.89634 0.5253 0.02872 0.0
C834 C 0.91035 0.55986 0.1168 0.0
C835 C 0.90101 0.53633 0.11758 0.0
C836 C 0.897 0.52391 0.15006 0.0
C837 C 0.91015 0.55829 0.05268 0.0
C838 C 0.90481 0.54575 0.0203 0.0
C839 C 0.9003 0.53497 0.05335 0.0
C840 C 0.9043 0.54331 0.95243 0.0
C841 C 0.91612 0.56993 0.02073 0.0
C842 C 0.89749 0.55266 0.91434 0.0
C843 C 0.8971 0.55021 0.85058 0.0
C844 C 0.90317 0.53816 0.82379 0.0
C845 C 0.90977 0.5287 0.86185 0.0
C846 C 0.9104 0.53129 0.92546 0.0
H847 H 0.92351 0.57662 0.05228 0.0
H848 H 0.92167 0.56575 0.981 0.0
H849 H 0.9075 0.57666 0.00401 0.0
H850 H 0.89233 0.56178 0.93381 0.0
H851 H 0.89177 0.55753 0.82213 0.0
H852 H 0.71027 0.67952 0.53449 0.0
H853 H 0.71352 0.6783 0.4251 0.0
H854 H 0.75724 0.68825 0.46794 0.0
H855 H 0.75407 0.68937 0.57717 0.0
H856 H 0.72225 0.69838 0.35704 0.0
H857 H 0.75892 0.654 0.34857 0.0
H858 H 0.74912 0.65849 0.41363 0.0
H859 H 0.76484 0.66798 0.40426 0.0
C860 C 0.72057 0.68145 0.52058 0.0
C861 C 0.73193 0.68445 0.56456 0.0
C862 C 0.72242 0.6807 0.45807 0.0
C863 C 0.73567 0.68293 0.43828 0.0
C864 C 0.747 0.68609 0.48208 0.0
H865 H 0.77009 0.69212 0.09613 0.0
H866 H 0.76513 0.6916 0.20268 0.0
C867 C 0.74517 0.68675 0.54456 0.0
C868 C 0.73756 0.68242 0.37189 0.0
H869 H 0.75665 0.66709 0.26093 0.0
C870 C 0.72967 0.69144 0.33588 0.0
C871 C 0.74721 0.67332 0.34428 0.0
C872 C 0.75541 0.6628 0.37953 0.0
C873 C 0.73149 0.69192 0.27346 0.0
C874 C 0.74138 0.68307 0.24636 0.0
C875 C 0.74912 0.67391 0.28204 0.0
C876 C 0.74414 0.68344 0.18137 0.0
C877 C 0.72313 0.70216 0.23729 0.0
C878 C 0.73399 0.67892 0.13404 0.0
C879 C 0.73683 0.67906 0.07281 0.0
C880 C 0.7499 0.68372 0.0578 0.0
C881 C 0.76 0.68827 0.10566 0.0
C882 C 0.75717 0.68806 0.16673 0.0
H883 H 0.71782 0.70996 0.26733 0.0
H884 H 0.72996 0.70777 0.20914 0.0
H885 H 0.71504 0.69639 0.20573 0.0
H886 H 0.72394 0.67511 0.14449 0.0
H887 H 0.72888 0.67527 0.03739 0.0
H888 H 0.61165 0.55725 0.79455 0.0
H889 H 0.61229 0.56209 0.68756 0.0
H890 H 0.59394 0.52165 0.62886 0.0
H891 H 0.59292 0.51682 0.73533 0.0
H892 H 0.61918 0.52909 0.57169 0.0
H893 H 0.57788 0.56957 0.56367 0.0
H894 H 0.59133 0.57175 0.62604 0.0
H895 H 0.57934 0.55729 0.62152 0.0
C896 C 0.60755 0.54945 0.75906 0.0
C897 C 0.60222 0.53663 0.77389 0.0
C898 C 0.60798 0.55223 0.69788 0.0
C899 C 0.60309 0.54225 0.65046 0.0
C900 C 0.59778 0.52947 0.66491 0.0
H901 H 0.59787 0.53247 0.25473 0.0
H902 H 0.59875 0.52921 0.36384 0.0
C903 C 0.59728 0.52671 0.72593 0.0
C904 C 0.60374 0.54495 0.58557 0.0
H905 H 0.58951 0.56461 0.4745 0.0
C906 C 0.61272 0.53686 0.55033 0.0
C907 C 0.59536 0.55516 0.55819 0.0
C908 C 0.58534 0.56392 0.59395 0.0
C909 C 0.61358 0.53872 0.48821 0.0
C910 C 0.60495 0.54871 0.4603 0.0
C911 C 0.5961 0.55694 0.4959 0.0
C912 C 0.60471 0.55061 0.394 0.0
C913 C 0.62391 0.53014 0.45345 0.0
C914 C 0.60742 0.5638 0.37454 0.0
C915 C 0.6068 0.56571 0.31213 0.0
C916 C 0.60346 0.55447 0.26791 0.0
C917 C 0.60075 0.54127 0.28755 0.0
C918 C 0.60127 0.53939 0.34996 0.0
H919 H 0.63248 0.52633 0.48477 0.0
H920 H 0.61846 0.52087 0.4285 0.0
H921 H 0.62854 0.53625 0.41959 0.0
H922 H 0.61004 0.57262 0.40771 0.0
H923 H 0.60904 0.57597 0.29844 0.0
H924 H 0.75543 0.37911 0.48602 0.0
H925 H 0.75835 0.3807 0.59794 0.0
H926 H 0.71367 0.37827 0.60308 0.0
H927 H 0.71071 0.37653 0.49117 0.0
H928 H 0.74904 0.39995 0.68239 0.0
H929 H 0.72648 0.34794 0.71048 0.0
H930 H 0.73094 0.35293 0.63741 0.0
H931 H 0.71491 0.35878 0.66726 0.0
C932 C 0.74623 0.37898 0.51096 0.0
C933 C 0.73284 0.37761 0.47965 0.0
C934 C 0.74791 0.37983 0.57495 0.0
C935 C 0.73625 0.37934 0.60896 0.0
C936 C 0.72285 0.37827 0.57787 0.0
H937 H 0.72793 0.38681 0.00262 0.0
H938 H 0.72345 0.38562 0.89108 0.0
C939 C 0.72117 0.37731 0.51388 0.0
C940 C 0.73813 0.38022 0.67694 0.0
H941 H 0.73152 0.36302 0.80113 0.0
C942 C 0.74525 0.39185 0.70829 0.0
C943 C 0.73316 0.36965 0.7108 0.0
C944 C 0.72606 0.35655 0.67983 0.0
C945 C 0.74744 0.39325 0.77246 0.0
C946 C 0.74248 0.38269 0.80616 0.0
C947 C 0.73525 0.37113 0.77505 0.0
C948 C 0.74514 0.38325 0.87368 0.0
C949 C 0.75494 0.40607 0.80387 0.0
C950 C 0.75879 0.38208 0.90069 0.0
C951 C 0.76138 0.38259 0.96429 0.0
C952 C 0.75037 0.38431 0.00242 0.0
C953 C 0.73666 0.38534 0.97496 0.0
C954 C 0.73407 0.38474 0.91117 0.0
H955 H 0.75533 0.41457 0.77292 0.0
H956 H 0.74979 0.41004 0.8451 0.0
H957 H 0.76583 0.4033 0.8189 0.0
H958 H 0.76744 0.38066 0.87246 0.0
H959 H 0.77203 0.38148 0.98338 0.0
H960 H 0.11419 0.52641 0.73325 0.0
H961 H 0.11588 0.52955 0.84503 0.0
H962 H 0.07899 0.50405 0.84611 0.0
H963 H 0.07694 0.50113 0.73447 0.0
H964 H 0.09399 0.54075 0.92128 0.0
H965 H 0.10951 0.48648 0.96407 0.0
H966 H 0.11152 0.4937 0.89221 0.0
H967 H 0.09459 0.48826 0.91008 0.0
C968 C 0.10634 0.52156 0.75698 0.0
C969 C 0.09542 0.51349 0.72439 0.0
C970 C 0.10739 0.52329 0.82098 0.0
C971 C 0.09766 0.51689 0.85372 0.0
C972 C 0.08675 0.50888 0.82164 0.0
H973 H 0.08741 0.51434 0.24171 0.0
H974 H 0.08569 0.51041 0.1298 0.0
C975 C 0.08563 0.5072 0.75767 0.0
C976 C 0.09871 0.51888 0.92145 0.0
H977 H 0.10498 0.50168 0.05029 0.0
C978 C 0.09644 0.53224 0.9496 0.0
C979 C 0.10179 0.50771 0.95803 0.0
C980 C 0.1046 0.49322 0.92984 0.0
C981 C 0.097 0.53472 0.01359 0.0
C982 C 0.10029 0.52359 0.05038 0.0
C983 C 0.10249 0.5102 0.02208 0.0
C984 C 0.10162 0.52568 0.11829 0.0
C985 C 0.09372 0.54916 0.04104 0.0
C986 C 0.11136 0.53531 0.14905 0.0
C987 C 0.11233 0.53759 0.21283 0.0
C988 C 0.1037 0.53016 0.24733 0.0
C989 C 0.09425 0.52018 0.21654 0.0
C990 C 0.09322 0.51797 0.15259 0.0
H991 H 0.08752 0.55519 0.00753 0.0
H992 H 0.08784 0.54865 0.08204 0.0
H993 H 0.10363 0.55497 0.05513 0.0
H994 H 0.11824 0.54109 0.1237 0.0
H995 H 0.11993 0.54512 0.2352 0.0
H996 H 0.27593 0.39401 0.05942 0.0
H997 H 0.28016 0.39499 0.95199 0.0
H998 H 0.24122 0.37336 0.89625 0.0
H999 H 0.23701 0.37196 0.00321 0.0
H1000 H 0.28078 0.37115 0.85735 0.0
H1001 H 0.23964 0.40992 0.80411 0.0
H1002 H 0.24668 0.40765 0.88141 0.0
H1003 H 0.23428 0.39523 0.84216 0.0
C1004 C 0.2683 0.38932 0.02456 0.0
C1005 C 0.25607 0.38294 0.04046 0.0
C1006 C 0.27072 0.38998 0.96308 0.0
C1007 C 0.26091 0.38442 0.9163 0.0
C1008 C 0.2488 0.37793 0.93175 0.0
H1009 H 0.25305 0.37882 0.5198 0.0
H1010 H 0.24953 0.37865 0.62847 0.0
C1011 C 0.2464 0.37718 0.99311 0.0
C1012 C 0.26342 0.38518 0.85119 0.0
H1013 H 0.25097 0.39947 0.72073 0.0
C1014 C 0.27434 0.37739 0.82744 0.0
C1015 C 0.25492 0.39327 0.81241 0.0
C1016 C 0.24327 0.4021 0.83616 0.0
C1017 C 0.2768 0.37723 0.7654 0.0
C1018 C 0.26833 0.38538 0.7265 0.0
C1019 C 0.25746 0.39323 0.75051 0.0
C1020 C 0.27047 0.38579 0.66061 0.0
C1021 C 0.28817 0.36798 0.74178 0.0
C1022 C 0.28332 0.39012 0.64247 0.0
C1023 C 0.28536 0.39019 0.58037 0.0
C1024 C 0.27453 0.38612 0.53511 0.0
C1025 C 0.26155 0.38214 0.55344 0.0
C1026 C 0.25955 0.38197 0.61556 0.0
H1027 H 0.2909 0.35959 0.7723 0.0
H1028 H 0.285 0.36306 0.69507 0.0
H1029 H 0.29771 0.37438 0.73972 0.0
H1030 H 0.29177 0.3935 0.67635 0.0
H1031 H 0.29538 0.39353 0.56771 0.0
H1032 H 0.40176 0.49311 0.79045 0.0
H1033 H 0.40117 0.49651 0.68162 0.0
H1034 H 0.40078 0.54113 0.72389 0.0
H1035 H 0.40182 0.53793 0.83309 0.0
H1036 H 0.37968 0.5273 0.62098 0.0
H1037 H 0.43584 0.5148 0.6037 0.0
H1038 H 0.42564 0.50333 0.64329 0.0
H1039 H 0.42914 0.52092 0.67534 0.0
C1040 C 0.40166 0.50367 0.77696 0.0
C1041 C 0.40196 0.51524 0.82107 0.0
C1042 C 0.40124 0.50557 0.71461 0.0
C1043 C 0.40102 0.51905 0.69499 0.0
C1044 C 0.40093 0.53063 0.73835 0.0
H1045 H 0.41562 0.55069 0.35156 0.0
H1046 H 0.41475 0.54614 0.4588 0.0
C1047 C 0.40146 0.52876 0.80083 0.0
C1048 C 0.4012 0.52107 0.62922 0.0
H1049 H 0.42249 0.51927 0.51255 0.0
C1050 C 0.389 0.52552 0.59709 0.0
C1051 C 0.41342 0.51879 0.59861 0.0
C1052 C 0.42682 0.51427 0.63176 0.0
C1053 C 0.38871 0.52768 0.53468 0.0
C1054 C 0.40092 0.52533 0.504 0.0
C1055 C 0.41313 0.52096 0.53627 0.0
C1056 C 0.40138 0.5279 0.43889 0.0
C1057 C 0.37546 0.53271 0.50208 0.0
C1058 C 0.39426 0.51904 0.39227 0.0
C1059 C 0.39477 0.52159 0.33085 0.0
C1060 C 0.40235 0.5331 0.31518 0.0
C1061 C 0.40954 0.54187 0.36217 0.0
C1062 C 0.40912 0.53925 0.4234 0.0
H1063 H 0.36756 0.53595 0.53433 0.0
H1064 H 0.37774 0.54167 0.47576 0.0
H1065 H 0.3709 0.52418 0.46906 0.0
H1066 H 0.38832 0.51016 0.40344 0.0
H1067 H 0.38905 0.51471 0.29573 0.0
H1068 H 0.2722 0.69895 0.07906 0.0
H1069 H 0.27659 0.70023 0.19084 0.0
H1070 H 0.24509 0.66852 0.19751 0.0
H1071 H 0.24079 0.66705 0.08598 0.0
H1072 H 0.25548 0.70639 0.27777 0.0
H1073 H 0.28033 0.65466 0.29927 0.0
H1074 H 0.27927 0.66314 0.22893 0.0
H1075 H 0.26418 0.65455 0.25142 0.0
C1076 C 0.26635 0.69213 0.10425 0.0
C1077 C 0.25614 0.6829 0.07363 0.0
C1078 C 0.26881 0.69293 0.16807 0.0
C1079 C 0.26125 0.68438 0.20224 0.0
C1080 C 0.25115 0.67509 0.17186 0.0
H1081 H 0.25914 0.67238 0.58709 0.0
H1082 H 0.25567 0.67111 0.47551 0.0
C1083 C 0.24861 0.67436 0.10819 0.0
C1084 C 0.26354 0.6855 0.2699 0.0
H1085 H 0.27473 0.66729 0.39103 0.0
C1086 C 0.25977 0.6979 0.30266 0.0
C1087 C 0.26902 0.67434 0.30201 0.0
C1088 C 0.27355 0.66094 0.2688 0.0
C1089 C 0.26107 0.69933 0.36695 0.0
C1090 C 0.26664 0.68819 0.39921 0.0
C1091 C 0.27046 0.67581 0.36629 0.0
C1092 C 0.26862 0.68916 0.4671 0.0
C1093 C 0.2561 0.71262 0.39961 0.0
C1094 C 0.27716 0.69965 0.49952 0.0
C1095 C 0.27902 0.70054 0.56341 0.0
C1096 C 0.27252 0.69082 0.59639 0.0
C1097 C 0.26412 0.68019 0.56358 0.0
C1098 C 0.26221 0.67937 0.49964 0.0
H1099 H 0.24854 0.71822 0.36954 0.0
H1100 H 0.25107 0.71045 0.44136 0.0
H1101 H 0.26517 0.7197 0.41354 0.0
H1102 H 0.28247 0.70714 0.47537 0.0
H1103 H 0.28547 0.70892 0.5868 0.0
H1104 H 0.38479 0.0717 0.21559 0.0
H1105 H 0.36542 0.08353 0.26365 0.0
H1106 H 0.35827 0.10812 0.10956 0.0
H1107 H 0.37749 0.0964 0.0611 0.0
H1108 H 0.35697 0.11893 0.26881 0.0
H1109 H 0.32308 0.07753 0.13771 0.0
H1110 H 0.34084 0.07414 0.16621 0.0
H1111 H 0.33756 0.08433 0.10219 0.0
C1112 C 0.37942 0.07996 0.19287 0.0
C1113 C 0.38261 0.083 0.13412 0.0
C1114 C 0.36831 0.08665 0.22031 0.0
C1115 C 0.36037 0.09657 0.18976 0.0
C1116 C 0.36427 0.10045 0.1337 0.0
H1117 H 0.28318 0.13782 0.16454 0.0
H1118 H 0.30441 0.12423 0.15351 0.0
C1119 C 0.37528 0.09375 0.10615 0.0
C1120 C 0.34707 0.10176 0.21196 0.0
H1121 H 0.3118 0.0968 0.18516 0.0
C1122 C 0.34708 0.11399 0.25164 0.0
C1123 C 0.33424 0.09528 0.18904 0.0
C1124 C 0.33379 0.08205 0.14656 0.0
C1125 C 0.33448 0.12025 0.26702 0.0
C1126 C 0.32161 0.11402 0.24231 0.0
C1127 C 0.32167 0.10151 0.20431 0.0
C1128 C 0.30806 0.12112 0.24972 0.0
C1129 C 0.33502 0.13386 0.30692 0.0
C1130 C 0.30278 0.12348 0.30724 0.0
C1131 C 0.29055 0.13122 0.31362 0.0
C1132 C 0.28347 0.13675 0.26257 0.0
C1133 C 0.28846 0.13378 0.20473 0.0
C1134 C 0.30059 0.12601 0.19837 0.0
H1135 H 0.34575 0.13835 0.31478 0.0
H1136 H 0.32801 0.14163 0.28583 0.0
H1137 H 0.33133 0.13208 0.35201 0.0
H1138 H 0.30829 0.11962 0.34733 0.0
H1139 H 0.287 0.13343 0.35879 0.0
H1140 H 0.1461 0.08339 0.59499 0.0
H1141 H 0.16021 0.10076 0.55394 0.0
H1142 H 0.13472 0.0956 0.38233 0.0
H1143 H 0.12033 0.078 0.42358 0.0
H1144 H 0.17595 0.0966 0.45514 0.0
H1145 H 0.13722 0.13849 0.41772 0.0
H1146 H 0.13434 0.12452 0.46517 0.0
H1147 H 0.13209 0.12138 0.38327 0.0
C1148 C 0.14332 0.08595 0.54857 0.0
C1149 C 0.13199 0.07919 0.51271 0.0
C1150 C 0.15147 0.09596 0.52511 0.0
C1151 C 0.14856 0.09966 0.4651 0.0
C1152 C 0.1371 0.09314 0.42915 0.0
H1153 H 0.20351 0.13995 0.24198 0.0
H1154 H 0.18641 0.12576 0.28467 0.0
C1155 C 0.12888 0.08303 0.45272 0.0
C1156 C 0.15809 0.10975 0.44022 0.0
H1157 H 0.15962 0.14177 0.38309 0.0
C1158 C 0.17234 0.10648 0.43953 0.0
C1159 C 0.1535 0.12274 0.42025 0.0
C1160 C 0.13848 0.12712 0.42195 0.0
C1161 C 0.18198 0.11565 0.41879 0.0
C1162 C 0.17737 0.12853 0.3981 0.0
C1163 C 0.16318 0.13192 0.3992 0.0
C1164 C 0.18713 0.13807 0.37175 0.0
C1165 C 0.19711 0.11153 0.4188 0.0
C1166 C 0.1932 0.14993 0.40625 0.0
C1167 C 0.20317 0.15817 0.38191 0.0
C1168 C 0.20722 0.1547 0.32251 0.0
C1169 C 0.20078 0.14301 0.28792 0.0
C1170 C 0.19092 0.13483 0.3122 0.0
H1171 H 0.19939 0.10208 0.44349 0.0
H1172 H 0.19976 0.10933 0.37085 0.0
H1173 H 0.20395 0.12025 0.44035 0.0
H1174 H 0.19046 0.15263 0.45247 0.0
H1175 H 0.2079 0.16705 0.40997 0.0
H1176 H 0.19135 0.90869 0.76794 0.0
H1177 H 0.17838 0.92686 0.71789 0.0
H1178 H 0.20221 0.91975 0.5612 0.0
H1179 H 0.21545 0.90154 0.61167 0.0
H1180 H 0.20259 0.94733 0.60691 0.0
H1181 H 0.14815 0.92784 0.57908 0.0
H1182 H 0.15574 0.92668 0.65577 0.0
H1183 H 0.16281 0.91649 0.59322 0.0
C1184 C 0.19359 0.91068 0.72209 0.0
C1185 C 0.20446 0.90365 0.69393 0.0
C1186 C 0.1861 0.92107 0.69334 0.0
C1187 C 0.18923 0.92464 0.63551 0.0
C1188 C 0.19958 0.91713 0.6057 0.0
H1189 H 0.15414 0.99989 0.47346 0.0
H1190 H 0.16741 0.97817 0.48232 0.0
C1191 C 0.20705 0.90664 0.63442 0.0
C1192 C 0.18269 0.93717 0.61014 0.0
H1193 H 0.15118 0.95301 0.58542 0.0
C1194 C 0.19135 0.94846 0.60068 0.0
C1195 C 0.16803 0.93867 0.60189 0.0
C1196 C 0.15816 0.9267 0.6074 0.0
C1197 C 0.18571 0.96146 0.58723 0.0
C1198 C 0.17108 0.96317 0.58306 0.0
C1199 C 0.16242 0.95169 0.58919 0.0
C1200 C 0.16456 0.97704 0.57814 0.0
C1201 C 0.19537 0.97353 0.58093 0.0
C1202 C 0.15889 0.98373 0.62936 0.0
C1203 C 0.15147 0.99611 0.62462 0.0
C1204 C 0.14941 1.00203 0.56832 0.0
C1205 C 0.15566 0.99566 0.51757 0.0
C1206 C 0.16316 0.98323 0.52244 0.0
H1207 H 0.20654 0.97065 0.5878 0.0
H1208 H 0.19333 0.97724 0.53465 0.0
H1209 H 0.1933 0.98237 0.61482 0.0
H1210 H 0.15993 0.97915 0.67281 0.0
H1211 H 0.14693 1.00083 0.66473 0.0
H1212 H 0.33601 0.03859 0.97362 0.0
H1213 H 0.31396 0.02601 0.93975 0.0
H1214 H 0.33288 0.98749 0.98967 0.0
H1215 H 0.3548 0.9999 0.02303 0.0
H1216 H 0.31231 1.00127 0.84573 0.0
H1217 H 0.29437 0.99011 0.06935 0.0
H1218 H 0.306 0.0045 0.06092 0.0
H1219 H 0.31264 0.98706 0.06284 0.0
C1220 C 0.33535 0.02747 0.97778 0.0
C1221 C 0.34707 0.02016 1.00039 0.0
C1222 C 0.32282 0.02033 0.95852 0.0
C1223 C 0.32183 0.0059 0.96302 0.0
C1224 C 0.33344 0.99867 0.98668 0.0
H1225 H 0.28782 0.93189 0.80617 0.0
H1226 H 0.30002 0.95395 0.83964 0.0
C1227 C 0.34596 0.00573 0.00511 0.0
C1228 C 0.30912 0.99793 0.93901 0.0
H1229 H 0.28578 0.9747 0.98177 0.0
C1230 C 0.30621 0.99575 0.87537 0.0
C1231 C 0.30117 0.99086 0.97794 0.0
C1232 C 0.30359 0.99332 0.04665 0.0
C1233 C 0.29631 0.98571 0.84954 0.0
C1234 C 0.28926 0.97775 0.88851 0.0
C1235 C 0.2913 0.9808 0.95211 0.0
C1236 C 0.28146 0.96493 0.86466 0.0
C1237 C 0.29401 0.98312 0.78084 0.0
C1238 C 0.26701 0.96386 0.86823 0.0
C1239 C 0.26 0.95126 0.84891 0.0
C1240 C 0.26744 0.93955 0.82713 0.0
C1241 C 0.28189 0.94073 0.82343 0.0
C1242 C 0.28883 0.95332 0.84193 0.0
H1243 H 0.29721 0.99231 0.75785 0.0
H1244 H 0.30036 0.97408 0.76533 0.0
H1245 H 0.28287 0.98061 0.7662 0.0
H1246 H 0.26122 0.97271 0.88629 0.0
H1247 H 0.24885 0.95055 0.85232 0.0
H1248 H 0.72163 0.92909 0.91663 0.0
H1249 H 0.70063 0.9429 0.92994 0.0
H1250 H 0.69813 0.951 0.7397 0.0
H1251 H 0.71917 0.93695 0.72589 0.0
H1252 H 0.69403 0.97088 0.90865 0.0
H1253 H 0.65994 0.93253 0.75961 0.0
H1254 H 0.67746 0.92836 0.78838 0.0
H1255 H 0.67472 0.93943 0.72692 0.0
C1256 C 0.71671 0.93395 0.87778 0.0
C1257 C 0.722 0.93188 0.82015 0.0
C1258 C 0.70471 0.94184 0.88543 0.0
C1259 C 0.69766 0.94777 0.83559 0.0
C1260 C 0.70328 0.94632 0.77855 0.0
H1261 H 0.62 0.99582 0.8706 0.0
H1262 H 0.6396 0.98434 0.82276 0.0
C1263 C 0.71538 0.93845 0.77089 0.0
C1264 C 0.68421 0.95498 0.84396 0.0
H1265 H 0.64885 0.95129 0.81121 0.0
C1266 C 0.68418 0.96672 0.88661 0.0
C1267 C 0.67133 0.94951 0.81531 0.0
C1268 C 0.67074 0.93671 0.77024 0.0
C1269 C 0.67164 0.97288 0.90269 0.0
C1270 C 0.65878 0.96706 0.87597 0.0
C1271 C 0.65875 0.95569 0.83149 0.0
C1272 C 0.6454 0.97201 0.89843 0.0
C1273 C 0.67215 0.98531 0.94972 0.0
C1274 C 0.64182 0.96835 0.95534 0.0
C1275 C 0.63067 0.97482 0.98264 0.0
C1276 C 0.62287 0.98513 0.95364 0.0
C1277 C 0.62574 0.9879 0.89414 0.0
C1278 C 0.63699 0.98142 0.86684 0.0
H1279 H 0.68277 0.99007 0.95798 0.0
H1280 H 0.66466 0.9934 0.9349 0.0
H1281 H 0.66907 0.98195 0.99366 0.0
H1282 H 0.64815 0.96104 0.98018 0.0
H1283 H 0.6287 0.97237 0.02825 0.0
H1284 H 0.80615 0.9216 0.84115 0.0
H1285 H 0.82332 0.9361 0.80011 0.0
H1286 H 0.81017 0.91839 0.61744 0.0
H1287 H 0.79275 0.90379 0.65843 0.0
H1288 H 0.8459 0.92979 0.72993 0.0
H1289 H 0.80588 0.96068 0.60457 0.0
H1290 H 0.80159 0.94939 0.66173 0.0
H1291 H 0.80472 0.94209 0.58627 0.0
C1292 C 0.80691 0.92068 0.79216 0.0
C1293 C 0.79794 0.91153 0.75315 0.0
C1294 C 0.81681 0.929 0.76875 0.0
C1295 C 0.81798 0.92857 0.70553 0.0
C1296 C 0.80936 0.91912 0.66635 0.0
H1297 H 0.86417 0.97969 0.48312 0.0
H1298 H 0.84997 0.96218 0.5231 0.0
C1299 C 0.79946 0.91068 0.68989 0.0
C1300 C 0.82796 0.93832 0.6813 0.0
H1301 H 0.82942 0.96591 0.59364 0.0
C1302 C 0.8423 0.93768 0.69999 0.0
C1303 C 0.82333 0.94871 0.64257 0.0
C1304 C 0.80804 0.95041 0.62288 0.0
C1305 C 0.85211 0.94688 0.68013 0.0
C1306 C 0.84747 0.95734 0.64157 0.0
C1307 C 0.8331 0.95796 0.62308 0.0
C1308 C 0.85722 0.96749 0.61813 0.0
C1309 C 0.86739 0.94506 0.69946 0.0
C1310 C 0.86634 0.97638 0.6578 0.0
C1311 C 0.87472 0.98643 0.63469 0.0
C1312 C 0.87397 0.98796 0.57146 0.0
C1313 C 0.86502 0.9789 0.53208 0.0
C1314 C 0.85682 0.96884 0.55498 0.0
H1315 H 0.86956 0.93439 0.71344 0.0
H1316 H 0.87395 0.94702 0.66198 0.0
H1317 H 0.87052 0.95262 0.73935 0.0
H1318 H 0.86669 0.97587 0.70682 0.0
H1319 H 0.88133 0.99333 0.66644 0.0
H1320 H 0.85589 0.0649 0.41685 0.0
H1321 H 0.84289 0.08657 0.40773 0.0
H1322 H 0.83826 0.0898 0.60137 0.0
H1323 H 0.85142 0.06801 0.61103 0.0
H1324 H 0.81255 0.09551 0.48525 0.0
H1325 H 0.86264 0.12559 0.51703 0.0
H1326 H 0.86218 0.10869 0.47418 0.0
H1327 H 0.86019 0.10988 0.55464 0.0
C1328 C 0.85189 0.07008 0.45734 0.0
C1329 C 0.85472 0.06479 0.51469 0.0
C1330 C 0.84448 0.08245 0.45204 0.0
C1331 C 0.83974 0.0898 0.50392 0.0
C1332 C 0.84185 0.08423 0.56084 0.0
H1333 H 0.79092 0.16674 0.46095 0.0
H1334 H 0.80286 0.14818 0.51418 0.0
C1335 C 0.84928 0.07176 0.5662 0.0
C1336 C 0.83349 0.10375 0.49819 0.0
H1337 H 0.84253 0.13745 0.48014 0.0
C1338 C 0.81901 0.10479 0.4855 0.0
C1339 C 0.84203 0.11574 0.49814 0.0
C1340 C 0.85764 0.11506 0.51194 0.0
C1341 C 0.81289 0.11742 0.46978 0.0
C1342 C 0.82151 0.12932 0.46733 0.0
C1343 C 0.83594 0.12837 0.4825 0.0
C1344 C 0.81596 0.14217 0.44141 0.0
C1345 C 0.79737 0.11774 0.45224 0.0
C1346 C 0.81997 0.1455 0.38462 0.0
C1347 C 0.81323 0.1561 0.35426 0.0
C1348 C 0.80237 0.16365 0.38019 0.0
C1349 C 0.79923 0.16115 0.43962 0.0
C1350 C 0.80594 0.15043 0.46987 0.0
H1351 H 0.79253 0.10715 0.4481 0.0
H1352 H 0.79228 0.12433 0.48769 0.0
H1353 H 0.7952 0.12241 0.40802 0.0
H1354 H 0.82776 0.13933 0.36204 0.0
H1355 H 0.81597 0.15782 0.30879 0.0
H1356 H 0.73908 0.12862 0.15027 0.0
H1357 H 0.7247 0.1075 0.12412 0.0
H1358 H 0.7274 0.09944 0.31437 0.0
H1359 H 0.74161 0.12062 0.34112 0.0
H1360 H 0.72884 0.07694 0.15856 0.0
H1361 H 0.68467 0.1067 0.25308 0.0
H1362 H 0.69984 0.11532 0.23027 0.0
H1363 H 0.70101 0.10677 0.29975 0.0
C1364 C 0.73675 0.12224 0.18638 0.0
C1365 C 0.74135 0.12631 0.24775 0.0
C1366 C 0.72866 0.11015 0.17134 0.0
C1367 C 0.725 0.10203 0.21745 0.0
C1368 C 0.73017 0.10563 0.27831 0.0
H1369 H 0.6545 0.04465 0.19283 0.0
H1370 H 0.67578 0.05772 0.23198 0.0
C1371 C 0.73832 0.11768 0.2934 0.0
C1372 C 0.7145 0.09079 0.20265 0.0
H1373 H 0.67994 0.08392 0.20954 0.0
C1374 C 0.71816 0.07834 0.17007 0.0
C1375 C 0.70064 0.09275 0.21795 0.0
C1376 C 0.69619 0.10611 0.2519 0.0
C1377 C 0.70819 0.06775 0.15192 0.0
C1378 C 0.6942 0.0699 0.16559 0.0
C1379 C 0.69068 0.08226 0.19936 0.0
C1380 C 0.68276 0.05998 0.14245 0.0
C1381 C 0.71275 0.05438 0.11858 0.0
C1382 C 0.67978 0.0567 0.07923 0.0
C1383 C 0.66771 0.04915 0.05689 0.0
C1384 C 0.65832 0.04498 0.09742 0.0
C1385 C 0.66156 0.04784 0.16072 0.0
C1386 C 0.6737 0.05524 0.18305 0.0
H1387 H 0.72402 0.05244 0.13003 0.0
H1388 H 0.70664 0.04526 0.12974 0.0
H1389 H 0.71112 0.05523 0.06852 0.0
H1390 H 0.68639 0.06058 0.04696 0.0
H1391 H 0.66534 0.04723 0.00784 0.0
H1392 H 0.78575 0.63075 0.85329 0.0
H1393 H 0.80746 0.61765 0.84145 0.0
H1394 H 0.80709 0.62845 0.65539 0.0
H1395 H 0.78543 0.6413 0.66641 0.0
H1396 H 0.81484 0.59501 0.73808 0.0
H1397 H 0.84483 0.64489 0.75603 0.0
H1398 H 0.82802 0.64347 0.78599 0.0
H1399 H 0.82908 0.64415 0.70528 0.0
C1400 C 0.79011 0.63001 0.80941 0.0
C1401 C 0.78394 0.63716 0.76093 0.0
C1402 C 0.80255 0.62261 0.80288 0.0
C1403 C 0.80898 0.62231 0.7479 0.0
C1404 C 0.80239 0.62873 0.69846 0.0
H1405 H 0.87787 0.59668 0.55894 0.0
H1406 H 0.85896 0.60868 0.60803 0.0
C1407 C 0.79001 0.63606 0.70484 0.0
C1408 C 0.8229 0.61597 0.7421 0.0
H1409 H 0.8564 0.62447 0.7184 0.0
C1410 C 0.82402 0.60139 0.73494 0.0
C1411 C 0.83482 0.62438 0.73805 0.0
C1412 C 0.83424 0.6401 0.74719 0.0
C1413 C 0.83659 0.59498 0.72017 0.0
C1414 C 0.84839 0.60343 0.7136 0.0
C1415 C 0.84739 0.61801 0.72359 0.0
C1416 C 0.86126 0.59745 0.68929 0.0
C1417 C 0.8369 0.57928 0.70809 0.0
C1418 C 0.86936 0.58764 0.72003 0.0
C1419 C 0.8803 0.58076 0.69202 0.0
C1420 C 0.88326 0.58356 0.63271 0.0
C1421 C 0.87582 0.59418 0.60438 0.0
C1422 C 0.86496 0.60105 0.63239 0.0
H1423 H 0.82628 0.57453 0.70445 0.0
H1424 H 0.84181 0.57623 0.66515 0.0
H1425 H 0.84321 0.57484 0.74626 0.0
H1426 H 0.8669 0.58493 0.76462 0.0
H1427 H 0.8858 0.57265 0.7152 0.0
H1428 H 0.71264 0.66243 0.92192 0.0
H1429 H 0.69528 0.64719 0.95984 0.0
H1430 H 0.68118 0.63244 0.7741 0.0
H1431 H 0.69852 0.64725 0.73636 0.0
H1432 H 0.66656 0.64459 0.9434 0.0
H1433 H 0.68989 0.59598 0.84538 0.0
H1434 H 0.69865 0.6127 0.84959 0.0
H1435 H 0.68528 0.6079 0.7888 0.0
C1436 C 0.70576 0.65602 0.88923 0.0
C1437 C 0.70713 0.65599 0.82604 0.0
C1438 C 0.69584 0.64726 0.91094 0.0
C1439 C 0.68709 0.6383 0.86999 0.0
C1440 C 0.68804 0.63884 0.80693 0.0
H1441 H 0.62322 0.57417 0.90758 0.0
H1442 H 0.63782 0.59185 0.86802 0.0
C1443 C 0.69795 0.64744 0.78535 0.0
C1444 C 0.67707 0.62829 0.89245 0.0
H1445 H 0.66759 0.59367 0.88259 0.0
C1446 C 0.66686 0.63345 0.93031 0.0
C1447 C 0.67733 0.61369 0.87553 0.0
C1448 C 0.68846 0.6072 0.83812 0.0
C1449 C 0.65685 0.62454 0.95059 0.0
C1450 C 0.65707 0.60998 0.93326 0.0
C1451 C 0.66726 0.60482 0.89539 0.0
C1452 C 0.64742 0.59982 0.95692 0.0
C1453 C 0.64596 0.63084 0.9897 0.0
C1454 C 0.6479 0.59833 0.01992 0.0
C1455 C 0.63965 0.58824 0.04244 0.0
C1456 C 0.63063 0.5793 0.00272 0.0
C1457 C 0.62992 0.58094 0.93958 0.0
C1458 C 0.63833 0.59101 0.91691 0.0
H1459 H 0.64467 0.64218 0.98458 0.0
H1460 H 0.6357 0.62551 0.9779 0.0
H1461 H 0.64924 0.6296 0.03851 0.0
H1462 H 0.65497 0.60474 0.05181 0.0
H1463 H 0.64054 0.5873 0.09131 0.0
H1464 H 0.66726 0.51232 0.06929 0.0
H1465 H 0.68204 0.49172 0.08084 0.0
H1466 H 0.64572 0.46494 0.04107 0.0
H1467 H 0.63117 0.48522 0.02648 0.0
H1468 H 0.68116 0.47409 0.16454 0.0
H1469 H 0.6721 0.44337 0.9413 0.0
H1470 H 0.667 0.46141 0.95239 0.0
H1471 H 0.65573 0.44764 0.97087 0.0
C1472 C 0.66252 0.50201 0.0615 0.0
C1473 C 0.64801 0.50045 0.0478 0.0
C1474 C 0.67095 0.49024 0.06836 0.0
C1475 C 0.66505 0.4767 0.0611 0.0
C1476 C 0.65064 0.47517 0.04548 0.0
H1477 H 0.691 0.4079 0.26284 0.0
H1478 H 0.67914 0.42714 0.21514 0.0
C1479 C 0.64227 0.48685 0.03825 0.0
C1480 C 0.67351 0.46428 0.07615 0.0
H1481 H 0.67924 0.4301 0.0279 0.0
C1482 C 0.68091 0.46456 0.13413 0.0
C1483 C 0.67345 0.45184 0.03634 0.0
C1484 C 0.66676 0.45111 0.97153 0.0
C1485 C 0.68757 0.45263 0.15456 0.0
C1486 C 0.68646 0.43988 0.11682 0.0
C1487 C 0.67977 0.43976 0.05749 0.0
C1488 C 0.69201 0.42663 0.13914 0.0
C1489 C 0.69572 0.45381 0.21666 0.0
C1490 C 0.70241 0.41916 0.10953 0.0
C1491 C 0.70903 0.40789 0.13609 0.0
C1492 C 0.70541 0.40402 0.19298 0.0
C1493 C 0.69415 0.41073 0.21946 0.0
C1494 C 0.68746 0.42184 0.19257 0.0
H1495 H 0.69918 0.46475 0.23077 0.0
H1496 H 0.68894 0.45053 0.25126 0.0
H1497 H 0.70505 0.44703 0.21699 0.0
H1498 H 0.70596 0.42254 0.06777 0.0
H1499 H 0.71765 0.40295 0.11441 0.0
H1500 H 0.78903 0.43071 0.31479 0.0
H1501 H 0.80138 0.45254 0.35022 0.0
H1502 H 0.76233 0.47231 0.38556 0.0
H1503 H 0.74981 0.45032 0.35037 0.0
H1504 H 0.79527 0.48132 0.30452 0.0
H1505 H 0.7899 0.47604 0.55187 0.0
H1506 H 0.78858 0.46097 0.49651 0.0
H1507 H 0.77486 0.47356 0.49686 0.0
C1508 C 0.78307 0.43967 0.33036 0.0
C1509 C 0.76849 0.4388 0.33057 0.0
C1510 C 0.79011 0.45215 0.35004 0.0
C1511 C 0.78273 0.46394 0.37054 0.0
C1512 C 0.76816 0.46325 0.36993 0.0
H1513 H 0.83674 0.53837 0.47964 0.0
H1514 H 0.81486 0.52555 0.44533 0.0
C1515 C 0.76105 0.45075 0.34976 0.0
C1516 C 0.79063 0.47669 0.3945 0.0
H1517 H 0.80614 0.49258 0.52794 0.0
C1518 C 0.79737 0.48411 0.35329 0.0
C1519 C 0.79333 0.48013 0.45813 0.0
C1520 C 0.78635 0.4723 0.50381 0.0
C1521 C 0.80745 0.49438 0.3743 0.0
C1522 C 0.81079 0.4972 0.43795 0.0
C1523 C 0.80343 0.49039 0.47916 0.0
C1524 C 0.82341 0.50529 0.46199 0.0
C1525 C 0.81523 0.50141 0.3286 0.0
C1526 C 0.83526 0.49809 0.48326 0.0
C1527 C 0.84766 0.5053 0.50243 0.0
C1528 C 0.84841 0.51986 0.50094 0.0
C1529 C 0.8364 0.52713 0.48121 0.0
C1530 C 0.82396 0.51987 0.46155 0.0
H1531 H 0.81166 0.49769 0.28056 0.0
H1532 H 0.81373 0.51288 0.33491 0.0
H1533 H 0.82659 0.49942 0.3365 0.0
H1534 H 0.83497 0.48683 0.48389 0.0
H1535 H 0.85668 0.49947 0.51842 0.0
H1536 H 0.12771 0.47244 0.5159 0.0
H1537 H 0.14655 0.46014 0.46751 0.0
H1538 H 0.13867 0.48325 0.30891 0.0
H1539 H 0.11984 0.49585 0.35765 0.0
H1540 H 0.14913 0.44391 0.35828 0.0
H1541 H 0.17928 0.49377 0.36877 0.0
H1542 H 0.16373 0.49226 0.4081 0.0
H1543 H 0.16237 0.49331 0.32677 0.0
C1544 C 0.12976 0.47473 0.47016 0.0
C1545 C 0.12237 0.48526 0.44105 0.0
C1546 C 0.14057 0.46768 0.44255 0.0
C1547 C 0.14427 0.47102 0.38527 0.0
C1548 C 0.1362 0.48073 0.35377 0.0
H1549 H 0.21978 0.43581 0.22693 0.0
H1550 H 0.19794 0.44889 0.23511 0.0
C1551 C 0.12531 0.48779 0.3814 0.0
C1552 C 0.15714 0.46492 0.36149 0.0
H1553 H 0.19078 0.47316 0.33747 0.0
C1554 C 0.15815 0.45032 0.35274 0.0
C1555 C 0.16897 0.4733 0.35458 0.0
C1556 C 0.16866 0.48903 0.36539 0.0
C1557 C 0.17075 0.44388 0.3393 0.0
C1558 C 0.18268 0.45224 0.33488 0.0
C1559 C 0.18157 0.46682 0.34078 0.0
C1560 C 0.19664 0.44587 0.33065 0.0
C1561 C 0.1714 0.42815 0.33193 0.0
C1562 C 0.20334 0.44035 0.38219 0.0
C1563 C 0.2158 0.43304 0.37786 0.0
C1564 C 0.22181 0.43103 0.32175 0.0
C1565 C 0.21547 0.43726 0.27086 0.0
C1566 C 0.20296 0.44464 0.27532 0.0
H1567 H 0.16083 0.42328 0.32459 0.0
H1568 H 0.17744 0.42459 0.29281 0.0
H1569 H 0.17681 0.42438 0.37395 0.0
H1570 H 0.1987 0.44133 0.42545 0.0
H1571 H 0.2205 0.42853 0.41808 0.0
H1572 H 0.29432 0.40491 0.17021 0.0
H1573 H 0.31196 0.41934 0.12939 0.0
H1574 H 0.32425 0.43785 0.31163 0.0
H1575 H 0.30687 0.4236 0.35234 0.0
H1576 H 0.31347 0.44917 0.13996 0.0
H1577 H 0.36195 0.42742 0.2477 0.0
H1578 H 0.34538 0.41828 0.24134 0.0
H1579 H 0.34921 0.43221 0.30052 0.0
C1580 C 0.30095 0.41187 0.20162 0.0
C1581 C 0.29915 0.41302 0.26466 0.0
C1582 C 0.311 0.42018 0.17823 0.0
C1583 C 0.31963 0.42961 0.21745 0.0
C1584 C 0.31798 0.43052 0.28038 0.0
H1585 H 0.38134 0.4954 0.1801 0.0
H1586 H 0.36628 0.47794 0.2184 0.0
C1587 C 0.30792 0.42238 0.30358 0.0
C1588 C 0.32975 0.43917 0.193 0.0
H1589 H 0.36422 0.44913 0.20451 0.0
C1590 C 0.32458 0.44905 0.15355 0.0
C1591 C 0.34427 0.43922 0.21133 0.0
C1592 C 0.35059 0.42864 0.25213 0.0
C1593 C 0.33339 0.45911 0.13316 0.0
C1594 C 0.34795 0.45914 0.15122 0.0
C1595 C 0.35312 0.44921 0.19056 0.0
C1596 C 0.3579 0.46919 0.1286 0.0
C1597 C 0.32689 0.46992 0.09401 0.0
C1598 C 0.35868 0.46985 0.06552 0.0
C1599 C 0.36719 0.47982 0.0437 0.0
C1600 C 0.3754 0.48933 0.08422 0.0
C1601 C 0.3752 0.48825 0.14753 0.0
C1602 C 0.36654 0.47828 0.16946 0.0
H1603 H 0.3156 0.4712 0.10011 0.0
H1604 H 0.33217 0.48023 0.10491 0.0
H1605 H 0.32785 0.46652 0.0451 0.0
H1606 H 0.35253 0.46274 0.03281 0.0
H1607 H 0.36717 0.48018 0.99465 0.0
H1608 H 0.29084 0.66728 0.96551 0.0
H1609 H 0.30401 0.6493 0.01777 0.0
H1610 H 0.32568 0.63914 0.85648 0.0
H1611 H 0.31283 0.65714 0.80467 0.0
H1612 H 0.30267 0.62135 0.98101 0.0
H1613 H 0.35738 0.63959 0.98921 0.0
H1614 H 0.34279 0.65094 0.97413 0.0
H1615 H 0.34885 0.63936 0.91339 0.0
C1616 C 0.29874 0.66154 0.94191 0.0
C1617 C 0.30078 0.66367 0.88084 0.0
C1618 C 0.30618 0.65117 0.97168 0.0
C1619 C 0.31591 0.6429 0.94124 0.0
C1620 C 0.31844 0.64553 0.88144 0.0
H1621 H 0.34178 0.55779 0.96476 0.0
H1622 H 0.32865 0.57928 0.9493 0.0
C1623 C 0.31102 0.65582 0.85173 0.0
C1624 C 0.32253 0.63071 0.96912 0.0
H1625 H 0.35397 0.61494 0.99599 0.0
C1626 C 0.31391 0.62004 0.98528 0.0
C1627 C 0.33719 0.62902 0.9754 0.0
C1628 C 0.34708 0.64041 0.96271 0.0
C1629 C 0.31951 0.6075 0.00482 0.0
C1630 C 0.33412 0.60544 0.0071 0.0
C1631 C 0.34276 0.61638 0.99361 0.0
C1632 C 0.34074 0.59197 0.02155 0.0
C1633 C 0.30971 0.59659 0.02273 0.0
C1634 C 0.35189 0.59187 0.06723 0.0
C1635 C 0.35944 0.57967 0.07546 0.0
C1636 C 0.35594 0.56729 0.03851 0.0
C1637 C 0.34446 0.56716 0.99455 0.0
C1638 C 0.33695 0.57944 0.98588 0.0
H1639 H 0.29994 0.60136 0.03786 0.0
H1640 H 0.30681 0.58906 0.98244 0.0
H1641 H 0.31467 0.59074 0.0601 0.0
H1642 H 0.35506 0.60138 0.09516 0.0
H1643 H 0.36839 0.58002 0.10913 0.0
H1644 H 0.1497 0.5687 0.55162 0.0
H1645 H 0.17155 0.58115 0.58614 0.0
H1646 H 0.1904 0.54265 0.63665 0.0
H1647 H 0.16844 0.53002 0.60158 0.0
H1648 H 0.19164 0.56767 0.73087 0.0
H1649 H 0.21044 0.57822 0.50794 0.0
H1650 H 0.19211 0.58118 0.51334 0.0
H1651 H 0.19883 0.5638 0.51639 0.0
C1652 C 0.15851 0.56289 0.56992 0.0
C1653 C 0.15742 0.54845 0.57442 0.0
C1654 C 0.17099 0.56997 0.58905 0.0
C1655 C 0.18256 0.56275 0.6132 0.0
C1656 C 0.18158 0.54832 0.61752 0.0
H1657 H 0.25586 0.61748 0.72571 0.0
H1658 H 0.24324 0.59545 0.69197 0.0
C1659 C 0.16909 0.54116 0.59757 0.0
C1660 C 0.19522 0.57072 0.63771 0.0
H1661 H 0.21896 0.59361 0.59545 0.0
C1662 C 0.19791 0.57306 0.70141 0.0
C1663 C 0.20338 0.57763 0.599 0.0
C1664 C 0.20116 0.57501 0.53029 0.0
C1665 C 0.20782 0.58306 0.72742 0.0
C1666 C 0.21511 0.59083 0.68857 0.0
C1667 C 0.21327 0.58765 0.625 0.0
C1668 C 0.22305 0.60358 0.71235 0.0
C1669 C 0.2099 0.5858 0.79612 0.0
C1670 C 0.21579 0.61534 0.73431 0.0
C1671 C 0.22287 0.62786 0.7527 0.0
C1672 C 0.23736 0.62881 0.74964 0.0
C1673 C 0.24469 0.61695 0.72862 0.0
C1674 C 0.23753 0.60442 0.70943 0.0
H1675 H 0.2065 0.57672 0.81931 0.0
H1676 H 0.22103 0.58822 0.81138 0.0
H1677 H 0.2036 0.59496 0.81077 0.0
H1678 H 0.20457 0.61489 0.73608 0.0
H1679 H 0.21702 0.63681 0.76937 0.0
H1680 H 0.44811 0.06031 0.09318 0.0
H1681 H 0.47276 0.05884 0.07144 0.0
H1682 H 0.47234 0.01473 0.09414 0.0
H1683 H 0.44787 0.01607 0.1152 0.0
H1684 H 0.49745 0.04867 0.13657 0.0
H1685 H 0.48314 0.01657 0.91781 0.0
H1686 H 0.47043 0.0262 0.95984 0.0
H1687 H 0.47679 0.00979 0.98378 0.0
C1688 C 0.45339 0.05038 0.09488 0.0
C1689 C 0.44604 0.03828 0.10538 0.0
C1690 C 0.46742 0.04953 0.08205 0.0
C1691 C 0.47424 0.03659 0.07957 0.0
C1692 C 0.46717 0.02473 0.09425 0.0
H1693 H 0.5567 0.00737 0.99351 0.0
H1694 H 0.53203 0.00885 0.01485 0.0
C1695 C 0.45321 0.02555 0.10672 0.0
C1696 C 0.48856 0.03526 0.05957 0.0
H1697 H 0.50734 0.01902 0.94932 0.0
C1698 C 0.49961 0.04227 0.09548 0.0
C1699 C 0.49135 0.02684 0.00597 0.0
C1700 C 0.4798 0.01951 0.96423 0.0
C1701 C 0.51344 0.04086 0.0799 0.0
C1702 C 0.51623 0.03243 0.02633 0.0
C1703 C 0.50517 0.02543 0.9904 0.0
C1704 C 0.53055 0.03109 0.0064 0.0
C1705 C 0.52499 0.04819 0.12163 0.0
C1706 C 0.53763 0.04293 0.99167 0.0
C1707 C 0.55161 0.04211 0.97943 0.0
C1708 C 0.55878 0.02939 0.98106 0.0
C1709 C 0.55142 0.01729 0.99158 0.0
C1710 C 0.53738 0.01815 0.00418 0.0
H1711 H 0.52164 0.05116 0.16802 0.0
H1712 H 0.53435 0.04149 0.12612 0.0
H1713 H 0.52801 0.05789 0.102 0.0
H1714 H 0.53246 0.05294 0.99158 0.0
H1715 H 0.55696 0.05159 0.97091 0.0
H1716 H 0.26155 0.34307 0.3903 0.0
H1717 H 0.25803 0.31789 0.38928 0.0
H1718 H 0.26572 0.3129 0.19855 0.0
H1719 H 0.26953 0.33831 0.19997 0.0
H1720 H 0.23708 0.30343 0.3219 0.0
H1721 H 0.28777 0.28065 0.26474 0.0
H1722 H 0.28596 0.2989 0.28983 0.0
H1723 H 0.28062 0.29256 0.212 0.0
C1724 C 0.26297 0.33655 0.3486 0.0
C1725 C 0.26602 0.34265 0.29544 0.0
C1726 C 0.26081 0.32214 0.34794 0.0
C1727 C 0.26157 0.31337 0.29394 0.0
C1728 C 0.26529 0.31934 0.24119 0.0
H1729 H 0.24437 0.22518 0.19637 0.0
H1730 H 0.24789 0.25036 0.19726 0.0
C1731 C 0.26757 0.33387 0.24201 0.0
C1732 C 0.25739 0.29829 0.29255 0.0
H1733 H 0.2688 0.26485 0.26453 0.0
C1734 C 0.24406 0.295 0.30953 0.0
C1735 C 0.26642 0.28722 0.27646 0.0
C1736 C 0.28104 0.28995 0.26025 0.0
C1737 C 0.23946 0.28105 0.30996 0.0
C1738 C 0.2485 0.26998 0.29388 0.0
C1739 C 0.26182 0.27328 0.27689 0.0
C1740 C 0.24432 0.2549 0.29255 0.0
C1741 C 0.22484 0.27833 0.32614 0.0
C1742 C 0.24058 0.24895 0.34531 0.0
C1743 C 0.23831 0.23442 0.34456 0.0
C1744 C 0.23987 0.22562 0.2912 0.0
C1745 C 0.24295 0.23171 0.23802 0.0
C1746 C 0.2451 0.24612 0.23861 0.0
H1747 H 0.2181 0.28762 0.32154 0.0
H1748 H 0.21993 0.26937 0.29663 0.0
H1749 H 0.22525 0.27575 0.37442 0.0
H1750 H 0.24014 0.2554 0.3879 0.0
H1751 H 0.23632 0.23 0.38661 0.0
H1752 H 0.06162 0.0394 0.636 0.0
H1753 H 0.03644 0.03611 0.63405 0.0
H1754 H 0.0313 0.04959 0.45171 0.0
H1755 H 0.05683 0.05274 0.45333 0.0
H1756 H 0.01349 0.05243 0.61927 0.0
H1757 H 0.01323 0.01078 0.42762 0.0
H1758 H 0.02918 0.01784 0.46805 0.0
H1759 H 0.0198 0.02745 0.41136 0.0
C1760 C 0.05511 0.04197 0.59585 0.0
C1761 C 0.06123 0.04635 0.54481 0.0
C1762 C 0.04068 0.04003 0.59475 0.0
C1763 C 0.0319 0.04226 0.54229 0.0
C1764 C 0.03786 0.04749 0.49235 0.0
H1765 H 0.94336 0.02951 0.44904 0.0
H1766 H 0.96852 0.03293 0.45098 0.0
C1767 C 0.05243 0.04952 0.49358 0.0
C1768 C 0.01673 0.03845 0.54003 0.0
H1769 H 0.99151 0.01643 0.46531 0.0
C1770 C 0.00869 0.04456 0.58554 0.0
C1771 C 0.01043 0.02805 0.49657 0.0
C1772 C 0.0186 0.02053 0.4484 0.0
C1773 C 0.99458 0.0408 0.58803 0.0
C1774 C 0.98829 0.0304 0.54456 0.0
C1775 C 0.99631 0.02429 0.49904 0.0
C1776 C 0.97312 0.02657 0.54235 0.0
C1777 C 0.98641 0.04829 0.63625 0.0
C1778 C 0.96721 0.02121 0.5921 0.0
C1779 C 0.95265 0.01909 0.59086 0.0
C1780 C 0.94382 0.02234 0.53986 0.0
C1781 C 0.94988 0.0269 0.48904 0.0
C1782 C 0.96431 0.02891 0.49012 0.0
H1783 H 0.9918 0.05801 0.65728 0.0
H1784 H 0.97585 0.05102 0.61656 0.0
H1785 H 0.98516 0.04133 0.6731 0.0
H1786 H 0.9738 0.01904 0.63256 0.0
H1787 H 0.94828 0.01573 0.63093 0.0
H1788 H 0.23488 0.73008 0.8602 0.0
H1789 H 0.23416 0.75455 0.83858 0.0
H1790 H 0.27847 0.75413 0.8209 0.0
H1791 H 0.27925 0.7294 0.84189 0.0
H1792 H 0.2479 0.77881 0.89209 0.0
H1793 H 0.26157 0.76541 0.65391 0.0
H1794 H 0.25658 0.75234 0.70227 0.0
H1795 H 0.27385 0.75983 0.713 0.0
C1796 C 0.24454 0.73524 0.85267 0.0
C1797 C 0.25711 0.72779 0.85229 0.0
C1798 C 0.24409 0.74923 0.84028 0.0
C1799 C 0.25619 0.75607 0.8268 0.0
C1800 C 0.26896 0.74894 0.83001 0.0
H1801 H 0.27127 0.83819 0.71632 0.0
H1802 H 0.27216 0.81373 0.73803 0.0
C1803 C 0.26943 0.73488 0.84274 0.0
C1804 C 0.25512 0.77042 0.80672 0.0
H1805 H 0.2585 0.78932 0.68421 0.0
C1806 C 0.25022 0.78113 0.84667 0.0
C1807 C 0.25802 0.77336 0.74718 0.0
C1808 C 0.26268 0.76214 0.70127 0.0
C1809 C 0.24838 0.79476 0.82912 0.0
C1810 C 0.25127 0.79771 0.76956 0.0
C1811 C 0.25619 0.787 0.72964 0.0
C1812 C 0.25013 0.81204 0.74939 0.0
C1813 C 0.2437 0.80599 0.87499 0.0
C1814 C 0.2373 0.81907 0.74592 0.0
C1815 C 0.23673 0.83312 0.73312 0.0
C1816 C 0.24901 0.8403 0.72377 0.0
C1817 C 0.26164 0.83296 0.72367 0.0
C1818 C 0.26219 0.81897 0.73612 0.0
H1819 H 0.24482 0.80273 0.92236 0.0
H1820 H 0.24979 0.81579 0.87396 0.0
H1821 H 0.23253 0.80828 0.86324 0.0
H1822 H 0.22781 0.81381 0.7549 0.0
H1823 H 0.22686 0.83852 0.73376 0.0
H1824 H 0.76481 0.72894 0.88241 0.0
H1825 H 0.76682 0.75384 0.87062 0.0
H1826 H 0.72637 0.75268 0.76871 0.0
H1827 H 0.72424 0.72755 0.78148 0.0
H1828 H 0.76794 0.76475 0.76168 0.0
H1829 H 0.72406 0.78847 0.88062 0.0
H1830 H 0.73007 0.771 0.89148 0.0
H1831 H 0.71903 0.77431 0.82417 0.0
C1832 C 0.75613 0.73407 0.85907 0.0
C1833 C 0.74429 0.72629 0.83348 0.0
C1834 C 0.75735 0.74832 0.85192 0.0
C1835 C 0.74679 0.75526 0.81871 0.0
C1836 C 0.7346 0.74768 0.79541 0.0
H1837 H 0.73955 0.83915 0.70308 0.0
H1838 H 0.73746 0.81426 0.71489 0.0
C1839 C 0.73332 0.73332 0.803 0.0
C1840 C 0.74919 0.77005 0.80512 0.0
H1841 H 0.73643 0.80322 0.82282 0.0
C1842 C 0.76105 0.77316 0.77526 0.0
C1843 C 0.74027 0.7811 0.82269 0.0
C1844 C 0.72771 0.77863 0.857 0.0
C1845 C 0.76409 0.78687 0.76174 0.0
C1846 C 0.75517 0.79792 0.77935 0.0
C1847 C 0.74331 0.7948 0.80921 0.0
C1848 C 0.75759 0.81272 0.76585 0.0
C1849 C 0.77663 0.78931 0.72729 0.0
C1850 C 0.76986 0.82023 0.78863 0.0
C1851 C 0.77118 0.83459 0.78096 0.0
C1852 C 0.76018 0.84168 0.75101 0.0
C1853 C 0.74825 0.83398 0.72603 0.0
C1854 C 0.74699 0.81973 0.7332 0.0
H1855 H 0.7802 0.77948 0.70331 0.0
H1856 H 0.77431 0.79702 0.6931 0.0
H1857 H 0.78536 0.79352 0.76012 0.0
H1858 H 0.77812 0.81519 0.81493 0.0
H1859 H 0.78034 0.8403 0.80199 0.0
H1860 H 0.73505 0.22818 0.34185 0.0
H1861 H 0.73395 0.25275 0.32202 0.0
H1862 H 0.7786 0.25375 0.31423 0.0
H1863 H 0.77978 0.22893 0.33358 0.0
H1864 H 0.7469 0.27714 0.38157 0.0
H1865 H 0.76284 0.26562 0.14577 0.0
H1866 H 0.75754 0.25211 0.19123 0.0
H1867 H 0.77467 0.25982 0.20602 0.0
C1868 C 0.74469 0.23366 0.33678 0.0
C1869 C 0.7575 0.2266 0.33883 0.0
C1870 C 0.74403 0.24771 0.32544 0.0
C1871 C 0.75614 0.255 0.31542 0.0
C1872 C 0.76909 0.24822 0.32074 0.0
H1873 H 0.77147 0.33801 0.2176 0.0
H1874 H 0.77222 0.31338 0.23637 0.0
C1875 C 0.76978 0.23411 0.33247 0.0
C1876 C 0.75496 0.26947 0.29695 0.0
H1877 H 0.75914 0.28931 0.17822 0.0
C1878 C 0.74957 0.27982 0.33713 0.0
C1879 C 0.75832 0.27288 0.23868 0.0
C1880 C 0.76356 0.26203 0.19257 0.0
C1881 C 0.74773 0.29358 0.32115 0.0
C1882 C 0.7511 0.297 0.26287 0.0
C1883 C 0.75646 0.28663 0.22265 0.0
C1884 C 0.75006 0.3115 0.24462 0.0
C1885 C 0.74255 0.30444 0.36742 0.0
C1886 C 0.73723 0.31851 0.24042 0.0
C1887 C 0.73674 0.33268 0.22938 0.0
C1888 C 0.7491 0.33999 0.2225 0.0
C1889 C 0.76177 0.33269 0.22312 0.0
C1890 C 0.76223 0.31859 0.23386 0.0
H1891 H 0.74333 0.30084 0.41422 0.0
H1892 H 0.74857 0.31435 0.36865 0.0
H1893 H 0.73142 0.30664 0.35429 0.0
H1894 H 0.72766 0.31314 0.2474 0.0
H1895 H 0.72685 0.33804 0.22935 0.0
H1896 H 0.94931 0.51763 0.61359 0.0
H1897 H 0.97376 0.51648 0.59253 0.0
H1898 H 0.97361 0.56045 0.56653 0.0
H1899 H 0.94889 0.56165 0.58738 0.0
H1900 H 0.98295 0.54301 0.46787 0.0
H1901 H 0.01018 0.53044 0.68864 0.0
H1902 H 0.99533 0.51939 0.6637 0.0
H1903 H 0.99286 0.53774 0.68301 0.0
C1904 C 0.95456 0.52715 0.60492 0.0
C1905 C 0.9472 0.53974 0.60225 0.0
C1906 C 0.96857 0.52648 0.59308 0.0
C1907 C 0.97555 0.53839 0.57836 0.0
C1908 C 0.96842 0.55115 0.57815 0.0
H1909 H 0.05657 0.5517 0.45268 0.0
H1910 H 0.03215 0.55304 0.47426 0.0
C1911 C 0.95435 0.55186 0.59055 0.0
C1912 C 0.98981 0.53706 0.55763 0.0
H1913 H 0.02291 0.52672 0.60059 0.0
C1914 C 0.99173 0.53958 0.49704 0.0
C1915 C 1.00119 0.53239 0.59547 0.0
C1916 C 0.99986 0.52994 0.6615 0.0
C1917 C 0.00469 0.53734 0.47296 0.0
C1918 C 0.01607 0.53266 0.5108 0.0
C1919 C 0.01414 0.53016 0.57142 0.0
C1920 C 0.03031 0.53122 0.48993 0.0
C1921 C 0.00599 0.53974 0.40687 0.0
C1922 C 0.0374 0.51844 0.49086 0.0
C1923 C 0.05145 0.51763 0.47828 0.0
C1924 C 0.05863 0.52965 0.46557 0.0
C1925 C 0.0513 0.54224 0.46214 0.0
C1926 C 0.03731 0.54303 0.47426 0.0
H1927 H 0.99567 0.53919 0.37977 0.0
H1928 H 0.01048 0.55032 0.4045 0.0
H1929 H 0.01301 0.53196 0.38542 0.0
H1930 H 0.0322 0.50922 0.50319 0.0
H1931 H 0.05687 0.50783 0.48205 0.0
H1932 H 0.44737 0.54872 0.1285 0.0
H1933 H 0.47221 0.5506 0.11576 0.0
H1934 H 0.47159 0.50854 0.02927 0.0
H1935 H 0.44639 0.50668 0.04151 0.0
H1936 H 0.49577 0.53636 0.15177 0.0
H1937 H 0.48599 0.53123 0.89833 0.0
H1938 H 0.47208 0.53372 0.94806 0.0
H1939 H 0.47986 0.51682 0.93583 0.0
C1940 C 0.45256 0.53973 0.1079 0.0
C1941 C 0.4449 0.52753 0.08609 0.0
C1942 C 0.4668 0.54085 0.10047 0.0
C1943 C 0.4738 0.52986 0.07031 0.0
C1944 C 0.46638 0.5173 0.0516 0.0
H1945 H 0.55771 0.52142 0.96107 0.0
H1946 H 0.53288 0.51966 0.9742 0.0
C1947 C 0.45203 0.51613 0.05948 0.0
C1948 C 0.4886 0.53204 0.05661 0.0
H1949 H 0.50947 0.53388 0.93916 0.0
C1950 C 0.49876 0.53581 0.10526 0.0
C1951 C 0.49254 0.5315 0.9959 0.0
C1952 C 0.48206 0.52823 0.94138 0.0
C1953 C 0.5127 0.53873 0.09505 0.0
C1954 C 0.51665 0.5382 0.03433 0.0
C1955 C 0.50649 0.53444 0.98568 0.0
C1956 C 0.53146 0.54032 0.02057 0.0
C1957 C 0.52319 0.54198 0.14959 0.0
C1958 C 0.53897 0.55281 0.03968 0.0
C1959 C 0.55332 0.55391 0.03163 0.0
C1960 C 0.56035 0.54251 0.00441 0.0
C1961 C 0.55259 0.53041 0.98218 0.0
C1962 C 0.53836 0.52935 0.98983 0.0
H1963 H 0.51926 0.53893 0.19258 0.0
H1964 H 0.53317 0.5365 0.14284 0.0
H1965 H 0.52538 0.55338 0.15531 0.0
H1966 H 0.53384 0.56156 0.0624 0.0
H1967 H 0.55904 0.5633 0.04989 0.0
loop_
_geom_bond_atom_site_label_1
_geom_bond_atom_site_label_2
_geom_bond_distance
_geom_bond_site_symmetry_2
_ccdc_geom_bond_type
C0 C1 1.351 . S
C0 N3 1.368 . S
C0 H5 0.931 . S
C1 C0 1.351 . S
C1 N2 1.373 . S
C1 H29 0.930 . S
N2 C1 1.373 . S
N2 C4 1.340 . S
N3 C0 1.368 . S
N3 C4 1.321 . S
N3 Co6 2.135 . S
C4 N2 1.340 . S
C4 N3 1.321 . S
C4 H28 0.930 . S
H5 C0 0.931 . S
Co6 N3 2.135 . S
Co6 N9 2.121 1_554 S
Co6 O14 2.055 . S
Co6 O17 2.039 . S
Co6 N20 2.140 . S
C7 O8 1.227 . S
C7 O17 1.265 . S
O8 C7 1.227 . S
N9 Co6 2.121 1_556 S
N9 C11 1.375 . S
N9 C12 1.313 . S
C10 C11 1.338 . S
C10 N13 1.377 . S
C10 H30 0.930 . S
C11 N9 1.375 . S
C11 C10 1.338 . S
C11 H15 0.931 . S
C12 N9 1.313 . S
C12 N13 1.344 . S
C12 H16 0.930 . S
N13 C10 1.377 . S
N13 C12 1.344 . S
O14 Co6 2.055 . S
O14 C18 1.253 . S
H15 C11 0.931 . S
H16 C12 0.930 . S
O17 Co6 2.039 . S
O17 C7 1.265 . S
C18 O14 1.253 . S
C18 O19 1.227 . S
O19 C18 1.227 . S
N20 Co6 2.140 . S
N20 C23 1.346 . S
N20 C24 1.345 . S
C21 C22 1.387 1_565 S
C21 C25 1.374 1_565 S
C22 C21 1.387 1_545 S
C22 C23 1.369 . S
C22 H31 0.929 . S
C23 N20 1.346 . S
C23 C22 1.369 . S
C23 H26 0.928 . S
C24 N20 1.345 . S
C24 C25 1.419 . S
C24 H27 0.931 1_554 S
C25 C21 1.374 1_545 S
C25 C24 1.419 . S
C25 H32 0.901 1_544 S
H26 C23 0.928 . S
H27 C24 0.931 1_556 S
H28 C4 0.930 . S
H29 C1 0.930 . S
H30 C10 0.930 . S
H31 C22 0.929 . S
H32 C25 0.901 1_566 S
C33 C34 1.351 . S
C33 N36 1.368 . S
C33 H38 0.931 . S
C34 C33 1.351 . S
C34 N35 1.373 . S
C34 H62 0.930 . S
N35 C34 1.373 . S
N35 C37 1.340 . S
N36 C33 1.368 . S
N36 C37 1.321 . S
N36 Co39 2.135 . S
C37 N35 1.340 . S
C37 N36 1.321 . S
C37 H61 0.930 . S
H38 C33 0.931 . S
Co39 N36 2.135 . S
Co39 N42 2.121 . S
Co39 O47 2.055 . S
Co39 O50 2.039 . S
Co39 N53 2.140 . S
C40 O41 1.227 . S
C40 O50 1.265 . S
O41 C40 1.227 . S
N42 Co39 2.121 . S
N42 C44 1.375 . S
N42 C45 1.313 . S
C43 C44 1.338 . S
C43 N46 1.377 . S
C43 H63 0.930 . S
C44 N42 1.375 . S
C44 C43 1.338 . S
C44 H48 0.931 . S
C45 N42 1.313 . S
C45 N46 1.344 . S
C45 H49 0.930 . S
N46 C43 1.377 . S
N46 C45 1.344 . S
O47 Co39 2.055 . S
O47 C51 1.253 . S
H48 C44 0.931 . S
H49 C45 0.930 . S
O50 Co39 2.039 . S
O50 C40 1.265 . S
C51 O47 1.253 . S
C51 O52 1.227 . S
O52 C51 1.227 . S
N53 Co39 2.140 . S
N53 C56 1.346 . S
N53 C57 1.345 . S
C54 C55 1.387 . S
C54 C58 1.391 . S
C55 C54 1.387 . S
C55 C56 1.369 . S
C55 H64 0.929 . S
C56 N53 1.346 . S
C56 C55 1.369 . S
C56 H59 0.928 . S
C57 N53 1.345 . S
C57 C58 1.371 . S
C57 H60 0.931 . S
C58 C54 1.391 . S
C58 C57 1.371 . S
C58 H65 0.930 . S
H59 C56 0.928 . S
H60 C57 0.931 . S
H61 C37 0.930 . S
H62 C34 0.930 . S
H63 C43 0.930 . S
H64 C55 0.929 . S
H65 C58 0.930 . S
C66 C67 1.351 . S
C66 N69 1.368 . S
C66 H71 0.931 . S
C67 C66 1.351 . S
C67 N68 1.373 . S
C67 H95 0.930 . S
N68 C67 1.373 . S
N68 C70 1.340 . S
N69 C66 1.368 . S
N69 C70 1.321 . S
N69 Co72 2.135 . S
C70 N68 1.340 . S
C70 N69 1.321 . S
C70 H94 0.930 . S
H71 C66 0.931 . S
Co72 N69 2.135 . S
Co72 N75 2.121 . S
Co72 O80 2.055 . S
Co72 O83 2.039 . S
Co72 N86 2.140 . S
C73 O74 1.227 . S
C73 O83 1.265 . S
O74 C73 1.227 . S
N75 Co72 2.121 . S
N75 C77 1.375 . S
N75 C78 1.313 . S
C76 C77 1.338 . S
C76 N79 1.377 . S
C76 H96 0.930 . S
C77 N75 1.375 . S
C77 C76 1.338 . S
C77 H81 0.931 . S
C78 N75 1.313 . S
C78 N79 1.344 . S
C78 H82 0.930 . S
N79 C76 1.377 . S
N79 C78 1.344 . S
O80 Co72 2.055 . S
O80 C84 1.253 . S
H81 C77 0.931 . S
H82 C78 0.930 . S
O83 Co72 2.039 . S
O83 C73 1.265 . S
C84 O80 1.253 . S
C84 O85 1.227 . S
O85 C84 1.227 . S
N86 Co72 2.140 . S
N86 C89 1.346 . S
N86 C90 1.345 . S
C87 C88 1.387 1_565 S
C87 C91 1.399 . S
C88 C87 1.387 1_545 S
C88 C89 1.369 . S
C88 H97 0.929 . S
C89 N86 1.346 . S
C89 C88 1.369 . S
C89 H92 0.928 . S
C90 N86 1.345 . S
C90 C91 1.338 1_545 S
C90 H93 0.931 . S
C91 C87 1.399 . S
C91 C90 1.338 1_565 S
C91 H98 0.956 . S
H92 C89 0.928 . S
H93 C90 0.931 . S
H94 C70 0.930 . S
H95 C67 0.930 . S
H96 C76 0.930 . S
H97 C88 0.929 . S
H98 C91 0.956 . S
C99 C100 1.351 . S
C99 N102 1.368 . S
C99 H104 0.931 . S
C100 C99 1.351 . S
C100 N101 1.373 . S
C100 H128 0.930 . S
N101 C100 1.373 . S
N101 C103 1.340 . S
N102 C99 1.368 . S
N102 C103 1.321 . S
N102 Co105 2.135 . S
C103 N101 1.340 . S
C103 N102 1.321 . S
C103 H127 0.930 . S
H104 C99 0.931 . S
Co105 N102 2.135 . S
Co105 N108 2.121 . S
Co105 O113 2.055 . S
Co105 O116 2.039 . S
Co105 N119 2.140 . S
C106 O107 1.227 . S
C106 O116 1.265 . S
O107 C106 1.227 . S
N108 Co105 2.121 . S
N108 C110 1.375 . S
N108 C111 1.313 . S
C109 C110 1.338 . S
C109 N112 1.377 . S
C109 H129 0.930 . S
C110 N108 1.375 . S
C110 C109 1.338 . S
C110 H114 0.931 . S
C111 N108 1.313 . S
C111 N112 1.344 . S
C111 H115 0.930 . S
N112 C109 1.377 . S
N112 C111 1.344 . S
O113 Co105 2.055 . S
O113 C117 1.253 . S
H114 C110 0.931 . S
H115 C111 0.930 . S
O116 Co105 2.039 . S
O116 C106 1.265 . S
C117 O113 1.253 . S
C117 O118 1.227 . S
O118 C117 1.227 . S
N119 Co105 2.140 . S
N119 C122 1.346 . S
N119 C123 1.345 . S
C120 C121 1.387 . S
C120 C124 1.391 . S
C121 C120 1.387 . S
C121 C122 1.369 . S
C121 H130 0.929 . S
C122 N119 1.346 . S
C122 C121 1.369 . S
C122 H125 0.928 . S
C123 N119 1.345 . S
C123 C124 1.371 . S
C123 H126 0.931 . S
C124 C120 1.391 . S
C124 C123 1.371 . S
C124 H131 0.930 . S
H125 C122 0.928 . S
H126 C123 0.931 . S
H127 C103 0.930 . S
H128 C100 0.930 . S
H129 C109 0.930 . S
H130 C121 0.929 . S
H131 C124 0.930 . S
C132 C133 1.351 . S
C132 N135 1.368 . S
C132 H137 0.931 . S
C133 C132 1.351 . S
C133 N134 1.373 . S
C133 H161 0.930 . S
N134 C133 1.373 . S
N134 C136 1.340 . S
N135 C132 1.368 . S
N135 C136 1.321 . S
N135 Co138 2.135 . S
C136 N134 1.340 . S
C136 N135 1.321 . S
C136 H160 0.930 . S
H137 C132 0.931 . S
Co138 N135 2.135 . S
Co138 N141 2.121 1_556 S
Co138 O146 2.055 . S
Co138 O149 2.039 . S
Co138 N152 2.140 1_556 S
C139 O140 1.227 . S
C139 O149 1.265 . S
O140 C139 1.227 . S
N141 Co138 2.121 1_554 S
N141 C143 1.375 . S
N141 C144 1.313 . S
C142 C143 1.338 . S
C142 N145 1.377 . S
C142 H162 0.930 . S
C143 N141 1.375 . S
C143 C142 1.338 . S
C143 H147 0.931 . S
C144 N141 1.313 . S
C144 N145 1.344 . S
C144 H148 0.930 . S
N145 C142 1.377 . S
N145 C144 1.344 . S
O146 Co138 2.055 . S
O146 C150 1.253 1_556 S
H147 C143 0.931 . S
H148 C144 0.930 . S
O149 Co138 2.039 . S
O149 C139 1.265 . S
C150 O146 1.253 1_554 S
C150 O151 1.227 . S
O151 C150 1.227 . S
N152 Co138 2.140 1_554 S
N152 C155 1.346 1_554 S
N152 C156 1.345 . S
C153 C154 1.387 1_554 S
C153 C157 1.391 . S
C154 C153 1.387 1_556 S
C154 C155 1.369 . S
C154 H163 0.929 . S
C155 N152 1.346 1_556 S
C155 C154 1.369 . S
C155 H158 0.928 . S
C156 N152 1.345 . S
C156 C157 1.371 . S
C156 H159 0.931 . S
C157 C153 1.391 . S
C157 C156 1.371 . S
C157 H164 0.930 . S
H158 C155 0.928 . S
H159 C156 0.931 . S
H160 C136 0.930 . S
H161 C133 0.930 . S
H162 C142 0.930 . S
H163 C154 0.929 . S
H164 C157 0.930 . S
C165 C166 1.351 . S
C165 N168 1.368 . S
C165 H170 0.931 . S
C166 C165 1.351 . S
C166 N167 1.373 . S
C166 H194 0.930 . S
N167 C166 1.373 . S
N167 C169 1.340 . S
N168 C165 1.368 . S
N168 C169 1.321 . S
N168 Co171 2.135 . S
C169 N167 1.340 . S
C169 N168 1.321 . S
C169 H193 0.930 . S
H170 C165 0.931 . S
Co171 N168 2.135 . S
Co171 N174 2.121 . S
Co171 O179 2.055 . S
Co171 O182 2.039 . S
Co171 N185 2.140 . S
C172 O173 1.227 . S
C172 O182 1.265 . S
O173 C172 1.227 . S
N174 Co171 2.121 . S
N174 C176 1.375 . S
N174 C177 1.313 . S
C175 C176 1.338 . S
C175 N178 1.377 . S
C175 H195 0.930 . S
C176 N174 1.375 . S
C176 C175 1.338 . S
C176 H180 0.931 . S
C177 N174 1.313 . S
C177 N178 1.344 . S
C177 H181 0.930 . S
N178 C175 1.377 . S
N178 C177 1.344 . S
O179 Co171 2.055 . S
O179 C183 1.253 . S
H180 C176 0.931 . S
H181 C177 0.930 . S
O182 Co171 2.039 . S
O182 C172 1.265 . S
C183 O179 1.253 . S
C183 O184 1.227 . S
O184 C183 1.227 . S
N185 Co171 2.140 . S
N185 C188 1.346 . S
N185 C189 1.345 . S
C186 C187 1.387 . S
C186 C190 1.391 . S
C187 C186 1.387 . S
C187 C188 1.369 . S
C187 H196 0.929 . S
C188 N185 1.346 . S
C188 C187 1.369 . S
C188 H191 0.928 . S
C189 N185 1.345 . S
C189 C190 1.371 . S
C189 H192 0.931 . S
C190 C186 1.391 . S
C190 C189 1.371 . S
C190 H197 0.930 . S
H191 C188 0.928 . S
H192 C189 0.931 . S
H193 C169 0.930 . S
H194 C166 0.930 . S
H195 C175 0.930 . S
H196 C187 0.929 . S
H197 C190 0.930 . S
C198 C199 1.351 . S
C198 N201 1.368 . S
C198 H203 0.931 . S
C199 C198 1.351 . S
C199 N200 1.373 . S
C199 H227 0.930 . S
N200 C199 1.373 . S
N200 C202 1.340 . S
N201 C198 1.368 . S
N201 C202 1.321 . S
N201 Co204 2.135 . S
C202 N200 1.340 . S
C202 N201 1.321 . S
C202 H226 0.930 . S
H203 C198 0.931 . S
Co204 N201 2.135 . S
Co204 N207 2.121 . S
Co204 O212 2.055 . S
Co204 O215 2.039 . S
Co204 N218 2.140 . S
C205 O206 1.227 . S
C205 O215 1.265 . S
O206 C205 1.227 . S
N207 Co204 2.121 . S
N207 C209 1.375 . S
N207 C210 1.313 . S
C208 C209 1.338 . S
C208 N211 1.377 . S
C208 H228 0.930 . S
C209 N207 1.375 . S
C209 C208 1.338 . S
C209 H213 0.931 . S
C210 N207 1.313 . S
C210 N211 1.344 . S
C210 H214 0.930 . S
N211 C208 1.377 . S
N211 C210 1.344 . S
O212 Co204 2.055 . S
O212 C216 1.253 . S
H213 C209 0.931 . S
H214 C210 0.930 . S
O215 Co204 2.039 . S
O215 C205 1.265 . S
C216 O212 1.253 . S
C216 O217 1.227 . S
O217 C216 1.227 . S
N218 Co204 2.140 . S
N218 C221 1.346 . S
N218 C222 1.345 . S
C219 C220 1.387 . S
C219 C223 1.391 . S
C220 C219 1.387 . S
C220 C221 1.369 . S
C220 H229 0.929 . S
C221 N218 1.346 . S
C221 C220 1.369 . S
C221 H224 0.928 . S
C222 N218 1.345 . S
C222 C223 1.371 . S
C222 H225 0.931 . S
C223 C219 1.391 . S
C223 C222 1.371 . S
C223 H230 0.930 . S
H224 C221 0.928 . S
H225 C222 0.931 . S
H226 C202 0.930 . S
H227 C199 0.930 . S
H228 C208 0.930 . S
H229 C220 0.929 . S
H230 C223 0.930 . S
C231 C232 1.351 . S
C231 N234 1.368 . S
C231 H236 0.931 . S
C232 C231 1.351 . S
C232 N233 1.373 . S
C232 H260 0.930 . S
N233 C232 1.373 . S
N233 C235 1.340 . S
N234 C231 1.368 . S
N234 C235 1.321 . S
N234 Co237 2.135 . S
C235 N233 1.340 . S
C235 N234 1.321 . S
C235 H259 0.930 . S
H236 C231 0.931 . S
Co237 N234 2.135 . S
Co237 N240 2.121 . S
Co237 O245 2.055 . S
Co237 O248 2.039 . S
Co237 N251 2.140 . S
C238 O239 1.227 . S
C238 O248 1.265 . S
O239 C238 1.227 . S
N240 Co237 2.121 . S
N240 C242 1.375 . S
N240 C243 1.313 . S
C241 C242 1.338 . S
C241 N244 1.377 . S
C241 H261 0.930 . S
C242 N240 1.375 . S
C242 C241 1.338 . S
C242 H246 0.931 . S
C243 N240 1.313 . S
C243 N244 1.344 . S
C243 H247 0.930 . S
N244 C241 1.377 . S
N244 C243 1.344 . S
O245 Co237 2.055 . S
O245 C249 1.253 . S
H246 C242 0.931 . S
H247 C243 0.930 . S
O248 Co237 2.039 . S
O248 C238 1.265 . S
C249 O245 1.253 . S
C249 O250 1.227 . S
O250 C249 1.227 . S
N251 Co237 2.140 . S
N251 C254 1.346 . S
N251 C255 1.345 . S
C252 C253 1.387 . S
C252 C256 1.391 . S
C253 C252 1.387 . S
C253 C254 1.369 . S
C253 H262 0.929 . S
C254 N251 1.346 . S
C254 C253 1.369 . S
C254 H257 0.928 . S
C255 N251 1.345 . S
C255 C256 1.371 . S
C255 H258 0.931 . S
C256 C252 1.391 . S
C256 C255 1.371 . S
C256 H263 0.930 . S
H257 C254 0.928 . S
H258 C255 0.931 . S
H259 C235 0.930 . S
H260 C232 0.930 . S
H261 C241 0.930 . S
H262 C253 0.929 . S
H263 C256 0.930 . S
C264 C265 1.351 . S
C264 N267 1.368 . S
C264 H269 0.931 . S
C265 C264 1.351 . S
C265 N266 1.373 . S
C265 H293 0.930 . S
N266 C265 1.373 . S
N266 C268 1.340 . S
N267 C264 1.368 . S
N267 C268 1.321 . S
N267 Co270 2.135 . S
C268 N266 1.340 . S
C268 N267 1.321 . S
C268 H292 0.930 . S
H269 C264 0.931 . S
Co270 N267 2.135 . S
Co270 N273 2.121 . S
Co270 O278 2.055 . S
Co270 O281 2.039 . S
Co270 N284 2.140 . S
C271 O272 1.227 . S
C271 O281 1.265 . S
O272 C271 1.227 . S
N273 Co270 2.121 . S
N273 C275 1.375 . S
N273 C276 1.313 . S
C274 C275 1.338 . S
C274 N277 1.377 . S
C274 H294 0.930 . S
C275 N273 1.375 . S
C275 C274 1.338 . S
C275 H279 0.931 . S
C276 N273 1.313 . S
C276 N277 1.344 . S
C276 H280 0.930 . S
N277 C274 1.377 . S
N277 C276 1.344 . S
O278 Co270 2.055 . S
O278 C282 1.253 . S
H279 C275 0.931 . S
H280 C276 0.930 . S
O281 Co270 2.039 . S
O281 C271 1.265 . S
C282 O278 1.253 . S
C282 O283 1.227 . S
O283 C282 1.227 . S
N284 Co270 2.140 . S
N284 C287 1.346 . S
N284 C288 1.345 . S
C285 C286 1.387 . S
C285 C289 1.391 . S
C286 C285 1.387 . S
C286 C287 1.369 . S
C286 H295 0.929 . S
C287 N284 1.346 . S
C287 C286 1.369 . S
C287 H290 0.928 . S
C288 N284 1.345 . S
C288 C289 1.371 . S
C288 H291 0.931 . S
C289 C285 1.391 . S
C289 C288 1.371 . S
C289 H296 0.930 . S
H290 C287 0.928 . S
H291 C288 0.931 . S
H292 C268 0.930 . S
H293 C265 0.930 . S
H294 C274 0.930 . S
H295 C286 0.929 . S
H296 C289 0.930 . S
C297 C298 1.351 1_556 S
C297 N300 1.368 . S
C297 H302 0.931 . S
C298 C297 1.351 1_554 S
C298 N299 1.373 . S
C298 H326 0.930 . S
N299 C298 1.373 . S
N299 C301 1.340 1_554 S
N300 C297 1.368 . S
N300 C301 1.321 . S
N300 Co303 2.135 . S
C301 N299 1.340 1_556 S
C301 N300 1.321 . S
C301 H325 0.930 . S
H302 C297 0.931 . S
Co303 N300 2.135 . S
Co303 N306 2.121 . S
Co303 O311 2.055 . S
Co303 O314 2.039 . S
Co303 N317 2.140 . S
C304 O305 1.227 . S
C304 O314 1.265 . S
O305 C304 1.227 . S
N306 Co303 2.121 . S
N306 C308 1.375 . S
N306 C309 1.313 . S
C307 C308 1.338 . S
C307 N310 1.377 . S
C307 H327 0.930 . S
C308 N306 1.375 . S
C308 C307 1.338 . S
C308 H312 0.931 . S
C309 N306 1.313 . S
C309 N310 1.344 . S
C309 H313 0.930 . S
N310 C307 1.377 . S
N310 C309 1.344 . S
O311 Co303 2.055 . S
O311 C315 1.253 . S
H312 C308 0.931 . S
H313 C309 0.930 . S
O314 Co303 2.039 . S
O314 C304 1.265 . S
C315 O311 1.253 . S
C315 O316 1.227 . S
O316 C315 1.227 . S
N317 Co303 2.140 . S
N317 C320 1.346 . S
N317 C321 1.345 . S
C318 C319 1.387 . S
C318 C322 1.391 . S
C319 C318 1.387 . S
C319 C320 1.369 . S
C319 H328 0.929 . S
C320 N317 1.346 . S
C320 C319 1.369 . S
C320 H323 0.928 . S
C321 N317 1.345 . S
C321 C322 1.371 . S
C321 H324 0.931 . S
C322 C318 1.391 . S
C322 C321 1.371 . S
C322 H329 0.930 . S
H323 C320 0.928 . S
H324 C321 0.931 . S
H325 C301 0.930 . S
H326 C298 0.930 . S
H327 C307 0.930 . S
H328 C319 0.929 . S
H329 C322 0.930 . S
C330 C331 1.351 . S
C330 N333 1.368 . S
C330 H335 0.931 . S
C331 C330 1.351 . S
C331 N332 1.373 . S
C331 H359 0.930 . S
N332 C331 1.373 . S
N332 C334 1.340 . S
N333 C330 1.368 . S
N333 C334 1.321 . S
N333 Co336 2.136 1_556 S
C334 N332 1.340 . S
C334 N333 1.321 . S
C334 H358 0.930 . S
H335 C330 0.931 . S
Co336 N333 2.136 1_554 S
Co336 N339 2.119 . S
Co336 O344 2.055 . S
Co336 O347 2.039 1_554 S
Co336 N350 2.140 . S
C337 O338 1.227 . S
C337 O347 1.265 . S
O338 C337 1.227 . S
N339 Co336 2.119 . S
N339 C341 1.375 . S
N339 C342 1.313 . S
C340 C341 1.338 . S
C340 N343 1.377 . S
C340 H360 0.930 . S
C341 N339 1.375 . S
C341 C340 1.338 . S
C341 H345 0.931 . S
C342 N339 1.313 . S
C342 N343 1.344 . S
C342 H346 0.930 . S
N343 C340 1.377 . S
N343 C342 1.344 . S
O344 Co336 2.055 . S
O344 C348 1.253 . S
H345 C341 0.931 . S
H346 C342 0.930 . S
O347 Co336 2.039 1_556 S
O347 C337 1.265 . S
C348 O344 1.253 . S
C348 O349 1.227 . S
O349 C348 1.227 . S
N350 Co336 2.140 . S
N350 C353 1.346 1_554 S
N350 C354 1.345 . S
C351 C352 1.387 1_554 S
C351 C355 1.391 . S
C352 C351 1.387 1_556 S
C352 C353 1.369 . S
C352 H361 0.929 . S
C353 N350 1.346 1_556 S
C353 C352 1.369 . S
C353 H356 0.928 . S
C354 N350 1.345 . S
C354 C355 1.371 . S
C354 H357 0.931 . S
C355 C351 1.391 . S
C355 C354 1.371 . S
C355 H362 0.930 . S
H356 C353 0.928 . S
H357 C354 0.931 . S
H358 C334 0.930 . S
H359 C331 0.930 . S
H360 C340 0.930 . S
H361 C352 0.929 . S
H362 C355 0.930 . S
C363 C364 1.351 . S
C363 N366 1.368 . S
C363 H368 0.931 . S
C364 C363 1.351 . S
C364 N365 1.373 . S
C364 H392 0.930 . S
N365 C364 1.373 . S
N365 C367 1.340 . S
N366 C363 1.368 . S
N366 C367 1.321 . S
N366 Co369 2.135 . S
C367 N365 1.340 . S
C367 N366 1.321 . S
C367 H391 0.930 . S
H368 C363 0.931 . S
Co369 N366 2.135 . S
Co369 N372 2.121 . S
Co369 O377 2.055 . S
Co369 O380 2.039 . S
Co369 N383 2.140 . S
C370 O371 1.227 . S
C370 O380 1.265 . S
O371 C370 1.227 . S
N372 Co369 2.121 . S
N372 C374 1.375 . S
N372 C375 1.313 . S
C373 C374 1.338 . S
C373 N376 1.377 . S
C373 H393 0.930 . S
C374 N372 1.375 . S
C374 C373 1.338 . S
C374 H378 0.931 . S
C375 N372 1.313 . S
C375 N376 1.344 . S
C375 H379 0.930 . S
N376 C373 1.377 . S
N376 C375 1.344 . S
O377 Co369 2.055 . S
O377 C381 1.253 . S
H378 C374 0.931 . S
H379 C375 0.930 . S
O380 Co369 2.039 . S
O380 C370 1.265 . S
C381 O377 1.253 . S
C381 O382 1.227 . S
O382 C381 1.227 . S
N383 Co369 2.140 . S
N383 C386 1.346 . S
N383 C387 1.345 . S
C384 C385 1.387 . S
C384 C388 1.391 . S
C385 C384 1.387 . S
C385 C386 1.369 . S
C385 H394 0.929 . S
C386 N383 1.346 . S
C386 C385 1.369 . S
C386 H389 0.928 . S
C387 N383 1.345 . S
C387 C388 1.371 . S
C387 H390 0.931 . S
C388 C384 1.391 . S
C388 C387 1.371 . S
C388 H395 0.930 . S
H389 C386 0.928 . S
H390 C387 0.931 . S
H391 C367 0.930 . S
H392 C364 0.930 . S
H393 C373 0.930 . S
H394 C385 0.929 . S
H395 C388 0.930 . S
C396 C397 1.351 . S
C396 N399 1.368 . S
C396 H401 0.931 . S
C397 C396 1.351 . S
C397 N398 1.373 . S
C397 H425 0.930 . S
N398 C397 1.373 . S
N398 C400 1.340 . S
N399 C396 1.368 . S
N399 C400 1.321 . S
N399 Co402 2.135 . S
C400 N398 1.340 . S
C400 N399 1.321 . S
C400 H424 0.930 . S
H401 C396 0.931 . S
Co402 N399 2.135 . S
Co402 N405 2.121 . S
Co402 O410 2.055 . S
Co402 O413 2.039 . S
Co402 N416 2.140 . S
C403 O404 1.227 . S
C403 O413 1.265 . S
O404 C403 1.227 . S
N405 Co402 2.121 . S
N405 C407 1.375 . S
N405 C408 1.313 . S
C406 C407 1.338 . S
C406 N409 1.377 . S
C406 H426 0.930 . S
C407 N405 1.375 . S
C407 C406 1.338 . S
C407 H411 0.931 . S
C408 N405 1.313 . S
C408 N409 1.344 . S
C408 H412 0.930 . S
N409 C406 1.377 . S
N409 C408 1.344 . S
O410 Co402 2.055 . S
O410 C414 1.253 . S
H411 C407 0.931 . S
H412 C408 0.930 . S
O413 Co402 2.039 . S
O413 C403 1.265 . S
C414 O410 1.253 . S
C414 O415 1.227 . S
O415 C414 1.227 . S
N416 Co402 2.140 . S
N416 C419 1.346 . S
N416 C420 1.345 . S
C417 C418 1.387 . S
C417 C421 1.391 . S
C418 C417 1.387 . S
C418 C419 1.369 . S
C418 H427 0.929 . S
C419 N416 1.346 . S
C419 C418 1.369 . S
C419 H422 0.928 . S
C420 N416 1.345 . S
C420 C421 1.371 . S
C420 H423 0.931 . S
C421 C417 1.391 . S
C421 C420 1.371 . S
C421 H428 0.930 . S
H422 C419 0.928 . S
H423 C420 0.931 . S
H424 C400 0.930 . S
H425 C397 0.930 . S
H426 C406 0.930 . S
H427 C418 0.929 . S
H428 C421 0.930 . S
C429 C430 1.351 . S
C429 N432 1.368 . S
C429 H434 0.931 . S
C430 C429 1.351 . S
C430 N431 1.373 . S
C430 H458 0.930 . S
N431 C430 1.373 . S
N431 C433 1.340 . S
N432 C429 1.368 . S
N432 C433 1.321 . S
N432 Co435 2.135 . S
C433 N431 1.340 . S
C433 N432 1.321 . S
C433 H457 0.930 . S
H434 C429 0.931 . S
Co435 N432 2.135 . S
Co435 N438 2.121 . S
Co435 O443 2.055 . S
Co435 O446 2.039 . S
Co435 N449 2.140 . S
C436 O437 1.227 . S
C436 O446 1.265 . S
O437 C436 1.227 . S
N438 Co435 2.121 . S
N438 C440 1.375 . S
N438 C441 1.313 . S
C439 C440 1.338 . S
C439 N442 1.377 . S
C439 H459 0.930 . S
C440 N438 1.375 . S
C440 C439 1.338 . S
C440 H444 0.931 . S
C441 N438 1.313 . S
C441 N442 1.344 . S
C441 H445 0.930 . S
N442 C439 1.377 . S
N442 C441 1.344 . S
O443 Co435 2.055 . S
O443 C447 1.253 . S
H444 C440 0.931 . S
H445 C441 0.930 . S
O446 Co435 2.039 . S
O446 C436 1.265 . S
C447 O443 1.253 . S
C447 O448 1.227 . S
O448 C447 1.227 . S
N449 Co435 2.140 . S
N449 C452 1.346 . S
N449 C453 1.345 . S
C450 C451 1.387 . S
C450 C454 1.391 . S
C451 C450 1.387 . S
C451 C452 1.369 . S
C451 H460 0.929 . S
C452 N449 1.346 . S
C452 C451 1.369 . S
C452 H455 0.928 . S
C453 N449 1.345 . S
C453 C454 1.371 . S
C453 H456 0.931 . S
C454 C450 1.391 . S
C454 C453 1.371 . S
C454 H461 0.930 . S
H455 C452 0.928 . S
H456 C453 0.931 . S
H457 C433 0.930 . S
H458 C430 0.930 . S
H459 C439 0.930 . S
H460 C451 0.929 . S
H461 C454 0.930 . S
C462 C463 1.351 . S
C462 N465 1.368 . S
C462 H467 0.931 . S
C463 C462 1.351 . S
C463 N464 1.373 . S
C463 H491 0.930 . S
N464 C463 1.373 . S
N464 C466 1.340 . S
N465 C462 1.368 . S
N465 C466 1.321 . S
N465 Co468 2.135 . S
C466 N464 1.340 . S
C466 N465 1.321 . S
C466 H490 0.930 . S
H467 C462 0.931 . S
Co468 N465 2.135 . S
Co468 N471 2.121 1_554 S
Co468 O476 2.055 . S
Co468 O479 2.039 . S
Co468 N482 2.140 . S
C469 O470 1.227 . S
C469 O479 1.265 . S
O470 C469 1.227 . S
N471 Co468 2.121 1_556 S
N471 C473 1.375 . S
N471 C474 1.313 . S
C472 C473 1.338 . S
C472 N475 1.377 . S
C472 H492 0.930 . S
C473 N471 1.375 . S
C473 C472 1.338 . S
C473 H477 0.931 . S
C474 N471 1.313 . S
C474 N475 1.344 . S
C474 H478 0.930 . S
N475 C472 1.377 . S
N475 C474 1.344 . S
O476 Co468 2.055 . S
O476 C480 1.253 . S
H477 C473 0.931 . S
H478 C474 0.930 . S
O479 Co468 2.039 . S
O479 C469 1.265 . S
C480 O476 1.253 . S
C480 O481 1.227 . S
O481 C480 1.227 . S
N482 Co468 2.140 . S
N482 C485 1.346 . S
N482 C486 1.345 . S
C483 C484 1.387 . S
C483 C487 1.391 . S
C484 C483 1.387 . S
C484 C485 1.369 . S
C484 H493 0.929 . S
C485 N482 1.346 . S
C485 C484 1.369 . S
C485 H488 0.928 . S
C486 N482 1.345 . S
C486 C487 1.371 . S
C486 H489 0.920 1_554 S
C487 C483 1.391 . S
C487 C486 1.371 . S
C487 H494 0.930 1_554 S
H488 C485 0.928 . S
H489 C486 0.920 1_556 S
H490 C466 0.930 . S
H491 C463 0.930 . S
H492 C472 0.930 . S
H493 C484 0.929 . S
H494 C487 0.930 1_556 S
C495 C496 1.351 1_556 S
C495 N498 1.368 . S
C495 H500 0.931 . S
C496 C495 1.351 1_554 S
C496 N497 1.373 . S
C496 H524 0.930 . S
N497 C496 1.373 . S
N497 C499 1.340 1_554 S
N498 C495 1.368 . S
N498 C499 1.321 . S
N498 Co501 2.135 . S
C499 N497 1.340 1_556 S
C499 N498 1.321 . S
C499 H523 0.930 . S
H500 C495 0.931 . S
Co501 N498 2.135 . S
Co501 N504 2.121 . S
Co501 O509 2.055 . S
Co501 O512 2.039 . S
Co501 N515 2.140 . S
C502 O503 1.227 . S
C502 O512 1.265 . S
O503 C502 1.227 . S
N504 Co501 2.121 . S
N504 C506 1.375 . S
N504 C507 1.313 . S
C505 C506 1.338 . S
C505 N508 1.377 . S
C505 H525 0.930 . S
C506 N504 1.375 . S
C506 C505 1.338 . S
C506 H510 0.931 . S
C507 N504 1.313 . S
C507 N508 1.344 . S
C507 H511 0.930 . S
N508 C505 1.377 . S
N508 C507 1.344 . S
O509 Co501 2.055 . S
O509 C513 1.253 . S
H510 C506 0.931 . S
H511 C507 0.930 . S
O512 Co501 2.039 . S
O512 C502 1.265 . S
C513 O509 1.253 . S
C513 O514 1.227 . S
O514 C513 1.227 . S
N515 Co501 2.140 . S
N515 C518 1.346 . S
N515 C519 1.345 . S
C516 C517 1.387 . S
C516 C520 1.391 . S
C517 C516 1.387 . S
C517 C518 1.369 . S
C517 H526 0.929 . S
C518 N515 1.346 . S
C518 C517 1.369 . S
C518 H521 0.928 . S
C519 N515 1.345 . S
C519 C520 1.371 . S
C519 H522 0.931 . S
C520 C516 1.391 . S
C520 C519 1.371 . S
C520 H527 0.930 . S
H521 C518 0.928 . S
H522 C519 0.931 . S
H523 C499 0.930 . S
H524 C496 0.930 . S
H525 C505 0.930 . S
H526 C517 0.929 . S
H527 C520 0.930 . S
H528 C536 0.929 . S
H529 C538 0.930 . S
H530 C540 0.930 . S
H531 C543 0.929 . S
H532 C546 0.930 . S
H533 C548 0.960 . S
H534 C548 0.960 . S
H535 C548 0.960 . S
C536 H528 0.929 . S
C536 C537 1.377 . S
C536 C538 1.384 . S
C537 C536 1.377 . S
C537 C543 1.390 . S
C538 H529 0.930 . S
C538 C536 1.384 . S
C538 C539 1.372 . S
C539 C538 1.372 . S
C539 C540 1.400 . S
C539 C544 1.490 . S
C540 H530 0.930 . S
C540 C539 1.400 . S
C540 C543 1.386 . S
H541 C557 0.930 . S
H542 C558 0.931 . S
C543 H531 0.929 . S
C543 C537 1.390 . S
C543 C540 1.386 . S
C544 C539 1.490 . S
C544 C546 1.395 . S
C544 C547 1.403 . S
H545 C551 0.930 . S
C546 H532 0.930 . S
C546 C544 1.395 . S
C546 C549 1.403 . S
C547 C544 1.403 . S
C547 C548 1.524 . S
C547 C551 1.400 . S
C548 H533 0.960 . S
C548 H534 0.960 . S
C548 H535 0.960 . S
C548 C547 1.524 . S
C549 C546 1.403 . S
C549 C550 1.392 . S
C549 C553 1.495 . S
C550 C549 1.392 . S
C550 C551 1.385 . S
C550 C552 1.478 . S
C551 H545 0.930 . S
C551 C547 1.400 . S
C551 C550 1.385 . S
C552 C550 1.478 . S
C552 C554 1.381 . S
C552 C558 1.383 . S
C553 C549 1.495 . S
C553 H559 0.959 . S
C553 H560 0.961 . S
C553 H561 0.960 . S
C554 C552 1.381 . S
C554 C555 1.394 . S
C554 H562 0.930 . S
C555 C554 1.394 . S
C555 C556 1.383 . S
C555 H563 0.929 . S
C556 C555 1.383 . S
C556 C557 1.377 . S
C557 H541 0.930 . S
C557 C556 1.377 . S
C557 C558 1.379 . S
C558 H542 0.931 . S
C558 C552 1.383 . S
C558 C557 1.379 . S
H559 C553 0.959 . S
H560 C553 0.961 . S
H561 C553 0.960 . S
H562 C554 0.930 . S
H563 C555 0.929 . S
H564 C572 0.929 . S
H565 C574 0.930 . S
H566 C576 0.930 . S
H567 C579 0.929 . S
H568 C582 0.930 . S
H569 C584 0.960 . S
H570 C584 0.960 . S
H571 C584 0.960 . S
C572 H564 0.929 . S
C572 C573 1.377 . S
C572 C574 1.384 1_554 S
C573 C572 1.377 . S
C573 C579 1.390 . S
C574 H565 0.930 . S
C574 C572 1.384 1_556 S
C574 C575 1.372 . S
C575 C574 1.372 . S
C575 C576 1.400 . S
C575 C580 1.490 . S
C576 H566 0.930 . S
C576 C575 1.400 . S
C576 C579 1.386 1_556 S
H577 C593 0.930 . S
H578 C594 0.931 . S
C579 H567 0.929 . S
C579 C573 1.390 . S
C579 C576 1.386 1_554 S
C580 C575 1.490 . S
C580 C582 1.395 . S
C580 C583 1.403 . S
H581 C587 0.930 . S
C582 H568 0.930 . S
C582 C580 1.395 . S
C582 C585 1.403 . S
C583 C580 1.403 . S
C583 C584 1.524 . S
C583 C587 1.400 . S
C584 H569 0.960 . S
C584 H570 0.960 . S
C584 H571 0.960 . S
C584 C583 1.524 . S
C585 C582 1.403 . S
C585 C586 1.392 . S
C585 C589 1.495 . S
C586 C585 1.392 . S
C586 C587 1.385 . S
C586 C588 1.478 . S
C587 H581 0.930 . S
C587 C583 1.400 . S
C587 C586 1.385 . S
C588 C586 1.478 . S
C588 C590 1.381 . S
C588 C594 1.383 . S
C589 C585 1.495 . S
C589 H595 0.959 . S
C589 H596 0.961 . S
C589 H597 0.960 . S
C590 C588 1.381 . S
C590 C591 1.394 . S
C590 H598 0.930 . S
C591 C590 1.394 . S
C591 C592 1.383 . S
C591 H599 0.929 . S
C592 C591 1.383 . S
C592 C593 1.377 . S
C593 H577 0.930 . S
C593 C592 1.377 . S
C593 C594 1.379 . S
C594 H578 0.931 . S
C594 C588 1.383 . S
C594 C593 1.379 . S
H595 C589 0.959 . S
H596 C589 0.961 . S
H597 C589 0.960 . S
H598 C590 0.930 . S
H599 C591 0.929 . S
H600 C608 0.929 . S
H601 C610 0.930 . S
H602 C612 0.930 . S
H603 C615 0.929 . S
H604 C618 0.930 . S
H605 C620 0.960 . S
H606 C620 0.960 . S
H607 C620 0.960 . S
C608 H600 0.929 . S
C608 C609 1.377 . S
C608 C610 1.384 . S
C609 C608 1.377 . S
C609 C615 1.390 . S
C610 H601 0.930 . S
C610 C608 1.384 . S
C610 C611 1.372 . S
C611 C610 1.372 . S
C611 C612 1.400 . S
C611 C616 1.490 . S
C612 H602 0.930 . S
C612 C611 1.400 . S
C612 C615 1.386 . S
H613 C629 0.930 . S
H614 C630 0.931 . S
C615 H603 0.929 . S
C615 C609 1.390 . S
C615 C612 1.386 . S
C616 C611 1.490 . S
C616 C618 1.395 . S
C616 C619 1.403 . S
H617 C623 0.930 . S
C618 H604 0.930 . S
C618 C616 1.395 . S
C618 C621 1.403 1_554 S
C619 C616 1.403 . S
C619 C620 1.524 . S
C619 C623 1.400 1_554 S
C620 H605 0.960 . S
C620 H606 0.960 . S
C620 H607 0.960 . S
C620 C619 1.524 . S
C621 C618 1.403 1_556 S
C621 C622 1.392 . S
C621 C625 1.495 . S
C622 C621 1.392 . S
C622 C623 1.385 . S
C622 C624 1.478 . S
C623 H617 0.930 . S
C623 C619 1.400 1_556 S
C623 C622 1.385 . S
C624 C622 1.478 . S
C624 C626 1.381 . S
C624 C630 1.383 . S
C625 C621 1.495 . S
C625 H631 0.959 . S
C625 H632 0.961 . S
C625 H633 0.960 . S
C626 C624 1.381 . S
C626 C627 1.394 . S
C626 H634 0.930 . S
C627 C626 1.394 . S
C627 C628 1.383 . S
C627 H635 0.929 . S
C628 C627 1.383 . S
C628 C629 1.377 . S
C629 H613 0.930 . S
C629 C628 1.377 . S
C629 C630 1.379 . S
C630 H614 0.931 . S
C630 C624 1.383 . S
C630 C629 1.379 . S
H631 C625 0.959 . S
H632 C625 0.961 . S
H633 C625 0.960 . S
H634 C626 0.930 . S
H635 C627 0.929 . S
H636 C644 0.929 . S
H637 C646 0.930 . S
H638 C648 0.930 . S
H639 C651 0.929 . S
H640 C654 0.930 . S
H641 C656 0.960 . S
H642 C656 0.960 . S
H643 C656 0.960 . S
C644 H636 0.929 . S
C644 C645 1.377 . S
C644 C646 1.384 . S
C645 C644 1.377 . S
C645 C651 1.390 . S
C646 H637 0.930 . S
C646 C644 1.384 . S
C646 C647 1.372 . S
C647 C646 1.372 . S
C647 C648 1.400 . S
C647 C652 1.490 . S
C648 H638 0.930 . S
C648 C647 1.400 . S
C648 C651 1.386 . S
H649 C665 0.930 . S
H650 C666 0.931 . S
C651 H639 0.929 . S
C651 C645 1.390 . S
C651 C648 1.386 . S
C652 C647 1.490 . S
C652 C654 1.395 . S
C652 C655 1.403 . S
H653 C659 0.930 . S
C654 H640 0.930 . S
C654 C652 1.395 . S
C654 C657 1.403 . S
C655 C652 1.403 . S
C655 C656 1.524 . S
C655 C659 1.400 . S
C656 H641 0.960 . S
C656 H642 0.960 . S
C656 H643 0.960 . S
C656 C655 1.524 . S
C657 C654 1.403 . S
C657 C658 1.392 . S
C657 C661 1.495 . S
C658 C657 1.392 . S
C658 C659 1.385 . S
C658 C660 1.478 . S
C659 H653 0.930 . S
C659 C655 1.400 . S
C659 C658 1.385 . S
C660 C658 1.478 . S
C660 C662 1.381 . S
C660 C666 1.383 . S
C661 C657 1.495 . S
C661 H667 0.959 . S
C661 H668 0.961 . S
C661 H669 0.960 . S
C662 C660 1.381 . S
C662 C663 1.394 . S
C662 H670 0.930 . S
C663 C662 1.394 . S
C663 C664 1.383 1_554 S
C663 H671 0.929 1_554 S
C664 C663 1.383 1_556 S
C664 C665 1.377 1_556 S
C665 H649 0.930 . S
C665 C664 1.377 1_554 S
C665 C666 1.379 . S
C666 H650 0.931 . S
C666 C660 1.383 . S
C666 C665 1.379 . S
H667 C661 0.959 . S
H668 C661 0.961 . S
H669 C661 0.960 . S
H670 C662 0.930 . S
H671 C663 0.929 1_556 S
H672 C680 0.929 . S
H673 C682 0.930 . S
H674 C684 0.930 . S
H675 C687 0.929 . S
H676 C690 0.930 . S
H677 C692 0.960 . S
H678 C692 0.960 . S
H679 C692 0.960 . S
C680 H672 0.929 . S
C680 C681 1.377 . S
C680 C682 1.384 . S
C681 C680 1.377 . S
C681 C687 1.390 . S
C682 H673 0.930 . S
C682 C680 1.384 . S
C682 C683 1.372 . S
C683 C682 1.372 . S
C683 C684 1.400 . S
C683 C688 1.490 . S
C684 H674 0.930 . S
C684 C683 1.400 . S
C684 C687 1.386 . S
H685 C701 0.930 1_565 S
H686 C702 0.934 . S
C687 H675 0.929 . S
C687 C681 1.390 . S
C687 C684 1.386 . S
C688 C683 1.490 . S
C688 C690 1.395 . S
C688 C691 1.403 . S
H689 C695 0.930 . S
C690 H676 0.930 . S
C690 C688 1.395 . S
C690 C693 1.403 . S
C691 C688 1.403 . S
C691 C692 1.524 . S
C691 C695 1.400 . S
C692 H677 0.960 . S
C692 H678 0.960 . S
C692 H679 0.960 . S
C692 C691 1.524 . S
C693 C690 1.403 . S
C693 C694 1.392 . S
C693 C697 1.495 . S
C694 C693 1.392 . S
C694 C695 1.385 . S
C694 C696 1.478 . S
C695 H689 0.930 . S
C695 C691 1.400 . S
C695 C694 1.385 . S
C696 C694 1.478 . S
C696 C698 1.381 . S
C696 C702 1.383 . S
C697 C693 1.495 . S
C697 H703 0.959 . S
C697 H704 0.961 . S
C697 H705 0.960 . S
C698 C696 1.381 . S
C698 C699 1.394 . S
C698 H706 0.930 . S
C699 C698 1.394 . S
C699 C700 1.383 . S
C699 H707 0.929 . S
C700 C699 1.383 . S
C700 C701 1.377 . S
C701 H685 0.930 1_545 S
C701 C700 1.377 . S
C701 C702 1.379 . S
C702 H686 0.934 . S
C702 C696 1.383 . S
C702 C701 1.379 . S
H703 C697 0.959 . S
H704 C697 0.961 . S
H705 C697 0.960 . S
H706 C698 0.930 . S
H707 C699 0.929 . S
H708 C716 0.929 . S
H709 C718 0.930 . S
H710 C720 0.930 . S
H711 C723 0.929 . S
H712 C726 0.930 . S
H713 C728 0.960 . S
H714 C728 0.960 . S
H715 C728 0.960 . S
C716 H708 0.929 . S
C716 C717 1.377 . S
C716 C718 1.384 . S
C717 C716 1.377 . S
C717 C723 1.390 . S
C718 H709 0.930 . S
C718 C716 1.384 . S
C718 C719 1.372 . S
C719 C718 1.372 . S
C719 C720 1.400 . S
C719 C724 1.490 . S
C720 H710 0.930 . S
C720 C719 1.400 . S
C720 C723 1.386 . S
H721 C737 0.930 . S
H722 C738 0.931 . S
C723 H711 0.929 . S
C723 C717 1.390 . S
C723 C720 1.386 . S
C724 C719 1.490 . S
C724 C726 1.395 . S
C724 C727 1.403 . S
H725 C731 0.930 . S
C726 H712 0.930 . S
C726 C724 1.395 . S
C726 C729 1.403 . S
C727 C724 1.403 . S
C727 C728 1.524 . S
C727 C731 1.400 . S
C728 H713 0.960 . S
C728 H714 0.960 . S
C728 H715 0.960 . S
C728 C727 1.524 . S
C729 C726 1.403 . S
C729 C730 1.392 . S
C729 C733 1.495 . S
C730 C729 1.392 . S
C730 C731 1.385 . S
C730 C732 1.478 . S
C731 H725 0.930 . S
C731 C727 1.400 . S
C731 C730 1.385 . S
C732 C730 1.478 . S
C732 C734 1.381 . S
C732 C738 1.383 . S
C733 C729 1.495 . S
C733 H739 0.959 . S
C733 H740 0.961 . S
C733 H741 0.960 . S
C734 C732 1.381 . S
C734 C735 1.394 . S
C734 H742 0.930 . S
C735 C734 1.394 . S
C735 C736 1.383 1_554 S
C735 H743 0.929 1_554 S
C736 C735 1.383 1_556 S
C736 C737 1.377 1_556 S
C737 H721 0.930 . S
C737 C736 1.377 1_554 S
C737 C738 1.379 . S
C738 H722 0.931 . S
C738 C732 1.383 . S
C738 C737 1.379 . S
H739 C733 0.959 . S
H740 C733 0.961 . S
H741 C733 0.960 . S
H742 C734 0.930 . S
H743 C735 0.929 1_556 S
H744 C752 0.929 . S
H745 C754 0.930 . S
H746 C756 0.930 . S
H747 C759 0.929 . S
H748 C762 0.930 . S
H749 C764 0.960 . S
H750 C764 0.960 . S
H751 C764 0.960 . S
C752 H744 0.929 . S
C752 C753 1.377 . S
C752 C754 1.384 . S
C753 C752 1.377 . S
C753 C759 1.390 . S
C754 H745 0.930 . S
C754 C752 1.384 . S
C754 C755 1.372 . S
C755 C754 1.372 . S
C755 C756 1.400 . S
C755 C760 1.490 . S
C756 H746 0.930 . S
C756 C755 1.400 . S
C756 C759 1.386 . S
H757 C773 0.930 . S
H758 C774 0.931 . S
C759 H747 0.929 . S
C759 C753 1.390 . S
C759 C756 1.386 . S
C760 C755 1.490 . S
C760 C762 1.395 . S
C760 C763 1.403 . S
H761 C767 0.930 . S
C762 H748 0.930 . S
C762 C760 1.395 . S
C762 C765 1.403 . S
C763 C760 1.403 . S
C763 C764 1.524 . S
C763 C767 1.400 . S
C764 H749 0.960 . S
C764 H750 0.960 . S
C764 H751 0.960 . S
C764 C763 1.524 . S
C765 C762 1.403 . S
C765 C766 1.392 . S
C765 C769 1.496 1_544 S
C766 C765 1.392 . S
C766 C767 1.385 . S
C766 C768 1.478 1_554 S
C767 H761 0.930 . S
C767 C763 1.400 . S
C767 C766 1.385 . S
C768 C766 1.478 1_556 S
C768 C770 1.381 . S
C768 C774 1.383 . S
C769 C765 1.496 1_566 S
C769 H775 0.960 1_556 S
C769 H776 0.961 . S
C769 H777 0.954 1_565 S
C770 C768 1.381 . S
C770 C771 1.394 . S
C770 H778 0.930 . S
C771 C770 1.394 . S
C771 C772 1.383 . S
C771 H779 0.929 . S
C772 C771 1.383 . S
C772 C773 1.377 . S
C773 H757 0.930 . S
C773 C772 1.377 . S
C773 C774 1.379 . S
C774 H758 0.931 . S
C774 C768 1.383 . S
C774 C773 1.379 . S
H775 C769 0.960 1_554 S
H776 C769 0.961 . S
H777 C769 0.954 1_545 S
H778 C770 0.930 . S
H779 C771 0.929 . S
H780 C788 0.929 . S
H781 C790 0.930 . S
H782 C792 0.930 . S
H783 C795 0.929 . S
H784 C798 0.930 . S
H785 C800 0.960 . S
H786 C800 0.960 . S
H787 C800 0.960 . S
C788 H780 0.929 . S
C788 C789 1.377 . S
C788 C790 1.384 . S
C789 C788 1.377 . S
C789 C795 1.390 . S
C790 H781 0.930 . S
C790 C788 1.384 . S
C790 C791 1.372 . S
C791 C790 1.372 . S
C791 C792 1.400 . S
C791 C796 1.490 . S
C792 H782 0.930 . S
C792 C791 1.400 . S
C792 C795 1.386 . S
H793 C809 0.930 . S
H794 C810 0.931 . S
C795 H783 0.929 . S
C795 C789 1.390 . S
C795 C792 1.386 . S
C796 C791 1.490 . S
C796 C798 1.395 . S
C796 C799 1.403 . S
H797 C803 0.930 . S
C798 H784 0.930 . S
C798 C796 1.395 . S
C798 C801 1.403 . S
C799 C796 1.403 . S
C799 C800 1.524 . S
C799 C803 1.400 . S
C800 H785 0.960 . S
C800 H786 0.960 . S
C800 H787 0.960 . S
C800 C799 1.524 . S
C801 C798 1.403 . S
C801 C802 1.392 . S
C801 C805 1.495 . S
C802 C801 1.392 . S
C802 C803 1.385 . S
C802 C804 1.478 . S
C803 H797 0.930 . S
C803 C799 1.400 . S
C803 C802 1.385 . S
C804 C802 1.478 . S
C804 C806 1.381 1_556 S
C804 C810 1.383 . S
C805 C801 1.495 . S
C805 H811 0.959 . S
C805 H812 0.961 . S
C805 H813 0.960 . S
C806 C804 1.381 1_554 S
C806 C807 1.394 . S
C806 H814 0.930 1_554 S
C807 C806 1.394 . S
C807 C808 1.383 . S
C807 H815 0.929 . S
C808 C807 1.383 . S
C808 C809 1.377 . S
C809 H793 0.930 . S
C809 C808 1.377 . S
C809 C810 1.379 1_554 S
C810 H794 0.931 . S
C810 C804 1.383 . S
C810 C809 1.379 1_556 S
H811 C805 0.959 . S
H812 C805 0.961 . S
H813 C805 0.960 . S
H814 C806 0.930 1_556 S
H815 C807 0.929 . S
H816 C824 0.929 . S
H817 C826 0.930 . S
H818 C828 0.930 . S
H819 C831 0.929 . S
H820 C834 0.930 . S
H821 C836 0.960 . S
H822 C836 0.960 . S
H823 C836 0.960 . S
C824 H816 0.929 . S
C824 C825 1.377 . S
C824 C826 1.384 . S
C825 C824 1.377 . S
C825 C831 1.390 . S
C826 H817 0.930 . S
C826 C824 1.384 . S
C826 C827 1.372 . S
C827 C826 1.372 . S
C827 C828 1.400 . S
C827 C832 1.490 . S
C828 H818 0.930 . S
C828 C827 1.400 . S
C828 C831 1.386 . S
H829 C845 0.930 . S
H830 C846 0.931 . S
C831 H819 0.929 . S
C831 C825 1.390 . S
C831 C828 1.386 . S
C832 C827 1.490 . S
C832 C834 1.395 . S
C832 C835 1.403 . S
H833 C839 0.930 . S
C834 H820 0.930 . S
C834 C832 1.395 . S
C834 C837 1.403 . S
C835 C832 1.403 . S
C835 C836 1.524 . S
C835 C839 1.400 . S
C836 H821 0.960 . S
C836 H822 0.960 . S
C836 H823 0.960 . S
C836 C835 1.524 . S
C837 C834 1.403 . S
C837 C838 1.392 . S
C837 C841 1.495 . S
C838 C837 1.392 . S
C838 C839 1.385 . S
C838 C840 1.478 1_554 S
C839 H833 0.930 . S
C839 C835 1.400 . S
C839 C838 1.385 . S
C840 C838 1.478 1_556 S
C840 C842 1.381 . S
C840 C846 1.383 . S
C841 C837 1.495 . S
C841 H847 0.959 . S
C841 H848 0.950 1_554 S
C841 H849 0.960 1_554 S
C842 C840 1.381 . S
C842 C843 1.394 . S
C842 H850 0.930 . S
C843 C842 1.394 . S
C843 C844 1.383 . S
C843 H851 0.929 . S
C844 C843 1.383 . S
C844 C845 1.377 . S
C845 H829 0.930 . S
C845 C844 1.377 . S
C845 C846 1.379 . S
C846 H830 0.931 . S
C846 C840 1.383 . S
C846 C845 1.379 . S
H847 C841 0.959 . S
H848 C841 0.950 1_556 S
H849 C841 0.960 1_556 S
H850 C842 0.930 . S
H851 C843 0.929 . S
H852 C860 0.929 . S
H853 C862 0.930 . S
H854 C864 0.930 . S
H855 C867 0.929 . S
H856 C870 0.930 . S
H857 C872 0.960 . S
H858 C872 0.960 . S
H859 C872 0.960 . S
C860 H852 0.929 . S
C860 C861 1.377 . S
C860 C862 1.384 . S
C861 C860 1.377 . S
C861 C867 1.390 . S
C862 H853 0.930 . S
C862 C860 1.384 . S
C862 C863 1.372 . S
C863 C862 1.372 . S
C863 C864 1.400 . S
C863 C868 1.490 . S
C864 H854 0.930 . S
C864 C863 1.400 . S
C864 C867 1.386 . S
H865 C881 0.930 . S
H866 C882 0.931 . S
C867 H855 0.929 . S
C867 C861 1.390 . S
C867 C864 1.386 . S
C868 C863 1.490 . S
C868 C870 1.395 . S
C868 C871 1.403 . S
H869 C875 0.930 . S
C870 H856 0.930 . S
C870 C868 1.395 . S
C870 C873 1.403 . S
C871 C868 1.403 . S
C871 C872 1.524 . S
C871 C875 1.400 . S
C872 H857 0.960 . S
C872 H858 0.960 . S
C872 H859 0.960 . S
C872 C871 1.524 . S
C873 C870 1.403 . S
C873 C874 1.392 . S
C873 C877 1.495 . S
C874 C873 1.392 . S
C874 C875 1.385 . S
C874 C876 1.478 . S
C875 H869 0.930 . S
C875 C871 1.400 . S
C875 C874 1.385 . S
C876 C874 1.478 . S
C876 C878 1.381 . S
C876 C882 1.383 . S
C877 C873 1.495 . S
C877 H883 0.959 . S
C877 H884 0.961 . S
C877 H885 0.960 . S
C878 C876 1.381 . S
C878 C879 1.394 . S
C878 H886 0.930 . S
C879 C878 1.394 . S
C879 C880 1.383 . S
C879 H887 0.929 . S
C880 C879 1.383 . S
C880 C881 1.377 . S
C881 H865 0.930 . S
C881 C880 1.377 . S
C881 C882 1.379 . S
C882 H866 0.931 . S
C882 C876 1.383 . S
C882 C881 1.379 . S
H883 C877 0.959 . S
H884 C877 0.961 . S
H885 C877 0.960 . S
H886 C878 0.930 . S
H887 C879 0.929 . S
H888 C896 0.929 . S
H889 C898 0.930 . S
H890 C900 0.930 . S
H891 C903 0.929 . S
H892 C906 0.930 . S
H893 C908 0.960 . S
H894 C908 0.960 . S
H895 C908 0.960 . S
C896 H888 0.929 . S
C896 C897 1.377 . S
C896 C898 1.384 . S
C897 C896 1.377 . S
C897 C903 1.390 . S
C898 H889 0.930 . S
C898 C896 1.384 . S
C898 C899 1.372 . S
C899 C898 1.372 . S
C899 C900 1.400 . S
C899 C904 1.490 . S
C900 H890 0.930 . S
C900 C899 1.400 . S
C900 C903 1.386 . S
H901 C917 0.930 . S
H902 C918 0.931 . S
C903 H891 0.929 . S
C903 C897 1.390 . S
C903 C900 1.386 . S
C904 C899 1.490 . S
C904 C906 1.395 . S
C904 C907 1.403 . S
H905 C911 0.930 . S
C906 H892 0.930 . S
C906 C904 1.395 . S
C906 C909 1.403 . S
C907 C904 1.403 . S
C907 C908 1.524 . S
C907 C911 1.400 . S
C908 H893 0.960 . S
C908 H894 0.960 . S
C908 H895 0.960 . S
C908 C907 1.524 . S
C909 C906 1.403 . S
C909 C910 1.392 . S
C909 C913 1.495 . S
C910 C909 1.392 . S
C910 C911 1.385 . S
C910 C912 1.478 . S
C911 H905 0.930 . S
C911 C907 1.400 . S
C911 C910 1.385 . S
C912 C910 1.478 . S
C912 C914 1.381 . S
C912 C918 1.383 . S
C913 C909 1.495 . S
C913 H919 0.959 . S
C913 H920 0.961 . S
C913 H921 0.960 . S
C914 C912 1.381 . S
C914 C915 1.394 . S
C914 H922 0.930 . S
C915 C914 1.394 . S
C915 C916 1.383 . S
C915 H923 0.929 . S
C916 C915 1.383 . S
C916 C917 1.377 . S
C917 H901 0.930 . S
C917 C916 1.377 . S
C917 C918 1.379 . S
C918 H902 0.931 . S
C918 C912 1.383 . S
C918 C917 1.379 . S
H919 C913 0.959 . S
H920 C913 0.961 . S
H921 C913 0.960 . S
H922 C914 0.930 . S
H923 C915 0.929 . S
H924 C932 0.929 . S
H925 C934 0.930 . S
H926 C936 0.930 . S
H927 C939 0.929 . S
H928 C942 0.930 . S
H929 C944 0.960 . S
H930 C944 0.960 . S
H931 C944 0.960 . S
C932 H924 0.929 . S
C932 C933 1.377 . S
C932 C934 1.384 . S
C933 C932 1.377 . S
C933 C939 1.390 . S
C934 H925 0.930 . S
C934 C932 1.384 . S
C934 C935 1.372 . S
C935 C934 1.372 . S
C935 C936 1.400 . S
C935 C940 1.490 . S
C936 H926 0.930 . S
C936 C935 1.400 . S
C936 C939 1.386 . S
H937 C953 0.930 . S
H938 C954 0.931 . S
C939 H927 0.929 . S
C939 C933 1.390 . S
C939 C936 1.386 . S
C940 C935 1.490 . S
C940 C942 1.395 . S
C940 C943 1.403 . S
H941 C947 0.930 . S
C942 H928 0.930 . S
C942 C940 1.395 . S
C942 C945 1.403 . S
C943 C940 1.403 . S
C943 C944 1.524 . S
C943 C947 1.400 . S
C944 H929 0.960 . S
C944 H930 0.960 . S
C944 H931 0.960 . S
C944 C943 1.524 . S
C945 C942 1.403 . S
C945 C946 1.392 . S
C945 C949 1.495 . S
C946 C945 1.392 . S
C946 C947 1.385 . S
C946 C948 1.478 . S
C947 H941 0.930 . S
C947 C943 1.400 . S
C947 C946 1.385 . S
C948 C946 1.478 . S
C948 C950 1.381 . S
C948 C954 1.383 . S
C949 C945 1.495 . S
C949 H955 0.959 . S
C949 H956 0.961 . S
C949 H957 0.960 . S
C950 C948 1.381 . S
C950 C951 1.394 . S
C950 H958 0.930 . S
C951 C950 1.394 . S
C951 C952 1.383 1_556 S
C951 H959 0.929 . S
C952 C951 1.383 1_554 S
C952 C953 1.377 1_554 S
C953 H937 0.930 . S
C953 C952 1.377 1_556 S
C953 C954 1.379 . S
C954 H938 0.931 . S
C954 C948 1.383 . S
C954 C953 1.379 . S
H955 C949 0.959 . S
H956 C949 0.961 . S
H957 C949 0.960 . S
H958 C950 0.930 . S
H959 C951 0.929 . S
H960 C968 0.929 . S
H961 C970 0.930 . S
H962 C972 0.930 . S
H963 C975 0.929 . S
H964 C978 0.930 . S
H965 C980 0.960 . S
H966 C980 0.960 . S
H967 C980 0.960 . S
C968 H960 0.929 . S
C968 C969 1.377 . S
C968 C970 1.384 . S
C969 C968 1.377 . S
C969 C975 1.390 . S
C970 H961 0.930 . S
C970 C968 1.384 . S
C970 C971 1.372 . S
C971 C970 1.372 . S
C971 C972 1.400 . S
C971 C976 1.490 . S
C972 H962 0.930 . S
C972 C971 1.400 . S
C972 C975 1.386 . S
H973 C989 0.930 . S
H974 C990 0.931 . S
C975 H963 0.929 . S
C975 C969 1.390 . S
C975 C972 1.386 . S
C976 C971 1.490 . S
C976 C978 1.395 . S
C976 C979 1.403 . S
H977 C983 0.930 . S
C978 H964 0.930 . S
C978 C976 1.395 . S
C978 C981 1.403 1_556 S
C979 C976 1.403 . S
C979 C980 1.524 . S
C979 C983 1.400 1_556 S
C980 H965 0.960 . S
C980 H966 0.960 . S
C980 H967 0.960 . S
C980 C979 1.524 . S
C981 C978 1.403 1_554 S
C981 C982 1.392 . S
C981 C985 1.495 . S
C982 C981 1.392 . S
C982 C983 1.385 . S
C982 C984 1.478 . S
C983 H977 0.930 . S
C983 C979 1.400 1_554 S
C983 C982 1.385 . S
C984 C982 1.478 . S
C984 C986 1.381 . S
C984 C990 1.383 . S
C985 C981 1.495 . S
C985 H991 0.959 . S
C985 H992 0.961 . S
C985 H993 0.960 . S
C986 C984 1.381 . S
C986 C987 1.394 . S
C986 H994 0.930 . S
C987 C986 1.394 . S
C987 C988 1.383 . S
C987 H995 0.929 . S
C988 C987 1.383 . S
C988 C989 1.377 . S
C989 H973 0.930 . S
C989 C988 1.377 . S
C989 C990 1.379 . S
C990 H974 0.931 . S
C990 C984 1.383 . S
C990 C989 1.379 . S
H991 C985 0.959 . S
H992 C985 0.961 . S
H993 C985 0.960 . S
H994 C986 0.930 . S
H995 C987 0.929 . S
H996 C1004 0.928 1_554 S
H997 C1006 0.930 . S
H998 C1008 0.930 . S
H999 C1011 0.929 . S
H1000 C1014 0.930 . S
H1001 C1016 0.960 . S
H1002 C1016 0.960 . S
H1003 C1016 0.960 . S
C1004 H996 0.928 1_556 S
C1004 C1005 1.377 1_556 S
C1004 C1006 1.384 . S
C1005 C1004 1.377 1_554 S
C1005 C1011 1.390 1_554 S
C1006 H997 0.930 . S
C1006 C1004 1.384 . S
C1006 C1007 1.372 . S
C1007 C1006 1.372 . S
C1007 C1008 1.400 . S
C1007 C1012 1.490 . S
C1008 H998 0.930 . S
C1008 C1007 1.400 . S
C1008 C1011 1.386 . S
H1009 C1025 0.930 . S
H1010 C1026 0.931 . S
C1011 H999 0.929 . S
C1011 C1005 1.390 1_556 S
C1011 C1008 1.386 . S
C1012 C1007 1.490 . S
C1012 C1014 1.395 . S
C1012 C1015 1.403 . S
H1013 C1019 0.930 . S
C1014 H1000 0.930 . S
C1014 C1012 1.395 . S
C1014 C1017 1.403 . S
C1015 C1012 1.403 . S
C1015 C1016 1.524 . S
C1015 C1019 1.400 . S
C1016 H1001 0.960 . S
C1016 H1002 0.960 . S
C1016 H1003 0.960 . S
C1016 C1015 1.524 . S
C1017 C1014 1.403 . S
C1017 C1018 1.392 . S
C1017 C1021 1.495 . S
C1018 C1017 1.392 . S
C1018 C1019 1.385 . S
C1018 C1020 1.478 . S
C1019 H1013 0.930 . S
C1019 C1015 1.400 . S
C1019 C1018 1.385 . S
C1020 C1018 1.478 . S
C1020 C1022 1.381 . S
C1020 C1026 1.383 . S
C1021 C1017 1.495 . S
C1021 H1027 0.959 . S
C1021 H1028 0.961 . S
C1021 H1029 0.960 . S
C1022 C1020 1.381 . S
C1022 C1023 1.394 . S
C1022 H1030 0.930 . S
C1023 C1022 1.394 . S
C1023 C1024 1.383 . S
C1023 H1031 0.929 . S
C1024 C1023 1.383 . S
C1024 C1025 1.377 . S
C1025 H1009 0.930 . S
C1025 C1024 1.377 . S
C1025 C1026 1.379 . S
C1026 H1010 0.931 . S
C1026 C1020 1.383 . S
C1026 C1025 1.379 . S
H1027 C1021 0.959 . S
H1028 C1021 0.961 . S
H1029 C1021 0.960 . S
H1030 C1022 0.930 . S
H1031 C1023 0.929 . S
H1032 C1040 0.929 . S
H1033 C1042 0.930 . S
H1034 C1044 0.930 . S
H1035 C1047 0.929 . S
H1036 C1050 0.930 . S
H1037 C1052 0.960 . S
H1038 C1052 0.960 . S
H1039 C1052 0.960 . S
C1040 H1032 0.929 . S
C1040 C1041 1.377 . S
C1040 C1042 1.384 . S
C1041 C1040 1.377 . S
C1041 C1047 1.390 . S
C1042 H1033 0.930 . S
C1042 C1040 1.384 . S
C1042 C1043 1.372 . S
C1043 C1042 1.372 . S
C1043 C1044 1.400 . S
C1043 C1048 1.490 . S
C1044 H1034 0.930 . S
C1044 C1043 1.400 . S
C1044 C1047 1.386 . S
H1045 C1061 0.930 . S
H1046 C1062 0.931 . S
C1047 H1035 0.929 . S
C1047 C1041 1.390 . S
C1047 C1044 1.386 . S
C1048 C1043 1.490 . S
C1048 C1050 1.395 . S
C1048 C1051 1.403 . S
H1049 C1055 0.930 . S
C1050 H1036 0.930 . S
C1050 C1048 1.395 . S
C1050 C1053 1.403 . S
C1051 C1048 1.403 . S
C1051 C1052 1.524 . S
C1051 C1055 1.400 . S
C1052 H1037 0.960 . S
C1052 H1038 0.960 . S
C1052 H1039 0.960 . S
C1052 C1051 1.524 . S
C1053 C1050 1.403 . S
C1053 C1054 1.392 . S
C1053 C1057 1.495 . S
C1054 C1053 1.392 . S
C1054 C1055 1.385 . S
C1054 C1056 1.478 . S
C1055 H1049 0.930 . S
C1055 C1051 1.400 . S
C1055 C1054 1.385 . S
C1056 C1054 1.478 . S
C1056 C1058 1.381 . S
C1056 C1062 1.383 . S
C1057 C1053 1.495 . S
C1057 H1063 0.959 . S
C1057 H1064 0.961 . S
C1057 H1065 0.960 . S
C1058 C1056 1.381 . S
C1058 C1059 1.394 . S
C1058 H1066 0.930 . S
C1059 C1058 1.394 . S
C1059 C1060 1.383 . S
C1059 H1067 0.929 . S
C1060 C1059 1.383 . S
C1060 C1061 1.377 . S
C1061 H1045 0.930 . S
C1061 C1060 1.377 . S
C1061 C1062 1.379 . S
C1062 H1046 0.931 . S
C1062 C1056 1.383 . S
C1062 C1061 1.379 . S
H1063 C1057 0.959 . S
H1064 C1057 0.961 . S
H1065 C1057 0.960 . S
H1066 C1058 0.930 . S
H1067 C1059 0.929 . S
H1068 C1076 0.929 . S
H1069 C1078 0.930 . S
H1070 C1080 0.930 . S
H1071 C1083 0.929 . S
H1072 C1086 0.930 . S
H1073 C1088 0.960 . S
H1074 C1088 0.960 . S
H1075 C1088 0.960 . S
C1076 H1068 0.929 . S
C1076 C1077 1.377 . S
C1076 C1078 1.384 . S
C1077 C1076 1.377 . S
C1077 C1083 1.390 . S
C1078 H1069 0.930 . S
C1078 C1076 1.384 . S
C1078 C1079 1.372 . S
C1079 C1078 1.372 . S
C1079 C1080 1.400 . S
C1079 C1084 1.490 . S
C1080 H1070 0.930 . S
C1080 C1079 1.400 . S
C1080 C1083 1.386 . S
H1081 C1097 0.930 . S
H1082 C1098 0.931 . S
C1083 H1071 0.929 . S
C1083 C1077 1.390 . S
C1083 C1080 1.386 . S
C1084 C1079 1.490 . S
C1084 C1086 1.395 . S
C1084 C1087 1.403 . S
H1085 C1091 0.930 . S
C1086 H1072 0.930 . S
C1086 C1084 1.395 . S
C1086 C1089 1.403 . S
C1087 C1084 1.403 . S
C1087 C1088 1.524 . S
C1087 C1091 1.400 . S
C1088 H1073 0.960 . S
C1088 H1074 0.960 . S
C1088 H1075 0.960 . S
C1088 C1087 1.524 . S
C1089 C1086 1.403 . S
C1089 C1090 1.392 . S
C1089 C1093 1.495 . S
C1090 C1089 1.392 . S
C1090 C1091 1.385 . S
C1090 C1092 1.478 . S
C1091 H1085 0.930 . S
C1091 C1087 1.400 . S
C1091 C1090 1.385 . S
C1092 C1090 1.478 . S
C1092 C1094 1.381 . S
C1092 C1098 1.383 . S
C1093 C1089 1.495 . S
C1093 H1099 0.959 . S
C1093 H1100 0.961 . S
C1093 H1101 0.960 . S
C1094 C1092 1.381 . S
C1094 C1095 1.394 . S
C1094 H1102 0.930 . S
C1095 C1094 1.394 . S
C1095 C1096 1.383 . S
C1095 H1103 0.929 . S
C1096 C1095 1.383 . S
C1096 C1097 1.377 . S
C1097 H1081 0.930 . S
C1097 C1096 1.377 . S
C1097 C1098 1.379 . S
C1098 H1082 0.931 . S
C1098 C1092 1.383 . S
C1098 C1097 1.379 . S
H1099 C1093 0.959 . S
H1100 C1093 0.961 . S
H1101 C1093 0.960 . S
H1102 C1094 0.930 . S
H1103 C1095 0.929 . S
H1104 C1112 0.929 . S
H1105 C1114 0.930 . S
H1106 C1116 0.930 . S
H1107 C1119 0.929 . S
H1108 C1122 0.930 . S
H1109 C1124 0.960 . S
H1110 C1124 0.960 . S
H1111 C1124 0.960 . S
C1112 H1104 0.929 . S
C1112 C1113 1.377 . S
C1112 C1114 1.384 . S
C1113 C1112 1.377 . S
C1113 C1119 1.390 . S
C1114 H1105 0.930 . S
C1114 C1112 1.384 . S
C1114 C1115 1.372 . S
C1115 C1114 1.372 . S
C1115 C1116 1.400 . S
C1115 C1120 1.490 . S
C1116 H1106 0.930 . S
C1116 C1115 1.400 . S
C1116 C1119 1.386 . S
H1117 C1133 0.930 . S
H1118 C1134 0.931 . S
C1119 H1107 0.929 . S
C1119 C1113 1.390 . S
C1119 C1116 1.386 . S
C1120 C1115 1.490 . S
C1120 C1122 1.395 . S
C1120 C1123 1.403 . S
H1121 C1127 0.930 . S
C1122 H1108 0.930 . S
C1122 C1120 1.395 . S
C1122 C1125 1.403 . S
C1123 C1120 1.403 . S
C1123 C1124 1.524 . S
C1123 C1127 1.400 . S
C1124 H1109 0.960 . S
C1124 H1110 0.960 . S
C1124 H1111 0.960 . S
C1124 C1123 1.524 . S
C1125 C1122 1.403 . S
C1125 C1126 1.392 . S
C1125 C1129 1.495 . S
C1126 C1125 1.392 . S
C1126 C1127 1.385 . S
C1126 C1128 1.478 . S
C1127 H1121 0.930 . S
C1127 C1123 1.400 . S
C1127 C1126 1.385 . S
C1128 C1126 1.478 . S
C1128 C1130 1.381 . S
C1128 C1134 1.383 . S
C1129 C1125 1.495 . S
C1129 H1135 0.959 . S
C1129 H1136 0.961 . S
C1129 H1137 0.960 . S
C1130 C1128 1.381 . S
C1130 C1131 1.394 . S
C1130 H1138 0.930 . S
C1131 C1130 1.394 . S
C1131 C1132 1.383 . S
C1131 H1139 0.929 . S
C1132 C1131 1.383 . S
C1132 C1133 1.377 . S
C1133 H1117 0.930 . S
C1133 C1132 1.377 . S
C1133 C1134 1.379 . S
C1134 H1118 0.931 . S
C1134 C1128 1.383 . S
C1134 C1133 1.379 . S
H1135 C1129 0.959 . S
H1136 C1129 0.961 . S
H1137 C1129 0.960 . S
H1138 C1130 0.930 . S
H1139 C1131 0.929 . S
H1140 C1148 0.929 . S
H1141 C1150 0.930 . S
H1142 C1152 0.930 . S
H1143 C1155 0.929 . S
H1144 C1158 0.930 . S
H1145 C1160 0.960 . S
H1146 C1160 0.960 . S
H1147 C1160 0.960 . S
C1148 H1140 0.929 . S
C1148 C1149 1.377 . S
C1148 C1150 1.384 . S
C1149 C1148 1.377 . S
C1149 C1155 1.390 . S
C1150 H1141 0.930 . S
C1150 C1148 1.384 . S
C1150 C1151 1.372 . S
C1151 C1150 1.372 . S
C1151 C1152 1.400 . S
C1151 C1156 1.490 . S
C1152 H1142 0.930 . S
C1152 C1151 1.400 . S
C1152 C1155 1.386 . S
H1153 C1169 0.930 . S
H1154 C1170 0.931 . S
C1155 H1143 0.929 . S
C1155 C1149 1.390 . S
C1155 C1152 1.386 . S
C1156 C1151 1.490 . S
C1156 C1158 1.395 . S
C1156 C1159 1.403 . S
H1157 C1163 0.930 . S
C1158 H1144 0.930 . S
C1158 C1156 1.395 . S
C1158 C1161 1.403 . S
C1159 C1156 1.403 . S
C1159 C1160 1.524 . S
C1159 C1163 1.400 . S
C1160 H1145 0.960 . S
C1160 H1146 0.960 . S
C1160 H1147 0.960 . S
C1160 C1159 1.524 . S
C1161 C1158 1.403 . S
C1161 C1162 1.392 . S
C1161 C1165 1.495 . S
C1162 C1161 1.392 . S
C1162 C1163 1.385 . S
C1162 C1164 1.478 . S
C1163 H1157 0.930 . S
C1163 C1159 1.400 . S
C1163 C1162 1.385 . S
C1164 C1162 1.478 . S
C1164 C1166 1.381 . S
C1164 C1170 1.383 . S
C1165 C1161 1.495 . S
C1165 H1171 0.959 . S
C1165 H1172 0.961 . S
C1165 H1173 0.960 . S
C1166 C1164 1.381 . S
C1166 C1167 1.394 . S
C1166 H1174 0.930 . S
C1167 C1166 1.394 . S
C1167 C1168 1.383 . S
C1167 H1175 0.929 . S
C1168 C1167 1.383 . S
C1168 C1169 1.377 . S
C1169 H1153 0.930 . S
C1169 C1168 1.377 . S
C1169 C1170 1.379 . S
C1170 H1154 0.931 . S
C1170 C1164 1.383 . S
C1170 C1169 1.379 . S
H1171 C1165 0.959 . S
H1172 C1165 0.961 . S
H1173 C1165 0.960 . S
H1174 C1166 0.930 . S
H1175 C1167 0.929 . S
H1176 C1184 0.929 . S
H1177 C1186 0.930 . S
H1178 C1188 0.930 . S
H1179 C1191 0.929 . S
H1180 C1194 0.930 . S
H1181 C1196 0.960 . S
H1182 C1196 0.960 . S
H1183 C1196 0.960 . S
C1184 H1176 0.929 . S
C1184 C1185 1.377 . S
C1184 C1186 1.384 . S
C1185 C1184 1.377 . S
C1185 C1191 1.390 . S
C1186 H1177 0.930 . S
C1186 C1184 1.384 . S
C1186 C1187 1.372 . S
C1187 C1186 1.372 . S
C1187 C1188 1.400 . S
C1187 C1192 1.490 . S
C1188 H1178 0.930 . S
C1188 C1187 1.400 . S
C1188 C1191 1.386 . S
H1189 C1205 0.930 . S
H1190 C1206 0.931 . S
C1191 H1179 0.929 . S
C1191 C1185 1.390 . S
C1191 C1188 1.386 . S
C1192 C1187 1.490 . S
C1192 C1194 1.395 . S
C1192 C1195 1.403 . S
H1193 C1199 0.930 . S
C1194 H1180 0.930 . S
C1194 C1192 1.395 . S
C1194 C1197 1.403 . S
C1195 C1192 1.403 . S
C1195 C1196 1.524 . S
C1195 C1199 1.400 . S
C1196 H1181 0.960 . S
C1196 H1182 0.960 . S
C1196 H1183 0.960 . S
C1196 C1195 1.524 . S
C1197 C1194 1.403 . S
C1197 C1198 1.392 . S
C1197 C1201 1.495 . S
C1198 C1197 1.392 . S
C1198 C1199 1.385 . S
C1198 C1200 1.478 . S
C1199 H1193 0.930 . S
C1199 C1195 1.400 . S
C1199 C1198 1.385 . S
C1200 C1198 1.478 . S
C1200 C1202 1.381 . S
C1200 C1206 1.383 . S
C1201 C1197 1.495 . S
C1201 H1207 0.959 . S
C1201 H1208 0.961 . S
C1201 H1209 0.960 . S
C1202 C1200 1.381 . S
C1202 C1203 1.394 . S
C1202 H1210 0.930 . S
C1203 C1202 1.394 . S
C1203 C1204 1.383 . S
C1203 H1211 0.929 . S
C1204 C1203 1.383 . S
C1204 C1205 1.377 . S
C1205 H1189 0.930 . S
C1205 C1204 1.377 . S
C1205 C1206 1.379 . S
C1206 H1190 0.931 . S
C1206 C1200 1.383 . S
C1206 C1205 1.379 . S
H1207 C1201 0.959 . S
H1208 C1201 0.961 . S
H1209 C1201 0.960 . S
H1210 C1202 0.930 . S
H1211 C1203 0.929 . S
H1212 C1220 0.929 . S
H1213 C1222 0.930 . S
H1214 C1224 0.930 . S
H1215 C1227 0.929 . S
H1216 C1230 0.930 . S
H1217 C1232 0.960 . S
H1218 C1232 0.959 . S
H1219 C1232 0.960 . S
C1220 H1212 0.929 . S
C1220 C1221 1.377 . S
C1220 C1222 1.384 . S
C1221 C1220 1.377 . S
C1221 C1227 1.390 1_554 S
C1222 H1213 0.930 . S
C1222 C1220 1.384 . S
C1222 C1223 1.372 1_554 S
C1223 C1222 1.372 1_556 S
C1223 C1224 1.400 . S
C1223 C1228 1.490 . S
C1224 H1214 0.930 . S
C1224 C1223 1.400 . S
C1224 C1227 1.386 . S
H1225 C1241 0.930 . S
H1226 C1242 0.931 . S
C1227 H1215 0.929 . S
C1227 C1221 1.390 1_556 S
C1227 C1224 1.386 . S
C1228 C1223 1.490 . S
C1228 C1230 1.395 . S
C1228 C1231 1.403 . S
H1229 C1235 0.930 . S
C1230 H1216 0.930 . S
C1230 C1228 1.395 . S
C1230 C1233 1.403 . S
C1231 C1228 1.403 . S
C1231 C1232 1.524 . S
C1231 C1235 1.400 . S
C1232 H1217 0.960 . S
C1232 H1218 0.959 . S
C1232 H1219 0.960 . S
C1232 C1231 1.524 . S
C1233 C1230 1.403 . S
C1233 C1234 1.392 . S
C1233 C1237 1.495 . S
C1234 C1233 1.392 . S
C1234 C1235 1.385 . S
C1234 C1236 1.478 . S
C1235 H1229 0.930 . S
C1235 C1231 1.400 . S
C1235 C1234 1.385 . S
C1236 C1234 1.478 . S
C1236 C1238 1.381 . S
C1236 C1242 1.383 . S
C1237 C1233 1.495 . S
C1237 H1243 0.959 . S
C1237 H1244 0.961 . S
C1237 H1245 0.960 . S
C1238 C1236 1.381 . S
C1238 C1239 1.394 . S
C1238 H1246 0.930 . S
C1239 C1238 1.394 . S
C1239 C1240 1.383 . S
C1239 H1247 0.929 . S
C1240 C1239 1.383 . S
C1240 C1241 1.377 . S
C1241 H1225 0.930 . S
C1241 C1240 1.377 . S
C1241 C1242 1.379 . S
C1242 H1226 0.931 . S
C1242 C1236 1.383 . S
C1242 C1241 1.379 . S
H1243 C1237 0.959 . S
H1244 C1237 0.961 . S
H1245 C1237 0.960 . S
H1246 C1238 0.930 . S
H1247 C1239 0.929 . S
H1248 C1256 0.929 . S
H1249 C1258 0.930 . S
H1250 C1260 0.930 . S
H1251 C1263 0.929 . S
H1252 C1266 0.930 . S
H1253 C1268 0.960 . S
H1254 C1268 0.960 . S
H1255 C1268 0.960 . S
C1256 H1248 0.929 . S
C1256 C1257 1.377 . S
C1256 C1258 1.384 . S
C1257 C1256 1.377 . S
C1257 C1263 1.390 . S
C1258 H1249 0.930 . S
C1258 C1256 1.384 . S
C1258 C1259 1.372 . S
C1259 C1258 1.372 . S
C1259 C1260 1.400 . S
C1259 C1264 1.490 . S
C1260 H1250 0.930 . S
C1260 C1259 1.400 . S
C1260 C1263 1.386 . S
H1261 C1277 0.930 . S
H1262 C1278 0.931 . S
C1263 H1251 0.929 . S
C1263 C1257 1.390 . S
C1263 C1260 1.386 . S
C1264 C1259 1.490 . S
C1264 C1266 1.395 . S
C1264 C1267 1.403 . S
H1265 C1271 0.930 . S
C1266 H1252 0.930 . S
C1266 C1264 1.395 . S
C1266 C1269 1.403 . S
C1267 C1264 1.403 . S
C1267 C1268 1.524 . S
C1267 C1271 1.400 . S
C1268 H1253 0.960 . S
C1268 H1254 0.960 . S
C1268 H1255 0.960 . S
C1268 C1267 1.524 . S
C1269 C1266 1.403 . S
C1269 C1270 1.392 . S
C1269 C1273 1.495 . S
C1270 C1269 1.392 . S
C1270 C1271 1.385 . S
C1270 C1272 1.478 . S
C1271 H1265 0.930 . S
C1271 C1267 1.400 . S
C1271 C1270 1.385 . S
C1272 C1270 1.478 . S
C1272 C1274 1.381 . S
C1272 C1278 1.383 . S
C1273 C1269 1.495 . S
C1273 H1279 0.959 . S
C1273 H1280 0.961 . S
C1273 H1281 0.960 . S
C1274 C1272 1.381 . S
C1274 C1275 1.394 . S
C1274 H1282 0.923 1_556 S
C1275 C1274 1.394 . S
C1275 C1276 1.383 . S
C1275 H1283 0.929 1_556 S
C1276 C1275 1.383 . S
C1276 C1277 1.377 . S
C1277 H1261 0.930 . S
C1277 C1276 1.377 . S
C1277 C1278 1.379 . S
C1278 H1262 0.931 . S
C1278 C1272 1.383 . S
C1278 C1277 1.379 . S
H1279 C1273 0.959 . S
H1280 C1273 0.961 . S
H1281 C1273 0.960 . S
H1282 C1274 0.923 1_554 S
H1283 C1275 0.929 1_554 S
H1284 C1292 0.929 . S
H1285 C1294 0.930 . S
H1286 C1296 0.930 . S
H1287 C1299 0.929 . S
H1288 C1302 0.930 . S
H1289 C1304 0.960 . S
H1290 C1304 0.960 . S
H1291 C1304 0.960 . S
C1292 H1284 0.929 . S
C1292 C1293 1.377 . S
C1292 C1294 1.384 . S
C1293 C1292 1.377 . S
C1293 C1299 1.390 . S
C1294 H1285 0.930 . S
C1294 C1292 1.384 . S
C1294 C1295 1.372 . S
C1295 C1294 1.372 . S
C1295 C1296 1.400 . S
C1295 C1300 1.490 . S
C1296 H1286 0.930 . S
C1296 C1295 1.400 . S
C1296 C1299 1.386 . S
H1297 C1313 0.930 . S
H1298 C1314 0.931 . S
C1299 H1287 0.929 . S
C1299 C1293 1.390 . S
C1299 C1296 1.386 . S
C1300 C1295 1.490 . S
C1300 C1302 1.395 . S
C1300 C1303 1.403 . S
H1301 C1307 0.930 . S
C1302 H1288 0.930 . S
C1302 C1300 1.395 . S
C1302 C1305 1.403 . S
C1303 C1300 1.403 . S
C1303 C1304 1.524 . S
C1303 C1307 1.400 . S
C1304 H1289 0.960 . S
C1304 H1290 0.960 . S
C1304 H1291 0.960 . S
C1304 C1303 1.524 . S
C1305 C1302 1.403 . S
C1305 C1306 1.392 . S
C1305 C1309 1.495 . S
C1306 C1305 1.392 . S
C1306 C1307 1.385 . S
C1306 C1308 1.478 . S
C1307 H1301 0.930 . S
C1307 C1303 1.400 . S
C1307 C1306 1.385 . S
C1308 C1306 1.478 . S
C1308 C1310 1.381 . S
C1308 C1314 1.383 . S
C1309 C1305 1.495 . S
C1309 H1315 0.959 . S
C1309 H1316 0.961 . S
C1309 H1317 0.960 . S
C1310 C1308 1.381 . S
C1310 C1311 1.394 . S
C1310 H1318 0.930 . S
C1311 C1310 1.394 . S
C1311 C1312 1.383 . S
C1311 H1319 0.929 . S
C1312 C1311 1.383 . S
C1312 C1313 1.377 . S
C1313 H1297 0.930 . S
C1313 C1312 1.377 . S
C1313 C1314 1.379 . S
C1314 H1298 0.931 . S
C1314 C1308 1.383 . S
C1314 C1313 1.379 . S
H1315 C1309 0.959 . S
H1316 C1309 0.961 . S
H1317 C1309 0.960 . S
H1318 C1310 0.930 . S
H1319 C1311 0.929 . S
H1320 C1328 0.929 . S
H1321 C1330 0.930 . S
H1322 C1332 0.930 . S
H1323 C1335 0.929 . S
H1324 C1338 0.930 . S
H1325 C1340 0.960 . S
H1326 C1340 0.960 . S
H1327 C1340 0.960 . S
C1328 H1320 0.929 . S
C1328 C1329 1.377 . S
C1328 C1330 1.384 . S
C1329 C1328 1.377 . S
C1329 C1335 1.390 . S
C1330 H1321 0.930 . S
C1330 C1328 1.384 . S
C1330 C1331 1.372 . S
C1331 C1330 1.372 . S
C1331 C1332 1.400 . S
C1331 C1336 1.490 . S
C1332 H1322 0.930 . S
C1332 C1331 1.400 . S
C1332 C1335 1.386 . S
H1333 C1349 0.930 . S
H1334 C1350 0.931 . S
C1335 H1323 0.929 . S
C1335 C1329 1.390 . S
C1335 C1332 1.386 . S
C1336 C1331 1.490 . S
C1336 C1338 1.395 . S
C1336 C1339 1.403 . S
H1337 C1343 0.930 . S
C1338 H1324 0.930 . S
C1338 C1336 1.395 . S
C1338 C1341 1.403 . S
C1339 C1336 1.403 . S
C1339 C1340 1.524 . S
C1339 C1343 1.400 . S
C1340 H1325 0.960 . S
C1340 H1326 0.960 . S
C1340 H1327 0.960 . S
C1340 C1339 1.524 . S
C1341 C1338 1.403 . S
C1341 C1342 1.392 . S
C1341 C1345 1.495 . S
C1342 C1341 1.392 . S
C1342 C1343 1.385 . S
C1342 C1344 1.478 . S
C1343 H1337 0.930 . S
C1343 C1339 1.400 . S
C1343 C1342 1.385 . S
C1344 C1342 1.478 . S
C1344 C1346 1.381 . S
C1344 C1350 1.383 . S
C1345 C1341 1.495 . S
C1345 H1351 0.959 . S
C1345 H1352 0.961 . S
C1345 H1353 0.960 . S
C1346 C1344 1.381 . S
C1346 C1347 1.394 . S
C1346 H1354 0.930 . S
C1347 C1346 1.394 . S
C1347 C1348 1.383 . S
C1347 H1355 0.929 . S
C1348 C1347 1.383 . S
C1348 C1349 1.377 . S
C1349 H1333 0.930 . S
C1349 C1348 1.377 . S
C1349 C1350 1.379 . S
C1350 H1334 0.931 . S
C1350 C1344 1.383 . S
C1350 C1349 1.379 . S
H1351 C1345 0.959 . S
H1352 C1345 0.961 . S
H1353 C1345 0.960 . S
H1354 C1346 0.930 . S
H1355 C1347 0.929 . S
H1356 C1364 0.929 . S
H1357 C1366 0.930 . S
H1358 C1368 0.930 . S
H1359 C1371 0.929 . S
H1360 C1374 0.930 . S
H1361 C1376 0.960 . S
H1362 C1376 0.960 . S
H1363 C1376 0.960 . S
C1364 H1356 0.929 . S
C1364 C1365 1.377 . S
C1364 C1366 1.384 . S
C1365 C1364 1.377 . S
C1365 C1371 1.390 . S
C1366 H1357 0.930 . S
C1366 C1364 1.384 . S
C1366 C1367 1.372 . S
C1367 C1366 1.372 . S
C1367 C1368 1.400 . S
C1367 C1372 1.490 . S
C1368 H1358 0.930 . S
C1368 C1367 1.400 . S
C1368 C1371 1.386 . S
H1369 C1385 0.930 . S
H1370 C1386 0.931 . S
C1371 H1359 0.929 . S
C1371 C1365 1.390 . S
C1371 C1368 1.386 . S
C1372 C1367 1.490 . S
C1372 C1374 1.395 . S
C1372 C1375 1.403 . S
H1373 C1379 0.930 . S
C1374 H1360 0.930 . S
C1374 C1372 1.395 . S
C1374 C1377 1.403 . S
C1375 C1372 1.403 . S
C1375 C1376 1.524 . S
C1375 C1379 1.400 . S
C1376 H1361 0.960 . S
C1376 H1362 0.960 . S
C1376 H1363 0.960 . S
C1376 C1375 1.524 . S
C1377 C1374 1.403 . S
C1377 C1378 1.392 . S
C1377 C1381 1.495 . S
C1378 C1377 1.392 . S
C1378 C1379 1.385 . S
C1378 C1380 1.478 . S
C1379 H1373 0.930 . S
C1379 C1375 1.400 . S
C1379 C1378 1.385 . S
C1380 C1378 1.478 . S
C1380 C1382 1.381 . S
C1380 C1386 1.383 . S
C1381 C1377 1.495 . S
C1381 H1387 0.959 . S
C1381 H1388 0.961 . S
C1381 H1389 0.960 . S
C1382 C1380 1.381 . S
C1382 C1383 1.394 . S
C1382 H1390 0.930 . S
C1383 C1382 1.394 . S
C1383 C1384 1.383 . S
C1383 H1391 0.929 1_554 S
C1384 C1383 1.383 . S
C1384 C1385 1.377 . S
C1385 H1369 0.930 . S
C1385 C1384 1.377 . S
C1385 C1386 1.379 . S
C1386 H1370 0.931 . S
C1386 C1380 1.383 . S
C1386 C1385 1.379 . S
H1387 C1381 0.959 . S
H1388 C1381 0.961 . S
H1389 C1381 0.960 . S
H1390 C1382 0.930 . S
H1391 C1383 0.929 1_556 S
H1392 C1400 0.929 . S
H1393 C1402 0.930 . S
H1394 C1404 0.930 . S
H1395 C1407 0.929 . S
H1396 C1410 0.930 . S
H1397 C1412 0.960 . S
H1398 C1412 0.960 . S
H1399 C1412 0.960 . S
C1400 H1392 0.929 . S
C1400 C1401 1.377 . S
C1400 C1402 1.384 . S
C1401 C1400 1.377 . S
C1401 C1407 1.390 . S
C1402 H1393 0.930 . S
C1402 C1400 1.384 . S
C1402 C1403 1.372 . S
C1403 C1402 1.372 . S
C1403 C1404 1.400 . S
C1403 C1408 1.490 . S
C1404 H1394 0.930 . S
C1404 C1403 1.400 . S
C1404 C1407 1.386 . S
H1405 C1421 0.930 . S
H1406 C1422 0.931 . S
C1407 H1395 0.929 . S
C1407 C1401 1.390 . S
C1407 C1404 1.386 . S
C1408 C1403 1.490 . S
C1408 C1410 1.395 . S
C1408 C1411 1.403 . S
H1409 C1415 0.930 . S
C1410 H1396 0.930 . S
C1410 C1408 1.395 . S
C1410 C1413 1.403 . S
C1411 C1408 1.403 . S
C1411 C1412 1.524 . S
C1411 C1415 1.400 . S
C1412 H1397 0.960 . S
C1412 H1398 0.960 . S
C1412 H1399 0.960 . S
C1412 C1411 1.524 . S
C1413 C1410 1.403 . S
C1413 C1414 1.392 . S
C1413 C1417 1.495 . S
C1414 C1413 1.392 . S
C1414 C1415 1.385 . S
C1414 C1416 1.478 . S
C1415 H1409 0.930 . S
C1415 C1411 1.400 . S
C1415 C1414 1.385 . S
C1416 C1414 1.478 . S
C1416 C1418 1.381 . S
C1416 C1422 1.383 . S
C1417 C1413 1.495 . S
C1417 H1423 0.959 . S
C1417 H1424 0.961 . S
C1417 H1425 0.960 . S
C1418 C1416 1.381 . S
C1418 C1419 1.394 . S
C1418 H1426 0.930 . S
C1419 C1418 1.394 . S
C1419 C1420 1.383 . S
C1419 H1427 0.929 . S
C1420 C1419 1.383 . S
C1420 C1421 1.377 . S
C1421 H1405 0.930 . S
C1421 C1420 1.377 . S
C1421 C1422 1.379 . S
C1422 H1406 0.931 . S
C1422 C1416 1.383 . S
C1422 C1421 1.379 . S
H1423 C1417 0.959 . S
H1424 C1417 0.961 . S
H1425 C1417 0.960 . S
H1426 C1418 0.930 . S
H1427 C1419 0.929 . S
H1428 C1436 0.929 . S
H1429 C1438 0.930 . S
H1430 C1440 0.930 . S
H1431 C1443 0.929 . S
H1432 C1446 0.930 . S
H1433 C1448 0.960 . S
H1434 C1448 0.960 . S
H1435 C1448 0.960 . S
C1436 H1428 0.929 . S
C1436 C1437 1.377 . S
C1436 C1438 1.384 . S
C1437 C1436 1.377 . S
C1437 C1443 1.390 . S
C1438 H1429 0.930 . S
C1438 C1436 1.384 . S
C1438 C1439 1.372 . S
C1439 C1438 1.372 . S
C1439 C1440 1.400 . S
C1439 C1444 1.490 . S
C1440 H1430 0.930 . S
C1440 C1439 1.400 . S
C1440 C1443 1.386 . S
H1441 C1457 0.930 . S
H1442 C1458 0.931 . S
C1443 H1431 0.929 . S
C1443 C1437 1.390 . S
C1443 C1440 1.386 . S
C1444 C1439 1.490 . S
C1444 C1446 1.395 . S
C1444 C1447 1.403 . S
H1445 C1451 0.930 . S
C1446 H1432 0.930 . S
C1446 C1444 1.395 . S
C1446 C1449 1.403 . S
C1447 C1444 1.403 . S
C1447 C1448 1.524 . S
C1447 C1451 1.400 . S
C1448 H1433 0.960 . S
C1448 H1434 0.960 . S
C1448 H1435 0.960 . S
C1448 C1447 1.524 . S
C1449 C1446 1.403 . S
C1449 C1450 1.392 . S
C1449 C1453 1.495 . S
C1450 C1449 1.392 . S
C1450 C1451 1.385 . S
C1450 C1452 1.478 . S
C1451 H1445 0.930 . S
C1451 C1447 1.400 . S
C1451 C1450 1.385 . S
C1452 C1450 1.478 . S
C1452 C1454 1.383 1_556 S
C1452 C1458 1.383 . S
C1453 C1449 1.495 . S
C1453 H1459 0.959 . S
C1453 H1460 0.961 . S
C1453 H1461 0.960 . S
C1454 C1452 1.383 1_554 S
C1454 C1455 1.394 . S
C1454 H1462 0.929 . S
C1455 C1454 1.394 . S
C1455 C1456 1.383 1_554 S
C1455 H1463 0.929 . S
C1456 C1455 1.383 1_556 S
C1456 C1457 1.377 . S
C1457 H1441 0.930 . S
C1457 C1456 1.377 . S
C1457 C1458 1.379 . S
C1458 H1442 0.931 . S
C1458 C1452 1.383 . S
C1458 C1457 1.379 . S
H1459 C1453 0.959 . S
H1460 C1453 0.961 . S
H1461 C1453 0.960 . S
H1462 C1454 0.929 . S
H1463 C1455 0.929 . S
H1464 C1472 0.929 . S
H1465 C1474 0.924 1_556 S
H1466 C1476 0.930 . S
H1467 C1479 0.929 . S
H1468 C1482 0.930 . S
H1469 C1484 0.960 . S
H1470 C1484 0.960 . S
H1471 C1484 0.960 . S
C1472 H1464 0.929 . S
C1472 C1473 1.377 1_556 S
C1472 C1474 1.384 1_556 S
C1473 C1472 1.377 1_554 S
C1473 C1479 1.390 . S
C1474 H1465 0.924 1_554 S
C1474 C1472 1.384 1_554 S
C1474 C1475 1.372 . S
C1475 C1474 1.372 . S
C1475 C1476 1.400 . S
C1475 C1480 1.490 . S
C1476 H1466 0.930 . S
C1476 C1475 1.400 . S
C1476 C1479 1.386 . S
H1477 C1493 0.930 . S
H1478 C1494 0.931 . S
C1479 H1467 0.929 . S
C1479 C1473 1.390 . S
C1479 C1476 1.386 . S
C1480 C1475 1.490 . S
C1480 C1482 1.395 . S
C1480 C1483 1.403 . S
H1481 C1487 0.930 . S
C1482 H1468 0.930 . S
C1482 C1480 1.395 . S
C1482 C1485 1.403 . S
C1483 C1480 1.403 . S
C1483 C1484 1.524 . S
C1483 C1487 1.400 . S
C1484 H1469 0.960 . S
C1484 H1470 0.960 . S
C1484 H1471 0.960 . S
C1484 C1483 1.524 . S
C1485 C1482 1.403 . S
C1485 C1486 1.392 . S
C1485 C1489 1.495 . S
C1486 C1485 1.392 . S
C1486 C1487 1.385 . S
C1486 C1488 1.478 . S
C1487 H1481 0.930 . S
C1487 C1483 1.400 . S
C1487 C1486 1.385 . S
C1488 C1486 1.478 . S
C1488 C1490 1.381 . S
C1488 C1494 1.383 . S
C1489 C1485 1.495 . S
C1489 H1495 0.959 . S
C1489 H1496 0.961 . S
C1489 H1497 0.960 . S
C1490 C1488 1.381 . S
C1490 C1491 1.394 . S
C1490 H1498 0.930 . S
C1491 C1490 1.394 . S
C1491 C1492 1.383 . S
C1491 H1499 0.929 . S
C1492 C1491 1.383 . S
C1492 C1493 1.377 . S
C1493 H1477 0.930 . S
C1493 C1492 1.377 . S
C1493 C1494 1.379 . S
C1494 H1478 0.931 . S
C1494 C1488 1.383 . S
C1494 C1493 1.379 . S
H1495 C1489 0.959 . S
H1496 C1489 0.961 . S
H1497 C1489 0.960 . S
H1498 C1490 0.930 . S
H1499 C1491 0.929 . S
H1500 C1508 0.929 . S
H1501 C1510 0.930 . S
H1502 C1512 0.930 . S
H1503 C1515 0.929 . S
H1504 C1518 0.930 . S
H1505 C1520 0.960 . S
H1506 C1520 0.960 . S
H1507 C1520 0.960 . S
C1508 H1500 0.929 . S
C1508 C1509 1.377 . S
C1508 C1510 1.384 . S
C1509 C1508 1.377 . S
C1509 C1515 1.390 . S
C1510 H1501 0.930 . S
C1510 C1508 1.384 . S
C1510 C1511 1.372 . S
C1511 C1510 1.372 . S
C1511 C1512 1.400 . S
C1511 C1516 1.490 . S
C1512 H1502 0.930 . S
C1512 C1511 1.400 . S
C1512 C1515 1.386 . S
H1513 C1529 0.930 . S
H1514 C1530 0.931 . S
C1515 H1503 0.929 . S
C1515 C1509 1.390 . S
C1515 C1512 1.386 . S
C1516 C1511 1.490 . S
C1516 C1518 1.395 . S
C1516 C1519 1.403 . S
H1517 C1523 0.930 . S
C1518 H1504 0.930 . S
C1518 C1516 1.395 . S
C1518 C1521 1.403 . S
C1519 C1516 1.403 . S
C1519 C1520 1.524 . S
C1519 C1523 1.400 . S
C1520 H1505 0.960 . S
C1520 H1506 0.960 . S
C1520 H1507 0.960 . S
C1520 C1519 1.524 . S
C1521 C1518 1.403 . S
C1521 C1522 1.392 . S
C1521 C1525 1.495 . S
C1522 C1521 1.392 . S
C1522 C1523 1.385 . S
C1522 C1524 1.478 . S
C1523 H1517 0.930 . S
C1523 C1519 1.400 . S
C1523 C1522 1.385 . S
C1524 C1522 1.478 . S
C1524 C1526 1.381 . S
C1524 C1530 1.383 . S
C1525 C1521 1.495 . S
C1525 H1531 0.959 . S
C1525 H1532 0.961 . S
C1525 H1533 0.960 . S
C1526 C1524 1.381 . S
C1526 C1527 1.394 . S
C1526 H1534 0.930 . S
C1527 C1526 1.394 . S
C1527 C1528 1.383 . S
C1527 H1535 0.929 . S
C1528 C1527 1.383 . S
C1528 C1529 1.377 . S
C1529 H1513 0.930 . S
C1529 C1528 1.377 . S
C1529 C1530 1.379 . S
C1530 H1514 0.931 . S
C1530 C1524 1.383 . S
C1530 C1529 1.379 . S
H1531 C1525 0.959 . S
H1532 C1525 0.961 . S
H1533 C1525 0.960 . S
H1534 C1526 0.930 . S
H1535 C1527 0.929 . S
H1536 C1544 0.929 . S
H1537 C1546 0.930 . S
H1538 C1548 0.930 . S
H1539 C1551 0.929 . S
H1540 C1554 0.930 . S
H1541 C1556 0.960 . S
H1542 C1556 0.960 . S
H1543 C1556 0.960 . S
C1544 H1536 0.929 . S
C1544 C1545 1.377 . S
C1544 C1546 1.384 . S
C1545 C1544 1.377 . S
C1545 C1551 1.390 . S
C1546 H1537 0.930 . S
C1546 C1544 1.384 . S
C1546 C1547 1.372 . S
C1547 C1546 1.372 . S
C1547 C1548 1.400 . S
C1547 C1552 1.490 . S
C1548 H1538 0.930 . S
C1548 C1547 1.400 . S
C1548 C1551 1.386 . S
H1549 C1565 0.930 . S
H1550 C1566 0.931 . S
C1551 H1539 0.929 . S
C1551 C1545 1.390 . S
C1551 C1548 1.386 . S
C1552 C1547 1.490 . S
C1552 C1554 1.395 . S
C1552 C1555 1.403 . S
H1553 C1559 0.930 . S
C1554 H1540 0.930 . S
C1554 C1552 1.395 . S
C1554 C1557 1.403 . S
C1555 C1552 1.403 . S
C1555 C1556 1.524 . S
C1555 C1559 1.400 . S
C1556 H1541 0.960 . S
C1556 H1542 0.960 . S
C1556 H1543 0.960 . S
C1556 C1555 1.524 . S
C1557 C1554 1.403 . S
C1557 C1558 1.392 . S
C1557 C1561 1.495 . S
C1558 C1557 1.392 . S
C1558 C1559 1.385 . S
C1558 C1560 1.478 . S
C1559 H1553 0.930 . S
C1559 C1555 1.400 . S
C1559 C1558 1.385 . S
C1560 C1558 1.478 . S
C1560 C1562 1.381 . S
C1560 C1566 1.383 . S
C1561 C1557 1.495 . S
C1561 H1567 0.959 . S
C1561 H1568 0.961 . S
C1561 H1569 0.960 . S
C1562 C1560 1.381 . S
C1562 C1563 1.394 . S
C1562 H1570 0.930 . S
C1563 C1562 1.394 . S
C1563 C1564 1.383 . S
C1563 H1571 0.929 . S
C1564 C1563 1.383 . S
C1564 C1565 1.377 . S
C1565 H1549 0.930 . S
C1565 C1564 1.377 . S
C1565 C1566 1.379 . S
C1566 H1550 0.931 . S
C1566 C1560 1.383 . S
C1566 C1565 1.379 . S
H1567 C1561 0.959 . S
H1568 C1561 0.961 . S
H1569 C1561 0.960 . S
H1570 C1562 0.930 . S
H1571 C1563 0.929 . S
H1572 C1580 0.929 . S
H1573 C1582 0.930 . S
H1574 C1584 0.930 . S
H1575 C1587 0.929 . S
H1576 C1590 0.930 . S
H1577 C1592 0.960 . S
H1578 C1592 0.960 . S
H1579 C1592 0.960 . S
C1580 H1572 0.929 . S
C1580 C1581 1.377 . S
C1580 C1582 1.384 . S
C1581 C1580 1.377 . S
C1581 C1587 1.390 . S
C1582 H1573 0.930 . S
C1582 C1580 1.384 . S
C1582 C1583 1.372 . S
C1583 C1582 1.372 . S
C1583 C1584 1.400 . S
C1583 C1588 1.490 . S
C1584 H1574 0.930 . S
C1584 C1583 1.400 . S
C1584 C1587 1.386 . S
H1585 C1601 0.930 . S
H1586 C1602 0.931 . S
C1587 H1575 0.929 . S
C1587 C1581 1.390 . S
C1587 C1584 1.386 . S
C1588 C1583 1.490 . S
C1588 C1590 1.395 . S
C1588 C1591 1.403 . S
H1589 C1595 0.930 . S
C1590 H1576 0.930 . S
C1590 C1588 1.395 . S
C1590 C1593 1.403 . S
C1591 C1588 1.403 . S
C1591 C1592 1.524 . S
C1591 C1595 1.400 . S
C1592 H1577 0.960 . S
C1592 H1578 0.960 . S
C1592 H1579 0.960 . S
C1592 C1591 1.524 . S
C1593 C1590 1.403 . S
C1593 C1594 1.392 . S
C1593 C1597 1.495 . S
C1594 C1593 1.392 . S
C1594 C1595 1.385 . S
C1594 C1596 1.478 . S
C1595 H1589 0.930 . S
C1595 C1591 1.400 . S
C1595 C1594 1.385 . S
C1596 C1594 1.478 . S
C1596 C1598 1.381 . S
C1596 C1602 1.383 . S
C1597 C1593 1.495 . S
C1597 H1603 0.959 . S
C1597 H1604 0.961 . S
C1597 H1605 0.960 . S
C1598 C1596 1.381 . S
C1598 C1599 1.394 . S
C1598 H1606 0.930 . S
C1599 C1598 1.394 . S
C1599 C1600 1.383 . S
C1599 H1607 0.929 . S
C1600 C1599 1.383 . S
C1600 C1601 1.377 . S
C1601 H1585 0.930 . S
C1601 C1600 1.377 . S
C1601 C1602 1.379 . S
C1602 H1586 0.931 . S
C1602 C1596 1.383 . S
C1602 C1601 1.379 . S
H1603 C1597 0.959 . S
H1604 C1597 0.961 . S
H1605 C1597 0.960 . S
H1606 C1598 0.930 . S
H1607 C1599 0.929 . S
H1608 C1616 0.929 . S
H1609 C1618 0.930 . S
H1610 C1620 0.930 . S
H1611 C1623 0.929 . S
H1612 C1626 0.930 . S
H1613 C1628 0.960 . S
H1614 C1628 0.960 . S
H1615 C1628 0.960 . S
C1616 H1608 0.929 . S
C1616 C1617 1.377 . S
C1616 C1618 1.384 . S
C1617 C1616 1.377 . S
C1617 C1623 1.390 . S
C1618 H1609 0.930 . S
C1618 C1616 1.384 . S
C1618 C1619 1.372 . S
C1619 C1618 1.372 . S
C1619 C1620 1.400 . S
C1619 C1624 1.490 . S
C1620 H1610 0.930 . S
C1620 C1619 1.400 . S
C1620 C1623 1.386 . S
H1621 C1637 0.930 . S
H1622 C1638 0.931 . S
C1623 H1611 0.929 . S
C1623 C1617 1.390 . S
C1623 C1620 1.386 . S
C1624 C1619 1.490 . S
C1624 C1626 1.395 1_556 S
C1624 C1627 1.403 . S
H1625 C1631 0.930 . S
C1626 H1612 0.930 . S
C1626 C1624 1.395 1_554 S
C1626 C1629 1.403 . S
C1627 C1624 1.403 . S
C1627 C1628 1.524 . S
C1627 C1631 1.400 . S
C1628 H1613 0.960 . S
C1628 H1614 0.960 . S
C1628 H1615 0.960 . S
C1628 C1627 1.524 . S
C1629 C1626 1.403 . S
C1629 C1630 1.392 1_554 S
C1629 C1633 1.495 . S
C1630 C1629 1.392 1_556 S
C1630 C1631 1.385 . S
C1630 C1632 1.478 1_556 S
C1631 H1625 0.930 . S
C1631 C1627 1.400 . S
C1631 C1630 1.385 . S
C1632 C1630 1.478 1_554 S
C1632 C1634 1.381 . S
C1632 C1638 1.383 . S
C1633 C1629 1.495 . S
C1633 H1639 0.959 . S
C1633 H1640 0.961 . S
C1633 H1641 0.960 . S
C1634 C1632 1.381 . S
C1634 C1635 1.394 . S
C1634 H1642 0.930 . S
C1635 C1634 1.394 . S
C1635 C1636 1.383 . S
C1635 H1643 0.929 . S
C1636 C1635 1.383 . S
C1636 C1637 1.377 . S
C1637 H1621 0.930 . S
C1637 C1636 1.377 . S
C1637 C1638 1.379 . S
C1638 H1622 0.931 . S
C1638 C1632 1.383 . S
C1638 C1637 1.379 . S
H1639 C1633 0.959 . S
H1640 C1633 0.961 . S
H1641 C1633 0.960 . S
H1642 C1634 0.930 . S
H1643 C1635 0.929 . S
H1644 C1652 0.929 . S
H1645 C1654 0.930 . S
H1646 C1656 0.930 . S
H1647 C1659 0.929 . S
H1648 C1662 0.930 . S
H1649 C1664 0.960 . S
H1650 C1664 0.960 . S
H1651 C1664 0.960 . S
C1652 H1644 0.929 . S
C1652 C1653 1.377 . S
C1652 C1654 1.384 . S
C1653 C1652 1.377 . S
C1653 C1659 1.390 . S
C1654 H1645 0.930 . S
C1654 C1652 1.384 . S
C1654 C1655 1.372 . S
C1655 C1654 1.372 . S
C1655 C1656 1.400 . S
C1655 C1660 1.490 . S
C1656 H1646 0.930 . S
C1656 C1655 1.400 . S
C1656 C1659 1.386 . S
H1657 C1673 0.930 . S
H1658 C1674 0.931 . S
C1659 H1647 0.929 . S
C1659 C1653 1.390 . S
C1659 C1656 1.386 . S
C1660 C1655 1.490 . S
C1660 C1662 1.395 . S
C1660 C1663 1.403 . S
H1661 C1667 0.930 . S
C1662 H1648 0.930 . S
C1662 C1660 1.395 . S
C1662 C1665 1.403 . S
C1663 C1660 1.403 . S
C1663 C1664 1.524 . S
C1663 C1667 1.400 . S
C1664 H1649 0.960 . S
C1664 H1650 0.960 . S
C1664 H1651 0.960 . S
C1664 C1663 1.524 . S
C1665 C1662 1.403 . S
C1665 C1666 1.392 . S
C1665 C1669 1.495 . S
C1666 C1665 1.392 . S
C1666 C1667 1.385 . S
C1666 C1668 1.478 . S
C1667 H1661 0.930 . S
C1667 C1663 1.400 . S
C1667 C1666 1.385 . S
C1668 C1666 1.478 . S
C1668 C1670 1.381 . S
C1668 C1674 1.383 . S
C1669 C1665 1.495 . S
C1669 H1675 0.959 . S
C1669 H1676 0.961 . S
C1669 H1677 0.960 . S
C1670 C1668 1.381 . S
C1670 C1671 1.394 . S
C1670 H1678 0.930 . S
C1671 C1670 1.394 . S
C1671 C1672 1.383 . S
C1671 H1679 0.929 . S
C1672 C1671 1.383 . S
C1672 C1673 1.377 . S
C1673 H1657 0.930 . S
C1673 C1672 1.377 . S
C1673 C1674 1.379 . S
C1674 H1658 0.931 . S
C1674 C1668 1.383 . S
C1674 C1673 1.379 . S
H1675 C1669 0.959 . S
H1676 C1669 0.961 . S
H1677 C1669 0.960 . S
H1678 C1670 0.930 . S
H1679 C1671 0.929 . S
H1680 C1688 0.929 . S
H1681 C1690 0.930 . S
H1682 C1692 0.930 . S
H1683 C1695 0.929 . S
H1684 C1698 0.930 . S
H1685 C1700 0.960 . S
H1686 C1700 0.960 . S
H1687 C1700 0.960 1_554 S
C1688 H1680 0.929 . S
C1688 C1689 1.377 . S
C1688 C1690 1.384 . S
C1689 C1688 1.377 . S
C1689 C1695 1.390 . S
C1690 H1681 0.930 . S
C1690 C1688 1.384 . S
C1690 C1691 1.372 . S
C1691 C1690 1.372 . S
C1691 C1692 1.400 . S
C1691 C1696 1.490 . S
C1692 H1682 0.930 . S
C1692 C1691 1.400 . S
C1692 C1695 1.386 . S
H1693 C1709 0.930 . S
H1694 C1710 0.931 . S
C1695 H1683 0.929 . S
C1695 C1689 1.390 . S
C1695 C1692 1.386 . S
C1696 C1691 1.490 . S
C1696 C1698 1.395 . S
C1696 C1699 1.403 . S
H1697 C1703 0.930 1_556 S
C1698 H1684 0.930 . S
C1698 C1696 1.395 . S
C1698 C1701 1.403 . S
C1699 C1696 1.403 . S
C1699 C1700 1.524 1_554 S
C1699 C1703 1.400 . S
C1700 H1685 0.960 . S
C1700 H1686 0.960 . S
C1700 H1687 0.960 1_556 S
C1700 C1699 1.524 1_556 S
C1701 C1698 1.403 . S
C1701 C1702 1.392 . S
C1701 C1705 1.495 . S
C1702 C1701 1.392 . S
C1702 C1703 1.385 . S
C1702 C1704 1.478 . S
C1703 H1697 0.930 1_554 S
C1703 C1699 1.400 . S
C1703 C1702 1.385 . S
C1704 C1702 1.478 . S
C1704 C1706 1.381 1_554 S
C1704 C1710 1.383 . S
C1705 C1701 1.495 . S
C1705 H1711 0.959 . S
C1705 H1712 0.961 . S
C1705 H1713 0.960 . S
C1706 C1704 1.381 1_556 S
C1706 C1707 1.394 . S
C1706 H1714 0.930 . S
C1707 C1706 1.394 . S
C1707 C1708 1.383 1_556 S
C1707 H1715 0.929 . S
C1708 C1707 1.383 1_554 S
C1708 C1709 1.377 . S
C1709 H1693 0.930 . S
C1709 C1708 1.377 . S
C1709 C1710 1.379 . S
C1710 H1694 0.931 . S
C1710 C1704 1.383 . S
C1710 C1709 1.379 . S
H1711 C1705 0.959 . S
H1712 C1705 0.961 . S
H1713 C1705 0.960 . S
H1714 C1706 0.930 . S
H1715 C1707 0.929 . S
H1716 C1724 0.929 . S
H1717 C1726 0.930 . S
H1718 C1728 0.930 . S
H1719 C1731 0.929 . S
H1720 C1734 0.930 . S
H1721 C1736 0.960 . S
H1722 C1736 0.960 . S
H1723 C1736 0.960 . S
C1724 H1716 0.929 . S
C1724 C1725 1.377 . S
C1724 C1726 1.384 . S
C1725 C1724 1.377 . S
C1725 C1731 1.390 . S
C1726 H1717 0.930 . S
C1726 C1724 1.384 . S
C1726 C1727 1.372 . S
C1727 C1726 1.372 . S
C1727 C1728 1.400 . S
C1727 C1732 1.490 . S
C1728 H1718 0.930 . S
C1728 C1727 1.400 . S
C1728 C1731 1.386 . S
H1729 C1745 0.930 . S
H1730 C1746 0.931 . S
C1731 H1719 0.929 . S
C1731 C1725 1.390 . S
C1731 C1728 1.386 . S
C1732 C1727 1.490 . S
C1732 C1734 1.395 . S
C1732 C1735 1.403 . S
H1733 C1739 0.930 . S
C1734 H1720 0.930 . S
C1734 C1732 1.395 . S
C1734 C1737 1.403 . S
C1735 C1732 1.403 . S
C1735 C1736 1.524 . S
C1735 C1739 1.400 . S
C1736 H1721 0.960 . S
C1736 H1722 0.960 . S
C1736 H1723 0.960 . S
C1736 C1735 1.524 . S
C1737 C1734 1.403 . S
C1737 C1738 1.392 . S
C1737 C1741 1.495 . S
C1738 C1737 1.392 . S
C1738 C1739 1.385 . S
C1738 C1740 1.478 . S
C1739 H1733 0.930 . S
C1739 C1735 1.400 . S
C1739 C1738 1.385 . S
C1740 C1738 1.478 . S
C1740 C1742 1.381 . S
C1740 C1746 1.383 . S
C1741 C1737 1.495 . S
C1741 H1747 0.959 . S
C1741 H1748 0.961 . S
C1741 H1749 0.960 . S
C1742 C1740 1.381 . S
C1742 C1743 1.394 . S
C1742 H1750 0.930 . S
C1743 C1742 1.394 . S
C1743 C1744 1.383 . S
C1743 H1751 0.929 . S
C1744 C1743 1.383 . S
C1744 C1745 1.377 . S
C1745 H1729 0.930 . S
C1745 C1744 1.377 . S
C1745 C1746 1.379 . S
C1746 H1730 0.931 . S
C1746 C1740 1.383 . S
C1746 C1745 1.379 . S
H1747 C1741 0.959 . S
H1748 C1741 0.961 . S
H1749 C1741 0.960 . S
H1750 C1742 0.930 . S
H1751 C1743 0.929 . S
H1752 C1760 0.929 . S
H1753 C1762 0.930 . S
H1754 C1764 0.930 . S
H1755 C1767 0.929 . S
H1756 C1770 0.930 . S
H1757 C1772 0.976 . S
H1758 C1772 0.960 . S
H1759 C1772 0.960 . S
C1760 H1752 0.929 . S
C1760 C1761 1.377 . S
C1760 C1762 1.384 . S
C1761 C1760 1.377 . S
C1761 C1767 1.390 . S
C1762 H1753 0.930 . S
C1762 C1760 1.384 . S
C1762 C1763 1.372 . S
C1763 C1762 1.372 . S
C1763 C1764 1.400 . S
C1763 C1768 1.490 . S
C1764 H1754 0.930 . S
C1764 C1763 1.400 . S
C1764 C1767 1.386 . S
H1765 C1781 0.930 . S
H1766 C1782 0.931 . S
C1767 H1755 0.929 . S
C1767 C1761 1.390 . S
C1767 C1764 1.386 . S
C1768 C1763 1.490 . S
C1768 C1770 1.395 . S
C1768 C1771 1.403 . S
H1769 C1775 0.930 . S
C1770 H1756 0.930 . S
C1770 C1768 1.395 . S
C1770 C1773 1.403 1_455 S
C1771 C1768 1.403 . S
C1771 C1772 1.524 . S
C1771 C1775 1.400 1_455 S
C1772 H1757 0.976 . S
C1772 H1758 0.960 . S
C1772 H1759 0.960 . S
C1772 C1771 1.524 . S
C1773 C1770 1.403 1_655 S
C1773 C1774 1.392 . S
C1773 C1777 1.495 . S
C1774 C1773 1.392 . S
C1774 C1775 1.385 . S
C1774 C1776 1.478 . S
C1775 H1769 0.930 . S
C1775 C1771 1.400 1_655 S
C1775 C1774 1.385 . S
C1776 C1774 1.478 . S
C1776 C1778 1.381 . S
C1776 C1782 1.383 . S
C1777 C1773 1.495 . S
C1777 H1783 0.968 . S
C1777 H1784 0.961 . S
C1777 H1785 0.960 . S
C1778 C1776 1.381 . S
C1778 C1779 1.394 . S
C1778 H1786 0.930 . S
C1779 C1778 1.394 . S
C1779 C1780 1.383 . S
C1779 H1787 0.929 . S
C1780 C1779 1.383 . S
C1780 C1781 1.377 . S
C1781 H1765 0.930 . S
C1781 C1780 1.377 . S
C1781 C1782 1.379 . S
C1782 H1766 0.931 . S
C1782 C1776 1.383 . S
C1782 C1781 1.379 . S
H1783 C1777 0.968 . S
H1784 C1777 0.961 . S
H1785 C1777 0.960 . S
H1786 C1778 0.930 . S
H1787 C1779 0.929 . S
H1788 C1796 0.929 . S
H1789 C1798 0.930 . S
H1790 C1800 0.930 . S
H1791 C1803 0.929 . S
H1792 C1806 0.930 . S
H1793 C1808 0.960 . S
H1794 C1808 0.960 . S
H1795 C1808 0.960 . S
C1796 H1788 0.929 . S
C1796 C1797 1.377 . S
C1796 C1798 1.384 . S
C1797 C1796 1.377 . S
C1797 C1803 1.390 . S
C1798 H1789 0.930 . S
C1798 C1796 1.384 . S
C1798 C1799 1.372 . S
C1799 C1798 1.372 . S
C1799 C1800 1.400 . S
C1799 C1804 1.490 . S
C1800 H1790 0.930 . S
C1800 C1799 1.400 . S
C1800 C1803 1.386 . S
H1801 C1817 0.930 . S
H1802 C1818 0.931 . S
C1803 H1791 0.929 . S
C1803 C1797 1.390 . S
C1803 C1800 1.386 . S
C1804 C1799 1.490 . S
C1804 C1806 1.395 . S
C1804 C1807 1.403 . S
H1805 C1811 0.930 . S
C1806 H1792 0.930 . S
C1806 C1804 1.395 . S
C1806 C1809 1.403 . S
C1807 C1804 1.403 . S
C1807 C1808 1.524 . S
C1807 C1811 1.400 . S
C1808 H1793 0.960 . S
C1808 H1794 0.960 . S
C1808 H1795 0.960 . S
C1808 C1807 1.524 . S
C1809 C1806 1.403 . S
C1809 C1810 1.392 . S
C1809 C1813 1.495 . S
C1810 C1809 1.392 . S
C1810 C1811 1.385 . S
C1810 C1812 1.478 . S
C1811 H1805 0.930 . S
C1811 C1807 1.400 . S
C1811 C1810 1.385 . S
C1812 C1810 1.478 . S
C1812 C1814 1.381 . S
C1812 C1818 1.383 . S
C1813 C1809 1.495 . S
C1813 H1819 0.959 . S
C1813 H1820 0.961 . S
C1813 H1821 0.960 . S
C1814 C1812 1.381 . S
C1814 C1815 1.394 . S
C1814 H1822 0.930 . S
C1815 C1814 1.394 . S
C1815 C1816 1.383 . S
C1815 H1823 0.929 . S
C1816 C1815 1.383 . S
C1816 C1817 1.377 . S
C1817 H1801 0.930 . S
C1817 C1816 1.377 . S
C1817 C1818 1.379 . S
C1818 H1802 0.931 . S
C1818 C1812 1.383 . S
C1818 C1817 1.379 . S
H1819 C1813 0.959 . S
H1820 C1813 0.961 . S
H1821 C1813 0.960 . S
H1822 C1814 0.930 . S
H1823 C1815 0.929 . S
H1824 C1832 0.929 . S
H1825 C1834 0.930 . S
H1826 C1836 0.930 . S
H1827 C1839 0.929 . S
H1828 C1842 0.930 . S
H1829 C1844 0.960 . S
H1830 C1844 0.960 . S
H1831 C1844 0.960 . S
C1832 H1824 0.929 . S
C1832 C1833 1.377 . S
C1832 C1834 1.384 . S
C1833 C1832 1.377 . S
C1833 C1839 1.390 . S
C1834 H1825 0.930 . S
C1834 C1832 1.384 . S
C1834 C1835 1.372 . S
C1835 C1834 1.372 . S
C1835 C1836 1.400 . S
C1835 C1840 1.490 . S
C1836 H1826 0.930 . S
C1836 C1835 1.400 . S
C1836 C1839 1.386 . S
H1837 C1853 0.930 . S
H1838 C1854 0.931 . S
C1839 H1827 0.929 . S
C1839 C1833 1.390 . S
C1839 C1836 1.386 . S
C1840 C1835 1.490 . S
C1840 C1842 1.395 . S
C1840 C1843 1.403 . S
H1841 C1847 0.930 . S
C1842 H1828 0.930 . S
C1842 C1840 1.395 . S
C1842 C1845 1.403 . S
C1843 C1840 1.403 . S
C1843 C1844 1.524 . S
C1843 C1847 1.400 . S
C1844 H1829 0.960 . S
C1844 H1830 0.960 . S
C1844 H1831 0.960 . S
C1844 C1843 1.524 . S
C1845 C1842 1.403 . S
C1845 C1846 1.392 . S
C1845 C1849 1.495 . S
C1846 C1845 1.392 . S
C1846 C1847 1.385 . S
C1846 C1848 1.478 . S
C1847 H1841 0.930 . S
C1847 C1843 1.400 . S
C1847 C1846 1.385 . S
C1848 C1846 1.478 . S
C1848 C1850 1.381 . S
C1848 C1854 1.383 . S
C1849 C1845 1.495 . S
C1849 H1855 0.959 . S
C1849 H1856 0.961 . S
C1849 H1857 0.960 . S
C1850 C1848 1.381 . S
C1850 C1851 1.394 . S
C1850 H1858 0.930 . S
C1851 C1850 1.394 . S
C1851 C1852 1.383 . S
C1851 H1859 0.929 . S
C1852 C1851 1.383 . S
C1852 C1853 1.377 . S
C1853 H1837 0.930 . S
C1853 C1852 1.377 . S
C1853 C1854 1.379 . S
C1854 H1838 0.931 . S
C1854 C1848 1.383 . S
C1854 C1853 1.379 . S
H1855 C1849 0.959 . S
H1856 C1849 0.961 . S
H1857 C1849 0.960 . S
H1858 C1850 0.930 . S
H1859 C1851 0.929 . S
H1860 C1868 0.929 . S
H1861 C1870 0.930 . S
H1862 C1872 0.930 . S
H1863 C1875 0.929 . S
H1864 C1878 0.930 . S
H1865 C1880 0.960 . S
H1866 C1880 0.960 . S
H1867 C1880 0.960 . S
C1868 H1860 0.929 . S
C1868 C1869 1.377 . S
C1868 C1870 1.384 . S
C1869 C1868 1.377 . S
C1869 C1875 1.390 . S
C1870 H1861 0.930 . S
C1870 C1868 1.384 . S
C1870 C1871 1.372 . S
C1871 C1870 1.372 . S
C1871 C1872 1.400 . S
C1871 C1876 1.490 . S
C1872 H1862 0.930 . S
C1872 C1871 1.400 . S
C1872 C1875 1.386 . S
H1873 C1889 0.930 . S
H1874 C1890 0.931 . S
C1875 H1863 0.929 . S
C1875 C1869 1.390 . S
C1875 C1872 1.386 . S
C1876 C1871 1.490 . S
C1876 C1878 1.395 . S
C1876 C1879 1.403 . S
H1877 C1883 0.930 . S
C1878 H1864 0.930 . S
C1878 C1876 1.395 . S
C1878 C1881 1.403 . S
C1879 C1876 1.403 . S
C1879 C1880 1.524 . S
C1879 C1883 1.400 . S
C1880 H1865 0.960 . S
C1880 H1866 0.960 . S
C1880 H1867 0.960 . S
C1880 C1879 1.524 . S
C1881 C1878 1.403 . S
C1881 C1882 1.392 . S
C1881 C1885 1.495 . S
C1882 C1881 1.392 . S
C1882 C1883 1.385 . S
C1882 C1884 1.478 . S
C1883 H1877 0.930 . S
C1883 C1879 1.400 . S
C1883 C1882 1.385 . S
C1884 C1882 1.478 . S
C1884 C1886 1.381 . S
C1884 C1890 1.383 . S
C1885 C1881 1.495 . S
C1885 H1891 0.959 . S
C1885 H1892 0.961 . S
C1885 H1893 0.960 . S
C1886 C1884 1.381 . S
C1886 C1887 1.394 . S
C1886 H1894 0.930 . S
C1887 C1886 1.394 . S
C1887 C1888 1.383 . S
C1887 H1895 0.929 . S
C1888 C1887 1.383 . S
C1888 C1889 1.377 . S
C1889 H1873 0.930 . S
C1889 C1888 1.377 . S
C1889 C1890 1.379 . S
C1890 H1874 0.931 . S
C1890 C1884 1.383 . S
C1890 C1889 1.379 . S
H1891 C1885 0.959 . S
H1892 C1885 0.961 . S
H1893 C1885 0.960 . S
H1894 C1886 0.930 . S
H1895 C1887 0.929 . S
H1896 C1904 0.929 . S
H1897 C1906 0.930 . S
H1898 C1908 0.930 . S
H1899 C1911 0.929 . S
H1900 C1914 0.930 . S
H1901 C1916 0.900 1_455 S
H1902 C1916 0.960 . S
H1903 C1916 0.960 . S
C1904 H1896 0.929 . S
C1904 C1905 1.377 . S
C1904 C1906 1.384 . S
C1905 C1904 1.377 . S
C1905 C1911 1.390 . S
C1906 H1897 0.930 . S
C1906 C1904 1.384 . S
C1906 C1907 1.372 . S
C1907 C1906 1.372 . S
C1907 C1908 1.400 . S
C1907 C1912 1.490 . S
C1908 H1898 0.930 . S
C1908 C1907 1.400 . S
C1908 C1911 1.386 . S
H1909 C1925 0.930 . S
H1910 C1926 0.931 . S
C1911 H1899 0.929 . S
C1911 C1905 1.390 . S
C1911 C1908 1.386 . S
C1912 C1907 1.490 . S
C1912 C1914 1.395 . S
C1912 C1915 1.403 . S
H1913 C1919 0.930 . S
C1914 H1900 0.930 . S
C1914 C1912 1.395 . S
C1914 C1917 1.403 1_655 S
C1915 C1912 1.403 . S
C1915 C1916 1.524 . S
C1915 C1919 1.400 1_655 S
C1916 H1901 0.900 1_655 S
C1916 H1902 0.960 . S
C1916 H1903 0.960 . S
C1916 C1915 1.524 . S
C1917 C1914 1.403 1_455 S
C1917 C1918 1.392 . S
C1917 C1921 1.495 . S
C1918 C1917 1.392 . S
C1918 C1919 1.385 . S
C1918 C1920 1.478 . S
C1919 H1913 0.930 . S
C1919 C1915 1.400 1_455 S
C1919 C1918 1.385 . S
C1920 C1918 1.478 . S
C1920 C1922 1.381 . S
C1920 C1926 1.383 . S
C1921 C1917 1.495 . S
C1921 H1927 0.916 1_455 S
C1921 H1928 0.961 . S
C1921 H1929 0.960 . S
C1922 C1920 1.381 . S
C1922 C1923 1.394 . S
C1922 H1930 0.930 . S
C1923 C1922 1.394 . S
C1923 C1924 1.383 . S
C1923 H1931 0.929 . S
C1924 C1923 1.383 . S
C1924 C1925 1.377 . S
C1925 H1909 0.930 . S
C1925 C1924 1.377 . S
C1925 C1926 1.379 . S
C1926 H1910 0.931 . S
C1926 C1920 1.383 . S
C1926 C1925 1.379 . S
H1927 C1921 0.916 1_655 S
H1928 C1921 0.961 . S
H1929 C1921 0.960 . S
H1930 C1922 0.930 . S
H1931 C1923 0.929 . S
H1932 C1940 0.929 . S
H1933 C1942 0.930 . S
H1934 C1944 0.930 . S
H1935 C1947 0.929 . S
H1936 C1950 0.930 . S
H1937 C1952 0.960 . S
H1938 C1952 0.960 . S
H1939 C1952 0.960 . S
C1940 H1932 0.929 . S
C1940 C1941 1.377 . S
C1940 C1942 1.384 . S
C1941 C1940 1.377 . S
C1941 C1947 1.390 . S
C1942 H1933 0.930 . S
C1942 C1940 1.384 . S
C1942 C1943 1.372 . S
C1943 C1942 1.372 . S
C1943 C1944 1.400 . S
C1943 C1948 1.490 . S
C1944 H1934 0.930 . S
C1944 C1943 1.400 . S
C1944 C1947 1.386 . S
H1945 C1961 0.930 . S
H1946 C1962 0.931 . S
C1947 H1935 0.929 . S
C1947 C1941 1.390 . S
C1947 C1944 1.386 . S
C1948 C1943 1.490 . S
C1948 C1950 1.395 . S
C1948 C1951 1.403 . S
H1949 C1955 0.921 1_556 S
C1950 H1936 0.930 . S
C1950 C1948 1.395 . S
C1950 C1953 1.403 . S
C1951 C1948 1.403 . S
C1951 C1952 1.524 1_554 S
C1951 C1955 1.401 . S
C1952 H1937 0.960 . S
C1952 H1938 0.960 . S
C1952 H1939 0.960 . S
C1952 C1951 1.524 1_556 S
C1953 C1950 1.403 . S
C1953 C1954 1.392 . S
C1953 C1957 1.495 . S
C1954 C1953 1.392 . S
C1954 C1955 1.393 . S
C1954 C1956 1.478 . S
C1955 H1949 0.921 1_554 S
C1955 C1951 1.401 . S
C1955 C1954 1.393 . S
C1956 C1954 1.478 . S
C1956 C1958 1.381 . S
C1956 C1962 1.383 . S
C1957 C1953 1.495 . S
C1957 H1963 0.959 . S
C1957 H1964 0.961 . S
C1957 H1965 0.960 . S
C1958 C1956 1.381 . S
C1958 C1959 1.394 . S
C1958 H1966 0.930 . S
C1959 C1958 1.394 . S
C1959 C1960 1.383 . S
C1959 H1967 0.929 1_554 S
C1960 C1959 1.383 . S
C1960 C1961 1.377 . S
C1961 H1945 0.930 . S
C1961 C1960 1.377 . S
C1961 C1962 1.379 . S
C1962 H1946 0.931 . S
C1962 C1956 1.383 . S
C1962 C1961 1.379 . S
H1963 C1957 0.959 . S
H1964 C1957 0.961 . S
H1965 C1957 0.960 . S
H1966 C1958 0.930 . S
H1967 C1959 0.929 1_556 S
C537 N13 1.185 . S
C556 N2 1.205 . S
C573 N46 1.212 . S
C592 N35 1.233 . S
C609 N68 1.211 . S
C628 N79 1.189 . S
C645 N101 1.177 . S
C664 N112 1.172 . S
C681 N134 1.179 . S
C700 N145 1.155 . S
C717 N167 1.205 . S
C736 N178 1.212 . S
C753 N211 1.215 . S
C772 N200 1.198 . S
C789 N233 1.179 . S
C808 N244 1.194 . S
C825 N277 1.182 . S
C844 N266 1.196 . S
C861 N310 1.206 . S
C880 N299 1.196 . S
C897 N332 1.214 . S
C916 N343 1.201 . S
C933 N376 1.190 . S
C952 N365 1.193 . S
C969 N409 1.179 . S
C988 N398 1.166 . S
C1005 N431 1.214 . S
C1024 N442 1.203 . S
C1041 N475 1.212 . S
C1060 N464 1.231 . S
C1077 N497 1.183 . S
C1096 N508 1.207 . S
C1113 C7 1.434 . S
C1132 C54 1.466 . S
C1149 C73 1.884 . S
C1168 C40 1.872 . S
C1185 C106 1.442 . S
C1204 C87 1.449 . S
C1221 C21 1.057 . S
C1240 C120 1.040 . S
C1257 C186 1.457 . S
C1276 C139 1.418 1_565 S
C1293 C172 1.881 . S
C1312 C205 1.886 1_565 S
C1329 C219 1.455 . S
C1348 C238 1.417 . S
C1365 C252 1.053 . S
C1384 C153 1.043 . S
C1401 C318 1.459 . S
C1420 C271 1.421 . S
C1437 C304 1.879 . S
C1456 C337 1.889 . S
C1473 C351 1.461 . S
C1492 C370 1.420 . S
C1509 C384 1.050 . S
C1528 C285 1.054 . S
C1545 C403 1.439 . S
C1564 C450 1.463 . S
C1581 C436 1.883 . S
C1600 C469 1.874 . S
C1617 C502 1.443 . S
C1636 C483 1.470 . S
C1653 C417 1.057 . S
C1672 C516 1.073 . S
C1689 C18 0.847 . S
C1708 C150 0.840 . S
C1725 C447 1.294 . S
C1744 C51 1.295 . S
C1761 C84 1.294 . S
C1780 C216 1.296 . S
C1797 C513 0.846 . S
C1816 C117 0.840 . S
C1833 C315 1.295 . S
C1852 C183 1.297 . S
C1869 C249 0.846 . S
C1888 C381 0.840 . S
C1905 C282 0.850 . S
C1924 C414 0.858 . S
C1941 C480 1.294 . S
C1960 C348 1.289 . S
