# Generated by pormake.
# Topology rob, (6)-cn, num edge types: 1
# Building blocks:
#     Node 0, Type 0, BuildingBlock: BETDEL_clean_sbu_0, # of connection points: 6
#     Node 1, Type 0, BuildingBlock: BETDEL_clean_sbu_0, # of connection points: 6
#     Node 2, Type 0, BuildingBlock: BETDEL_clean_sbu_0, # of connection points: 6
#     Node 3, Type 0, BuildingBlock: BETDEL_clean_sbu_0, # of connection points: 6
#     Edge 4, Type (0, 0), BuildingBlock: TEMPAE_clean_linker_10, # of connection points: 2
#     Edge 5, Type (0, 0), BuildingBlock: TEMPAE_clean_linker_10, # of connection points: 2
#     Edge 6, Type (0, 0), BuildingBlock: TEMPAE_clean_linker_10, # of connection points: 2
#     Edge 7, Type (0, 0), BuildingBlock: TEMPAE_clean_linker_10, # of connection points: 2
#     Edge 8, Type (0, 0), BuildingBlock: TEMPAE_clean_linker_10, # of connection points: 2
#     Edge 9, Type (0, 0), BuildingBlock: TEMPAE_clean_linker_10, # of connection points: 2
#     Edge 10, Type (0, 0), BuildingBlock: TEMPAE_clean_linker_10, # of connection points: 2
#     Edge 11, Type (0, 0), BuildingBlock: TEMPAE_clean_linker_10, # of connection points: 2
#     Edge 12, Type (0, 0), BuildingBlock: TEMPAE_clean_linker_10, # of connection points: 2
#     Edge 13, Type (0, 0), BuildingBlock: TEMPAE_clean_linker_10, # of connection points: 2
#     Edge 14, Type (0, 0), BuildingBlock: TEMPAE_clean_linker_10, # of connection points: 2
#     Edge 15, Type (0, 0), BuildingBlock: TEMPAE_clean_linker_10, # of connection points: 2
# Relax obj value: 0.076
# Max RMSD: 0.163
# Mean RMSD: 0.163
data_MOF--net-rob--node1-BETDEL_clean_sbu_0--edge1-TEMPAE_clean_linker_10
_symmetry_space_group_name_H-M    P1
_symmetry_Int_Tables_number       1
_symmetry_cell_setting            triclinic
loop_
_symmetry_equiv_pos_as_xyz
'x, y, z'
_cell_length_a     13.692501
_cell_length_b     25.493594
_cell_length_c     29.629503
_cell_angle_alpha  90.060434
_cell_angle_beta   103.693
_cell_angle_gamma 90.04735
loop_
_atom_site_label
_atom_site_type_symbol
_atom_site_fract_x
_atom_site_fract_y
_atom_site_fract_z
_atom_type_partial_charge
Dy0 Dy 0.19142 0.27944 0.04473 0.0
C1 C 0.40723 0.28683 0.89808 0.0
C2 C 0.13068 0.2828 0.1263 0.0
Dy3 Dy 0.33142 0.26075 0.97262 0.0
O4 O 0.21134 0.30407 0.11879 0.0
O5 O 0.08064 0.25953 0.08851 0.0
O6 O 0.19913 0.36582 0.03094 0.0
O7 O 0.32056 0.3178 0.02625 0.0
C8 C 0.28588 0.36373 0.02036 0.0
C9 C 0.21678 0.17573 0.97904 0.0
O10 O 0.44137 0.24797 0.04115 0.0
O11 O 0.31454 0.22441 0.07784 0.0
O12 O 0.43875 0.24738 0.92594 0.0
O13 O 0.34055 0.31318 0.91329 0.0
O14 O 0.28122 0.1767 0.95308 0.0
O15 O 0.22066 0.21948 0.99869 0.0
O16 O 0.07293 0.28158 0.97841 0.0
O17 O 0.18976 0.2997 0.93436 0.0
C18 C 0.41061 0.22705 0.07663 0.0
C19 C 0.09635 0.29607 0.93923 0.0
Dy20 Dy 0.64799 0.78849 0.0141 0.0
C21 C -0.01441 0.76813 0.9388 0.0
C22 C 0.5121 0.80161 0.06768 0.0
Dy23 Dy 0.84509 0.7553 0.98999 0.0
O24 O 0.57565 0.83641 0.06044 0.0
O25 O 0.51691 0.76041 0.04224 0.0
O26 O 0.67326 0.86985 0.99104 0.0
O27 O 0.7973 0.82327 0.02328 0.0
C28 C 0.77063 0.86669 0.00367 0.0
C29 C 0.72531 0.67576 0.99896 0.0
O30 O 0.90211 0.75203 0.06711 0.0
O31 O 0.739 0.748 0.07701 0.0
O32 O 0.95798 0.72309 0.95249 0.0
O33 O 0.94381 0.80541 0.95743 0.0
O34 O 0.82299 0.67143 0.00808 0.0
O35 O 0.69739 0.71999 0.98137 0.0
O36 O 0.58197 0.78581 0.93772 0.0
O37 O 0.73962 0.77544 0.92181 0.0
C38 C 0.83718 0.74273 0.0931 0.0
C39 C 0.64135 0.78323 0.90828 0.0
Dy40 Dy 0.27509 0.7851 0.46093 0.0
C41 C 0.06398 0.7847 0.60915 0.0
C42 C 0.33573 0.78895 0.37947 0.0
Dy43 Dy 0.13768 0.7644 0.53292 0.0
O44 O 0.2522 0.80723 0.38629 0.0
O45 O 0.38875 0.76837 0.41789 0.0
O46 O 0.26478 0.87131 0.4747 0.0
O47 O 0.14394 0.82222 0.47904 0.0
C48 C 0.17731 0.86857 0.48456 0.0
C49 C 0.25533 0.68025 0.52658 0.0
O50 O 0.02676 0.75041 0.46524 0.0
O51 O 0.15352 0.72891 0.42782 0.0
O52 O 0.02795 0.74895 0.57799 0.0
O53 O 0.13425 0.81083 0.59651 0.0
O54 O 0.19266 0.68124 0.55328 0.0
O55 O 0.24896 0.72365 0.50635 0.0
O56 O 0.39195 0.78308 0.52824 0.0
O57 O 0.27235 0.81248 0.56534 0.0
C58 C 0.05772 0.72976 0.42976 0.0
C59 C 0.36582 0.79923 0.5663 0.0
Dy60 Dy 0.82171 0.29047 0.49385 0.0
C61 C 0.47898 0.27379 0.56789 0.0
C62 C 0.9572 0.29967 0.43938 0.0
Dy63 Dy 0.62256 0.26147 0.518 0.0
O64 O 0.898 0.33622 0.44759 0.0
O65 O 0.94903 0.25883 0.46467 0.0
O66 O 0.79865 0.37333 0.51417 0.0
O67 O 0.67332 0.32699 0.48289 0.0
C68 C 0.7012 0.37098 0.5012 0.0
C69 C 0.74081 0.17996 0.5123 0.0
O70 O 0.56659 0.25674 0.44068 0.0
O71 O 0.72973 0.24869 0.43175 0.0
O72 O 0.51198 0.22893 0.5566 0.0
O73 O 0.51771 0.31106 0.54786 0.0
O74 O 0.64304 0.17667 0.50222 0.0
O75 O 0.7696 0.2246 0.5288 0.0
O76 O 0.88575 0.28924 0.5706 0.0
O77 O 0.72546 0.28992 0.58437 0.0
C78 C 0.63143 0.24521 0.41512 0.0
C79 C 0.82444 0.29419 0.59906 0.0
C80 C 0.56932 0.62441 0.96668 0.0
C81 C 0.65693 0.63191 1.00165 0.0
C82 C 0.50685 0.58084 0.96757 0.0
C83 C 0.53061 0.54533 0.00537 0.0
C84 C 0.6175 0.554 0.04158 0.0
C85 C 0.68082 0.59662 0.03874 0.0
C86 C 0.41688 0.57211 0.92756 0.0
C87 C 0.64339 0.51843 0.08343 0.0
C88 C 0.32043 0.45976 0.02896 0.0
C89 C 0.34548 0.41038 0.01417 0.0
C90 C 0.38027 0.50397 0.02653 0.0
C91 C 0.46494 0.49905 0.00712 0.0
C92 C 0.4885 0.44951 0.99068 0.0
C93 C 0.42982 0.40552 0.99544 0.0
C94 C 0.35466 0.55556 0.04604 0.0
C95 C 0.57604 0.44286 0.96834 0.0
H96 H 0.55154 0.65168 0.93783 0.0
H97 H 0.7483 0.60292 0.06596 0.0
H98 H 0.42251 0.53311 0.91167 0.0
H99 H 0.34688 0.57211 0.9402 0.0
H100 H 0.41033 0.60262 0.90026 0.0
H101 H 0.70944 0.53278 0.11004 0.0
H102 H 0.57833 0.51519 0.09959 0.0
H103 H 0.66008 0.47843 0.07262 0.0
H104 H 0.25585 0.46353 0.04397 0.0
H105 H 0.44989 0.36731 0.98441 0.0
H106 H 0.34122 0.58612 0.01867 0.0
H107 H 0.41894 0.56898 0.07402 0.0
H108 H 0.28697 0.55268 0.06046 0.0
H109 H 0.57187 0.47235 0.94042 0.0
H110 H 0.57814 0.40307 0.95326 0.0
H111 H 0.64761 0.44956 0.99449 0.0
C112 C 0.373 0.63451 0.48621 0.0
C113 C 0.32012 0.63535 0.52129 0.0
C114 C 0.43327 0.59121 0.48102 0.0
C115 C 0.4417 0.54818 0.51204 0.0
C116 C 0.38853 0.54914 0.54763 0.0
C117 C 0.328 0.59254 0.55161 0.0
C118 C 0.48798 0.59153 0.44238 0.0
C119 C 0.39642 0.50454 0.58186 0.0
C120 C 0.53238 0.41471 0.48017 0.0
C121 C 0.6339 0.41572 0.50391 0.0
C122 C 0.46921 0.45786 0.48183 0.0
C123 C 0.50829 0.50276 0.50835 0.0
C124 C 0.61068 0.50365 0.53265 0.0
C125 C 0.67225 0.46028 0.52991 0.0
C126 C 0.36069 0.45543 0.45522 0.0
C127 C 0.65506 0.55025 0.56194 0.0
H128 H 0.36658 0.66747 0.46262 0.0
H129 H 0.28734 0.59316 0.57887 0.0
H130 H 0.57027 0.58953 0.45719 0.0
H131 H 0.46671 0.55642 0.42004 0.0
H132 H 0.47127 0.62719 0.42038 0.0
H133 H 0.34973 0.51114 0.60732 0.0
H134 H 0.37243 0.46726 0.56316 0.0
H135 H 0.47579 0.49949 0.60119 0.0
H136 H 0.50255 0.38038 0.45991 0.0
H137 H 0.75064 0.46114 0.54847 0.0
H138 H 0.34319 0.48921 0.43108 0.0
H139 H 0.31073 0.45831 0.47963 0.0
H140 H 0.34284 0.41856 0.4349 0.0
H141 H 0.64611 0.58618 0.54026 0.0
H142 H 0.73616 0.54493 0.57847 0.0
H143 H 0.61424 0.55688 0.58963 0.0
C144 C 0.14844 0.08686 0.95521 0.0
C145 C 0.15373 0.13029 0.98474 0.0
C146 C 0.08831 0.04328 0.95917 0.0
C147 C 0.03303 0.04282 0.99396 0.0
C148 C 0.0393 0.08637 0.02437 0.0
C149 C 0.09914 0.12983 0.01917 0.0
C150 C 0.08268 0.99809 0.92561 0.0
C151 C -0.01762 0.08716 0.0622 0.0
C152 C 0.80196 0.95512 0.97423 0.0
C153 C 0.8389 0.91096 1.00097 0.0
C154 C 0.86426 0.99828 0.9718 0.0
C155 C 0.96585 0.99756 0.99719 0.0
C156 C 0.00354 0.95304 0.02441 0.0
C157 C 0.9397 0.91007 0.02572 0.0
C158 C 0.82147 0.04452 0.94175 0.0
C159 C 0.11117 0.95088 0.05221 0.0
H160 H 0.19049 0.08721 0.92847 0.0
H161 H 0.10363 0.16329 0.04216 0.0
H162 H 0.10541 0.96111 0.94492 0.0
H163 H 0.00406 0.99285 0.90531 0.0
H164 H 0.13151 1.0042 0.90099 0.0
H165 H -0.00147 0.12295 0.08416 0.0
H166 H 0.90039 0.08534 0.04658 0.0
H167 H 0.00212 0.05217 0.08475 0.0
H168 H 0.72411 0.95585 0.95491 0.0
H169 H 0.96836 0.87603 0.04657 0.0
H170 H 0.8644 0.05082 0.9148 0.0
H171 H 0.829 0.08071 0.96312 0.0
H172 H 0.74092 0.03897 0.92425 0.0
H173 H 0.16288 0.95348 0.02859 0.0
H174 H 0.12789 0.91424 0.07287 0.0
H175 H 0.12738 0.98493 0.07619 0.0
C176 C 0.77934 0.0989 0.47313 0.0
C177 C 0.80807 0.13579 0.50884 0.0
C178 C 0.84151 0.05611 0.4694 0.0
C179 C 0.9327 0.04897 0.50334 0.0
C180 C 0.96144 0.08605 0.53979 0.0
C181 C 0.89962 0.12967 0.54155 0.0
C182 C 0.80995 1.01881 0.42893 0.0
C183 C 0.05642 0.0791 0.57741 0.0
C184 C 0.03817 0.91004 0.51351 0.0
C185 C 0.11718 0.9148 0.49121 0.0
C186 C 0.9798 0.95382 0.51923 0.0
C187 C -0.00185 1.00293 0.50033 0.0
C188 C 0.07735 1.00765 0.4773 0.0
C189 C 0.13714 0.96376 0.47384 0.0
C190 C 0.89835 0.94746 0.54537 0.0
C191 C 0.09716 0.05868 0.45513 0.0
H192 H 0.70886 0.10408 0.44758 0.0
H193 H 0.92135 0.15817 0.56932 0.0
H194 H 0.87054 1.01554 0.40996 0.0
H195 H 0.79757 0.97908 0.44173 0.0
H196 H 0.73987 0.03163 0.40414 0.0
H197 H 0.06626 0.11045 0.60419 0.0
H198 H 0.055 0.04054 0.59461 0.0
H199 H 0.12282 0.07923 0.56206 0.0
H200 H 0.02259 0.87217 0.52685 0.0
H201 H 0.19762 0.96738 0.45614 0.0
H202 H 0.82362 0.95331 0.52142 0.0
H203 H 0.90685 0.97766 0.57304 0.0
H204 H 0.89975 0.90805 0.5615 0.0
H205 H 0.02887 0.07085 0.42888 0.0
H206 H 0.1607 0.05563 0.43789 0.0
H207 H 0.11437 0.0902 0.48164 0.0
C208 C 0.66649 0.1993 0.34679 0.0
C209 C 0.59884 0.22817 0.36611 0.0
C210 C 0.64924 0.19103 0.29885 0.0
C211 C 0.5609 0.21123 0.26934 0.0
C212 C 0.48841 0.23673 0.28895 0.0
C213 C 0.50854 0.24528 0.33723 0.0
C214 C 0.72664 0.16104 0.28039 0.0
C215 C 0.3916 0.25746 0.25895 0.0
C216 C 0.54455 0.25239 0.14481 0.0
C217 C 0.48112 0.21344 0.12062 0.0
C218 C 0.57727 0.25033 0.19347 0.0
C219 C 0.54586 0.20823 0.21797 0.0
C220 C 0.49202 0.16582 0.19304 0.0
C221 C 0.45985 0.16907 0.14456 0.0
C222 C 0.63731 0.29563 0.2188 0.0
C223 C 0.45986 0.11954 0.21778 0.0
H224 H 0.73544 0.18451 0.36914 0.0
H225 H 0.45594 0.26745 0.35192 0.0
H226 H 0.70694 0.11875 0.27878 0.0
H227 H 0.72961 0.17374 0.24497 0.0
H228 H 0.80285 0.16532 0.30366 0.0
H229 H 0.33396 0.26205 0.27934 0.0
H230 H 0.40581 0.29638 0.245 0.0
H231 H 0.36085 0.23116 0.22913 0.0
H232 H 0.55967 0.2871 0.12643 0.0
H233 H 0.41005 0.13912 0.12574 0.0
H234 H 0.69763 0.28144 0.24815 0.0
H235 H 0.58688 0.3212 0.23344 0.0
H236 H 0.67177 0.31961 0.19536 0.0
H237 H 0.52469 0.10392 0.24415 0.0
H238 H 0.42753 0.08745 0.19338 0.0
H239 H 0.40235 0.13236 0.2363 0.0
C240 C 0.50478 0.84093 0.14353 0.0
C241 C 0.47135 0.80215 0.10973 0.0
C242 C 0.4836 0.8379 0.18749 0.0
C243 C 0.4249 0.79583 0.19767 0.0
C244 C 0.38751 0.75755 0.16308 0.0
C245 C 0.41217 0.76084 0.1196 0.0
C246 C 0.52766 0.87863 0.2237 0.0
C247 C 0.32252 0.71287 0.17223 0.0
C248 C 0.44477 0.7638 0.32546 0.0
C249 C 0.36163 0.7907 0.33373 0.0
C250 C 0.46603 0.7647 0.2812 0.0
C251 C 0.40201 0.79272 0.24442 0.0
C252 C 0.31837 0.82011 0.25288 0.0
C253 C 0.29948 0.81887 0.29737 0.0
C254 C 0.55652 0.73532 0.27379 0.0
C255 C 0.24875 0.85092 0.21493 0.0
H256 H 0.55181 0.87262 0.13643 0.0
H257 H 0.38697 0.73055 0.09375 0.0
H258 H 0.46716 0.89803 0.23668 0.0
H259 H 0.57856 0.85933 0.25385 0.0
H260 H 0.57085 0.90923 0.21008 0.0
H261 H 0.30073 0.68588 0.14204 0.0
H262 H 0.36282 0.6901 0.20287 0.0
H263 H 0.25321 0.72866 0.1804 0.0
H264 H 0.49272 0.74183 0.35342 0.0
H265 H 0.23523 0.83998 0.30361 0.0
H266 H 0.59876 0.75936 0.25367 0.0
H267 H 0.53123 0.69926 0.25337 0.0
H268 H 0.60826 0.72379 0.30715 0.0
H269 H 0.28994 0.8844 0.20428 0.0
H270 H 0.18248 0.86647 0.22614 0.0
H271 H 0.2218 0.82586 0.18381 0.0
C272 C 0.63546 0.7447 0.83157 0.0
C273 C 0.6001 0.7828 0.8579 0.0
C274 C 0.60868 0.74574 0.78307 0.0
C275 C 0.54578 0.78633 0.76033 0.0
C276 C 0.50998 0.82516 0.78679 0.0
C277 C 0.53703 0.82269 0.83557 0.0
C278 C 0.64543 0.70234 0.75654 0.0
C279 C 0.44446 0.86962 0.76352 0.0
C280 C 0.5177 0.81391 0.63154 0.0
C281 C 0.42716 0.78803 0.61289 0.0
C282 C 0.56011 0.81216 0.67974 0.0
C283 C 0.50896 0.78496 0.70911 0.0
C284 C 0.42027 0.75671 0.6897 0.0
C285 C 0.3815 0.75804 0.64183 0.0
C286 C 0.6571 0.8409 0.69946 0.0
C287 C 0.36288 0.72753 0.71963 0.0
H288 H 0.68455 0.71383 0.8491 0.0
H289 H 0.51189 0.85274 0.85614 0.0
H290 H 0.66117 0.71691 0.72373 0.0
H291 H 0.71438 0.6835 0.77763 0.0
H292 H 0.58631 0.67178 0.74739 0.0
H293 H 0.48909 0.89578 0.74619 0.0
H294 H 0.38079 0.85437 0.73621 0.0
H295 H 0.41429 0.89328 0.78865 0.0
H296 H 0.55217 0.83746 0.60908 0.0
H297 H 0.31119 0.73802 0.62714 0.0
H298 H 0.71001 0.81511 0.72375 0.0
H299 H 0.64204 0.87546 0.71956 0.0
H300 H 0.69374 0.85452 0.67188 0.0
H301 H 0.41196 0.69785 0.74113 0.0
H302 H 0.295 0.70744 0.69877 0.0
H303 H 0.33881 0.75533 0.74371 0.0
C304 C 0.40691 0.24037 0.63271 0.0
C305 C 0.44441 0.28211 0.61116 0.0
C306 C 0.39463 0.24509 0.67841 0.0
C307 C 0.42569 0.29175 0.70416 0.0
C308 C 0.45863 0.33503 0.68143 0.0
C309 C 0.46561 0.32986 0.63505 0.0
C310 C 0.35152 0.19918 0.69936 0.0
C311 C 0.48998 0.38677 0.70546 0.0
C312 C 0.35129 0.32227 0.81771 0.0
C313 C 0.42111 0.29272 0.85013 0.0
C314 C 0.35192 0.32251 0.77033 0.0
C315 C 0.42688 0.29405 0.75491 0.0
C316 C 0.50106 0.26636 0.78816 0.0
C317 C 0.49593 0.26523 0.8351 0.0
C318 C 0.27097 0.35285 0.7371 0.0
C319 C 0.58584 0.23673 0.77516 0.0
H320 H 0.38981 0.20344 0.61434 0.0
H321 H 0.49431 0.36252 0.61859 0.0
H322 H 0.41387 0.17445 0.71893 0.0
H323 H 0.30614 0.21239 0.72372 0.0
H324 H 0.30349 0.17432 0.67207 0.0
H325 H 0.55572 0.40331 0.6944 0.0
H326 H 0.42793 0.41539 0.69457 0.0
H327 H 0.50922 0.38373 0.74388 0.0
H328 H 0.29274 0.34358 0.82898 0.0
H329 H 0.55016 0.24234 0.85993 0.0
H330 H 0.24725 0.33294 0.70292 0.0
H331 H 0.29999 0.39229 0.73157 0.0
H332 H 0.20385 0.35879 0.75135 0.0
H333 H 0.57228 0.19398 0.7773 0.0
H334 H 0.65759 0.24552 0.80064 0.0
H335 H 0.59512 0.24593 0.73988 0.0
C336 C 0.8016 0.69673 0.16103 0.0
C337 C 0.8697 0.72538 0.14183 0.0
C338 C 0.819 0.68839 0.20891 0.0
C339 C 0.90774 0.70835 0.23833 0.0
C340 C 0.98066 0.73355 0.2188 0.0
C341 C 0.96055 0.74205 0.17059 0.0
C342 C 0.7411 0.65925 0.22775 0.0
C343 C 0.07743 0.75442 0.24887 0.0
C344 C 0.92252 0.75239 0.36176 0.0
C345 C -0.01315 0.71434 0.38655 0.0
C346 C 0.88985 0.74903 0.31322 0.0
C347 C 0.92179 0.70633 0.28957 0.0
C348 C 0.97623 0.66465 0.31523 0.0
C349 C 0.00874 0.66934 0.36357 0.0
C350 C 0.83036 0.79398 0.28717 0.0
C351 C 0.00949 0.61792 0.29138 0.0
H352 H 0.73223 0.68237 0.13865 0.0
H353 H 0.01334 0.76407 0.15589 0.0
H354 H 0.76618 0.61815 0.23524 0.0
H355 H 0.73149 0.67689 0.26063 0.0
H356 H 0.66684 0.65848 0.20246 0.0
H357 H 0.13499 0.75955 0.2285 0.0
H358 H 0.06291 0.79309 0.26322 0.0
H359 H 0.10846 0.72795 0.27845 0.0
H360 H 0.90713 0.7876 0.37946 0.0
H361 H 0.05943 0.64017 0.38294 0.0
H362 H 0.77319 0.77979 0.25655 0.0
H363 H 0.88226 0.82048 0.27439 0.0
H364 H 0.7921 0.81708 0.30975 0.0
H365 H 0.94615 0.60242 0.26406 0.0
H366 H 0.0392 0.58589 0.31624 0.0
H367 H 0.06956 0.63019 0.27419 0.0
C368 C 0.05599 0.25779 0.38723 0.0
C369 C -0.00516 0.29857 0.39639 0.0
C370 C 0.0799 0.2536 0.34359 0.0
C371 C 0.03927 0.29015 0.30798 0.0
C372 C 0.97739 0.33125 0.31724 0.0
C373 C 0.95744 0.33543 0.36141 0.0
C374 C 0.14834 0.21005 0.3355 0.0
C375 C 0.92941 0.36994 0.27997 0.0
C376 C 0.16374 0.31459 0.20801 0.0
C377 C 0.10461 0.28437 0.1721 0.0
C378 C 0.14423 0.31604 0.25243 0.0
C379 C 0.06309 0.28671 0.26134 0.0
C380 C 0.00214 0.25658 0.22502 0.0
C381 C 0.02398 0.25553 0.18084 0.0
C382 C 0.21039 0.34926 0.28979 0.0
C383 C 0.914 0.22536 0.23277 0.0
H384 H 0.08413 0.2289 0.41396 0.0
H385 H 0.90855 0.36655 0.36786 0.0
H386 H 0.1101 0.1859 0.3053 0.0
H387 H 0.21654 0.22706 0.32712 0.0
H388 H 0.1719 0.18412 0.36626 0.0
H389 H 0.88227 0.39934 0.29264 0.0
H390 H -0.01192 0.391 0.26693 0.0
H391 H 0.88153 0.34867 0.25007 0.0
H392 H 0.22605 0.33718 0.20147 0.0
H393 H 0.97825 0.23203 0.15325 0.0
H394 H 0.23881 0.32559 0.3216 0.0
H395 H 0.166 0.38205 0.29934 0.0
H396 H 0.27565 0.36601 0.27849 0.0
H397 H 0.94197 0.19105 0.25508 0.0
H398 H 0.86505 0.21091 0.19967 0.0
H399 H 0.86803 0.24936 0.25115 0.0
C400 C 0.79748 0.32297 0.67512 0.0
C401 C 0.86256 0.30168 0.64968 0.0
C402 C 0.82272 0.3236 0.72366 0.0
C403 C 0.91652 0.3034 0.74773 0.0
C404 C -0.01587 0.28301 0.7224 0.0
C405 C 0.95631 0.28245 0.67348 0.0
C406 C 0.74687 0.3454 0.74832 0.0
C407 C 0.08395 0.25971 0.74681 0.0
C408 C 0.02809 0.34954 0.87049 0.0
C409 C 0.01975 0.3044 0.8962 0.0
C410 C -0.00887 0.3504 0.82224 0.0
C411 C 0.94493 0.30492 0.79931 0.0
C412 C 0.92766 0.26098 0.8257 0.0
C413 C 0.96589 0.26116 0.8741 0.0
C414 C 0.00678 0.39884 0.79552 0.0
C415 C 0.87533 0.2124 0.80275 0.0
H416 H 0.72476 0.33824 0.65706 0.0
H417 H 0.00608 0.26513 0.65407 0.0
H418 H 0.76192 0.33481 0.78559 0.0
H419 H 0.74555 0.38879 0.74527 0.0
H420 H 0.67093 0.33085 0.73118 0.0
H421 H 0.13555 0.2559 0.72317 0.0
H422 H 0.12108 0.28363 0.77738 0.0
H423 H 0.07133 0.22 0.75959 0.0
H424 H 0.07123 0.38263 0.88775 0.0
H425 H 0.96178 0.22578 0.89388 0.0
H426 H 0.04783 0.38862 0.76863 0.0
H427 H 0.04943 0.42983 0.81837 0.0
H428 H 0.93277 0.41505 0.77733 0.0
H429 H 0.81272 0.22255 0.77277 0.0
H430 H 0.84528 0.18826 0.82761 0.0
H431 H 0.92988 0.18817 0.78957 0.0
C432 C 0.97344 0.75757 0.66998 0.0
C433 C 0.04844 0.78713 0.65694 0.0
C434 C 0.96648 0.75596 0.71665 0.0
C435 C 0.03761 0.78356 0.75118 0.0
C436 C 0.11225 0.81425 0.73789 0.0
C437 C 0.11663 0.81568 0.69105 0.0
C438 C 0.88339 0.72443 0.72906 0.0
C439 C 0.19043 0.84412 0.77308 0.0
C440 C 0.97325 0.8178 0.86569 0.0
C441 C 0.01405 0.77528 0.894 0.0
C442 C 0.97972 0.82068 0.81922 0.0
C443 C 0.03237 0.78132 0.80097 0.0
C444 C 0.07912 0.73995 0.83022 0.0
C445 C 0.06724 0.73668 0.87613 0.0
C446 C 0.9286 0.86545 0.78944 0.0
C447 C 0.1406 0.69889 0.81282 0.0
H448 H 0.92096 0.73525 0.64383 0.0
H449 H 0.17604 0.83801 0.68143 0.0
H450 H 0.91548 0.68912 0.74893 0.0
H451 H 0.84574 0.74784 0.75161 0.0
H452 H 0.82625 0.71158 0.69777 0.0
H453 H 0.22157 0.87725 0.75661 0.0
H454 H 0.15998 0.86008 0.80174 0.0
H455 H 0.25288 0.81714 0.78863 0.0
H456 H 0.93097 0.84756 0.87905 0.0
H457 H 0.09836 0.70366 0.89783 0.0
H458 H 0.88251 0.85047 0.75596 0.0
H459 H -0.01376 0.89206 0.7813 0.0
H460 H 0.87949 0.88867 0.80689 0.0
H461 H 0.09159 0.67573 0.78462 0.0
H462 H 0.17821 0.67161 0.84077 0.0
H463 H 0.19879 0.71808 0.79797 0.0
loop_
_geom_bond_atom_site_label_1
_geom_bond_atom_site_label_2
_geom_bond_distance
_geom_bond_site_symmetry_2
_ccdc_geom_bond_type
Dy0 O4 2.398 . S
Dy0 O5 2.491 . S
Dy0 O6 2.403 . S
Dy0 O7 2.664 1_554 S
Dy0 O11 2.326 . S
Dy0 O15 2.310 . S
Dy0 O16 2.351 1_554 S
C1 O12 1.185 . S
C1 O13 1.355 . S
C2 O4 1.185 . S
C2 O5 1.355 . S
Dy3 O7 2.310 . S
Dy3 O10 2.351 1_556 S
Dy3 O12 2.398 . S
Dy3 O13 2.491 . S
Dy3 O14 2.403 . S
Dy3 O15 2.664 1_556 S
Dy3 O17 2.326 . S
O4 Dy0 2.398 . S
O4 C2 1.185 . S
O5 Dy0 2.491 . S
O5 C2 1.355 . S
O6 Dy0 2.403 . S
O6 C8 1.254 . S
O7 Dy0 2.664 1_556 S
O7 Dy3 2.310 . S
O7 C8 1.268 1_556 S
C8 O6 1.254 . S
C8 O7 1.268 1_554 S
C9 O14 1.254 . S
C9 O15 1.268 1_556 S
O10 Dy3 2.351 1_554 S
O10 C18 1.249 . S
O11 Dy0 2.326 . S
O11 C18 1.267 . S
O12 C1 1.185 . S
O12 Dy3 2.398 . S
O13 C1 1.355 . S
O13 Dy3 2.491 . S
O14 Dy3 2.403 . S
O14 C9 1.254 . S
O15 Dy0 2.310 . S
O15 Dy3 2.664 1_554 S
O15 C9 1.268 1_554 S
O16 Dy0 2.351 1_556 S
O16 C19 1.249 . S
O17 Dy3 2.326 . S
O17 C19 1.267 . S
C18 O10 1.249 . S
C18 O11 1.267 . S
C19 O16 1.249 . S
C19 O17 1.267 . S
Dy20 O24 2.398 . S
Dy20 O25 2.491 . S
Dy20 O26 2.403 . S
Dy20 O27 2.664 1_554 S
Dy20 O31 2.326 . S
Dy20 O35 2.310 . S
Dy20 O36 2.351 1_554 S
C21 O32 1.185 . S
C21 O33 1.355 . S
C22 O24 1.185 . S
C22 O25 1.355 . S
Dy23 O27 2.310 . S
Dy23 O30 2.351 1_556 S
Dy23 O32 2.398 . S
Dy23 O33 2.491 . S
Dy23 O34 2.403 . S
Dy23 O35 2.664 1_556 S
Dy23 O37 2.326 . S
O24 Dy20 2.398 . S
O24 C22 1.185 . S
O25 Dy20 2.491 . S
O25 C22 1.355 . S
O26 Dy20 2.403 . S
O26 C28 1.254 . S
O27 Dy20 2.664 1_556 S
O27 Dy23 2.310 . S
O27 C28 1.268 1_556 S
C28 O26 1.254 . S
C28 O27 1.268 1_554 S
C29 O34 1.254 . S
C29 O35 1.268 1_556 S
O30 Dy23 2.351 1_554 S
O30 C38 1.249 . S
O31 Dy20 2.326 . S
O31 C38 1.267 . S
O32 C21 1.185 . S
O32 Dy23 2.398 . S
O33 C21 1.355 . S
O33 Dy23 2.491 . S
O34 Dy23 2.403 . S
O34 C29 1.254 . S
O35 Dy20 2.310 . S
O35 Dy23 2.664 1_554 S
O35 C29 1.268 1_554 S
O36 Dy20 2.351 1_556 S
O36 C39 1.249 . S
O37 Dy23 2.326 . S
O37 C39 1.267 . S
C38 O30 1.249 . S
C38 O31 1.267 . S
C39 O36 1.249 . S
C39 O37 1.267 . S
Dy40 O44 2.398 . S
Dy40 O45 2.491 . S
Dy40 O46 2.403 . S
Dy40 O47 2.664 . S
Dy40 O51 2.326 . S
Dy40 O55 2.310 . S
Dy40 O56 2.351 . S
C41 O52 1.185 . S
C41 O53 1.355 . S
C42 O44 1.185 . S
C42 O45 1.355 . S
Dy43 O47 2.310 . S
Dy43 O50 2.351 . S
Dy43 O52 2.398 . S
Dy43 O53 2.491 . S
Dy43 O54 2.403 . S
Dy43 O55 2.664 . S
Dy43 O57 2.326 . S
O44 Dy40 2.398 . S
O44 C42 1.185 . S
O45 Dy40 2.491 . S
O45 C42 1.355 . S
O46 Dy40 2.403 . S
O46 C48 1.254 . S
O47 Dy40 2.664 . S
O47 Dy43 2.310 . S
O47 C48 1.268 . S
C48 O46 1.254 . S
C48 O47 1.268 . S
C49 O54 1.254 . S
C49 O55 1.268 . S
O50 Dy43 2.351 . S
O50 C58 1.249 . S
O51 Dy40 2.326 . S
O51 C58 1.267 . S
O52 C41 1.185 . S
O52 Dy43 2.398 . S
O53 C41 1.355 . S
O53 Dy43 2.491 . S
O54 Dy43 2.403 . S
O54 C49 1.254 . S
O55 Dy40 2.310 . S
O55 Dy43 2.664 . S
O55 C49 1.268 . S
O56 Dy40 2.351 . S
O56 C59 1.249 . S
O57 Dy43 2.326 . S
O57 C59 1.267 . S
C58 O50 1.249 . S
C58 O51 1.267 . S
C59 O56 1.249 . S
C59 O57 1.267 . S
Dy60 O64 2.398 . S
Dy60 O65 2.491 . S
Dy60 O66 2.403 . S
Dy60 O67 2.664 . S
Dy60 O71 2.326 . S
Dy60 O75 2.310 . S
Dy60 O76 2.351 . S
C61 O72 1.185 . S
C61 O73 1.355 . S
C62 O64 1.185 . S
C62 O65 1.355 . S
Dy63 O67 2.310 . S
Dy63 O70 2.351 . S
Dy63 O72 2.398 . S
Dy63 O73 2.491 . S
Dy63 O74 2.403 . S
Dy63 O75 2.664 . S
Dy63 O77 2.326 . S
O64 Dy60 2.398 . S
O64 C62 1.185 . S
O65 Dy60 2.491 . S
O65 C62 1.355 . S
O66 Dy60 2.403 . S
O66 C68 1.254 . S
O67 Dy60 2.664 . S
O67 Dy63 2.310 . S
O67 C68 1.268 . S
C68 O66 1.254 . S
C68 O67 1.268 . S
C69 O74 1.254 . S
C69 O75 1.268 . S
O70 Dy63 2.351 . S
O70 C78 1.249 . S
O71 Dy60 2.326 . S
O71 C78 1.267 . S
O72 C61 1.185 . S
O72 Dy63 2.398 . S
O73 C61 1.355 . S
O73 Dy63 2.491 . S
O74 Dy63 2.403 . S
O74 C69 1.254 . S
O75 Dy60 2.310 . S
O75 Dy63 2.664 . S
O75 C69 1.268 . S
O76 Dy60 2.351 . S
O76 C79 1.249 . S
O77 Dy63 2.326 . S
O77 C79 1.267 . S
C78 O70 1.249 . S
C78 O71 1.267 . S
C79 O76 1.249 . S
C79 O77 1.267 . S
C80 C81 1.391 . S
C80 C82 1.394 . S
C80 H96 0.931 . S
C81 C80 1.391 . S
C81 C85 1.376 1_556 S
C82 C80 1.394 . S
C82 C83 1.369 . S
C82 C86 1.531 . S
C83 C82 1.369 . S
C83 C84 1.410 1_556 S
C83 C91 1.503 . S
C84 C83 1.410 1_554 S
C84 C85 1.392 . S
C84 C87 1.511 . S
C85 C81 1.376 1_554 S
C85 C84 1.392 . S
C85 H97 0.929 . S
C86 C82 1.531 . S
C86 H98 0.960 . S
C86 H99 0.962 . S
C86 H100 0.960 . S
C87 C84 1.511 . S
C87 H101 0.961 . S
C87 H102 0.961 . S
C87 H103 0.961 . S
C88 C89 1.370 1_554 S
C88 C90 1.363 . S
C88 H104 0.931 . S
C89 C88 1.370 1_556 S
C89 C93 1.408 . S
C90 C88 1.363 . S
C90 C91 1.370 1_554 S
C90 C94 1.524 . S
C91 C83 1.503 . S
C91 C90 1.370 1_556 S
C91 C92 1.403 . S
C92 C91 1.403 . S
C92 C93 1.404 . S
C92 C95 1.539 . S
C93 C89 1.408 . S
C93 C92 1.404 . S
C93 H105 0.930 . S
C94 C90 1.524 . S
C94 H106 0.956 . S
C94 H107 0.961 . S
C94 H108 0.961 . S
C95 C92 1.539 . S
C95 H109 0.958 . S
C95 H110 0.961 . S
C95 H111 0.960 . S
H96 C80 0.931 . S
H97 C85 0.929 . S
H98 C86 0.960 . S
H99 C86 0.962 . S
H100 C86 0.960 . S
H101 C87 0.961 . S
H102 C87 0.961 . S
H103 C87 0.961 . S
H104 C88 0.931 . S
H105 C93 0.930 . S
H106 C94 0.956 . S
H107 C94 0.961 . S
H108 C94 0.961 . S
H109 C95 0.958 . S
H110 C95 0.961 . S
H111 C95 0.960 . S
C112 C113 1.391 . S
C112 C114 1.394 . S
C112 H128 0.931 . S
C113 C112 1.391 . S
C113 C117 1.376 . S
C114 C112 1.394 . S
C114 C115 1.369 . S
C114 C118 1.531 . S
C115 C114 1.369 . S
C115 C116 1.410 . S
C115 C123 1.503 . S
C116 C115 1.410 . S
C116 C117 1.392 . S
C116 C119 1.511 . S
C117 C113 1.376 . S
C117 C116 1.392 . S
C117 H129 0.929 . S
C118 C114 1.531 . S
C118 H130 0.960 . S
C118 H131 0.962 . S
C118 H132 0.960 . S
C119 C116 1.511 . S
C119 H133 0.961 . S
C119 H134 0.961 . S
C119 H135 0.961 . S
C120 C121 1.370 . S
C120 C122 1.363 . S
C120 H136 0.931 . S
C121 C120 1.370 . S
C121 C125 1.408 . S
C122 C120 1.363 . S
C122 C123 1.370 . S
C122 C126 1.524 . S
C123 C115 1.503 . S
C123 C122 1.370 . S
C123 C124 1.403 . S
C124 C123 1.403 . S
C124 C125 1.404 . S
C124 C127 1.539 . S
C125 C121 1.408 . S
C125 C124 1.404 . S
C125 H137 0.930 . S
C126 C122 1.524 . S
C126 H138 0.956 . S
C126 H139 0.961 . S
C126 H140 0.961 . S
C127 C124 1.539 . S
C127 H141 0.958 . S
C127 H142 0.961 . S
C127 H143 0.960 . S
H128 C112 0.931 . S
H129 C117 0.929 . S
H130 C118 0.960 . S
H131 C118 0.962 . S
H132 C118 0.960 . S
H133 C119 0.961 . S
H134 C119 0.961 . S
H135 C119 0.961 . S
H136 C120 0.931 . S
H137 C125 0.930 . S
H138 C126 0.956 . S
H139 C126 0.961 . S
H140 C126 0.961 . S
H141 C127 0.958 . S
H142 C127 0.961 . S
H143 C127 0.960 . S
C144 C145 1.391 1_556 S
C144 C146 1.394 . S
C144 H160 0.931 . S
C145 C144 1.391 1_554 S
C145 C149 1.376 . S
C146 C144 1.394 . S
C146 C147 1.369 1_556 S
C146 C150 1.531 . S
C147 C146 1.369 1_554 S
C147 C148 1.410 . S
C147 C155 1.503 1_445 S
C148 C147 1.410 . S
C148 C149 1.392 . S
C148 C151 1.511 . S
C149 C145 1.376 . S
C149 C148 1.392 . S
C149 H161 0.929 . S
C150 C146 1.531 . S
C150 H162 0.960 1_545 S
C150 H163 0.962 1_455 S
C150 H164 0.960 . S
C151 C148 1.511 . S
C151 H165 0.961 . S
C151 H166 0.961 . S
C151 H167 0.961 . S
C152 C153 1.369 1_556 S
C152 C154 1.363 . S
C152 H168 0.931 . S
C153 C152 1.369 1_554 S
C153 C157 1.407 . S
C154 C152 1.363 . S
C154 C155 1.370 1_556 S
C154 C158 1.524 1_565 S
C155 C147 1.503 1_665 S
C155 C154 1.370 1_554 S
C155 C156 1.403 1_655 S
C156 C155 1.403 1_455 S
C156 C157 1.404 1_455 S
C156 C159 1.539 . S
C157 C153 1.407 . S
C157 C156 1.404 1_655 S
C157 H169 0.930 1_655 S
C158 C154 1.524 1_545 S
C158 H170 0.956 . S
C158 H171 0.961 1_556 S
C158 H172 0.961 . S
C159 C156 1.539 . S
C159 H173 0.958 1_554 S
C159 H174 0.961 . S
C159 H175 0.960 . S
H160 C144 0.931 . S
H161 C149 0.929 . S
H162 C150 0.960 1_565 S
H163 C150 0.962 1_655 S
H164 C150 0.960 . S
H165 C151 0.961 . S
H166 C151 0.961 . S
H167 C151 0.961 . S
H168 C152 0.931 . S
H169 C157 0.930 1_455 S
H170 C158 0.956 . S
H171 C158 0.961 1_554 S
H172 C158 0.961 . S
H173 C159 0.958 1_556 S
H174 C159 0.961 . S
H175 C159 0.960 . S
C176 C177 1.391 . S
C176 C178 1.394 . S
C176 H192 0.931 . S
C177 C176 1.391 . S
C177 C181 1.376 . S
C178 C176 1.394 . S
C178 C179 1.369 . S
C178 C182 1.531 1_545 S
C179 C178 1.369 . S
C179 C180 1.410 1_655 S
C179 C187 1.503 1_645 S
C180 C179 1.410 1_455 S
C180 C181 1.392 1_455 S
C180 C183 1.511 . S
C181 C177 1.376 . S
C181 C180 1.392 1_655 S
C181 H193 0.929 1_655 S
C182 C178 1.531 1_565 S
C182 H194 0.960 . S
C182 H195 0.962 . S
C182 H196 0.960 . S
C183 C180 1.511 . S
C183 H197 0.961 . S
C183 H198 0.961 . S
C183 H199 0.961 . S
C184 C185 1.370 . S
C184 C186 1.363 . S
C184 H200 0.931 . S
C185 C184 1.370 . S
C185 C189 1.408 . S
C186 C184 1.363 . S
C186 C187 1.370 . S
C186 C190 1.524 1_455 S
C187 C179 1.503 1_465 S
C187 C186 1.370 . S
C187 C188 1.403 . S
C188 C187 1.403 . S
C188 C189 1.404 . S
C188 C191 1.539 1_565 S
C189 C185 1.408 . S
C189 C188 1.404 . S
C189 H201 0.930 . S
C190 C186 1.524 1_655 S
C190 H202 0.956 . S
C190 H203 0.961 1_655 S
C190 H204 0.961 1_655 S
C191 C188 1.539 1_545 S
C191 H205 0.958 1_545 S
C191 H206 0.961 1_545 S
C191 H207 0.960 . S
H192 C176 0.931 . S
H193 C181 0.929 1_455 S
H194 C182 0.960 . S
H195 C182 0.962 . S
H196 C182 0.960 . S
H197 C183 0.961 . S
H198 C183 0.961 . S
H199 C183 0.961 . S
H200 C184 0.931 . S
H201 C189 0.930 . S
H202 C190 0.956 . S
H203 C190 0.961 1_455 S
H204 C190 0.961 1_455 S
H205 C191 0.958 1_565 S
H206 C191 0.961 1_565 S
H207 C191 0.960 . S
C208 C209 1.391 . S
C208 C210 1.394 . S
C208 H224 0.931 . S
C209 C208 1.391 . S
C209 C213 1.376 . S
C210 C208 1.394 . S
C210 C211 1.369 . S
C210 C214 1.531 . S
C211 C210 1.369 . S
C211 C212 1.410 . S
C211 C219 1.503 . S
C212 C211 1.410 . S
C212 C213 1.392 . S
C212 C215 1.511 . S
C213 C209 1.376 . S
C213 C212 1.392 . S
C213 H225 0.929 . S
C214 C210 1.531 . S
C214 H226 0.960 . S
C214 H227 0.962 . S
C214 H228 0.960 . S
C215 C212 1.511 . S
C215 H229 0.961 . S
C215 H230 0.961 . S
C215 H231 0.961 . S
C216 C217 1.370 . S
C216 C218 1.363 . S
C216 H232 0.931 . S
C217 C216 1.370 . S
C217 C221 1.408 . S
C218 C216 1.363 . S
C218 C219 1.370 . S
C218 C222 1.524 . S
C219 C211 1.503 . S
C219 C218 1.370 . S
C219 C220 1.403 . S
C220 C219 1.403 . S
C220 C221 1.404 . S
C220 C223 1.539 . S
C221 C217 1.408 . S
C221 C220 1.404 . S
C221 H233 0.930 . S
C222 C218 1.524 . S
C222 H234 0.956 . S
C222 H235 0.961 . S
C222 H236 0.961 . S
C223 C220 1.539 . S
C223 H237 0.958 . S
C223 H238 0.961 . S
C223 H239 0.960 . S
H224 C208 0.931 . S
H225 C213 0.929 . S
H226 C214 0.960 . S
H227 C214 0.962 . S
H228 C214 0.960 . S
H229 C215 0.961 . S
H230 C215 0.961 . S
H231 C215 0.961 . S
H232 C216 0.931 . S
H233 C221 0.930 . S
H234 C222 0.956 . S
H235 C222 0.961 . S
H236 C222 0.961 . S
H237 C223 0.958 . S
H238 C223 0.961 . S
H239 C223 0.960 . S
C240 C241 1.391 . S
C240 C242 1.394 . S
C240 H256 0.931 . S
C241 C240 1.391 . S
C241 C245 1.376 . S
C242 C240 1.394 . S
C242 C243 1.369 . S
C242 C246 1.531 . S
C243 C242 1.369 . S
C243 C244 1.410 . S
C243 C251 1.503 . S
C244 C243 1.410 . S
C244 C245 1.392 . S
C244 C247 1.511 . S
C245 C241 1.376 . S
C245 C244 1.392 . S
C245 H257 0.929 . S
C246 C242 1.531 . S
C246 H258 0.960 . S
C246 H259 0.962 . S
C246 H260 0.960 . S
C247 C244 1.511 . S
C247 H261 0.961 . S
C247 H262 0.961 . S
C247 H263 0.961 . S
C248 C249 1.370 . S
C248 C250 1.363 . S
C248 H264 0.931 . S
C249 C248 1.370 . S
C249 C253 1.408 . S
C250 C248 1.363 . S
C250 C251 1.370 . S
C250 C254 1.524 . S
C251 C243 1.503 . S
C251 C250 1.370 . S
C251 C252 1.403 . S
C252 C251 1.403 . S
C252 C253 1.404 . S
C252 C255 1.539 . S
C253 C249 1.408 . S
C253 C252 1.404 . S
C253 H265 0.930 . S
C254 C250 1.524 . S
C254 H266 0.956 . S
C254 H267 0.961 . S
C254 H268 0.961 . S
C255 C252 1.539 . S
C255 H269 0.958 . S
C255 H270 0.961 . S
C255 H271 0.960 . S
H256 C240 0.931 . S
H257 C245 0.929 . S
H258 C246 0.960 . S
H259 C246 0.962 . S
H260 C246 0.960 . S
H261 C247 0.961 . S
H262 C247 0.961 . S
H263 C247 0.961 . S
H264 C248 0.931 . S
H265 C253 0.930 . S
H266 C254 0.956 . S
H267 C254 0.961 . S
H268 C254 0.961 . S
H269 C255 0.958 . S
H270 C255 0.961 . S
H271 C255 0.960 . S
C272 C273 1.391 . S
C272 C274 1.394 . S
C272 H288 0.931 . S
C273 C272 1.391 . S
C273 C277 1.376 . S
C274 C272 1.394 . S
C274 C275 1.369 . S
C274 C278 1.531 . S
C275 C274 1.369 . S
C275 C276 1.410 . S
C275 C283 1.503 . S
C276 C275 1.410 . S
C276 C277 1.392 . S
C276 C279 1.511 . S
C277 C273 1.376 . S
C277 C276 1.392 . S
C277 H289 0.929 . S
C278 C274 1.531 . S
C278 H290 0.960 . S
C278 H291 0.962 . S
C278 H292 0.960 . S
C279 C276 1.511 . S
C279 H293 0.961 . S
C279 H294 0.961 . S
C279 H295 0.961 . S
C280 C281 1.370 . S
C280 C282 1.363 . S
C280 H296 0.931 . S
C281 C280 1.370 . S
C281 C285 1.408 . S
C282 C280 1.363 . S
C282 C283 1.370 . S
C282 C286 1.524 . S
C283 C275 1.503 . S
C283 C282 1.370 . S
C283 C284 1.403 . S
C284 C283 1.403 . S
C284 C285 1.404 . S
C284 C287 1.539 . S
C285 C281 1.408 . S
C285 C284 1.404 . S
C285 H297 0.930 . S
C286 C282 1.524 . S
C286 H298 0.956 . S
C286 H299 0.961 . S
C286 H300 0.961 . S
C287 C284 1.539 . S
C287 H301 0.958 . S
C287 H302 0.961 . S
C287 H303 0.960 . S
H288 C272 0.931 . S
H289 C277 0.929 . S
H290 C278 0.960 . S
H291 C278 0.962 . S
H292 C278 0.960 . S
H293 C279 0.961 . S
H294 C279 0.961 . S
H295 C279 0.961 . S
H296 C280 0.931 . S
H297 C285 0.930 . S
H298 C286 0.956 . S
H299 C286 0.961 . S
H300 C286 0.961 . S
H301 C287 0.958 . S
H302 C287 0.961 . S
H303 C287 0.960 . S
C304 C305 1.391 . S
C304 C306 1.394 . S
C304 H320 0.931 . S
C305 C304 1.391 . S
C305 C309 1.376 . S
C306 C304 1.394 . S
C306 C307 1.369 . S
C306 C310 1.531 . S
C307 C306 1.369 . S
C307 C308 1.410 . S
C307 C315 1.503 . S
C308 C307 1.410 . S
C308 C309 1.392 . S
C308 C311 1.511 . S
C309 C305 1.376 . S
C309 C308 1.392 . S
C309 H321 0.929 . S
C310 C306 1.531 . S
C310 H322 0.960 . S
C310 H323 0.962 . S
C310 H324 0.960 . S
C311 C308 1.511 . S
C311 H325 0.961 . S
C311 H326 0.961 . S
C311 H327 0.961 . S
C312 C313 1.370 . S
C312 C314 1.363 . S
C312 H328 0.931 . S
C313 C312 1.370 . S
C313 C317 1.408 . S
C314 C312 1.363 . S
C314 C315 1.370 . S
C314 C318 1.524 . S
C315 C307 1.503 . S
C315 C314 1.370 . S
C315 C316 1.403 . S
C316 C315 1.403 . S
C316 C317 1.404 . S
C316 C319 1.539 . S
C317 C313 1.408 . S
C317 C316 1.404 . S
C317 H329 0.930 . S
C318 C314 1.524 . S
C318 H330 0.956 . S
C318 H331 0.961 . S
C318 H332 0.961 . S
C319 C316 1.539 . S
C319 H333 0.958 . S
C319 H334 0.961 . S
C319 H335 0.960 . S
H320 C304 0.931 . S
H321 C309 0.929 . S
H322 C310 0.960 . S
H323 C310 0.962 . S
H324 C310 0.960 . S
H325 C311 0.961 . S
H326 C311 0.961 . S
H327 C311 0.961 . S
H328 C312 0.931 . S
H329 C317 0.930 . S
H330 C318 0.956 . S
H331 C318 0.961 . S
H332 C318 0.961 . S
H333 C319 0.958 . S
H334 C319 0.961 . S
H335 C319 0.960 . S
C336 C337 1.391 . S
C336 C338 1.394 . S
C336 H352 0.931 . S
C337 C336 1.391 . S
C337 C341 1.377 . S
C338 C336 1.394 . S
C338 C339 1.369 . S
C338 C342 1.531 . S
C339 C338 1.369 . S
C339 C340 1.410 1_655 S
C339 C347 1.503 1_655 S
C340 C339 1.410 1_455 S
C340 C341 1.392 1_455 S
C340 C343 1.511 . S
C341 C337 1.377 . S
C341 C340 1.392 1_655 S
C341 H353 0.928 1_655 S
C342 C338 1.531 . S
C342 H354 0.960 . S
C342 H355 0.962 . S
C342 H356 0.960 . S
C343 C340 1.511 . S
C343 H357 0.961 . S
C343 H358 0.961 . S
C343 H359 0.961 . S
C344 C345 1.370 . S
C344 C346 1.363 1_455 S
C344 H360 0.932 1_455 S
C345 C344 1.370 . S
C345 C349 1.408 . S
C346 C344 1.363 1_655 S
C346 C347 1.370 1_655 S
C346 C350 1.524 . S
C347 C339 1.503 1_455 S
C347 C346 1.370 1_455 S
C347 C348 1.403 . S
C348 C347 1.403 . S
C348 C349 1.404 . S
C348 C351 1.539 . S
C349 C345 1.408 . S
C349 C348 1.404 . S
C349 H361 0.930 . S
C350 C346 1.524 . S
C350 H362 0.956 . S
C350 H363 0.961 . S
C350 H364 0.961 . S
C351 C348 1.539 . S
C351 H365 0.958 . S
C351 H366 0.961 . S
C351 H367 0.960 . S
H352 C336 0.931 . S
H353 C341 0.928 1_455 S
H354 C342 0.960 . S
H355 C342 0.962 . S
H356 C342 0.960 . S
H357 C343 0.961 . S
H358 C343 0.961 . S
H359 C343 0.961 . S
H360 C344 0.932 1_655 S
H361 C349 0.930 . S
H362 C350 0.956 . S
H363 C350 0.961 . S
H364 C350 0.961 . S
H365 C351 0.958 . S
H366 C351 0.961 . S
H367 C351 0.960 . S
C368 C369 1.391 . S
C368 C370 1.394 . S
C368 H384 0.931 . S
C369 C368 1.391 . S
C369 C373 1.376 . S
C370 C368 1.394 . S
C370 C371 1.369 . S
C370 C374 1.531 1_655 S
C371 C370 1.369 . S
C371 C372 1.410 . S
C371 C379 1.503 . S
C372 C371 1.410 . S
C372 C373 1.392 . S
C372 C375 1.511 . S
C373 C369 1.376 . S
C373 C372 1.392 . S
C373 H385 0.929 . S
C374 C370 1.531 1_455 S
C374 H386 0.960 . S
C374 H387 0.962 . S
C374 H388 0.960 . S
C375 C372 1.511 . S
C375 H389 0.961 . S
C375 H390 0.961 . S
C375 H391 0.961 . S
C376 C377 1.370 . S
C376 C378 1.363 . S
C376 H392 0.931 . S
C377 C376 1.370 . S
C377 C381 1.408 1_455 S
C378 C376 1.363 . S
C378 C379 1.370 1_455 S
C378 C382 1.524 . S
C379 C371 1.503 . S
C379 C378 1.370 1_655 S
C379 C380 1.403 . S
C380 C379 1.403 . S
C380 C381 1.404 . S
C380 C383 1.539 . S
C381 C377 1.408 1_655 S
C381 C380 1.404 . S
C381 H393 0.930 . S
C382 C378 1.524 . S
C382 H394 0.956 . S
C382 H395 0.961 . S
C382 H396 0.961 . S
C383 C380 1.539 . S
C383 H397 0.958 . S
C383 H398 0.961 . S
C383 H399 0.960 . S
H384 C368 0.931 . S
H385 C373 0.929 . S
H386 C374 0.960 . S
H387 C374 0.962 . S
H388 C374 0.960 . S
H389 C375 0.961 . S
H390 C375 0.961 . S
H391 C375 0.961 . S
H392 C376 0.931 . S
H393 C381 0.930 . S
H394 C382 0.956 . S
H395 C382 0.961 . S
H396 C382 0.961 . S
H397 C383 0.958 . S
H398 C383 0.961 . S
H399 C383 0.960 . S
C400 C401 1.391 . S
C400 C402 1.394 . S
C400 H416 0.931 . S
C401 C400 1.391 . S
C401 C405 1.376 . S
C402 C400 1.394 . S
C402 C403 1.369 . S
C402 C406 1.531 . S
C403 C402 1.369 . S
C403 C404 1.410 1_655 S
C403 C411 1.503 1_655 S
C404 C403 1.410 1_455 S
C404 C405 1.392 1_455 S
C404 C407 1.511 . S
C405 C401 1.376 . S
C405 C404 1.392 1_655 S
C405 H417 0.929 1_655 S
C406 C402 1.531 . S
C406 H418 0.960 . S
C406 H419 0.962 . S
C406 H420 0.960 . S
C407 C404 1.511 . S
C407 H421 0.961 . S
C407 H422 0.961 . S
C407 H423 0.961 . S
C408 C409 1.370 . S
C408 C410 1.363 1_455 S
C408 H424 0.931 1_455 S
C409 C408 1.370 . S
C409 C413 1.408 . S
C410 C408 1.363 1_655 S
C410 C411 1.370 1_655 S
C410 C414 1.524 . S
C411 C403 1.503 1_455 S
C411 C410 1.370 1_455 S
C411 C412 1.403 . S
C412 C411 1.403 . S
C412 C413 1.404 . S
C412 C415 1.539 . S
C413 C409 1.408 . S
C413 C412 1.404 . S
C413 H425 0.930 . S
C414 C410 1.524 . S
C414 H426 0.956 . S
C414 H427 0.961 . S
C414 H428 0.961 . S
C415 C412 1.539 . S
C415 H429 0.958 . S
C415 H430 0.961 . S
C415 H431 0.960 . S
H416 C400 0.931 . S
H417 C405 0.929 1_455 S
H418 C406 0.960 . S
H419 C406 0.962 . S
H420 C406 0.960 . S
H421 C407 0.961 . S
H422 C407 0.961 . S
H423 C407 0.961 . S
H424 C408 0.931 1_655 S
H425 C413 0.930 . S
H426 C414 0.956 . S
H427 C414 0.961 . S
H428 C414 0.961 . S
H429 C415 0.958 . S
H430 C415 0.961 . S
H431 C415 0.960 . S
C432 C433 1.391 1_655 S
C432 C434 1.394 . S
C432 H448 0.931 . S
C433 C432 1.391 1_455 S
C433 C437 1.376 . S
C434 C432 1.394 . S
C434 C435 1.369 1_655 S
C434 C438 1.531 . S
C435 C434 1.369 1_455 S
C435 C436 1.410 . S
C435 C443 1.503 1_455 S
C436 C435 1.410 . S
C436 C437 1.392 . S
C436 C439 1.511 . S
C437 C433 1.376 . S
C437 C436 1.392 . S
C437 H449 0.929 . S
C438 C434 1.531 . S
C438 H450 0.960 . S
C438 H451 0.962 . S
C438 H452 0.960 . S
C439 C436 1.511 . S
C439 H453 0.961 . S
C439 H454 0.961 . S
C439 H455 0.961 . S
C440 C441 1.370 . S
C440 C442 1.363 . S
C440 H456 0.931 . S
C441 C440 1.370 . S
C441 C445 1.408 . S
C442 C440 1.363 . S
C442 C443 1.370 . S
C442 C446 1.524 . S
C443 C435 1.503 1_655 S
C443 C442 1.370 . S
C443 C444 1.403 . S
C444 C443 1.403 . S
C444 C445 1.404 . S
C444 C447 1.539 1_655 S
C445 C441 1.408 . S
C445 C444 1.404 . S
C445 H457 0.930 . S
C446 C442 1.524 . S
C446 H458 0.956 . S
C446 H459 0.961 1_655 S
C446 H460 0.961 . S
C447 C444 1.539 1_455 S
C447 H461 0.958 1_455 S
C447 H462 0.961 . S
C447 H463 0.960 . S
H448 C432 0.931 . S
H449 C437 0.929 . S
H450 C438 0.960 . S
H451 C438 0.962 . S
H452 C438 0.960 . S
H453 C439 0.961 . S
H454 C439 0.961 . S
H455 C439 0.961 . S
H456 C440 0.931 . S
H457 C445 0.930 . S
H458 C446 0.956 . S
H459 C446 0.961 1_455 S
H460 C446 0.961 . S
H461 C447 0.958 1_655 S
H462 C447 0.961 . S
H463 C447 0.960 . S
C81 C29 1.506 . S
C89 C8 1.529 1_556 S
C113 C49 1.520 . S
C121 C68 1.524 . S
C145 C9 1.506 1_554 S
C153 C28 1.531 . S
C177 C69 1.533 . S
C185 C48 1.517 . S
C209 C78 1.250 . S
C217 C18 1.240 . S
C241 C22 1.181 . S
C249 C42 1.186 . S
C273 C39 1.224 . S
C281 C59 1.231 . S
C305 C61 1.183 . S
C313 C1 1.185 . S
C337 C38 1.251 . S
C345 C58 1.240 . S
C369 C62 1.184 . S
C377 C2 1.184 . S
C401 C79 1.218 . S
C409 C19 1.228 . S
C433 C41 1.183 . S
C441 C21 1.185 . S
