# Generated by pormake.
# Topology gme, (4)-cn, num edge types: 1
# Building blocks:
#     Node 0, Type 0, BuildingBlock: QUQFOY_clean_sbu_3, # of connection points: 4
#     Node 1, Type 0, BuildingBlock: QUQFOY_clean_sbu_3, # of connection points: 4
#     Node 2, Type 0, BuildingBlock: QUQFOY_clean_sbu_3, # of connection points: 4
#     Node 3, Type 0, BuildingBlock: QUQFOY_clean_sbu_3, # of connection points: 4
#     Node 4, Type 0, BuildingBlock: QUQFOY_clean_sbu_3, # of connection points: 4
#     Node 5, Type 0, BuildingBlock: QUQFOY_clean_sbu_3, # of connection points: 4
#     Node 6, Type 0, BuildingBlock: QUQFOY_clean_sbu_3, # of connection points: 4
#     Node 7, Type 0, BuildingBlock: QUQFOY_clean_sbu_3, # of connection points: 4
#     Node 8, Type 0, BuildingBlock: QUQFOY_clean_sbu_3, # of connection points: 4
#     Node 9, Type 0, BuildingBlock: QUQFOY_clean_sbu_3, # of connection points: 4
#     Node 10, Type 0, BuildingBlock: QUQFOY_clean_sbu_3, # of connection points: 4
#     Node 11, Type 0, BuildingBlock: QUQFOY_clean_sbu_3, # of connection points: 4
#     Node 12, Type 0, BuildingBlock: QUQFOY_clean_sbu_3, # of connection points: 4
#     Node 13, Type 0, BuildingBlock: QUQFOY_clean_sbu_3, # of connection points: 4
#     Node 14, Type 0, BuildingBlock: QUQFOY_clean_sbu_3, # of connection points: 4
#     Node 15, Type 0, BuildingBlock: QUQFOY_clean_sbu_3, # of connection points: 4
#     Node 16, Type 0, BuildingBlock: QUQFOY_clean_sbu_3, # of connection points: 4
#     Node 17, Type 0, BuildingBlock: QUQFOY_clean_sbu_3, # of connection points: 4
#     Node 18, Type 0, BuildingBlock: QUQFOY_clean_sbu_3, # of connection points: 4
#     Node 19, Type 0, BuildingBlock: QUQFOY_clean_sbu_3, # of connection points: 4
#     Node 20, Type 0, BuildingBlock: QUQFOY_clean_sbu_3, # of connection points: 4
#     Node 21, Type 0, BuildingBlock: QUQFOY_clean_sbu_3, # of connection points: 4
#     Node 22, Type 0, BuildingBlock: QUQFOY_clean_sbu_3, # of connection points: 4
#     Node 23, Type 0, BuildingBlock: QUQFOY_clean_sbu_3, # of connection points: 4
#     Edge 24, Type (0, 0), None
#     Edge 25, Type (0, 0), None
#     Edge 26, Type (0, 0), None
#     Edge 27, Type (0, 0), None
#     Edge 28, Type (0, 0), None
#     Edge 29, Type (0, 0), None
#     Edge 30, Type (0, 0), None
#     Edge 31, Type (0, 0), None
#     Edge 32, Type (0, 0), None
#     Edge 33, Type (0, 0), None
#     Edge 34, Type (0, 0), None
#     Edge 35, Type (0, 0), None
#     Edge 36, Type (0, 0), None
#     Edge 37, Type (0, 0), None
#     Edge 38, Type (0, 0), None
#     Edge 39, Type (0, 0), None
#     Edge 40, Type (0, 0), None
#     Edge 41, Type (0, 0), None
#     Edge 42, Type (0, 0), None
#     Edge 43, Type (0, 0), None
#     Edge 44, Type (0, 0), None
#     Edge 45, Type (0, 0), None
#     Edge 46, Type (0, 0), None
#     Edge 47, Type (0, 0), None
#     Edge 48, Type (0, 0), None
#     Edge 49, Type (0, 0), None
#     Edge 50, Type (0, 0), None
#     Edge 51, Type (0, 0), None
#     Edge 52, Type (0, 0), None
#     Edge 53, Type (0, 0), None
#     Edge 54, Type (0, 0), None
#     Edge 55, Type (0, 0), None
#     Edge 56, Type (0, 0), None
#     Edge 57, Type (0, 0), None
#     Edge 58, Type (0, 0), None
#     Edge 59, Type (0, 0), None
#     Edge 60, Type (0, 0), None
#     Edge 61, Type (0, 0), None
#     Edge 62, Type (0, 0), None
#     Edge 63, Type (0, 0), None
#     Edge 64, Type (0, 0), None
#     Edge 65, Type (0, 0), None
#     Edge 66, Type (0, 0), None
#     Edge 67, Type (0, 0), None
#     Edge 68, Type (0, 0), None
#     Edge 69, Type (0, 0), None
#     Edge 70, Type (0, 0), None
#     Edge 71, Type (0, 0), None
# Relax obj value: 0.072
# Max RMSD: 0.099
# Mean RMSD: 0.099
data_MOF--net-gme--node1-QUQFOY_clean_sbu_3--edge1-none
_symmetry_space_group_name_H-M    P1
_symmetry_Int_Tables_number       1
_symmetry_cell_setting            triclinic
loop_
_symmetry_equiv_pos_as_xyz
'x, y, z'
_cell_length_a     25.294511
_cell_length_b     25.292862
_cell_length_c     27.533112
_cell_angle_alpha  90.008629
_cell_angle_beta   89.994047
_cell_angle_gamma 119.99748
loop_
_atom_site_label
_atom_site_type_symbol
_atom_site_fract_x
_atom_site_fract_y
_atom_site_fract_z
_atom_type_partial_charge
C0 C 0.44566 0.1935 0.13464 0.0
O1 O 0.49484 0.19568 0.14771 0.0
Cd2 Cd 0.50868 0.1121 0.15193 0.0
O3 O 0.39996 0.14405 0.11883 0.0
Cd4 Cd 0.37227 0.03439 0.09751 0.0
C5 C 0.36335 0.01311 0.20582 0.0
O6 O 0.4797 0.0696 0.07489 0.0
O7 O 0.42918 0.9745 0.09134 0.0
O8 O 0.34358 0.06094 0.02053 0.0
C9 C 0.47894 0.01943 0.07662 0.0
O10 O 0.41398 0.04766 0.18617 0.0
C11 C 0.30616 0.00649 0.00825 0.0
O12 O 0.31694 0.98852 0.17839 0.0
O13 O 0.29354 0.96558 0.04017 0.0
C14 C 0.25058 0.44651 0.63461 0.0
O15 O 0.29759 0.49572 0.6476 0.0
Cd16 Cd 0.39499 0.50947 0.65179 0.0
O17 O 0.25432 0.40078 0.61887 0.0
Cd18 Cd 0.33631 0.37312 0.59758 0.0
C19 C 0.34866 0.36424 0.70598 0.0
O20 O 0.40856 0.48047 0.57476 0.0
O21 O 0.45309 0.42998 0.59148 0.0
O22 O 0.28099 0.34431 0.52064 0.0
C23 C 0.45795 0.4797 0.57659 0.0
O24 O 0.36479 0.41494 0.68643 0.0
C25 C 0.29808 0.30694 0.50836 0.0
O26 O 0.32685 0.31789 0.67847 0.0
O27 O 0.32642 0.29437 0.54026 0.0
C28 C 0.80266 0.25134 0.1348 0.0
O29 O 0.8005 0.29835 0.14792 0.0
Cd30 Cd 0.88413 0.3958 0.15211 0.0
O31 O 0.8521 0.2551 0.11895 0.0
Cd32 Cd 0.96175 0.33703 0.09763 0.0
C33 C 0.9831 0.3494 0.20591 0.0
O34 O 0.92653 0.40925 0.07498 0.0
O35 O 0.02163 0.45379 0.09139 0.0
O36 O 0.93515 0.28171 0.02068 0.0
C37 C 0.97671 0.45862 0.07663 0.0
O38 O 0.94857 0.36549 0.18624 0.0
C39 C 0.98959 0.29879 0.00835 0.0
O40 O 0.00768 0.32756 0.17848 0.0
O41 O 0.03054 0.32714 0.04023 0.0
C42 C 0.54974 0.80351 0.63477 0.0
O43 O 0.50062 0.80134 0.648 0.0
Cd44 Cd 0.4867 0.88487 0.65238 0.0
O45 O 0.59539 0.85296 0.61889 0.0
Cd46 Cd 0.62319 0.96269 0.59763 0.0
C47 C 0.63219 0.98396 0.70579 0.0
O48 O 0.51559 0.92725 0.57529 0.0
O49 O 0.56617 0.02248 0.59127 0.0
O50 O 0.65184 0.93602 0.52066 0.0
C51 C 0.51632 0.9774 0.57684 0.0
O52 O 0.58174 0.9495 0.68587 0.0
C53 C 0.68921 0.99045 0.50832 0.0
O54 O 0.67874 0.00871 0.67851 0.0
O55 O 0.70181 0.03143 0.54018 0.0
C56 C 0.74462 0.55043 0.13467 0.0
O57 O 0.69763 0.50129 0.14783 0.0
Cd58 Cd 0.60024 0.48753 0.15217 0.0
O59 O 0.74088 0.59614 0.11888 0.0
Cd60 Cd 0.65899 0.62396 0.09765 0.0
C61 C 0.64672 0.63293 0.20591 0.0
O62 O 0.58679 0.51647 0.07507 0.0
O63 O 0.54221 0.56702 0.09139 0.0
O64 O 0.71435 0.65268 0.02072 0.0
C65 C 0.53739 0.51724 0.07671 0.0
O66 O 0.63064 0.58237 0.18613 0.0
C67 C 0.69726 0.69002 0.00838 0.0
O68 O 0.66855 0.67941 0.17855 0.0
O69 O 0.66887 0.70261 0.04024 0.0
C70 C 0.19279 0.74573 0.63484 0.0
O71 O 0.195 0.69873 0.64784 0.0
Cd72 Cd 0.1114 0.60127 0.65193 0.0
O73 O 0.14333 0.74195 0.61903 0.0
Cd74 Cd 0.0337 0.6599 0.59766 0.0
C75 C 0.01237 0.64751 0.70604 0.0
O76 O 0.06884 0.58766 0.57491 0.0
O77 O 0.97378 0.54313 0.5915 0.0
O78 O 0.06025 0.71526 0.52077 0.0
C79 C 0.01867 0.53827 0.57667 0.0
O80 O 0.04698 0.63142 0.68651 0.0
C81 C 0.00581 0.69814 0.50843 0.0
O82 O 0.98783 0.66931 0.67852 0.0
O83 O 0.96485 0.66974 0.5403 0.0
C84 C 0.80287 0.55067 0.33012 0.0
O85 O 0.80077 0.50164 0.31665 0.0
Cd86 Cd 0.88422 0.4875 0.31218 0.0
O87 O 0.85227 0.59625 0.34615 0.0
Cd88 Cd 0.96206 0.62424 0.36743 0.0
C89 C 0.98327 0.63314 0.25947 0.0
O90 O 0.92639 0.51642 0.38945 0.0
O91 O 0.02176 0.56716 0.37401 0.0
O92 O 0.9353 0.65276 0.44443 0.0
C93 C 0.9766 0.51724 0.3882 0.0
O94 O 0.94901 0.58296 0.27979 0.0
C95 C 0.98973 0.6901 0.45679 0.0
O96 O 0.00824 0.67992 0.28649 0.0
O97 O 0.03074 0.70277 0.42495 0.0
C98 C 0.25051 0.80315 0.83066 0.0
O99 O 0.29757 0.80087 0.81796 0.0
Cd100 Cd 0.39484 0.88466 0.81379 0.0
O101 O 0.25424 0.8527 0.84619 0.0
Cd102 Cd 0.33631 0.96229 0.86748 0.0
C103 C 0.34862 0.98352 0.75895 0.0
O104 O 0.40863 0.92743 0.89073 0.0
O105 O 0.4531 0.02225 0.87333 0.0
O106 O 0.28097 0.93582 0.94438 0.0
C107 C 0.45801 0.97758 0.88862 0.0
O108 O 0.36482 0.94885 0.77827 0.0
C109 C 0.29808 0.99029 0.95663 0.0
O110 O 0.32687 0.00799 0.78662 0.0
O111 O 0.32642 0.03121 0.92472 0.0
C112 C 0.44572 0.25136 0.33045 0.0
O113 O 0.49492 0.29837 0.31743 0.0
Cd114 Cd 0.50871 0.39579 0.31324 0.0
O115 O 0.4 0.2551 0.34621 0.0
Cd116 Cd 0.37233 0.33708 0.36752 0.0
C117 C 0.36344 0.34943 0.25915 0.0
O118 O 0.47972 0.4093 0.39028 0.0
O119 O 0.42924 0.45387 0.37366 0.0
O120 O 0.34355 0.28177 0.44446 0.0
C121 C 0.47897 0.45871 0.38849 0.0
O122 O 0.41411 0.36555 0.27874 0.0
C123 C 0.30619 0.29887 0.45673 0.0
O124 O 0.31707 0.32762 0.28663 0.0
O125 O 0.29359 0.3272 0.42484 0.0
C126 C 0.19272 0.44643 0.83045 0.0
O127 O 0.19491 0.49563 0.81742 0.0
Cd128 Cd 0.1113 0.50941 0.81321 0.0
O129 O 0.14325 0.40072 0.84621 0.0
Cd130 Cd 0.03358 0.37301 0.8675 0.0
C131 C 0.01235 0.36415 0.75915 0.0
O132 O 0.06872 0.4804 0.89021 0.0
O133 O 0.97365 0.42987 0.87366 0.0
O134 O 0.06016 0.34424 0.94441 0.0
C135 C 0.01856 0.47963 0.88844 0.0
O136 O 0.04691 0.41481 0.77877 0.0
C137 C 0.00571 0.30689 0.95672 0.0
O138 O 0.98778 0.31775 0.78661 0.0
O139 O 0.96475 0.29429 0.92485 0.0
C140 C 0.74477 0.19348 0.33035 0.0
O141 O 0.69776 0.19565 0.31729 0.0
Cd142 Cd 0.60035 0.11202 0.3131 0.0
O143 O 0.74102 0.14403 0.34614 0.0
Cd144 Cd 0.65905 0.03438 0.36745 0.0
C145 C 0.64671 0.01308 0.25909 0.0
O146 O 0.58681 0.06954 0.39015 0.0
O147 O 0.54228 0.97446 0.37363 0.0
O148 O 0.7144 0.06099 0.44436 0.0
C149 C 0.53743 0.01937 0.38841 0.0
O150 O 0.63059 0.04765 0.27865 0.0
C151 C 0.69727 0.00654 0.45669 0.0
O152 O 0.66853 0.98854 0.28659 0.0
O153 O 0.66891 0.96556 0.42482 0.0
C154 C 0.54971 0.7455 0.83034 0.0
O155 O 0.50057 0.69852 0.81717 0.0
Cd156 Cd 0.48674 0.60108 0.81285 0.0
O157 O 0.59539 0.74173 0.84618 0.0
Cd158 Cd 0.6232 0.65984 0.86746 0.0
C159 C 0.63219 0.64754 0.75926 0.0
O160 O 0.51567 0.58764 0.88996 0.0
O161 O 0.56624 0.54304 0.87375 0.0
O162 O 0.65188 0.71518 0.9444 0.0
C163 C 0.51644 0.53824 0.88836 0.0
O164 O 0.58169 0.6315 0.77912 0.0
C165 C 0.68921 0.69806 0.95674 0.0
O166 O 0.67872 0.66938 0.78657 0.0
O167 O 0.70183 0.66969 0.92488 0.0
C168 C 0.54969 0.80341 0.8304 0.0
O169 O 0.5005 0.80123 0.81737 0.0
Cd170 Cd 0.48672 0.88488 0.8132 0.0
O171 O 0.5954 0.85287 0.84617 0.0
Cd172 Cd 0.62309 0.96252 0.86746 0.0
C173 C 0.63198 0.98377 0.75909 0.0
O174 O 0.51572 0.92736 0.89029 0.0
O175 O 0.56622 0.02242 0.87365 0.0
O176 O 0.6519 0.93596 0.94436 0.0
C177 C 0.51652 0.97754 0.88852 0.0
O178 O 0.5813 0.94922 0.77867 0.0
C179 C 0.68923 0.99041 0.95669 0.0
O180 O 0.67835 0.00835 0.78658 0.0
O181 O 0.70179 0.03136 0.92482 0.0
C182 C 0.74491 0.55058 0.33026 0.0
O183 O 0.69793 0.50141 0.31715 0.0
Cd184 Cd 0.60044 0.48749 0.31297 0.0
O185 O 0.74111 0.59624 0.34613 0.0
Cd186 Cd 0.65911 0.62388 0.36748 0.0
C187 C 0.64676 0.63287 0.25921 0.0
O188 O 0.58689 0.51639 0.39007 0.0
O189 O 0.54233 0.56699 0.37372 0.0
O190 O 0.71437 0.65259 0.44445 0.0
C191 C 0.53751 0.51721 0.3884 0.0
O192 O 0.63071 0.58226 0.27888 0.0
C193 C 0.6973 0.68996 0.45676 0.0
O194 O 0.66855 0.67929 0.28664 0.0
O195 O 0.66897 0.70257 0.42486 0.0
C196 C 0.19253 0.74531 0.83041 0.0
O197 O 0.19464 0.69834 0.8171 0.0
Cd198 Cd 0.11103 0.60093 0.81261 0.0
O199 O 0.1431 0.74156 0.84628 0.0
Cd200 Cd 0.03335 0.65974 0.86747 0.0
C201 C 0.01211 0.64755 0.75935 0.0
O202 O 0.06878 0.58755 0.88981 0.0
O203 O 0.97354 0.54295 0.87385 0.0
O204 O 0.06005 0.71502 0.94446 0.0
C205 C 0.01859 0.53817 0.88833 0.0
O206 O 0.04648 0.6315 0.77933 0.0
C207 C 0.00563 0.69795 0.95682 0.0
O208 O 0.98733 0.66937 0.78658 0.0
O209 O 0.96466 0.66963 0.92495 0.0
C210 C 0.44569 0.19343 0.33037 0.0
O211 O 0.49485 0.19561 0.31722 0.0
Cd212 Cd 0.50865 0.11199 0.31288 0.0
O213 O 0.4 0.14396 0.34615 0.0
Cd214 Cd 0.3722 0.03425 0.36737 0.0
C215 C 0.36327 0.01305 0.25912 0.0
O216 O 0.4797 0.06956 0.38998 0.0
O217 O 0.42914 0.9744 0.37368 0.0
O218 O 0.34339 0.0609 0.44423 0.0
C219 C 0.47891 0.01939 0.38833 0.0
O220 O 0.41381 0.04752 0.27891 0.0
C221 C 0.3061 0.00646 0.45662 0.0
O222 O 0.31678 0.98835 0.28648 0.0
O223 O 0.29357 0.96546 0.42479 0.0
C224 C 0.25062 0.44641 0.83037 0.0
O225 O 0.29759 0.49554 0.81716 0.0
Cd226 Cd 0.39505 0.50946 0.81278 0.0
O227 O 0.25441 0.40074 0.84621 0.0
Cd228 Cd 0.33633 0.37294 0.86745 0.0
C229 C 0.34859 0.36399 0.75928 0.0
O230 O 0.40853 0.48052 0.88989 0.0
O231 O 0.45311 0.42989 0.87378 0.0
O232 O 0.281 0.34426 0.9444 0.0
C233 C 0.45791 0.47972 0.88831 0.0
O234 O 0.36461 0.41443 0.77923 0.0
C235 C 0.29809 0.30692 0.95674 0.0
O236 O 0.32679 0.31741 0.78653 0.0
O237 O 0.32647 0.29432 0.92488 0.0
C238 C 0.80269 0.25139 0.33027 0.0
O239 O 0.80051 0.29835 0.31705 0.0
Cd240 Cd 0.88406 0.3958 0.31269 0.0
O241 O 0.85214 0.2552 0.34615 0.0
Cd242 Cd 0.96184 0.33714 0.36742 0.0
C243 C 0.98314 0.34937 0.25921 0.0
O244 O 0.92645 0.40933 0.38979 0.0
O245 O 0.02168 0.45394 0.37378 0.0
O246 O 0.93517 0.28185 0.44438 0.0
C247 C 0.97662 0.45872 0.38823 0.0
O248 O 0.94864 0.36541 0.27901 0.0
C249 C 0.9896 0.29892 0.45673 0.0
O250 O 0.00785 0.3276 0.28657 0.0
O251 O 0.03058 0.32727 0.42487 0.0
C252 C 0.19265 0.44647 0.63471 0.0
O253 O 0.19481 0.49562 0.64789 0.0
Cd254 Cd 0.11122 0.50947 0.65225 0.0
O255 O 0.14319 0.40079 0.61888 0.0
Cd256 Cd 0.03349 0.373 0.59764 0.0
C257 C 0.01225 0.36402 0.70585 0.0
O258 O 0.06885 0.48053 0.57512 0.0
O259 O 0.97367 0.42996 0.59134 0.0
O260 O 0.06012 0.34428 0.52071 0.0
C261 C 0.01868 0.47975 0.57674 0.0
O262 O 0.04671 0.41454 0.68602 0.0
C263 C 0.00567 0.30697 0.50837 0.0
O264 O 0.98754 0.3175 0.67852 0.0
O265 O 0.96469 0.29437 0.54022 0.0
C266 C 0.74475 0.19342 0.13485 0.0
O267 O 0.69778 0.19557 0.14809 0.0
Cd268 Cd 0.60031 0.11198 0.1524 0.0
O269 O 0.74095 0.14398 0.11895 0.0
Cd270 Cd 0.65906 0.03427 0.09764 0.0
C271 C 0.64679 0.01294 0.20579 0.0
O272 O 0.58687 0.06967 0.07523 0.0
O273 O 0.54228 0.97444 0.09127 0.0
O274 O 0.71436 0.06096 0.02067 0.0
C275 C 0.53749 0.01948 0.07675 0.0
O276 O 0.63076 0.04739 0.1859 0.0
C277 C 0.69727 0.00652 0.00833 0.0
O278 O 0.6686 0.98821 0.1785 0.0
O279 O 0.66894 0.96553 0.04018 0.0
C280 C 0.54973 0.74559 0.6347 0.0
O281 O 0.50055 0.69859 0.64777 0.0
Cd282 Cd 0.48672 0.60116 0.65199 0.0
O283 O 0.59542 0.74183 0.61891 0.0
Cd284 Cd 0.62308 0.65984 0.59761 0.0
C285 C 0.63202 0.64752 0.70596 0.0
O286 O 0.51566 0.58762 0.57492 0.0
O287 O 0.5662 0.54305 0.59142 0.0
O288 O 0.65185 0.71514 0.52067 0.0
C289 C 0.51646 0.53823 0.57666 0.0
O290 O 0.58135 0.63141 0.68637 0.0
C291 C 0.6892 0.69803 0.50838 0.0
O292 O 0.67839 0.66931 0.67848 0.0
O293 O 0.7018 0.66969 0.54027 0.0
C294 C 0.80249 0.55035 0.13456 0.0
O295 O 0.80025 0.50108 0.14743 0.0
Cd296 Cd 0.88393 0.48741 0.15162 0.0
O297 O 0.852 0.5961 0.11891 0.0
Cd298 Cd 0.96163 0.62369 0.09765 0.0
C299 C 0.98282 0.6326 0.20613 0.0
O300 O 0.92659 0.51639 0.07462 0.0
O301 O 0.02155 0.56683 0.0916 0.0
O302 O 0.93507 0.65251 0.02075 0.0
C303 C 0.97674 0.51716 0.07659 0.0
O304 O 0.94823 0.58188 0.18658 0.0
C305 C 0.98952 0.68985 0.00845 0.0
O306 O 0.00742 0.67891 0.17861 0.0
O307 O 0.03048 0.70242 0.04032 0.0
C308 C 0.25065 0.80372 0.63509 0.0
O309 O 0.29753 0.80163 0.64872 0.0
Cd310 Cd 0.39519 0.88497 0.65327 0.0
O311 O 0.2545 0.8531 0.61896 0.0
Cd312 Cd 0.33628 0.96291 0.5977 0.0
C313 C 0.34854 0.98413 0.70564 0.0
O314 O 0.40839 0.92709 0.57596 0.0
O315 O 0.45303 0.02261 0.5909 0.0
O316 O 0.28098 0.93605 0.5207 0.0
C317 C 0.45776 0.97732 0.57701 0.0
O318 O 0.36444 0.94989 0.68525 0.0
C319 C 0.29807 0.99047 0.50827 0.0
O320 O 0.32679 0.00917 0.67867 0.0
O321 O 0.3264 0.03152 0.54009 0.0
C322 C 0.44564 0.25141 0.1347 0.0
O323 O 0.49478 0.29838 0.14788 0.0
Cd324 Cd 0.50865 0.39583 0.15224 0.0
O325 O 0.39996 0.25519 0.11888 0.0
Cd326 Cd 0.37215 0.3371 0.09765 0.0
C327 C 0.36323 0.34937 0.20584 0.0
O328 O 0.47969 0.40931 0.07514 0.0
O329 O 0.42908 0.45389 0.09135 0.0
O330 O 0.34347 0.28176 0.02071 0.0
C331 C 0.47889 0.4587 0.07676 0.0
O332 O 0.41371 0.36541 0.18595 0.0
C333 C 0.30614 0.29888 0.00838 0.0
O334 O 0.31669 0.32757 0.17857 0.0
O335 O 0.29352 0.32724 0.04024 0.0
loop_
_geom_bond_atom_site_label_1
_geom_bond_atom_site_label_2
_geom_bond_distance
_geom_bond_site_symmetry_2
_ccdc_geom_bond_type
C0 O1 1.306 . S
C0 O3 1.160 . S
O1 C0 1.306 . S
O1 Cd2 2.228 . S
Cd2 O1 2.228 . S
Cd2 O6 2.273 . S
Cd2 O10 2.277 . S
O3 C0 1.160 . S
O3 Cd4 2.203 . S
Cd4 O3 2.203 . S
Cd4 O6 2.411 . S
Cd4 O7 2.333 . S
Cd4 O8 2.352 . S
Cd4 O12 2.281 . S
Cd4 O13 2.356 1_545 S
C5 O10 1.209 . S
C5 O12 1.233 . S
O6 Cd2 2.273 . S
O6 Cd4 2.411 . S
O6 C9 1.320 . S
O7 Cd4 2.333 . S
O7 C9 1.214 . S
O8 Cd4 2.352 . S
O8 C11 1.258 1_545 S
C9 O6 1.320 . S
C9 O7 1.214 . S
O10 Cd2 2.277 . S
O10 C5 1.209 . S
C11 O8 1.258 1_565 S
C11 O13 1.282 . S
O12 Cd4 2.281 . S
O12 C5 1.233 . S
O13 Cd4 2.356 1_565 S
O13 C11 1.282 . S
C14 O15 1.306 . S
C14 O17 1.160 . S
O15 C14 1.306 . S
O15 Cd16 2.228 . S
Cd16 O15 2.228 . S
Cd16 O20 2.273 . S
Cd16 O24 2.277 . S
O17 C14 1.160 . S
O17 Cd18 2.203 . S
Cd18 O17 2.203 . S
Cd18 O20 2.411 . S
Cd18 O21 2.333 . S
Cd18 O22 2.352 . S
Cd18 O26 2.277 . S
Cd18 O27 2.356 . S
C19 O24 1.209 . S
C19 O26 1.226 . S
O20 Cd16 2.273 . S
O20 Cd18 2.411 . S
O20 C23 1.320 . S
O21 Cd18 2.333 . S
O21 C23 1.214 . S
O22 Cd18 2.352 . S
O22 C25 1.258 . S
C23 O20 1.320 . S
C23 O21 1.214 . S
O24 Cd16 2.277 . S
O24 C19 1.209 . S
C25 O22 1.258 . S
C25 O27 1.282 . S
O26 Cd18 2.277 . S
O26 C19 1.226 . S
O27 Cd18 2.356 . S
O27 C25 1.282 . S
C28 O29 1.306 . S
C28 O31 1.160 . S
O29 C28 1.306 . S
O29 Cd30 2.228 . S
Cd30 O29 2.228 . S
Cd30 O34 2.273 . S
Cd30 O38 2.277 . S
O31 C28 1.160 . S
O31 Cd32 2.203 . S
Cd32 O31 2.203 . S
Cd32 O34 2.411 . S
Cd32 O35 2.333 . S
Cd32 O36 2.352 . S
Cd32 O40 2.287 . S
Cd32 O41 2.356 1_655 S
C33 O38 1.209 . S
C33 O40 1.240 . S
O34 Cd30 2.273 . S
O34 Cd32 2.411 . S
O34 C37 1.320 . S
O35 Cd32 2.333 . S
O35 C37 1.214 . S
O36 Cd32 2.352 . S
O36 C39 1.258 1_655 S
C37 O34 1.320 . S
C37 O35 1.214 . S
O38 Cd30 2.277 . S
O38 C33 1.209 . S
C39 O36 1.258 1_455 S
C39 O41 1.282 . S
O40 Cd32 2.287 . S
O40 C33 1.240 . S
O41 Cd32 2.356 1_455 S
O41 C39 1.282 . S
C42 O43 1.306 . S
C42 O45 1.160 . S
O43 C42 1.306 . S
O43 Cd44 2.228 . S
Cd44 O43 2.228 . S
Cd44 O48 2.273 . S
Cd44 O52 2.277 . S
O45 C42 1.160 . S
O45 Cd46 2.203 . S
Cd46 O45 2.203 . S
Cd46 O48 2.411 . S
Cd46 O49 2.333 . S
Cd46 O50 2.352 . S
Cd46 O54 2.281 . S
Cd46 O55 2.356 1_565 S
C47 O52 1.209 . S
C47 O54 1.233 . S
O48 Cd44 2.273 . S
O48 Cd46 2.411 . S
O48 C51 1.320 . S
O49 Cd46 2.333 . S
O49 C51 1.214 . S
O50 Cd46 2.352 . S
O50 C53 1.258 1_565 S
C51 O48 1.320 . S
C51 O49 1.214 . S
O52 Cd44 2.277 . S
O52 C47 1.209 . S
C53 O50 1.258 1_545 S
C53 O55 1.282 . S
O54 Cd46 2.281 . S
O54 C47 1.233 . S
O55 Cd46 2.356 1_545 S
O55 C53 1.282 . S
C56 O57 1.306 . S
C56 O59 1.160 . S
O57 C56 1.306 . S
O57 Cd58 2.228 . S
Cd58 O57 2.228 . S
Cd58 O62 2.273 . S
Cd58 O66 2.277 . S
O59 C56 1.160 . S
O59 Cd60 2.203 . S
Cd60 O59 2.203 . S
Cd60 O62 2.411 . S
Cd60 O63 2.333 . S
Cd60 O64 2.352 . S
Cd60 O68 2.277 . S
Cd60 O69 2.356 . S
C61 O66 1.209 . S
C61 O68 1.226 . S
O62 Cd58 2.273 . S
O62 Cd60 2.411 . S
O62 C65 1.320 . S
O63 Cd60 2.333 . S
O63 C65 1.214 . S
O64 Cd60 2.352 . S
O64 C67 1.258 . S
C65 O62 1.320 . S
C65 O63 1.214 . S
O66 Cd58 2.277 . S
O66 C61 1.209 . S
C67 O64 1.258 . S
C67 O69 1.282 . S
O68 Cd60 2.277 . S
O68 C61 1.226 . S
O69 Cd60 2.356 . S
O69 C67 1.282 . S
C70 O71 1.306 . S
C70 O73 1.160 . S
O71 C70 1.306 . S
O71 Cd72 2.228 . S
Cd72 O71 2.228 . S
Cd72 O76 2.273 . S
Cd72 O80 2.277 . S
O73 C70 1.160 . S
O73 Cd74 2.203 . S
Cd74 O73 2.203 . S
Cd74 O76 2.411 . S
Cd74 O77 2.333 . S
Cd74 O78 2.352 . S
Cd74 O82 2.287 . S
Cd74 O83 2.356 1_455 S
C75 O80 1.209 . S
C75 O82 1.240 . S
O76 Cd72 2.273 . S
O76 Cd74 2.411 . S
O76 C79 1.320 . S
O77 Cd74 2.333 . S
O77 C79 1.214 . S
O78 Cd74 2.352 . S
O78 C81 1.258 1_455 S
C79 O76 1.320 . S
C79 O77 1.214 . S
O80 Cd72 2.277 . S
O80 C75 1.209 . S
C81 O78 1.258 1_655 S
C81 O83 1.282 . S
O82 Cd74 2.287 . S
O82 C75 1.240 . S
O83 Cd74 2.356 1_655 S
O83 C81 1.282 . S
C84 O85 1.306 . S
C84 O87 1.160 . S
O85 C84 1.306 . S
O85 Cd86 2.228 . S
Cd86 O85 2.228 . S
Cd86 O90 2.273 . S
Cd86 O94 2.277 . S
O87 C84 1.160 . S
O87 Cd88 2.203 . S
Cd88 O87 2.203 . S
Cd88 O90 2.411 . S
Cd88 O91 2.333 . S
Cd88 O92 2.352 . S
Cd88 O96 2.281 . S
Cd88 O97 2.356 1_655 S
C89 O94 1.209 . S
C89 O96 1.233 . S
O90 Cd86 2.273 . S
O90 Cd88 2.411 . S
O90 C93 1.320 . S
O91 Cd88 2.333 . S
O91 C93 1.214 . S
O92 Cd88 2.352 . S
O92 C95 1.258 1_655 S
C93 O90 1.320 . S
C93 O91 1.214 . S
O94 Cd86 2.277 . S
O94 C89 1.209 . S
C95 O92 1.258 1_455 S
C95 O97 1.282 . S
O96 Cd88 2.281 . S
O96 C89 1.233 . S
O97 Cd88 2.356 1_455 S
O97 C95 1.282 . S
C98 O99 1.306 . S
C98 O101 1.160 . S
O99 C98 1.306 . S
O99 Cd100 2.228 . S
Cd100 O99 2.228 . S
Cd100 O104 2.273 . S
Cd100 O108 2.277 . S
O101 C98 1.160 . S
O101 Cd102 2.203 . S
Cd102 O101 2.203 . S
Cd102 O104 2.411 . S
Cd102 O105 2.333 . S
Cd102 O106 2.352 . S
Cd102 O110 2.287 . S
Cd102 O111 2.356 1_565 S
C103 O108 1.209 . S
C103 O110 1.240 . S
O104 Cd100 2.273 . S
O104 Cd102 2.411 . S
O104 C107 1.320 . S
O105 Cd102 2.333 . S
O105 C107 1.214 . S
O106 Cd102 2.352 . S
O106 C109 1.258 1_565 S
C107 O104 1.320 . S
C107 O105 1.214 . S
O108 Cd100 2.277 . S
O108 C103 1.209 . S
C109 O106 1.258 1_545 S
C109 O111 1.282 . S
O110 Cd102 2.287 . S
O110 C103 1.240 . S
O111 Cd102 2.356 1_545 S
O111 C109 1.282 . S
C112 O113 1.306 . S
C112 O115 1.160 . S
O113 C112 1.306 . S
O113 Cd114 2.228 . S
Cd114 O113 2.228 . S
Cd114 O118 2.273 . S
Cd114 O122 2.277 . S
O115 C112 1.160 . S
O115 Cd116 2.203 . S
Cd116 O115 2.203 . S
Cd116 O118 2.411 . S
Cd116 O119 2.333 . S
Cd116 O120 2.352 . S
Cd116 O124 2.277 . S
Cd116 O125 2.356 . S
C117 O122 1.209 . S
C117 O124 1.226 . S
O118 Cd114 2.273 . S
O118 Cd116 2.411 . S
O118 C121 1.320 . S
O119 Cd116 2.333 . S
O119 C121 1.214 . S
O120 Cd116 2.352 . S
O120 C123 1.258 . S
C121 O118 1.320 . S
C121 O119 1.214 . S
O122 Cd114 2.277 . S
O122 C117 1.209 . S
C123 O120 1.258 . S
C123 O125 1.282 . S
O124 Cd116 2.277 . S
O124 C117 1.226 . S
O125 Cd116 2.356 . S
O125 C123 1.282 . S
C126 O127 1.306 . S
C126 O129 1.160 . S
O127 C126 1.306 . S
O127 Cd128 2.228 . S
Cd128 O127 2.228 . S
Cd128 O132 2.273 . S
Cd128 O136 2.277 . S
O129 C126 1.160 . S
O129 Cd130 2.203 . S
Cd130 O129 2.203 . S
Cd130 O132 2.411 . S
Cd130 O133 2.333 . S
Cd130 O134 2.352 . S
Cd130 O138 2.281 . S
Cd130 O139 2.356 1_455 S
C131 O136 1.209 . S
C131 O138 1.233 . S
O132 Cd128 2.273 . S
O132 Cd130 2.411 . S
O132 C135 1.320 . S
O133 Cd130 2.333 . S
O133 C135 1.214 . S
O134 Cd130 2.352 . S
O134 C137 1.258 1_455 S
C135 O132 1.320 . S
C135 O133 1.214 . S
O136 Cd128 2.277 . S
O136 C131 1.209 . S
C137 O134 1.258 1_655 S
C137 O139 1.282 . S
O138 Cd130 2.281 . S
O138 C131 1.233 . S
O139 Cd130 2.356 1_655 S
O139 C137 1.282 . S
C140 O141 1.306 . S
C140 O143 1.160 . S
O141 C140 1.306 . S
O141 Cd142 2.228 . S
Cd142 O141 2.228 . S
Cd142 O146 2.273 . S
Cd142 O150 2.277 . S
O143 C140 1.160 . S
O143 Cd144 2.203 . S
Cd144 O143 2.203 . S
Cd144 O146 2.411 . S
Cd144 O147 2.333 . S
Cd144 O148 2.352 . S
Cd144 O152 2.287 . S
Cd144 O153 2.356 1_545 S
C145 O150 1.209 . S
C145 O152 1.240 . S
O146 Cd142 2.273 . S
O146 Cd144 2.411 . S
O146 C149 1.320 . S
O147 Cd144 2.333 . S
O147 C149 1.214 . S
O148 Cd144 2.352 . S
O148 C151 1.258 1_545 S
C149 O146 1.320 . S
C149 O147 1.214 . S
O150 Cd142 2.277 . S
O150 C145 1.209 . S
C151 O148 1.258 1_565 S
C151 O153 1.282 . S
O152 Cd144 2.287 . S
O152 C145 1.240 . S
O153 Cd144 2.356 1_565 S
O153 C151 1.282 . S
C154 O155 1.306 . S
C154 O157 1.160 . S
O155 C154 1.306 . S
O155 Cd156 2.228 . S
Cd156 O155 2.228 . S
Cd156 O160 2.273 . S
Cd156 O164 2.277 . S
O157 C154 1.160 . S
O157 Cd158 2.203 . S
Cd158 O157 2.203 . S
Cd158 O160 2.411 . S
Cd158 O161 2.333 . S
Cd158 O162 2.352 . S
Cd158 O166 2.277 . S
Cd158 O167 2.356 . S
C159 O164 1.209 . S
C159 O166 1.226 . S
O160 Cd156 2.273 . S
O160 Cd158 2.411 . S
O160 C163 1.320 . S
O161 Cd158 2.333 . S
O161 C163 1.214 . S
O162 Cd158 2.352 . S
O162 C165 1.258 . S
C163 O160 1.320 . S
C163 O161 1.214 . S
O164 Cd156 2.277 . S
O164 C159 1.209 . S
C165 O162 1.258 . S
C165 O167 1.282 . S
O166 Cd158 2.277 . S
O166 C159 1.226 . S
O167 Cd158 2.356 . S
O167 C165 1.282 . S
C168 O169 1.306 . S
C168 O171 1.160 . S
O169 C168 1.306 . S
O169 Cd170 2.228 . S
Cd170 O169 2.228 . S
Cd170 O174 2.273 . S
Cd170 O178 2.277 . S
O171 C168 1.160 . S
O171 Cd172 2.203 . S
Cd172 O171 2.203 . S
Cd172 O174 2.411 . S
Cd172 O175 2.333 . S
Cd172 O176 2.352 . S
Cd172 O180 2.281 . S
Cd172 O181 2.356 1_565 S
C173 O178 1.209 . S
C173 O180 1.233 . S
O174 Cd170 2.273 . S
O174 Cd172 2.411 . S
O174 C177 1.320 . S
O175 Cd172 2.333 . S
O175 C177 1.214 . S
O176 Cd172 2.352 . S
O176 C179 1.258 1_565 S
C177 O174 1.320 . S
C177 O175 1.214 . S
O178 Cd170 2.277 . S
O178 C173 1.209 . S
C179 O176 1.258 1_545 S
C179 O181 1.282 . S
O180 Cd172 2.281 . S
O180 C173 1.233 . S
O181 Cd172 2.356 1_545 S
O181 C179 1.282 . S
C182 O183 1.306 . S
C182 O185 1.160 . S
O183 C182 1.306 . S
O183 Cd184 2.228 . S
Cd184 O183 2.228 . S
Cd184 O188 2.273 . S
Cd184 O192 2.277 . S
O185 C182 1.160 . S
O185 Cd186 2.203 . S
Cd186 O185 2.203 . S
Cd186 O188 2.411 . S
Cd186 O189 2.333 . S
Cd186 O190 2.352 . S
Cd186 O194 2.277 . S
Cd186 O195 2.356 . S
C187 O192 1.209 . S
C187 O194 1.226 . S
O188 Cd184 2.273 . S
O188 Cd186 2.411 . S
O188 C191 1.320 . S
O189 Cd186 2.333 . S
O189 C191 1.214 . S
O190 Cd186 2.352 . S
O190 C193 1.258 . S
C191 O188 1.320 . S
C191 O189 1.214 . S
O192 Cd184 2.277 . S
O192 C187 1.209 . S
C193 O190 1.258 . S
C193 O195 1.282 . S
O194 Cd186 2.277 . S
O194 C187 1.226 . S
O195 Cd186 2.356 . S
O195 C193 1.282 . S
C196 O197 1.306 . S
C196 O199 1.160 . S
O197 C196 1.306 . S
O197 Cd198 2.228 . S
Cd198 O197 2.228 . S
Cd198 O202 2.273 . S
Cd198 O206 2.277 . S
O199 C196 1.160 . S
O199 Cd200 2.203 . S
Cd200 O199 2.203 . S
Cd200 O202 2.411 . S
Cd200 O203 2.333 . S
Cd200 O204 2.352 . S
Cd200 O208 2.287 . S
Cd200 O209 2.356 1_455 S
C201 O206 1.209 . S
C201 O208 1.240 . S
O202 Cd198 2.273 . S
O202 Cd200 2.411 . S
O202 C205 1.320 . S
O203 Cd200 2.333 . S
O203 C205 1.214 . S
O204 Cd200 2.352 . S
O204 C207 1.258 1_455 S
C205 O202 1.320 . S
C205 O203 1.214 . S
O206 Cd198 2.277 . S
O206 C201 1.209 . S
C207 O204 1.258 1_655 S
C207 O209 1.282 . S
O208 Cd200 2.287 . S
O208 C201 1.240 . S
O209 Cd200 2.356 1_655 S
O209 C207 1.282 . S
C210 O211 1.306 . S
C210 O213 1.160 . S
O211 C210 1.306 . S
O211 Cd212 2.228 . S
Cd212 O211 2.228 . S
Cd212 O216 2.273 . S
Cd212 O220 2.277 . S
O213 C210 1.160 . S
O213 Cd214 2.203 . S
Cd214 O213 2.203 . S
Cd214 O216 2.411 . S
Cd214 O217 2.333 . S
Cd214 O218 2.352 . S
Cd214 O222 2.281 . S
Cd214 O223 2.356 1_545 S
C215 O220 1.209 . S
C215 O222 1.233 . S
O216 Cd212 2.273 . S
O216 Cd214 2.411 . S
O216 C219 1.320 . S
O217 Cd214 2.333 . S
O217 C219 1.214 . S
O218 Cd214 2.352 . S
O218 C221 1.258 1_545 S
C219 O216 1.320 . S
C219 O217 1.214 . S
O220 Cd212 2.277 . S
O220 C215 1.209 . S
C221 O218 1.258 1_565 S
C221 O223 1.282 . S
O222 Cd214 2.281 . S
O222 C215 1.233 . S
O223 Cd214 2.356 1_565 S
O223 C221 1.282 . S
C224 O225 1.306 . S
C224 O227 1.160 . S
O225 C224 1.306 . S
O225 Cd226 2.228 . S
Cd226 O225 2.228 . S
Cd226 O230 2.273 . S
Cd226 O234 2.277 . S
O227 C224 1.160 . S
O227 Cd228 2.203 . S
Cd228 O227 2.203 . S
Cd228 O230 2.411 . S
Cd228 O231 2.333 . S
Cd228 O232 2.352 . S
Cd228 O236 2.277 . S
Cd228 O237 2.356 . S
C229 O234 1.209 . S
C229 O236 1.226 . S
O230 Cd226 2.273 . S
O230 Cd228 2.411 . S
O230 C233 1.320 . S
O231 Cd228 2.333 . S
O231 C233 1.214 . S
O232 Cd228 2.352 . S
O232 C235 1.258 . S
C233 O230 1.320 . S
C233 O231 1.214 . S
O234 Cd226 2.277 . S
O234 C229 1.209 . S
C235 O232 1.258 . S
C235 O237 1.282 . S
O236 Cd228 2.277 . S
O236 C229 1.226 . S
O237 Cd228 2.356 . S
O237 C235 1.282 . S
C238 O239 1.306 . S
C238 O241 1.160 . S
O239 C238 1.306 . S
O239 Cd240 2.228 . S
Cd240 O239 2.228 . S
Cd240 O244 2.273 . S
Cd240 O248 2.277 . S
O241 C238 1.160 . S
O241 Cd242 2.203 . S
Cd242 O241 2.203 . S
Cd242 O244 2.411 . S
Cd242 O245 2.333 . S
Cd242 O246 2.352 . S
Cd242 O250 2.287 . S
Cd242 O251 2.356 1_655 S
C243 O248 1.209 . S
C243 O250 1.240 . S
O244 Cd240 2.273 . S
O244 Cd242 2.411 . S
O244 C247 1.320 . S
O245 Cd242 2.333 . S
O245 C247 1.214 . S
O246 Cd242 2.352 . S
O246 C249 1.258 1_655 S
C247 O244 1.320 . S
C247 O245 1.214 . S
O248 Cd240 2.277 . S
O248 C243 1.209 . S
C249 O246 1.258 1_455 S
C249 O251 1.282 . S
O250 Cd242 2.287 . S
O250 C243 1.240 . S
O251 Cd242 2.356 1_455 S
O251 C249 1.282 . S
C252 O253 1.306 . S
C252 O255 1.160 . S
O253 C252 1.306 . S
O253 Cd254 2.228 . S
Cd254 O253 2.228 . S
Cd254 O258 2.273 . S
Cd254 O262 2.277 . S
O255 C252 1.160 . S
O255 Cd256 2.203 . S
Cd256 O255 2.203 . S
Cd256 O258 2.411 . S
Cd256 O259 2.333 . S
Cd256 O260 2.352 . S
Cd256 O264 2.281 . S
Cd256 O265 2.356 1_455 S
C257 O262 1.209 . S
C257 O264 1.233 . S
O258 Cd254 2.273 . S
O258 Cd256 2.411 . S
O258 C261 1.320 . S
O259 Cd256 2.333 . S
O259 C261 1.214 . S
O260 Cd256 2.352 . S
O260 C263 1.258 1_455 S
C261 O258 1.320 . S
C261 O259 1.214 . S
O262 Cd254 2.277 . S
O262 C257 1.209 . S
C263 O260 1.258 1_655 S
C263 O265 1.282 . S
O264 Cd256 2.281 . S
O264 C257 1.233 . S
O265 Cd256 2.356 1_655 S
O265 C263 1.282 . S
C266 O267 1.306 . S
C266 O269 1.160 . S
O267 C266 1.306 . S
O267 Cd268 2.228 . S
Cd268 O267 2.228 . S
Cd268 O272 2.273 . S
Cd268 O276 2.277 . S
O269 C266 1.160 . S
O269 Cd270 2.203 . S
Cd270 O269 2.203 . S
Cd270 O272 2.411 . S
Cd270 O273 2.333 . S
Cd270 O274 2.352 . S
Cd270 O278 2.287 . S
Cd270 O279 2.356 1_545 S
C271 O276 1.209 . S
C271 O278 1.240 . S
O272 Cd268 2.273 . S
O272 Cd270 2.411 . S
O272 C275 1.320 . S
O273 Cd270 2.333 . S
O273 C275 1.214 . S
O274 Cd270 2.352 . S
O274 C277 1.258 1_545 S
C275 O272 1.320 . S
C275 O273 1.214 . S
O276 Cd268 2.277 . S
O276 C271 1.209 . S
C277 O274 1.258 1_565 S
C277 O279 1.282 . S
O278 Cd270 2.287 . S
O278 C271 1.240 . S
O279 Cd270 2.356 1_565 S
O279 C277 1.282 . S
C280 O281 1.306 . S
C280 O283 1.160 . S
O281 C280 1.306 . S
O281 Cd282 2.228 . S
Cd282 O281 2.228 . S
Cd282 O286 2.273 . S
Cd282 O290 2.277 . S
O283 C280 1.160 . S
O283 Cd284 2.203 . S
Cd284 O283 2.203 . S
Cd284 O286 2.411 . S
Cd284 O287 2.333 . S
Cd284 O288 2.352 . S
Cd284 O292 2.277 . S
Cd284 O293 2.356 . S
C285 O290 1.209 . S
C285 O292 1.226 . S
O286 Cd282 2.273 . S
O286 Cd284 2.411 . S
O286 C289 1.320 . S
O287 Cd284 2.333 . S
O287 C289 1.214 . S
O288 Cd284 2.352 . S
O288 C291 1.258 . S
C289 O286 1.320 . S
C289 O287 1.214 . S
O290 Cd282 2.277 . S
O290 C285 1.209 . S
C291 O288 1.258 . S
C291 O293 1.282 . S
O292 Cd284 2.277 . S
O292 C285 1.226 . S
O293 Cd284 2.356 . S
O293 C291 1.282 . S
C294 O295 1.306 . S
C294 O297 1.160 . S
O295 C294 1.306 . S
O295 Cd296 2.228 . S
Cd296 O295 2.228 . S
Cd296 O300 2.273 . S
Cd296 O304 2.277 . S
O297 C294 1.160 . S
O297 Cd298 2.203 . S
Cd298 O297 2.203 . S
Cd298 O300 2.411 . S
Cd298 O301 2.333 . S
Cd298 O302 2.352 . S
Cd298 O306 2.281 . S
Cd298 O307 2.356 1_655 S
C299 O304 1.209 . S
C299 O306 1.233 . S
O300 Cd296 2.273 . S
O300 Cd298 2.411 . S
O300 C303 1.320 . S
O301 Cd298 2.333 . S
O301 C303 1.214 . S
O302 Cd298 2.352 . S
O302 C305 1.258 1_655 S
C303 O300 1.320 . S
C303 O301 1.214 . S
O304 Cd296 2.277 . S
O304 C299 1.209 . S
C305 O302 1.258 1_455 S
C305 O307 1.282 . S
O306 Cd298 2.281 . S
O306 C299 1.233 . S
O307 Cd298 2.356 1_455 S
O307 C305 1.282 . S
C308 O309 1.306 . S
C308 O311 1.160 . S
O309 C308 1.306 . S
O309 Cd310 2.228 . S
Cd310 O309 2.228 . S
Cd310 O314 2.273 . S
Cd310 O318 2.277 . S
O311 C308 1.160 . S
O311 Cd312 2.203 . S
Cd312 O311 2.203 . S
Cd312 O314 2.411 . S
Cd312 O315 2.333 . S
Cd312 O316 2.352 . S
Cd312 O320 2.287 . S
Cd312 O321 2.356 1_565 S
C313 O318 1.209 . S
C313 O320 1.240 . S
O314 Cd310 2.273 . S
O314 Cd312 2.411 . S
O314 C317 1.320 . S
O315 Cd312 2.333 . S
O315 C317 1.214 . S
O316 Cd312 2.352 . S
O316 C319 1.258 1_565 S
C317 O314 1.320 . S
C317 O315 1.214 . S
O318 Cd310 2.277 . S
O318 C313 1.209 . S
C319 O316 1.258 1_545 S
C319 O321 1.282 . S
O320 Cd312 2.287 . S
O320 C313 1.240 . S
O321 Cd312 2.356 1_545 S
O321 C319 1.282 . S
C322 O323 1.306 . S
C322 O325 1.160 . S
O323 C322 1.306 . S
O323 Cd324 2.228 . S
Cd324 O323 2.228 . S
Cd324 O328 2.273 . S
Cd324 O332 2.277 . S
O325 C322 1.160 . S
O325 Cd326 2.203 . S
Cd326 O325 2.203 . S
Cd326 O328 2.411 . S
Cd326 O329 2.333 . S
Cd326 O330 2.352 . S
Cd326 O334 2.277 . S
Cd326 O335 2.356 . S
C327 O332 1.209 . S
C327 O334 1.226 . S
O328 Cd324 2.273 . S
O328 Cd326 2.411 . S
O328 C331 1.320 . S
O329 Cd326 2.333 . S
O329 C331 1.214 . S
O330 Cd326 2.352 . S
O330 C333 1.258 . S
C331 O328 1.320 . S
C331 O329 1.214 . S
O332 Cd324 2.277 . S
O332 C327 1.209 . S
C333 O330 1.258 . S
C333 O335 1.282 . S
O334 Cd326 2.277 . S
O334 C327 1.226 . S
O335 Cd326 2.356 . S
O335 C333 1.282 . S
C215 C5 1.349 . S
C19 C229 1.349 . S
C33 C243 1.348 . S
C47 C173 1.349 . S
C187 C61 1.349 . S
C75 C201 1.349 . S
C299 C89 1.349 . S
C103 C313 1.348 . S
C117 C327 1.349 . S
C257 C131 1.349 . S
C145 C271 1.349 . S
C285 C159 1.349 . S
C0 C322 1.523 . S
C252 C14 1.523 . S
C28 C266 1.523 . S
C280 C42 1.523 . S
C56 C294 1.523 . S
C308 C70 1.523 . S
C84 C182 1.523 . S
C196 C98 1.523 . S
C210 C112 1.523 . S
C224 C126 1.523 . S
C140 C238 1.523 . S
C154 C168 1.523 . S
C109 C11 1.733 1_546 S
C123 C25 1.733 . S
C137 C39 1.733 1_656 S
C151 C53 1.733 1_565 S
C67 C165 1.733 1_554 S
C81 C95 1.733 1_655 S
C179 C277 1.733 1_546 S
C193 C291 1.733 . S
C305 C207 1.733 1_454 S
C319 C221 1.733 1_545 S
C333 C235 1.733 1_554 S
C263 C249 1.733 1_655 S
C9 C275 1.590 . S
C289 C23 1.590 . S
C37 C303 1.590 . S
C317 C51 1.590 . S
C65 C331 1.590 . S
C261 C79 1.590 . S
C93 C247 1.590 . S
C177 C107 1.590 . S
C121 C191 1.590 . S
C135 C205 1.590 . S
C149 C219 1.590 . S
C163 C233 1.590 . S
