# Generated by pormake.
# Topology uob, (4)-cn, num edge types: 1
# Building blocks:
#     Node 0, Type 0, BuildingBlock: NAWXER_clean_sbu_0, # of connection points: 4
#     Node 1, Type 0, BuildingBlock: NAWXER_clean_sbu_0, # of connection points: 4
#     Node 2, Type 0, BuildingBlock: NAWXER_clean_sbu_0, # of connection points: 4
#     Node 3, Type 0, BuildingBlock: NAWXER_clean_sbu_0, # of connection points: 4
#     Node 4, Type 0, BuildingBlock: NAWXER_clean_sbu_0, # of connection points: 4
#     Node 5, Type 0, BuildingBlock: NAWXER_clean_sbu_0, # of connection points: 4
#     Node 6, Type 0, BuildingBlock: NAWXER_clean_sbu_0, # of connection points: 4
#     Node 7, Type 0, BuildingBlock: NAWXER_clean_sbu_0, # of connection points: 4
#     Node 8, Type 0, BuildingBlock: NAWXER_clean_sbu_0, # of connection points: 4
#     Node 9, Type 0, BuildingBlock: NAWXER_clean_sbu_0, # of connection points: 4
#     Node 10, Type 0, BuildingBlock: NAWXER_clean_sbu_0, # of connection points: 4
#     Node 11, Type 0, BuildingBlock: NAWXER_clean_sbu_0, # of connection points: 4
#     Node 12, Type 0, BuildingBlock: NAWXER_clean_sbu_0, # of connection points: 4
#     Node 13, Type 0, BuildingBlock: NAWXER_clean_sbu_0, # of connection points: 4
#     Node 14, Type 0, BuildingBlock: NAWXER_clean_sbu_0, # of connection points: 4
#     Node 15, Type 0, BuildingBlock: NAWXER_clean_sbu_0, # of connection points: 4
#     Edge 16, Type (0, 0), BuildingBlock: AJUNOK_clean_linker_0, # of connection points: 2
#     Edge 17, Type (0, 0), BuildingBlock: AJUNOK_clean_linker_0, # of connection points: 2
#     Edge 18, Type (0, 0), BuildingBlock: AJUNOK_clean_linker_0, # of connection points: 2
#     Edge 19, Type (0, 0), BuildingBlock: AJUNOK_clean_linker_0, # of connection points: 2
#     Edge 20, Type (0, 0), BuildingBlock: AJUNOK_clean_linker_0, # of connection points: 2
#     Edge 21, Type (0, 0), BuildingBlock: AJUNOK_clean_linker_0, # of connection points: 2
#     Edge 22, Type (0, 0), BuildingBlock: AJUNOK_clean_linker_0, # of connection points: 2
#     Edge 23, Type (0, 0), BuildingBlock: AJUNOK_clean_linker_0, # of connection points: 2
#     Edge 24, Type (0, 0), BuildingBlock: AJUNOK_clean_linker_0, # of connection points: 2
#     Edge 25, Type (0, 0), BuildingBlock: AJUNOK_clean_linker_0, # of connection points: 2
#     Edge 26, Type (0, 0), BuildingBlock: AJUNOK_clean_linker_0, # of connection points: 2
#     Edge 27, Type (0, 0), BuildingBlock: AJUNOK_clean_linker_0, # of connection points: 2
#     Edge 28, Type (0, 0), BuildingBlock: AJUNOK_clean_linker_0, # of connection points: 2
#     Edge 29, Type (0, 0), BuildingBlock: AJUNOK_clean_linker_0, # of connection points: 2
#     Edge 30, Type (0, 0), BuildingBlock: AJUNOK_clean_linker_0, # of connection points: 2
#     Edge 31, Type (0, 0), BuildingBlock: AJUNOK_clean_linker_0, # of connection points: 2
#     Edge 32, Type (0, 0), BuildingBlock: AJUNOK_clean_linker_0, # of connection points: 2
#     Edge 33, Type (0, 0), BuildingBlock: AJUNOK_clean_linker_0, # of connection points: 2
#     Edge 34, Type (0, 0), BuildingBlock: AJUNOK_clean_linker_0, # of connection points: 2
#     Edge 35, Type (0, 0), BuildingBlock: AJUNOK_clean_linker_0, # of connection points: 2
#     Edge 36, Type (0, 0), BuildingBlock: AJUNOK_clean_linker_0, # of connection points: 2
#     Edge 37, Type (0, 0), BuildingBlock: AJUNOK_clean_linker_0, # of connection points: 2
#     Edge 38, Type (0, 0), BuildingBlock: AJUNOK_clean_linker_0, # of connection points: 2
#     Edge 39, Type (0, 0), BuildingBlock: AJUNOK_clean_linker_0, # of connection points: 2
#     Edge 40, Type (0, 0), BuildingBlock: AJUNOK_clean_linker_0, # of connection points: 2
#     Edge 41, Type (0, 0), BuildingBlock: AJUNOK_clean_linker_0, # of connection points: 2
#     Edge 42, Type (0, 0), BuildingBlock: AJUNOK_clean_linker_0, # of connection points: 2
#     Edge 43, Type (0, 0), BuildingBlock: AJUNOK_clean_linker_0, # of connection points: 2
#     Edge 44, Type (0, 0), BuildingBlock: AJUNOK_clean_linker_0, # of connection points: 2
#     Edge 45, Type (0, 0), BuildingBlock: AJUNOK_clean_linker_0, # of connection points: 2
#     Edge 46, Type (0, 0), BuildingBlock: AJUNOK_clean_linker_0, # of connection points: 2
#     Edge 47, Type (0, 0), BuildingBlock: AJUNOK_clean_linker_0, # of connection points: 2
# Relax obj value: 0.120
# Max RMSD: 0.245
# Mean RMSD: 0.245
data_MOF--net-uob--node1-NAWXER_clean_sbu_0--edge1-AJUNOK_clean_linker_0
_symmetry_space_group_name_H-M    P1
_symmetry_Int_Tables_number       1
_symmetry_cell_setting            triclinic
loop_
_symmetry_equiv_pos_as_xyz
'x, y, z'
_cell_length_a     38.428332
_cell_length_b     38.469723
_cell_length_c     20.81787
_cell_angle_alpha  89.991097
_cell_angle_beta   89.937865
_cell_angle_gamma 89.951559
loop_
_atom_site_label
_atom_site_type_symbol
_atom_site_fract_x
_atom_site_fract_y
_atom_site_fract_z
_atom_type_partial_charge
C0 C 0.1116 0.09602 0.39844 0.0
C1 C 0.13464 0.10287 0.17013 0.0
O2 O 0.12195 0.06669 0.37598 0.0
Zn3 Zn 0.13908 0.04652 0.28352 0.0
O4 O 0.10914 0.12224 0.36149 0.0
Zn5 Zn 0.1263 0.09907 0.28691 0.0
O6 O 0.08281 0.06341 0.27017 0.0
O7 O 0.10516 0.0106 0.27116 0.0
O8 O 0.13014 0.12711 0.21039 0.0
O9 O 0.13832 0.07155 0.1903 0.0
O10 O 0.1863 0.032 0.30449 0.0
O11 O 0.17838 0.08783 0.32058 0.0
C12 C 0.07872 0.03029 0.26611 0.0
C13 C 0.19754 0.0607 0.32627 0.0
C14 C 0.92039 0.61122 0.65161 0.0
C15 C 0.90274 0.63377 0.4252 0.0
O16 O 0.94838 0.62191 0.62446 0.0
Zn17 Zn 0.96402 0.63858 0.52903 0.0
O18 O 0.89267 0.6074 0.61902 0.0
Zn19 Zn 0.91202 0.6247 0.54093 0.0
O20 O 0.94714 0.58191 0.51957 0.0
O21 O 0.9995 0.60452 0.51031 0.0
O22 O 0.88093 0.62646 0.46874 0.0
O23 O 0.93448 0.63978 0.44084 0.0
O24 O 0.97904 0.68532 0.54869 0.0
O25 O 0.92385 0.67748 0.57253 0.0
C26 C 0.9799 0.57793 0.50977 0.0
C27 C 0.95131 0.69645 0.57485 0.0
C28 C 0.40428 0.41698 0.90795 0.0
C29 C 0.3832 0.4005 0.68139 0.0
O30 O 0.39316 0.44495 0.88146 0.0
Zn31 Zn 0.37685 0.46127 0.78656 0.0
O32 O 0.40879 0.38956 0.87486 0.0
Zn33 Zn 0.39148 0.40908 0.79702 0.0
O34 O 0.43358 0.44457 0.77653 0.0
O35 O 0.41128 0.49717 0.76962 0.0
O36 O 0.39056 0.37851 0.72453 0.0
O37 O 0.37661 0.43207 0.69754 0.0
O38 O 0.32932 0.47515 0.80646 0.0
O39 O 0.33847 0.41984 0.82708 0.0
C40 C 0.43776 0.47731 0.76789 0.0
C41 C 0.31861 0.44663 0.8302 0.0
C42 C 0.59232 0.90421 0.15073 0.0
C43 C 0.6068 0.88035 0.92404 0.0
O44 O 0.564 0.89329 0.12521 0.0
Zn45 Zn 0.54677 0.87625 0.03113 0.0
O46 O 0.61949 0.90824 0.11661 0.0
Zn47 Zn 0.59907 0.89078 0.03961 0.0
O48 O 0.56346 0.93294 0.01996 0.0
O49 O 0.51093 0.91044 0.01374 0.0
O50 O 0.62905 0.88898 0.96589 0.0
O51 O 0.57535 0.87422 0.94165 0.0
O52 O 0.53242 0.82929 0.05301 0.0
O53 O 0.58803 0.83812 0.0716 0.0
C54 C 0.5306 0.93697 0.01201 0.0
C55 C 0.56106 0.8186 0.07633 0.0
C56 C 0.19757 0.44668 1.00229 0.0
C57 C 0.0793 0.47907 0.06585 0.0
O58 O 0.17743 0.42009 0.00498 0.0
Zn59 Zn 0.12422 0.40997 0.03557 0.0
O60 O 0.18723 0.47514 0.02677 0.0
Zn61 Zn 0.13973 0.46164 0.04665 0.0
O62 O 0.13986 0.43217 0.13533 0.0
O63 O 0.12488 0.37905 0.10787 0.0
O64 O 0.10637 0.49803 0.06485 0.0
O65 O 0.08252 0.44623 0.05655 0.0
O66 O 0.10659 0.39094 0.9576 0.0
O67 O 0.12277 0.4461 0.95142 0.0
C68 C 0.1328 0.40068 0.15124 0.0
C69 C 0.11126 0.41838 0.92464 0.0
C70 C 0.5964 0.61516 0.17704 0.0
C71 C 0.60525 0.63594 0.40566 0.0
O72 O 0.56727 0.62479 0.20129 0.0
Zn73 Zn 0.54773 0.64051 0.29426 0.0
O74 O 0.62319 0.61207 0.21245 0.0
Zn75 Zn 0.60094 0.62864 0.28895 0.0
O76 O 0.56641 0.58488 0.30732 0.0
O77 O 0.51271 0.60522 0.30719 0.0
O78 O 0.62947 0.63223 0.36496 0.0
O79 O 0.57375 0.63943 0.38626 0.0
O80 O 0.53264 0.68775 0.27422 0.0
O81 O 0.58859 0.68062 0.25721 0.0
C82 C 0.53351 0.57962 0.31257 0.0
C83 C 0.56119 0.69943 0.25218 0.0
C84 C 0.40098 0.09798 0.42578 0.0
C85 C 0.38038 0.10591 0.65468 0.0
O86 O 0.39158 0.06871 0.44958 0.0
Zn87 Zn 0.37622 0.04879 0.54262 0.0
O88 O 0.4042 0.12453 0.4617 0.0
Zn89 Zn 0.38798 0.10186 0.53792 0.0
O90 O 0.43206 0.06738 0.55522 0.0
O91 O 0.41156 0.01386 0.55494 0.0
O92 O 0.38412 0.13019 0.61419 0.0
O93 O 0.37694 0.07451 0.63488 0.0
O94 O 0.32908 0.03348 0.52274 0.0
O95 O 0.33595 0.08941 0.50608 0.0
C96 C 0.43729 0.03448 0.55995 0.0
C97 C 0.31728 0.06197 0.50075 0.0
C98 C 0.91379 0.9008 0.67751 0.0
C99 C 0.90529 0.87692 0.90431 0.0
O100 O 0.9435 0.89189 0.70034 0.0
Zn101 Zn 0.96313 0.87478 0.79343 0.0
O102 O 0.88712 0.90203 0.71358 0.0
Zn103 Zn 0.91054 0.88652 0.78823 0.0
O104 O 0.94494 0.93086 0.80519 0.0
O105 O 0.99807 0.90941 0.80874 0.0
O106 O 0.88188 0.88363 0.86348 0.0
O107 O 0.93673 0.87235 0.88508 0.0
O108 O 0.97936 0.82861 0.77197 0.0
O109 O 0.92331 0.83431 0.75489 0.0
C110 C 0.97789 0.93554 0.81147 0.0
C111 C 0.95129 0.81626 0.7495 0.0
C112 C 0.69791 0.56443 0.82923 0.0
C113 C 0.57854 0.53434 0.77023 0.0
O114 O 0.6788 0.5916 0.82351 0.0
Zn115 Zn 0.62655 0.60288 0.79063 0.0
O116 O 0.6864 0.53567 0.80819 0.0
Zn117 Zn 0.6391 0.55017 0.7878 0.0
O118 O 0.63805 0.57484 0.69455 0.0
O119 O 0.63 0.63056 0.71346 0.0
O120 O 0.60483 0.51446 0.7757 0.0
O121 O 0.58285 0.56742 0.77425 0.0
O122 O 0.6097 0.62619 0.86538 0.0
O123 O 0.62234 0.57062 0.88 0.0
C124 C 0.63406 0.60599 0.6737 0.0
C125 C 0.61217 0.60001 0.90241 0.0
C126 C 0.41369 0.11558 0.15119 0.0
C127 C 0.40824 0.13753 0.92245 0.0
O128 O 0.44347 0.12414 0.1282 0.0
Zn129 Zn 0.46438 0.13992 0.03596 0.0
O130 O 0.38712 0.11477 0.11479 0.0
Zn131 Zn 0.41096 0.13069 0.03965 0.0
O132 O 0.44398 0.08513 0.02232 0.0
O133 O 0.49824 0.10383 0.02369 0.0
O134 O 0.3834 0.13565 0.96233 0.0
O135 O 0.4396 0.13959 0.9431 0.0
O136 O 0.48147 0.18615 0.05593 0.0
O137 O 0.42532 0.18197 0.07344 0.0
C138 C 0.47678 0.07885 0.01798 0.0
C139 C 0.45373 0.19921 0.07868 0.0
C140 C 0.93794 0.97321 0.2668 0.0
C141 C 0.81841 0.94482 0.32889 0.0
O142 O 0.93318 0.9404 0.27392 0.0
Zn143 Zn 0.88971 0.90567 0.29255 0.0
O144 O 0.91184 0.99353 0.26954 0.0
Zn145 Zn 0.87706 0.95825 0.28533 0.0
O146 O 0.89417 0.93992 0.37904 0.0
O147 O 0.90544 0.88362 0.36853 0.0
O148 O 0.82998 0.97333 0.30665 0.0
O149 O 0.83741 0.91753 0.32398 0.0
O150 O 0.88765 0.87622 0.21892 0.0
O151 O 0.87606 0.93065 0.19432 0.0
C152 C 0.90375 0.91076 0.40313 0.0
C153 C 0.88149 0.89907 0.17675 0.0
C154 C 0.0359 0.43679 0.51139 0.0
C155 C 0.06348 0.318 0.57878 0.0
O156 O 0.0687 0.43182 0.51835 0.0
Zn157 Zn 0.1032 0.38872 0.53919 0.0
O158 O 0.01539 0.41097 0.51579 0.0
Zn159 Zn 0.05042 0.37599 0.53324 0.0
O160 O 0.06909 0.39397 0.62595 0.0
O161 O 0.12495 0.40646 0.61454 0.0
O162 O 0.03492 0.32955 0.55659 0.0
O163 O 0.09094 0.33674 0.573 0.0
O164 O 0.1324 0.38528 0.46471 0.0
O165 O 0.07788 0.3728 0.44242 0.0
C166 C 0.09799 0.40454 0.64981 0.0
C167 C 0.10937 0.37765 0.42365 0.0
C168 C 0.69662 0.94587 0.49925 0.0
C169 C 0.57826 0.97767 0.56295 0.0
O170 O 0.67686 0.91908 0.50337 0.0
Zn171 Zn 0.62421 0.90868 0.53582 0.0
O172 O 0.68593 0.9745 0.52248 0.0
Zn173 Zn 0.63864 0.96066 0.5438 0.0
O174 O 0.63906 0.93274 0.63443 0.0
O175 O 0.62575 0.87885 0.60931 0.0
O176 O 0.60505 0.99701 0.5606 0.0
O177 O 0.58191 0.94473 0.55547 0.0
O178 O 0.60635 0.88792 0.45998 0.0
O179 O 0.62061 0.94338 0.44988 0.0
C180 C 0.63276 0.9013 0.65177 0.0
C181 C 0.60921 0.91497 0.42531 0.0
C182 C 0.06255 0.19655 0.7495 0.0
C183 C 0.03345 0.07678 0.80819 0.0
O184 O 0.0897 0.17734 0.75392 0.0
Zn185 Zn 0.10146 0.12511 0.78499 0.0
O186 O 0.03392 0.18514 0.7717 0.0
Zn187 Zn 0.04844 0.13759 0.79113 0.0
O188 O 0.07479 0.13599 0.88297 0.0
O189 O 0.13031 0.12817 0.86062 0.0
O190 O 0.01296 0.10268 0.80382 0.0
O191 O 0.0664 0.08171 0.80283 0.0
O192 O 0.12331 0.1085 0.70817 0.0
O193 O 0.0675 0.12186 0.69769 0.0
C194 C 0.10637 0.13221 0.90178 0.0
C195 C 0.09644 0.11191 0.67306 0.0
C196 C 0.93882 0.53709 0.06539 0.0
C197 C 0.82007 0.56543 0.9983 0.0
O198 O 0.93412 0.56988 0.05815 0.0
Zn199 Zn 0.89119 0.60463 0.0373 0.0
O200 O 0.91276 0.51683 0.06149 0.0
Zn201 Zn 0.87801 0.55202 0.04379 0.0
O202 O 0.89608 0.57032 0.95091 0.0
O203 O 0.90909 0.62605 0.96157 0.0
O204 O 0.83145 0.53687 0.02069 0.0
O205 O 0.83901 0.59275 0.00375 0.0
O206 O 0.88794 0.63391 0.1117 0.0
O207 O 0.87484 0.5796 0.13424 0.0
C208 C 0.90688 0.59903 0.92665 0.0
C209 C 0.87993 0.61102 0.15284 0.0
C210 C 0.41743 0.40414 0.18276 0.0
C211 C 0.40723 0.37796 0.40921 0.0
O212 O 0.44668 0.39436 0.20647 0.0
Zn213 Zn 0.46579 0.37693 0.29956 0.0
O214 O 0.39056 0.40562 0.21834 0.0
Zn215 Zn 0.41308 0.38872 0.29335 0.0
O216 O 0.44708 0.4328 0.31227 0.0
O217 O 0.50041 0.41194 0.31636 0.0
O218 O 0.38404 0.38504 0.36812 0.0
O219 O 0.43878 0.37363 0.39042 0.0
O220 O 0.48231 0.33101 0.27705 0.0
O221 O 0.42631 0.33683 0.25892 0.0
C222 C 0.47991 0.43782 0.3192 0.0
C223 C 0.45437 0.3189 0.25354 0.0
C224 C 0.27092 0.03111 0.43712 0.0
C225 C 0.28551 0.0625 0.45926 0.0
C226 C 0.2436 0.03077 0.39218 0.0
C227 C 0.22939 0.0618 0.36746 0.0
H228 H 0.28102 1.00642 0.45379 0.0
H229 H 0.23313 1.00585 0.37767 0.0
S230 S 0.25834 0.15117 0.40878 0.0
N231 N 0.28367 0.12563 0.45203 0.0
N232 N 0.23245 0.12495 0.36825 0.0
C233 C 0.24378 0.0934 0.38899 0.0
C234 C 0.27168 0.09376 0.43462 0.0
C235 C 0.92067 0.77171 0.68079 0.0
C236 C 0.95172 0.78426 0.70844 0.0
C237 C 0.92078 0.74397 0.63661 0.0
C238 C 0.952 0.72789 0.61708 0.0
H239 H 0.89594 0.78358 0.69285 0.0
H240 H 0.89613 0.73512 0.6175 0.0
S241 S 0.04049 0.74972 0.67663 0.0
N242 N 0.01462 0.77732 0.71411 0.0
N243 N 0.01483 0.72591 0.63091 0.0
C244 C 0.98323 0.74001 0.64461 0.0
C245 C 0.98309 0.76789 0.69027 0.0
C246 C 0.27162 0.47688 0.89343 0.0
C247 C 0.28649 0.44566 0.87092 0.0
C248 C 0.24397 0.4769 0.93776 0.0
C249 C 0.22959 0.4457 0.96136 0.0
H250 H 0.28182 0.5017 0.87766 0.0
H251 H 0.23338 0.50173 0.95268 0.0
S252 S 0.25875 0.35667 0.91786 0.0
N253 N 0.28457 0.38251 0.87617 0.0
N254 N 0.23249 0.38258 0.95852 0.0
C255 C 0.24408 0.41426 0.93912 0.0
C256 C 0.27245 0.41423 0.89427 0.0
C257 C 0.53076 0.77193 0.14021 0.0
C258 C 0.56203 0.78705 0.11836 0.0
C259 C 0.53067 0.74478 0.18551 0.0
C260 C 0.56187 0.73125 0.21089 0.0
H261 H 0.50594 0.78148 0.12301 0.0
H262 H 0.50586 0.73386 0.19971 0.0
S263 S 0.651 0.76155 0.17008 0.0
N264 N 0.62518 0.78632 0.12628 0.0
N265 N 0.62503 0.73538 0.21068 0.0
C266 C 0.59335 0.74612 0.18952 0.0
C267 C 0.59343 0.77387 0.14355 0.0
C268 C 0.74517 0.53454 0.89222 0.0
C269 C 0.73027 0.56562 0.86915 0.0
C270 C 0.77323 0.5348 0.93558 0.0
C271 C 0.78795 0.56614 0.95769 0.0
H272 H 0.73473 0.50962 0.87762 0.0
H273 H 0.78376 0.51006 0.95109 0.0
S274 S 0.75892 0.65492 0.91187 0.0
N275 N 0.73263 0.6288 0.87196 0.0
N276 N 0.78533 0.62928 0.95265 0.0
C277 C 0.77342 0.59746 0.93482 0.0
C278 C 0.7447 0.59719 0.89086 0.0
C279 C 0.4237 0.2736 0.18699 0.0
C280 C 0.45499 0.28729 0.2116 0.0
C281 C 0.42361 0.246 0.14266 0.0
C282 C 0.4548 0.231 0.12009 0.0
H283 H 0.39892 0.28437 0.20186 0.0
H284 H 0.39873 0.23622 0.12626 0.0
S285 S 0.54404 0.25725 0.16872 0.0
N286 N 0.51822 0.2835 0.20954 0.0
N287 N 0.51802 0.23212 0.12619 0.0
C288 C 0.48632 0.24457 0.14394 0.0
C289 C 0.48642 0.27244 0.18967 0.0
C290 C 0.77108 0.97546 0.39072 0.0
C291 C 0.78619 0.94411 0.36939 0.0
C292 C 0.74317 0.97575 0.43449 0.0
C293 C 0.72878 0.9447 0.45874 0.0
H294 H 0.78124 1.00018 0.37434 0.0
H295 H 0.7324 1.00065 0.44849 0.0
S296 S 0.7586 0.8554 0.41866 0.0
N297 N 0.78449 0.88097 0.37657 0.0
N298 N 0.73204 0.88157 0.45804 0.0
C299 C 0.74356 0.91312 0.4378 0.0
C300 C 0.77214 0.91281 0.39344 0.0
C301 C 0.03271 0.27138 0.64213 0.0
C302 C 0.0641 0.28597 0.61963 0.0
C303 C 0.03246 0.24353 0.68599 0.0
C304 C 0.06358 0.22877 0.70922 0.0
H305 H 0.00796 0.28186 0.62654 0.0
H306 H 0.00754 0.23313 0.70086 0.0
S307 S 0.15299 0.257 0.66527 0.0
N308 N 0.1273 0.28321 0.62417 0.0
N309 N 0.12684 0.23102 0.7059 0.0
C310 C 0.09519 0.24303 0.687 0.0
C311 C 0.09544 0.27148 0.64249 0.0
C312 C 0.0137 0.03699 0.26529 0.0
C313 C 0.04312 0.0153 0.25985 0.0
C314 C 0.97984 0.02332 0.26536 0.0
C315 C 0.97386 0.98733 0.26 0.0
H316 H 0.01676 0.06479 0.27133 0.0
H317 H 0.95824 0.04113 0.2715 0.0
S318 S 0.04172 0.91945 0.23786 0.0
N319 N 0.06378 0.95607 0.24416 0.0
N320 N 1.00034 0.93044 0.24419 0.0
C321 C 1.00298 0.96544 0.25184 0.0
C322 C 0.03748 0.97938 0.25179 0.0
C323 C 0.97271 0.51307 0.50862 0.0
C324 C 0.99467 0.54225 0.50286 0.0
C325 C 0.98609 0.47911 0.50888 0.0
C326 C 0.02206 0.47276 0.50347 0.0
H327 H 0.94492 0.51639 0.5148 0.0
H328 H 0.96809 0.45775 0.51539 0.0
S329 S 0.09058 0.53982 0.48066 0.0
N330 N 0.05411 0.56225 0.48682 0.0
N331 N 0.07922 0.49861 0.48722 0.0
C332 C 0.0442 0.50161 0.49481 0.0
C333 C 0.03055 0.53624 0.49451 0.0
C334 C 0.47955 0.5276 0.76898 0.0
C335 C 0.47356 0.49176 0.76109 0.0
C336 C 0.51347 0.54122 0.7699 0.0
C337 C 0.54288 0.5196 0.76297 0.0
H338 H 0.45796 0.54524 0.77662 0.0
H339 H 0.51659 0.56885 0.778 0.0
S340 S 0.54133 0.42439 0.73319 0.0
N341 N 0.49998 0.43528 0.74057 0.0
N342 N 0.56344 0.4608 0.74244 0.0
C343 C 0.53719 0.48392 0.75209 0.0
C344 C 0.50266 0.47006 0.7511 0.0
C345 C 0.53842 1.00158 0.01246 0.0
C346 C 0.51604 0.97277 0.00643 0.0
C347 C 0.52555 0.03565 0.01417 0.0
C348 C 0.48967 0.04258 0.00993 0.0
H349 H 0.56622 0.99789 0.0177 0.0
H350 H 0.54398 0.05665 0.02059 0.0
S351 S 0.42006 0.97675 0.98682 0.0
N352 N 0.45623 0.95371 0.99142 0.0
N353 N 0.43202 0.01775 0.99439 0.0
C354 C 0.46702 0.01416 1.00104 0.0
C355 C 0.48018 0.97933 0.99935 0.0
C356 C 0.01431 0.47297 0.06911 0.0
C357 C 0.04389 0.49453 0.07291 0.0
C358 C 0.98052 0.48683 0.06916 0.0
C359 C 0.97471 0.5229 0.07294 0.0
H360 H 0.01715 0.44508 0.06431 0.0
H361 H 0.95883 0.46906 0.06424 0.0
S362 S 0.04304 0.59064 0.09007 0.0
N363 N 0.06491 0.5538 0.08519 0.0
N364 N 1.00157 0.57983 0.08538 0.0
C365 C 1.00399 0.54471 0.07958 0.0
C366 C 0.03847 0.53056 0.07956 0.0
C367 C 0.47164 0.50242 0.31269 0.0
C368 C 0.49369 0.47388 0.32483 0.0
C369 C 0.48449 0.53654 0.31091 0.0
C370 C 0.51998 0.54365 0.32114 0.0
H371 H 0.44431 0.4984 0.30243 0.0
H372 H 0.46656 0.55737 0.29942 0.0
S373 S 0.58799 0.47873 0.36276 0.0
N374 N 0.55233 0.45546 0.35286 0.0
N375 N 0.57646 0.51944 0.34958 0.0
C376 C 0.54205 0.51554 0.33631 0.0
C377 C 0.52894 0.48075 0.33813 0.0
C378 C 0.47948 0.98468 0.56102 0.0
C379 C 0.47329 0.02059 0.56728 0.0
C380 C 0.51335 0.97109 0.56187 0.0
C381 C 0.54266 0.99276 0.56904 0.0
H382 H 0.45806 0.96685 0.55359 0.0
H383 H 0.51651 0.94336 0.55506 0.0
S384 S 0.54062 0.08834 0.59414 0.0
N385 N 0.49935 0.07736 0.586 0.0
N386 N 0.56292 0.05183 0.58738 0.0
C387 C 0.5368 0.02858 0.5781 0.0
C388 C 0.50222 0.04245 0.57728 0.0
C389 C 0.98374 0.03437 0.80722 0.0
C390 C 0.01952 0.04086 0.81548 0.0
C391 C 0.97042 1.00039 0.80804 0.0
C392 C 0.99228 0.97138 0.81719 0.0
H393 H 0.96589 0.05562 0.79821 0.0
H394 H 0.94284 0.99688 0.79962 0.0
S395 S 0.08747 0.97433 0.84793 0.0
N396 N 0.07622 0.01539 0.83813 0.0
N397 N 0.05127 0.95175 0.83954 0.0
C398 C 0.02791 0.97758 0.82817 0.0
C399 C 0.04148 0.0122 0.82735 0.0
C400 C 0.11987 0.08106 0.57725 0.0
C401 C 0.09884 0.10735 0.60321 0.0
C402 C 0.12291 0.077 0.51071 0.0
C403 C 0.10566 0.09961 0.46803 0.0
H404 H 0.13395 0.06349 0.60853 0.0
H405 H 0.13966 0.05653 0.49267 0.0
S406 S 0.04832 0.17338 0.51272 0.0
N407 N 0.06074 0.15655 0.58196 0.0
N408 N 0.06702 0.14936 0.45669 0.0
C409 C 0.08465 0.12611 0.49357 0.0
C410 C 0.08107 0.12985 0.56129 0.0
C411 C 0.89862 0.58098 0.74913 0.0
C412 C 0.91968 0.60672 0.72156 0.0
C413 C 0.89582 0.57791 0.81582 0.0
C414 C 0.91333 0.60103 0.85706 0.0
H415 H 0.88403 0.56328 0.71898 0.0
H416 H 0.87879 0.55801 0.83507 0.0
S417 S 0.97168 0.67309 0.80808 0.0
N418 N 0.95873 0.6555 0.73985 0.0
N419 N 0.95285 0.65019 0.86551 0.0
C420 C 0.93477 0.6267 0.83 0.0
C421 C 0.93813 0.6294 0.76208 0.0
C422 C 0.43999 0.39592 0.07182 0.0
C423 C 0.41472 0.41031 0.11313 0.0
C424 C 0.43666 0.39836 0.00513 0.0
C425 C 0.40843 0.41597 0.97775 0.0
H426 H 0.46199 0.38167 0.09096 0.0
H427 H 0.45621 0.38634 0.97485 0.0
S428 S 0.33528 0.4583 0.06386 0.0
N429 N 0.36047 0.44278 0.12137 0.0
N430 N 0.3547 0.44795 0.99573 0.0
C431 C 0.38336 0.43111 0.01814 0.0
C432 C 0.38637 0.42812 0.08601 0.0
C433 C 0.61888 0.93687 0.31433 0.0
C434 C 0.60215 0.91332 0.35592 0.0
C435 C 0.61524 0.93415 0.24769 0.0
C436 C 0.5941 0.90832 0.22067 0.0
H437 H 0.63588 0.95687 0.33318 0.0
H438 H 0.6292 0.9522 0.21716 0.0
S439 S 0.54419 0.8407 0.30826 0.0
N440 N 0.56338 0.86358 0.3652 0.0
N441 N 0.55604 0.85886 0.23983 0.0
C442 C 0.57652 0.88515 0.26159 0.0
C443 C 0.58069 0.88753 0.32934 0.0
C444 C 0.07686 0.39428 0.76103 0.0
C445 C 0.10029 0.41111 0.71933 0.0
C446 C 0.0802 0.39715 0.82766 0.0
C447 C 0.10658 0.41759 0.85472 0.0
H448 H 0.05647 0.37773 0.74221 0.0
H449 H 0.06221 0.38308 0.85818 0.0
S450 S 0.17401 0.46768 0.76688 0.0
N451 N 0.15043 0.44935 0.70992 0.0
N452 N 0.15631 0.45532 0.83545 0.0
C453 C 0.1296 0.43537 0.81374 0.0
C454 C 0.12659 0.43195 0.74589 0.0
C455 C 0.62007 0.58458 0.08117 0.0
C456 C 0.59912 0.61089 0.1072 0.0
C457 C 0.62327 0.58074 0.01461 0.0
C458 C 0.60628 0.6036 0.97202 0.0
H459 H 0.63391 0.56679 0.11239 0.0
H460 H 0.6399 0.56019 0.99649 0.0
S461 S 0.54942 0.67768 0.01704 0.0
N462 N 0.56149 0.66049 0.08618 0.0
N463 N 0.5681 0.65372 0.9609 0.0
C464 C 0.58543 0.63019 0.99766 0.0
C465 C 0.58168 0.6337 0.06538 0.0
C466 C 0.43115 0.12156 0.32949 0.0
C467 C 0.40451 0.10123 0.35592 0.0
C468 C 0.43431 0.12527 0.26291 0.0
C469 C 0.41039 0.10949 0.22076 0.0
H470 H 0.44976 0.13446 0.36041 0.0
H471 H 0.45522 0.14132 0.24446 0.0
S472 S 0.33493 0.05488 0.2671 0.0
N473 N 0.35338 0.06561 0.33587 0.0
N474 N 0.35882 0.07327 0.21053 0.0
C475 C 0.38337 0.08938 0.24683 0.0
C476 C 0.38058 0.08506 0.31455 0.0
C477 C 0.93487 0.92384 0.57292 0.0
C478 C 0.91003 0.90493 0.60809 0.0
C479 C 0.93285 0.92583 0.50584 0.0
C480 C 0.90679 0.90779 0.47259 0.0
H481 H 0.95578 0.93725 0.59745 0.0
H482 H 0.95192 0.94108 0.47983 0.0
S483 S 0.83621 0.85428 0.54231 0.0
N484 N 0.85865 0.86809 0.60492 0.0
N485 N 0.85571 0.87085 0.47856 0.0
C486 C 0.88205 0.88866 0.50706 0.0
C487 C 0.88346 0.88745 0.57512 0.0
C488 C 0.0994 0.09694 1.00078 0.0
C489 C 0.11397 0.1261 0.97029 0.0
C490 C 0.10763 0.08878 0.06468 0.0
C491 C 0.13001 0.11004 0.10085 0.0
H492 H 0.08187 0.08 0.97468 0.0
H493 H 0.09554 0.06624 0.08652 0.0
S494 S 0.17505 0.18925 0.0428 0.0
N495 N 0.15264 0.17565 0.97992 0.0
N496 N 0.16666 0.16149 0.10142 0.0
C497 C 0.14461 0.1394 0.07095 0.0
C498 C 0.13703 0.14709 0.0052 0.0
C499 C 0.91062 0.65059 0.30984 0.0
C500 C 0.89282 0.63106 0.35649 0.0
C501 C 0.90466 0.64529 0.24404 0.0
C502 C 0.88137 0.61957 0.2223 0.0
H503 H 0.92986 0.66963 0.32423 0.0
H504 H 0.91975 0.66033 0.20998 0.0
S505 S 0.82718 0.56233 0.32486 0.0
N506 N 0.84957 0.58609 0.37631 0.0
N507 N 0.8393 0.57547 0.25272 0.0
C508 C 0.86271 0.60053 0.26841 0.0
C509 C 0.86816 0.60646 0.33545 0.0
C510 C 0.36637 0.40774 0.56593 0.0
C511 C 0.38664 0.39094 0.61269 0.0
C512 C 0.37196 0.40177 0.5002 0.0
C513 C 0.39873 0.37951 0.47869 0.0
H514 H 0.34642 0.42612 0.5802 0.0
H515 H 0.35623 0.416 0.46598 0.0
S516 S 0.45858 0.32854 0.58177 0.0
N517 N 0.43371 0.35 0.63297 0.0
N518 N 0.44485 0.33971 0.50952 0.0
C519 C 0.41867 0.36197 0.52496 0.0
C520 C 0.41246 0.36741 0.5919 0.0
C521 C 0.64737 0.91126 0.76773 0.0
C522 C 0.62914 0.89235 0.72085 0.0
C523 C 0.6413 0.90577 0.83349 0.0
C524 C 0.61608 0.8818 0.85488 0.0
H525 H 0.66602 0.93094 0.75351 0.0
H526 H 0.65536 0.92161 0.86772 0.0
S527 S 0.56212 0.82475 0.75184 0.0
N528 N 0.58585 0.84744 0.70069 0.0
N529 N 0.57382 0.83802 0.82406 0.0
C530 C 0.59829 0.86213 0.80864 0.0
C531 C 0.605 0.86713 0.74172 0.0
C532 C 0.14392 0.40231 0.33255 0.0
C533 C 0.11789 0.37927 0.35415 0.0
C534 C 0.14938 0.40834 0.26679 0.0
C535 C 0.12969 0.39089 0.22001 0.0
H536 H 0.15913 0.4171 0.36671 0.0
H537 H 0.16872 0.42734 0.25253 0.0
S538 S 0.06005 0.32606 0.25126 0.0
N539 N 0.07327 0.33787 0.32347 0.0
N540 N 0.08416 0.34827 0.19996 0.0
C541 C 0.10471 0.36652 0.24092 0.0
C542 C 0.09864 0.361 0.30793 0.0
C543 C 0.64276 0.64209 0.57434 0.0
C544 C 0.62851 0.61254 0.60442 0.0
C545 C 0.63539 0.64975 0.5096 0.0
C546 C 0.61233 0.62894 0.47407 0.0
H547 H 0.65985 0.65923 0.60091 0.0
H548 H 0.64731 0.6723 0.48755 0.0
S549 S 0.56758 0.54929 0.53076 0.0
N550 N 0.59048 0.5624 0.59333 0.0
N551 N 0.5755 0.57771 0.4731 0.0
C552 C 0.59771 0.59962 0.50376 0.0
C553 C 0.60606 0.59119 0.56864 0.0
C554 C 0.36913 0.14088 0.75456 0.0
C555 C 0.38609 0.11308 0.72361 0.0
C556 C 0.37623 0.14891 0.81926 0.0
C557 C 0.40166 0.1304 0.85381 0.0
H558 H 0.35007 0.15625 0.7288 0.0
H559 H 0.36215 0.16996 0.84209 0.0
S560 S 0.45388 0.05598 0.79401 0.0
N561 N 0.42921 0.0671 0.73241 0.0
N562 N 0.44361 0.08311 0.85252 0.0
C563 C 0.41905 0.10292 0.82299 0.0
C564 C 0.41102 0.09403 0.75819 0.0
C565 C 0.86547 0.90783 0.0612 0.0
C566 C 0.88513 0.89021 0.1078 0.0
C567 C 0.87099 0.90192 0.99542 0.0
C568 C 0.8971 0.87892 0.9738 0.0
H569 H 0.84598 0.92665 0.07564 0.0
H570 H 0.85568 0.91664 0.96126 0.0
S571 S 0.95545 0.82605 0.07645 0.0
N572 N 0.9311 0.84798 0.12779 0.0
N573 N 0.94214 0.83784 0.00428 0.0
C574 C 0.91656 0.86077 0.0199 0.0
C575 C 0.9104 0.86614 0.08685 0.0
loop_
_geom_bond_atom_site_label_1
_geom_bond_atom_site_label_2
_geom_bond_distance
_geom_bond_site_symmetry_2
_ccdc_geom_bond_type
C0 O2 1.247 . S
C0 O4 1.258 . S
C1 O8 1.247 . S
C1 O9 1.258 . S
O2 C0 1.247 . S
O2 Zn3 2.028 . S
Zn3 O2 2.028 . S
Zn3 O7 2.035 . S
Zn3 O9 2.035 . S
Zn3 O10 2.028 . S
O4 C0 1.258 . S
O4 Zn5 2.035 . S
Zn5 O4 2.035 . S
Zn5 O6 2.028 . S
Zn5 O8 2.028 . S
Zn5 O11 2.035 . S
O6 Zn5 2.028 . S
O6 C12 1.247 . S
O7 Zn3 2.035 . S
O7 C12 1.258 . S
O8 C1 1.247 . S
O8 Zn5 2.028 . S
O9 C1 1.258 . S
O9 Zn3 2.035 . S
O10 Zn3 2.028 . S
O10 C13 1.247 . S
O11 Zn5 2.035 . S
O11 C13 1.258 . S
C12 O6 1.247 . S
C12 O7 1.258 . S
C13 O10 1.247 . S
C13 O11 1.258 . S
C14 O16 1.247 . S
C14 O18 1.258 . S
C15 O22 1.247 . S
C15 O23 1.258 . S
O16 C14 1.247 . S
O16 Zn17 2.028 . S
Zn17 O16 2.028 . S
Zn17 O21 2.035 . S
Zn17 O23 2.035 . S
Zn17 O24 2.028 . S
O18 C14 1.258 . S
O18 Zn19 2.035 . S
Zn19 O18 2.035 . S
Zn19 O20 2.028 . S
Zn19 O22 2.028 . S
Zn19 O25 2.035 . S
O20 Zn19 2.028 . S
O20 C26 1.247 . S
O21 Zn17 2.035 . S
O21 C26 1.258 . S
O22 C15 1.247 . S
O22 Zn19 2.028 . S
O23 C15 1.258 . S
O23 Zn17 2.035 . S
O24 Zn17 2.028 . S
O24 C27 1.247 . S
O25 Zn19 2.035 . S
O25 C27 1.258 . S
C26 O20 1.247 . S
C26 O21 1.258 . S
C27 O24 1.247 . S
C27 O25 1.258 . S
C28 O30 1.247 . S
C28 O32 1.258 . S
C29 O36 1.247 . S
C29 O37 1.258 . S
O30 C28 1.247 . S
O30 Zn31 2.028 . S
Zn31 O30 2.028 . S
Zn31 O35 2.035 . S
Zn31 O37 2.035 . S
Zn31 O38 2.028 . S
O32 C28 1.258 . S
O32 Zn33 2.035 . S
Zn33 O32 2.035 . S
Zn33 O34 2.028 . S
Zn33 O36 2.028 . S
Zn33 O39 2.035 . S
O34 Zn33 2.028 . S
O34 C40 1.247 . S
O35 Zn31 2.035 . S
O35 C40 1.258 . S
O36 C29 1.247 . S
O36 Zn33 2.028 . S
O37 C29 1.258 . S
O37 Zn31 2.035 . S
O38 Zn31 2.028 . S
O38 C41 1.247 . S
O39 Zn33 2.035 . S
O39 C41 1.258 . S
C40 O34 1.247 . S
C40 O35 1.258 . S
C41 O38 1.247 . S
C41 O39 1.258 . S
C42 O44 1.247 . S
C42 O46 1.258 . S
C43 O50 1.247 . S
C43 O51 1.258 . S
O44 C42 1.247 . S
O44 Zn45 2.028 . S
Zn45 O44 2.028 . S
Zn45 O49 2.035 . S
Zn45 O51 2.035 1_554 S
Zn45 O52 2.028 . S
O46 C42 1.258 . S
O46 Zn47 2.035 . S
Zn47 O46 2.035 . S
Zn47 O48 2.028 . S
Zn47 O50 2.028 1_554 S
Zn47 O53 2.035 . S
O48 Zn47 2.028 . S
O48 C54 1.247 . S
O49 Zn45 2.035 . S
O49 C54 1.258 . S
O50 C43 1.247 . S
O50 Zn47 2.028 1_556 S
O51 C43 1.258 . S
O51 Zn45 2.035 1_556 S
O52 Zn45 2.028 . S
O52 C55 1.247 . S
O53 Zn47 2.035 . S
O53 C55 1.258 . S
C54 O48 1.247 . S
C54 O49 1.258 . S
C55 O52 1.247 . S
C55 O53 1.258 . S
C56 O58 1.249 . S
C56 O60 1.260 . S
C57 O64 1.247 . S
C57 O65 1.258 . S
O58 C56 1.249 . S
O58 Zn59 2.028 . S
Zn59 O58 2.028 . S
Zn59 O63 2.035 . S
Zn59 O65 2.035 . S
Zn59 O66 2.028 1_554 S
O60 C56 1.260 . S
O60 Zn61 2.035 . S
Zn61 O60 2.035 . S
Zn61 O62 2.028 . S
Zn61 O64 2.028 . S
Zn61 O67 2.035 1_554 S
O62 Zn61 2.028 . S
O62 C68 1.247 . S
O63 Zn59 2.035 . S
O63 C68 1.258 . S
O64 C57 1.247 . S
O64 Zn61 2.028 . S
O65 C57 1.258 . S
O65 Zn59 2.035 . S
O66 Zn59 2.028 1_556 S
O66 C69 1.247 . S
O67 Zn61 2.035 1_556 S
O67 C69 1.258 . S
C68 O62 1.247 . S
C68 O63 1.258 . S
C69 O66 1.247 . S
C69 O67 1.258 . S
C70 O72 1.247 . S
C70 O74 1.258 . S
C71 O78 1.247 . S
C71 O79 1.258 . S
O72 C70 1.247 . S
O72 Zn73 2.028 . S
Zn73 O72 2.028 . S
Zn73 O77 2.035 . S
Zn73 O79 2.035 . S
Zn73 O80 2.028 . S
O74 C70 1.258 . S
O74 Zn75 2.035 . S
Zn75 O74 2.035 . S
Zn75 O76 2.028 . S
Zn75 O78 2.028 . S
Zn75 O81 2.035 . S
O76 Zn75 2.028 . S
O76 C82 1.247 . S
O77 Zn73 2.035 . S
O77 C82 1.258 . S
O78 C71 1.247 . S
O78 Zn75 2.028 . S
O79 C71 1.258 . S
O79 Zn73 2.035 . S
O80 Zn73 2.028 . S
O80 C83 1.247 . S
O81 Zn75 2.035 . S
O81 C83 1.258 . S
C82 O76 1.247 . S
C82 O77 1.258 . S
C83 O80 1.247 . S
C83 O81 1.258 . S
C84 O86 1.247 . S
C84 O88 1.258 . S
C85 O92 1.247 . S
C85 O93 1.258 . S
O86 C84 1.247 . S
O86 Zn87 2.028 . S
Zn87 O86 2.028 . S
Zn87 O91 2.035 . S
Zn87 O93 2.035 . S
Zn87 O94 2.028 . S
O88 C84 1.258 . S
O88 Zn89 2.035 . S
Zn89 O88 2.035 . S
Zn89 O90 2.028 . S
Zn89 O92 2.028 . S
Zn89 O95 2.035 . S
O90 Zn89 2.028 . S
O90 C96 1.247 . S
O91 Zn87 2.035 . S
O91 C96 1.258 . S
O92 C85 1.247 . S
O92 Zn89 2.028 . S
O93 C85 1.258 . S
O93 Zn87 2.035 . S
O94 Zn87 2.028 . S
O94 C97 1.247 . S
O95 Zn89 2.035 . S
O95 C97 1.258 . S
C96 O90 1.247 . S
C96 O91 1.258 . S
C97 O94 1.247 . S
C97 O95 1.258 . S
C98 O100 1.247 . S
C98 O102 1.258 . S
C99 O106 1.247 . S
C99 O107 1.258 . S
O100 C98 1.247 . S
O100 Zn101 2.028 . S
Zn101 O100 2.028 . S
Zn101 O105 2.035 . S
Zn101 O107 2.035 . S
Zn101 O108 2.028 . S
O102 C98 1.258 . S
O102 Zn103 2.035 . S
Zn103 O102 2.035 . S
Zn103 O104 2.028 . S
Zn103 O106 2.028 . S
Zn103 O109 2.035 . S
O104 Zn103 2.028 . S
O104 C110 1.247 . S
O105 Zn101 2.035 . S
O105 C110 1.258 . S
O106 C99 1.247 . S
O106 Zn103 2.028 . S
O107 C99 1.258 . S
O107 Zn101 2.035 . S
O108 Zn101 2.028 . S
O108 C111 1.247 . S
O109 Zn103 2.035 . S
O109 C111 1.258 . S
C110 O104 1.247 . S
C110 O105 1.258 . S
C111 O108 1.247 . S
C111 O109 1.258 . S
C112 O114 1.247 . S
C112 O116 1.258 . S
C113 O120 1.247 . S
C113 O121 1.258 . S
O114 C112 1.247 . S
O114 Zn115 2.028 . S
Zn115 O114 2.028 . S
Zn115 O119 2.035 . S
Zn115 O121 2.035 . S
Zn115 O122 2.028 . S
O116 C112 1.258 . S
O116 Zn117 2.035 . S
Zn117 O116 2.035 . S
Zn117 O118 2.028 . S
Zn117 O120 2.028 . S
Zn117 O123 2.035 . S
O118 Zn117 2.028 . S
O118 C124 1.247 . S
O119 Zn115 2.035 . S
O119 C124 1.258 . S
O120 C113 1.247 . S
O120 Zn117 2.028 . S
O121 C113 1.258 . S
O121 Zn115 2.035 . S
O122 Zn115 2.028 . S
O122 C125 1.247 . S
O123 Zn117 2.035 . S
O123 C125 1.258 . S
C124 O118 1.247 . S
C124 O119 1.258 . S
C125 O122 1.247 . S
C125 O123 1.258 . S
C126 O128 1.247 . S
C126 O130 1.258 . S
C127 O134 1.247 . S
C127 O135 1.258 . S
O128 C126 1.247 . S
O128 Zn129 2.028 . S
Zn129 O128 2.028 . S
Zn129 O133 2.035 . S
Zn129 O135 2.035 1_554 S
Zn129 O136 2.028 . S
O130 C126 1.258 . S
O130 Zn131 2.035 . S
Zn131 O130 2.035 . S
Zn131 O132 2.028 . S
Zn131 O134 2.028 1_554 S
Zn131 O137 2.035 . S
O132 Zn131 2.028 . S
O132 C138 1.247 . S
O133 Zn129 2.035 . S
O133 C138 1.258 . S
O134 C127 1.247 . S
O134 Zn131 2.028 1_556 S
O135 C127 1.258 . S
O135 Zn129 2.035 1_556 S
O136 Zn129 2.028 . S
O136 C139 1.247 . S
O137 Zn131 2.035 . S
O137 C139 1.258 . S
C138 O132 1.247 . S
C138 O133 1.258 . S
C139 O136 1.247 . S
C139 O137 1.258 . S
C140 O142 1.247 . S
C140 O144 1.258 . S
C141 O148 1.247 . S
C141 O149 1.258 . S
O142 C140 1.247 . S
O142 Zn143 2.028 . S
Zn143 O142 2.028 . S
Zn143 O147 2.035 . S
Zn143 O149 2.035 . S
Zn143 O150 2.028 . S
O144 C140 1.258 . S
O144 Zn145 2.035 . S
Zn145 O144 2.035 . S
Zn145 O146 2.028 . S
Zn145 O148 2.028 . S
Zn145 O151 2.035 . S
O146 Zn145 2.028 . S
O146 C152 1.247 . S
O147 Zn143 2.035 . S
O147 C152 1.258 . S
O148 C141 1.247 . S
O148 Zn145 2.028 . S
O149 C141 1.258 . S
O149 Zn143 2.035 . S
O150 Zn143 2.028 . S
O150 C153 1.247 . S
O151 Zn145 2.035 . S
O151 C153 1.258 . S
C152 O146 1.247 . S
C152 O147 1.258 . S
C153 O150 1.247 . S
C153 O151 1.258 . S
C154 O156 1.247 . S
C154 O158 1.258 . S
C155 O162 1.247 . S
C155 O163 1.258 . S
O156 C154 1.247 . S
O156 Zn157 2.028 . S
Zn157 O156 2.028 . S
Zn157 O161 2.035 . S
Zn157 O163 2.035 . S
Zn157 O164 2.028 . S
O158 C154 1.258 . S
O158 Zn159 2.035 . S
Zn159 O158 2.035 . S
Zn159 O160 2.028 . S
Zn159 O162 2.028 . S
Zn159 O165 2.035 . S
O160 Zn159 2.028 . S
O160 C166 1.247 . S
O161 Zn157 2.035 . S
O161 C166 1.258 . S
O162 C155 1.247 . S
O162 Zn159 2.028 . S
O163 C155 1.258 . S
O163 Zn157 2.035 . S
O164 Zn157 2.028 . S
O164 C167 1.247 . S
O165 Zn159 2.035 . S
O165 C167 1.258 . S
C166 O160 1.247 . S
C166 O161 1.258 . S
C167 O164 1.247 . S
C167 O165 1.258 . S
C168 O170 1.247 . S
C168 O172 1.258 . S
C169 O176 1.247 . S
C169 O177 1.258 . S
O170 C168 1.247 . S
O170 Zn171 2.028 . S
Zn171 O170 2.028 . S
Zn171 O175 2.035 . S
Zn171 O177 2.035 . S
Zn171 O178 2.028 . S
O172 C168 1.258 . S
O172 Zn173 2.035 . S
Zn173 O172 2.035 . S
Zn173 O174 2.028 . S
Zn173 O176 2.028 . S
Zn173 O179 2.035 . S
O174 Zn173 2.028 . S
O174 C180 1.247 . S
O175 Zn171 2.035 . S
O175 C180 1.258 . S
O176 C169 1.247 . S
O176 Zn173 2.028 . S
O177 C169 1.258 . S
O177 Zn171 2.035 . S
O178 Zn171 2.028 . S
O178 C181 1.247 . S
O179 Zn173 2.035 . S
O179 C181 1.258 . S
C180 O174 1.247 . S
C180 O175 1.258 . S
C181 O178 1.247 . S
C181 O179 1.258 . S
C182 O184 1.247 . S
C182 O186 1.258 . S
C183 O190 1.247 . S
C183 O191 1.258 . S
O184 C182 1.247 . S
O184 Zn185 2.028 . S
Zn185 O184 2.028 . S
Zn185 O189 2.035 . S
Zn185 O191 2.035 . S
Zn185 O192 2.028 . S
O186 C182 1.258 . S
O186 Zn187 2.035 . S
Zn187 O186 2.035 . S
Zn187 O188 2.028 . S
Zn187 O190 2.028 . S
Zn187 O193 2.035 . S
O188 Zn187 2.028 . S
O188 C194 1.247 . S
O189 Zn185 2.035 . S
O189 C194 1.258 . S
O190 C183 1.247 . S
O190 Zn187 2.028 . S
O191 C183 1.258 . S
O191 Zn185 2.035 . S
O192 Zn185 2.028 . S
O192 C195 1.247 . S
O193 Zn187 2.035 . S
O193 C195 1.258 . S
C194 O188 1.247 . S
C194 O189 1.258 . S
C195 O192 1.247 . S
C195 O193 1.258 . S
C196 O198 1.247 . S
C196 O200 1.258 . S
C197 O204 1.248 . S
C197 O205 1.261 . S
O198 C196 1.247 . S
O198 Zn199 2.028 . S
Zn199 O198 2.028 . S
Zn199 O203 2.035 1_554 S
Zn199 O205 2.035 . S
Zn199 O206 2.028 . S
O200 C196 1.258 . S
O200 Zn201 2.035 . S
Zn201 O200 2.035 . S
Zn201 O202 2.028 1_554 S
Zn201 O204 2.028 . S
Zn201 O207 2.035 . S
O202 Zn201 2.028 1_556 S
O202 C208 1.247 . S
O203 Zn199 2.035 1_556 S
O203 C208 1.258 . S
O204 C197 1.248 . S
O204 Zn201 2.028 . S
O205 C197 1.261 . S
O205 Zn199 2.035 . S
O206 Zn199 2.028 . S
O206 C209 1.247 . S
O207 Zn201 2.035 . S
O207 C209 1.258 . S
C208 O202 1.247 . S
C208 O203 1.258 . S
C209 O206 1.247 . S
C209 O207 1.258 . S
C210 O212 1.247 . S
C210 O214 1.258 . S
C211 O218 1.247 . S
C211 O219 1.258 . S
O212 C210 1.247 . S
O212 Zn213 2.028 . S
Zn213 O212 2.028 . S
Zn213 O217 2.035 . S
Zn213 O219 2.035 . S
Zn213 O220 2.028 . S
O214 C210 1.258 . S
O214 Zn215 2.035 . S
Zn215 O214 2.035 . S
Zn215 O216 2.028 . S
Zn215 O218 2.028 . S
Zn215 O221 2.035 . S
O216 Zn215 2.028 . S
O216 C222 1.247 . S
O217 Zn213 2.035 . S
O217 C222 1.258 . S
O218 C211 1.247 . S
O218 Zn215 2.028 . S
O219 C211 1.258 . S
O219 Zn213 2.035 . S
O220 Zn213 2.028 . S
O220 C223 1.247 . S
O221 Zn215 2.035 . S
O221 C223 1.258 . S
C222 O216 1.247 . S
C222 O217 1.258 . S
C223 O220 1.247 . S
C223 O221 1.258 . S
C224 C225 1.369 . S
C224 C226 1.419 . S
C224 H228 0.930 . S
C225 C224 1.369 . S
C225 C234 1.429 . S
C226 C224 1.419 . S
C226 C227 1.363 . S
C226 H229 0.929 . S
C227 C226 1.363 . S
C227 C233 1.428 . S
H228 C224 0.930 . S
H229 C226 0.929 . S
S230 N231 1.613 . S
S230 N232 1.610 . S
N231 S230 1.613 . S
N231 C234 1.350 . S
N232 S230 1.610 . S
N232 C233 1.351 . S
C233 C227 1.428 . S
C233 N232 1.351 . S
C233 C234 1.434 . S
C234 C225 1.429 . S
C234 N231 1.350 . S
C234 C233 1.434 . S
C235 C236 1.369 . S
C235 C237 1.419 . S
C235 H239 0.930 . S
C236 C235 1.369 . S
C236 C245 1.429 . S
C237 C235 1.419 . S
C237 C238 1.363 . S
C237 H240 0.929 . S
C238 C237 1.363 . S
C238 C244 1.428 . S
H239 C235 0.930 . S
H240 C237 0.929 . S
S241 N242 1.613 . S
S241 N243 1.610 . S
N242 S241 1.613 . S
N242 C245 1.350 . S
N243 S241 1.610 . S
N243 C244 1.351 . S
C244 C238 1.428 . S
C244 N243 1.351 . S
C244 C245 1.434 . S
C245 C236 1.429 . S
C245 N242 1.350 . S
C245 C244 1.434 . S
C246 C247 1.369 . S
C246 C248 1.419 . S
C246 H250 0.930 . S
C247 C246 1.369 . S
C247 C256 1.429 . S
C248 C246 1.419 . S
C248 C249 1.363 . S
C248 H251 0.929 1_556 S
C249 C248 1.363 . S
C249 C255 1.428 . S
H250 C246 0.930 . S
H251 C248 0.929 1_554 S
S252 N253 1.613 . S
S252 N254 1.610 . S
N253 S252 1.613 . S
N253 C256 1.350 . S
N254 S252 1.610 . S
N254 C255 1.351 . S
C255 C249 1.428 . S
C255 N254 1.351 . S
C255 C256 1.434 . S
C256 C247 1.429 . S
C256 N253 1.350 . S
C256 C255 1.434 . S
C257 C258 1.369 . S
C257 C259 1.419 . S
C257 H261 0.930 . S
C258 C257 1.369 . S
C258 C267 1.429 . S
C259 C257 1.419 . S
C259 C260 1.363 . S
C259 H262 0.929 . S
C260 C259 1.363 . S
C260 C266 1.428 . S
H261 C257 0.930 . S
H262 C259 0.929 . S
S263 N264 1.613 . S
S263 N265 1.610 . S
N264 S263 1.613 . S
N264 C267 1.350 . S
N265 S263 1.610 . S
N265 C266 1.351 . S
C266 C260 1.428 . S
C266 N265 1.351 . S
C266 C267 1.434 . S
C267 C258 1.429 . S
C267 N264 1.350 . S
C267 C266 1.434 . S
C268 C269 1.369 . S
C268 C270 1.419 . S
C268 H272 0.930 . S
C269 C268 1.369 . S
C269 C278 1.429 . S
C270 C268 1.419 . S
C270 C271 1.363 . S
C270 H273 0.929 1_556 S
C271 C270 1.363 . S
C271 C277 1.428 . S
H272 C268 0.930 . S
H273 C270 0.929 1_554 S
S274 N275 1.613 . S
S274 N276 1.610 . S
N275 S274 1.613 . S
N275 C278 1.350 . S
N276 S274 1.610 . S
N276 C277 1.351 . S
C277 C271 1.428 . S
C277 N276 1.351 . S
C277 C278 1.434 . S
C278 C269 1.429 . S
C278 N275 1.350 . S
C278 C277 1.434 . S
C279 C280 1.369 . S
C279 C281 1.419 . S
C279 H283 0.930 . S
C280 C279 1.369 . S
C280 C289 1.429 . S
C281 C279 1.419 . S
C281 C282 1.363 . S
C281 H284 0.929 . S
C282 C281 1.363 . S
C282 C288 1.428 . S
H283 C279 0.930 . S
H284 C281 0.929 . S
S285 N286 1.613 . S
S285 N287 1.610 . S
N286 S285 1.613 . S
N286 C289 1.350 . S
N287 S285 1.610 . S
N287 C288 1.351 . S
C288 C282 1.428 . S
C288 N287 1.351 . S
C288 C289 1.434 . S
C289 C280 1.429 . S
C289 N286 1.350 . S
C289 C288 1.434 . S
C290 C291 1.369 . S
C290 C292 1.419 . S
C290 H294 0.930 . S
C291 C290 1.369 . S
C291 C300 1.429 . S
C292 C290 1.419 . S
C292 C293 1.363 . S
C292 H295 0.929 . S
C293 C292 1.363 . S
C293 C299 1.428 . S
H294 C290 0.930 . S
H295 C292 0.929 . S
S296 N297 1.613 . S
S296 N298 1.610 . S
N297 S296 1.613 . S
N297 C300 1.350 . S
N298 S296 1.610 . S
N298 C299 1.351 . S
C299 C293 1.428 . S
C299 N298 1.351 . S
C299 C300 1.434 . S
C300 C291 1.429 . S
C300 N297 1.350 . S
C300 C299 1.434 . S
C301 C302 1.369 . S
C301 C303 1.419 . S
C301 H305 0.930 . S
C302 C301 1.369 . S
C302 C311 1.429 . S
C303 C301 1.419 . S
C303 C304 1.363 . S
C303 H306 0.929 . S
C304 C303 1.363 . S
C304 C310 1.428 . S
H305 C301 0.930 . S
H306 C303 0.929 . S
S307 N308 1.613 . S
S307 N309 1.610 . S
N308 S307 1.613 . S
N308 C311 1.350 . S
N309 S307 1.610 . S
N309 C310 1.351 . S
C310 C304 1.428 . S
C310 N309 1.351 . S
C310 C311 1.434 . S
C311 C302 1.429 . S
C311 N308 1.350 . S
C311 C310 1.434 . S
C312 C313 1.369 1_655 S
C312 C314 1.419 1_545 S
C312 H316 0.930 . S
C313 C312 1.369 1_455 S
C313 C322 1.429 . S
C314 C312 1.419 1_565 S
C314 C315 1.363 . S
C314 H317 0.929 . S
C315 C314 1.363 . S
C315 C321 1.428 1_655 S
H316 C312 0.930 . S
H317 C314 0.929 . S
S318 N319 1.613 . S
S318 N320 1.610 . S
N319 S318 1.613 . S
N319 C322 1.350 1_565 S
N320 S318 1.610 . S
N320 C321 1.351 . S
C321 C315 1.428 1_455 S
C321 N320 1.351 . S
C321 C322 1.434 1_565 S
C322 C313 1.429 . S
C322 N319 1.350 1_545 S
C322 C321 1.434 1_545 S
C323 C324 1.369 . S
C323 C325 1.419 1_655 S
C323 H327 0.930 . S
C324 C323 1.369 . S
C324 C333 1.429 . S
C325 C323 1.419 1_455 S
C325 C326 1.363 . S
C325 H328 0.929 . S
C326 C325 1.363 . S
C326 C332 1.428 . S
H327 C323 0.930 . S
H328 C325 0.929 . S
S329 N330 1.613 . S
S329 N331 1.610 . S
N330 S329 1.613 . S
N330 C333 1.350 1_455 S
N331 S329 1.610 . S
N331 C332 1.351 . S
C332 C326 1.428 . S
C332 N331 1.351 . S
C332 C333 1.434 1_455 S
C333 C324 1.429 . S
C333 N330 1.350 1_655 S
C333 C332 1.434 1_655 S
C334 C335 1.369 . S
C334 C336 1.419 . S
C334 H338 0.930 . S
C335 C334 1.369 . S
C335 C344 1.429 . S
C336 C334 1.419 . S
C336 C337 1.363 . S
C336 H339 0.929 . S
C337 C336 1.363 . S
C337 C343 1.428 . S
H338 C334 0.930 . S
H339 C336 0.929 . S
S340 N341 1.613 . S
S340 N342 1.610 . S
N341 S340 1.613 . S
N341 C344 1.350 . S
N342 S340 1.610 . S
N342 C343 1.351 . S
C343 C337 1.428 . S
C343 N342 1.351 . S
C343 C344 1.434 . S
C344 C335 1.429 . S
C344 N341 1.350 . S
C344 C343 1.434 . S
C345 C346 1.369 1_545 S
C345 C347 1.419 . S
C345 H349 0.930 . S
C346 C345 1.369 1_565 S
C346 C355 1.429 1_554 S
C347 C345 1.419 . S
C347 C348 1.363 . S
C347 H350 0.929 . S
C348 C347 1.363 . S
C348 C354 1.428 1_544 S
H349 C345 0.930 . S
H350 C347 0.929 . S
S351 N352 1.613 . S
S351 N353 1.610 . S
N352 S351 1.613 . S
N352 C355 1.350 . S
N353 S351 1.610 . S
N353 C354 1.351 . S
C354 C348 1.428 1_566 S
C354 N353 1.351 . S
C354 C355 1.434 . S
C355 C346 1.429 1_556 S
C355 N352 1.350 . S
C355 C354 1.434 . S
C356 C357 1.369 1_556 S
C356 C358 1.419 1_455 S
C356 H360 0.930 . S
C357 C356 1.369 1_554 S
C357 C366 1.429 . S
C358 C356 1.419 1_655 S
C358 C359 1.363 1_556 S
C358 H361 0.929 . S
C359 C358 1.363 1_554 S
C359 C365 1.428 . S
H360 C356 0.930 . S
H361 C358 0.929 . S
S362 N363 1.613 . S
S362 N364 1.610 1_455 S
N363 S362 1.613 . S
N363 C366 1.350 . S
N364 S362 1.610 1_655 S
N364 C365 1.351 . S
C365 C359 1.428 . S
C365 N364 1.351 . S
C365 C366 1.434 1_655 S
C366 C357 1.429 . S
C366 N363 1.350 . S
C366 C365 1.434 1_455 S
C367 C368 1.369 . S
C367 C369 1.419 . S
C367 H371 0.930 . S
C368 C367 1.369 . S
C368 C377 1.429 . S
C369 C367 1.419 . S
C369 C370 1.363 . S
C369 H372 0.929 . S
C370 C369 1.363 . S
C370 C376 1.428 . S
H371 C367 0.930 . S
H372 C369 0.929 . S
S373 N374 1.613 . S
S373 N375 1.610 . S
N374 S373 1.613 . S
N374 C377 1.350 . S
N375 S373 1.610 . S
N375 C376 1.351 . S
C376 C370 1.428 . S
C376 N375 1.351 . S
C376 C377 1.434 . S
C377 C368 1.429 . S
C377 N374 1.350 . S
C377 C376 1.434 . S
C378 C379 1.369 . S
C378 C380 1.419 1_545 S
C378 H382 0.930 . S
C379 C378 1.369 . S
C379 C388 1.429 . S
C380 C378 1.419 1_565 S
C380 C381 1.363 . S
C380 H383 0.929 . S
C381 C380 1.363 . S
C381 C387 1.428 . S
H382 C378 0.930 . S
H383 C380 0.929 . S
S384 N385 1.613 . S
S384 N386 1.610 1_545 S
N385 S384 1.613 . S
N385 C388 1.350 . S
N386 S384 1.610 1_565 S
N386 C387 1.351 . S
C387 C381 1.428 . S
C387 N386 1.351 . S
C387 C388 1.434 1_565 S
C388 C379 1.429 . S
C388 N385 1.350 . S
C388 C387 1.434 1_545 S
C389 C390 1.369 . S
C389 C391 1.419 1_455 S
C389 H393 0.930 . S
C390 C389 1.369 . S
C390 C399 1.429 1_545 S
C391 C389 1.419 1_655 S
C391 C392 1.363 1_545 S
C391 H394 0.929 . S
C392 C391 1.363 1_565 S
C392 C398 1.428 . S
H393 C389 0.930 . S
H394 C391 0.929 . S
S395 N396 1.613 . S
S395 N397 1.610 1_455 S
N396 S395 1.613 . S
N396 C399 1.350 . S
N397 S395 1.610 1_655 S
N397 C398 1.351 . S
C398 C392 1.428 . S
C398 N397 1.351 . S
C398 C399 1.434 1_655 S
C399 C390 1.429 1_565 S
C399 N396 1.350 . S
C399 C398 1.434 1_455 S
C400 C401 1.369 . S
C400 C402 1.419 . S
C400 H404 0.930 . S
C401 C400 1.369 . S
C401 C410 1.429 . S
C402 C400 1.419 . S
C402 C403 1.363 . S
C402 H405 0.929 . S
C403 C402 1.363 . S
C403 C409 1.428 . S
H404 C400 0.930 . S
H405 C402 0.929 . S
S406 N407 1.613 . S
S406 N408 1.610 . S
N407 S406 1.613 . S
N407 C410 1.350 . S
N408 S406 1.610 . S
N408 C409 1.351 . S
C409 C403 1.428 . S
C409 N408 1.351 . S
C409 C410 1.434 . S
C410 C401 1.429 . S
C410 N407 1.350 . S
C410 C409 1.434 . S
C411 C412 1.369 . S
C411 C413 1.419 . S
C411 H415 0.930 . S
C412 C411 1.369 . S
C412 C421 1.429 . S
C413 C411 1.419 . S
C413 C414 1.363 . S
C413 H416 0.929 . S
C414 C413 1.363 . S
C414 C420 1.428 . S
H415 C411 0.930 . S
H416 C413 0.929 . S
S417 N418 1.613 . S
S417 N419 1.610 . S
N418 S417 1.613 . S
N418 C421 1.350 . S
N419 S417 1.610 . S
N419 C420 1.351 . S
C420 C414 1.428 . S
C420 N419 1.351 . S
C420 C421 1.434 . S
C421 C412 1.429 . S
C421 N418 1.350 . S
C421 C420 1.434 . S
C422 C423 1.369 . S
C422 C424 1.419 . S
C422 H426 0.930 . S
C423 C422 1.369 . S
C423 C432 1.429 . S
C424 C422 1.419 . S
C424 C425 1.363 1_554 S
C424 H427 0.929 1_554 S
C425 C424 1.363 1_556 S
C425 C431 1.428 1_556 S
H426 C422 0.930 . S
H427 C424 0.929 1_556 S
S428 N429 1.613 . S
S428 N430 1.610 1_554 S
N429 S428 1.613 . S
N429 C432 1.350 . S
N430 S428 1.610 1_556 S
N430 C431 1.351 1_556 S
C431 C425 1.428 1_554 S
C431 N430 1.351 1_554 S
C431 C432 1.434 . S
C432 C423 1.429 . S
C432 N429 1.350 . S
C432 C431 1.434 . S
C433 C434 1.369 . S
C433 C435 1.419 . S
C433 H437 0.930 . S
C434 C433 1.369 . S
C434 C443 1.429 . S
C435 C433 1.419 . S
C435 C436 1.363 . S
C435 H438 0.929 . S
C436 C435 1.363 . S
C436 C442 1.428 . S
H437 C433 0.930 . S
H438 C435 0.929 . S
S439 N440 1.613 . S
S439 N441 1.610 . S
N440 S439 1.613 . S
N440 C443 1.350 . S
N441 S439 1.610 . S
N441 C442 1.351 . S
C442 C436 1.428 . S
C442 N441 1.351 . S
C442 C443 1.434 . S
C443 C434 1.429 . S
C443 N440 1.350 . S
C443 C442 1.434 . S
C444 C445 1.369 . S
C444 C446 1.419 . S
C444 H448 0.930 . S
C445 C444 1.369 . S
C445 C454 1.429 . S
C446 C444 1.419 . S
C446 C447 1.363 . S
C446 H449 0.929 . S
C447 C446 1.363 . S
C447 C453 1.428 . S
H448 C444 0.930 . S
H449 C446 0.929 . S
S450 N451 1.613 . S
S450 N452 1.610 . S
N451 S450 1.613 . S
N451 C454 1.350 . S
N452 S450 1.610 . S
N452 C453 1.351 . S
C453 C447 1.428 . S
C453 N452 1.351 . S
C453 C454 1.434 . S
C454 C445 1.429 . S
C454 N451 1.350 . S
C454 C453 1.434 . S
C455 C456 1.369 . S
C455 C457 1.419 . S
C455 H459 0.930 . S
C456 C455 1.369 . S
C456 C465 1.429 . S
C457 C455 1.419 . S
C457 C458 1.363 1_554 S
C457 H460 0.929 . S
C458 C457 1.363 1_556 S
C458 C464 1.428 . S
H459 C455 0.930 . S
H460 C457 0.929 . S
S461 N462 1.613 1_556 S
S461 N463 1.610 . S
N462 S461 1.613 1_554 S
N462 C465 1.350 . S
N463 S461 1.610 . S
N463 C464 1.351 . S
C464 C458 1.428 . S
C464 N463 1.351 . S
C464 C465 1.434 1_556 S
C465 C456 1.429 . S
C465 N462 1.350 . S
C465 C464 1.434 1_554 S
C466 C467 1.369 . S
C466 C468 1.419 . S
C466 H470 0.930 . S
C467 C466 1.369 . S
C467 C476 1.429 . S
C468 C466 1.419 . S
C468 C469 1.363 . S
C468 H471 0.929 . S
C469 C468 1.363 . S
C469 C475 1.428 . S
H470 C466 0.930 . S
H471 C468 0.929 . S
S472 N473 1.613 . S
S472 N474 1.610 . S
N473 S472 1.613 . S
N473 C476 1.350 . S
N474 S472 1.610 . S
N474 C475 1.351 . S
C475 C469 1.428 . S
C475 N474 1.351 . S
C475 C476 1.434 . S
C476 C467 1.429 . S
C476 N473 1.350 . S
C476 C475 1.434 . S
C477 C478 1.369 . S
C477 C479 1.419 . S
C477 H481 0.930 . S
C478 C477 1.369 . S
C478 C487 1.429 . S
C479 C477 1.419 . S
C479 C480 1.363 . S
C479 H482 0.929 . S
C480 C479 1.363 . S
C480 C486 1.428 . S
H481 C477 0.930 . S
H482 C479 0.929 . S
S483 N484 1.613 . S
S483 N485 1.610 . S
N484 S483 1.613 . S
N484 C487 1.350 . S
N485 S483 1.610 . S
N485 C486 1.351 . S
C486 C480 1.428 . S
C486 N485 1.351 . S
C486 C487 1.434 . S
C487 C478 1.429 . S
C487 N484 1.350 . S
C487 C486 1.434 . S
C488 C489 1.369 1_554 S
C488 C490 1.419 . S
C488 H492 0.930 1_554 S
C489 C488 1.369 1_556 S
C489 C498 1.429 1_556 S
C490 C488 1.419 . S
C490 C491 1.363 . S
C490 H493 0.929 . S
C491 C490 1.363 . S
C491 C497 1.428 . S
H492 C488 0.930 1_556 S
H493 C490 0.929 . S
S494 N495 1.613 1_554 S
S494 N496 1.610 . S
N495 S494 1.613 1_556 S
N495 C498 1.350 1_556 S
N496 S494 1.610 . S
N496 C497 1.351 . S
C497 C491 1.428 . S
C497 N496 1.351 . S
C497 C498 1.434 . S
C498 C489 1.429 1_554 S
C498 N495 1.350 1_554 S
C498 C497 1.434 . S
C499 C500 1.369 . S
C499 C501 1.419 . S
C499 H503 0.930 . S
C500 C499 1.369 . S
C500 C509 1.429 . S
C501 C499 1.419 . S
C501 C502 1.363 . S
C501 H504 0.929 . S
C502 C501 1.363 . S
C502 C508 1.428 . S
H503 C499 0.930 . S
H504 C501 0.929 . S
S505 N506 1.613 . S
S505 N507 1.610 . S
N506 S505 1.613 . S
N506 C509 1.350 . S
N507 S505 1.610 . S
N507 C508 1.351 . S
C508 C502 1.428 . S
C508 N507 1.351 . S
C508 C509 1.434 . S
C509 C500 1.429 . S
C509 N506 1.350 . S
C509 C508 1.434 . S
C510 C511 1.369 . S
C510 C512 1.419 . S
C510 H514 0.930 . S
C511 C510 1.369 . S
C511 C520 1.429 . S
C512 C510 1.419 . S
C512 C513 1.363 . S
C512 H515 0.929 . S
C513 C512 1.363 . S
C513 C519 1.428 . S
H514 C510 0.930 . S
H515 C512 0.929 . S
S516 N517 1.613 . S
S516 N518 1.610 . S
N517 S516 1.613 . S
N517 C520 1.350 . S
N518 S516 1.610 . S
N518 C519 1.351 . S
C519 C513 1.428 . S
C519 N518 1.351 . S
C519 C520 1.434 . S
C520 C511 1.429 . S
C520 N517 1.350 . S
C520 C519 1.434 . S
C521 C522 1.369 . S
C521 C523 1.419 . S
C521 H525 0.930 . S
C522 C521 1.369 . S
C522 C531 1.429 . S
C523 C521 1.419 . S
C523 C524 1.363 . S
C523 H526 0.929 . S
C524 C523 1.363 . S
C524 C530 1.428 . S
H525 C521 0.930 . S
H526 C523 0.929 . S
S527 N528 1.613 . S
S527 N529 1.610 . S
N528 S527 1.613 . S
N528 C531 1.350 . S
N529 S527 1.610 . S
N529 C530 1.351 . S
C530 C524 1.428 . S
C530 N529 1.351 . S
C530 C531 1.434 . S
C531 C522 1.429 . S
C531 N528 1.350 . S
C531 C530 1.434 . S
C532 C533 1.369 . S
C532 C534 1.419 . S
C532 H536 0.930 . S
C533 C532 1.369 . S
C533 C542 1.429 . S
C534 C532 1.419 . S
C534 C535 1.363 . S
C534 H537 0.929 . S
C535 C534 1.363 . S
C535 C541 1.428 . S
H536 C532 0.930 . S
H537 C534 0.929 . S
S538 N539 1.613 . S
S538 N540 1.610 . S
N539 S538 1.613 . S
N539 C542 1.350 . S
N540 S538 1.610 . S
N540 C541 1.351 . S
C541 C535 1.428 . S
C541 N540 1.351 . S
C541 C542 1.434 . S
C542 C533 1.429 . S
C542 N539 1.350 . S
C542 C541 1.434 . S
C543 C544 1.369 . S
C543 C545 1.419 . S
C543 H547 0.930 . S
C544 C543 1.369 . S
C544 C553 1.429 . S
C545 C543 1.419 . S
C545 C546 1.363 . S
C545 H548 0.929 . S
C546 C545 1.363 . S
C546 C552 1.428 . S
H547 C543 0.930 . S
H548 C545 0.929 . S
S549 N550 1.613 . S
S549 N551 1.610 . S
N550 S549 1.613 . S
N550 C553 1.350 . S
N551 S549 1.610 . S
N551 C552 1.351 . S
C552 C546 1.428 . S
C552 N551 1.351 . S
C552 C553 1.434 . S
C553 C544 1.429 . S
C553 N550 1.350 . S
C553 C552 1.434 . S
C554 C555 1.369 . S
C554 C556 1.419 . S
C554 H558 0.930 . S
C555 C554 1.369 . S
C555 C564 1.429 . S
C556 C554 1.419 . S
C556 C557 1.363 . S
C556 H559 0.929 . S
C557 C556 1.363 . S
C557 C563 1.428 . S
H558 C554 0.930 . S
H559 C556 0.929 . S
S560 N561 1.613 . S
S560 N562 1.610 . S
N561 S560 1.613 . S
N561 C564 1.350 . S
N562 S560 1.610 . S
N562 C563 1.351 . S
C563 C557 1.428 . S
C563 N562 1.351 . S
C563 C564 1.434 . S
C564 C555 1.429 . S
C564 N561 1.350 . S
C564 C563 1.434 . S
C565 C566 1.369 . S
C565 C567 1.419 1_554 S
C565 H569 0.930 . S
C566 C565 1.369 . S
C566 C575 1.429 . S
C567 C565 1.419 1_556 S
C567 C568 1.363 . S
C567 H570 0.929 . S
C568 C567 1.363 . S
C568 C574 1.428 1_556 S
H569 C565 0.930 . S
H570 C567 0.929 . S
S571 N572 1.613 . S
S571 N573 1.610 . S
N572 S571 1.613 . S
N572 C575 1.350 . S
N573 S571 1.610 . S
N573 C574 1.351 . S
C574 C568 1.428 1_554 S
C574 N573 1.351 . S
C574 C575 1.434 . S
C575 C566 1.429 . S
C575 N572 1.350 . S
C575 C574 1.434 . S
C225 C97 2.032 . S
C227 C13 2.035 . S
C236 C111 2.029 . S
C238 C27 2.033 . S
C247 C41 2.034 . S
C249 C56 2.024 1_556 S
C258 C55 2.034 . S
C260 C83 2.034 . S
C269 C112 2.036 . S
C271 C197 2.022 1_556 S
C280 C223 2.032 . S
C282 C139 2.030 . S
C291 C141 2.033 . S
C293 C168 2.032 . S
C302 C155 2.032 . S
C304 C182 2.036 . S
C313 C12 1.978 . S
C315 C140 1.985 . S
C324 C26 1.978 . S
C326 C154 1.985 . S
C335 C40 1.985 . S
C337 C113 1.974 . S
C346 C54 1.981 . S
C348 C138 1.985 . S
C357 C57 1.980 . S
C359 C196 1.983 . S
C368 C222 1.982 . S
C370 C82 1.985 . S
C379 C96 1.986 . S
C381 C169 1.976 . S
C390 C183 1.977 . S
C392 C110 1.980 . S
C401 C195 0.922 . S
C403 C0 0.916 . S
C412 C14 0.922 . S
C414 C208 0.916 . S
C423 C210 0.921 . S
C425 C28 0.918 . S
C434 C181 0.918 . S
C436 C42 0.920 . S
C445 C166 0.915 . S
C447 C69 0.920 . S
C456 C70 0.923 . S
C458 C125 0.915 . S
C467 C84 0.921 . S
C469 C126 0.916 . S
C478 C98 0.920 . S
C480 C152 0.919 . S
C489 C194 1.701 . S
C491 C1 1.700 . S
C500 C15 1.698 . S
C502 C209 1.702 . S
C511 C29 1.697 . S
C513 C211 1.702 . S
C522 C180 1.699 . S
C524 C43 1.701 . S
C533 C167 1.702 . S
C535 C68 1.700 . S
C544 C124 1.702 . S
C546 C71 1.700 . S
C555 C85 1.701 . S
C557 C127 1.700 . S
C566 C153 1.697 . S
C568 C99 1.701 . S
