# Generated by pormake.
# Topology bcg, (8)-cn, num edge types: 1
# Building blocks:
#     Node 0, Type 0, BuildingBlock: XADDAJ01_clean_sbu_3, # of connection points: 8
#     Node 1, Type 0, BuildingBlock: XADDAJ01_clean_sbu_3, # of connection points: 8
#     Node 2, Type 0, BuildingBlock: XADDAJ01_clean_sbu_3, # of connection points: 8
#     Node 3, Type 0, BuildingBlock: XADDAJ01_clean_sbu_3, # of connection points: 8
#     Edge 4, Type (0, 0), BuildingBlock: XUDNAN_clean_linker_2, # of connection points: 2
#     Edge 5, Type (0, 0), BuildingBlock: XUDNAN_clean_linker_2, # of connection points: 2
#     Edge 6, Type (0, 0), BuildingBlock: XUDNAN_clean_linker_2, # of connection points: 2
#     Edge 7, Type (0, 0), BuildingBlock: XUDNAN_clean_linker_2, # of connection points: 2
#     Edge 8, Type (0, 0), BuildingBlock: XUDNAN_clean_linker_2, # of connection points: 2
#     Edge 9, Type (0, 0), BuildingBlock: XUDNAN_clean_linker_2, # of connection points: 2
#     Edge 10, Type (0, 0), BuildingBlock: XUDNAN_clean_linker_2, # of connection points: 2
#     Edge 11, Type (0, 0), BuildingBlock: XUDNAN_clean_linker_2, # of connection points: 2
#     Edge 12, Type (0, 0), BuildingBlock: XUDNAN_clean_linker_2, # of connection points: 2
#     Edge 13, Type (0, 0), BuildingBlock: XUDNAN_clean_linker_2, # of connection points: 2
#     Edge 14, Type (0, 0), BuildingBlock: XUDNAN_clean_linker_2, # of connection points: 2
#     Edge 15, Type (0, 0), BuildingBlock: XUDNAN_clean_linker_2, # of connection points: 2
#     Edge 16, Type (0, 0), BuildingBlock: XUDNAN_clean_linker_2, # of connection points: 2
#     Edge 17, Type (0, 0), BuildingBlock: XUDNAN_clean_linker_2, # of connection points: 2
#     Edge 18, Type (0, 0), BuildingBlock: XUDNAN_clean_linker_2, # of connection points: 2
#     Edge 19, Type (0, 0), BuildingBlock: XUDNAN_clean_linker_2, # of connection points: 2
# Relax obj value: 0.165
# Max RMSD: 0.233
# Mean RMSD: 0.233
data_MOF--net-bcg--node1-XADDAJ01_clean_sbu_3--edge1-XUDNAN_clean_linker_2
_symmetry_space_group_name_H-M    P1
_symmetry_Int_Tables_number       1
_symmetry_cell_setting            triclinic
loop_
_symmetry_equiv_pos_as_xyz
'x, y, z'
_cell_length_a     21.682276
_cell_length_b     17.723213
_cell_length_c     33.328326
_cell_angle_alpha  80.4844
_cell_angle_beta   89.921822
_cell_angle_gamma 90.10762
loop_
_atom_site_label
_atom_site_type_symbol
_atom_site_fract_x
_atom_site_fract_y
_atom_site_fract_z
_atom_type_partial_charge
C0 C 0.09416 0.31286 0.0617 0.0
C1 C 0.03953 0.29548 0.04163 0.0
C2 C 0.9868 0.26799 0.06467 0.0
C3 C 0.98949 0.25928 0.10725 0.0
C4 C 0.04272 0.27746 0.12706 0.0
C5 C 0.09479 0.3043 0.10436 0.0
O6 O 0.2133 0.21572 0.96536 0.0
Tb7 Tb 0.22085 0.32925 0.98166 0.0
Tb8 Tb 0.32769 0.20606 0.02699 0.0
O9 O 0.17754 0.37519 0.92432 0.0
O10 O 0.23997 0.14586 0.02639 0.0
O11 O 0.1462 0.38497 0.004 0.0
C12 C 0.39595 0.19297 0.96794 0.0
O13 O 0.19907 0.29611 0.04335 0.0
O14 O 0.33657 0.31917 0.04355 0.0
O15 O 0.30866 0.39016 0.9828 0.0
C16 C 0.15128 0.34253 0.04017 0.0
C17 C 0.34567 0.15445 0.11768 0.0
O18 O 0.28813 0.17753 0.11807 0.0
C19 C 0.20774 0.15357 0.9926 0.0
C20 C 0.34269 0.38101 0.016 0.0
O21 O 0.37381 0.15723 0.08265 0.0
C22 C 0.45633 0.21917 0.95012 0.0
C23 C 0.52026 0.24486 0.88894 0.0
C24 C 0.4629 0.22675 0.90782 0.0
C25 C 0.50834 0.22869 0.97418 0.0
C26 C 0.5662 0.24779 0.95575 0.0
C27 C 0.57082 0.25868 0.91316 0.0
C28 C 0.19989 0.35452 0.89121 0.0
O29 O 0.25131 0.31485 0.89386 0.0
O30 O 0.39668 0.14508 0.00259 0.0
O31 O 0.35176 0.24433 0.96593 0.0
H32 H 0.03823 0.30247 0.00873 0.0
H33 H 0.94901 0.24017 0.12533 0.0
H34 H 0.13584 0.31902 0.12001 0.0
H35 H 0.42368 0.21389 0.88997 0.0
H36 H 0.50431 0.21897 0.00705 0.0
H37 H 0.61532 0.27284 0.8991 0.0
C38 C 0.58756 0.87353 0.05566 0.0
C39 C 0.53862 0.85724 0.03131 0.0
C40 C 0.47814 0.86054 0.04503 0.0
C41 C 0.46642 0.88404 0.08233 0.0
C42 C 0.51483 0.89346 0.10929 0.0
C43 C 0.57604 0.88954 0.09498 0.0
O44 O 0.74262 0.71877 0.98558 0.0
Tb45 Tb 0.69811 0.83094 0.97807 0.0
Tb46 Tb 0.86555 0.69669 0.02897 0.0
O47 O 0.63471 0.83311 0.92766 0.0
O48 O 0.77756 0.63628 0.03959 0.0
O49 O 0.66756 0.91658 0.00973 0.0
C50 C 0.92025 0.65553 0.96971 0.0
O51 O 0.66642 0.7958 0.03751 0.0
O52 O 0.81727 0.80485 0.01492 0.0
O53 O 0.78477 0.89176 0.96368 0.0
C54 C 0.65066 0.86578 0.04125 0.0
C55 C 0.89729 0.76257 0.10435 0.0
O56 O 0.84222 0.79142 0.09577 0.0
C57 C 0.73108 0.66266 0.01579 0.0
C58 C 0.83111 0.86156 0.98584 0.0
O59 O 0.9207 0.7164 0.08108 0.0
C60 C 0.98115 0.6544 0.95038 0.0
C61 C 0.04282 0.6429 0.88958 0.0
C62 C 0.98555 0.63827 0.91035 0.0
C63 C 0.03429 0.67201 0.97076 0.0
C64 C 0.09124 0.67455 0.95104 0.0
C65 C 0.0949 0.66309 0.91064 0.0
C66 C 0.65519 0.86012 0.89096 0.0
O67 O 0.71158 0.88769 0.88703 0.0
O68 O 0.91188 0.61029 0.00492 0.0
O69 O 0.8961 0.72365 0.9688 0.0
H70 H 0.54772 0.8387 0.00242 0.0
H71 H 0.41883 0.88901 0.09121 0.0
H72 H 0.61494 0.89535 0.11454 0.0
H73 H 0.94398 0.62253 0.89582 0.0
H74 H 0.03143 0.68306 0.00176 0.0
H75 H 0.13946 0.67142 0.89602 0.0
C76 C 0.08885 0.72349 0.43946 0.0
C77 C 0.03394 0.72393 0.46221 0.0
C78 C 0.97824 0.75075 0.44312 0.0
C79 C 0.97877 0.77964 0.40125 0.0
C80 C 0.03277 0.77858 0.37813 0.0
C81 C 0.08758 0.75028 0.39733 0.0
O82 O 0.21219 0.80244 0.53963 0.0
Tb83 Tb 0.21054 0.69187 0.52066 0.0
Tb84 Tb 0.32778 0.81165 0.47855 0.0
O85 O 0.15806 0.65039 0.57537 0.0
O86 O 0.23991 0.87214 0.47885 0.0
O87 O 0.14166 0.63868 0.49145 0.0
C88 C 0.39566 0.83405 0.53619 0.0
O89 O 0.19358 0.73706 0.45929 0.0
O90 O 0.34042 0.69534 0.46693 0.0
O91 O 0.29594 0.62821 0.52455 0.0
C92 C 0.14681 0.68995 0.45814 0.0
C93 C 0.34617 0.84623 0.38679 0.0
O94 O 0.29387 0.80836 0.38787 0.0
C95 C 0.2073 0.86457 0.51262 0.0
C96 C 0.33804 0.63484 0.49571 0.0
O97 O 0.37033 0.85924 0.42107 0.0
C98 C 0.45386 0.80902 0.5571 0.0
C99 C 0.51258 0.79336 0.62029 0.0
C100 C 0.45752 0.81153 0.5989 0.0
C101 C 0.5063 0.78797 0.53629 0.0
C102 C 0.5614 0.76795 0.55777 0.0
C103 C 0.56369 0.7701 0.59959 0.0
C104 C 0.18673 0.63918 0.61056 0.0
O105 O 0.24688 0.64828 0.61094 0.0
O106 O 0.40001 0.87308 0.49919 0.0
O107 O 0.34935 0.78517 0.54071 0.0
H108 H 0.03417 0.70178 0.49452 0.0
H109 H 0.93602 0.79813 0.38587 0.0
H110 H 0.12899 0.74778 0.37931 0.0
H111 H 0.41795 0.8306 0.61444 0.0
H112 H 0.50429 0.78705 0.50389 0.0
H113 H 0.60626 0.75486 0.61597 0.0
C114 C 0.57136 0.12568 0.45294 0.0
C115 C 0.51962 0.12013 0.47856 0.0
C116 C 0.4617 0.10294 0.46369 0.0
C117 C 0.45666 0.08937 0.42357 0.0
C118 C 0.50655 0.10194 0.3963 0.0
C119 C 0.56451 0.11872 0.41178 0.0
O120 O 0.73624 0.27523 0.52403 0.0
Tb121 Tb 0.68566 0.16747 0.53108 0.0
Tb122 Tb 0.85163 0.3117 0.48266 0.0
O123 O 0.6293 0.15429 0.58558 0.0
O124 O 0.76432 0.37402 0.47708 0.0
O125 O 0.65895 0.08917 0.49378 0.0
C126 C 0.90936 0.34249 0.54298 0.0
O127 O 0.639 0.21189 0.47752 0.0
O128 O 0.80717 0.19977 0.4883 0.0
O129 O 0.77393 0.10844 0.53859 0.0
C130 C 0.63246 0.14344 0.46774 0.0
C131 C 0.91134 0.3449 0.39736 0.0
O132 O 0.88111 0.4098 0.39399 0.0
C133 C 0.72029 0.33875 0.50017 0.0
C134 C 0.81993 0.14049 0.51618 0.0
O135 O 0.90995 0.29679 0.43182 0.0
C136 C 0.97183 0.33957 0.55999 0.0
C137 C 0.04027 0.35505 0.61619 0.0
C138 C 0.98108 0.35909 0.59874 0.0
C139 C 1.02147 0.31391 0.53893 0.0
C140 C 0.08087 0.31003 0.55584 0.0
C141 C 0.09012 0.33405 0.59337 0.0
C142 C 0.65733 0.14886 0.62085 0.0
O143 O 0.71779 0.1438 0.6218 0.0
O144 O 0.90058 0.39212 0.5094 0.0
O145 O 0.88246 0.27614 0.54225 0.0
H146 H 0.52425 0.13047 0.50959 0.0
H147 H 0.41212 0.07348 0.41304 0.0
H148 H 0.60419 0.1291 0.39188 0.0
H149 H 0.94172 0.37448 0.61573 0.0
H150 H 1.01356 0.29553 0.50989 0.0
H151 H 0.13619 0.33162 0.60599 0.0
H152 H 0.66326 0.35081 0.9485 0.0
H153 H 0.60159 0.13312 0.01592 0.0
H154 H 0.70459 0.11237 0.04714 0.0
H155 H 0.81466 0.29439 0.92688 0.0
H156 H 0.8518 0.3822 0.93416 0.0
H157 H 0.77238 0.38308 0.91824 0.0
H158 H 0.73966 0.44618 0.97975 0.0
H159 H 0.8192 0.4473 0.99522 0.0
H160 H 0.76168 0.40215 0.03034 0.0
H161 H 0.81502 0.11025 0.06725 0.0
H162 H 0.92227 0.13617 0.08478 0.0
H163 H 0.91512 0.35667 0.00591 0.0
C164 C 0.67123 0.29952 0.97046 0.0
C165 C 0.62413 0.24373 0.98002 0.0
C166 C 0.63642 0.1772 0.0087 0.0
C167 C 0.69508 0.16449 0.02619 0.0
C168 C 0.74096 0.21925 0.01508 0.0
C169 C 0.72951 0.28634 0.98867 0.0
C170 C 0.78707 0.33627 0.98258 0.0
C171 C 0.80767 0.34976 0.9378 0.0
C172 C 0.77626 0.41247 0.99789 0.0
C173 C 0.83289 0.28615 0.0093 0.0
C174 C 0.80511 0.21863 0.02733 0.0
C175 C 0.83716 0.163 0.05345 0.0
C176 C 0.89837 0.17793 0.06288 0.0
C177 C 0.92751 0.24792 0.04635 0.0
C178 C 0.89461 0.30204 0.01837 0.0
H179 H 0.13306 0.80704 0.97341 0.0
H180 H 0.17977 0.56964 0.97233 0.0
H181 H 0.28617 0.59358 0.99363 0.0
H182 H 0.2737 0.88498 0.93177 0.0
H183 H 0.27775 0.95989 0.96231 0.0
H184 H 0.20399 0.92241 0.95038 0.0
H185 H 0.17903 0.89277 0.02672 0.0
H186 H 0.25271 0.92829 0.0395 0.0
H187 H 0.22918 0.8324 0.06113 0.0
H188 H 0.38752 0.64425 0.0099 0.0
H189 H 0.47733 0.7159 0.02933 0.0
H190 H 0.36604 0.92123 0.01964 0.0
C191 C 0.16541 0.75996 0.97902 0.0
C192 C 0.14887 0.68634 0.97204 0.0
C193 C 0.19216 0.62602 0.9783 0.0
C194 C 0.2525 0.63923 0.98999 0.0
C195 C 0.26839 0.71313 0.99509 0.0
C196 C 0.22609 0.7723 0.99056 0.0
C197 C 0.25616 0.84669 0.99681 0.0
C198 C 0.25272 0.90704 0.958 0.0
C199 C 0.22766 0.87669 0.03331 0.0
C200 C 0.3216 0.81985 0.00562 0.0
C201 C 0.32767 0.7428 0.00403 0.0
C202 C 0.38355 0.70462 0.01125 0.0
C203 C 0.4343 0.74587 0.02179 0.0
C204 C 0.4283 0.82399 0.02537 0.0
C205 C 0.37161 0.86174 0.01654 0.0
H206 H 0.63225 0.85762 0.50005 0.0
H207 H 0.62125 0.63231 0.57361 0.0
H208 H 0.72642 0.60329 0.55191 0.0
H209 H 0.72531 0.80228 0.41602 0.0
H210 H 0.77007 0.88929 0.40949 0.0
H211 H 0.69163 0.88925 0.42743 0.0
H212 H 0.72895 0.94398 0.49057 0.0
H213 H 0.80765 0.94286 0.47334 0.0
H214 H 0.78687 0.89325 0.52316 0.0
H215 H 0.8356 0.60281 0.52757 0.0
H216 H 0.93861 0.6257 0.49635 0.0
H217 H 0.88073 0.85223 0.43882 0.0
C218 C 0.65142 0.80137 0.51037 0.0
C219 C 0.61839 0.74641 0.53781 0.0
C220 C 0.64564 0.67448 0.55207 0.0
C221 C 0.70539 0.65775 0.5401 0.0
C222 C 0.73768 0.71391 0.51413 0.0
C223 C 0.71155 0.784 0.49899 0.0
C224 C 0.7576 0.83535 0.473 0.0
C225 C 0.73479 0.85518 0.42886 0.0
C226 C 0.77104 0.90814 0.49111 0.0
C227 C 0.81356 0.78328 0.47614 0.0
C228 C 0.80107 0.71371 0.50019 0.0
C229 C 0.84583 0.65692 0.50847 0.0
C230 C 0.90453 0.67082 0.49096 0.0
C231 C 0.91814 0.74089 0.46528 0.0
C232 C 0.87187 0.79797 0.45819 0.0
H233 H 0.20318 0.35286 0.54667 0.0
H234 H 0.07358 0.17591 0.52678 0.0
H235 H 0.16 0.09825 0.50782 0.0
H236 H 0.30509 0.3304 0.46329 0.0
H237 H 0.37424 0.34791 0.49018 0.0
H238 H 0.30251 0.39091 0.50171 0.0
H239 H 0.31585 0.33155 0.57706 0.0
H240 H 0.38584 0.28321 0.56679 0.0
H241 H 0.32195 0.22916 0.59133 0.0
H242 H 0.2576 0.03721 0.4936 0.0
H243 H 0.36211 1.00689 0.47245 0.0
H244 H 0.42966 0.22102 0.50268 0.0
C245 C 0.19293 0.29783 0.53811 0.0
C246 C 0.13162 0.27025 0.53818 0.0
C247 C 0.12 0.19844 0.52644 0.0
C248 C 0.16863 0.15334 0.51635 0.0
C249 C 0.22845 0.18058 0.51826 0.0
C250 C 0.24091 0.25178 0.52796 0.0
C251 C 0.3095 0.26849 0.52593 0.0
C252 C 0.32368 0.33859 0.49336 0.0
C253 C 0.33473 0.27878 0.56777 0.0
C254 C 0.33338 0.19543 0.5135 0.0
C255 C 0.28575 0.1452 0.5098 0.0
C256 C 0.29547 0.0756 0.49675 0.0
C257 C 0.35514 0.05845 0.48521 0.0
C258 C 0.40424 0.11075 0.48667 0.0
C259 C 0.39346 0.1789 0.50237 0.0
H260 H 0.64611 0.63409 0.95951 0.0
H261 H 0.67527 0.61763 0.08927 0.0
H262 H 0.57222 0.55821 0.10236 0.0
H263 H 0.48054 0.66703 0.95568 0.0
H264 H 0.46549 0.60375 0.91971 0.0
H265 H 0.53864 0.65243 0.91917 0.0
H266 H 0.59739 0.52445 0.9273 0.0
H267 H 0.52517 0.47444 0.92654 0.0
H268 H 0.57757 0.44891 0.96847 0.0
H269 H 0.47087 0.49201 0.10179 0.0
H270 H 0.38049 0.41542 0.08835 0.0
H271 H 0.41656 0.46923 0.95874 0.0
C272 C 0.62999 0.61948 0.99061 0.0
C273 C 0.66794 0.63162 0.02348 0.0
C274 C 0.64656 0.60931 0.06378 0.0
C275 C 0.58806 0.57587 0.07143 0.0
C276 C 0.55199 0.56368 0.03843 0.0
C277 C 0.57233 0.58391 0.9988 0.0
C278 C 0.52761 0.55634 0.96919 0.0
C279 C 0.50148 0.6239 0.93919 0.0
C280 C 0.55879 0.49758 0.94655 0.0
C281 C 0.47838 0.51855 0.99833 0.0
C282 C 0.49354 0.52373 0.0381 0.0
C283 C 0.45814 0.48837 0.07078 0.0
C284 C 0.40685 0.44494 0.06283 0.0
C285 C 0.39095 0.43722 0.02251 0.0
C286 C 0.42656 0.47591 0.98978 0.0
H287 H 0.66655 0.46086 0.44914 0.0
H288 H 0.63204 0.28918 0.55531 0.0
H289 H 0.52737 0.33805 0.5608 0.0
H290 H 0.59023 0.61045 0.48859 0.0
H291 H 0.55913 0.65579 0.4406 0.0
H292 H 0.62951 0.60159 0.44193 0.0
H293 H 0.58038 0.51771 0.39339 0.0
H294 H 0.50979 0.57156 0.39244 0.0
H295 H 0.50848 0.46905 0.40738 0.0
H296 H 0.43138 0.41065 0.55939 0.0
H297 H 0.3461 0.50274 0.55051 0.0
H298 H 0.44102 0.63413 0.44682 0.0
C299 C 0.63639 0.43279 0.47296 0.0
C300 C 0.65662 0.36866 0.50086 0.0
C301 C 0.61657 0.3354 0.53247 0.0
C302 C 0.55714 0.36351 0.53612 0.0
C303 C 0.53843 0.42632 0.50826 0.0
C304 C 0.57662 0.46108 0.47735 0.0
C305 C 0.54586 0.53146 0.45352 0.0
C306 C 0.58345 0.60412 0.45631 0.0
C307 C 0.53551 0.52184 0.40904 0.0
C308 C 0.4851 0.53087 0.47635 0.0
C309 C 0.48201 0.46936 0.50764 0.0
C310 C 0.43244 0.45823 0.5345 0.0
C311 C 0.38428 0.51121 0.52925 0.0
C312 C 0.38639 0.57547 0.49774 0.0
C313 C 0.43742 0.58492 0.47075 0.0
H314 H 0.13878 0.05523 0.04775 0.0
H315 H 0.17466 0.12156 0.91872 0.0
H316 H 0.08976 0.03846 0.90317 0.0
H317 H 0.07961 0.8501 0.04586 0.0
H318 H 1.02404 0.86353 0.08392 0.0
H319 H 0.09753 0.91135 0.08263 0.0
H320 H 0.03427 0.03804 0.08046 0.0
H321 H 0.96226 0.989 0.07718 0.0
H322 H 0.98337 0.06758 0.03806 0.0
H323 H 0.99143 0.96634 0.90078 0.0
H324 H 0.8881 0.90657 0.91258 0.0
H325 H 0.91501 0.88657 0.04254 0.0
C326 C 0.13024 0.04967 0.01636 0.0
C327 C 0.16375 0.094 0.98445 0.0
C328 C 0.14974 0.08774 0.94364 0.0
C329 C 0.10177 0.04037 0.93449 0.0
C330 C 0.06811 0.9993 0.96648 0.0
C331 C 0.08198 1.00277 0.00669 0.0
C332 C 0.03329 0.96153 0.03496 0.0
C333 C 0.06039 0.89264 0.06351 0.0
C334 C 1.00143 0.01731 0.05912 0.0
C335 C 0.98974 0.93562 0.00438 0.0
C336 C 1.01081 0.95753 0.96505 0.0
C337 C 0.97528 0.94696 0.93149 0.0
C338 C 0.91668 0.91333 0.93839 0.0
C339 C 0.89476 0.88989 0.97846 0.0
C340 C 0.93204 0.90057 0.01173 0.0
H341 H 0.90247 0.11164 0.45888 0.0
H342 H 0.87759 0.10005 0.5888 0.0
H343 H 0.98013 0.03947 0.60095 0.0
H344 H 0.96805 0.92606 0.4677 0.0
H345 H 1.02014 0.94965 0.42531 0.0
H346 H 0.94893 1.0014 0.42633 0.0
H347 H 1.01148 0.12663 0.41679 0.0
H348 H 0.08365 0.07698 0.4182 0.0
H349 H 0.06899 0.14209 0.45332 0.0
H350 H 0.08179 0.9754 0.59934 0.0
H351 H 0.17326 0.90175 0.58485 0.0
H352 H 0.13011 0.94605 0.45609 0.0
C353 C 0.9196 0.09802 0.48974 0.0
C354 C 0.88323 0.11164 0.52301 0.0
C355 C 0.90546 0.0906 0.56309 0.0
C356 C 0.96348 0.05637 0.57019 0.0
C357 C 0.9978 0.04201 0.53687 0.0
C358 C 0.97671 0.0616 0.49741 0.0
C359 C 1.02001 0.03241 0.46753 0.0
C360 C 0.98733 0.97394 0.44541 0.0
C361 C 0.04771 0.09851 0.43723 0.0
C362 C 0.06883 0.99431 0.49631 0.0
C363 C 0.05531 1.00123 0.5361 0.0
C364 C 0.09289 0.96972 0.56832 0.0
C365 C 0.14483 0.9284 0.55977 0.0
C366 C 0.1589 0.91922 0.51935 0.0
C367 C 0.12102 0.95369 0.48713 0.0
H368 H 0.39864 0.13681 0.353 0.0
H369 H 0.58999 0.07422 0.33647 0.0
H370 H 0.57032 0.08124 0.26313 0.0
H371 H 0.33651 0.0149 0.28579 0.0
H372 H 0.27512 0.08081 0.26905 0.0
H373 H 0.30613 0.07513 0.31961 0.0
H374 H 0.3291 0.22101 0.30512 0.0
H375 H 0.29864 0.22683 0.25454 0.0
H376 H 0.37592 0.25969 0.2618 0.0
H377 H 0.52808 0.09576 0.19061 0.0
H378 H 0.4677 0.11425 0.12694 0.0
H379 H 0.30303 0.15258 0.19496 0.0
C380 C 0.4366 0.12134 0.33499 0.0
C381 C 0.49593 0.10348 0.3517 0.0
C382 C 0.54417 0.08901 0.3251 0.0
C383 C 0.53332 0.09202 0.28323 0.0
C384 C 0.47362 0.10702 0.26858 0.0
C385 C 0.4261 0.1207 0.2939 0.0
C386 C 0.36578 0.13475 0.27131 0.0
C387 C 0.31806 0.07272 0.28741 0.0
C388 C 0.34095 0.21535 0.27331 0.0
C389 C 0.38671 0.12772 0.22893 0.0
C390 C 0.44906 0.11196 0.22777 0.0
C391 C 0.47904 0.10657 0.19137 0.0
C392 C 0.44434 0.11737 0.15535 0.0
C393 C 0.38055 0.13468 0.15601 0.0
C394 C 0.35153 0.13879 0.19344 0.0
H395 H 0.41035 0.84195 0.15403 0.0
H396 H 0.58682 0.95391 0.16605 0.0
H397 H 0.564 0.95282 0.23855 0.0
H398 H 0.32656 0.95828 0.21585 0.0
H399 H 0.27546 0.88063 0.23567 0.0
H400 H 0.30735 0.88666 0.18529 0.0
H401 H 0.35171 0.74975 0.20442 0.0
H402 H 0.32023 0.7428 0.25485 0.0
H403 H 0.40152 0.72779 0.24805 0.0
H404 H 0.52171 0.93415 0.3115 0.0
H405 H 0.46124 0.91156 0.37527 0.0
H406 H 0.30964 0.82484 0.311 0.0
C407 C 0.44399 0.86955 0.17059 0.0
C408 C 0.50059 0.8988 0.15294 0.0
C409 C 0.54351 0.92969 0.17811 0.0
C410 C 0.5307 0.93015 0.21951 0.0
C411 C 0.47389 0.90219 0.23513 0.0
C412 C 0.43099 0.87366 0.21109 0.0
C413 C 0.37276 0.84797 0.23445 0.0
C414 C 0.31726 0.89628 0.21677 0.0
C415 C 0.36091 0.762 0.23549 0.0
C416 C 0.38991 0.8649 0.2759 0.0
C417 C 0.44844 0.89596 0.27589 0.0
C418 C 0.47505 0.91266 0.31144 0.0
C419 C 0.44046 0.89894 0.34759 0.0
C420 C 0.38043 0.86691 0.34809 0.0
C421 C 0.35507 0.85011 0.31163 0.0
H422 H 0.60944 0.85569 0.6554 0.0
H423 H 0.42931 0.75297 0.68293 0.0
H424 H 0.44249 0.76654 0.75529 0.0
H425 H 0.68308 0.76197 0.7448 0.0
H426 H 0.73155 0.84264 0.74974 0.0
H427 H 0.70538 0.82873 0.70028 0.0
H428 H 0.65558 0.96487 0.68742 0.0
H429 H 0.68631 0.97805 0.73572 0.0
H430 H 0.60492 0.99181 0.72555 0.0
H431 H 0.47987 0.78422 0.82588 0.0
H432 H 0.53682 0.80541 0.88742 0.0
H433 H 0.69149 0.89677 0.81165 0.0
C434 C 0.57274 0.83561 0.67659 0.0
C435 C 0.51853 0.80279 0.66358 0.0
C436 C 0.47113 0.77875 0.69221 0.0
C437 C 0.47831 0.78603 0.73334 0.0
C438 C 0.53295 0.8178 0.74516 0.0
C439 C 0.5792 0.84217 0.71746 0.0
C440 C 0.63441 0.87188 0.73758 0.0
C441 C 0.69197 0.82338 0.73282 0.0
C442 C 0.64585 0.95674 0.7206 0.0
C443 C 0.61236 0.86041 0.78122 0.0
C444 C 0.55379 0.82902 0.78515 0.0
C445 C 0.52545 0.80956 0.82307 0.0
C446 C 0.55814 0.82175 0.85784 0.0
C447 C 0.61847 0.85305 0.85436 0.0
C448 C 0.64525 0.87342 0.81541 0.0
H449 H 0.62268 0.19366 0.85285 0.0
H450 H 0.43801 0.28214 0.82517 0.0
H451 H 0.45051 0.25986 0.75441 0.0
H452 H 0.6889 0.28537 0.75654 0.0
H453 H 0.74174 0.20761 0.7548 0.0
H454 H 0.71686 0.22965 0.80311 0.0
H455 H 0.67711 0.08983 0.82495 0.0
H456 H 0.70507 0.06905 0.77732 0.0
H457 H 0.62545 0.04982 0.79172 0.0
H458 H 0.48305 0.22413 0.68672 0.0
H459 H 0.53635 0.19115 0.62633 0.0
H460 H 0.70142 0.13469 0.69861 0.0
C461 C 0.58509 0.21044 0.83199 0.0
C462 C 0.52918 0.23959 0.84507 0.0
C463 C 0.48098 0.25844 0.81638 0.0
C464 C 0.48771 0.24629 0.776 0.0
C465 C 0.54322 0.21636 0.76456 0.0
C466 C 0.59142 0.20023 0.7916 0.0
C467 C 0.64724 0.1712 0.77168 0.0
C468 C 0.70189 0.22678 0.77152 0.0
C469 C 0.66461 0.0901 0.79261 0.0
C470 C 0.62255 0.17177 0.7292 0.0
C471 C 0.5624 0.19778 0.72567 0.0
C472 C 0.53018 0.20392 0.6891 0.0
C473 C 0.56075 0.18467 0.65503 0.0
C474 C 0.623 0.16021 0.65776 0.0
C475 C 0.6538 0.15303 0.69552 0.0
H476 H 0.05172 0.68506 0.32228 0.0
H477 H 0.9999 0.91617 0.33398 0.0
H478 H 0.9757 0.94363 0.26039 0.0
H479 H 0.11337 0.72163 0.21605 0.0
H480 H 0.07777 0.63631 0.20379 0.0
H481 H 0.10267 0.63915 0.25511 0.0
H482 H 0.99153 0.6037 0.28253 0.0
H483 H 0.96859 0.59888 0.23101 0.0
H484 H 0.92751 0.65966 0.26008 0.0
H485 H 0.93988 0.93833 0.18979 0.0
H486 H 0.89597 0.90185 0.12749 0.0
H487 H 0.97179 0.67404 0.1601 0.0
C488 C 0.03789 0.74236 0.30881 0.0
C489 C 0.0291 0.79925 0.3333 0.0
C490 C 1.00794 0.8725 0.31535 0.0
C491 C 0.99421 0.88847 0.27365 0.0
C492 C 1.00161 0.83038 0.25041 0.0
C493 C 1.02316 0.75882 0.26734 0.0
C494 C 1.01805 0.70322 0.23749 0.0
C495 C 0.08178 0.67333 0.22752 0.0
C496 C 0.97384 0.63737 0.25383 0.0
C497 C 0.99027 0.75418 0.20107 0.0
C498 C 0.98107 0.82742 0.20924 0.0
C499 C 0.94834 0.88184 0.18268 0.0
C500 C 0.92333 0.86048 0.14745 0.0
C501 C 0.93155 0.7856 0.13871 0.0
C502 C 0.96673 0.73238 0.16539 0.0
H503 H 0.9513 0.4359 0.32705 0.0
H504 H 0.93432 0.19983 0.38581 0.0
H505 H 0.98175 0.1569 0.32618 0.0
H506 H 0.9065 0.39804 0.22907 0.0
H507 H 0.95559 0.47301 0.20342 0.0
H508 H 0.92553 0.47812 0.2534 0.0
H509 H 0.04342 0.49055 0.27751 0.0
H510 H 0.06695 0.48382 0.2263 0.0
H511 H 0.09668 0.41758 0.26872 0.0
H512 H 1.01968 0.139 0.25737 0.0
H513 H 0.04208 0.14815 0.18374 0.0
H514 H 0.03369 0.39518 0.16922 0.0
C515 C 0.95878 0.37534 0.3276 0.0
C516 C 0.9415 0.32117 0.36168 0.0
C517 C 0.95021 0.2423 0.36082 0.0
C518 C 0.97654 0.21738 0.32692 0.0
C519 C 0.99351 0.27216 0.29385 0.0
C520 C 0.98473 0.34946 0.29381 0.0
C521 C 1.0009 0.39591 0.25288 0.0
C522 C 0.94386 0.43893 0.23353 0.0
C523 C 0.05515 0.45027 0.25653 0.0
C524 C 1.01962 0.33294 0.22982 0.0
C525 C 1.0153 0.26182 0.25403 0.0
C526 C 1.02463 0.19443 0.23837 0.0
C527 C 0.03747 0.20002 0.19672 0.0
C528 C 0.04122 0.27235 0.17155 0.0
C529 C 0.03326 0.33949 0.18839 0.0
H530 H 0.21983 0.28556 0.82557 0.0
H531 H 0.09749 0.4453 0.8713 0.0
H532 H 0.0378 0.45957 0.80698 0.0
H533 H 0.22758 0.37729 0.72456 0.0
H534 H 0.22772 0.29005 0.70339 0.0
H535 H 0.25807 0.29049 0.75355 0.0
H536 H 0.18286 0.18125 0.78338 0.0
H537 H 0.15281 0.17969 0.73318 0.0
H538 H 0.1013 0.19284 0.77395 0.0
H539 H 1.00031 0.467 0.73251 0.0
H540 H 0.98116 0.45373 0.66067 0.0
H541 H 0.12186 0.27737 0.67049 0.0
C542 C 0.18067 0.32392 0.82217 0.0
C543 C 0.16396 0.3654 0.85308 0.0
C544 C 0.11153 0.41365 0.84768 0.0
C545 C 0.07729 0.42193 0.81134 0.0
C546 C 0.09591 0.381 0.78107 0.0
C547 C 0.14581 0.33189 0.78667 0.0
C548 C 0.15702 0.29389 0.75011 0.0
C549 C 0.2214 0.31418 0.73184 0.0
C550 C 0.14792 0.20677 0.7608 0.0
C551 C 0.1068 0.3307 0.72239 0.0
C552 C 0.07226 0.38156 0.74023 0.0
C553 C 1.02632 0.42604 0.71861 0.0
C554 C 1.01559 0.41787 0.67784 0.0
C555 C 0.0502 0.3649 0.65936 0.0
C556 C 0.09541 0.32009 0.68269 0.0
H557 H 0.23341 0.61769 0.68773 0.0
H558 H 0.06082 0.63346 0.62107 0.0
H559 H 1.00341 0.62651 0.6858 0.0
H560 H 0.18789 0.48786 0.77241 0.0
H561 H 0.2238 0.53158 0.81163 0.0
H562 H 0.25731 0.54192 0.76151 0.0
H563 H 0.25493 0.68652 0.74858 0.0
H564 H 0.22877 0.68344 0.8001 0.0
H565 H 0.18573 0.73649 0.75854 0.0
H566 H 0.96645 0.63642 0.75749 0.0
H567 H 0.95253 0.64911 0.82914 0.0
H568 H 0.1489 0.60577 0.84903 0.0
C569 C 0.1835 0.61843 0.68666 0.0
C570 C 0.15165 0.62621 0.64928 0.0
C571 C 0.08628 0.62748 0.64934 0.0
C572 C 0.05327 0.62382 0.68595 0.0
C573 C 0.08629 0.61816 0.72221 0.0
C574 C 0.14998 0.61464 0.72277 0.0
C575 C 0.17493 0.61175 0.76532 0.0
C576 C 0.21311 0.53895 0.77862 0.0
C577 C 0.21332 0.68383 0.76828 0.0
C578 C 0.11515 0.61186 0.78891 0.0
C579 C 0.06465 0.61814 0.76349 0.0
C580 C 1.00557 0.62958 0.77789 0.0
C581 C 0.99812 0.63608 0.81915 0.0
C582 C 0.04931 0.62933 0.84617 0.0
C583 C 0.10815 0.61427 0.83031 0.0
loop_
_geom_bond_atom_site_label_1
_geom_bond_atom_site_label_2
_geom_bond_distance
_geom_bond_site_symmetry_2
_ccdc_geom_bond_type
C0 C1 1.386 . S
C0 C5 1.384 . S
C0 C16 1.497 . S
C1 C0 1.386 . S
C1 C2 1.393 1_455 S
C1 H32 0.932 1_455 S
C2 C1 1.393 1_655 S
C2 C3 1.387 . S
C3 C2 1.387 . S
C3 C4 1.392 1_655 S
C3 H33 0.930 . S
C4 C3 1.392 1_455 S
C4 C5 1.402 . S
C5 C0 1.384 . S
C5 C4 1.402 . S
C5 H34 0.930 . S
O6 Tb7 2.288 . S
O6 C19 1.253 1_556 S
Tb7 O6 2.288 . S
Tb7 O9 2.303 . S
Tb7 O11 2.430 . S
Tb7 O13 2.459 1_556 S
Tb7 O15 2.301 . S
Tb7 C16 2.808 1_556 S
Tb8 O10 2.301 . S
Tb8 C12 2.808 1_554 S
Tb8 O14 2.288 . S
Tb8 O21 2.303 . S
Tb8 O30 2.430 . S
Tb8 O31 2.459 1_554 S
O9 Tb7 2.303 . S
O9 C28 1.255 . S
O10 Tb8 2.301 . S
O10 C19 1.244 . S
O11 Tb7 2.430 . S
O11 C16 1.248 1_556 S
C12 Tb8 2.808 1_556 S
C12 C22 1.497 . S
C12 O30 1.248 1_556 S
C12 O31 1.260 . S
O13 Tb7 2.459 1_554 S
O13 C16 1.260 . S
O14 Tb8 2.288 . S
O14 C20 1.257 . S
O15 Tb7 2.301 . S
O15 C20 1.237 1_556 S
C16 C0 1.497 . S
C16 Tb7 2.808 1_554 S
C16 O11 1.248 1_554 S
C16 O13 1.260 . S
C17 O18 1.255 . S
C17 O21 1.255 . S
O18 C17 1.255 . S
C19 O6 1.253 1_554 S
C19 O10 1.244 . S
C20 O14 1.257 . S
C20 O15 1.237 1_554 S
O21 Tb8 2.303 . S
O21 C17 1.255 . S
C22 C12 1.497 . S
C22 C24 1.384 . S
C22 C25 1.386 . S
C23 C24 1.402 . S
C23 C27 1.392 . S
C24 C22 1.384 . S
C24 C23 1.402 . S
C24 H35 0.930 . S
C25 C22 1.386 . S
C25 C26 1.393 . S
C25 H36 0.932 . S
C26 C25 1.393 . S
C26 C27 1.387 . S
C27 C23 1.392 . S
C27 C26 1.387 . S
C27 H37 0.930 . S
C28 O9 1.255 . S
C28 O29 1.255 . S
O29 C28 1.255 . S
O30 Tb8 2.430 . S
O30 C12 1.248 1_554 S
O31 Tb8 2.459 1_556 S
O31 C12 1.260 . S
H32 C1 0.932 1_655 S
H33 C3 0.930 . S
H34 C5 0.930 . S
H35 C24 0.930 . S
H36 C25 0.932 . S
H37 C27 0.930 . S
C38 C39 1.386 . S
C38 C43 1.384 . S
C38 C54 1.497 . S
C39 C38 1.386 . S
C39 C40 1.393 . S
C39 H70 0.932 . S
C40 C39 1.393 . S
C40 C41 1.387 . S
C41 C40 1.387 . S
C41 C42 1.392 . S
C41 H71 0.930 . S
C42 C41 1.392 . S
C42 C43 1.402 . S
C43 C38 1.384 . S
C43 C42 1.402 . S
C43 H72 0.930 . S
O44 Tb45 2.288 . S
O44 C57 1.253 1_556 S
Tb45 O44 2.288 . S
Tb45 O47 2.303 . S
Tb45 O49 2.430 . S
Tb45 O51 2.459 1_556 S
Tb45 O53 2.301 . S
Tb45 C54 2.808 1_556 S
Tb46 O48 2.301 . S
Tb46 C50 2.808 1_554 S
Tb46 O52 2.288 . S
Tb46 O59 2.303 . S
Tb46 O68 2.430 . S
Tb46 O69 2.459 1_554 S
O47 Tb45 2.303 . S
O47 C66 1.255 . S
O48 Tb46 2.301 . S
O48 C57 1.244 . S
O49 Tb45 2.430 . S
O49 C54 1.248 1_556 S
C50 Tb46 2.808 1_556 S
C50 C60 1.497 . S
C50 O68 1.248 1_556 S
C50 O69 1.260 . S
O51 Tb45 2.459 1_554 S
O51 C54 1.260 . S
O52 Tb46 2.288 . S
O52 C58 1.257 . S
O53 Tb45 2.301 . S
O53 C58 1.237 1_556 S
C54 C38 1.497 . S
C54 Tb45 2.808 1_554 S
C54 O49 1.248 1_554 S
C54 O51 1.260 . S
C55 O56 1.255 . S
C55 O59 1.255 . S
O56 C55 1.255 . S
C57 O44 1.253 1_554 S
C57 O48 1.244 . S
C58 O52 1.257 . S
C58 O53 1.237 1_554 S
O59 Tb46 2.303 . S
O59 C55 1.255 . S
C60 C50 1.497 . S
C60 C62 1.384 . S
C60 C63 1.386 . S
C61 C62 1.402 . S
C61 C65 1.392 1_655 S
C62 C60 1.384 . S
C62 C61 1.402 . S
C62 H73 0.930 . S
C63 C60 1.386 . S
C63 C64 1.393 1_655 S
C63 H74 0.932 1_655 S
C64 C63 1.393 1_455 S
C64 C65 1.387 . S
C65 C61 1.392 1_455 S
C65 C64 1.387 . S
C65 H75 0.930 . S
C66 O47 1.255 . S
C66 O67 1.255 . S
O67 C66 1.255 . S
O68 Tb46 2.430 . S
O68 C50 1.248 1_554 S
O69 Tb46 2.459 1_556 S
O69 C50 1.260 . S
H70 C39 0.932 . S
H71 C41 0.930 . S
H72 C43 0.930 . S
H73 C62 0.930 . S
H74 C63 0.932 1_455 S
H75 C65 0.930 . S
C76 C77 1.386 . S
C76 C81 1.384 . S
C76 C92 1.497 . S
C77 C76 1.386 . S
C77 C78 1.393 1_455 S
C77 H108 0.932 1_455 S
C78 C77 1.393 1_655 S
C78 C79 1.387 . S
C79 C78 1.387 . S
C79 C80 1.392 1_655 S
C79 H109 0.930 . S
C80 C79 1.392 1_455 S
C80 C81 1.402 . S
C81 C76 1.384 . S
C81 C80 1.402 . S
C81 H110 0.930 . S
O82 Tb83 2.288 . S
O82 C95 1.257 . S
Tb83 O82 2.288 . S
Tb83 O85 2.303 . S
Tb83 O87 2.430 . S
Tb83 O89 2.459 . S
Tb83 O91 2.301 . S
Tb83 C92 2.808 . S
Tb84 O86 2.301 . S
Tb84 C88 2.808 . S
Tb84 O90 2.288 . S
Tb84 O97 2.303 . S
Tb84 O106 2.430 . S
Tb84 O107 2.459 . S
O85 Tb83 2.303 . S
O85 C104 1.255 . S
O86 Tb84 2.301 . S
O86 C95 1.237 . S
O87 Tb83 2.430 . S
O87 C92 1.248 . S
C88 Tb84 2.808 . S
C88 C98 1.497 . S
C88 O106 1.248 . S
C88 O107 1.260 . S
O89 Tb83 2.459 . S
O89 C92 1.260 . S
O90 Tb84 2.288 . S
O90 C96 1.257 . S
O91 Tb83 2.301 . S
O91 C96 1.237 . S
C92 C76 1.497 . S
C92 Tb83 2.808 . S
C92 O87 1.248 . S
C92 O89 1.260 . S
C93 O94 1.255 . S
C93 O97 1.255 . S
O94 C93 1.255 . S
C95 O82 1.257 . S
C95 O86 1.237 . S
C96 O90 1.257 . S
C96 O91 1.237 . S
O97 Tb84 2.303 . S
O97 C93 1.255 . S
C98 C88 1.497 . S
C98 C100 1.384 . S
C98 C101 1.386 . S
C99 C100 1.402 . S
C99 C103 1.392 . S
C100 C98 1.384 . S
C100 C99 1.402 . S
C100 H111 0.930 . S
C101 C98 1.386 . S
C101 C102 1.393 . S
C101 H112 0.932 . S
C102 C101 1.393 . S
C102 C103 1.387 . S
C103 C99 1.392 . S
C103 C102 1.387 . S
C103 H113 0.930 . S
C104 O85 1.255 . S
C104 O105 1.255 . S
O105 C104 1.255 . S
O106 Tb84 2.430 . S
O106 C88 1.248 . S
O107 Tb84 2.459 . S
O107 C88 1.260 . S
H108 C77 0.932 1_655 S
H109 C79 0.930 . S
H110 C81 0.930 . S
H111 C100 0.930 . S
H112 C101 0.932 . S
H113 C103 0.930 . S
C114 C115 1.386 . S
C114 C119 1.384 . S
C114 C130 1.497 . S
C115 C114 1.386 . S
C115 C116 1.393 . S
C115 H146 0.932 . S
C116 C115 1.393 . S
C116 C117 1.387 . S
C117 C116 1.387 . S
C117 C118 1.392 . S
C117 H147 0.930 . S
C118 C117 1.392 . S
C118 C119 1.402 . S
C119 C114 1.384 . S
C119 C118 1.402 . S
C119 H148 0.930 . S
O120 Tb121 2.288 . S
O120 C133 1.257 . S
Tb121 O120 2.288 . S
Tb121 O123 2.303 . S
Tb121 O125 2.430 . S
Tb121 O127 2.459 . S
Tb121 O129 2.301 . S
Tb121 C130 2.808 . S
Tb122 O124 2.301 . S
Tb122 C126 2.808 . S
Tb122 O128 2.288 . S
Tb122 O135 2.303 . S
Tb122 O144 2.430 . S
Tb122 O145 2.459 . S
O123 Tb121 2.303 . S
O123 C142 1.255 . S
O124 Tb122 2.301 . S
O124 C133 1.237 . S
O125 Tb121 2.430 . S
O125 C130 1.248 . S
C126 Tb122 2.808 . S
C126 C136 1.497 . S
C126 O144 1.248 . S
C126 O145 1.260 . S
O127 Tb121 2.459 . S
O127 C130 1.260 . S
O128 Tb122 2.288 . S
O128 C134 1.257 . S
O129 Tb121 2.301 . S
O129 C134 1.237 . S
C130 C114 1.497 . S
C130 Tb121 2.808 . S
C130 O125 1.248 . S
C130 O127 1.260 . S
C131 O132 1.255 . S
C131 O135 1.255 . S
O132 C131 1.255 . S
C133 O120 1.257 . S
C133 O124 1.237 . S
C134 O128 1.257 . S
C134 O129 1.237 . S
O135 Tb122 2.303 . S
O135 C131 1.255 . S
C136 C126 1.497 . S
C136 C138 1.384 . S
C136 C139 1.386 . S
C137 C138 1.402 . S
C137 C141 1.392 1_655 S
C138 C136 1.384 . S
C138 C137 1.402 . S
C138 H149 0.930 . S
C139 C136 1.386 . S
C139 C140 1.393 1_655 S
C139 H150 0.932 1_655 S
C140 C139 1.393 1_455 S
C140 C141 1.387 . S
C141 C137 1.392 1_455 S
C141 C140 1.387 . S
C141 H151 0.930 . S
C142 O123 1.255 . S
C142 O143 1.255 . S
O143 C142 1.255 . S
O144 Tb122 2.430 . S
O144 C126 1.248 . S
O145 Tb122 2.459 . S
O145 C126 1.260 . S
H146 C115 0.932 . S
H147 C117 0.930 . S
H148 C119 0.930 . S
H149 C138 0.930 . S
H150 C139 0.932 1_455 S
H151 C141 0.930 . S
H152 C164 0.930 . S
H153 C166 0.930 1_554 S
H154 C167 0.930 . S
H155 C171 0.959 . S
H156 C171 0.959 . S
H157 C171 0.961 . S
H158 C172 0.960 . S
H159 C172 0.961 . S
H160 C172 0.959 . S
H161 C175 0.929 . S
H162 C176 0.931 . S
H163 C178 0.930 1_556 S
C164 H152 0.930 . S
C164 C165 1.399 . S
C164 C169 1.399 . S
C165 C164 1.399 . S
C165 C166 1.378 . S
C166 H153 0.930 1_556 S
C166 C165 1.378 . S
C166 C167 1.387 1_556 S
C167 H154 0.930 . S
C167 C166 1.387 1_554 S
C167 C168 1.390 . S
C168 C167 1.390 . S
C168 C169 1.394 1_554 S
C168 C174 1.465 . S
C169 C164 1.399 . S
C169 C168 1.394 1_556 S
C169 C170 1.516 . S
C170 C169 1.516 . S
C170 C171 1.502 . S
C170 C172 1.561 . S
C170 C173 1.526 1_556 S
C171 H155 0.959 . S
C171 H156 0.959 . S
C171 H157 0.961 . S
C171 C170 1.502 . S
C172 H158 0.960 . S
C172 H159 0.961 . S
C172 H160 0.959 . S
C172 C170 1.561 . S
C173 C170 1.526 1_554 S
C173 C174 1.396 . S
C173 C178 1.390 . S
C174 C168 1.465 . S
C174 C173 1.396 . S
C174 C175 1.399 . S
C175 H161 0.929 . S
C175 C174 1.399 . S
C175 C176 1.385 . S
C176 H162 0.931 . S
C176 C175 1.385 . S
C176 C177 1.389 . S
C177 C176 1.389 . S
C177 C178 1.387 . S
C178 H163 0.930 1_554 S
C178 C173 1.390 . S
C178 C177 1.387 . S
H179 C191 0.930 . S
H180 C193 0.930 . S
H181 C194 0.930 . S
H182 C198 0.959 . S
H183 C198 0.959 1_554 S
H184 C198 0.961 . S
H185 C199 0.960 . S
H186 C199 0.961 . S
H187 C199 0.959 . S
H188 C202 0.929 . S
H189 C203 0.931 . S
H190 C205 0.930 . S
C191 H179 0.930 . S
C191 C192 1.399 . S
C191 C196 1.399 . S
C192 C191 1.399 . S
C192 C193 1.376 . S
C193 H180 0.930 . S
C193 C192 1.376 . S
C193 C194 1.388 . S
C194 H181 0.930 . S
C194 C193 1.388 . S
C194 C195 1.390 . S
C195 C194 1.390 . S
C195 C196 1.394 . S
C195 C201 1.465 1_556 S
C196 C191 1.399 . S
C196 C195 1.394 . S
C196 C197 1.516 1_556 S
C197 C196 1.516 1_554 S
C197 C198 1.502 1_554 S
C197 C199 1.561 . S
C197 C200 1.526 . S
C198 H182 0.959 . S
C198 H183 0.959 1_556 S
C198 H184 0.961 . S
C198 C197 1.502 1_556 S
C199 H185 0.960 . S
C199 H186 0.961 . S
C199 H187 0.959 . S
C199 C197 1.561 . S
C200 C197 1.526 . S
C200 C201 1.396 . S
C200 C205 1.390 . S
C201 C195 1.465 1_554 S
C201 C200 1.396 . S
C201 C202 1.399 . S
C202 H188 0.929 . S
C202 C201 1.399 . S
C202 C203 1.385 . S
C203 H189 0.931 . S
C203 C202 1.385 . S
C203 C204 1.389 . S
C204 C203 1.389 . S
C204 C205 1.387 . S
C205 H190 0.930 . S
C205 C200 1.390 . S
C205 C204 1.387 . S
H206 C218 0.930 . S
H207 C220 0.930 . S
H208 C221 0.930 . S
H209 C225 0.959 . S
H210 C225 0.959 . S
H211 C225 0.961 . S
H212 C226 0.960 . S
H213 C226 0.961 . S
H214 C226 0.959 . S
H215 C229 0.929 . S
H216 C230 0.931 . S
H217 C232 0.930 . S
C218 H206 0.930 . S
C218 C219 1.399 . S
C218 C223 1.399 . S
C219 C218 1.399 . S
C219 C220 1.376 . S
C220 H207 0.930 . S
C220 C219 1.376 . S
C220 C221 1.388 . S
C221 H208 0.930 . S
C221 C220 1.388 . S
C221 C222 1.390 . S
C222 C221 1.390 . S
C222 C223 1.394 . S
C222 C228 1.465 . S
C223 C218 1.399 . S
C223 C222 1.394 . S
C223 C224 1.516 . S
C224 C223 1.516 . S
C224 C225 1.502 . S
C224 C226 1.561 . S
C224 C227 1.526 . S
C225 H209 0.959 . S
C225 H210 0.959 . S
C225 H211 0.961 . S
C225 C224 1.502 . S
C226 H212 0.960 . S
C226 H213 0.961 . S
C226 H214 0.959 . S
C226 C224 1.561 . S
C227 C224 1.526 . S
C227 C228 1.396 . S
C227 C232 1.390 . S
C228 C222 1.465 . S
C228 C227 1.396 . S
C228 C229 1.399 . S
C229 H215 0.929 . S
C229 C228 1.399 . S
C229 C230 1.385 . S
C230 H216 0.931 . S
C230 C229 1.385 . S
C230 C231 1.389 . S
C231 C230 1.389 . S
C231 C232 1.387 . S
C232 H217 0.930 . S
C232 C227 1.390 . S
C232 C231 1.387 . S
H233 C245 0.930 . S
H234 C247 0.930 . S
H235 C248 0.930 . S
H236 C252 0.959 . S
H237 C252 0.959 . S
H238 C252 0.961 . S
H239 C253 0.960 . S
H240 C253 0.961 . S
H241 C253 0.959 . S
H242 C256 0.929 . S
H243 C257 0.931 . S
H244 C259 0.930 . S
C245 H233 0.930 . S
C245 C246 1.399 . S
C245 C250 1.399 . S
C246 C245 1.399 . S
C246 C247 1.376 . S
C247 H234 0.930 . S
C247 C246 1.376 . S
C247 C248 1.388 . S
C248 H235 0.930 . S
C248 C247 1.388 . S
C248 C249 1.390 . S
C249 C248 1.390 . S
C249 C250 1.394 . S
C249 C255 1.465 . S
C250 C245 1.399 . S
C250 C249 1.394 . S
C250 C251 1.516 . S
C251 C250 1.516 . S
C251 C252 1.502 . S
C251 C253 1.561 . S
C251 C254 1.526 . S
C252 H236 0.959 . S
C252 H237 0.959 . S
C252 H238 0.961 . S
C252 C251 1.502 . S
C253 H239 0.960 . S
C253 H240 0.961 . S
C253 H241 0.959 . S
C253 C251 1.561 . S
C254 C251 1.526 . S
C254 C255 1.396 . S
C254 C259 1.390 . S
C255 C249 1.465 . S
C255 C254 1.396 . S
C255 C256 1.399 . S
C256 H242 0.929 . S
C256 C255 1.399 . S
C256 C257 1.385 . S
C257 H243 0.931 . S
C257 C256 1.385 . S
C257 C258 1.389 . S
C258 C257 1.389 . S
C258 C259 1.387 . S
C259 H244 0.930 . S
C259 C254 1.390 . S
C259 C258 1.387 . S
H260 C272 0.930 . S
H261 C274 0.930 . S
H262 C275 0.930 . S
H263 C279 0.959 . S
H264 C279 0.959 . S
H265 C279 0.961 . S
H266 C280 0.960 . S
H267 C280 0.961 . S
H268 C280 0.959 . S
H269 C283 0.929 . S
H270 C284 0.931 . S
H271 C286 0.930 . S
C272 H260 0.930 . S
C272 C273 1.399 1_556 S
C272 C277 1.399 . S
C273 C272 1.399 1_554 S
C273 C274 1.376 . S
C274 H261 0.930 . S
C274 C273 1.376 . S
C274 C275 1.388 . S
C275 H262 0.930 . S
C275 C274 1.388 . S
C275 C276 1.390 . S
C276 C275 1.390 . S
C276 C277 1.394 1_554 S
C276 C282 1.465 . S
C277 C272 1.399 . S
C277 C276 1.394 1_556 S
C277 C278 1.516 . S
C278 C277 1.516 . S
C278 C279 1.502 . S
C278 C280 1.561 . S
C278 C281 1.526 . S
C279 H263 0.959 . S
C279 H264 0.959 . S
C279 H265 0.961 . S
C279 C278 1.502 . S
C280 H266 0.960 . S
C280 H267 0.961 . S
C280 H268 0.959 . S
C280 C278 1.561 . S
C281 C278 1.526 . S
C281 C282 1.396 1_556 S
C281 C286 1.390 . S
C282 C276 1.465 . S
C282 C281 1.396 1_554 S
C282 C283 1.399 . S
C283 H269 0.929 . S
C283 C282 1.399 . S
C283 C284 1.385 . S
C284 H270 0.931 . S
C284 C283 1.385 . S
C284 C285 1.389 . S
C285 C284 1.389 . S
C285 C286 1.387 1_554 S
C286 H271 0.930 . S
C286 C281 1.390 . S
C286 C285 1.387 1_556 S
H287 C299 0.930 . S
H288 C301 0.930 . S
H289 C302 0.930 . S
H290 C306 0.959 . S
H291 C306 0.959 . S
H292 C306 0.961 . S
H293 C307 0.960 . S
H294 C307 0.961 . S
H295 C307 0.959 . S
H296 C310 0.929 . S
H297 C311 0.931 . S
H298 C313 0.930 . S
C299 H287 0.930 . S
C299 C300 1.399 . S
C299 C304 1.399 . S
C300 C299 1.399 . S
C300 C301 1.376 . S
C301 H288 0.930 . S
C301 C300 1.376 . S
C301 C302 1.388 . S
C302 H289 0.930 . S
C302 C301 1.388 . S
C302 C303 1.390 . S
C303 C302 1.390 . S
C303 C304 1.394 . S
C303 C309 1.465 . S
C304 C299 1.399 . S
C304 C303 1.394 . S
C304 C305 1.516 . S
C305 C304 1.516 . S
C305 C306 1.502 . S
C305 C307 1.561 . S
C305 C308 1.526 . S
C306 H290 0.959 . S
C306 H291 0.959 . S
C306 H292 0.961 . S
C306 C305 1.502 . S
C307 H293 0.960 . S
C307 H294 0.961 . S
C307 H295 0.959 . S
C307 C305 1.561 . S
C308 C305 1.526 . S
C308 C309 1.396 . S
C308 C313 1.390 . S
C309 C303 1.465 . S
C309 C308 1.396 . S
C309 C310 1.399 . S
C310 H296 0.929 . S
C310 C309 1.399 . S
C310 C311 1.385 . S
C311 H297 0.931 . S
C311 C310 1.385 . S
C311 C312 1.389 . S
C312 C311 1.389 . S
C312 C313 1.387 . S
C313 H298 0.930 . S
C313 C308 1.390 . S
C313 C312 1.387 . S
H314 C326 0.930 . S
H315 C328 0.930 . S
H316 C329 0.930 . S
H317 C333 0.959 . S
H318 C333 0.959 1_655 S
H319 C333 0.961 . S
H320 C334 0.960 . S
H321 C334 0.961 . S
H322 C334 0.959 . S
H323 C337 0.929 . S
H324 C338 0.931 . S
H325 C340 0.930 . S
C326 H314 0.930 . S
C326 C327 1.399 1_554 S
C326 C331 1.399 . S
C327 C326 1.399 1_556 S
C327 C328 1.376 . S
C328 H315 0.930 . S
C328 C327 1.376 . S
C328 C329 1.388 . S
C329 H316 0.930 . S
C329 C328 1.388 . S
C329 C330 1.390 . S
C330 C329 1.390 . S
C330 C331 1.394 1_556 S
C330 C336 1.465 1_445 S
C331 C326 1.399 . S
C331 C330 1.394 1_554 S
C331 C332 1.513 1_445 S
C332 C331 1.513 1_665 S
C332 C333 1.508 1_655 S
C332 C334 1.552 1_565 S
C332 C335 1.531 . S
C333 H317 0.959 . S
C333 H318 0.959 1_455 S
C333 H319 0.961 . S
C333 C332 1.508 1_455 S
C334 H320 0.960 . S
C334 H321 0.961 . S
C334 H322 0.959 . S
C334 C332 1.552 1_545 S
C335 C332 1.531 . S
C335 C336 1.396 1_554 S
C335 C340 1.390 . S
C336 C330 1.465 1_665 S
C336 C335 1.396 1_556 S
C336 C337 1.399 . S
C337 H323 0.929 . S
C337 C336 1.399 . S
C337 C338 1.385 . S
C338 H324 0.931 . S
C338 C337 1.385 . S
C338 C339 1.393 . S
C339 C338 1.393 . S
C339 C340 1.384 1_556 S
C340 H325 0.930 . S
C340 C335 1.390 . S
C340 C339 1.384 1_554 S
H341 C353 0.930 . S
H342 C355 0.930 . S
H343 C356 0.930 . S
H344 C360 0.959 . S
H345 C360 0.959 . S
H346 C360 0.961 . S
H347 C361 0.960 1_655 S
H348 C361 0.961 . S
H349 C361 0.959 . S
H350 C364 0.929 . S
H351 C365 0.931 . S
H352 C367 0.930 . S
C353 H341 0.930 . S
C353 C354 1.399 . S
C353 C358 1.399 . S
C354 C353 1.399 . S
C354 C355 1.376 . S
C355 H342 0.930 . S
C355 C354 1.376 . S
C355 C356 1.388 . S
C356 H343 0.930 . S
C356 C355 1.388 . S
C356 C357 1.390 . S
C357 C356 1.390 . S
C357 C358 1.394 . S
C357 C363 1.465 1_645 S
C358 C353 1.399 . S
C358 C357 1.394 . S
C358 C359 1.513 1_545 S
C359 C358 1.513 1_565 S
C359 C360 1.507 . S
C359 C361 1.557 1_665 S
C359 C362 1.527 1_655 S
C360 H344 0.959 . S
C360 H345 0.959 . S
C360 H346 0.961 . S
C360 C359 1.507 . S
C361 H347 0.960 1_455 S
C361 H348 0.961 . S
C361 H349 0.959 . S
C361 C359 1.557 1_445 S
C362 C359 1.527 1_455 S
C362 C363 1.396 . S
C362 C367 1.390 . S
C363 C357 1.465 1_465 S
C363 C362 1.396 . S
C363 C364 1.399 . S
C364 H350 0.929 . S
C364 C363 1.399 . S
C364 C365 1.385 . S
C365 H351 0.931 . S
C365 C364 1.385 . S
C365 C366 1.389 . S
C366 C365 1.389 . S
C366 C367 1.387 . S
C367 H352 0.930 . S
C367 C362 1.390 . S
C367 C366 1.387 . S
H368 C380 0.930 . S
H369 C382 0.930 . S
H370 C383 0.930 . S
H371 C387 0.959 . S
H372 C387 0.959 . S
H373 C387 0.961 . S
H374 C388 0.960 . S
H375 C388 0.961 . S
H376 C388 0.959 . S
H377 C391 0.929 . S
H378 C392 0.931 . S
H379 C394 0.930 . S
C380 H368 0.930 . S
C380 C381 1.399 . S
C380 C385 1.399 . S
C381 C380 1.399 . S
C381 C382 1.376 . S
C382 H369 0.930 . S
C382 C381 1.376 . S
C382 C383 1.388 . S
C383 H370 0.930 . S
C383 C382 1.388 . S
C383 C384 1.390 . S
C384 C383 1.390 . S
C384 C385 1.394 . S
C384 C390 1.465 . S
C385 C380 1.399 . S
C385 C384 1.394 . S
C385 C386 1.516 . S
C386 C385 1.516 . S
C386 C387 1.502 . S
C386 C388 1.561 . S
C386 C389 1.526 . S
C387 H371 0.959 . S
C387 H372 0.959 . S
C387 H373 0.961 . S
C387 C386 1.502 . S
C388 H374 0.960 . S
C388 H375 0.961 . S
C388 H376 0.959 . S
C388 C386 1.561 . S
C389 C386 1.526 . S
C389 C390 1.396 . S
C389 C394 1.390 . S
C390 C384 1.465 . S
C390 C389 1.396 . S
C390 C391 1.399 . S
C391 H377 0.929 . S
C391 C390 1.399 . S
C391 C392 1.385 . S
C392 H378 0.931 . S
C392 C391 1.385 . S
C392 C393 1.389 . S
C393 C392 1.389 . S
C393 C394 1.387 . S
C394 H379 0.930 . S
C394 C389 1.390 . S
C394 C393 1.387 . S
H395 C407 0.930 . S
H396 C409 0.930 . S
H397 C410 0.930 . S
H398 C414 0.959 . S
H399 C414 0.959 . S
H400 C414 0.961 . S
H401 C415 0.960 . S
H402 C415 0.961 . S
H403 C415 0.959 . S
H404 C418 0.929 . S
H405 C419 0.931 . S
H406 C421 0.930 . S
C407 H395 0.930 . S
C407 C408 1.399 . S
C407 C412 1.399 . S
C408 C407 1.399 . S
C408 C409 1.376 . S
C409 H396 0.930 . S
C409 C408 1.376 . S
C409 C410 1.388 . S
C410 H397 0.930 . S
C410 C409 1.388 . S
C410 C411 1.390 . S
C411 C410 1.390 . S
C411 C412 1.394 . S
C411 C417 1.465 . S
C412 C407 1.399 . S
C412 C411 1.394 . S
C412 C413 1.516 . S
C413 C412 1.516 . S
C413 C414 1.502 . S
C413 C415 1.561 . S
C413 C416 1.526 . S
C414 H398 0.959 . S
C414 H399 0.959 . S
C414 H400 0.961 . S
C414 C413 1.502 . S
C415 H401 0.960 . S
C415 H402 0.961 . S
C415 H403 0.959 . S
C415 C413 1.561 . S
C416 C413 1.526 . S
C416 C417 1.396 . S
C416 C421 1.390 . S
C417 C411 1.465 . S
C417 C416 1.396 . S
C417 C418 1.399 . S
C418 H404 0.929 . S
C418 C417 1.399 . S
C418 C419 1.385 . S
C419 H405 0.931 . S
C419 C418 1.385 . S
C419 C420 1.389 . S
C420 C419 1.389 . S
C420 C421 1.387 . S
C421 H406 0.930 . S
C421 C416 1.390 . S
C421 C420 1.387 . S
H422 C434 0.930 . S
H423 C436 0.930 . S
H424 C437 0.930 . S
H425 C441 0.959 . S
H426 C441 0.959 . S
H427 C441 0.961 . S
H428 C442 0.960 . S
H429 C442 0.961 . S
H430 C442 0.959 . S
H431 C445 0.929 . S
H432 C446 0.931 . S
H433 C448 0.930 . S
C434 H422 0.930 . S
C434 C435 1.399 . S
C434 C439 1.399 . S
C435 C434 1.399 . S
C435 C436 1.376 . S
C436 H423 0.930 . S
C436 C435 1.376 . S
C436 C437 1.388 . S
C437 H424 0.930 . S
C437 C436 1.388 . S
C437 C438 1.390 . S
C438 C437 1.390 . S
C438 C439 1.394 . S
C438 C444 1.465 . S
C439 C434 1.399 . S
C439 C438 1.394 . S
C439 C440 1.516 . S
C440 C439 1.516 . S
C440 C441 1.502 . S
C440 C442 1.561 . S
C440 C443 1.526 . S
C441 H425 0.959 . S
C441 H426 0.959 . S
C441 H427 0.961 . S
C441 C440 1.502 . S
C442 H428 0.960 . S
C442 H429 0.961 . S
C442 H430 0.959 . S
C442 C440 1.561 . S
C443 C440 1.526 . S
C443 C444 1.396 . S
C443 C448 1.390 . S
C444 C438 1.465 . S
C444 C443 1.396 . S
C444 C445 1.399 . S
C445 H431 0.929 . S
C445 C444 1.399 . S
C445 C446 1.385 . S
C446 H432 0.931 . S
C446 C445 1.385 . S
C446 C447 1.389 . S
C447 C446 1.389 . S
C447 C448 1.387 . S
C448 H433 0.930 . S
C448 C443 1.390 . S
C448 C447 1.387 . S
H449 C461 0.930 . S
H450 C463 0.930 . S
H451 C464 0.930 . S
H452 C468 0.959 . S
H453 C468 0.959 . S
H454 C468 0.961 . S
H455 C469 0.960 . S
H456 C469 0.961 . S
H457 C469 0.959 . S
H458 C472 0.929 . S
H459 C473 0.931 . S
H460 C475 0.930 . S
C461 H449 0.930 . S
C461 C462 1.399 . S
C461 C466 1.399 . S
C462 C461 1.399 . S
C462 C463 1.376 . S
C463 H450 0.930 . S
C463 C462 1.376 . S
C463 C464 1.388 . S
C464 H451 0.930 . S
C464 C463 1.388 . S
C464 C465 1.390 . S
C465 C464 1.390 . S
C465 C466 1.394 . S
C465 C471 1.465 . S
C466 C461 1.399 . S
C466 C465 1.394 . S
C466 C467 1.516 . S
C467 C466 1.516 . S
C467 C468 1.502 . S
C467 C469 1.561 . S
C467 C470 1.526 . S
C468 H452 0.959 . S
C468 H453 0.959 . S
C468 H454 0.961 . S
C468 C467 1.502 . S
C469 H455 0.960 . S
C469 H456 0.961 . S
C469 H457 0.959 . S
C469 C467 1.561 . S
C470 C467 1.526 . S
C470 C471 1.396 . S
C470 C475 1.390 . S
C471 C465 1.465 . S
C471 C470 1.396 . S
C471 C472 1.399 . S
C472 H458 0.929 . S
C472 C471 1.399 . S
C472 C473 1.385 . S
C473 H459 0.931 . S
C473 C472 1.385 . S
C473 C474 1.389 . S
C474 C473 1.389 . S
C474 C475 1.387 . S
C475 H460 0.930 . S
C475 C470 1.390 . S
C475 C474 1.387 . S
H476 C488 0.930 . S
H477 C490 0.930 . S
H478 C491 0.930 . S
H479 C495 0.959 . S
H480 C495 0.959 . S
H481 C495 0.961 . S
H482 C496 0.960 1_455 S
H483 C496 0.961 . S
H484 C496 0.959 . S
H485 C499 0.929 . S
H486 C500 0.931 . S
H487 C502 0.930 . S
C488 H476 0.930 . S
C488 C489 1.399 . S
C488 C493 1.399 1_455 S
C489 C488 1.399 . S
C489 C490 1.376 1_455 S
C490 H477 0.930 . S
C490 C489 1.376 1_655 S
C490 C491 1.388 . S
C491 H478 0.930 . S
C491 C490 1.388 . S
C491 C492 1.390 . S
C492 C491 1.390 . S
C492 C493 1.394 . S
C492 C498 1.465 . S
C493 C488 1.399 1_655 S
C493 C492 1.394 . S
C493 C494 1.516 . S
C494 C493 1.516 . S
C494 C495 1.502 1_655 S
C494 C496 1.561 . S
C494 C497 1.526 . S
C495 H479 0.959 . S
C495 H480 0.959 . S
C495 H481 0.961 . S
C495 C494 1.502 1_455 S
C496 H482 0.960 1_655 S
C496 H483 0.961 . S
C496 H484 0.959 . S
C496 C494 1.561 . S
C497 C494 1.526 . S
C497 C498 1.396 . S
C497 C502 1.390 . S
C498 C492 1.465 . S
C498 C497 1.396 . S
C498 C499 1.399 . S
C499 H485 0.929 . S
C499 C498 1.399 . S
C499 C500 1.385 . S
C500 H486 0.931 . S
C500 C499 1.385 . S
C500 C501 1.389 . S
C501 C500 1.389 . S
C501 C502 1.387 . S
C502 H487 0.930 . S
C502 C497 1.390 . S
C502 C501 1.387 . S
H503 C515 0.930 . S
H504 C517 0.930 . S
H505 C518 0.930 . S
H506 C522 0.959 . S
H507 C522 0.959 . S
H508 C522 0.961 . S
H509 C523 0.960 . S
H510 C523 0.961 . S
H511 C523 0.959 1_455 S
H512 C526 0.929 . S
H513 C527 0.931 . S
H514 C529 0.930 1_655 S
C515 H503 0.930 . S
C515 C516 1.399 . S
C515 C520 1.399 . S
C516 C515 1.399 . S
C516 C517 1.376 . S
C517 H504 0.930 . S
C517 C516 1.376 . S
C517 C518 1.388 . S
C518 H505 0.930 . S
C518 C517 1.388 . S
C518 C519 1.390 . S
C519 C518 1.390 . S
C519 C520 1.394 . S
C519 C525 1.465 . S
C520 C515 1.399 . S
C520 C519 1.394 . S
C520 C521 1.516 . S
C521 C520 1.516 . S
C521 C522 1.502 . S
C521 C523 1.561 . S
C521 C524 1.526 . S
C522 H506 0.959 . S
C522 H507 0.959 . S
C522 H508 0.961 . S
C522 C521 1.502 . S
C523 H509 0.960 . S
C523 H510 0.961 . S
C523 H511 0.959 1_655 S
C523 C521 1.561 . S
C524 C521 1.526 . S
C524 C525 1.396 . S
C524 C529 1.390 1_655 S
C525 C519 1.465 . S
C525 C524 1.396 . S
C525 C526 1.399 1_655 S
C526 H512 0.929 . S
C526 C525 1.399 1_455 S
C526 C527 1.385 . S
C527 H513 0.931 . S
C527 C526 1.385 . S
C527 C528 1.389 . S
C528 C527 1.389 . S
C528 C529 1.387 . S
C529 H514 0.930 1_455 S
C529 C524 1.390 1_455 S
C529 C528 1.387 . S
H530 C542 0.930 . S
H531 C544 0.930 . S
H532 C545 0.930 . S
H533 C549 0.959 . S
H534 C549 0.959 . S
H535 C549 0.961 . S
H536 C550 0.960 1_455 S
H537 C550 0.961 . S
H538 C550 0.959 . S
H539 C553 0.929 . S
H540 C554 0.931 . S
H541 C556 0.930 . S
C542 H530 0.930 . S
C542 C543 1.399 . S
C542 C547 1.399 . S
C543 C542 1.399 . S
C543 C544 1.376 . S
C544 H531 0.930 . S
C544 C543 1.376 . S
C544 C545 1.388 . S
C545 H532 0.930 . S
C545 C544 1.388 . S
C545 C546 1.390 . S
C546 C545 1.390 . S
C546 C547 1.394 . S
C546 C552 1.465 . S
C547 C542 1.399 . S
C547 C546 1.394 . S
C547 C548 1.516 . S
C548 C547 1.516 . S
C548 C549 1.502 . S
C548 C550 1.561 1_455 S
C548 C551 1.526 . S
C549 H533 0.959 . S
C549 H534 0.959 . S
C549 H535 0.961 . S
C549 C548 1.502 . S
C550 H536 0.960 1_655 S
C550 H537 0.961 . S
C550 H538 0.959 . S
C550 C548 1.561 1_655 S
C551 C548 1.526 . S
C551 C552 1.396 . S
C551 C556 1.390 1_455 S
C552 C546 1.465 . S
C552 C551 1.396 . S
C552 C553 1.399 1_455 S
C553 H539 0.929 . S
C553 C552 1.399 1_655 S
C553 C554 1.385 . S
C554 H540 0.931 . S
C554 C553 1.385 . S
C554 C555 1.389 . S
C555 C554 1.389 . S
C555 C556 1.387 . S
C556 H541 0.930 . S
C556 C551 1.390 1_655 S
C556 C555 1.387 . S
H557 C569 0.930 . S
H558 C571 0.930 . S
H559 C572 0.930 . S
H560 C576 0.959 . S
H561 C576 0.959 . S
H562 C576 0.961 . S
H563 C577 0.960 . S
H564 C577 0.961 . S
H565 C577 0.959 . S
H566 C580 0.929 . S
H567 C581 0.931 . S
H568 C583 0.930 . S
C569 H557 0.930 . S
C569 C570 1.399 . S
C569 C574 1.399 . S
C570 C569 1.399 . S
C570 C571 1.376 . S
C571 H558 0.930 . S
C571 C570 1.376 . S
C571 C572 1.388 . S
C572 H559 0.930 . S
C572 C571 1.388 . S
C572 C573 1.390 . S
C573 C572 1.390 . S
C573 C574 1.394 . S
C573 C579 1.465 . S
C574 C569 1.399 . S
C574 C573 1.394 . S
C574 C575 1.516 . S
C575 C574 1.516 . S
C575 C576 1.502 1_455 S
C575 C577 1.561 . S
C575 C578 1.526 . S
C576 H560 0.959 . S
C576 H561 0.959 . S
C576 H562 0.961 . S
C576 C575 1.502 1_655 S
C577 H563 0.960 . S
C577 H564 0.961 . S
C577 H565 0.959 . S
C577 C575 1.561 . S
C578 C575 1.526 . S
C578 C579 1.396 . S
C578 C583 1.390 1_455 S
C579 C573 1.465 . S
C579 C578 1.396 . S
C579 C580 1.399 . S
C580 H566 0.929 . S
C580 C579 1.399 . S
C580 C581 1.385 1_455 S
C581 H567 0.931 . S
C581 C580 1.385 1_655 S
C581 C582 1.389 . S
C582 C581 1.389 . S
C582 C583 1.387 . S
C583 H568 0.930 . S
C583 C578 1.390 1_655 S
C583 C582 1.387 . S
C165 C26 2.012 . S
C177 C2 2.035 . S
C192 C64 2.028 . S
C204 C40 2.017 . S
C219 C102 2.037 . S
C231 C78 2.014 . S
C246 C140 2.017 . S
C258 C116 2.035 . S
C273 C57 1.641 . S
C285 C20 1.644 . S
C300 C133 1.638 . S
C312 C96 1.640 . S
C327 C19 1.639 1_556 S
C339 C58 1.636 1_556 S
C354 C134 1.627 . S
C366 C95 1.651 . S
C381 C118 1.234 . S
C393 C17 1.205 . S
C408 C42 1.228 . S
C420 C93 1.198 . S
C435 C99 1.227 . S
C447 C66 1.268 . S
C462 C23 1.233 . S
C474 C142 1.269 . S
C489 C80 1.124 . S
C501 C55 1.222 . S
C516 C131 1.270 . S
C528 C4 1.216 . S
C543 C28 1.204 . S
C555 C137 1.201 . S
C570 C104 1.231 . S
C582 C61 1.163 . S
