# Generated by pormake.
# Topology smm, (6)-cn, num edge types: 1
# Building blocks:
#     Node 0, Type 0, BuildingBlock: CUWYAW_clean_sbu_0, # of connection points: 6
#     Node 1, Type 0, BuildingBlock: CUWYAW_clean_sbu_0, # of connection points: 6
#     Node 2, Type 0, BuildingBlock: CUWYAW_clean_sbu_0, # of connection points: 6
#     Node 3, Type 0, BuildingBlock: CUWYAW_clean_sbu_0, # of connection points: 6
#     Node 4, Type 0, BuildingBlock: CUWYAW_clean_sbu_0, # of connection points: 6
#     Node 5, Type 0, BuildingBlock: CUWYAW_clean_sbu_0, # of connection points: 6
#     Node 6, Type 0, BuildingBlock: CUWYAW_clean_sbu_0, # of connection points: 6
#     Node 7, Type 0, BuildingBlock: CUWYAW_clean_sbu_0, # of connection points: 6
#     Node 8, Type 0, BuildingBlock: CUWYAW_clean_sbu_0, # of connection points: 6
#     Edge 9, Type (0, 0), BuildingBlock: EZIPEK_clean_linker_0, # of connection points: 2
#     Edge 10, Type (0, 0), BuildingBlock: EZIPEK_clean_linker_0, # of connection points: 2
#     Edge 11, Type (0, 0), BuildingBlock: EZIPEK_clean_linker_0, # of connection points: 2
#     Edge 12, Type (0, 0), BuildingBlock: EZIPEK_clean_linker_0, # of connection points: 2
#     Edge 13, Type (0, 0), BuildingBlock: EZIPEK_clean_linker_0, # of connection points: 2
#     Edge 14, Type (0, 0), BuildingBlock: EZIPEK_clean_linker_0, # of connection points: 2
#     Edge 15, Type (0, 0), BuildingBlock: EZIPEK_clean_linker_0, # of connection points: 2
#     Edge 16, Type (0, 0), BuildingBlock: EZIPEK_clean_linker_0, # of connection points: 2
#     Edge 17, Type (0, 0), BuildingBlock: EZIPEK_clean_linker_0, # of connection points: 2
#     Edge 18, Type (0, 0), BuildingBlock: EZIPEK_clean_linker_0, # of connection points: 2
#     Edge 19, Type (0, 0), BuildingBlock: EZIPEK_clean_linker_0, # of connection points: 2
#     Edge 20, Type (0, 0), BuildingBlock: EZIPEK_clean_linker_0, # of connection points: 2
#     Edge 21, Type (0, 0), BuildingBlock: EZIPEK_clean_linker_0, # of connection points: 2
#     Edge 22, Type (0, 0), BuildingBlock: EZIPEK_clean_linker_0, # of connection points: 2
#     Edge 23, Type (0, 0), BuildingBlock: EZIPEK_clean_linker_0, # of connection points: 2
#     Edge 24, Type (0, 0), BuildingBlock: EZIPEK_clean_linker_0, # of connection points: 2
#     Edge 25, Type (0, 0), BuildingBlock: EZIPEK_clean_linker_0, # of connection points: 2
#     Edge 26, Type (0, 0), BuildingBlock: EZIPEK_clean_linker_0, # of connection points: 2
#     Edge 27, Type (0, 0), BuildingBlock: EZIPEK_clean_linker_0, # of connection points: 2
#     Edge 28, Type (0, 0), BuildingBlock: EZIPEK_clean_linker_0, # of connection points: 2
#     Edge 29, Type (0, 0), BuildingBlock: EZIPEK_clean_linker_0, # of connection points: 2
#     Edge 30, Type (0, 0), BuildingBlock: EZIPEK_clean_linker_0, # of connection points: 2
#     Edge 31, Type (0, 0), BuildingBlock: EZIPEK_clean_linker_0, # of connection points: 2
#     Edge 32, Type (0, 0), BuildingBlock: EZIPEK_clean_linker_0, # of connection points: 2
#     Edge 33, Type (0, 0), BuildingBlock: EZIPEK_clean_linker_0, # of connection points: 2
#     Edge 34, Type (0, 0), BuildingBlock: EZIPEK_clean_linker_0, # of connection points: 2
#     Edge 35, Type (0, 0), BuildingBlock: EZIPEK_clean_linker_0, # of connection points: 2
# Relax obj value: 0.021
# Max RMSD: 0.092
# Mean RMSD: 0.092
data_MOF--net-smm--node1-CUWYAW_clean_sbu_0--edge1-EZIPEK_clean_linker_0
_symmetry_space_group_name_H-M    P1
_symmetry_Int_Tables_number       1
_symmetry_cell_setting            triclinic
loop_
_symmetry_equiv_pos_as_xyz
'x, y, z'
_cell_length_a     57.047471
_cell_length_b     57.115271
_cell_length_c     10.439847
_cell_angle_alpha  89.898756
_cell_angle_beta   90.185597
_cell_angle_gamma 119.74489
loop_
_atom_site_label
_atom_site_type_symbol
_atom_site_fract_x
_atom_site_fract_y
_atom_site_fract_z
_atom_type_partial_charge
C0 C 0.10518 0.18491 0.91025 0.0
Eu1 Eu 0.06759 0.19688 0.96607 0.0
C2 C 0.1133 0.16402 0.92646 0.0
C3 C 0.1204 0.15822 0.047 0.0
C4 C 0.1311 0.14083 0.0573 0.0
C5 C 0.13491 0.12892 0.94751 0.0
C6 C 0.12707 0.13403 0.82779 0.0
C7 C 0.11643 0.15142 0.81739 0.0
C8 C 0.05468 0.2047 0.20641 0.0
C9 C 1.00746 0.14229 0.98313 0.0
C10 C 0.97957 0.21291 0.06529 0.0
Eu11 Eu 1.01703 0.20259 0.98683 0.0
C12 C 0.97298 0.23357 0.10992 0.0
C13 C 0.98442 0.25937 0.05446 0.0
C14 C 0.97538 0.27725 0.09034 0.0
C15 C 0.95472 0.26956 0.18167 0.0
C16 C 0.94404 0.24416 0.24001 0.0
C17 C 0.95312 0.22639 0.20461 0.0
C18 C 1.02847 0.19336 0.7463 0.0
C19 C 0.07598 0.25651 0.9399 0.0
O20 O 0.0846 0.17926 0.83559 0.0
O21 O 0.10606 0.19908 0.01034 0.0
O22 O 0.07923 0.21432 0.16636 0.0
O23 O 0.03841 0.18993 0.12149 0.0
O24 O 1.03364 0.15288 0.96021 0.0
O25 O 0.9963 0.15729 0.00728 0.0
O26 O 0.99342 0.20624 0.1424 0.0
O27 O 0.98587 0.21309 0.94466 0.0
O28 O 1.0041 0.18447 0.78907 0.0
O29 O 0.04547 0.20844 0.82876 0.0
O30 O 0.05141 0.24658 -0.01115 0.0
O31 O 0.08563 0.24058 0.90642 0.0
H32 H 0.11838 0.16765 0.13298 0.0
H33 H 0.13711 0.13725 0.15052 0.0
H34 H 0.12992 0.12514 0.74185 0.0
H35 H 0.11138 0.15566 0.72325 0.0
H36 H 0.99978 0.26541 0.98133 0.0
H37 H 0.98386 0.29675 0.04399 0.0
H38 H 0.92807 0.23778 0.31023 0.0
H39 H 0.94398 0.2066 0.24851 0.0
C40 C 0.8862 0.93991 0.92493 0.0
Eu41 Eu 0.88235 0.89311 0.97388 0.0
C42 C 0.90457 0.96909 0.94621 0.0
C43 C 0.93189 0.97944 0.97888 0.0
C44 C 0.94916 1.00739 -0.0087 0.0
C45 C 0.93933 0.02535 0.9714 0.0
C46 C 0.91193 1.0149 0.94098 0.0
C47 C 0.89473 0.98704 0.92859 0.0
C48 C 0.88577 0.87608 0.21161 0.0
C49 C 0.93487 0.88682 0.97546 0.0
C50 C 0.86924 0.78967 0.06984 0.0
Eu51 Eu 0.8727 0.83499 -0.00698 0.0
C52 C 0.84943 0.76109 0.0994 0.0
C53 C 0.85536 0.74087 0.0642 0.0
C54 C 0.83776 0.71382 0.09567 0.0
C55 C 0.81385 0.70639 0.16346 0.0
C56 C 0.80775 0.72654 0.19848 0.0
C57 C 0.8254 0.75367 0.1668 0.0
C58 C 0.87127 0.85205 0.75203 0.0
C59 C 0.82047 0.84074 0.95779 0.0
O60 O 0.89467 0.92771 0.84742 0.0
O61 O 0.87372 0.92523 0.02504 0.0
O62 O 0.9006 0.90065 0.17203 0.0
O63 O 0.86847 0.86226 0.12786 0.0
O64 O 0.92534 0.90307 0.94778 0.0
O65 O 0.91894 0.86092 0.00347 0.0
O66 O 0.87024 0.80813 0.14739 0.0
O67 O 0.87226 0.79721 0.94975 0.0
O68 O 0.85663 0.82721 0.79007 0.0
O69 O 0.88734 0.86607 0.83956 0.0
O70 O 0.8293 0.82487 0.00247 0.0
O71 O 0.83712 0.86646 0.9296 0.0
H72 H 0.93992 0.96595 -0.00714 0.0
H73 H 0.97025 1.01505 0.01435 0.0
H74 H 0.90397 0.02838 0.92485 0.0
H75 H 0.87376 0.97951 0.90313 0.0
H76 H 0.87378 0.74605 0.01281 0.0
H77 H 0.84275 0.69861 0.06686 0.0
H78 H 0.7893 0.72123 0.2498 0.0
H79 H 0.82029 0.76882 0.1953 0.0
C80 C 0.13681 0.96607 0.89206 0.0
Eu81 Eu 0.18463 1.00478 0.96033 0.0
C82 C 0.10756 0.95537 0.90932 0.0
C83 C 0.09713 0.97131 0.9572 0.0
C84 C 0.06911 0.96038 0.97049 0.0
C85 C 0.05126 0.9334 0.93632 0.0
C86 C 0.06182 0.91753 0.88949 0.0
C87 C 0.08971 0.92843 0.87612 0.0
C88 C 0.20343 1.02013 0.20267 0.0
C89 C 0.18854 0.06442 0.9665 0.0
C90 C 0.2876 0.09432 0.06363 0.0
Eu91 Eu 0.24041 0.05641 0.98339 0.0
C92 C 0.31615 0.1019 0.09033 0.0
C93 C 0.33592 0.1128 -0.00623 0.0
C94 C 0.36329 0.12309 0.02345 0.0
C95 C 0.37148 0.12285 0.15022 0.0
C96 C 0.35182 0.11148 0.24632 0.0
C97 C 0.32447 0.1012 0.21681 0.0
C98 C 0.2203 0.04192 0.74259 0.0
C99 C 0.2375 0.99791 0.95438 0.0
O100 O 0.15036 0.98865 0.82833 0.0
O101 O 0.15022 0.96449 -0.00964 0.0
O102 O 0.18812 0.99529 0.16748 0.0
O103 O 0.20549 0.03544 0.11185 0.0
O104 O 0.17403 0.03838 0.93782 0.0
O105 O 0.21418 0.07561 0.00105 0.0
O106 O 0.26892 0.07662 0.13935 0.0
O107 O 0.27953 0.09196 0.94427 0.0
O108 O 0.23549 0.06678 0.77942 0.0
O109 O 0.21902 0.02623 0.83031 0.0
O110 O 0.25169 0.02322 -0.00562 0.0
O111 O 0.21176 0.98707 0.92204 0.0
H112 H 0.11058 0.99213 0.98365 0.0
H113 H 0.06134 0.97295 0.00675 0.0
H114 H 0.04842 0.89672 0.86263 0.0
H115 H 0.09737 0.91581 0.83916 0.0
H116 H 0.33035 0.11405 0.89577 0.0
H117 H 0.37818 0.13179 0.94795 0.0
H118 H 0.35773 0.1111 0.34469 0.0
H119 H 0.30988 0.09337 0.29389 0.0
C120 C 0.7753 0.52484 0.21198 0.0
Eu121 Eu 0.73329 0.52953 0.27081 0.0
C122 C 0.7856 0.5056 0.22678 0.0
C123 C 0.79501 0.50176 0.34559 0.0
C124 C 0.8062 0.48482 0.35564 0.0
C125 C 0.80821 0.47136 0.24734 0.0
C126 C 0.79856 0.47488 0.12912 0.0
C127 C 0.78748 0.4919 0.11886 0.0
C128 C 0.71432 0.52709 0.50982 0.0
C129 C 0.67454 0.47686 0.28 0.0
C130 C 0.64305 0.5424 0.37191 0.0
Eu131 Eu 0.68493 0.53938 0.29161 0.0
C132 C 0.63513 0.56222 0.41443 0.0
C133 C 0.65036 0.58969 0.38228 0.0
C134 C 0.64164 0.60775 0.41948 0.0
C135 C 0.61759 0.59863 0.48933 0.0
C136 C 0.6027 0.57127 0.52325 0.0
C137 C 0.61142 0.55326 0.4862 0.0
C138 C 0.70268 0.54042 0.04996 0.0
C139 C 0.74291 0.59166 0.26273 0.0
O140 O 0.7547 0.51777 0.13497 0.0
O141 O 0.77394 0.53728 0.31455 0.0
O142 O 0.72463 0.51261 0.4711 0.0
O143 O 0.71693 0.54397 0.42508 0.0
O144 O 0.70049 0.48609 0.25969 0.0
O145 O 0.6644 0.49313 0.29805 0.0
O146 O 0.65899 0.53835 0.44792 0.0
O147 O 0.64924 0.54286 0.25097 0.0
O148 O 0.69225 0.55493 0.08805 0.0
O149 O 0.7009 0.52436 0.13742 0.0
O150 O 0.71804 0.58281 0.30386 0.0
O151 O 0.75216 0.57505 0.23509 0.0
H152 H 0.79407 0.5121 0.43061 0.0
H153 H 0.81358 0.48242 0.44767 0.0
H154 H 0.79997 0.46474 0.04437 0.0
H155 H 0.78069 0.49463 0.02587 0.0
H156 H 0.66876 0.59708 0.32728 0.0
H157 H 0.65341 0.62877 0.39222 0.0
H158 H 0.58411 0.56379 0.57681 0.0
H159 H 0.5994 0.53218 0.5122 0.0
C160 C 0.55652 0.27344 0.21421 0.0
Eu161 Eu 0.54554 0.22477 0.28083 0.0
C162 C 0.57555 0.30278 0.23492 0.0
C163 C 0.57261 0.31656 0.34005 0.0
C164 C 0.58864 0.34467 0.35104 0.0
C165 C 0.60792 0.35967 0.25714 0.0
C166 C 0.61123 0.34599 0.15326 0.0
C167 C 0.59517 0.31789 0.14204 0.0
C168 C 0.53905 0.20601 0.52533 0.0
C169 C 0.60109 0.22062 0.30466 0.0
C170 C 0.53067 0.12172 0.39116 0.0
Eu171 Eu 0.54132 0.16945 0.30983 0.0
C172 C 0.50914 0.09392 0.42572 0.0
C173 C 0.49621 0.0739 0.33134 0.0
C174 C 0.47884 0.04693 0.36593 0.0
C175 C 0.47414 0.03935 0.49547 0.0
C176 C 0.48637 0.05935 0.58989 0.0
C177 C 0.50373 0.08632 0.55542 0.0
C178 C 0.5491 0.18848 0.06557 0.0
C179 C 0.48655 0.17305 0.26226 0.0
O180 O 0.56522 0.25941 0.15154 0.0
O181 O 0.54006 0.25965 0.30717 0.0
O182 O 0.52908 0.22055 0.48252 0.0
O183 O 0.55366 0.204 0.44094 0.0
O184 O 0.58982 0.2355 0.27707 0.0
O185 O 0.58656 0.1947 0.33327 0.0
O186 O 0.53479 0.1416 0.4674 0.0
O187 O 0.5341 0.12883 0.27039 0.0
O188 O 0.55849 0.17354 0.1104 0.0
O189 O 0.53408 0.1906 0.1478 0.0
O190 O 0.49723 0.15938 0.31527 0.0
O191 O 0.50191 0.19812 0.22198 0.0
H192 H 0.5575 0.30573 0.4126 0.0
H193 H 0.58572 0.3548 0.43189 0.0
H194 H 0.62595 0.35714 0.07965 0.0
H195 H 0.59771 0.30804 0.05891 0.0
H196 H 0.50009 0.07887 0.23065 0.0
H197 H 0.46959 0.03183 0.29155 0.0
H198 H 0.483 0.05397 0.69036 0.0
H199 H 0.51358 0.1011 0.63063 0.0
C200 C 0.80393 0.30771 0.21807 0.0
Eu201 Eu 0.85288 0.34415 0.28643 0.0
C202 C 0.77494 0.29786 0.2444 0.0
C203 C 0.76304 0.28633 0.36296 0.0
C204 C 0.73506 0.27472 0.38025 0.0
C205 C 0.71853 0.27448 0.2796 0.0
C206 C 0.73047 0.28661 0.16258 0.0
C207 C 0.75836 0.2981 0.14511 0.0
C208 C 0.8666 0.35916 0.53481 0.0
C209 C 0.85831 0.40407 0.2811 0.0
C210 C 0.95406 0.42976 0.41876 0.0
Eu211 Eu 0.90788 0.39355 0.32127 0.0
C212 C 0.98304 0.43922 0.43722 0.0
C213 C 0.99547 0.42521 0.38806 0.0
C214 C 1.02301 0.43466 0.41164 0.0
C215 C 0.0383 0.45813 0.48489 0.0
C216 C 1.02572 0.47195 0.53399 0.0
C217 C 0.99835 0.46256 0.51035 0.0
C218 C 0.89292 0.3805 0.07227 0.0
C219 C 0.90414 0.33461 0.28878 0.0
O220 O 0.81762 0.33115 0.16182 0.0
O221 O 0.81815 0.30368 0.30486 0.0
O222 O 0.85374 0.33444 0.49545 0.0
O223 O 0.87115 0.37475 0.44171 0.0
O224 O 0.84408 0.37839 0.24749 0.0
O225 O 0.88299 0.41435 0.32811 0.0
O226 O 0.93698 0.40761 0.478 0.0
O227 O 0.94571 0.43186 0.30457 0.0
O228 O 0.90716 0.40502 0.11478 0.0
O229 O 0.88883 0.36419 0.16193 0.0
O230 O 0.91861 0.35985 0.32906 0.0
O231 O 0.87864 0.32456 0.25348 0.0
H232 H 0.7752 0.28572 0.44136 0.0
H233 H 0.72622 0.26537 0.4711 0.0
H234 H 0.71807 0.28653 0.0836 0.0
H235 H 0.7669 0.30661 0.05254 0.0
H236 H 0.98391 0.40703 0.33215 0.0
H237 H 1.03239 0.42374 0.37288 0.0
H238 H 0.03715 0.49007 0.59044 0.0
H239 H 0.98906 0.47353 0.54985 0.0
C240 C 0.44141 0.85501 0.52808 0.0
Eu241 Eu 0.40393 0.86545 0.6036 0.0
C242 C 0.45088 0.83534 0.54934 0.0
C243 C 0.45529 0.82849 0.67324 0.0
C244 C 0.46639 0.81158 0.69011 0.0
C245 C 0.47314 0.80112 0.5836 0.0
C246 C 0.46806 0.80737 0.46007 0.0
C247 C 0.45709 0.82434 0.44319 0.0
C248 C 0.39148 0.86906 0.85013 0.0
C249 C 0.34543 0.80885 0.62198 0.0
C250 C 0.31459 0.87755 0.72574 0.0
Eu251 Eu 0.35223 0.86826 0.63857 0.0
C252 C 0.30786 0.89893 0.75841 0.0
C253 C 0.29326 0.90562 0.67101 0.0
C254 C 0.28372 0.92306 0.70632 0.0
C255 C 0.2884 0.93408 0.83005 0.0
C256 C 0.30354 0.92804 0.91678 0.0
C257 C 0.3131 0.91057 0.88152 0.0
C258 C 0.36406 0.86401 0.39014 0.0
C259 C 0.40953 0.92409 0.60241 0.0
O260 O 0.41845 0.84644 0.46724 0.0
O261 O 0.4446 0.87151 0.62206 0.0
O262 O 0.41601 0.88025 0.80744 0.0
O263 O 0.37492 0.85517 0.76373 0.0
O264 O 0.37181 0.82093 0.60197 0.0
O265 O 0.3331 0.82281 0.64703 0.0
O266 O 0.33153 0.87454 0.79953 0.0
O267 O 0.31733 0.8735 0.60473 0.0
O268 O 0.33969 0.85409 0.43422 0.0
O269 O 0.38086 0.87769 0.47647 0.0
O270 O 0.38546 0.91238 0.65734 0.0
O271 O 0.41964 0.90947 0.55515 0.0
H272 H 0.45066 0.83659 0.75703 0.0
H273 H 0.47018 0.80705 0.7862 0.0
H274 H 0.47316 0.79956 0.37665 0.0
H275 H 0.45395 0.82934 0.34683 0.0
H276 H 0.28848 0.89675 0.57622 0.0
H277 H 0.27206 0.92742 0.63803 0.0
H278 H 0.30736 0.93632 0.01275 0.0
H279 H 0.32395 0.90563 0.95194 0.0
C280 C 0.22408 0.60619 0.55067 0.0
Eu281 Eu 0.21283 0.55734 0.61458 0.0
C282 C 0.24387 0.63522 0.56636 0.0
C283 C 0.26121 0.64522 0.673 0.0
C284 C 0.27865 0.67312 0.68755 0.0
C285 C 0.27892 0.69138 0.59594 0.0
C286 C 0.26181 0.68124 0.48891 0.0
C287 C 0.24449 0.65347 0.47435 0.0
C288 C 0.20511 0.53701 0.85601 0.0
C289 C 0.26766 0.55203 0.63297 0.0
C290 C 0.19724 0.45307 0.71038 0.0
Eu291 Eu 0.20737 0.5011 0.63689 0.0
C292 C 0.17675 0.42578 0.75463 0.0
C293 C 0.15027 0.41225 0.70563 0.0
C294 C 0.13246 0.38528 0.73971 0.0
C295 C 0.14089 0.3714 0.82265 0.0
C296 C 0.16707 0.38526 0.87432 0.0
C297 C 0.18476 0.41215 0.84079 0.0
C298 C 0.21624 0.52159 0.3962 0.0
C299 C 0.15336 0.50642 0.59089 0.0
O300 O 0.2313 0.59162 0.48244 0.0
O301 O 0.20966 0.59325 0.65063 0.0
O302 O 0.19561 0.55207 0.81467 0.0
O303 O 0.2198 0.53512 0.77162 0.0
O304 O 0.25685 0.56757 0.61247 0.0
O305 O 0.25284 0.5258 0.65427 0.0
O306 O 0.20471 0.47336 0.78912 0.0
O307 O 0.1962 0.45959 0.59115 0.0
O308 O 0.22488 0.50583 0.43849 0.0
O309 O 0.2013 0.52368 0.47884 0.0
O310 O 0.16341 0.49181 0.64013 0.0
O311 O 0.16914 0.53184 0.55656 0.0
H312 H 0.26109 0.63152 0.74525 0.0
H313 H 0.2918 0.6805 0.77047 0.0
H314 H 0.26175 0.69489 0.4169 0.0
H315 H 0.23127 0.64622 0.39158 0.0
H316 H 0.14358 0.42229 0.63891 0.0
H317 H 0.11234 0.37501 0.69884 0.0
H318 H 0.17404 0.37502 0.93832 0.0
H319 H 0.20509 0.42209 0.87944 0.0
C320 C 0.47064 0.6388 0.55667 0.0
Eu321 Eu 0.51944 0.67526 0.62599 0.0
C322 C 0.44158 0.6289 0.58274 0.0
C323 C 0.42881 0.61371 0.69312 0.0
C324 C 0.4008 0.60208 0.70879 0.0
C325 C 0.38505 0.60536 0.61451 0.0
C326 C 0.39781 0.62104 0.50599 0.0
C327 C 0.42576 0.63262 0.49013 0.0
C328 C 0.53711 0.68968 0.87107 0.0
C329 C 0.52543 0.73573 0.62951 0.0
C330 C 0.62221 0.76354 0.74751 0.0
Eu331 Eu 0.57613 0.72607 0.65472 0.0
C332 C 0.65079 0.77308 0.77885 0.0
C333 C 0.66475 0.76044 0.73172 0.0
C334 C 0.69202 0.77047 0.76425 0.0
C335 C 0.70557 0.79319 0.84435 0.0
C336 C 0.69141 0.80553 0.89208 0.0
C337 C 0.66429 0.79553 0.85973 0.0
C338 C 0.55639 0.71279 0.41202 0.0
C339 C 0.57214 0.66733 0.61603 0.0
O340 O 0.48441 0.66224 0.50016 0.0
O341 O 0.48482 0.63471 0.64362 0.0
O342 O 0.5207 0.6652 0.83436 0.0
O343 O 0.54044 0.70535 0.77968 0.0
O344 O 0.5107 0.70992 0.59758 0.0
O345 O 0.55058 0.74607 0.6703 0.0
O346 O 0.60392 0.74366 0.81584 0.0
O347 O 0.61525 0.76248 0.62697 0.0
O348 O 0.5728 0.73738 0.44953 0.0
O349 O 0.55428 0.69669 0.49933 0.0
O350 O 0.58684 0.69242 0.6582 0.0
O351 O 0.54643 0.65722 0.58283 0.0
H352 H 0.44029 0.61023 0.76594 0.0
H353 H 0.39131 0.58993 0.79289 0.0
H354 H 0.386 0.62371 0.43187 0.0
H355 H 0.4349 0.64391 0.40347 0.0
H356 H 0.65465 0.74301 0.66967 0.0
H357 H 0.70265 0.76073 0.72603 0.0
H358 H 0.70148 0.8231 0.95332 0.0
H359 H 0.65382 0.80549 0.89746 0.0
C360 C 0.09989 0.2946 0.78123 0.0
C361 C 0.09206 0.28599 0.90974 0.0
C362 C 0.1126 0.33349 0.97662 0.0
C363 C 0.12301 0.34198 0.85121 0.0
N364 N 0.13047 0.33025 0.63913 0.0
N365 N 0.0953 0.29743 0.13364 0.0
C366 C 0.11768 0.32242 0.75476 0.0
C367 C 0.09948 0.30551 0.00855 0.0
N368 N 0.08957 0.27636 0.68332 0.0
N369 N 0.11474 0.35214 0.06462 0.0
H370 H 0.08691 0.27728 0.16057 0.0
H371 H 0.10262 0.31077 0.2106 0.0
H372 H 0.12406 0.37272 0.0444 0.0
H373 H 0.10515 0.347 0.15327 0.0
H374 H 0.09204 0.28187 0.58702 0.0
H375 H 0.07636 0.25588 0.69787 0.0
H376 H 0.12977 0.31668 0.57064 0.0
H377 H 0.14377 0.35033 0.61574 0.0
C378 C 0.77169 0.81659 0.02935 0.0
C379 C 0.79098 0.8287 0.92978 0.0
C380 C 0.75432 0.81944 0.77768 0.0
C381 C 0.73496 0.80502 0.87389 0.0
N382 N 0.72491 0.78626 0.08682 0.0
N383 N 0.79979 0.83574 0.7029 0.0
C384 C 0.74357 0.80257 -0.00134 0.0
C385 C 0.78206 0.82859 0.80223 0.0
N386 N 0.78019 0.81934 0.15378 0.0
N387 N 0.74635 0.82505 0.66352 0.0
H388 H 0.81986 0.84107 0.71618 0.0
H389 H 0.794 0.83345 0.60693 0.0
H390 H 0.72623 0.81869 0.64128 0.0
H391 H 0.7599 0.8381 0.59561 0.0
H392 H 0.76714 0.81343 0.23172 0.0
H393 H 0.80054 0.82973 0.17993 0.0
H394 H 0.73002 0.78135 0.17473 0.0
H395 H 0.70423 0.77573 0.06768 0.0
C396 C 0.27353 0.99231 0.84175 0.0
C397 C 0.25156 0.98222 0.92917 0.0
C398 C 0.25308 0.94002 0.94812 0.0
C399 C 0.27645 0.95109 0.86945 0.0
N400 N 0.31188 0.98952 0.76051 0.0
N401 N 0.22288 0.94806 0.08039 0.0
C402 C 0.28759 0.97781 0.82233 0.0
C403 C 0.24204 0.9565 0.98661 0.0
N404 N 0.27997 1.01486 0.77083 0.0
N405 N 0.24075 0.91339 0.98187 0.0
H406 H 0.214 0.95929 0.10966 0.0
H407 H 0.21735 0.93101 0.13641 0.0
H408 H 0.24825 0.9007 0.95651 0.0
H409 H 0.22197 0.9033 0.02622 0.0
H410 H 0.29375 0.0214 0.69569 0.0
H411 H 0.26967 0.02561 0.77784 0.0
H412 H 0.32247 1.00988 0.73616 0.0
H413 H 0.32264 0.97946 0.74389 0.0
C414 C 0.44354 0.13481 0.16867 0.0
C415 C 0.45678 0.15936 0.2392 0.0
C416 C 0.41435 0.16071 0.2447 0.0
C417 C 0.40077 0.13521 0.18294 0.0
N418 N 0.40118 0.09558 0.10761 0.0
N419 N 0.45334 0.19257 0.36773 0.0
C420 C 0.41501 0.12154 0.15143 0.0
C421 C 0.44176 0.17146 0.28371 0.0
N422 N 0.4583 0.12479 0.11223 0.0
N423 N 0.40133 0.17509 0.26264 0.0
H424 H 0.47308 0.20053 0.40132 0.0
H425 H 0.44262 0.20044 0.41396 0.0
H426 H 0.38126 0.16789 0.23606 0.0
H427 H 0.41103 0.19503 0.29383 0.0
H428 H 0.45021 0.10885 0.04727 0.0
H429 H 0.47917 0.13384 0.12107 0.0
H430 H 0.40994 0.08347 0.09672 0.0
H431 H 0.38035 0.08529 0.09274 0.0
C432 C 0.91724 0.30889 0.13627 0.0
C433 C 0.918 0.31875 0.26215 0.0
C434 C 0.94644 0.29971 0.33072 0.0
C435 C 0.94268 0.28709 0.20926 0.0
N436 N 0.91981 0.27543 0.00473 0.0
N437 N 0.93055 0.32061 0.48423 0.0
C438 C 0.92673 0.29047 0.11442 0.0
C439 C 0.93197 0.31346 0.36085 0.0
N440 N 0.90879 0.3182 0.03563 0.0
N441 N 0.96435 0.29913 0.41607 0.0
H442 H 0.91998 0.33043 0.51003 0.0
H443 H 0.93788 0.31481 0.56239 0.0
H444 H 0.97527 0.28933 0.39698 0.0
H445 H 0.97011 0.31024 0.50067 0.0
H446 H 0.91036 0.31373 0.9404 0.0
H447 H 0.90322 0.3329 0.04558 0.0
H448 H 0.90576 0.27493 0.93912 0.0
H449 H 0.92604 0.26146 0.98496 0.0
C450 C 0.77849 0.66003 0.09196 0.0
C451 C 0.79473 0.67727 0.19203 0.0
C452 C 0.77496 0.63885 0.34222 0.0
C453 C 0.76067 0.62121 0.23922 0.0
N454 N 0.75141 0.61449 0.01256 0.0
N455 N 0.81091 0.68298 0.40947 0.0
C456 C 0.7632 0.63169 0.11313 0.0
C457 C 0.79355 0.66666 0.31672 0.0
N458 N 0.77697 0.6709 0.97744 0.0
N459 N 0.77058 0.62901 0.46456 0.0
H460 H 0.82448 0.70341 0.39463 0.0
H461 H 0.81328 0.67601 0.49805 0.0
H462 H 0.75789 0.60867 0.48593 0.0
H463 H 0.77801 0.64115 0.54555 0.0
H464 H 0.76321 0.65988 0.9055 0.0
H465 H 0.78785 0.69153 0.95815 0.0
H466 H 0.75527 0.62036 0.91695 0.0
H467 H 0.73923 0.59384 0.02443 0.0
C468 C 0.1047 0.48051 0.66255 0.0
C469 C 0.12381 0.4933 0.56291 0.0
C470 C 0.08677 0.48346 0.41208 0.0
C471 C 0.0677 0.46885 0.50925 0.0
N472 N 0.05821 0.44926 0.72041 0.0
N473 N 0.1327 0.50243 0.33668 0.0
C474 C 0.07661 0.46607 0.63253 0.0
C475 C 0.11475 0.49353 0.43588 0.0
N476 N 0.11326 0.48342 0.78692 0.0
N477 N 0.07825 0.48859 0.29825 0.0
H478 H 0.15333 0.51003 0.34904 0.0
H479 H 0.12691 0.50006 0.24074 0.0
H480 H 0.05794 0.48127 0.27613 0.0
H481 H 0.09136 0.50186 0.22973 0.0
H482 H 0.10021 0.47692 0.86493 0.0
H483 H 0.13352 0.49479 0.81314 0.0
H484 H 0.06361 0.44415 0.80705 0.0
H485 H 0.03751 0.43849 0.70181 0.0
C486 C 0.5882 0.64568 0.45528 0.0
C487 C 0.58592 0.65155 0.58521 0.0
C488 C 0.6086 0.62627 0.65105 0.0
C489 C 0.6073 0.61741 0.52261 0.0
N490 N 0.59215 0.61563 0.30488 0.0
N491 N 0.59339 0.64708 0.8088 0.0
C492 C 0.59609 0.6263 0.42536 0.0
C493 C 0.59613 0.64186 0.68379 0.0
N494 N 0.58435 0.65983 0.35993 0.0
N495 N 0.62245 0.62043 0.74079 0.0
H496 H 0.58579 0.6596 0.83528 0.0
H497 H 0.59731 0.63798 0.88611 0.0
H498 H 0.63175 0.60911 0.72005 0.0
H499 H 0.62658 0.62849 0.83283 0.0
H500 H 0.58824 0.65835 0.26375 0.0
H501 H 0.58047 0.67549 0.37878 0.0
H502 H 0.5813 0.61913 0.23426 0.0
H503 H 0.5976 0.60137 0.27862 0.0
C504 C 0.46953 0.9956 0.57805 0.0
C505 C 0.45714 1.01026 0.53188 0.0
C506 C 0.41295 0.96865 0.53421 0.0
C507 C 0.42517 0.95419 0.58707 0.0
N508 N 0.46385 0.95611 0.69177 0.0
N509 N 0.41653 1.01219 0.49299 0.0
C510 C 0.45313 0.96834 0.61836 0.0
C511 C 0.42867 0.9972 0.51842 0.0
N512 N 0.49704 1.00741 0.57964 0.0
N513 N 0.38677 0.9552 0.49246 0.0
H514 H 0.42739 0.03304 0.47977 0.0
H515 H 0.39572 1.00441 0.49667 0.0
H516 H 0.37415 0.93449 0.50111 0.0
H517 H 0.37807 0.96431 0.43877 0.0
H518 H 0.50715 0.99679 0.59832 0.0
H519 H 0.5098 0.02733 0.55163 0.0
H520 H 0.48344 0.96624 0.72828 0.0
H521 H 0.4523 0.93666 0.72835 0.0
C522 C 0.14973 0.07192 0.02577 0.0
C523 C 0.1752 0.0814 0.96522 0.0
C524 C 0.17574 0.1237 0.91161 0.0
C525 C 0.14883 0.11261 0.95623 0.0
N526 N 0.10863 0.07452 0.03949 0.0
N527 N 0.2107 0.11533 0.83306 0.0
C528 C 0.13536 0.08622 0.0086 0.0
C529 C 0.1878 0.10708 0.90383 0.0
N530 N 0.13989 0.05014 0.10594 0.0
N531 N 0.19016 0.15043 0.88007 0.0
H532 H 0.22049 0.10418 0.82356 0.0
H533 H 0.2187 0.13221 0.7737 0.0
H534 H 0.18214 0.16332 0.88468 0.0
H535 H 0.2108 0.16041 0.86118 0.0
H536 H 0.12271 0.04391 0.16188 0.0
H537 H 0.15046 0.04011 0.12805 0.0
H538 H 0.09697 0.05427 0.06457 0.0
H539 H 0.09752 0.08443 0.02936 0.0
C540 C 0.96575 0.06894 0.09543 0.0
C541 C 0.95781 0.05523 0.97598 0.0
C542 C 0.98018 0.09872 0.863 0.0
C543 C 0.98998 0.11234 0.9815 0.0
N544 N 0.99451 0.11063 0.21019 0.0
N545 N 0.96141 0.05657 0.7458 0.0
C546 C 0.98346 0.09747 0.09776 0.0
C547 C 0.96622 0.07002 0.85968 0.0
N548 N 0.95559 0.05478 0.20645 0.0
N549 N 0.98317 0.11321 0.75403 0.0
H550 H 0.95118 0.03558 0.73936 0.0
H551 H 0.9696 0.06612 0.65902 0.0
H552 H 0.99254 0.13416 0.75352 0.0
H553 H 0.9741 0.10452 0.66695 0.0
H554 H 0.95811 0.06378 0.29585 0.0
H555 H 0.94295 0.03391 0.20836 0.0
H556 H 0.99322 0.10086 0.29632 0.0
H557 H 1.00649 0.13155 0.21583 0.0
C558 C 0.97686 0.90284 0.84404 0.0
C559 C 0.96454 0.89793 0.96646 0.0
C560 C 1.00882 0.9146 0.06929 0.0
C561 C 1.0214 0.92165 0.94726 0.0
N562 N 1.01799 0.92659 0.7196 0.0
N563 N 0.96905 0.90372 0.19546 0.0
C564 C 1.00556 0.91688 0.83479 0.0
C565 C 0.98058 0.90503 0.07921 0.0
N566 N 0.96109 0.89353 0.73661 0.0
N567 N 1.02371 0.91634 0.17537 0.0
H568 H 0.9486 0.89738 0.2058 0.0
H569 H 0.98009 0.9112 0.27977 0.0
H570 H 0.04443 0.92343 0.17211 0.0
H571 H 1.0152 0.90871 0.26459 0.0
H572 H 0.9687 0.89383 0.64573 0.0
H573 H 0.94005 0.88341 0.73956 0.0
H574 H 1.00774 0.92637 0.63651 0.0
H575 H 0.03893 0.93704 0.70908 0.0
C576 C 0.80751 0.4288 0.31997 0.0
C577 C 0.82109 0.45413 0.25685 0.0
C578 C 0.85788 0.44547 0.19943 0.0
C579 C 0.84554 0.42135 0.2728 0.0
N580 N 0.81124 0.39283 0.42429 0.0
N581 N 0.86152 0.4889 0.15674 0.0
C582 C 0.82103 0.41372 0.33884 0.0
C583 C 0.84696 0.46313 0.20234 0.0
N584 N 0.78139 0.41874 0.35877 0.0
N585 N 0.87934 0.45101 0.12238 0.0
H586 H 0.85432 0.50249 0.1576 0.0
H587 H 0.88164 0.49758 0.12884 0.0
H588 H 0.88762 0.4384 0.11561 0.0
H589 H 0.88729 0.46671 0.05613 0.0
H590 H 0.76945 0.39913 0.39245 0.0
H591 H 0.77083 0.42917 0.34681 0.0
H592 H 0.79506 0.38815 0.48504 0.0
H593 H 0.82087 0.38175 0.44388 0.0
C594 C 0.63639 0.43466 0.18102 0.0
C595 C 0.65612 0.44698 0.27903 0.0
C596 C 0.64534 0.40208 0.35813 0.0
C597 C 0.62428 0.3898 0.26613 0.0
N598 N 0.59638 0.39448 0.10566 0.0
N599 N 0.67552 0.44251 0.47664 0.0
C600 C 0.61881 0.40614 0.18215 0.0
C601 C 0.6595 0.43069 0.37209 0.0
N602 N 0.63523 0.45001 0.08331 0.0
N603 N 0.65248 0.38647 0.42932 0.0
H604 H 0.68568 0.46328 0.49149 0.0
H605 H 0.67663 0.43169 0.55454 0.0
H606 H 0.64261 0.3655 0.42207 0.0
H607 H 0.66958 0.39439 0.48746 0.0
H608 H 0.62345 0.44189 0.00149 0.0
H609 H 0.6478 0.47084 0.07865 0.0
H610 H 0.58968 0.40549 0.05262 0.0
H611 H 0.58306 0.37373 0.10375 0.0
C612 C 0.64705 0.25666 0.38174 0.0
C613 C 0.63121 0.23373 0.30355 0.0
C614 C 0.67271 0.23531 0.22726 0.0
C615 C 0.68849 0.26003 0.29293 0.0
N616 N 0.69075 0.2963 0.4199 0.0
N617 N 0.62947 0.20432 0.13327 0.0
C618 C 0.67568 0.27128 0.36695 0.0
C619 C 0.64417 0.22379 0.22171 0.0
N620 N 0.63485 0.26387 0.47374 0.0
N621 N 0.68496 0.22244 0.17235 0.0
H622 H 0.6087 0.19586 0.12313 0.0
H623 H 0.63818 0.19851 0.06154 0.0
H624 H 0.7058 0.23014 0.17473 0.0
H625 H 0.67429 0.20297 0.13532 0.0
H626 H 0.64546 0.27865 0.54235 0.0
H627 H 0.61409 0.25325 0.48944 0.0
H628 H 0.68232 0.30686 0.4627 0.0
H629 H 0.71172 0.30748 0.41202 0.0
C630 C 0.48635 0.74365 0.67439 0.0
C631 C 0.51275 0.75329 0.6241 0.0
C632 C 0.5145 0.79607 0.56822 0.0
C633 C 0.48685 0.78477 0.60075 0.0
N634 N 0.44518 0.74618 0.66816 0.0
N635 N 0.55068 0.78806 0.50623 0.0
C636 C 0.4724 0.75808 0.64915 0.0
C637 C 0.52657 0.77941 0.56702 0.0
N638 N 0.47511 0.72152 0.75251 0.0
N639 N 0.52955 0.82302 0.54191 0.0
H640 H 0.56059 0.77696 0.50175 0.0
H641 H 0.55977 0.80535 0.44962 0.0
H642 H 0.52154 0.83594 0.54236 0.0
H643 H 0.55047 0.83304 0.53196 0.0
H644 H 0.45703 0.71511 0.80129 0.0
H645 H 0.48528 0.71142 0.7809 0.0
H646 H 0.43312 0.72579 0.68979 0.0
H647 H 0.43427 0.7561 0.65124 0.0
C648 C 0.31944 0.73489 0.52609 0.0
C649 C 0.2972 0.72119 0.60996 0.0
C650 C 0.30964 0.76426 0.71598 0.0
C651 C 0.32938 0.77853 0.61988 0.0
N652 N 0.34997 0.77661 0.41985 0.0
N653 N 0.26866 0.72332 0.77391 0.0
C654 C 0.33359 0.76362 0.52165 0.0
C655 C 0.29163 0.73601 0.70205 0.0
N656 N 0.32747 0.72042 0.45212 0.0
N657 N 0.30888 0.77728 0.82423 0.0
H658 H 0.25504 0.7027 0.76738 0.0
H659 H 0.26197 0.73365 0.83188 0.0
H660 H 0.32237 0.79756 0.84205 0.0
H661 H 0.29683 0.76729 0.90291 0.0
H662 H 0.34535 0.72926 0.39981 0.0
H663 H 0.31766 0.6994 0.45297 0.0
H664 H 0.35105 0.76659 0.33876 0.0
H665 H 0.36057 0.79744 0.40923 0.0
C666 C 0.33928 0.56824 0.54564 0.0
C667 C 0.35497 0.59098 0.62464 0.0
C668 C 0.31338 0.5856 0.72209 0.0
C669 C 0.29772 0.56484 0.63277 0.0
N670 N 0.29615 0.5398 0.44379 0.0
N671 N 0.35715 0.62367 0.77692 0.0
C672 C 0.31077 0.55697 0.54062 0.0
C673 C 0.34207 0.6003 0.71009 0.0
N674 N 0.35159 0.55696 0.47737 0.0
N675 N 0.30091 0.5906 0.82128 0.0
H676 H 0.37816 0.6348 0.77147 0.0
H677 H 0.34877 0.63314 0.82974 0.0
H678 H 0.28006 0.57985 0.83447 0.0
H679 H 0.31129 0.60353 0.89689 0.0
H680 H 0.34098 0.53864 0.42925 0.0
H681 H 0.37242 0.56458 0.47844 0.0
H682 H 0.30491 0.53579 0.36565 0.0
H683 H 0.27538 0.53156 0.43474 0.0
C684 C 0.04254 0.1784 0.54906 0.0
C685 C 0.03458 0.19581 0.60731 0.0
C686 C 0.04036 0.21944 0.40291 0.0
C687 C 0.04767 0.20162 0.34415 0.0
N688 N 0.05348 0.16263 0.35425 0.0
N689 N 1.02299 0.23099 0.58999 0.0
C690 C 0.04819 0.18068 0.41542 0.0
C691 C 1.03264 0.21579 0.53417 0.0
N692 N 0.04498 0.15987 0.62228 0.0
N693 N 0.04148 0.2403 0.33358 0.0
H694 H 1.0186 0.23008 0.68732 0.0
H695 H 1.01798 0.24362 0.53956 0.0
H696 H 0.04555 0.24261 0.23585 0.0
H697 H 0.03974 0.25609 0.37288 0.0
H698 H 0.05363 0.14859 0.59114 0.0
H699 H 0.0394 0.15657 0.71816 0.0
H700 H 0.05133 0.14513 0.39604 0.0
H701 H 0.05855 0.16413 0.25753 0.0
C702 C 0.88961 0.84878 0.53913 0.0
C703 C 0.87639 0.85936 0.61483 0.0
C704 C 0.86741 0.87859 0.42369 0.0
C705 C 0.88191 0.8694 0.34912 0.0
N706 N 0.91015 0.84914 0.33583 0.0
N707 N 0.85853 0.88963 0.63409 0.0
C708 C 0.89392 0.85537 0.40673 0.0
C709 C 0.86707 0.87588 0.5586 0.0
N710 N 0.89807 0.83245 0.59378 0.0
N711 N 0.85327 0.88923 0.36535 0.0
H712 H 0.85795 0.88804 0.73306 0.0
H713 H 0.85442 0.90436 0.59979 0.0
H714 H 0.8531 0.89176 0.26646 0.0
H715 H 0.83976 0.89331 0.41371 0.0
H716 H 0.90452 0.82121 0.54134 0.0
H717 H 0.89763 0.82914 0.69221 0.0
H718 H 0.92221 0.84197 0.37462 0.0
H719 H 0.91287 0.85276 0.23792 0.0
C720 C 0.20953 0.05291 0.52647 0.0
C721 C 0.21151 0.0341 0.60728 0.0
C722 C 0.21305 1.00929 0.42055 0.0
C723 C 0.21134 0.02819 0.33871 0.0
N724 N 0.21793 0.07334 0.31775 0.0
N725 N 0.20145 0.98797 0.6271 0.0
C726 C 0.21228 0.05155 0.39221 0.0
C727 C 0.20953 1.01043 0.55384 0.0
N728 N 0.20288 0.0708 0.57791 0.0
N729 N 0.2195 0.99107 0.37142 0.0
H730 H 0.19268 0.98619 0.71614 0.0
H731 H 0.19835 0.96966 0.59073 0.0
H732 H 0.22473 0.99145 0.27549 0.0
H733 H 0.22329 0.97832 0.42846 0.0
H734 H 0.1986 0.0835 0.52331 0.0
H735 H 0.19773 0.06994 0.67423 0.0
H736 H 0.22063 0.09149 0.35416 0.0
H737 H 0.22464 0.07514 0.22441 0.0
C738 C 0.68515 0.51645 0.70458 0.0
C739 C 0.711 0.5307 0.64708 0.0
C740 C 0.73162 0.54742 0.85676 0.0
C741 C 0.70556 0.53592 0.91246 0.0
N742 N 0.65706 0.51169 0.88736 0.0
N743 N 0.75849 0.56308 0.66387 0.0
C744 C 0.68216 0.52112 0.83565 0.0
C745 C 0.73414 0.54722 0.72182 0.0
N746 N 0.66365 0.49776 0.63531 0.0
N747 N 0.75402 0.55773 0.93274 0.0
H748 H 0.76136 0.56311 0.56523 0.0
H749 H 0.77533 0.57789 0.71223 0.0
H750 H 0.75284 0.55758 0.03173 0.0
H751 H 0.77335 0.5638 0.89867 0.0
H752 H 0.64497 0.48453 0.6754 0.0
H753 H 0.66514 0.49396 0.53913 0.0
H754 H 0.63946 0.50363 0.83272 0.0
H755 H 0.65386 0.51342 0.9843 0.0
C756 C 0.52338 0.17649 0.72065 0.0
C757 C 0.54147 0.20168 0.66402 0.0
C758 C 0.56548 0.21778 0.86927 0.0
C759 C 0.54723 0.19265 0.92605 0.0
N760 N 0.5129 0.14607 0.90096 0.0
N761 N 0.57706 0.24781 0.68609 0.0
C762 C 0.52727 0.17143 0.8504 0.0
C763 C 0.56186 0.22275 0.73878 0.0
N764 N 0.50167 0.15787 0.65198 0.0
N765 N 0.58716 0.2363 0.93845 0.0
H766 H 0.57516 0.25213 0.59082 0.0
H767 H 0.59022 0.26488 0.73805 0.0
H768 H 0.59075 0.23288 0.03261 0.0
H769 H 0.60286 0.25397 0.90048 0.0
H770 H 0.48602 0.14028 0.69086 0.0
H771 H 0.49802 0.16112 0.55765 0.0
H772 H 0.50018 0.12903 0.8476 0.0
H773 H 0.51553 0.14147 -0.00537 0.0
C774 C 0.85377 0.34762 0.7644 0.0
C775 C 0.87041 0.36695 0.6729 0.0
C776 C 0.90267 0.3931 0.84072 0.0
C777 C 0.88655 0.3735 0.93349 0.0
N778 N 0.85049 0.32744 0.96966 0.0
N779 N 0.90245 0.41416 0.6419 0.0
C780 C 0.86308 0.34945 0.89207 0.0
C781 C 0.89249 0.39153 0.71551 0.0
N782 N 0.82787 0.32889 0.73214 0.0
N783 N 0.92878 0.41198 0.86802 0.0
H784 H 0.89337 0.41486 0.55691 0.0
H785 H 0.91713 0.43309 0.67458 0.0
H786 H 0.93846 0.41167 0.95239 0.0
H787 H 0.94194 0.42521 0.7993 0.0
H788 H 0.81366 0.31603 0.79836 0.0
H789 H 0.81942 0.32898 0.64346 0.0
H790 H 0.83559 0.30861 0.93732 0.0
H791 H 0.85669 0.32665 0.06161 0.0
C792 C 0.38649 0.89109 0.18946 0.0
C793 C 0.37039 0.86564 0.25028 0.0
C794 C 0.3702 0.84271 0.051 0.0
C795 C 0.3846 0.86795 -0.01194 0.0
N796 N 0.40352 0.91617 -0.0088 0.0
N797 N 0.34151 0.8174 0.22765 0.0
C798 C 0.39216 0.89218 0.05592 0.0
C799 C 0.36049 0.84154 0.17743 0.0
N800 N 0.39581 0.91437 0.25814 0.0
N801 N 0.36726 0.81992 -0.00662 0.0
H802 H 0.33415 0.81517 0.3206 0.0
H803 H 0.33138 0.79986 0.17323 0.0
H804 H 0.37505 0.81998 0.9031 0.0
H805 H 0.35956 0.80145 0.0403 0.0
H806 H 0.41104 0.93306 0.22653 0.0
H807 H 0.38862 0.91498 0.3485 0.0
H808 H 0.40656 0.93419 0.0307 0.0
H809 H 0.40822 0.91788 0.89404 0.0
C810 C 0.22793 0.55456 0.06815 0.0
C811 C 0.20791 0.53297 -0.00565 0.0
C812 C 0.19276 0.50411 0.18553 0.0
C813 C 0.21369 0.52529 0.25749 0.0
N814 N 0.25423 0.56859 0.26449 0.0
N815 N 0.17309 0.48645 0.97689 0.0
C816 C 0.23213 0.54996 0.19803 0.0
C817 C 0.19085 0.5075 0.05145 0.0
N818 N 0.24261 0.57962 0.0148 0.0
N819 N 0.17436 0.48097 0.24613 0.0
H820 H 0.1705 0.48853 0.87964 0.0
H821 H 0.16221 0.46657 0.0083 0.0
H822 H 0.17548 0.4774 0.34335 0.0
H823 H 0.15683 0.46601 0.20313 0.0
H824 H 0.2552 0.59687 0.0673 0.0
H825 H 0.24091 0.58369 0.91888 0.0
H826 H 0.27006 0.5857 0.22299 0.0
H827 H 0.25793 0.56581 0.35954 0.0
C828 C 0.54731 0.72504 0.19416 0.0
C829 C 0.54657 0.70517 0.27729 0.0
C830 C 0.54258 0.67699 0.09385 0.0
C831 C 0.54445 0.69727 0.00867 0.0
N832 N 0.55705 0.74442 0.98344 0.0
N833 N 0.52848 0.65729 0.30248 0.0
C834 C 0.54905 0.72239 0.05988 0.0
C835 C 0.53993 0.67965 0.22674 0.0
N836 N 0.54394 0.7453 0.24343 0.0
N837 N 0.54493 0.65578 0.04913 0.0
H838 H 0.52179 0.6577 0.39419 0.0
H839 H 0.52143 0.63783 0.26754 0.0
H840 H 0.54924 0.65411 0.95387 0.0
H841 H 0.54619 0.64187 0.10937 0.0
H842 H 0.54158 0.75909 0.18741 0.0
H843 H 0.53925 0.74556 0.33962 0.0
H844 H 0.56273 0.76358 0.01853 0.0
H845 H 0.56244 0.74493 0.88883 0.0
loop_
_geom_bond_atom_site_label_1
_geom_bond_atom_site_label_2
_geom_bond_distance
_geom_bond_site_symmetry_2
_ccdc_geom_bond_type
C0 Eu1 2.835 1_556 S
C0 C2 1.500 . S
C0 O20 1.257 . S
C0 O21 1.260 1_556 S
Eu1 C0 2.835 1_554 S
Eu1 O20 2.473 1_554 S
Eu1 O21 2.480 . S
Eu1 O22 2.430 . S
Eu1 O23 2.670 . S
Eu1 O24 2.394 . S
Eu1 O29 2.355 1_554 S
Eu1 O31 2.374 1_554 S
C2 C0 1.500 . S
C2 C3 1.377 1_556 S
C2 C7 1.377 . S
C3 C2 1.377 1_554 S
C3 C4 1.395 . S
C3 H32 0.931 . S
C4 C3 1.395 . S
C4 C5 1.383 1_554 S
C4 H33 0.931 . S
C5 C4 1.383 1_556 S
C5 C6 1.394 . S
C6 C5 1.394 . S
C6 C7 1.378 . S
C6 H34 0.931 . S
C7 C2 1.377 . S
C7 C6 1.378 . S
C7 H35 0.931 . S
C8 O22 1.259 . S
C8 O23 1.270 . S
C9 O24 1.251 1_655 S
C9 O25 1.251 . S
C10 Eu11 2.835 1_554 S
C10 C12 1.500 . S
C10 O26 1.257 . S
C10 O27 1.260 1_554 S
Eu11 C10 2.835 1_556 S
Eu11 O23 2.355 1_656 S
Eu11 O25 2.374 1_556 S
Eu11 O26 2.473 1_556 S
Eu11 O27 2.480 . S
Eu11 O28 2.430 . S
Eu11 O29 2.670 1_655 S
Eu11 O30 2.394 1_655 S
C12 C10 1.500 . S
C12 C13 1.377 1_554 S
C12 C17 1.377 . S
C13 C12 1.377 1_556 S
C13 C14 1.395 . S
C13 H36 0.931 . S
C14 C13 1.395 . S
C14 C15 1.383 1_556 S
C14 H37 0.931 . S
C15 C14 1.383 1_554 S
C15 C16 1.394 . S
C16 C15 1.394 . S
C16 C17 1.378 . S
C16 H38 0.931 . S
C17 C12 1.377 . S
C17 C16 1.378 . S
C17 H39 0.931 . S
C18 O28 1.259 1_455 S
C18 O29 1.270 . S
C19 O30 1.251 . S
C19 O31 1.251 . S
O20 C0 1.257 . S
O20 Eu1 2.473 1_556 S
O21 C0 1.260 1_554 S
O21 Eu1 2.480 . S
O22 Eu1 2.430 . S
O22 C8 1.259 . S
O23 Eu1 2.670 . S
O23 C8 1.270 . S
O23 Eu11 2.355 1_454 S
O24 Eu1 2.394 . S
O24 C9 1.251 1_455 S
O25 C9 1.251 . S
O25 Eu11 2.374 1_554 S
O26 C10 1.257 . S
O26 Eu11 2.473 1_554 S
O27 C10 1.260 1_556 S
O27 Eu11 2.480 . S
O28 Eu11 2.430 . S
O28 C18 1.259 1_655 S
O29 Eu1 2.355 1_556 S
O29 Eu11 2.670 1_455 S
O29 C18 1.270 . S
O30 Eu11 2.394 1_455 S
O30 C19 1.251 . S
O31 Eu1 2.374 1_556 S
O31 C19 1.251 . S
H32 C3 0.931 . S
H33 C4 0.931 . S
H34 C6 0.931 . S
H35 C7 0.931 . S
H36 C13 0.931 . S
H37 C14 0.931 . S
H38 C16 0.931 . S
H39 C17 0.931 . S
C40 Eu41 2.835 1_556 S
C40 C42 1.500 . S
C40 O60 1.257 . S
C40 O61 1.260 1_556 S
Eu41 C40 2.835 1_554 S
Eu41 O60 2.473 1_554 S
Eu41 O61 2.480 . S
Eu41 O62 2.430 . S
Eu41 O63 2.670 . S
Eu41 O64 2.394 . S
Eu41 O69 2.355 1_554 S
Eu41 O71 2.374 1_554 S
C42 C40 1.500 . S
C42 C43 1.377 1_556 S
C42 C47 1.377 . S
C43 C42 1.377 1_554 S
C43 C44 1.395 1_565 S
C43 H72 0.931 . S
C44 C43 1.395 1_545 S
C44 C45 1.383 1_554 S
C44 H73 0.931 . S
C45 C44 1.383 1_556 S
C45 C46 1.394 1_545 S
C46 C45 1.394 1_565 S
C46 C47 1.378 . S
C46 H74 0.931 . S
C47 C42 1.377 . S
C47 C46 1.378 . S
C47 H75 0.931 . S
C48 O62 1.259 . S
C48 O63 1.270 . S
C49 O64 1.251 . S
C49 O65 1.251 . S
C50 Eu51 2.835 1_554 S
C50 C52 1.500 . S
C50 O66 1.257 . S
C50 O67 1.260 1_554 S
Eu51 C50 2.835 1_556 S
Eu51 O63 2.355 1_556 S
Eu51 O65 2.374 1_556 S
Eu51 O66 2.473 1_556 S
Eu51 O67 2.480 . S
Eu51 O68 2.430 . S
Eu51 O69 2.670 . S
Eu51 O70 2.394 . S
C52 C50 1.500 . S
C52 C53 1.377 1_554 S
C52 C57 1.377 . S
C53 C52 1.377 1_556 S
C53 C54 1.395 . S
C53 H76 0.931 . S
C54 C53 1.395 . S
C54 C55 1.383 1_556 S
C54 H77 0.931 . S
C55 C54 1.383 1_554 S
C55 C56 1.394 . S
C56 C55 1.394 . S
C56 C57 1.378 . S
C56 H78 0.931 . S
C57 C52 1.377 . S
C57 C56 1.378 . S
C57 H79 0.931 . S
C58 O68 1.259 . S
C58 O69 1.270 . S
C59 O70 1.251 . S
C59 O71 1.251 . S
O60 C40 1.257 . S
O60 Eu41 2.473 1_556 S
O61 C40 1.260 1_554 S
O61 Eu41 2.480 . S
O62 Eu41 2.430 . S
O62 C48 1.259 . S
O63 Eu41 2.670 . S
O63 C48 1.270 . S
O63 Eu51 2.355 1_554 S
O64 Eu41 2.394 . S
O64 C49 1.251 . S
O65 C49 1.251 . S
O65 Eu51 2.374 1_554 S
O66 C50 1.257 . S
O66 Eu51 2.473 1_554 S
O67 C50 1.260 1_556 S
O67 Eu51 2.480 . S
O68 Eu51 2.430 . S
O68 C58 1.259 . S
O69 Eu41 2.355 1_556 S
O69 Eu51 2.670 . S
O69 C58 1.270 . S
O70 Eu51 2.394 . S
O70 C59 1.251 . S
O71 Eu41 2.374 1_556 S
O71 C59 1.251 . S
H72 C43 0.931 . S
H73 C44 0.931 . S
H74 C46 0.931 . S
H75 C47 0.931 . S
H76 C53 0.931 . S
H77 C54 0.931 . S
H78 C56 0.931 . S
H79 C57 0.931 . S
C80 Eu81 2.835 1_556 S
C80 C82 1.500 . S
C80 O100 1.257 . S
C80 O101 1.260 1_556 S
Eu81 C80 2.835 1_554 S
Eu81 O100 2.473 1_554 S
Eu81 O101 2.480 . S
Eu81 O102 2.430 . S
Eu81 O103 2.670 1_565 S
Eu81 O104 2.394 1_565 S
Eu81 O109 2.355 1_564 S
Eu81 O111 2.374 1_554 S
C82 C80 1.500 . S
C82 C83 1.377 1_556 S
C82 C87 1.377 . S
C83 C82 1.377 1_554 S
C83 C84 1.395 . S
C83 H112 0.931 . S
C84 C83 1.395 . S
C84 C85 1.383 1_554 S
C84 H113 0.931 . S
C85 C84 1.383 1_556 S
C85 C86 1.394 . S
C86 C85 1.394 . S
C86 C87 1.378 . S
C86 H114 0.931 . S
C87 C82 1.377 . S
C87 C86 1.378 . S
C87 H115 0.931 . S
C88 O102 1.259 1_545 S
C88 O103 1.270 . S
C89 O104 1.251 . S
C89 O105 1.251 . S
C90 Eu91 2.835 1_554 S
C90 C92 1.500 . S
C90 O106 1.257 . S
C90 O107 1.260 1_554 S
Eu91 C90 2.835 1_556 S
Eu91 O103 2.355 1_556 S
Eu91 O105 2.374 1_556 S
Eu91 O106 2.473 1_556 S
Eu91 O107 2.480 . S
Eu91 O108 2.430 . S
Eu91 O109 2.670 . S
Eu91 O110 2.394 . S
C92 C90 1.500 . S
C92 C93 1.377 1_554 S
C92 C97 1.377 . S
C93 C92 1.377 1_556 S
C93 C94 1.395 . S
C93 H116 0.931 . S
C94 C93 1.395 . S
C94 C95 1.383 1_556 S
C94 H117 0.931 . S
C95 C94 1.383 1_554 S
C95 C96 1.394 . S
C96 C95 1.394 . S
C96 C97 1.378 . S
C96 H118 0.931 . S
C97 C92 1.377 . S
C97 C96 1.378 . S
C97 H119 0.931 . S
C98 O108 1.259 . S
C98 O109 1.270 . S
C99 O110 1.251 1_565 S
C99 O111 1.251 . S
O100 C80 1.257 . S
O100 Eu81 2.473 1_556 S
O101 C80 1.260 1_554 S
O101 Eu81 2.480 . S
O102 Eu81 2.430 . S
O102 C88 1.259 1_565 S
O103 Eu81 2.670 1_545 S
O103 C88 1.270 . S
O103 Eu91 2.355 1_554 S
O104 Eu81 2.394 1_545 S
O104 C89 1.251 . S
O105 C89 1.251 . S
O105 Eu91 2.374 1_554 S
O106 C90 1.257 . S
O106 Eu91 2.473 1_554 S
O107 C90 1.260 1_556 S
O107 Eu91 2.480 . S
O108 Eu91 2.430 . S
O108 C98 1.259 . S
O109 Eu81 2.355 1_546 S
O109 Eu91 2.670 . S
O109 C98 1.270 . S
O110 Eu91 2.394 . S
O110 C99 1.251 1_545 S
O111 Eu81 2.374 1_556 S
O111 C99 1.251 . S
H112 C83 0.931 . S
H113 C84 0.931 . S
H114 C86 0.931 . S
H115 C87 0.931 . S
H116 C93 0.931 . S
H117 C94 0.931 . S
H118 C96 0.931 . S
H119 C97 0.931 . S
C120 Eu121 2.835 . S
C120 C122 1.500 . S
C120 O140 1.257 . S
C120 O141 1.260 . S
Eu121 C120 2.835 . S
Eu121 O140 2.473 . S
Eu121 O141 2.480 . S
Eu121 O142 2.430 . S
Eu121 O143 2.670 . S
Eu121 O144 2.394 . S
Eu121 O149 2.355 . S
Eu121 O151 2.374 . S
C122 C120 1.500 . S
C122 C123 1.377 . S
C122 C127 1.377 . S
C123 C122 1.377 . S
C123 C124 1.395 . S
C123 H152 0.931 . S
C124 C123 1.395 . S
C124 C125 1.383 . S
C124 H153 0.931 . S
C125 C124 1.383 . S
C125 C126 1.394 . S
C126 C125 1.394 . S
C126 C127 1.378 . S
C126 H154 0.931 . S
C127 C122 1.377 . S
C127 C126 1.378 . S
C127 H155 0.931 . S
C128 O142 1.259 . S
C128 O143 1.270 . S
C129 O144 1.251 . S
C129 O145 1.251 . S
C130 Eu131 2.835 . S
C130 C132 1.500 . S
C130 O146 1.257 . S
C130 O147 1.260 . S
Eu131 C130 2.835 . S
Eu131 O143 2.355 . S
Eu131 O145 2.374 . S
Eu131 O146 2.473 . S
Eu131 O147 2.480 . S
Eu131 O148 2.430 . S
Eu131 O149 2.670 . S
Eu131 O150 2.394 . S
C132 C130 1.500 . S
C132 C133 1.377 . S
C132 C137 1.377 . S
C133 C132 1.377 . S
C133 C134 1.395 . S
C133 H156 0.931 . S
C134 C133 1.395 . S
C134 C135 1.383 . S
C134 H157 0.931 . S
C135 C134 1.383 . S
C135 C136 1.394 . S
C136 C135 1.394 . S
C136 C137 1.378 . S
C136 H158 0.931 . S
C137 C132 1.377 . S
C137 C136 1.378 . S
C137 H159 0.931 . S
C138 O148 1.259 . S
C138 O149 1.270 . S
C139 O150 1.251 . S
C139 O151 1.251 . S
O140 C120 1.257 . S
O140 Eu121 2.473 . S
O141 C120 1.260 . S
O141 Eu121 2.480 . S
O142 Eu121 2.430 . S
O142 C128 1.259 . S
O143 Eu121 2.670 . S
O143 C128 1.270 . S
O143 Eu131 2.355 . S
O144 Eu121 2.394 . S
O144 C129 1.251 . S
O145 C129 1.251 . S
O145 Eu131 2.374 . S
O146 C130 1.257 . S
O146 Eu131 2.473 . S
O147 C130 1.260 . S
O147 Eu131 2.480 . S
O148 Eu131 2.430 . S
O148 C138 1.259 . S
O149 Eu121 2.355 . S
O149 Eu131 2.670 . S
O149 C138 1.270 . S
O150 Eu131 2.394 . S
O150 C139 1.251 . S
O151 Eu121 2.374 . S
O151 C139 1.251 . S
H152 C123 0.931 . S
H153 C124 0.931 . S
H154 C126 0.931 . S
H155 C127 0.931 . S
H156 C133 0.931 . S
H157 C134 0.931 . S
H158 C136 0.931 . S
H159 C137 0.931 . S
C160 Eu161 2.835 . S
C160 C162 1.500 . S
C160 O180 1.257 . S
C160 O181 1.260 . S
Eu161 C160 2.835 . S
Eu161 O180 2.473 . S
Eu161 O181 2.480 . S
Eu161 O182 2.430 . S
Eu161 O183 2.670 . S
Eu161 O184 2.394 . S
Eu161 O189 2.355 . S
Eu161 O191 2.374 . S
C162 C160 1.500 . S
C162 C163 1.377 . S
C162 C167 1.377 . S
C163 C162 1.377 . S
C163 C164 1.395 . S
C163 H192 0.931 . S
C164 C163 1.395 . S
C164 C165 1.383 . S
C164 H193 0.931 . S
C165 C164 1.383 . S
C165 C166 1.394 . S
C166 C165 1.394 . S
C166 C167 1.378 . S
C166 H194 0.931 . S
C167 C162 1.377 . S
C167 C166 1.378 . S
C167 H195 0.931 . S
C168 O182 1.259 . S
C168 O183 1.270 . S
C169 O184 1.251 . S
C169 O185 1.251 . S
C170 Eu171 2.835 . S
C170 C172 1.500 . S
C170 O186 1.257 . S
C170 O187 1.260 . S
Eu171 C170 2.835 . S
Eu171 O183 2.355 . S
Eu171 O185 2.374 . S
Eu171 O186 2.473 . S
Eu171 O187 2.480 . S
Eu171 O188 2.430 . S
Eu171 O189 2.670 . S
Eu171 O190 2.394 . S
C172 C170 1.500 . S
C172 C173 1.377 . S
C172 C177 1.377 . S
C173 C172 1.377 . S
C173 C174 1.395 . S
C173 H196 0.931 . S
C174 C173 1.395 . S
C174 C175 1.383 . S
C174 H197 0.931 . S
C175 C174 1.383 . S
C175 C176 1.394 . S
C176 C175 1.394 . S
C176 C177 1.378 . S
C176 H198 0.931 . S
C177 C172 1.377 . S
C177 C176 1.378 . S
C177 H199 0.931 . S
C178 O188 1.259 . S
C178 O189 1.270 . S
C179 O190 1.251 . S
C179 O191 1.251 . S
O180 C160 1.257 . S
O180 Eu161 2.473 . S
O181 C160 1.260 . S
O181 Eu161 2.480 . S
O182 Eu161 2.430 . S
O182 C168 1.259 . S
O183 Eu161 2.670 . S
O183 C168 1.270 . S
O183 Eu171 2.355 . S
O184 Eu161 2.394 . S
O184 C169 1.251 . S
O185 C169 1.251 . S
O185 Eu171 2.374 . S
O186 C170 1.257 . S
O186 Eu171 2.473 . S
O187 C170 1.260 . S
O187 Eu171 2.480 . S
O188 Eu171 2.430 . S
O188 C178 1.259 . S
O189 Eu161 2.355 . S
O189 Eu171 2.670 . S
O189 C178 1.270 . S
O190 Eu171 2.394 . S
O190 C179 1.251 . S
O191 Eu161 2.374 . S
O191 C179 1.251 . S
H192 C163 0.931 . S
H193 C164 0.931 . S
H194 C166 0.931 . S
H195 C167 0.931 . S
H196 C173 0.931 . S
H197 C174 0.931 . S
H198 C176 0.931 . S
H199 C177 0.931 . S
C200 Eu201 2.835 . S
C200 C202 1.500 . S
C200 O220 1.257 . S
C200 O221 1.260 . S
Eu201 C200 2.835 . S
Eu201 O220 2.473 . S
Eu201 O221 2.480 . S
Eu201 O222 2.430 . S
Eu201 O223 2.670 . S
Eu201 O224 2.394 . S
Eu201 O229 2.355 . S
Eu201 O231 2.374 . S
C202 C200 1.500 . S
C202 C203 1.377 . S
C202 C207 1.377 . S
C203 C202 1.377 . S
C203 C204 1.395 . S
C203 H232 0.931 . S
C204 C203 1.395 . S
C204 C205 1.383 . S
C204 H233 0.931 . S
C205 C204 1.383 . S
C205 C206 1.394 . S
C206 C205 1.394 . S
C206 C207 1.378 . S
C206 H234 0.931 . S
C207 C202 1.377 . S
C207 C206 1.378 . S
C207 H235 0.931 . S
C208 O222 1.259 . S
C208 O223 1.270 . S
C209 O224 1.251 . S
C209 O225 1.251 . S
C210 Eu211 2.835 . S
C210 C212 1.500 . S
C210 O226 1.257 . S
C210 O227 1.260 . S
Eu211 C210 2.835 . S
Eu211 O223 2.355 . S
Eu211 O225 2.374 . S
Eu211 O226 2.473 . S
Eu211 O227 2.480 . S
Eu211 O228 2.430 . S
Eu211 O229 2.670 . S
Eu211 O230 2.394 . S
C212 C210 1.500 . S
C212 C213 1.377 . S
C212 C217 1.377 . S
C213 C212 1.377 . S
C213 C214 1.395 1_655 S
C213 H236 0.931 . S
C214 C213 1.395 1_455 S
C214 C215 1.383 . S
C214 H237 0.931 . S
C215 C214 1.383 . S
C215 C216 1.394 1_455 S
C216 C215 1.394 1_655 S
C216 C217 1.378 . S
C216 H238 0.952 . S
C217 C212 1.377 . S
C217 C216 1.378 . S
C217 H239 0.931 . S
C218 O228 1.259 . S
C218 O229 1.270 . S
C219 O230 1.251 . S
C219 O231 1.251 . S
O220 C200 1.257 . S
O220 Eu201 2.473 . S
O221 C200 1.260 . S
O221 Eu201 2.480 . S
O222 Eu201 2.430 . S
O222 C208 1.259 . S
O223 Eu201 2.670 . S
O223 C208 1.270 . S
O223 Eu211 2.355 . S
O224 Eu201 2.394 . S
O224 C209 1.251 . S
O225 C209 1.251 . S
O225 Eu211 2.374 . S
O226 C210 1.257 . S
O226 Eu211 2.473 . S
O227 C210 1.260 . S
O227 Eu211 2.480 . S
O228 Eu211 2.430 . S
O228 C218 1.259 . S
O229 Eu201 2.355 . S
O229 Eu211 2.670 . S
O229 C218 1.270 . S
O230 Eu211 2.394 . S
O230 C219 1.251 . S
O231 Eu201 2.374 . S
O231 C219 1.251 . S
H232 C203 0.931 . S
H233 C204 0.931 . S
H234 C206 0.931 . S
H235 C207 0.931 . S
H236 C213 0.931 . S
H237 C214 0.931 . S
H238 C216 0.952 . S
H239 C217 0.931 . S
C240 Eu241 2.835 . S
C240 C242 1.500 . S
C240 O260 1.257 . S
C240 O261 1.260 . S
Eu241 C240 2.835 . S
Eu241 O260 2.473 . S
Eu241 O261 2.480 . S
Eu241 O262 2.430 . S
Eu241 O263 2.670 . S
Eu241 O264 2.394 . S
Eu241 O269 2.355 . S
Eu241 O271 2.374 . S
C242 C240 1.500 . S
C242 C243 1.377 . S
C242 C247 1.377 . S
C243 C242 1.377 . S
C243 C244 1.395 . S
C243 H272 0.931 . S
C244 C243 1.395 . S
C244 C245 1.383 . S
C244 H273 0.931 . S
C245 C244 1.383 . S
C245 C246 1.394 . S
C246 C245 1.394 . S
C246 C247 1.378 . S
C246 H274 0.931 . S
C247 C242 1.377 . S
C247 C246 1.378 . S
C247 H275 0.931 . S
C248 O262 1.259 . S
C248 O263 1.270 . S
C249 O264 1.251 . S
C249 O265 1.251 . S
C250 Eu251 2.835 . S
C250 C252 1.500 . S
C250 O266 1.257 . S
C250 O267 1.260 . S
Eu251 C250 2.835 . S
Eu251 O263 2.355 . S
Eu251 O265 2.374 . S
Eu251 O266 2.473 . S
Eu251 O267 2.480 . S
Eu251 O268 2.430 . S
Eu251 O269 2.670 . S
Eu251 O270 2.394 . S
C252 C250 1.500 . S
C252 C253 1.377 . S
C252 C257 1.377 . S
C253 C252 1.377 . S
C253 C254 1.395 . S
C253 H276 0.931 . S
C254 C253 1.395 . S
C254 C255 1.383 . S
C254 H277 0.931 . S
C255 C254 1.383 . S
C255 C256 1.394 . S
C256 C255 1.394 . S
C256 C257 1.378 . S
C256 H278 0.931 . S
C257 C252 1.377 . S
C257 C256 1.378 . S
C257 H279 0.931 . S
C258 O268 1.259 . S
C258 O269 1.270 . S
C259 O270 1.251 . S
C259 O271 1.251 . S
O260 C240 1.257 . S
O260 Eu241 2.473 . S
O261 C240 1.260 . S
O261 Eu241 2.480 . S
O262 Eu241 2.430 . S
O262 C248 1.259 . S
O263 Eu241 2.670 . S
O263 C248 1.270 . S
O263 Eu251 2.355 . S
O264 Eu241 2.394 . S
O264 C249 1.251 . S
O265 C249 1.251 . S
O265 Eu251 2.374 . S
O266 C250 1.257 . S
O266 Eu251 2.473 . S
O267 C250 1.260 . S
O267 Eu251 2.480 . S
O268 Eu251 2.430 . S
O268 C258 1.259 . S
O269 Eu241 2.355 . S
O269 Eu251 2.670 . S
O269 C258 1.270 . S
O270 Eu251 2.394 . S
O270 C259 1.251 . S
O271 Eu241 2.374 . S
O271 C259 1.251 . S
H272 C243 0.931 . S
H273 C244 0.931 . S
H274 C246 0.931 . S
H275 C247 0.931 . S
H276 C253 0.931 . S
H277 C254 0.931 . S
H278 C256 0.931 . S
H279 C257 0.931 . S
C280 Eu281 2.835 . S
C280 C282 1.500 . S
C280 O300 1.257 . S
C280 O301 1.260 . S
Eu281 C280 2.835 . S
Eu281 O300 2.473 . S
Eu281 O301 2.480 . S
Eu281 O302 2.430 . S
Eu281 O303 2.670 . S
Eu281 O304 2.394 . S
Eu281 O309 2.355 . S
Eu281 O311 2.374 . S
C282 C280 1.500 . S
C282 C283 1.377 . S
C282 C287 1.377 . S
C283 C282 1.377 . S
C283 C284 1.395 . S
C283 H312 0.931 . S
C284 C283 1.395 . S
C284 C285 1.383 . S
C284 H313 0.931 . S
C285 C284 1.383 . S
C285 C286 1.394 . S
C286 C285 1.394 . S
C286 C287 1.378 . S
C286 H314 0.931 . S
C287 C282 1.377 . S
C287 C286 1.378 . S
C287 H315 0.931 . S
C288 O302 1.259 . S
C288 O303 1.270 . S
C289 O304 1.251 . S
C289 O305 1.251 . S
C290 Eu291 2.835 . S
C290 C292 1.500 . S
C290 O306 1.257 . S
C290 O307 1.260 . S
Eu291 C290 2.835 . S
Eu291 O303 2.355 . S
Eu291 O305 2.374 . S
Eu291 O306 2.473 . S
Eu291 O307 2.480 . S
Eu291 O308 2.430 . S
Eu291 O309 2.670 . S
Eu291 O310 2.394 . S
C292 C290 1.500 . S
C292 C293 1.377 . S
C292 C297 1.377 . S
C293 C292 1.377 . S
C293 C294 1.395 . S
C293 H316 0.931 . S
C294 C293 1.395 . S
C294 C295 1.383 . S
C294 H317 0.931 . S
C295 C294 1.383 . S
C295 C296 1.394 . S
C296 C295 1.394 . S
C296 C297 1.378 . S
C296 H318 0.931 . S
C297 C292 1.377 . S
C297 C296 1.378 . S
C297 H319 0.931 . S
C298 O308 1.259 . S
C298 O309 1.270 . S
C299 O310 1.251 . S
C299 O311 1.251 . S
O300 C280 1.257 . S
O300 Eu281 2.473 . S
O301 C280 1.260 . S
O301 Eu281 2.480 . S
O302 Eu281 2.430 . S
O302 C288 1.259 . S
O303 Eu281 2.670 . S
O303 C288 1.270 . S
O303 Eu291 2.355 . S
O304 Eu281 2.394 . S
O304 C289 1.251 . S
O305 C289 1.251 . S
O305 Eu291 2.374 . S
O306 C290 1.257 . S
O306 Eu291 2.473 . S
O307 C290 1.260 . S
O307 Eu291 2.480 . S
O308 Eu291 2.430 . S
O308 C298 1.259 . S
O309 Eu281 2.355 . S
O309 Eu291 2.670 . S
O309 C298 1.270 . S
O310 Eu291 2.394 . S
O310 C299 1.251 . S
O311 Eu281 2.374 . S
O311 C299 1.251 . S
H312 C283 0.931 . S
H313 C284 0.931 . S
H314 C286 0.931 . S
H315 C287 0.931 . S
H316 C293 0.931 . S
H317 C294 0.931 . S
H318 C296 0.931 . S
H319 C297 0.931 . S
C320 Eu321 2.835 . S
C320 C322 1.500 . S
C320 O340 1.257 . S
C320 O341 1.260 . S
Eu321 C320 2.835 . S
Eu321 O340 2.473 . S
Eu321 O341 2.480 . S
Eu321 O342 2.430 . S
Eu321 O343 2.670 . S
Eu321 O344 2.394 . S
Eu321 O349 2.355 . S
Eu321 O351 2.374 . S
C322 C320 1.500 . S
C322 C323 1.377 . S
C322 C327 1.377 . S
C323 C322 1.377 . S
C323 C324 1.395 . S
C323 H352 0.931 . S
C324 C323 1.395 . S
C324 C325 1.383 . S
C324 H353 0.931 . S
C325 C324 1.383 . S
C325 C326 1.394 . S
C326 C325 1.394 . S
C326 C327 1.378 . S
C326 H354 0.931 . S
C327 C322 1.377 . S
C327 C326 1.378 . S
C327 H355 0.931 . S
C328 O342 1.259 . S
C328 O343 1.270 . S
C329 O344 1.251 . S
C329 O345 1.251 . S
C330 Eu331 2.835 . S
C330 C332 1.500 . S
C330 O346 1.257 . S
C330 O347 1.260 . S
Eu331 C330 2.835 . S
Eu331 O343 2.355 . S
Eu331 O345 2.374 . S
Eu331 O346 2.473 . S
Eu331 O347 2.480 . S
Eu331 O348 2.430 . S
Eu331 O349 2.670 . S
Eu331 O350 2.394 . S
C332 C330 1.500 . S
C332 C333 1.377 . S
C332 C337 1.377 . S
C333 C332 1.377 . S
C333 C334 1.395 . S
C333 H356 0.931 . S
C334 C333 1.395 . S
C334 C335 1.383 . S
C334 H357 0.931 . S
C335 C334 1.383 . S
C335 C336 1.394 . S
C336 C335 1.394 . S
C336 C337 1.378 . S
C336 H358 0.931 . S
C337 C332 1.377 . S
C337 C336 1.378 . S
C337 H359 0.931 . S
C338 O348 1.259 . S
C338 O349 1.270 . S
C339 O350 1.251 . S
C339 O351 1.251 . S
O340 C320 1.257 . S
O340 Eu321 2.473 . S
O341 C320 1.260 . S
O341 Eu321 2.480 . S
O342 Eu321 2.430 . S
O342 C328 1.259 . S
O343 Eu321 2.670 . S
O343 C328 1.270 . S
O343 Eu331 2.355 . S
O344 Eu321 2.394 . S
O344 C329 1.251 . S
O345 C329 1.251 . S
O345 Eu331 2.374 . S
O346 C330 1.257 . S
O346 Eu331 2.473 . S
O347 C330 1.260 . S
O347 Eu331 2.480 . S
O348 Eu331 2.430 . S
O348 C338 1.259 . S
O349 Eu321 2.355 . S
O349 Eu331 2.670 . S
O349 C338 1.270 . S
O350 Eu331 2.394 . S
O350 C339 1.251 . S
O351 Eu321 2.374 . S
O351 C339 1.251 . S
H352 C323 0.931 . S
H353 C324 0.931 . S
H354 C326 0.931 . S
H355 C327 0.931 . S
H356 C333 0.931 . S
H357 C334 0.931 . S
H358 C336 0.931 . S
H359 C337 0.931 . S
C360 C361 1.363 . S
C360 C366 1.379 . S
C360 N368 1.356 . S
C361 C360 1.363 . S
C361 C367 1.363 . S
C362 C363 1.363 . S
C362 C367 1.379 . S
C362 N369 1.356 . S
C363 C362 1.363 . S
C363 C366 1.363 . S
N364 C366 1.356 . S
N364 H376 0.984 . S
N364 H377 0.985 . S
N365 C367 1.356 1_554 S
N365 H370 0.984 . S
N365 H371 0.985 . S
C366 C360 1.379 . S
C366 C363 1.363 . S
C366 N364 1.356 . S
C367 C361 1.363 . S
C367 C362 1.379 . S
C367 N365 1.356 1_556 S
N368 C360 1.356 . S
N368 H374 0.984 . S
N368 H375 0.984 . S
N369 C362 1.356 . S
N369 H372 0.984 . S
N369 H373 0.985 1_556 S
H370 N365 0.984 . S
H371 N365 0.985 . S
H372 N369 0.984 . S
H373 N369 0.985 1_554 S
H374 N368 0.984 . S
H375 N368 0.984 . S
H376 N364 0.984 . S
H377 N364 0.985 . S
C378 C379 1.363 . S
C378 C384 1.379 . S
C378 N386 1.356 1_556 S
C379 C378 1.363 . S
C379 C385 1.363 . S
C380 C381 1.363 . S
C380 C385 1.379 . S
C380 N387 1.356 . S
C381 C380 1.363 . S
C381 C384 1.363 . S
N382 C384 1.356 . S
N382 H394 0.984 . S
N382 H395 0.985 . S
N383 C385 1.356 . S
N383 H388 0.984 . S
N383 H389 0.985 . S
C384 C378 1.379 . S
C384 C381 1.363 . S
C384 N382 1.356 . S
C385 C379 1.363 . S
C385 C380 1.379 . S
C385 N383 1.356 . S
N386 C378 1.356 1_554 S
N386 H392 0.984 . S
N386 H393 0.984 . S
N387 C380 1.356 . S
N387 H390 0.984 . S
N387 H391 0.985 . S
H388 N383 0.984 . S
H389 N383 0.985 . S
H390 N387 0.984 . S
H391 N387 0.985 . S
H392 N386 0.984 . S
H393 N386 0.984 . S
H394 N382 0.984 . S
H395 N382 0.985 . S
C396 C397 1.363 . S
C396 C402 1.379 . S
C396 N404 1.356 1_565 S
C397 C396 1.363 . S
C397 C403 1.363 . S
C398 C399 1.363 . S
C398 C403 1.379 . S
C398 N405 1.356 . S
C399 C398 1.363 . S
C399 C402 1.363 . S
N400 C402 1.356 . S
N400 H412 0.984 . S
N400 H413 0.985 . S
N401 C403 1.356 1_554 S
N401 H406 0.984 . S
N401 H407 0.985 . S
C402 C396 1.379 . S
C402 C399 1.363 . S
C402 N400 1.356 . S
C403 C397 1.363 . S
C403 C398 1.379 . S
C403 N401 1.356 1_556 S
N404 C396 1.356 1_545 S
N404 H410 0.984 . S
N404 H411 0.984 . S
N405 C398 1.356 . S
N405 H408 0.984 . S
N405 H409 0.982 1_556 S
H406 N401 0.984 . S
H407 N401 0.985 . S
H408 N405 0.984 . S
H409 N405 0.982 1_554 S
H410 N404 0.984 . S
H411 N404 0.984 . S
H412 N400 0.984 . S
H413 N400 0.985 . S
C414 C415 1.363 . S
C414 C420 1.379 . S
C414 N422 1.356 . S
C415 C414 1.363 . S
C415 C421 1.363 . S
C416 C417 1.363 . S
C416 C421 1.379 . S
C416 N423 1.356 . S
C417 C416 1.363 . S
C417 C420 1.363 . S
N418 C420 1.356 1_556 S
N418 H430 0.984 . S
N418 H431 0.985 . S
N419 C421 1.356 . S
N419 H424 0.984 . S
N419 H425 0.985 . S
C420 C414 1.379 . S
C420 C417 1.363 . S
C420 N418 1.356 1_554 S
C421 C415 1.363 . S
C421 C416 1.379 . S
C421 N419 1.356 . S
N422 C414 1.356 . S
N422 H428 0.984 . S
N422 H429 0.984 . S
N423 C416 1.356 . S
N423 H426 0.984 . S
N423 H427 0.985 . S
H424 N419 0.984 . S
H425 N419 0.985 . S
H426 N423 0.984 . S
H427 N423 0.985 . S
H428 N422 0.984 . S
H429 N422 0.984 . S
H430 N418 0.984 . S
H431 N418 0.985 . S
C432 C433 1.363 . S
C432 C438 1.379 . S
C432 N440 1.356 . S
C433 C432 1.363 . S
C433 C439 1.363 . S
C434 C435 1.363 . S
C434 C439 1.379 . S
C434 N441 1.356 . S
C435 C434 1.363 . S
C435 C438 1.363 . S
N436 C438 1.356 1_556 S
N436 H448 0.984 . S
N436 H449 0.985 . S
N437 C439 1.356 . S
N437 H442 0.984 . S
N437 H443 0.985 . S
C438 C432 1.379 . S
C438 C435 1.363 . S
C438 N436 1.356 1_554 S
C439 C433 1.363 . S
C439 C434 1.379 . S
C439 N437 1.356 . S
N440 C432 1.356 . S
N440 H446 0.984 . S
N440 H447 0.984 . S
N441 C434 1.356 . S
N441 H444 0.984 . S
N441 H445 0.985 . S
H442 N437 0.984 . S
H443 N437 0.985 . S
H444 N441 0.984 . S
H445 N441 0.985 . S
H446 N440 0.984 . S
H447 N440 0.984 . S
H448 N436 0.984 . S
H449 N436 0.985 . S
C450 C451 1.363 . S
C450 C456 1.379 . S
C450 N458 1.356 . S
C451 C450 1.363 . S
C451 C457 1.363 . S
C452 C453 1.363 . S
C452 C457 1.379 . S
C452 N459 1.356 . S
C453 C452 1.363 . S
C453 C456 1.363 . S
N454 C456 1.356 . S
N454 H466 0.984 . S
N454 H467 0.985 . S
N455 C457 1.356 . S
N455 H460 0.984 . S
N455 H461 0.985 . S
C456 C450 1.379 . S
C456 C453 1.363 . S
C456 N454 1.356 . S
C457 C451 1.363 . S
C457 C452 1.379 . S
C457 N455 1.356 . S
N458 C450 1.356 . S
N458 H464 0.984 1_554 S
N458 H465 0.984 1_554 S
N459 C452 1.356 . S
N459 H462 0.984 . S
N459 H463 0.985 . S
H460 N455 0.984 . S
H461 N455 0.985 . S
H462 N459 0.984 . S
H463 N459 0.985 . S
H464 N458 0.984 1_556 S
H465 N458 0.984 1_556 S
H466 N454 0.984 . S
H467 N454 0.985 . S
C468 C469 1.363 . S
C468 C474 1.379 . S
C468 N476 1.356 . S
C469 C468 1.363 . S
C469 C475 1.363 . S
C470 C471 1.363 . S
C470 C475 1.379 . S
C470 N477 1.356 . S
C471 C470 1.363 . S
C471 C474 1.363 . S
N472 C474 1.356 . S
N472 H484 0.984 . S
N472 H485 0.985 . S
N473 C475 1.356 . S
N473 H478 0.984 . S
N473 H479 0.985 . S
C474 C468 1.379 . S
C474 C471 1.363 . S
C474 N472 1.356 . S
C475 C469 1.363 . S
C475 C470 1.379 . S
C475 N473 1.356 . S
N476 C468 1.356 . S
N476 H482 0.984 . S
N476 H483 0.984 . S
N477 C470 1.356 . S
N477 H480 0.984 . S
N477 H481 0.985 . S
H478 N473 0.984 . S
H479 N473 0.985 . S
H480 N477 0.984 . S
H481 N477 0.985 . S
H482 N476 0.984 . S
H483 N476 0.984 . S
H484 N472 0.984 . S
H485 N472 0.985 . S
C486 C487 1.363 . S
C486 C492 1.379 . S
C486 N494 1.356 . S
C487 C486 1.363 . S
C487 C493 1.363 . S
C488 C489 1.363 . S
C488 C493 1.379 . S
C488 N495 1.356 . S
C489 C488 1.363 . S
C489 C492 1.363 . S
N490 C492 1.356 . S
N490 H502 0.984 . S
N490 H503 0.985 . S
N491 C493 1.356 . S
N491 H496 0.984 . S
N491 H497 0.985 . S
C492 C486 1.379 . S
C492 C489 1.363 . S
C492 N490 1.356 . S
C493 C487 1.363 . S
C493 C488 1.379 . S
C493 N491 1.356 . S
N494 C486 1.356 . S
N494 H500 0.984 . S
N494 H501 0.984 . S
N495 C488 1.356 . S
N495 H498 0.984 . S
N495 H499 0.985 . S
H496 N491 0.984 . S
H497 N491 0.985 . S
H498 N495 0.984 . S
H499 N495 0.985 . S
H500 N494 0.984 . S
H501 N494 0.984 . S
H502 N490 0.984 . S
H503 N490 0.985 . S
C504 C505 1.363 . S
C504 C510 1.379 . S
C504 N512 1.356 1_565 S
C505 C504 1.363 . S
C505 C511 1.363 . S
C506 C507 1.363 . S
C506 C511 1.379 . S
C506 N513 1.356 . S
C507 C506 1.363 . S
C507 C510 1.363 . S
N508 C510 1.356 . S
N508 H520 0.984 . S
N508 H521 0.985 . S
N509 C511 1.356 . S
N509 H514 0.984 . S
N509 H515 0.985 . S
C510 C504 1.379 . S
C510 C507 1.363 . S
C510 N508 1.356 . S
C511 C505 1.363 . S
C511 C506 1.379 . S
C511 N509 1.356 . S
N512 C504 1.356 1_545 S
N512 H518 0.984 . S
N512 H519 0.984 . S
N513 C506 1.356 . S
N513 H516 0.984 . S
N513 H517 0.985 . S
H514 N509 0.984 . S
H515 N509 0.985 . S
H516 N513 0.984 . S
H517 N513 0.985 . S
H518 N512 0.984 . S
H519 N512 0.984 . S
H520 N508 0.984 . S
H521 N508 0.985 . S
C522 C523 1.363 . S
C522 C528 1.379 . S
C522 N530 1.356 . S
C523 C522 1.363 . S
C523 C529 1.363 1_554 S
C524 C525 1.363 . S
C524 C529 1.379 . S
C524 N531 1.356 . S
C525 C524 1.363 . S
C525 C528 1.363 1_556 S
N526 C528 1.356 . S
N526 H538 0.984 . S
N526 H539 0.985 . S
N527 C529 1.356 . S
N527 H532 0.984 . S
N527 H533 0.985 . S
C528 C522 1.379 . S
C528 C525 1.363 1_554 S
C528 N526 1.356 . S
C529 C523 1.363 1_556 S
C529 C524 1.379 . S
C529 N527 1.356 . S
N530 C522 1.356 . S
N530 H536 0.984 . S
N530 H537 0.984 . S
N531 C524 1.356 . S
N531 H534 0.984 . S
N531 H535 0.985 . S
H532 N527 0.984 . S
H533 N527 0.985 . S
H534 N531 0.984 . S
H535 N531 0.985 . S
H536 N530 0.984 . S
H537 N530 0.984 . S
H538 N526 0.984 . S
H539 N526 0.985 . S
C540 C541 1.363 1_554 S
C540 C546 1.379 . S
C540 N548 1.356 . S
C541 C540 1.363 1_556 S
C541 C547 1.363 . S
C542 C543 1.363 1_556 S
C542 C547 1.379 . S
C542 N549 1.356 . S
C543 C542 1.363 1_554 S
C543 C546 1.363 . S
N544 C546 1.356 . S
N544 H556 0.984 . S
N544 H557 0.985 . S
N545 C547 1.356 . S
N545 H550 0.984 . S
N545 H551 0.985 . S
C546 C540 1.379 . S
C546 C543 1.363 . S
C546 N544 1.356 . S
C547 C541 1.363 . S
C547 C542 1.379 . S
C547 N545 1.356 . S
N548 C540 1.356 . S
N548 H554 0.984 . S
N548 H555 0.984 . S
N549 C542 1.356 . S
N549 H552 0.984 1_655 S
N549 H553 0.985 1_655 S
H550 N545 0.984 . S
H551 N545 0.985 . S
H552 N549 0.984 1_455 S
H553 N549 0.985 1_455 S
H554 N548 0.984 . S
H555 N548 0.984 . S
H556 N544 0.984 . S
H557 N544 0.985 . S
C558 C559 1.363 1_556 S
C558 C564 1.379 . S
C558 N566 1.356 . S
C559 C558 1.363 1_554 S
C559 C565 1.363 . S
C560 C561 1.363 . S
C560 C565 1.379 1_556 S
C560 N567 1.356 . S
C561 C560 1.363 . S
C561 C564 1.363 . S
N562 C564 1.356 . S
N562 H574 0.984 . S
N562 H575 0.985 . S
N563 C565 1.356 . S
N563 H568 0.984 . S
N563 H569 0.985 . S
C564 C558 1.379 . S
C564 C561 1.363 . S
C564 N562 1.356 . S
C565 C559 1.363 . S
C565 C560 1.379 1_554 S
C565 N563 1.356 . S
N566 C558 1.356 . S
N566 H572 0.984 . S
N566 H573 0.984 . S
N567 C560 1.356 . S
N567 H570 0.984 1_655 S
N567 H571 0.985 1_556 S
H568 N563 0.984 . S
H569 N563 0.985 . S
H570 N567 0.984 1_455 S
H571 N567 0.985 1_554 S
H572 N566 0.984 . S
H573 N566 0.984 . S
H574 N562 0.984 . S
H575 N562 0.985 . S
C576 C577 1.363 . S
C576 C582 1.379 . S
C576 N584 1.356 . S
C577 C576 1.363 . S
C577 C583 1.363 . S
C578 C579 1.363 . S
C578 C583 1.379 . S
C578 N585 1.356 . S
C579 C578 1.363 . S
C579 C582 1.363 . S
N580 C582 1.356 . S
N580 H592 0.984 . S
N580 H593 0.985 . S
N581 C583 1.356 . S
N581 H586 0.984 . S
N581 H587 0.985 . S
C582 C576 1.379 . S
C582 C579 1.363 . S
C582 N580 1.356 . S
C583 C577 1.363 . S
C583 C578 1.379 . S
C583 N581 1.356 . S
N584 C576 1.356 . S
N584 H590 0.984 . S
N584 H591 0.984 . S
N585 C578 1.356 . S
N585 H588 0.984 . S
N585 H589 0.985 . S
H586 N581 0.984 . S
H587 N581 0.985 . S
H588 N585 0.984 . S
H589 N585 0.985 . S
H590 N584 0.984 . S
H591 N584 0.984 . S
H592 N580 0.984 . S
H593 N580 0.985 . S
C594 C595 1.363 . S
C594 C600 1.379 . S
C594 N602 1.356 . S
C595 C594 1.363 . S
C595 C601 1.363 . S
C596 C597 1.363 . S
C596 C601 1.379 . S
C596 N603 1.356 . S
C597 C596 1.363 . S
C597 C600 1.363 . S
N598 C600 1.356 . S
N598 H610 0.987 . S
N598 H611 0.985 . S
N599 C601 1.356 . S
N599 H604 0.984 . S
N599 H605 0.985 . S
C600 C594 1.379 . S
C600 C597 1.363 . S
C600 N598 1.356 . S
C601 C595 1.363 . S
C601 C596 1.379 . S
C601 N599 1.356 . S
N602 C594 1.356 . S
N602 H608 0.984 . S
N602 H609 0.984 . S
N603 C596 1.356 . S
N603 H606 0.984 . S
N603 H607 0.985 . S
H604 N599 0.984 . S
H605 N599 0.985 . S
H606 N603 0.984 . S
H607 N603 0.985 . S
H608 N602 0.984 . S
H609 N602 0.984 . S
H610 N598 0.987 . S
H611 N598 0.985 . S
C612 C613 1.363 . S
C612 C618 1.379 . S
C612 N620 1.356 . S
C613 C612 1.363 . S
C613 C619 1.363 . S
C614 C615 1.363 . S
C614 C619 1.379 . S
C614 N621 1.356 . S
C615 C614 1.363 . S
C615 C618 1.363 . S
N616 C618 1.356 . S
N616 H628 0.984 . S
N616 H629 0.985 . S
N617 C619 1.356 . S
N617 H622 0.984 . S
N617 H623 0.985 . S
C618 C612 1.379 . S
C618 C615 1.363 . S
C618 N616 1.356 . S
C619 C613 1.363 . S
C619 C614 1.379 . S
C619 N617 1.356 . S
N620 C612 1.356 . S
N620 H626 0.984 . S
N620 H627 0.984 . S
N621 C614 1.356 . S
N621 H624 0.984 . S
N621 H625 0.985 . S
H622 N617 0.984 . S
H623 N617 0.985 . S
H624 N621 0.984 . S
H625 N621 0.985 . S
H626 N620 0.984 . S
H627 N620 0.984 . S
H628 N616 0.984 . S
H629 N616 0.985 . S
C630 C631 1.363 . S
C630 C636 1.379 . S
C630 N638 1.356 . S
C631 C630 1.363 . S
C631 C637 1.363 . S
C632 C633 1.363 . S
C632 C637 1.379 . S
C632 N639 1.356 . S
C633 C632 1.363 . S
C633 C636 1.363 . S
N634 C636 1.356 . S
N634 H646 0.984 . S
N634 H647 0.985 . S
N635 C637 1.356 . S
N635 H640 0.984 . S
N635 H641 0.985 . S
C636 C630 1.379 . S
C636 C633 1.363 . S
C636 N634 1.356 . S
C637 C631 1.363 . S
C637 C632 1.379 . S
C637 N635 1.356 . S
N638 C630 1.356 . S
N638 H644 0.984 . S
N638 H645 0.984 . S
N639 C632 1.356 . S
N639 H642 0.984 . S
N639 H643 0.985 . S
H640 N635 0.984 . S
H641 N635 0.985 . S
H642 N639 0.984 . S
H643 N639 0.985 . S
H644 N638 0.984 . S
H645 N638 0.984 . S
H646 N634 0.984 . S
H647 N634 0.985 . S
C648 C649 1.363 . S
C648 C654 1.379 . S
C648 N656 1.356 . S
C649 C648 1.363 . S
C649 C655 1.363 . S
C650 C651 1.363 . S
C650 C655 1.379 . S
C650 N657 1.356 . S
C651 C650 1.363 . S
C651 C654 1.363 . S
N652 C654 1.356 . S
N652 H664 0.984 . S
N652 H665 0.985 . S
N653 C655 1.356 . S
N653 H658 0.984 . S
N653 H659 0.985 . S
C654 C648 1.379 . S
C654 C651 1.363 . S
C654 N652 1.356 . S
C655 C649 1.363 . S
C655 C650 1.379 . S
C655 N653 1.356 . S
N656 C648 1.356 . S
N656 H662 0.984 . S
N656 H663 0.984 . S
N657 C650 1.356 . S
N657 H660 0.984 . S
N657 H661 0.985 . S
H658 N653 0.984 . S
H659 N653 0.985 . S
H660 N657 0.984 . S
H661 N657 0.985 . S
H662 N656 0.984 . S
H663 N656 0.984 . S
H664 N652 0.984 . S
H665 N652 0.985 . S
C666 C667 1.363 . S
C666 C672 1.379 . S
C666 N674 1.356 . S
C667 C666 1.363 . S
C667 C673 1.363 . S
C668 C669 1.363 . S
C668 C673 1.379 . S
C668 N675 1.356 . S
C669 C668 1.363 . S
C669 C672 1.363 . S
N670 C672 1.356 . S
N670 H682 0.984 . S
N670 H683 0.985 . S
N671 C673 1.356 . S
N671 H676 0.984 . S
N671 H677 0.985 . S
C672 C666 1.379 . S
C672 C669 1.363 . S
C672 N670 1.356 . S
C673 C667 1.363 . S
C673 C668 1.379 . S
C673 N671 1.356 . S
N674 C666 1.356 . S
N674 H680 0.984 . S
N674 H681 0.984 . S
N675 C668 1.356 . S
N675 H678 0.984 . S
N675 H679 0.985 . S
H676 N671 0.984 . S
H677 N671 0.985 . S
H678 N675 0.984 . S
H679 N675 0.985 . S
H680 N674 0.984 . S
H681 N674 0.984 . S
H682 N670 0.984 . S
H683 N670 0.985 . S
C684 C685 1.363 . S
C684 C690 1.379 . S
C684 N692 1.356 . S
C685 C684 1.363 . S
C685 C691 1.363 . S
C686 C687 1.363 . S
C686 C691 1.379 . S
C686 N693 1.356 . S
C687 C686 1.363 . S
C687 C690 1.363 . S
N688 C690 1.356 . S
N688 H700 0.984 . S
N688 H701 0.985 . S
N689 C691 1.356 . S
N689 H694 0.984 . S
N689 H695 0.985 . S
C690 C684 1.379 . S
C690 C687 1.363 . S
C690 N688 1.356 . S
C691 C685 1.363 . S
C691 C686 1.379 . S
C691 N689 1.356 . S
N692 C684 1.356 . S
N692 H698 0.984 . S
N692 H699 0.984 . S
N693 C686 1.356 . S
N693 H696 0.984 . S
N693 H697 0.985 . S
H694 N689 0.984 . S
H695 N689 0.985 . S
H696 N693 0.984 . S
H697 N693 0.985 . S
H698 N692 0.984 . S
H699 N692 0.984 . S
H700 N688 0.984 . S
H701 N688 0.985 . S
C702 C703 1.363 . S
C702 C708 1.379 . S
C702 N710 1.356 . S
C703 C702 1.363 . S
C703 C709 1.363 . S
C704 C705 1.363 . S
C704 C709 1.379 . S
C704 N711 1.356 . S
C705 C704 1.363 . S
C705 C708 1.363 . S
N706 C708 1.356 . S
N706 H718 0.984 . S
N706 H719 0.985 . S
N707 C709 1.356 . S
N707 H712 0.984 . S
N707 H713 0.985 . S
C708 C702 1.379 . S
C708 C705 1.363 . S
C708 N706 1.356 . S
C709 C703 1.363 . S
C709 C704 1.379 . S
C709 N707 1.356 . S
N710 C702 1.356 . S
N710 H716 0.984 . S
N710 H717 0.984 . S
N711 C704 1.356 . S
N711 H714 0.984 . S
N711 H715 0.985 . S
H712 N707 0.984 . S
H713 N707 0.985 . S
H714 N711 0.984 . S
H715 N711 0.985 . S
H716 N710 0.984 . S
H717 N710 0.984 . S
H718 N706 0.984 . S
H719 N706 0.985 . S
C720 C721 1.363 . S
C720 C726 1.379 . S
C720 N728 1.356 . S
C721 C720 1.363 . S
C721 C727 1.363 1_545 S
C722 C723 1.363 1_565 S
C722 C727 1.379 . S
C722 N729 1.356 . S
C723 C722 1.363 1_545 S
C723 C726 1.363 . S
N724 C726 1.356 . S
N724 H736 0.984 . S
N724 H737 0.985 . S
N725 C727 1.356 . S
N725 H730 0.984 . S
N725 H731 0.985 . S
C726 C720 1.379 . S
C726 C723 1.363 . S
C726 N724 1.356 . S
C727 C721 1.363 1_565 S
C727 C722 1.379 . S
C727 N725 1.356 . S
N728 C720 1.356 . S
N728 H734 0.984 . S
N728 H735 0.984 . S
N729 C722 1.356 . S
N729 H732 0.984 . S
N729 H733 0.985 . S
H730 N725 0.984 . S
H731 N725 0.985 . S
H732 N729 0.984 . S
H733 N729 0.985 . S
H734 N728 0.984 . S
H735 N728 0.984 . S
H736 N724 0.984 . S
H737 N724 0.985 . S
C738 C739 1.363 . S
C738 C744 1.379 . S
C738 N746 1.356 . S
C739 C738 1.363 . S
C739 C745 1.363 . S
C740 C741 1.363 . S
C740 C745 1.379 . S
C740 N747 1.356 1_556 S
C741 C740 1.363 . S
C741 C744 1.363 . S
N742 C744 1.356 . S
N742 H754 0.984 . S
N742 H755 0.985 1_556 S
N743 C745 1.356 . S
N743 H748 0.984 . S
N743 H749 0.985 . S
C744 C738 1.379 . S
C744 C741 1.363 . S
C744 N742 1.356 . S
C745 C739 1.363 . S
C745 C740 1.379 . S
C745 N743 1.356 . S
N746 C738 1.356 . S
N746 H752 0.984 . S
N746 H753 0.984 . S
N747 C740 1.356 1_554 S
N747 H750 0.984 . S
N747 H751 0.985 1_554 S
H748 N743 0.984 . S
H749 N743 0.985 . S
H750 N747 0.984 . S
H751 N747 0.985 1_556 S
H752 N746 0.984 . S
H753 N746 0.984 . S
H754 N742 0.984 . S
H755 N742 0.985 1_554 S
C756 C757 1.363 . S
C756 C762 1.379 . S
C756 N764 1.356 . S
C757 C756 1.363 . S
C757 C763 1.363 . S
C758 C759 1.363 . S
C758 C763 1.379 . S
C758 N765 1.356 . S
C759 C758 1.363 . S
C759 C762 1.363 . S
N760 C762 1.356 1_554 S
N760 H772 0.984 . S
N760 H773 0.985 . S
N761 C763 1.356 . S
N761 H766 0.984 . S
N761 H767 0.985 . S
C762 C756 1.379 . S
C762 C759 1.363 . S
C762 N760 1.356 1_556 S
C763 C757 1.363 . S
C763 C758 1.379 . S
C763 N761 1.356 . S
N764 C756 1.356 . S
N764 H770 0.984 . S
N764 H771 0.984 . S
N765 C758 1.356 . S
N765 H768 0.984 1_556 S
N765 H769 0.985 . S
H766 N761 0.984 . S
H767 N761 0.985 . S
H768 N765 0.984 1_554 S
H769 N765 0.985 . S
H770 N764 0.984 . S
H771 N764 0.984 . S
H772 N760 0.984 . S
H773 N760 0.985 . S
C774 C775 1.363 . S
C774 C780 1.379 . S
C774 N782 1.356 . S
C775 C774 1.363 . S
C775 C781 1.363 . S
C776 C777 1.363 . S
C776 C781 1.379 . S
C776 N783 1.356 1_556 S
C777 C776 1.363 . S
C777 C780 1.363 . S
N778 C780 1.361 . S
N778 H790 0.986 . S
N778 H791 0.978 1_556 S
N779 C781 1.356 . S
N779 H784 0.984 . S
N779 H785 0.985 . S
C780 C774 1.379 . S
C780 C777 1.363 . S
C780 N778 1.361 . S
C781 C775 1.363 . S
C781 C776 1.379 . S
C781 N779 1.356 . S
N782 C774 1.356 . S
N782 H788 0.984 . S
N782 H789 0.984 . S
N783 C776 1.356 1_554 S
N783 H786 0.984 . S
N783 H787 0.985 1_554 S
H784 N779 0.984 . S
H785 N779 0.985 . S
H786 N783 0.984 . S
H787 N783 0.985 1_556 S
H788 N782 0.984 . S
H789 N782 0.984 . S
H790 N778 0.986 . S
H791 N778 0.978 1_554 S
C792 C793 1.363 . S
C792 C798 1.379 . S
C792 N800 1.356 . S
C793 C792 1.363 . S
C793 C799 1.363 . S
C794 C795 1.363 . S
C794 C799 1.379 . S
C794 N801 1.356 1_554 S
C795 C794 1.363 . S
C795 C798 1.363 . S
N796 C798 1.356 . S
N796 H808 0.984 . S
N796 H809 0.985 1_554 S
N797 C799 1.356 . S
N797 H802 0.984 . S
N797 H803 0.985 . S
C798 C792 1.379 . S
C798 C795 1.363 . S
C798 N796 1.356 . S
C799 C793 1.363 . S
C799 C794 1.379 . S
C799 N797 1.356 . S
N800 C792 1.356 . S
N800 H806 0.984 . S
N800 H807 0.984 . S
N801 C794 1.356 1_556 S
N801 H804 0.984 . S
N801 H805 0.985 1_556 S
H802 N797 0.984 . S
H803 N797 0.985 . S
H804 N801 0.984 . S
H805 N801 0.985 1_554 S
H806 N800 0.984 . S
H807 N800 0.984 . S
H808 N796 0.984 . S
H809 N796 0.985 1_556 S
C810 C811 1.363 . S
C810 C816 1.379 . S
C810 N818 1.356 1_554 S
C811 C810 1.363 . S
C811 C817 1.363 . S
C812 C813 1.363 . S
C812 C817 1.379 . S
C812 N819 1.356 . S
C813 C812 1.363 . S
C813 C816 1.363 . S
N814 C816 1.356 . S
N814 H826 0.984 . S
N814 H827 0.985 . S
N815 C817 1.356 . S
N815 H820 0.984 1_554 S
N815 H821 0.985 . S
C816 C810 1.379 . S
C816 C813 1.363 . S
C816 N814 1.356 . S
C817 C811 1.363 . S
C817 C812 1.379 . S
C817 N815 1.356 . S
N818 C810 1.356 1_556 S
N818 H824 0.984 1_556 S
N818 H825 0.984 . S
N819 C812 1.356 . S
N819 H822 0.984 . S
N819 H823 0.985 . S
H820 N815 0.984 1_556 S
H821 N815 0.985 . S
H822 N819 0.984 . S
H823 N819 0.985 . S
H824 N818 0.984 1_554 S
H825 N818 0.984 . S
H826 N814 0.984 . S
H827 N814 0.985 . S
C828 C829 1.363 . S
C828 C834 1.379 . S
C828 N836 1.356 . S
C829 C828 1.363 . S
C829 C835 1.363 . S
C830 C831 1.363 . S
C830 C835 1.379 . S
C830 N837 1.356 . S
C831 C830 1.363 . S
C831 C834 1.363 . S
N832 C834 1.356 1_556 S
N832 H844 0.984 1_556 S
N832 H845 0.985 . S
N833 C835 1.356 . S
N833 H838 0.984 . S
N833 H839 0.985 . S
C834 C828 1.379 . S
C834 C831 1.363 . S
C834 N832 1.356 1_554 S
C835 C829 1.363 . S
C835 C830 1.379 . S
C835 N833 1.356 . S
N836 C828 1.356 . S
N836 H842 0.984 . S
N836 H843 0.984 . S
N837 C830 1.356 . S
N837 H840 0.984 1_554 S
N837 H841 0.985 . S
H838 N833 0.984 . S
H839 N833 0.985 . S
H840 N837 0.984 1_556 S
H841 N837 0.985 . S
H842 N836 0.984 . S
H843 N836 0.984 . S
H844 N832 0.984 1_554 S
H845 N832 0.985 . S
C361 C19 1.686 . S
C363 C295 1.754 . S
C379 C59 1.686 . S
C381 C335 1.754 . S
C397 C99 1.686 . S
C399 C255 1.753 . S
C415 C179 1.686 . S
C417 C95 1.754 . S
C433 C219 1.686 . S
C435 C15 1.754 . S
C451 C55 1.754 . S
C453 C139 1.686 . S
C469 C299 1.686 . S
C471 C215 1.754 . S
C487 C339 1.686 . S
C489 C135 1.753 . S
C505 C175 1.754 1_565 S
C507 C259 1.686 . S
C523 C89 1.698 . S
C525 C5 1.662 . S
C541 C45 1.663 . S
C543 C9 1.698 . S
C559 C49 1.698 . S
C561 C85 1.663 1_655 S
C577 C125 1.662 . S
C579 C209 1.698 . S
C595 C129 1.698 . S
C597 C165 1.663 . S
C613 C169 1.698 . S
C615 C205 1.663 . S
C631 C329 1.698 . S
C633 C245 1.662 . S
C649 C285 1.663 . S
C651 C249 1.698 . S
C667 C325 1.663 . S
C669 C289 1.698 . S
C685 C18 1.208 . S
C687 C8 1.208 . S
C703 C58 1.208 . S
C705 C48 1.208 . S
C721 C98 1.208 . S
C723 C88 1.208 . S
C739 C128 1.208 . S
C741 C138 1.208 1_556 S
C757 C168 1.208 . S
C759 C178 1.208 1_556 S
C775 C208 1.208 . S
C777 C218 1.208 1_556 S
C793 C258 1.208 . S
C795 C248 1.208 1_554 S
C811 C288 1.208 1_554 S
C813 C298 1.208 . S
C829 C338 1.208 . S
C831 C328 1.208 1_554 S
