# Generated by pormake.
# Topology wiv, (6)-cn, num edge types: 1
# Building blocks:
#     Node 0, Type 0, BuildingBlock: PAMTUU_clean_sbu_0, # of connection points: 6
#     Node 1, Type 0, BuildingBlock: PAMTUU_clean_sbu_0, # of connection points: 6
#     Node 2, Type 0, BuildingBlock: PAMTUU_clean_sbu_0, # of connection points: 6
#     Node 3, Type 0, BuildingBlock: PAMTUU_clean_sbu_0, # of connection points: 6
#     Node 4, Type 0, BuildingBlock: PAMTUU_clean_sbu_0, # of connection points: 6
#     Node 5, Type 0, BuildingBlock: PAMTUU_clean_sbu_0, # of connection points: 6
#     Node 6, Type 0, BuildingBlock: PAMTUU_clean_sbu_0, # of connection points: 6
#     Node 7, Type 0, BuildingBlock: PAMTUU_clean_sbu_0, # of connection points: 6
#     Node 8, Type 0, BuildingBlock: PAMTUU_clean_sbu_0, # of connection points: 6
#     Node 9, Type 0, BuildingBlock: PAMTUU_clean_sbu_0, # of connection points: 6
#     Node 10, Type 0, BuildingBlock: PAMTUU_clean_sbu_0, # of connection points: 6
#     Node 11, Type 0, BuildingBlock: PAMTUU_clean_sbu_0, # of connection points: 6
#     Node 12, Type 0, BuildingBlock: PAMTUU_clean_sbu_0, # of connection points: 6
#     Node 13, Type 0, BuildingBlock: PAMTUU_clean_sbu_0, # of connection points: 6
#     Node 14, Type 0, BuildingBlock: PAMTUU_clean_sbu_0, # of connection points: 6
#     Node 15, Type 0, BuildingBlock: PAMTUU_clean_sbu_0, # of connection points: 6
#     Edge 16, Type (0, 0), BuildingBlock: KIFKEQ_clean_linker_1, # of connection points: 2
#     Edge 17, Type (0, 0), BuildingBlock: KIFKEQ_clean_linker_1, # of connection points: 2
#     Edge 18, Type (0, 0), BuildingBlock: KIFKEQ_clean_linker_1, # of connection points: 2
#     Edge 19, Type (0, 0), BuildingBlock: KIFKEQ_clean_linker_1, # of connection points: 2
#     Edge 20, Type (0, 0), BuildingBlock: KIFKEQ_clean_linker_1, # of connection points: 2
#     Edge 21, Type (0, 0), BuildingBlock: KIFKEQ_clean_linker_1, # of connection points: 2
#     Edge 22, Type (0, 0), BuildingBlock: KIFKEQ_clean_linker_1, # of connection points: 2
#     Edge 23, Type (0, 0), BuildingBlock: KIFKEQ_clean_linker_1, # of connection points: 2
#     Edge 24, Type (0, 0), BuildingBlock: KIFKEQ_clean_linker_1, # of connection points: 2
#     Edge 25, Type (0, 0), BuildingBlock: KIFKEQ_clean_linker_1, # of connection points: 2
#     Edge 26, Type (0, 0), BuildingBlock: KIFKEQ_clean_linker_1, # of connection points: 2
#     Edge 27, Type (0, 0), BuildingBlock: KIFKEQ_clean_linker_1, # of connection points: 2
#     Edge 28, Type (0, 0), BuildingBlock: KIFKEQ_clean_linker_1, # of connection points: 2
#     Edge 29, Type (0, 0), BuildingBlock: KIFKEQ_clean_linker_1, # of connection points: 2
#     Edge 30, Type (0, 0), BuildingBlock: KIFKEQ_clean_linker_1, # of connection points: 2
#     Edge 31, Type (0, 0), BuildingBlock: KIFKEQ_clean_linker_1, # of connection points: 2
#     Edge 32, Type (0, 0), BuildingBlock: KIFKEQ_clean_linker_1, # of connection points: 2
#     Edge 33, Type (0, 0), BuildingBlock: KIFKEQ_clean_linker_1, # of connection points: 2
#     Edge 34, Type (0, 0), BuildingBlock: KIFKEQ_clean_linker_1, # of connection points: 2
#     Edge 35, Type (0, 0), BuildingBlock: KIFKEQ_clean_linker_1, # of connection points: 2
#     Edge 36, Type (0, 0), BuildingBlock: KIFKEQ_clean_linker_1, # of connection points: 2
#     Edge 37, Type (0, 0), BuildingBlock: KIFKEQ_clean_linker_1, # of connection points: 2
#     Edge 38, Type (0, 0), BuildingBlock: KIFKEQ_clean_linker_1, # of connection points: 2
#     Edge 39, Type (0, 0), BuildingBlock: KIFKEQ_clean_linker_1, # of connection points: 2
#     Edge 40, Type (0, 0), BuildingBlock: KIFKEQ_clean_linker_1, # of connection points: 2
#     Edge 41, Type (0, 0), BuildingBlock: KIFKEQ_clean_linker_1, # of connection points: 2
#     Edge 42, Type (0, 0), BuildingBlock: KIFKEQ_clean_linker_1, # of connection points: 2
#     Edge 43, Type (0, 0), BuildingBlock: KIFKEQ_clean_linker_1, # of connection points: 2
#     Edge 44, Type (0, 0), BuildingBlock: KIFKEQ_clean_linker_1, # of connection points: 2
#     Edge 45, Type (0, 0), BuildingBlock: KIFKEQ_clean_linker_1, # of connection points: 2
#     Edge 46, Type (0, 0), BuildingBlock: KIFKEQ_clean_linker_1, # of connection points: 2
#     Edge 47, Type (0, 0), BuildingBlock: KIFKEQ_clean_linker_1, # of connection points: 2
#     Edge 48, Type (0, 0), BuildingBlock: KIFKEQ_clean_linker_1, # of connection points: 2
#     Edge 49, Type (0, 0), BuildingBlock: KIFKEQ_clean_linker_1, # of connection points: 2
#     Edge 50, Type (0, 0), BuildingBlock: KIFKEQ_clean_linker_1, # of connection points: 2
#     Edge 51, Type (0, 0), BuildingBlock: KIFKEQ_clean_linker_1, # of connection points: 2
#     Edge 52, Type (0, 0), BuildingBlock: KIFKEQ_clean_linker_1, # of connection points: 2
#     Edge 53, Type (0, 0), BuildingBlock: KIFKEQ_clean_linker_1, # of connection points: 2
#     Edge 54, Type (0, 0), BuildingBlock: KIFKEQ_clean_linker_1, # of connection points: 2
#     Edge 55, Type (0, 0), BuildingBlock: KIFKEQ_clean_linker_1, # of connection points: 2
#     Edge 56, Type (0, 0), BuildingBlock: KIFKEQ_clean_linker_1, # of connection points: 2
#     Edge 57, Type (0, 0), BuildingBlock: KIFKEQ_clean_linker_1, # of connection points: 2
#     Edge 58, Type (0, 0), BuildingBlock: KIFKEQ_clean_linker_1, # of connection points: 2
#     Edge 59, Type (0, 0), BuildingBlock: KIFKEQ_clean_linker_1, # of connection points: 2
#     Edge 60, Type (0, 0), BuildingBlock: KIFKEQ_clean_linker_1, # of connection points: 2
#     Edge 61, Type (0, 0), BuildingBlock: KIFKEQ_clean_linker_1, # of connection points: 2
#     Edge 62, Type (0, 0), BuildingBlock: KIFKEQ_clean_linker_1, # of connection points: 2
#     Edge 63, Type (0, 0), BuildingBlock: KIFKEQ_clean_linker_1, # of connection points: 2
# Relax obj value: 0.130
# Max RMSD: 0.184
# Mean RMSD: 0.184
data_MOF--net-wiv--node1-PAMTUU_clean_sbu_0--edge1-KIFKEQ_clean_linker_1
_symmetry_space_group_name_H-M    P1
_symmetry_Int_Tables_number       1
_symmetry_cell_setting            triclinic
loop_
_symmetry_equiv_pos_as_xyz
'x, y, z'
_cell_length_a     51.764971
_cell_length_b     51.761041
_cell_length_c     24.804445
_cell_angle_alpha  90.003203
_cell_angle_beta   90.076292
_cell_angle_gamma 89.963679
loop_
_atom_site_label
_atom_site_type_symbol
_atom_site_fract_x
_atom_site_fract_y
_atom_site_fract_z
_atom_type_partial_charge
Tb0 Tb 0.38307 0.11435 0.07609 0.0
Tb1 Tb 0.3423 0.11193 0.17899 0.0
C2 C 0.37041 0.06395 0.13777 0.0
C3 C 0.40137 0.11843 0.93263 0.0
C4 C 0.38545 0.12001 0.82337 0.0
C5 C 0.4106 0.11198 0.83749 0.0
C6 C 0.41841 0.11111 0.89156 0.0
C7 C 0.37649 0.12703 0.91889 0.0
C8 C 0.36857 0.12776 0.86487 0.0
C9 C 0.40893 0.11522 0.98963 0.0
O10 O 0.34605 0.10156 0.04616 0.0
O11 O 0.31848 0.11975 0.10742 0.0
O12 O 0.35798 0.15044 0.17802 0.0
O13 O 0.36626 0.1529 0.08755 0.0
O14 O 0.32757 0.089 0.24153 0.0
O15 O 0.31346 0.12773 0.22898 0.0
O16 O 0.38092 0.11134 0.21517 0.0
O17 O 0.40826 0.12179 0.14415 0.0
O18 O 0.38942 0.07822 0.11948 0.0
O19 O 0.34739 0.07408 0.14331 0.0
C20 C 0.32333 0.11087 0.05863 0.0
O21 O 0.40584 0.13523 1.02095 0.0
O22 O 0.40056 0.09417 1.01239 0.0
C23 C 0.36221 0.16408 0.13454 0.0
C24 C 0.31867 0.11325 0.31893 0.0
C25 C 0.331 0.11817 0.42962 0.0
C26 C 0.30755 0.10678 0.41327 0.0
C27 C 0.30152 0.10424 0.35838 0.0
C28 C 0.34161 0.12545 0.33504 0.0
C29 C 0.34775 0.12785 0.38976 0.0
C30 C 0.31387 0.10785 0.26139 0.0
C31 C 0.40383 0.11764 0.19576 0.0
H32 H 0.42431 0.10631 0.80676 0.0
H33 H 0.43767 0.10435 0.90134 0.0
H34 H 0.36299 0.13267 0.95009 0.0
H35 H 0.34899 0.13374 0.85583 0.0
H36 H 0.2943 0.09896 0.4428 0.0
H37 H 0.28379 0.09461 0.34673 0.0
H38 H 0.35505 0.13261 0.30517 0.0
H39 H 0.36576 0.13708 0.40085 0.0
Tb40 Tb 0.11656 0.67326 0.8869 0.0
Tb41 Tb 0.10896 0.63126 0.9875 0.0
C42 C 0.16256 0.65286 0.95075 0.0
C43 C 0.12251 0.69542 0.74512 0.0
C44 C 0.12001 0.68249 0.63381 0.0
C45 C 0.14392 0.68686 0.65929 0.0
C46 C 0.14513 0.69336 0.71407 0.0
C47 C 0.09853 0.69154 0.71951 0.0
C48 C 0.09731 0.68524 0.6645 0.0
C49 C 0.12448 0.70061 0.80411 0.0
O50 O 0.12601 0.63459 0.85661 0.0
O51 O 0.1059 0.60694 0.91661 0.0
O52 O 0.06992 0.6396 0.95761 0.0
O53 O 0.07926 0.6562 0.87358 0.0
O54 O 0.12523 0.60472 0.0424 0.0
O55 O 0.08572 0.61677 0.05006 0.0
O56 O 0.11529 0.66894 1.02227 0.0
O57 O 0.10237 0.69655 0.95496 0.0
O58 O 0.15049 0.67414 0.93759 0.0
O59 O 0.14947 0.63176 0.9618 0.0
C60 C 0.11687 0.61163 0.86975 0.0
O61 O 0.1031 0.70131 0.83201 0.0
O62 O 0.14256 0.68799 0.82964 0.0
C63 C 0.06292 0.64693 0.90886 0.0
C64 C 0.10891 0.61146 0.13078 0.0
C65 C 0.11251 0.62654 0.24055 0.0
C66 C 0.0988 0.60416 0.22548 0.0
C67 C 0.09693 0.59679 0.17117 0.0
C68 C 0.12309 0.63348 0.14568 0.0
C69 C 0.12477 0.64101 0.19988 0.0
C70 C 0.10487 0.60489 0.07326 0.0
C71 C 0.1065 0.69141 1.00642 0.0
H72 H 0.16177 0.6853 0.63679 0.0
H73 H 0.16389 0.69641 0.73243 0.0
H74 H 0.08068 0.69294 0.74205 0.0
H75 H 0.07858 0.68186 0.64634 0.0
H76 H 0.0889 0.59268 0.25555 0.0
H77 H 0.08569 0.57988 0.16061 0.0
H78 H 0.13254 0.64512 0.11527 0.0
H79 H 0.13573 0.65817 0.20993 0.0
Tb80 Tb 0.6363 0.90837 0.07546 0.0
Tb81 Tb 0.67667 0.9105 0.17824 0.0
C82 C 0.64944 0.95868 0.1366 0.0
C83 C 0.61835 0.90559 0.93194 0.0
C84 C 0.63405 0.90409 0.82276 0.0
C85 C 0.6081 0.90898 0.83655 0.0
C86 C 0.60035 0.90976 0.89062 0.0
C87 C 0.64418 0.90039 0.91853 0.0
C88 C 0.65196 0.89962 0.8645 0.0
C89 C 0.61046 0.90797 0.98882 0.0
O90 O 0.67352 0.92085 0.04572 0.0
O91 O 0.70037 0.90162 0.10708 0.0
O92 O 0.6609 0.87208 0.17745 0.0
O93 O 0.65238 0.8695 0.08695 0.0
O94 O 0.69177 0.93349 0.2404 0.0
O95 O 0.70521 0.89448 0.22879 0.0
O96 O 0.63789 0.91215 0.2138 0.0
O97 O 0.61149 0.89925 0.14318 0.0
O98 O 0.63016 0.94448 0.11921 0.0
O99 O 0.67234 0.94826 0.14181 0.0
C100 C 0.696 0.91109 0.05861 0.0
O101 O 0.61406 0.88767 1.019 0.0
O102 O 0.61816 0.92893 1.01297 0.0
C103 C 0.65647 0.85841 0.13405 0.0
C104 C 0.7002 0.90944 0.3183 0.0
C105 C 0.68786 0.90487 0.42897 0.0
C106 C 0.71131 0.91622 0.41256 0.0
C107 C 0.71737 0.91853 0.3577 0.0
C108 C 0.67717 0.89742 0.33439 0.0
C109 C 0.6711 0.8951 0.3891 0.0
C110 C 0.70513 0.91451 0.26076 0.0
C111 C 0.61538 0.90429 0.19466 0.0
H112 H 0.59371 0.91216 0.80551 0.0
H113 H 0.58035 0.91386 0.90017 0.0
H114 H 0.65843 0.89727 0.94988 0.0
H115 H 0.67213 0.89612 0.85554 0.0
H116 H 0.72458 0.92417 0.44198 0.0
H117 H 0.73515 0.92804 0.34604 0.0
H118 H 0.66361 0.89033 0.30457 0.0
H119 H 0.65311 0.88584 0.40012 0.0
Tb120 Tb 0.90897 0.34176 0.88317 0.0
Tb121 Tb 0.90442 0.38218 0.98576 0.0
C122 C 0.8559 0.35914 0.9278 0.0
C123 C 0.90912 0.31919 0.74253 0.0
C124 C 0.90441 0.33148 0.63181 0.0
C125 C 0.91322 0.30694 0.64821 0.0
C126 C 0.91565 0.3009 0.70312 0.0
C127 C 0.89957 0.34337 0.72641 0.0
C128 C 0.89727 0.34947 0.67169 0.0
C129 C 0.91397 0.31387 0.80009 0.0
O130 O 0.91026 0.38063 0.84826 0.0
O131 O 0.89423 0.40614 0.91726 0.0
O132 O 0.94049 0.38938 0.94289 0.0
O133 O 0.9464 0.34737 0.92057 0.0
O134 O 0.88267 0.40428 0.04062 0.0
O135 O 0.92398 0.40109 0.04863 0.0
O136 O 0.91779 0.34557 1.0168 0.0
O137 O 0.90151 0.31746 0.95412 0.0
O138 O 0.86976 0.35594 0.88419 0.0
O139 O 0.86691 0.36336 0.97488 0.0
C140 C 0.90074 0.40264 0.86643 0.0
O141 O 0.93262 0.32732 0.82148 0.0
O142 O 0.89376 0.31328 0.83143 0.0
C143 C 0.95571 0.3707 0.92647 0.0
C144 C 0.90002 0.40096 0.12874 0.0
C145 C 0.8996 0.38502 0.23792 0.0
C146 C 0.90857 0.40975 0.22338 0.0
C147 C 0.90883 0.41759 0.16934 0.0
C148 C 0.89059 0.37646 0.14297 0.0
C149 C 0.89037 0.36856 0.19699 0.0
C150 C 0.90261 0.40846 0.07161 0.0
C151 C 0.90938 0.32259 1.00358 0.0
H152 H 0.91906 0.29269 0.61865 0.0
H153 H 0.92316 0.28217 0.71478 0.0
H154 H 0.89433 0.35774 0.75617 0.0
H155 H 0.89001 0.36837 0.66062 0.0
H156 H 0.91545 0.4231 0.25379 0.0
H157 H 0.9163 0.43652 0.15917 0.0
H158 H 0.8839 0.36322 0.11215 0.0
H159 H 0.88364 0.34928 0.20645 0.0
Tb160 Tb 0.38422 0.40745 0.23905 0.0
Tb161 Tb 0.34376 0.41169 0.13612 0.0
C162 C 0.37426 0.45823 0.17696 0.0
C163 C 0.4021 0.40269 0.38264 0.0
C164 C 0.38658 0.40125 0.49202 0.0
C165 C 0.41268 0.40508 0.47802 0.0
C166 C 0.42033 0.40586 0.42389 0.0
C167 C 0.37613 0.39837 0.3962 0.0
C168 C 0.36843 0.39769 0.4503 0.0
C169 C 0.40991 0.40549 0.32578 0.0
O170 O 0.3478 0.4222 0.26855 0.0
O171 O 0.31979 0.40452 0.2076 0.0
O172 O 0.35795 0.37255 0.13647 0.0
O173 O 0.36621 0.36956 0.22693 0.0
O174 O 0.33007 0.43522 0.07339 0.0
O175 O 0.31416 0.39723 0.0862 0.0
O176 O 0.38229 0.41032 0.09992 0.0
O177 O 0.40927 0.3991 0.1712 0.0
O178 O 0.39249 0.44283 0.19477 0.0
O179 O 0.3507 0.4495 0.17116 0.0
C180 C 0.3248 0.41359 0.25616 0.0
O181 O 0.40591 0.38559 0.2946 0.0
O182 O 0.40255 0.42687 0.30276 0.0
C183 C 0.36199 0.35864 0.17973 0.0
C184 C 0.32017 0.41122 0.99613 0.0
C185 C 0.33257 0.40525 0.88572 0.0
C186 C 0.31056 0.41935 0.90159 0.0
C187 C 0.30449 0.42237 0.9563 0.0
C188 C 0.34168 0.3965 0.98054 0.0
C189 C 0.34782 0.39354 0.92595 0.0
C190 C 0.31556 0.41698 0.05357 0.0
C191 C 0.40497 0.40323 0.11948 0.0
H192 H 0.42727 0.40748 0.50894 0.0
H193 H 0.44045 0.40926 0.41424 0.0
H194 H 0.36174 0.39596 0.36488 0.0
H195 H 0.34814 0.39502 0.45931 0.0
H196 H 0.29852 0.42885 0.87185 0.0
H197 H 0.28795 0.43402 0.96755 0.0
H198 H 0.35407 0.38778 1.0107 0.0
H199 H 0.36468 0.38225 0.91529 0.0
Tb200 Tb 0.40793 0.67488 0.92515 0.0
Tb201 Tb 0.40357 0.63385 0.82299 0.0
C202 C 0.35486 0.655 0.88404 0.0
C203 C 0.41041 0.69617 0.06623 0.0
C204 C 0.40414 0.6834 0.17674 0.0
C205 C 0.39371 0.70645 0.15551 0.0
C206 C 0.39688 0.71277 0.10089 0.0
C207 C 0.42075 0.67314 0.08721 0.0
C208 C 0.41783 0.66695 0.1417 0.0
C209 C 0.41323 0.70252 1.00825 0.0
O210 O 0.40922 0.63643 0.96162 0.0
O211 O 0.3967 0.60905 0.89208 0.0
O212 O 0.43997 0.62695 0.86498 0.0
O213 O 0.44534 0.66898 0.88792 0.0
O214 O 0.38183 0.61101 0.76927 0.0
O215 O 0.42279 0.61595 0.75855 0.0
O216 O 0.41603 0.67089 0.79197 0.0
O217 O 0.39914 0.69875 0.85435 0.0
O218 O 0.36924 0.65964 0.92635 0.0
O219 O 0.36512 0.65033 0.83647 0.0
C220 C 0.40198 0.6136 0.94326 0.0
O221 O 0.43234 0.69128 0.9833 0.0
O222 O 0.39216 0.70213 0.97933 0.0
C223 C 0.45487 0.64572 0.8822 0.0
C224 C 0.39744 0.61542 0.68024 0.0
C225 C 0.39447 0.63125 0.57133 0.0
C226 C 0.39882 0.60515 0.58462 0.0
C227 C 0.40047 0.59735 0.63864 0.0
C228 C 0.39229 0.64131 0.66719 0.0
C229 C 0.39103 0.64921 0.61328 0.0
C230 C 0.40139 0.60771 0.7369 0.0
C231 C 0.40727 0.69378 0.80507 0.0
H232 H 0.38273 0.71947 0.18082 0.0
H233 H 0.38858 0.73054 0.08561 0.0
H234 H 0.43117 0.6598 0.06154 0.0
H235 H 0.42663 0.64931 0.15633 0.0
H236 H 0.40173 0.5909 0.55322 0.0
H237 H 0.40459 0.57731 0.64789 0.0
H238 H 0.38963 0.65548 0.6988 0.0
H239 H 0.38737 0.66938 0.6044 0.0
Tb240 Tb 0.63265 0.61185 0.22957 0.0
Tb241 Tb 0.67442 0.61914 0.12858 0.0
C242 C 0.6491 0.56521 0.15304 0.0
C243 C 0.61264 0.61233 0.37261 0.0
C244 C 0.62754 0.61588 0.48238 0.0
C245 C 0.60434 0.60354 0.46749 0.0
C246 C 0.59707 0.60166 0.41312 0.0
C247 C 0.63541 0.62528 0.38738 0.0
C248 C 0.64288 0.62688 0.4416 0.0
C249 C 0.60612 0.6082 0.31516 0.0
O250 O 0.67022 0.61872 0.26432 0.0
O251 O 0.69805 0.60613 0.19713 0.0
O252 O 0.67498 0.65343 0.17806 0.0
O253 O 0.63265 0.65216 0.20227 0.0
O254 O 0.70313 0.60595 0.07521 0.0
O255 O 0.68818 0.64477 0.06949 0.0
O256 O 0.63558 0.62729 0.09754 0.0
O257 O 0.60826 0.60791 0.15917 0.0
O258 O 0.64154 0.57264 0.20135 0.0
O259 O 0.65826 0.58128 0.11709 0.0
C260 C 0.69288 0.61048 0.24844 0.0
O261 O 0.60622 0.6285 0.2841 0.0
O262 O 0.61789 0.5889 0.29232 0.0
C263 C 0.65364 0.66538 0.19106 0.0
C264 C 0.69667 0.62355 0.98752 0.0
C265 C 0.68342 0.62033 0.87655 0.0
C266 C 0.69946 0.6403 0.89591 0.0
C267 C 0.70602 0.64183 0.95068 0.0
C268 C 0.68089 0.60342 0.9685 0.0
C269 C 0.67449 0.60174 0.91367 0.0
C270 C 0.70181 0.62688 0.04589 0.0
C271 C 0.61273 0.61817 0.11156 0.0
H272 H 0.59218 0.59467 0.49776 0.0
H273 H 0.57952 0.59142 0.40264 0.0
H274 H 0.64767 0.6338 0.35688 0.0
H275 H 0.66069 0.63678 0.45162 0.0
H276 H 0.70642 0.65524 0.86909 0.0
H277 H 0.71794 0.65771 0.96451 0.0
H278 H 0.67318 0.58917 0.99612 0.0
H279 H 0.66248 0.58583 0.9005 0.0
Tb280 Tb 0.60842 0.33994 0.93305 0.0
Tb281 Tb 0.61233 0.37917 0.82961 0.0
C282 C 0.66125 0.35655 0.88704 0.0
C283 C 0.607 0.31694 0.0732 0.0
C284 C 0.61381 0.32762 0.18407 0.0
C285 C 0.61785 0.30249 0.16375 0.0
C286 C 0.61445 0.29722 0.10874 0.0
C287 C 0.60304 0.34197 0.09329 0.0
C288 C 0.60627 0.34722 0.14803 0.0
C289 C 0.6034 0.31159 1.0153 0.0
O290 O 0.60924 0.37885 0.96863 0.0
O291 O 0.62287 0.40387 0.89655 0.0
O292 O 0.57743 0.38872 0.87428 0.0
O293 O 0.57034 0.34723 0.89942 0.0
O294 O 0.63449 0.39978 0.77291 0.0
O295 O 0.59304 0.39801 0.76641 0.0
O296 O 0.59627 0.34286 0.80249 0.0
O297 O 0.61588 0.31567 0.86208 0.0
O298 O 0.6477 0.35368 0.93111 0.0
O299 O 0.64985 0.36017 0.84014 0.0
C300 C 0.61785 0.40085 0.94828 0.0
O301 O 0.58443 0.32397 0.99229 0.0
O302 O 0.62418 0.31205 0.9857 0.0
C303 C 0.56186 0.37086 0.89283 0.0
C304 C 0.61669 0.39547 0.68595 0.0
C305 C 0.61948 0.37875 0.5778 0.0
C306 C 0.62488 0.40461 0.59143 0.0
C307 C 0.6234 0.41291 0.64511 0.0
C308 C 0.61181 0.36956 0.67259 0.0
C309 C 0.61307 0.3613 0.61907 0.0
C310 C 0.6145 0.4042 0.74228 0.0
C311 C 0.60561 0.32012 0.81444 0.0
H312 H 0.62389 0.28696 0.19016 0.0
H313 H 0.61767 0.27778 0.09397 0.0
H314 H 0.59719 0.35749 0.0667 0.0
H315 H 0.60244 0.36664 0.16214 0.0
H316 H 0.62969 0.41853 0.56044 0.0
H317 H 0.62728 0.43296 0.65465 0.0
H318 H 0.60684 0.35571 0.70351 0.0
H319 H 0.60916 0.3412 0.61001 0.0
Tb320 Tb 0.88231 0.60936 0.57272 0.0
Tb321 Tb 0.8419 0.6064 0.67492 0.0
C322 C 0.87043 0.55879 0.63389 0.0
C323 C 0.90062 0.61433 0.43018 0.0
C324 C 0.88478 0.61741 0.32133 0.0
C325 C 0.91103 0.61413 0.33468 0.0
C326 C 0.91886 0.61247 0.38867 0.0
C327 C 0.87451 0.6182 0.41712 0.0
C328 C 0.86662 0.61957 0.36324 0.0
C329 C 0.90851 0.6109 0.48683 0.0
O330 O 0.84566 0.59562 0.54261 0.0
O331 O 0.81785 0.61382 0.60335 0.0
O332 O 0.85658 0.6453 0.67258 0.0
O333 O 0.86393 0.64731 0.5819 0.0
O334 O 0.82485 0.58258 0.73316 0.0
O335 O 0.81524 0.62307 0.72914 0.0
O336 O 0.88057 0.60484 0.71115 0.0
O337 O 0.90642 0.61913 0.6411 0.0
O338 O 0.8894 0.57334 0.61633 0.0
O339 O 0.84733 0.56872 0.63893 0.0
C340 C 0.82277 0.60457 0.55484 0.0
O341 O 0.90506 0.63073 0.51842 0.0
O342 O 0.90051 0.58963 0.50931 0.0
C343 C 0.85982 0.65878 0.62853 0.0
C344 C 0.82046 0.60466 0.81599 0.0
C345 C 0.83311 0.61043 0.9266 0.0
C346 C 0.8105 0.62166 0.90515 0.0
C347 C 0.80423 0.61874 0.85043 0.0
C348 C 0.84307 0.59351 0.83724 0.0
C349 C 0.8492 0.59621 0.89179 0.0
C350 C 0.81415 0.60203 0.758 0.0
C351 C 0.90283 0.61345 0.69234 0.0
H352 H 0.92545 0.61216 0.30334 0.0
H353 H 0.93907 0.60936 0.39798 0.0
H354 H 0.86017 0.61988 0.44866 0.0
H355 H 0.84632 0.6224 0.35437 0.0
H356 H 0.79779 0.63304 0.93038 0.0
H357 H 0.7868 0.62766 0.83492 0.0
H358 H 0.85609 0.58262 0.81172 0.0
H359 H 0.86649 0.58683 0.9067 0.0
Tb360 Tb 0.60846 0.17753 0.3799 0.0
Tb361 Tb 0.61268 0.13759 0.48282 0.0
C362 C 0.66139 0.15992 0.4247 0.0
C363 C 0.60894 0.20125 0.24004 0.0
C364 C 0.61431 0.18928 0.12936 0.0
C365 C 0.60227 0.2124 0.14579 0.0
C366 C 0.59958 0.21829 0.20067 0.0
C367 C 0.62168 0.1786 0.22394 0.0
C368 C 0.6244 0.1727 0.16922 0.0
C369 C 0.6035 0.2059 0.29752 0.0
O370 O 0.60872 0.13871 0.34439 0.0
O371 O 0.62308 0.11316 0.41516 0.0
O372 O 0.57739 0.1291 0.43837 0.0
O373 O 0.57059 0.17087 0.41477 0.0
O374 O 0.63462 0.11646 0.53913 0.0
O375 O 0.5932 0.11858 0.54553 0.0
O376 O 0.59753 0.17394 0.51188 0.0
O377 O 0.61588 0.20159 0.45123 0.0
O378 O 0.64763 0.16339 0.38098 0.0
O379 O 0.65024 0.15626 0.4718 0.0
C380 C 0.61767 0.11664 0.3637 0.0
O381 O 0.58503 0.19177 0.3175 0.0
O382 O 0.62342 0.20673 0.32976 0.0
C383 C 0.56186 0.14732 0.42099 0.0
C384 C 0.6167 0.11991 0.62631 0.0
C385 C 0.6175 0.13573 0.73545 0.0
C386 C 0.61372 0.10959 0.72167 0.0
C387 C 0.61329 0.10179 0.66761 0.0
C388 C 0.62078 0.14596 0.63971 0.0
C389 C 0.62122 0.15379 0.69373 0.0
C390 C 0.61458 0.1119 0.56946 0.0
C391 C 0.60629 0.19684 0.49934 0.0
H392 H 0.59409 0.22553 0.11637 0.0
H393 H 0.58955 0.23579 0.21235 0.0
H394 H 0.62903 0.16516 0.25375 0.0
H395 H 0.6342 0.15499 0.1582 0.0
H396 H 0.61113 0.09511 0.75271 0.0
H397 H 0.61003 0.08163 0.65804 0.0
H398 H 0.62326 0.16031 0.60835 0.0
H399 H 0.62386 0.1741 0.70273 0.0
Tb400 Tb 0.13256 0.40428 0.57838 0.0
Tb401 Tb 0.17485 0.39857 0.67935 0.0
C402 C 0.14811 0.45187 0.65309 0.0
C403 C 0.11325 0.40619 0.43455 0.0
C404 C 0.12845 0.40486 0.32442 0.0
C405 C 0.13725 0.42456 0.35908 0.0
C406 C 0.12983 0.42518 0.41339 0.0
C407 C 0.10423 0.38667 0.40004 0.0
C408 C 0.11177 0.38594 0.34579 0.0
C409 C 0.10604 0.40585 0.49258 0.0
O410 O 0.17033 0.40016 0.54264 0.0
O411 O 0.19858 0.41106 0.6108 0.0
O412 O 0.17517 0.36403 0.63041 0.0
O413 O 0.13251 0.36478 0.60971 0.0
O414 O 0.20342 0.41213 0.73284 0.0
O415 O 0.18914 0.37304 0.73816 0.0
O416 O 0.13627 0.39104 0.71223 0.0
O417 O 0.10786 0.40719 0.6483 0.0
O418 O 0.14022 0.44385 0.60537 0.0
O419 O 0.15875 0.43663 0.68897 0.0
C420 C 0.19322 0.40746 0.55928 0.0
O421 O 0.1112 0.38465 0.51868 0.0
O422 O 0.1119 0.42613 0.52119 0.0
C423 C 0.15373 0.35175 0.61979 0.0
C424 C 0.19737 0.39412 0.82068 0.0
C425 C 0.18418 0.39731 0.93149 0.0
C426 C 0.19494 0.37457 0.90997 0.0
C427 C 0.20154 0.37305 0.8553 0.0
C428 C 0.18689 0.417 0.84217 0.0
C429 C 0.18053 0.41862 0.89703 0.0
C430 C 0.20238 0.39115 0.76207 0.0
C431 C 0.11298 0.39859 0.69709 0.0
H432 H 0.14977 0.43972 0.34426 0.0
H433 H 0.13727 0.44047 0.43883 0.0
H434 H 0.09157 0.37169 0.41528 0.0
H435 H 0.10487 0.3702 0.32091 0.0
H436 H 0.19826 0.35791 0.93547 0.0
H437 H 0.2095 0.35517 0.83978 0.0
H438 H 0.18312 0.43349 0.81647 0.0
H439 H 0.17206 0.43632 0.91216 0.0
Tb440 Tb 0.41008 0.84712 0.38535 0.0
Tb441 Tb 0.4088 0.88724 0.48843 0.0
C442 C 0.35864 0.8683 0.43072 0.0
C443 C 0.4079 0.82454 0.24488 0.0
C444 C 0.40339 0.83739 0.13448 0.0
C445 C 0.41254 0.81291 0.15039 0.0
C446 C 0.41485 0.80659 0.20515 0.0
C447 C 0.39803 0.84867 0.22926 0.0
C448 C 0.3958 0.85503 0.17466 0.0
C449 C 0.4129 0.81902 0.30223 0.0
O450 O 0.41306 0.88588 0.35031 0.0
O451 O 0.39964 0.91205 0.42065 0.0
O452 O 0.44506 0.89266 0.4448 0.0
O453 O 0.44804 0.85054 0.42131 0.0
O454 O 0.38861 0.91081 0.54322 0.0
O455 O 0.42956 0.90453 0.55163 0.0
O456 O 0.41998 0.84977 0.51896 0.0
O457 O 0.40157 0.82306 0.45619 0.0
O458 O 0.3721 0.86432 0.38689 0.0
O459 O 0.37008 0.87073 0.47792 0.0
C460 C 0.40508 0.90834 0.36935 0.0
O461 O 0.43241 0.8315 0.32282 0.0
O462 O 0.39293 0.8195 0.33429 0.0
C463 C 0.45887 0.87322 0.42676 0.0
C464 C 0.40542 0.90635 0.63139 0.0
C465 C 0.4032 0.89103 0.74077 0.0
C466 C 0.41233 0.91572 0.72631 0.0
C467 C 0.41349 0.92325 0.67215 0.0
C468 C 0.39582 0.8819 0.64548 0.0
C469 C 0.39474 0.8743 0.6996 0.0
C470 C 0.40875 0.91355 0.57433 0.0
C471 C 0.41022 0.82736 0.50544 0.0
H472 H 0.41877 0.79894 0.1206 0.0
H473 H 0.42268 0.78794 0.21645 0.0
H474 H 0.39255 0.86281 0.25934 0.0
H475 H 0.3883 0.87389 0.16394 0.0
H476 H 0.41862 0.92927 0.75687 0.0
H477 H 0.42104 0.94216 0.66205 0.0
H478 H 0.38961 0.86852 0.6145 0.0
H479 H 0.38791 0.85505 0.70902 0.0
Tb480 Tb 0.87953 0.90211 0.72953 0.0
Tb481 Tb 0.84017 0.90665 0.62605 0.0
C482 C 0.87093 0.95297 0.66736 0.0
C483 C 0.89684 0.89782 0.87322 0.0
C484 C 0.88093 0.89716 0.98217 0.0
C485 C 0.90719 0.90012 0.96863 0.0
C486 C 0.91504 0.90048 0.91465 0.0
C487 C 0.87067 0.89453 0.88636 0.0
C488 C 0.86278 0.89417 0.9403 0.0
C489 C 0.90496 0.8999 0.81651 0.0
O490 O 0.84333 0.91782 0.75791 0.0
O491 O 0.81586 0.89933 0.69714 0.0
O492 O 0.8538 0.8673 0.62689 0.0
O493 O 0.86079 0.86455 0.71775 0.0
O494 O 0.82645 0.93025 0.5635 0.0
O495 O 0.81052 0.89228 0.5762 0.0
O496 O 0.87901 0.90515 0.59038 0.0
O497 O 0.90432 0.89197 0.66255 0.0
O498 O 0.88883 0.9372 0.68519 0.0
O499 O 0.8473 0.94455 0.66061 0.0
C500 C 0.82046 0.90904 0.74527 0.0
O501 O 0.90027 0.87992 0.78603 0.0
O502 O 0.89849 0.92136 0.79267 0.0
C503 C 0.85705 0.85347 0.67053 0.0
C504 C 0.81602 0.90648 0.48638 0.0
C505 C 0.82763 0.90086 0.37569 0.0
C506 C 0.80517 0.91403 0.39229 0.0
C507 C 0.79947 0.91685 0.44718 0.0
C508 C 0.83797 0.89263 0.4701 0.0
C509 C 0.84368 0.88978 0.41535 0.0
C510 C 0.81176 0.91212 0.54385 0.0
C511 C 0.90111 0.89676 0.61076 0.0
H512 H 0.92172 0.90211 0.99981 0.0
H513 H 0.93531 0.90311 0.90526 0.0
H514 H 0.85628 0.89262 0.85486 0.0
H515 H 0.84239 0.89217 0.94914 0.0
H516 H 0.79249 0.923 0.363 0.0
H517 H 0.78254 0.92778 0.45904 0.0
H518 H 0.85103 0.88453 0.4998 0.0
H519 H 0.86087 0.87913 0.40413 0.0
Tb520 Tb 0.9079 0.17246 0.42741 0.0
Tb521 Tb 0.90517 0.13178 0.32481 0.0
C522 C 0.85576 0.15325 0.38247 0.0
C523 C 0.90898 0.19414 0.56838 0.0
C524 C 0.90275 0.18182 0.67902 0.0
C525 C 0.89342 0.20538 0.658 0.0
C526 C 0.89658 0.21148 0.60327 0.0
C527 C 0.91818 0.17059 0.58912 0.0
C528 C 0.9153 0.16462 0.64369 0.0
C529 C 0.91202 0.20034 0.51047 0.0
O530 O 0.90965 0.13393 0.4636 0.0
O531 O 0.89766 0.10684 0.39323 0.0
O532 O 0.94159 0.12543 0.36732 0.0
O533 O 0.9456 0.16749 0.39114 0.0
O534 O 0.88388 0.10859 0.271 0.0
O535 O 0.92472 0.11449 0.2601 0.0
O536 O 0.91803 0.16883 0.29497 0.0
O537 O 0.89959 0.19629 0.35616 0.0
O538 O 0.86947 0.15665 0.42618 0.0
O539 O 0.86696 0.14936 0.33553 0.0
C540 C 0.90267 0.11113 0.44459 0.0
O541 O 0.93151 0.18935 0.48634 0.0
O542 O 0.89115 0.19937 0.48099 0.0
C543 C 0.95583 0.14454 0.38534 0.0
C544 C 0.89921 0.1138 0.18206 0.0
C545 C 0.89539 0.12998 0.07358 0.0
C546 C 0.89912 0.10373 0.08634 0.0
C547 C 0.90121 0.09575 0.14017 0.0
C548 C 0.89465 0.13986 0.16954 0.0
C549 C 0.893 0.14794 0.11582 0.0
C550 C 0.90346 0.10587 0.23846 0.0
C551 C 0.90861 0.19153 0.30744 0.0
H552 H 0.88335 0.21901 0.68358 0.0
H553 H 0.88919 0.22968 0.58814 0.0
H554 H 0.92775 0.15674 0.5632 0.0
H555 H 0.92325 0.14656 0.65816 0.0
H556 H 0.9012 0.08949 0.05464 0.0
H557 H 0.90481 0.07557 0.14904 0.0
H558 H 0.89274 0.15401 0.20141 0.0
H559 H 0.88983 0.16822 0.1073 0.0
Tb560 Tb 0.13193 0.11035 0.73786 0.0
Tb561 Tb 0.17252 0.10569 0.63564 0.0
C562 C 0.1434 0.05905 0.67885 0.0
C563 C 0.11337 0.11617 0.88028 0.0
C564 C 0.1293 0.11889 0.98915 0.0
C565 C 0.1032 0.11455 0.97588 0.0
C566 C 0.09535 0.11303 0.92187 0.0
C567 C 0.13927 0.12126 0.89333 0.0
C568 C 0.14722 0.1224 0.94722 0.0
C569 C 0.1056 0.11254 0.82358 0.0
O570 O 0.16882 0.0975 0.76894 0.0
O571 O 0.19666 0.11412 0.70625 0.0
O572 O 0.15837 0.14489 0.63627 0.0
O573 O 0.14988 0.14822 0.7266 0.0
O574 O 0.18898 0.08118 0.57781 0.0
O575 O 0.19945 0.12144 0.58087 0.0
O576 O 0.13381 0.10403 0.60004 0.0
O577 O 0.1081 0.12004 0.66878 0.0
O578 O 0.12464 0.07418 0.69523 0.0
O579 O 0.16671 0.06844 0.67359 0.0
C580 C 0.1917 0.10618 0.75568 0.0
O581 O 0.10924 0.13217 0.79156 0.0
O582 O 0.11351 0.09109 0.80163 0.0
C583 C 0.15453 0.15891 0.67945 0.0
C584 C 0.19391 0.10274 0.49439 0.0
C585 C 0.18137 0.1087 0.38369 0.0
C586 C 0.20414 0.11957 0.4052 0.0
C587 C 0.21035 0.11655 0.45993 0.0
C588 C 0.17119 0.0919 0.47309 0.0
C589 C 0.16511 0.09467 0.4185 0.0
C590 C 0.2001 0.10023 0.55251 0.0
C591 C 0.11175 0.11353 0.61797 0.0
H592 H 0.08899 0.11158 1.00727 0.0
H593 H 0.0753 0.10898 0.9126 0.0
H594 H 0.15341 0.12401 0.86173 0.0
H595 H 0.16739 0.12606 0.9561 0.0
H596 H 0.21701 0.13079 0.38005 0.0
H597 H 0.2279 0.12522 0.47545 0.0
H598 H 0.158 0.08122 0.49861 0.0
H599 H 0.1477 0.08554 0.40359 0.0
Tb600 Tb 0.11836 0.83959 0.43212 0.0
Tb601 Tb 0.11168 0.88087 0.33079 0.0
C602 C 0.16556 0.86209 0.37421 0.0
C603 C 0.12119 0.81748 0.57265 0.0
C604 C 0.1176 0.82976 0.68381 0.0
C605 C 0.12267 0.80425 0.66681 0.0
C606 C 0.1245 0.7982 0.61177 0.0
C607 C 0.11577 0.84282 0.58929 0.0
C608 C 0.1141 0.84892 0.64412 0.0
C609 C 0.12444 0.81159 0.51476 0.0
O610 O 0.12639 0.87834 0.4636 0.0
O611 O 0.10767 0.9056 0.40074 0.0
O612 O 0.07256 0.87025 0.35717 0.0
O613 O 0.08132 0.85736 0.44388 0.0
O614 O 0.12739 0.90722 0.27496 0.0
O615 O 0.0879 0.89486 0.26852 0.0
O616 O 0.12169 0.84366 0.29774 0.0
O617 O 0.10534 0.8167 0.36226 0.0
O618 O 0.15422 0.84045 0.38775 0.0
O619 O 0.15185 0.88222 0.35874 0.0
C620 C 0.1176 0.90124 0.4488 0.0
O621 O 0.10346 0.81167 0.48555 0.0
O622 O 0.14307 0.82408 0.49098 0.0
C623 C 0.06505 0.86462 0.4065 0.0
C624 C 0.11036 0.9001 0.1872 0.0
C625 C 0.11298 0.88429 0.07795 0.0
C626 C 0.09659 0.90464 0.09381 0.0
C627 C 0.0953 0.91242 0.14784 0.0
C628 C 0.12704 0.88003 0.17154 0.0
C629 C 0.1284 0.87226 0.11747 0.0
C630 C 0.10681 0.90677 0.24468 0.0
C631 C 0.11227 0.82125 0.31195 0.0
H632 H 0.12511 0.78888 0.69599 0.0
H633 H 0.12868 0.77851 0.59979 0.0
H634 H 0.11319 0.85803 0.55981 0.0
H635 H 0.1106 0.86884 0.6553 0.0
H636 H 0.08469 0.91456 0.06443 0.0
H637 H 0.08216 0.92781 0.15906 0.0
H638 H 0.13867 0.87004 0.2013 0.0
H639 H 0.141 0.85634 0.10691 0.0
H640 H 0.42149 0.91258 0.26418 0.0
H641 H 0.37961 0.9535 0.38844 0.0
H642 H 0.41347 0.94844 0.20163 0.0
H643 H 0.37155 0.98884 0.32608 0.0
H644 H 0.33589 0.0321 0.18733 0.0
H645 H 0.34504 0.99325 0.23904 0.0
H646 H 0.42545 0.99809 0.19467 0.0
H647 H 0.41644 0.03742 0.1428 0.0
C648 C 0.41067 0.92918 0.27822 0.0
C649 C 0.40122 0.93016 0.33141 0.0
C650 C 0.40615 0.94968 0.24244 0.0
C651 C 0.39172 0.97128 0.25893 0.0
C652 C 0.38246 0.97228 0.31208 0.0
C653 C 0.38725 0.95207 0.34792 0.0
C654 C 0.3555 0.02478 0.18774 0.0
C655 C 0.37549 0.03808 0.16126 0.0
C656 C 0.36072 1.00255 0.21764 0.0
C657 C 0.38599 0.99288 0.22142 0.0
C658 C 0.40578 1.00515 0.19235 0.0
C659 C 0.4006 0.02766 0.16273 0.0
H660 H 0.95163 0.6287 0.66684 0.0
H661 H 0.90432 0.60669 0.80289 0.0
H662 H 0.98752 0.63702 0.72687 0.0
H663 H 0.94079 0.61542 0.86366 0.0
H664 H 0.02799 0.60845 0.93336 0.0
H665 H 0.98704 0.59986 0.88598 0.0
H666 H 0.99668 0.67033 0.79504 0.0
H667 H 0.03729 0.67851 0.84101 0.0
C668 C 0.94879 0.62563 0.70962 0.0
C669 C 0.9249 0.61722 0.7299 0.0
C670 C 0.96943 0.63057 0.74417 0.0
C671 C 0.96688 0.62733 0.80015 0.0
C672 C 0.9433 0.61815 0.8207 0.0
C673 C 0.92243 0.61322 0.78587 0.0
C674 C 0.02092 0.62233 0.90416 0.0
C675 C 0.03594 0.64394 0.89025 0.0
C676 C 0.99756 0.61741 0.87701 0.0
C677 C 0.98898 0.63412 0.83588 0.0
C678 C 1.0031 0.65673 0.82545 0.0
C679 C 0.02631 0.66149 0.85201 0.0
H680 H 0.68485 0.99053 0.18353 0.0
H681 H 0.60371 0.98567 0.14335 0.0
H682 H 0.67681 0.02997 0.23403 0.0
H683 H 0.59578 0.02555 0.19409 0.0
H684 H 0.6 0.1111 0.25965 0.0
H685 H 0.60746 0.07463 0.19844 0.0
H686 H 0.65237 0.03646 0.32165 0.0
H687 H 0.64493 0.07247 0.38266 0.0
C688 C 0.66533 0.99805 0.1847 0.0
C689 C 0.64487 0.98474 0.15971 0.0
C690 C 0.66074 0.02062 0.21393 0.0
C691 C 0.63563 0.03064 0.21859 0.0
C692 C 0.61534 0.01826 0.19109 0.0
C693 C 0.6199 0.99543 0.16211 0.0
C694 C 0.61146 0.09491 0.27364 0.0
C695 C 0.62186 0.09472 0.32614 0.0
C696 C 0.61562 0.07402 0.23865 0.0
C697 C 0.63062 0.05281 0.25518 0.0
C698 C 0.64099 0.05269 0.30755 0.0
C699 C 0.63657 0.07329 0.34265 0.0
H700 H 0.99453 0.33672 0.90393 0.0
H701 H 0.97487 0.41776 0.89609 0.0
H702 H 0.03405 0.34515 0.85346 0.0
H703 H 0.01449 0.42616 0.8455 0.0
H704 H 0.06436 0.4191 0.68905 0.0
H705 H 0.02845 0.41406 0.75168 0.0
H706 H 0.07673 0.36816 0.8566 0.0
H707 H 0.11275 0.3731 0.79397 0.0
C708 C 0.99889 0.35641 0.89229 0.0
C709 C 0.98153 0.37655 0.90391 0.0
C710 C 0.02158 0.36124 0.86351 0.0
C711 C 0.02728 0.38628 0.84515 0.0
C712 C 0.01046 0.40662 0.85865 0.0
C713 C 0.98789 0.40183 0.88805 0.0
C714 C 0.0674 0.408 0.72553 0.0
C715 C 0.09142 0.39634 0.7362 0.0
C716 C 0.04686 0.40532 0.76167 0.0
C717 C 0.04977 0.39073 0.8091 0.0
C718 C 0.07386 0.37937 0.82019 0.0
C719 C 0.09451 0.38227 0.78433 0.0
H720 H 0.42009 0.47265 0.1322 0.0
H721 H 0.34304 0.50035 0.16558 0.0
H722 H 0.42868 0.51159 0.07906 0.0
H723 H 0.35199 0.53962 0.11363 0.0
H724 H 0.39186 0.61617 0.05128 0.0
H725 H 0.38698 0.58004 0.11447 0.0
H726 H 0.40361 0.52624 0.98628 0.0
H727 H 0.4078 0.56215 0.92273 0.0
C728 C 0.40526 0.48737 0.12946 0.0
C729 C 0.3809 0.48352 0.15309 0.0
C730 C 0.41014 0.50952 0.09877 0.0
C731 C 0.39096 0.52847 0.09231 0.0
C732 C 0.36711 0.52531 0.11833 0.0
C733 C 0.362 0.50288 0.14793 0.0
C734 C 0.39457 0.59663 0.03667 0.0
C735 C 0.40007 0.59195 0.98199 0.0
C736 C 0.39173 0.57603 0.07277 0.0
C737 C 0.39504 0.55047 0.05513 0.0
C738 C 0.40117 0.54583 1.00086 0.0
C739 C 0.40339 0.56634 0.96451 0.0
H740 H 0.61171 0.64489 1.01617 0.0
H741 H 0.56455 0.59653 0.1185 0.0
H742 H 0.57553 0.64982 0.95383 0.0
H743 H 0.52843 0.60159 0.05613 0.0
H744 H 0.47473 0.5987 0.91125 0.0
H745 H 0.51441 0.59047 0.96205 0.0
H746 H 0.53258 0.67184 0.95752 0.0
H747 H 0.49305 0.68009 0.90679 0.0
C748 C 0.5937 0.63521 1.02534 0.0
C749 C 0.59102 0.62046 0.07266 0.0
C750 C 0.57295 0.63811 0.98962 0.0
C751 C 0.54913 0.6261 1.00004 0.0
C752 C 0.54663 0.61086 0.04665 0.0
C753 C 0.56728 0.60815 0.08264 0.0
C754 C 0.48746 0.61475 0.9201 0.0
C755 C 0.48072 0.64006 0.90504 0.0
C756 C 0.51006 0.61006 0.94964 0.0
C757 C 0.52652 0.63053 0.96413 0.0
C758 C 0.5204 0.65564 0.94669 0.0
C759 C 0.4977 0.66037 0.91774 0.0
H760 H 0.61148 0.5297 0.1799 0.0
H761 H 0.68097 0.53941 0.08609 0.0
H762 H 0.60382 0.48784 0.1355 0.0
H763 H 0.67379 0.49789 0.04321 0.0
H764 H 0.63355 0.44906 0.9192 0.0
H765 H 0.64146 0.48611 0.97611 0.0
H766 H 0.61972 0.44193 0.11653 0.0
H767 H 0.61132 0.4043 0.05881 0.0
C768 C 0.62544 0.52258 0.15099 0.0
C769 C 0.64661 0.53794 0.13585 0.0
C770 C 0.62106 0.49867 0.12555 0.0
C771 C 0.63789 0.48984 0.0849 0.0
C772 C 0.66006 0.50443 0.0732 0.0
C773 C 0.66426 0.52819 0.09803 0.0
C774 C 0.63041 0.447 0.96214 0.0
C775 C 0.62198 0.42347 0.98428 0.0
C776 C 0.63512 0.46833 0.99494 0.0
C777 C 0.63165 0.46689 0.05104 0.0
C778 C 0.62261 0.44362 0.07344 0.0
C779 C 0.61789 0.42206 0.04037 0.0
H780 H 0.40316 0.38991 1.01282 0.0
H781 H 0.45619 0.41006 0.14065 0.0
H782 H 0.43969 0.38376 0.95125 0.0
H783 H 0.49251 0.40455 0.07872 0.0
H784 H 0.54718 0.41745 0.93394 0.0
H785 H 0.50788 0.427 0.98515 0.0
H786 H 0.48011 0.34974 0.95539 0.0
H787 H 0.51969 0.33988 0.90534 0.0
C788 C 0.42256 0.39326 1.02759 0.0
C789 C 0.42684 0.40033 0.08162 0.0
C790 C 0.4434 0.38969 0.99242 0.0
C791 C 0.46882 0.39382 1.01031 0.0
C792 C 0.47306 0.40146 0.06391 0.0
C793 C 0.4523 0.40442 0.09937 0.0
C794 C 0.53245 0.40268 0.93735 0.0
C795 C 0.53645 0.37792 0.91564 0.0
C796 C 0.51009 0.4081 0.96693 0.0
C797 C 0.49109 0.38906 0.97421 0.0
C798 C 0.49444 0.36476 0.95006 0.0
C799 C 0.51706 0.35914 0.92155 0.0
H800 H 0.92074 0.40803 0.76439 0.0
H801 H 0.87273 0.44662 0.88205 0.0
H802 H 0.91416 0.44411 0.70174 0.0
H803 H 0.86615 0.48225 0.81955 0.0
H804 H 0.83509 0.52567 0.67642 0.0
H805 H 0.84323 0.48676 0.72851 0.0
H806 H 0.92496 0.494 0.69814 0.0
H807 H 0.91692 0.53346 0.64585 0.0
C808 C 0.90881 0.42414 0.77691 0.0
C809 C 0.89724 0.42442 0.82828 0.0
C810 C 0.90516 0.4448 0.74111 0.0
C811 C 0.88952 0.46585 0.7557 0.0
C812 C 0.87806 0.46611 0.807 0.0
C813 C 0.88197 0.44574 0.84294 0.0
C814 C 0.85482 0.5189 0.68002 0.0
C815 C 0.8754 0.5329 0.65734 0.0
C816 C 0.85945 0.49662 0.71013 0.0
C817 C 0.88474 0.4876 0.71798 0.0
C818 C 0.90526 0.50058 0.69265 0.0
C819 C 0.90065 0.52314 0.66276 0.0
H820 H 0.5463 0.10091 0.38044 0.0
H821 H 0.52013 0.17901 0.40852 0.0
H822 H 0.50668 0.09189 0.32984 0.0
H823 H 0.48023 0.1697 0.35898 0.0
H824 H 0.40253 0.13127 0.30229 0.0
H825 H 0.43931 0.13675 0.36362 0.0
H826 H 0.49134 0.11396 0.23644 0.0
H827 H 0.45477 0.10908 0.17476 0.0
C828 C 0.5318 0.11593 0.37703 0.0
C829 C 0.53628 0.14067 0.39842 0.0
C830 C 0.50925 0.1108 0.3478 0.0
C831 C 0.49053 0.13013 0.34051 0.0
C832 C 0.49434 0.15444 0.36434 0.0
C833 C 0.51715 0.15976 0.39254 0.0
C834 C 0.4218 0.12729 0.28756 0.0
C835 C 0.4258 0.11985 0.23368 0.0
C836 C 0.44279 0.13049 0.32258 0.0
C837 C 0.46806 0.12566 0.30469 0.0
C838 C 0.472 0.1176 0.25127 0.0
C839 C 0.4511 0.11499 0.21595 0.0
H840 H 0.08998 0.5661 0.865 0.0
H841 H 0.15108 0.6085 0.78612 0.0
H842 H 0.09651 0.53011 0.80237 0.0
H843 H 0.15778 0.57233 0.7243 0.0
H844 H 0.18283 0.48418 0.69855 0.0
H845 H 0.17402 0.52511 0.74418 0.0
H846 H 0.09392 0.51999 0.6969 0.0
H847 H 0.103 0.47918 0.64967 0.0
C848 C 0.10473 0.56778 0.83426 0.0
C849 C 0.12012 0.5901 0.83082 0.0
C850 C 0.10829 0.54729 0.79813 0.0
C851 C 0.1276 0.5485 0.75842 0.0
C852 C 0.14276 0.57091 0.75453 0.0
C853 C 0.13889 0.59159 0.78996 0.0
C854 C 0.16353 0.49225 0.69649 0.0
C855 C 0.14366 0.47879 0.67009 0.0
C856 C 0.15848 0.51561 0.72266 0.0
C857 C 0.13328 0.52564 0.72424 0.0
C858 C 0.11351 0.51262 0.69631 0.0
C859 C 0.11873 0.48949 0.66886 0.0
H860 H 0.56993 0.87928 0.17539 0.0
H861 H 0.61127 0.92055 0.30005 0.0
H862 H 0.53431 0.87194 0.23734 0.0
H863 H 0.57517 0.91324 0.36219 0.0
H864 H 0.48687 0.91838 0.42189 0.0
H865 H 0.5263 0.92625 0.3697 0.0
H866 H 0.52828 0.84591 0.32354 0.0
H867 H 0.48932 0.83791 0.37555 0.0
C868 C 0.57142 0.88691 0.21593 0.0
C869 C 0.59352 0.90053 0.23261 0.0
C870 C 0.55103 0.88253 0.25157 0.0
C871 C 0.55202 0.89187 0.30471 0.0
C872 C 0.57388 0.90588 0.3214 0.0
C873 C 0.59454 0.90997 0.28584 0.0
C874 C 0.49601 0.90231 0.40144 0.0
C875 C 0.48477 0.87756 0.40263 0.0
C876 C 0.51858 0.90683 0.37162 0.0
C877 C 0.53014 0.88676 0.34198 0.0
C878 C 0.51958 0.86183 0.34531 0.0
C879 C 0.49728 0.85725 0.37543 0.0
H880 H 0.91768 0.96806 0.62788 0.0
H881 H 0.8399 0.99525 0.65538 0.0
H882 H 0.92742 1.0078 0.57834 0.0
H883 H 0.84998 0.0353 0.60705 0.0
H884 H 0.89083 0.1127 0.55206 0.0
H885 H 0.88489 0.07588 0.61324 0.0
H886 H 0.90436 0.02349 0.48427 0.0
H887 H 0.90958 0.06003 0.42277 0.0
C888 C 0.90289 0.98281 0.62461 0.0
C889 C 0.87801 0.97858 0.64547 0.0
C890 C 0.90845 1.00543 0.59603 0.0
C891 C 0.88943 0.0245 0.58895 0.0
C892 C 0.865 0.02092 0.61231 0.0
C893 C 0.85924 0.99803 0.63979 0.0
C894 C 0.89398 0.09332 0.53692 0.0
C895 C 0.90052 0.0892 0.48257 0.0
C896 C 0.89052 0.07233 0.57185 0.0
C897 C 0.89428 0.04695 0.55337 0.0
C898 C 0.90155 0.0429 0.49952 0.0
C899 C 0.90437 0.06379 0.46432 0.0
H900 H 0.06794 0.14178 0.63323 0.0
H901 H 0.10651 0.09372 0.51562 0.0
H902 H 0.03258 0.14879 0.5703 0.0
H903 H 0.07071 0.10078 0.45242 0.0
H904 H 0.98165 0.09829 0.39554 0.0
H905 H 0.02118 0.09025 0.44749 0.0
H906 H 0.02784 0.17185 0.4802 0.0
H907 H 0.98877 0.18 0.4285 0.0
C908 C 0.06887 0.13262 0.59402 0.0
C909 C 0.0901 0.1172 0.57953 0.0
C910 C 0.04866 0.13681 0.55781 0.0
C911 C 0.049 0.12549 0.50634 0.0
C912 C 0.06997 0.1097 0.4919 0.0
C913 C 0.09046 0.10576 0.52801 0.0
C914 C 0.99186 0.11456 0.41285 0.0
C915 C 0.98187 0.13975 0.40828 0.0
C916 C 0.01448 0.10993 0.44255 0.0
C917 C 0.02731 0.1304 0.4685 0.0
C918 C 0.0181 0.15567 0.46135 0.0
C919 C 0.99574 0.16031 0.43146 0.0
H920 H 0.0966 0.94968 0.43998 0.0
H921 H 0.14296 0.90212 0.54587 0.0
H922 H 0.10106 0.98581 0.50243 0.0
H923 H 0.14728 0.93831 0.60827 0.0
H924 H 0.17766 0.02046 0.65682 0.0
H925 H 0.16976 0.98099 0.60578 0.0
H926 H 0.0887 1.0001 0.59565 0.0
H927 H 0.09659 0.03974 0.6468 0.0
C928 C 0.10765 0.94686 0.47662 0.0
C929 C 0.11958 0.92301 0.48759 0.0
C930 C 0.11001 0.96753 0.51265 0.0
C931 C 0.12452 0.96491 0.5603 0.0
C932 C 0.13614 0.94098 0.57168 0.0
C933 C 0.1336 0.92023 0.53591 0.0
C934 C 0.15806 0.01603 0.64457 0.0
C935 C 0.13776 0.03325 0.65582 0.0
C936 C 0.15353 0.99336 0.61544 0.0
C937 C 0.12864 0.98751 0.59635 0.0
C938 C 0.10814 1.00423 0.60936 0.0
C939 C 0.11262 0.0268 0.6391 0.0
H940 H 0.02896 0.90123 0.37659 0.0
H941 H 0.0397 0.83328 0.4749 0.0
H942 H 0.98705 0.90906 0.42069 0.0
H943 H 0.99814 0.8406 0.51752 0.0
H944 H 0.9498 0.8825 0.63981 0.0
H945 H 0.98662 0.87416 0.58256 0.0
H946 H 0.94118 0.89275 0.4417 0.0
H947 H 0.90375 0.90154 0.49974 0.0
C948 C 0.02202 0.8876 0.40637 0.0
C949 C 0.03767 0.86685 0.42289 0.0
C950 C 0.9981 0.89208 0.43166 0.0
C951 C 0.98958 0.87577 0.47352 0.0
C952 C 1.00444 0.85392 0.48653 0.0
C953 C 0.0282 0.84963 0.46185 0.0
C954 C 0.94742 0.88484 0.5967 0.0
C955 C 0.92361 0.8925 0.57454 0.0
C956 C 0.96861 0.8799 0.56372 0.0
C957 C 0.96675 0.88234 0.50743 0.0
C958 C 0.9432 0.89065 0.48494 0.0
C959 C 0.92177 0.8956 0.5182 0.0
H960 H 0.34853 0.19239 0.22263 0.0
H961 H 0.37598 0.20058 0.05904 0.0
H962 H 0.34875 0.23891 0.23344 0.0
H963 H 0.37689 0.2475 0.07048 0.0
H964 H 0.34841 0.33057 0.09103 0.0
H965 H 0.34885 0.28401 0.07969 0.0
H966 H 0.37683 0.27515 0.24287 0.0
H967 H 0.37569 0.32198 0.2548 0.0
C968 C 0.35478 0.20411 0.1889 0.0
C969 C 0.36222 0.19266 0.13982 0.0
C970 C 0.35509 0.2309 0.19536 0.0
C971 C 0.36298 0.24708 0.15304 0.0
C972 C 0.37041 0.23567 0.1038 0.0
C973 C 0.36998 0.20875 0.09722 0.0
C974 C 0.35463 0.31876 0.12468 0.0
C975 C 0.36194 0.33009 0.174 0.0
C976 C 0.35508 0.29197 0.11792 0.0
C977 C 0.36297 0.27571 0.16019 0.0
C978 C 0.37031 0.28703 0.2096 0.0
C979 C 0.36974 0.31391 0.21647 0.0
H980 H 0.32806 0.678 0.96479 0.0
H981 H 0.31753 0.63155 0.82169 0.0
H982 H 0.28191 0.6764 0.98222 0.0
H983 H 0.27085 0.6299 0.83961 0.0
H984 H 0.19374 0.61089 0.93246 0.0
H985 H 0.24031 0.61113 0.91394 0.0
H986 H 0.24181 0.6938 0.93665 0.0
H987 H 0.19555 0.69363 0.95477 0.0
C988 C 0.31587 0.66747 0.93688 0.0
C989 C 0.32648 0.65493 0.89173 0.0
C990 C 0.28939 0.66664 0.94689 0.0
C991 C 0.27279 0.65299 0.91239 0.0
C992 C 0.28327 0.64039 0.86711 0.0
C993 C 0.30989 0.64154 0.85658 0.0
C994 C 0.20412 0.62903 0.93418 0.0
C995 C 0.19103 0.65223 0.9454 0.0
C996 C 0.23067 0.6292 0.92292 0.0
C997 C 0.24462 0.6525 0.92361 0.0
C998 C 0.23159 0.67554 0.93606 0.0
C999 C 0.20509 0.67543 0.94647 0.0
H1000 H 0.6331 0.82212 0.06886 0.0
H1001 H 0.6789 0.83035 0.21361 0.0
H1002 H 0.63112 0.77518 0.08398 0.0
H1003 H 0.67699 0.784 0.22825 0.0
H1004 H 0.6944 0.69827 0.1961 0.0
H1005 H 0.69462 0.74468 0.17992 0.0
H1006 H 0.61196 0.74353 0.15685 0.0
H1007 H 0.61166 0.69674 0.17345 0.0
C1008 C 0.64287 0.81393 0.10351 0.0
C1009 C 0.65619 0.82993 0.13993 0.0
C1010 C 0.64154 0.78717 0.11244 0.0
C1011 C 0.65388 0.77599 0.15736 0.0
C1012 C 0.66742 0.79202 0.19316 0.0
C1013 C 0.66844 0.81862 0.18474 0.0
C1014 C 0.67621 0.7079 0.18806 0.0
C1015 C 0.65299 0.69387 0.18639 0.0
C1016 C 0.67635 0.73448 0.17876 0.0
C1017 C 0.65333 0.74768 0.16687 0.0
C1018 C 0.63001 0.73376 0.16544 0.0
C1019 C 0.62981 0.70709 0.17559 0.0
H1020 H 0.82778 0.3447 0.83977 0.0
H1021 H 0.81932 0.37167 1.00369 0.0
H1022 H 0.78116 0.34373 0.82949 0.0
H1023 H 0.77242 0.37143 0.99283 0.0
H1024 H 0.69 0.3423 0.97421 0.0
H1025 H 0.73665 0.3427 0.98404 0.0
H1026 H 0.74417 0.37101 0.8209 0.0
H1027 H 0.69723 0.36989 0.81051 0.0
C1028 C 0.81598 0.35056 0.87366 0.0
C1029 C 0.82735 0.35824 0.92268 0.0
C1030 C 0.78915 0.35018 0.86754 0.0
C1031 C 0.77292 0.35759 0.91016 0.0
C1032 C 0.7843 0.36525 0.95931 0.0
C1033 C 0.8112 0.36549 0.96554 0.0
C1034 C 0.70155 0.34856 0.94025 0.0
C1035 C 0.68983 0.35607 0.89148 0.0
C1036 C 0.72838 0.34898 0.94611 0.0
C1037 C 0.74428 0.35705 0.90348 0.0
C1038 C 0.73257 0.36439 0.85445 0.0
C1039 C 0.70564 0.36382 0.84847 0.0
H1040 H 0.8731 0.69521 0.55247 0.0
H1041 H 0.84448 0.68717 0.71519 0.0
H1042 H 0.87299 0.74221 0.56306 0.0
H1043 H 0.8437 0.73373 0.72516 0.0
H1044 H 0.87001 0.81704 0.74657 0.0
H1045 H 0.87136 0.77019 0.7352 0.0
H1046 H 0.84461 0.77855 0.571 0.0
H1047 H 0.84398 0.82516 0.58183 0.0
C1048 C 0.86659 0.70343 0.59025 0.0
C1049 C 0.85889 0.68737 0.63293 0.0
C1050 C 0.86644 0.73038 0.59634 0.0
C1051 C 0.85846 0.74185 0.64516 0.0
C1052 C 0.85048 0.72568 0.68744 0.0
C1053 C 0.85076 0.69888 0.68147 0.0
C1054 C 0.86434 0.80885 0.70815 0.0
C1055 C 0.85688 0.8249 0.66523 0.0
C1056 C 0.86504 0.78196 0.70159 0.0
C1057 C 0.85813 0.77049 0.65206 0.0
C1058 C 0.85051 0.78662 0.60937 0.0
C1059 C 0.84994 0.81343 0.61582 0.0
H1060 H 0.82782 0.16775 0.47034 0.0
H1061 H 0.81901 0.14102 0.30627 0.0
H1062 H 0.78131 0.1694 0.48045 0.0
H1063 H 0.77205 0.14196 0.31701 0.0
H1064 H 0.69004 0.17325 0.33683 0.0
H1065 H 0.73662 0.17137 0.32614 0.0
H1066 H 0.74413 0.14267 0.48903 0.0
H1067 H 0.69735 0.14528 0.5003 0.0
C1068 C 0.81596 0.16203 0.43638 0.0
C1069 C 0.82722 0.15423 0.38738 0.0
C1070 C 0.78918 0.16281 0.44241 0.0
C1071 C 0.77282 0.15568 0.39975 0.0
C1072 C 0.78405 0.14788 0.35058 0.0
C1073 C 0.81097 0.14724 0.34442 0.0
C1074 C 0.70158 0.1666 0.37055 0.0
C1075 C 0.68992 0.15949 0.41958 0.0
C1076 C 0.72836 0.16532 0.36417 0.0
C1077 C 0.74422 0.15676 0.40654 0.0
C1078 C 0.73256 0.14969 0.45571 0.0
C1079 C 0.70572 0.15112 0.46221 0.0
H1080 H 0.11185 0.32052 0.63793 0.0
H1081 H 0.19467 0.31883 0.6169 0.0
H1082 H 0.11207 0.27384 0.65512 0.0
H1083 H 0.1948 0.27242 0.63364 0.0
H1084 H 0.17807 0.18634 0.60032 0.0
H1085 H 0.17716 0.23281 0.58553 0.0
H1086 H 0.13077 0.24261 0.72856 0.0
H1087 H 0.1318 0.19571 0.74385 0.0
C1088 C 0.13002 0.31016 0.6364 0.0
C1089 C 0.15323 0.32331 0.62581 0.0
C1090 C 0.13017 0.28354 0.64682 0.0
C1091 C 0.15347 0.26957 0.64591 0.0
C1092 C 0.17655 0.28268 0.63437 0.0
C1093 C 0.17646 0.30925 0.6248 0.0
C1094 C 0.16775 0.19835 0.62887 0.0
C1095 C 0.15503 0.18735 0.67335 0.0
C1096 C 0.16731 0.22498 0.6204 0.0
C1097 C 0.15385 0.24129 0.65578 0.0
C1098 C 0.14113 0.23041 0.70043 0.0
C1099 C 0.14191 0.20366 0.70944 0.0
H1100 H 0.3216 0.86105 0.50876 0.0
H1101 H 0.33133 0.87962 0.3402 0.0
H1102 H 0.27454 0.86127 0.49635 0.0
H1103 H 0.28466 0.87994 0.32808 0.0
H1104 H 0.19809 0.90067 0.33967 0.0
H1105 H 0.24461 0.90447 0.35648 0.0
H1106 H 0.24333 0.83258 0.4446 0.0
H1107 H 0.19718 0.82864 0.42777 0.0
C1108 C 0.31372 0.86541 0.46932 0.0
C1109 C 0.33018 0.87008 0.42543 0.0
C1110 C 0.28683 0.86542 0.46212 0.0
C1111 C 0.27593 0.87057 0.41116 0.0
C1112 C 0.29243 0.87611 0.36786 0.0
C1113 C 0.3192 0.87571 0.37482 0.0
C1114 C 0.20777 0.88565 0.36243 0.0
C1115 C 0.19391 0.86427 0.38196 0.0
C1116 C 0.23438 0.88783 0.3721 0.0
C1117 C 0.24757 0.8689 0.40221 0.0
C1118 C 0.23366 0.84765 0.42194 0.0
C1119 C 0.20723 0.84529 0.41169 0.0
H1120 H 0.24156 0.12512 0.75076 0.0
H1121 H 0.18698 0.0895 0.85955 0.0
H1122 H 0.27291 0.12805 0.82473 0.0
H1123 H 0.21787 0.09288 0.93272 0.0
H1124 H 0.27186 0.12528 0.06434 0.0
H1125 H 0.24021 0.12561 0.99049 0.0
H1126 H 0.29856 0.09755 0.88093 0.0
H1127 H 0.32972 0.09681 0.95368 0.0
C1128 C 0.23623 0.1179 0.79018 0.0
C1129 C 0.21166 0.10716 0.79894 0.0
C1130 C 0.25414 0.11963 0.83262 0.0
C1131 C 0.24777 0.11091 0.88481 0.0
C1132 C 0.22325 0.1002 0.89339 0.0
C1133 C 0.20557 0.09816 0.85106 0.0
C1134 C 0.27787 0.11918 1.02453 0.0
C1135 C 0.3034 0.11107 1.01526 0.0
C1136 C 0.25977 0.11935 0.98221 0.0
C1137 C 0.26694 0.11177 0.92967 0.0
C1138 C 0.29248 0.1039 0.92055 0.0
C1139 C 0.31034 0.10337 0.96268 0.0
H1140 H 0.10071 0.68279 0.11353 0.0
H1141 H 0.10413 0.7448 0.99738 0.0
H1142 H 0.10059 0.71362 0.18666 0.0
H1143 H 0.10277 0.77621 0.0714 0.0
H1144 H 0.13565 0.82166 0.21387 0.0
H1145 H 0.13085 0.79163 0.13995 0.0
H1146 H 0.07844 0.74579 0.23589 0.0
H1147 H 0.08376 0.77601 0.31119 0.0
C1148 C 0.10124 0.70312 0.10347 0.0
C1149 C 0.10301 0.71125 0.04935 0.0
C1150 C 0.10079 0.72091 0.14574 0.0
C1151 C 0.10187 0.74755 0.13543 0.0
C1152 C 0.10241 0.75582 0.08109 0.0
C1153 C 0.10295 0.73786 0.0385 0.0
C1154 C 0.12303 0.80522 0.21953 0.0
C1155 C 0.11007 0.80133 0.26881 0.0
C1156 C 0.12008 0.78804 0.17658 0.0
C1157 C 0.10401 0.76632 0.18123 0.0
C1158 C 0.09116 0.7622 0.23075 0.0
C1159 C 0.09421 0.77947 0.2741 0.0
H1160 H 0.70328 0.94761 0.98213 0.0
H1161 H 0.7333 0.87444 0.03748 0.0
H1162 H 0.7326 0.94646 0.90519 0.0
H1163 H 0.76244 0.87304 0.95889 0.0
H1164 H 0.78161 0.87406 0.76587 0.0
H1165 H 0.75255 0.87356 0.84461 0.0
H1166 H 0.7857 0.94526 0.89983 0.0
H1167 H 0.81494 0.94548 0.82269 0.0
C1168 C 0.71633 0.93135 0.97806 0.0
C1169 C 0.71619 0.91123 1.0162 0.0
C1170 C 0.73301 0.93067 0.93386 0.0
C1171 C 0.74957 0.90957 0.92586 0.0
C1172 C 0.74966 0.88942 0.96399 0.0
C1173 C 0.73328 0.89039 1.00921 0.0
C1174 C 0.78238 0.88984 0.79451 0.0
C1175 C 0.80037 0.90993 0.78785 0.0
C1176 C 0.76605 0.88937 0.83981 0.0
C1177 C 0.76709 0.90929 0.87842 0.0
C1178 C 0.78456 0.92966 0.8708 0.0
C1179 C 0.80118 0.92982 0.82647 0.0
H1180 H 0.89621 0.27086 0.99682 0.0
H1181 H 0.9207 0.32953 0.1099 0.0
H1182 H 0.89443 0.23945 0.07086 0.0
H1183 H 0.91858 0.29856 0.18287 0.0
H1184 H 0.88878 0.24117 0.31028 0.0
H1185 H 0.88727 0.27247 0.23601 0.0
H1186 H 0.92585 0.21779 0.13219 0.0
H1187 H 0.92779 0.187 0.20555 0.0
C1188 C 0.90118 0.27709 0.0372 0.0
C1189 C 0.90861 0.30277 0.04708 0.0
C1190 C 0.90016 0.25913 0.07964 0.0
C1191 C 0.90621 0.26657 0.13291 0.0
C1192 C 0.91341 0.29226 0.14264 0.0
C1193 C 0.91477 0.31 0.10039 0.0
C1194 C 0.89703 0.23592 0.27171 0.0
C1195 C 0.90829 0.21148 0.26415 0.0
C1196 C 0.89613 0.2538 0.2291 0.0
C1197 C 0.90623 0.2475 0.17795 0.0
C1198 C 0.91747 0.22311 0.17062 0.0
C1199 C 0.91867 0.20548 0.2131 0.0
H1200 H 0.27607 0.39195 0.25567 0.0
H1201 H 0.32851 0.43587 0.35561 0.0
H1202 H 0.24512 0.39065 0.32998 0.0
H1203 H 0.29762 0.43501 0.42892 0.0
H1204 H 0.24657 0.40656 0.56885 0.0
H1205 H 0.27822 0.40788 0.49538 0.0
H1206 H 0.21623 0.41692 0.37999 0.0
H1207 H 0.18504 0.41495 0.45236 0.0
C1208 C 0.2809 0.40156 0.29314 0.0
C1209 C 0.30481 0.41402 0.29934 0.0
C1210 C 0.26314 0.40087 0.33588 0.0
C1211 C 0.26882 0.41268 0.38585 0.0
C1212 C 0.29265 0.42532 0.39164 0.0
C1213 C 0.31034 0.42598 0.34912 0.0
C1214 C 0.23982 0.409 0.52782 0.0
C1215 C 0.21325 0.41043 0.51668 0.0
C1216 C 0.25792 0.40979 0.48558 0.0
C1217 C 0.24984 0.41221 0.43136 0.0
C1218 C 0.22328 0.41436 0.42078 0.0
C1219 C 0.20532 0.41342 0.46264 0.0
H1220 H 0.42392 0.68885 0.7012 0.0
H1221 H 0.39003 0.74433 0.81054 0.0
H1222 H 0.42245 0.72029 0.62893 0.0
H1223 H 0.38897 0.77623 0.73743 0.0
H1224 H 0.42328 0.83262 0.61139 0.0
H1225 H 0.4206 0.80105 0.68318 0.0
H1226 H 0.39177 0.74444 0.57037 0.0
H1227 H 0.39415 0.77647 0.49756 0.0
C1228 C 0.41599 0.70773 0.70999 0.0
C1229 C 0.40696 0.71392 0.76205 0.0
C1230 C 0.41506 0.72577 0.66814 0.0
C1231 C 0.40544 0.75074 0.67711 0.0
C1232 C 0.39659 0.75714 0.72921 0.0
C1233 C 0.39722 0.73889 0.77116 0.0
C1234 C 0.41619 0.81353 0.60148 0.0
C1235 C 0.40891 0.80719 0.54828 0.0
C1236 C 0.41452 0.79543 0.64306 0.0
C1237 C 0.40584 0.77025 0.63278 0.0
C1238 C 0.39865 0.7637 0.57961 0.0
C1239 C 0.40001 0.78203 0.53786 0.0
H1240 H 0.74625 0.61248 0.2403 0.0
H1241 H 0.6843 0.60144 0.35434 0.0
H1242 H 0.7775 0.61133 0.31485 0.0
H1243 H 0.71504 0.6002 0.42792 0.0
H1244 H 0.77404 0.6265 0.55408 0.0
H1245 H 0.74341 0.62776 0.47878 0.0
H1246 H 0.79634 0.58312 0.38161 0.0
H1247 H 0.82672 0.58201 0.45586 0.0
C1248 C 0.73933 0.60958 0.28104 0.0
C1249 C 0.71275 0.60744 0.29133 0.0
C1250 C 0.75717 0.60895 0.32386 0.0
C1251 C 0.74878 0.60606 0.37772 0.0
C1252 C 0.72225 0.60317 0.3874 0.0
C1253 C 0.70457 0.6038 0.34494 0.0
C1254 C 0.77901 0.61681 0.5168 0.0
C1255 C 0.80289 0.60421 0.51134 0.0
C1256 C 0.76148 0.61751 0.47352 0.0
C1257 C 0.76744 0.60565 0.42378 0.0
C1258 C 0.79122 0.59287 0.41874 0.0
C1259 C 0.80861 0.59209 0.4618 0.0
H1260 H 0.56955 0.20265 0.57592 0.0
H1261 H 0.64156 0.23525 0.52077 0.0
H1262 H 0.56985 0.23176 0.6534 0.0
H1263 H 0.64214 0.26413 0.59984 0.0
H1264 H 0.64124 0.28202 0.79302 0.0
H1265 H 0.64214 0.25325 0.71382 0.0
H1266 H 0.56963 0.28517 0.65973 0.0
H1267 H 0.56898 0.31414 0.73741 0.0
C1268 C 0.58535 0.21623 0.58014 0.0
C1269 C 0.6054 0.21688 0.54197 0.0
C1270 C 0.58555 0.23278 0.62462 0.0
C1271 C 0.60612 0.24996 0.63278 0.0
C1272 C 0.62616 0.25086 0.59456 0.0
C1273 C 0.62567 0.23463 0.5491 0.0
C1274 C 0.62537 0.28257 0.76456 0.0
C1275 C 0.60493 0.30014 0.77164 0.0
C1276 C 0.62605 0.26641 0.71901 0.0
C1277 C 0.60603 0.26721 0.6806 0.0
C1278 C 0.5853 0.28423 0.68866 0.0
C1279 C 0.5849 0.30069 0.73327 0.0
H1280 H 0.37837 0.10785 0.47364 0.0
H1281 H 0.30072 0.13003 0.51728 0.0
H1282 H 0.39096 0.10872 0.56829 0.0
H1283 H 0.31321 0.13029 0.61246 0.0
H1284 H 0.35422 0.15508 0.77093 0.0
H1285 H 0.34045 0.15466 0.67675 0.0
H1286 H 0.38328 0.08415 0.65096 0.0
H1287 H 0.39677 0.08431 0.74502 0.0
C1288 C 0.36399 0.11306 0.50342 0.0
C1289 C 0.33854 0.11898 0.48771 0.0
C1290 C 0.37115 0.11326 0.55782 0.0
C1291 C 0.3531 0.11949 0.59812 0.0
C1292 C 0.32766 0.1256 0.58247 0.0
C1293 C 0.32044 0.12522 0.52796 0.0
C1294 C 0.36051 0.13932 0.74538 0.0
C1295 C 0.3768 0.11982 0.76579 0.0
C1296 C 0.3526 0.13911 0.6913 0.0
C1297 C 0.36087 0.11946 0.65611 0.0
C1298 C 0.37694 0.09985 0.67661 0.0
C1299 C 0.38474 0.1 0.73066 0.0
H1300 H 0.15062 0.64735 0.58137 0.0
H1301 H 0.0868 0.69955 0.55481 0.0
H1302 H 0.149 0.63431 0.48688 0.0
H1303 H 0.08485 0.68614 0.46033 0.0
H1304 H 0.10786 0.67564 0.28155 0.0
H1305 H 0.10978 0.6893 0.37579 0.0
H1306 H 0.12116 0.61006 0.42475 0.0
H1307 H 0.11976 0.59647 0.33052 0.0
C1308 C 0.13629 0.65614 0.55532 0.0
C1309 C 0.11888 0.67457 0.57583 0.0
C1310 C 0.13519 0.64845 0.50118 0.0
C1311 C 0.11677 0.65911 0.46582 0.0
C1312 C 0.09944 0.67767 0.48622 0.0
C1313 C 0.10039 0.68519 0.54055 0.0
C1314 C 0.11098 0.66114 0.31237 0.0
C1315 C 0.11371 0.63493 0.29826 0.0
C1316 C 0.11181 0.66896 0.36651 0.0
C1317 C 0.11563 0.65081 0.40804 0.0
C1318 C 0.11844 0.62462 0.39389 0.0
C1319 C 0.11739 0.61678 0.33982 0.0
H1320 H 0.63999 0.91326 0.47258 0.0
H1321 H 0.71864 0.89517 0.51734 0.0
H1322 H 0.62744 0.91234 0.56696 0.0
H1323 H 0.70624 0.89536 0.6123 0.0
H1324 H 0.66827 0.87127 0.77283 0.0
H1325 H 0.68165 0.87125 0.67851 0.0
H1326 H 0.63244 0.9371 0.64812 0.0
H1327 H 0.61903 0.93706 0.74216 0.0
C1328 C 0.65463 0.90896 0.5025 0.0
C1329 C 0.68034 0.90416 0.48708 0.0
C1330 C 0.64747 0.90879 0.55684 0.0
C1331 C 0.66581 0.90389 0.59747 0.0
C1332 C 0.69153 0.89898 0.58214 0.0
C1333 C 0.69871 0.89914 0.52766 0.0
C1334 C 0.66045 0.88587 0.74611 0.0
C1335 C 0.64243 0.90408 0.76517 0.0
C1336 C 0.66815 0.88587 0.69197 0.0
C1337 C 0.65806 0.90409 0.65547 0.0
C1338 C 0.64024 0.92244 0.67471 0.0
C1339 C 0.63253 0.92242 0.72875 0.0
H1340 H 0.86348 0.35649 0.29326 0.0
H1341 H 0.93765 0.39354 0.31279 0.0
H1342 H 0.86471 0.34286 0.38748 0.0
H1343 H 0.93882 0.38002 0.40678 0.0
H1344 H 0.91886 0.37727 0.58586 0.0
H1345 H 0.91732 0.38956 0.4912 0.0
H1346 H 0.88739 0.31417 0.45041 0.0
H1347 H 0.88819 0.30211 0.54573 0.0
C1348 C 0.88015 0.36156 0.31745 0.0
C1349 C 0.90037 0.37632 0.29534 0.0
C1350 C 0.88086 0.35372 0.37153 0.0
C1351 C 0.9018 0.36045 0.40493 0.0
C1352 C 0.92215 0.37491 0.38261 0.0
C1353 C 0.92145 0.38271 0.32862 0.0
C1354 C 0.91168 0.36337 0.55685 0.0
C1355 C 0.90352 0.33873 0.57359 0.0
C1356 C 0.9111 0.37032 0.50238 0.0
C1357 C 0.9023 0.35285 0.463 0.0
C1358 C 0.89407 0.3282 0.47966 0.0
C1359 C 0.89477 0.32119 0.53426 0.0
H1360 H 0.40386 0.4327 0.57343 0.0
H1361 H 0.3503 0.37054 0.54165 0.0
H1362 H 0.39064 0.43311 0.66757 0.0
H1363 H 0.33695 0.3711 0.63599 0.0
H1364 H 0.30133 0.39842 0.79701 0.0
H1365 H 0.31398 0.39752 0.70215 0.0
H1366 H 0.39386 0.40706 0.74848 0.0
H1367 H 0.38118 0.40882 0.8429 0.0
C1368 C 0.38945 0.41891 0.58656 0.0
C1369 C 0.3783 0.40148 0.54974 0.0
C1370 C 0.38183 0.41918 0.64067 0.0
C1371 C 0.36279 0.40207 0.65958 0.0
C1372 C 0.35145 0.38476 0.62275 0.0
C1373 C 0.35912 0.38445 0.56857 0.0
C1374 C 0.32158 0.40047 0.78693 0.0
C1375 C 0.34021 0.40369 0.82776 0.0
C1376 C 0.32886 0.39969 0.73253 0.0
C1377 C 0.35495 0.40227 0.71753 0.0
C1378 C 0.37357 0.40532 0.75841 0.0
C1379 C 0.36631 0.406 0.81271 0.0
H1380 H 0.40318 0.71567 0.26526 0.0
H1381 H 0.39761 0.6351 0.22092 0.0
H1382 H 0.39858 0.70397 0.35972 0.0
H1383 H 0.39516 0.62329 0.31524 0.0
H1384 H 0.36926 0.609 0.48613 0.0
H1385 H 0.36959 0.62242 0.39196 0.0
H1386 H 0.42055 0.68571 0.43259 0.0
H1387 H 0.4192 0.67278 0.52698 0.0
C1388 C 0.40094 0.69546 0.27545 0.0
C1389 C 0.4009 0.67639 0.23495 0.0
C1390 C 0.39871 0.68867 0.32997 0.0
C1391 C 0.39663 0.6626 0.34572 0.0
C1392 C 0.39636 0.6436 0.30512 0.0
C1393 C 0.39825 0.65039 0.25068 0.0
C1394 C 0.38048 0.6258 0.47481 0.0
C1395 C 0.39422 0.63979 0.51399 0.0
C1396 C 0.38081 0.63348 0.42068 0.0
C1397 C 0.39524 0.65515 0.40404 0.0
C1398 C 0.40883 0.66923 0.44357 0.0
C1399 C 0.40818 0.66175 0.49782 0.0
H1400 H 0.63681 0.60493 0.83357 0.0
H1401 H 0.71193 0.63349 0.78678 0.0
H1402 H 0.62398 0.6031 0.73948 0.0
H1403 H 0.69844 0.63341 0.69286 0.0
H1404 H 0.67581 0.60679 0.52385 0.0
H1405 H 0.68936 0.60732 0.61798 0.0
H1406 H 0.61183 0.62838 0.6655 0.0
H1407 H 0.59824 0.62701 0.57144 0.0
C1408 C 0.65069 0.61079 0.80334 0.0
C1409 C 0.67552 0.61928 0.81834 0.0
C1410 C 0.64312 0.61016 0.74909 0.0
C1411 C 0.66004 0.61824 0.70798 0.0
C1412 C 0.68489 0.62672 0.72297 0.0
C1413 C 0.69254 0.62713 0.77722 0.0
C1414 C 0.6617 0.61167 0.55443 0.0
C1415 C 0.63591 0.61682 0.54002 0.0
C1416 C 0.66948 0.61206 0.60859 0.0
C1417 C 0.65176 0.61787 0.64995 0.0
C1418 C 0.626 0.62327 0.63526 0.0
C1419 C 0.61817 0.62261 0.58116 0.0
H1420 H 0.6561 0.38915 0.50137 0.0
H1421 H 0.58417 0.34865 0.52538 0.0
H1422 H 0.65679 0.37511 0.4075 0.0
H1423 H 0.58437 0.33516 0.43132 0.0
H1424 H 0.601 0.29734 0.27115 0.0
H1425 H 0.60445 0.30815 0.36648 0.0
H1426 H 0.63587 0.38284 0.32455 0.0
H1427 H 0.63401 0.3714 0.22978 0.0
C1428 C 0.64034 0.3774 0.48641 0.0
C1429 C 0.62008 0.37004 0.52072 0.0
C1430 C 0.64068 0.36936 0.43256 0.0
C1431 C 0.62061 0.354 0.41154 0.0
C1432 C 0.60042 0.34655 0.44615 0.0
C1433 C 0.60022 0.35438 0.50009 0.0
C1434 C 0.60912 0.31587 0.28228 0.0
C1435 C 0.61705 0.33354 0.24254 0.0
C1436 C 0.61076 0.32224 0.33704 0.0
C1437 C 0.62024 0.34649 0.35346 0.0
C1438 C 0.62869 0.36389 0.3137 0.0
C1439 C 0.62725 0.35746 0.25909 0.0
H1440 H 0.80066 0.61158 1.01458 0.0
H1441 H 0.88138 0.61604 0.97122 0.0
H1442 H 0.81228 0.61546 0.10936 0.0
H1443 H 0.89306 0.61799 0.06579 0.0
H1444 H 0.90678 0.64366 0.23734 0.0
H1445 H 0.89348 0.64392 0.14306 0.0
H1446 H 0.83069 0.592 0.18113 0.0
H1447 H 0.84361 0.59249 0.2756 0.0
C1448 C 0.82088 0.61345 1.02508 0.0
C1449 C 0.84004 0.61337 0.98485 0.0
C1450 C 0.8276 0.61528 0.0797 0.0
C1451 C 0.85367 0.6169 0.09568 0.0
C1452 C 0.87276 0.61711 0.05536 0.0
C1453 C 0.86605 0.61554 1.00084 0.0
C1454 C 0.89014 0.6323 0.22547 0.0
C1455 C 0.8763 0.61801 0.26394 0.0
C1456 C 0.88253 0.63236 0.1713 0.0
C1457 C 0.86104 0.61786 0.154 0.0
C1458 C 0.84707 0.60375 0.19278 0.0
C1459 C 0.85453 0.60393 0.24705 0.0
H1460 H 0.64902 0.17104 0.78568 0.0
H1461 H 0.58491 0.11967 0.81559 0.0
H1462 H 0.64847 0.18438 0.88007 0.0
H1463 H 0.58424 0.13307 0.90964 0.0
H1464 H 0.60741 0.14125 0.08533 0.0
H1465 H 0.60892 0.12881 0.99092 0.0
H1466 H 0.62362 0.20812 0.94628 0.0
H1467 H 0.6233 0.22042 0.04133 0.0
C1468 C 0.63466 0.16274 0.81226 0.0
C1469 C 0.61712 0.14414 0.793 0.0
C1470 C 0.63432 0.17043 0.86642 0.0
C1471 C 0.61639 0.15974 0.90272 0.0
C1472 C 0.59868 0.14135 0.88323 0.0
C1473 C 0.59906 0.13364 0.82919 0.0
C1474 C 0.61136 0.15603 0.05557 0.0
C1475 C 0.61538 0.18185 0.07121 0.0
C1476 C 0.61185 0.14893 1.00119 0.0
C1477 C 0.61626 0.16745 0.96075 0.0
C1478 C 0.6204 0.19328 0.9763 0.0
C1479 C 0.61993 0.2004 0.03083 0.0
H1480 H 0.17567 0.41795 0.28095 0.0
H1481 H 0.10011 0.38968 0.23579 0.0
H1482 H 0.18894 0.41665 0.18669 0.0
H1483 H 0.11377 0.3877 0.14188 0.0
H1484 H 0.15769 0.36102 0.98961 0.0
H1485 H 0.14448 0.36292 0.08407 0.0
H1486 H 0.17914 0.43844 0.0987 0.0
H1487 H 0.19256 0.43642 1.0042 0.0
C1488 C 0.16176 0.41166 0.25108 0.0
C1489 C 0.13672 0.40396 0.26649 0.0
C1490 C 0.16945 0.41084 0.19692 0.0
C1491 C 0.15245 0.40203 0.15666 0.0
C1492 C 0.12748 0.39426 0.17193 0.0
C1493 C 0.11968 0.39532 0.22598 0.0
C1494 C 0.16265 0.37796 1.01306 0.0
C1495 C 0.17625 0.39854 0.98931 0.0
C1496 C 0.15486 0.37915 0.06709 0.0
C1497 C 0.16072 0.40084 0.09903 0.0
C1498 C 0.17448 0.42137 0.0754 0.0
C1499 C 0.18199 0.4203 1.02113 0.0
H1500 H 0.41718 0.88374 0.09004 0.0
H1501 H 0.38838 0.80815 0.04732 0.0
H1502 H 0.41649 0.89632 0.99549 0.0
H1503 H 0.38849 0.82051 0.95219 0.0
H1504 H 0.36637 0.86245 0.79386 0.0
H1505 H 0.36621 0.84903 0.88822 0.0
H1506 H 0.43953 0.88707 0.91248 0.0
H1507 H 0.4398 0.90033 0.81833 0.0
C1508 C 0.41056 0.86982 0.06051 0.0
C1509 C 0.40273 0.84495 0.07644 0.0
C1510 C 0.41048 0.87694 1.00613 0.0
C1511 C 0.40253 0.85941 0.9661 0.0
C1512 C 0.39453 0.83457 0.98197 0.0
C1513 C 0.39471 0.8274 0.03647 0.0
C1514 C 0.38258 0.86777 0.81918 0.0
C1515 C 0.40302 0.88264 0.79838 0.0
C1516 C 0.38248 0.86006 0.87333 0.0
C1517 C 0.40279 0.86707 0.90811 0.0
C1518 C 0.42332 0.88174 0.88718 0.0
C1519 C 0.42345 0.88939 0.83309 0.0
H1520 H 0.87589 0.90581 0.33195 0.0
H1521 H 0.79608 0.89356 0.28757 0.0
H1522 H 0.8882 0.90424 0.23749 0.0
H1523 H 0.80833 0.89311 0.19251 0.0
H1524 H 0.84455 0.86669 0.03163 0.0
H1525 H 0.83121 0.86738 0.12598 0.0
H1526 H 0.88465 0.92973 0.15688 0.0
H1527 H 0.89802 0.92897 0.06284 0.0
C1528 C 0.86094 0.90264 0.30208 0.0
C1529 C 0.83498 0.89967 0.31759 0.0
C1530 C 0.86799 0.90211 0.24772 0.0
C1531 C 0.84927 0.89868 0.2072 0.0
C1532 C 0.8233 0.89557 0.22262 0.0
C1533 C 0.81623 0.8961 0.27713 0.0
C1534 C 0.85332 0.88067 0.05849 0.0
C1535 C 0.8725 0.89765 0.03963 0.0
C1536 C 0.84563 0.88109 0.11261 0.0
C1537 C 0.85693 0.89852 0.14923 0.0
C1538 C 0.8759 0.91569 0.13016 0.0
C1539 C 0.88359 0.91524 0.07615 0.0
H1540 H 0.86789 0.10915 0.99005 0.0
H1541 H 0.92133 0.17042 1.0281 0.0
H1542 H 0.86744 0.12276 0.896 0.0
H1543 H 0.92196 0.18345 0.93372 0.0
H1544 H 0.90429 0.21419 0.76735 0.0
H1545 H 0.90009 0.20278 0.86205 0.0
H1546 H 0.89195 0.12238 0.81801 0.0
H1547 H 0.89396 0.13402 0.7236 0.0
C1548 C 0.8797 0.12543 0.9781 0.0
C1549 C 0.89467 0.13867 1.01642 0.0
C1550 C 0.87959 0.13321 0.92405 0.0
C1551 C 0.89482 0.15417 0.90663 0.0
C1552 C 0.90962 0.16753 0.94535 0.0
C1553 C 0.9094 0.15998 0.99956 0.0
C1554 C 0.90108 0.19413 0.77773 0.0
C1555 C 0.89961 0.17507 0.73734 0.0
C1556 C 0.89908 0.18749 0.83235 0.0
C1557 C 0.89583 0.16157 0.84827 0.0
C1558 C 0.89409 0.14259 0.80778 0.0
C1559 C 0.89573 0.14926 0.75327 0.0
H1560 H 0.171 0.09426 0.03339 0.0
H1561 H 0.10699 0.1439 0.0744 0.0
H1562 H 0.18398 0.09281 0.1278 0.0
H1563 H 0.12043 0.14342 0.16859 0.0
H1564 H 0.13307 0.11471 0.33925 0.0
H1565 H 0.12133 0.11735 0.24485 0.0
H1566 H 0.20209 0.11492 0.20095 0.0
H1567 H 0.21374 0.1102 0.29549 0.0
C1568 C 0.15993 0.10519 0.06258 0.0
C1569 C 0.13789 0.11909 0.04648 0.0
C1570 C 0.16743 0.10448 0.11683 0.0
C1571 C 0.15327 0.11792 0.15639 0.0
C1572 C 0.13154 0.13231 0.13981 0.0
C1573 C 0.12385 0.13272 0.08568 0.0
C1574 C 0.14839 0.11433 0.30958 0.0
C1575 C 0.1744 0.11194 0.32547 0.0
C1576 C 0.14164 0.11632 0.25513 0.0
C1577 C 0.16069 0.1164 0.2147 0.0
C1578 C 0.18677 0.11454 0.2306 0.0
C1579 C 0.19351 0.11222 0.28514 0.0
H1580 H 0.1471 0.81071 0.76737 0.0
H1581 H 0.08521 0.8644 0.7337 0.0
H1582 H 0.14545 0.82251 0.86241 0.0
H1583 H 0.08457 0.87722 0.82793 0.0
H1584 H 0.07209 0.87751 1.00911 0.0
H1585 H 0.07282 0.8633 0.91555 0.0
H1586 H 0.15597 0.85678 0.92298 0.0
H1587 H 0.15512 0.87064 1.01697 0.0
C1588 C 0.13306 0.82496 0.78012 0.0
C1589 C 0.11631 0.83657 0.74245 0.0
C1590 C 0.13237 0.83202 0.83469 0.0
C1591 C 0.11494 0.85094 0.8532 0.0
C1592 C 0.09806 0.86237 0.81558 0.0
C1593 C 0.09868 0.85525 0.76114 0.0
C1594 C 0.09056 0.87321 0.9907 0.0
C1595 C 0.11356 0.87538 1.02064 0.0
C1596 C 0.091 0.86506 0.93688 0.0
C1597 C 0.11447 0.85894 0.91124 0.0
C1598 C 0.13747 0.86092 0.94137 0.0
C1599 C 0.13701 0.86895 0.99536 0.0
loop_
_geom_bond_atom_site_label_1
_geom_bond_atom_site_label_2
_geom_bond_distance
_geom_bond_site_symmetry_2
_ccdc_geom_bond_type
Tb0 C9 2.764 1_554 S
Tb0 O10 2.325 . S
Tb0 O13 2.303 . S
Tb0 O17 2.322 . S
Tb0 O18 2.349 . S
Tb0 O21 2.415 1_554 S
Tb0 O22 2.399 1_554 S
Tb1 O11 2.322 . S
Tb1 O12 2.349 . S
Tb1 O14 2.415 . S
Tb1 O15 2.399 . S
Tb1 O16 2.325 . S
Tb1 O19 2.303 . S
Tb1 C30 2.764 . S
C2 O18 1.261 . S
C2 O19 1.257 . S
C3 C6 1.358 . S
C3 C7 1.332 . S
C3 C9 1.504 . S
C4 C5 1.373 . S
C4 C8 1.308 . S
C5 C4 1.373 . S
C5 C6 1.429 . S
C5 H32 0.932 . S
C6 C3 1.358 . S
C6 C5 1.429 . S
C6 H33 0.930 . S
C7 C3 1.332 . S
C7 C8 1.394 . S
C7 H34 0.932 . S
C8 C4 1.308 . S
C8 C7 1.394 . S
C8 H35 0.929 . S
C9 Tb0 2.764 1_556 S
C9 C3 1.504 . S
C9 O21 1.239 . S
C9 O22 1.263 . S
O10 Tb0 2.325 . S
O10 C20 1.236 . S
O11 Tb1 2.322 . S
O11 C20 1.257 . S
O12 Tb1 2.349 . S
O12 C23 1.261 . S
O13 Tb0 2.303 . S
O13 C23 1.257 . S
O14 Tb1 2.415 . S
O14 C30 1.239 . S
O15 Tb1 2.399 . S
O15 C30 1.263 . S
O16 Tb1 2.325 . S
O16 C31 1.236 . S
O17 Tb0 2.322 . S
O17 C31 1.257 . S
O18 Tb0 2.349 . S
O18 C2 1.261 . S
O19 Tb1 2.303 . S
O19 C2 1.257 . S
C20 O10 1.236 . S
C20 O11 1.257 . S
O21 Tb0 2.415 1_556 S
O21 C9 1.239 . S
O22 Tb0 2.399 1_556 S
O22 C9 1.263 . S
C23 O12 1.261 . S
C23 O13 1.257 . S
C24 C27 1.358 . S
C24 C28 1.332 . S
C24 C30 1.504 . S
C25 C26 1.373 . S
C25 C29 1.308 . S
C26 C25 1.373 . S
C26 C27 1.429 . S
C26 H36 0.932 . S
C27 C24 1.358 . S
C27 C26 1.429 . S
C27 H37 0.930 . S
C28 C24 1.332 . S
C28 C29 1.394 . S
C28 H38 0.932 . S
C29 C25 1.308 . S
C29 C28 1.394 . S
C29 H39 0.929 . S
C30 Tb1 2.764 . S
C30 O14 1.239 . S
C30 O15 1.263 . S
C30 C24 1.504 . S
C31 O16 1.236 . S
C31 O17 1.257 . S
H32 C5 0.932 . S
H33 C6 0.930 . S
H34 C7 0.932 . S
H35 C8 0.929 . S
H36 C26 0.932 . S
H37 C27 0.930 . S
H38 C28 0.932 . S
H39 C29 0.929 . S
Tb40 C49 2.764 . S
Tb40 O50 2.325 . S
Tb40 O53 2.303 . S
Tb40 O57 2.322 . S
Tb40 O58 2.349 . S
Tb40 O61 2.415 . S
Tb40 O62 2.399 . S
Tb41 O51 2.322 . S
Tb41 O52 2.349 . S
Tb41 O54 2.415 1_556 S
Tb41 O55 2.399 1_556 S
Tb41 O56 2.325 . S
Tb41 O59 2.303 . S
Tb41 C70 2.764 1_556 S
C42 O58 1.261 . S
C42 O59 1.257 . S
C43 C46 1.358 . S
C43 C47 1.332 . S
C43 C49 1.504 . S
C44 C45 1.373 . S
C44 C48 1.308 . S
C45 C44 1.373 . S
C45 C46 1.429 . S
C45 H72 0.932 . S
C46 C43 1.358 . S
C46 C45 1.429 . S
C46 H73 0.930 . S
C47 C43 1.332 . S
C47 C48 1.394 . S
C47 H74 0.932 . S
C48 C44 1.308 . S
C48 C47 1.394 . S
C48 H75 0.929 . S
C49 Tb40 2.764 . S
C49 C43 1.504 . S
C49 O61 1.239 . S
C49 O62 1.263 . S
O50 Tb40 2.325 . S
O50 C60 1.236 . S
O51 Tb41 2.322 . S
O51 C60 1.257 . S
O52 Tb41 2.349 . S
O52 C63 1.261 . S
O53 Tb40 2.303 . S
O53 C63 1.257 . S
O54 Tb41 2.415 1_554 S
O54 C70 1.239 . S
O55 Tb41 2.399 1_554 S
O55 C70 1.263 . S
O56 Tb41 2.325 . S
O56 C71 1.236 . S
O57 Tb40 2.322 . S
O57 C71 1.257 . S
O58 Tb40 2.349 . S
O58 C42 1.261 . S
O59 Tb41 2.303 . S
O59 C42 1.257 . S
C60 O50 1.236 . S
C60 O51 1.257 . S
O61 Tb40 2.415 . S
O61 C49 1.239 . S
O62 Tb40 2.399 . S
O62 C49 1.263 . S
C63 O52 1.261 . S
C63 O53 1.257 . S
C64 C67 1.358 . S
C64 C68 1.332 . S
C64 C70 1.504 . S
C65 C66 1.373 . S
C65 C69 1.308 . S
C66 C65 1.373 . S
C66 C67 1.429 . S
C66 H76 0.932 . S
C67 C64 1.358 . S
C67 C66 1.429 . S
C67 H77 0.930 . S
C68 C64 1.332 . S
C68 C69 1.394 . S
C68 H78 0.932 . S
C69 C65 1.308 . S
C69 C68 1.394 . S
C69 H79 0.929 . S
C70 Tb41 2.764 1_554 S
C70 O54 1.239 . S
C70 O55 1.263 . S
C70 C64 1.504 . S
C71 O56 1.236 . S
C71 O57 1.257 . S
H72 C45 0.932 . S
H73 C46 0.930 . S
H74 C47 0.932 . S
H75 C48 0.929 . S
H76 C66 0.932 . S
H77 C67 0.930 . S
H78 C68 0.932 . S
H79 C69 0.929 . S
Tb80 C89 2.764 1_554 S
Tb80 O90 2.325 . S
Tb80 O93 2.303 . S
Tb80 O97 2.322 . S
Tb80 O98 2.349 . S
Tb80 O101 2.415 1_554 S
Tb80 O102 2.399 1_554 S
Tb81 O91 2.322 . S
Tb81 O92 2.349 . S
Tb81 O94 2.415 . S
Tb81 O95 2.399 . S
Tb81 O96 2.325 . S
Tb81 O99 2.303 . S
Tb81 C110 2.764 . S
C82 O98 1.261 . S
C82 O99 1.257 . S
C83 C86 1.358 . S
C83 C87 1.332 . S
C83 C89 1.504 . S
C84 C85 1.373 . S
C84 C88 1.308 . S
C85 C84 1.373 . S
C85 C86 1.429 . S
C85 H112 0.932 . S
C86 C83 1.358 . S
C86 C85 1.429 . S
C86 H113 0.930 . S
C87 C83 1.332 . S
C87 C88 1.394 . S
C87 H114 0.932 . S
C88 C84 1.308 . S
C88 C87 1.394 . S
C88 H115 0.929 . S
C89 Tb80 2.764 1_556 S
C89 C83 1.504 . S
C89 O101 1.239 . S
C89 O102 1.263 . S
O90 Tb80 2.325 . S
O90 C100 1.236 . S
O91 Tb81 2.322 . S
O91 C100 1.257 . S
O92 Tb81 2.349 . S
O92 C103 1.261 . S
O93 Tb80 2.303 . S
O93 C103 1.257 . S
O94 Tb81 2.415 . S
O94 C110 1.239 . S
O95 Tb81 2.399 . S
O95 C110 1.263 . S
O96 Tb81 2.325 . S
O96 C111 1.236 . S
O97 Tb80 2.322 . S
O97 C111 1.257 . S
O98 Tb80 2.349 . S
O98 C82 1.261 . S
O99 Tb81 2.303 . S
O99 C82 1.257 . S
C100 O90 1.236 . S
C100 O91 1.257 . S
O101 Tb80 2.415 1_556 S
O101 C89 1.239 . S
O102 Tb80 2.399 1_556 S
O102 C89 1.263 . S
C103 O92 1.261 . S
C103 O93 1.257 . S
C104 C107 1.358 . S
C104 C108 1.332 . S
C104 C110 1.504 . S
C105 C106 1.373 . S
C105 C109 1.308 . S
C106 C105 1.373 . S
C106 C107 1.429 . S
C106 H116 0.932 . S
C107 C104 1.358 . S
C107 C106 1.429 . S
C107 H117 0.930 . S
C108 C104 1.332 . S
C108 C109 1.394 . S
C108 H118 0.932 . S
C109 C105 1.308 . S
C109 C108 1.394 . S
C109 H119 0.929 . S
C110 Tb81 2.764 . S
C110 O94 1.239 . S
C110 O95 1.263 . S
C110 C104 1.504 . S
C111 O96 1.236 . S
C111 O97 1.257 . S
H112 C85 0.932 . S
H113 C86 0.930 . S
H114 C87 0.932 . S
H115 C88 0.929 . S
H116 C106 0.932 . S
H117 C107 0.930 . S
H118 C108 0.932 . S
H119 C109 0.929 . S
Tb120 C129 2.764 . S
Tb120 O130 2.325 . S
Tb120 O133 2.303 . S
Tb120 O137 2.322 . S
Tb120 O138 2.349 . S
Tb120 O141 2.415 . S
Tb120 O142 2.399 . S
Tb121 O131 2.322 . S
Tb121 O132 2.349 . S
Tb121 O134 2.415 1_556 S
Tb121 O135 2.399 1_556 S
Tb121 O136 2.325 . S
Tb121 O139 2.303 . S
Tb121 C150 2.764 1_556 S
C122 O138 1.261 . S
C122 O139 1.257 . S
C123 C126 1.358 . S
C123 C127 1.332 . S
C123 C129 1.504 . S
C124 C125 1.373 . S
C124 C128 1.308 . S
C125 C124 1.373 . S
C125 C126 1.429 . S
C125 H152 0.932 . S
C126 C123 1.358 . S
C126 C125 1.429 . S
C126 H153 0.930 . S
C127 C123 1.332 . S
C127 C128 1.394 . S
C127 H154 0.932 . S
C128 C124 1.308 . S
C128 C127 1.394 . S
C128 H155 0.929 . S
C129 Tb120 2.764 . S
C129 C123 1.504 . S
C129 O141 1.239 . S
C129 O142 1.263 . S
O130 Tb120 2.325 . S
O130 C140 1.236 . S
O131 Tb121 2.322 . S
O131 C140 1.257 . S
O132 Tb121 2.349 . S
O132 C143 1.261 . S
O133 Tb120 2.303 . S
O133 C143 1.257 . S
O134 Tb121 2.415 1_554 S
O134 C150 1.239 . S
O135 Tb121 2.399 1_554 S
O135 C150 1.263 . S
O136 Tb121 2.325 . S
O136 C151 1.236 . S
O137 Tb120 2.322 . S
O137 C151 1.257 . S
O138 Tb120 2.349 . S
O138 C122 1.261 . S
O139 Tb121 2.303 . S
O139 C122 1.257 . S
C140 O130 1.236 . S
C140 O131 1.257 . S
O141 Tb120 2.415 . S
O141 C129 1.239 . S
O142 Tb120 2.399 . S
O142 C129 1.263 . S
C143 O132 1.261 . S
C143 O133 1.257 . S
C144 C147 1.358 . S
C144 C148 1.332 . S
C144 C150 1.504 . S
C145 C146 1.373 . S
C145 C149 1.308 . S
C146 C145 1.373 . S
C146 C147 1.429 . S
C146 H156 0.932 . S
C147 C144 1.358 . S
C147 C146 1.429 . S
C147 H157 0.930 . S
C148 C144 1.332 . S
C148 C149 1.394 . S
C148 H158 0.932 . S
C149 C145 1.308 . S
C149 C148 1.394 . S
C149 H159 0.929 . S
C150 Tb121 2.764 1_554 S
C150 O134 1.239 . S
C150 O135 1.263 . S
C150 C144 1.504 . S
C151 O136 1.236 . S
C151 O137 1.257 . S
H152 C125 0.932 . S
H153 C126 0.930 . S
H154 C127 0.932 . S
H155 C128 0.929 . S
H156 C146 0.932 . S
H157 C147 0.930 . S
H158 C148 0.932 . S
H159 C149 0.929 . S
Tb160 C169 2.764 . S
Tb160 O170 2.325 . S
Tb160 O173 2.303 . S
Tb160 O177 2.322 . S
Tb160 O178 2.349 . S
Tb160 O181 2.415 . S
Tb160 O182 2.399 . S
Tb161 O171 2.322 . S
Tb161 O172 2.349 . S
Tb161 O174 2.415 1_554 S
Tb161 O175 2.399 1_554 S
Tb161 O176 2.325 . S
Tb161 O179 2.303 . S
Tb161 C190 2.764 1_554 S
C162 O178 1.261 . S
C162 O179 1.257 . S
C163 C166 1.358 . S
C163 C167 1.332 . S
C163 C169 1.504 . S
C164 C165 1.373 . S
C164 C168 1.308 . S
C165 C164 1.373 . S
C165 C166 1.429 . S
C165 H192 0.932 . S
C166 C163 1.358 . S
C166 C165 1.429 . S
C166 H193 0.930 . S
C167 C163 1.332 . S
C167 C168 1.394 . S
C167 H194 0.932 . S
C168 C164 1.308 . S
C168 C167 1.394 . S
C168 H195 0.929 . S
C169 Tb160 2.764 . S
C169 C163 1.504 . S
C169 O181 1.239 . S
C169 O182 1.263 . S
O170 Tb160 2.325 . S
O170 C180 1.236 . S
O171 Tb161 2.322 . S
O171 C180 1.257 . S
O172 Tb161 2.349 . S
O172 C183 1.261 . S
O173 Tb160 2.303 . S
O173 C183 1.257 . S
O174 Tb161 2.415 1_556 S
O174 C190 1.239 . S
O175 Tb161 2.399 1_556 S
O175 C190 1.263 . S
O176 Tb161 2.325 . S
O176 C191 1.236 . S
O177 Tb160 2.322 . S
O177 C191 1.257 . S
O178 Tb160 2.349 . S
O178 C162 1.261 . S
O179 Tb161 2.303 . S
O179 C162 1.257 . S
C180 O170 1.236 . S
C180 O171 1.257 . S
O181 Tb160 2.415 . S
O181 C169 1.239 . S
O182 Tb160 2.399 . S
O182 C169 1.263 . S
C183 O172 1.261 . S
C183 O173 1.257 . S
C184 C187 1.358 . S
C184 C188 1.332 . S
C184 C190 1.504 . S
C185 C186 1.373 . S
C185 C189 1.308 . S
C186 C185 1.373 . S
C186 C187 1.429 . S
C186 H196 0.932 . S
C187 C184 1.358 . S
C187 C186 1.429 . S
C187 H197 0.930 . S
C188 C184 1.332 . S
C188 C189 1.394 . S
C188 H198 0.932 . S
C189 C185 1.308 . S
C189 C188 1.394 . S
C189 H199 0.929 . S
C190 Tb161 2.764 1_556 S
C190 O174 1.239 . S
C190 O175 1.263 . S
C190 C184 1.504 . S
C191 O176 1.236 . S
C191 O177 1.257 . S
H192 C165 0.932 . S
H193 C166 0.930 . S
H194 C167 0.932 . S
H195 C168 0.929 . S
H196 C186 0.932 . S
H197 C187 0.930 . S
H198 C188 0.932 . S
H199 C189 0.929 . S
Tb200 C209 2.764 1_556 S
Tb200 O210 2.325 . S
Tb200 O213 2.303 . S
Tb200 O217 2.322 . S
Tb200 O218 2.349 . S
Tb200 O221 2.415 1_556 S
Tb200 O222 2.399 1_556 S
Tb201 O211 2.322 . S
Tb201 O212 2.349 . S
Tb201 O214 2.415 . S
Tb201 O215 2.399 . S
Tb201 O216 2.325 . S
Tb201 O219 2.303 . S
Tb201 C230 2.764 . S
C202 O218 1.261 . S
C202 O219 1.257 . S
C203 C206 1.358 . S
C203 C207 1.332 . S
C203 C209 1.504 . S
C204 C205 1.373 . S
C204 C208 1.308 . S
C205 C204 1.373 . S
C205 C206 1.429 . S
C205 H232 0.932 . S
C206 C203 1.358 . S
C206 C205 1.429 . S
C206 H233 0.930 . S
C207 C203 1.332 . S
C207 C208 1.394 . S
C207 H234 0.932 . S
C208 C204 1.308 . S
C208 C207 1.394 . S
C208 H235 0.929 . S
C209 Tb200 2.764 1_554 S
C209 C203 1.504 . S
C209 O221 1.239 . S
C209 O222 1.263 . S
O210 Tb200 2.325 . S
O210 C220 1.236 . S
O211 Tb201 2.322 . S
O211 C220 1.257 . S
O212 Tb201 2.349 . S
O212 C223 1.261 . S
O213 Tb200 2.303 . S
O213 C223 1.257 . S
O214 Tb201 2.415 . S
O214 C230 1.239 . S
O215 Tb201 2.399 . S
O215 C230 1.263 . S
O216 Tb201 2.325 . S
O216 C231 1.236 . S
O217 Tb200 2.322 . S
O217 C231 1.257 . S
O218 Tb200 2.349 . S
O218 C202 1.261 . S
O219 Tb201 2.303 . S
O219 C202 1.257 . S
C220 O210 1.236 . S
C220 O211 1.257 . S
O221 Tb200 2.415 1_554 S
O221 C209 1.239 . S
O222 Tb200 2.399 1_554 S
O222 C209 1.263 . S
C223 O212 1.261 . S
C223 O213 1.257 . S
C224 C227 1.358 . S
C224 C228 1.332 . S
C224 C230 1.504 . S
C225 C226 1.373 . S
C225 C229 1.308 . S
C226 C225 1.373 . S
C226 C227 1.429 . S
C226 H236 0.932 . S
C227 C224 1.358 . S
C227 C226 1.429 . S
C227 H237 0.930 . S
C228 C224 1.332 . S
C228 C229 1.394 . S
C228 H238 0.932 . S
C229 C225 1.308 . S
C229 C228 1.394 . S
C229 H239 0.929 . S
C230 Tb201 2.764 . S
C230 O214 1.239 . S
C230 O215 1.263 . S
C230 C224 1.504 . S
C231 O216 1.236 . S
C231 O217 1.257 . S
H232 C205 0.932 . S
H233 C206 0.930 . S
H234 C207 0.932 . S
H235 C208 0.929 . S
H236 C226 0.932 . S
H237 C227 0.930 . S
H238 C228 0.932 . S
H239 C229 0.929 . S
Tb240 C249 2.764 . S
Tb240 O250 2.325 . S
Tb240 O253 2.303 . S
Tb240 O257 2.322 . S
Tb240 O258 2.349 . S
Tb240 O261 2.415 . S
Tb240 O262 2.399 . S
Tb241 O251 2.322 . S
Tb241 O252 2.349 . S
Tb241 O254 2.415 1_554 S
Tb241 O255 2.399 1_554 S
Tb241 O256 2.325 . S
Tb241 O259 2.303 . S
Tb241 C270 2.764 1_554 S
C242 O258 1.261 . S
C242 O259 1.257 . S
C243 C246 1.358 . S
C243 C247 1.332 . S
C243 C249 1.504 . S
C244 C245 1.373 . S
C244 C248 1.308 . S
C245 C244 1.373 . S
C245 C246 1.429 . S
C245 H272 0.932 . S
C246 C243 1.358 . S
C246 C245 1.429 . S
C246 H273 0.930 . S
C247 C243 1.332 . S
C247 C248 1.394 . S
C247 H274 0.932 . S
C248 C244 1.308 . S
C248 C247 1.394 . S
C248 H275 0.929 . S
C249 Tb240 2.764 . S
C249 C243 1.504 . S
C249 O261 1.239 . S
C249 O262 1.263 . S
O250 Tb240 2.325 . S
O250 C260 1.236 . S
O251 Tb241 2.322 . S
O251 C260 1.257 . S
O252 Tb241 2.349 . S
O252 C263 1.261 . S
O253 Tb240 2.303 . S
O253 C263 1.257 . S
O254 Tb241 2.415 1_556 S
O254 C270 1.239 . S
O255 Tb241 2.399 1_556 S
O255 C270 1.263 . S
O256 Tb241 2.325 . S
O256 C271 1.236 . S
O257 Tb240 2.322 . S
O257 C271 1.257 . S
O258 Tb240 2.349 . S
O258 C242 1.261 . S
O259 Tb241 2.303 . S
O259 C242 1.257 . S
C260 O250 1.236 . S
C260 O251 1.257 . S
O261 Tb240 2.415 . S
O261 C249 1.239 . S
O262 Tb240 2.399 . S
O262 C249 1.263 . S
C263 O252 1.261 . S
C263 O253 1.257 . S
C264 C267 1.358 . S
C264 C268 1.332 . S
C264 C270 1.504 . S
C265 C266 1.373 . S
C265 C269 1.308 . S
C266 C265 1.373 . S
C266 C267 1.429 . S
C266 H276 0.932 . S
C267 C264 1.358 . S
C267 C266 1.429 . S
C267 H277 0.930 . S
C268 C264 1.332 . S
C268 C269 1.394 . S
C268 H278 0.932 . S
C269 C265 1.308 . S
C269 C268 1.394 . S
C269 H279 0.929 . S
C270 Tb241 2.764 1_556 S
C270 O254 1.239 . S
C270 O255 1.263 . S
C270 C264 1.504 . S
C271 O256 1.236 . S
C271 O257 1.257 . S
H272 C245 0.932 . S
H273 C246 0.930 . S
H274 C247 0.932 . S
H275 C248 0.929 . S
H276 C266 0.932 . S
H277 C267 0.930 . S
H278 C268 0.932 . S
H279 C269 0.929 . S
Tb280 C289 2.764 1_556 S
Tb280 O290 2.325 . S
Tb280 O293 2.303 . S
Tb280 O297 2.322 . S
Tb280 O298 2.349 . S
Tb280 O301 2.415 1_556 S
Tb280 O302 2.399 1_556 S
Tb281 O291 2.322 . S
Tb281 O292 2.349 . S
Tb281 O294 2.415 . S
Tb281 O295 2.399 . S
Tb281 O296 2.325 . S
Tb281 O299 2.303 . S
Tb281 C310 2.764 . S
C282 O298 1.261 . S
C282 O299 1.257 . S
C283 C286 1.358 . S
C283 C287 1.332 . S
C283 C289 1.504 . S
C284 C285 1.373 . S
C284 C288 1.308 . S
C285 C284 1.373 . S
C285 C286 1.429 . S
C285 H312 0.932 . S
C286 C283 1.358 . S
C286 C285 1.429 . S
C286 H313 0.930 . S
C287 C283 1.332 . S
C287 C288 1.394 . S
C287 H314 0.932 . S
C288 C284 1.308 . S
C288 C287 1.394 . S
C288 H315 0.929 . S
C289 Tb280 2.764 1_554 S
C289 C283 1.504 . S
C289 O301 1.239 . S
C289 O302 1.263 . S
O290 Tb280 2.325 . S
O290 C300 1.236 . S
O291 Tb281 2.322 . S
O291 C300 1.257 . S
O292 Tb281 2.349 . S
O292 C303 1.261 . S
O293 Tb280 2.303 . S
O293 C303 1.257 . S
O294 Tb281 2.415 . S
O294 C310 1.239 . S
O295 Tb281 2.399 . S
O295 C310 1.263 . S
O296 Tb281 2.325 . S
O296 C311 1.236 . S
O297 Tb280 2.322 . S
O297 C311 1.257 . S
O298 Tb280 2.349 . S
O298 C282 1.261 . S
O299 Tb281 2.303 . S
O299 C282 1.257 . S
C300 O290 1.236 . S
C300 O291 1.257 . S
O301 Tb280 2.415 1_554 S
O301 C289 1.239 . S
O302 Tb280 2.399 1_554 S
O302 C289 1.263 . S
C303 O292 1.261 . S
C303 O293 1.257 . S
C304 C307 1.358 . S
C304 C308 1.332 . S
C304 C310 1.504 . S
C305 C306 1.373 . S
C305 C309 1.308 . S
C306 C305 1.373 . S
C306 C307 1.429 . S
C306 H316 0.932 . S
C307 C304 1.358 . S
C307 C306 1.429 . S
C307 H317 0.930 . S
C308 C304 1.332 . S
C308 C309 1.394 . S
C308 H318 0.932 . S
C309 C305 1.308 . S
C309 C308 1.394 . S
C309 H319 0.929 . S
C310 Tb281 2.764 . S
C310 O294 1.239 . S
C310 O295 1.263 . S
C310 C304 1.504 . S
C311 O296 1.236 . S
C311 O297 1.257 . S
H312 C285 0.932 . S
H313 C286 0.930 . S
H314 C287 0.932 . S
H315 C288 0.929 . S
H316 C306 0.932 . S
H317 C307 0.930 . S
H318 C308 0.932 . S
H319 C309 0.929 . S
Tb320 C329 2.764 . S
Tb320 O330 2.325 . S
Tb320 O333 2.303 . S
Tb320 O337 2.322 . S
Tb320 O338 2.349 . S
Tb320 O341 2.415 . S
Tb320 O342 2.399 . S
Tb321 O331 2.322 . S
Tb321 O332 2.349 . S
Tb321 O334 2.415 . S
Tb321 O335 2.399 . S
Tb321 O336 2.325 . S
Tb321 O339 2.303 . S
Tb321 C350 2.764 . S
C322 O338 1.261 . S
C322 O339 1.257 . S
C323 C326 1.358 . S
C323 C327 1.332 . S
C323 C329 1.504 . S
C324 C325 1.373 . S
C324 C328 1.308 . S
C325 C324 1.373 . S
C325 C326 1.429 . S
C325 H352 0.932 . S
C326 C323 1.358 . S
C326 C325 1.429 . S
C326 H353 0.930 . S
C327 C323 1.332 . S
C327 C328 1.394 . S
C327 H354 0.932 . S
C328 C324 1.308 . S
C328 C327 1.394 . S
C328 H355 0.929 . S
C329 Tb320 2.764 . S
C329 C323 1.504 . S
C329 O341 1.239 . S
C329 O342 1.263 . S
O330 Tb320 2.325 . S
O330 C340 1.236 . S
O331 Tb321 2.322 . S
O331 C340 1.257 . S
O332 Tb321 2.349 . S
O332 C343 1.261 . S
O333 Tb320 2.303 . S
O333 C343 1.257 . S
O334 Tb321 2.415 . S
O334 C350 1.239 . S
O335 Tb321 2.399 . S
O335 C350 1.263 . S
O336 Tb321 2.325 . S
O336 C351 1.236 . S
O337 Tb320 2.322 . S
O337 C351 1.257 . S
O338 Tb320 2.349 . S
O338 C322 1.261 . S
O339 Tb321 2.303 . S
O339 C322 1.257 . S
C340 O330 1.236 . S
C340 O331 1.257 . S
O341 Tb320 2.415 . S
O341 C329 1.239 . S
O342 Tb320 2.399 . S
O342 C329 1.263 . S
C343 O332 1.261 . S
C343 O333 1.257 . S
C344 C347 1.358 . S
C344 C348 1.332 . S
C344 C350 1.504 . S
C345 C346 1.373 . S
C345 C349 1.308 . S
C346 C345 1.373 . S
C346 C347 1.429 . S
C346 H356 0.932 . S
C347 C344 1.358 . S
C347 C346 1.429 . S
C347 H357 0.930 . S
C348 C344 1.332 . S
C348 C349 1.394 . S
C348 H358 0.932 . S
C349 C345 1.308 . S
C349 C348 1.394 . S
C349 H359 0.929 . S
C350 Tb321 2.764 . S
C350 O334 1.239 . S
C350 O335 1.263 . S
C350 C344 1.504 . S
C351 O336 1.236 . S
C351 O337 1.257 . S
H352 C325 0.932 . S
H353 C326 0.930 . S
H354 C327 0.932 . S
H355 C328 0.929 . S
H356 C346 0.932 . S
H357 C347 0.930 . S
H358 C348 0.932 . S
H359 C349 0.929 . S
Tb360 C369 2.764 . S
Tb360 O370 2.325 . S
Tb360 O373 2.303 . S
Tb360 O377 2.322 . S
Tb360 O378 2.349 . S
Tb360 O381 2.415 . S
Tb360 O382 2.399 . S
Tb361 O371 2.322 . S
Tb361 O372 2.349 . S
Tb361 O374 2.415 . S
Tb361 O375 2.399 . S
Tb361 O376 2.325 . S
Tb361 O379 2.303 . S
Tb361 C390 2.764 . S
C362 O378 1.261 . S
C362 O379 1.257 . S
C363 C366 1.358 . S
C363 C367 1.332 . S
C363 C369 1.504 . S
C364 C365 1.373 . S
C364 C368 1.308 . S
C365 C364 1.373 . S
C365 C366 1.429 . S
C365 H392 0.932 . S
C366 C363 1.358 . S
C366 C365 1.429 . S
C366 H393 0.930 . S
C367 C363 1.332 . S
C367 C368 1.394 . S
C367 H394 0.932 . S
C368 C364 1.308 . S
C368 C367 1.394 . S
C368 H395 0.929 . S
C369 Tb360 2.764 . S
C369 C363 1.504 . S
C369 O381 1.239 . S
C369 O382 1.263 . S
O370 Tb360 2.325 . S
O370 C380 1.236 . S
O371 Tb361 2.322 . S
O371 C380 1.257 . S
O372 Tb361 2.349 . S
O372 C383 1.261 . S
O373 Tb360 2.303 . S
O373 C383 1.257 . S
O374 Tb361 2.415 . S
O374 C390 1.239 . S
O375 Tb361 2.399 . S
O375 C390 1.263 . S
O376 Tb361 2.325 . S
O376 C391 1.236 . S
O377 Tb360 2.322 . S
O377 C391 1.257 . S
O378 Tb360 2.349 . S
O378 C362 1.261 . S
O379 Tb361 2.303 . S
O379 C362 1.257 . S
C380 O370 1.236 . S
C380 O371 1.257 . S
O381 Tb360 2.415 . S
O381 C369 1.239 . S
O382 Tb360 2.399 . S
O382 C369 1.263 . S
C383 O372 1.261 . S
C383 O373 1.257 . S
C384 C387 1.358 . S
C384 C388 1.332 . S
C384 C390 1.504 . S
C385 C386 1.373 . S
C385 C389 1.308 . S
C386 C385 1.373 . S
C386 C387 1.429 . S
C386 H396 0.932 . S
C387 C384 1.358 . S
C387 C386 1.429 . S
C387 H397 0.930 . S
C388 C384 1.332 . S
C388 C389 1.394 . S
C388 H398 0.932 . S
C389 C385 1.308 . S
C389 C388 1.394 . S
C389 H399 0.929 . S
C390 Tb361 2.764 . S
C390 O374 1.239 . S
C390 O375 1.263 . S
C390 C384 1.504 . S
C391 O376 1.236 . S
C391 O377 1.257 . S
H392 C365 0.932 . S
H393 C366 0.930 . S
H394 C367 0.932 . S
H395 C368 0.929 . S
H396 C386 0.932 . S
H397 C387 0.930 . S
H398 C388 0.932 . S
H399 C389 0.929 . S
Tb400 C409 2.764 . S
Tb400 O410 2.325 . S
Tb400 O413 2.303 . S
Tb400 O417 2.322 . S
Tb400 O418 2.349 . S
Tb400 O421 2.415 . S
Tb400 O422 2.399 . S
Tb401 O411 2.322 . S
Tb401 O412 2.349 . S
Tb401 O414 2.415 . S
Tb401 O415 2.399 . S
Tb401 O416 2.325 . S
Tb401 O419 2.303 . S
Tb401 C430 2.764 . S
C402 O418 1.261 . S
C402 O419 1.257 . S
C403 C406 1.358 . S
C403 C407 1.332 . S
C403 C409 1.504 . S
C404 C405 1.373 . S
C404 C408 1.308 . S
C405 C404 1.373 . S
C405 C406 1.429 . S
C405 H432 0.932 . S
C406 C403 1.358 . S
C406 C405 1.429 . S
C406 H433 0.930 . S
C407 C403 1.332 . S
C407 C408 1.394 . S
C407 H434 0.932 . S
C408 C404 1.308 . S
C408 C407 1.394 . S
C408 H435 0.929 . S
C409 Tb400 2.764 . S
C409 C403 1.504 . S
C409 O421 1.239 . S
C409 O422 1.263 . S
O410 Tb400 2.325 . S
O410 C420 1.236 . S
O411 Tb401 2.322 . S
O411 C420 1.257 . S
O412 Tb401 2.349 . S
O412 C423 1.261 . S
O413 Tb400 2.303 . S
O413 C423 1.257 . S
O414 Tb401 2.415 . S
O414 C430 1.239 . S
O415 Tb401 2.399 . S
O415 C430 1.263 . S
O416 Tb401 2.325 . S
O416 C431 1.236 . S
O417 Tb400 2.322 . S
O417 C431 1.257 . S
O418 Tb400 2.349 . S
O418 C402 1.261 . S
O419 Tb401 2.303 . S
O419 C402 1.257 . S
C420 O410 1.236 . S
C420 O411 1.257 . S
O421 Tb400 2.415 . S
O421 C409 1.239 . S
O422 Tb400 2.399 . S
O422 C409 1.263 . S
C423 O412 1.261 . S
C423 O413 1.257 . S
C424 C427 1.358 . S
C424 C428 1.332 . S
C424 C430 1.504 . S
C425 C426 1.373 . S
C425 C429 1.308 . S
C426 C425 1.373 . S
C426 C427 1.429 . S
C426 H436 0.932 . S
C427 C424 1.358 . S
C427 C426 1.429 . S
C427 H437 0.930 . S
C428 C424 1.332 . S
C428 C429 1.394 . S
C428 H438 0.932 . S
C429 C425 1.308 . S
C429 C428 1.394 . S
C429 H439 0.929 . S
C430 Tb401 2.764 . S
C430 O414 1.239 . S
C430 O415 1.263 . S
C430 C424 1.504 . S
C431 O416 1.236 . S
C431 O417 1.257 . S
H432 C405 0.932 . S
H433 C406 0.930 . S
H434 C407 0.932 . S
H435 C408 0.929 . S
H436 C426 0.932 . S
H437 C427 0.930 . S
H438 C428 0.932 . S
H439 C429 0.929 . S
Tb440 C449 2.764 . S
Tb440 O450 2.325 . S
Tb440 O453 2.303 . S
Tb440 O457 2.322 . S
Tb440 O458 2.349 . S
Tb440 O461 2.415 . S
Tb440 O462 2.399 . S
Tb441 O451 2.322 . S
Tb441 O452 2.349 . S
Tb441 O454 2.415 . S
Tb441 O455 2.399 . S
Tb441 O456 2.325 . S
Tb441 O459 2.303 . S
Tb441 C470 2.764 . S
C442 O458 1.261 . S
C442 O459 1.257 . S
C443 C446 1.358 . S
C443 C447 1.332 . S
C443 C449 1.504 . S
C444 C445 1.373 . S
C444 C448 1.308 . S
C445 C444 1.373 . S
C445 C446 1.429 . S
C445 H472 0.932 . S
C446 C443 1.358 . S
C446 C445 1.429 . S
C446 H473 0.930 . S
C447 C443 1.332 . S
C447 C448 1.394 . S
C447 H474 0.932 . S
C448 C444 1.308 . S
C448 C447 1.394 . S
C448 H475 0.929 . S
C449 Tb440 2.764 . S
C449 C443 1.504 . S
C449 O461 1.239 . S
C449 O462 1.263 . S
O450 Tb440 2.325 . S
O450 C460 1.236 . S
O451 Tb441 2.322 . S
O451 C460 1.257 . S
O452 Tb441 2.349 . S
O452 C463 1.261 . S
O453 Tb440 2.303 . S
O453 C463 1.257 . S
O454 Tb441 2.415 . S
O454 C470 1.239 . S
O455 Tb441 2.399 . S
O455 C470 1.263 . S
O456 Tb441 2.325 . S
O456 C471 1.236 . S
O457 Tb440 2.322 . S
O457 C471 1.257 . S
O458 Tb440 2.349 . S
O458 C442 1.261 . S
O459 Tb441 2.303 . S
O459 C442 1.257 . S
C460 O450 1.236 . S
C460 O451 1.257 . S
O461 Tb440 2.415 . S
O461 C449 1.239 . S
O462 Tb440 2.399 . S
O462 C449 1.263 . S
C463 O452 1.261 . S
C463 O453 1.257 . S
C464 C467 1.358 . S
C464 C468 1.332 . S
C464 C470 1.504 . S
C465 C466 1.373 . S
C465 C469 1.308 . S
C466 C465 1.373 . S
C466 C467 1.429 . S
C466 H476 0.932 . S
C467 C464 1.358 . S
C467 C466 1.429 . S
C467 H477 0.930 . S
C468 C464 1.332 . S
C468 C469 1.394 . S
C468 H478 0.932 . S
C469 C465 1.308 . S
C469 C468 1.394 . S
C469 H479 0.929 . S
C470 Tb441 2.764 . S
C470 O454 1.239 . S
C470 O455 1.263 . S
C470 C464 1.504 . S
C471 O456 1.236 . S
C471 O457 1.257 . S
H472 C445 0.932 . S
H473 C446 0.930 . S
H474 C447 0.932 . S
H475 C448 0.929 . S
H476 C466 0.932 . S
H477 C467 0.930 . S
H478 C468 0.932 . S
H479 C469 0.929 . S
Tb480 C489 2.764 . S
Tb480 O490 2.325 . S
Tb480 O493 2.303 . S
Tb480 O497 2.322 . S
Tb480 O498 2.349 . S
Tb480 O501 2.415 . S
Tb480 O502 2.399 . S
Tb481 O491 2.322 . S
Tb481 O492 2.349 . S
Tb481 O494 2.415 . S
Tb481 O495 2.399 . S
Tb481 O496 2.325 . S
Tb481 O499 2.303 . S
Tb481 C510 2.764 . S
C482 O498 1.261 . S
C482 O499 1.257 . S
C483 C486 1.358 . S
C483 C487 1.332 . S
C483 C489 1.504 . S
C484 C485 1.373 . S
C484 C488 1.308 . S
C485 C484 1.373 . S
C485 C486 1.429 . S
C485 H512 0.932 . S
C486 C483 1.358 . S
C486 C485 1.429 . S
C486 H513 0.930 . S
C487 C483 1.332 . S
C487 C488 1.394 . S
C487 H514 0.932 . S
C488 C484 1.308 . S
C488 C487 1.394 . S
C488 H515 0.929 . S
C489 Tb480 2.764 . S
C489 C483 1.504 . S
C489 O501 1.239 . S
C489 O502 1.263 . S
O490 Tb480 2.325 . S
O490 C500 1.236 . S
O491 Tb481 2.322 . S
O491 C500 1.257 . S
O492 Tb481 2.349 . S
O492 C503 1.261 . S
O493 Tb480 2.303 . S
O493 C503 1.257 . S
O494 Tb481 2.415 . S
O494 C510 1.239 . S
O495 Tb481 2.399 . S
O495 C510 1.263 . S
O496 Tb481 2.325 . S
O496 C511 1.236 . S
O497 Tb480 2.322 . S
O497 C511 1.257 . S
O498 Tb480 2.349 . S
O498 C482 1.261 . S
O499 Tb481 2.303 . S
O499 C482 1.257 . S
C500 O490 1.236 . S
C500 O491 1.257 . S
O501 Tb480 2.415 . S
O501 C489 1.239 . S
O502 Tb480 2.399 . S
O502 C489 1.263 . S
C503 O492 1.261 . S
C503 O493 1.257 . S
C504 C507 1.358 . S
C504 C508 1.332 . S
C504 C510 1.504 . S
C505 C506 1.373 . S
C505 C509 1.308 . S
C506 C505 1.373 . S
C506 C507 1.429 . S
C506 H516 0.932 . S
C507 C504 1.358 . S
C507 C506 1.429 . S
C507 H517 0.930 . S
C508 C504 1.332 . S
C508 C509 1.394 . S
C508 H518 0.932 . S
C509 C505 1.308 . S
C509 C508 1.394 . S
C509 H519 0.929 . S
C510 Tb481 2.764 . S
C510 O494 1.239 . S
C510 O495 1.263 . S
C510 C504 1.504 . S
C511 O496 1.236 . S
C511 O497 1.257 . S
H512 C485 0.932 . S
H513 C486 0.930 . S
H514 C487 0.932 . S
H515 C488 0.929 . S
H516 C506 0.932 . S
H517 C507 0.930 . S
H518 C508 0.932 . S
H519 C509 0.929 . S
Tb520 C529 2.764 . S
Tb520 O530 2.325 . S
Tb520 O533 2.303 . S
Tb520 O537 2.322 . S
Tb520 O538 2.349 . S
Tb520 O541 2.415 . S
Tb520 O542 2.399 . S
Tb521 O531 2.322 . S
Tb521 O532 2.349 . S
Tb521 O534 2.415 . S
Tb521 O535 2.399 . S
Tb521 O536 2.325 . S
Tb521 O539 2.303 . S
Tb521 C550 2.764 . S
C522 O538 1.261 . S
C522 O539 1.257 . S
C523 C526 1.358 . S
C523 C527 1.332 . S
C523 C529 1.504 . S
C524 C525 1.373 . S
C524 C528 1.308 . S
C525 C524 1.373 . S
C525 C526 1.429 . S
C525 H552 0.932 . S
C526 C523 1.358 . S
C526 C525 1.429 . S
C526 H553 0.930 . S
C527 C523 1.332 . S
C527 C528 1.394 . S
C527 H554 0.932 . S
C528 C524 1.308 . S
C528 C527 1.394 . S
C528 H555 0.929 . S
C529 Tb520 2.764 . S
C529 C523 1.504 . S
C529 O541 1.239 . S
C529 O542 1.263 . S
O530 Tb520 2.325 . S
O530 C540 1.236 . S
O531 Tb521 2.322 . S
O531 C540 1.257 . S
O532 Tb521 2.349 . S
O532 C543 1.261 . S
O533 Tb520 2.303 . S
O533 C543 1.257 . S
O534 Tb521 2.415 . S
O534 C550 1.239 . S
O535 Tb521 2.399 . S
O535 C550 1.263 . S
O536 Tb521 2.325 . S
O536 C551 1.236 . S
O537 Tb520 2.322 . S
O537 C551 1.257 . S
O538 Tb520 2.349 . S
O538 C522 1.261 . S
O539 Tb521 2.303 . S
O539 C522 1.257 . S
C540 O530 1.236 . S
C540 O531 1.257 . S
O541 Tb520 2.415 . S
O541 C529 1.239 . S
O542 Tb520 2.399 . S
O542 C529 1.263 . S
C543 O532 1.261 . S
C543 O533 1.257 . S
C544 C547 1.358 . S
C544 C548 1.332 . S
C544 C550 1.504 . S
C545 C546 1.373 . S
C545 C549 1.308 . S
C546 C545 1.373 . S
C546 C547 1.429 . S
C546 H556 0.932 . S
C547 C544 1.358 . S
C547 C546 1.429 . S
C547 H557 0.930 . S
C548 C544 1.332 . S
C548 C549 1.394 . S
C548 H558 0.932 . S
C549 C545 1.308 . S
C549 C548 1.394 . S
C549 H559 0.929 . S
C550 Tb521 2.764 . S
C550 O534 1.239 . S
C550 O535 1.263 . S
C550 C544 1.504 . S
C551 O536 1.236 . S
C551 O537 1.257 . S
H552 C525 0.932 . S
H553 C526 0.930 . S
H554 C527 0.932 . S
H555 C528 0.929 . S
H556 C546 0.932 . S
H557 C547 0.930 . S
H558 C548 0.932 . S
H559 C549 0.929 . S
Tb560 C569 2.764 . S
Tb560 O570 2.325 . S
Tb560 O573 2.303 . S
Tb560 O577 2.322 . S
Tb560 O578 2.349 . S
Tb560 O581 2.415 . S
Tb560 O582 2.399 . S
Tb561 O571 2.322 . S
Tb561 O572 2.349 . S
Tb561 O574 2.415 . S
Tb561 O575 2.399 . S
Tb561 O576 2.325 . S
Tb561 O579 2.303 . S
Tb561 C590 2.764 . S
C562 O578 1.261 . S
C562 O579 1.257 . S
C563 C566 1.358 . S
C563 C567 1.332 . S
C563 C569 1.504 . S
C564 C565 1.373 . S
C564 C568 1.308 . S
C565 C564 1.373 . S
C565 C566 1.429 . S
C565 H592 0.932 . S
C566 C563 1.358 . S
C566 C565 1.429 . S
C566 H593 0.930 . S
C567 C563 1.332 . S
C567 C568 1.394 . S
C567 H594 0.932 . S
C568 C564 1.308 . S
C568 C567 1.394 . S
C568 H595 0.929 . S
C569 Tb560 2.764 . S
C569 C563 1.504 . S
C569 O581 1.239 . S
C569 O582 1.263 . S
O570 Tb560 2.325 . S
O570 C580 1.236 . S
O571 Tb561 2.322 . S
O571 C580 1.257 . S
O572 Tb561 2.349 . S
O572 C583 1.261 . S
O573 Tb560 2.303 . S
O573 C583 1.257 . S
O574 Tb561 2.415 . S
O574 C590 1.239 . S
O575 Tb561 2.399 . S
O575 C590 1.263 . S
O576 Tb561 2.325 . S
O576 C591 1.236 . S
O577 Tb560 2.322 . S
O577 C591 1.257 . S
O578 Tb560 2.349 . S
O578 C562 1.261 . S
O579 Tb561 2.303 . S
O579 C562 1.257 . S
C580 O570 1.236 . S
C580 O571 1.257 . S
O581 Tb560 2.415 . S
O581 C569 1.239 . S
O582 Tb560 2.399 . S
O582 C569 1.263 . S
C583 O572 1.261 . S
C583 O573 1.257 . S
C584 C587 1.358 . S
C584 C588 1.332 . S
C584 C590 1.504 . S
C585 C586 1.373 . S
C585 C589 1.308 . S
C586 C585 1.373 . S
C586 C587 1.429 . S
C586 H596 0.932 . S
C587 C584 1.358 . S
C587 C586 1.429 . S
C587 H597 0.930 . S
C588 C584 1.332 . S
C588 C589 1.394 . S
C588 H598 0.932 . S
C589 C585 1.308 . S
C589 C588 1.394 . S
C589 H599 0.929 . S
C590 Tb561 2.764 . S
C590 O574 1.239 . S
C590 O575 1.263 . S
C590 C584 1.504 . S
C591 O576 1.236 . S
C591 O577 1.257 . S
H592 C565 0.932 . S
H593 C566 0.930 . S
H594 C567 0.932 . S
H595 C568 0.929 . S
H596 C586 0.932 . S
H597 C587 0.930 . S
H598 C588 0.932 . S
H599 C589 0.929 . S
Tb600 C609 2.764 . S
Tb600 O610 2.325 . S
Tb600 O613 2.303 . S
Tb600 O617 2.322 . S
Tb600 O618 2.349 . S
Tb600 O621 2.415 . S
Tb600 O622 2.399 . S
Tb601 O611 2.322 . S
Tb601 O612 2.349 . S
Tb601 O614 2.415 . S
Tb601 O615 2.399 . S
Tb601 O616 2.325 . S
Tb601 O619 2.303 . S
Tb601 C630 2.764 . S
C602 O618 1.261 . S
C602 O619 1.257 . S
C603 C606 1.358 . S
C603 C607 1.332 . S
C603 C609 1.504 . S
C604 C605 1.373 . S
C604 C608 1.308 . S
C605 C604 1.373 . S
C605 C606 1.429 . S
C605 H632 0.932 . S
C606 C603 1.358 . S
C606 C605 1.429 . S
C606 H633 0.930 . S
C607 C603 1.332 . S
C607 C608 1.394 . S
C607 H634 0.932 . S
C608 C604 1.308 . S
C608 C607 1.394 . S
C608 H635 0.929 . S
C609 Tb600 2.764 . S
C609 C603 1.504 . S
C609 O621 1.239 . S
C609 O622 1.263 . S
O610 Tb600 2.325 . S
O610 C620 1.236 . S
O611 Tb601 2.322 . S
O611 C620 1.257 . S
O612 Tb601 2.349 . S
O612 C623 1.261 . S
O613 Tb600 2.303 . S
O613 C623 1.257 . S
O614 Tb601 2.415 . S
O614 C630 1.239 . S
O615 Tb601 2.399 . S
O615 C630 1.263 . S
O616 Tb601 2.325 . S
O616 C631 1.236 . S
O617 Tb600 2.322 . S
O617 C631 1.257 . S
O618 Tb600 2.349 . S
O618 C602 1.261 . S
O619 Tb601 2.303 . S
O619 C602 1.257 . S
C620 O610 1.236 . S
C620 O611 1.257 . S
O621 Tb600 2.415 . S
O621 C609 1.239 . S
O622 Tb600 2.399 . S
O622 C609 1.263 . S
C623 O612 1.261 . S
C623 O613 1.257 . S
C624 C627 1.358 . S
C624 C628 1.332 . S
C624 C630 1.504 . S
C625 C626 1.373 . S
C625 C629 1.308 . S
C626 C625 1.373 . S
C626 C627 1.429 . S
C626 H636 0.932 . S
C627 C624 1.358 . S
C627 C626 1.429 . S
C627 H637 0.930 . S
C628 C624 1.332 . S
C628 C629 1.394 . S
C628 H638 0.932 . S
C629 C625 1.308 . S
C629 C628 1.394 . S
C629 H639 0.929 . S
C630 Tb601 2.764 . S
C630 O614 1.239 . S
C630 O615 1.263 . S
C630 C624 1.504 . S
C631 O616 1.236 . S
C631 O617 1.257 . S
H632 C605 0.932 . S
H633 C606 0.930 . S
H634 C607 0.932 . S
H635 C608 0.929 . S
H636 C626 0.932 . S
H637 C627 0.930 . S
H638 C628 0.932 . S
H639 C629 0.929 . S
H640 C648 0.950 . S
H641 C653 0.950 . S
H642 C650 0.950 . S
H643 C652 0.950 . S
H644 C654 0.950 . S
H645 C656 0.950 1_565 S
H646 C658 0.964 . S
H647 C659 0.950 . S
C648 H640 0.950 . S
C648 C649 1.386 . S
C648 C650 1.391 . S
C649 C648 1.386 . S
C649 C653 1.393 . S
C650 H642 0.950 . S
C650 C648 1.391 . S
C650 C651 1.400 . S
C651 C650 1.400 . S
C651 C652 1.398 . S
C651 C657 1.491 . S
C652 H643 0.950 . S
C652 C651 1.398 . S
C652 C653 1.391 . S
C653 H641 0.950 . S
C653 C649 1.393 . S
C653 C652 1.391 . S
C654 H644 0.950 . S
C654 C655 1.386 . S
C654 C656 1.391 . S
C655 C654 1.386 . S
C655 C659 1.393 . S
C656 H645 0.950 1_545 S
C656 C654 1.391 . S
C656 C657 1.400 1_545 S
C657 C651 1.491 . S
C657 C656 1.400 1_565 S
C657 C658 1.410 . S
C658 H646 0.964 . S
C658 C657 1.410 . S
C658 C659 1.366 1_565 S
C659 H647 0.950 . S
C659 C655 1.393 . S
C659 C658 1.366 1_545 S
H660 C668 0.950 . S
H661 C673 0.950 . S
H662 C670 0.950 . S
H663 C672 0.950 . S
H664 C674 0.950 . S
H665 C676 0.950 . S
H666 C678 0.950 1_655 S
H667 C679 0.950 . S
C668 H660 0.950 . S
C668 C669 1.386 . S
C668 C670 1.391 . S
C669 C668 1.386 . S
C669 C673 1.393 . S
C670 H662 0.950 . S
C670 C668 1.391 . S
C670 C671 1.400 . S
C671 C670 1.400 . S
C671 C672 1.398 . S
C671 C677 1.491 . S
C672 H663 0.950 . S
C672 C671 1.398 . S
C672 C673 1.391 . S
C673 H661 0.950 . S
C673 C669 1.393 . S
C673 C672 1.391 . S
C674 H664 0.950 . S
C674 C675 1.386 . S
C674 C676 1.391 1_455 S
C675 C674 1.386 . S
C675 C679 1.393 . S
C676 H665 0.950 . S
C676 C674 1.391 1_655 S
C676 C677 1.400 . S
C677 C671 1.491 . S
C677 C676 1.400 . S
C677 C678 1.398 1_655 S
C678 H666 0.950 1_455 S
C678 C677 1.398 1_455 S
C678 C679 1.391 . S
C679 H667 0.950 . S
C679 C675 1.393 . S
C679 C678 1.391 . S
H680 C688 0.950 . S
H681 C693 0.950 . S
H682 C690 0.950 . S
H683 C692 0.950 . S
H684 C694 0.950 . S
H685 C696 0.950 . S
H686 C698 0.950 . S
H687 C699 0.950 . S
C688 H680 0.950 . S
C688 C689 1.386 . S
C688 C690 1.391 . S
C689 C688 1.386 . S
C689 C693 1.393 . S
C690 H682 0.950 . S
C690 C688 1.391 . S
C690 C691 1.400 1_565 S
C691 C690 1.400 1_545 S
C691 C692 1.398 . S
C691 C697 1.491 . S
C692 H683 0.950 . S
C692 C691 1.398 . S
C692 C693 1.391 1_545 S
C693 H681 0.950 . S
C693 C689 1.393 . S
C693 C692 1.391 1_565 S
C694 H684 0.950 . S
C694 C695 1.386 . S
C694 C696 1.391 . S
C695 C694 1.386 . S
C695 C699 1.393 . S
C696 H685 0.950 . S
C696 C694 1.391 . S
C696 C697 1.400 . S
C697 C691 1.491 . S
C697 C696 1.400 . S
C697 C698 1.398 . S
C698 H686 0.950 . S
C698 C697 1.398 . S
C698 C699 1.391 . S
C699 H687 0.950 . S
C699 C695 1.393 . S
C699 C698 1.391 . S
H700 C708 0.950 . S
H701 C713 0.950 . S
H702 C710 0.950 . S
H703 C712 0.950 . S
H704 C714 0.950 . S
H705 C716 0.950 . S
H706 C718 0.950 . S
H707 C719 0.950 . S
C708 H700 0.950 . S
C708 C709 1.386 . S
C708 C710 1.391 1_655 S
C709 C708 1.386 . S
C709 C713 1.393 . S
C710 H702 0.950 . S
C710 C708 1.391 1_455 S
C710 C711 1.400 . S
C711 C710 1.400 . S
C711 C712 1.398 1_455 S
C711 C717 1.491 . S
C712 H703 0.950 . S
C712 C711 1.398 1_655 S
C712 C713 1.391 . S
C713 H701 0.950 . S
C713 C709 1.393 . S
C713 C712 1.391 . S
C714 H704 0.950 . S
C714 C715 1.386 . S
C714 C716 1.391 . S
C715 C714 1.386 . S
C715 C719 1.393 . S
C716 H705 0.950 . S
C716 C714 1.391 . S
C716 C717 1.400 . S
C717 C711 1.491 . S
C717 C716 1.400 . S
C717 C718 1.398 . S
C718 H706 0.950 . S
C718 C717 1.398 . S
C718 C719 1.391 . S
C719 H707 0.950 . S
C719 C715 1.393 . S
C719 C718 1.391 . S
H720 C728 0.950 . S
H721 C733 0.950 . S
H722 C730 0.950 1_556 S
H723 C732 0.950 . S
H724 C734 0.950 . S
H725 C736 0.950 . S
H726 C738 0.950 . S
H727 C739 0.950 . S
C728 H720 0.950 . S
C728 C729 1.386 . S
C728 C730 1.391 . S
C729 C728 1.386 . S
C729 C733 1.393 . S
C730 H722 0.950 1_554 S
C730 C728 1.391 . S
C730 C731 1.400 . S
C731 C730 1.400 . S
C731 C732 1.398 . S
C731 C737 1.491 . S
C732 H723 0.950 . S
C732 C731 1.398 . S
C732 C733 1.391 . S
C733 H721 0.950 . S
C733 C729 1.393 . S
C733 C732 1.391 . S
C734 H724 0.950 . S
C734 C735 1.386 1_554 S
C734 C736 1.391 . S
C735 C734 1.386 1_556 S
C735 C739 1.393 . S
C736 H725 0.950 . S
C736 C734 1.391 . S
C736 C737 1.400 . S
C737 C731 1.491 . S
C737 C736 1.400 . S
C737 C738 1.398 1_554 S
C738 H726 0.950 . S
C738 C737 1.398 1_556 S
C738 C739 1.391 . S
C739 H727 0.950 . S
C739 C735 1.393 . S
C739 C738 1.391 . S
H740 C748 0.950 . S
H741 C753 0.950 . S
H742 C750 0.950 . S
H743 C752 0.950 . S
H744 C754 0.950 . S
H745 C756 0.950 . S
H746 C758 0.950 . S
H747 C759 0.950 . S
C748 H740 0.950 . S
C748 C749 1.386 . S
C748 C750 1.391 1_554 S
C749 C748 1.386 . S
C749 C753 1.393 . S
C750 H742 0.950 . S
C750 C748 1.391 1_556 S
C750 C751 1.400 . S
C751 C750 1.400 . S
C751 C752 1.398 1_556 S
C751 C757 1.491 . S
C752 H743 0.950 . S
C752 C751 1.398 1_554 S
C752 C753 1.391 . S
C753 H741 0.950 . S
C753 C749 1.393 . S
C753 C752 1.391 . S
C754 H744 0.950 . S
C754 C755 1.386 . S
C754 C756 1.391 . S
C755 C754 1.386 . S
C755 C759 1.393 . S
C756 H745 0.950 . S
C756 C754 1.391 . S
C756 C757 1.400 . S
C757 C751 1.491 . S
C757 C756 1.400 . S
C757 C758 1.398 . S
C758 H746 0.950 . S
C758 C757 1.398 . S
C758 C759 1.391 . S
C759 H747 0.950 . S
C759 C755 1.393 . S
C759 C758 1.391 . S
H760 C768 0.950 . S
H761 C773 0.950 . S
H762 C770 0.950 . S
H763 C772 0.950 1_556 S
H764 C774 0.950 . S
H765 C776 0.950 . S
H766 C778 0.950 . S
H767 C779 0.950 . S
C768 H760 0.950 . S
C768 C769 1.386 . S
C768 C770 1.391 . S
C769 C768 1.386 . S
C769 C773 1.393 . S
C770 H762 0.950 . S
C770 C768 1.391 . S
C770 C771 1.400 . S
C771 C770 1.400 . S
C771 C772 1.398 . S
C771 C777 1.491 . S
C772 H763 0.950 1_554 S
C772 C771 1.398 . S
C772 C773 1.391 . S
C773 H761 0.950 . S
C773 C769 1.393 . S
C773 C772 1.391 . S
C774 H764 0.950 . S
C774 C775 1.386 . S
C774 C776 1.391 . S
C775 C774 1.386 . S
C775 C779 1.393 1_556 S
C776 H765 0.950 . S
C776 C774 1.391 . S
C776 C777 1.400 1_556 S
C777 C771 1.491 . S
C777 C776 1.400 1_554 S
C777 C778 1.398 . S
C778 H766 0.950 . S
C778 C777 1.398 . S
C778 C779 1.391 . S
C779 H767 0.950 . S
C779 C775 1.393 1_554 S
C779 C778 1.391 . S
H780 C788 0.950 . S
H781 C793 0.950 . S
H782 C790 0.950 . S
H783 C792 0.950 . S
H784 C794 0.950 . S
H785 C796 0.950 . S
H786 C798 0.950 . S
H787 C799 0.950 . S
C788 H780 0.950 . S
C788 C789 1.386 . S
C788 C790 1.391 1_554 S
C789 C788 1.386 . S
C789 C793 1.393 . S
C790 H782 0.950 . S
C790 C788 1.391 1_556 S
C790 C791 1.400 . S
C791 C790 1.400 . S
C791 C792 1.398 . S
C791 C797 1.491 . S
C792 H783 0.950 . S
C792 C791 1.398 . S
C792 C793 1.391 1_556 S
C793 H781 0.950 . S
C793 C789 1.393 . S
C793 C792 1.391 1_554 S
C794 H784 0.950 . S
C794 C795 1.386 . S
C794 C796 1.391 . S
C795 C794 1.386 . S
C795 C799 1.393 . S
C796 H785 0.950 . S
C796 C794 1.391 . S
C796 C797 1.400 . S
C797 C791 1.491 . S
C797 C796 1.400 . S
C797 C798 1.398 . S
C798 H786 0.950 . S
C798 C797 1.398 . S
C798 C799 1.391 . S
C799 H787 0.950 . S
C799 C795 1.393 . S
C799 C798 1.391 . S
H800 C808 0.950 . S
H801 C813 0.950 . S
H802 C810 0.950 . S
H803 C812 0.950 . S
H804 C814 0.950 . S
H805 C816 0.950 . S
H806 C818 0.950 . S
H807 C819 0.950 . S
C808 H800 0.950 . S
C808 C809 1.386 . S
C808 C810 1.391 . S
C809 C808 1.386 . S
C809 C813 1.393 . S
C810 H802 0.950 . S
C810 C808 1.391 . S
C810 C811 1.400 . S
C811 C810 1.400 . S
C811 C812 1.398 . S
C811 C817 1.491 . S
C812 H803 0.950 . S
C812 C811 1.398 . S
C812 C813 1.391 . S
C813 H801 0.950 . S
C813 C809 1.393 . S
C813 C812 1.391 . S
C814 H804 0.950 . S
C814 C815 1.386 . S
C814 C816 1.391 . S
C815 C814 1.386 . S
C815 C819 1.393 . S
C816 H805 0.950 . S
C816 C814 1.391 . S
C816 C817 1.400 . S
C817 C811 1.491 . S
C817 C816 1.400 . S
C817 C818 1.398 . S
C818 H806 0.950 . S
C818 C817 1.398 . S
C818 C819 1.391 . S
C819 H807 0.950 . S
C819 C815 1.393 . S
C819 C818 1.391 . S
H820 C828 0.950 . S
H821 C833 0.950 . S
H822 C830 0.950 . S
H823 C832 0.950 . S
H824 C834 0.950 . S
H825 C836 0.950 . S
H826 C838 0.950 . S
H827 C839 0.950 . S
C828 H820 0.950 . S
C828 C829 1.386 . S
C828 C830 1.391 . S
C829 C828 1.386 . S
C829 C833 1.393 . S
C830 H822 0.950 . S
C830 C828 1.391 . S
C830 C831 1.400 . S
C831 C830 1.400 . S
C831 C832 1.398 . S
C831 C837 1.491 . S
C832 H823 0.950 . S
C832 C831 1.398 . S
C832 C833 1.391 . S
C833 H821 0.950 . S
C833 C829 1.393 . S
C833 C832 1.391 . S
C834 H824 0.950 . S
C834 C835 1.386 . S
C834 C836 1.391 . S
C835 C834 1.386 . S
C835 C839 1.393 . S
C836 H825 0.950 . S
C836 C834 1.391 . S
C836 C837 1.400 . S
C837 C831 1.491 . S
C837 C836 1.400 . S
C837 C838 1.398 . S
C838 H826 0.950 . S
C838 C837 1.398 . S
C838 C839 1.391 . S
C839 H827 0.950 . S
C839 C835 1.393 . S
C839 C838 1.391 . S
H840 C848 0.950 . S
H841 C853 0.950 . S
H842 C850 0.950 . S
H843 C852 0.950 . S
H844 C854 0.950 . S
H845 C856 0.950 . S
H846 C858 0.950 . S
H847 C859 0.950 . S
C848 H840 0.950 . S
C848 C849 1.386 . S
C848 C850 1.391 . S
C849 C848 1.386 . S
C849 C853 1.393 . S
C850 H842 0.950 . S
C850 C848 1.391 . S
C850 C851 1.400 . S
C851 C850 1.400 . S
C851 C852 1.398 . S
C851 C857 1.491 . S
C852 H843 0.950 . S
C852 C851 1.398 . S
C852 C853 1.391 . S
C853 H841 0.950 . S
C853 C849 1.393 . S
C853 C852 1.391 . S
C854 H844 0.950 . S
C854 C855 1.386 . S
C854 C856 1.391 . S
C855 C854 1.386 . S
C855 C859 1.393 . S
C856 H845 0.950 . S
C856 C854 1.391 . S
C856 C857 1.400 . S
C857 C851 1.491 . S
C857 C856 1.400 . S
C857 C858 1.398 . S
C858 H846 0.950 . S
C858 C857 1.398 . S
C858 C859 1.391 . S
C859 H847 0.950 . S
C859 C855 1.393 . S
C859 C858 1.391 . S
H860 C868 0.950 . S
H861 C873 0.950 . S
H862 C870 0.950 . S
H863 C872 0.950 . S
H864 C874 0.950 . S
H865 C876 0.950 . S
H866 C878 0.950 . S
H867 C879 0.950 . S
C868 H860 0.950 . S
C868 C869 1.386 . S
C868 C870 1.391 . S
C869 C868 1.386 . S
C869 C873 1.393 . S
C870 H862 0.950 . S
C870 C868 1.391 . S
C870 C871 1.400 . S
C871 C870 1.400 . S
C871 C872 1.398 . S
C871 C877 1.491 . S
C872 H863 0.950 . S
C872 C871 1.398 . S
C872 C873 1.391 . S
C873 H861 0.950 . S
C873 C869 1.393 . S
C873 C872 1.391 . S
C874 H864 0.950 . S
C874 C875 1.386 . S
C874 C876 1.391 . S
C875 C874 1.386 . S
C875 C879 1.393 . S
C876 H865 0.950 . S
C876 C874 1.391 . S
C876 C877 1.400 . S
C877 C871 1.491 . S
C877 C876 1.400 . S
C877 C878 1.398 . S
C878 H866 0.950 . S
C878 C877 1.398 . S
C878 C879 1.391 . S
C879 H867 0.950 . S
C879 C875 1.393 . S
C879 C878 1.391 . S
H880 C888 0.950 . S
H881 C893 0.950 . S
H882 C890 0.950 . S
H883 C892 0.950 . S
H884 C894 0.950 . S
H885 C896 0.950 . S
H886 C898 0.950 . S
H887 C899 0.950 . S
C888 H880 0.950 . S
C888 C889 1.386 . S
C888 C890 1.391 . S
C889 C888 1.386 . S
C889 C893 1.393 . S
C890 H882 0.950 . S
C890 C888 1.391 . S
C890 C891 1.400 1_565 S
C891 C890 1.400 1_545 S
C891 C892 1.398 . S
C891 C897 1.491 . S
C892 H883 0.950 . S
C892 C891 1.398 . S
C892 C893 1.391 1_545 S
C893 H881 0.950 . S
C893 C889 1.393 . S
C893 C892 1.391 1_565 S
C894 H884 0.950 . S
C894 C895 1.386 . S
C894 C896 1.391 . S
C895 C894 1.386 . S
C895 C899 1.393 . S
C896 H885 0.950 . S
C896 C894 1.391 . S
C896 C897 1.400 . S
C897 C891 1.491 . S
C897 C896 1.400 . S
C897 C898 1.398 . S
C898 H886 0.950 . S
C898 C897 1.398 . S
C898 C899 1.391 . S
C899 H887 0.950 . S
C899 C895 1.393 . S
C899 C898 1.391 . S
H900 C908 0.950 . S
H901 C913 0.950 . S
H902 C910 0.950 . S
H903 C912 0.950 . S
H904 C914 0.950 . S
H905 C916 0.951 1_455 S
H906 C918 0.950 1_455 S
H907 C919 0.950 . S
C908 H900 0.950 . S
C908 C909 1.386 . S
C908 C910 1.391 . S
C909 C908 1.386 . S
C909 C913 1.393 . S
C910 H902 0.950 . S
C910 C908 1.391 . S
C910 C911 1.400 . S
C911 C910 1.400 . S
C911 C912 1.398 . S
C911 C917 1.491 . S
C912 H903 0.950 . S
C912 C911 1.398 . S
C912 C913 1.391 . S
C913 H901 0.950 . S
C913 C909 1.393 . S
C913 C912 1.391 . S
C914 H904 0.950 . S
C914 C915 1.386 . S
C914 C916 1.389 . S
C915 C914 1.386 . S
C915 C919 1.393 . S
C916 H905 0.951 1_655 S
C916 C914 1.389 . S
C916 C917 1.401 1_655 S
C917 C911 1.491 . S
C917 C916 1.401 1_455 S
C917 C918 1.398 1_455 S
C918 H906 0.950 1_655 S
C918 C917 1.398 1_655 S
C918 C919 1.391 . S
C919 H907 0.950 . S
C919 C915 1.393 . S
C919 C918 1.391 . S
H920 C928 0.950 . S
H921 C933 0.950 . S
H922 C930 0.950 . S
H923 C932 0.950 . S
H924 C934 0.950 . S
H925 C936 0.950 . S
H926 C938 0.950 . S
H927 C939 0.950 . S
C928 H920 0.950 . S
C928 C929 1.386 . S
C928 C930 1.391 . S
C929 C928 1.386 . S
C929 C933 1.393 . S
C930 H922 0.950 . S
C930 C928 1.391 . S
C930 C931 1.400 . S
C931 C930 1.400 . S
C931 C932 1.398 . S
C931 C937 1.491 . S
C932 H923 0.950 . S
C932 C931 1.398 . S
C932 C933 1.391 . S
C933 H921 0.950 . S
C933 C929 1.393 . S
C933 C932 1.391 . S
C934 H924 0.950 . S
C934 C935 1.386 . S
C934 C936 1.391 1_545 S
C935 C934 1.386 . S
C935 C939 1.393 . S
C936 H925 0.950 . S
C936 C934 1.391 1_565 S
C936 C937 1.400 . S
C937 C931 1.491 . S
C937 C936 1.400 . S
C937 C938 1.398 1_565 S
C938 H926 0.950 . S
C938 C937 1.398 1_545 S
C938 C939 1.391 . S
C939 H927 0.950 . S
C939 C935 1.393 . S
C939 C938 1.391 . S
H940 C948 0.950 . S
H941 C953 0.950 . S
H942 C950 0.950 . S
H943 C952 0.950 . S
H944 C954 0.950 . S
H945 C956 0.950 . S
H946 C958 0.950 . S
H947 C959 0.950 . S
C948 H940 0.950 . S
C948 C949 1.386 . S
C948 C950 1.391 1_455 S
C949 C948 1.386 . S
C949 C953 1.393 . S
C950 H942 0.950 . S
C950 C948 1.391 1_655 S
C950 C951 1.400 . S
C951 C950 1.400 . S
C951 C952 1.398 1_655 S
C951 C957 1.491 . S
C952 H943 0.950 . S
C952 C951 1.398 1_455 S
C952 C953 1.391 . S
C953 H941 0.950 . S
C953 C949 1.393 . S
C953 C952 1.391 . S
C954 H944 0.950 . S
C954 C955 1.386 . S
C954 C956 1.391 . S
C955 C954 1.386 . S
C955 C959 1.393 . S
C956 H945 0.950 . S
C956 C954 1.391 . S
C956 C957 1.400 . S
C957 C951 1.491 . S
C957 C956 1.400 . S
C957 C958 1.398 . S
C958 H946 0.950 . S
C958 C957 1.398 . S
C958 C959 1.391 . S
C959 H947 0.950 . S
C959 C955 1.393 . S
C959 C958 1.391 . S
H960 C968 0.950 . S
H961 C973 0.950 . S
H962 C970 0.950 . S
H963 C972 0.950 . S
H964 C974 0.950 . S
H965 C976 0.950 . S
H966 C978 0.950 . S
H967 C979 0.950 . S
C968 H960 0.950 . S
C968 C969 1.386 . S
C968 C970 1.391 . S
C969 C968 1.386 . S
C969 C973 1.393 . S
C970 H962 0.950 . S
C970 C968 1.391 . S
C970 C971 1.400 . S
C971 C970 1.400 . S
C971 C972 1.398 . S
C971 C977 1.491 . S
C972 H963 0.950 . S
C972 C971 1.398 . S
C972 C973 1.391 . S
C973 H961 0.950 . S
C973 C969 1.393 . S
C973 C972 1.391 . S
C974 H964 0.950 . S
C974 C975 1.386 . S
C974 C976 1.391 . S
C975 C974 1.386 . S
C975 C979 1.393 . S
C976 H965 0.950 . S
C976 C974 1.391 . S
C976 C977 1.400 . S
C977 C971 1.491 . S
C977 C976 1.400 . S
C977 C978 1.398 . S
C978 H966 0.950 . S
C978 C977 1.398 . S
C978 C979 1.391 . S
C979 H967 0.950 . S
C979 C975 1.393 . S
C979 C978 1.391 . S
H980 C988 0.950 . S
H981 C993 0.950 . S
H982 C990 0.950 . S
H983 C992 0.950 . S
H984 C994 0.950 . S
H985 C996 0.950 . S
H986 C998 0.950 . S
H987 C999 0.950 . S
C988 H980 0.950 . S
C988 C989 1.386 . S
C988 C990 1.391 . S
C989 C988 1.386 . S
C989 C993 1.393 . S
C990 H982 0.950 . S
C990 C988 1.391 . S
C990 C991 1.400 . S
C991 C990 1.400 . S
C991 C992 1.398 . S
C991 C997 1.491 . S
C992 H983 0.950 . S
C992 C991 1.398 . S
C992 C993 1.391 . S
C993 H981 0.950 . S
C993 C989 1.393 . S
C993 C992 1.391 . S
C994 H984 0.950 . S
C994 C995 1.386 . S
C994 C996 1.391 . S
C995 C994 1.386 . S
C995 C999 1.393 . S
C996 H985 0.950 . S
C996 C994 1.391 . S
C996 C997 1.400 . S
C997 C991 1.491 . S
C997 C996 1.400 . S
C997 C998 1.398 . S
C998 H986 0.950 . S
C998 C997 1.398 . S
C998 C999 1.391 . S
C999 H987 0.950 . S
C999 C995 1.393 . S
C999 C998 1.391 . S
H1000 C1008 0.950 . S
H1001 C1013 0.950 . S
H1002 C1010 0.950 . S
H1003 C1012 0.950 . S
H1004 C1014 0.950 . S
H1005 C1016 0.950 . S
H1006 C1018 0.950 . S
H1007 C1019 0.950 . S
C1008 H1000 0.950 . S
C1008 C1009 1.386 . S
C1008 C1010 1.391 . S
C1009 C1008 1.386 . S
C1009 C1013 1.393 . S
C1010 H1002 0.950 . S
C1010 C1008 1.391 . S
C1010 C1011 1.400 . S
C1011 C1010 1.400 . S
C1011 C1012 1.398 . S
C1011 C1017 1.491 . S
C1012 H1003 0.950 . S
C1012 C1011 1.398 . S
C1012 C1013 1.391 . S
C1013 H1001 0.950 . S
C1013 C1009 1.393 . S
C1013 C1012 1.391 . S
C1014 H1004 0.950 . S
C1014 C1015 1.386 . S
C1014 C1016 1.391 . S
C1015 C1014 1.386 . S
C1015 C1019 1.393 . S
C1016 H1005 0.950 . S
C1016 C1014 1.391 . S
C1016 C1017 1.400 . S
C1017 C1011 1.491 . S
C1017 C1016 1.400 . S
C1017 C1018 1.398 . S
C1018 H1006 0.950 . S
C1018 C1017 1.398 . S
C1018 C1019 1.391 . S
C1019 H1007 0.950 . S
C1019 C1015 1.393 . S
C1019 C1018 1.391 . S
H1020 C1028 0.950 . S
H1021 C1033 0.950 . S
H1022 C1030 0.950 . S
H1023 C1032 0.950 . S
H1024 C1034 0.950 . S
H1025 C1036 0.950 . S
H1026 C1038 0.950 . S
H1027 C1039 0.950 . S
C1028 H1020 0.950 . S
C1028 C1029 1.386 . S
C1028 C1030 1.391 . S
C1029 C1028 1.386 . S
C1029 C1033 1.393 . S
C1030 H1022 0.950 . S
C1030 C1028 1.391 . S
C1030 C1031 1.400 . S
C1031 C1030 1.400 . S
C1031 C1032 1.398 . S
C1031 C1037 1.491 . S
C1032 H1023 0.950 . S
C1032 C1031 1.398 . S
C1032 C1033 1.391 . S
C1033 H1021 0.950 . S
C1033 C1029 1.393 . S
C1033 C1032 1.391 . S
C1034 H1024 0.950 . S
C1034 C1035 1.386 . S
C1034 C1036 1.391 . S
C1035 C1034 1.386 . S
C1035 C1039 1.393 . S
C1036 H1025 0.950 . S
C1036 C1034 1.391 . S
C1036 C1037 1.400 . S
C1037 C1031 1.491 . S
C1037 C1036 1.400 . S
C1037 C1038 1.398 . S
C1038 H1026 0.950 . S
C1038 C1037 1.398 . S
C1038 C1039 1.391 . S
C1039 H1027 0.950 . S
C1039 C1035 1.393 . S
C1039 C1038 1.391 . S
H1040 C1048 0.950 . S
H1041 C1053 0.950 . S
H1042 C1050 0.950 . S
H1043 C1052 0.950 . S
H1044 C1054 0.950 . S
H1045 C1056 0.950 . S
H1046 C1058 0.950 . S
H1047 C1059 0.950 . S
C1048 H1040 0.950 . S
C1048 C1049 1.386 . S
C1048 C1050 1.391 . S
C1049 C1048 1.386 . S
C1049 C1053 1.393 . S
C1050 H1042 0.950 . S
C1050 C1048 1.391 . S
C1050 C1051 1.400 . S
C1051 C1050 1.400 . S
C1051 C1052 1.398 . S
C1051 C1057 1.491 . S
C1052 H1043 0.950 . S
C1052 C1051 1.398 . S
C1052 C1053 1.391 . S
C1053 H1041 0.950 . S
C1053 C1049 1.393 . S
C1053 C1052 1.391 . S
C1054 H1044 0.950 . S
C1054 C1055 1.386 . S
C1054 C1056 1.391 . S
C1055 C1054 1.386 . S
C1055 C1059 1.393 . S
C1056 H1045 0.950 . S
C1056 C1054 1.391 . S
C1056 C1057 1.400 . S
C1057 C1051 1.491 . S
C1057 C1056 1.400 . S
C1057 C1058 1.398 . S
C1058 H1046 0.950 . S
C1058 C1057 1.398 . S
C1058 C1059 1.391 . S
C1059 H1047 0.950 . S
C1059 C1055 1.393 . S
C1059 C1058 1.391 . S
H1060 C1068 0.950 . S
H1061 C1073 0.950 . S
H1062 C1070 0.950 . S
H1063 C1072 0.950 . S
H1064 C1074 0.950 . S
H1065 C1076 0.950 . S
H1066 C1078 0.950 . S
H1067 C1079 0.950 . S
C1068 H1060 0.950 . S
C1068 C1069 1.386 . S
C1068 C1070 1.391 . S
C1069 C1068 1.386 . S
C1069 C1073 1.393 . S
C1070 H1062 0.950 . S
C1070 C1068 1.391 . S
C1070 C1071 1.400 . S
C1071 C1070 1.400 . S
C1071 C1072 1.398 . S
C1071 C1077 1.491 . S
C1072 H1063 0.950 . S
C1072 C1071 1.398 . S
C1072 C1073 1.391 . S
C1073 H1061 0.950 . S
C1073 C1069 1.393 . S
C1073 C1072 1.391 . S
C1074 H1064 0.950 . S
C1074 C1075 1.386 . S
C1074 C1076 1.391 . S
C1075 C1074 1.386 . S
C1075 C1079 1.393 . S
C1076 H1065 0.950 . S
C1076 C1074 1.391 . S
C1076 C1077 1.400 . S
C1077 C1071 1.491 . S
C1077 C1076 1.400 . S
C1077 C1078 1.398 . S
C1078 H1066 0.950 . S
C1078 C1077 1.398 . S
C1078 C1079 1.391 . S
C1079 H1067 0.950 . S
C1079 C1075 1.393 . S
C1079 C1078 1.391 . S
H1080 C1088 0.950 . S
H1081 C1093 0.950 . S
H1082 C1090 0.950 . S
H1083 C1092 0.950 . S
H1084 C1094 0.950 . S
H1085 C1096 0.950 . S
H1086 C1098 0.950 . S
H1087 C1099 0.950 . S
C1088 H1080 0.950 . S
C1088 C1089 1.386 . S
C1088 C1090 1.391 . S
C1089 C1088 1.386 . S
C1089 C1093 1.393 . S
C1090 H1082 0.950 . S
C1090 C1088 1.391 . S
C1090 C1091 1.400 . S
C1091 C1090 1.400 . S
C1091 C1092 1.398 . S
C1091 C1097 1.491 . S
C1092 H1083 0.950 . S
C1092 C1091 1.398 . S
C1092 C1093 1.391 . S
C1093 H1081 0.950 . S
C1093 C1089 1.393 . S
C1093 C1092 1.391 . S
C1094 H1084 0.950 . S
C1094 C1095 1.386 . S
C1094 C1096 1.391 . S
C1095 C1094 1.386 . S
C1095 C1099 1.393 . S
C1096 H1085 0.950 . S
C1096 C1094 1.391 . S
C1096 C1097 1.400 . S
C1097 C1091 1.491 . S
C1097 C1096 1.400 . S
C1097 C1098 1.398 . S
C1098 H1086 0.950 . S
C1098 C1097 1.398 . S
C1098 C1099 1.391 . S
C1099 H1087 0.950 . S
C1099 C1095 1.393 . S
C1099 C1098 1.391 . S
H1100 C1108 0.950 . S
H1101 C1113 0.950 . S
H1102 C1110 0.950 . S
H1103 C1112 0.950 . S
H1104 C1114 0.950 . S
H1105 C1116 0.950 . S
H1106 C1118 0.950 . S
H1107 C1119 0.950 . S
C1108 H1100 0.950 . S
C1108 C1109 1.386 . S
C1108 C1110 1.391 . S
C1109 C1108 1.386 . S
C1109 C1113 1.393 . S
C1110 H1102 0.950 . S
C1110 C1108 1.391 . S
C1110 C1111 1.400 . S
C1111 C1110 1.400 . S
C1111 C1112 1.398 . S
C1111 C1117 1.491 . S
C1112 H1103 0.950 . S
C1112 C1111 1.398 . S
C1112 C1113 1.391 . S
C1113 H1101 0.950 . S
C1113 C1109 1.393 . S
C1113 C1112 1.391 . S
C1114 H1104 0.950 . S
C1114 C1115 1.386 . S
C1114 C1116 1.391 . S
C1115 C1114 1.386 . S
C1115 C1119 1.393 . S
C1116 H1105 0.950 . S
C1116 C1114 1.391 . S
C1116 C1117 1.400 . S
C1117 C1111 1.491 . S
C1117 C1116 1.400 . S
C1117 C1118 1.398 . S
C1118 H1106 0.950 . S
C1118 C1117 1.398 . S
C1118 C1119 1.391 . S
C1119 H1107 0.950 . S
C1119 C1115 1.393 . S
C1119 C1118 1.391 . S
H1120 C1128 0.950 . S
H1121 C1133 0.950 . S
H1122 C1130 0.950 . S
H1123 C1132 0.950 . S
H1124 C1134 0.950 1_554 S
H1125 C1136 0.950 . S
H1126 C1138 0.950 . S
H1127 C1139 0.950 . S
C1128 H1120 0.950 . S
C1128 C1129 1.386 . S
C1128 C1130 1.391 . S
C1129 C1128 1.386 . S
C1129 C1133 1.393 . S
C1130 H1122 0.950 . S
C1130 C1128 1.391 . S
C1130 C1131 1.400 . S
C1131 C1130 1.400 . S
C1131 C1132 1.398 . S
C1131 C1137 1.491 . S
C1132 H1123 0.950 . S
C1132 C1131 1.398 . S
C1132 C1133 1.391 . S
C1133 H1121 0.950 . S
C1133 C1129 1.393 . S
C1133 C1132 1.391 . S
C1134 H1124 0.950 1_556 S
C1134 C1135 1.386 . S
C1134 C1136 1.391 . S
C1135 C1134 1.386 . S
C1135 C1139 1.393 . S
C1136 H1125 0.950 . S
C1136 C1134 1.391 . S
C1136 C1137 1.400 . S
C1137 C1131 1.491 . S
C1137 C1136 1.400 . S
C1137 C1138 1.398 . S
C1138 H1126 0.950 . S
C1138 C1137 1.398 . S
C1138 C1139 1.391 . S
C1139 H1127 0.950 . S
C1139 C1135 1.393 . S
C1139 C1138 1.391 . S
H1140 C1148 0.950 . S
H1141 C1153 0.950 . S
H1142 C1150 0.950 . S
H1143 C1152 0.950 . S
H1144 C1154 0.950 . S
H1145 C1156 0.950 . S
H1146 C1158 0.950 . S
H1147 C1159 0.950 . S
C1148 H1140 0.950 . S
C1148 C1149 1.386 . S
C1148 C1150 1.391 . S
C1149 C1148 1.386 . S
C1149 C1153 1.393 . S
C1150 H1142 0.950 . S
C1150 C1148 1.391 . S
C1150 C1151 1.400 . S
C1151 C1150 1.400 . S
C1151 C1152 1.398 . S
C1151 C1157 1.491 . S
C1152 H1143 0.950 . S
C1152 C1151 1.398 . S
C1152 C1153 1.391 . S
C1153 H1141 0.950 . S
C1153 C1149 1.393 . S
C1153 C1152 1.391 . S
C1154 H1144 0.950 . S
C1154 C1155 1.386 . S
C1154 C1156 1.391 . S
C1155 C1154 1.386 . S
C1155 C1159 1.393 . S
C1156 H1145 0.950 . S
C1156 C1154 1.391 . S
C1156 C1157 1.400 . S
C1157 C1151 1.491 . S
C1157 C1156 1.400 . S
C1157 C1158 1.398 . S
C1158 H1146 0.950 . S
C1158 C1157 1.398 . S
C1158 C1159 1.391 . S
C1159 H1147 0.950 . S
C1159 C1155 1.393 . S
C1159 C1158 1.391 . S
H1160 C1168 0.950 . S
H1161 C1173 0.950 . S
H1162 C1170 0.950 . S
H1163 C1172 0.950 . S
H1164 C1174 0.950 . S
H1165 C1176 0.950 . S
H1166 C1178 0.950 . S
H1167 C1179 0.950 . S
C1168 H1160 0.950 . S
C1168 C1169 1.386 . S
C1168 C1170 1.391 . S
C1169 C1168 1.386 . S
C1169 C1173 1.393 . S
C1170 H1162 0.950 . S
C1170 C1168 1.391 . S
C1170 C1171 1.400 . S
C1171 C1170 1.400 . S
C1171 C1172 1.398 . S
C1171 C1177 1.491 . S
C1172 H1163 0.950 . S
C1172 C1171 1.398 . S
C1172 C1173 1.391 . S
C1173 H1161 0.950 . S
C1173 C1169 1.393 . S
C1173 C1172 1.391 . S
C1174 H1164 0.950 . S
C1174 C1175 1.386 . S
C1174 C1176 1.391 . S
C1175 C1174 1.386 . S
C1175 C1179 1.393 . S
C1176 H1165 0.950 . S
C1176 C1174 1.391 . S
C1176 C1177 1.400 . S
C1177 C1171 1.491 . S
C1177 C1176 1.400 . S
C1177 C1178 1.398 . S
C1178 H1166 0.950 . S
C1178 C1177 1.398 . S
C1178 C1179 1.391 . S
C1179 H1167 0.950 . S
C1179 C1175 1.393 . S
C1179 C1178 1.391 . S
H1180 C1188 0.950 1_556 S
H1181 C1193 0.950 . S
H1182 C1190 0.950 . S
H1183 C1192 0.950 . S
H1184 C1194 0.950 . S
H1185 C1196 0.950 . S
H1186 C1198 0.950 . S
H1187 C1199 0.950 . S
C1188 H1180 0.950 1_554 S
C1188 C1189 1.386 . S
C1188 C1190 1.391 . S
C1189 C1188 1.386 . S
C1189 C1193 1.393 . S
C1190 H1182 0.950 . S
C1190 C1188 1.391 . S
C1190 C1191 1.400 . S
C1191 C1190 1.400 . S
C1191 C1192 1.398 . S
C1191 C1197 1.491 . S
C1192 H1183 0.950 . S
C1192 C1191 1.398 . S
C1192 C1193 1.391 . S
C1193 H1181 0.950 . S
C1193 C1189 1.393 . S
C1193 C1192 1.391 . S
C1194 H1184 0.950 . S
C1194 C1195 1.386 . S
C1194 C1196 1.391 . S
C1195 C1194 1.386 . S
C1195 C1199 1.393 . S
C1196 H1185 0.950 . S
C1196 C1194 1.391 . S
C1196 C1197 1.400 . S
C1197 C1191 1.491 . S
C1197 C1196 1.400 . S
C1197 C1198 1.398 . S
C1198 H1186 0.950 . S
C1198 C1197 1.398 . S
C1198 C1199 1.391 . S
C1199 H1187 0.950 . S
C1199 C1195 1.393 . S
C1199 C1198 1.391 . S
H1200 C1208 0.950 . S
H1201 C1213 0.950 . S
H1202 C1210 0.950 . S
H1203 C1212 0.950 . S
H1204 C1214 0.950 . S
H1205 C1216 0.950 . S
H1206 C1218 0.950 . S
H1207 C1219 0.950 . S
C1208 H1200 0.950 . S
C1208 C1209 1.386 . S
C1208 C1210 1.391 . S
C1209 C1208 1.386 . S
C1209 C1213 1.393 . S
C1210 H1202 0.950 . S
C1210 C1208 1.391 . S
C1210 C1211 1.400 . S
C1211 C1210 1.400 . S
C1211 C1212 1.398 . S
C1211 C1217 1.491 . S
C1212 H1203 0.950 . S
C1212 C1211 1.398 . S
C1212 C1213 1.391 . S
C1213 H1201 0.950 . S
C1213 C1209 1.393 . S
C1213 C1212 1.391 . S
C1214 H1204 0.950 . S
C1214 C1215 1.386 . S
C1214 C1216 1.391 . S
C1215 C1214 1.386 . S
C1215 C1219 1.393 . S
C1216 H1205 0.950 . S
C1216 C1214 1.391 . S
C1216 C1217 1.400 . S
C1217 C1211 1.491 . S
C1217 C1216 1.400 . S
C1217 C1218 1.398 . S
C1218 H1206 0.950 . S
C1218 C1217 1.398 . S
C1218 C1219 1.391 . S
C1219 H1207 0.950 . S
C1219 C1215 1.393 . S
C1219 C1218 1.391 . S
H1220 C1228 0.950 . S
H1221 C1233 0.950 . S
H1222 C1230 0.950 . S
H1223 C1232 0.950 . S
H1224 C1234 0.950 . S
H1225 C1236 0.950 . S
H1226 C1238 0.950 . S
H1227 C1239 0.950 . S
C1228 H1220 0.950 . S
C1228 C1229 1.386 . S
C1228 C1230 1.391 . S
C1229 C1228 1.386 . S
C1229 C1233 1.393 . S
C1230 H1222 0.950 . S
C1230 C1228 1.391 . S
C1230 C1231 1.400 . S
C1231 C1230 1.400 . S
C1231 C1232 1.398 . S
C1231 C1237 1.491 . S
C1232 H1223 0.950 . S
C1232 C1231 1.398 . S
C1232 C1233 1.391 . S
C1233 H1221 0.950 . S
C1233 C1229 1.393 . S
C1233 C1232 1.391 . S
C1234 H1224 0.950 . S
C1234 C1235 1.386 . S
C1234 C1236 1.391 . S
C1235 C1234 1.386 . S
C1235 C1239 1.393 . S
C1236 H1225 0.950 . S
C1236 C1234 1.391 . S
C1236 C1237 1.400 . S
C1237 C1231 1.491 . S
C1237 C1236 1.400 . S
C1237 C1238 1.398 . S
C1238 H1226 0.950 . S
C1238 C1237 1.398 . S
C1238 C1239 1.391 . S
C1239 H1227 0.950 . S
C1239 C1235 1.393 . S
C1239 C1238 1.391 . S
H1240 C1248 0.950 . S
H1241 C1253 0.950 . S
H1242 C1250 0.950 . S
H1243 C1252 0.950 . S
H1244 C1254 0.950 . S
H1245 C1256 0.950 . S
H1246 C1258 0.950 . S
H1247 C1259 0.950 . S
C1248 H1240 0.950 . S
C1248 C1249 1.386 . S
C1248 C1250 1.391 . S
C1249 C1248 1.386 . S
C1249 C1253 1.393 . S
C1250 H1242 0.950 . S
C1250 C1248 1.391 . S
C1250 C1251 1.400 . S
C1251 C1250 1.400 . S
C1251 C1252 1.398 . S
C1251 C1257 1.491 . S
C1252 H1243 0.950 . S
C1252 C1251 1.398 . S
C1252 C1253 1.391 . S
C1253 H1241 0.950 . S
C1253 C1249 1.393 . S
C1253 C1252 1.391 . S
C1254 H1244 0.950 . S
C1254 C1255 1.386 . S
C1254 C1256 1.391 . S
C1255 C1254 1.386 . S
C1255 C1259 1.393 . S
C1256 H1245 0.950 . S
C1256 C1254 1.391 . S
C1256 C1257 1.400 . S
C1257 C1251 1.491 . S
C1257 C1256 1.400 . S
C1257 C1258 1.398 . S
C1258 H1246 0.950 . S
C1258 C1257 1.398 . S
C1258 C1259 1.391 . S
C1259 H1247 0.950 . S
C1259 C1255 1.393 . S
C1259 C1258 1.391 . S
H1260 C1268 0.950 . S
H1261 C1273 0.950 . S
H1262 C1270 0.950 . S
H1263 C1272 0.950 . S
H1264 C1274 0.950 . S
H1265 C1276 0.950 . S
H1266 C1278 0.950 . S
H1267 C1279 0.950 . S
C1268 H1260 0.950 . S
C1268 C1269 1.386 . S
C1268 C1270 1.391 . S
C1269 C1268 1.386 . S
C1269 C1273 1.393 . S
C1270 H1262 0.950 . S
C1270 C1268 1.391 . S
C1270 C1271 1.400 . S
C1271 C1270 1.400 . S
C1271 C1272 1.398 . S
C1271 C1277 1.491 . S
C1272 H1263 0.950 . S
C1272 C1271 1.398 . S
C1272 C1273 1.391 . S
C1273 H1261 0.950 . S
C1273 C1269 1.393 . S
C1273 C1272 1.391 . S
C1274 H1264 0.950 . S
C1274 C1275 1.386 . S
C1274 C1276 1.391 . S
C1275 C1274 1.386 . S
C1275 C1279 1.393 . S
C1276 H1265 0.950 . S
C1276 C1274 1.391 . S
C1276 C1277 1.400 . S
C1277 C1271 1.491 . S
C1277 C1276 1.400 . S
C1277 C1278 1.398 . S
C1278 H1266 0.950 . S
C1278 C1277 1.398 . S
C1278 C1279 1.391 . S
C1279 H1267 0.950 . S
C1279 C1275 1.393 . S
C1279 C1278 1.391 . S
H1280 C1288 0.950 . S
H1281 C1293 0.950 . S
H1282 C1290 0.950 . S
H1283 C1292 0.950 . S
H1284 C1294 0.950 . S
H1285 C1296 0.950 . S
H1286 C1298 0.950 . S
H1287 C1299 0.950 . S
C1288 H1280 0.950 . S
C1288 C1289 1.386 . S
C1288 C1290 1.391 . S
C1289 C1288 1.386 . S
C1289 C1293 1.393 . S
C1290 H1282 0.950 . S
C1290 C1288 1.391 . S
C1290 C1291 1.400 . S
C1291 C1290 1.400 . S
C1291 C1292 1.398 . S
C1291 C1297 1.491 . S
C1292 H1283 0.950 . S
C1292 C1291 1.398 . S
C1292 C1293 1.391 . S
C1293 H1281 0.950 . S
C1293 C1289 1.393 . S
C1293 C1292 1.391 . S
C1294 H1284 0.950 . S
C1294 C1295 1.386 . S
C1294 C1296 1.391 . S
C1295 C1294 1.386 . S
C1295 C1299 1.393 . S
C1296 H1285 0.950 . S
C1296 C1294 1.391 . S
C1296 C1297 1.400 . S
C1297 C1291 1.491 . S
C1297 C1296 1.400 . S
C1297 C1298 1.398 . S
C1298 H1286 0.950 . S
C1298 C1297 1.398 . S
C1298 C1299 1.391 . S
C1299 H1287 0.950 . S
C1299 C1295 1.393 . S
C1299 C1298 1.391 . S
H1300 C1308 0.950 . S
H1301 C1313 0.950 . S
H1302 C1310 0.950 . S
H1303 C1312 0.950 . S
H1304 C1314 0.950 . S
H1305 C1316 0.950 . S
H1306 C1318 0.950 . S
H1307 C1319 0.950 . S
C1308 H1300 0.950 . S
C1308 C1309 1.386 . S
C1308 C1310 1.391 . S
C1309 C1308 1.386 . S
C1309 C1313 1.393 . S
C1310 H1302 0.950 . S
C1310 C1308 1.391 . S
C1310 C1311 1.400 . S
C1311 C1310 1.400 . S
C1311 C1312 1.398 . S
C1311 C1317 1.491 . S
C1312 H1303 0.950 . S
C1312 C1311 1.398 . S
C1312 C1313 1.391 . S
C1313 H1301 0.950 . S
C1313 C1309 1.393 . S
C1313 C1312 1.391 . S
C1314 H1304 0.950 . S
C1314 C1315 1.386 . S
C1314 C1316 1.391 . S
C1315 C1314 1.386 . S
C1315 C1319 1.393 . S
C1316 H1305 0.950 . S
C1316 C1314 1.391 . S
C1316 C1317 1.400 . S
C1317 C1311 1.491 . S
C1317 C1316 1.400 . S
C1317 C1318 1.398 . S
C1318 H1306 0.950 . S
C1318 C1317 1.398 . S
C1318 C1319 1.391 . S
C1319 H1307 0.950 . S
C1319 C1315 1.393 . S
C1319 C1318 1.391 . S
H1320 C1328 0.950 . S
H1321 C1333 0.950 . S
H1322 C1330 0.950 . S
H1323 C1332 0.950 . S
H1324 C1334 0.950 . S
H1325 C1336 0.950 . S
H1326 C1338 0.950 . S
H1327 C1339 0.950 . S
C1328 H1320 0.950 . S
C1328 C1329 1.386 . S
C1328 C1330 1.391 . S
C1329 C1328 1.386 . S
C1329 C1333 1.393 . S
C1330 H1322 0.950 . S
C1330 C1328 1.391 . S
C1330 C1331 1.400 . S
C1331 C1330 1.400 . S
C1331 C1332 1.398 . S
C1331 C1337 1.491 . S
C1332 H1323 0.950 . S
C1332 C1331 1.398 . S
C1332 C1333 1.391 . S
C1333 H1321 0.950 . S
C1333 C1329 1.393 . S
C1333 C1332 1.391 . S
C1334 H1324 0.950 . S
C1334 C1335 1.386 . S
C1334 C1336 1.391 . S
C1335 C1334 1.386 . S
C1335 C1339 1.393 . S
C1336 H1325 0.950 . S
C1336 C1334 1.391 . S
C1336 C1337 1.400 . S
C1337 C1331 1.491 . S
C1337 C1336 1.400 . S
C1337 C1338 1.398 . S
C1338 H1326 0.950 . S
C1338 C1337 1.398 . S
C1338 C1339 1.391 . S
C1339 H1327 0.950 . S
C1339 C1335 1.393 . S
C1339 C1338 1.391 . S
H1340 C1348 0.950 . S
H1341 C1353 0.950 . S
H1342 C1350 0.950 . S
H1343 C1352 0.950 . S
H1344 C1354 0.950 . S
H1345 C1356 0.950 . S
H1346 C1358 0.950 . S
H1347 C1359 0.950 . S
C1348 H1340 0.950 . S
C1348 C1349 1.386 . S
C1348 C1350 1.391 . S
C1349 C1348 1.386 . S
C1349 C1353 1.393 . S
C1350 H1342 0.950 . S
C1350 C1348 1.391 . S
C1350 C1351 1.400 . S
C1351 C1350 1.400 . S
C1351 C1352 1.398 . S
C1351 C1357 1.491 . S
C1352 H1343 0.950 . S
C1352 C1351 1.398 . S
C1352 C1353 1.391 . S
C1353 H1341 0.950 . S
C1353 C1349 1.393 . S
C1353 C1352 1.391 . S
C1354 H1344 0.950 . S
C1354 C1355 1.386 . S
C1354 C1356 1.391 . S
C1355 C1354 1.386 . S
C1355 C1359 1.393 . S
C1356 H1345 0.950 . S
C1356 C1354 1.391 . S
C1356 C1357 1.400 . S
C1357 C1351 1.491 . S
C1357 C1356 1.400 . S
C1357 C1358 1.398 . S
C1358 H1346 0.950 . S
C1358 C1357 1.398 . S
C1358 C1359 1.391 . S
C1359 H1347 0.950 . S
C1359 C1355 1.393 . S
C1359 C1358 1.391 . S
H1360 C1368 0.950 . S
H1361 C1373 0.950 . S
H1362 C1370 0.950 . S
H1363 C1372 0.950 . S
H1364 C1374 0.950 . S
H1365 C1376 0.950 . S
H1366 C1378 0.950 . S
H1367 C1379 0.950 . S
C1368 H1360 0.950 . S
C1368 C1369 1.386 . S
C1368 C1370 1.391 . S
C1369 C1368 1.386 . S
C1369 C1373 1.393 . S
C1370 H1362 0.950 . S
C1370 C1368 1.391 . S
C1370 C1371 1.400 . S
C1371 C1370 1.400 . S
C1371 C1372 1.398 . S
C1371 C1377 1.491 . S
C1372 H1363 0.950 . S
C1372 C1371 1.398 . S
C1372 C1373 1.391 . S
C1373 H1361 0.950 . S
C1373 C1369 1.393 . S
C1373 C1372 1.391 . S
C1374 H1364 0.950 . S
C1374 C1375 1.386 . S
C1374 C1376 1.391 . S
C1375 C1374 1.386 . S
C1375 C1379 1.393 . S
C1376 H1365 0.950 . S
C1376 C1374 1.391 . S
C1376 C1377 1.400 . S
C1377 C1371 1.491 . S
C1377 C1376 1.400 . S
C1377 C1378 1.398 . S
C1378 H1366 0.950 . S
C1378 C1377 1.398 . S
C1378 C1379 1.391 . S
C1379 H1367 0.950 . S
C1379 C1375 1.393 . S
C1379 C1378 1.391 . S
H1380 C1388 0.950 . S
H1381 C1393 0.950 . S
H1382 C1390 0.950 . S
H1383 C1392 0.950 . S
H1384 C1394 0.950 . S
H1385 C1396 0.950 . S
H1386 C1398 0.950 . S
H1387 C1399 0.950 . S
C1388 H1380 0.950 . S
C1388 C1389 1.386 . S
C1388 C1390 1.391 . S
C1389 C1388 1.386 . S
C1389 C1393 1.393 . S
C1390 H1382 0.950 . S
C1390 C1388 1.391 . S
C1390 C1391 1.400 . S
C1391 C1390 1.400 . S
C1391 C1392 1.398 . S
C1391 C1397 1.491 . S
C1392 H1383 0.950 . S
C1392 C1391 1.398 . S
C1392 C1393 1.391 . S
C1393 H1381 0.950 . S
C1393 C1389 1.393 . S
C1393 C1392 1.391 . S
C1394 H1384 0.950 . S
C1394 C1395 1.386 . S
C1394 C1396 1.391 . S
C1395 C1394 1.386 . S
C1395 C1399 1.393 . S
C1396 H1385 0.950 . S
C1396 C1394 1.391 . S
C1396 C1397 1.400 . S
C1397 C1391 1.491 . S
C1397 C1396 1.400 . S
C1397 C1398 1.398 . S
C1398 H1386 0.950 . S
C1398 C1397 1.398 . S
C1398 C1399 1.391 . S
C1399 H1387 0.950 . S
C1399 C1395 1.393 . S
C1399 C1398 1.391 . S
H1400 C1408 0.950 . S
H1401 C1413 0.950 . S
H1402 C1410 0.950 . S
H1403 C1412 0.950 . S
H1404 C1414 0.950 . S
H1405 C1416 0.950 . S
H1406 C1418 0.950 . S
H1407 C1419 0.950 . S
C1408 H1400 0.950 . S
C1408 C1409 1.386 . S
C1408 C1410 1.391 . S
C1409 C1408 1.386 . S
C1409 C1413 1.393 . S
C1410 H1402 0.950 . S
C1410 C1408 1.391 . S
C1410 C1411 1.400 . S
C1411 C1410 1.400 . S
C1411 C1412 1.398 . S
C1411 C1417 1.491 . S
C1412 H1403 0.950 . S
C1412 C1411 1.398 . S
C1412 C1413 1.391 . S
C1413 H1401 0.950 . S
C1413 C1409 1.393 . S
C1413 C1412 1.391 . S
C1414 H1404 0.950 . S
C1414 C1415 1.386 . S
C1414 C1416 1.391 . S
C1415 C1414 1.386 . S
C1415 C1419 1.393 . S
C1416 H1405 0.950 . S
C1416 C1414 1.391 . S
C1416 C1417 1.400 . S
C1417 C1411 1.491 . S
C1417 C1416 1.400 . S
C1417 C1418 1.398 . S
C1418 H1406 0.950 . S
C1418 C1417 1.398 . S
C1418 C1419 1.391 . S
C1419 H1407 0.950 . S
C1419 C1415 1.393 . S
C1419 C1418 1.391 . S
H1420 C1428 0.950 . S
H1421 C1433 0.950 . S
H1422 C1430 0.950 . S
H1423 C1432 0.950 . S
H1424 C1434 0.950 . S
H1425 C1436 0.950 . S
H1426 C1438 0.950 . S
H1427 C1439 0.950 . S
C1428 H1420 0.950 . S
C1428 C1429 1.386 . S
C1428 C1430 1.391 . S
C1429 C1428 1.386 . S
C1429 C1433 1.393 . S
C1430 H1422 0.950 . S
C1430 C1428 1.391 . S
C1430 C1431 1.400 . S
C1431 C1430 1.400 . S
C1431 C1432 1.398 . S
C1431 C1437 1.491 . S
C1432 H1423 0.950 . S
C1432 C1431 1.398 . S
C1432 C1433 1.391 . S
C1433 H1421 0.950 . S
C1433 C1429 1.393 . S
C1433 C1432 1.391 . S
C1434 H1424 0.950 . S
C1434 C1435 1.386 . S
C1434 C1436 1.391 . S
C1435 C1434 1.386 . S
C1435 C1439 1.393 . S
C1436 H1425 0.950 . S
C1436 C1434 1.391 . S
C1436 C1437 1.400 . S
C1437 C1431 1.491 . S
C1437 C1436 1.400 . S
C1437 C1438 1.398 . S
C1438 H1426 0.950 . S
C1438 C1437 1.398 . S
C1438 C1439 1.391 . S
C1439 H1427 0.950 . S
C1439 C1435 1.393 . S
C1439 C1438 1.391 . S
H1440 C1448 0.950 . S
H1441 C1453 0.950 1_556 S
H1442 C1450 0.950 . S
H1443 C1452 0.950 . S
H1444 C1454 0.950 . S
H1445 C1456 0.950 . S
H1446 C1458 0.950 . S
H1447 C1459 0.950 . S
C1448 H1440 0.950 . S
C1448 C1449 1.386 1_554 S
C1448 C1450 1.391 . S
C1449 C1448 1.386 1_556 S
C1449 C1453 1.393 1_556 S
C1450 H1442 0.950 . S
C1450 C1448 1.391 . S
C1450 C1451 1.400 . S
C1451 C1450 1.400 . S
C1451 C1452 1.398 . S
C1451 C1457 1.491 . S
C1452 H1443 0.950 . S
C1452 C1451 1.398 . S
C1452 C1453 1.391 . S
C1453 H1441 0.950 1_554 S
C1453 C1449 1.393 1_554 S
C1453 C1452 1.391 . S
C1454 H1444 0.950 . S
C1454 C1455 1.386 . S
C1454 C1456 1.391 . S
C1455 C1454 1.386 . S
C1455 C1459 1.393 . S
C1456 H1445 0.950 . S
C1456 C1454 1.391 . S
C1456 C1457 1.400 . S
C1457 C1451 1.491 . S
C1457 C1456 1.400 . S
C1457 C1458 1.398 . S
C1458 H1446 0.950 . S
C1458 C1457 1.398 . S
C1458 C1459 1.391 . S
C1459 H1447 0.950 . S
C1459 C1455 1.393 . S
C1459 C1458 1.391 . S
H1460 C1468 0.950 . S
H1461 C1473 0.950 . S
H1462 C1470 0.950 . S
H1463 C1472 0.950 . S
H1464 C1474 0.950 1_554 S
H1465 C1476 0.950 . S
H1466 C1478 0.950 . S
H1467 C1479 0.950 . S
C1468 H1460 0.950 . S
C1468 C1469 1.386 . S
C1468 C1470 1.391 . S
C1469 C1468 1.386 . S
C1469 C1473 1.393 . S
C1470 H1462 0.950 . S
C1470 C1468 1.391 . S
C1470 C1471 1.400 . S
C1471 C1470 1.400 . S
C1471 C1472 1.398 . S
C1471 C1477 1.491 . S
C1472 H1463 0.950 . S
C1472 C1471 1.398 . S
C1472 C1473 1.391 . S
C1473 H1461 0.950 . S
C1473 C1469 1.393 . S
C1473 C1472 1.391 . S
C1474 H1464 0.950 1_556 S
C1474 C1475 1.386 1_556 S
C1474 C1476 1.391 . S
C1475 C1474 1.386 1_554 S
C1475 C1479 1.393 1_554 S
C1476 H1465 0.950 . S
C1476 C1474 1.391 . S
C1476 C1477 1.400 . S
C1477 C1471 1.491 . S
C1477 C1476 1.400 . S
C1477 C1478 1.398 . S
C1478 H1466 0.950 . S
C1478 C1477 1.398 . S
C1478 C1479 1.391 . S
C1479 H1467 0.950 . S
C1479 C1475 1.393 1_556 S
C1479 C1478 1.391 . S
H1480 C1488 0.950 . S
H1481 C1493 0.950 . S
H1482 C1490 0.950 . S
H1483 C1492 0.950 . S
H1484 C1494 0.950 1_556 S
H1485 C1496 0.950 . S
H1486 C1498 0.950 . S
H1487 C1499 0.950 . S
C1488 H1480 0.950 . S
C1488 C1489 1.386 . S
C1488 C1490 1.391 . S
C1489 C1488 1.386 . S
C1489 C1493 1.393 . S
C1490 H1482 0.950 . S
C1490 C1488 1.391 . S
C1490 C1491 1.400 . S
C1491 C1490 1.400 . S
C1491 C1492 1.398 . S
C1491 C1497 1.491 . S
C1492 H1483 0.950 . S
C1492 C1491 1.398 . S
C1492 C1493 1.391 . S
C1493 H1481 0.950 . S
C1493 C1489 1.393 . S
C1493 C1492 1.391 . S
C1494 H1484 0.950 1_554 S
C1494 C1495 1.386 1_554 S
C1494 C1496 1.391 . S
C1495 C1494 1.386 1_556 S
C1495 C1499 1.393 1_556 S
C1496 H1485 0.950 . S
C1496 C1494 1.391 . S
C1496 C1497 1.400 . S
C1497 C1491 1.491 . S
C1497 C1496 1.400 . S
C1497 C1498 1.398 . S
C1498 H1486 0.950 . S
C1498 C1497 1.398 . S
C1498 C1499 1.391 . S
C1499 H1487 0.950 . S
C1499 C1495 1.393 1_554 S
C1499 C1498 1.391 . S
H1500 C1508 0.950 1_554 S
H1501 C1513 0.950 . S
H1502 C1510 0.950 . S
H1503 C1512 0.950 . S
H1504 C1514 0.950 . S
H1505 C1516 0.950 . S
H1506 C1518 0.950 . S
H1507 C1519 0.950 . S
C1508 H1500 0.950 1_556 S
C1508 C1509 1.386 1_556 S
C1508 C1510 1.391 . S
C1509 C1508 1.386 1_554 S
C1509 C1513 1.393 1_554 S
C1510 H1502 0.950 . S
C1510 C1508 1.391 . S
C1510 C1511 1.400 . S
C1511 C1510 1.400 . S
C1511 C1512 1.398 . S
C1511 C1517 1.491 . S
C1512 H1503 0.950 . S
C1512 C1511 1.398 . S
C1512 C1513 1.391 . S
C1513 H1501 0.950 . S
C1513 C1509 1.393 1_556 S
C1513 C1512 1.391 . S
C1514 H1504 0.950 . S
C1514 C1515 1.386 . S
C1514 C1516 1.391 . S
C1515 C1514 1.386 . S
C1515 C1519 1.393 . S
C1516 H1505 0.950 . S
C1516 C1514 1.391 . S
C1516 C1517 1.400 . S
C1517 C1511 1.491 . S
C1517 C1516 1.400 . S
C1517 C1518 1.398 . S
C1518 H1506 0.950 . S
C1518 C1517 1.398 . S
C1518 C1519 1.391 . S
C1519 H1507 0.950 . S
C1519 C1515 1.393 . S
C1519 C1518 1.391 . S
H1520 C1528 0.950 . S
H1521 C1533 0.950 . S
H1522 C1530 0.950 . S
H1523 C1532 0.950 . S
H1524 C1534 0.950 1_556 S
H1525 C1536 0.950 . S
H1526 C1538 0.950 . S
H1527 C1539 0.950 . S
C1528 H1520 0.950 . S
C1528 C1529 1.386 . S
C1528 C1530 1.391 . S
C1529 C1528 1.386 . S
C1529 C1533 1.393 . S
C1530 H1522 0.950 . S
C1530 C1528 1.391 . S
C1530 C1531 1.400 . S
C1531 C1530 1.400 . S
C1531 C1532 1.398 . S
C1531 C1537 1.491 . S
C1532 H1523 0.950 . S
C1532 C1531 1.398 . S
C1532 C1533 1.391 . S
C1533 H1521 0.950 . S
C1533 C1529 1.393 . S
C1533 C1532 1.391 . S
C1534 H1524 0.950 1_554 S
C1534 C1535 1.386 1_554 S
C1534 C1536 1.391 . S
C1535 C1534 1.386 1_556 S
C1535 C1539 1.393 1_556 S
C1536 H1525 0.950 . S
C1536 C1534 1.391 . S
C1536 C1537 1.400 . S
C1537 C1531 1.491 . S
C1537 C1536 1.400 . S
C1537 C1538 1.398 . S
C1538 H1526 0.950 . S
C1538 C1537 1.398 . S
C1538 C1539 1.391 . S
C1539 H1527 0.950 . S
C1539 C1535 1.393 1_554 S
C1539 C1538 1.391 . S
H1540 C1548 0.950 . S
H1541 C1553 0.950 1_554 S
H1542 C1550 0.950 . S
H1543 C1552 0.950 . S
H1544 C1554 0.950 . S
H1545 C1556 0.950 . S
H1546 C1558 0.950 . S
H1547 C1559 0.950 . S
C1548 H1540 0.950 . S
C1548 C1549 1.386 1_556 S
C1548 C1550 1.391 . S
C1549 C1548 1.386 1_554 S
C1549 C1553 1.393 1_554 S
C1550 H1542 0.950 . S
C1550 C1548 1.391 . S
C1550 C1551 1.400 . S
C1551 C1550 1.400 . S
C1551 C1552 1.398 . S
C1551 C1557 1.491 . S
C1552 H1543 0.950 . S
C1552 C1551 1.398 . S
C1552 C1553 1.391 . S
C1553 H1541 0.950 1_556 S
C1553 C1549 1.393 1_556 S
C1553 C1552 1.391 . S
C1554 H1544 0.950 . S
C1554 C1555 1.386 . S
C1554 C1556 1.391 . S
C1555 C1554 1.386 . S
C1555 C1559 1.393 . S
C1556 H1545 0.950 . S
C1556 C1554 1.391 . S
C1556 C1557 1.400 . S
C1557 C1551 1.491 . S
C1557 C1556 1.400 . S
C1557 C1558 1.398 . S
C1558 H1546 0.950 . S
C1558 C1557 1.398 . S
C1558 C1559 1.391 . S
C1559 H1547 0.950 . S
C1559 C1555 1.393 . S
C1559 C1558 1.391 . S
H1560 C1568 0.950 1_556 S
H1561 C1573 0.950 . S
H1562 C1570 0.950 . S
H1563 C1572 0.950 . S
H1564 C1574 0.950 . S
H1565 C1576 0.950 . S
H1566 C1578 0.950 . S
H1567 C1579 0.950 . S
C1568 H1560 0.950 1_554 S
C1568 C1569 1.386 1_554 S
C1568 C1570 1.391 . S
C1569 C1568 1.386 1_556 S
C1569 C1573 1.393 1_556 S
C1570 H1562 0.950 . S
C1570 C1568 1.391 . S
C1570 C1571 1.400 . S
C1571 C1570 1.400 . S
C1571 C1572 1.398 . S
C1571 C1577 1.491 . S
C1572 H1563 0.950 . S
C1572 C1571 1.398 . S
C1572 C1573 1.391 . S
C1573 H1561 0.950 . S
C1573 C1569 1.393 1_554 S
C1573 C1572 1.391 . S
C1574 H1564 0.950 . S
C1574 C1575 1.386 . S
C1574 C1576 1.391 . S
C1575 C1574 1.386 . S
C1575 C1579 1.393 . S
C1576 H1565 0.950 . S
C1576 C1574 1.391 . S
C1576 C1577 1.400 . S
C1577 C1571 1.491 . S
C1577 C1576 1.400 . S
C1577 C1578 1.398 . S
C1578 H1566 0.950 . S
C1578 C1577 1.398 . S
C1578 C1579 1.391 . S
C1579 H1567 0.950 . S
C1579 C1575 1.393 . S
C1579 C1578 1.391 . S
H1580 C1588 0.950 . S
H1581 C1593 0.950 . S
H1582 C1590 0.950 . S
H1583 C1592 0.950 . S
H1584 C1594 0.950 1_554 S
H1585 C1596 0.950 . S
H1586 C1598 0.950 . S
H1587 C1599 0.950 1_554 S
C1588 H1580 0.950 . S
C1588 C1589 1.386 . S
C1588 C1590 1.391 . S
C1589 C1588 1.386 . S
C1589 C1593 1.393 . S
C1590 H1582 0.950 . S
C1590 C1588 1.391 . S
C1590 C1591 1.400 . S
C1591 C1590 1.400 . S
C1591 C1592 1.398 . S
C1591 C1597 1.491 . S
C1592 H1583 0.950 . S
C1592 C1591 1.398 . S
C1592 C1593 1.391 . S
C1593 H1581 0.950 . S
C1593 C1589 1.393 . S
C1593 C1592 1.391 . S
C1594 H1584 0.950 1_556 S
C1594 C1595 1.386 1_556 S
C1594 C1596 1.391 . S
C1595 C1594 1.386 1_554 S
C1595 C1599 1.393 1_554 S
C1596 H1585 0.950 . S
C1596 C1594 1.391 . S
C1596 C1597 1.400 . S
C1597 C1591 1.491 . S
C1597 C1596 1.400 . S
C1597 C1598 1.398 . S
C1598 H1586 0.950 . S
C1598 C1597 1.398 . S
C1598 C1599 1.391 . S
C1599 H1587 0.950 1_556 S
C1599 C1595 1.393 1_556 S
C1599 C1598 1.391 . S
C649 C460 1.704 . S
C655 C2 1.705 . S
C669 C351 1.705 . S
C675 C63 1.706 . S
C689 C82 1.711 . S
C695 C380 1.709 . S
C709 C143 1.710 . S
C715 C431 1.709 . S
C729 C162 1.712 . S
C735 C220 1.711 . S
C749 C271 1.710 . S
C755 C223 1.711 . S
C769 C242 1.700 . S
C775 C300 1.698 . S
C789 C191 1.709 . S
C795 C303 1.710 . S
C809 C140 1.699 . S
C815 C322 1.701 . S
C829 C383 1.705 . S
C835 C31 1.702 . S
C849 C60 1.707 . S
C855 C402 1.708 . S
C869 C111 1.706 . S
C875 C463 1.707 . S
C889 C482 1.710 . S
C895 C540 1.709 . S
C909 C591 1.706 . S
C915 C543 1.707 . S
C929 C620 1.709 . S
C935 C562 1.710 . S
C949 C623 1.712 . S
C955 C511 1.710 . S
C969 C23 1.199 . S
C975 C183 1.196 . S
C989 C202 1.202 . S
C995 C42 1.202 . S
C1009 C103 1.198 . S
C1015 C263 1.200 . S
C1029 C122 1.198 . S
C1035 C282 1.200 . S
C1049 C343 1.199 . S
C1055 C503 1.200 . S
C1069 C522 1.198 . S
C1075 C362 1.200 . S
C1089 C423 1.201 . S
C1095 C583 1.199 . S
C1109 C442 1.188 . S
C1115 C602 1.184 . S
C1129 C580 2.362 . S
C1135 C20 2.360 1_556 S
C1149 C71 2.356 1_554 S
C1155 C631 2.356 . S
C1169 C100 2.371 1_556 S
C1175 C500 2.371 . S
C1189 C151 2.357 1_554 S
C1195 C551 2.358 . S
C1209 C180 2.366 . S
C1215 C420 2.364 . S
C1229 C231 2.368 . S
C1235 C471 2.367 . S
C1249 C260 2.362 . S
C1255 C340 2.360 . S
C1269 C391 2.356 . S
C1275 C311 2.356 . S
C1289 C25 0.990 . S
C1295 C4 0.990 . S
C1309 C44 0.994 . S
C1315 C65 0.994 . S
C1329 C105 0.991 . S
C1335 C84 0.991 . S
C1349 C145 0.991 . S
C1355 C124 0.991 . S
C1369 C164 0.993 . S
C1375 C185 0.993 . S
C1389 C204 1.009 . S
C1395 C225 1.009 . S
C1409 C265 0.996 . S
C1415 C244 0.996 . S
C1429 C305 0.995 . S
C1435 C284 0.995 . S
C1449 C345 1.005 . S
C1455 C324 1.005 . S
C1469 C385 0.992 . S
C1475 C364 0.992 . S
C1489 C404 0.993 . S
C1495 C425 0.993 . S
C1509 C444 1.013 . S
C1515 C465 1.013 . S
C1529 C505 0.992 . S
C1535 C484 0.992 . S
C1549 C545 0.995 . S
C1555 C524 0.995 . S
C1569 C564 1.003 . S
C1575 C585 1.003 . S
C1589 C604 0.990 . S
C1595 C625 0.990 . S
