# Generated by pormake.
# Topology unw, (4)-cn, num edge types: 1
# Building blocks:
#     Node 0, Type 0, BuildingBlock: CEKHIL_clean_sbu_0, # of connection points: 4
#     Node 1, Type 0, BuildingBlock: CEKHIL_clean_sbu_0, # of connection points: 4
#     Node 2, Type 0, BuildingBlock: CEKHIL_clean_sbu_0, # of connection points: 4
#     Node 3, Type 0, BuildingBlock: CEKHIL_clean_sbu_0, # of connection points: 4
#     Node 4, Type 0, BuildingBlock: CEKHIL_clean_sbu_0, # of connection points: 4
#     Node 5, Type 0, BuildingBlock: CEKHIL_clean_sbu_0, # of connection points: 4
#     Node 6, Type 0, BuildingBlock: CEKHIL_clean_sbu_0, # of connection points: 4
#     Node 7, Type 0, BuildingBlock: CEKHIL_clean_sbu_0, # of connection points: 4
#     Node 8, Type 0, BuildingBlock: CEKHIL_clean_sbu_0, # of connection points: 4
#     Node 9, Type 0, BuildingBlock: CEKHIL_clean_sbu_0, # of connection points: 4
#     Node 10, Type 0, BuildingBlock: CEKHIL_clean_sbu_0, # of connection points: 4
#     Node 11, Type 0, BuildingBlock: CEKHIL_clean_sbu_0, # of connection points: 4
#     Node 12, Type 0, BuildingBlock: CEKHIL_clean_sbu_0, # of connection points: 4
#     Node 13, Type 0, BuildingBlock: CEKHIL_clean_sbu_0, # of connection points: 4
#     Node 14, Type 0, BuildingBlock: CEKHIL_clean_sbu_0, # of connection points: 4
#     Node 15, Type 0, BuildingBlock: CEKHIL_clean_sbu_0, # of connection points: 4
#     Node 16, Type 0, BuildingBlock: CEKHIL_clean_sbu_0, # of connection points: 4
#     Node 17, Type 0, BuildingBlock: CEKHIL_clean_sbu_0, # of connection points: 4
#     Node 18, Type 0, BuildingBlock: CEKHIL_clean_sbu_0, # of connection points: 4
#     Node 19, Type 0, BuildingBlock: CEKHIL_clean_sbu_0, # of connection points: 4
#     Node 20, Type 0, BuildingBlock: CEKHIL_clean_sbu_0, # of connection points: 4
#     Node 21, Type 0, BuildingBlock: CEKHIL_clean_sbu_0, # of connection points: 4
#     Node 22, Type 0, BuildingBlock: CEKHIL_clean_sbu_0, # of connection points: 4
#     Node 23, Type 0, BuildingBlock: CEKHIL_clean_sbu_0, # of connection points: 4
#     Edge 24, Type (0, 0), BuildingBlock: UVAHIK_clean_linker_0, # of connection points: 2
#     Edge 25, Type (0, 0), BuildingBlock: UVAHIK_clean_linker_0, # of connection points: 2
#     Edge 26, Type (0, 0), BuildingBlock: UVAHIK_clean_linker_0, # of connection points: 2
#     Edge 27, Type (0, 0), BuildingBlock: UVAHIK_clean_linker_0, # of connection points: 2
#     Edge 28, Type (0, 0), BuildingBlock: UVAHIK_clean_linker_0, # of connection points: 2
#     Edge 29, Type (0, 0), BuildingBlock: UVAHIK_clean_linker_0, # of connection points: 2
#     Edge 30, Type (0, 0), BuildingBlock: UVAHIK_clean_linker_0, # of connection points: 2
#     Edge 31, Type (0, 0), BuildingBlock: UVAHIK_clean_linker_0, # of connection points: 2
#     Edge 32, Type (0, 0), BuildingBlock: UVAHIK_clean_linker_0, # of connection points: 2
#     Edge 33, Type (0, 0), BuildingBlock: UVAHIK_clean_linker_0, # of connection points: 2
#     Edge 34, Type (0, 0), BuildingBlock: UVAHIK_clean_linker_0, # of connection points: 2
#     Edge 35, Type (0, 0), BuildingBlock: UVAHIK_clean_linker_0, # of connection points: 2
#     Edge 36, Type (0, 0), BuildingBlock: UVAHIK_clean_linker_0, # of connection points: 2
#     Edge 37, Type (0, 0), BuildingBlock: UVAHIK_clean_linker_0, # of connection points: 2
#     Edge 38, Type (0, 0), BuildingBlock: UVAHIK_clean_linker_0, # of connection points: 2
#     Edge 39, Type (0, 0), BuildingBlock: UVAHIK_clean_linker_0, # of connection points: 2
#     Edge 40, Type (0, 0), BuildingBlock: UVAHIK_clean_linker_0, # of connection points: 2
#     Edge 41, Type (0, 0), BuildingBlock: UVAHIK_clean_linker_0, # of connection points: 2
#     Edge 42, Type (0, 0), BuildingBlock: UVAHIK_clean_linker_0, # of connection points: 2
#     Edge 43, Type (0, 0), BuildingBlock: UVAHIK_clean_linker_0, # of connection points: 2
#     Edge 44, Type (0, 0), BuildingBlock: UVAHIK_clean_linker_0, # of connection points: 2
#     Edge 45, Type (0, 0), BuildingBlock: UVAHIK_clean_linker_0, # of connection points: 2
#     Edge 46, Type (0, 0), BuildingBlock: UVAHIK_clean_linker_0, # of connection points: 2
#     Edge 47, Type (0, 0), BuildingBlock: UVAHIK_clean_linker_0, # of connection points: 2
#     Edge 48, Type (0, 0), BuildingBlock: UVAHIK_clean_linker_0, # of connection points: 2
#     Edge 49, Type (0, 0), BuildingBlock: UVAHIK_clean_linker_0, # of connection points: 2
#     Edge 50, Type (0, 0), BuildingBlock: UVAHIK_clean_linker_0, # of connection points: 2
#     Edge 51, Type (0, 0), BuildingBlock: UVAHIK_clean_linker_0, # of connection points: 2
#     Edge 52, Type (0, 0), BuildingBlock: UVAHIK_clean_linker_0, # of connection points: 2
#     Edge 53, Type (0, 0), BuildingBlock: UVAHIK_clean_linker_0, # of connection points: 2
#     Edge 54, Type (0, 0), BuildingBlock: UVAHIK_clean_linker_0, # of connection points: 2
#     Edge 55, Type (0, 0), BuildingBlock: UVAHIK_clean_linker_0, # of connection points: 2
#     Edge 56, Type (0, 0), BuildingBlock: UVAHIK_clean_linker_0, # of connection points: 2
#     Edge 57, Type (0, 0), BuildingBlock: UVAHIK_clean_linker_0, # of connection points: 2
#     Edge 58, Type (0, 0), BuildingBlock: UVAHIK_clean_linker_0, # of connection points: 2
#     Edge 59, Type (0, 0), BuildingBlock: UVAHIK_clean_linker_0, # of connection points: 2
#     Edge 60, Type (0, 0), BuildingBlock: UVAHIK_clean_linker_0, # of connection points: 2
#     Edge 61, Type (0, 0), BuildingBlock: UVAHIK_clean_linker_0, # of connection points: 2
#     Edge 62, Type (0, 0), BuildingBlock: UVAHIK_clean_linker_0, # of connection points: 2
#     Edge 63, Type (0, 0), BuildingBlock: UVAHIK_clean_linker_0, # of connection points: 2
#     Edge 64, Type (0, 0), BuildingBlock: UVAHIK_clean_linker_0, # of connection points: 2
#     Edge 65, Type (0, 0), BuildingBlock: UVAHIK_clean_linker_0, # of connection points: 2
#     Edge 66, Type (0, 0), BuildingBlock: UVAHIK_clean_linker_0, # of connection points: 2
#     Edge 67, Type (0, 0), BuildingBlock: UVAHIK_clean_linker_0, # of connection points: 2
#     Edge 68, Type (0, 0), BuildingBlock: UVAHIK_clean_linker_0, # of connection points: 2
#     Edge 69, Type (0, 0), BuildingBlock: UVAHIK_clean_linker_0, # of connection points: 2
#     Edge 70, Type (0, 0), BuildingBlock: UVAHIK_clean_linker_0, # of connection points: 2
#     Edge 71, Type (0, 0), BuildingBlock: UVAHIK_clean_linker_0, # of connection points: 2
# Relax obj value: 0.379
# Max RMSD: 0.300
# Mean RMSD: 0.288
data_MOF--net-unw--node1-CEKHIL_clean_sbu_0--edge1-UVAHIK_clean_linker_0
_symmetry_space_group_name_H-M    P1
_symmetry_Int_Tables_number       1
_symmetry_cell_setting            triclinic
loop_
_symmetry_equiv_pos_as_xyz
'x, y, z'
_cell_length_a     57.047534
_cell_length_b     57.979439
_cell_length_c     57.526596
_cell_angle_alpha  90.011128
_cell_angle_beta   90.137467
_cell_angle_gamma 90.461482
loop_
_atom_site_label
_atom_site_type_symbol
_atom_site_fract_x
_atom_site_fract_y
_atom_site_fract_z
_atom_type_partial_charge
Co0 Co 0.12098 0.39226 0.29378 0.0
O1 O 0.11013 0.42059 0.28069 0.0
O2 O 0.13962 0.41769 0.30566 0.0
C3 C 0.08617 0.37623 0.30273 0.0
O4 O 0.13621 0.36556 0.31116 0.0
Co5 Co 0.10882 0.34702 0.26729 0.0
O6 O 0.11979 0.33306 0.29681 0.0
C7 C 0.14661 0.37648 0.24962 0.0
C8 C 0.12705 0.43063 0.29203 0.0
C9 C 0.13246 0.3436 0.31178 0.0
O10 O 0.14418 0.38922 0.26768 0.0
O11 O 0.13306 0.35933 0.24515 0.0
O12 O 0.09551 0.39172 0.31633 0.0
O13 O 0.09629 0.3739 0.28278 0.0
Co14 Co 0.63753 0.10306 0.1991 0.0
O15 O 0.62682 0.07864 0.2188 0.0
O16 O 0.6511 0.07418 0.18913 0.0
C17 C 0.60288 0.12058 0.19404 0.0
O18 O 0.6516 0.12467 0.17474 0.0
Co19 Co 0.63441 0.15356 0.21692 0.0
O20 O 0.63838 0.16013 0.18328 0.0
C21 C 0.67274 0.12421 0.23356 0.0
C22 C 0.64008 0.06508 0.20674 0.0
C23 C 0.64821 0.14599 0.16949 0.0
O24 O 0.66546 0.10807 0.21999 0.0
O25 O 0.66218 0.14349 0.23582 0.0
O26 O 0.60813 0.1026 0.1816 0.0
O27 O 0.61725 0.12529 0.21078 0.0
Co28 Co 0.87869 0.61086 0.29467 0.0
O29 O 0.89129 0.58429 0.27962 0.0
O30 O 0.8626 0.5835 0.30557 0.0
C31 C 0.91249 0.6289 0.30355 0.0
O32 O 0.86204 0.63506 0.31416 0.0
Co33 Co 0.88629 0.65866 0.27134 0.0
O34 O 0.87515 0.66973 0.30199 0.0
C35 C 0.85059 0.62733 0.25226 0.0
C36 C 0.87576 0.57235 0.29097 0.0
C37 C 0.8639 0.65712 0.31638 0.0
O38 O 0.85438 0.61365 0.26939 0.0
O39 O 0.86271 0.64568 0.24879 0.0
O40 O 0.90487 0.61205 0.31649 0.0
O41 O 0.90141 0.63168 0.28414 0.0
Co42 Co 0.36139 0.89358 0.18781 0.0
O43 O 0.39116 0.88451 0.1752 0.0
O44 O 0.36804 0.86225 0.19669 0.0
C45 C 0.37129 0.92827 0.20215 0.0
O46 O 0.32998 0.89705 0.2043 0.0
Co47 Co 0.33441 0.93433 0.16596 0.0
O48 O 0.31446 0.93108 0.19393 0.0
C49 C 0.33345 0.88989 0.14221 0.0
C50 C 0.3872 0.86451 0.1847 0.0
C51 C 0.3145 0.91298 0.20647 0.0
O52 O 0.34547 0.88174 0.1591 0.0
O53 O 0.3273 0.91101 0.14084 0.0
O54 O 0.37653 0.90951 0.21332 0.0
O55 O 0.36362 0.92532 0.18107 0.0
Co56 Co 0.13642 0.61044 0.70859 0.0
O57 O 0.1253 0.58388 0.725 0.0
O58 O 0.14961 0.58281 0.69502 0.0
C59 C 0.10217 0.62908 0.70541 0.0
O60 O 0.15054 0.63489 0.68707 0.0
Co61 Co 0.13394 0.65787 0.73364 0.0
O62 O 0.13854 0.66901 0.70134 0.0
C63 C 0.17117 0.62575 0.74654 0.0
C64 C 0.13826 0.57173 0.71124 0.0
C65 C 0.14747 0.65683 0.6852 0.0
O66 O 0.16438 0.61239 0.72999 0.0
O67 O 0.16039 0.64426 0.752 0.0
O68 O 0.10718 0.61251 0.69104 0.0
O69 O 0.11628 0.63128 0.72288 0.0
Co70 Co 0.3757 0.11133 0.79522 0.0
O71 O 0.38808 0.08712 0.77647 0.0
O72 O 0.36235 0.08206 0.80493 0.0
C73 C 0.40956 0.13034 0.80187 0.0
O74 O 0.35996 0.13275 0.81855 0.0
Co75 Co 0.37871 0.16172 0.77676 0.0
O76 O 0.37271 0.16864 0.80999 0.0
C77 C 0.34162 0.13082 0.75907 0.0
C78 C 0.37468 0.07319 0.78816 0.0
C79 C 0.36266 0.15428 0.82355 0.0
O80 O 0.34864 0.11501 0.77302 0.0
O81 O 0.352 0.15036 0.75696 0.0
O82 O 0.40419 0.11224 0.81418 0.0
O83 O 0.39602 0.13418 0.78431 0.0
Co84 Co 0.86186 0.39396 0.69393 0.0
O85 O 0.89271 0.38576 0.68371 0.0
O86 O 0.8703 0.3644 0.70681 0.0
C87 C 0.8686 0.43068 0.70401 0.0
O88 O 0.82945 0.39728 0.70845 0.0
Co89 Co 0.83378 0.42911 0.66484 0.0
O90 O 0.81155 0.42722 0.69118 0.0
C91 C 0.83826 0.3824 0.64713 0.0
C92 C 0.88965 0.3666 0.69507 0.0
C93 C 0.81235 0.4116 0.70673 0.0
O94 O 0.84848 0.37748 0.66631 0.0
O95 O 0.83141 0.40273 0.64202 0.0
O96 O 0.8745 0.41392 0.7178 0.0
O97 O 0.86227 0.42459 0.68317 0.0
Co98 Co 0.62338 0.89416 0.79433 0.0
O99 O 0.6111 0.92046 0.77854 0.0
O100 O 0.63931 0.92181 0.80511 0.0
C101 C 0.58931 0.87617 0.80236 0.0
O102 O 0.63957 0.87011 0.81447 0.0
Co103 Co 0.61618 0.84616 0.77111 0.0
O104 O 0.62532 0.83561 0.80271 0.0
C105 C 0.65223 0.87737 0.75279 0.0
C106 C 0.62648 0.93262 0.78991 0.0
C107 C 0.63664 0.84821 0.81713 0.0
O108 O 0.64831 0.891 0.76989 0.0
O109 O 0.63996 0.85919 0.74885 0.0
O110 O 0.59658 0.89314 0.81541 0.0
O111 O 0.60095 0.87327 0.78337 0.0
Co112 Co 0.30509 0.12868 0.3955 0.0
O113 O 0.32003 0.09971 0.38902 0.0
O114 O 0.297 0.11858 0.36458 0.0
C115 C 0.29106 0.12116 0.4311 0.0
O116 O 0.28604 0.15826 0.39615 0.0
Co117 Co 0.32463 0.16066 0.43421 0.0
O118 O 0.29693 0.1798 0.42698 0.0
C119 C 0.3487 0.15966 0.3895 0.0
C120 C 0.31034 0.10094 0.36857 0.0
C121 C 0.28385 0.17604 0.40938 0.0
O122 O 0.33277 0.14565 0.38231 0.0
O123 O 0.3495 0.16741 0.41031 0.0
O124 O 0.28043 0.11328 0.4127 0.0
O125 O 0.31169 0.1301 0.42756 0.0
Co126 Co 0.89088 0.19457 0.37269 0.0
O127 O 0.87872 0.18154 0.40107 0.0
O128 O 0.85932 0.20501 0.37755 0.0
C129 C 0.92624 0.20656 0.38506 0.0
O130 O 0.89755 0.21188 0.34255 0.0
Co131 Co 0.93263 0.17153 0.34769 0.0
O132 O 0.93009 0.1978 0.32584 0.0
C133 C 0.8864 0.15008 0.34384 0.0
C134 C 0.85943 0.19238 0.3962 0.0
C135 C 0.91331 0.21213 0.32654 0.0
O136 O 0.87821 0.16732 0.35508 0.0
O137 O 0.90823 0.14754 0.33966 0.0
O138 O 0.90755 0.21837 0.38967 0.0
O139 O 0.92248 0.18612 0.37651 0.0
Co140 Co 0.69435 0.86344 0.39633 0.0
O141 O 0.68288 0.89351 0.38831 0.0
O142 O 0.70774 0.87315 0.36717 0.0
C143 C 0.70335 0.86957 0.43374 0.0
O144 O 0.71066 0.83247 0.39935 0.0
Co145 Co 0.66639 0.83285 0.43068 0.0
O146 O 0.69348 0.81183 0.42784 0.0
C147 C 0.64892 0.83753 0.38329 0.0
C148 C 0.69531 0.8917 0.36948 0.0
C149 C 0.70947 0.81462 0.41266 0.0
O150 O 0.66768 0.84898 0.37878 0.0
O151 O 0.64392 0.83024 0.40369 0.0
O152 O 0.71724 0.87671 0.41733 0.0
O153 O 0.68286 0.86227 0.42695 0.0
Co154 Co 0.10854 0.80941 0.37213 0.0
O155 O 0.11923 0.82501 0.39981 0.0
O156 O 0.13967 0.79938 0.37982 0.0
C157 C 0.07248 0.79898 0.3837 0.0
O158 O 0.10349 0.78928 0.34349 0.0
Co159 Co 0.06822 0.82922 0.34231 0.0
O160 O 0.0705 0.79975 0.32499 0.0
C161 C 0.11474 0.85045 0.339 0.0
C162 C 0.13863 0.81364 0.3972 0.0
C163 C 0.08786 0.78631 0.32755 0.0
O164 O 0.12232 0.83476 0.35272 0.0
O165 O 0.09319 0.85218 0.33308 0.0
O166 O 0.09075 0.78745 0.39037 0.0
O167 O 0.07691 0.81836 0.37323 0.0
Co168 Co 0.30692 0.871 0.60241 0.0
O169 O 0.29588 0.8827 0.57342 0.0
O170 O 0.3213 0.85418 0.5771 0.0
C171 C 0.31358 0.90483 0.62032 0.0
O172 O 0.32252 0.85544 0.63014 0.0
Co173 Co 0.27626 0.88037 0.64599 0.0
O174 O 0.3053 0.87023 0.662 0.0
C175 C 0.26171 0.84408 0.61357 0.0
C176 C 0.30847 0.86698 0.56356 0.0
C177 C 0.32143 0.85852 0.65231 0.0
O178 O 0.28102 0.8472 0.60256 0.0
O179 O 0.25536 0.85685 0.63053 0.0
O180 O 0.32892 0.89674 0.60579 0.0
O181 O 0.29367 0.89406 0.6206 0.0
Co182 Co 0.10348 0.20441 0.62908 0.0
O183 O 0.07782 0.22298 0.6189 0.0
O184 O 0.07481 0.19384 0.64369 0.0
C185 C 0.12062 0.19893 0.59435 0.0
O186 O 0.1263 0.18115 0.64285 0.0
Co187 Co 0.15428 0.22351 0.62399 0.0
O188 O 0.16201 0.19057 0.62908 0.0
C189 C 0.12521 0.23975 0.66268 0.0
C190 C 0.06475 0.21074 0.6327 0.0
C191 C 0.14808 0.17663 0.63935 0.0
O192 O 0.10888 0.22578 0.65618 0.0
O193 O 0.14445 0.2424 0.65152 0.0
O194 O 0.1026 0.18641 0.60036 0.0
O195 O 0.12534 0.21609 0.60794 0.0
Co196 Co 0.70286 0.13305 0.60635 0.0
O197 O 0.71484 0.12248 0.57729 0.0
O198 O 0.68803 0.14969 0.58111 0.0
C199 C 0.69722 0.09865 0.62345 0.0
O200 O 0.68614 0.14729 0.63411 0.0
Co201 Co 0.73333 0.12412 0.65024 0.0
O202 O 0.70356 0.1324 0.66589 0.0
C203 C 0.74673 0.16162 0.6189 0.0
C204 C 0.70152 0.13769 0.56751 0.0
C205 C 0.68702 0.14358 0.6562 0.0
O206 O 0.72769 0.1579 0.60752 0.0
O207 O 0.75348 0.14879 0.6357 0.0
O208 O 0.68191 0.10644 0.60867 0.0
O209 O 0.71674 0.11009 0.62437 0.0
Co210 Co 0.88933 0.78452 0.62772 0.0
O211 O 0.91668 0.76857 0.61764 0.0
O212 O 0.91688 0.79805 0.6422 0.0
C213 C 0.8712 0.78814 0.5932 0.0
O214 O 0.86399 0.80538 0.64096 0.0
Co215 Co 0.8417 0.75844 0.62306 0.0
O216 O 0.82964 0.78995 0.62892 0.0
C217 C 0.8736 0.74567 0.66056 0.0
C218 C 0.92853 0.78211 0.63133 0.0
C219 C 0.84162 0.80638 0.63791 0.0
O220 O 0.88647 0.76313 0.65519 0.0
O221 O 0.85577 0.73932 0.64856 0.0
O222 O 0.88811 0.80226 0.59891 0.0
O223 O 0.86877 0.77047 0.60669 0.0
Co224 Co 0.38281 0.28526 0.1316 0.0
O225 O 0.40491 0.26364 0.11973 0.0
O226 O 0.41407 0.29352 0.14214 0.0
C227 C 0.36224 0.29064 0.09868 0.0
O228 O 0.36408 0.31144 0.14615 0.0
Co229 Co 0.33034 0.27035 0.13335 0.0
O230 O 0.32633 0.30413 0.13675 0.0
C231 C 0.36232 0.25398 0.16973 0.0
C232 C 0.42084 0.27519 0.13099 0.0
C233 C 0.34247 0.3175 0.1443 0.0
O234 O 0.37882 0.26606 0.16051 0.0
O235 O 0.34174 0.25233 0.16092 0.0
O236 O 0.38199 0.30154 0.10193 0.0
O237 O 0.35753 0.27472 0.11372 0.0
Co238 Co 0.39777 0.68741 0.87014 0.0
O239 O 0.3887 0.67262 0.89882 0.0
O240 O 0.3664 0.69618 0.87812 0.0
C241 C 0.43353 0.70031 0.88008 0.0
O242 O 0.40083 0.70643 0.84055 0.0
Co243 Co 0.43795 0.6681 0.83999 0.0
O244 O 0.43245 0.69549 0.82016 0.0
C245 C 0.39269 0.64441 0.83931 0.0
C246 C 0.36863 0.68282 0.89609 0.0
C247 C 0.41499 0.70866 0.82329 0.0
O248 O 0.38478 0.66043 0.85239 0.0
O249 O 0.41402 0.64341 0.83265 0.0
O250 O 0.41485 0.7111 0.8868 0.0
O251 O 0.42993 0.68021 0.87067 0.0
Co252 Co 0.19401 0.36653 0.89243 0.0
O253 O 0.17985 0.39511 0.88307 0.0
O254 O 0.20556 0.37544 0.86227 0.0
C255 C 0.20393 0.37541 0.92911 0.0
O256 O 0.21278 0.337 0.89642 0.0
Co257 Co 0.1707 0.33592 0.9301 0.0
O258 O 0.20028 0.31828 0.92835 0.0
C259 C 0.15089 0.33577 0.88321 0.0
C260 C 0.19172 0.39306 0.86391 0.0
C261 C 0.2146 0.32072 0.91156 0.0
O262 O 0.16777 0.34911 0.87698 0.0
O263 O 0.148 0.32887 0.90414 0.0
O264 O 0.21665 0.3826 0.9118 0.0
O265 O 0.18383 0.36636 0.92348 0.0
Co266 Co 0.60739 0.30663 0.87542 0.0
O267 O 0.61722 0.3217 0.90362 0.0
O268 O 0.63779 0.29555 0.88448 0.0
C269 C 0.57048 0.29739 0.88509 0.0
O270 O 0.60287 0.28698 0.84643 0.0
Co271 Co 0.56932 0.32868 0.84427 0.0
O272 O 0.57249 0.30022 0.8254 0.0
C273 C 0.61664 0.34827 0.84367 0.0
C274 C 0.63639 0.30983 0.90183 0.0
C275 C 0.58866 0.28562 0.82904 0.0
O276 O 0.62302 0.33152 0.85674 0.0
O277 O 0.59529 0.35147 0.83772 0.0
O278 O 0.58792 0.28515 0.89261 0.0
O279 O 0.57618 0.31673 0.87519 0.0
Co280 Co 0.80041 0.62874 0.89296 0.0
O281 O 0.81341 0.599 0.88596 0.0
O282 O 0.78947 0.61852 0.86295 0.0
C283 C 0.7891 0.62272 0.92973 0.0
O284 O 0.78307 0.6593 0.89436 0.0
Co285 Co 0.82465 0.66069 0.92887 0.0
O286 O 0.79593 0.67945 0.92532 0.0
C287 C 0.84556 0.65629 0.88294 0.0
C288 C 0.80255 0.60053 0.86611 0.0
C289 C 0.78178 0.67657 0.90838 0.0
O290 O 0.82786 0.64372 0.87735 0.0
O291 O 0.84858 0.66459 0.90334 0.0
O292 O 0.7765 0.61505 0.91247 0.0
O293 O 0.80977 0.63054 0.92428 0.0
Co294 Co 0.60499 0.70395 0.13107 0.0
O295 O 0.57984 0.72188 0.1188 0.0
O296 O 0.57535 0.69236 0.1429 0.0
C297 C 0.62542 0.69938 0.098 0.0
O298 O 0.62748 0.6813 0.14635 0.0
Co299 Co 0.65482 0.72619 0.13073 0.0
O300 O 0.6638 0.69369 0.13669 0.0
C301 C 0.62108 0.74106 0.16583 0.0
C302 C 0.56588 0.70912 0.13117 0.0
C303 C 0.64981 0.67847 0.14485 0.0
O304 O 0.60711 0.72503 0.15882 0.0
O305 O 0.6405 0.7458 0.15573 0.0
O306 O 0.60728 0.68632 0.10225 0.0
O307 O 0.62822 0.71661 0.11202 0.0
Co308 Co 0.20942 0.63309 0.11542 0.0
O309 O 0.22727 0.62097 0.09019 0.0
O310 O 0.19676 0.6441 0.08622 0.0
C311 C 0.20588 0.60039 0.13613 0.0
O312 O 0.18652 0.64804 0.13792 0.0
Co313 Co 0.23175 0.63396 0.16471 0.0
O314 O 0.1984 0.63759 0.17376 0.0
C315 C 0.24576 0.66936 0.13082 0.0
C316 C 0.21367 0.63262 0.07653 0.0
C317 C 0.18309 0.64579 0.15993 0.0
O318 O 0.23046 0.66113 0.11659 0.0
O319 O 0.25009 0.66019 0.15061 0.0
O320 O 0.19204 0.60416 0.11856 0.0
O321 O 0.22313 0.61481 0.13841 0.0
Co322 Co 0.80379 0.37028 0.10984 0.0
O323 O 0.78939 0.38159 0.08216 0.0
O324 O 0.81803 0.35594 0.08299 0.0
C325 C 0.80798 0.40409 0.12849 0.0
O326 O 0.8232 0.35557 0.13562 0.0
Co327 Co 0.77671 0.37511 0.15647 0.0
O328 O 0.80799 0.36778 0.16951 0.0
C329 C 0.76357 0.33789 0.12424 0.0
C330 C 0.80294 0.36769 0.07087 0.0
C331 C 0.82407 0.35788 0.1579 0.0
O332 O 0.78057 0.34393 0.11092 0.0
O333 O 0.75812 0.34894 0.1427 0.0
O334 O 0.82307 0.39814 0.1127 0.0
O335 O 0.78952 0.39115 0.12985 0.0
C336 C 0.17666 0.57477 0.15583 0.0
C337 C 0.19934 0.5843 0.15496 0.0
C338 C 0.16968 0.56136 0.1748 0.0
C339 C 0.1919 0.52464 0.22122 0.0
H340 H 0.13076 0.53461 0.24861 0.0
C341 C 0.15681 0.46261 0.29073 0.0
C342 C 0.13405 0.45446 0.28596 0.0
C343 C 0.16534 0.4825 0.27972 0.0
C344 C 0.14787 0.53156 0.24116 0.0
H345 H 0.23266 0.58699 0.17301 0.0
H346 H 0.2206 0.56304 0.20597 0.0
H347 H 0.14488 0.56042 0.21811 0.0
H348 H 0.10167 0.46185 0.26772 0.0
H349 H 0.11645 0.49612 0.24845 0.0
H350 H 0.19452 0.49516 0.24332 0.0
C351 C 0.2082 0.56609 0.19203 0.0
C352 C 0.15593 0.54634 0.22368 0.0
C353 C 0.21509 0.57975 0.17318 0.0
C354 C 0.11934 0.46764 0.27167 0.0
C355 C 0.12783 0.48743 0.26068 0.0
C356 C 0.18376 0.50971 0.23854 0.0
C357 C 0.18533 0.55701 0.19315 0.0
C358 C 0.17779 0.54271 0.21319 0.0
C359 C 0.15124 0.49458 0.26378 0.0
C360 C 0.16139 0.51266 0.24834 0.0
H361 H 0.16408 0.5781 0.14213 0.0
H362 H 0.15205 0.55429 0.17506 0.0
H363 H 0.20878 0.52137 0.21335 0.0
H364 H 0.16856 0.45282 0.3017 0.0
H365 H 0.18332 0.48781 0.28286 0.0
C366 C 0.57986 0.1564 0.20076 0.0
C367 C 0.58457 0.13701 0.18694 0.0
C368 C 0.56385 0.17296 0.19335 0.0
C369 C 0.51422 0.1814 0.15312 0.0
H370 H 0.52723 0.24643 0.16331 0.0
C371 C 0.45214 0.24904 0.11728 0.0
C372 C 0.44459 0.26562 0.13333 0.0
C373 C 0.47185 0.23575 0.1219 0.0
C374 C 0.52335 0.22834 0.16044 0.0
H375 H 0.57616 0.11967 0.15456 0.0
H376 H 0.5483 0.14865 0.1415 0.0
H377 H 0.55584 0.21766 0.17557 0.0
H378 H 0.45266 0.28254 0.166 0.0
H379 H 0.48718 0.25906 0.17426 0.0
H380 H 0.48172 0.19193 0.1382 0.0
C381 C 0.55676 0.15094 0.15822 0.0
C382 C 0.53967 0.21185 0.16751 0.0
C383 C 0.57273 0.13433 0.16568 0.0
C384 C 0.45819 0.26994 0.15327 0.0
C385 C 0.47791 0.25647 0.158 0.0
C386 C 0.49799 0.19783 0.14601 0.0
C387 C 0.55222 0.17051 0.17192 0.0
C388 C 0.53523 0.18817 0.16401 0.0
C389 C 0.48434 0.23859 0.14279 0.0
C390 C 0.50233 0.22149 0.14959 0.0
H391 H 0.5887 0.15891 0.21726 0.0
H392 H 0.56047 0.1876 0.20451 0.0
H393 H 0.51002 0.16333 0.15055 0.0
H394 H 0.44212 0.24552 0.10163 0.0
H395 H 0.47672 0.22252 0.10955 0.0
C396 C 0.79738 0.42584 0.16431 0.0
C397 C 0.81398 0.42058 0.14714 0.0
C398 C 0.80364 0.4393 0.18349 0.0
C399 C 0.85504 0.45817 0.21771 0.0
H400 H 0.81437 0.50743 0.23803 0.0
C401 C 0.88652 0.53676 0.26957 0.0
C402 C 0.87075 0.5483 0.28414 0.0
C403 C 0.87956 0.51686 0.25774 0.0
C404 C 0.82569 0.49339 0.233 0.0
H405 H 0.85002 0.42568 0.13631 0.0
H406 H 0.8609 0.44954 0.16968 0.0
H407 H 0.80196 0.4824 0.20631 0.0
H408 H 0.83617 0.54686 0.29961 0.0
H409 H 0.82404 0.5118 0.2791 0.0
H410 H 0.87904 0.46957 0.24406 0.0
C411 C 0.84313 0.44292 0.16847 0.0
C412 C 0.81862 0.47913 0.21469 0.0
C413 C 0.83683 0.42951 0.14923 0.0
C414 C 0.84866 0.53835 0.28843 0.0
C415 C 0.84165 0.51842 0.2765 0.0
C416 C 0.8621 0.4724 0.23608 0.0
C417 C 0.82666 0.44774 0.18594 0.0
C418 C 0.83344 0.46171 0.20651 0.0
C419 C 0.85666 0.5081 0.26022 0.0
C420 C 0.84772 0.49051 0.24359 0.0
H421 H 0.77963 0.41913 0.16321 0.0
H422 H 0.7906 0.44263 0.1967 0.0
H423 H 0.86662 0.44456 0.21208 0.0
H424 H 0.90373 0.54397 0.26605 0.0
H425 H 0.89156 0.50945 0.2453 0.0
C426 C 0.53166 0.73245 0.11897 0.0
C427 C 0.54115 0.71592 0.13405 0.0
C428 C 0.51047 0.74305 0.12412 0.0
C429 C 0.47558 0.75873 0.17511 0.0
H430 H 0.43564 0.78553 0.1278 0.0
C431 C 0.4009 0.82451 0.19379 0.0
C432 C 0.40279 0.84474 0.18043 0.0
C433 C 0.41486 0.80539 0.18876 0.0
C434 C 0.4466 0.77807 0.1412 0.0
H435 H 0.53504 0.69623 0.16549 0.0
H436 H 0.49756 0.71453 0.17437 0.0
H437 H 0.46354 0.75572 0.11706 0.0
H438 H 0.42065 0.86083 0.15133 0.0
H439 H 0.4447 0.82739 0.14238 0.0
H440 H 0.4586 0.78139 0.19917 0.0
C441 C 0.5068 0.71959 0.15874 0.0
C442 C 0.46261 0.76104 0.13508 0.0
C443 C 0.52813 0.70892 0.15354 0.0
C444 C 0.41889 0.84553 0.16202 0.0
C445 C 0.4325 0.82634 0.15675 0.0
C446 C 0.45929 0.77556 0.18129 0.0
C447 C 0.49813 0.73736 0.14448 0.0
C448 C 0.47794 0.75177 0.15178 0.0
C449 C 0.43056 0.80607 0.17 0.0
C450 C 0.44525 0.78593 0.16423 0.0
H451 H 0.54125 0.73817 0.10376 0.0
H452 H 0.50461 0.75679 0.11282 0.0
H453 H 0.48723 0.7522 0.18842 0.0
H454 H 0.3886 0.82341 0.20806 0.0
H455 H 0.41309 0.78995 0.19923 0.0
C456 C 0.20355 0.40904 0.82512 0.0
C457 C 0.18808 0.40888 0.84412 0.0
C458 C 0.19916 0.42304 0.80579 0.0
C459 C 0.15143 0.45116 0.77453 0.0
H460 H 0.19765 0.49621 0.75437 0.0
C461 C 0.12642 0.53556 0.73117 0.0
C462 C 0.14215 0.54712 0.71643 0.0
C463 C 0.13224 0.51436 0.74091 0.0
C464 C 0.18472 0.48335 0.75927 0.0
H465 H 0.15592 0.42318 0.85779 0.0
H466 H 0.14813 0.44732 0.82396 0.0
H467 H 0.20817 0.46765 0.7837 0.0
H468 H 0.17557 0.54481 0.69882 0.0
H469 H 0.18574 0.50736 0.71566 0.0
H470 H 0.12783 0.46688 0.75048 0.0
C471 C 0.16364 0.43667 0.82404 0.0
C472 C 0.19074 0.46709 0.77619 0.0
C473 C 0.16823 0.42302 0.84348 0.0
C474 C 0.16309 0.53622 0.71011 0.0
C475 C 0.169 0.51492 0.71996 0.0
C476 C 0.14549 0.46717 0.75742 0.0
C477 C 0.17898 0.43673 0.80497 0.0
C478 C 0.17388 0.45144 0.78457 0.0
C479 C 0.15399 0.50416 0.73614 0.0
C480 C 0.16176 0.48408 0.75025 0.0
H481 H 0.21898 0.39826 0.82514 0.0
H482 H 0.21126 0.42284 0.79131 0.0
H483 H 0.13824 0.43896 0.78042 0.0
H484 H 0.1101 0.54351 0.7363 0.0
H485 H 0.1203 0.50683 0.75344 0.0
C486 C 0.53155 0.29409 0.86509 0.0
C487 C 0.54722 0.28643 0.88223 0.0
C488 C 0.51266 0.28011 0.85825 0.0
C489 C 0.49298 0.23711 0.83458 0.0
H490 H 0.45341 0.19979 0.87463 0.0
C491 C 0.42888 0.16885 0.7979 0.0
C492 C 0.4259 0.14829 0.81049 0.0
C493 C 0.44183 0.18716 0.80721 0.0
C494 C 0.46453 0.20991 0.86323 0.0
H495 H 0.55391 0.25958 0.90758 0.0
H496 H 0.5208 0.23548 0.89599 0.0
H497 H 0.47701 0.23102 0.89133 0.0
H498 H 0.43489 0.13041 0.84233 0.0
H499 H 0.45831 0.1621 0.85828 0.0
H500 H 0.48147 0.21554 0.80664 0.0
C501 C 0.52322 0.25203 0.88754 0.0
C502 C 0.47784 0.22792 0.87278 0.0
C503 C 0.54225 0.26581 0.89412 0.0
C504 C 0.43688 0.14606 0.83223 0.0
C505 C 0.45003 0.16434 0.84149 0.0
C506 C 0.47987 0.219 0.82507 0.0
C507 C 0.50892 0.25853 0.86882 0.0
C508 C 0.49238 0.24152 0.85857 0.0
C509 C 0.45236 0.18524 0.82923 0.0
C510 C 0.46569 0.20499 0.83931 0.0
H511 H 0.53475 0.31004 0.85582 0.0
H512 H 0.50164 0.28566 0.84398 0.0
H513 H 0.50442 0.24701 0.82328 0.0
H514 H 0.42061 0.17111 0.7811 0.0
H515 H 0.44304 0.20303 0.79736 0.0
C516 C 0.82505 0.56776 0.84935 0.0
C517 C 0.80727 0.58421 0.84697 0.0
C518 C 0.83176 0.55432 0.8304 0.0
C519 C 0.81282 0.53153 0.77405 0.0
H520 H 0.87964 0.52449 0.76431 0.0
C521 C 0.84916 0.46949 0.70425 0.0
C522 C 0.86551 0.45406 0.71363 0.0
C523 C 0.84301 0.48942 0.7166 0.0
C524 C 0.86093 0.52632 0.76674 0.0
H525 H 0.78199 0.59889 0.82306 0.0
H526 H 0.79352 0.575 0.78997 0.0
H527 H 0.86572 0.55032 0.79463 0.0
H528 H 0.88964 0.44822 0.74215 0.0
H529 H 0.87927 0.48273 0.76336 0.0
H530 H 0.80806 0.50673 0.74677 0.0
C531 C 0.80231 0.57268 0.8065 0.0
C532 C 0.85297 0.54104 0.78415 0.0
C533 C 0.79572 0.58631 0.82545 0.0
C534 C 0.87688 0.45974 0.73454 0.0
C535 C 0.871 0.47964 0.74666 0.0
C536 C 0.8208 0.51663 0.75666 0.0
C537 C 0.82074 0.5569 0.80868 0.0
C538 C 0.82887 0.54328 0.78845 0.0
C539 C 0.85349 0.49436 0.73824 0.0
C540 C 0.84497 0.51334 0.75332 0.0
H541 H 0.83431 0.56572 0.86566 0.0
H542 H 0.84573 0.54198 0.8327 0.0
H543 H 0.79414 0.53294 0.77698 0.0
H544 H 0.8402 0.46558 0.6881 0.0
H545 H 0.82962 0.50058 0.70957 0.0
C546 C 0.56874 0.83815 0.79821 0.0
C547 C 0.573 0.8583 0.8112 0.0
C548 C 0.55567 0.81997 0.80763 0.0
C549 C 0.51122 0.80641 0.85119 0.0
H550 H 0.53448 0.74387 0.8464 0.0
C551 C 0.45926 0.73288 0.89203 0.0
C552 C 0.45578 0.71328 0.87808 0.0
C553 C 0.47678 0.74889 0.88669 0.0
C554 C 0.52766 0.76119 0.84775 0.0
H555 H 0.56624 0.87551 0.84394 0.0
H556 H 0.5429 0.84391 0.8602 0.0
H557 H 0.55749 0.77589 0.83042 0.0
H558 H 0.46947 0.6938 0.84908 0.0
H559 H 0.4995 0.72226 0.83902 0.0
H560 H 0.48108 0.79197 0.86768 0.0
C561 C 0.54989 0.84215 0.84281 0.0
C562 C 0.54083 0.77951 0.83861 0.0
C563 C 0.5632 0.86024 0.83348 0.0
C564 C 0.47155 0.7089 0.85995 0.0
C565 C 0.48886 0.72522 0.85427 0.0
C566 C 0.49796 0.78814 0.86011 0.0
C567 C 0.5463 0.8217 0.8301 0.0
C568 C 0.53268 0.80228 0.84019 0.0
C569 C 0.49094 0.74592 0.86697 0.0
C570 C 0.50597 0.76527 0.85851 0.0
H571 H 0.57598 0.83616 0.78095 0.0
H572 H 0.55285 0.80456 0.79732 0.0
H573 H 0.50436 0.82373 0.85237 0.0
H574 H 0.44759 0.73648 0.9064 0.0
H575 H 0.47844 0.76418 0.8974 0.0
C576 C 0.13401 0.17013 0.56486 0.0
C577 C 0.13762 0.19102 0.57676 0.0
C578 C 0.15133 0.16147 0.55015 0.0
C579 C 0.21488 0.16415 0.5396 0.0
H580 H 0.1985 0.13932 0.47912 0.0
C581 C 0.28322 0.14235 0.46832 0.0
C582 C 0.27759 0.12452 0.45271 0.0
C583 C 0.26725 0.14874 0.48558 0.0
C584 C 0.20339 0.14578 0.49613 0.0
H585 H 0.16187 0.21957 0.58202 0.0
H586 H 0.19204 0.20444 0.55636 0.0
H587 H 0.1679 0.15443 0.50407 0.0
H588 H 0.25215 0.09778 0.44443 0.0
H589 H 0.22489 0.10817 0.47503 0.0
H590 H 0.25041 0.15542 0.53167 0.0
C591 C 0.17597 0.19463 0.55863 0.0
C592 C 0.18581 0.15454 0.51037 0.0
C593 C 0.1586 0.20337 0.57317 0.0
C594 C 0.25678 0.11186 0.45599 0.0
C595 C 0.24104 0.11798 0.47339 0.0
C596 C 0.2325 0.15521 0.52539 0.0
C597 C 0.17263 0.17347 0.54716 0.0
C598 C 0.19136 0.16391 0.53221 0.0
C599 C 0.24557 0.13715 0.48772 0.0
C600 C 0.22697 0.14594 0.50345 0.0
H601 H 0.11807 0.16017 0.56734 0.0
H602 H 0.14831 0.14506 0.54161 0.0
H603 H 0.21963 0.17101 0.55649 0.0
H604 H 0.29921 0.15232 0.4663 0.0
H605 H 0.27135 0.16357 0.49634 0.0
C606 C 0.71682 0.12742 0.52861 0.0
C607 C 0.70489 0.14319 0.5427 0.0
C608 C 0.72612 0.1343 0.50733 0.0
C609 C 0.7498 0.18716 0.48129 0.0
H610 H 0.76708 0.14415 0.43274 0.0
C611 C 0.81971 0.20518 0.40912 0.0
C612 C 0.83804 0.18914 0.41022 0.0
C613 C 0.79905 0.20149 0.42171 0.0
C614 C 0.76219 0.15641 0.44606 0.0
H615 H 0.69123 0.17789 0.54458 0.0
H616 H 0.70709 0.1899 0.50693 0.0
H617 H 0.73528 0.13425 0.45933 0.0
H618 H 0.84908 0.15658 0.42499 0.0
H619 H 0.81276 0.14989 0.44651 0.0
H620 H 0.77705 0.20916 0.46794 0.0
C621 C 0.70973 0.17231 0.51263 0.0
C622 C 0.74406 0.15075 0.46135 0.0
C623 C 0.7004 0.16538 0.53406 0.0
C624 C 0.83532 0.16932 0.42398 0.0
C625 C 0.8145 0.16538 0.4361 0.0
C626 C 0.76765 0.193 0.46568 0.0
C627 C 0.72366 0.15714 0.49953 0.0
C628 C 0.73839 0.16556 0.47987 0.0
C629 C 0.79621 0.18141 0.43506 0.0
C630 C 0.77461 0.17724 0.44859 0.0
H631 H 0.72043 0.11015 0.53476 0.0
H632 H 0.73684 0.12209 0.49798 0.0
H633 H 0.74616 0.19895 0.4954 0.0
H634 H 0.82137 0.2206 0.39861 0.0
H635 H 0.78517 0.2141 0.42077 0.0
C636 C 0.70468 0.84706 0.47099 0.0
C637 C 0.71309 0.86523 0.4571 0.0
C638 C 0.71792 0.83931 0.48995 0.0
C639 C 0.76847 0.85355 0.52817 0.0
H640 H 0.78375 0.78879 0.52195 0.0
C641 C 0.85335 0.81698 0.56633 0.0
C642 C 0.85246 0.7952 0.57696 0.0
C643 C 0.83415 0.82514 0.55376 0.0
C644 C 0.77943 0.8068 0.52424 0.0
H645 H 0.74041 0.89117 0.45355 0.0
H646 H 0.76306 0.87815 0.48679 0.0
H647 H 0.75185 0.80489 0.49898 0.0
H648 H 0.83112 0.76448 0.58196 0.0
H649 H 0.79752 0.77881 0.56021 0.0
H650 H 0.79629 0.85562 0.55309 0.0
C651 C 0.74656 0.86956 0.48296 0.0
C652 C 0.76108 0.816 0.51114 0.0
C653 C 0.73361 0.87699 0.46386 0.0
C654 C 0.83234 0.78136 0.57396 0.0
C655 C 0.81308 0.78957 0.56148 0.0
C656 C 0.78672 0.84434 0.54136 0.0
C657 C 0.7394 0.85004 0.49559 0.0
C658 C 0.75581 0.8396 0.51254 0.0
C659 C 0.8136 0.81174 0.55159 0.0
C660 C 0.79284 0.82099 0.53909 0.0
H661 H 0.68878 0.83784 0.46633 0.0
H662 H 0.71188 0.82438 0.49961 0.0
H663 H 0.76464 0.87176 0.52975 0.0
H664 H 0.86862 0.82804 0.56826 0.0
H665 H 0.83539 0.84207 0.54587 0.0
C666 C 0.15992 0.83716 0.42693 0.0
C667 C 0.15908 0.8177 0.41246 0.0
C668 C 0.17966 0.84165 0.44062 0.0
C669 C 0.2426 0.82657 0.44806 0.0
H670 H 0.23266 0.85388 0.50873 0.0
C671 C 0.30325 0.83813 0.53176 0.0
C672 C 0.30391 0.86128 0.53901 0.0
C673 C 0.29034 0.83182 0.51196 0.0
C674 C 0.23564 0.8463 0.49178 0.0
H675 H 0.17813 0.78756 0.40102 0.0
H676 H 0.2123 0.7949 0.42564 0.0
H677 H 0.19905 0.84409 0.48453 0.0
H678 H 0.29451 0.89624 0.52978 0.0
H679 H 0.2721 0.88519 0.49533 0.0
H680 H 0.27948 0.82833 0.45615 0.0
C681 C 0.19798 0.80703 0.426 0.0
C682 C 0.21643 0.84083 0.47782 0.0
C683 C 0.17831 0.80271 0.41204 0.0
C684 C 0.29416 0.87826 0.52461 0.0
C685 C 0.28134 0.87198 0.50494 0.0
C686 C 0.26192 0.83179 0.4623 0.0
C687 C 0.1989 0.82658 0.44047 0.0
C688 C 0.21961 0.83125 0.45561 0.0
C689 C 0.27822 0.84865 0.49928 0.0
C690 C 0.25848 0.84201 0.48408 0.0
H691 H 0.14551 0.8492 0.42736 0.0
H692 H 0.17991 0.85715 0.45111 0.0
H693 H 0.24573 0.81937 0.431 0.0
H694 H 0.31043 0.82468 0.54267 0.0
H695 H 0.28796 0.8137 0.50791 0.0
C696 C 0.61505 0.96828 0.76911 0.0
C697 C 0.63189 0.95627 0.78205 0.0
C698 C 0.62164 0.98698 0.75531 0.0
C699 C 0.6695 0.02737 0.73922 0.0
H700 H 0.64567 0.01657 0.67691 0.0
C701 C 0.7068 0.07462 0.65836 0.0
C702 C 0.69053 0.08171 0.64148 0.0
C703 C 0.69977 0.06035 0.67672 0.0
C704 C 0.65225 0.02011 0.69423 0.0
H705 H 0.66838 0.95571 0.79256 0.0
H706 H 0.67999 0.9885 0.76828 0.0
H707 H 0.63229 0.99234 0.70867 0.0
H708 H 0.6542 0.07931 0.63052 0.0
H709 H 0.6419 0.05475 0.66252 0.0
H710 H 0.68952 0.05523 0.7246 0.0
C711 C 0.66167 0.98348 0.76887 0.0
C712 C 0.64454 0.00622 0.71248 0.0
C713 C 0.65502 0.96476 0.78284 0.0
C714 C 0.66722 0.07396 0.6431 0.0
C715 C 0.66017 0.05983 0.66147 0.0
C716 C 0.67714 0.04145 0.7209 0.0
C717 C 0.64525 0.99394 0.75404 0.0
C718 C 0.653 0.0097 0.73519 0.0
C719 C 0.67631 0.05292 0.67859 0.0
C720 C 0.66857 0.03797 0.69818 0.0
H721 H 0.59705 0.96221 0.76835 0.0
H722 H 0.6085 0.9951 0.7445 0.0
H723 H 0.67632 0.03042 0.75655 0.0
H724 H 0.72489 0.08037 0.65758 0.0
H725 H 0.71273 0.05508 0.68939 0.0
C726 C 0.96271 0.78243 0.65868 0.0
C727 C 0.95308 0.77657 0.63696 0.0
C728 C 0.98323 0.77176 0.66647 0.0
C729 C 0.03157 0.73244 0.64836 0.0
H730 H 0.02257 0.70611 0.7097 0.0
C731 C 0.07568 0.64826 0.67679 0.0
C732 C 0.08545 0.64741 0.69919 0.0
C733 C 0.062 0.66698 0.67002 0.0
C734 C 0.02555 0.71357 0.69269 0.0
H735 H 0.95847 0.75686 0.60544 0.0
H736 H 0.99397 0.73835 0.61887 0.0
H737 H 0.9962 0.736 0.69594 0.0
H738 H 0.08817 0.6652 0.73226 0.0
H739 H 0.06395 0.69778 0.72052 0.0
H740 H 0.06035 0.70923 0.64481 0.0
C741 C 0.98592 0.75107 0.63002 0.0
C742 C 0.01053 0.73083 0.68483 0.0
C743 C 0.96545 0.76162 0.62232 0.0
C744 C 0.08077 0.66535 0.7149 0.0
C745 C 0.06694 0.684 0.70819 0.0
C746 C 0.0465 0.71509 0.65617 0.0
C747 C 0.99448 0.75521 0.65258 0.0
C748 C 0.01298 0.74006 0.66234 0.0
C749 C 0.05767 0.68516 0.68557 0.0
C750 C 0.04328 0.70508 0.67819 0.0
H751 H 0.95352 0.79388 0.67034 0.0
H752 H 0.98962 0.77561 0.68379 0.0
H753 H 0.03417 0.73944 0.63109 0.0
H754 H 0.07905 0.63475 0.66425 0.0
H755 H 0.05475 0.66721 0.6526 0.0
C756 C 0.38894 0.039 0.76678 0.0
C757 C 0.37115 0.04944 0.77977 0.0
C758 C 0.38399 0.01982 0.75296 0.0
C759 C 0.33902 0.97603 0.73667 0.0
H760 H 0.36344 0.98722 0.67475 0.0
C761 C 0.30365 0.92861 0.65515 0.0
C762 C 0.32018 0.92154 0.6386 0.0
C763 C 0.31038 0.94277 0.6737 0.0
C764 C 0.35673 0.9836 0.69198 0.0
H765 H 0.33475 0.04698 0.79016 0.0
H766 H 0.32592 0.01351 0.76566 0.0
H767 H 0.37507 0.0124 0.70649 0.0
H768 H 0.35669 0.92385 0.6284 0.0
H769 H 0.36847 0.94846 0.66076 0.0
H770 H 0.3204 0.9473 0.72186 0.0
C771 C 0.34376 0.01999 0.76633 0.0
C772 C 0.36346 0.99801 0.71023 0.0
C773 C 0.34882 0.03911 0.78042 0.0
C774 C 0.3435 0.92918 0.64075 0.0
C775 C 0.35024 0.94329 0.65931 0.0
C776 C 0.3323 0.96151 0.71833 0.0
C777 C 0.36105 0.01091 0.75159 0.0
C778 C 0.3547 0.99444 0.73279 0.0
C779 C 0.3338 0.95015 0.67608 0.0
C780 C 0.34105 0.96521 0.69575 0.0
H781 H 0.40637 0.04655 0.76616 0.0
H782 H 0.39783 0.01281 0.74228 0.0
H783 H 0.33203 0.97282 0.75386 0.0
H784 H 0.28554 0.92298 0.65394 0.0
H785 H 0.29722 0.94804 0.6861 0.0
C786 C 0.02914 0.21093 0.65824 0.0
C787 C 0.04058 0.21807 0.63783 0.0
C788 C 0.00837 0.22163 0.66526 0.0
C789 C 0.96223 0.26264 0.64525 0.0
H790 H 0.96322 0.2836 0.7093 0.0
C791 C 0.92226 0.34776 0.67381 0.0
C792 C 0.90592 0.34714 0.69202 0.0
C793 C 0.93569 0.32845 0.66869 0.0
C794 C 0.96252 0.27756 0.69149 0.0
H795 H 0.03846 0.24076 0.60797 0.0
H796 H 0.0027 0.25939 0.62012 0.0
H797 H 0.99108 0.25437 0.69656 0.0
H798 H 0.89143 0.32608 0.71972 0.0
H799 H 0.91579 0.29235 0.71116 0.0
H800 H 0.93471 0.287 0.6399 0.0
C801 C 0.00942 0.2455 0.63075 0.0
C802 C 0.97836 0.26074 0.68418 0.0
C803 C 0.03008 0.23491 0.62381 0.0
C804 C 0.90394 0.32705 0.70561 0.0
C805 C 0.91778 0.30778 0.70072 0.0
C806 C 0.94667 0.27962 0.65248 0.0
C807 C 0.99865 0.23952 0.6519 0.0
C808 C 0.97894 0.25368 0.66075 0.0
C809 C 0.93337 0.30822 0.68187 0.0
C810 C 0.94719 0.28773 0.67546 0.0
H811 H 0.03686 0.19801 0.66942 0.0
H812 H 0.00036 0.21642 0.68149 0.0
H813 H 0.9618 0.25721 0.62723 0.0
H814 H 0.92414 0.36291 0.66293 0.0
H815 H 0.94784 0.32928 0.65425 0.0
C816 C 0.67938 0.92838 0.35353 0.0
C817 C 0.69384 0.90911 0.3508 0.0
C818 C 0.67638 0.94397 0.33534 0.0
C819 C 0.68017 0.94908 0.2716 0.0
H820 H 0.67248 0.01398 0.2857 0.0
C821 C 0.66612 0.03052 0.20972 0.0
C822 C 0.64514 0.04173 0.21552 0.0
C823 C 0.6737 0.01157 0.22281 0.0
C824 C 0.67474 0.9959 0.28153 0.0
H825 H 0.71686 0.89125 0.32697 0.0
H826 H 0.71186 0.91881 0.29517 0.0
H827 H 0.68463 0.9876 0.31633 0.0
H828 H 0.61459 0.04057 0.23789 0.0
H829 H 0.62793 0.00777 0.26065 0.0
H830 H 0.67008 0.95781 0.23661 0.0
C831 C 0.70263 0.92166 0.31134 0.0
C832 C 0.68154 0.98078 0.29905 0.0
C833 C 0.70563 0.90599 0.3296 0.0
C834 C 0.63092 0.03243 0.23313 0.0
C835 C 0.63851 0.01369 0.24618 0.0
C836 C 0.67355 0.96437 0.25393 0.0
C837 C 0.68785 0.94076 0.31397 0.0
C838 C 0.68366 0.95707 0.2945 0.0
C839 C 0.66035 0.00375 0.24174 0.0
C840 C 0.67022 0.98776 0.25901 0.0
H841 H 0.66993 0.93119 0.36957 0.0
H842 H 0.66452 0.95824 0.33786 0.0
H843 H 0.68153 0.9309 0.26755 0.0
H844 H 0.67747 0.0374 0.1963 0.0
H845 H 0.69066 0.00411 0.21921 0.0
C846 C 0.93882 0.64392 0.33494 0.0
C847 C 0.92874 0.6466 0.31282 0.0
C848 C 0.9523 0.66164 0.34474 0.0
C849 C 0.96197 0.72425 0.34266 0.0
H850 H 0.02201 0.70991 0.3705 0.0
C851 C 0.03319 0.79259 0.36506 0.0
C852 C 0.04954 0.78709 0.38242 0.0
C853 C 0.01515 0.77703 0.35946 0.0
C854 C 0.00505 0.71424 0.36331 0.0
H855 H 0.92535 0.66972 0.28336 0.0
H856 H 0.94886 0.70072 0.30058 0.0
H857 H 0.99809 0.67908 0.35423 0.0
H858 H 0.0578 0.76296 0.40995 0.0
H859 H 0.02565 0.73659 0.40119 0.0
H860 H 0.96895 0.75948 0.35178 0.0
C861 C 0.9461 0.68498 0.31039 0.0
C862 C 0.99143 0.69652 0.35383 0.0
C863 C 0.93283 0.66716 0.30048 0.0
C864 C 0.04576 0.76736 0.39607 0.0
C865 C 0.02748 0.75212 0.39087 0.0
C866 C 0.97553 0.74203 0.35238 0.0
C867 C 0.95582 0.68245 0.33268 0.0
C868 C 0.96986 0.70134 0.34325 0.0
C869 C 0.01286 0.75604 0.37159 0.0
C870 C 0.99732 0.73725 0.36273 0.0
H871 H 0.93592 0.62831 0.3449 0.0
H872 H 0.95954 0.65927 0.36199 0.0
H873 H 0.94524 0.72838 0.33481 0.0
H874 H 0.03537 0.80793 0.35456 0.0
H875 H 0.00412 0.78075 0.34461 0.0
C876 C 0.37878 0.95168 0.23754 0.0
C877 C 0.369 0.95012 0.21516 0.0
C878 C 0.37294 0.96977 0.25228 0.0
C879 C 0.34641 0.02724 0.25678 0.0
H880 H 0.32987 0.00545 0.31843 0.0
C881 C 0.30628 0.0864 0.32769 0.0
C882 C 0.3154 0.0838 0.35027 0.0
C883 C 0.31209 0.07077 0.31012 0.0
C884 C 0.33463 0.01188 0.30139 0.0
H885 H 0.34706 0.96746 0.18991 0.0
H886 H 0.33659 0.99924 0.21597 0.0
H887 H 0.34262 0.97808 0.28916 0.0
H888 H 0.33772 0.06281 0.37212 0.0
H889 H 0.34791 0.03568 0.34156 0.0
H890 H 0.33851 0.06117 0.26925 0.0
C891 C 0.34873 0.98629 0.22204 0.0
C892 C 0.34195 0.9962 0.2846 0.0
C893 C 0.35471 0.9681 0.20714 0.0
C894 C 0.33028 0.0652 0.35496 0.0
C895 C 0.33604 0.04959 0.33744 0.0
C896 C 0.3391 0.04303 0.27368 0.0
C897 C 0.35711 0.98676 0.24507 0.0
C898 C 0.34831 0.00371 0.26224 0.0
C899 C 0.32707 0.0522 0.3148 0.0
C900 C 0.33347 0.03553 0.29629 0.0
H901 H 0.39017 0.9383 0.24411 0.0
H902 H 0.38021 0.97002 0.2697 0.0
H903 H 0.3512 0.03351 0.23969 0.0
H904 H 0.29481 0.10061 0.32352 0.0
H905 H 0.30471 0.07313 0.29293 0.0
C906 C 0.06404 0.33892 0.29898 0.0
C907 C 0.0692 0.35903 0.31171 0.0
C908 C 0.05046 0.32127 0.3088 0.0
C909 C 0.0058 0.30972 0.35245 0.0
H910 H 0.02863 0.24686 0.35146 0.0
C911 C 0.95215 0.23926 0.39625 0.0
C912 C 0.94898 0.2188 0.38356 0.0
C913 C 0.97004 0.25473 0.39049 0.0
C914 C 0.02189 0.26426 0.35172 0.0
H915 H 0.06333 0.37687 0.3443 0.0
H916 H 0.03898 0.34634 0.36113 0.0
H917 H 0.05199 0.27778 0.33385 0.0
H918 H 0.96384 0.19707 0.35685 0.0
H919 H 0.99432 0.2246 0.34579 0.0
H920 H 0.97535 0.29648 0.36932 0.0
C921 C 0.04577 0.34411 0.34371 0.0
C922 C 0.03529 0.28194 0.34165 0.0
C923 C 0.05966 0.36158 0.33405 0.0
C924 C 0.96554 0.21295 0.36659 0.0
C925 C 0.98315 0.22874 0.36037 0.0
C926 C 0.99229 0.29207 0.3622 0.0
C927 C 0.04139 0.32363 0.33133 0.0
C928 C 0.02733 0.30482 0.34194 0.0
C929 C 0.98485 0.25034 0.37151 0.0
C930 C 0.00013 0.26909 0.36205 0.0
H931 H 0.07102 0.33647 0.28169 0.0
H932 H 0.04704 0.30578 0.29877 0.0
H933 H 0.99914 0.32716 0.35264 0.0
H934 H 0.93991 0.24399 0.40978 0.0
H935 H 0.97143 0.27071 0.40016 0.0
C936 C 0.78687 0.64348 0.968 0.0
C937 C 0.77803 0.62677 0.95254 0.0
C938 C 0.77357 0.65038 0.98719 0.0
C939 C 0.72245 0.63456 0.02368 0.0
H940 H 0.71156 0.70044 0.02632 0.0
C941 C 0.6414 0.6717 0.06885 0.0
C942 C 0.64397 0.69215 0.0817 0.0
C943 C 0.65974 0.66367 0.05507 0.0
C944 C 0.71466 0.68204 0.02614 0.0
H945 H 0.74937 0.6028 0.94608 0.0
H946 H 0.72651 0.61445 0.97963 0.0
H947 H 0.74168 0.6854 0.00053 0.0
H948 H 0.66762 0.7205 0.08983 0.0
H949 H 0.69975 0.70637 0.06598 0.0
H950 H 0.69527 0.63109 0.049 0.0
C951 C 0.74351 0.62245 0.9769 0.0
C952 C 0.73197 0.67343 0.01139 0.0
C953 C 0.75658 0.61584 0.95761 0.0
C954 C 0.66508 0.7047 0.08008 0.0
C955 C 0.68349 0.69662 0.06636 0.0
C956 C 0.70524 0.64315 0.03851 0.0
C957 C 0.75148 0.64031 0.99148 0.0
C958 C 0.73569 0.64957 0.00963 0.0
C959 C 0.68113 0.67587 0.05387 0.0
C960 C 0.70075 0.66695 0.03952 0.0
H961 H 0.80342 0.6521 0.96462 0.0
H962 H 0.78024 0.66402 0.99831 0.0
H963 H 0.72512 0.6161 0.02287 0.0
H964 H 0.62533 0.66166 0.06969 0.0
H965 H 0.6571 0.6479 0.04529 0.0
C966 C 0.2356 0.61947 0.04184 0.0
C967 C 0.21957 0.63487 0.05168 0.0
C968 C 0.24563 0.62406 0.02027 0.0
C969 C 0.26207 0.67409 0.98517 0.0
H970 H 0.28701 0.62668 0.94482 0.0
C971 C 0.32869 0.69236 0.91094 0.0
C972 C 0.34865 0.67831 0.91173 0.0
C973 C 0.30927 0.6874 0.9249 0.0
C974 C 0.2801 0.6401 0.95591 0.0
H975 H 0.19999 0.66622 0.04589 0.0
H976 H 0.21738 0.67419 0.00781 0.0
H977 H 0.25679 0.61666 0.97311 0.0
H978 H 0.36393 0.64802 0.92763 0.0
H979 H 0.32991 0.63925 0.95187 0.0
H980 H 0.28574 0.69742 0.96809 0.0
C981 C 0.22246 0.65872 0.01702 0.0
C982 C 0.2628 0.63439 0.9721 0.0
C983 C 0.21232 0.65405 0.0387 0.0
C984 C 0.34885 0.65923 0.92675 0.0
C985 C 0.32931 0.65408 0.94043 0.0
C986 C 0.27918 0.67984 0.96876 0.0
C987 C 0.23988 0.64419 0.00798 0.0
C988 C 0.25423 0.65113 0.98754 0.0
C989 C 0.30932 0.66808 0.9396 0.0
C990 C 0.28892 0.66272 0.95457 0.0
H991 H 0.24143 0.60446 0.0514 0.0
H992 H 0.25912 0.61257 0.01407 0.0
H993 H 0.2561 0.68739 0.99692 0.0
H994 H 0.32804 0.70716 0.89948 0.0
H995 H 0.29407 0.69845 0.92396 0.0
C996 C 0.23702 0.38179 0.95672 0.0
C997 C 0.21485 0.37205 0.95217 0.0
C998 C 0.24989 0.375 0.97616 0.0
C999 C 0.27133 0.36236 0.02279 0.0
H1000 H 0.27584 0.29582 0.02755 0.0
C1001 C 0.34897 0.31879 0.06857 0.0
C1002 C 0.34439 0.2992 0.08223 0.0
C1003 C 0.3314 0.3282 0.05462 0.0
C1004 C 0.27454 0.31443 0.02677 0.0
H1005 H 0.18789 0.34909 0.96555 0.0
H1006 H 0.21059 0.33698 0.99948 0.0
H1007 H 0.24682 0.31276 0.00167 0.0
H1008 H 0.31792 0.27385 0.09167 0.0
H1009 H 0.28719 0.29039 0.0675 0.0
H1010 H 0.29928 0.36406 0.04761 0.0
C1011 C 0.21807 0.34969 0.98779 0.0
C1012 C 0.25785 0.32413 0.01197 0.0
C1013 C 0.20504 0.3567 0.96843 0.0
C1014 C 0.32202 0.28892 0.08127 0.0
C1015 C 0.30441 0.29838 0.06738 0.0
C1016 C 0.28795 0.35266 0.03767 0.0
C1017 C 0.24092 0.35824 0.99142 0.0
C1018 C 0.25636 0.34819 0.0095 0.0
C1019 C 0.30883 0.31827 0.05406 0.0
C1020 C 0.29007 0.32857 0.03948 0.0
H1021 H 0.24499 0.39379 0.94461 0.0
H1022 H 0.26748 0.38185 0.97841 0.0
H1023 H 0.27042 0.38096 0.02141 0.0
H1024 H 0.36605 0.32709 0.06892 0.0
H1025 H 0.33555 0.34324 0.04421 0.0
C1026 C 0.78498 0.37871 0.03334 0.0
C1027 C 0.79759 0.3625 0.04636 0.0
C1028 C 0.77237 0.37182 0.01374 0.0
C1029 C 0.75753 0.33221 0.96904 0.0
H1030 H 0.69392 0.33573 0.99255 0.0
C1031 C 0.67638 0.29977 0.91665 0.0
C1032 C 0.65628 0.31359 0.91787 0.0
C1033 C 0.69562 0.30418 0.93117 0.0
C1034 C 0.7115 0.33485 0.98556 0.0
H1035 H 0.80918 0.32701 0.0477 0.0
H1036 H 0.78699 0.31494 0.0131 0.0
H1037 H 0.72661 0.34726 0.01728 0.0
H1038 H 0.64066 0.34299 0.935 0.0
H1039 H 0.67419 0.35099 0.95986 0.0
H1040 H 0.74232 0.32052 0.93695 0.0
C1041 C 0.78701 0.33295 0.01814 0.0
C1042 C 0.73019 0.34132 -0.00022 0.0
C1043 C 0.79973 0.33988 0.03785 0.0
C1044 C 0.65577 0.33186 0.93384 0.0
C1045 C 0.675 0.33637 0.94817 0.0
C1046 C 0.7387 0.32595 0.95458 0.0
C1047 C 0.77228 0.34865 0.00681 0.0
C1048 C 0.75326 0.34035 0.99155 0.0
C1049 C 0.69515 0.32257 0.94709 0.0
C1050 C 0.71543 0.32756 0.96261 0.0
H1051 H 0.78314 0.39628 0.03947 0.0
H1052 H 0.7611 0.38416 0.00517 0.0
H1053 H 0.77528 0.33133 0.96246 0.0
H1054 H 0.67728 0.28557 0.90445 0.0
H1055 H 0.71075 0.29308 0.93005 0.0
C1056 C 0.16524 0.33657 0.34022 0.0
C1057 C 0.14442 0.32918 0.32929 0.0
C1058 C 0.17857 0.32098 0.35326 0.0
C1059 C 0.19199 0.26066 0.3514 0.0
H1060 H 0.2194 0.2672 0.41276 0.0
C1061 C 0.24615 0.18742 0.39046 0.0
C1062 C 0.26607 0.19346 0.4035 0.0
C1063 C 0.22986 0.20418 0.3842 0.0
C1064 C 0.21212 0.26522 0.39547 0.0
H1065 H 0.12 0.30046 0.3255 0.0
H1066 H 0.14331 0.27347 0.34791 0.0
H1067 H 0.1937 0.29737 0.39764 0.0
H1068 H 0.28451 0.22173 0.42042 0.0
H1069 H 0.25675 0.25111 0.40862 0.0
H1070 H 0.21091 0.22929 0.34842 0.0
C1071 C 0.14951 0.2911 0.3461 0.0
C1072 C 0.19735 0.28246 0.38693 0.0
C1073 C 0.13623 0.30657 0.33324 0.0
C1074 C 0.26922 0.21653 0.41045 0.0
C1075 C 0.25319 0.23337 0.40381 0.0
C1076 C 0.20698 0.2437 0.35969 0.0
C1077 C 0.1712 0.29789 0.35545 0.0
C1078 C 0.18703 0.28016 0.3649 0.0
C1079 C 0.23341 0.22747 0.39038 0.0
C1080 C 0.21715 0.24562 0.3819 0.0
H1081 H 0.17193 0.3539 0.33756 0.0
H1082 H 0.19527 0.32656 0.36037 0.0
H1083 H 0.18455 0.25872 0.33415 0.0
H1084 H 0.24311 0.16971 0.38515 0.0
H1085 H 0.21454 0.19884 0.37438 0.0
C1086 C 0.84773 0.13019 0.3451 0.0
C1087 C 0.86905 0.1341 0.33353 0.0
C1088 C 0.82865 0.12053 0.33332 0.0
C1089 C 0.79049 0.09702 0.30437 0.0
H1090 H 0.77992 0.13612 0.2507 0.0
C1091 C 0.70444 0.09848 0.24879 0.0
C1092 C 0.69525 0.12077 0.24586 0.0
C1093 C 0.72664 0.09543 0.25865 0.0
C1094 C 0.78272 0.12493 0.26552 0.0
H1095 H 0.88787 0.12922 0.30128 0.0
H1096 H 0.85423 0.11259 0.28044 0.0
H1097 H 0.81841 0.13579 0.26918 0.0
H1098 H 0.70205 0.15725 0.25129 0.0
H1099 H 0.74088 0.15188 0.26818 0.0
H1100 H 0.75435 0.08689 0.30106 0.0
C1101 C 0.85237 0.11693 0.29865 0.0
C1102 C 0.80482 0.12451 0.27593 0.0
C1103 C 0.87163 0.12629 0.31059 0.0
C1104 C 0.70855 0.13987 0.25338 0.0
C1105 C 0.73085 0.13682 0.26285 0.0
C1106 C 0.76841 0.09721 0.29371 0.0
C1107 C 0.83044 0.11493 0.30964 0.0
C1108 C 0.80874 0.11113 0.29591 0.0
C1109 C 0.74019 0.11462 0.26534 0.0
C1110 C 0.76417 0.11179 0.2747 0.0
H1111 H 0.84534 0.13601 0.36283 0.0
H1112 H 0.81197 0.11934 0.34222 0.0
H1113 H 0.79306 0.08655 0.31974 0.0
H1114 H 0.69458 0.0834 0.24322 0.0
H1115 H 0.73348 0.07814 0.26046 0.0
C1116 C 0.83346 0.65793 0.34796 0.0
C1117 C 0.85149 0.66895 0.33546 0.0
C1118 C 0.8198 0.67044 0.36366 0.0
C1119 C 0.81562 0.72774 0.3934 0.0
H1120 H 0.74887 0.71924 0.38338 0.0
C1121 C 0.7484 0.80066 0.3987 0.0
C1122 C 0.72702 0.79621 0.40995 0.0
C1123 C 0.76461 0.78302 0.39556 0.0
C1124 C 0.76744 0.72158 0.3867 0.0
H1125 H 0.8705 0.70125 0.33103 0.0
H1126 H 0.8466 0.72295 0.35769 0.0
H1127 H 0.77614 0.69095 0.36807 0.0
H1128 H 0.70602 0.76984 0.42706 0.0
H1129 H 0.73419 0.73893 0.421 0.0
H1130 H 0.80681 0.75925 0.41067 0.0
C1131 C 0.84296 0.7047 0.3557 0.0
C1132 C 0.78309 0.70531 0.37805 0.0
C1133 C 0.85654 0.69226 0.34011 0.0
C1134 C 0.72235 0.77383 0.41832 0.0
C1135 C 0.7384 0.75612 0.41484 0.0
C1136 C 0.79998 0.74415 0.40177 0.0
C1137 C 0.82401 0.69415 0.3672 0.0
C1138 C 0.80742 0.70863 0.38057 0.0
C1139 C 0.75961 0.76054 0.40332 0.0
C1140 C 0.77583 0.74155 0.39785 0.0
H1141 H 0.82924 0.63993 0.34489 0.0
H1142 H 0.80552 0.66173 0.3725 0.0
H1143 H 0.83422 0.73054 0.39613 0.0
H1144 H 0.75257 0.81774 0.3922 0.0
H1145 H 0.78075 0.7868 0.38638 0.0
C1146 C 0.29012 0.88817 0.2329 0.0
C1147 C 0.29516 0.90992 0.22332 0.0
C1148 C 0.27065 0.88509 0.24731 0.0
C1149 C 0.21344 0.9112 0.26124 0.0
H1150 H 0.21556 0.86859 0.31305 0.0
C1151 C 0.13091 0.87205 0.3049 0.0
C1152 C 0.13253 0.86568 0.32838 0.0
C1153 C 0.15034 0.88169 0.29356 0.0
C1154 C 0.21469 0.88087 0.2989 0.0
H1155 H 0.28432 0.94573 0.22222 0.0
H1156 H 0.25073 0.94041 0.24768 0.0
H1157 H 0.25104 0.87669 0.29125 0.0
H1158 H 0.15468 0.86644 0.35903 0.0
H1159 H 0.18813 0.8841 0.33959 0.0
H1160 H 0.17706 0.91554 0.26913 0.0
C1161 C 0.26142 0.92561 0.24358 0.0
C1162 C 0.23501 0.88522 0.28615 0.0
C1163 C 0.28077 0.92866 0.22908 0.0
C1164 C 0.15309 0.87094 0.34082 0.0
C1165 C 0.17232 0.88086 0.32962 0.0
C1166 C 0.19309 0.90693 0.27409 0.0
C1167 C 0.25592 0.90372 0.25261 0.0
C1168 C 0.23458 0.90019 0.26698 0.0
C1169 C 0.17157 0.88534 0.30562 0.0
C1170 C 0.19342 0.89153 0.29294 0.0
H1171 H 0.30078 0.87337 0.22872 0.0
H1172 H 0.26677 0.86793 0.25374 0.0
H1173 H 0.21244 0.92267 0.24642 0.0
H1174 H 0.11528 0.86803 0.2949 0.0
H1175 H 0.14915 0.88485 0.27505 0.0
C1176 C 0.14473 0.69026 0.65848 0.0
C1177 C 0.15544 0.66931 0.66425 0.0
C1178 C 0.15466 0.70486 0.64196 0.0
C1179 C 0.21317 0.71938 0.62097 0.0
H1180 H 0.17844 0.76843 0.59106 0.0
C1181 C 0.25758 0.80493 0.5955 0.0
C1182 C 0.24749 0.82335 0.6078 0.0
C1183 C 0.24565 0.78391 0.59323 0.0
C1184 C 0.18839 0.75469 0.59903 0.0
H1185 H 0.18363 0.64605 0.6556 0.0
H1186 H 0.20108 0.67162 0.6263 0.0
H1187 H 0.15824 0.73276 0.60198 0.0
H1188 H 0.21622 0.83468 0.62573 0.0
H1189 H 0.19525 0.79806 0.62139 0.0
H1190 H 0.24315 0.74167 0.61858 0.0
C1191 C 0.18518 0.67694 0.63497 0.0
C1192 C 0.17687 0.7343 0.60539 0.0
C1193 C 0.17514 0.66222 0.65161 0.0
C1194 C 0.22455 0.82081 0.61631 0.0
C1195 C 0.21247 0.7999 0.61367 0.0
C1196 C 0.22476 0.73961 0.61424 0.0
C1197 C 0.17559 0.69888 0.63068 0.0
C1198 C 0.18883 0.71696 0.61768 0.0
C1199 C 0.22322 0.78104 0.60278 0.0
C1200 C 0.21222 0.75788 0.6043 0.0
H1201 H 0.12927 0.696 0.66766 0.0
H1202 H 0.14677 0.72159 0.63942 0.0
H1203 H 0.223 0.70657 0.6305 0.0
H1204 H 0.27521 0.8063 0.58866 0.0
H1205 H 0.25427 0.76963 0.58473 0.0
C1206 C 0.30686 0.14588 0.73763 0.0
C1207 C 0.31929 0.12697 0.74645 0.0
C1208 C 0.28457 0.14281 0.72813 0.0
C1209 C 0.24582 0.10376 0.69833 0.0
H1210 H 0.19856 0.1465 0.71971 0.0
C1211 C 0.15167 0.14905 0.67252 0.0
C1212 C 0.15879 0.15628 0.65032 0.0
C1213 C 0.16643 0.13521 0.68598 0.0
C1214 C 0.21119 0.13392 0.71387 0.0
H1215 H 0.3184 0.08981 0.7513 0.0
H1216 H 0.27941 0.08447 0.73389 0.0
H1217 H 0.23548 0.1436 0.74059 0.0
H1218 H 0.18495 0.1521 0.62344 0.0
H1219 H 0.21057 0.12816 0.64674 0.0
H1220 H 0.22202 0.09517 0.67067 0.0
C1221 C 0.28698 0.10165 0.7348 0.0
C1222 C 0.23246 0.1325 0.7257 0.0
C1223 C 0.30923 0.10475 0.7447 0.0
C1224 C 0.17924 0.14702 0.64067 0.0
C1225 C 0.19385 0.1331 0.654 0.0
C1226 C 0.22452 0.10531 0.68631 0.0
C1227 C 0.27429 0.12076 0.72693 0.0
C1228 C 0.25033 0.11822 0.71741 0.0
C1229 C 0.18836 0.12834 0.67732 0.0
C1230 C 0.20741 0.12122 0.69335 0.0
H1231 H 0.314 0.16321 0.73874 0.0
H1232 H 0.27525 0.15777 0.72179 0.0
H1233 H 0.25934 0.09254 0.69171 0.0
H1234 H 0.13591 0.15586 0.68033 0.0
H1235 H 0.16157 0.13149 0.70379 0.0
C1236 C 0.78339 0.1858 0.62125 0.0
C1237 C 0.76019 0.18292 0.61356 0.0
C1238 C 0.79501 0.20693 0.61833 0.0
C1239 C 0.78998 0.26545 0.5905 0.0
H1240 H 0.82748 0.28354 0.64381 0.0
C1241 C 0.81123 0.35934 0.62153 0.0
C1242 C 0.83348 0.36276 0.6315 0.0
C1243 C 0.8048 0.33753 0.61293 0.0
C1244 C 0.81737 0.27866 0.62859 0.0
H1245 H 0.7313 0.19972 0.59589 0.0
H1246 H 0.75105 0.23666 0.59179 0.0
H1247 H 0.81185 0.2447 0.64161 0.0
H1248 H 0.8673 0.34717 0.63791 0.0
H1249 H 0.85624 0.30947 0.62263 0.0
H1250 H 0.79461 0.30029 0.57839 0.0
C1251 C 0.76066 0.22256 0.5995 0.0
C1252 C 0.80846 0.25626 0.62724 0.0
C1253 C 0.74922 0.20132 0.60202 0.0
C1254 C 0.84994 0.3449 0.63049 0.0
C1255 C 0.8436 0.3233 0.62186 0.0
C1256 C 0.79865 0.2881 0.59206 0.0
C1257 C 0.78353 0.22585 0.60811 0.0
C1258 C 0.79451 0.2493 0.60827 0.0
C1259 C 0.82061 0.31904 0.61419 0.0
C1260 C 0.81238 0.29489 0.61118 0.0
H1261 H 0.79244 0.17186 0.62991 0.0
H1262 H 0.81286 0.20854 0.6246 0.0
H1263 H 0.77958 0.26069 0.57546 0.0
H1264 H 0.7982 0.37281 0.62227 0.0
H1265 H 0.78694 0.33467 0.60711 0.0
C1266 C 0.80671 0.83149 0.63545 0.0
C1267 C 0.82846 0.82675 0.64578 0.0
C1268 C 0.79175 0.84763 0.64519 0.0
C1269 C 0.77821 0.86977 0.70291 0.0
H1270 H 0.72664 0.89673 0.66856 0.0
C1271 C 0.69179 0.89544 0.74717 0.0
C1272 C 0.67316 0.88195 0.73832 0.0
C1273 C 0.71287 0.89736 0.73498 0.0
C1274 C 0.74109 0.8896 0.67839 0.0
H1275 H 0.85268 0.83683 0.67307 0.0
H1276 H 0.82647 0.86548 0.69018 0.0
H1277 H 0.76258 0.88643 0.64818 0.0
H1278 H 0.66149 0.86122 0.70908 0.0
H1279 H 0.69819 0.86502 0.68754 0.0
H1280 H 0.75637 0.87248 0.73299 0.0
C1281 C 0.82081 0.85628 0.67474 0.0
C1282 C 0.76163 0.88359 0.66676 0.0
C1283 C 0.83589 0.84001 0.66489 0.0
C1284 C 0.67555 0.87161 0.71639 0.0
C1285 C 0.69647 0.87393 0.704 0.0
C1286 C 0.75785 0.8762 0.71459 0.0
C1287 C 0.79816 0.85958 0.66554 0.0
C1288 C 0.77988 0.87232 0.67864 0.0
C1289 C 0.7155 0.88629 0.71348 0.0
C1290 C 0.7387 0.88506 0.70221 0.0
H1291 H 0.80068 0.82183 0.62041 0.0
H1292 H 0.77446 0.8494 0.63763 0.0
H1293 H 0.79174 0.86104 0.71268 0.0
H1294 H 0.69053 0.90364 0.76404 0.0
H1295 H 0.72733 0.90694 0.74262 0.0
C1296 C 0.37061 0.19279 0.37191 0.0
C1297 C 0.3645 0.16928 0.37162 0.0
C1298 C 0.37885 0.2035 0.35167 0.0
C1299 C 0.36851 0.22112 0.30312 0.0
H1300 H 0.40605 0.19432 0.25405 0.0
C1301 C 0.34829 0.23638 0.20698 0.0
C1302 C 0.36698 0.24306 0.19255 0.0
C1303 C 0.35254 0.22856 0.22954 0.0
C1304 C 0.39572 0.20214 0.26767 0.0
H1305 H 0.36492 0.13797 0.35105 0.0
H1306 H 0.3795 0.15649 0.31599 0.0
H1307 H 0.40911 0.1793 0.29378 0.0
H1308 H 0.4049 0.2458 0.1902 0.0
H1309 H 0.41225 0.23162 0.22958 0.0
H1310 H 0.35438 0.24327 0.27694 0.0
C1311 C 0.37782 0.16679 0.3316 0.0
C1312 C 0.39744 0.19355 0.29035 0.0
C1313 C 0.36936 0.15617 0.35169 0.0
C1314 C 0.39008 0.24086 0.2009 0.0
C1315 C 0.39434 0.23273 0.22341 0.0
C1316 C 0.36661 0.2295 0.28048 0.0
C1317 C 0.38137 0.19077 0.331 0.0
C1318 C 0.38341 0.2026 0.3082 0.0
C1319 C 0.37556 0.22697 0.23809 0.0
C1320 C 0.3797 0.21968 0.26242 0.0
H1321 H 0.36699 0.20332 0.38702 0.0
H1322 H 0.38175 0.22199 0.35175 0.0
H1323 H 0.35723 0.22828 0.31637 0.0
H1324 H 0.33029 0.23789 0.20116 0.0
H1325 H 0.33776 0.22388 0.24041 0.0
C1326 C 0.92265 0.22525 0.28618 0.0
C1327 C 0.91165 0.2293 0.30765 0.0
C1328 C 0.92019 0.24083 0.26785 0.0
C1329 C 0.90565 0.30048 0.25346 0.0
H1330 H 0.87747 0.27524 0.19746 0.0
C1331 C 0.84641 0.35307 0.1948 0.0
C1332 C 0.84338 0.34729 0.17126 0.0
C1333 C 0.86176 0.34071 0.2088 0.0
C1334 C 0.88596 0.28261 0.21262 0.0
H1335 H 0.89023 0.25327 0.32703 0.0
H1336 H 0.88624 0.28072 0.29502 0.0
H1337 H 0.89119 0.24931 0.22777 0.0
H1338 H 0.85565 0.32525 0.14344 0.0
H1339 H 0.88294 0.30375 0.16794 0.0
H1340 H 0.90021 0.33379 0.23857 0.0
C1341 C 0.89666 0.2654 0.29243 0.0
C1342 C 0.89368 0.26771 0.23005 0.0
C1343 C 0.89877 0.24962 0.31065 0.0
C1344 C 0.85744 0.32998 0.16158 0.0
C1345 C 0.87294 0.31757 0.17565 0.0
C1346 C 0.89829 0.31538 0.23588 0.0
C1347 C 0.90708 0.26097 0.27079 0.0
C1348 C 0.90275 0.27656 0.25096 0.0
C1349 C 0.87467 0.32231 0.19962 0.0
C1350 C 0.88741 0.30666 0.21568 0.0
H1351 H 0.93268 0.20972 0.2833 0.0
H1352 H 0.92837 0.23707 0.25131 0.0
H1353 H 0.91295 0.30765 0.26931 0.0
H1354 H 0.83611 0.36654 0.20278 0.0
H1355 H 0.86234 0.34477 0.22716 0.0
C1356 C 0.6264 0.77416 0.19356 0.0
C1357 C 0.61498 0.75346 0.18748 0.0
C1358 C 0.62181 0.78478 0.21488 0.0
C1359 C 0.60689 0.77039 0.27386 0.0
H1360 H 0.59854 0.83624 0.28148 0.0
C1361 C 0.61893 0.81193 0.3637 0.0
C1362 C 0.63385 0.83133 0.36322 0.0
C1363 C 0.60857 0.80377 0.34312 0.0
C1364 C 0.60089 0.81781 0.2797 0.0
H1365 H 0.58929 0.72799 0.19883 0.0
H1366 H 0.58184 0.74629 0.23627 0.0
H1367 H 0.59679 0.81928 0.24265 0.0
H1368 H 0.64775 0.85863 0.34126 0.0
H1369 H 0.63041 0.84429 0.30578 0.0
H1370 H 0.61278 0.76896 0.3105 0.0
C1371 C 0.59414 0.75435 0.2244 0.0
C1372 C 0.5998 0.80814 0.25747 0.0
C1373 C 0.59841 0.74394 0.20294 0.0
C1374 C 0.63661 0.84343 0.34222 0.0
C1375 C 0.62638 0.8353 0.32179 0.0
C1376 C 0.60838 0.7801 0.29606 0.0
C1377 C 0.606 0.77471 0.23067 0.0
C1378 C 0.60348 0.78446 0.2543 0.0
C1379 C 0.61291 0.8149 0.32175 0.0
C1380 C 0.60623 0.80407 0.29917 0.0
H1381 H 0.63916 0.78198 0.18202 0.0
H1382 H 0.63134 0.80038 0.21942 0.0
H1383 H 0.60989 0.75207 0.27186 0.0
H1384 H 0.61636 0.80231 0.37964 0.0
H1385 H 0.59793 0.78823 0.3438 0.0
C1386 C 0.15522 0.67786 0.16667 0.0
C1387 C 0.16175 0.65494 0.17059 0.0
C1388 C 0.1394 0.68858 0.18166 0.0
C1389 C 0.12253 0.68283 0.243 0.0
H1390 H 0.08732 0.73817 0.22974 0.0
C1391 C 0.11143 0.75435 0.31032 0.0
C1392 C 0.09072 0.76727 0.31065 0.0
C1393 C 0.11496 0.7377 0.29319 0.0
C1394 C 0.09672 0.72251 0.23377 0.0
H1395 H 0.15513 0.62433 0.19113 0.0
H1396 H 0.1265 0.64253 0.21646 0.0
H1397 H 0.09999 0.71364 0.19779 0.0
H1398 H 0.05699 0.77207 0.29379 0.0
H1399 H 0.06312 0.74277 0.26406 0.0
H1400 H 0.11933 0.69165 0.2789 0.0
C1401 C 0.13426 0.65266 0.20262 0.0
C1402 C 0.10422 0.70858 0.21541 0.0
C1403 C 0.15045 0.64215 0.18801 0.0
C1404 C 0.07327 0.76258 0.29392 0.0
C1405 C 0.07679 0.74585 0.27682 0.0
C1406 C 0.11489 0.69661 0.26128 0.0
C1407 C 0.12963 0.67637 0.20054 0.0
C1408 C 0.11786 0.68895 0.21977 0.0
C1409 C 0.09782 0.73345 0.27606 0.0
C1410 C 0.10262 0.71703 0.25687 0.0
H1411 H 0.16389 0.68805 0.1534 0.0
H1412 H 0.13639 0.70687 0.17952 0.0
H1413 H 0.13322 0.66805 0.24718 0.0
H1414 H 0.12526 0.75752 0.32287 0.0
H1415 H 0.13154 0.72874 0.29293 0.0
C1416 C 0.41808 0.72414 0.78283 0.0
C1417 C 0.41033 0.72672 0.80585 0.0
C1418 C 0.41212 0.74034 0.76588 0.0
C1419 C 0.36779 0.78527 0.75482 0.0
H1420 H 0.40716 0.80024 0.70193 0.0
C1421 C 0.3406 0.85454 0.69099 0.0
C1422 C 0.33841 0.84704 0.66783 0.0
C1423 C 0.3533 0.84175 0.70706 0.0
C1424 C 0.39604 0.79613 0.71662 0.0
H1425 H 0.39154 0.74894 0.82953 0.0
H1426 H 0.38196 0.77771 0.80029 0.0
H1427 H 0.42199 0.77469 0.73245 0.0
H1428 H 0.34955 0.8213 0.64291 0.0
H1429 H 0.37193 0.79876 0.67131 0.0
H1430 H 0.34202 0.80688 0.73922 0.0
C1431 C 0.39183 0.76273 0.79501 0.0
C1432 C 0.40444 0.78146 0.73405 0.0
C1433 C 0.39741 0.74631 0.81183 0.0
C1434 C 0.35081 0.82743 0.66066 0.0
C1435 C 0.36364 0.81458 0.67686 0.0
C1436 C 0.3596 0.8001 0.73767 0.0
C1437 C 0.39859 0.75966 0.77169 0.0
C1438 C 0.39036 0.77584 0.75338 0.0
C1439 C 0.36418 0.82121 0.70036 0.0
C1440 C 0.3736 0.80568 0.71843 0.0
H1441 H 0.42803 0.70914 0.7777 0.0
H1442 H 0.41743 0.73723 0.74811 0.0
H1443 H 0.35613 0.78086 0.769 0.0
H1444 H 0.33169 0.86986 0.69698 0.0
H1445 H 0.35383 0.84744 0.725 0.0
C1446 C 0.12905 0.30316 0.86447 0.0
C1447 C 0.13589 0.32648 0.86448 0.0
C1448 C 0.12054 0.29292 0.84406 0.0
C1449 C 0.12956 0.27592 0.79477 0.0
H1450 H 0.08884 0.30286 0.74815 0.0
C1451 C 0.14202 0.25988 0.69747 0.0
C1452 C 0.12229 0.2518 0.68516 0.0
C1453 C 0.13966 0.26852 0.71998 0.0
C1454 C 0.10009 0.29506 0.7611 0.0
H1455 H 0.13697 0.35793 0.84413 0.0
H1456 H 0.12171 0.3402 0.80876 0.0
H1457 H 0.0888 0.31811 0.78799 0.0
H1458 H 0.08446 0.24755 0.6864 0.0
H1459 H 0.08038 0.26329 0.72567 0.0
H1460 H 0.14169 0.25364 0.76775 0.0
C1461 C 0.12306 0.32975 0.82431 0.0
C1462 C 0.10007 0.30375 0.78381 0.0
C1463 C 0.1319 0.33988 0.84453 0.0
C1464 C 0.10001 0.25356 0.69547 0.0
C1465 C 0.09763 0.26258 0.71789 0.0
C1466 C 0.12985 0.26751 0.77206 0.0
C1467 C 0.11838 0.30596 0.82355 0.0
C1468 C 0.11512 0.2945 0.80075 0.0
C1469 C 0.11751 0.2696 0.73052 0.0
C1470 C 0.11549 0.27732 0.75492 0.0
H1471 H 0.13206 0.29244 0.87959 0.0
H1472 H 0.11691 0.27455 0.84393 0.0
H1473 H 0.14159 0.26866 0.80735 0.0
H1474 H 0.15942 0.25871 0.69009 0.0
H1475 H 0.15522 0.27411 0.72931 0.0
C1476 C 0.66636 0.14454 0.69421 0.0
C1477 C 0.6691 0.15354 0.67168 0.0
C1478 C 0.65265 0.15589 0.71052 0.0
C1479 C 0.60847 0.20027 0.72092 0.0
H1480 H 0.6458 0.21258 0.77605 0.0
C1481 C 0.58505 0.27033 0.78853 0.0
C1482 C 0.59221 0.2672 0.81171 0.0
C1483 C 0.59084 0.25417 0.77151 0.0
C1484 C 0.63482 0.20893 0.7611 0.0
H1485 H 0.65799 0.1804 0.64797 0.0
H1486 H 0.6339 0.20046 0.67679 0.0
H1487 H 0.66134 0.18821 0.74568 0.0
H1488 H 0.60942 0.2439 0.83559 0.0
H1489 H 0.61866 0.2152 0.80617 0.0
H1490 H 0.58183 0.22099 0.7365 0.0
C1491 C 0.64248 0.18458 0.68168 0.0
C1492 C 0.64383 0.19504 0.74359 0.0
C1493 C 0.65629 0.17315 0.66524 0.0
C1494 C 0.60403 0.24695 0.81779 0.0
C1495 C 0.60943 0.23059 0.80087 0.0
C1496 C 0.59925 0.21401 0.73868 0.0
C1497 C 0.64133 0.17649 0.70469 0.0
C1498 C 0.63083 0.19063 0.72331 0.0
C1499 C 0.6036 0.23434 0.77738 0.0
C1500 C 0.6124 0.21861 0.75895 0.0
H1501 H 0.67557 0.12916 0.69958 0.0
H1502 H 0.65167 0.14906 0.72802 0.0
H1503 H 0.5981 0.19706 0.70544 0.0
H1504 H 0.57594 0.28582 0.7833 0.0
H1505 H 0.58623 0.25781 0.75363 0.0
C1506 C 0.88985 0.74535 0.70096 0.0
C1507 C 0.87862 0.73359 0.68263 0.0
C1508 C 0.89231 0.73496 0.72273 0.0
C1509 C 0.86535 0.68792 0.75748 0.0
H1510 H 0.91419 0.70386 0.80186 0.0
C1511 C 0.86485 0.6463 0.84585 0.0
C1512 C 0.86164 0.66236 0.86384 0.0
C1513 C 0.8736 0.65334 0.82442 0.0
C1514 C 0.90054 0.69925 0.78955 0.0
H1515 H 0.86274 0.70115 0.67219 0.0
H1516 H 0.86812 0.68251 0.70972 0.0
H1517 H 0.9166 0.71837 0.76191 0.0
H1518 H 0.86736 0.69781 0.87442 0.0
H1519 H 0.88281 0.71025 0.83657 0.0
H1520 H 0.84945 0.66868 0.78495 0.0
C1521 C 0.87408 0.70017 0.70772 0.0
C1522 C 0.90178 0.70763 0.76672 0.0
C1523 C 0.87112 0.71076 0.68611 0.0
C1524 C 0.86977 0.6851 0.86085 0.0
C1525 C 0.87854 0.6922 0.83921 0.0
C1526 C 0.86437 0.67928 0.78003 0.0
C1527 C 0.88402 0.71237 0.72657 0.0
C1528 C 0.88403 0.70223 0.75042 0.0
C1529 C 0.87928 0.6766 0.82051 0.0
C1530 C 0.88182 0.68495 0.79633 0.0
H1531 H 0.89577 0.76303 0.69883 0.0
H1532 H 0.8998 0.74507 0.73676 0.0
H1533 H 0.85095 0.68389 0.74584 0.0
H1534 H 0.85892 0.62859 0.8478 0.0
H1535 H 0.87434 0.64093 0.81036 0.0
C1536 C 0.1824 0.39965 0.23903 0.0
C1537 C 0.16721 0.38087 0.23452 0.0
C1538 C 0.20341 0.40218 0.22681 0.0
C1539 C 0.23587 0.3807 0.17525 0.0
H1540 H 0.29094 0.39029 0.21382 0.0
C1541 C 0.33165 0.34168 0.17775 0.0
C1542 C 0.33454 0.33957 0.15368 0.0
C1543 C 0.31494 0.3568 0.18666 0.0
C1544 C 0.27577 0.38776 0.20273 0.0
H1545 H 0.1618 0.35073 0.21276 0.0
H1546 H 0.19841 0.35498 0.19169 0.0
H1547 H 0.25207 0.39604 0.23022 0.0
H1548 H 0.32482 0.35334 0.12013 0.0
H1549 H 0.29675 0.38086 0.13565 0.0
H1550 H 0.25915 0.37059 0.14835 0.0
C1551 C 0.19401 0.36792 0.2045 0.0
C1552 C 0.25345 0.39127 0.21208 0.0
C1553 C 0.17301 0.36538 0.21671 0.0
C1554 C 0.32292 0.35487 0.13881 0.0
C1555 C 0.30658 0.37033 0.14772 0.0
C1556 C 0.2581 0.37704 0.16597 0.0
C1557 C 0.2097 0.38606 0.20974 0.0
C1558 C 0.23323 0.38684 0.19869 0.0
C1559 C 0.30105 0.37014 0.17156 0.0
C1560 C 0.27833 0.37962 0.17984 0.0
H1561 H 0.17843 0.41207 0.2525 0.0
H1562 H 0.21496 0.41651 0.23104 0.0
H1563 H 0.22067 0.37762 0.16433 0.0
H1564 H 0.34017 0.32973 0.18946 0.0
H1565 H 0.31126 0.35607 0.2051 0.0
C1566 C 0.37072 0.62705 0.80629 0.0
C1567 C 0.37525 0.62797 0.83022 0.0
C1568 C 0.34938 0.6181 0.79814 0.0
C1569 C 0.30221 0.59796 0.78378 0.0
H1570 H 0.2526 0.62025 0.82369 0.0
C1571 C 0.20513 0.59941 0.75406 0.0
C1572 C 0.19322 0.62004 0.7589 0.0
C1573 C 0.22686 0.5949 0.76434 0.0
C1574 C 0.26621 0.61392 0.81231 0.0
H1575 H 0.36262 0.61814 0.86426 0.0
H1576 H 0.3261 0.60111 0.85005 0.0
H1577 H 0.29258 0.62032 0.83777 0.0
H1578 H 0.19467 0.65181 0.77883 0.0
H1579 H 0.23253 0.64414 0.79639 0.0
H1580 H 0.27574 0.59318 0.75773 0.0
C1581 C 0.33838 0.60814 0.83754 0.0
C1582 C 0.28921 0.61356 0.82053 0.0
C1583 C 0.35942 0.61756 0.84568 0.0
C1584 C 0.20325 0.63572 0.77474 0.0
C1585 C 0.22496 0.63123 0.78495 0.0
C1586 C 0.27914 0.5985 0.77547 0.0
C1587 C 0.33241 0.60967 0.81384 0.0
C1588 C 0.30765 0.60614 0.8062 0.0
C1589 C 0.23716 0.6109 0.7797 0.0
C1590 C 0.26099 0.60715 0.78944 0.0
H1591 H 0.38258 0.6353 0.79411 0.0
H1592 H 0.34545 0.6197 0.77979 0.0
H1593 H 0.31588 0.59184 0.77236 0.0
H1594 H 0.19786 0.58685 0.74204 0.0
H1595 H 0.23565 0.57895 0.76014 0.0
C1596 C 0.24737 0.30314 0.88883 0.0
C1597 C 0.23333 0.30338 0.90885 0.0
C1598 C 0.26388 0.2858 0.88556 0.0
C1599 C 0.27711 0.22623 0.90301 0.0
H1600 H 0.33546 0.23967 0.87128 0.0
C1601 C 0.32751 0.1601 0.84829 0.0
C1602 C 0.35143 0.16402 0.84425 0.0
C1603 C 0.3151 0.1748 0.86302 0.0
C1604 C 0.31952 0.23551 0.88063 0.0
H1605 H 0.22632 0.28599 0.9416 0.0
H1606 H 0.25533 0.25591 0.93593 0.0
H1607 H 0.31067 0.27112 0.8835 0.0
H1608 H 0.38185 0.18426 0.85427 0.0
H1609 H 0.36056 0.20911 0.88096 0.0
H1610 H 0.28601 0.19052 0.9 0.0
C1611 C 0.25325 0.26891 0.92259 0.0
C1612 C 0.3051 0.25362 0.88729 0.0
C1613 C 0.23669 0.28623 0.92585 0.0
C1614 C 0.36331 0.18108 0.85705 0.0
C1615 C 0.35105 0.19544 0.8721 0.0
C1616 C 0.29164 0.20804 0.89643 0.0
C1617 C 0.26685 0.26835 0.90229 0.0
C1618 C 0.28342 0.2492 0.89795 0.0
C1619 C 0.32656 0.19341 0.87414 0.0
C1620 C 0.31277 0.21244 0.88462 0.0
H1621 H 0.24523 0.316 0.87536 0.0
H1622 H 0.27383 0.2857 0.86955 0.0
H1623 H 0.26047 0.22222 0.91114 0.0
H1624 H 0.31798 0.14714 0.83841 0.0
H1625 H 0.29626 0.1727 0.86409 0.0
C1626 C 0.63086 0.37829 0.81529 0.0
C1627 C 0.63543 0.36297 0.83365 0.0
C1628 C 0.64938 0.38917 0.80358 0.0
C1629 C 0.71433 0.39929 0.80564 0.0
H1630 H 0.70866 0.39641 0.73853 0.0
C1631 C 0.7934 0.39584 0.7429 0.0
C1632 C 0.79229 0.40976 0.72293 0.0
C1633 C 0.77409 0.39399 0.75775 0.0
C1634 C 0.71042 0.3976 0.75725 0.0
H1635 H 0.66297 0.34848 0.85522 0.0
H1636 H 0.6949 0.36678 0.83461 0.0
H1637 H 0.67467 0.38782 0.76255 0.0
H1638 H 0.77002 0.43288 0.70312 0.0
H1639 H 0.73643 0.42931 0.72883 0.0
H1640 H 0.7505 0.40798 0.80011 0.0
C1641 C 0.67716 0.37071 0.82927 0.0
C1642 C 0.69088 0.39284 0.77105 0.0
C1643 C 0.65874 0.35998 0.84099 0.0
C1644 C 0.77154 0.42196 0.71831 0.0
C1645 C 0.75222 0.41989 0.73298 0.0
C1646 C 0.73394 0.40378 0.7918 0.0
C1647 C 0.6728 0.38491 0.80998 0.0
C1648 C 0.69268 0.39319 0.79544 0.0
C1649 C 0.75324 0.4058 0.75275 0.0
C1650 C 0.73223 0.40262 0.76749 0.0
H1651 H 0.61311 0.38112 0.8093 0.0
H1652 H 0.64538 0.40038 0.78907 0.0
H1653 H 0.71625 0.40016 0.82435 0.0
H1654 H 0.80913 0.38632 0.74701 0.0
H1655 H 0.77524 0.38284 0.77281 0.0
C1656 C 0.75088 0.6946 0.88345 0.0
C1657 C 0.76382 0.69441 0.90424 0.0
C1658 C 0.73496 0.71223 0.87897 0.0
C1659 C 0.72138 0.77217 0.89535 0.0
H1660 H 0.66459 0.75897 0.86059 0.0
C1661 C 0.63629 0.81819 0.84777 0.0
C1662 C 0.64818 0.83623 0.83647 0.0
C1663 C 0.64844 0.80304 0.86214 0.0
C1664 C 0.68009 0.76306 0.87073 0.0
H1665 H 0.76958 0.71222 0.93701 0.0
H1666 H 0.74152 0.74275 0.92929 0.0
H1667 H 0.68879 0.72743 0.8738 0.0
H1668 H 0.68154 0.85375 0.83246 0.0
H1669 H 0.70313 0.82674 0.85686 0.0
H1670 H 0.71251 0.80788 0.89237 0.0
C1671 C 0.74404 0.72952 0.91626 0.0
C1672 C 0.6942 0.7449 0.87797 0.0
C1673 C 0.76005 0.71195 0.9207 0.0
C1674 C 0.67203 0.84 0.84114 0.0
C1675 C 0.68434 0.82451 0.85516 0.0
C1676 C 0.70713 0.7904 0.88824 0.0
C1677 C 0.73147 0.72999 0.89524 0.0
C1678 C 0.7153 0.74923 0.88984 0.0
C1679 C 0.67285 0.80524 0.86498 0.0
C1680 C 0.68654 0.78608 0.8754 0.0
H1681 H 0.75341 0.68145 0.87034 0.0
H1682 H 0.72586 0.71224 0.86243 0.0
H1683 H 0.73759 0.77613 0.90439 0.0
H1684 H 0.61779 0.81516 0.84458 0.0
H1685 H 0.63888 0.78886 0.87002 0.0
C1686 C 0.67362 0.64353 0.13959 0.0
C1687 C 0.66076 0.65779 0.15444 0.0
C1688 C 0.69105 0.62926 0.14856 0.0
C1689 C 0.72203 0.61265 0.20384 0.0
H1690 H 0.77711 0.62486 0.16629 0.0
C1691 C 0.82383 0.63804 0.21941 0.0
C1692 C 0.8301 0.62249 0.23704 0.0
C1693 C 0.80302 0.63497 0.20696 0.0
C1694 C 0.76192 0.6212 0.17697 0.0
H1695 H 0.65444 0.66725 0.19018 0.0
H1696 H 0.68528 0.64302 0.20595 0.0
H1697 H 0.73855 0.63095 0.14989 0.0
H1698 H 0.81989 0.5907 0.25447 0.0
H1699 H 0.78361 0.58536 0.23256 0.0
H1700 H 0.74575 0.60471 0.23154 0.0
C1701 C 0.6817 0.64212 0.18749 0.0
C1702 C 0.73967 0.62433 0.16745 0.0
C1703 C 0.66395 0.65605 0.17851 0.0
C1704 C 0.81555 0.60316 0.24114 0.0
C1705 C 0.79468 0.60011 0.22866 0.0
C1706 C 0.74436 0.60967 0.21344 0.0
C1707 C 0.69641 0.62963 0.17246 0.0
C1708 C 0.71941 0.62099 0.18102 0.0
C1709 C 0.78795 0.61624 0.21174 0.0
C1710 C 0.76455 0.61484 0.20037 0.0
H1711 H 0.67148 0.64481 0.12091 0.0
H1712 H 0.70154 0.61937 0.13654 0.0
H1713 H 0.70684 0.6095 0.21468 0.0
H1714 H 0.83456 0.6531 0.21575 0.0
H1715 H 0.79824 0.64793 0.19428 0.0
C1716 C 0.3007 0.8677 0.12449 0.0
C1717 C 0.32473 0.87287 0.12533 0.0
C1718 C 0.293 0.84622 0.11623 0.0
C1719 C 0.27991 0.79855 0.09796 0.0
H1720 H 0.32111 0.7522 0.12382 0.0
C1721 C 0.25328 0.70201 0.103 0.0
C1722 C 0.25779 0.69127 0.1245 0.0
C1723 C 0.26299 0.72363 0.09784 0.0
C1724 C 0.30939 0.76489 0.11649 0.0
H1725 H 0.35934 0.86117 0.11594 0.0
H1726 H 0.34589 0.82434 0.10014 0.0
H1727 H 0.33422 0.79197 0.12191 0.0
H1728 H 0.27664 0.69473 0.15714 0.0
H1729 H 0.29333 0.73238 0.14827 0.0
H1730 H 0.2545 0.77141 0.09402 0.0
C1731 C 0.33298 0.8363 0.10664 0.0
C1732 C 0.31705 0.78774 0.115 0.0
C1733 C 0.34068 0.85753 0.11532 0.0
C1734 C 0.27281 0.70239 0.1404 0.0
C1735 C 0.28251 0.72398 0.13524 0.0
C1736 C 0.27218 0.77562 0.09955 0.0
C1737 C 0.30926 0.82974 0.10849 0.0
C1738 C 0.30223 0.80502 0.10624 0.0
C1739 C 0.2775 0.73499 0.11403 0.0
C1740 C 0.28663 0.75866 0.10945 0.0
H1741 H 0.28816 0.87914 0.13251 0.0
H1742 H 0.27461 0.84182 0.11801 0.0
H1743 H 0.26812 0.81132 0.09089 0.0
H1744 H 0.24187 0.69392 0.09024 0.0
H1745 H 0.25902 0.73151 0.08124 0.0
C1746 C 0.73919 0.30431 0.13701 0.0
C1747 C 0.75126 0.31588 0.11918 0.0
C1748 C 0.73022 0.28218 0.1334 0.0
C1749 C 0.70578 0.24192 0.09403 0.0
H1750 H 0.72765 0.19692 0.13883 0.0
C1751 C 0.6816 0.14941 0.14168 0.0
C1752 C 0.65899 0.15595 0.14847 0.0
C1753 C 0.69496 0.16394 0.12738 0.0
C1754 C 0.72174 0.2089 0.12566 0.0
H1755 H 0.76233 0.31371 0.08314 0.0
H1756 H 0.7458 0.27496 0.07671 0.0
H1757 H 0.7474 0.23409 0.13583 0.0
H1758 H 0.63129 0.18071 0.14302 0.0
H1759 H 0.65436 0.20592 0.11821 0.0
H1760 H 0.67896 0.21732 0.08508 0.0
C1761 C 0.74378 0.2831 0.09353 0.0
C1762 C 0.73294 0.23028 0.12415 0.0
C1763 C 0.75318 0.3052 0.09726 0.0
C1764 C 0.64882 0.17546 0.13825 0.0
C1765 C 0.66204 0.18983 0.12385 0.0
C1766 C 0.69436 0.22051 0.09568 0.0
C1767 C 0.73278 0.27126 0.1118 0.0
C1768 C 0.72441 0.24728 0.1091 0.0
C1769 C 0.68576 0.18506 0.1196 0.0
C1770 C 0.70156 0.2042 0.11232 0.0
H1771 H 0.73746 0.31194 0.15411 0.0
H1772 H 0.72154 0.27338 0.14764 0.0
H1773 H 0.69899 0.25485 0.08226 0.0
H1774 H 0.68981 0.13439 0.14927 0.0
H1775 H 0.71309 0.15965 0.12408 0.0
loop_
_geom_bond_atom_site_label_1
_geom_bond_atom_site_label_2
_geom_bond_distance
_geom_bond_site_symmetry_2
_ccdc_geom_bond_type
Co0 O1 2.216 . S
Co0 O2 2.091 . S
Co0 O4 2.004 . S
Co0 O10 2.021 . S
Co0 O12 2.137 . S
Co0 O13 2.244 . S
O1 Co0 2.216 . S
O1 C8 1.247 . S
O2 Co0 2.091 . S
O2 C8 1.261 . S
C3 O12 1.247 . S
C3 O13 1.272 . S
O4 Co0 2.004 . S
O4 C9 1.259 . S
Co5 O6 2.061 . S
Co5 O11 2.052 . S
Co5 O13 2.135 . S
O6 Co5 2.061 . S
O6 C9 1.235 . S
C7 O10 1.238 . S
C7 O11 1.241 . S
C8 O1 1.247 . S
C8 O2 1.261 . S
C9 O4 1.259 . S
C9 O6 1.235 . S
O10 Co0 2.021 . S
O10 C7 1.238 . S
O11 Co5 2.052 . S
O11 C7 1.241 . S
O12 Co0 2.137 . S
O12 C3 1.247 . S
O13 Co0 2.244 . S
O13 C3 1.272 . S
O13 Co5 2.135 . S
Co14 O15 2.216 . S
Co14 O16 2.091 . S
Co14 O18 2.004 . S
Co14 O24 2.021 . S
Co14 O26 2.137 . S
Co14 O27 2.244 . S
O15 Co14 2.216 . S
O15 C22 1.247 . S
O16 Co14 2.091 . S
O16 C22 1.261 . S
C17 O26 1.247 . S
C17 O27 1.272 . S
O18 Co14 2.004 . S
O18 C23 1.259 . S
Co19 O20 2.061 . S
Co19 O25 2.052 . S
Co19 O27 2.135 . S
O20 Co19 2.061 . S
O20 C23 1.235 . S
C21 O24 1.238 . S
C21 O25 1.241 . S
C22 O15 1.247 . S
C22 O16 1.261 . S
C23 O18 1.259 . S
C23 O20 1.235 . S
O24 Co14 2.021 . S
O24 C21 1.238 . S
O25 Co19 2.052 . S
O25 C21 1.241 . S
O26 Co14 2.137 . S
O26 C17 1.247 . S
O27 Co14 2.244 . S
O27 C17 1.272 . S
O27 Co19 2.135 . S
Co28 O29 2.216 . S
Co28 O30 2.091 . S
Co28 O32 2.004 . S
Co28 O38 2.021 . S
Co28 O40 2.137 . S
Co28 O41 2.244 . S
O29 Co28 2.216 . S
O29 C36 1.247 . S
O30 Co28 2.091 . S
O30 C36 1.261 . S
C31 O40 1.247 . S
C31 O41 1.272 . S
O32 Co28 2.004 . S
O32 C37 1.259 . S
Co33 O34 2.061 . S
Co33 O39 2.052 . S
Co33 O41 2.135 . S
O34 Co33 2.061 . S
O34 C37 1.235 . S
C35 O38 1.238 . S
C35 O39 1.241 . S
C36 O29 1.247 . S
C36 O30 1.261 . S
C37 O32 1.259 . S
C37 O34 1.235 . S
O38 Co28 2.021 . S
O38 C35 1.238 . S
O39 Co33 2.052 . S
O39 C35 1.241 . S
O40 Co28 2.137 . S
O40 C31 1.247 . S
O41 Co28 2.244 . S
O41 C31 1.272 . S
O41 Co33 2.135 . S
Co42 O43 2.216 . S
Co42 O44 2.091 . S
Co42 O46 2.004 . S
Co42 O52 2.021 . S
Co42 O54 2.137 . S
Co42 O55 2.244 . S
O43 Co42 2.216 . S
O43 C50 1.247 . S
O44 Co42 2.091 . S
O44 C50 1.261 . S
C45 O54 1.247 . S
C45 O55 1.272 . S
O46 Co42 2.004 . S
O46 C51 1.259 . S
Co47 O48 2.061 . S
Co47 O53 2.052 . S
Co47 O55 2.135 . S
O48 Co47 2.061 . S
O48 C51 1.235 . S
C49 O52 1.238 . S
C49 O53 1.241 . S
C50 O43 1.247 . S
C50 O44 1.261 . S
C51 O46 1.259 . S
C51 O48 1.235 . S
O52 Co42 2.021 . S
O52 C49 1.238 . S
O53 Co47 2.052 . S
O53 C49 1.241 . S
O54 Co42 2.137 . S
O54 C45 1.247 . S
O55 Co42 2.244 . S
O55 C45 1.272 . S
O55 Co47 2.135 . S
Co56 O57 2.216 . S
Co56 O58 2.091 . S
Co56 O60 2.004 . S
Co56 O66 2.021 . S
Co56 O68 2.137 . S
Co56 O69 2.244 . S
O57 Co56 2.216 . S
O57 C64 1.247 . S
O58 Co56 2.091 . S
O58 C64 1.261 . S
C59 O68 1.247 . S
C59 O69 1.272 . S
O60 Co56 2.004 . S
O60 C65 1.259 . S
Co61 O62 2.061 . S
Co61 O67 2.052 . S
Co61 O69 2.135 . S
O62 Co61 2.061 . S
O62 C65 1.235 . S
C63 O66 1.238 . S
C63 O67 1.241 . S
C64 O57 1.247 . S
C64 O58 1.261 . S
C65 O60 1.259 . S
C65 O62 1.235 . S
O66 Co56 2.021 . S
O66 C63 1.238 . S
O67 Co61 2.052 . S
O67 C63 1.241 . S
O68 Co56 2.137 . S
O68 C59 1.247 . S
O69 Co56 2.244 . S
O69 C59 1.272 . S
O69 Co61 2.135 . S
Co70 O71 2.216 . S
Co70 O72 2.091 . S
Co70 O74 2.004 . S
Co70 O80 2.021 . S
Co70 O82 2.137 . S
Co70 O83 2.244 . S
O71 Co70 2.216 . S
O71 C78 1.247 . S
O72 Co70 2.091 . S
O72 C78 1.261 . S
C73 O82 1.247 . S
C73 O83 1.272 . S
O74 Co70 2.004 . S
O74 C79 1.259 . S
Co75 O76 2.061 . S
Co75 O81 2.052 . S
Co75 O83 2.135 . S
O76 Co75 2.061 . S
O76 C79 1.235 . S
C77 O80 1.238 . S
C77 O81 1.241 . S
C78 O71 1.247 . S
C78 O72 1.261 . S
C79 O74 1.259 . S
C79 O76 1.235 . S
O80 Co70 2.021 . S
O80 C77 1.238 . S
O81 Co75 2.052 . S
O81 C77 1.241 . S
O82 Co70 2.137 . S
O82 C73 1.247 . S
O83 Co70 2.244 . S
O83 C73 1.272 . S
O83 Co75 2.135 . S
Co84 O85 2.216 . S
Co84 O86 2.091 . S
Co84 O88 2.004 . S
Co84 O94 2.021 . S
Co84 O96 2.137 . S
Co84 O97 2.244 . S
O85 Co84 2.216 . S
O85 C92 1.247 . S
O86 Co84 2.091 . S
O86 C92 1.261 . S
C87 O96 1.247 . S
C87 O97 1.272 . S
O88 Co84 2.004 . S
O88 C93 1.259 . S
Co89 O90 2.061 . S
Co89 O95 2.052 . S
Co89 O97 2.135 . S
O90 Co89 2.061 . S
O90 C93 1.235 . S
C91 O94 1.238 . S
C91 O95 1.241 . S
C92 O85 1.247 . S
C92 O86 1.261 . S
C93 O88 1.259 . S
C93 O90 1.235 . S
O94 Co84 2.021 . S
O94 C91 1.238 . S
O95 Co89 2.052 . S
O95 C91 1.241 . S
O96 Co84 2.137 . S
O96 C87 1.247 . S
O97 Co84 2.244 . S
O97 C87 1.272 . S
O97 Co89 2.135 . S
Co98 O99 2.216 . S
Co98 O100 2.091 . S
Co98 O102 2.004 . S
Co98 O108 2.021 . S
Co98 O110 2.137 . S
Co98 O111 2.244 . S
O99 Co98 2.216 . S
O99 C106 1.247 . S
O100 Co98 2.091 . S
O100 C106 1.261 . S
C101 O110 1.247 . S
C101 O111 1.272 . S
O102 Co98 2.004 . S
O102 C107 1.259 . S
Co103 O104 2.061 . S
Co103 O109 2.052 . S
Co103 O111 2.135 . S
O104 Co103 2.061 . S
O104 C107 1.235 . S
C105 O108 1.238 . S
C105 O109 1.241 . S
C106 O99 1.247 . S
C106 O100 1.261 . S
C107 O102 1.259 . S
C107 O104 1.235 . S
O108 Co98 2.021 . S
O108 C105 1.238 . S
O109 Co103 2.052 . S
O109 C105 1.241 . S
O110 Co98 2.137 . S
O110 C101 1.247 . S
O111 Co98 2.244 . S
O111 C101 1.272 . S
O111 Co103 2.135 . S
Co112 O113 2.216 . S
Co112 O114 2.091 . S
Co112 O116 2.004 . S
Co112 O122 2.021 . S
Co112 O124 2.137 . S
Co112 O125 2.244 . S
O113 Co112 2.216 . S
O113 C120 1.247 . S
O114 Co112 2.091 . S
O114 C120 1.261 . S
C115 O124 1.247 . S
C115 O125 1.272 . S
O116 Co112 2.004 . S
O116 C121 1.259 . S
Co117 O118 2.061 . S
Co117 O123 2.052 . S
Co117 O125 2.135 . S
O118 Co117 2.061 . S
O118 C121 1.235 . S
C119 O122 1.238 . S
C119 O123 1.241 . S
C120 O113 1.247 . S
C120 O114 1.261 . S
C121 O116 1.259 . S
C121 O118 1.235 . S
O122 Co112 2.021 . S
O122 C119 1.238 . S
O123 Co117 2.052 . S
O123 C119 1.241 . S
O124 Co112 2.137 . S
O124 C115 1.247 . S
O125 Co112 2.244 . S
O125 C115 1.272 . S
O125 Co117 2.135 . S
Co126 O127 2.216 . S
Co126 O128 2.091 . S
Co126 O130 2.004 . S
Co126 O136 2.021 . S
Co126 O138 2.137 . S
Co126 O139 2.244 . S
O127 Co126 2.216 . S
O127 C134 1.247 . S
O128 Co126 2.091 . S
O128 C134 1.261 . S
C129 O138 1.247 . S
C129 O139 1.272 . S
O130 Co126 2.004 . S
O130 C135 1.259 . S
Co131 O132 2.061 . S
Co131 O137 2.052 . S
Co131 O139 2.135 . S
O132 Co131 2.061 . S
O132 C135 1.235 . S
C133 O136 1.238 . S
C133 O137 1.241 . S
C134 O127 1.247 . S
C134 O128 1.261 . S
C135 O130 1.259 . S
C135 O132 1.235 . S
O136 Co126 2.021 . S
O136 C133 1.238 . S
O137 Co131 2.052 . S
O137 C133 1.241 . S
O138 Co126 2.137 . S
O138 C129 1.247 . S
O139 Co126 2.244 . S
O139 C129 1.272 . S
O139 Co131 2.135 . S
Co140 O141 2.216 . S
Co140 O142 2.091 . S
Co140 O144 2.004 . S
Co140 O150 2.021 . S
Co140 O152 2.137 . S
Co140 O153 2.244 . S
O141 Co140 2.216 . S
O141 C148 1.247 . S
O142 Co140 2.091 . S
O142 C148 1.261 . S
C143 O152 1.247 . S
C143 O153 1.272 . S
O144 Co140 2.004 . S
O144 C149 1.259 . S
Co145 O146 2.061 . S
Co145 O151 2.052 . S
Co145 O153 2.135 . S
O146 Co145 2.061 . S
O146 C149 1.235 . S
C147 O150 1.238 . S
C147 O151 1.241 . S
C148 O141 1.247 . S
C148 O142 1.261 . S
C149 O144 1.259 . S
C149 O146 1.235 . S
O150 Co140 2.021 . S
O150 C147 1.238 . S
O151 Co145 2.052 . S
O151 C147 1.241 . S
O152 Co140 2.137 . S
O152 C143 1.247 . S
O153 Co140 2.244 . S
O153 C143 1.272 . S
O153 Co145 2.135 . S
Co154 O155 2.216 . S
Co154 O156 2.091 . S
Co154 O158 2.004 . S
Co154 O164 2.021 . S
Co154 O166 2.137 . S
Co154 O167 2.244 . S
O155 Co154 2.216 . S
O155 C162 1.247 . S
O156 Co154 2.091 . S
O156 C162 1.261 . S
C157 O166 1.247 . S
C157 O167 1.272 . S
O158 Co154 2.004 . S
O158 C163 1.259 . S
Co159 O160 2.061 . S
Co159 O165 2.052 . S
Co159 O167 2.135 . S
O160 Co159 2.061 . S
O160 C163 1.235 . S
C161 O164 1.238 . S
C161 O165 1.241 . S
C162 O155 1.247 . S
C162 O156 1.261 . S
C163 O158 1.259 . S
C163 O160 1.235 . S
O164 Co154 2.021 . S
O164 C161 1.238 . S
O165 Co159 2.052 . S
O165 C161 1.241 . S
O166 Co154 2.137 . S
O166 C157 1.247 . S
O167 Co154 2.244 . S
O167 C157 1.272 . S
O167 Co159 2.135 . S
Co168 O169 2.216 . S
Co168 O170 2.091 . S
Co168 O172 2.004 . S
Co168 O178 2.021 . S
Co168 O180 2.137 . S
Co168 O181 2.244 . S
O169 Co168 2.216 . S
O169 C176 1.247 . S
O170 Co168 2.091 . S
O170 C176 1.261 . S
C171 O180 1.247 . S
C171 O181 1.272 . S
O172 Co168 2.004 . S
O172 C177 1.259 . S
Co173 O174 2.061 . S
Co173 O179 2.052 . S
Co173 O181 2.135 . S
O174 Co173 2.061 . S
O174 C177 1.235 . S
C175 O178 1.238 . S
C175 O179 1.241 . S
C176 O169 1.247 . S
C176 O170 1.261 . S
C177 O172 1.259 . S
C177 O174 1.235 . S
O178 Co168 2.021 . S
O178 C175 1.238 . S
O179 Co173 2.052 . S
O179 C175 1.241 . S
O180 Co168 2.137 . S
O180 C171 1.247 . S
O181 Co168 2.244 . S
O181 C171 1.272 . S
O181 Co173 2.135 . S
Co182 O183 2.216 . S
Co182 O184 2.091 . S
Co182 O186 2.004 . S
Co182 O192 2.021 . S
Co182 O194 2.137 . S
Co182 O195 2.244 . S
O183 Co182 2.216 . S
O183 C190 1.247 . S
O184 Co182 2.091 . S
O184 C190 1.261 . S
C185 O194 1.247 . S
C185 O195 1.272 . S
O186 Co182 2.004 . S
O186 C191 1.259 . S
Co187 O188 2.061 . S
Co187 O193 2.052 . S
Co187 O195 2.135 . S
O188 Co187 2.061 . S
O188 C191 1.235 . S
C189 O192 1.238 . S
C189 O193 1.241 . S
C190 O183 1.247 . S
C190 O184 1.261 . S
C191 O186 1.259 . S
C191 O188 1.235 . S
O192 Co182 2.021 . S
O192 C189 1.238 . S
O193 Co187 2.052 . S
O193 C189 1.241 . S
O194 Co182 2.137 . S
O194 C185 1.247 . S
O195 Co182 2.244 . S
O195 C185 1.272 . S
O195 Co187 2.135 . S
Co196 O197 2.216 . S
Co196 O198 2.091 . S
Co196 O200 2.004 . S
Co196 O206 2.021 . S
Co196 O208 2.137 . S
Co196 O209 2.244 . S
O197 Co196 2.216 . S
O197 C204 1.247 . S
O198 Co196 2.091 . S
O198 C204 1.261 . S
C199 O208 1.247 . S
C199 O209 1.272 . S
O200 Co196 2.004 . S
O200 C205 1.259 . S
Co201 O202 2.061 . S
Co201 O207 2.052 . S
Co201 O209 2.135 . S
O202 Co201 2.061 . S
O202 C205 1.235 . S
C203 O206 1.238 . S
C203 O207 1.241 . S
C204 O197 1.247 . S
C204 O198 1.261 . S
C205 O200 1.259 . S
C205 O202 1.235 . S
O206 Co196 2.021 . S
O206 C203 1.238 . S
O207 Co201 2.052 . S
O207 C203 1.241 . S
O208 Co196 2.137 . S
O208 C199 1.247 . S
O209 Co196 2.244 . S
O209 C199 1.272 . S
O209 Co201 2.135 . S
Co210 O211 2.216 . S
Co210 O212 2.091 . S
Co210 O214 2.004 . S
Co210 O220 2.021 . S
Co210 O222 2.137 . S
Co210 O223 2.244 . S
O211 Co210 2.216 . S
O211 C218 1.247 . S
O212 Co210 2.091 . S
O212 C218 1.261 . S
C213 O222 1.247 . S
C213 O223 1.272 . S
O214 Co210 2.004 . S
O214 C219 1.259 . S
Co215 O216 2.061 . S
Co215 O221 2.052 . S
Co215 O223 2.135 . S
O216 Co215 2.061 . S
O216 C219 1.235 . S
C217 O220 1.238 . S
C217 O221 1.241 . S
C218 O211 1.247 . S
C218 O212 1.261 . S
C219 O214 1.259 . S
C219 O216 1.235 . S
O220 Co210 2.021 . S
O220 C217 1.238 . S
O221 Co215 2.052 . S
O221 C217 1.241 . S
O222 Co210 2.137 . S
O222 C213 1.247 . S
O223 Co210 2.244 . S
O223 C213 1.272 . S
O223 Co215 2.135 . S
Co224 O225 2.216 . S
Co224 O226 2.091 . S
Co224 O228 2.004 . S
Co224 O234 2.021 . S
Co224 O236 2.137 . S
Co224 O237 2.244 . S
O225 Co224 2.216 . S
O225 C232 1.247 . S
O226 Co224 2.091 . S
O226 C232 1.261 . S
C227 O236 1.247 . S
C227 O237 1.272 . S
O228 Co224 2.004 . S
O228 C233 1.259 . S
Co229 O230 2.061 . S
Co229 O235 2.052 . S
Co229 O237 2.135 . S
O230 Co229 2.061 . S
O230 C233 1.235 . S
C231 O234 1.238 . S
C231 O235 1.241 . S
C232 O225 1.247 . S
C232 O226 1.261 . S
C233 O228 1.259 . S
C233 O230 1.235 . S
O234 Co224 2.021 . S
O234 C231 1.238 . S
O235 Co229 2.052 . S
O235 C231 1.241 . S
O236 Co224 2.137 . S
O236 C227 1.247 . S
O237 Co224 2.244 . S
O237 C227 1.272 . S
O237 Co229 2.135 . S
Co238 O239 2.216 . S
Co238 O240 2.091 . S
Co238 O242 2.004 . S
Co238 O248 2.021 . S
Co238 O250 2.137 . S
Co238 O251 2.244 . S
O239 Co238 2.216 . S
O239 C246 1.247 . S
O240 Co238 2.091 . S
O240 C246 1.261 . S
C241 O250 1.247 . S
C241 O251 1.272 . S
O242 Co238 2.004 . S
O242 C247 1.259 . S
Co243 O244 2.061 . S
Co243 O249 2.052 . S
Co243 O251 2.135 . S
O244 Co243 2.061 . S
O244 C247 1.235 . S
C245 O248 1.238 . S
C245 O249 1.241 . S
C246 O239 1.247 . S
C246 O240 1.261 . S
C247 O242 1.259 . S
C247 O244 1.235 . S
O248 Co238 2.021 . S
O248 C245 1.238 . S
O249 Co243 2.052 . S
O249 C245 1.241 . S
O250 Co238 2.137 . S
O250 C241 1.247 . S
O251 Co238 2.244 . S
O251 C241 1.272 . S
O251 Co243 2.135 . S
Co252 O253 2.216 . S
Co252 O254 2.091 . S
Co252 O256 2.004 . S
Co252 O262 2.021 . S
Co252 O264 2.137 . S
Co252 O265 2.244 . S
O253 Co252 2.216 . S
O253 C260 1.247 . S
O254 Co252 2.091 . S
O254 C260 1.261 . S
C255 O264 1.247 . S
C255 O265 1.272 . S
O256 Co252 2.004 . S
O256 C261 1.259 . S
Co257 O258 2.061 . S
Co257 O263 2.052 . S
Co257 O265 2.135 . S
O258 Co257 2.061 . S
O258 C261 1.235 . S
C259 O262 1.238 . S
C259 O263 1.241 . S
C260 O253 1.247 . S
C260 O254 1.261 . S
C261 O256 1.259 . S
C261 O258 1.235 . S
O262 Co252 2.021 . S
O262 C259 1.238 . S
O263 Co257 2.052 . S
O263 C259 1.241 . S
O264 Co252 2.137 . S
O264 C255 1.247 . S
O265 Co252 2.244 . S
O265 C255 1.272 . S
O265 Co257 2.135 . S
Co266 O267 2.216 . S
Co266 O268 2.091 . S
Co266 O270 2.004 . S
Co266 O276 2.021 . S
Co266 O278 2.137 . S
Co266 O279 2.244 . S
O267 Co266 2.216 . S
O267 C274 1.247 . S
O268 Co266 2.091 . S
O268 C274 1.261 . S
C269 O278 1.247 . S
C269 O279 1.272 . S
O270 Co266 2.004 . S
O270 C275 1.259 . S
Co271 O272 2.061 . S
Co271 O277 2.052 . S
Co271 O279 2.135 . S
O272 Co271 2.061 . S
O272 C275 1.235 . S
C273 O276 1.238 . S
C273 O277 1.241 . S
C274 O267 1.247 . S
C274 O268 1.261 . S
C275 O270 1.259 . S
C275 O272 1.235 . S
O276 Co266 2.021 . S
O276 C273 1.238 . S
O277 Co271 2.052 . S
O277 C273 1.241 . S
O278 Co266 2.137 . S
O278 C269 1.247 . S
O279 Co266 2.244 . S
O279 C269 1.272 . S
O279 Co271 2.135 . S
Co280 O281 2.216 . S
Co280 O282 2.091 . S
Co280 O284 2.004 . S
Co280 O290 2.021 . S
Co280 O292 2.137 . S
Co280 O293 2.244 . S
O281 Co280 2.216 . S
O281 C288 1.247 . S
O282 Co280 2.091 . S
O282 C288 1.261 . S
C283 O292 1.247 . S
C283 O293 1.272 . S
O284 Co280 2.004 . S
O284 C289 1.259 . S
Co285 O286 2.061 . S
Co285 O291 2.052 . S
Co285 O293 2.135 . S
O286 Co285 2.061 . S
O286 C289 1.235 . S
C287 O290 1.238 . S
C287 O291 1.241 . S
C288 O281 1.247 . S
C288 O282 1.261 . S
C289 O284 1.259 . S
C289 O286 1.235 . S
O290 Co280 2.021 . S
O290 C287 1.238 . S
O291 Co285 2.052 . S
O291 C287 1.241 . S
O292 Co280 2.137 . S
O292 C283 1.247 . S
O293 Co280 2.244 . S
O293 C283 1.272 . S
O293 Co285 2.135 . S
Co294 O295 2.216 . S
Co294 O296 2.091 . S
Co294 O298 2.004 . S
Co294 O304 2.021 . S
Co294 O306 2.137 . S
Co294 O307 2.244 . S
O295 Co294 2.216 . S
O295 C302 1.247 . S
O296 Co294 2.091 . S
O296 C302 1.261 . S
C297 O306 1.247 . S
C297 O307 1.272 . S
O298 Co294 2.004 . S
O298 C303 1.259 . S
Co299 O300 2.061 . S
Co299 O305 2.052 . S
Co299 O307 2.135 . S
O300 Co299 2.061 . S
O300 C303 1.235 . S
C301 O304 1.238 . S
C301 O305 1.241 . S
C302 O295 1.247 . S
C302 O296 1.261 . S
C303 O298 1.259 . S
C303 O300 1.235 . S
O304 Co294 2.021 . S
O304 C301 1.238 . S
O305 Co299 2.052 . S
O305 C301 1.241 . S
O306 Co294 2.137 . S
O306 C297 1.247 . S
O307 Co294 2.244 . S
O307 C297 1.272 . S
O307 Co299 2.135 . S
Co308 O309 2.216 . S
Co308 O310 2.091 . S
Co308 O312 2.004 . S
Co308 O318 2.021 . S
Co308 O320 2.137 . S
Co308 O321 2.244 . S
O309 Co308 2.216 . S
O309 C316 1.247 . S
O310 Co308 2.091 . S
O310 C316 1.261 . S
C311 O320 1.247 . S
C311 O321 1.272 . S
O312 Co308 2.004 . S
O312 C317 1.259 . S
Co313 O314 2.061 . S
Co313 O319 2.052 . S
Co313 O321 2.135 . S
O314 Co313 2.061 . S
O314 C317 1.235 . S
C315 O318 1.238 . S
C315 O319 1.241 . S
C316 O309 1.247 . S
C316 O310 1.261 . S
C317 O312 1.259 . S
C317 O314 1.235 . S
O318 Co308 2.021 . S
O318 C315 1.238 . S
O319 Co313 2.052 . S
O319 C315 1.241 . S
O320 Co308 2.137 . S
O320 C311 1.247 . S
O321 Co308 2.244 . S
O321 C311 1.272 . S
O321 Co313 2.135 . S
Co322 O323 2.216 . S
Co322 O324 2.091 . S
Co322 O326 2.004 . S
Co322 O332 2.021 . S
Co322 O334 2.137 . S
Co322 O335 2.244 . S
O323 Co322 2.216 . S
O323 C330 1.247 . S
O324 Co322 2.091 . S
O324 C330 1.261 . S
C325 O334 1.247 . S
C325 O335 1.272 . S
O326 Co322 2.004 . S
O326 C331 1.259 . S
Co327 O328 2.061 . S
Co327 O333 2.052 . S
Co327 O335 2.135 . S
O328 Co327 2.061 . S
O328 C331 1.235 . S
C329 O332 1.238 . S
C329 O333 1.241 . S
C330 O323 1.247 . S
C330 O324 1.261 . S
C331 O326 1.259 . S
C331 O328 1.235 . S
O332 Co322 2.021 . S
O332 C329 1.238 . S
O333 Co327 2.052 . S
O333 C329 1.241 . S
O334 Co322 2.137 . S
O334 C325 1.247 . S
O335 Co322 2.244 . S
O335 C325 1.272 . S
O335 Co327 2.135 . S
C336 C337 1.349 . S
C336 C338 1.327 . S
C336 H361 0.950 . S
C337 C336 1.349 . S
C337 C353 1.349 . S
C338 C336 1.327 . S
C338 C357 1.429 . S
C338 H362 0.950 . S
C339 C356 1.574 . S
C339 C358 1.368 . S
C339 H363 0.949 . S
H340 C344 0.949 . S
C341 C342 1.349 . S
C341 C343 1.327 . S
C341 H364 0.950 . S
C342 C341 1.349 . S
C342 C354 1.349 . S
C343 C341 1.327 . S
C343 C359 1.429 . S
C343 H365 0.950 . S
C344 H340 0.949 . S
C344 C352 1.574 . S
C344 C360 1.368 . S
H345 C353 0.950 . S
H346 C351 0.950 . S
H347 C352 0.949 . S
H348 C354 0.950 . S
H349 C355 0.950 . S
H350 C356 0.949 . S
C351 H346 0.950 . S
C351 C353 1.327 . S
C351 C357 1.429 . S
C352 C344 1.574 . S
C352 H347 0.949 . S
C352 C358 1.368 . S
C353 C337 1.349 . S
C353 H345 0.950 . S
C353 C351 1.327 . S
C354 C342 1.349 . S
C354 H348 0.950 . S
C354 C355 1.327 . S
C355 H349 0.950 . S
C355 C354 1.327 . S
C355 C359 1.429 . S
C356 C339 1.574 . S
C356 H350 0.949 . S
C356 C360 1.368 . S
C357 C338 1.429 . S
C357 C351 1.429 . S
C357 C358 1.523 . S
C358 C339 1.368 . S
C358 C352 1.368 . S
C358 C357 1.523 . S
C359 C343 1.429 . S
C359 C355 1.429 . S
C359 C360 1.523 . S
C360 C344 1.368 . S
C360 C356 1.368 . S
C360 C359 1.523 . S
H361 C336 0.950 . S
H362 C338 0.950 . S
H363 C339 0.949 . S
H364 C341 0.950 . S
H365 C343 0.950 . S
C366 C367 1.349 . S
C366 C368 1.327 . S
C366 H391 0.950 . S
C367 C366 1.349 . S
C367 C383 1.349 . S
C368 C366 1.327 . S
C368 C387 1.429 . S
C368 H392 0.950 . S
C369 C386 1.574 . S
C369 C388 1.368 . S
C369 H393 0.949 . S
H370 C374 0.949 . S
C371 C372 1.349 . S
C371 C373 1.327 . S
C371 H394 0.950 . S
C372 C371 1.349 . S
C372 C384 1.349 . S
C373 C371 1.327 . S
C373 C389 1.429 . S
C373 H395 0.950 . S
C374 H370 0.949 . S
C374 C382 1.574 . S
C374 C390 1.368 . S
H375 C383 0.950 . S
H376 C381 0.950 . S
H377 C382 0.949 . S
H378 C384 0.950 . S
H379 C385 0.950 . S
H380 C386 0.949 . S
C381 H376 0.950 . S
C381 C383 1.327 . S
C381 C387 1.429 . S
C382 C374 1.574 . S
C382 H377 0.949 . S
C382 C388 1.368 . S
C383 C367 1.349 . S
C383 H375 0.950 . S
C383 C381 1.327 . S
C384 C372 1.349 . S
C384 H378 0.950 . S
C384 C385 1.327 . S
C385 H379 0.950 . S
C385 C384 1.327 . S
C385 C389 1.429 . S
C386 C369 1.574 . S
C386 H380 0.949 . S
C386 C390 1.368 . S
C387 C368 1.429 . S
C387 C381 1.429 . S
C387 C388 1.523 . S
C388 C369 1.368 . S
C388 C382 1.368 . S
C388 C387 1.523 . S
C389 C373 1.429 . S
C389 C385 1.429 . S
C389 C390 1.523 . S
C390 C374 1.368 . S
C390 C386 1.368 . S
C390 C389 1.523 . S
H391 C366 0.950 . S
H392 C368 0.950 . S
H393 C369 0.949 . S
H394 C371 0.950 . S
H395 C373 0.950 . S
C396 C397 1.349 . S
C396 C398 1.327 . S
C396 H421 0.950 . S
C397 C396 1.349 . S
C397 C413 1.349 . S
C398 C396 1.327 . S
C398 C417 1.429 . S
C398 H422 0.950 . S
C399 C416 1.574 . S
C399 C418 1.368 . S
C399 H423 0.949 . S
H400 C404 0.949 . S
C401 C402 1.349 . S
C401 C403 1.327 . S
C401 H424 0.950 . S
C402 C401 1.349 . S
C402 C414 1.349 . S
C403 C401 1.327 . S
C403 C419 1.429 . S
C403 H425 0.950 . S
C404 H400 0.949 . S
C404 C412 1.574 . S
C404 C420 1.368 . S
H405 C413 0.950 . S
H406 C411 0.950 . S
H407 C412 0.949 . S
H408 C414 0.950 . S
H409 C415 0.950 . S
H410 C416 0.949 . S
C411 H406 0.950 . S
C411 C413 1.327 . S
C411 C417 1.429 . S
C412 C404 1.574 . S
C412 H407 0.949 . S
C412 C418 1.368 . S
C413 C397 1.349 . S
C413 H405 0.950 . S
C413 C411 1.327 . S
C414 C402 1.349 . S
C414 H408 0.950 . S
C414 C415 1.327 . S
C415 H409 0.950 . S
C415 C414 1.327 . S
C415 C419 1.429 . S
C416 C399 1.574 . S
C416 H410 0.949 . S
C416 C420 1.368 . S
C417 C398 1.429 . S
C417 C411 1.429 . S
C417 C418 1.523 . S
C418 C399 1.368 . S
C418 C412 1.368 . S
C418 C417 1.523 . S
C419 C403 1.429 . S
C419 C415 1.429 . S
C419 C420 1.523 . S
C420 C404 1.368 . S
C420 C416 1.368 . S
C420 C419 1.523 . S
H421 C396 0.950 . S
H422 C398 0.950 . S
H423 C399 0.949 . S
H424 C401 0.950 . S
H425 C403 0.950 . S
C426 C427 1.349 . S
C426 C428 1.327 . S
C426 H451 0.950 . S
C427 C426 1.349 . S
C427 C443 1.349 . S
C428 C426 1.327 . S
C428 C447 1.429 . S
C428 H452 0.950 . S
C429 C446 1.574 . S
C429 C448 1.368 . S
C429 H453 0.949 . S
H430 C434 0.949 . S
C431 C432 1.349 . S
C431 C433 1.327 . S
C431 H454 0.950 . S
C432 C431 1.349 . S
C432 C444 1.349 . S
C433 C431 1.327 . S
C433 C449 1.429 . S
C433 H455 0.950 . S
C434 H430 0.949 . S
C434 C442 1.574 . S
C434 C450 1.368 . S
H435 C443 0.950 . S
H436 C441 0.950 . S
H437 C442 0.949 . S
H438 C444 0.950 . S
H439 C445 0.950 . S
H440 C446 0.949 . S
C441 H436 0.950 . S
C441 C443 1.327 . S
C441 C447 1.429 . S
C442 C434 1.574 . S
C442 H437 0.949 . S
C442 C448 1.368 . S
C443 C427 1.349 . S
C443 H435 0.950 . S
C443 C441 1.327 . S
C444 C432 1.349 . S
C444 H438 0.950 . S
C444 C445 1.327 . S
C445 H439 0.950 . S
C445 C444 1.327 . S
C445 C449 1.429 . S
C446 C429 1.574 . S
C446 H440 0.949 . S
C446 C450 1.368 . S
C447 C428 1.429 . S
C447 C441 1.429 . S
C447 C448 1.523 . S
C448 C429 1.368 . S
C448 C442 1.368 . S
C448 C447 1.523 . S
C449 C433 1.429 . S
C449 C445 1.429 . S
C449 C450 1.523 . S
C450 C434 1.368 . S
C450 C446 1.368 . S
C450 C449 1.523 . S
H451 C426 0.950 . S
H452 C428 0.950 . S
H453 C429 0.949 . S
H454 C431 0.950 . S
H455 C433 0.950 . S
C456 C457 1.349 . S
C456 C458 1.327 . S
C456 H481 0.950 . S
C457 C456 1.349 . S
C457 C473 1.349 . S
C458 C456 1.327 . S
C458 C477 1.429 . S
C458 H482 0.950 . S
C459 C476 1.574 . S
C459 C478 1.368 . S
C459 H483 0.949 . S
H460 C464 0.949 . S
C461 C462 1.349 . S
C461 C463 1.327 . S
C461 H484 0.950 . S
C462 C461 1.349 . S
C462 C474 1.349 . S
C463 C461 1.327 . S
C463 C479 1.429 . S
C463 H485 0.950 . S
C464 H460 0.949 . S
C464 C472 1.574 . S
C464 C480 1.368 . S
H465 C473 0.950 . S
H466 C471 0.950 . S
H467 C472 0.949 . S
H468 C474 0.950 . S
H469 C475 0.950 . S
H470 C476 0.949 . S
C471 H466 0.950 . S
C471 C473 1.327 . S
C471 C477 1.429 . S
C472 C464 1.574 . S
C472 H467 0.949 . S
C472 C478 1.368 . S
C473 C457 1.349 . S
C473 H465 0.950 . S
C473 C471 1.327 . S
C474 C462 1.349 . S
C474 H468 0.950 . S
C474 C475 1.327 . S
C475 H469 0.950 . S
C475 C474 1.327 . S
C475 C479 1.429 . S
C476 C459 1.574 . S
C476 H470 0.949 . S
C476 C480 1.368 . S
C477 C458 1.429 . S
C477 C471 1.429 . S
C477 C478 1.523 . S
C478 C459 1.368 . S
C478 C472 1.368 . S
C478 C477 1.523 . S
C479 C463 1.429 . S
C479 C475 1.429 . S
C479 C480 1.523 . S
C480 C464 1.368 . S
C480 C476 1.368 . S
C480 C479 1.523 . S
H481 C456 0.950 . S
H482 C458 0.950 . S
H483 C459 0.949 . S
H484 C461 0.950 . S
H485 C463 0.950 . S
C486 C487 1.349 . S
C486 C488 1.327 . S
C486 H511 0.950 . S
C487 C486 1.349 . S
C487 C503 1.349 . S
C488 C486 1.327 . S
C488 C507 1.429 . S
C488 H512 0.950 . S
C489 C506 1.574 . S
C489 C508 1.368 . S
C489 H513 0.949 . S
H490 C494 0.949 . S
C491 C492 1.349 . S
C491 C493 1.327 . S
C491 H514 0.950 . S
C492 C491 1.349 . S
C492 C504 1.349 . S
C493 C491 1.327 . S
C493 C509 1.429 . S
C493 H515 0.950 . S
C494 H490 0.949 . S
C494 C502 1.574 . S
C494 C510 1.368 . S
H495 C503 0.950 . S
H496 C501 0.950 . S
H497 C502 0.949 . S
H498 C504 0.950 . S
H499 C505 0.950 . S
H500 C506 0.949 . S
C501 H496 0.950 . S
C501 C503 1.327 . S
C501 C507 1.429 . S
C502 C494 1.574 . S
C502 H497 0.949 . S
C502 C508 1.368 . S
C503 C487 1.349 . S
C503 H495 0.950 . S
C503 C501 1.327 . S
C504 C492 1.349 . S
C504 H498 0.950 . S
C504 C505 1.327 . S
C505 H499 0.950 . S
C505 C504 1.327 . S
C505 C509 1.429 . S
C506 C489 1.574 . S
C506 H500 0.949 . S
C506 C510 1.368 . S
C507 C488 1.429 . S
C507 C501 1.429 . S
C507 C508 1.523 . S
C508 C489 1.368 . S
C508 C502 1.368 . S
C508 C507 1.523 . S
C509 C493 1.429 . S
C509 C505 1.429 . S
C509 C510 1.523 . S
C510 C494 1.368 . S
C510 C506 1.368 . S
C510 C509 1.523 . S
H511 C486 0.950 . S
H512 C488 0.950 . S
H513 C489 0.949 . S
H514 C491 0.950 . S
H515 C493 0.950 . S
C516 C517 1.349 . S
C516 C518 1.327 . S
C516 H541 0.950 . S
C517 C516 1.349 . S
C517 C533 1.349 . S
C518 C516 1.327 . S
C518 C537 1.429 . S
C518 H542 0.950 . S
C519 C536 1.574 . S
C519 C538 1.368 . S
C519 H543 0.949 . S
H520 C524 0.949 . S
C521 C522 1.349 . S
C521 C523 1.327 . S
C521 H544 0.950 . S
C522 C521 1.349 . S
C522 C534 1.349 . S
C523 C521 1.327 . S
C523 C539 1.429 . S
C523 H545 0.950 . S
C524 H520 0.949 . S
C524 C532 1.574 . S
C524 C540 1.368 . S
H525 C533 0.950 . S
H526 C531 0.950 . S
H527 C532 0.949 . S
H528 C534 0.950 . S
H529 C535 0.950 . S
H530 C536 0.949 . S
C531 H526 0.950 . S
C531 C533 1.327 . S
C531 C537 1.429 . S
C532 C524 1.574 . S
C532 H527 0.949 . S
C532 C538 1.368 . S
C533 C517 1.349 . S
C533 H525 0.950 . S
C533 C531 1.327 . S
C534 C522 1.349 . S
C534 H528 0.950 . S
C534 C535 1.327 . S
C535 H529 0.950 . S
C535 C534 1.327 . S
C535 C539 1.429 . S
C536 C519 1.574 . S
C536 H530 0.949 . S
C536 C540 1.368 . S
C537 C518 1.429 . S
C537 C531 1.429 . S
C537 C538 1.523 . S
C538 C519 1.368 . S
C538 C532 1.368 . S
C538 C537 1.523 . S
C539 C523 1.429 . S
C539 C535 1.429 . S
C539 C540 1.523 . S
C540 C524 1.368 . S
C540 C536 1.368 . S
C540 C539 1.523 . S
H541 C516 0.950 . S
H542 C518 0.950 . S
H543 C519 0.949 . S
H544 C521 0.950 . S
H545 C523 0.950 . S
C546 C547 1.349 . S
C546 C548 1.327 . S
C546 H571 0.950 . S
C547 C546 1.349 . S
C547 C563 1.349 . S
C548 C546 1.327 . S
C548 C567 1.429 . S
C548 H572 0.950 . S
C549 C566 1.574 . S
C549 C568 1.368 . S
C549 H573 0.949 . S
H550 C554 0.949 . S
C551 C552 1.349 . S
C551 C553 1.327 . S
C551 H574 0.950 . S
C552 C551 1.349 . S
C552 C564 1.349 . S
C553 C551 1.327 . S
C553 C569 1.429 . S
C553 H575 0.950 . S
C554 H550 0.949 . S
C554 C562 1.574 . S
C554 C570 1.368 . S
H555 C563 0.950 . S
H556 C561 0.950 . S
H557 C562 0.949 . S
H558 C564 0.950 . S
H559 C565 0.950 . S
H560 C566 0.949 . S
C561 H556 0.950 . S
C561 C563 1.327 . S
C561 C567 1.429 . S
C562 C554 1.574 . S
C562 H557 0.949 . S
C562 C568 1.368 . S
C563 C547 1.349 . S
C563 H555 0.950 . S
C563 C561 1.327 . S
C564 C552 1.349 . S
C564 H558 0.950 . S
C564 C565 1.327 . S
C565 H559 0.950 . S
C565 C564 1.327 . S
C565 C569 1.429 . S
C566 C549 1.574 . S
C566 H560 0.949 . S
C566 C570 1.368 . S
C567 C548 1.429 . S
C567 C561 1.429 . S
C567 C568 1.523 . S
C568 C549 1.368 . S
C568 C562 1.368 . S
C568 C567 1.523 . S
C569 C553 1.429 . S
C569 C565 1.429 . S
C569 C570 1.523 . S
C570 C554 1.368 . S
C570 C566 1.368 . S
C570 C569 1.523 . S
H571 C546 0.950 . S
H572 C548 0.950 . S
H573 C549 0.949 . S
H574 C551 0.950 . S
H575 C553 0.950 . S
C576 C577 1.349 . S
C576 C578 1.327 . S
C576 H601 0.950 . S
C577 C576 1.349 . S
C577 C593 1.349 . S
C578 C576 1.327 . S
C578 C597 1.429 . S
C578 H602 0.950 . S
C579 C596 1.574 . S
C579 C598 1.368 . S
C579 H603 0.949 . S
H580 C584 0.949 . S
C581 C582 1.349 . S
C581 C583 1.327 . S
C581 H604 0.950 . S
C582 C581 1.349 . S
C582 C594 1.349 . S
C583 C581 1.327 . S
C583 C599 1.429 . S
C583 H605 0.950 . S
C584 H580 0.949 . S
C584 C592 1.574 . S
C584 C600 1.368 . S
H585 C593 0.950 . S
H586 C591 0.950 . S
H587 C592 0.949 . S
H588 C594 0.950 . S
H589 C595 0.950 . S
H590 C596 0.949 . S
C591 H586 0.950 . S
C591 C593 1.327 . S
C591 C597 1.429 . S
C592 C584 1.574 . S
C592 H587 0.949 . S
C592 C598 1.368 . S
C593 C577 1.349 . S
C593 H585 0.950 . S
C593 C591 1.327 . S
C594 C582 1.349 . S
C594 H588 0.950 . S
C594 C595 1.327 . S
C595 H589 0.950 . S
C595 C594 1.327 . S
C595 C599 1.429 . S
C596 C579 1.574 . S
C596 H590 0.949 . S
C596 C600 1.368 . S
C597 C578 1.429 . S
C597 C591 1.429 . S
C597 C598 1.523 . S
C598 C579 1.368 . S
C598 C592 1.368 . S
C598 C597 1.523 . S
C599 C583 1.429 . S
C599 C595 1.429 . S
C599 C600 1.523 . S
C600 C584 1.368 . S
C600 C596 1.368 . S
C600 C599 1.523 . S
H601 C576 0.950 . S
H602 C578 0.950 . S
H603 C579 0.949 . S
H604 C581 0.950 . S
H605 C583 0.950 . S
C606 C607 1.349 . S
C606 C608 1.327 . S
C606 H631 0.950 . S
C607 C606 1.349 . S
C607 C623 1.349 . S
C608 C606 1.327 . S
C608 C627 1.429 . S
C608 H632 0.950 . S
C609 C626 1.574 . S
C609 C628 1.368 . S
C609 H633 0.949 . S
H610 C614 0.949 . S
C611 C612 1.349 . S
C611 C613 1.327 . S
C611 H634 0.950 . S
C612 C611 1.349 . S
C612 C624 1.349 . S
C613 C611 1.327 . S
C613 C629 1.429 . S
C613 H635 0.950 . S
C614 H610 0.949 . S
C614 C622 1.574 . S
C614 C630 1.368 . S
H615 C623 0.950 . S
H616 C621 0.950 . S
H617 C622 0.949 . S
H618 C624 0.950 . S
H619 C625 0.950 . S
H620 C626 0.949 . S
C621 H616 0.950 . S
C621 C623 1.327 . S
C621 C627 1.429 . S
C622 C614 1.574 . S
C622 H617 0.949 . S
C622 C628 1.368 . S
C623 C607 1.349 . S
C623 H615 0.950 . S
C623 C621 1.327 . S
C624 C612 1.349 . S
C624 H618 0.950 . S
C624 C625 1.327 . S
C625 H619 0.950 . S
C625 C624 1.327 . S
C625 C629 1.429 . S
C626 C609 1.574 . S
C626 H620 0.949 . S
C626 C630 1.368 . S
C627 C608 1.429 . S
C627 C621 1.429 . S
C627 C628 1.523 . S
C628 C609 1.368 . S
C628 C622 1.368 . S
C628 C627 1.523 . S
C629 C613 1.429 . S
C629 C625 1.429 . S
C629 C630 1.523 . S
C630 C614 1.368 . S
C630 C626 1.368 . S
C630 C629 1.523 . S
H631 C606 0.950 . S
H632 C608 0.950 . S
H633 C609 0.949 . S
H634 C611 0.950 . S
H635 C613 0.950 . S
C636 C637 1.349 . S
C636 C638 1.327 . S
C636 H661 0.950 . S
C637 C636 1.349 . S
C637 C653 1.349 . S
C638 C636 1.327 . S
C638 C657 1.429 . S
C638 H662 0.950 . S
C639 C656 1.574 . S
C639 C658 1.368 . S
C639 H663 0.949 . S
H640 C644 0.949 . S
C641 C642 1.349 . S
C641 C643 1.327 . S
C641 H664 0.950 . S
C642 C641 1.349 . S
C642 C654 1.349 . S
C643 C641 1.327 . S
C643 C659 1.429 . S
C643 H665 0.950 . S
C644 H640 0.949 . S
C644 C652 1.574 . S
C644 C660 1.368 . S
H645 C653 0.950 . S
H646 C651 0.950 . S
H647 C652 0.949 . S
H648 C654 0.950 . S
H649 C655 0.950 . S
H650 C656 0.949 . S
C651 H646 0.950 . S
C651 C653 1.327 . S
C651 C657 1.429 . S
C652 C644 1.574 . S
C652 H647 0.949 . S
C652 C658 1.368 . S
C653 C637 1.349 . S
C653 H645 0.950 . S
C653 C651 1.327 . S
C654 C642 1.349 . S
C654 H648 0.950 . S
C654 C655 1.327 . S
C655 H649 0.950 . S
C655 C654 1.327 . S
C655 C659 1.429 . S
C656 C639 1.574 . S
C656 H650 0.949 . S
C656 C660 1.368 . S
C657 C638 1.429 . S
C657 C651 1.429 . S
C657 C658 1.523 . S
C658 C639 1.368 . S
C658 C652 1.368 . S
C658 C657 1.523 . S
C659 C643 1.429 . S
C659 C655 1.429 . S
C659 C660 1.523 . S
C660 C644 1.368 . S
C660 C656 1.368 . S
C660 C659 1.523 . S
H661 C636 0.950 . S
H662 C638 0.950 . S
H663 C639 0.949 . S
H664 C641 0.950 . S
H665 C643 0.950 . S
C666 C667 1.349 . S
C666 C668 1.327 . S
C666 H691 0.950 . S
C667 C666 1.349 . S
C667 C683 1.349 . S
C668 C666 1.327 . S
C668 C687 1.429 . S
C668 H692 0.950 . S
C669 C686 1.574 . S
C669 C688 1.368 . S
C669 H693 0.949 . S
H670 C674 0.949 . S
C671 C672 1.349 . S
C671 C673 1.327 . S
C671 H694 0.950 . S
C672 C671 1.349 . S
C672 C684 1.349 . S
C673 C671 1.327 . S
C673 C689 1.429 . S
C673 H695 0.950 . S
C674 H670 0.949 . S
C674 C682 1.574 . S
C674 C690 1.368 . S
H675 C683 0.950 . S
H676 C681 0.950 . S
H677 C682 0.949 . S
H678 C684 0.950 . S
H679 C685 0.950 . S
H680 C686 0.949 . S
C681 H676 0.950 . S
C681 C683 1.327 . S
C681 C687 1.429 . S
C682 C674 1.574 . S
C682 H677 0.949 . S
C682 C688 1.368 . S
C683 C667 1.349 . S
C683 H675 0.950 . S
C683 C681 1.327 . S
C684 C672 1.349 . S
C684 H678 0.950 . S
C684 C685 1.327 . S
C685 H679 0.950 . S
C685 C684 1.327 . S
C685 C689 1.429 . S
C686 C669 1.574 . S
C686 H680 0.949 . S
C686 C690 1.368 . S
C687 C668 1.429 . S
C687 C681 1.429 . S
C687 C688 1.523 . S
C688 C669 1.368 . S
C688 C682 1.368 . S
C688 C687 1.523 . S
C689 C673 1.429 . S
C689 C685 1.429 . S
C689 C690 1.523 . S
C690 C674 1.368 . S
C690 C686 1.368 . S
C690 C689 1.523 . S
H691 C666 0.950 . S
H692 C668 0.950 . S
H693 C669 0.949 . S
H694 C671 0.950 . S
H695 C673 0.950 . S
C696 C697 1.349 . S
C696 C698 1.327 1_565 S
C696 H721 0.950 . S
C697 C696 1.349 . S
C697 C713 1.349 . S
C698 C696 1.327 1_545 S
C698 C717 1.429 1_545 S
C698 H722 0.950 . S
C699 C716 1.574 . S
C699 C718 1.368 . S
C699 H723 0.949 1_545 S
H700 C704 0.949 . S
C701 C702 1.349 . S
C701 C703 1.327 . S
C701 H724 0.950 . S
C702 C701 1.349 . S
C702 C714 1.349 . S
C703 C701 1.327 . S
C703 C719 1.429 . S
C703 H725 0.950 . S
C704 H700 0.949 . S
C704 C712 1.574 . S
C704 C720 1.368 . S
H705 C713 0.950 . S
H706 C711 0.950 . S
H707 C712 0.949 . S
H708 C714 0.950 . S
H709 C715 0.950 . S
H710 C716 0.949 . S
C711 H706 0.950 . S
C711 C713 1.327 . S
C711 C717 1.429 . S
C712 C704 1.574 . S
C712 H707 0.949 . S
C712 C718 1.368 . S
C713 C697 1.349 . S
C713 H705 0.950 . S
C713 C711 1.327 . S
C714 C702 1.349 . S
C714 H708 0.950 . S
C714 C715 1.327 . S
C715 H709 0.950 . S
C715 C714 1.327 . S
C715 C719 1.429 . S
C716 C699 1.574 . S
C716 H710 0.949 . S
C716 C720 1.368 . S
C717 C698 1.429 1_565 S
C717 C711 1.429 . S
C717 C718 1.523 1_565 S
C718 C699 1.368 . S
C718 C712 1.368 . S
C718 C717 1.523 1_545 S
C719 C703 1.429 . S
C719 C715 1.429 . S
C719 C720 1.523 . S
C720 C704 1.368 . S
C720 C716 1.368 . S
C720 C719 1.523 . S
H721 C696 0.950 . S
H722 C698 0.950 . S
H723 C699 0.949 1_565 S
H724 C701 0.950 . S
H725 C703 0.950 . S
C726 C727 1.349 . S
C726 C728 1.327 . S
C726 H751 0.950 . S
C727 C726 1.349 . S
C727 C743 1.349 . S
C728 C726 1.327 . S
C728 C747 1.429 . S
C728 H752 0.950 . S
C729 C746 1.574 . S
C729 C748 1.368 . S
C729 H753 0.949 . S
H730 C734 0.949 . S
C731 C732 1.349 . S
C731 C733 1.327 . S
C731 H754 0.950 . S
C732 C731 1.349 . S
C732 C744 1.349 . S
C733 C731 1.327 . S
C733 C749 1.429 . S
C733 H755 0.950 . S
C734 H730 0.949 . S
C734 C742 1.574 . S
C734 C750 1.368 . S
H735 C743 0.950 . S
H736 C741 0.950 1_455 S
H737 C742 0.942 1_655 S
H738 C744 0.950 . S
H739 C745 0.950 . S
H740 C746 0.949 . S
C741 H736 0.950 1_655 S
C741 C743 1.327 . S
C741 C747 1.429 . S
C742 C734 1.574 . S
C742 H737 0.942 1_455 S
C742 C748 1.368 . S
C743 C727 1.349 . S
C743 H735 0.950 . S
C743 C741 1.327 . S
C744 C732 1.349 . S
C744 H738 0.950 . S
C744 C745 1.327 . S
C745 H739 0.950 . S
C745 C744 1.327 . S
C745 C749 1.429 . S
C746 C729 1.574 . S
C746 H740 0.949 . S
C746 C750 1.368 . S
C747 C728 1.429 . S
C747 C741 1.429 . S
C747 C748 1.523 1_655 S
C748 C729 1.368 . S
C748 C742 1.368 . S
C748 C747 1.523 1_455 S
C749 C733 1.429 . S
C749 C745 1.429 . S
C749 C750 1.523 . S
C750 C734 1.368 . S
C750 C746 1.368 . S
C750 C749 1.523 . S
H751 C726 0.950 . S
H752 C728 0.950 . S
H753 C729 0.949 . S
H754 C731 0.950 . S
H755 C733 0.950 . S
C756 C757 1.349 . S
C756 C758 1.327 . S
C756 H781 0.950 . S
C757 C756 1.349 . S
C757 C773 1.349 . S
C758 C756 1.327 . S
C758 C777 1.429 . S
C758 H782 0.950 . S
C759 C776 1.574 . S
C759 C778 1.368 . S
C759 H783 0.949 . S
H760 C764 0.949 . S
C761 C762 1.349 . S
C761 C763 1.327 . S
C761 H784 0.950 . S
C762 C761 1.349 . S
C762 C774 1.349 . S
C763 C761 1.327 . S
C763 C779 1.429 . S
C763 H785 0.950 . S
C764 H760 0.949 . S
C764 C772 1.574 . S
C764 C780 1.368 . S
H765 C773 0.950 . S
H766 C771 0.950 1_565 S
H767 C772 0.949 1_545 S
H768 C774 0.950 . S
H769 C775 0.950 . S
H770 C776 0.949 . S
C771 H766 0.950 1_545 S
C771 C773 1.327 . S
C771 C777 1.429 . S
C772 C764 1.574 . S
C772 H767 0.949 1_565 S
C772 C778 1.368 . S
C773 C757 1.349 . S
C773 H765 0.950 . S
C773 C771 1.327 . S
C774 C762 1.349 . S
C774 H768 0.950 . S
C774 C775 1.327 . S
C775 H769 0.950 . S
C775 C774 1.327 . S
C775 C779 1.429 . S
C776 C759 1.574 . S
C776 H770 0.949 . S
C776 C780 1.368 . S
C777 C758 1.429 . S
C777 C771 1.429 . S
C777 C778 1.523 1_545 S
C778 C759 1.368 . S
C778 C772 1.368 . S
C778 C777 1.523 1_565 S
C779 C763 1.429 . S
C779 C775 1.429 . S
C779 C780 1.523 . S
C780 C764 1.368 . S
C780 C776 1.368 . S
C780 C779 1.523 . S
H781 C756 0.950 . S
H782 C758 0.950 . S
H783 C759 0.949 . S
H784 C761 0.950 . S
H785 C763 0.950 . S
C786 C787 1.349 . S
C786 C788 1.327 . S
C786 H811 0.950 . S
C787 C786 1.349 . S
C787 C803 1.349 . S
C788 C786 1.327 . S
C788 C807 1.429 . S
C788 H812 0.950 . S
C789 C806 1.574 . S
C789 C808 1.368 . S
C789 H813 0.949 . S
H790 C794 0.949 . S
C791 C792 1.349 . S
C791 C793 1.327 . S
C791 H814 0.950 . S
C792 C791 1.349 . S
C792 C804 1.349 . S
C793 C791 1.327 . S
C793 C809 1.429 . S
C793 H815 0.950 . S
C794 H790 0.949 . S
C794 C802 1.574 . S
C794 C810 1.368 . S
H795 C803 0.950 . S
H796 C801 0.950 1_655 S
H797 C802 0.949 1_455 S
H798 C804 0.950 . S
H799 C805 0.950 . S
H800 C806 0.949 . S
C801 H796 0.950 1_455 S
C801 C803 1.327 . S
C801 C807 1.429 . S
C802 C794 1.574 . S
C802 H797 0.949 1_655 S
C802 C808 1.368 . S
C803 C787 1.349 . S
C803 H795 0.950 . S
C803 C801 1.327 . S
C804 C792 1.349 . S
C804 H798 0.950 . S
C804 C805 1.327 . S
C805 H799 0.950 . S
C805 C804 1.327 . S
C805 C809 1.429 . S
C806 C789 1.574 . S
C806 H800 0.949 . S
C806 C810 1.368 . S
C807 C788 1.429 . S
C807 C801 1.429 . S
C807 C808 1.523 1_455 S
C808 C789 1.368 . S
C808 C802 1.368 . S
C808 C807 1.523 1_655 S
C809 C793 1.429 . S
C809 C805 1.429 . S
C809 C810 1.523 . S
C810 C794 1.368 . S
C810 C806 1.368 . S
C810 C809 1.523 . S
H811 C786 0.950 . S
H812 C788 0.950 . S
H813 C789 0.949 . S
H814 C791 0.950 . S
H815 C793 0.950 . S
C816 C817 1.349 . S
C816 C818 1.327 . S
C816 H841 0.950 . S
C817 C816 1.349 . S
C817 C833 1.349 . S
C818 C816 1.327 . S
C818 C837 1.429 . S
C818 H842 0.950 . S
C819 C836 1.574 . S
C819 C838 1.368 . S
C819 H843 0.949 . S
H820 C824 0.939 1_545 S
C821 C822 1.349 . S
C821 C823 1.327 . S
C821 H844 0.950 . S
C822 C821 1.349 . S
C822 C834 1.349 . S
C823 C821 1.327 . S
C823 C839 1.429 . S
C823 H845 0.950 1_545 S
C824 H820 0.939 1_565 S
C824 C832 1.581 . S
C824 C840 1.373 . S
H825 C833 0.950 . S
H826 C831 0.950 . S
H827 C832 0.949 . S
H828 C834 0.950 . S
H829 C835 0.950 . S
H830 C836 0.949 . S
C831 H826 0.950 . S
C831 C833 1.327 . S
C831 C837 1.429 . S
C832 C824 1.581 . S
C832 H827 0.949 . S
C832 C838 1.368 . S
C833 C817 1.349 . S
C833 H825 0.950 . S
C833 C831 1.327 . S
C834 C822 1.349 . S
C834 H828 0.950 . S
C834 C835 1.327 . S
C835 H829 0.950 . S
C835 C834 1.327 . S
C835 C839 1.429 . S
C836 C819 1.574 . S
C836 H830 0.949 . S
C836 C840 1.368 . S
C837 C818 1.429 . S
C837 C831 1.429 . S
C837 C838 1.523 . S
C838 C819 1.368 . S
C838 C832 1.368 . S
C838 C837 1.523 . S
C839 C823 1.429 . S
C839 C835 1.429 . S
C839 C840 1.523 1_545 S
C840 C824 1.373 . S
C840 C836 1.368 . S
C840 C839 1.523 1_565 S
H841 C816 0.950 . S
H842 C818 0.950 . S
H843 C819 0.949 . S
H844 C821 0.950 . S
H845 C823 0.950 1_565 S
C846 C847 1.349 . S
C846 C848 1.327 . S
C846 H871 0.950 . S
C847 C846 1.349 . S
C847 C863 1.349 . S
C848 C846 1.327 . S
C848 C867 1.429 . S
C848 H872 0.950 . S
C849 C866 1.574 . S
C849 C868 1.368 . S
C849 H873 0.949 . S
H850 C854 0.949 1_455 S
C851 C852 1.349 . S
C851 C853 1.327 . S
C851 H874 0.950 . S
C852 C851 1.349 . S
C852 C864 1.349 . S
C853 C851 1.327 . S
C853 C869 1.429 . S
C853 H875 0.950 1_455 S
C854 H850 0.949 1_655 S
C854 C862 1.574 . S
C854 C870 1.368 . S
H855 C863 0.950 . S
H856 C861 0.950 . S
H857 C862 0.949 . S
H858 C864 0.950 . S
H859 C865 0.950 . S
H860 C866 0.949 . S
C861 H856 0.950 . S
C861 C863 1.327 . S
C861 C867 1.429 . S
C862 C854 1.574 . S
C862 H857 0.949 . S
C862 C868 1.368 . S
C863 C847 1.349 . S
C863 H855 0.950 . S
C863 C861 1.327 . S
C864 C852 1.349 . S
C864 H858 0.950 . S
C864 C865 1.327 . S
C865 H859 0.950 . S
C865 C864 1.327 . S
C865 C869 1.429 . S
C866 C849 1.574 . S
C866 H860 0.949 . S
C866 C870 1.368 . S
C867 C848 1.429 . S
C867 C861 1.429 . S
C867 C868 1.523 . S
C868 C849 1.368 . S
C868 C862 1.368 . S
C868 C867 1.523 . S
C869 C853 1.429 . S
C869 C865 1.429 . S
C869 C870 1.523 1_455 S
C870 C854 1.368 . S
C870 C866 1.368 . S
C870 C869 1.523 1_655 S
H871 C846 0.950 . S
H872 C848 0.950 . S
H873 C849 0.949 . S
H874 C851 0.950 . S
H875 C853 0.950 1_655 S
C876 C877 1.349 . S
C876 C878 1.327 . S
C876 H901 0.950 . S
C877 C876 1.349 . S
C877 C893 1.349 . S
C878 C876 1.327 . S
C878 C897 1.429 . S
C878 H902 0.950 . S
C879 C896 1.574 . S
C879 C898 1.368 . S
C879 H903 0.949 . S
H880 C884 0.949 . S
C881 C882 1.349 . S
C881 C883 1.327 . S
C881 H904 0.950 . S
C882 C881 1.349 . S
C882 C894 1.349 . S
C883 C881 1.327 . S
C883 C899 1.429 . S
C883 H905 0.950 . S
C884 H880 0.949 . S
C884 C892 1.574 1_545 S
C884 C900 1.368 . S
H885 C893 0.950 . S
H886 C891 0.950 1_545 S
H887 C892 0.949 . S
H888 C894 0.950 . S
H889 C895 0.950 . S
H890 C896 0.949 . S
C891 H886 0.950 1_565 S
C891 C893 1.327 . S
C891 C897 1.429 . S
C892 C884 1.574 1_565 S
C892 H887 0.949 . S
C892 C898 1.368 1_565 S
C893 C877 1.349 . S
C893 H885 0.950 . S
C893 C891 1.327 . S
C894 C882 1.349 . S
C894 H888 0.950 . S
C894 C895 1.327 . S
C895 H889 0.950 . S
C895 C894 1.327 . S
C895 C899 1.429 . S
C896 C879 1.574 . S
C896 H890 0.949 . S
C896 C900 1.368 . S
C897 C878 1.429 . S
C897 C891 1.429 . S
C897 C898 1.523 1_565 S
C898 C879 1.368 . S
C898 C892 1.368 1_545 S
C898 C897 1.523 1_545 S
C899 C883 1.429 . S
C899 C895 1.429 . S
C899 C900 1.523 . S
C900 C884 1.368 . S
C900 C896 1.368 . S
C900 C899 1.523 . S
H901 C876 0.950 . S
H902 C878 0.950 . S
H903 C879 0.949 . S
H904 C881 0.950 . S
H905 C883 0.950 . S
C906 C907 1.349 . S
C906 C908 1.327 . S
C906 H931 0.950 . S
C907 C906 1.349 . S
C907 C923 1.349 . S
C908 C906 1.327 . S
C908 C927 1.429 . S
C908 H932 0.950 . S
C909 C926 1.574 . S
C909 C928 1.368 . S
C909 H933 0.949 . S
H910 C914 0.949 . S
C911 C912 1.349 . S
C911 C913 1.327 . S
C911 H934 0.950 . S
C912 C911 1.349 . S
C912 C924 1.349 . S
C913 C911 1.327 . S
C913 C929 1.429 . S
C913 H935 0.950 . S
C914 H910 0.949 . S
C914 C922 1.574 . S
C914 C930 1.368 . S
H915 C923 0.950 . S
H916 C921 0.950 . S
H917 C922 0.949 . S
H918 C924 0.950 . S
H919 C925 0.950 1_455 S
H920 C926 0.949 1_655 S
C921 H916 0.950 . S
C921 C923 1.327 . S
C921 C927 1.429 . S
C922 C914 1.574 . S
C922 H917 0.949 . S
C922 C928 1.368 . S
C923 C907 1.349 . S
C923 H915 0.950 . S
C923 C921 1.327 . S
C924 C912 1.349 . S
C924 H918 0.950 . S
C924 C925 1.327 . S
C925 H919 0.950 1_655 S
C925 C924 1.327 . S
C925 C929 1.429 . S
C926 C909 1.574 . S
C926 H920 0.949 1_455 S
C926 C930 1.368 . S
C927 C908 1.429 . S
C927 C921 1.429 . S
C927 C928 1.523 . S
C928 C909 1.368 . S
C928 C922 1.368 . S
C928 C927 1.523 . S
C929 C913 1.429 . S
C929 C925 1.429 . S
C929 C930 1.523 1_655 S
C930 C914 1.368 . S
C930 C926 1.368 . S
C930 C929 1.523 1_455 S
H931 C906 0.950 . S
H932 C908 0.950 . S
H933 C909 0.949 . S
H934 C911 0.950 . S
H935 C913 0.950 . S
C936 C937 1.349 . S
C936 C938 1.327 . S
C936 H961 0.950 . S
C937 C936 1.349 . S
C937 C953 1.349 . S
C938 C936 1.327 . S
C938 C957 1.429 . S
C938 H962 0.950 . S
C939 C956 1.574 . S
C939 C958 1.368 . S
C939 H963 0.949 . S
H940 C944 0.949 . S
C941 C942 1.349 . S
C941 C943 1.327 . S
C941 H964 0.950 . S
C942 C941 1.349 . S
C942 C954 1.349 . S
C943 C941 1.327 . S
C943 C959 1.429 . S
C943 H965 0.950 . S
C944 H940 0.949 . S
C944 C952 1.574 . S
C944 C960 1.368 . S
H945 C953 0.950 . S
H946 C951 0.933 1_554 S
H947 C952 0.949 1_556 S
H948 C954 0.950 . S
H949 C955 0.950 . S
H950 C956 0.949 . S
C951 H946 0.933 1_556 S
C951 C953 1.327 . S
C951 C957 1.429 . S
C952 C944 1.574 . S
C952 H947 0.949 1_554 S
C952 C958 1.368 . S
C953 C937 1.349 . S
C953 H945 0.950 . S
C953 C951 1.327 . S
C954 C942 1.349 . S
C954 H948 0.950 . S
C954 C955 1.327 . S
C955 H949 0.950 . S
C955 C954 1.327 . S
C955 C959 1.429 . S
C956 C939 1.574 . S
C956 H950 0.949 . S
C956 C960 1.368 . S
C957 C938 1.429 . S
C957 C951 1.429 . S
C957 C958 1.523 1_556 S
C958 C939 1.368 . S
C958 C952 1.368 . S
C958 C957 1.523 1_554 S
C959 C943 1.429 . S
C959 C955 1.429 . S
C959 C960 1.523 . S
C960 C944 1.368 . S
C960 C956 1.368 . S
C960 C959 1.523 . S
H961 C936 0.950 . S
H962 C938 0.950 . S
H963 C939 0.949 . S
H964 C941 0.950 . S
H965 C943 0.950 . S
C966 C967 1.349 . S
C966 C968 1.327 . S
C966 H991 0.950 . S
C967 C966 1.349 . S
C967 C983 1.349 . S
C968 C966 1.327 . S
C968 C987 1.429 . S
C968 H992 0.950 1_554 S
C969 C986 1.574 . S
C969 C988 1.368 . S
C969 H993 0.949 1_556 S
H970 C974 0.949 . S
C971 C972 1.349 . S
C971 C973 1.327 . S
C971 H994 0.950 . S
C972 C971 1.349 . S
C972 C984 1.349 . S
C973 C971 1.327 . S
C973 C989 1.429 . S
C973 H995 0.950 . S
C974 H970 0.949 . S
C974 C982 1.574 . S
C974 C990 1.368 . S
H975 C983 0.950 . S
H976 C981 0.950 . S
H977 C982 0.949 . S
H978 C984 0.950 . S
H979 C985 0.950 . S
H980 C986 0.949 . S
C981 H976 0.950 . S
C981 C983 1.327 . S
C981 C987 1.429 . S
C982 C974 1.574 . S
C982 H977 0.949 . S
C982 C988 1.368 . S
C983 C967 1.349 . S
C983 H975 0.950 . S
C983 C981 1.327 . S
C984 C972 1.349 . S
C984 H978 0.950 . S
C984 C985 1.327 . S
C985 H979 0.950 . S
C985 C984 1.327 . S
C985 C989 1.429 . S
C986 C969 1.574 . S
C986 H980 0.949 . S
C986 C990 1.368 . S
C987 C968 1.429 . S
C987 C981 1.429 . S
C987 C988 1.523 1_554 S
C988 C969 1.368 . S
C988 C982 1.368 . S
C988 C987 1.523 1_556 S
C989 C973 1.429 . S
C989 C985 1.429 . S
C989 C990 1.523 . S
C990 C974 1.368 . S
C990 C986 1.368 . S
C990 C989 1.523 . S
H991 C966 0.950 . S
H992 C968 0.950 1_556 S
H993 C969 0.949 1_554 S
H994 C971 0.950 . S
H995 C973 0.950 . S
C996 C997 1.349 . S
C996 C998 1.327 . S
C996 H1021 0.950 . S
C997 C996 1.349 . S
C997 C1013 1.349 . S
C998 C996 1.327 . S
C998 C1017 1.429 . S
C998 H1022 0.950 . S
C999 C1016 1.574 . S
C999 C1018 1.368 . S
C999 H1023 0.949 . S
H1000 C1004 0.949 . S
C1001 C1002 1.349 . S
C1001 C1003 1.327 . S
C1001 H1024 0.950 . S
C1002 C1001 1.349 . S
C1002 C1014 1.349 . S
C1003 C1001 1.327 . S
C1003 C1019 1.429 . S
C1003 H1025 0.950 . S
C1004 H1000 0.949 . S
C1004 C1012 1.574 . S
C1004 C1020 1.368 . S
H1005 C1013 0.950 . S
H1006 C1011 0.950 1_554 S
H1007 C1012 0.949 1_556 S
H1008 C1014 0.950 . S
H1009 C1015 0.950 . S
H1010 C1016 0.949 . S
C1011 H1006 0.950 1_556 S
C1011 C1013 1.327 . S
C1011 C1017 1.429 . S
C1012 C1004 1.574 . S
C1012 H1007 0.949 1_554 S
C1012 C1018 1.368 . S
C1013 C997 1.349 . S
C1013 H1005 0.950 . S
C1013 C1011 1.327 . S
C1014 C1002 1.349 . S
C1014 H1008 0.950 . S
C1014 C1015 1.327 . S
C1015 H1009 0.950 . S
C1015 C1014 1.327 . S
C1015 C1019 1.429 . S
C1016 C999 1.574 . S
C1016 H1010 0.949 . S
C1016 C1020 1.368 . S
C1017 C998 1.429 . S
C1017 C1011 1.429 . S
C1017 C1018 1.523 1_556 S
C1018 C999 1.368 . S
C1018 C1012 1.368 . S
C1018 C1017 1.523 1_554 S
C1019 C1003 1.429 . S
C1019 C1015 1.429 . S
C1019 C1020 1.523 . S
C1020 C1004 1.368 . S
C1020 C1016 1.368 . S
C1020 C1019 1.523 . S
H1021 C996 0.950 . S
H1022 C998 0.950 . S
H1023 C999 0.949 . S
H1024 C1001 0.950 . S
H1025 C1003 0.950 . S
C1026 C1027 1.349 . S
C1026 C1028 1.327 . S
C1026 H1051 0.950 . S
C1027 C1026 1.349 . S
C1027 C1043 1.349 . S
C1028 C1026 1.327 . S
C1028 C1047 1.429 . S
C1028 H1052 0.950 . S
C1029 C1046 1.574 . S
C1029 C1048 1.368 . S
C1029 H1053 0.949 . S
H1030 C1034 0.949 . S
C1031 C1032 1.349 . S
C1031 C1033 1.327 . S
C1031 H1054 0.950 . S
C1032 C1031 1.349 . S
C1032 C1044 1.349 . S
C1033 C1031 1.327 . S
C1033 C1049 1.429 . S
C1033 H1055 0.950 . S
C1034 H1030 0.949 . S
C1034 C1042 1.574 . S
C1034 C1050 1.368 . S
H1035 C1043 0.950 . S
H1036 C1041 0.951 . S
H1037 C1042 0.949 1_554 S
H1038 C1044 0.950 . S
H1039 C1045 0.950 . S
H1040 C1046 0.949 . S
C1041 H1036 0.951 . S
C1041 C1043 1.326 1_556 S
C1041 C1047 1.428 1_556 S
C1042 C1034 1.574 . S
C1042 H1037 0.949 1_556 S
C1042 C1048 1.368 . S
C1043 C1027 1.349 . S
C1043 H1035 0.950 . S
C1043 C1041 1.326 1_554 S
C1044 C1032 1.349 . S
C1044 H1038 0.950 . S
C1044 C1045 1.327 . S
C1045 H1039 0.950 . S
C1045 C1044 1.327 . S
C1045 C1049 1.429 . S
C1046 C1029 1.574 . S
C1046 H1040 0.949 . S
C1046 C1050 1.368 . S
C1047 C1028 1.429 . S
C1047 C1041 1.428 1_554 S
C1047 C1048 1.523 1_554 S
C1048 C1029 1.368 . S
C1048 C1042 1.368 . S
C1048 C1047 1.523 1_556 S
C1049 C1033 1.429 . S
C1049 C1045 1.429 . S
C1049 C1050 1.523 . S
C1050 C1034 1.368 . S
C1050 C1046 1.368 . S
C1050 C1049 1.523 . S
H1051 C1026 0.950 . S
H1052 C1028 0.950 . S
H1053 C1029 0.949 . S
H1054 C1031 0.950 . S
H1055 C1033 0.950 . S
C1056 C1057 1.349 . S
C1056 C1058 1.327 . S
C1056 H1081 0.950 . S
C1057 C1056 1.349 . S
C1057 C1073 1.349 . S
C1058 C1056 1.327 . S
C1058 C1077 1.429 . S
C1058 H1082 0.950 . S
C1059 C1076 1.574 . S
C1059 C1078 1.368 . S
C1059 H1083 0.949 . S
H1060 C1064 0.949 . S
C1061 C1062 1.349 . S
C1061 C1063 1.327 . S
C1061 H1084 0.950 . S
C1062 C1061 1.349 . S
C1062 C1074 1.349 . S
C1063 C1061 1.327 . S
C1063 C1079 1.429 . S
C1063 H1085 0.950 . S
C1064 H1060 0.949 . S
C1064 C1072 1.574 . S
C1064 C1080 1.368 . S
H1065 C1073 0.950 . S
H1066 C1071 0.950 . S
H1067 C1072 0.949 . S
H1068 C1074 0.950 . S
H1069 C1075 0.950 . S
H1070 C1076 0.949 . S
C1071 H1066 0.950 . S
C1071 C1073 1.327 . S
C1071 C1077 1.429 . S
C1072 C1064 1.574 . S
C1072 H1067 0.949 . S
C1072 C1078 1.368 . S
C1073 C1057 1.349 . S
C1073 H1065 0.950 . S
C1073 C1071 1.327 . S
C1074 C1062 1.349 . S
C1074 H1068 0.950 . S
C1074 C1075 1.327 . S
C1075 H1069 0.950 . S
C1075 C1074 1.327 . S
C1075 C1079 1.429 . S
C1076 C1059 1.574 . S
C1076 H1070 0.949 . S
C1076 C1080 1.368 . S
C1077 C1058 1.429 . S
C1077 C1071 1.429 . S
C1077 C1078 1.523 . S
C1078 C1059 1.368 . S
C1078 C1072 1.368 . S
C1078 C1077 1.523 . S
C1079 C1063 1.429 . S
C1079 C1075 1.429 . S
C1079 C1080 1.523 . S
C1080 C1064 1.368 . S
C1080 C1076 1.368 . S
C1080 C1079 1.523 . S
H1081 C1056 0.950 . S
H1082 C1058 0.950 . S
H1083 C1059 0.949 . S
H1084 C1061 0.950 . S
H1085 C1063 0.950 . S
C1086 C1087 1.349 . S
C1086 C1088 1.327 . S
C1086 H1111 0.950 . S
C1087 C1086 1.349 . S
C1087 C1103 1.349 . S
C1088 C1086 1.327 . S
C1088 C1107 1.429 . S
C1088 H1112 0.950 . S
C1089 C1106 1.574 . S
C1089 C1108 1.368 . S
C1089 H1113 0.949 . S
H1090 C1094 0.949 . S
C1091 C1092 1.349 . S
C1091 C1093 1.327 . S
C1091 H1114 0.950 . S
C1092 C1091 1.349 . S
C1092 C1104 1.349 . S
C1093 C1091 1.327 . S
C1093 C1109 1.429 . S
C1093 H1115 0.950 . S
C1094 H1090 0.949 . S
C1094 C1102 1.574 . S
C1094 C1110 1.368 . S
H1095 C1103 0.950 . S
H1096 C1101 0.950 . S
H1097 C1102 0.949 . S
H1098 C1104 0.950 . S
H1099 C1105 0.950 . S
H1100 C1106 0.949 . S
C1101 H1096 0.950 . S
C1101 C1103 1.327 . S
C1101 C1107 1.429 . S
C1102 C1094 1.574 . S
C1102 H1097 0.949 . S
C1102 C1108 1.368 . S
C1103 C1087 1.349 . S
C1103 H1095 0.950 . S
C1103 C1101 1.327 . S
C1104 C1092 1.349 . S
C1104 H1098 0.950 . S
C1104 C1105 1.327 . S
C1105 H1099 0.950 . S
C1105 C1104 1.327 . S
C1105 C1109 1.429 . S
C1106 C1089 1.574 . S
C1106 H1100 0.949 . S
C1106 C1110 1.368 . S
C1107 C1088 1.429 . S
C1107 C1101 1.429 . S
C1107 C1108 1.523 . S
C1108 C1089 1.368 . S
C1108 C1102 1.368 . S
C1108 C1107 1.523 . S
C1109 C1093 1.429 . S
C1109 C1105 1.429 . S
C1109 C1110 1.523 . S
C1110 C1094 1.368 . S
C1110 C1106 1.368 . S
C1110 C1109 1.523 . S
H1111 C1086 0.950 . S
H1112 C1088 0.950 . S
H1113 C1089 0.949 . S
H1114 C1091 0.950 . S
H1115 C1093 0.950 . S
C1116 C1117 1.349 . S
C1116 C1118 1.327 . S
C1116 H1141 0.950 . S
C1117 C1116 1.349 . S
C1117 C1133 1.349 . S
C1118 C1116 1.327 . S
C1118 C1137 1.429 . S
C1118 H1142 0.950 . S
C1119 C1136 1.574 . S
C1119 C1138 1.368 . S
C1119 H1143 0.949 . S
H1120 C1124 0.949 . S
C1121 C1122 1.349 . S
C1121 C1123 1.327 . S
C1121 H1144 0.950 . S
C1122 C1121 1.349 . S
C1122 C1134 1.349 . S
C1123 C1121 1.327 . S
C1123 C1139 1.429 . S
C1123 H1145 0.950 . S
C1124 H1120 0.949 . S
C1124 C1132 1.574 . S
C1124 C1140 1.368 . S
H1125 C1133 0.950 . S
H1126 C1131 0.950 . S
H1127 C1132 0.949 . S
H1128 C1134 0.950 . S
H1129 C1135 0.950 . S
H1130 C1136 0.949 . S
C1131 H1126 0.950 . S
C1131 C1133 1.327 . S
C1131 C1137 1.429 . S
C1132 C1124 1.574 . S
C1132 H1127 0.949 . S
C1132 C1138 1.368 . S
C1133 C1117 1.349 . S
C1133 H1125 0.950 . S
C1133 C1131 1.327 . S
C1134 C1122 1.349 . S
C1134 H1128 0.950 . S
C1134 C1135 1.327 . S
C1135 H1129 0.950 . S
C1135 C1134 1.327 . S
C1135 C1139 1.429 . S
C1136 C1119 1.574 . S
C1136 H1130 0.949 . S
C1136 C1140 1.368 . S
C1137 C1118 1.429 . S
C1137 C1131 1.429 . S
C1137 C1138 1.523 . S
C1138 C1119 1.368 . S
C1138 C1132 1.368 . S
C1138 C1137 1.523 . S
C1139 C1123 1.429 . S
C1139 C1135 1.429 . S
C1139 C1140 1.523 . S
C1140 C1124 1.368 . S
C1140 C1136 1.368 . S
C1140 C1139 1.523 . S
H1141 C1116 0.950 . S
H1142 C1118 0.950 . S
H1143 C1119 0.949 . S
H1144 C1121 0.950 . S
H1145 C1123 0.950 . S
C1146 C1147 1.349 . S
C1146 C1148 1.327 . S
C1146 H1171 0.950 . S
C1147 C1146 1.349 . S
C1147 C1163 1.349 . S
C1148 C1146 1.327 . S
C1148 C1167 1.429 . S
C1148 H1172 0.950 . S
C1149 C1166 1.574 . S
C1149 C1168 1.368 . S
C1149 H1173 0.949 . S
H1150 C1154 0.949 . S
C1151 C1152 1.349 . S
C1151 C1153 1.327 . S
C1151 H1174 0.950 . S
C1152 C1151 1.349 . S
C1152 C1164 1.349 . S
C1153 C1151 1.327 . S
C1153 C1169 1.429 . S
C1153 H1175 0.950 . S
C1154 H1150 0.949 . S
C1154 C1162 1.574 . S
C1154 C1170 1.368 . S
H1155 C1163 0.950 . S
H1156 C1161 0.950 . S
H1157 C1162 0.949 . S
H1158 C1164 0.950 . S
H1159 C1165 0.950 . S
H1160 C1166 0.949 . S
C1161 H1156 0.950 . S
C1161 C1163 1.327 . S
C1161 C1167 1.429 . S
C1162 C1154 1.574 . S
C1162 H1157 0.949 . S
C1162 C1168 1.368 . S
C1163 C1147 1.349 . S
C1163 H1155 0.950 . S
C1163 C1161 1.327 . S
C1164 C1152 1.349 . S
C1164 H1158 0.950 . S
C1164 C1165 1.327 . S
C1165 H1159 0.950 . S
C1165 C1164 1.327 . S
C1165 C1169 1.429 . S
C1166 C1149 1.574 . S
C1166 H1160 0.949 . S
C1166 C1170 1.368 . S
C1167 C1148 1.429 . S
C1167 C1161 1.429 . S
C1167 C1168 1.523 . S
C1168 C1149 1.368 . S
C1168 C1162 1.368 . S
C1168 C1167 1.523 . S
C1169 C1153 1.429 . S
C1169 C1165 1.429 . S
C1169 C1170 1.523 . S
C1170 C1154 1.368 . S
C1170 C1166 1.368 . S
C1170 C1169 1.523 . S
H1171 C1146 0.950 . S
H1172 C1148 0.950 . S
H1173 C1149 0.949 . S
H1174 C1151 0.950 . S
H1175 C1153 0.950 . S
C1176 C1177 1.349 . S
C1176 C1178 1.327 . S
C1176 H1201 0.950 . S
C1177 C1176 1.349 . S
C1177 C1193 1.349 . S
C1178 C1176 1.327 . S
C1178 C1197 1.429 . S
C1178 H1202 0.950 . S
C1179 C1196 1.574 . S
C1179 C1198 1.368 . S
C1179 H1203 0.949 . S
H1180 C1184 0.949 . S
C1181 C1182 1.349 . S
C1181 C1183 1.327 . S
C1181 H1204 0.950 . S
C1182 C1181 1.349 . S
C1182 C1194 1.349 . S
C1183 C1181 1.327 . S
C1183 C1199 1.429 . S
C1183 H1205 0.950 . S
C1184 H1180 0.949 . S
C1184 C1192 1.574 . S
C1184 C1200 1.368 . S
H1185 C1193 0.950 . S
H1186 C1191 0.950 . S
H1187 C1192 0.949 . S
H1188 C1194 0.950 . S
H1189 C1195 0.950 . S
H1190 C1196 0.949 . S
C1191 H1186 0.950 . S
C1191 C1193 1.327 . S
C1191 C1197 1.429 . S
C1192 C1184 1.574 . S
C1192 H1187 0.949 . S
C1192 C1198 1.368 . S
C1193 C1177 1.349 . S
C1193 H1185 0.950 . S
C1193 C1191 1.327 . S
C1194 C1182 1.349 . S
C1194 H1188 0.950 . S
C1194 C1195 1.327 . S
C1195 H1189 0.950 . S
C1195 C1194 1.327 . S
C1195 C1199 1.429 . S
C1196 C1179 1.574 . S
C1196 H1190 0.949 . S
C1196 C1200 1.368 . S
C1197 C1178 1.429 . S
C1197 C1191 1.429 . S
C1197 C1198 1.523 . S
C1198 C1179 1.368 . S
C1198 C1192 1.368 . S
C1198 C1197 1.523 . S
C1199 C1183 1.429 . S
C1199 C1195 1.429 . S
C1199 C1200 1.523 . S
C1200 C1184 1.368 . S
C1200 C1196 1.368 . S
C1200 C1199 1.523 . S
H1201 C1176 0.950 . S
H1202 C1178 0.950 . S
H1203 C1179 0.949 . S
H1204 C1181 0.950 . S
H1205 C1183 0.950 . S
C1206 C1207 1.349 . S
C1206 C1208 1.327 . S
C1206 H1231 0.950 . S
C1207 C1206 1.349 . S
C1207 C1223 1.349 . S
C1208 C1206 1.327 . S
C1208 C1227 1.429 . S
C1208 H1232 0.950 . S
C1209 C1226 1.574 . S
C1209 C1228 1.368 . S
C1209 H1233 0.949 . S
H1210 C1214 0.949 . S
C1211 C1212 1.349 . S
C1211 C1213 1.327 . S
C1211 H1234 0.950 . S
C1212 C1211 1.349 . S
C1212 C1224 1.349 . S
C1213 C1211 1.327 . S
C1213 C1229 1.429 . S
C1213 H1235 0.950 . S
C1214 H1210 0.949 . S
C1214 C1222 1.574 . S
C1214 C1230 1.368 . S
H1215 C1223 0.950 . S
H1216 C1221 0.950 . S
H1217 C1222 0.949 . S
H1218 C1224 0.950 . S
H1219 C1225 0.950 . S
H1220 C1226 0.949 . S
C1221 H1216 0.950 . S
C1221 C1223 1.327 . S
C1221 C1227 1.429 . S
C1222 C1214 1.574 . S
C1222 H1217 0.949 . S
C1222 C1228 1.368 . S
C1223 C1207 1.349 . S
C1223 H1215 0.950 . S
C1223 C1221 1.327 . S
C1224 C1212 1.349 . S
C1224 H1218 0.950 . S
C1224 C1225 1.327 . S
C1225 H1219 0.950 . S
C1225 C1224 1.327 . S
C1225 C1229 1.429 . S
C1226 C1209 1.574 . S
C1226 H1220 0.949 . S
C1226 C1230 1.368 . S
C1227 C1208 1.429 . S
C1227 C1221 1.429 . S
C1227 C1228 1.523 . S
C1228 C1209 1.368 . S
C1228 C1222 1.368 . S
C1228 C1227 1.523 . S
C1229 C1213 1.429 . S
C1229 C1225 1.429 . S
C1229 C1230 1.523 . S
C1230 C1214 1.368 . S
C1230 C1226 1.368 . S
C1230 C1229 1.523 . S
H1231 C1206 0.950 . S
H1232 C1208 0.950 . S
H1233 C1209 0.949 . S
H1234 C1211 0.950 . S
H1235 C1213 0.950 . S
C1236 C1237 1.349 . S
C1236 C1238 1.327 . S
C1236 H1261 0.950 . S
C1237 C1236 1.349 . S
C1237 C1253 1.349 . S
C1238 C1236 1.327 . S
C1238 C1257 1.429 . S
C1238 H1262 0.950 . S
C1239 C1256 1.574 . S
C1239 C1258 1.368 . S
C1239 H1263 0.949 . S
H1240 C1244 0.949 . S
C1241 C1242 1.349 . S
C1241 C1243 1.327 . S
C1241 H1264 0.950 . S
C1242 C1241 1.349 . S
C1242 C1254 1.349 . S
C1243 C1241 1.327 . S
C1243 C1259 1.429 . S
C1243 H1265 0.950 . S
C1244 H1240 0.949 . S
C1244 C1252 1.574 . S
C1244 C1260 1.368 . S
H1245 C1253 0.950 . S
H1246 C1251 0.950 . S
H1247 C1252 0.949 . S
H1248 C1254 0.950 . S
H1249 C1255 0.950 . S
H1250 C1256 0.949 . S
C1251 H1246 0.950 . S
C1251 C1253 1.327 . S
C1251 C1257 1.429 . S
C1252 C1244 1.574 . S
C1252 H1247 0.949 . S
C1252 C1258 1.368 . S
C1253 C1237 1.349 . S
C1253 H1245 0.950 . S
C1253 C1251 1.327 . S
C1254 C1242 1.349 . S
C1254 H1248 0.950 . S
C1254 C1255 1.327 . S
C1255 H1249 0.950 . S
C1255 C1254 1.327 . S
C1255 C1259 1.429 . S
C1256 C1239 1.574 . S
C1256 H1250 0.949 . S
C1256 C1260 1.368 . S
C1257 C1238 1.429 . S
C1257 C1251 1.429 . S
C1257 C1258 1.523 . S
C1258 C1239 1.368 . S
C1258 C1252 1.368 . S
C1258 C1257 1.523 . S
C1259 C1243 1.429 . S
C1259 C1255 1.429 . S
C1259 C1260 1.523 . S
C1260 C1244 1.368 . S
C1260 C1256 1.368 . S
C1260 C1259 1.523 . S
H1261 C1236 0.950 . S
H1262 C1238 0.950 . S
H1263 C1239 0.949 . S
H1264 C1241 0.950 . S
H1265 C1243 0.950 . S
C1266 C1267 1.349 . S
C1266 C1268 1.327 . S
C1266 H1291 0.950 . S
C1267 C1266 1.349 . S
C1267 C1283 1.349 . S
C1268 C1266 1.327 . S
C1268 C1287 1.429 . S
C1268 H1292 0.950 . S
C1269 C1286 1.574 . S
C1269 C1288 1.368 . S
C1269 H1293 0.949 . S
H1270 C1274 0.949 . S
C1271 C1272 1.349 . S
C1271 C1273 1.327 . S
C1271 H1294 0.950 . S
C1272 C1271 1.349 . S
C1272 C1284 1.349 . S
C1273 C1271 1.327 . S
C1273 C1289 1.429 . S
C1273 H1295 0.950 . S
C1274 H1270 0.949 . S
C1274 C1282 1.574 . S
C1274 C1290 1.368 . S
H1275 C1283 0.950 . S
H1276 C1281 0.950 . S
H1277 C1282 0.949 . S
H1278 C1284 0.950 . S
H1279 C1285 0.950 . S
H1280 C1286 0.949 . S
C1281 H1276 0.950 . S
C1281 C1283 1.327 . S
C1281 C1287 1.429 . S
C1282 C1274 1.574 . S
C1282 H1277 0.949 . S
C1282 C1288 1.368 . S
C1283 C1267 1.349 . S
C1283 H1275 0.950 . S
C1283 C1281 1.327 . S
C1284 C1272 1.349 . S
C1284 H1278 0.950 . S
C1284 C1285 1.327 . S
C1285 H1279 0.950 . S
C1285 C1284 1.327 . S
C1285 C1289 1.429 . S
C1286 C1269 1.574 . S
C1286 H1280 0.949 . S
C1286 C1290 1.368 . S
C1287 C1268 1.429 . S
C1287 C1281 1.429 . S
C1287 C1288 1.523 . S
C1288 C1269 1.368 . S
C1288 C1282 1.368 . S
C1288 C1287 1.523 . S
C1289 C1273 1.429 . S
C1289 C1285 1.429 . S
C1289 C1290 1.523 . S
C1290 C1274 1.368 . S
C1290 C1286 1.368 . S
C1290 C1289 1.523 . S
H1291 C1266 0.950 . S
H1292 C1268 0.950 . S
H1293 C1269 0.949 . S
H1294 C1271 0.950 . S
H1295 C1273 0.950 . S
C1296 C1297 1.349 . S
C1296 C1298 1.327 . S
C1296 H1321 0.950 . S
C1297 C1296 1.349 . S
C1297 C1313 1.349 . S
C1298 C1296 1.327 . S
C1298 C1317 1.429 . S
C1298 H1322 0.950 . S
C1299 C1316 1.574 . S
C1299 C1318 1.368 . S
C1299 H1323 0.949 . S
H1300 C1304 0.949 . S
C1301 C1302 1.349 . S
C1301 C1303 1.327 . S
C1301 H1324 0.950 . S
C1302 C1301 1.349 . S
C1302 C1314 1.349 . S
C1303 C1301 1.327 . S
C1303 C1319 1.429 . S
C1303 H1325 0.950 . S
C1304 H1300 0.949 . S
C1304 C1312 1.574 . S
C1304 C1320 1.368 . S
H1305 C1313 0.950 . S
H1306 C1311 0.950 . S
H1307 C1312 0.949 . S
H1308 C1314 0.950 . S
H1309 C1315 0.950 . S
H1310 C1316 0.949 . S
C1311 H1306 0.950 . S
C1311 C1313 1.327 . S
C1311 C1317 1.429 . S
C1312 C1304 1.574 . S
C1312 H1307 0.949 . S
C1312 C1318 1.368 . S
C1313 C1297 1.349 . S
C1313 H1305 0.950 . S
C1313 C1311 1.327 . S
C1314 C1302 1.349 . S
C1314 H1308 0.950 . S
C1314 C1315 1.327 . S
C1315 H1309 0.950 . S
C1315 C1314 1.327 . S
C1315 C1319 1.429 . S
C1316 C1299 1.574 . S
C1316 H1310 0.949 . S
C1316 C1320 1.368 . S
C1317 C1298 1.429 . S
C1317 C1311 1.429 . S
C1317 C1318 1.523 . S
C1318 C1299 1.368 . S
C1318 C1312 1.368 . S
C1318 C1317 1.523 . S
C1319 C1303 1.429 . S
C1319 C1315 1.429 . S
C1319 C1320 1.523 . S
C1320 C1304 1.368 . S
C1320 C1316 1.368 . S
C1320 C1319 1.523 . S
H1321 C1296 0.950 . S
H1322 C1298 0.950 . S
H1323 C1299 0.949 . S
H1324 C1301 0.950 . S
H1325 C1303 0.950 . S
C1326 C1327 1.349 . S
C1326 C1328 1.327 . S
C1326 H1351 0.950 . S
C1327 C1326 1.349 . S
C1327 C1343 1.349 . S
C1328 C1326 1.327 . S
C1328 C1347 1.429 . S
C1328 H1352 0.950 . S
C1329 C1346 1.574 . S
C1329 C1348 1.368 . S
C1329 H1353 0.949 . S
H1330 C1334 0.949 . S
C1331 C1332 1.349 . S
C1331 C1333 1.327 . S
C1331 H1354 0.950 . S
C1332 C1331 1.349 . S
C1332 C1344 1.349 . S
C1333 C1331 1.327 . S
C1333 C1349 1.429 . S
C1333 H1355 0.950 . S
C1334 H1330 0.949 . S
C1334 C1342 1.574 . S
C1334 C1350 1.368 . S
H1335 C1343 0.950 . S
H1336 C1341 0.950 . S
H1337 C1342 0.949 . S
H1338 C1344 0.950 . S
H1339 C1345 0.950 . S
H1340 C1346 0.949 . S
C1341 H1336 0.950 . S
C1341 C1343 1.327 . S
C1341 C1347 1.429 . S
C1342 C1334 1.574 . S
C1342 H1337 0.949 . S
C1342 C1348 1.368 . S
C1343 C1327 1.349 . S
C1343 H1335 0.950 . S
C1343 C1341 1.327 . S
C1344 C1332 1.349 . S
C1344 H1338 0.950 . S
C1344 C1345 1.327 . S
C1345 H1339 0.950 . S
C1345 C1344 1.327 . S
C1345 C1349 1.429 . S
C1346 C1329 1.574 . S
C1346 H1340 0.949 . S
C1346 C1350 1.368 . S
C1347 C1328 1.429 . S
C1347 C1341 1.429 . S
C1347 C1348 1.523 . S
C1348 C1329 1.368 . S
C1348 C1342 1.368 . S
C1348 C1347 1.523 . S
C1349 C1333 1.429 . S
C1349 C1345 1.429 . S
C1349 C1350 1.523 . S
C1350 C1334 1.368 . S
C1350 C1346 1.368 . S
C1350 C1349 1.523 . S
H1351 C1326 0.950 . S
H1352 C1328 0.950 . S
H1353 C1329 0.949 . S
H1354 C1331 0.950 . S
H1355 C1333 0.950 . S
C1356 C1357 1.349 . S
C1356 C1358 1.327 . S
C1356 H1381 0.950 . S
C1357 C1356 1.349 . S
C1357 C1373 1.349 . S
C1358 C1356 1.327 . S
C1358 C1377 1.429 . S
C1358 H1382 0.950 . S
C1359 C1376 1.574 . S
C1359 C1378 1.368 . S
C1359 H1383 0.949 . S
H1360 C1364 0.949 . S
C1361 C1362 1.349 . S
C1361 C1363 1.327 . S
C1361 H1384 0.950 . S
C1362 C1361 1.349 . S
C1362 C1374 1.349 . S
C1363 C1361 1.327 . S
C1363 C1379 1.429 . S
C1363 H1385 0.950 . S
C1364 H1360 0.949 . S
C1364 C1372 1.574 . S
C1364 C1380 1.368 . S
H1365 C1373 0.950 . S
H1366 C1371 0.950 . S
H1367 C1372 0.949 . S
H1368 C1374 0.950 . S
H1369 C1375 0.950 . S
H1370 C1376 0.949 . S
C1371 H1366 0.950 . S
C1371 C1373 1.327 . S
C1371 C1377 1.429 . S
C1372 C1364 1.574 . S
C1372 H1367 0.949 . S
C1372 C1378 1.368 . S
C1373 C1357 1.349 . S
C1373 H1365 0.950 . S
C1373 C1371 1.327 . S
C1374 C1362 1.349 . S
C1374 H1368 0.950 . S
C1374 C1375 1.327 . S
C1375 H1369 0.950 . S
C1375 C1374 1.327 . S
C1375 C1379 1.429 . S
C1376 C1359 1.574 . S
C1376 H1370 0.949 . S
C1376 C1380 1.368 . S
C1377 C1358 1.429 . S
C1377 C1371 1.429 . S
C1377 C1378 1.523 . S
C1378 C1359 1.368 . S
C1378 C1372 1.368 . S
C1378 C1377 1.523 . S
C1379 C1363 1.429 . S
C1379 C1375 1.429 . S
C1379 C1380 1.523 . S
C1380 C1364 1.368 . S
C1380 C1376 1.368 . S
C1380 C1379 1.523 . S
H1381 C1356 0.950 . S
H1382 C1358 0.950 . S
H1383 C1359 0.949 . S
H1384 C1361 0.950 . S
H1385 C1363 0.950 . S
C1386 C1387 1.349 . S
C1386 C1388 1.327 . S
C1386 H1411 0.950 . S
C1387 C1386 1.349 . S
C1387 C1403 1.349 . S
C1388 C1386 1.327 . S
C1388 C1407 1.429 . S
C1388 H1412 0.950 . S
C1389 C1406 1.574 . S
C1389 C1408 1.368 . S
C1389 H1413 0.949 . S
H1390 C1394 0.949 . S
C1391 C1392 1.349 . S
C1391 C1393 1.327 . S
C1391 H1414 0.950 . S
C1392 C1391 1.349 . S
C1392 C1404 1.349 . S
C1393 C1391 1.327 . S
C1393 C1409 1.429 . S
C1393 H1415 0.950 . S
C1394 H1390 0.949 . S
C1394 C1402 1.574 . S
C1394 C1410 1.368 . S
H1395 C1403 0.950 . S
H1396 C1401 0.950 . S
H1397 C1402 0.949 . S
H1398 C1404 0.950 . S
H1399 C1405 0.950 . S
H1400 C1406 0.949 . S
C1401 H1396 0.950 . S
C1401 C1403 1.327 . S
C1401 C1407 1.429 . S
C1402 C1394 1.574 . S
C1402 H1397 0.949 . S
C1402 C1408 1.368 . S
C1403 C1387 1.349 . S
C1403 H1395 0.950 . S
C1403 C1401 1.327 . S
C1404 C1392 1.349 . S
C1404 H1398 0.950 . S
C1404 C1405 1.327 . S
C1405 H1399 0.950 . S
C1405 C1404 1.327 . S
C1405 C1409 1.429 . S
C1406 C1389 1.574 . S
C1406 H1400 0.949 . S
C1406 C1410 1.368 . S
C1407 C1388 1.429 . S
C1407 C1401 1.429 . S
C1407 C1408 1.523 . S
C1408 C1389 1.368 . S
C1408 C1402 1.368 . S
C1408 C1407 1.523 . S
C1409 C1393 1.429 . S
C1409 C1405 1.429 . S
C1409 C1410 1.523 . S
C1410 C1394 1.368 . S
C1410 C1406 1.368 . S
C1410 C1409 1.523 . S
H1411 C1386 0.950 . S
H1412 C1388 0.950 . S
H1413 C1389 0.949 . S
H1414 C1391 0.950 . S
H1415 C1393 0.950 . S
C1416 C1417 1.349 . S
C1416 C1418 1.327 . S
C1416 H1441 0.950 . S
C1417 C1416 1.349 . S
C1417 C1433 1.349 . S
C1418 C1416 1.327 . S
C1418 C1437 1.429 . S
C1418 H1442 0.950 . S
C1419 C1436 1.574 . S
C1419 C1438 1.368 . S
C1419 H1443 0.949 . S
H1420 C1424 0.949 . S
C1421 C1422 1.349 . S
C1421 C1423 1.327 . S
C1421 H1444 0.950 . S
C1422 C1421 1.349 . S
C1422 C1434 1.349 . S
C1423 C1421 1.327 . S
C1423 C1439 1.429 . S
C1423 H1445 0.950 . S
C1424 H1420 0.949 . S
C1424 C1432 1.574 . S
C1424 C1440 1.368 . S
H1425 C1433 0.950 . S
H1426 C1431 0.950 . S
H1427 C1432 0.949 . S
H1428 C1434 0.950 . S
H1429 C1435 0.950 . S
H1430 C1436 0.949 . S
C1431 H1426 0.950 . S
C1431 C1433 1.327 . S
C1431 C1437 1.429 . S
C1432 C1424 1.574 . S
C1432 H1427 0.949 . S
C1432 C1438 1.368 . S
C1433 C1417 1.349 . S
C1433 H1425 0.950 . S
C1433 C1431 1.327 . S
C1434 C1422 1.349 . S
C1434 H1428 0.950 . S
C1434 C1435 1.327 . S
C1435 H1429 0.950 . S
C1435 C1434 1.327 . S
C1435 C1439 1.429 . S
C1436 C1419 1.574 . S
C1436 H1430 0.949 . S
C1436 C1440 1.368 . S
C1437 C1418 1.429 . S
C1437 C1431 1.429 . S
C1437 C1438 1.523 . S
C1438 C1419 1.368 . S
C1438 C1432 1.368 . S
C1438 C1437 1.523 . S
C1439 C1423 1.429 . S
C1439 C1435 1.429 . S
C1439 C1440 1.523 . S
C1440 C1424 1.368 . S
C1440 C1436 1.368 . S
C1440 C1439 1.523 . S
H1441 C1416 0.950 . S
H1442 C1418 0.950 . S
H1443 C1419 0.949 . S
H1444 C1421 0.950 . S
H1445 C1423 0.950 . S
C1446 C1447 1.349 . S
C1446 C1448 1.327 . S
C1446 H1471 0.950 . S
C1447 C1446 1.349 . S
C1447 C1463 1.349 . S
C1448 C1446 1.327 . S
C1448 C1467 1.429 . S
C1448 H1472 0.950 . S
C1449 C1466 1.574 . S
C1449 C1468 1.368 . S
C1449 H1473 0.949 . S
H1450 C1454 0.949 . S
C1451 C1452 1.349 . S
C1451 C1453 1.327 . S
C1451 H1474 0.950 . S
C1452 C1451 1.349 . S
C1452 C1464 1.349 . S
C1453 C1451 1.327 . S
C1453 C1469 1.429 . S
C1453 H1475 0.950 . S
C1454 H1450 0.949 . S
C1454 C1462 1.574 . S
C1454 C1470 1.368 . S
H1455 C1463 0.950 . S
H1456 C1461 0.950 . S
H1457 C1462 0.949 . S
H1458 C1464 0.950 . S
H1459 C1465 0.950 . S
H1460 C1466 0.949 . S
C1461 H1456 0.950 . S
C1461 C1463 1.327 . S
C1461 C1467 1.429 . S
C1462 C1454 1.574 . S
C1462 H1457 0.949 . S
C1462 C1468 1.368 . S
C1463 C1447 1.349 . S
C1463 H1455 0.950 . S
C1463 C1461 1.327 . S
C1464 C1452 1.349 . S
C1464 H1458 0.950 . S
C1464 C1465 1.327 . S
C1465 H1459 0.950 . S
C1465 C1464 1.327 . S
C1465 C1469 1.429 . S
C1466 C1449 1.574 . S
C1466 H1460 0.949 . S
C1466 C1470 1.368 . S
C1467 C1448 1.429 . S
C1467 C1461 1.429 . S
C1467 C1468 1.523 . S
C1468 C1449 1.368 . S
C1468 C1462 1.368 . S
C1468 C1467 1.523 . S
C1469 C1453 1.429 . S
C1469 C1465 1.429 . S
C1469 C1470 1.523 . S
C1470 C1454 1.368 . S
C1470 C1466 1.368 . S
C1470 C1469 1.523 . S
H1471 C1446 0.950 . S
H1472 C1448 0.950 . S
H1473 C1449 0.949 . S
H1474 C1451 0.950 . S
H1475 C1453 0.950 . S
C1476 C1477 1.349 . S
C1476 C1478 1.327 . S
C1476 H1501 0.950 . S
C1477 C1476 1.349 . S
C1477 C1493 1.349 . S
C1478 C1476 1.327 . S
C1478 C1497 1.429 . S
C1478 H1502 0.950 . S
C1479 C1496 1.574 . S
C1479 C1498 1.368 . S
C1479 H1503 0.949 . S
H1480 C1484 0.949 . S
C1481 C1482 1.349 . S
C1481 C1483 1.327 . S
C1481 H1504 0.950 . S
C1482 C1481 1.349 . S
C1482 C1494 1.349 . S
C1483 C1481 1.327 . S
C1483 C1499 1.429 . S
C1483 H1505 0.950 . S
C1484 H1480 0.949 . S
C1484 C1492 1.574 . S
C1484 C1500 1.368 . S
H1485 C1493 0.950 . S
H1486 C1491 0.950 . S
H1487 C1492 0.949 . S
H1488 C1494 0.950 . S
H1489 C1495 0.950 . S
H1490 C1496 0.949 . S
C1491 H1486 0.950 . S
C1491 C1493 1.327 . S
C1491 C1497 1.429 . S
C1492 C1484 1.574 . S
C1492 H1487 0.949 . S
C1492 C1498 1.368 . S
C1493 C1477 1.349 . S
C1493 H1485 0.950 . S
C1493 C1491 1.327 . S
C1494 C1482 1.349 . S
C1494 H1488 0.950 . S
C1494 C1495 1.327 . S
C1495 H1489 0.950 . S
C1495 C1494 1.327 . S
C1495 C1499 1.429 . S
C1496 C1479 1.574 . S
C1496 H1490 0.949 . S
C1496 C1500 1.368 . S
C1497 C1478 1.429 . S
C1497 C1491 1.429 . S
C1497 C1498 1.523 . S
C1498 C1479 1.368 . S
C1498 C1492 1.368 . S
C1498 C1497 1.523 . S
C1499 C1483 1.429 . S
C1499 C1495 1.429 . S
C1499 C1500 1.523 . S
C1500 C1484 1.368 . S
C1500 C1496 1.368 . S
C1500 C1499 1.523 . S
H1501 C1476 0.950 . S
H1502 C1478 0.950 . S
H1503 C1479 0.949 . S
H1504 C1481 0.950 . S
H1505 C1483 0.950 . S
C1506 C1507 1.349 . S
C1506 C1508 1.327 . S
C1506 H1531 0.950 . S
C1507 C1506 1.349 . S
C1507 C1523 1.349 . S
C1508 C1506 1.327 . S
C1508 C1527 1.429 . S
C1508 H1532 0.950 . S
C1509 C1526 1.574 . S
C1509 C1528 1.368 . S
C1509 H1533 0.949 . S
H1510 C1514 0.949 . S
C1511 C1512 1.349 . S
C1511 C1513 1.327 . S
C1511 H1534 0.950 . S
C1512 C1511 1.349 . S
C1512 C1524 1.349 . S
C1513 C1511 1.327 . S
C1513 C1529 1.429 . S
C1513 H1535 0.950 . S
C1514 H1510 0.949 . S
C1514 C1522 1.574 . S
C1514 C1530 1.368 . S
H1515 C1523 0.950 . S
H1516 C1521 0.950 . S
H1517 C1522 0.949 . S
H1518 C1524 0.950 . S
H1519 C1525 0.950 . S
H1520 C1526 0.949 . S
C1521 H1516 0.950 . S
C1521 C1523 1.327 . S
C1521 C1527 1.429 . S
C1522 C1514 1.574 . S
C1522 H1517 0.949 . S
C1522 C1528 1.368 . S
C1523 C1507 1.349 . S
C1523 H1515 0.950 . S
C1523 C1521 1.327 . S
C1524 C1512 1.349 . S
C1524 H1518 0.950 . S
C1524 C1525 1.327 . S
C1525 H1519 0.950 . S
C1525 C1524 1.327 . S
C1525 C1529 1.429 . S
C1526 C1509 1.574 . S
C1526 H1520 0.949 . S
C1526 C1530 1.368 . S
C1527 C1508 1.429 . S
C1527 C1521 1.429 . S
C1527 C1528 1.523 . S
C1528 C1509 1.368 . S
C1528 C1522 1.368 . S
C1528 C1527 1.523 . S
C1529 C1513 1.429 . S
C1529 C1525 1.429 . S
C1529 C1530 1.523 . S
C1530 C1514 1.368 . S
C1530 C1526 1.368 . S
C1530 C1529 1.523 . S
H1531 C1506 0.950 . S
H1532 C1508 0.950 . S
H1533 C1509 0.949 . S
H1534 C1511 0.950 . S
H1535 C1513 0.950 . S
C1536 C1537 1.349 . S
C1536 C1538 1.327 . S
C1536 H1561 0.950 . S
C1537 C1536 1.349 . S
C1537 C1553 1.349 . S
C1538 C1536 1.327 . S
C1538 C1557 1.429 . S
C1538 H1562 0.950 . S
C1539 C1556 1.574 . S
C1539 C1558 1.368 . S
C1539 H1563 0.949 . S
H1540 C1544 0.949 . S
C1541 C1542 1.349 . S
C1541 C1543 1.327 . S
C1541 H1564 0.950 . S
C1542 C1541 1.349 . S
C1542 C1554 1.349 . S
C1543 C1541 1.327 . S
C1543 C1559 1.429 . S
C1543 H1565 0.950 . S
C1544 H1540 0.949 . S
C1544 C1552 1.574 . S
C1544 C1560 1.368 . S
H1545 C1553 0.950 . S
H1546 C1551 0.950 . S
H1547 C1552 0.949 . S
H1548 C1554 0.950 . S
H1549 C1555 0.950 . S
H1550 C1556 0.949 . S
C1551 H1546 0.950 . S
C1551 C1553 1.327 . S
C1551 C1557 1.429 . S
C1552 C1544 1.574 . S
C1552 H1547 0.949 . S
C1552 C1558 1.368 . S
C1553 C1537 1.349 . S
C1553 H1545 0.950 . S
C1553 C1551 1.327 . S
C1554 C1542 1.349 . S
C1554 H1548 0.950 . S
C1554 C1555 1.327 . S
C1555 H1549 0.950 . S
C1555 C1554 1.327 . S
C1555 C1559 1.429 . S
C1556 C1539 1.574 . S
C1556 H1550 0.949 . S
C1556 C1560 1.368 . S
C1557 C1538 1.429 . S
C1557 C1551 1.429 . S
C1557 C1558 1.523 . S
C1558 C1539 1.368 . S
C1558 C1552 1.368 . S
C1558 C1557 1.523 . S
C1559 C1543 1.429 . S
C1559 C1555 1.429 . S
C1559 C1560 1.523 . S
C1560 C1544 1.368 . S
C1560 C1556 1.368 . S
C1560 C1559 1.523 . S
H1561 C1536 0.950 . S
H1562 C1538 0.950 . S
H1563 C1539 0.949 . S
H1564 C1541 0.950 . S
H1565 C1543 0.950 . S
C1566 C1567 1.349 . S
C1566 C1568 1.327 . S
C1566 H1591 0.950 . S
C1567 C1566 1.349 . S
C1567 C1583 1.349 . S
C1568 C1566 1.327 . S
C1568 C1587 1.429 . S
C1568 H1592 0.950 . S
C1569 C1586 1.574 . S
C1569 C1588 1.368 . S
C1569 H1593 0.949 . S
H1570 C1574 0.949 . S
C1571 C1572 1.349 . S
C1571 C1573 1.327 . S
C1571 H1594 0.950 . S
C1572 C1571 1.349 . S
C1572 C1584 1.349 . S
C1573 C1571 1.327 . S
C1573 C1589 1.429 . S
C1573 H1595 0.950 . S
C1574 H1570 0.949 . S
C1574 C1582 1.574 . S
C1574 C1590 1.368 . S
H1575 C1583 0.950 . S
H1576 C1581 0.950 . S
H1577 C1582 0.949 . S
H1578 C1584 0.950 . S
H1579 C1585 0.950 . S
H1580 C1586 0.949 . S
C1581 H1576 0.950 . S
C1581 C1583 1.327 . S
C1581 C1587 1.429 . S
C1582 C1574 1.574 . S
C1582 H1577 0.949 . S
C1582 C1588 1.368 . S
C1583 C1567 1.349 . S
C1583 H1575 0.950 . S
C1583 C1581 1.327 . S
C1584 C1572 1.349 . S
C1584 H1578 0.950 . S
C1584 C1585 1.327 . S
C1585 H1579 0.950 . S
C1585 C1584 1.327 . S
C1585 C1589 1.429 . S
C1586 C1569 1.574 . S
C1586 H1580 0.949 . S
C1586 C1590 1.368 . S
C1587 C1568 1.429 . S
C1587 C1581 1.429 . S
C1587 C1588 1.523 . S
C1588 C1569 1.368 . S
C1588 C1582 1.368 . S
C1588 C1587 1.523 . S
C1589 C1573 1.429 . S
C1589 C1585 1.429 . S
C1589 C1590 1.523 . S
C1590 C1574 1.368 . S
C1590 C1586 1.368 . S
C1590 C1589 1.523 . S
H1591 C1566 0.950 . S
H1592 C1568 0.950 . S
H1593 C1569 0.949 . S
H1594 C1571 0.950 . S
H1595 C1573 0.950 . S
C1596 C1597 1.349 . S
C1596 C1598 1.327 . S
C1596 H1621 0.950 . S
C1597 C1596 1.349 . S
C1597 C1613 1.349 . S
C1598 C1596 1.327 . S
C1598 C1617 1.429 . S
C1598 H1622 0.950 . S
C1599 C1616 1.574 . S
C1599 C1618 1.368 . S
C1599 H1623 0.949 . S
H1600 C1604 0.949 . S
C1601 C1602 1.349 . S
C1601 C1603 1.327 . S
C1601 H1624 0.950 . S
C1602 C1601 1.349 . S
C1602 C1614 1.349 . S
C1603 C1601 1.327 . S
C1603 C1619 1.429 . S
C1603 H1625 0.950 . S
C1604 H1600 0.949 . S
C1604 C1612 1.574 . S
C1604 C1620 1.368 . S
H1605 C1613 0.950 . S
H1606 C1611 0.950 . S
H1607 C1612 0.949 . S
H1608 C1614 0.950 . S
H1609 C1615 0.950 . S
H1610 C1616 0.949 . S
C1611 H1606 0.950 . S
C1611 C1613 1.327 . S
C1611 C1617 1.429 . S
C1612 C1604 1.574 . S
C1612 H1607 0.949 . S
C1612 C1618 1.368 . S
C1613 C1597 1.349 . S
C1613 H1605 0.950 . S
C1613 C1611 1.327 . S
C1614 C1602 1.349 . S
C1614 H1608 0.950 . S
C1614 C1615 1.327 . S
C1615 H1609 0.950 . S
C1615 C1614 1.327 . S
C1615 C1619 1.429 . S
C1616 C1599 1.574 . S
C1616 H1610 0.949 . S
C1616 C1620 1.368 . S
C1617 C1598 1.429 . S
C1617 C1611 1.429 . S
C1617 C1618 1.523 . S
C1618 C1599 1.368 . S
C1618 C1612 1.368 . S
C1618 C1617 1.523 . S
C1619 C1603 1.429 . S
C1619 C1615 1.429 . S
C1619 C1620 1.523 . S
C1620 C1604 1.368 . S
C1620 C1616 1.368 . S
C1620 C1619 1.523 . S
H1621 C1596 0.950 . S
H1622 C1598 0.950 . S
H1623 C1599 0.949 . S
H1624 C1601 0.950 . S
H1625 C1603 0.950 . S
C1626 C1627 1.349 . S
C1626 C1628 1.327 . S
C1626 H1651 0.950 . S
C1627 C1626 1.349 . S
C1627 C1643 1.349 . S
C1628 C1626 1.327 . S
C1628 C1647 1.429 . S
C1628 H1652 0.950 . S
C1629 C1646 1.574 . S
C1629 C1648 1.368 . S
C1629 H1653 0.949 . S
H1630 C1634 0.949 . S
C1631 C1632 1.349 . S
C1631 C1633 1.327 . S
C1631 H1654 0.950 . S
C1632 C1631 1.349 . S
C1632 C1644 1.349 . S
C1633 C1631 1.327 . S
C1633 C1649 1.429 . S
C1633 H1655 0.950 . S
C1634 H1630 0.949 . S
C1634 C1642 1.574 . S
C1634 C1650 1.368 . S
H1635 C1643 0.950 . S
H1636 C1641 0.950 . S
H1637 C1642 0.949 . S
H1638 C1644 0.950 . S
H1639 C1645 0.950 . S
H1640 C1646 0.949 . S
C1641 H1636 0.950 . S
C1641 C1643 1.327 . S
C1641 C1647 1.429 . S
C1642 C1634 1.574 . S
C1642 H1637 0.949 . S
C1642 C1648 1.368 . S
C1643 C1627 1.349 . S
C1643 H1635 0.950 . S
C1643 C1641 1.327 . S
C1644 C1632 1.349 . S
C1644 H1638 0.950 . S
C1644 C1645 1.327 . S
C1645 H1639 0.950 . S
C1645 C1644 1.327 . S
C1645 C1649 1.429 . S
C1646 C1629 1.574 . S
C1646 H1640 0.949 . S
C1646 C1650 1.368 . S
C1647 C1628 1.429 . S
C1647 C1641 1.429 . S
C1647 C1648 1.523 . S
C1648 C1629 1.368 . S
C1648 C1642 1.368 . S
C1648 C1647 1.523 . S
C1649 C1633 1.429 . S
C1649 C1645 1.429 . S
C1649 C1650 1.523 . S
C1650 C1634 1.368 . S
C1650 C1646 1.368 . S
C1650 C1649 1.523 . S
H1651 C1626 0.950 . S
H1652 C1628 0.950 . S
H1653 C1629 0.949 . S
H1654 C1631 0.950 . S
H1655 C1633 0.950 . S
C1656 C1657 1.349 . S
C1656 C1658 1.327 . S
C1656 H1681 0.950 . S
C1657 C1656 1.349 . S
C1657 C1673 1.349 . S
C1658 C1656 1.327 . S
C1658 C1677 1.429 . S
C1658 H1682 0.950 . S
C1659 C1676 1.574 . S
C1659 C1678 1.368 . S
C1659 H1683 0.949 . S
H1660 C1664 0.949 . S
C1661 C1662 1.349 . S
C1661 C1663 1.327 . S
C1661 H1684 0.950 . S
C1662 C1661 1.349 . S
C1662 C1674 1.349 . S
C1663 C1661 1.327 . S
C1663 C1679 1.429 . S
C1663 H1685 0.950 . S
C1664 H1660 0.949 . S
C1664 C1672 1.574 . S
C1664 C1680 1.368 . S
H1665 C1673 0.950 . S
H1666 C1671 0.950 . S
H1667 C1672 0.949 . S
H1668 C1674 0.950 . S
H1669 C1675 0.950 . S
H1670 C1676 0.949 . S
C1671 H1666 0.950 . S
C1671 C1673 1.327 . S
C1671 C1677 1.429 . S
C1672 C1664 1.574 . S
C1672 H1667 0.949 . S
C1672 C1678 1.368 . S
C1673 C1657 1.349 . S
C1673 H1665 0.950 . S
C1673 C1671 1.327 . S
C1674 C1662 1.349 . S
C1674 H1668 0.950 . S
C1674 C1675 1.327 . S
C1675 H1669 0.950 . S
C1675 C1674 1.327 . S
C1675 C1679 1.429 . S
C1676 C1659 1.574 . S
C1676 H1670 0.949 . S
C1676 C1680 1.368 . S
C1677 C1658 1.429 . S
C1677 C1671 1.429 . S
C1677 C1678 1.523 . S
C1678 C1659 1.368 . S
C1678 C1672 1.368 . S
C1678 C1677 1.523 . S
C1679 C1663 1.429 . S
C1679 C1675 1.429 . S
C1679 C1680 1.523 . S
C1680 C1664 1.368 . S
C1680 C1676 1.368 . S
C1680 C1679 1.523 . S
H1681 C1656 0.950 . S
H1682 C1658 0.950 . S
H1683 C1659 0.949 . S
H1684 C1661 0.950 . S
H1685 C1663 0.950 . S
C1686 C1687 1.349 . S
C1686 C1688 1.327 . S
C1686 H1711 0.950 . S
C1687 C1686 1.349 . S
C1687 C1703 1.349 . S
C1688 C1686 1.327 . S
C1688 C1707 1.429 . S
C1688 H1712 0.950 . S
C1689 C1706 1.574 . S
C1689 C1708 1.368 . S
C1689 H1713 0.949 . S
H1690 C1694 0.949 . S
C1691 C1692 1.349 . S
C1691 C1693 1.327 . S
C1691 H1714 0.950 . S
C1692 C1691 1.349 . S
C1692 C1704 1.349 . S
C1693 C1691 1.327 . S
C1693 C1709 1.429 . S
C1693 H1715 0.950 . S
C1694 H1690 0.949 . S
C1694 C1702 1.574 . S
C1694 C1710 1.368 . S
H1695 C1703 0.950 . S
H1696 C1701 0.950 . S
H1697 C1702 0.949 . S
H1698 C1704 0.950 . S
H1699 C1705 0.950 . S
H1700 C1706 0.949 . S
C1701 H1696 0.950 . S
C1701 C1703 1.327 . S
C1701 C1707 1.429 . S
C1702 C1694 1.574 . S
C1702 H1697 0.949 . S
C1702 C1708 1.368 . S
C1703 C1687 1.349 . S
C1703 H1695 0.950 . S
C1703 C1701 1.327 . S
C1704 C1692 1.349 . S
C1704 H1698 0.950 . S
C1704 C1705 1.327 . S
C1705 H1699 0.950 . S
C1705 C1704 1.327 . S
C1705 C1709 1.429 . S
C1706 C1689 1.574 . S
C1706 H1700 0.949 . S
C1706 C1710 1.368 . S
C1707 C1688 1.429 . S
C1707 C1701 1.429 . S
C1707 C1708 1.523 . S
C1708 C1689 1.368 . S
C1708 C1702 1.368 . S
C1708 C1707 1.523 . S
C1709 C1693 1.429 . S
C1709 C1705 1.429 . S
C1709 C1710 1.523 . S
C1710 C1694 1.368 . S
C1710 C1706 1.368 . S
C1710 C1709 1.523 . S
H1711 C1686 0.950 . S
H1712 C1688 0.950 . S
H1713 C1689 0.949 . S
H1714 C1691 0.950 . S
H1715 C1693 0.950 . S
C1716 C1717 1.349 . S
C1716 C1718 1.327 . S
C1716 H1741 0.950 . S
C1717 C1716 1.349 . S
C1717 C1733 1.349 . S
C1718 C1716 1.327 . S
C1718 C1737 1.429 . S
C1718 H1742 0.950 . S
C1719 C1736 1.574 . S
C1719 C1738 1.368 . S
C1719 H1743 0.949 . S
H1720 C1724 0.949 . S
C1721 C1722 1.349 . S
C1721 C1723 1.327 . S
C1721 H1744 0.950 . S
C1722 C1721 1.349 . S
C1722 C1734 1.349 . S
C1723 C1721 1.327 . S
C1723 C1739 1.429 . S
C1723 H1745 0.950 . S
C1724 H1720 0.949 . S
C1724 C1732 1.574 . S
C1724 C1740 1.368 . S
H1725 C1733 0.950 . S
H1726 C1731 0.950 . S
H1727 C1732 0.949 . S
H1728 C1734 0.950 . S
H1729 C1735 0.950 . S
H1730 C1736 0.949 . S
C1731 H1726 0.950 . S
C1731 C1733 1.327 . S
C1731 C1737 1.429 . S
C1732 C1724 1.574 . S
C1732 H1727 0.949 . S
C1732 C1738 1.368 . S
C1733 C1717 1.349 . S
C1733 H1725 0.950 . S
C1733 C1731 1.327 . S
C1734 C1722 1.349 . S
C1734 H1728 0.950 . S
C1734 C1735 1.327 . S
C1735 H1729 0.950 . S
C1735 C1734 1.327 . S
C1735 C1739 1.429 . S
C1736 C1719 1.574 . S
C1736 H1730 0.949 . S
C1736 C1740 1.368 . S
C1737 C1718 1.429 . S
C1737 C1731 1.429 . S
C1737 C1738 1.523 . S
C1738 C1719 1.368 . S
C1738 C1732 1.368 . S
C1738 C1737 1.523 . S
C1739 C1723 1.429 . S
C1739 C1735 1.429 . S
C1739 C1740 1.523 . S
C1740 C1724 1.368 . S
C1740 C1736 1.368 . S
C1740 C1739 1.523 . S
H1741 C1716 0.950 . S
H1742 C1718 0.950 . S
H1743 C1719 0.949 . S
H1744 C1721 0.950 . S
H1745 C1723 0.950 . S
C1746 C1747 1.349 . S
C1746 C1748 1.327 . S
C1746 H1771 0.950 . S
C1747 C1746 1.349 . S
C1747 C1763 1.349 . S
C1748 C1746 1.327 . S
C1748 C1767 1.429 . S
C1748 H1772 0.950 . S
C1749 C1766 1.574 . S
C1749 C1768 1.368 . S
C1749 H1773 0.949 . S
H1750 C1754 0.949 . S
C1751 C1752 1.349 . S
C1751 C1753 1.327 . S
C1751 H1774 0.950 . S
C1752 C1751 1.349 . S
C1752 C1764 1.349 . S
C1753 C1751 1.327 . S
C1753 C1769 1.429 . S
C1753 H1775 0.950 . S
C1754 H1750 0.949 . S
C1754 C1762 1.574 . S
C1754 C1770 1.368 . S
H1755 C1763 0.950 . S
H1756 C1761 0.950 . S
H1757 C1762 0.949 . S
H1758 C1764 0.950 . S
H1759 C1765 0.950 . S
H1760 C1766 0.949 . S
C1761 H1756 0.950 . S
C1761 C1763 1.327 . S
C1761 C1767 1.429 . S
C1762 C1754 1.574 . S
C1762 H1757 0.949 . S
C1762 C1768 1.368 . S
C1763 C1747 1.349 . S
C1763 H1755 0.950 . S
C1763 C1761 1.327 . S
C1764 C1752 1.349 . S
C1764 H1758 0.950 . S
C1764 C1765 1.327 . S
C1765 H1759 0.950 . S
C1765 C1764 1.327 . S
C1765 C1769 1.429 . S
C1766 C1749 1.574 . S
C1766 H1760 0.949 . S
C1766 C1770 1.368 . S
C1767 C1748 1.429 . S
C1767 C1761 1.429 . S
C1767 C1768 1.523 . S
C1768 C1749 1.368 . S
C1768 C1762 1.368 . S
C1768 C1767 1.523 . S
C1769 C1753 1.429 . S
C1769 C1765 1.429 . S
C1769 C1770 1.523 . S
C1770 C1754 1.368 . S
C1770 C1766 1.368 . S
C1770 C1769 1.523 . S
H1771 C1746 0.950 . S
H1772 C1748 0.950 . S
H1773 C1749 0.949 . S
H1774 C1751 0.950 . S
H1775 C1753 0.950 . S
C337 C311 2.028 . S
C342 C8 1.968 . S
C367 C17 2.000 . S
C372 C232 1.946 . S
C397 C325 1.960 . S
C402 C36 1.899 . S
C427 C302 1.938 . S
C432 C50 1.984 . S
C457 C260 1.974 . S
C462 C64 1.928 . S
C487 C269 1.853 . S
C492 C73 1.979 . S
C517 C288 2.008 . S
C522 C87 1.903 . S
C547 C101 1.969 . S
C552 C241 1.854 . S
C577 C185 2.024 . S
C582 C115 1.915 . S
C607 C204 1.911 . S
C612 C134 1.966 . S
C637 C143 1.921 . S
C642 C213 2.033 . S
C667 C162 1.961 . S
C672 C176 1.907 . S
C697 C106 1.968 . S
C702 C199 2.028 . S
C727 C218 1.946 . S
C732 C59 2.000 . S
C757 C78 1.899 . S
C762 C171 1.960 . S
C787 C190 1.938 . S
C792 C92 1.984 . S
C817 C148 1.974 . S
C822 C22 1.928 . S
C847 C31 1.979 . S
C852 C157 1.853 . S
C877 C45 1.903 . S
C882 C120 2.008 . S
C907 C3 1.969 . S
C912 C129 1.854 . S
C937 C283 1.915 . S
C942 C297 2.024 . S
C967 C316 1.911 . S
C972 C246 1.966 . S
C997 C255 1.921 . S
C1002 C227 2.033 . S
C1027 C330 1.907 . S
C1032 C274 1.961 . S
C1057 C9 0.680 . S
C1062 C121 0.578 . S
C1087 C133 0.602 . S
C1092 C21 0.493 . S
C1117 C37 0.666 . S
C1122 C149 0.514 . S
C1147 C51 0.511 . S
C1152 C161 0.609 . S
C1177 C65 0.659 . S
C1182 C175 0.505 . S
C1207 C77 0.545 . S
C1212 C191 0.665 . S
C1237 C203 0.497 . S
C1242 C91 0.602 . S
C1267 C219 0.670 . S
C1272 C105 0.574 . S
C1297 C119 0.633 . S
C1302 C231 0.569 . S
C1327 C135 0.512 . S
C1332 C331 0.673 . S
C1357 C301 0.580 . S
C1362 C147 0.641 . S
C1387 C317 0.665 . S
C1392 C163 0.499 . S
C1417 C247 0.512 . S
C1422 C177 0.673 . S
C1447 C259 0.641 . S
C1452 C189 0.580 . S
C1477 C205 0.665 . S
C1482 C275 0.499 . S
C1507 C217 0.569 . S
C1512 C287 0.633 . S
C1537 C7 0.574 . S
C1542 C233 0.670 . S
C1567 C245 0.602 . S
C1572 C63 0.493 . S
C1597 C261 0.514 . S
C1602 C79 0.666 . S
C1627 C273 0.609 . S
C1632 C93 0.511 . S
C1657 C289 0.578 . S
C1662 C107 0.680 . S
C1687 C303 0.665 . S
C1692 C35 0.545 . S
C1717 C49 0.602 . S
C1722 C315 0.497 . S
C1747 C329 0.505 . S
C1752 C23 0.659 . S
