# Generated by pormake.
# Topology ukf, (4)-cn, num edge types: 1
# Building blocks:
#     Node 0, Type 0, BuildingBlock: QUQFOY_clean_sbu_3, # of connection points: 4
#     Node 1, Type 0, BuildingBlock: QUQFOY_clean_sbu_3, # of connection points: 4
#     Node 2, Type 0, BuildingBlock: QUQFOY_clean_sbu_3, # of connection points: 4
#     Node 3, Type 0, BuildingBlock: QUQFOY_clean_sbu_3, # of connection points: 4
#     Node 4, Type 0, BuildingBlock: QUQFOY_clean_sbu_3, # of connection points: 4
#     Node 5, Type 0, BuildingBlock: QUQFOY_clean_sbu_3, # of connection points: 4
#     Node 6, Type 0, BuildingBlock: QUQFOY_clean_sbu_3, # of connection points: 4
#     Node 7, Type 0, BuildingBlock: QUQFOY_clean_sbu_3, # of connection points: 4
#     Node 8, Type 0, BuildingBlock: QUQFOY_clean_sbu_3, # of connection points: 4
#     Node 9, Type 0, BuildingBlock: QUQFOY_clean_sbu_3, # of connection points: 4
#     Node 10, Type 0, BuildingBlock: QUQFOY_clean_sbu_3, # of connection points: 4
#     Node 11, Type 0, BuildingBlock: QUQFOY_clean_sbu_3, # of connection points: 4
#     Edge 12, Type (0, 0), BuildingBlock: UVAHIK_clean_linker_0, # of connection points: 2
#     Edge 13, Type (0, 0), BuildingBlock: UVAHIK_clean_linker_0, # of connection points: 2
#     Edge 14, Type (0, 0), BuildingBlock: UVAHIK_clean_linker_0, # of connection points: 2
#     Edge 15, Type (0, 0), BuildingBlock: UVAHIK_clean_linker_0, # of connection points: 2
#     Edge 16, Type (0, 0), BuildingBlock: UVAHIK_clean_linker_0, # of connection points: 2
#     Edge 17, Type (0, 0), BuildingBlock: UVAHIK_clean_linker_0, # of connection points: 2
#     Edge 18, Type (0, 0), BuildingBlock: UVAHIK_clean_linker_0, # of connection points: 2
#     Edge 19, Type (0, 0), BuildingBlock: UVAHIK_clean_linker_0, # of connection points: 2
#     Edge 20, Type (0, 0), BuildingBlock: UVAHIK_clean_linker_0, # of connection points: 2
#     Edge 21, Type (0, 0), BuildingBlock: UVAHIK_clean_linker_0, # of connection points: 2
#     Edge 22, Type (0, 0), BuildingBlock: UVAHIK_clean_linker_0, # of connection points: 2
#     Edge 23, Type (0, 0), BuildingBlock: UVAHIK_clean_linker_0, # of connection points: 2
#     Edge 24, Type (0, 0), BuildingBlock: UVAHIK_clean_linker_0, # of connection points: 2
#     Edge 25, Type (0, 0), BuildingBlock: UVAHIK_clean_linker_0, # of connection points: 2
#     Edge 26, Type (0, 0), BuildingBlock: UVAHIK_clean_linker_0, # of connection points: 2
#     Edge 27, Type (0, 0), BuildingBlock: UVAHIK_clean_linker_0, # of connection points: 2
#     Edge 28, Type (0, 0), BuildingBlock: UVAHIK_clean_linker_0, # of connection points: 2
#     Edge 29, Type (0, 0), BuildingBlock: UVAHIK_clean_linker_0, # of connection points: 2
#     Edge 30, Type (0, 0), BuildingBlock: UVAHIK_clean_linker_0, # of connection points: 2
#     Edge 31, Type (0, 0), BuildingBlock: UVAHIK_clean_linker_0, # of connection points: 2
#     Edge 32, Type (0, 0), BuildingBlock: UVAHIK_clean_linker_0, # of connection points: 2
#     Edge 33, Type (0, 0), BuildingBlock: UVAHIK_clean_linker_0, # of connection points: 2
#     Edge 34, Type (0, 0), BuildingBlock: UVAHIK_clean_linker_0, # of connection points: 2
#     Edge 35, Type (0, 0), BuildingBlock: UVAHIK_clean_linker_0, # of connection points: 2
# Relax obj value: 0.129
# Max RMSD: 0.097
# Mean RMSD: 0.097
data_MOF--net-ukf--node1-QUQFOY_clean_sbu_3--edge1-UVAHIK_clean_linker_0
_symmetry_space_group_name_H-M    P1
_symmetry_Int_Tables_number       1
_symmetry_cell_setting            triclinic
loop_
_symmetry_equiv_pos_as_xyz
'x, y, z'
_cell_length_a     40.848858
_cell_length_b     40.830933
_cell_length_c     87.194888
_cell_angle_alpha  89.998949
_cell_angle_beta   89.996039
_cell_angle_gamma 119.95658
loop_
_atom_site_label
_atom_site_type_symbol
_atom_site_fract_x
_atom_site_fract_y
_atom_site_fract_z
_atom_type_partial_charge
C0 C 0.30705 0.17508 0.02704 0.0
O1 O 0.32351 0.20354 0.01823 0.0
Cd2 Cd 0.38485 0.25615 0.02282 0.0
O3 O 0.32266 0.17356 0.03949 0.0
Cd4 Cd 0.38102 0.21384 0.05449 0.0
C5 C 0.43687 0.21105 0.02626 0.0
O6 O 0.38262 0.27286 0.04888 0.0
O7 O 0.4313 0.2778 0.06064 0.0
O8 O 0.3421 0.19174 0.07767 0.0
C9 C 0.41397 0.29385 0.05541 0.0
O10 O 0.42862 0.23247 0.01857 0.0
C11 C 0.36533 0.18591 0.08519 0.0
O12 O 0.42245 0.1989 0.03944 0.0
O13 O 0.39492 0.19146 0.07818 0.0
C14 C 0.12974 0.30779 0.35967 0.0
O15 O 0.11916 0.32392 0.35003 0.0
Cd16 Cd 0.12556 0.38473 0.354 0.0
O17 O 0.14486 0.32375 0.37235 0.0
Cd18 Cd 0.16193 0.38291 0.38641 0.0
C19 C 0.22191 0.43856 0.3584 0.0
O20 O 0.10443 0.38366 0.37973 0.0
O21 O 0.14717 0.43264 0.39172 0.0
O22 O 0.14445 0.34483 0.40985 0.0
C23 C 0.11421 0.41509 0.38611 0.0
O24 O 0.19269 0.42968 0.35031 0.0
C25 C 0.17309 0.36845 0.41746 0.0
O26 O 0.21903 0.42445 0.3717 0.0
O27 O 0.19711 0.398 0.41043 0.0
C28 C 0.81593 0.12892 0.69134 0.0
O29 O 0.78932 0.11942 0.68174 0.0
Cd30 Cd 0.73622 0.12782 0.68614 0.0
O31 O 0.81562 0.14388 0.70413 0.0
Cd32 Cd 0.77496 0.1622 0.71851 0.0
C33 C 0.78062 0.22408 0.69109 0.0
O34 O 0.71546 0.10635 0.71179 0.0
O35 O 0.71151 0.15032 0.72396 0.0
O36 O 0.78997 0.14032 0.74211 0.0
C37 C 0.69492 0.11728 0.71836 0.0
O38 O 0.75992 0.19533 0.68282 0.0
C39 C 0.80044 0.1707 0.74953 0.0
O40 O 0.79151 0.22033 0.70433 0.0
O41 O 0.80037 0.1977 0.74232 0.0
C42 C 0.68453 0.81881 0.02444 0.0
O43 O 0.66768 0.79196 0.01492 0.0
Cd44 Cd 0.60688 0.7381 0.01957 0.0
O45 O 0.66928 0.81843 0.03725 0.0
Cd46 Cd 0.61061 0.77717 0.05166 0.0
C47 C 0.5536 0.78103 0.02416 0.0
O48 O 0.60906 0.71825 0.04528 0.0
O49 O 0.56085 0.71325 0.05752 0.0
O50 O 0.64922 0.79785 0.07497 0.0
C51 C 0.57801 0.69727 0.05204 0.0
O52 O 0.56175 0.76018 0.01604 0.0
C53 C 0.62614 0.80373 0.08256 0.0
O54 O 0.56862 0.79271 0.03729 0.0
O55 O 0.59671 0.79868 0.07557 0.0
C56 C 0.85791 0.68562 0.35932 0.0
O57 O 0.86672 0.66816 0.34959 0.0
Cd58 Cd 0.85967 0.60723 0.35397 0.0
O59 O 0.84419 0.67093 0.37233 0.0
Cd60 Cd 0.82773 0.61244 0.38678 0.0
C61 C 0.76399 0.55502 0.36017 0.0
O62 O 0.88401 0.61012 0.37925 0.0
O63 O 0.84186 0.5622 0.39194 0.0
O64 O 0.8477 0.6516 0.40997 0.0
C65 C 0.87437 0.57902 0.3859 0.0
O66 O 0.79208 0.56236 0.3516 0.0
C67 C 0.81977 0.62833 0.418 0.0
O68 O 0.76881 0.57079 0.37322 0.0
O69 O 0.79497 0.59861 0.41131 0.0
C70 C 0.17201 0.86064 0.6939 0.0
O71 O 0.20048 0.87271 0.68509 0.0
Cd72 Cd 0.25388 0.86543 0.68992 0.0
O73 O 0.17085 0.84415 0.70649 0.0
Cd74 Cd 0.21218 0.82777 0.72171 0.0
C75 C 0.21064 0.76862 0.69399 0.0
O76 O 0.27041 0.88583 0.71586 0.0
O77 O 0.27666 0.84324 0.72795 0.0
O78 O 0.18918 0.84441 0.74469 0.0
C79 C 0.29196 0.87643 0.72256 0.0
O80 O 0.23157 0.79811 0.68613 0.0
C81 C 0.18472 0.81617 0.75247 0.0
O82 O 0.19834 0.7711 0.70711 0.0
O83 O 0.19128 0.79254 0.74567 0.0
C84 C 0.81825 0.6864 0.64019 0.0
O85 O 0.79178 0.6691 0.64984 0.0
Cd86 Cd 0.73758 0.60844 0.64534 0.0
O87 O 0.8174 0.6717 0.6272 0.0
Cd88 Cd 0.7755 0.61337 0.6127 0.0
C89 C 0.78052 0.55557 0.6396 0.0
O90 O 0.71686 0.61134 0.6199 0.0
O91 O 0.7113 0.56347 0.60722 0.0
O92 O 0.79501 0.65181 0.58929 0.0
C93 C 0.69553 0.58032 0.61319 0.0
O94 O 0.75964 0.56302 0.64805 0.0
C95 C 0.80092 0.62878 0.58166 0.0
O96 O 0.79185 0.57139 0.62658 0.0
O97 O 0.79631 0.5995 0.58865 0.0
C98 C 0.12889 0.82138 0.97474 0.0
O99 O 0.12006 0.7953 0.98456 0.0
Cd100 Cd 0.12617 0.74079 0.98023 0.0
O101 O 0.14226 0.81995 0.96171 0.0
Cd102 Cd 0.15801 0.77709 0.94753 0.0
C103 C 0.22154 0.78247 0.97411 0.0
O104 O 0.1012 0.71881 0.95502 0.0
O105 O 0.14326 0.7126 0.94244 0.0
O106 O 0.13866 0.7957 0.92398 0.0
C107 C 0.1106 0.69719 0.94834 0.0
O108 O 0.19347 0.76205 0.98273 0.0
C109 C 0.16727 0.80096 0.91628 0.0
O110 O 0.21673 0.79353 0.96108 0.0
O111 O 0.19201 0.79654 0.9233 0.0
C112 C 0.30556 0.12904 0.30749 0.0
O113 O 0.32217 0.1174 0.31639 0.0
Cd114 Cd 0.3836 0.12637 0.31179 0.0
O115 O 0.32099 0.1457 0.29494 0.0
Cd116 Cd 0.37927 0.16289 0.28003 0.0
C117 C 0.43514 0.22323 0.30769 0.0
O118 O 0.38151 0.10576 0.28597 0.0
O119 O 0.43027 0.15004 0.27445 0.0
O120 O 0.34024 0.14447 0.25684 0.0
C121 C 0.41302 0.11652 0.27951 0.0
O122 O 0.42721 0.19397 0.3156 0.0
C123 C 0.36363 0.17275 0.249 0.0
O124 O 0.42047 0.22029 0.29451 0.0
O125 O 0.39322 0.19728 0.25584 0.0
C126 C 0.17004 0.30598 0.6399 0.0
O127 O 0.19765 0.32277 0.64909 0.0
Cd128 Cd 0.25074 0.38405 0.64479 0.0
O129 O 0.16959 0.32126 0.6272 0.0
Cd130 Cd 0.21156 0.3796 0.61251 0.0
C131 C 0.20698 0.43672 0.63969 0.0
O132 O 0.27044 0.38161 0.61921 0.0
O133 O 0.27575 0.43023 0.60724 0.0
O134 O 0.192 0.34116 0.58912 0.0
C135 C 0.29165 0.41305 0.61278 0.0
O136 O 0.22793 0.42888 0.64791 0.0
C137 C 0.18712 0.36466 0.58134 0.0
O138 O 0.1954 0.42137 0.6266 0.0
O139 O 0.19184 0.39403 0.58828 0.0
C140 C 0.85963 0.17264 0.97245 0.0
O141 O 0.86963 0.20001 0.98171 0.0
Cd142 Cd 0.86042 0.25255 0.97746 0.0
O143 O 0.84425 0.17213 0.95965 0.0
Cd144 Cd 0.82728 0.21338 0.94474 0.0
C145 C 0.76421 0.20772 0.97157 0.0
O146 O 0.88254 0.27254 0.95196 0.0
O147 O 0.83953 0.27734 0.93947 0.0
O148 O 0.8501 0.19912 0.9212 0.0
C149 C 0.87211 0.29357 0.94548 0.0
O150 O 0.7925 0.22843 0.98006 0.0
C151 C 0.81995 0.18881 0.91363 0.0
O152 O 0.76872 0.19686 0.95844 0.0
O153 O 0.79267 0.1885 0.92076 0.0
C154 C 0.6819 0.86179 0.30526 0.0
O155 O 0.66459 0.87264 0.31417 0.0
Cd156 Cd 0.60371 0.86473 0.30916 0.0
O157 O 0.66738 0.84609 0.29246 0.0
Cd158 Cd 0.60993 0.82974 0.27712 0.0
C159 C 0.55142 0.7683 0.30407 0.0
O160 O 0.60825 0.88689 0.28346 0.0
O161 O 0.56024 0.84431 0.271 0.0
O162 O 0.64979 0.84814 0.25414 0.0
C163 C 0.57743 0.87728 0.27663 0.0
O164 O 0.55886 0.79712 0.31219 0.0
C165 C 0.6265 0.81997 0.24622 0.0
O166 O 0.56735 0.77199 0.29112 0.0
O167 O 0.59659 0.7956 0.25293 0.0
C168 C 0.12529 0.86391 0.99439 0.0
C169 C 0.12639 0.85509 0.9789 0.0
C170 C 0.12902 0.89864 0.99848 0.0
C171 C 0.17418 0.99463 0.98294 0.0
H172 H 0.14473 0.01547 0.02241 0.0
C173 C 0.255 0.14245 0.00787 0.0
C174 C 0.27083 0.14225 0.02217 0.0
C175 C 0.22432 0.10951 0.00213 0.0
C176 C 0.15281 0.01008 0.01127 0.0
H177 H 0.12821 0.87385 0.9555 0.0
H178 H 0.13342 0.934 0.9626 0.0
H179 H 0.11188 0.9511 0.01223 0.0
H180 H 0.26464 0.10827 0.04227 0.0
H181 H 0.21148 0.05071 0.03216 0.0
H182 H 0.21596 0.05308 0.98221 0.0
C183 C 0.13111 0.91474 0.97163 0.0
C184 C 0.13417 0.97325 0.00546 0.0
C185 C 0.12805 0.88025 0.96754 0.0
C186 C 0.25339 0.10928 0.03115 0.0
C187 C 0.22264 0.07635 0.02541 0.0
C188 C 0.19243 0.03138 0.98865 0.0
C189 C 0.13336 0.92508 0.98716 0.0
C190 C 0.1459 0.96479 0.99156 0.0
C191 C 0.20882 0.07579 0.0106 0.0
C192 C 0.1831 0.03916 0.00318 0.0
H193 H 0.1239 0.84502 0.00341 0.0
H194 H 0.13105 0.9056 0.01055 0.0
H195 H 0.18446 0.98936 0.97231 0.0
H196 H 0.2674 0.16754 0.00075 0.0
H197 H 0.21391 0.10993 0.99075 0.0
C198 C 0.12522 0.2609 0.34022 0.0
C199 C 0.12721 0.2715 0.35566 0.0
C200 C 0.12893 0.22985 0.3362 0.0
C201 C 0.17508 0.17968 0.35162 0.0
H202 H 0.14386 0.1279 0.31251 0.0
C203 C 0.25388 0.11045 0.32678 0.0
C204 C 0.26948 0.12599 0.31239 0.0
C205 C 0.22353 0.11326 0.33256 0.0
C206 C 0.15242 0.14179 0.32355 0.0
H207 H 0.1306 0.25574 0.3791 0.0
H208 H 0.13561 0.2006 0.37214 0.0
H209 H 0.11159 0.16 0.32273 0.0
H210 H 0.26314 0.15338 0.29218 0.0
H211 H 0.21051 0.15869 0.30238 0.0
H212 H 0.21668 0.16272 0.35223 0.0
C213 C 0.13271 0.2171 0.36307 0.0
C214 C 0.13414 0.16034 0.32938 0.0
C215 C 0.12974 0.24862 0.36708 0.0
C216 C 0.25206 0.1415 0.30338 0.0
C217 C 0.22163 0.14421 0.30916 0.0
C218 C 0.19295 0.1608 0.3459 0.0
C219 C 0.13409 0.20834 0.34756 0.0
C220 C 0.14648 0.18103 0.34315 0.0
C221 C 0.20812 0.13152 0.32406 0.0
C222 C 0.18294 0.14309 0.33151 0.0
H223 H 0.12317 0.27794 0.33116 0.0
H224 H 0.13027 0.2244 0.32414 0.0
H225 H 0.18586 0.19562 0.36214 0.0
H226 H 0.26626 0.0978 0.33393 0.0
H227 H 0.21334 0.10285 0.34401 0.0
C228 C 0.87412 0.12685 0.69848 0.0
C229 C 0.84913 0.12559 0.68714 0.0
C230 C 0.90844 0.12959 0.69437 0.0
C231 C 0.96713 0.13326 0.66049 0.0
H232 H 0.04676 0.2142 0.68414 0.0
C233 C 0.10425 0.25261 0.63543 0.0
C234 C 0.13693 0.26973 0.64458 0.0
C235 C 0.07106 0.22185 0.64098 0.0
C236 C 0.02512 0.19091 0.67758 0.0
H237 H 0.83904 0.12337 0.66265 0.0
H238 H 0.89941 0.13006 0.65546 0.0
H239 H 0.98296 0.18266 0.69387 0.0
H240 H 0.16144 0.26565 0.6661 0.0
H241 H 0.10343 0.21208 0.67576 0.0
H242 H 0.00956 0.14414 0.6436 0.0
C243 C 0.89244 0.12793 0.66753 0.0
C244 C 0.9883 0.17261 0.6832 0.0
C245 C 0.85784 0.12445 0.67165 0.0
C246 C 0.13658 0.25353 0.65885 0.0
C247 C 0.1034 0.2228 0.6644 0.0
C248 C 0.00404 0.15195 0.65477 0.0
C249 C 0.91881 0.13202 0.67884 0.0
C250 C 0.95854 0.14463 0.67445 0.0
C251 C 0.06995 0.20765 0.65577 0.0
C252 C 0.03308 0.18192 0.66302 0.0
H253 H 0.86776 0.12702 0.71053 0.0
H254 H 0.92759 0.13162 0.70339 0.0
H255 H 0.94505 0.11121 0.65362 0.0
H256 H 0.10366 0.26416 0.62432 0.0
H257 H 0.04565 0.21096 0.63411 0.0
C258 C 0.74444 0.87744 0.03146 0.0
C259 C 0.72076 0.85223 0.02017 0.0
C260 C 0.77582 0.91182 0.02729 0.0
C261 C 0.83057 0.97024 0.99334 0.0
H262 H 0.82903 0.05005 0.01681 0.0
C263 C 0.84801 0.10707 0.96801 0.0
C264 C 0.86322 0.13978 0.97715 0.0
C265 C 0.84581 0.074 0.97362 0.0
C266 C 0.83075 0.02836 0.0103 0.0
H267 H 0.71279 0.84187 0.9957 0.0
H268 H 0.76615 0.90236 0.9884 0.0
H269 H 0.7969 0.98631 0.02664 0.0
H270 H 0.89155 0.16453 0.99868 0.0
H271 H 0.88754 0.10673 0.00843 0.0
H272 H 0.8621 0.01256 0.9764 0.0
C273 C 0.7614 0.8955 0.00048 0.0
C274 C 0.8123 0.99159 0.01597 0.0
C275 C 0.73047 0.86084 0.00466 0.0
C276 C 0.87905 0.13963 0.99145 0.0
C277 C 0.87685 0.10657 0.99704 0.0
C278 C 0.84875 0.00713 0.98757 0.0
C279 C 0.78363 0.92204 0.01175 0.0
C280 C 0.81062 0.96176 0.00729 0.0
C281 C 0.8588 0.07305 0.98845 0.0
C282 C 0.84774 0.03623 0.99576 0.0
H283 H 0.73802 0.87117 0.04353 0.0
H284 H 0.79292 0.93112 0.03627 0.0
H285 H 0.83061 0.94811 0.98651 0.0
H286 H 0.8359 0.10634 0.95688 0.0
H287 H 0.83148 0.04853 0.96676 0.0
C288 C 0.73321 0.88078 0.32474 0.0
C289 C 0.71788 0.86495 0.31036 0.0
C290 C 0.7637 0.87844 0.33067 0.0
C291 C 0.83549 0.85049 0.32201 0.0
H292 H 0.80291 0.79838 0.36098 0.0
C293 C 0.86237 0.73181 0.33953 0.0
C294 C 0.8608 0.72193 0.35504 0.0
C295 C 0.85891 0.76288 0.33529 0.0
C296 C 0.81345 0.81387 0.35036 0.0
H297 H 0.72475 0.8374 0.29033 0.0
H298 H 0.77754 0.83279 0.30078 0.0
H299 H 0.77162 0.83051 0.35076 0.0
H300 H 0.85849 0.73905 0.37837 0.0
H301 H 0.85376 0.79413 0.37101 0.0
H302 H 0.87647 0.83244 0.32137 0.0
C303 C 0.76616 0.84721 0.30744 0.0
C304 C 0.79531 0.8323 0.34446 0.0
C305 C 0.73562 0.84951 0.30151 0.0
C306 C 0.85901 0.74557 0.3663 0.0
C307 C 0.85621 0.77708 0.36207 0.0
C308 C 0.85401 0.83235 0.328 0.0
C309 C 0.77949 0.8603 0.32232 0.0
C310 C 0.80499 0.84933 0.32992 0.0
C311 C 0.85437 0.78509 0.3465 0.0
C312 C 0.84195 0.81226 0.34191 0.0
H313 H 0.7206 0.89343 0.33177 0.0
H314 H 0.77375 0.88917 0.34209 0.0
H315 H 0.84385 0.8639 0.31087 0.0
H316 H 0.8639 0.71421 0.33058 0.0
H317 H 0.85722 0.76778 0.32319 0.0
C318 C 0.86024 0.73188 0.66011 0.0
C319 C 0.85186 0.72241 0.64457 0.0
C320 C 0.89499 0.76247 0.66441 0.0
C321 C 0.99144 0.81254 0.64932 0.0
H322 H 0.01184 0.86208 0.68894 0.0
C323 C 0.13902 0.87929 0.67457 0.0
C324 C 0.13887 0.86337 0.6889 0.0
C325 C 0.106 0.87673 0.66877 0.0
C326 C 0.00656 0.84879 0.67777 0.0
H327 H 0.87143 0.7398 0.62128 0.0
H328 H 0.93162 0.79409 0.62875 0.0
H329 H 0.94771 0.83133 0.67855 0.0
H330 H 0.1048 0.83533 0.70894 0.0
H331 H 0.04708 0.83042 0.6987 0.0
H332 H 0.04977 0.8287 0.64876 0.0
C333 C 0.91199 0.77706 0.63766 0.0
C334 C 0.96987 0.83105 0.67183 0.0
C335 C 0.87748 0.74602 0.63336 0.0
C336 C 0.10578 0.84753 0.6978 0.0
C337 C 0.07277 0.84505 0.692 0.0
C338 C 0.02805 0.8306 0.65516 0.0
C339 C 0.9219 0.7846 0.65324 0.0
C340 C 0.96157 0.8112 0.65786 0.0
C341 C 0.07223 0.85833 0.67718 0.0
C342 C 0.03567 0.84748 0.66972 0.0
H343 H 0.84099 0.71428 0.66901 0.0
H344 H 0.9016 0.76702 0.67651 0.0
H345 H 0.98628 0.7972 0.63864 0.0
H346 H 0.16418 0.89221 0.6675 0.0
H347 H 0.10644 0.88758 0.65738 0.0
C348 C 0.69683 0.18874 0.96604 0.0
C349 C 0.72593 0.19809 0.97674 0.0
C350 C 0.66185 0.18356 0.97078 0.0
C351 C 0.59869 0.16255 0.00368 0.0
H352 H 0.56841 0.22812 0.98376 0.0
C353 C 0.48644 0.1927 0.02982 0.0
C354 C 0.46476 0.20159 0.01999 0.0
C355 C 0.51517 0.18715 0.02394 0.0
C356 C 0.57574 0.20889 0.98927 0.0
H357 H 0.74056 0.20743 0.00088 0.0
H358 H 0.67911 0.19752 0.00917 0.0
H359 H 0.62336 0.22595 0.97444 0.0
H360 H 0.45463 0.20949 0.99624 0.0
H361 H 0.50333 0.19802 0.98591 0.0
H362 H 0.5509 0.14498 0.0184 0.0
C363 C 0.68356 0.19456 0.99712 0.0
C364 C 0.60744 0.20785 0.98393 0.0
C365 C 0.71875 0.20043 0.99236 0.0
C366 C 0.47125 0.20318 0.00412 0.0
C367 C 0.49942 0.19687 0.99822 0.0
C368 C 0.56652 0.16304 0.00887 0.0
C369 C 0.65509 0.18689 0.98634 0.0
C370 C 0.61953 0.18512 0.99123 0.0
C371 C 0.52241 0.18964 0.00806 0.0
C372 C 0.55493 0.1867 0.00188 0.0
H373 H 0.70152 0.18681 0.95393 0.0
H374 H 0.64024 0.17751 0.96227 0.0
H375 H 0.60736 0.14459 0.00943 0.0
H376 H 0.48221 0.1915 0.04211 0.0
H377 H 0.5325 0.18223 0.03195 0.0
C378 C 0.26527 0.47291 0.33657 0.0
C379 C 0.2594 0.46691 0.35243 0.0
C380 C 0.29968 0.50163 0.33089 0.0
C381 C 0.39903 0.57172 0.34234 0.0
H382 H 0.39291 0.62579 0.30689 0.0
C383 C 0.51226 0.72407 0.32502 0.0
C384 C 0.52255 0.73032 0.30945 0.0
C385 C 0.48304 0.68899 0.32995 0.0
C386 C 0.39511 0.61067 0.31668 0.0
H387 H 0.28517 0.48577 0.37479 0.0
H388 H 0.3446 0.53701 0.36498 0.0
H389 H 0.33625 0.57026 0.31612 0.0
H390 H 0.51083 0.70443 0.2869 0.0
H391 H 0.45906 0.64337 0.29551 0.0
H392 H 0.45782 0.61389 0.34324 0.0
C393 C 0.32318 0.5189 0.35683 0.0
C394 C 0.36265 0.57864 0.32197 0.0
C395 C 0.28898 0.48961 0.3625 0.0
C396 C 0.5036 0.70048 0.29897 0.0
C397 C 0.47392 0.66561 0.30387 0.0
C398 C 0.43139 0.60422 0.33719 0.0
C399 C 0.32883 0.52568 0.34094 0.0
C400 C 0.36404 0.55875 0.33492 0.0
C401 C 0.46313 0.65971 0.31937 0.0
C402 C 0.42964 0.62404 0.32436 0.0
H403 H 0.24312 0.45551 0.32852 0.0
H404 H 0.3032 0.50517 0.31859 0.0
H405 H 0.40149 0.55686 0.35216 0.0
H406 H 0.52644 0.74646 0.33337 0.0
H407 H 0.47508 0.68521 0.34194 0.0
C408 C 0.79736 0.29123 0.69571 0.0
C409 C 0.79042 0.26202 0.68541 0.0
C410 C 0.80261 0.3258 0.69031 0.0
C411 C 0.78273 0.36675 0.65584 0.0
H412 H 0.84237 0.4611 0.67771 0.0
C413 C 0.80087 0.50819 0.63399 0.0
C414 C 0.79003 0.52675 0.64469 0.0
C415 C 0.80637 0.4785 0.6386 0.0
C416 C 0.82569 0.4349 0.6715 0.0
H417 H 0.78592 0.2468 0.66139 0.0
H418 H 0.79693 0.3075 0.65192 0.0
H419 H 0.84312 0.40441 0.68615 0.0
H420 H 0.77829 0.52997 0.66874 0.0
H421 H 0.78867 0.47855 0.67682 0.0
H422 H 0.76579 0.39757 0.6411 0.0
C423 C 0.79672 0.30342 0.66419 0.0
C424 C 0.82587 0.40234 0.67637 0.0
C425 C 0.79069 0.26865 0.66961 0.0
C426 C 0.78643 0.51609 0.66021 0.0
C427 C 0.79258 0.48684 0.66486 0.0
C428 C 0.7831 0.39941 0.65084 0.0
C429 C 0.80175 0.33216 0.67447 0.0
C430 C 0.80395 0.36765 0.66873 0.0
C431 C 0.80185 0.46729 0.65405 0.0
C432 C 0.80416 0.43365 0.65873 0.0
H433 H 0.7971 0.28683 0.70797 0.0
H434 H 0.80589 0.34691 0.69863 0.0
H435 H 0.76477 0.34058 0.64984 0.0
H436 H 0.80383 0.51571 0.62195 0.0
H437 H 0.81368 0.46394 0.63007 0.0
C438 C 0.26754 0.78859 0.99447 0.0
C439 C 0.2599 0.79161 0.97897 0.0
C440 C 0.30289 0.79431 0.99891 0.0
C441 C 0.37912 0.78234 0.98465 0.0
H442 H 0.43669 0.84438 0.01912 0.0
C443 C 0.51762 0.78914 0.00272 0.0
C444 C 0.52501 0.79022 0.01849 0.0
C445 C 0.48871 0.79499 0.99738 0.0
C446 C 0.42079 0.82654 0.00958 0.0
H447 H 0.28365 0.80387 0.95603 0.0
H448 H 0.34517 0.81293 0.96379 0.0
H449 H 0.37935 0.84412 0.01097 0.0
H450 H 0.50841 0.79896 0.04104 0.0
H451 H 0.45686 0.80744 0.03185 0.0
H452 H 0.41883 0.76297 0.98364 0.0
C453 C 0.3238 0.80644 0.97247 0.0
C454 C 0.3881 0.82665 0.00487 0.0
C455 C 0.28867 0.8014 0.96806 0.0
C456 C 0.50349 0.79817 0.0288 0.0
C457 C 0.47403 0.80327 0.02349 0.0
C458 C 0.41135 0.78168 0.98951 0.0
C459 C 0.33106 0.80252 0.98791 0.0
C460 C 0.36692 0.80442 0.99241 0.0
C461 C 0.46587 0.80122 0.0077 0.0
C462 C 0.43259 0.80362 0.0021 0.0
H463 H 0.246 0.78125 0.00315 0.0
H464 H 0.30773 0.79089 0.01087 0.0
H465 H 0.36295 0.7645 0.97514 0.0
H466 H 0.53409 0.78354 0.99448 0.0
H467 H 0.48409 0.79423 0.98513 0.0
C468 C 0.4696 0.26655 0.32953 0.0
C469 C 0.46302 0.26088 0.31369 0.0
C470 C 0.49789 0.30124 0.33519 0.0
C471 C 0.56541 0.40144 0.32379 0.0
H472 H 0.62234 0.39644 0.35841 0.0
C473 C 0.71813 0.51612 0.33963 0.0
C474 C 0.72559 0.52629 0.35518 0.0
C475 C 0.68278 0.48679 0.33505 0.0
C476 C 0.6064 0.39833 0.34886 0.0
H477 H 0.48037 0.28729 0.29136 0.0
H478 H 0.53087 0.34721 0.3011 0.0
H479 H 0.56703 0.33918 0.34948 0.0
H480 H 0.70151 0.51431 0.37806 0.0
H481 H 0.63995 0.46233 0.37005 0.0
H482 H 0.60659 0.46056 0.32279 0.0
C483 C 0.51353 0.32541 0.30927 0.0
C484 C 0.5745 0.36551 0.34375 0.0
C485 C 0.48467 0.29091 0.30364 0.0
C486 C 0.69661 0.50718 0.366 0.0
C487 C 0.66147 0.47737 0.36144 0.0
C488 C 0.59779 0.43418 0.32876 0.0
C489 C 0.52091 0.33089 0.32513 0.0
C490 C 0.55364 0.36649 0.33107 0.0
C491 C 0.65442 0.46664 0.34595 0.0
C492 C 0.61866 0.43282 0.34128 0.0
H493 H 0.453 0.24404 0.33757 0.0
H494 H 0.5019 0.30459 0.34748 0.0
H495 H 0.54977 0.40359 0.31419 0.0
H496 H 0.73982 0.53044 0.33102 0.0
H497 H 0.67811 0.47887 0.32305 0.0
C498 C 0.18803 0.48534 0.63454 0.0
C499 C 0.19795 0.46567 0.64507 0.0
C500 C 0.18335 0.51536 0.63942 0.0
C501 C 0.16439 0.5583 0.67256 0.0
H502 H 0.22866 0.65358 0.65205 0.0
C503 C 0.19377 0.70122 0.69799 0.0
C504 C 0.20183 0.73124 0.68797 0.0
C505 C 0.18866 0.66692 0.69233 0.0
C506 C 0.2098 0.62717 0.65773 0.0
H507 H 0.20885 0.46081 0.66907 0.0
H508 H 0.19979 0.51276 0.67762 0.0
H509 H 0.22635 0.5963 0.64283 0.0
H510 H 0.20878 0.74828 0.66411 0.0
H511 H 0.19804 0.68806 0.65414 0.0
H512 H 0.14723 0.5888 0.68733 0.0
C513 C 0.19602 0.5051 0.66559 0.0
C514 C 0.20869 0.59436 0.65246 0.0
C515 C 0.2014 0.47554 0.66067 0.0
C516 C 0.2031 0.72578 0.67213 0.0
C517 C 0.19722 0.69128 0.66644 0.0
C518 C 0.16493 0.59104 0.67769 0.0
C519 C 0.18775 0.52578 0.65496 0.0
C520 C 0.18637 0.55974 0.65993 0.0
C521 C 0.19077 0.6616 0.67647 0.0
C522 C 0.18806 0.62608 0.67047 0.0
H523 H 0.18525 0.47846 0.62244 0.0
H524 H 0.17681 0.53081 0.63102 0.0
H525 H 0.14676 0.53182 0.67845 0.0
H526 H 0.19283 0.70469 0.71027 0.0
H527 H 0.18433 0.64511 0.70047 0.0
C528 C 0.39073 0.18204 0.11072 0.0
C529 C 0.35994 0.17655 0.1017 0.0
C530 C 0.38717 0.17776 0.12661 0.0
C531 C 0.32695 0.17688 0.15878 0.0
H532 H 0.38953 0.14798 0.182 0.0
C533 C 0.3235 0.15173 0.2253 0.0
C534 C 0.35868 0.17493 0.23232 0.0
C535 C 0.32016 0.15064 0.20931 0.0
C536 C 0.37189 0.15604 0.17561 0.0
H537 H 0.30072 0.16043 0.10213 0.0
H538 H 0.29391 0.15119 0.12985 0.0
H539 H 0.38868 0.14422 0.1541 0.0
H540 H 0.41769 0.21578 0.22815 0.0
H541 H 0.41191 0.21299 0.20023 0.0
H542 H 0.30959 0.18762 0.18058 0.0
C543 C 0.32125 0.16013 0.12473 0.0
C544 C 0.37154 0.15417 0.15963 0.0
C545 C 0.32501 0.16506 0.10882 0.0
C546 C 0.39017 0.19777 0.22309 0.0
C547 C 0.38698 0.19605 0.20714 0.0
C548 C 0.32674 0.17797 0.17482 0.0
C549 C 0.35251 0.16719 0.13389 0.0
C550 C 0.34975 0.1654 0.15095 0.0
C551 C 0.35211 0.17211 0.20014 0.0
C552 C 0.34983 0.16831 0.1833 0.0
H553 H 0.41811 0.19124 0.10558 0.0
H554 H 0.41213 0.1842 0.1332 0.0
H555 H 0.31021 0.18629 0.15256 0.0
H556 H 0.29877 0.13383 0.23215 0.0
H557 H 0.29301 0.13199 0.20409 0.0
C558 C 0.15393 0.32817 0.4411 0.0
C559 C 0.17682 0.36327 0.434 0.0
C560 C 0.1553 0.32435 0.457 0.0
C561 C 0.21185 0.37483 0.49177 0.0
H562 H 0.11755 0.31101 0.51308 0.0
C563 C 0.18828 0.39161 0.55555 0.0
C564 C 0.18009 0.36002 0.56465 0.0
C565 C 0.18653 0.38871 0.5396 0.0
C566 C 0.14405 0.32868 0.50721 0.0
H567 H 0.21937 0.42177 0.43792 0.0
H568 H 0.22075 0.41567 0.46554 0.0
H569 H 0.11864 0.31221 0.48505 0.0
H570 H 0.16192 0.30021 0.56423 0.0
H571 H 0.15755 0.29495 0.53616 0.0
H572 H 0.23658 0.39271 0.51405 0.0
C573 C 0.20255 0.39063 0.45893 0.0
C574 C 0.14486 0.32924 0.49117 0.0
C575 C 0.20162 0.39425 0.44304 0.0
C576 C 0.16839 0.32502 0.55749 0.0
C577 C 0.16587 0.32196 0.54149 0.0
C578 C 0.21082 0.37481 0.50776 0.0
C579 C 0.17917 0.35571 0.46616 0.0
C580 C 0.17872 0.35272 0.48322 0.0
C581 C 0.17581 0.35402 0.53245 0.0
C582 C 0.17687 0.35207 0.51558 0.0
H583 H 0.13465 0.30373 0.43439 0.0
H584 H 0.13743 0.29684 0.46208 0.0
H585 H 0.23866 0.39248 0.48613 0.0
H586 H 0.19753 0.41898 0.56073 0.0
H587 H 0.1941 0.41372 0.5328 0.0
C588 C 0.78467 0.17112 0.88878 0.0
C589 C 0.81778 0.18065 0.89703 0.0
C590 C 0.78399 0.16778 0.87282 0.0
C591 C 0.83442 0.15753 0.8395 0.0
H592 H 0.78668 0.20535 0.81768 0.0
C593 C 0.81878 0.20663 0.77425 0.0
C594 C 0.8093 0.1734 0.76608 0.0
C595 C 0.82286 0.20774 0.79018 0.0
C596 C 0.80048 0.19221 0.82358 0.0
H597 H 0.87567 0.19259 0.89509 0.0
H598 H 0.87454 0.18703 0.86722 0.0
H599 H 0.78648 0.20489 0.84556 0.0
H600 H 0.79824 0.1158 0.76813 0.0
H601 H 0.80504 0.11766 0.79593 0.0
H602 H 0.84893 0.14542 0.81742 0.0
C603 C 0.84902 0.18188 0.87308 0.0
C604 C 0.79986 0.19143 0.83957 0.0
C605 C 0.84971 0.1852 0.88905 0.0
C606 C 0.80555 0.14183 0.77409 0.0
C607 C 0.80961 0.14294 0.79003 0.0
C608 C 0.83499 0.15825 0.82345 0.0
C609 C 0.8164 0.17394 0.86476 0.0
C610 C 0.81672 0.17401 0.84773 0.0
C611 C 0.8175 0.17565 0.79829 0.0
C612 C 0.81804 0.17564 0.81532 0.0
H613 H 0.75954 0.16722 0.89459 0.0
H614 H 0.75818 0.16091 0.86677 0.0
H615 H 0.84751 0.14373 0.84545 0.0
H616 H 0.82207 0.2315 0.7684 0.0
H617 H 0.82965 0.2336 0.79618 0.0
C618 C 0.66643 0.82382 0.1062 0.0
C619 C 0.63164 0.81295 0.09908 0.0
C620 C 0.67034 0.82906 0.1221 0.0
C621 C 0.62122 0.83781 0.15679 0.0
H622 H 0.68108 0.80255 0.17821 0.0
C623 C 0.60076 0.7946 0.22027 0.0
C624 C 0.63196 0.81767 0.2296 0.0
C625 C 0.60441 0.79606 0.20434 0.0
C626 C 0.66455 0.81273 0.17231 0.0
H627 H 0.57383 0.79955 0.10294 0.0
H628 H 0.58005 0.80717 0.13054 0.0
H629 H 0.68054 0.80304 0.15017 0.0
H630 H 0.69184 0.85891 0.22963 0.0
H631 H 0.69839 0.86033 0.2016 0.0
H632 H 0.60369 0.84536 0.17904 0.0
C633 C 0.60481 0.81288 0.12395 0.0
C634 C 0.66438 0.81332 0.15626 0.0
C635 C 0.60111 0.80826 0.10808 0.0
C636 C 0.66733 0.84085 0.22271 0.0
C637 C 0.67113 0.84169 0.20673 0.0
C638 C 0.62083 0.83647 0.17277 0.0
C639 C 0.63936 0.82298 0.13122 0.0
C640 C 0.64226 0.82538 0.14828 0.0
C641 C 0.63945 0.81998 0.19746 0.0
C642 C 0.64212 0.82353 0.18063 0.0
H643 H 0.69052 0.82782 0.09952 0.0
H644 H 0.69757 0.83756 0.12721 0.0
H645 H 0.60465 0.84824 0.15112 0.0
H646 H 0.57312 0.77659 0.22523 0.0
H647 H 0.5797 0.77897 0.19735 0.0
C648 C 0.82052 0.66892 0.55795 0.0
C649 C 0.80998 0.63424 0.56512 0.0
C650 C 0.82609 0.67284 0.54206 0.0
C651 C 0.83694 0.62421 0.50766 0.0
H652 H 0.80129 0.68299 0.48565 0.0
C653 C 0.7949 0.60268 0.44403 0.0
C654 C 0.8179 0.63381 0.43465 0.0
C655 C 0.79625 0.60652 0.45995 0.0
C656 C 0.81159 0.66677 0.49172 0.0
H657 H 0.79732 0.5766 0.56136 0.0
H658 H 0.80549 0.58282 0.53378 0.0
H659 H 0.80078 0.68259 0.5137 0.0
H660 H 0.85904 0.69374 0.43452 0.0
H661 H 0.86028 0.70063 0.46254 0.0
H662 H 0.8456 0.60681 0.48556 0.0
C663 C 0.81073 0.60751 0.54032 0.0
C664 C 0.8116 0.66667 0.50777 0.0
C665 C 0.80578 0.6038 0.55618 0.0
C666 C 0.84105 0.66927 0.44149 0.0
C667 C 0.84177 0.67326 0.45745 0.0
C668 C 0.83619 0.62374 0.49167 0.0
C669 C 0.82069 0.64198 0.533 0.0
C670 C 0.82375 0.64491 0.51596 0.0
C671 C 0.81998 0.64169 0.46676 0.0
C672 C 0.82311 0.64463 0.4836 0.0
H673 H 0.82412 0.69293 0.56458 0.0
H674 H 0.8344 0.7 0.5369 0.0
H675 H 0.84747 0.60793 0.5135 0.0
H676 H 0.77691 0.57497 0.4391 0.0
H677 H 0.77912 0.58188 0.46698 0.0
C678 C 0.196 0.80376 0.89074 0.0
C679 C 0.17034 0.80895 0.89966 0.0
C680 C 0.19667 0.80761 0.87484 0.0
C681 C 0.13769 0.80731 0.8423 0.0
H682 H 0.23068 0.83936 0.81975 0.0
C683 C 0.16306 0.83539 0.77596 0.0
C684 C 0.17625 0.81304 0.76904 0.0
C685 C 0.15954 0.83565 0.79192 0.0
C686 C 0.20456 0.83041 0.82595 0.0
H687 H 0.12621 0.82366 0.89899 0.0
H688 H 0.12845 0.83206 0.87121 0.0
H689 H 0.23224 0.84238 0.84766 0.0
H690 H 0.1951 0.77273 0.77334 0.0
H691 H 0.1899 0.77409 0.80121 0.0
H692 H 0.11052 0.79646 0.82029 0.0
C693 C 0.14727 0.82381 0.87645 0.0
C694 C 0.20531 0.83185 0.84193 0.0
C695 C 0.14619 0.81933 0.89239 0.0
C696 C 0.18472 0.79012 0.77832 0.0
C697 C 0.18195 0.791 0.79425 0.0
C698 C 0.13713 0.80663 0.82625 0.0
C699 C 0.17215 0.81743 0.86743 0.0
C700 C 0.17177 0.81948 0.85036 0.0
C701 C 0.1699 0.81418 0.80116 0.0
C702 C 0.17045 0.81744 0.81801 0.0
H703 H 0.21472 0.79537 0.89599 0.0
H704 H 0.21568 0.80164 0.86834 0.0
H705 H 0.1112 0.7971 0.84834 0.0
H706 H 0.15632 0.85332 0.76908 0.0
H707 H 0.15022 0.85374 0.79708 0.0
C708 C 0.57772 0.63804 0.04465 0.0
C709 C 0.56195 0.65606 0.05308 0.0
C710 C 0.56205 0.5989 0.04549 0.0
C711 C 0.47393 0.51203 0.05605 0.0
H712 H 0.53845 0.46752 0.05555 0.0
C713 C 0.41433 0.35268 0.04745 0.0
C714 C 0.43071 0.3352 0.05585 0.0
C715 C 0.43053 0.39189 0.0476 0.0
C716 C 0.52005 0.47951 0.05587 0.0
H717 H 0.51799 0.64756 0.06923 0.0
H718 H 0.49121 0.5794 0.07099 0.0
H719 H 0.56679 0.536 0.05538 0.0
H720 H 0.47647 0.34482 0.07118 0.0
H721 H 0.5043 0.41334 0.07175 0.0
H722 H 0.42723 0.45563 0.05699 0.0
C723 C 0.51509 0.59529 0.06345 0.0
C724 C 0.53628 0.51875 0.05556 0.0
C725 C 0.53055 0.63436 0.06251 0.0
C726 C 0.46338 0.3576 0.06453 0.0
C727 C 0.47942 0.39683 0.06478 0.0
C728 C 0.45772 0.47283 0.05647 0.0
C729 C 0.53051 0.57709 0.05488 0.0
C730 C 0.51339 0.53544 0.05556 0.0
C731 C 0.46325 0.41442 0.05627 0.0
C732 C 0.48057 0.45611 0.05628 0.0
H733 H 0.60186 0.65409 0.03725 0.0
H734 H 0.57426 0.58569 0.03857 0.0
H735 H 0.45546 0.52395 0.05588 0.0
H736 H 0.38926 0.33611 0.04058 0.0
H737 H 0.41773 0.40457 0.04071 0.0
C738 C 0.88972 0.53034 0.39502 0.0
C739 C 0.89907 0.56235 0.38602 0.0
C740 C 0.91302 0.51444 0.39513 0.0
C741 C 0.0101 0.536 0.38603 0.0
H742 H 0.96476 0.42691 0.3869 0.0
C743 C 0.0989 0.46398 0.39497 0.0
C744 C 0.08922 0.43143 0.3863 0.0
C745 C 0.07546 0.47972 0.39506 0.0
C746 C 0.97787 0.45741 0.38651 0.0
H747 H 0.9399 0.60274 0.37 0.0
H748 H 0.98017 0.57446 0.36991 0.0
H749 H 0.92437 0.45494 0.38633 0.0
H750 H 0.04759 0.38983 0.37087 0.0
H751 H 0.00704 0.4178 0.37073 0.0
H752 H 0.06358 0.53846 0.38569 0.0
C753 C 0.95527 0.56208 0.37713 0.0
C754 C 0.95472 0.47349 0.3864 0.0
C755 C 0.93211 0.57816 0.37711 0.0
C756 C 0.05565 0.41484 0.37772 0.0
C757 C 0.03233 0.43075 0.37772 0.0
C758 C 0.03324 0.51992 0.38604 0.0
C759 C 0.94599 0.53006 0.38615 0.0
C760 C 0.97059 0.51297 0.38619 0.0
C761 C 0.042 0.46339 0.38638 0.0
C762 C 0.01738 0.48044 0.38631 0.0
H763 H 0.86453 0.5177 0.40207 0.0
H764 H 0.9054 0.49016 0.40239 0.0
H765 H 0.02323 0.56652 0.38605 0.0
H766 H 0.12451 0.47723 0.40177 0.0
H767 H 0.08339 0.50449 0.40206 0.0
C768 C 0.63533 0.059 0.71091 0.0
C769 C 0.65359 0.09295 0.71921 0.0
C770 C 0.5962 0.03588 0.71175 0.0
C771 C 0.50932 0.03725 0.72232 0.0
H772 H 0.46579 0.92836 0.72279 0.0
C773 C 0.35 0.93544 0.71444 0.0
C774 C 0.33317 0.90187 0.72302 0.0
C775 C 0.38912 0.95907 0.71454 0.0
C776 C 0.47749 0.95871 0.72285 0.0
H777 H 0.64543 0.12926 0.73502 0.0
H778 H 0.57717 0.08847 0.73679 0.0
H779 H 0.5341 0.96887 0.72225 0.0
H780 H 0.34382 0.86699 0.73869 0.0
H781 H 0.41212 0.90873 0.73917 0.0
H782 H 0.45273 0.0271 0.72337 0.0
C783 C 0.59294 0.08006 0.72937 0.0
C784 C 0.51664 0.98193 0.72232 0.0
C785 C 0.63205 0.10333 0.72842 0.0
C786 C 0.35609 0.8926 0.73188 0.0
C787 C 0.39521 0.91639 0.73208 0.0
C788 C 0.47016 0.01403 0.72297 0.0
C789 C 0.57457 0.04609 0.72103 0.0
C790 C 0.53299 0.02145 0.72195 0.0
C791 C 0.41217 0.94977 0.72333 0.0
C792 C 0.4538 0.97449 0.72314 0.0
H793 H 0.65123 0.0504 0.70365 0.0
H794 H 0.58286 0.01022 0.70498 0.0
H795 H 0.52098 0.06758 0.72189 0.0
H796 H 0.33302 0.94321 0.70744 0.0
H797 H 0.40132 0.98426 0.70748 0.0
C798 C 0.63678 0.57932 0.62186 0.0
C799 C 0.65419 0.56365 0.61297 0.0
C800 C 0.59755 0.5631 0.62182 0.0
C801 C 0.51005 0.47415 0.61255 0.0
H802 H 0.4651 0.53828 0.61337 0.0
C803 C 0.3504 0.41379 0.62121 0.0
C804 C 0.33303 0.43001 0.61264 0.0
C805 C 0.38964 0.43021 0.62126 0.0
C806 C 0.47721 0.51998 0.61299 0.0
H807 H 0.64442 0.51917 0.59687 0.0
H808 H 0.57604 0.4914 0.59649 0.0
H809 H 0.53356 0.56694 0.61299 0.0
H810 H 0.34288 0.47575 0.59723 0.0
H811 H 0.41135 0.50392 0.59701 0.0
H812 H 0.45373 0.42722 0.61204 0.0
C813 C 0.59254 0.51566 0.60378 0.0
C814 C 0.51645 0.5364 0.61298 0.0
C815 C 0.63173 0.5317 0.60392 0.0
C816 C 0.35555 0.46277 0.60402 0.0
C817 C 0.39477 0.47903 0.60398 0.0
C818 C 0.47082 0.45774 0.61245 0.0
C819 C 0.57499 0.53107 0.61278 0.0
C820 C 0.53331 0.51367 0.61277 0.0
C821 C 0.41227 0.46301 0.61264 0.0
C822 C 0.45396 0.48046 0.61269 0.0
H823 H 0.65342 0.60386 0.62901 0.0
H824 H 0.58487 0.57533 0.62904 0.0
H825 H 0.52214 0.45582 0.61258 0.0
H826 H 0.33372 0.38864 0.62803 0.0
H827 H 0.40226 0.41749 0.62824 0.0
C828 C 0.09462 0.63334 0.93882 0.0
C829 C 0.08534 0.65594 0.9479 0.0
C830 C 0.07092 0.59425 0.93842 0.0
C831 C 0.97337 0.51881 0.9469 0.0
H832 H 0.01883 0.45512 0.94626 0.0
C833 C 0.88591 0.35777 0.93717 0.0
C834 C 0.89588 0.33503 0.94578 0.0
C835 C 0.90867 0.39706 0.93742 0.0
C836 C 0.00566 0.47248 0.94659 0.0
H837 H 0.04411 0.65552 0.96368 0.0
H838 H 0.00307 0.58705 0.96327 0.0
H839 H 0.05911 0.52341 0.94712 0.0
H840 H 0.93705 0.3354 0.9616 0.0
H841 H 0.97629 0.4039 0.96232 0.0
H842 H 0.91988 0.46775 0.94687 0.0
C843 C 0.02828 0.59959 0.95623 0.0
C844 C 0.02877 0.51165 0.94686 0.0
C845 C 0.05187 0.63876 0.95654 0.0
C846 C 0.92881 0.35223 0.95475 0.0
C847 C 0.9514 0.39147 0.95509 0.0
C848 C 0.95023 0.47958 0.94672 0.0
C849 C 0.0376 0.57691 0.94719 0.0
C850 C 0.0129 0.53527 0.94698 0.0
C851 C 0.94169 0.41432 0.94637 0.0
C852 C 0.96614 0.45599 0.94655 0.0
H853 H 0.12012 0.64585 0.93195 0.0
H854 H 0.07857 0.57765 0.93113 0.0
H855 H 0.96027 0.53624 0.94683 0.0
H856 H 0.86072 0.34523 0.93011 0.0
H857 H 0.90069 0.41385 0.93041 0.0
C858 C 0.5293 0.89297 0.26707 0.0
C859 C 0.5611 0.90226 0.27618 0.0
C860 C 0.51357 0.91644 0.2668 0.0
C861 C 0.53488 0.01355 0.27612 0.0
H862 H 0.42579 0.96784 0.27562 0.0
C863 C 0.46212 0.10251 0.26972 0.0
C864 C 0.42972 0.09189 0.27863 0.0
C865 C 0.47801 0.07923 0.26891 0.0
C866 C 0.4563 0.98104 0.2759 0.0
H867 H 0.60138 0.94322 0.29219 0.0
H868 H 0.5734 0.9837 0.29203 0.0
H869 H 0.45404 0.92764 0.27551 0.0
H870 H 0.3886 0.04883 0.29376 0.0
H871 H 0.41687 0.00863 0.29267 0.0
H872 H 0.53712 0.06691 0.27712 0.0
C873 C 0.56107 0.95877 0.28482 0.0
C874 C 0.4725 0.95801 0.27561 0.0
C875 C 0.57697 0.93547 0.28499 0.0
C876 C 0.41348 0.05762 0.28673 0.0
C877 C 0.42955 0.03449 0.28603 0.0
C878 C 0.51867 0.03657 0.27653 0.0
C879 C 0.52917 0.9495 0.27574 0.0
C880 C 0.51197 0.974 0.27575 0.0
C881 C 0.46199 0.04503 0.2771 0.0
C882 C 0.4792 0.02057 0.27645 0.0
H883 H 0.51664 0.86764 0.26009 0.0
H884 H 0.48937 0.90882 0.25949 0.0
H885 H 0.56539 0.02678 0.27605 0.0
H886 H 0.47508 0.12869 0.26327 0.0
H887 H 0.50264 0.08788 0.26173 0.0
loop_
_geom_bond_atom_site_label_1
_geom_bond_atom_site_label_2
_geom_bond_distance
_geom_bond_site_symmetry_2
_ccdc_geom_bond_type
C0 O1 1.306 . S
C0 O3 1.160 . S
O1 C0 1.306 . S
O1 Cd2 2.228 . S
Cd2 O1 2.228 . S
Cd2 O6 2.273 . S
Cd2 O10 2.277 . S
O3 C0 1.160 . S
O3 Cd4 2.203 . S
Cd4 O3 2.203 . S
Cd4 O6 2.411 . S
Cd4 O7 2.333 . S
Cd4 O8 2.352 . S
Cd4 O12 2.277 . S
Cd4 O13 2.356 . S
C5 O10 1.209 . S
C5 O12 1.226 . S
O6 Cd2 2.273 . S
O6 Cd4 2.411 . S
O6 C9 1.320 . S
O7 Cd4 2.333 . S
O7 C9 1.214 . S
O8 Cd4 2.352 . S
O8 C11 1.258 . S
C9 O6 1.320 . S
C9 O7 1.214 . S
O10 Cd2 2.277 . S
O10 C5 1.209 . S
C11 O8 1.258 . S
C11 O13 1.282 . S
O12 Cd4 2.277 . S
O12 C5 1.226 . S
O13 Cd4 2.356 . S
O13 C11 1.282 . S
C14 O15 1.306 . S
C14 O17 1.160 . S
O15 C14 1.306 . S
O15 Cd16 2.228 . S
Cd16 O15 2.228 . S
Cd16 O20 2.273 . S
Cd16 O24 2.277 . S
O17 C14 1.160 . S
O17 Cd18 2.203 . S
Cd18 O17 2.203 . S
Cd18 O20 2.411 . S
Cd18 O21 2.333 . S
Cd18 O22 2.352 . S
Cd18 O26 2.277 . S
Cd18 O27 2.356 . S
C19 O24 1.209 . S
C19 O26 1.226 . S
O20 Cd16 2.273 . S
O20 Cd18 2.411 . S
O20 C23 1.320 . S
O21 Cd18 2.333 . S
O21 C23 1.214 . S
O22 Cd18 2.352 . S
O22 C25 1.258 . S
C23 O20 1.320 . S
C23 O21 1.214 . S
O24 Cd16 2.277 . S
O24 C19 1.209 . S
C25 O22 1.258 . S
C25 O27 1.282 . S
O26 Cd18 2.277 . S
O26 C19 1.226 . S
O27 Cd18 2.356 . S
O27 C25 1.282 . S
C28 O29 1.306 . S
C28 O31 1.160 . S
O29 C28 1.306 . S
O29 Cd30 2.228 . S
Cd30 O29 2.228 . S
Cd30 O34 2.273 . S
Cd30 O38 2.277 . S
O31 C28 1.160 . S
O31 Cd32 2.203 . S
Cd32 O31 2.203 . S
Cd32 O34 2.411 . S
Cd32 O35 2.333 . S
Cd32 O36 2.352 . S
Cd32 O40 2.277 . S
Cd32 O41 2.356 . S
C33 O38 1.209 . S
C33 O40 1.226 . S
O34 Cd30 2.273 . S
O34 Cd32 2.411 . S
O34 C37 1.320 . S
O35 Cd32 2.333 . S
O35 C37 1.214 . S
O36 Cd32 2.352 . S
O36 C39 1.258 . S
C37 O34 1.320 . S
C37 O35 1.214 . S
O38 Cd30 2.277 . S
O38 C33 1.209 . S
C39 O36 1.258 . S
C39 O41 1.282 . S
O40 Cd32 2.277 . S
O40 C33 1.226 . S
O41 Cd32 2.356 . S
O41 C39 1.282 . S
C42 O43 1.306 . S
C42 O45 1.160 . S
O43 C42 1.306 . S
O43 Cd44 2.228 . S
Cd44 O43 2.228 . S
Cd44 O48 2.273 . S
Cd44 O52 2.277 . S
O45 C42 1.160 . S
O45 Cd46 2.203 . S
Cd46 O45 2.203 . S
Cd46 O48 2.411 . S
Cd46 O49 2.333 . S
Cd46 O50 2.352 . S
Cd46 O54 2.277 . S
Cd46 O55 2.356 . S
C47 O52 1.209 . S
C47 O54 1.226 . S
O48 Cd44 2.273 . S
O48 Cd46 2.411 . S
O48 C51 1.320 . S
O49 Cd46 2.333 . S
O49 C51 1.214 . S
O50 Cd46 2.352 . S
O50 C53 1.258 . S
C51 O48 1.320 . S
C51 O49 1.214 . S
O52 Cd44 2.277 . S
O52 C47 1.209 . S
C53 O50 1.258 . S
C53 O55 1.282 . S
O54 Cd46 2.277 . S
O54 C47 1.226 . S
O55 Cd46 2.356 . S
O55 C53 1.282 . S
C56 O57 1.306 . S
C56 O59 1.160 . S
O57 C56 1.306 . S
O57 Cd58 2.228 . S
Cd58 O57 2.228 . S
Cd58 O62 2.273 . S
Cd58 O66 2.277 . S
O59 C56 1.160 . S
O59 Cd60 2.203 . S
Cd60 O59 2.203 . S
Cd60 O62 2.411 . S
Cd60 O63 2.333 . S
Cd60 O64 2.352 . S
Cd60 O68 2.277 . S
Cd60 O69 2.356 . S
C61 O66 1.209 . S
C61 O68 1.226 . S
O62 Cd58 2.273 . S
O62 Cd60 2.411 . S
O62 C65 1.320 . S
O63 Cd60 2.333 . S
O63 C65 1.214 . S
O64 Cd60 2.352 . S
O64 C67 1.258 . S
C65 O62 1.320 . S
C65 O63 1.214 . S
O66 Cd58 2.277 . S
O66 C61 1.209 . S
C67 O64 1.258 . S
C67 O69 1.282 . S
O68 Cd60 2.277 . S
O68 C61 1.226 . S
O69 Cd60 2.356 . S
O69 C67 1.282 . S
C70 O71 1.306 . S
C70 O73 1.160 . S
O71 C70 1.306 . S
O71 Cd72 2.228 . S
Cd72 O71 2.228 . S
Cd72 O76 2.273 . S
Cd72 O80 2.277 . S
O73 C70 1.160 . S
O73 Cd74 2.203 . S
Cd74 O73 2.203 . S
Cd74 O76 2.411 . S
Cd74 O77 2.333 . S
Cd74 O78 2.352 . S
Cd74 O82 2.277 . S
Cd74 O83 2.356 . S
C75 O80 1.209 . S
C75 O82 1.226 . S
O76 Cd72 2.273 . S
O76 Cd74 2.411 . S
O76 C79 1.320 . S
O77 Cd74 2.333 . S
O77 C79 1.214 . S
O78 Cd74 2.352 . S
O78 C81 1.258 . S
C79 O76 1.320 . S
C79 O77 1.214 . S
O80 Cd72 2.277 . S
O80 C75 1.209 . S
C81 O78 1.258 . S
C81 O83 1.282 . S
O82 Cd74 2.277 . S
O82 C75 1.226 . S
O83 Cd74 2.356 . S
O83 C81 1.282 . S
C84 O85 1.306 . S
C84 O87 1.160 . S
O85 C84 1.306 . S
O85 Cd86 2.228 . S
Cd86 O85 2.228 . S
Cd86 O90 2.273 . S
Cd86 O94 2.277 . S
O87 C84 1.160 . S
O87 Cd88 2.203 . S
Cd88 O87 2.203 . S
Cd88 O90 2.411 . S
Cd88 O91 2.333 . S
Cd88 O92 2.352 . S
Cd88 O96 2.277 . S
Cd88 O97 2.356 . S
C89 O94 1.209 . S
C89 O96 1.226 . S
O90 Cd86 2.273 . S
O90 Cd88 2.411 . S
O90 C93 1.320 . S
O91 Cd88 2.333 . S
O91 C93 1.214 . S
O92 Cd88 2.352 . S
O92 C95 1.258 . S
C93 O90 1.320 . S
C93 O91 1.214 . S
O94 Cd86 2.277 . S
O94 C89 1.209 . S
C95 O92 1.258 . S
C95 O97 1.282 . S
O96 Cd88 2.277 . S
O96 C89 1.226 . S
O97 Cd88 2.356 . S
O97 C95 1.282 . S
C98 O99 1.306 . S
C98 O101 1.160 . S
O99 C98 1.306 . S
O99 Cd100 2.228 . S
Cd100 O99 2.228 . S
Cd100 O104 2.273 . S
Cd100 O108 2.277 . S
O101 C98 1.160 . S
O101 Cd102 2.203 . S
Cd102 O101 2.203 . S
Cd102 O104 2.411 . S
Cd102 O105 2.333 . S
Cd102 O106 2.352 . S
Cd102 O110 2.277 . S
Cd102 O111 2.356 . S
C103 O108 1.209 . S
C103 O110 1.226 . S
O104 Cd100 2.273 . S
O104 Cd102 2.411 . S
O104 C107 1.320 . S
O105 Cd102 2.333 . S
O105 C107 1.214 . S
O106 Cd102 2.352 . S
O106 C109 1.258 . S
C107 O104 1.320 . S
C107 O105 1.214 . S
O108 Cd100 2.277 . S
O108 C103 1.209 . S
C109 O106 1.258 . S
C109 O111 1.282 . S
O110 Cd102 2.277 . S
O110 C103 1.226 . S
O111 Cd102 2.356 . S
O111 C109 1.282 . S
C112 O113 1.306 . S
C112 O115 1.160 . S
O113 C112 1.306 . S
O113 Cd114 2.228 . S
Cd114 O113 2.228 . S
Cd114 O118 2.273 . S
Cd114 O122 2.277 . S
O115 C112 1.160 . S
O115 Cd116 2.203 . S
Cd116 O115 2.203 . S
Cd116 O118 2.411 . S
Cd116 O119 2.333 . S
Cd116 O120 2.352 . S
Cd116 O124 2.277 . S
Cd116 O125 2.356 . S
C117 O122 1.209 . S
C117 O124 1.226 . S
O118 Cd114 2.273 . S
O118 Cd116 2.411 . S
O118 C121 1.320 . S
O119 Cd116 2.333 . S
O119 C121 1.214 . S
O120 Cd116 2.352 . S
O120 C123 1.258 . S
C121 O118 1.320 . S
C121 O119 1.214 . S
O122 Cd114 2.277 . S
O122 C117 1.209 . S
C123 O120 1.258 . S
C123 O125 1.282 . S
O124 Cd116 2.277 . S
O124 C117 1.226 . S
O125 Cd116 2.356 . S
O125 C123 1.282 . S
C126 O127 1.306 . S
C126 O129 1.160 . S
O127 C126 1.306 . S
O127 Cd128 2.228 . S
Cd128 O127 2.228 . S
Cd128 O132 2.273 . S
Cd128 O136 2.277 . S
O129 C126 1.160 . S
O129 Cd130 2.203 . S
Cd130 O129 2.203 . S
Cd130 O132 2.411 . S
Cd130 O133 2.333 . S
Cd130 O134 2.352 . S
Cd130 O138 2.277 . S
Cd130 O139 2.356 . S
C131 O136 1.209 . S
C131 O138 1.226 . S
O132 Cd128 2.273 . S
O132 Cd130 2.411 . S
O132 C135 1.320 . S
O133 Cd130 2.333 . S
O133 C135 1.214 . S
O134 Cd130 2.352 . S
O134 C137 1.258 . S
C135 O132 1.320 . S
C135 O133 1.214 . S
O136 Cd128 2.277 . S
O136 C131 1.209 . S
C137 O134 1.258 . S
C137 O139 1.282 . S
O138 Cd130 2.277 . S
O138 C131 1.226 . S
O139 Cd130 2.356 . S
O139 C137 1.282 . S
C140 O141 1.306 . S
C140 O143 1.160 . S
O141 C140 1.306 . S
O141 Cd142 2.228 . S
Cd142 O141 2.228 . S
Cd142 O146 2.273 . S
Cd142 O150 2.277 . S
O143 C140 1.160 . S
O143 Cd144 2.203 . S
Cd144 O143 2.203 . S
Cd144 O146 2.411 . S
Cd144 O147 2.333 . S
Cd144 O148 2.352 . S
Cd144 O152 2.277 . S
Cd144 O153 2.356 . S
C145 O150 1.209 . S
C145 O152 1.226 . S
O146 Cd142 2.273 . S
O146 Cd144 2.411 . S
O146 C149 1.320 . S
O147 Cd144 2.333 . S
O147 C149 1.214 . S
O148 Cd144 2.352 . S
O148 C151 1.258 . S
C149 O146 1.320 . S
C149 O147 1.214 . S
O150 Cd142 2.277 . S
O150 C145 1.209 . S
C151 O148 1.258 . S
C151 O153 1.282 . S
O152 Cd144 2.277 . S
O152 C145 1.226 . S
O153 Cd144 2.356 . S
O153 C151 1.282 . S
C154 O155 1.306 . S
C154 O157 1.160 . S
O155 C154 1.306 . S
O155 Cd156 2.228 . S
Cd156 O155 2.228 . S
Cd156 O160 2.273 . S
Cd156 O164 2.277 . S
O157 C154 1.160 . S
O157 Cd158 2.203 . S
Cd158 O157 2.203 . S
Cd158 O160 2.411 . S
Cd158 O161 2.333 . S
Cd158 O162 2.352 . S
Cd158 O166 2.277 . S
Cd158 O167 2.356 . S
C159 O164 1.209 . S
C159 O166 1.226 . S
O160 Cd156 2.273 . S
O160 Cd158 2.411 . S
O160 C163 1.320 . S
O161 Cd158 2.333 . S
O161 C163 1.214 . S
O162 Cd158 2.352 . S
O162 C165 1.258 . S
C163 O160 1.320 . S
C163 O161 1.214 . S
O164 Cd156 2.277 . S
O164 C159 1.209 . S
C165 O162 1.258 . S
C165 O167 1.282 . S
O166 Cd158 2.277 . S
O166 C159 1.226 . S
O167 Cd158 2.356 . S
O167 C165 1.282 . S
C168 C169 1.349 . S
C168 C170 1.327 . S
C168 H193 0.950 . S
C169 C168 1.349 . S
C169 C185 1.349 . S
C170 C168 1.327 . S
C170 C189 1.429 . S
C170 H194 0.950 . S
C171 C188 1.574 1_565 S
C171 C190 1.368 . S
C171 H195 0.949 . S
H172 C176 0.949 . S
C173 C174 1.349 . S
C173 C175 1.327 . S
C173 H196 0.950 . S
C174 C173 1.349 . S
C174 C186 1.349 . S
C175 C173 1.327 . S
C175 C191 1.429 . S
C175 H197 0.950 . S
C176 H172 0.949 . S
C176 C184 1.574 1_545 S
C176 C192 1.368 . S
H177 C185 0.950 . S
H178 C183 0.950 . S
H179 C184 0.949 . S
H180 C186 0.950 . S
H181 C187 0.950 . S
H182 C188 0.949 . S
C183 H178 0.950 . S
C183 C185 1.327 . S
C183 C189 1.429 . S
C184 C176 1.574 1_565 S
C184 H179 0.949 . S
C184 C190 1.368 1_554 S
C185 C169 1.349 . S
C185 H177 0.950 . S
C185 C183 1.327 . S
C186 C174 1.349 . S
C186 H180 0.950 . S
C186 C187 1.327 . S
C187 H181 0.950 . S
C187 C186 1.327 . S
C187 C191 1.429 . S
C188 C171 1.574 1_545 S
C188 H182 0.949 . S
C188 C192 1.368 1_556 S
C189 C170 1.429 . S
C189 C183 1.429 . S
C189 C190 1.523 . S
C190 C171 1.368 . S
C190 C184 1.368 1_556 S
C190 C189 1.523 . S
C191 C175 1.429 . S
C191 C187 1.429 . S
C191 C192 1.523 . S
C192 C176 1.368 . S
C192 C188 1.368 1_554 S
C192 C191 1.523 . S
H193 C168 0.950 . S
H194 C170 0.950 . S
H195 C171 0.949 . S
H196 C173 0.950 . S
H197 C175 0.950 . S
C198 C199 1.349 . S
C198 C200 1.327 . S
C198 H223 0.950 . S
C199 C198 1.349 . S
C199 C215 1.349 . S
C200 C198 1.327 . S
C200 C219 1.429 . S
C200 H224 0.950 . S
C201 C218 1.574 . S
C201 C220 1.368 . S
C201 H225 0.949 . S
H202 C206 0.949 . S
C203 C204 1.349 . S
C203 C205 1.327 . S
C203 H226 0.950 . S
C204 C203 1.349 . S
C204 C216 1.349 . S
C205 C203 1.327 . S
C205 C221 1.429 . S
C205 H227 0.950 . S
C206 H202 0.949 . S
C206 C214 1.574 . S
C206 C222 1.368 . S
H207 C215 0.950 . S
H208 C213 0.950 . S
H209 C214 0.949 . S
H210 C216 0.950 . S
H211 C217 0.950 . S
H212 C218 0.949 . S
C213 H208 0.950 . S
C213 C215 1.327 . S
C213 C219 1.429 . S
C214 C206 1.574 . S
C214 H209 0.949 . S
C214 C220 1.368 . S
C215 C199 1.349 . S
C215 H207 0.950 . S
C215 C213 1.327 . S
C216 C204 1.349 . S
C216 H210 0.950 . S
C216 C217 1.327 . S
C217 H211 0.950 . S
C217 C216 1.327 . S
C217 C221 1.429 . S
C218 C201 1.574 . S
C218 H212 0.949 . S
C218 C222 1.368 . S
C219 C200 1.429 . S
C219 C213 1.429 . S
C219 C220 1.523 . S
C220 C201 1.368 . S
C220 C214 1.368 . S
C220 C219 1.523 . S
C221 C205 1.429 . S
C221 C217 1.429 . S
C221 C222 1.523 . S
C222 C206 1.368 . S
C222 C218 1.368 . S
C222 C221 1.523 . S
H223 C198 0.950 . S
H224 C200 0.950 . S
H225 C201 0.949 . S
H226 C203 0.950 . S
H227 C205 0.950 . S
C228 C229 1.349 . S
C228 C230 1.327 . S
C228 H253 0.950 . S
C229 C228 1.349 . S
C229 C245 1.349 . S
C230 C228 1.327 . S
C230 C249 1.429 . S
C230 H254 0.950 . S
C231 C248 1.574 1_655 S
C231 C250 1.368 . S
C231 H255 0.949 . S
H232 C236 0.949 . S
C233 C234 1.349 . S
C233 C235 1.327 . S
C233 H256 0.950 . S
C234 C233 1.349 . S
C234 C246 1.349 . S
C235 C233 1.327 . S
C235 C251 1.429 . S
C235 H257 0.950 . S
C236 H232 0.949 . S
C236 C244 1.574 1_455 S
C236 C252 1.368 . S
H237 C245 0.950 . S
H238 C243 0.950 . S
H239 C244 0.949 . S
H240 C246 0.950 . S
H241 C247 0.950 . S
H242 C248 0.949 . S
C243 H238 0.950 . S
C243 C245 1.327 . S
C243 C249 1.429 . S
C244 C236 1.574 1_655 S
C244 H239 0.949 . S
C244 C250 1.368 . S
C245 C229 1.349 . S
C245 H237 0.950 . S
C245 C243 1.327 . S
C246 C234 1.349 . S
C246 H240 0.950 . S
C246 C247 1.327 . S
C247 H241 0.950 . S
C247 C246 1.327 . S
C247 C251 1.429 . S
C248 C231 1.574 1_455 S
C248 H242 0.949 . S
C248 C252 1.368 . S
C249 C230 1.429 . S
C249 C243 1.429 . S
C249 C250 1.523 . S
C250 C231 1.368 . S
C250 C244 1.368 . S
C250 C249 1.523 . S
C251 C235 1.429 . S
C251 C247 1.429 . S
C251 C252 1.523 . S
C252 C236 1.368 . S
C252 C248 1.368 . S
C252 C251 1.523 . S
H253 C228 0.950 . S
H254 C230 0.950 . S
H255 C231 0.949 . S
H256 C233 0.950 . S
H257 C235 0.950 . S
C258 C259 1.349 . S
C258 C260 1.327 . S
C258 H283 0.950 . S
C259 C258 1.349 . S
C259 C275 1.349 . S
C260 C258 1.327 . S
C260 C279 1.429 . S
C260 H284 0.950 . S
C261 C278 1.574 1_565 S
C261 C280 1.368 1_556 S
C261 H285 0.949 . S
H262 C266 0.949 . S
C263 C264 1.349 . S
C263 C265 1.327 . S
C263 H286 0.950 . S
C264 C263 1.349 . S
C264 C276 1.349 . S
C265 C263 1.327 . S
C265 C281 1.429 . S
C265 H287 0.950 . S
C266 H262 0.949 . S
C266 C274 1.574 1_545 S
C266 C282 1.368 1_554 S
H267 C275 0.950 . S
H268 C273 0.950 1_556 S
H269 C274 0.949 . S
H270 C276 0.950 . S
H271 C277 0.950 1_554 S
H272 C278 0.949 . S
C273 H268 0.950 1_554 S
C273 C275 1.327 . S
C273 C279 1.429 . S
C274 C266 1.574 1_565 S
C274 H269 0.949 . S
C274 C280 1.368 . S
C275 C259 1.349 . S
C275 H267 0.950 . S
C275 C273 1.327 . S
C276 C264 1.349 . S
C276 H270 0.950 . S
C276 C277 1.327 . S
C277 H271 0.950 1_556 S
C277 C276 1.327 . S
C277 C281 1.429 . S
C278 C261 1.574 1_545 S
C278 H272 0.949 . S
C278 C282 1.368 . S
C279 C260 1.429 . S
C279 C273 1.429 . S
C279 C280 1.523 . S
C280 C261 1.368 1_554 S
C280 C274 1.368 . S
C280 C279 1.523 . S
C281 C265 1.429 . S
C281 C277 1.429 . S
C281 C282 1.523 . S
C282 C266 1.368 1_556 S
C282 C278 1.368 . S
C282 C281 1.523 . S
H283 C258 0.950 . S
H284 C260 0.950 . S
H285 C261 0.949 . S
H286 C263 0.950 . S
H287 C265 0.950 . S
C288 C289 1.349 . S
C288 C290 1.327 . S
C288 H313 0.950 . S
C289 C288 1.349 . S
C289 C305 1.349 . S
C290 C288 1.327 . S
C290 C309 1.429 . S
C290 H314 0.950 . S
C291 C308 1.574 . S
C291 C310 1.368 . S
C291 H315 0.949 . S
H292 C296 0.949 . S
C293 C294 1.349 . S
C293 C295 1.327 . S
C293 H316 0.950 . S
C294 C293 1.349 . S
C294 C306 1.349 . S
C295 C293 1.327 . S
C295 C311 1.429 . S
C295 H317 0.950 . S
C296 H292 0.949 . S
C296 C304 1.574 . S
C296 C312 1.368 . S
H297 C305 0.950 . S
H298 C303 0.950 . S
H299 C304 0.949 . S
H300 C306 0.950 . S
H301 C307 0.950 . S
H302 C308 0.949 . S
C303 H298 0.950 . S
C303 C305 1.327 . S
C303 C309 1.429 . S
C304 C296 1.574 . S
C304 H299 0.949 . S
C304 C310 1.368 . S
C305 C289 1.349 . S
C305 H297 0.950 . S
C305 C303 1.327 . S
C306 C294 1.349 . S
C306 H300 0.950 . S
C306 C307 1.327 . S
C307 H301 0.950 . S
C307 C306 1.327 . S
C307 C311 1.429 . S
C308 C291 1.574 . S
C308 H302 0.949 . S
C308 C312 1.368 . S
C309 C290 1.429 . S
C309 C303 1.429 . S
C309 C310 1.523 . S
C310 C291 1.368 . S
C310 C304 1.368 . S
C310 C309 1.523 . S
C311 C295 1.429 . S
C311 C307 1.429 . S
C311 C312 1.523 . S
C312 C296 1.368 . S
C312 C308 1.368 . S
C312 C311 1.523 . S
H313 C288 0.950 . S
H314 C290 0.950 . S
H315 C291 0.949 . S
H316 C293 0.950 . S
H317 C295 0.950 . S
C318 C319 1.349 . S
C318 C320 1.327 . S
C318 H343 0.950 . S
C319 C318 1.349 . S
C319 C335 1.349 . S
C320 C318 1.327 . S
C320 C339 1.429 . S
C320 H344 0.950 . S
C321 C338 1.574 1_655 S
C321 C340 1.368 . S
C321 H345 0.949 . S
H322 C326 0.949 . S
C323 C324 1.349 . S
C323 C325 1.327 . S
C323 H346 0.950 . S
C324 C323 1.349 . S
C324 C336 1.349 . S
C325 C323 1.327 . S
C325 C341 1.429 . S
C325 H347 0.950 . S
C326 H322 0.949 . S
C326 C334 1.574 1_455 S
C326 C342 1.368 . S
H327 C335 0.950 . S
H328 C333 0.950 . S
H329 C334 0.949 . S
H330 C336 0.950 . S
H331 C337 0.950 . S
H332 C338 0.949 . S
C333 H328 0.950 . S
C333 C335 1.327 . S
C333 C339 1.429 . S
C334 C326 1.574 1_655 S
C334 H329 0.949 . S
C334 C340 1.368 . S
C335 C319 1.349 . S
C335 H327 0.950 . S
C335 C333 1.327 . S
C336 C324 1.349 . S
C336 H330 0.950 . S
C336 C337 1.327 . S
C337 H331 0.950 . S
C337 C336 1.327 . S
C337 C341 1.429 . S
C338 C321 1.574 1_455 S
C338 H332 0.949 . S
C338 C342 1.368 . S
C339 C320 1.429 . S
C339 C333 1.429 . S
C339 C340 1.523 . S
C340 C321 1.368 . S
C340 C334 1.368 . S
C340 C339 1.523 . S
C341 C325 1.429 . S
C341 C337 1.429 . S
C341 C342 1.523 . S
C342 C326 1.368 . S
C342 C338 1.368 . S
C342 C341 1.523 . S
H343 C318 0.950 . S
H344 C320 0.950 . S
H345 C321 0.949 . S
H346 C323 0.950 . S
H347 C325 0.950 . S
C348 C349 1.349 . S
C348 C350 1.327 . S
C348 H373 0.950 . S
C349 C348 1.349 . S
C349 C365 1.349 . S
C350 C348 1.327 . S
C350 C369 1.429 . S
C350 H374 0.950 . S
C351 C368 1.574 . S
C351 C370 1.368 1_554 S
C351 H375 0.949 . S
H352 C356 0.949 . S
C353 C354 1.349 . S
C353 C355 1.327 . S
C353 H376 0.950 . S
C354 C353 1.349 . S
C354 C366 1.349 . S
C355 C353 1.327 . S
C355 C371 1.429 . S
C355 H377 0.950 . S
C356 H352 0.949 . S
C356 C364 1.574 . S
C356 C372 1.368 1_556 S
H357 C365 0.950 . S
H358 C363 0.950 . S
H359 C364 0.949 . S
H360 C366 0.950 . S
H361 C367 0.950 . S
H362 C368 0.949 . S
C363 H358 0.950 . S
C363 C365 1.327 . S
C363 C369 1.429 . S
C364 C356 1.574 . S
C364 H359 0.949 . S
C364 C370 1.368 . S
C365 C349 1.349 . S
C365 H357 0.950 . S
C365 C363 1.327 . S
C366 C354 1.349 . S
C366 H360 0.950 . S
C366 C367 1.327 . S
C367 H361 0.950 . S
C367 C366 1.327 . S
C367 C371 1.429 . S
C368 C351 1.574 . S
C368 H362 0.949 . S
C368 C372 1.368 . S
C369 C350 1.429 . S
C369 C363 1.429 . S
C369 C370 1.523 . S
C370 C351 1.368 1_556 S
C370 C364 1.368 . S
C370 C369 1.523 . S
C371 C355 1.429 . S
C371 C367 1.429 . S
C371 C372 1.523 . S
C372 C356 1.368 1_554 S
C372 C368 1.368 . S
C372 C371 1.523 . S
H373 C348 0.950 . S
H374 C350 0.950 . S
H375 C351 0.949 . S
H376 C353 0.950 . S
H377 C355 0.950 . S
C378 C379 1.349 . S
C378 C380 1.327 . S
C378 H403 0.950 . S
C379 C378 1.349 . S
C379 C395 1.349 . S
C380 C378 1.327 . S
C380 C399 1.429 . S
C380 H404 0.950 . S
C381 C398 1.574 . S
C381 C400 1.368 . S
C381 H405 0.949 . S
H382 C386 0.949 . S
C383 C384 1.349 . S
C383 C385 1.327 . S
C383 H406 0.950 . S
C384 C383 1.349 . S
C384 C396 1.349 . S
C385 C383 1.327 . S
C385 C401 1.429 . S
C385 H407 0.950 . S
C386 H382 0.949 . S
C386 C394 1.574 . S
C386 C402 1.368 . S
H387 C395 0.950 . S
H388 C393 0.950 . S
H389 C394 0.949 . S
H390 C396 0.950 . S
H391 C397 0.950 . S
H392 C398 0.949 . S
C393 H388 0.950 . S
C393 C395 1.327 . S
C393 C399 1.429 . S
C394 C386 1.574 . S
C394 H389 0.949 . S
C394 C400 1.368 . S
C395 C379 1.349 . S
C395 H387 0.950 . S
C395 C393 1.327 . S
C396 C384 1.349 . S
C396 H390 0.950 . S
C396 C397 1.327 . S
C397 H391 0.950 . S
C397 C396 1.327 . S
C397 C401 1.429 . S
C398 C381 1.574 . S
C398 H392 0.949 . S
C398 C402 1.368 . S
C399 C380 1.429 . S
C399 C393 1.429 . S
C399 C400 1.523 . S
C400 C381 1.368 . S
C400 C394 1.368 . S
C400 C399 1.523 . S
C401 C385 1.429 . S
C401 C397 1.429 . S
C401 C402 1.523 . S
C402 C386 1.368 . S
C402 C398 1.368 . S
C402 C401 1.523 . S
H403 C378 0.950 . S
H404 C380 0.950 . S
H405 C381 0.949 . S
H406 C383 0.950 . S
H407 C385 0.950 . S
C408 C409 1.349 . S
C408 C410 1.327 . S
C408 H433 0.950 . S
C409 C408 1.349 . S
C409 C425 1.349 . S
C410 C408 1.327 . S
C410 C429 1.429 . S
C410 H434 0.950 . S
C411 C428 1.574 . S
C411 C430 1.368 . S
C411 H435 0.949 . S
H412 C416 0.949 . S
C413 C414 1.349 . S
C413 C415 1.327 . S
C413 H436 0.950 . S
C414 C413 1.349 . S
C414 C426 1.349 . S
C415 C413 1.327 . S
C415 C431 1.429 . S
C415 H437 0.950 . S
C416 H412 0.949 . S
C416 C424 1.574 . S
C416 C432 1.368 . S
H417 C425 0.950 . S
H418 C423 0.950 . S
H419 C424 0.949 . S
H420 C426 0.950 . S
H421 C427 0.950 . S
H422 C428 0.949 . S
C423 H418 0.950 . S
C423 C425 1.327 . S
C423 C429 1.429 . S
C424 C416 1.574 . S
C424 H419 0.949 . S
C424 C430 1.368 . S
C425 C409 1.349 . S
C425 H417 0.950 . S
C425 C423 1.327 . S
C426 C414 1.349 . S
C426 H420 0.950 . S
C426 C427 1.327 . S
C427 H421 0.950 . S
C427 C426 1.327 . S
C427 C431 1.429 . S
C428 C411 1.574 . S
C428 H422 0.949 . S
C428 C432 1.368 . S
C429 C410 1.429 . S
C429 C423 1.429 . S
C429 C430 1.523 . S
C430 C411 1.368 . S
C430 C424 1.368 . S
C430 C429 1.523 . S
C431 C415 1.429 . S
C431 C427 1.429 . S
C431 C432 1.523 . S
C432 C416 1.368 . S
C432 C428 1.368 . S
C432 C431 1.523 . S
H433 C408 0.950 . S
H434 C410 0.950 . S
H435 C411 0.949 . S
H436 C413 0.950 . S
H437 C415 0.950 . S
C438 C439 1.349 . S
C438 C440 1.327 . S
C438 H463 0.950 . S
C439 C438 1.349 . S
C439 C455 1.349 . S
C440 C438 1.327 . S
C440 C459 1.429 . S
C440 H464 0.950 . S
C441 C458 1.574 . S
C441 C460 1.368 . S
C441 H465 0.949 . S
H442 C446 0.949 . S
C443 C444 1.349 . S
C443 C445 1.327 . S
C443 H466 0.950 . S
C444 C443 1.349 . S
C444 C456 1.349 . S
C445 C443 1.327 . S
C445 C461 1.429 . S
C445 H467 0.950 . S
C446 H442 0.949 . S
C446 C454 1.574 . S
C446 C462 1.368 . S
H447 C455 0.950 . S
H448 C453 0.950 . S
H449 C454 0.949 . S
H450 C456 0.950 . S
H451 C457 0.950 . S
H452 C458 0.949 . S
C453 H448 0.950 . S
C453 C455 1.327 . S
C453 C459 1.429 . S
C454 C446 1.574 . S
C454 H449 0.949 . S
C454 C460 1.368 1_554 S
C455 C439 1.349 . S
C455 H447 0.950 . S
C455 C453 1.327 . S
C456 C444 1.349 . S
C456 H450 0.950 . S
C456 C457 1.327 . S
C457 H451 0.950 . S
C457 C456 1.327 . S
C457 C461 1.429 . S
C458 C441 1.574 . S
C458 H452 0.949 . S
C458 C462 1.368 1_556 S
C459 C440 1.429 . S
C459 C453 1.429 . S
C459 C460 1.523 . S
C460 C441 1.368 . S
C460 C454 1.368 1_556 S
C460 C459 1.523 . S
C461 C445 1.429 . S
C461 C457 1.429 . S
C461 C462 1.523 . S
C462 C446 1.368 . S
C462 C458 1.368 1_554 S
C462 C461 1.523 . S
H463 C438 0.950 . S
H464 C440 0.950 . S
H465 C441 0.949 . S
H466 C443 0.950 . S
H467 C445 0.950 . S
C468 C469 1.349 . S
C468 C470 1.327 . S
C468 H493 0.950 . S
C469 C468 1.349 . S
C469 C485 1.349 . S
C470 C468 1.327 . S
C470 C489 1.429 . S
C470 H494 0.950 . S
C471 C488 1.574 . S
C471 C490 1.368 . S
C471 H495 0.949 . S
H472 C476 0.949 . S
C473 C474 1.349 . S
C473 C475 1.327 . S
C473 H496 0.950 . S
C474 C473 1.349 . S
C474 C486 1.349 . S
C475 C473 1.327 . S
C475 C491 1.429 . S
C475 H497 0.950 . S
C476 H472 0.949 . S
C476 C484 1.574 . S
C476 C492 1.368 . S
H477 C485 0.950 . S
H478 C483 0.950 . S
H479 C484 0.949 . S
H480 C486 0.950 . S
H481 C487 0.950 . S
H482 C488 0.949 . S
C483 H478 0.950 . S
C483 C485 1.327 . S
C483 C489 1.429 . S
C484 C476 1.574 . S
C484 H479 0.949 . S
C484 C490 1.368 . S
C485 C469 1.349 . S
C485 H477 0.950 . S
C485 C483 1.327 . S
C486 C474 1.349 . S
C486 H480 0.950 . S
C486 C487 1.327 . S
C487 H481 0.950 . S
C487 C486 1.327 . S
C487 C491 1.429 . S
C488 C471 1.574 . S
C488 H482 0.949 . S
C488 C492 1.368 . S
C489 C470 1.429 . S
C489 C483 1.429 . S
C489 C490 1.523 . S
C490 C471 1.368 . S
C490 C484 1.368 . S
C490 C489 1.523 . S
C491 C475 1.429 . S
C491 C487 1.429 . S
C491 C492 1.523 . S
C492 C476 1.368 . S
C492 C488 1.368 . S
C492 C491 1.523 . S
H493 C468 0.950 . S
H494 C470 0.950 . S
H495 C471 0.949 . S
H496 C473 0.950 . S
H497 C475 0.950 . S
C498 C499 1.349 . S
C498 C500 1.327 . S
C498 H523 0.950 . S
C499 C498 1.349 . S
C499 C515 1.349 . S
C500 C498 1.327 . S
C500 C519 1.429 . S
C500 H524 0.950 . S
C501 C518 1.574 . S
C501 C520 1.368 . S
C501 H525 0.949 . S
H502 C506 0.949 . S
C503 C504 1.349 . S
C503 C505 1.327 . S
C503 H526 0.950 . S
C504 C503 1.349 . S
C504 C516 1.349 . S
C505 C503 1.327 . S
C505 C521 1.429 . S
C505 H527 0.950 . S
C506 H502 0.949 . S
C506 C514 1.574 . S
C506 C522 1.368 . S
H507 C515 0.950 . S
H508 C513 0.950 . S
H509 C514 0.949 . S
H510 C516 0.950 . S
H511 C517 0.950 . S
H512 C518 0.949 . S
C513 H508 0.950 . S
C513 C515 1.327 . S
C513 C519 1.429 . S
C514 C506 1.574 . S
C514 H509 0.949 . S
C514 C520 1.368 . S
C515 C499 1.349 . S
C515 H507 0.950 . S
C515 C513 1.327 . S
C516 C504 1.349 . S
C516 H510 0.950 . S
C516 C517 1.327 . S
C517 H511 0.950 . S
C517 C516 1.327 . S
C517 C521 1.429 . S
C518 C501 1.574 . S
C518 H512 0.949 . S
C518 C522 1.368 . S
C519 C500 1.429 . S
C519 C513 1.429 . S
C519 C520 1.523 . S
C520 C501 1.368 . S
C520 C514 1.368 . S
C520 C519 1.523 . S
C521 C505 1.429 . S
C521 C517 1.429 . S
C521 C522 1.523 . S
C522 C506 1.368 . S
C522 C518 1.368 . S
C522 C521 1.523 . S
H523 C498 0.950 . S
H524 C500 0.950 . S
H525 C501 0.949 . S
H526 C503 0.950 . S
H527 C505 0.950 . S
C528 C529 1.349 . S
C528 C530 1.327 . S
C528 H553 0.950 . S
C529 C528 1.349 . S
C529 C545 1.349 . S
C530 C528 1.327 . S
C530 C549 1.429 . S
C530 H554 0.950 . S
C531 C548 1.574 . S
C531 C550 1.368 . S
C531 H555 0.949 . S
H532 C536 0.949 . S
C533 C534 1.349 . S
C533 C535 1.327 . S
C533 H556 0.950 . S
C534 C533 1.349 . S
C534 C546 1.349 . S
C535 C533 1.327 . S
C535 C551 1.429 . S
C535 H557 0.950 . S
C536 H532 0.949 . S
C536 C544 1.574 . S
C536 C552 1.368 . S
H537 C545 0.950 . S
H538 C543 0.950 . S
H539 C544 0.949 . S
H540 C546 0.950 . S
H541 C547 0.950 . S
H542 C548 0.949 . S
C543 H538 0.950 . S
C543 C545 1.327 . S
C543 C549 1.429 . S
C544 C536 1.574 . S
C544 H539 0.949 . S
C544 C550 1.368 . S
C545 C529 1.349 . S
C545 H537 0.950 . S
C545 C543 1.327 . S
C546 C534 1.349 . S
C546 H540 0.950 . S
C546 C547 1.327 . S
C547 H541 0.950 . S
C547 C546 1.327 . S
C547 C551 1.429 . S
C548 C531 1.574 . S
C548 H542 0.949 . S
C548 C552 1.368 . S
C549 C530 1.429 . S
C549 C543 1.429 . S
C549 C550 1.523 . S
C550 C531 1.368 . S
C550 C544 1.368 . S
C550 C549 1.523 . S
C551 C535 1.429 . S
C551 C547 1.429 . S
C551 C552 1.523 . S
C552 C536 1.368 . S
C552 C548 1.368 . S
C552 C551 1.523 . S
H553 C528 0.950 . S
H554 C530 0.950 . S
H555 C531 0.949 . S
H556 C533 0.950 . S
H557 C535 0.950 . S
C558 C559 1.349 . S
C558 C560 1.327 . S
C558 H583 0.950 . S
C559 C558 1.349 . S
C559 C575 1.349 . S
C560 C558 1.327 . S
C560 C579 1.429 . S
C560 H584 0.950 . S
C561 C578 1.574 . S
C561 C580 1.368 . S
C561 H585 0.949 . S
H562 C566 0.949 . S
C563 C564 1.349 . S
C563 C565 1.327 . S
C563 H586 0.950 . S
C564 C563 1.349 . S
C564 C576 1.349 . S
C565 C563 1.327 . S
C565 C581 1.429 . S
C565 H587 0.950 . S
C566 H562 0.949 . S
C566 C574 1.574 . S
C566 C582 1.368 . S
H567 C575 0.950 . S
H568 C573 0.950 . S
H569 C574 0.949 . S
H570 C576 0.950 . S
H571 C577 0.950 . S
H572 C578 0.949 . S
C573 H568 0.950 . S
C573 C575 1.327 . S
C573 C579 1.429 . S
C574 C566 1.574 . S
C574 H569 0.949 . S
C574 C580 1.368 . S
C575 C559 1.349 . S
C575 H567 0.950 . S
C575 C573 1.327 . S
C576 C564 1.349 . S
C576 H570 0.950 . S
C576 C577 1.327 . S
C577 H571 0.950 . S
C577 C576 1.327 . S
C577 C581 1.429 . S
C578 C561 1.574 . S
C578 H572 0.949 . S
C578 C582 1.368 . S
C579 C560 1.429 . S
C579 C573 1.429 . S
C579 C580 1.523 . S
C580 C561 1.368 . S
C580 C574 1.368 . S
C580 C579 1.523 . S
C581 C565 1.429 . S
C581 C577 1.429 . S
C581 C582 1.523 . S
C582 C566 1.368 . S
C582 C578 1.368 . S
C582 C581 1.523 . S
H583 C558 0.950 . S
H584 C560 0.950 . S
H585 C561 0.949 . S
H586 C563 0.950 . S
H587 C565 0.950 . S
C588 C589 1.349 . S
C588 C590 1.327 . S
C588 H613 0.950 . S
C589 C588 1.349 . S
C589 C605 1.349 . S
C590 C588 1.327 . S
C590 C609 1.429 . S
C590 H614 0.950 . S
C591 C608 1.574 . S
C591 C610 1.368 . S
C591 H615 0.949 . S
H592 C596 0.949 . S
C593 C594 1.349 . S
C593 C595 1.327 . S
C593 H616 0.950 . S
C594 C593 1.349 . S
C594 C606 1.349 . S
C595 C593 1.327 . S
C595 C611 1.429 . S
C595 H617 0.950 . S
C596 H592 0.949 . S
C596 C604 1.574 . S
C596 C612 1.368 . S
H597 C605 0.950 . S
H598 C603 0.950 . S
H599 C604 0.949 . S
H600 C606 0.950 . S
H601 C607 0.950 . S
H602 C608 0.949 . S
C603 H598 0.950 . S
C603 C605 1.327 . S
C603 C609 1.429 . S
C604 C596 1.574 . S
C604 H599 0.949 . S
C604 C610 1.368 . S
C605 C589 1.349 . S
C605 H597 0.950 . S
C605 C603 1.327 . S
C606 C594 1.349 . S
C606 H600 0.950 . S
C606 C607 1.327 . S
C607 H601 0.950 . S
C607 C606 1.327 . S
C607 C611 1.429 . S
C608 C591 1.574 . S
C608 H602 0.949 . S
C608 C612 1.368 . S
C609 C590 1.429 . S
C609 C603 1.429 . S
C609 C610 1.523 . S
C610 C591 1.368 . S
C610 C604 1.368 . S
C610 C609 1.523 . S
C611 C595 1.429 . S
C611 C607 1.429 . S
C611 C612 1.523 . S
C612 C596 1.368 . S
C612 C608 1.368 . S
C612 C611 1.523 . S
H613 C588 0.950 . S
H614 C590 0.950 . S
H615 C591 0.949 . S
H616 C593 0.950 . S
H617 C595 0.950 . S
C618 C619 1.349 . S
C618 C620 1.327 . S
C618 H643 0.950 . S
C619 C618 1.349 . S
C619 C635 1.349 . S
C620 C618 1.327 . S
C620 C639 1.429 . S
C620 H644 0.950 . S
C621 C638 1.574 . S
C621 C640 1.368 . S
C621 H645 0.949 . S
H622 C626 0.949 . S
C623 C624 1.349 . S
C623 C625 1.327 . S
C623 H646 0.950 . S
C624 C623 1.349 . S
C624 C636 1.349 . S
C625 C623 1.327 . S
C625 C641 1.429 . S
C625 H647 0.950 . S
C626 H622 0.949 . S
C626 C634 1.574 . S
C626 C642 1.368 . S
H627 C635 0.950 . S
H628 C633 0.950 . S
H629 C634 0.949 . S
H630 C636 0.950 . S
H631 C637 0.950 . S
H632 C638 0.949 . S
C633 H628 0.950 . S
C633 C635 1.327 . S
C633 C639 1.429 . S
C634 C626 1.574 . S
C634 H629 0.949 . S
C634 C640 1.368 . S
C635 C619 1.349 . S
C635 H627 0.950 . S
C635 C633 1.327 . S
C636 C624 1.349 . S
C636 H630 0.950 . S
C636 C637 1.327 . S
C637 H631 0.950 . S
C637 C636 1.327 . S
C637 C641 1.429 . S
C638 C621 1.574 . S
C638 H632 0.949 . S
C638 C642 1.368 . S
C639 C620 1.429 . S
C639 C633 1.429 . S
C639 C640 1.523 . S
C640 C621 1.368 . S
C640 C634 1.368 . S
C640 C639 1.523 . S
C641 C625 1.429 . S
C641 C637 1.429 . S
C641 C642 1.523 . S
C642 C626 1.368 . S
C642 C638 1.368 . S
C642 C641 1.523 . S
H643 C618 0.950 . S
H644 C620 0.950 . S
H645 C621 0.949 . S
H646 C623 0.950 . S
H647 C625 0.950 . S
C648 C649 1.349 . S
C648 C650 1.327 . S
C648 H673 0.950 . S
C649 C648 1.349 . S
C649 C665 1.349 . S
C650 C648 1.327 . S
C650 C669 1.429 . S
C650 H674 0.950 . S
C651 C668 1.574 . S
C651 C670 1.368 . S
C651 H675 0.949 . S
H652 C656 0.949 . S
C653 C654 1.349 . S
C653 C655 1.327 . S
C653 H676 0.950 . S
C654 C653 1.349 . S
C654 C666 1.349 . S
C655 C653 1.327 . S
C655 C671 1.429 . S
C655 H677 0.950 . S
C656 H652 0.949 . S
C656 C664 1.574 . S
C656 C672 1.368 . S
H657 C665 0.950 . S
H658 C663 0.950 . S
H659 C664 0.949 . S
H660 C666 0.950 . S
H661 C667 0.950 . S
H662 C668 0.949 . S
C663 H658 0.950 . S
C663 C665 1.327 . S
C663 C669 1.429 . S
C664 C656 1.574 . S
C664 H659 0.949 . S
C664 C670 1.368 . S
C665 C649 1.349 . S
C665 H657 0.950 . S
C665 C663 1.327 . S
C666 C654 1.349 . S
C666 H660 0.950 . S
C666 C667 1.327 . S
C667 H661 0.950 . S
C667 C666 1.327 . S
C667 C671 1.429 . S
C668 C651 1.574 . S
C668 H662 0.949 . S
C668 C672 1.368 . S
C669 C650 1.429 . S
C669 C663 1.429 . S
C669 C670 1.523 . S
C670 C651 1.368 . S
C670 C664 1.368 . S
C670 C669 1.523 . S
C671 C655 1.429 . S
C671 C667 1.429 . S
C671 C672 1.523 . S
C672 C656 1.368 . S
C672 C668 1.368 . S
C672 C671 1.523 . S
H673 C648 0.950 . S
H674 C650 0.950 . S
H675 C651 0.949 . S
H676 C653 0.950 . S
H677 C655 0.950 . S
C678 C679 1.349 . S
C678 C680 1.327 . S
C678 H703 0.950 . S
C679 C678 1.349 . S
C679 C695 1.349 . S
C680 C678 1.327 . S
C680 C699 1.429 . S
C680 H704 0.950 . S
C681 C698 1.574 . S
C681 C700 1.368 . S
C681 H705 0.949 . S
H682 C686 0.949 . S
C683 C684 1.349 . S
C683 C685 1.327 . S
C683 H706 0.950 . S
C684 C683 1.349 . S
C684 C696 1.349 . S
C685 C683 1.327 . S
C685 C701 1.429 . S
C685 H707 0.950 . S
C686 H682 0.949 . S
C686 C694 1.574 . S
C686 C702 1.368 . S
H687 C695 0.950 . S
H688 C693 0.950 . S
H689 C694 0.949 . S
H690 C696 0.950 . S
H691 C697 0.950 . S
H692 C698 0.949 . S
C693 H688 0.950 . S
C693 C695 1.327 . S
C693 C699 1.429 . S
C694 C686 1.574 . S
C694 H689 0.949 . S
C694 C700 1.368 . S
C695 C679 1.349 . S
C695 H687 0.950 . S
C695 C693 1.327 . S
C696 C684 1.349 . S
C696 H690 0.950 . S
C696 C697 1.327 . S
C697 H691 0.950 . S
C697 C696 1.327 . S
C697 C701 1.429 . S
C698 C681 1.574 . S
C698 H692 0.949 . S
C698 C702 1.368 . S
C699 C680 1.429 . S
C699 C693 1.429 . S
C699 C700 1.523 . S
C700 C681 1.368 . S
C700 C694 1.368 . S
C700 C699 1.523 . S
C701 C685 1.429 . S
C701 C697 1.429 . S
C701 C702 1.523 . S
C702 C686 1.368 . S
C702 C698 1.368 . S
C702 C701 1.523 . S
H703 C678 0.950 . S
H704 C680 0.950 . S
H705 C681 0.949 . S
H706 C683 0.950 . S
H707 C685 0.950 . S
C708 C709 1.349 . S
C708 C710 1.327 . S
C708 H733 0.950 . S
C709 C708 1.349 . S
C709 C725 1.349 . S
C710 C708 1.327 . S
C710 C729 1.429 . S
C710 H734 0.950 . S
C711 C728 1.574 . S
C711 C730 1.368 . S
C711 H735 0.949 . S
H712 C716 0.949 . S
C713 C714 1.349 . S
C713 C715 1.327 . S
C713 H736 0.950 . S
C714 C713 1.349 . S
C714 C726 1.349 . S
C715 C713 1.327 . S
C715 C731 1.429 . S
C715 H737 0.950 . S
C716 H712 0.949 . S
C716 C724 1.574 . S
C716 C732 1.368 . S
H717 C725 0.950 . S
H718 C723 0.950 . S
H719 C724 0.949 . S
H720 C726 0.950 . S
H721 C727 0.950 . S
H722 C728 0.949 . S
C723 H718 0.950 . S
C723 C725 1.327 . S
C723 C729 1.429 . S
C724 C716 1.574 . S
C724 H719 0.949 . S
C724 C730 1.368 . S
C725 C709 1.349 . S
C725 H717 0.950 . S
C725 C723 1.327 . S
C726 C714 1.349 . S
C726 H720 0.950 . S
C726 C727 1.327 . S
C727 H721 0.950 . S
C727 C726 1.327 . S
C727 C731 1.429 . S
C728 C711 1.574 . S
C728 H722 0.949 . S
C728 C732 1.368 . S
C729 C710 1.429 . S
C729 C723 1.429 . S
C729 C730 1.523 . S
C730 C711 1.368 . S
C730 C724 1.368 . S
C730 C729 1.523 . S
C731 C715 1.429 . S
C731 C727 1.429 . S
C731 C732 1.523 . S
C732 C716 1.368 . S
C732 C728 1.368 . S
C732 C731 1.523 . S
H733 C708 0.950 . S
H734 C710 0.950 . S
H735 C711 0.949 . S
H736 C713 0.950 . S
H737 C715 0.950 . S
C738 C739 1.349 . S
C738 C740 1.327 . S
C738 H763 0.950 . S
C739 C738 1.349 . S
C739 C755 1.349 . S
C740 C738 1.327 . S
C740 C759 1.429 . S
C740 H764 0.950 . S
C741 C758 1.574 . S
C741 C760 1.368 1_455 S
C741 H765 0.949 . S
H742 C746 0.949 . S
C743 C744 1.349 . S
C743 C745 1.327 . S
C743 H766 0.950 . S
C744 C743 1.349 . S
C744 C756 1.349 . S
C745 C743 1.327 . S
C745 C761 1.429 . S
C745 H767 0.950 . S
C746 H742 0.949 . S
C746 C754 1.574 . S
C746 C762 1.368 1_655 S
H747 C755 0.950 . S
H748 C753 0.950 . S
H749 C754 0.949 . S
H750 C756 0.950 . S
H751 C757 0.950 . S
H752 C758 0.949 . S
C753 H748 0.950 . S
C753 C755 1.327 . S
C753 C759 1.429 . S
C754 C746 1.574 . S
C754 H749 0.949 . S
C754 C760 1.368 . S
C755 C739 1.349 . S
C755 H747 0.950 . S
C755 C753 1.327 . S
C756 C744 1.349 . S
C756 H750 0.950 . S
C756 C757 1.327 . S
C757 H751 0.950 . S
C757 C756 1.327 . S
C757 C761 1.429 . S
C758 C741 1.574 . S
C758 H752 0.949 . S
C758 C762 1.368 . S
C759 C740 1.429 . S
C759 C753 1.429 . S
C759 C760 1.523 . S
C760 C741 1.368 1_655 S
C760 C754 1.368 . S
C760 C759 1.523 . S
C761 C745 1.429 . S
C761 C757 1.429 . S
C761 C762 1.523 . S
C762 C746 1.368 1_455 S
C762 C758 1.368 . S
C762 C761 1.523 . S
H763 C738 0.950 . S
H764 C740 0.950 . S
H765 C741 0.949 . S
H766 C743 0.950 . S
H767 C745 0.950 . S
C768 C769 1.349 . S
C768 C770 1.327 . S
C768 H793 0.950 . S
C769 C768 1.349 . S
C769 C785 1.349 . S
C770 C768 1.327 . S
C770 C789 1.429 . S
C770 H794 0.950 . S
C771 C788 1.574 . S
C771 C790 1.368 . S
C771 H795 0.949 . S
H772 C776 0.949 . S
C773 C774 1.349 . S
C773 C775 1.327 . S
C773 H796 0.950 . S
C774 C773 1.349 . S
C774 C786 1.349 . S
C775 C773 1.327 . S
C775 C791 1.429 . S
C775 H797 0.950 . S
C776 H772 0.949 . S
C776 C784 1.574 . S
C776 C792 1.368 . S
H777 C785 0.950 . S
H778 C783 0.950 . S
H779 C784 0.949 . S
H780 C786 0.950 . S
H781 C787 0.950 . S
H782 C788 0.949 . S
C783 H778 0.950 . S
C783 C785 1.327 . S
C783 C789 1.429 . S
C784 C776 1.574 . S
C784 H779 0.949 . S
C784 C790 1.368 1_565 S
C785 C769 1.349 . S
C785 H777 0.950 . S
C785 C783 1.327 . S
C786 C774 1.349 . S
C786 H780 0.950 . S
C786 C787 1.327 . S
C787 H781 0.950 . S
C787 C786 1.327 . S
C787 C791 1.429 . S
C788 C771 1.574 . S
C788 H782 0.949 . S
C788 C792 1.368 1_545 S
C789 C770 1.429 . S
C789 C783 1.429 . S
C789 C790 1.523 . S
C790 C771 1.368 . S
C790 C784 1.368 1_545 S
C790 C789 1.523 . S
C791 C775 1.429 . S
C791 C787 1.429 . S
C791 C792 1.523 . S
C792 C776 1.368 . S
C792 C788 1.368 1_565 S
C792 C791 1.523 . S
H793 C768 0.950 . S
H794 C770 0.950 . S
H795 C771 0.949 . S
H796 C773 0.950 . S
H797 C775 0.950 . S
C798 C799 1.349 . S
C798 C800 1.327 . S
C798 H823 0.950 . S
C799 C798 1.349 . S
C799 C815 1.349 . S
C800 C798 1.327 . S
C800 C819 1.429 . S
C800 H824 0.950 . S
C801 C818 1.574 . S
C801 C820 1.368 . S
C801 H825 0.949 . S
H802 C806 0.949 . S
C803 C804 1.349 . S
C803 C805 1.327 . S
C803 H826 0.950 . S
C804 C803 1.349 . S
C804 C816 1.349 . S
C805 C803 1.327 . S
C805 C821 1.429 . S
C805 H827 0.950 . S
C806 H802 0.949 . S
C806 C814 1.574 . S
C806 C822 1.368 . S
H807 C815 0.950 . S
H808 C813 0.950 . S
H809 C814 0.949 . S
H810 C816 0.950 . S
H811 C817 0.950 . S
H812 C818 0.949 . S
C813 H808 0.950 . S
C813 C815 1.327 . S
C813 C819 1.429 . S
C814 C806 1.574 . S
C814 H809 0.949 . S
C814 C820 1.368 . S
C815 C799 1.349 . S
C815 H807 0.950 . S
C815 C813 1.327 . S
C816 C804 1.349 . S
C816 H810 0.950 . S
C816 C817 1.327 . S
C817 H811 0.950 . S
C817 C816 1.327 . S
C817 C821 1.429 . S
C818 C801 1.574 . S
C818 H812 0.949 . S
C818 C822 1.368 . S
C819 C800 1.429 . S
C819 C813 1.429 . S
C819 C820 1.523 . S
C820 C801 1.368 . S
C820 C814 1.368 . S
C820 C819 1.523 . S
C821 C805 1.429 . S
C821 C817 1.429 . S
C821 C822 1.523 . S
C822 C806 1.368 . S
C822 C818 1.368 . S
C822 C821 1.523 . S
H823 C798 0.950 . S
H824 C800 0.950 . S
H825 C801 0.949 . S
H826 C803 0.950 . S
H827 C805 0.950 . S
C828 C829 1.349 . S
C828 C830 1.327 . S
C828 H853 0.950 . S
C829 C828 1.349 . S
C829 C845 1.349 . S
C830 C828 1.327 . S
C830 C849 1.429 . S
C830 H854 0.950 . S
C831 C848 1.574 . S
C831 C850 1.368 1_655 S
C831 H855 0.949 . S
H832 C836 0.949 . S
C833 C834 1.349 . S
C833 C835 1.327 . S
C833 H856 0.950 . S
C834 C833 1.349 . S
C834 C846 1.349 . S
C835 C833 1.327 . S
C835 C851 1.429 . S
C835 H857 0.950 . S
C836 H832 0.949 . S
C836 C844 1.574 . S
C836 C852 1.368 1_455 S
H837 C845 0.950 . S
H838 C843 0.950 . S
H839 C844 0.949 . S
H840 C846 0.950 . S
H841 C847 0.950 . S
H842 C848 0.949 . S
C843 H838 0.950 . S
C843 C845 1.327 . S
C843 C849 1.429 . S
C844 C836 1.574 . S
C844 H839 0.949 . S
C844 C850 1.368 . S
C845 C829 1.349 . S
C845 H837 0.950 . S
C845 C843 1.327 . S
C846 C834 1.349 . S
C846 H840 0.950 . S
C846 C847 1.327 . S
C847 H841 0.950 . S
C847 C846 1.327 . S
C847 C851 1.429 . S
C848 C831 1.574 . S
C848 H842 0.949 . S
C848 C852 1.368 . S
C849 C830 1.429 . S
C849 C843 1.429 . S
C849 C850 1.523 . S
C850 C831 1.368 1_455 S
C850 C844 1.368 . S
C850 C849 1.523 . S
C851 C835 1.429 . S
C851 C847 1.429 . S
C851 C852 1.523 . S
C852 C836 1.368 1_655 S
C852 C848 1.368 . S
C852 C851 1.523 . S
H853 C828 0.950 . S
H854 C830 0.950 . S
H855 C831 0.949 . S
H856 C833 0.950 . S
H857 C835 0.950 . S
C858 C859 1.349 . S
C858 C860 1.327 . S
C858 H883 0.950 . S
C859 C858 1.349 . S
C859 C875 1.349 . S
C860 C858 1.327 . S
C860 C879 1.429 . S
C860 H884 0.950 . S
C861 C878 1.574 . S
C861 C880 1.368 1_545 S
C861 H885 0.949 . S
H862 C866 0.949 . S
C863 C864 1.349 . S
C863 C865 1.327 . S
C863 H886 0.950 . S
C864 C863 1.349 . S
C864 C876 1.349 . S
C865 C863 1.327 . S
C865 C881 1.429 . S
C865 H887 0.950 . S
C866 H862 0.949 . S
C866 C874 1.574 . S
C866 C882 1.368 1_565 S
H867 C875 0.950 . S
H868 C873 0.950 . S
H869 C874 0.949 . S
H870 C876 0.950 . S
H871 C877 0.950 . S
H872 C878 0.949 . S
C873 H868 0.950 . S
C873 C875 1.327 . S
C873 C879 1.429 . S
C874 C866 1.574 . S
C874 H869 0.949 . S
C874 C880 1.368 . S
C875 C859 1.349 . S
C875 H867 0.950 . S
C875 C873 1.327 . S
C876 C864 1.349 . S
C876 H870 0.950 . S
C876 C877 1.327 . S
C877 H871 0.950 . S
C877 C876 1.327 . S
C877 C881 1.429 . S
C878 C861 1.574 . S
C878 H872 0.949 . S
C878 C882 1.368 . S
C879 C860 1.429 . S
C879 C873 1.429 . S
C879 C880 1.523 . S
C880 C861 1.368 1_565 S
C880 C874 1.368 . S
C880 C879 1.523 . S
C881 C865 1.429 . S
C881 C877 1.429 . S
C881 C882 1.523 . S
C882 C866 1.368 1_545 S
C882 C878 1.368 . S
C882 C881 1.523 . S
H883 C858 0.950 . S
H884 C860 0.950 . S
H885 C861 0.949 . S
H886 C863 0.950 . S
H887 C865 0.950 . S
C169 C98 1.252 . S
C174 C0 1.252 . S
C199 C14 1.252 . S
C204 C112 1.252 . S
C229 C28 1.252 . S
C234 C126 1.252 . S
C259 C42 1.252 . S
C264 C140 1.252 . S
C289 C154 1.252 . S
C294 C56 1.252 . S
C319 C84 1.252 . S
C324 C70 1.252 . S
C349 C145 1.379 . S
C354 C5 1.379 . S
C379 C19 1.378 . S
C384 C159 1.378 . S
C409 C33 1.379 . S
C414 C89 1.379 . S
C439 C103 1.379 . S
C444 C47 1.379 . S
C469 C117 1.378 . S
C474 C61 1.378 . S
C499 C131 1.379 . S
C504 C75 1.379 . S
C529 C11 1.753 . S
C534 C123 1.753 . S
C559 C25 1.753 . S
C564 C137 1.753 . S
C589 C151 1.753 . S
C594 C39 1.753 . S
C619 C53 1.753 . S
C624 C165 1.753 . S
C649 C95 1.753 . S
C654 C67 1.753 . S
C679 C109 1.753 . S
C684 C81 1.753 . S
C709 C51 1.270 . S
C714 C9 1.270 . S
C739 C65 1.270 . S
C744 C23 1.270 . S
C769 C37 1.270 . S
C774 C79 1.270 . S
C799 C93 1.270 . S
C804 C135 1.270 . S
C829 C107 1.270 . S
C834 C149 1.270 . S
C859 C163 1.270 . S
C864 C121 1.270 . S
