# Generated by pormake.
# Topology wip, (6)-cn, num edge types: 1
# Building blocks:
#     Node 0, Type 0, BuildingBlock: CUKXOW_clean_sbu_0, # of connection points: 6
#     Node 1, Type 0, BuildingBlock: CUKXOW_clean_sbu_0, # of connection points: 6
#     Node 2, Type 0, BuildingBlock: CUKXOW_clean_sbu_0, # of connection points: 6
#     Node 3, Type 0, BuildingBlock: CUKXOW_clean_sbu_0, # of connection points: 6
#     Node 4, Type 0, BuildingBlock: CUKXOW_clean_sbu_0, # of connection points: 6
#     Node 5, Type 0, BuildingBlock: CUKXOW_clean_sbu_0, # of connection points: 6
#     Node 6, Type 0, BuildingBlock: CUKXOW_clean_sbu_0, # of connection points: 6
#     Node 7, Type 0, BuildingBlock: CUKXOW_clean_sbu_0, # of connection points: 6
#     Node 8, Type 0, BuildingBlock: CUKXOW_clean_sbu_0, # of connection points: 6
#     Node 9, Type 0, BuildingBlock: CUKXOW_clean_sbu_0, # of connection points: 6
#     Node 10, Type 0, BuildingBlock: CUKXOW_clean_sbu_0, # of connection points: 6
#     Node 11, Type 0, BuildingBlock: CUKXOW_clean_sbu_0, # of connection points: 6
#     Node 12, Type 0, BuildingBlock: CUKXOW_clean_sbu_0, # of connection points: 6
#     Node 13, Type 0, BuildingBlock: CUKXOW_clean_sbu_0, # of connection points: 6
#     Node 14, Type 0, BuildingBlock: CUKXOW_clean_sbu_0, # of connection points: 6
#     Node 15, Type 0, BuildingBlock: CUKXOW_clean_sbu_0, # of connection points: 6
#     Node 16, Type 0, BuildingBlock: CUKXOW_clean_sbu_0, # of connection points: 6
#     Node 17, Type 0, BuildingBlock: CUKXOW_clean_sbu_0, # of connection points: 6
#     Node 18, Type 0, BuildingBlock: CUKXOW_clean_sbu_0, # of connection points: 6
#     Node 19, Type 0, BuildingBlock: CUKXOW_clean_sbu_0, # of connection points: 6
#     Node 20, Type 0, BuildingBlock: CUKXOW_clean_sbu_0, # of connection points: 6
#     Node 21, Type 0, BuildingBlock: CUKXOW_clean_sbu_0, # of connection points: 6
#     Node 22, Type 0, BuildingBlock: CUKXOW_clean_sbu_0, # of connection points: 6
#     Node 23, Type 0, BuildingBlock: CUKXOW_clean_sbu_0, # of connection points: 6
#     Node 24, Type 0, BuildingBlock: CUKXOW_clean_sbu_0, # of connection points: 6
#     Node 25, Type 0, BuildingBlock: CUKXOW_clean_sbu_0, # of connection points: 6
#     Node 26, Type 0, BuildingBlock: CUKXOW_clean_sbu_0, # of connection points: 6
#     Node 27, Type 0, BuildingBlock: CUKXOW_clean_sbu_0, # of connection points: 6
#     Node 28, Type 0, BuildingBlock: CUKXOW_clean_sbu_0, # of connection points: 6
#     Node 29, Type 0, BuildingBlock: CUKXOW_clean_sbu_0, # of connection points: 6
#     Node 30, Type 0, BuildingBlock: CUKXOW_clean_sbu_0, # of connection points: 6
#     Node 31, Type 0, BuildingBlock: CUKXOW_clean_sbu_0, # of connection points: 6
#     Edge 32, Type (0, 0), BuildingBlock: XIVTED_clean_linker_0, # of connection points: 2
#     Edge 33, Type (0, 0), BuildingBlock: XIVTED_clean_linker_0, # of connection points: 2
#     Edge 34, Type (0, 0), BuildingBlock: XIVTED_clean_linker_0, # of connection points: 2
#     Edge 35, Type (0, 0), BuildingBlock: XIVTED_clean_linker_0, # of connection points: 2
#     Edge 36, Type (0, 0), BuildingBlock: XIVTED_clean_linker_0, # of connection points: 2
#     Edge 37, Type (0, 0), BuildingBlock: XIVTED_clean_linker_0, # of connection points: 2
#     Edge 38, Type (0, 0), BuildingBlock: XIVTED_clean_linker_0, # of connection points: 2
#     Edge 39, Type (0, 0), BuildingBlock: XIVTED_clean_linker_0, # of connection points: 2
#     Edge 40, Type (0, 0), BuildingBlock: XIVTED_clean_linker_0, # of connection points: 2
#     Edge 41, Type (0, 0), BuildingBlock: XIVTED_clean_linker_0, # of connection points: 2
#     Edge 42, Type (0, 0), BuildingBlock: XIVTED_clean_linker_0, # of connection points: 2
#     Edge 43, Type (0, 0), BuildingBlock: XIVTED_clean_linker_0, # of connection points: 2
#     Edge 44, Type (0, 0), BuildingBlock: XIVTED_clean_linker_0, # of connection points: 2
#     Edge 45, Type (0, 0), BuildingBlock: XIVTED_clean_linker_0, # of connection points: 2
#     Edge 46, Type (0, 0), BuildingBlock: XIVTED_clean_linker_0, # of connection points: 2
#     Edge 47, Type (0, 0), BuildingBlock: XIVTED_clean_linker_0, # of connection points: 2
#     Edge 48, Type (0, 0), BuildingBlock: XIVTED_clean_linker_0, # of connection points: 2
#     Edge 49, Type (0, 0), BuildingBlock: XIVTED_clean_linker_0, # of connection points: 2
#     Edge 50, Type (0, 0), BuildingBlock: XIVTED_clean_linker_0, # of connection points: 2
#     Edge 51, Type (0, 0), BuildingBlock: XIVTED_clean_linker_0, # of connection points: 2
#     Edge 52, Type (0, 0), BuildingBlock: XIVTED_clean_linker_0, # of connection points: 2
#     Edge 53, Type (0, 0), BuildingBlock: XIVTED_clean_linker_0, # of connection points: 2
#     Edge 54, Type (0, 0), BuildingBlock: XIVTED_clean_linker_0, # of connection points: 2
#     Edge 55, Type (0, 0), BuildingBlock: XIVTED_clean_linker_0, # of connection points: 2
#     Edge 56, Type (0, 0), BuildingBlock: XIVTED_clean_linker_0, # of connection points: 2
#     Edge 57, Type (0, 0), BuildingBlock: XIVTED_clean_linker_0, # of connection points: 2
#     Edge 58, Type (0, 0), BuildingBlock: XIVTED_clean_linker_0, # of connection points: 2
#     Edge 59, Type (0, 0), BuildingBlock: XIVTED_clean_linker_0, # of connection points: 2
#     Edge 60, Type (0, 0), BuildingBlock: XIVTED_clean_linker_0, # of connection points: 2
#     Edge 61, Type (0, 0), BuildingBlock: XIVTED_clean_linker_0, # of connection points: 2
#     Edge 62, Type (0, 0), BuildingBlock: XIVTED_clean_linker_0, # of connection points: 2
#     Edge 63, Type (0, 0), BuildingBlock: XIVTED_clean_linker_0, # of connection points: 2
#     Edge 64, Type (0, 0), BuildingBlock: XIVTED_clean_linker_0, # of connection points: 2
#     Edge 65, Type (0, 0), BuildingBlock: XIVTED_clean_linker_0, # of connection points: 2
#     Edge 66, Type (0, 0), BuildingBlock: XIVTED_clean_linker_0, # of connection points: 2
#     Edge 67, Type (0, 0), BuildingBlock: XIVTED_clean_linker_0, # of connection points: 2
#     Edge 68, Type (0, 0), BuildingBlock: XIVTED_clean_linker_0, # of connection points: 2
#     Edge 69, Type (0, 0), BuildingBlock: XIVTED_clean_linker_0, # of connection points: 2
#     Edge 70, Type (0, 0), BuildingBlock: XIVTED_clean_linker_0, # of connection points: 2
#     Edge 71, Type (0, 0), BuildingBlock: XIVTED_clean_linker_0, # of connection points: 2
#     Edge 72, Type (0, 0), BuildingBlock: XIVTED_clean_linker_0, # of connection points: 2
#     Edge 73, Type (0, 0), BuildingBlock: XIVTED_clean_linker_0, # of connection points: 2
#     Edge 74, Type (0, 0), BuildingBlock: XIVTED_clean_linker_0, # of connection points: 2
#     Edge 75, Type (0, 0), BuildingBlock: XIVTED_clean_linker_0, # of connection points: 2
#     Edge 76, Type (0, 0), BuildingBlock: XIVTED_clean_linker_0, # of connection points: 2
#     Edge 77, Type (0, 0), BuildingBlock: XIVTED_clean_linker_0, # of connection points: 2
#     Edge 78, Type (0, 0), BuildingBlock: XIVTED_clean_linker_0, # of connection points: 2
#     Edge 79, Type (0, 0), BuildingBlock: XIVTED_clean_linker_0, # of connection points: 2
#     Edge 80, Type (0, 0), BuildingBlock: XIVTED_clean_linker_0, # of connection points: 2
#     Edge 81, Type (0, 0), BuildingBlock: XIVTED_clean_linker_0, # of connection points: 2
#     Edge 82, Type (0, 0), BuildingBlock: XIVTED_clean_linker_0, # of connection points: 2
#     Edge 83, Type (0, 0), BuildingBlock: XIVTED_clean_linker_0, # of connection points: 2
#     Edge 84, Type (0, 0), BuildingBlock: XIVTED_clean_linker_0, # of connection points: 2
#     Edge 85, Type (0, 0), BuildingBlock: XIVTED_clean_linker_0, # of connection points: 2
#     Edge 86, Type (0, 0), BuildingBlock: XIVTED_clean_linker_0, # of connection points: 2
#     Edge 87, Type (0, 0), BuildingBlock: XIVTED_clean_linker_0, # of connection points: 2
#     Edge 88, Type (0, 0), BuildingBlock: XIVTED_clean_linker_0, # of connection points: 2
#     Edge 89, Type (0, 0), BuildingBlock: XIVTED_clean_linker_0, # of connection points: 2
#     Edge 90, Type (0, 0), BuildingBlock: XIVTED_clean_linker_0, # of connection points: 2
#     Edge 91, Type (0, 0), BuildingBlock: XIVTED_clean_linker_0, # of connection points: 2
#     Edge 92, Type (0, 0), BuildingBlock: XIVTED_clean_linker_0, # of connection points: 2
#     Edge 93, Type (0, 0), BuildingBlock: XIVTED_clean_linker_0, # of connection points: 2
#     Edge 94, Type (0, 0), BuildingBlock: XIVTED_clean_linker_0, # of connection points: 2
#     Edge 95, Type (0, 0), BuildingBlock: XIVTED_clean_linker_0, # of connection points: 2
#     Edge 96, Type (0, 0), BuildingBlock: XIVTED_clean_linker_0, # of connection points: 2
#     Edge 97, Type (0, 0), BuildingBlock: XIVTED_clean_linker_0, # of connection points: 2
#     Edge 98, Type (0, 0), BuildingBlock: XIVTED_clean_linker_0, # of connection points: 2
#     Edge 99, Type (0, 0), BuildingBlock: XIVTED_clean_linker_0, # of connection points: 2
#     Edge 100, Type (0, 0), BuildingBlock: XIVTED_clean_linker_0, # of connection points: 2
#     Edge 101, Type (0, 0), BuildingBlock: XIVTED_clean_linker_0, # of connection points: 2
#     Edge 102, Type (0, 0), BuildingBlock: XIVTED_clean_linker_0, # of connection points: 2
#     Edge 103, Type (0, 0), BuildingBlock: XIVTED_clean_linker_0, # of connection points: 2
#     Edge 104, Type (0, 0), BuildingBlock: XIVTED_clean_linker_0, # of connection points: 2
#     Edge 105, Type (0, 0), BuildingBlock: XIVTED_clean_linker_0, # of connection points: 2
#     Edge 106, Type (0, 0), BuildingBlock: XIVTED_clean_linker_0, # of connection points: 2
#     Edge 107, Type (0, 0), BuildingBlock: XIVTED_clean_linker_0, # of connection points: 2
#     Edge 108, Type (0, 0), BuildingBlock: XIVTED_clean_linker_0, # of connection points: 2
#     Edge 109, Type (0, 0), BuildingBlock: XIVTED_clean_linker_0, # of connection points: 2
#     Edge 110, Type (0, 0), BuildingBlock: XIVTED_clean_linker_0, # of connection points: 2
#     Edge 111, Type (0, 0), BuildingBlock: XIVTED_clean_linker_0, # of connection points: 2
#     Edge 112, Type (0, 0), BuildingBlock: XIVTED_clean_linker_0, # of connection points: 2
#     Edge 113, Type (0, 0), BuildingBlock: XIVTED_clean_linker_0, # of connection points: 2
#     Edge 114, Type (0, 0), BuildingBlock: XIVTED_clean_linker_0, # of connection points: 2
#     Edge 115, Type (0, 0), BuildingBlock: XIVTED_clean_linker_0, # of connection points: 2
#     Edge 116, Type (0, 0), BuildingBlock: XIVTED_clean_linker_0, # of connection points: 2
#     Edge 117, Type (0, 0), BuildingBlock: XIVTED_clean_linker_0, # of connection points: 2
#     Edge 118, Type (0, 0), BuildingBlock: XIVTED_clean_linker_0, # of connection points: 2
#     Edge 119, Type (0, 0), BuildingBlock: XIVTED_clean_linker_0, # of connection points: 2
#     Edge 120, Type (0, 0), BuildingBlock: XIVTED_clean_linker_0, # of connection points: 2
#     Edge 121, Type (0, 0), BuildingBlock: XIVTED_clean_linker_0, # of connection points: 2
#     Edge 122, Type (0, 0), BuildingBlock: XIVTED_clean_linker_0, # of connection points: 2
#     Edge 123, Type (0, 0), BuildingBlock: XIVTED_clean_linker_0, # of connection points: 2
#     Edge 124, Type (0, 0), BuildingBlock: XIVTED_clean_linker_0, # of connection points: 2
#     Edge 125, Type (0, 0), BuildingBlock: XIVTED_clean_linker_0, # of connection points: 2
#     Edge 126, Type (0, 0), BuildingBlock: XIVTED_clean_linker_0, # of connection points: 2
#     Edge 127, Type (0, 0), BuildingBlock: XIVTED_clean_linker_0, # of connection points: 2
# Relax obj value: 0.227
# Max RMSD: 0.182
# Mean RMSD: 0.176
data_MOF--net-wip--node1-CUKXOW_clean_sbu_0--edge1-XIVTED_clean_linker_0
_symmetry_space_group_name_H-M    P1
_symmetry_Int_Tables_number       1
_symmetry_cell_setting            triclinic
loop_
_symmetry_equiv_pos_as_xyz
'x, y, z'
_cell_length_a     57.428379
_cell_length_b     75.281626
_cell_length_c     27.781726
_cell_angle_alpha  87.750224
_cell_angle_beta   90.000706
_cell_angle_gamma 90.081084
loop_
_atom_site_label
_atom_site_type_symbol
_atom_site_fract_x
_atom_site_fract_y
_atom_site_fract_z
_atom_type_partial_charge
Tb0 Tb 0.09251 0.45904 0.13192 0.0
C1 C 0.07951 0.48645 0.04911 0.0
Tb2 Tb 0.0621 0.4461 0.04731 0.0
O3 O 0.12326 0.46412 0.08663 0.0
O4 O 0.09791 0.44671 0.06549 0.0
O5 O 0.08607 0.48409 0.09464 0.0
C6 C 0.04056 0.44316 0.96183 0.0
O7 O 0.07146 0.47328 0.02339 0.0
C8 C 0.03979 0.44986 0.12925 0.0
C9 C 0.07792 0.4184 0.1285 0.0
O10 O 0.03505 0.45395 0.99522 0.0
O11 O 0.05803 0.4334 0.97714 0.0
O12 O 0.0334 0.43915 0.09619 0.0
O13 O 0.0566 0.45924 0.113 0.0
O14 O 0.07185 0.42025 0.082 0.0
O15 O 0.08402 0.43199 0.15477 0.0
C16 C 0.10344 0.4716 0.21768 0.0
O17 O 0.11326 0.45789 0.19888 0.0
O18 O 0.08791 0.47805 0.18811 0.0
C19 C 0.11548 0.45544 0.05026 0.0
Tb20 Tb 0.77825 0.81841 0.40497 0.0
C21 C 0.82799 0.82451 0.45263 0.0
Tb22 Tb 0.79552 0.79235 0.49398 0.0
O23 O 0.75815 0.83501 0.45474 0.0
O24 O 0.78506 0.81886 0.4791 0.0
O25 O 0.81427 0.82763 0.41403 0.0
C26 C 0.80166 0.77711 0.58207 0.0
O27 O 0.82332 0.81238 0.48802 0.0
C28 C 0.80005 0.7781 0.40777 0.0
C29 C 0.74155 0.79758 0.46883 0.0
O30 O 0.81816 0.78408 0.55511 0.0
O31 O 0.782 0.77884 0.55933 0.0
O32 O 0.80534 0.76986 0.44826 0.0
O33 O 0.79253 0.793 0.41911 0.0
O34 O 0.75761 0.79217 0.50057 0.0
O35 O 0.74637 0.80479 0.42567 0.0
C36 C 0.76613 0.8232 0.31203 0.0
O37 O 0.76981 0.80814 0.33496 0.0
O38 O 0.76973 0.83608 0.34152 0.0
C39 C 0.76912 0.82884 0.49329 0.0
Tb40 Tb 0.4063 0.53471 0.62707 0.0
C41 C 0.41196 0.57321 0.67183 0.0
Tb42 Tb 0.44134 0.5403 0.71253 0.0
O43 O 0.38011 0.52216 0.67397 0.0
O44 O 0.40476 0.5396 0.70095 0.0
O45 O 0.40267 0.56357 0.63705 0.0
C46 C 0.46326 0.53976 0.79889 0.0
O47 O 0.42671 0.56676 0.70502 0.0
C48 C 0.45851 0.54446 0.62342 0.0
C49 C 0.43362 0.50273 0.6773 0.0
O50 O 0.44434 0.54843 0.78779 0.0
O51 O 0.47 0.53155 0.76103 0.0
O52 O 0.46747 0.55173 0.66096 0.0
O53 O 0.4427 0.53419 0.63855 0.0
O54 O 0.43268 0.51208 0.71653 0.0
O55 O 0.42531 0.50976 0.63609 0.0
C56 C 0.38905 0.52877 0.53972 0.0
O57 O 0.38249 0.521 0.57995 0.0
O58 O 0.40464 0.54077 0.54888 0.0
C59 C 0.38885 0.52873 0.71258 0.0
Tb60 Tb 0.68333 0.19425 0.88398 0.0
C61 C 0.6469 0.17584 0.95923 0.0
Tb62 Tb 0.65959 0.21714 0.9659 0.0
O63 O 0.71577 0.19309 0.92703 0.0
O64 O 0.68412 0.19671 0.959 0.0
O65 O 0.66091 0.17381 0.92084 0.0
C66 C 0.66073 0.23221 0.05236 0.0
O67 O 0.64392 0.19119 0.98106 0.0
C68 C 0.64278 0.22403 0.87709 0.0
C69 C 0.69218 0.23503 0.89069 0.0
O70 O 0.64179 0.22687 0.03085 0.0
O71 O 0.67842 0.22908 0.0249 0.0
O72 O 0.63873 0.23373 0.91425 0.0
O73 O 0.65323 0.21028 0.89382 0.0
O74 O 0.68804 0.23318 0.93733 0.0
O75 O 0.69021 0.22162 0.8616 0.0
C76 C 0.69979 0.17925 0.80416 0.0
O77 O 0.67784 0.18015 0.81604 0.0
O78 O 0.71196 0.18603 0.83812 0.0
C79 C 0.70548 0.19647 0.96715 0.0
Tb80 Tb 0.09218 0.52707 0.63724 0.0
C81 C 0.04844 0.50912 0.68616 0.0
Tb82 Tb 0.06611 0.54601 0.71914 0.0
O83 O 0.10922 0.50813 0.68615 0.0
O84 O 0.09863 0.53275 0.71073 0.0
O85 O 0.06078 0.51139 0.6459 0.0
C86 C 0.04756 0.55245 0.80659 0.0
O87 O 0.05339 0.51848 0.72428 0.0
C88 C 0.04989 0.55291 0.63044 0.0
C89 C 0.10448 0.56743 0.65843 0.0
O90 O 0.03622 0.55119 0.76643 0.0
O91 O 0.06964 0.55072 0.79714 0.0
O92 O 0.0467 0.56322 0.66651 0.0
O93 O 0.05929 0.53891 0.64728 0.0
O94 O 0.09022 0.56754 0.69652 0.0
O95 O 0.10815 0.5532 0.63275 0.0
C96 C 0.10617 0.51758 0.54986 0.0
O97 O 0.10635 0.5074 0.58866 0.0
O98 O 0.09863 0.53316 0.5606 0.0
C99 C 0.10587 0.51737 0.72399 0.0
Tb100 Tb 0.67654 0.8011 0.90054 0.0
C101 C 0.64417 0.81952 0.82191 0.0
Tb102 Tb 0.65337 0.77777 0.82161 0.0
O103 O 0.69922 0.81457 0.84777 0.0
O104 O 0.68645 0.78922 0.83528 0.0
O105 O 0.65341 0.82093 0.86582 0.0
C106 C 0.64795 0.76134 0.73763 0.0
O107 O 0.64438 0.80466 0.79765 0.0
C108 C 0.63183 0.77616 0.90696 0.0
C109 C 0.67866 0.75865 0.907 0.0
O110 O 0.63177 0.77 0.75982 0.0
O111 O 0.66695 0.76202 0.76283 0.0
O112 O 0.62855 0.76503 0.87269 0.0
O113 O 0.64381 0.78887 0.88823 0.0
O114 O 0.6725 0.75738 0.86136 0.0
O115 O 0.68033 0.77396 0.92869 0.0
C116 C 0.69666 0.81215 0.98179 0.0
O117 O 0.70602 0.80216 0.9501 0.0
O118 O 0.6757 0.81641 0.96726 0.0
C119 C 0.69691 0.8025 0.81611 0.0
Tb120 Tb 0.39971 0.46971 0.12808 0.0
C121 C 0.40542 0.43164 0.08119 0.0
Tb122 Tb 0.43406 0.46529 0.0413 0.0
O123 O 0.37296 0.48223 0.08205 0.0
O124 O 0.39772 0.46517 0.05438 0.0
O125 O 0.39663 0.44079 0.11746 0.0
C126 C 0.45538 0.46538 0.95441 0.0
O127 O 0.41953 0.43877 0.0477 0.0
C128 C 0.45195 0.46087 0.12937 0.0
C129 C 0.42401 0.50296 0.07656 0.0
O130 O 0.43616 0.45718 0.96606 0.0
O131 O 0.46271 0.47355 0.99196 0.0
O132 O 0.46042 0.4536 0.09143 0.0
O133 O 0.43602 0.47123 0.11542 0.0
O134 O 0.42577 0.49353 0.03743 0.0
O135 O 0.41706 0.4953 0.11815 0.0
C136 C 0.38401 0.47478 0.21714 0.0
O137 O 0.37601 0.4823 0.17774 0.0
O138 O 0.4001 0.46345 0.20613 0.0
C139 C 0.38162 0.47583 0.04312 0.0
Tb140 Tb 0.77808 0.17714 0.37967 0.0
C141 C 0.82843 0.1691 0.33369 0.0
Tb142 Tb 0.79715 0.20102 0.29276 0.0
O143 O 0.75654 0.16112 0.33216 0.0
O144 O 0.78594 0.17465 0.30694 0.0
O145 O 0.8132 0.16574 0.36962 0.0
C146 C 0.80387 0.2182 0.20629 0.0
O147 O 0.82549 0.18196 0.29984 0.0
C148 C 0.80489 0.21224 0.38072 0.0
C149 C 0.74373 0.20176 0.32004 0.0
O150 O 0.80425 0.20112 0.21471 0.0
O151 O 0.80022 0.22569 0.247 0.0
O152 O 0.81865 0.21545 0.34414 0.0
O153 O 0.7871 0.20427 0.3659 0.0
O154 O 0.75951 0.20383 0.28532 0.0
O155 O 0.74887 0.19435 0.36295 0.0
C156 C 0.76736 0.16842 0.472 0.0
O157 O 0.75725 0.16223 0.43422 0.0
O158 O 0.78436 0.17877 0.45758 0.0
C159 C 0.7686 0.16584 0.2939 0.0
Tb160 Tb 0.95077 0.55072 0.2228 0.0
C161 C 0.91379 0.5731 0.1594 0.0
Tb162 Tb 0.92496 0.5325 0.13891 0.0
O163 O 0.98314 0.55179 0.17922 0.0
O164 O 0.95101 0.55204 0.14598 0.0
O165 O 0.9289 0.57322 0.1963 0.0
C166 C 0.91597 0.52192 0.05042 0.0
O167 O 0.90923 0.55872 0.13447 0.0
C168 C 0.913 0.52034 0.22496 0.0
C169 C 0.96598 0.51329 0.19431 0.0
O170 O 0.90004 0.5253 0.08229 0.0
O171 O 0.93639 0.52449 0.06869 0.0
O172 O 0.9104 0.51158 0.18598 0.0
O173 O 0.91916 0.53614 0.21355 0.0
O174 O 0.9551 0.51603 0.15267 0.0
O175 O 0.96243 0.5234 0.23131 0.0
C176 C 0.96576 0.56045 0.31044 0.0
O177 O 0.97603 0.56388 0.26945 0.0
O178 O 0.9462 0.55249 0.30159 0.0
C179 C 0.97258 0.55145 0.13789 0.0
Tb180 Tb 0.19371 0.20375 0.79944 0.0
C181 C 0.24532 0.19371 0.82828 0.0
Tb182 Tb 0.20438 0.17638 0.888 0.0
O183 O 0.19859 0.22626 0.84687 0.0
O184 O 0.18845 0.20175 0.87533 0.0
O185 O 0.23109 0.19974 0.79385 0.0
C186 C 0.21465 0.17062 0.98177 0.0
O187 O 0.23807 0.18824 0.87162 0.0
C188 C 0.2144 0.16502 0.80093 0.0
C189 C 0.15596 0.17381 0.83388 0.0
O190 O 0.21347 0.18589 0.95867 0.0
O191 O 0.20936 0.15813 0.95205 0.0
O192 O 0.22303 0.15774 0.84066 0.0
O193 O 0.20037 0.1767 0.81363 0.0
O194 O 0.16814 0.16908 0.87366 0.0
O195 O 0.16296 0.18624 0.80099 0.0
C196 C 0.18677 0.22052 0.71313 0.0
O197 O 0.2064 0.21436 0.72965 0.0
O198 O 0.17068 0.21722 0.74545 0.0
C199 C 0.19488 0.21702 0.88652 0.0
Tb200 Tb 0.5526 0.46041 0.54145 0.0
C201 C 0.57037 0.4973 0.57531 0.0
Tb202 Tb 0.58675 0.46189 0.62905 0.0
O203 O 0.5245 0.45115 0.59076 0.0
O204 O 0.55105 0.46704 0.61521 0.0
O205 O 0.56481 0.4879 0.53742 0.0
C206 C 0.59993 0.46314 0.72117 0.0
O207 O 0.57658 0.48945 0.61712 0.0
C208 C 0.60614 0.46641 0.54487 0.0
C209 C 0.57572 0.42459 0.58167 0.0
O210 O 0.61272 0.46781 0.68417 0.0
O211 O 0.5803 0.45688 0.7059 0.0
O212 O 0.61536 0.47228 0.5841 0.0
O213 O 0.58856 0.45706 0.55563 0.0
O214 O 0.58581 0.43308 0.61764 0.0
O215 O 0.56239 0.43262 0.54832 0.0
C216 C 0.53199 0.46201 0.4539 0.0
O217 O 0.52476 0.46997 0.49184 0.0
O218 O 0.55073 0.45322 0.4655 0.0
C219 C 0.5335 0.45815 0.6286 0.0
Tb220 Tb 0.3159 0.79007 0.2832 0.0
C221 C 0.2676 0.8056 0.31376 0.0
Tb222 Tb 0.31283 0.81611 0.37225 0.0
O223 O 0.30649 0.76748 0.33269 0.0
O224 O 0.3228 0.78952 0.3589 0.0
O225 O 0.27998 0.79841 0.27947 0.0
C226 C 0.30186 0.81964 0.46586 0.0
O227 O 0.27646 0.81012 0.35572 0.0
C228 C 0.30376 0.83139 0.28704 0.0
C229 C 0.35971 0.81488 0.31068 0.0
O230 O 0.29656 0.80645 0.43921 0.0
O231 O 0.31445 0.83102 0.43992 0.0
O232 O 0.29874 0.8388 0.32768 0.0
O233 O 0.31439 0.81721 0.29787 0.0
O234 O 0.34992 0.8197 0.35235 0.0
O235 O 0.34939 0.80407 0.27982 0.0
C236 C 0.3171 0.77438 0.19737 0.0
O237 O 0.33368 0.77367 0.2296 0.0
O238 O 0.30036 0.78407 0.21352 0.0
C239 C 0.3131 0.7751 0.3715 0.0
Tb240 Tb 0.94626 0.44802 0.54724 0.0
C241 C 0.92683 0.42061 0.62602 0.0
Tb242 Tb 0.91687 0.46204 0.63218 0.0
O243 O 0.97382 0.43923 0.59703 0.0
O244 O 0.95268 0.46068 0.61315 0.0
O245 O 0.93363 0.42257 0.57995 0.0
C246 C 0.90909 0.47536 0.71831 0.0
O247 O 0.92189 0.43425 0.65321 0.0
C248 C 0.89382 0.45972 0.55018 0.0
C249 C 0.93176 0.48912 0.54995 0.0
O250 O 0.89567 0.46373 0.69839 0.0
O251 O 0.92629 0.47923 0.68971 0.0
O252 O 0.88679 0.46885 0.5864 0.0
O253 O 0.91066 0.45024 0.56554 0.0
O254 O 0.92476 0.48696 0.59522 0.0
O255 O 0.93915 0.47572 0.52425 0.0
C256 C 0.96816 0.44486 0.46218 0.0
O257 O 0.97457 0.45475 0.49695 0.0
O258 O 0.94954 0.43606 0.47586 0.0
C259 C 0.96844 0.45039 0.62969 0.0
Tb260 Tb 0.3301 0.20926 0.47244 0.0
C261 C 0.30017 0.22703 0.39472 0.0
Tb262 Tb 0.30808 0.18575 0.3927 0.0
O263 O 0.35424 0.2232 0.42232 0.0
O264 O 0.34004 0.19928 0.40445 0.0
O265 O 0.30301 0.22599 0.44195 0.0
C266 C 0.28742 0.17509 0.31135 0.0
O267 O 0.3025 0.21302 0.36801 0.0
C268 C 0.28917 0.18301 0.47845 0.0
C269 C 0.34368 0.1681 0.46705 0.0
O270 O 0.27767 0.18364 0.34564 0.0
O271 O 0.30905 0.17198 0.32345 0.0
O272 O 0.2889 0.17044 0.44785 0.0
O273 O 0.29748 0.19701 0.45858 0.0
O274 O 0.3329 0.16653 0.42467 0.0
O275 O 0.34426 0.18307 0.49102 0.0
C276 C 0.3371 0.22505 0.55765 0.0
O277 O 0.3326 0.20831 0.55216 0.0
O278 O 0.33813 0.23274 0.51505 0.0
C279 C 0.351 0.21269 0.38677 0.0
Tb280 Tb 0.55957 0.53296 0.2139 0.0
C281 C 0.56359 0.49487 0.17835 0.0
Tb282 Tb 0.59294 0.52565 0.12739 0.0
O283 O 0.53441 0.54623 0.16384 0.0
O284 O 0.55658 0.52701 0.13989 0.0
O285 O 0.5649 0.50427 0.21754 0.0
C286 C 0.60641 0.52189 0.03626 0.0
O287 O 0.57267 0.50128 0.1371 0.0
C288 C 0.61027 0.51823 0.21231 0.0
C289 C 0.59156 0.56421 0.17233 0.0
O290 O 0.58979 0.53217 0.0503 0.0
O291 O 0.61629 0.51444 0.07401 0.0
O292 O 0.61757 0.51086 0.17343 0.0
O293 O 0.59583 0.5303 0.20107 0.0
O294 O 0.59992 0.55408 0.13784 0.0
O295 O 0.57647 0.55857 0.20578 0.0
C296 C 0.53865 0.53455 0.30082 0.0
O297 O 0.55876 0.54132 0.28901 0.0
O298 O 0.53024 0.52685 0.26345 0.0
C299 C 0.54183 0.53838 0.12589 0.0
Tb300 Tb 0.18812 0.79882 0.97566 0.0
C301 C 0.24034 0.79259 0.95186 0.0
Tb302 Tb 0.21121 0.8197 0.88633 0.0
O303 O 0.16514 0.78531 0.92437 0.0
O304 O 0.19783 0.79392 0.90305 0.0
O305 O 0.22496 0.79394 0.98706 0.0
C306 C 0.22505 0.82622 0.79397 0.0
O307 O 0.23642 0.79935 0.9075 0.0
C308 C 0.22337 0.83132 0.96998 0.0
C309 C 0.1624 0.83269 0.92971 0.0
O310 O 0.23455 0.83264 0.83209 0.0
O311 O 0.20702 0.81687 0.80794 0.0
O312 O 0.23508 0.83467 0.93041 0.0
O313 O 0.2044 0.8238 0.95954 0.0
O314 O 0.17801 0.83421 0.89383 0.0
O315 O 0.16341 0.82035 0.96529 0.0
C316 C 0.17587 0.78246 0.06118 0.0
O317 O 0.17429 0.79939 0.05015 0.0
O318 O 0.18433 0.7748 0.02385 0.0
C319 C 0.17932 0.78711 0.88805 0.0
Tb320 Tb 0.59339 0.96708 0.63548 0.0
C321 C 0.56816 0.99248 0.56239 0.0
Tb322 Tb 0.56582 0.95077 0.55158 0.0
O323 O 0.61994 0.97896 0.58758 0.0
O324 O 0.60087 0.95704 0.56736 0.0
O325 O 0.57416 0.98976 0.60822 0.0
C326 C 0.54473 0.94597 0.46615 0.0
O327 O 0.56701 0.97928 0.53223 0.0
C328 C 0.54475 0.9498 0.63604 0.0
C329 C 0.5968 0.92544 0.61904 0.0
O330 O 0.5365 0.95475 0.50158 0.0
O331 O 0.56475 0.93926 0.47939 0.0
O332 O 0.54116 0.9384 0.6029 0.0
O333 O 0.5579 0.96199 0.61898 0.0
O334 O 0.58395 0.92663 0.57886 0.0
O335 O 0.60211 0.93924 0.64526 0.0
C336 C 0.60101 0.97461 0.72752 0.0
O337 O 0.5873 0.96236 0.71232 0.0
O338 O 0.61117 0.98249 0.69061 0.0
C339 C 0.61469 0.96901 0.55167 0.0
Tb340 Tb 0.29354 0.30602 0.87838 0.0
C341 C 0.32645 0.32588 0.94929 0.0
Tb342 Tb 0.31719 0.28423 0.96462 0.0
O343 O 0.27248 0.32029 0.92923 0.0
O344 O 0.28336 0.29431 0.94699 0.0
O345 O 0.31741 0.32627 0.90485 0.0
C346 C 0.32667 0.26863 0.05249 0.0
O347 O 0.32673 0.31149 0.97866 0.0
C348 C 0.34009 0.28282 0.8809 0.0
C349 C 0.2913 0.2644 0.88894 0.0
O350 O 0.32694 0.26097 1.01146 0.0
O351 O 0.32126 0.28524 0.04396 0.0
O352 O 0.34412 0.27256 0.91875 0.0
O353 O 0.32674 0.29493 0.89522 0.0
O354 O 0.29233 0.26593 0.93612 0.0
O355 O 0.2922 0.27848 0.85912 0.0
C356 C 0.27244 0.31547 0.79411 0.0
O357 O 0.2935 0.32002 0.80646 0.0
O358 O 0.26343 0.30609 0.82964 0.0
C359 C 0.2734 0.30788 0.96288 0.0
Tb360 Tb 0.9024 0.03253 0.12935 0.0
C361 C 0.90698 0.07112 0.17421 0.0
Tb362 Tb 0.93649 0.03846 0.21566 0.0
O363 O 0.87636 0.01939 0.176 0.0
O364 O 0.90012 0.03745 0.20295 0.0
O365 O 0.89794 0.06135 0.13943 0.0
C366 C 0.95782 0.03848 0.30236 0.0
O367 O 0.92154 0.06479 0.20786 0.0
C368 C 0.95421 0.04316 0.1276 0.0
C369 C 0.92885 0.00049 0.18111 0.0
O370 O 0.93852 0.04657 0.29089 0.0
O371 O 0.96527 0.03047 0.26469 0.0
O372 O 0.96238 0.0507 0.16544 0.0
O373 O 0.93879 0.03234 0.14169 0.0
O374 O 0.92918 0.01004 0.22009 0.0
O375 O 0.92144 0.0077 0.13937 0.0
C376 C 0.88669 0.02696 0.04046 0.0
O377 O 0.87947 0.01896 0.07991 0.0
O378 O 0.90197 0.03896 0.05133 0.0
C379 C 0.8846 0.02631 0.21466 0.0
Tb380 Tb 0.18568 0.6967 0.38703 0.0
C381 C 0.15428 0.67688 0.46664 0.0
Tb382 Tb 0.16459 0.7185 0.47253 0.0
O383 O 0.2093 0.68194 0.43547 0.0
O384 O 0.19655 0.70672 0.45327 0.0
O385 O 0.16308 0.67627 0.422 0.0
C386 C 0.16468 0.73333 0.55976 0.0
O387 O 0.15449 0.69137 0.49254 0.0
C388 C 0.14257 0.72286 0.38778 0.0
C389 C 0.19028 0.73904 0.39015 0.0
O390 O 0.14627 0.72721 0.53816 0.0
O391 O 0.18251 0.73111 0.53198 0.0
O392 O 0.14027 0.73328 0.42409 0.0
O393 O 0.15384 0.70938 0.40406 0.0
O394 O 0.18523 0.73881 0.43657 0.0
O395 O 0.19068 0.72457 0.36432 0.0
C396 C 0.20392 0.68654 0.30329 0.0
O397 O 0.21427 0.69583 0.33533 0.0
O398 O 0.18297 0.68262 0.31862 0.0
C399 C 0.20744 0.69321 0.46931 0.0
Tb400 Tb 0.56849 0.03598 0.13951 0.0
C401 C 0.51814 0.02622 0.176 0.0
Tb402 Tb 0.54584 0.05664 0.22515 0.0
O403 O 0.57641 0.01325 0.18798 0.0
O404 O 0.57386 0.03855 0.21471 0.0
O405 O 0.53349 0.02608 0.14063 0.0
C406 C 0.53385 0.0586 0.31884 0.0
O407 O 0.52152 0.03474 0.21616 0.0
C408 C 0.52712 0.06363 0.13884 0.0
C409 C 0.58827 0.07426 0.16645 0.0
O410 O 0.54196 0.0448 0.29786 0.0
O411 O 0.53348 0.07196 0.28709 0.0
O412 O 0.5168 0.06714 0.17932 0.0
O413 O 0.54732 0.05829 0.14955 0.0
O414 O 0.57444 0.07521 0.20537 0.0
O415 O 0.58821 0.06071 0.13683 0.0
C416 C 0.58061 0.0239 0.0539 0.0
O417 O 0.59526 0.02931 0.0861 0.0
O418 O 0.55958 0.02545 0.07005 0.0
C419 C 0.57574 0.02228 0.2267 0.0
Tb420 Tb 0.19237 0.3187 0.36993 0.0
C421 C 0.142 0.3187 0.31854 0.0
Tb422 Tb 0.18149 0.29099 0.29033 0.0
O423 O 0.20842 0.33806 0.31774 0.0
O424 O 0.18551 0.31866 0.29615 0.0
O425 O 0.15517 0.32463 0.35463 0.0
C426 C 0.17988 0.27265 0.20904 0.0
O427 O 0.1489 0.30582 0.29008 0.0
C428 C 0.17682 0.27995 0.38144 0.0
C429 C 0.23331 0.30225 0.31369 0.0
O430 O 0.17003 0.28782 0.21578 0.0
O431 O 0.19018 0.26743 0.24879 0.0
O432 O 0.16475 0.27367 0.34626 0.0
O433 O 0.19162 0.29068 0.36374 0.0
O434 O 0.21875 0.29571 0.28177 0.0
O435 O 0.22651 0.30796 0.35597 0.0
C436 C 0.19979 0.32701 0.46234 0.0
O437 O 0.20861 0.33531 0.4245 0.0
O438 O 0.18551 0.31493 0.44763 0.0
C439 C 0.19946 0.33047 0.28034 0.0
Tb440 Tb 0.90461 0.96581 0.6302 0.0
C441 C 0.90929 0.92667 0.58869 0.0
Tb442 Tb 0.93927 0.95878 0.54481 0.0
O443 O 0.87865 0.97825 0.5824 0.0
O444 O 0.90279 0.96023 0.5568 0.0
O445 O 0.90036 0.93687 0.62261 0.0
C446 C 0.96092 0.95869 0.45822 0.0
O447 O 0.92394 0.93255 0.5545 0.0
C448 C 0.95644 0.95501 0.63385 0.0
C449 C 0.93314 0.99681 0.57819 0.0
O450 O 0.94164 0.9505 0.4696 0.0
O451 O 0.96821 0.96671 0.496 0.0
O452 O 0.96513 0.9473 0.59673 0.0
O453 O 0.94097 0.96546 0.61829 0.0
O454 O 0.93185 0.98719 0.53951 0.0
O455 O 0.92472 0.99023 0.61982 0.0
C456 C 0.88821 0.97237 0.71796 0.0
O457 O 0.88236 0.98066 0.67798 0.0
O458 O 0.90253 0.95958 0.70827 0.0
C459 C 0.88721 0.97122 0.54424 0.0
Tb460 Tb 0.28167 0.67707 0.88115 0.0
C461 C 0.33197 0.66959 0.8344 0.0
Tb462 Tb 0.29948 0.7006 0.79296 0.0
O463 O 0.25982 0.66062 0.83558 0.0
O464 O 0.289 0.67409 0.80835 0.0
O465 O 0.31688 0.66596 0.87037 0.0
C466 C 0.30565 0.71668 0.70519 0.0
O467 O 0.32856 0.68228 0.80039 0.0
C468 C 0.30715 0.71264 0.88006 0.0
C469 C 0.24614 0.70076 0.82141 0.0
O470 O 0.30454 0.69969 0.71457 0.0
O471 O 0.30374 0.72471 0.7456 0.0
O472 O 0.32077 0.71578 0.84323 0.0
O473 O 0.28959 0.70425 0.86588 0.0
O474 O 0.26181 0.70341 0.78672 0.0
O475 O 0.25156 0.69334 0.86418 0.0
C476 C 0.27268 0.66963 0.97472 0.0
O477 O 0.2626 0.66224 0.93859 0.0
O478 O 0.28871 0.6804 0.95793 0.0
C479 C 0.27148 0.66515 0.79662 0.0
Tb480 Tb 0.43275 0.04117 0.72915 0.0
C481 C 0.39502 0.06083 0.66399 0.0
Tb482 Tb 0.4102 0.02077 0.64722 0.0
O483 O 0.45114 0.05845 0.67545 0.0
O484 O 0.44306 0.03248 0.65999 0.0
O485 O 0.40787 0.06155 0.7039 0.0
C486 C 0.40135 0.01054 0.55786 0.0
O487 O 0.39329 0.04643 0.63818 0.0
C488 C 0.3936 0.01175 0.73236 0.0
C489 C 0.44818 0.00209 0.71143 0.0
O490 O 0.39368 0.00263 0.59713 0.0
O491 O 0.41362 0.02423 0.56907 0.0
O492 O 0.39174 0.00214 0.69465 0.0
O493 O 0.40098 0.02714 0.71884 0.0
O494 O 0.43914 0.00383 0.66746 0.0
O495 O 0.44382 0.01379 0.7446 0.0
C496 C 0.45174 0.05074 0.81325 0.0
O497 O 0.46296 0.04641 0.77493 0.0
O498 O 0.42952 0.05009 0.80395 0.0
C499 C 0.45122 0.04683 0.64207 0.0
Tb500 Tb 0.66854 0.70626 0.32876 0.0
C501 C 0.69346 0.72606 0.40619 0.0
Tb502 Tb 0.69431 0.68422 0.41221 0.0
O503 O 0.64138 0.71655 0.37626 0.0
O504 O 0.66038 0.6945 0.3976 0.0
O505 O 0.6915 0.72558 0.35885 0.0
C506 C 0.71662 0.67526 0.49557 0.0
O507 O 0.69421 0.71143 0.4339 0.0
C508 C 0.71341 0.68386 0.32657 0.0
C509 C 0.6603 0.66434 0.34325 0.0
O510 O 0.69593 0.66977 0.48345 0.0
O511 O 0.72474 0.68515 0.46005 0.0
O512 O 0.71563 0.67124 0.35937 0.0
O513 O 0.70301 0.69695 0.34407 0.0
O514 O 0.67178 0.66327 0.38518 0.0
O515 O 0.65806 0.67915 0.31592 0.0
C516 C 0.65762 0.72142 0.24119 0.0
O517 O 0.66465 0.70516 0.24951 0.0
O518 O 0.65665 0.72903 0.28228 0.0
C519 C 0.64636 0.70598 0.41304 0.0
Tb520 Tb 0.05743 0.96613 0.0432 0.0
C521 C 0.06573 0.00447 0.07705 0.0
Tb522 Tb 0.09166 0.97217 0.12917 0.0
O523 O 0.03177 0.9538 0.09377 0.0
O524 O 0.05519 0.97241 0.11711 0.0
O525 O 0.06377 0.99468 0.03855 0.0
C526 C 0.10488 0.97606 0.22082 0.0
O527 O 0.07398 0.99752 0.11844 0.0
C528 C 0.10888 0.97913 0.04358 0.0
C529 C 0.08761 0.93369 0.08374 0.0
O530 O 0.08754 0.96646 0.20663 0.0
O531 O 0.11569 0.98259 0.18294 0.0
O532 O 0.11701 0.98609 0.08241 0.0
O533 O 0.0938 0.96757 0.05533 0.0
O534 O 0.09679 0.9435 0.11819 0.0
O535 O 0.07255 0.93989 0.05096 0.0
C536 C 0.03632 0.96477 0.95651 0.0
O537 O 0.05633 0.95784 0.96813 0.0
O538 O 0.02809 0.97253 0.99393 0.0
C539 C 0.03975 0.96158 0.13138 0.0
Tb540 Tb 0.81442 0.29071 0.78204 0.0
C541 C 0.7661 0.30273 0.81742 0.0
Tb542 Tb 0.80929 0.31804 0.86755 0.0
O543 O 0.80615 0.26818 0.83254 0.0
O544 O 0.81998 0.29114 0.8586 0.0
O545 O 0.77809 0.29791 0.7796 0.0
C546 C 0.79929 0.32886 0.95687 0.0
O547 O 0.77597 0.30473 0.85993 0.0
C548 C 0.79903 0.33132 0.78048 0.0
C549 C 0.85562 0.31914 0.80417 0.0
O550 O 0.78737 0.33215 0.918 0.0
O551 O 0.81805 0.32031 0.94497 0.0
O552 O 0.79397 0.33942 0.81978 0.0
O553 O 0.81077 0.31792 0.79316 0.0
O554 O 0.84488 0.32497 0.84368 0.0
O555 O 0.84702 0.30627 0.77697 0.0
C556 C 0.81529 0.27445 0.69711 0.0
O557 O 0.8323 0.27438 0.72843 0.0
O558 O 0.79832 0.2838 0.71369 0.0
C559 C 0.81099 0.27643 0.87145 0.0
Tb560 Tb 0.44913 0.9419 0.05293 0.0
C561 C 0.43452 0.91265 0.13189 0.0
Tb562 Tb 0.41775 0.95247 0.13878 0.0
O563 O 0.47816 0.93599 0.10212 0.0
O564 O 0.45344 0.95494 0.11916 0.0
O565 O 0.44045 0.91534 0.08545 0.0
C566 C 0.40729 0.96485 0.22481 0.0
O567 O 0.4281 0.92568 0.15978 0.0
C568 C 0.39475 0.94781 0.05728 0.0
C569 C 0.42596 0.98057 0.0558 0.0
O570 O 0.39764 0.95091 0.20668 0.0
O571 O 0.42231 0.97154 0.19449 0.0
O572 O 0.3862 0.95563 0.09444 0.0
O573 O 0.41344 0.94041 0.07175 0.0
O574 O 0.42038 0.97785 0.10161 0.0
O575 O 0.43643 0.96846 0.02992 0.0
C576 C 0.47121 0.94079 0.96732 0.0
O577 O 0.47558 0.9516 1.00138 0.0
O578 O 0.45463 0.93 0.98201 0.0
C579 C 0.47093 0.94636 0.13523 0.0
Tb580 Tb 0.81187 0.70527 1.00216 0.0
C581 C 0.75917 0.6955 0.98284 0.0
Tb582 Tb 0.79766 0.67863 0.92125 0.0
O583 O 0.82898 0.72229 0.94631 0.0
O584 O 0.80074 0.70653 0.92915 0.0
O585 O 0.77476 0.70124 1.01387 0.0
C586 C 0.78819 0.67035 0.8294 0.0
O587 O 0.76463 0.69052 0.93898 0.0
C588 C 0.79153 0.66603 1.0107 0.0
C589 C 0.84824 0.67566 0.97071 0.0
O590 O 0.77932 0.66264 0.86802 0.0
O591 O 0.80341 0.68197 0.84288 0.0
O592 O 0.78223 0.6588 0.9731 0.0
O593 O 0.80526 0.67796 0.99467 0.0
O594 O 0.83461 0.67145 0.93351 0.0
O595 O 0.84259 0.68813 1.0016 0.0
C596 C 0.81481 0.72426 0.08233 0.0
O597 O 0.82646 0.70993 0.07396 0.0
O598 O 0.80198 0.72818 0.04491 0.0
C599 C 0.81606 0.7168 0.91144 0.0
Tb600 Tb 0.05453 0.04196 0.71561 0.0
C601 C 0.07102 0.00457 0.68382 0.0
Tb602 Tb 0.08877 0.03924 0.62824 0.0
O603 O 0.02668 0.05125 0.66608 0.0
O604 O 0.05283 0.03486 0.64225 0.0
O605 O 0.066 0.01434 0.72123 0.0
C606 C 0.1015 0.0363 0.53592 0.0
O607 O 0.07741 0.012 0.64162 0.0
C608 C 0.10778 0.03507 0.71341 0.0
C609 C 0.07798 0.07722 0.67213 0.0
O610 O 0.08229 0.0433 0.55093 0.0
O611 O 0.11427 0.03195 0.57324 0.0
O612 O 0.11688 0.02876 0.6746 0.0
O613 O 0.09058 0.04464 0.70157 0.0
O614 O 0.08832 0.06826 0.63734 0.0
O615 O 0.06474 0.06962 0.70637 0.0
C616 C 0.03339 0.04088 0.80254 0.0
O617 O 0.02677 0.03231 0.76516 0.0
O618 O 0.05185 0.05004 0.79078 0.0
C619 C 0.03551 0.04395 0.62856 0.0
Tb620 Tb 0.68804 0.29909 0.46514 0.0
C621 C 0.74042 0.29522 0.44066 0.0
Tb622 Tb 0.70912 0.32105 0.37645 0.0
O623 O 0.6658 0.2847 0.41477 0.0
O624 O 0.69773 0.29461 0.39205 0.0
O625 O 0.7252 0.296 0.47628 0.0
C626 C 0.7241 0.32907 0.28601 0.0
O627 O 0.73535 0.30136 0.39627 0.0
C628 C 0.71994 0.33351 0.46026 0.0
C629 C 0.65893 0.33104 0.41837 0.0
O630 O 0.7042 0.32165 0.29732 0.0
O631 O 0.73479 0.33266 0.32563 0.0
O632 O 0.73099 0.33774 0.4205 0.0
O633 O 0.70192 0.32485 0.44963 0.0
O634 O 0.6746 0.33364 0.383 0.0
O635 O 0.66122 0.31899 0.45434 0.0
C636 C 0.6769 0.28249 0.5504 0.0
O637 O 0.67391 0.29927 0.53917 0.0
O638 O 0.68622 0.2751 0.51349 0.0
C639 C 0.67946 0.28718 0.37785 0.0
H640 H 0.12783 0.45622 0.29398 0.0
H641 H 0.09945 0.53666 0.46589 0.0
H642 H 0.08856 0.50294 0.25061 0.0
H643 H 0.12138 0.48508 0.52149 0.0
H644 H 0.10191 0.52598 0.38414 0.0
H645 H 0.13175 0.46794 0.37523 0.0
C646 C 0.12029 0.469 0.30145 0.0
C647 C 0.10783 0.47863 0.26573 0.0
C648 C 0.10638 0.517 0.41413 0.0
C649 C 0.11228 0.49208 0.35787 0.0
C650 C 0.10509 0.52313 0.4608 0.0
C651 C 0.11017 0.51171 0.50042 0.0
C652 C 0.11287 0.49931 0.4069 0.0
C653 C 0.11729 0.49429 0.4918 0.0
C654 C 0.12243 0.47564 0.34773 0.0
C655 C 0.09826 0.49507 0.27718 0.0
N656 N 0.11835 0.48857 0.44591 0.0
N657 N 0.10068 0.50125 0.32213 0.0
H658 H 0.67742 0.79679 0.72743 0.0
H659 H 0.79157 0.81836 0.57557 0.0
H660 H 0.74099 0.8127 0.79604 0.0
H661 H 0.72435 0.83554 0.52296 0.0
H662 H 0.77403 0.81068 0.65411 0.0
H663 H 0.69508 0.80452 0.64826 0.0
C664 C 0.69525 0.80146 0.72573 0.0
C665 C 0.70794 0.80391 0.76809 0.0
C666 C 0.76318 0.8163 0.6255 0.0
C667 C 0.728 0.81288 0.67848 0.0
C668 C 0.77318 0.82079 0.58084 0.0
C669 C 0.75938 0.82756 0.54275 0.0
C670 C 0.73911 0.81833 0.63195 0.0
C671 C 0.73561 0.83042 0.55149 0.0
C672 C 0.70516 0.80611 0.68077 0.0
C673 C 0.73075 0.81049 0.76409 0.0
N674 N 0.72611 0.82552 0.59501 0.0
N675 N 0.74012 0.81462 0.72014 0.0
H676 H 0.37089 0.49646 0.73723 0.0
H677 H 0.36867 0.50966 1.01862 0.0
H678 H 0.39649 0.54466 0.79769 0.0
H679 H 0.3873 0.45965 0.95857 0.0
H680 H 0.3678 0.52339 0.93694 0.0
H681 H 0.3658 0.48348 0.81871 0.0
C682 C 0.37518 0.50435 0.76779 0.0
C683 C 0.38428 0.52154 0.76125 0.0
C684 C 0.37182 0.50938 0.94185 0.0
C685 C 0.37822 0.50697 0.85361 0.0
C686 C 0.37212 0.50154 0.98808 0.0
C687 C 0.37812 0.48359 0.99472 0.0
C688 C 0.37695 0.49899 0.90248 0.0
C689 C 0.38274 0.47359 0.95448 0.0
C690 C 0.37236 0.49694 0.814 0.0
C691 C 0.38968 0.53127 0.80168 0.0
N692 N 0.382 0.48144 0.90976 0.0
N693 N 0.3865 0.52383 0.84652 0.0
H694 H 0.79338 0.1668 0.21067 0.0
H695 H 0.68184 0.19342 0.05165 0.0
H696 H 0.72321 0.16717 0.26545 0.0
H697 H 0.75103 0.1902 0.99217 0.0
H698 H 0.69706 0.18409 0.13033 0.0
H699 H 0.77844 0.17428 0.12971 0.0
C700 C 0.77479 0.1683 0.20535 0.0
C701 C 0.75948 0.16666 0.24449 0.0
C702 C 0.70899 0.18546 0.10023 0.0
C703 C 0.7423 0.1754 0.15274 0.0
C704 C 0.70034 0.19097 0.05533 0.0
C705 C 0.71526 0.19268 1.01545 0.0
C706 C 0.73276 0.18155 0.10541 0.0
C707 C 0.739 0.18908 0.02214 0.0
C708 C 0.76628 0.17262 0.15934 0.0
C709 C 0.73555 0.16835 0.23603 0.0
N710 N 0.74705 0.18364 0.06636 0.0
N711 N 0.7277 0.17286 0.19109 0.0
H712 H 0.94769 0.52324 0.9793 0.0
H713 H 0.87558 0.46867 0.7889 0.0
H714 H 0.87672 0.50745 1.0088 0.0
H715 H 0.93773 0.49918 0.75708 0.0
H716 H 0.87497 0.48098 0.87018 0.0
H717 H 0.94402 0.51262 0.89847 0.0
C718 C 0.93122 0.51756 0.96858 0.0
C719 C 0.91248 0.51621 1.00073 0.0
C720 C 0.88856 0.48502 0.84505 0.0
C721 C 0.90812 0.50377 0.90761 0.0
C722 C 0.88893 0.478 0.79888 0.0
C723 C 0.90679 0.48286 0.76642 0.0
C724 C 0.90629 0.49679 0.85845 0.0
C725 C 0.92368 0.49498 0.78093 0.0
C726 C 0.9291 0.51151 0.92223 0.0
C727 C 0.89154 0.50876 0.98483 0.0
N728 N 0.92306 0.50141 0.82573 0.0
N729 N 0.88993 0.50265 0.93928 0.0
H730 H 0.19691 0.1801 0.71878 0.0
H731 H 0.29334 0.15339 0.53623 0.0
H732 H 0.25567 0.14981 0.77254 0.0
H733 H 0.26645 0.20684 0.53396 0.0
H734 H 0.27596 0.14786 0.61628 0.0
H735 H 0.21739 0.18557 0.64232 0.0
C736 C 0.21405 0.17444 0.71422 0.0
C737 C 0.22484 0.16481 0.75225 0.0
C738 C 0.27408 0.16083 0.5984 0.0
C739 C 0.24803 0.17058 0.6646 0.0
C740 C 0.28391 0.16399 0.55288 0.0
C741 C 0.2812 0.18058 0.52869 0.0
C742 C 0.26079 0.17415 0.61896 0.0
C743 C 0.26894 0.19391 0.55164 0.0
C744 C 0.22573 0.17764 0.67078 0.0
C745 C 0.24679 0.15734 0.7441 0.0
N746 N 0.25876 0.1903 0.59524 0.0
N747 N 0.25772 0.16036 0.70095 0.0
H748 H 0.62219 0.48434 0.23801 0.0
H749 H 0.62437 0.49877 0.51971 0.0
H750 H 0.60623 0.53507 0.29689 0.0
H751 H 0.59914 0.45028 0.46037 0.0
H752 H 0.62853 0.51177 0.4377 0.0
H753 H 0.62451 0.47118 0.32001 0.0
C754 C 0.61951 0.49273 0.26832 0.0
C755 C 0.61386 0.51073 0.26115 0.0
C756 C 0.62232 0.49823 0.4428 0.0
C757 C 0.61673 0.49592 0.35415 0.0
C758 C 0.62011 0.49079 0.48929 0.0
C759 C 0.61131 0.47352 0.49628 0.0
C760 C 0.6162 0.48811 0.40343 0.0
C761 C 0.6058 0.46372 0.45607 0.0
C762 C 0.6207 0.48522 0.31483 0.0
C763 C 0.61038 0.52108 0.3013 0.0
N764 N 0.60838 0.47115 0.4111 0.0
N765 N 0.61193 0.51351 0.34637 0.0
H766 H 0.26279 0.84911 0.26999 0.0
H767 H 0.20109 0.82993 0.05801 0.0
H768 H 0.31778 0.8212 0.19934 0.0
H769 H 0.26856 0.8366 0.99147 0.0
H770 H 0.21966 0.83222 0.13765 0.0
H771 H 0.24073 0.85033 0.19398 0.0
C772 C 0.27037 0.84357 0.23819 0.0
C773 C 0.29205 0.83502 0.24059 0.0
C774 C 0.23024 0.83345 0.10543 0.0
C775 C 0.26703 0.83617 0.15452 0.0
C776 C 0.21972 0.83196 0.06024 0.0
C777 C 0.23335 0.83312 1.01838 0.0
C778 C 0.2545 0.83586 0.10824 0.0
C779 C 0.25741 0.83576 0.02291 0.0
C780 C 0.25765 0.84401 0.19524 0.0
C781 C 0.30108 0.82786 0.19878 0.0
N782 N 0.26725 0.83682 0.06703 0.0
N783 N 0.28856 0.82866 0.15733 0.0
H784 H 0.62207 0.02513 1.00329 0.0
H785 H 0.57383 0.96222 0.801 0.0
H786 H 0.5516 0.00543 0.998 0.0
H787 H 0.6284 0.00022 0.76811 0.0
H788 H 0.57072 0.97365 0.88158 0.0
H789 H 0.62949 0.01233 0.92414 0.0
C790 C 0.60826 0.01807 0.9856 0.0
C791 C 0.5862 0.01632 1.00704 0.0
C792 C 0.58352 0.97942 0.85694 0.0
C793 C 0.5946 0.00153 0.91777 0.0
C794 C 0.5854 0.97285 0.81097 0.0
C795 C 0.60134 0.98035 0.77778 0.0
C796 C 0.59787 0.99351 0.87029 0.0
C797 C 0.61586 0.99412 0.79272 0.0
C798 C 0.61246 0.01084 0.94058 0.0
C799 C 0.56885 0.00711 0.98271 0.0
N800 N 0.61378 0.00031 0.83804 0.0
N801 N 0.57345 -1e-05 0.93965 0.0
H802 H 0.24929 0.2844 0.02275 0.0
H803 H 0.24289 0.34239 0.25223 0.0
H804 H 0.27789 0.3374 1.01447 0.0
H805 H 0.18048 0.31869 0.19778 0.0
H806 H 0.26259 0.33646 0.1757 0.0
H807 H 0.23094 0.29122 0.10036 0.0
C808 C 0.2521 0.29729 0.0378 0.0
C809 C 0.26508 0.31037 1.01248 0.0
C810 C 0.24458 0.33252 0.18077 0.0
C811 C 0.24461 0.31811 0.10062 0.0
C812 C 0.23327 0.33607 0.22405 0.0
C813 C 0.21021 0.33042 0.23179 0.0
C814 C 0.23285 0.323 0.14565 0.0
C815 C 0.1986 0.3223 0.19408 0.0
C816 C 0.24151 0.30122 0.08162 0.0
C817 C 0.26798 0.32698 0.03307 0.0
N818 N 0.21013 0.31848 0.15297 0.0
N819 N 0.25798 0.33035 0.07613 0.0
H820 H 0.89082 0.04275 0.2989 0.0
H821 H 0.89485 0.95481 0.45999 0.0
H822 H 0.87141 0.99262 0.24037 0.0
H823 H 0.87165 0.00408 0.51786 0.0
H824 H 0.89157 0.96838 0.37829 0.0
H825 H 0.88904 0.02886 0.38025 0.0
C826 C 0.88602 0.02886 0.3034 0.0
C827 C 0.88125 0.01874 0.26342 0.0
C828 C 0.88699 0.9761 0.40899 0.0
C829 C 0.87954 0.00284 0.35521 0.0
C830 C 0.889 0.96844 0.4553 0.0
C831 C 0.8836 0.97844 0.49519 0.0
C832 C 0.88003 0.99392 0.40312 0.0
C833 C 0.87587 0.99597 0.48774 0.0
C834 C 0.88493 0.02099 0.34953 0.0
C835 C 0.87503 0.00083 0.27062 0.0
N836 N 0.87461 0.00328 0.44246 0.0
N837 N 0.87467 0.99332 0.31582 0.0
H838 H 0.1863 0.69844 0.55619 0.0
H839 H 0.29499 0.66411 0.71215 0.0
H840 H 0.24931 0.67919 0.49249 0.0
H841 H 0.2258 0.66817 0.77068 0.0
H842 H 0.27933 0.67089 0.63147 0.0
H843 H 0.20156 0.69005 0.63612 0.0
C844 C 0.2036 0.69295 0.55915 0.0
C845 C 0.21689 0.69001 0.51801 0.0
C846 C 0.26752 0.67016 0.66188 0.0
C847 C 0.23409 0.67966 0.6088 0.0
C848 C 0.27644 0.66623 0.70773 0.0
C849 C 0.26166 0.66578 0.74777 0.0
C850 C 0.2437 0.67393 0.65634 0.0
C851 C 0.23774 0.66841 0.74049 0.0
C852 C 0.21213 0.6878 0.60467 0.0
C853 C 0.2387 0.68188 0.5236 0.0
N854 N 0.22951 0.67267 0.69564 0.0
N855 N 0.24671 0.67706 0.56819 0.0
H856 H 0.37887 0.98059 0.52825 0.0
H857 H 0.42453 0.99543 0.25748 0.0
H858 H 0.41835 0.02607 0.47547 0.0
H859 H 0.38146 0.95067 0.30122 0.0
H860 H 0.42068 0.00706 0.33731 0.0
H861 H 0.37776 0.96962 0.44596 0.0
C862 C 0.3871 0.98832 0.49926 0.0
C863 C 0.39875 0.00423 0.50853 0.0
C864 C 0.4119 0.99474 0.32971 0.0
C865 C 0.39768 0.99179 0.41487 0.0
C866 C 0.41409 0.98808 0.28397 0.0
C867 C 0.40331 0.97205 0.27278 0.0
C868 C 0.39893 0.98528 0.36507 0.0
C869 C 0.39002 0.9631 0.30852 0.0
C870 C 0.38649 0.98206 0.45242 0.0
C871 C 0.40918 0.01374 0.4699 0.0
N872 N 0.3883 0.96979 0.35334 0.0
N873 N 0.40848 0.00734 0.42495 0.0
H874 H 0.75074 0.65003 0.04068 0.0
H875 H 0.73674 0.7087 0.26949 0.0
H876 H 0.8078 0.6813 0.09141 0.0
H877 H 0.71038 0.65504 0.2721 0.0
H878 H 0.75642 0.70319 0.19242 0.0
H879 H 0.72999 0.65481 0.11656 0.0
C880 C 0.75903 0.65774 0.06798 0.0
C881 C 0.78082 0.66572 0.05936 0.0
C882 C 0.74607 0.69274 0.20978 0.0
C883 C 0.75685 0.67178 0.14492 0.0
C884 C 0.73469 0.69594 0.25326 0.0
C885 C 0.722 0.68229 0.27687 0.0
C886 C 0.74415 0.67596 0.18951 0.0
C887 C 0.7201 0.66587 0.25487 0.0
C888 C 0.74709 0.66061 0.11095 0.0
C889 C 0.7907 0.67559 0.09596 0.0
N890 N 0.73094 0.66317 0.21228 0.0
N891 N 0.7785 0.67867 0.13677 0.0
H892 H 0.10346 0.96275 0.9585 0.0
H893 H 0.0998 0.05104 0.79795 0.0
H894 H 0.12123 0.01305 1.018 0.0
H895 H 0.1244 0.00226 0.73963 0.0
H896 H 0.10253 0.03723 0.87938 0.0
H897 H 0.10593 0.97672 0.87714 0.0
C898 C 0.10798 0.9767 0.95428 0.0
C899 C 0.11213 0.98682 0.99462 0.0
C900 C 0.10758 0.02966 0.84873 0.0
C901 C 0.11468 0.00281 0.9026 0.0
C902 C 0.10597 0.03748 0.80249 0.0
C903 C 0.11191 0.02772 0.76243 0.0
C904 C 0.11467 0.01186 0.85455 0.0
C905 C 0.11985 0.01023 0.76984 0.0
C906 C 0.1095 0.98461 0.90808 0.0
C907 C 0.11806 0.00481 0.98759 0.0
N908 N 0.12067 0.00272 0.81509 0.0
N909 N 0.11885 0.01233 0.94237 0.0
H910 H 0.7656 0.33795 0.479 0.0
H911 H 0.7565 0.34634 0.76145 0.0
H912 H 0.69921 0.33102 0.54996 0.0
H913 H 0.81481 0.32133 0.6938 0.0
H914 H 0.73584 0.34722 0.68363 0.0
H915 H 0.78463 0.33844 0.55736 0.0
C916 C 0.75498 0.33667 0.5112 0.0
C917 C 0.7308 0.3344 0.50817 0.0
C918 C 0.75321 0.34167 0.68597 0.0
C919 C 0.75252 0.33516 0.5979 0.0
C920 C 0.76507 0.34136 0.72998 0.0
C921 C 0.78739 0.33388 0.73357 0.0
C922 C 0.76412 0.33492 0.64538 0.0
C923 C 0.79764 0.32727 0.69224 0.0
C924 C 0.7659 0.33686 0.55583 0.0
C925 C 0.71792 0.33269 0.55099 0.0
N926 N 0.78599 0.32806 0.6497 0.0
N927 N 0.72895 0.33322 0.5944 0.0
H928 H 0.12473 0.3499 0.35354 0.0
H929 H 0.08777 0.38494 0.09481 0.0
H930 H 0.11578 0.31402 0.23737 0.0
H931 H 0.06913 0.41205 0.2232 0.0
H932 H 0.09629 0.35808 0.14544 0.0
H933 H 0.10227 0.37227 0.30742 0.0
C934 C 0.11756 0.3465 0.31905 0.0
C935 C 0.12261 0.33007 0.29928 0.0
C936 C 0.0899 0.36985 0.16228 0.0
C937 C 0.09749 0.35592 0.24534 0.0
C938 C 0.08494 0.38512 0.13333 0.0
C939 C 0.07819 0.40085 0.15484 0.0
C940 C 0.08825 0.37047 0.21287 0.0
C941 C 0.07486 0.40035 0.20509 0.0
C942 C 0.10484 0.35935 0.29245 0.0
C943 C 0.11273 0.32655 0.25409 0.0
N944 N 0.08031 0.38559 0.23235 0.0
N945 N 0.1012 0.33949 0.22821 0.0
H946 H 0.86354 0.91767 0.5926 0.0
H947 H 0.869 0.82043 0.50251 0.0
H948 H 0.93148 0.89643 0.56279 0.0
H949 H 0.82435 0.86006 0.43468 0.0
H950 H 0.89056 0.84429 0.54146 0.0
H951 H 0.84582 0.89175 0.556 0.0
C952 C 0.8747 0.90722 0.58008 0.0
C953 C 0.89897 0.90907 0.58097 0.0
C954 C 0.87628 0.84767 0.51733 0.0
C955 C 0.87891 0.8797 0.53875 0.0
C956 C 0.86418 0.83415 0.49476 0.0
C957 C 0.84507 0.83831 0.46481 0.0
C958 C 0.86857 0.86527 0.51127 0.0
C959 C 0.8392 0.85627 0.45676 0.0
C960 C 0.86461 0.89264 0.5585 0.0
C961 C 0.91268 0.89537 0.56298 0.0
N962 N 0.85058 0.86906 0.48069 0.0
N963 N 0.90246 0.88119 0.54251 0.0
H964 H 0.37499 0.67429 0.79343 0.0
H965 H 0.36606 0.58167 0.6722 0.0
H966 H 0.326 0.63387 0.84119 0.0
H967 H 0.43411 0.60292 0.70169 0.0
H968 H 0.34859 0.60567 0.71716 0.0
H969 H 0.39592 0.65192 0.74786 0.0
C970 C 0.36914 0.6606 0.79566 0.0
C971 C 0.34894 0.65586 0.82166 0.0
C972 C 0.36733 0.60525 0.71287 0.0
C973 C 0.37177 0.6307 0.76744 0.0
C974 C 0.37726 0.59181 0.68637 0.0
C975 C 0.40153 0.59044 0.68293 0.0
C976 C 0.38177 0.61755 0.73518 0.0
C977 C 0.41529 0.60366 0.70328 0.0
C978 C 0.38086 0.64795 0.76918 0.0
C979 C 0.34173 0.63803 0.82242 0.0
N980 N 0.40523 0.61669 0.72871 0.0
N981 N 0.35283 0.62618 0.79479 0.0
H982 H 0.60855 0.17493 1.01685 0.0
H983 H 0.62881 0.07492 0.1157 0.0
H984 H 0.66259 0.14119 0.96342 0.0
H985 H 0.57607 0.10939 0.17082 0.0
H986 H 0.64301 0.09945 0.06348 0.0
H987 H 0.5966 0.15106 0.07329 0.0
C988 C 0.61769 0.16236 1.01639 0.0
C989 C 0.63661 0.16008 0.98512 0.0
C990 C 0.62859 0.10178 0.08751 0.0
C991 C 0.62324 0.13267 0.05089 0.0
C992 C 0.62064 0.08783 0.11786 0.0
C993 C 0.60124 0.09011 0.14785 0.0
C994 C 0.61695 0.11816 0.0867 0.0
C995 C 0.59124 0.10708 0.1488 0.0
C996 C 0.61096 0.14877 0.04906 0.0
C997 C 0.64776 0.14349 0.98637 0.0
N998 N 0.599 0.12038 0.11814 0.0
N999 N 0.64101 0.13046 1.01897 0.0
H1000 H 0.14178 0.57105 0.59789 0.0
H1001 H 0.12261 0.67492 0.53972 0.0
H1002 H 0.09029 0.60207 0.67016 0.0
H1003 H 0.16563 0.64174 0.4532 0.0
H1004 H 0.112 0.64893 0.59022 0.0
H1005 H 0.15318 0.59742 0.54993 0.0
C1006 C 0.1331 0.5835 0.60439 0.0
C1007 C 0.11493 0.58425 0.63827 0.0
C1008 C 0.12361 0.64726 0.56003 0.0
C1009 C 0.12781 0.61464 0.58233 0.0
C1010 C 0.12964 0.6621 0.53092 0.0
C1011 C 0.14504 0.66055 0.4919 0.0
C1012 C 0.13319 0.63063 0.55065 0.0
C1013 C 0.15353 0.64357 0.48247 0.0
C1014 C 0.13954 0.59855 0.57653 0.0
C1015 C 0.10448 0.60083 0.64489 0.0
N1016 N 0.14764 0.6293 0.51186 0.0
N1017 N 0.11094 0.61532 0.61691 0.0
H1018 H 0.63775 0.91958 0.66459 0.0
H1019 H 0.60946 0.82021 0.75528 0.0
H1020 H 0.57542 0.89256 0.62091 0.0
H1021 H 0.65773 0.8544 0.82649 0.0
H1022 H 0.59844 0.8451 0.70086 0.0
H1023 H 0.64823 0.89381 0.71561 0.0
C1024 C 0.62648 0.90801 0.66501 0.0
C1025 C 0.60562 0.90821 0.63859 0.0
C1026 C 0.61124 0.84721 0.72868 0.0
C1027 C 0.61734 0.87872 0.69797 0.0
C1028 C 0.61749 0.83306 0.75993 0.0
C1029 C 0.63453 0.83528 0.79557 0.0
C1030 C 0.62238 0.86366 0.73251 0.0
C1031 C 0.64437 0.85217 0.7999 0.0
C1032 C 0.63236 0.89339 0.69462 0.0
C1033 C 0.59174 0.89287 0.64037 0.0
N1034 N 0.63834 0.86567 0.76834 0.0
N1035 N 0.59775 0.87873 0.67002 0.0
H1036 H 0.42206 0.40864 1.01617 0.0
H1037 H 0.3222 0.33661 0.04069 0.0
H1038 H 0.36673 0.41431 0.11981 0.0
H1039 H 0.35367 0.35162 0.90411 0.0
H1040 H 0.34183 0.36162 0.07732 0.0
H1041 H 0.40172 0.3834 0.98384 0.0
C1042 C 0.4058 0.40444 0.03281 0.0
C1043 C 0.39596 0.41386 0.07054 0.0
C1044 C 0.34428 0.35951 0.03931 0.0
C1045 C 0.37262 0.3848 0.0332 0.0
C1046 C 0.33313 0.34529 1.01833 0.0
C1047 C 0.33636 0.3421 0.96926 0.0
C1048 C 0.35928 0.37034 1.01134 0.0
C1049 C 0.35064 0.35371 0.94193 0.0
C1050 C 0.39413 0.39009 1.01387 0.0
C1051 C 0.37499 0.40751 0.09076 0.0
N1052 N 0.36188 0.36721 0.96355 0.0
N1053 N 0.36392 0.39337 0.07168 0.0
H1054 H 0.82276 0.13341 0.3476 0.0
H1055 H 0.92956 0.1017 0.19527 0.0
H1056 H 0.87018 0.17267 0.28653 0.0
H1057 H 0.86115 0.07877 0.18263 0.0
H1058 H 0.91255 0.12643 0.2386 0.0
H1059 H 0.84251 0.11061 0.30241 0.0
C1060 C 0.8379 0.13714 0.32622 0.0
C1061 C 0.8449 0.15497 0.32098 0.0
C1062 C 0.90126 0.11617 0.22536 0.0
C1063 C 0.86715 0.12902 0.26842 0.0
C1064 C 0.91086 0.10224 0.20013 0.0
C1065 C 0.89662 0.08841 0.18457 0.0
C1066 C 0.87746 0.11583 0.2366 0.0
C1067 C 0.87261 0.08939 0.19302 0.0
C1068 C 0.84882 0.12418 0.29965 0.0
C1069 C 0.86431 0.15905 0.29172 0.0
N1070 N 0.86382 0.10268 0.21938 0.0
N1071 N 0.87477 0.14617 0.26634 0.0
H1072 H 0.92905 0.60773 0.17005 0.0
H1073 H 0.85478 0.64169 0.94106 0.0
H1074 H 0.87721 0.57686 0.09778 0.0
H1075 H 0.88038 0.67872 0.04355 0.0
H1076 H 0.87225 0.61745 0.98913 0.0
H1077 H 0.91771 0.63389 0.11906 0.0
C1078 C 0.91502 0.60651 0.14435 0.0
C1079 C 0.90416 0.59 0.13821 0.0
C1080 C 0.87435 0.63093 1.00072 0.0
C1081 C 0.89194 0.61953 0.07862 0.0
C1082 C 0.86469 0.64487 0.97277 0.0
C1083 C 0.86566 0.66234 0.98856 0.0
C1084 C 0.88529 0.63441 0.04462 0.0
C1085 C 0.87886 0.66545 0.03023 0.0
C1086 C 0.90881 0.62136 0.11484 0.0
C1087 C 0.8863 0.5892 0.10371 0.0
N1088 N 0.88787 0.6516 0.05726 0.0
N1089 N 0.881 0.60361 0.07502 0.0
H1090 H 0.05208 0.105 0.70301 0.0
H1091 H 0.1523 0.13835 0.85559 0.0
H1092 H 0.12225 0.08969 0.66844 0.0
H1093 H 0.11963 0.18089 0.7717 0.0
H1094 H 0.13103 0.11683 0.8086 0.0
H1095 H 0.06765 0.13081 0.74454 0.0
C1096 C 0.07068 0.10745 0.70264 0.0
C1097 C 0.08594 0.09536 0.68178 0.0
C1098 C 0.12819 0.13091 0.80143 0.0
C1099 C 0.1036 0.12399 0.73109 0.0
C1100 C 0.13999 0.14322 0.82866 0.0
C1101 C 0.13777 0.16148 0.81755 0.0
C1102 C 0.11367 0.13689 0.7637 0.0
C1103 C 0.12183 0.16693 0.7814 0.0
C1104 C 0.07947 0.12201 0.72665 0.0
C1105 C 0.1099 0.09886 0.68326 0.0
N1106 N 0.1104 0.15465 0.75543 0.0
N1107 N 0.11806 0.11261 0.70872 0.0
H1108 H 0.61348 0.32659 0.44453 0.0
H1109 H 0.62006 0.41274 0.5924 0.0
H1110 H 0.66639 0.36645 0.41836 0.0
H1111 H 0.55294 0.39789 0.53684 0.0
H1112 H 0.63813 0.38978 0.54498 0.0
H1113 H 0.59064 0.34824 0.48887 0.0
C1114 C 0.6198 0.34011 0.44647 0.0
C1115 C 0.64164 0.34489 0.42719 0.0
C1116 C 0.61939 0.39136 0.54401 0.0
C1117 C 0.61658 0.36905 0.48025 0.0
C1118 C 0.609 0.40417 0.57185 0.0
C1119 C 0.58495 0.40717 0.56861 0.0
C1120 C 0.60558 0.38127 0.51365 0.0
C1121 C 0.57154 0.39591 0.54037 0.0
C1122 C 0.60698 0.3523 0.4723 0.0
C1123 C 0.64943 0.36238 0.43183 0.0
N1124 N 0.58205 0.38344 0.5137 0.0
N1125 N 0.63718 0.37372 0.45898 0.0
H1126 H 0.38359 0.80928 0.22708 0.0
H1127 H 0.44563 0.90419 0.22444 0.0
H1128 H 0.38173 0.84436 0.34636 0.0
H1129 H 0.42037 0.88054 0.09554 0.0
H1130 H 0.43375 0.87767 0.27149 0.0
H1131 H 0.40814 0.83067 0.1826 0.0
C1132 C 0.38877 0.82125 0.24466 0.0
C1133 C 0.38009 0.82507 0.29062 0.0
C1134 C 0.43121 0.8781 0.23282 0.0
C1135 C 0.40852 0.84963 0.23924 0.0
C1136 C 0.4381 0.89318 0.20576 0.0
C1137 C 0.43372 0.89469 0.15593 0.0
C1138 C 0.41995 0.86422 0.21007 0.0
C1139 C 0.42412 0.87994 0.13375 0.0
C1140 C 0.40272 0.83351 0.21884 0.0
C1141 C 0.38779 0.84079 0.31115 0.0
N1142 N 0.41724 0.86538 0.16113 0.0
N1143 N 0.40134 0.85256 0.28513 0.0
H1144 H 0.93415 0.41241 0.72044 0.0
H1145 H 0.87584 0.31616 0.71514 0.0
H1146 H 0.91347 0.38842 0.5886 0.0
H1147 H 0.87787 0.34828 0.84054 0.0
H1148 H 0.89859 0.33879 0.67084 0.0
H1149 H 0.92284 0.38543 0.76562 0.0
C1150 C 0.92747 0.40133 0.70081 0.0
C1151 C 0.92436 0.40282 0.6506 0.0
C1152 C 0.89439 0.34072 0.70827 0.0
C1153 C 0.91126 0.3717 0.70268 0.0
C1154 C 0.88152 0.32772 0.73398 0.0
C1155 C 0.87454 0.33031 0.78187 0.0
C1156 C 0.90069 0.35639 0.73059 0.0
C1157 C 0.8826 0.34565 0.80379 0.0
C1158 C 0.92099 0.38592 0.7268 0.0
C1159 C 0.91608 0.38788 0.62721 0.0
N1160 N 0.89502 0.35815 0.77788 0.0
N1161 N 0.9095 0.37299 0.65356 0.0
H1162 H 0.37571 0.16709 0.53985 0.0
H1163 H 0.35927 0.06299 0.59943 0.0
H1164 H 0.33331 0.13285 0.45476 0.0
H1165 H 0.40691 0.09581 0.67689 0.0
H1166 H 0.34757 0.08894 0.55016 0.0
H1167 H 0.38658 0.14152 0.59157 0.0
C1168 C 0.36892 0.15413 0.53155 0.0
C1169 C 0.35358 0.15215 0.49264 0.0
C1170 C 0.36042 0.09055 0.57818 0.0
C1171 C 0.36569 0.12275 0.55272 0.0
C1172 C 0.367 0.07575 0.60672 0.0
C1173 C 0.38418 0.07718 0.64244 0.0
C1174 C 0.37109 0.10703 0.58508 0.0
C1175 C 0.39349 0.09408 0.65012 0.0
C1176 C 0.37506 0.13954 0.5614 0.0
C1177 C 0.34536 0.13501 0.48391 0.0
N1178 N 0.38698 0.10832 0.62137 0.0
N1179 N 0.35138 0.12101 0.51392 0.0
H1180 H 0.57012 0.5953 0.18916 0.0
H1181 H 0.67932 0.63126 0.33399 0.0
H1182 H 0.63776 0.57085 0.18289 0.0
H1183 H 0.61757 0.66222 0.30389 0.0
H1184 H 0.66368 0.60771 0.28389 0.0
H1185 H 0.5871 0.61985 0.23217 0.0
C1186 C 0.58875 0.59549 0.19534 0.0
C1187 C 0.60267 0.58127 0.18186 0.0
C1188 C 0.65351 0.61961 0.28868 0.0
C1189 C 0.62206 0.60872 0.2334 0.0
C1190 C 0.66222 0.63284 0.31794 0.0
C1191 C 0.64952 0.6485 0.32341 0.0
C1192 C 0.63195 0.62214 0.26534 0.0
C1193 C 0.62778 0.65023 0.30078 0.0
C1194 C 0.59841 0.60934 0.22052 0.0
C1195 C 0.6266 0.58182 0.19184 0.0
N1196 N 0.61969 0.63723 0.27279 0.0
N1197 N 0.63552 0.5952 0.21784 0.0
H1198 H 0.11775 0.83181 0.96295 0.0
H1199 H 0.13359 0.92527 0.08101 0.0
H1200 H 0.17394 0.86765 0.9247 0.0
H1201 H 0.06513 0.90383 0.05691 0.0
H1202 H 0.15041 0.90067 0.0372 0.0
H1203 H 0.09869 0.8557 1.00582 0.0
C1204 C 0.12562 0.8449 0.96212 0.0
C1205 C 0.14723 0.84787 0.93961 0.0
C1206 C 0.13173 0.90121 0.04228 0.0
C1207 C 0.12636 0.87479 0.99092 0.0
C1208 C 0.12219 0.91499 0.06818 0.0
C1209 C 0.09798 0.91642 0.07298 0.0
C1210 C 0.11695 0.88869 0.02177 0.0
C1211 C 0.08391 0.90305 0.05432 0.0
C1212 C 0.11494 0.85841 0.98715 0.0
C1213 C 0.15705 0.86493 0.94069 0.0
N1214 N 0.09358 0.88974 0.02941 0.0
N1215 N 0.14677 0.87766 0.96681 0.0
H1216 H 0.97631 0.4836 0.14526 0.0
H1217 H 0.09832 0.51983 0.07654 0.0
H1218 H 0.00758 0.52296 0.23314 0.0
H1219 H 0.04973 0.50096 0.97617 0.0
H1220 H 0.06667 0.52621 0.13259 0.0
H1221 H 0.0081 0.48753 0.08784 0.0
C1222 C 0.99052 0.49245 0.15368 0.0
C1223 C 0.98837 0.50425 0.1911 0.0
C1224 C 0.06261 0.52087 0.09795 0.0
C1225 C 0.02406 0.50912 0.12611 0.0
C1226 C 0.08053 0.51756 0.06534 0.0
C1227 C 0.07574 0.50498 0.03059 0.0
C1228 C 0.04038 0.51414 0.08747 0.0
C1229 C 0.05355 0.50673 1.01038 0.0
C1230 C 0.00804 0.49529 0.11986 0.0
C1231 C 0.00786 0.51455 0.2024 0.0
N1232 N 0.03581 0.50904 0.04176 0.0
N1233 N 0.02462 0.51747 0.1686 0.0
H1234 H 0.72301 0.78685 0.55731 0.0
H1235 H 0.66926 0.75451 0.36762 0.0
H1236 H 0.70386 0.81357 0.42311 0.0
H1237 H 0.69664 0.73224 0.50145 0.0
H1238 H 0.65455 0.7798 0.41073 0.0
H1239 H 0.68165 0.78117 0.57269 0.0
C1240 C 0.71031 0.79105 0.53039 0.0
C1241 C 0.71711 0.79775 0.48451 0.0
C1242 C 0.66346 0.76922 0.43081 0.0
C1243 C 0.67189 0.78873 0.49932 0.0
C1244 C 0.67259 0.75511 0.40589 0.0
C1245 C 0.6859 0.74203 0.43034 0.0
C1246 C 0.66876 0.77071 0.47998 0.0
C1247 C 0.6879 0.74267 0.4805 0.0
C1248 C 0.6866 0.78846 0.53984 0.0
C1249 C 0.69965 0.8054 0.45485 0.0
N1250 N 0.6797 0.75684 0.5035 0.0
N1251 N 0.67702 0.80126 0.46418 0.0
H1252 H 0.57224 0.52272 0.64757 0.0
H1253 H 0.44731 0.48326 0.59979 0.0
H1254 H 0.54325 0.51744 0.50812 0.0
H1255 H 0.47023 0.49678 0.74095 0.0
H1256 H 0.48476 0.49293 0.56706 0.0
H1257 H 0.53378 0.51798 0.68371 0.0
C1258 C 0.55742 0.52117 0.62397 0.0
C1259 C 0.56074 0.51554 0.57685 0.0
C1260 C 0.48158 0.49387 0.6053 0.0
C1261 C 0.51749 0.51219 0.6151 0.0
C1262 C 0.46057 0.48763 0.62445 0.0
C1263 C 0.4547 0.49179 0.67175 0.0
C1264 C 0.4971 0.50272 0.63525 0.0
C1265 C 0.47322 0.49552 0.70275 0.0
C1266 C 0.53562 0.51789 0.64492 0.0
C1267 C 0.54131 0.51793 0.54682 0.0
N1268 N 0.49331 0.50213 0.68361 0.0
N1269 N 0.52018 0.51396 0.56636 0.0
H1270 H 0.67547 0.26487 0.93141 0.0
H1271 H 0.73975 0.30139 0.73485 0.0
H1272 H 0.70198 0.24543 0.79793 0.0
H1273 H 0.73651 0.31868 0.88078 0.0
H1274 H 0.69733 0.30042 0.73328 0.0
H1275 H 0.67127 0.29433 0.89285 0.0
C1276 C 0.68071 0.26684 0.89414 0.0
C1277 C 0.6907 0.253 0.86867 0.0
C1278 C 0.7059 0.30497 0.76532 0.0
C1279 C 0.6853 0.28655 0.82429 0.0
C1280 C 0.73017 0.30486 0.76673 0.0
C1281 C 0.74148 0.30729 0.81085 0.0
C1282 C 0.69427 0.30438 0.80984 0.0
C1283 C 0.72833 0.31399 0.84853 0.0
C1284 C 0.6775 0.2835 0.87175 0.0
C1285 C 0.69557 0.25599 0.81973 0.0
N1286 N 0.70479 0.31265 0.84683 0.0
N1287 N 0.69321 0.2725 0.79938 0.0
H1288 H 0.95897 0.50169 0.4726 0.0
H1289 H 0.01072 0.52702 0.71971 0.0
H1290 H 0.91487 0.52198 0.58089 0.0
H1291 H 0.03017 0.48528 0.62571 0.0
H1292 H 0.98012 0.53624 0.66283 0.0
H1293 H 0.99271 0.51406 0.51253 0.0
C1294 C 0.95613 0.50957 0.50389 0.0
C1295 C 0.93569 0.50753 0.53102 0.0
C1296 C 0.99114 0.52506 0.65498 0.0
C1297 C 0.97258 0.52231 0.57415 0.0
C1298 C 0.00802 0.51931 0.68812 0.0
C1299 C 0.02379 0.50589 0.67605 0.0
C1300 C 0.9899 0.51697 0.61059 0.0
C1301 C 0.01884 0.49603 0.63562 0.0
C1302 C 0.97552 0.51639 0.52708 0.0
C1303 C 0.9319 0.52062 0.56473 0.0
N1304 N 0.00284 0.50217 0.60335 0.0
N1305 N 0.95073 0.52618 0.58957 0.0
H1306 H 0.72419 0.67688 0.93984 0.0
H1307 H 0.68864 0.75593 1.00279 0.0
H1308 H 0.74042 0.70276 0.07134 0.0
H1309 H 0.66454 0.7252 0.88457 0.0
H1310 H 0.68738 0.72953 0.05483 0.0
H1311 H 0.68303 0.67843 0.96041 0.0
C1312 C 0.71911 0.68326 0.97248 0.0
C1313 C 0.73531 0.69245 1.00002 0.0
C1314 C 0.68214 0.72845 1.0176 0.0
C1315 C 0.68906 0.69589 0.01951 0.0
C1316 C 0.68343 0.74353 0.98746 0.0
C1317 C 0.67844 0.74249 0.93827 0.0
C1318 C 0.67742 0.7119 0.99789 0.0
C1319 C 0.67019 0.72634 0.92148 0.0
C1320 C 0.69566 0.68362 0.98522 0.0
C1321 C 0.72809 0.69806 0.04523 0.0
N1322 N 0.6704 0.71158 0.95099 0.0
N1323 N 0.70496 0.69939 0.05435 0.0
H1324 H 0.43088 0.52641 0.1514 0.0
H1325 H 0.54862 0.47569 0.10089 0.0
H1326 H 0.45685 0.51715 1.01073 0.0
H1327 H 0.52703 0.48948 0.24258 0.0
H1328 H 0.51221 0.48758 0.06838 0.0
H1329 H 0.46799 0.51668 0.18617 0.0
C1330 C 0.44485 0.52298 0.12727 0.0
C1331 C 0.43981 0.51842 0.07983 0.0
C1332 C 0.51541 0.48802 0.10673 0.0
C1333 C 0.48199 0.50883 0.11722 0.0
C1334 C 0.53578 0.48056 0.12572 0.0
C1335 C 0.54211 0.4843 0.1731 0.0
C1336 C 0.50085 0.49756 0.13704 0.0
C1337 C 0.52389 0.48854 0.20432 0.0
C1338 C 0.46572 0.51678 0.14747 0.0
C1339 C 0.4592 0.51751 0.04937 0.0
N1340 N 0.50452 0.49638 0.18544 0.0
N1341 N 0.47921 0.51081 0.06859 0.0
H1342 H 0.73049 0.22864 0.25193 0.0
H1343 H 0.74663 0.2677 0.51034 0.0
H1344 H 0.70331 0.20306 0.37878 0.0
H1345 H 0.77984 0.28842 0.38323 0.0
H1346 H 0.73187 0.24262 0.46618 0.0
H1347 H 0.74128 0.25446 0.29783 0.0
C1348 C 0.72609 0.22867 0.28986 0.0
C1349 C 0.72232 0.21264 0.31605 0.0
C1350 C 0.74234 0.25268 0.44748 0.0
C1351 C 0.73134 0.24166 0.36674 0.0
C1352 C 0.75157 0.26666 0.47291 0.0
C1353 C 0.759 0.28175 0.44587 0.0
C1354 C 0.74505 0.2532 0.39713 0.0
C1355 C 0.76982 0.27815 0.40219 0.0
C1356 C 0.73297 0.24318 0.31616 0.0
C1357 C 0.71123 0.21451 0.36046 0.0
N1358 N 0.76052 0.26495 0.37642 0.0
N1359 N 0.71842 0.22817 0.38728 0.0
H1360 H 0.31439 0.23679 0.93444 0.0
H1361 H 0.26766 0.2 0.74086 0.0
H1362 H 0.28872 0.25542 0.79548 0.0
H1363 H 0.27984 0.17702 0.88315 0.0
H1364 H 0.30969 0.20464 0.73272 0.0
H1365 H 0.33004 0.21048 0.89738 0.0
C1366 C 0.31162 0.23517 0.89631 0.0
C1367 C 0.29874 0.24765 0.86857 0.0
C1368 C 0.30308 0.19834 0.76569 0.0
C1369 C 0.31707 0.21778 0.8258 0.0
C1370 C 0.27898 0.19628 0.77076 0.0
C1371 C 0.26999 0.19128 0.81646 0.0
C1372 C 0.31568 0.19926 0.80896 0.0
C1373 C 0.28574 0.18408 0.85071 0.0
C1374 C 0.32129 0.22048 0.87486 0.0
C1375 C 0.29725 0.24558 0.81881 0.0
N1376 N 0.30884 0.18751 0.84482 0.0
N1377 N 0.30599 0.23084 0.79921 0.0
H1378 H 0.17264 0.77009 0.42199 0.0
H1379 H 0.24392 0.80189 0.22856 0.0
H1380 H 0.20217 0.74665 0.29644 0.0
H1381 H 0.2357 0.8228 0.3698 0.0
H1382 H 0.20174 0.79985 0.22195 0.0
H1383 H 0.1701 0.7985 0.37738 0.0
C1384 C 0.1789 0.77095 0.3852 0.0
C1385 C 0.18932 0.75632 0.36392 0.0
C1386 C 0.20914 0.80544 0.25391 0.0
C1387 C 0.18594 0.78873 0.31265 0.0
C1388 C 0.23329 0.80599 0.25834 0.0
C1389 C 0.24318 0.80987 0.30302 0.0
C1390 C 0.1961 0.806 0.29657 0.0
C1391 C 0.22868 0.81724 0.33749 0.0
C1392 C 0.17664 0.78703 0.35928 0.0
C1393 C 0.19544 0.75788 0.31523 0.0
N1394 N 0.20531 0.81523 0.33333 0.0
N1395 N 0.19409 0.7739 0.29153 0.0
H1396 H 0.31803 0.25763 0.42944 0.0
H1397 H 0.2551 0.29304 0.22981 0.0
H1398 H 0.29102 0.23491 0.30053 0.0
H1399 H 0.26863 0.31786 0.36421 0.0
H1400 H 0.29639 0.28599 0.22424 0.0
H1401 H 0.32457 0.28563 0.38412 0.0
C1402 C 0.31307 0.25864 0.39181 0.0
C1403 C 0.30242 0.24437 0.36941 0.0
C1404 C 0.29043 0.29344 0.25448 0.0
C1405 C 0.31043 0.27615 0.31723 0.0
C1406 C 0.2667 0.29697 0.25826 0.0
C1407 C 0.25809 0.30355 0.30133 0.0
C1408 C 0.30368 0.29387 0.297 0.0
C1409 C 0.27418 0.31038 0.33377 0.0
C1410 C 0.31755 0.27441 0.3656 0.0
C1411 C 0.29797 0.24594 0.3199 0.0
N1412 N 0.29678 0.30536 0.33086 0.0
N1413 N 0.30162 0.26162 0.29571 0.0
H1414 H 0.23209 0.72811 0.7558 0.0
H1415 H 0.24215 0.76401 1.01881 0.0
H1416 H 0.20474 0.69943 0.87772 0.0
H1417 H 0.27986 0.7846 0.89676 0.0
H1418 H 0.22761 0.7397 0.97152 0.0
H1419 H 0.24062 0.75335 0.80566 0.0
C1420 C 0.2271 0.72732 0.79344 0.0
C1421 C 0.22403 0.71078 0.81743 0.0
C1422 C 0.23906 0.74956 0.95472 0.0
C1423 C 0.23032 0.73909 0.8723 0.0
C1424 C 0.24816 0.76308 0.98203 0.0
C1425 C 0.25741 0.77803 0.95701 0.0
C1426 C 0.24325 0.7503 0.90487 0.0
C1427 C 0.26894 0.77451 0.91408 0.0
C1428 C 0.23266 0.74154 0.82201 0.0
C1429 C 0.21214 0.71144 0.86136 0.0
N1430 N 0.25974 0.76175 0.88664 0.0
N1431 N 0.21799 0.72484 0.89037 0.0
H1432 H 0.46142 0.97099 0.66888 0.0
H1433 H 0.5719 0.02739 0.59661 0.0
H1434 H 0.48803 0.0107 0.76071 0.0
H1435 H 0.53127 0.99874 0.49803 0.0
H1436 H 0.53994 0.0259 0.65491 0.0
H1437 H 0.49161 0.97869 0.60992 0.0
C1438 C 0.47435 0.98084 0.67773 0.0
C1439 C 0.47026 0.99238 0.71513 0.0
C1440 C 0.53772 0.02 0.62027 0.0
C1441 C 0.50456 0.00097 0.65006 0.0
C1442 C 0.55564 0.02131 0.58623 0.0
C1443 C 0.55538 0.009 0.54955 0.0
C1444 C 0.51892 0.00866 0.61087 0.0
C1445 C 0.5332 0.00507 0.53214 0.0
C1446 C 0.49083 0.98581 0.64299 0.0
C1447 C 0.48897 0.00315 0.72837 0.0
N1448 N 0.51599 0.00292 0.56527 0.0
N1449 N 0.50461 0.00833 0.69402 0.0
H1450 H 0.05818 0.02779 0.15179 0.0
H1451 H 0.93893 0.97783 0.10663 0.0
H1452 H 0.03183 0.01727 1.01208 0.0
H1453 H 0.96353 0.99003 0.24683 0.0
H1454 H 0.97555 0.98858 0.07181 0.0
H1455 H 0.0215 0.01754 0.18767 0.0
C1456 C 0.04422 0.02394 0.12811 0.0
C1457 C 0.04915 0.01938 0.08065 0.0
C1458 C 0.97301 0.98896 0.11038 0.0
C1459 C 0.00744 0.00905 0.11938 0.0
C1460 C 0.9525 0.98211 0.13069 0.0
C1461 C 0.94699 0.98667 0.17787 0.0
C1462 C 0.98862 0.99789 0.14005 0.0
C1463 C 0.96608 0.98922 0.20835 0.0
C1464 C 0.02363 0.01743 0.14895 0.0
C1465 C 0.02965 0.01781 0.05073 0.0
N1466 N 0.9857 0.99648 0.1887 0.0
N1467 N 0.00994 0.01082 0.07066 0.0
H1468 H 0.44788 0.99783 0.97857 0.0
H1469 H 0.47809 0.04379 0.19921 0.0
H1470 H 0.39365 0.00574 0.08222 0.0
H1471 H 0.50452 0.0013 0.11501 0.0
H1472 H 0.44568 0.04773 0.14157 0.0
H1473 H 0.46302 0.02704 0.99506 0.0
C1474 C 0.43843 0.00598 1.00321 0.0
C1475 C 0.42184 0.99852 0.0349 0.0
C1476 C 0.45876 0.03767 0.13601 0.0
C1477 C 0.44064 0.02989 0.05705 0.0
C1478 C 0.47668 0.03491 0.1696 0.0
C1479 C 0.4943 0.02245 0.16097 0.0
C1480 C 0.4591 0.02817 0.09368 0.0
C1481 C 0.49159 0.01129 0.12241 0.0
C1482 C 0.44697 0.02286 1.01261 0.0
C1483 C 0.4089 0.01029 0.06237 0.0
N1484 N 0.47474 0.01473 0.08956 0.0
N1485 N 0.41915 0.02572 0.07459 0.0
H1486 H 0.96941 0.00209 0.51343 0.0
H1487 H 0.04336 0.98609 0.7525 0.0
H1488 H 0.94748 0.01658 0.65451 0.0
H1489 H 0.07149 0.97856 0.61299 0.0
H1490 H 0.00494 0.99087 0.71732 0.0
H1491 H 0.0069 0.99274 0.54673 0.0
C1492 C 0.97273 0.00391 0.55131 0.0
C1493 C 0.95441 0.00764 0.58288 0.0
C1494 C 0.01938 0.98788 0.69399 0.0
C1495 C -0.00294 0.99784 0.62052 0.0
C1496 C 0.0413 0.98465 0.71406 0.0
C1497 C 0.06052 0.98658 0.68317 0.0
C1498 C 0.0174 0.98925 0.6435 0.0
C1499 C 0.0568 0.98066 0.63651 0.0
C1500 C 0.99391 0.99806 0.57045 0.0
C1501 C 0.96058 0.01204 0.62982 0.0
N1502 N 0.03568 0.98403 0.61612 0.0
N1503 N 0.98106 0.00599 0.64826 0.0
H1504 H 0.04779 0.42049 0.88759 0.0
H1505 H 0.96997 0.4769 0.69598 0.0
H1506 H 0.00922 0.46711 0.92444 0.0
H1507 H 0.99146 0.42296 0.67479 0.0
H1508 H 0.9869 0.47493 0.77729 0.0
H1509 H 0.03026 0.42242 0.80671 0.0
C1510 C 0.03559 0.43108 0.87873 0.0
C1511 C 0.02985 0.44357 0.91296 0.0
C1512 C 0.98774 0.46347 0.75498 0.0
C1513 C 0.00995 0.44606 0.82025 0.0
C1514 C 0.97779 0.46454 0.70876 0.0
C1515 C 0.97866 0.44991 0.67901 0.0
C1516 C -0.00096 0.44775 0.77131 0.0
C1517 C 0.99022 0.43453 0.69659 0.0
C1518 C 0.02558 0.4322 0.83257 0.0
C1519 C 0.01404 0.45711 0.89933 0.0
N1520 N -8e-05 0.43386 0.74137 0.0
N1521 N 0.00475 0.45804 0.85415 0.0
H1522 H 0.79902 0.75779 0.10048 0.0
H1523 H 0.79907 0.74334 0.38547 0.0
H1524 H 0.82807 0.71084 0.17085 0.0
H1525 H 0.80869 0.79563 0.32 0.0
H1526 H 0.80359 0.73059 0.30611 0.0
H1527 H 0.79612 0.77154 0.17935 0.0
C1528 C 0.8049 0.75043 0.13247 0.0
C1529 C 0.81398 0.73321 0.12908 0.0
C1530 C 0.80443 0.74489 0.30901 0.0
C1531 C 0.81018 0.74864 0.21932 0.0
C1532 C 0.80179 0.75218 0.35425 0.0
C1533 C 0.80246 0.77067 0.35914 0.0
C1534 C 0.80768 0.75613 0.26802 0.0
C1535 C 0.80657 0.78143 0.31754 0.0
C1536 C 0.80327 0.75828 0.17737 0.0
C1537 C 0.82118 0.72421 0.17173 0.0
N1538 N 0.80877 0.77404 0.27364 0.0
N1539 N 0.8189 0.73193 0.21504 0.0
H1540 H 0.55369 0.55263 0.37861 0.0
H1541 H 0.44602 0.52356 0.54912 0.0
H1542 H 0.49744 0.51939 0.33241 0.0
H1543 H 0.49701 0.56253 0.58793 0.0
H1544 H 0.46525 0.52102 0.47112 0.0
H1545 H 0.53427 0.5553 0.45662 0.0
C1546 C 0.53723 0.54588 0.38487 0.0
C1547 C 0.52713 0.53586 0.3487 0.0
C1548 C 0.47218 0.53024 0.49643 0.0
C1549 C 0.50468 0.53887 0.43833 0.0
C1550 C 0.46111 0.53178 0.54103 0.0
C1551 C 0.46969 0.54347 0.57508 0.0
C1552 C 0.49219 0.5404 0.48549 0.0
C1553 C 0.48965 0.55346 0.56274 0.0
C1554 C 0.52611 0.54745 0.42945 0.0
C1555 C 0.50581 0.52735 0.35906 0.0
N1556 N 0.5002 0.55169 0.51911 0.0
N1557 N 0.49534 0.52903 0.40279 0.0
H1558 H 0.6301 0.25736 0.84406 0.0
H1559 H 0.6823 0.24722 0.57752 0.0
H1560 H 0.65676 0.20806 0.79362 0.0
H1561 H 0.65689 0.29664 0.63026 0.0
H1562 H 0.67148 0.23228 0.65452 0.0
H1563 H 0.63686 0.27125 0.76414 0.0
C1564 C 0.63709 0.24932 0.81599 0.0
C1565 C 0.64328 0.23149 0.82614 0.0
C1566 C 0.66819 0.24638 0.64929 0.0
C1567 C 0.65145 0.24752 0.7339 0.0
C1568 C 0.67441 0.25494 0.60527 0.0
C1569 C 0.67049 0.27324 0.59723 0.0
C1570 C 0.65789 0.25614 0.68588 0.0
C1571 C 0.66023 0.28252 0.6347 0.0
C1572 C 0.64111 0.25734 0.77027 0.0
C1573 C 0.6522 0.22185 0.78794 0.0
N1574 N 0.65433 0.27391 0.67718 0.0
N1575 N 0.65627 0.23 0.74388 0.0
H1576 H 0.01928 0.55059 0.11666 0.0
H1577 H 0.0013 0.55548 0.82872 0.0
H1578 H 0.95225 0.55586 0.04822 0.0
H1579 H 0.06881 0.55158 0.89594 0.0
H1580 H 0.98323 0.55585 0.90861 0.0
H1581 H 0.03782 0.55161 0.03691 0.0
C1582 C 0.0084 0.55173 0.08487 0.0
C1583 C 0.98405 0.55248 0.08938 0.0
C1584 C 0.002 0.55501 0.90607 0.0
C1585 C 0.00527 0.55376 0.99734 0.0
C1586 C 0.01237 0.55484 0.86031 0.0
C1587 C 0.03667 0.55363 0.85537 0.0
C1588 C 0.01595 0.55393 0.94774 0.0
C1589 C 0.05004 0.55267 0.89785 0.0
C1590 C 0.01903 0.55236 0.03923 0.0
C1591 C 0.97099 0.55453 0.0467 0.0
N1592 N 0.03954 0.55281 0.94205 0.0
N1593 N 0.98169 0.55495 1.00272 0.0
H1594 H 0.64855 0.70523 0.15628 0.0
H1595 H 0.64403 0.79432 0.98878 0.0
H1596 H 0.65345 0.75704 0.21607 0.0
H1597 H 0.61773 0.74391 0.94486 0.0
H1598 H 0.64886 0.78157 0.07131 0.0
H1599 H 0.63885 0.71937 0.07776 0.0
C1600 C 0.64764 0.7196 0.15289 0.0
C1601 C 0.6518 0.72992 0.19302 0.0
C1602 C 0.64179 0.77336 0.04369 0.0
C1603 C 0.64113 0.74638 0.10238 0.0
C1604 C 0.6391 0.78067 0.99648 0.0
C1605 C 0.63096 0.77016 0.95928 0.0
C1606 C 0.63631 0.75535 0.05395 0.0
C1607 C 0.62428 0.75257 0.97196 0.0
C1608 C 0.64201 0.7277 0.10799 0.0
C1609 C 0.65032 0.74853 0.18622 0.0
N1610 N 0.62739 0.74571 1.01769 0.0
N1611 N 0.64538 0.75614 0.14185 0.0
H1612 H 0.54517 0.44428 0.37439 0.0
H1613 H 0.44088 0.48137 0.20562 0.0
H1614 H 0.49285 0.48038 0.42329 0.0
H1615 H 0.48926 0.44121 0.16294 0.0
H1616 H 0.46005 0.48191 0.28435 0.0
H1617 H 0.52581 0.444 0.29585 0.0
C1618 C 0.52959 0.45217 0.36859 0.0
C1619 C 0.52055 0.46228 0.40568 0.0
C1620 C 0.46641 0.47287 0.25797 0.0
C1621 C 0.49813 0.462 0.3154 0.0
C1622 C 0.45536 0.47248 0.213 0.0
C1623 C 0.46321 0.461 0.17775 0.0
C1624 C 0.48566 0.4618 0.26794 0.0
C1625 C 0.48247 0.45015 0.18908 0.0
C1626 C 0.51849 0.45197 0.32368 0.0
C1627 C 0.50036 0.47231 0.39588 0.0
N1628 N 0.493 0.45082 0.23302 0.0
N1629 N 0.48984 0.4719 0.35182 0.0
H1630 H 0.77686 0.26751 0.64344 0.0
H1631 H 0.84385 0.22669 0.42099 0.0
H1632 H 0.85113 0.25944 0.64561 0.0
H1633 H 0.77114 0.21677 0.44951 0.0
H1634 H 0.84702 0.24122 0.49851 0.0
H1635 H 0.77451 0.25161 0.56837 0.0
C1636 C 0.79273 0.26244 0.62803 0.0
C1637 C 0.81424 0.26483 0.65108 0.0
C1638 C 0.83041 0.23578 0.48794 0.0
C1639 C 0.81168 0.24677 0.56401 0.0
C1640 C 0.82857 0.2275 0.44363 0.0
C1641 C 0.80722 0.22042 0.42868 0.0
C1642 C 0.81064 0.23734 0.51736 0.0
C1643 C 0.78799 0.22193 0.45958 0.0
C1644 C 0.79134 0.25332 0.58511 0.0
C1645 C 0.83418 0.25789 0.62925 0.0
N1646 N 0.79011 0.23032 0.50208 0.0
N1647 N 0.83245 0.24933 0.58682 0.0
H1648 H 0.05452 0.53207 0.55205 0.0
H1649 H 0.94535 0.56028 0.40053 0.0
H1650 H 0.01528 0.57642 0.60224 0.0
H1651 H 0.0123 0.56123 0.3304 0.0
H1652 H 0.96534 0.55895 0.47947 0.0
H1653 H 0.03407 0.53497 0.47445 0.0
C1654 C 0.04185 0.54256 0.54665 0.0
C1655 C 0.03726 0.5544 0.58334 0.0
C1656 C 0.97554 0.55962 0.44666 0.0
C1657 C 0.01272 0.55707 0.49542 0.0
C1658 C 0.9642 0.5604 0.40169 0.0
C1659 C 0.97716 0.56116 0.3587 0.0
C1660 C -1e-05 0.55893 0.44861 0.0
C1661 C 0.00159 0.56095 0.36249 0.0
C1662 C 0.03005 0.54409 0.50248 0.0
C1663 C 0.01976 0.56722 0.57473 0.0
N1664 N 0.01217 0.55959 0.40647 0.0
N1665 N 0.00798 0.56812 0.53192 0.0
H1666 H 0.17747 0.28889 0.12006 0.0
H1667 H 0.17388 0.20237 0.96795 0.0
H1668 H 0.18671 0.23736 0.19057 0.0
H1669 H 0.20966 0.24954 0.91466 0.0
H1670 H 0.17078 0.21548 0.04738 0.0
H1671 H 0.18167 0.27528 0.04169 0.0
C1672 C 0.18016 0.27467 0.119 0.0
C1673 C 0.18165 0.2642 0.16183 0.0
C1674 C 0.17945 0.22286 1.01832 0.0
C1675 C 0.186 0.24853 0.07228 0.0
C1676 C 0.18135 0.21538 0.97308 0.0
C1677 C 0.19264 0.22467 0.93491 0.0
C1678 C 0.18825 0.23999 0.02508 0.0
C1679 C 0.20111 0.2418 0.9432 0.0
C1680 C 0.18268 0.26695 0.07432 0.0
C1681 C 0.18543 0.24587 0.15837 0.0
N1682 N 0.19864 0.24894 0.98724 0.0
N1683 N 0.18719 0.23856 0.11432 0.0
H1684 H 0.49458 0.48354 0.92271 0.0
H1685 H 0.49496 0.44002 0.66211 0.0
H1686 H 0.44259 0.44658 0.87635 0.0
H1687 H 0.54491 0.4793 0.70378 0.0
H1688 H 0.47583 0.44215 0.74062 0.0
H1689 H 0.51354 0.48216 0.84353 0.0
C1690 C 0.48717 0.47512 0.89591 0.0
C1691 C 0.46701 0.46508 0.90637 0.0
C1692 C 0.49108 0.45023 0.73284 0.0
C1693 C 0.4887 0.46336 0.81546 0.0
C1694 C 0.50203 0.44899 0.68792 0.0
C1695 C 0.52188 0.45921 0.67654 0.0
C1696 C 0.49997 0.4618 0.76698 0.0
C1697 C 0.53004 0.4708 0.71134 0.0
C1698 C 0.49799 0.47434 0.85064 0.0
C1699 C 0.45812 0.4545 0.87004 0.0
N1700 N 0.51915 0.47174 0.75486 0.0
N1701 N 0.46901 0.45388 0.8265 0.0
H1702 H 0.33453 0.7864 0.45364 0.0
H1703 H 0.29849 0.70144 0.61886 0.0
H1704 H 0.29072 0.74462 0.40246 0.0
H1705 H 0.31598 0.75153 0.67959 0.0
H1706 H 0.30007 0.7157 0.53806 0.0
H1707 H 0.33233 0.7727 0.53528 0.0
C1708 C 0.32431 0.77441 0.45961 0.0
C1709 C 0.31238 0.76686 0.42123 0.0
C1710 C 0.3036 0.72359 0.569 0.0
C1711 C 0.31052 0.75072 0.51441 0.0
C1712 C 0.30279 0.71543 0.61518 0.0
C1713 C 0.30716 0.72529 0.65609 0.0
C1714 C 0.30927 0.74172 0.56337 0.0
C1715 C 0.31251 0.74343 0.64906 0.0
C1716 C 0.32313 0.76657 0.50622 0.0
C1717 C 0.29999 0.75101 0.43096 0.0
N1718 N 0.31359 0.75103 0.60364 0.0
N1719 N 0.29946 0.74345 0.47638 0.0
H1720 H 0.01105 0.42475 0.16898 0.0
H1721 H 0.00304 0.46673 0.4291 0.0
H1722 H 0.04435 0.47416 0.20158 0.0
H1723 H 0.95821 0.42451 0.38419 0.0
H1724 H 0.02046 0.46849 0.34856 0.0
H1725 H 0.99363 0.42343 0.24918 0.0
C1726 C 0.01481 0.43533 0.19313 0.0
C1727 C 0.02957 0.44946 0.17861 0.0
C1728 C 0.00685 0.45881 0.35623 0.0
C1729 C 0.00953 0.44799 0.27129 0.0
C1730 C -0.00307 0.45773 0.40234 0.0
C1731 C 0.97919 0.44535 0.4136 0.0
C1732 C -0.00083 0.44733 0.32087 0.0
C1733 C 0.9719 0.43417 0.37726 0.0
C1734 C 0.00481 0.43456 0.23904 0.0
C1735 C 0.03369 0.46278 0.21159 0.0
N1736 N 0.98196 0.43538 0.33269 0.0
N1737 N 0.0238 0.4617 0.25639 0.0
H1738 H 0.33108 0.23293 0.07518 0.0
H1739 H 0.36335 0.24584 0.35284 0.0
H1740 H 0.33285 0.28395 0.14012 0.0
H1741 H 0.33895 0.19574 0.30267 0.0
H1742 H 0.35833 0.25906 0.27183 0.0
H1743 H 0.33866 0.21848 0.15463 0.0
C1744 C 0.33315 0.24112 0.10609 0.0
C1745 C 0.33136 0.25973 0.10074 0.0
C1746 C 0.35413 0.24514 0.2783 0.0
C1747 C 0.34039 0.2432 0.19209 0.0
C1748 C 0.35715 0.23748 0.32467 0.0
C1749 C 0.35113 0.21962 0.33522 0.0
C1750 C 0.3452 0.23491 0.24131 0.0
C1751 C 0.34332 0.20959 0.2967 0.0
C1752 C 0.33743 0.23283 0.15151 0.0
C1753 C 0.33411 0.2696 0.14232 0.0
N1754 N 0.34046 0.21736 0.25164 0.0
N1755 N 0.3386 0.26125 0.18593 0.0
H1756 H 0.50767 0.56107 0.09172 0.0
H1757 H 0.50015 0.51902 0.82982 0.0
H1758 H 0.54866 0.51621 0.0508 0.0
H1759 H 0.45282 0.55899 0.8779 0.0
H1760 H 0.51907 0.51842 0.90921 0.0
H1761 H 0.48832 0.56122 1.01284 0.0
C1762 C 0.51275 0.55134 0.06602 0.0
C1763 C 0.53017 0.53884 0.07774 0.0
C1764 C 0.50456 0.52735 0.90246 0.0
C1765 C 0.50798 0.53886 0.98699 0.0
C1766 C 0.49378 0.52772 0.85702 0.0
C1767 C 0.47493 0.53916 0.84698 0.0
C1768 C 0.49661 0.53861 0.93828 0.0
C1769 C 0.46733 0.55001 0.88389 0.0
C1770 C 0.50166 0.5514 0.02093 0.0
C1771 C 0.53576 0.52639 0.04307 0.0
N1772 N 0.4782 0.54953 0.92763 0.0
N1773 N 0.52481 0.52675 0.99944 0.0
H1774 H 0.13925 0.77422 0.84726 0.0
H1775 H 0.20351 0.74498 0.6051 0.0
H1776 H 0.21251 0.78141 0.8193 0.0
H1777 H 0.12945 0.73945 0.6258 0.0
H1778 H 0.20675 0.75777 0.68425 0.0
H1779 H 0.13494 0.761 0.76803 0.0
C1780 C 0.15442 0.77309 0.82441 0.0
C1781 C 0.17623 0.77919 0.83985 0.0
C1782 C 0.18973 0.75382 0.67169 0.0
C1783 C 0.17146 0.76391 0.74894 0.0
C1784 C 0.18784 0.74649 0.62629 0.0
C1785 C 0.16613 0.74116 0.60842 0.0
C1786 C 0.16976 0.75594 0.70016 0.0
C1787 C 0.14653 0.7434 0.63793 0.0
C1788 C 0.15194 0.76553 0.77912 0.0
C1789 C 0.19527 0.77722 0.80874 0.0
N1790 N 0.1488 0.75061 0.68222 0.0
N1791 N 0.19245 0.76982 0.76506 0.0
H1792 H 0.46553 0.97154 0.2045 0.0
H1793 H 0.55789 0.92644 0.38885 0.0
H1794 H 0.50114 0.92263 0.1773 0.0
H1795 H 0.50713 0.96479 0.43211 0.0
H1796 H 0.53993 0.92672 0.30842 0.0
H1797 H 0.48282 0.97116 0.28547 0.0
C1798 C 0.47658 0.96056 0.21582 0.0
C1799 C 0.48131 0.94685 0.18442 0.0
C1800 C 0.53267 0.93503 0.33557 0.0
C1801 C 0.5021 0.94669 0.27645 0.0
C1802 C 0.54293 0.93486 0.38149 0.0
C1803 C 0.53389 0.94548 0.41744 0.0
C1804 C 0.51341 0.94611 0.32514 0.0
C1805 C 0.51456 0.95626 0.40566 0.0
C1806 C 0.48672 0.96044 0.2619 0.0
C1807 C 0.49683 0.93343 0.20033 0.0
N1808 N 0.50507 0.95636 0.36065 0.0
N1809 N 0.50665 0.93369 0.24497 0.0
H1810 H 0.34324 0.20985 0.64835 0.0
H1811 H 0.3267 0.29888 0.79316 0.0
H1812 H 0.33569 0.26085 0.57421 0.0
H1813 H 0.36022 0.25203 0.85364 0.0
H1814 H 0.32696 0.28542 0.71361 0.0
H1815 H 0.34631 0.22489 0.72499 0.0
C1816 C 0.34225 0.22422 0.64815 0.0
C1817 C 0.33934 0.23407 0.60458 0.0
C1818 C 0.33443 0.27816 0.74428 0.0
C1819 C 0.34234 0.25148 0.69278 0.0
C1820 C 0.33421 0.28586 0.78975 0.0
C1821 C 0.34299 0.27652 0.83058 0.0
C1822 C 0.34344 0.26091 0.73952 0.0
C1823 C 0.35303 0.25976 0.82352 0.0
C1824 C 0.34402 0.23283 0.69198 0.0
C1825 C 0.33807 0.25271 0.60681 0.0
N1826 N 0.35272 0.25246 0.77935 0.0
N1827 N 0.33936 0.26077 0.65002 0.0
H1828 H 0.99056 0.06389 0.09444 0.0
H1829 H 0.99571 0.02095 0.83356 0.0
H1830 H 0.94423 0.02236 0.05118 0.0
H1831 H 0.04433 0.06032 0.88066 0.0
H1832 H 0.97622 0.02148 0.91223 0.0
H1833 H 0.00983 0.06324 1.01571 0.0
C1834 C 0.98431 0.05474 0.06823 0.0
C1835 C 0.96556 0.04333 0.07932 0.0
C1836 C 0.99113 0.03003 0.9054 0.0
C1837 C 0.98766 0.04239 0.98884 0.0
C1838 C 0.00227 0.02972 0.86044 0.0
C1839 C 0.02162 0.04068 0.85037 0.0
C1840 C -0.00071 0.04145 0.94065 0.0
C1841 C 0.02943 0.0517 0.88674 0.0
C1842 C 0.99534 0.05434 0.02323 0.0
C1843 C 0.95838 0.0316 0.04401 0.0
N1844 N 0.01824 0.05184 0.93003 0.0
N1845 N 0.9694 0.03144 1.00052 0.0
H1846 H 0.15867 0.79743 0.14278 0.0
H1847 H 0.15366 0.70597 0.30374 0.0
H1848 H 0.17758 0.74676 0.08758 0.0
H1849 H 0.1302 0.75625 0.35344 0.0
H1850 H 0.16097 0.72002 0.22367 0.0
H1851 H 0.14758 0.7824 0.21945 0.0
C1852 C 0.16042 0.78312 0.14665 0.0
C1853 C 0.16904 0.7734 0.10831 0.0
C1854 C 0.15405 0.72798 0.25194 0.0
C1855 C 0.15616 0.7559 0.19667 0.0
C1856 C 0.14995 0.71991 0.29781 0.0
C1857 C 0.1421 0.72995 0.33617 0.0
C1858 C 0.14995 0.74631 0.24381 0.0
C1859 C 0.13661 0.74792 0.32547 0.0
C1860 C 0.154 0.7745 0.19055 0.0
C1861 C 0.171 0.75485 0.11591 0.0
N1862 N 0.14089 0.75551 0.28083 0.0
N1863 N 0.16467 0.74676 0.15896 0.0
H1864 H 0.52921 0.02938 0.37903 0.0
H1865 H 0.46545 0.07781 0.5954 0.0
H1866 H 0.51379 0.08543 0.37138 0.0
H1867 H 0.46487 0.02109 0.58003 0.0
H1868 H 0.48604 0.08135 0.51792 0.0
H1869 H 0.50913 0.02668 0.45648 0.0
C1870 C 0.52181 0.04122 0.39385 0.0
C1871 C 0.52328 0.0577 0.36829 0.0
C1872 C 0.48137 0.06814 0.5314 0.0
C1873 C 0.50015 0.05463 0.45825 0.0
C1874 C 0.46963 0.06609 0.57573 0.0
C1875 C 0.46329 0.04912 0.59437 0.0
C1876 C 0.48723 0.05309 0.5055 0.0
C1877 C 0.46922 0.03444 0.56711 0.0
C1878 C 0.51023 0.03962 0.43823 0.0
C1879 C 0.51318 0.07248 0.38965 0.0
N1880 N 0.4809 0.03675 0.52444 0.0
N1881 N 0.50213 0.07061 0.43331 0.0
H1882 H 0.21164 0.28253 0.44807 0.0
H1883 H 0.14624 0.22891 0.66364 0.0
H1884 H 0.14351 0.25974 0.42926 0.0
H1885 H 0.22092 0.2334 0.65343 0.0
H1886 H 0.1429 0.24398 0.58343 0.0
H1887 H 0.21325 0.26878 0.5294 0.0
C1888 C 0.19692 0.27473 0.46118 0.0
C1889 C 0.17739 0.2723 0.43174 0.0
C1890 C 0.15999 0.24168 0.59889 0.0
C1891 C 0.17914 0.25644 0.52518 0.0
C1892 C 0.1619 0.23314 0.64467 0.0
C1893 C 0.18389 0.22989 0.66527 0.0
C1894 C 0.18021 0.24731 0.57398 0.0
C1895 C 0.20361 0.2356 0.63898 0.0
C1896 C 0.19791 0.2668 0.50758 0.0
C1897 C 0.15891 0.26194 0.45069 0.0
N1898 N 0.2013 0.24409 0.59504 0.0
N1899 N 0.16019 0.25444 0.49622 0.0
H1900 H 0.05143 0.94699 0.87844 0.0
H1901 H 0.94366 0.97565 0.70843 0.0
H1902 H 0.99482 0.97957 0.92558 0.0
H1903 H 0.9949 0.93702 0.66934 0.0
H1904 H 0.96239 0.97777 0.78708 0.0
H1905 H 0.03188 0.9442 0.80067 0.0
C1906 C 0.03486 0.95356 0.87243 0.0
C1907 C 0.0247 0.96344 0.90878 0.0
C1908 C 0.96947 0.96871 0.76157 0.0
C1909 C 0.00207 0.96027 0.81945 0.0
C1910 C 0.95867 0.9674 0.7166 0.0
C1911 C 0.96745 0.95589 0.68235 0.0
C1912 C 0.98957 0.95868 0.77238 0.0
C1913 C 0.98739 0.94595 0.69469 0.0
C1914 C 0.02365 0.95192 0.82799 0.0
C1915 C 0.00324 0.97174 0.89876 0.0
N1916 N -0.0022 0.94762 0.73849 0.0
N1917 N 0.99268 0.96997 0.85515 0.0
H1918 H 0.27882 0.76791 0.14277 0.0
H1919 H 0.34608 0.72721 0.92038 0.0
H1920 H 0.35297 0.75929 0.14615 0.0
H1921 H 0.27332 0.71736 0.94847 0.0
H1922 H 0.34916 0.74169 0.99806 0.0
H1923 H 0.2766 0.7522 0.06739 0.0
C1924 C 0.2947 0.76278 0.12752 0.0
C1925 C 0.31614 0.76494 0.15103 0.0
C1926 C 0.33255 0.73629 0.98733 0.0
C1927 C 0.31373 0.74715 0.06351 0.0
C1928 C 0.33076 0.72805 0.94292 0.0
C1929 C 0.30943 0.72097 0.92784 0.0
C1930 C 0.31275 0.73783 1.01668 0.0
C1931 C 0.29015 0.72252 0.95862 0.0
C1932 C 0.29339 0.75377 0.0844 0.0
C1933 C 0.33608 0.75791 0.12943 0.0
N1934 N 0.29223 0.73086 1.00119 0.0
N1935 N 0.33443 0.7495 0.08675 0.0
H1936 H 0.49798 0.04964 0.83543 0.0
H1937 H 0.48181 0.07127 0.11473 0.0
H1938 H 0.43101 0.05966 0.89885 0.0
H1939 H 0.54743 0.05751 0.05154 0.0
H1940 H 0.46317 0.06913 0.03559 0.0
H1941 H 0.51645 0.05413 0.91333 0.0
C1942 C 0.48714 0.05292 0.86573 0.0
C1943 C 0.46287 0.05431 0.86044 0.0
C1944 C 0.48163 0.06648 0.03897 0.0
C1945 C 0.48405 0.05952 0.9504 0.0
C1946 C 0.49229 0.06766 0.08422 0.0
C1947 C 0.51605 0.0638 0.09022 0.0
C1948 C 0.49491 0.06167 0.999 0.0
C1949 C 0.52889 0.0598 0.04906 0.0
C1950 C 0.49773 0.05546 0.91034 0.0
C1951 C 0.44977 0.0585 0.90117 0.0
N1952 N 0.51817 0.05872 1.00544 0.0
N1953 N 0.4605 0.06097 0.94434 0.0
H1954 H 0.66435 0.69089 0.49763 0.0
H1955 H 0.61332 0.76493 0.66932 0.0
H1956 H 0.62078 0.73376 0.44455 0.0
H1957 H 0.67729 0.73687 0.70005 0.0
H1958 H 0.61073 0.75007 0.59209 0.0
H1959 H 0.66388 0.7036 0.57783 0.0
C1960 C 0.65453 0.70283 0.5029 0.0
C1961 C 0.64307 0.71139 0.46391 0.0
C1962 C 0.62527 0.74711 0.61588 0.0
C1963 C 0.64186 0.72592 0.55598 0.0
C1964 C 0.62672 0.75556 0.66 0.0
C1965 C 0.64556 0.75217 0.69123 0.0
C1966 C 0.6425 0.73485 0.60324 0.0
C1967 C 0.66248 0.73993 0.67709 0.0
C1968 C 0.65426 0.71014 0.54868 0.0
C1969 C 0.63008 0.72673 0.47331 0.0
N1970 N 0.6605 0.73167 0.63442 0.0
N1971 N 0.62988 0.7335 0.51813 0.0
H1972 H 0.04753 0.98388 0.2059 0.0
H1973 H 0.94852 0.94049 0.37859 0.0
H1974 H 0.0051 0.93948 0.16663 0.0
H1975 H -0.00101 0.97823 0.42709 0.0
H1976 H 0.96731 0.94137 0.29921 0.0
H1977 H 0.02854 0.98339 0.285 0.0
C1978 C 0.03445 0.97384 0.21411 0.0
C1979 C 0.02833 0.96142 0.17977 0.0
C1980 C 0.97435 0.94944 0.32717 0.0
C1981 C 0.006 0.96103 0.27041 0.0
C1982 C 0.9636 0.94894 0.37258 0.0
C1983 C 0.97228 0.95918 0.4098 0.0
C1984 C 0.99393 0.96036 0.31847 0.0
C1985 C 0.9918 0.96999 0.39966 0.0
C1986 C 0.02349 0.97364 0.2593 0.0
C1987 C 0.01061 0.94917 0.19207 0.0
N1988 N 0.00192 0.97031 0.3551 0.0
N1989 N 0.00012 0.94928 0.23619 0.0
H1990 H 0.79016 0.24518 0.90031 0.0
H1991 H 0.81049 0.25383 0.18368 0.0
H1992 H 0.82922 0.28862 0.95639 0.0
H1993 H 0.80044 0.20347 0.11806 0.0
H1994 H 0.81222 0.26844 0.10279 0.0
H1995 H 0.78849 0.23126 0.98153 0.0
C1996 C 0.79821 0.25192 0.92978 0.0
C1997 C 0.80947 0.26834 0.92144 0.0
C1998 C 0.8097 0.25419 0.10615 0.0
C1999 C 0.80749 0.25243 1.01511 0.0
C2000 C 0.80868 0.24584 0.1523 0.0
C2001 C 0.80545 0.22736 0.15773 0.0
C2002 C 0.80695 0.24405 0.06502 0.0
C2003 C 0.8031 0.21771 0.11569 0.0
C2004 C 0.79728 0.24393 0.97619 0.0
C2005 C 0.81968 0.27633 0.96122 0.0
N2006 N 0.80372 0.22615 0.07133 0.0
N2007 N 0.81835 0.26838 1.00626 0.0
H2008 H 0.51965 0.92237 0.67622 0.0
H2009 H 0.50199 0.9658 0.93255 0.0
H2010 H 0.54339 0.97517 0.70576 0.0
H2011 H 0.46519 0.91893 0.89065 0.0
H2012 H 0.51927 0.96859 0.85197 0.0
H2013 H 0.50135 0.9202 0.75574 0.0
C2014 C 0.52107 0.93353 0.69951 0.0
C2015 C 0.53344 0.94887 0.68443 0.0
C2016 C 0.50741 0.9577 0.86027 0.0
C2017 C 0.51245 0.94643 0.77622 0.0
C2018 C 0.4976 0.95603 0.90643 0.0
C2019 C 0.48216 0.94204 0.91858 0.0
C2020 C 0.50197 0.9452 0.82572 0.0
C2021 C 0.47705 0.92987 0.88303 0.0
C2022 C 0.51057 0.93227 0.745 0.0
C2023 C 0.53447 0.96294 0.71617 0.0
N2024 N 0.48698 0.93169 0.83839 0.0
N2025 N 0.52427 0.96134 0.76059 0.0
H2026 H 0.76816 0.76016 0.63574 0.0
H2027 H 0.84905 0.73773 0.86541 0.0
H2028 H 0.84108 0.77375 0.63853 0.0
H2029 H 0.78103 0.71493 0.84508 0.0
H2030 H 0.84635 0.7523 0.78478 0.0
H2031 H 0.77223 0.74505 0.71472 0.0
C2032 C 0.78507 0.75996 0.65303 0.0
C2033 C 0.80433 0.76819 0.6304 0.0
C2034 C 0.83208 0.74402 0.79786 0.0
C2035 C 0.80914 0.75091 0.72142 0.0
C2036 C 0.83361 0.73572 0.84387 0.0
C2037 C 0.8153 0.72502 0.8619 0.0
C2038 C 0.81194 0.7418 0.7699 0.0
C2039 C 0.79566 0.72292 0.83253 0.0
C2040 C 0.7874 0.75128 0.69817 0.0
C2041 C 0.8258 0.76754 0.65465 0.0
N2042 N 0.79447 0.73128 0.78824 0.0
N2043 N 0.82762 0.7591 0.69891 0.0
H2044 H -0.00226 0.06278 0.5949 0.0
H2045 H -0.00335 0.01997 0.33374 0.0
H2046 H 0.04588 0.02219 0.55404 0.0
H2047 H 0.94498 0.05692 0.38099 0.0
H2048 H 0.01529 0.02069 0.41334 0.0
H2049 H 0.97847 0.0609 0.51652 0.0
C2050 C 0.00438 0.05356 0.56928 0.0
C2051 C 0.02381 0.04293 0.58078 0.0
C2052 C -0.00012 0.02865 0.40633 0.0
C2053 C 0.00176 0.04066 0.4905 0.0
C2054 C 0.98925 0.02826 0.36082 0.0
C2055 C 0.96929 0.0385 0.35052 0.0
C2056 C 0.9906 0.03944 0.44187 0.0
C2057 C 0.96038 0.04887 0.3872 0.0
C2058 C 0.99335 0.05247 0.52446 0.0
C2059 C 0.03142 0.03105 0.54628 0.0
N2060 N 0.97111 0.04913 0.43096 0.0
N2061 N 0.02049 0.0303 0.50275 0.0
H2062 H 0.7002 0.24395 0.09499 0.0
H2063 H 0.6399 0.27213 0.34171 0.0
H2064 H 0.62634 0.23909 0.11964 0.0
H2065 H 0.71113 0.28424 0.30423 0.0
H2066 H 0.63466 0.25883 0.26302 0.0
H2067 H 0.70456 0.25731 0.1732 0.0
C2068 C 0.68482 0.24572 0.11684 0.0
C2069 C 0.66282 0.24041 0.10038 0.0
C2070 C 0.65141 0.26445 0.27187 0.0
C2071 C 0.66776 0.25582 0.19097 0.0
C2072 C 0.65443 0.27205 0.31686 0.0
C2073 C 0.67596 0.27945 0.32961 0.0
C2074 C 0.67012 0.26404 0.23925 0.0
C2075 C 0.69416 0.27888 0.29591 0.0
C2076 C 0.68735 0.2534 0.16165 0.0
C2077 C 0.64361 0.24302 0.13066 0.0
N2078 N 0.69086 0.2713 0.25257 0.0
N2079 N 0.64652 0.25049 0.17443 0.0
H2080 H 0.11212 0.53311 0.81207 0.0
H2081 H 0.10124 0.44097 0.96579 0.0
H2082 H 0.1019 0.48248 0.74776 0.0
H2083 H 0.13528 0.48704 0.02058 0.0
H2084 H 0.09795 0.45659 0.88673 0.0
H2085 H 0.11621 0.51739 0.89143 0.0
C2086 C 0.1105 0.51877 0.81472 0.0
C2087 C 0.10673 0.50909 0.77333 0.0
C2088 C 0.10632 0.46323 0.916 0.0
C2089 C 0.11148 0.49108 0.86329 0.0
C2090 C 0.10821 0.45427 0.96101 0.0
C2091 C 0.11816 0.46276 0.99999 0.0
C2092 C 0.11437 0.48086 0.90999 0.0
C2093 C 0.12742 0.47995 0.99157 0.0
C2094 C 0.11305 0.50979 0.85979 0.0
C2095 C 0.10498 0.49048 0.77867 0.0
N2096 N 0.12497 0.48852 0.9478 0.0
N2097 N 0.10729 0.48213 0.82261 0.0
H2098 H 0.73731 0.79885 1.01696 0.0
H2099 H 0.7399 0.84965 0.26527 0.0
H2100 H 0.6816 0.83418 0.05363 0.0
H2101 H 0.77267 0.79913 0.24369 0.0
H2102 H 0.72302 0.84865 0.18337 0.0
H2103 H 0.75524 0.80341 0.09503 0.0
C2104 C 0.72889 0.80771 0.04134 0.0
C2105 C 0.70783 0.81609 0.02864 0.0
C2106 C 0.73407 0.83789 0.19663 0.0
C2107 C 0.72853 0.82148 0.11881 0.0
C2108 C 0.74386 0.83853 0.24309 0.0
C2109 C 0.75781 0.82448 0.26126 0.0
C2110 C 0.73872 0.82327 0.168 0.0
C2111 C 0.76209 0.81027 0.23124 0.0
C2112 C 0.73915 0.81026 0.0861 0.0
C2113 C 0.69781 0.82742 0.06198 0.0
N2114 N 0.75272 0.81008 0.18633 0.0
N2115 N 0.70825 0.82981 0.10559 0.0
H2116 H 0.37225 0.49602 0.52141 0.0
H2117 H 0.36691 0.50723 0.23771 0.0
H2118 H 0.39606 0.54456 0.44974 0.0
H2119 H 0.39432 0.45921 0.30578 0.0
H2120 H 0.36628 0.52099 0.31627 0.0
H2121 H 0.36904 0.48233 0.44309 0.0
C2122 C 0.37638 0.50392 0.4891 0.0
C2123 C 0.38435 0.5215 0.49198 0.0
C2124 C 0.37217 0.50739 0.31395 0.0
C2125 C 0.38045 0.50592 0.40252 0.0
C2126 C 0.37234 0.49945 0.26936 0.0
C2127 C 0.38056 0.482 0.26537 0.0
C2128 C 0.37966 0.49765 0.35505 0.0
C2129 C 0.38773 0.47264 0.30742 0.0
C2130 C 0.37472 0.49603 0.4446 0.0
C2131 C 0.38976 0.53101 0.44901 0.0
N2132 N 0.38697 0.48055 0.3507 0.0
N2133 N 0.38756 0.52313 0.40587 0.0
H2134 H 0.72587 0.15395 0.5035 0.0
H2135 H 0.74534 0.17998 0.77811 0.0
H2136 H 0.78734 0.1802 0.55447 0.0
H2137 H 0.67731 0.16825 0.72187 0.0
H2138 H 0.76215 0.17554 0.69885 0.0
H2139 H 0.70916 0.15469 0.58494 0.0
C2140 C 0.736 0.15963 0.53197 0.0
C2141 C 0.75812 0.16694 0.52214 0.0
C2142 C 0.74356 0.17381 0.70371 0.0
C2143 C 0.73903 0.16788 0.61551 0.0
C2144 C 0.73391 0.17626 0.74916 0.0
C2145 C 0.70982 0.1745 0.75683 0.0
C2146 C 0.72913 0.16943 0.66512 0.0
C2147 C 0.69596 0.1697 0.71769 0.0
C2148 C 0.72637 0.16015 0.57838 0.0
C2149 C 0.77031 0.17432 0.56037 0.0
N2150 N 0.7058 0.16736 0.67351 0.0
N2151 N 0.76065 0.17457 0.60517 0.0
H2152 H 0.90663 0.44409 0.4666 0.0
H2153 H 0.90394 0.53617 0.31143 0.0
H2154 H 0.87641 0.49194 0.51921 0.0
H2155 H 0.91455 0.4853 0.24892 0.0
H2156 H 0.89682 0.52073 0.39001 0.0
H2157 H 0.91158 0.45916 0.38722 0.0
C2158 C 0.90086 0.45769 0.46124 0.0
C2159 C 0.89161 0.46684 0.49974 0.0
C2160 C 0.90072 0.51298 0.35899 0.0
C2161 C 0.89718 0.48428 0.40936 0.0
C2162 C 0.90501 0.52182 0.31438 0.0
C2163 C 0.90991 0.512 0.27375 0.0
C2164 C 0.90156 0.49426 0.36285 0.0
C2165 C 0.91074 0.49338 0.27932 0.0
C2166 C 0.90366 0.46632 0.41603 0.0
C2167 C 0.88374 0.48435 0.49059 0.0
N2168 N 0.9067 0.48515 0.3229 0.0
N2169 N 0.88706 0.49259 0.44665 0.0
H2170 H 0.20832 0.19394 0.05208 0.0
H2171 H 0.30308 0.15516 0.23572 0.0
H2172 H 0.2404 0.14348 0.0269 0.0
H2173 H 0.24578 0.18782 0.27903 0.0
H2174 H 0.28391 0.15188 0.15681 0.0
H2175 H 0.22508 0.19334 0.13282 0.0
C2176 C 0.21866 0.18258 0.06383 0.0
C2177 C 0.22265 0.16865 0.03279 0.0
C2178 C 0.2755 0.15961 0.18387 0.0
C2179 C 0.24277 0.16812 0.12541 0.0
C2180 C 0.28645 0.16152 0.22882 0.0
C2181 C 0.27603 0.17177 0.26417 0.0
C2182 C 0.25426 0.16833 0.17388 0.0
C2183 C 0.25449 0.17976 0.25309 0.0
C2184 C 0.22831 0.18226 0.11003 0.0
C2185 C 0.23655 0.15437 0.04993 0.0
N2186 N 0.24453 0.17804 0.20904 0.0
N2187 N 0.24639 0.15458 0.09487 0.0
H2188 H 0.64047 0.47476 0.76205 0.0
H2189 H 0.5748 0.52554 0.96386 0.0
H2190 H 0.56737 0.46659 0.79106 0.0
H2191 H 0.64188 0.50258 0.99771 0.0
H2192 H 0.57456 0.50998 0.88816 0.0
H2193 H 0.64409 0.48979 0.83904 0.0
C2194 C 0.62531 0.47588 0.78494 0.0
C2195 C 0.60361 0.46938 0.77036 0.0
C2196 C 0.58945 0.50854 0.91195 0.0
C2197 C 0.60744 0.48709 0.85663 0.0
C2198 C 0.58972 0.51754 0.95487 0.0
C2199 C 0.6084 0.51532 0.98704 0.0
C2200 C 0.60823 0.49757 0.90055 0.0
C2201 C 0.62719 0.50464 0.97374 0.0
C2202 C 0.62738 0.4845 0.82855 0.0
C2203 C 0.58444 0.47133 0.80101 0.0
N2204 N 0.62669 0.49616 0.93127 0.0
N2205 N 0.58672 0.48027 0.84227 0.0
H2206 H 0.21255 0.80659 0.71707 0.0
H2207 H 0.30862 0.84658 0.53088 0.0
H2208 H 0.26171 0.84654 0.75812 0.0
H2209 H 0.27249 0.79698 0.51423 0.0
H2210 H 0.28983 0.84911 0.61047 0.0
H2211 H 0.23172 0.8055 0.63844 0.0
C2212 C 0.22722 0.81531 0.70936 0.0
C2213 C 0.23542 0.82673 0.74441 0.0
C2214 C 0.28611 0.83766 0.58934 0.0
C2215 C 0.25773 0.82551 0.65376 0.0
C2216 C 0.29688 0.83621 0.54393 0.0
C2217 C 0.2922 0.82154 0.51558 0.0
C2218 C 0.27027 0.82449 0.60627 0.0
C2219 C 0.2767 0.80855 0.5345 0.0
C2220 C 0.2383 0.8146 0.66444 0.0
C2221 C 0.25472 0.83757 0.73224 0.0
N2222 N 0.26628 0.81038 0.5781 0.0
N2223 N 0.26516 0.83674 0.68806 0.0
H2224 H 0.60662 0.95081 0.47014 0.0
H2225 H 0.58989 0.04009 0.30626 0.0
H2226 H 0.6226 0.00312 0.51846 0.0
H2227 H 0.57753 0.98747 0.25571 0.0
H2228 H 0.60264 0.02683 0.38395 0.0
H2229 H 0.59769 0.96382 0.38994 0.0
C2230 C 0.60847 0.96501 0.46359 0.0
C2231 C 0.61487 0.97592 0.50106 0.0
C2232 C 0.59715 0.01818 0.35585 0.0
C2233 C 0.60483 0.99099 0.40969 0.0
C2234 C 0.5897 0.02576 0.31169 0.0
C2235 C 0.58249 0.01485 0.27473 0.0
C2236 C 0.59743 -0.00043 0.36299 0.0
C2237 C 0.58291 0.99636 0.28334 0.0
C2238 C 0.60339 0.97246 0.41791 0.0
C2239 C 0.61766 0.9942 0.49057 0.0
N2240 N 0.59021 0.98931 0.32653 0.0
N2241 N 0.61233 0.00119 0.44606 0.0
H2242 H 0.23619 0.34693 0.49592 0.0
H2243 H 0.23001 0.30354 0.76524 0.0
H2244 H 0.18463 0.30846 0.54334 0.0
H2245 H 0.28845 0.3348 0.71369 0.0
H2246 H 0.21146 0.30765 0.68637 0.0
H2247 H 0.25356 0.34528 0.57693 0.0
C2248 C 0.22828 0.33835 0.52355 0.0
C2249 C 0.20876 0.32793 0.51274 0.0
C2250 C 0.22829 0.3137 0.69215 0.0
C2251 C 0.22878 0.32581 0.60577 0.0
C2252 C 0.23892 0.31139 0.73738 0.0
C2253 C 0.26088 0.31884 0.74634 0.0
C2254 C 0.23954 0.32366 0.65508 0.0
C2255 C 0.27153 0.32882 0.70854 0.0
C2256 C 0.23832 0.33731 0.56976 0.0
C2257 C 0.19951 0.31686 0.54997 0.0
N2258 N 0.26079 0.33094 0.66469 0.0
N2259 N 0.20957 0.31609 0.59453 0.0
H2260 H 0.89601 0.04331 0.95234 0.0
H2261 H 0.89462 0.95571 0.80686 0.0
H2262 H 0.87012 0.99441 1.01854 0.0
H2263 H 0.87366 0.00555 0.73845 0.0
H2264 H 0.89158 0.96938 0.8858 0.0
H2265 H 0.89378 0.02973 0.87319 0.0
C2266 C 0.88958 0.02983 0.95011 0.0
C2267 C 0.88301 0.02003 0.99189 0.0
C2268 C 0.88743 0.97721 0.8534 0.0
C2269 C 0.88124 0.00428 0.90223 0.0
C2270 C 0.88912 0.96943 0.80852 0.0
C2271 C 0.88416 0.97947 0.7662 0.0
C2272 C 0.88147 0.99527 0.85567 0.0
C2273 C 0.8774 0.99728 0.77026 0.0
C2274 C 0.88836 0.02209 0.90512 0.0
C2275 C 0.87511 0.0025 0.98714 0.0
N2276 N 0.87658 0.0047 0.8141 0.0
N2277 N 0.87477 0.99509 0.94326 0.0
H2278 H 0.24699 0.69576 0.27064 0.0
H2279 H 0.23388 0.65264 1.01198 0.0
H2280 H 0.1851 0.66786 0.22856 0.0
H2281 H 0.29088 0.68638 0.05171 0.0
H2282 H 0.2172 0.65543 0.09285 0.0
H2283 H 0.26449 0.69002 0.19283 0.0
C2284 C 0.23708 0.68832 0.24503 0.0
C2285 C 0.21451 0.68229 0.25623 0.0
C2286 C 0.23346 0.66208 0.08402 0.0
C2287 C 0.23459 0.67562 0.16629 0.0
C2288 C 0.24308 0.6604 0.03796 0.0
C2289 C 0.2639 0.6692 0.02512 0.0
C2290 C 0.24475 0.67263 0.11761 0.0
C2291 C 0.2749 0.67925 0.06007 0.0
C2292 C 0.24711 0.68506 0.20043 0.0
C2293 C 0.20255 0.67274 0.22145 0.0
N2294 N 0.26519 0.68072 0.10447 0.0
N2295 N 0.21271 0.66972 0.17802 0.0
H2296 H 0.41083 0.93532 0.97161 0.0
H2297 H 0.38811 0.0268 0.822 0.0
H2298 H 0.36984 0.97739 0.02926 0.0
H2299 H 0.39971 0.97691 0.7547 0.0
H2300 H 0.38656 0.01048 0.90114 0.0
H2301 H 0.41124 0.95157 0.89311 0.0
C2302 C 0.40175 0.94786 0.96761 0.0
C2303 C 0.39068 0.95509 1.00726 0.0
C2304 C 0.38941 0.0032 0.86882 0.0
C2305 C 0.39123 0.97396 0.91788 0.0
C2306 C 0.39045 0.01252 0.82385 0.0
C2307 C 0.39384 0.00322 0.78163 0.0
C2308 C 0.39225 0.98457 0.87139 0.0
C2309 C 0.39678 0.98466 0.78613 0.0
C2310 C 0.40201 0.95718 0.92291 0.0
C2311 C 0.37868 0.97129 0.99974 0.0
N2312 N 0.39603 0.97602 0.82992 0.0
N2313 N 0.37962 0.98032 0.95629 0.0
H2314 H 0.75179 0.64996 0.79794 0.0
H2315 H 0.7584 0.68873 0.52378 0.0
H2316 H 0.80334 0.68775 0.7464 0.0
H2317 H 0.70136 0.65642 0.57739 0.0
H2318 H 0.77663 0.68638 0.60338 0.0
H2319 H 0.73487 0.64995 0.71662 0.0
C2320 C 0.75976 0.65809 0.76941 0.0
C2321 C 0.77916 0.66879 0.77916 0.0
C2322 C 0.76019 0.6797 0.59789 0.0
C2323 C 0.75966 0.66897 0.68559 0.0
C2324 C 0.74976 0.681 0.55223 0.0
C2325 C 0.72828 0.67273 0.5436 0.0
C2326 C 0.74921 0.67 0.63578 0.0
C2327 C 0.71794 0.66297 0.5822 0.0
C2328 C 0.74999 0.65815 0.72295 0.0
C2329 C 0.78852 0.67918 0.74067 0.0
N2330 N 0.72845 0.66189 0.62646 0.0
N2331 N 0.77871 0.67902 0.69588 0.0
H2332 H 0.07323 0.97335 0.29358 0.0
H2333 H 0.14136 0.02331 0.49481 0.0
H2334 H 0.14105 0.99497 0.25924 0.0
H2335 H 0.06847 0.03268 0.46683 0.0
H2336 H 0.14411 0.00794 0.41809 0.0
H2337 H 0.07365 0.98905 0.36914 0.0
C2338 C 0.08841 0.98113 0.30234 0.0
C2339 C 0.1071 0.9829 0.26998 0.0
C2340 C 0.12762 0.01354 0.42877 0.0
C2341 C 0.10776 0.00076 0.35669 0.0
C2342 C 0.12605 0.02235 0.47228 0.0
C2343 C 0.10467 0.02936 0.48709 0.0
C2344 C 0.1075 0.01125 0.4009 0.0
C2345 C 0.08531 0.02757 0.45679 0.0
C2346 C 0.08854 0.99019 0.34527 0.0
C2347 C 0.1263 0.99325 0.28324 0.0
N2348 N 0.08709 0.01846 0.41563 0.0
N2349 N 0.1262 0.00176 0.32575 0.0
H2350 H 0.70302 0.32571 0.19768 0.0
H2351 H 0.821 0.32298 0.04523 0.0
H2352 H 0.76975 0.33525 0.26281 0.0
H2353 H 0.75532 0.33846 0.98138 0.0
H2354 H 0.80283 0.32396 0.12561 0.0
H2355 H 0.72186 0.32672 0.11801 0.0
C2356 C 0.72159 0.32813 0.19521 0.0
C2357 C 0.73476 0.33057 0.237 0.0
C2358 C 0.7925 0.32728 0.09393 0.0
C2359 C 0.7566 0.3313 0.14598 0.0
C2360 C 0.80288 0.32676 0.04809 0.0
C2361 C 0.78977 0.33081 1.00643 0.0
C2362 C 0.76868 0.33145 0.09811 0.0
C2363 C 0.76621 0.33539 1.01241 0.0
C2364 C 0.73236 0.3287 0.14975 0.0
C2365 C 0.75886 0.33347 0.23157 0.0
N2366 N 0.75642 0.33541 0.0571 0.0
N2367 N 0.76901 0.3336 0.18712 0.0
loop_
_geom_bond_atom_site_label_1
_geom_bond_atom_site_label_2
_geom_bond_distance
_geom_bond_site_symmetry_2
_ccdc_geom_bond_type
Tb0 O3 2.453 . S
Tb0 O4 2.596 . S
Tb0 O5 2.374 . S
Tb0 O13 2.343 . S
Tb0 O15 2.353 . S
Tb0 O17 2.427 . S
Tb0 O18 2.513 . S
C1 O5 1.251 . S
C1 O7 1.263 . S
Tb2 O4 2.343 . S
Tb2 O7 2.353 . S
Tb2 O10 2.427 . S
Tb2 O11 2.513 . S
Tb2 O12 2.453 . S
Tb2 O13 2.596 . S
Tb2 O14 2.374 . S
O3 Tb0 2.453 . S
O3 C19 1.245 . S
O4 Tb0 2.596 . S
O4 Tb2 2.343 . S
O4 C19 1.259 . S
O5 Tb0 2.374 . S
O5 C1 1.251 . S
C6 O10 1.275 1_556 S
C6 O11 1.246 1_556 S
O7 C1 1.263 . S
O7 Tb2 2.353 . S
C8 O12 1.245 . S
C8 O13 1.259 . S
C9 O14 1.250 . S
C9 O15 1.263 . S
O10 Tb2 2.427 . S
O10 C6 1.275 1_554 S
O11 Tb2 2.513 . S
O11 C6 1.246 1_554 S
O12 Tb2 2.453 . S
O12 C8 1.245 . S
O13 Tb0 2.343 . S
O13 Tb2 2.596 . S
O13 C8 1.259 . S
O14 Tb2 2.374 . S
O14 C9 1.250 . S
O15 Tb0 2.353 . S
O15 C9 1.263 . S
C16 O17 1.275 . S
C16 O18 1.246 . S
O17 Tb0 2.427 . S
O17 C16 1.275 . S
O18 Tb0 2.513 . S
O18 C16 1.246 . S
C19 O3 1.245 . S
C19 O4 1.259 . S
Tb20 O23 2.453 . S
Tb20 O24 2.596 . S
Tb20 O25 2.374 . S
Tb20 O33 2.343 . S
Tb20 O35 2.353 . S
Tb20 O37 2.427 . S
Tb20 O38 2.513 . S
C21 O25 1.251 . S
C21 O27 1.263 . S
Tb22 O24 2.343 . S
Tb22 O27 2.353 . S
Tb22 O30 2.427 . S
Tb22 O31 2.513 . S
Tb22 O32 2.453 . S
Tb22 O33 2.596 . S
Tb22 O34 2.374 . S
O23 Tb20 2.453 . S
O23 C39 1.245 . S
O24 Tb20 2.596 . S
O24 Tb22 2.343 . S
O24 C39 1.259 . S
O25 Tb20 2.374 . S
O25 C21 1.251 . S
C26 O30 1.275 . S
C26 O31 1.246 . S
O27 C21 1.263 . S
O27 Tb22 2.353 . S
C28 O32 1.245 . S
C28 O33 1.259 . S
C29 O34 1.250 . S
C29 O35 1.263 . S
O30 Tb22 2.427 . S
O30 C26 1.275 . S
O31 Tb22 2.513 . S
O31 C26 1.246 . S
O32 Tb22 2.453 . S
O32 C28 1.245 . S
O33 Tb20 2.343 . S
O33 Tb22 2.596 . S
O33 C28 1.259 . S
O34 Tb22 2.374 . S
O34 C29 1.250 . S
O35 Tb20 2.353 . S
O35 C29 1.263 . S
C36 O37 1.275 . S
C36 O38 1.246 . S
O37 Tb20 2.427 . S
O37 C36 1.275 . S
O38 Tb20 2.513 . S
O38 C36 1.246 . S
C39 O23 1.245 . S
C39 O24 1.259 . S
Tb40 O43 2.453 . S
Tb40 O44 2.596 . S
Tb40 O45 2.374 . S
Tb40 O53 2.343 . S
Tb40 O55 2.353 . S
Tb40 O57 2.427 . S
Tb40 O58 2.513 . S
C41 O45 1.251 . S
C41 O47 1.263 . S
Tb42 O44 2.343 . S
Tb42 O47 2.353 . S
Tb42 O50 2.427 . S
Tb42 O51 2.513 . S
Tb42 O52 2.453 . S
Tb42 O53 2.596 . S
Tb42 O54 2.374 . S
O43 Tb40 2.453 . S
O43 C59 1.245 . S
O44 Tb40 2.596 . S
O44 Tb42 2.343 . S
O44 C59 1.259 . S
O45 Tb40 2.374 . S
O45 C41 1.251 . S
C46 O50 1.275 . S
C46 O51 1.246 . S
O47 C41 1.263 . S
O47 Tb42 2.353 . S
C48 O52 1.245 . S
C48 O53 1.259 . S
C49 O54 1.250 . S
C49 O55 1.263 . S
O50 Tb42 2.427 . S
O50 C46 1.275 . S
O51 Tb42 2.513 . S
O51 C46 1.246 . S
O52 Tb42 2.453 . S
O52 C48 1.245 . S
O53 Tb40 2.343 . S
O53 Tb42 2.596 . S
O53 C48 1.259 . S
O54 Tb42 2.374 . S
O54 C49 1.250 . S
O55 Tb40 2.353 . S
O55 C49 1.263 . S
C56 O57 1.275 . S
C56 O58 1.246 . S
O57 Tb40 2.427 . S
O57 C56 1.275 . S
O58 Tb40 2.513 . S
O58 C56 1.246 . S
C59 O43 1.245 . S
C59 O44 1.259 . S
Tb60 O63 2.453 . S
Tb60 O64 2.596 . S
Tb60 O65 2.374 . S
Tb60 O73 2.343 . S
Tb60 O75 2.353 . S
Tb60 O77 2.427 . S
Tb60 O78 2.513 . S
C61 O65 1.251 . S
C61 O67 1.263 . S
Tb62 O64 2.343 . S
Tb62 O67 2.353 . S
Tb62 O70 2.427 1_556 S
Tb62 O71 2.513 1_556 S
Tb62 O72 2.453 . S
Tb62 O73 2.596 . S
Tb62 O74 2.374 . S
O63 Tb60 2.453 . S
O63 C79 1.245 . S
O64 Tb60 2.596 . S
O64 Tb62 2.343 . S
O64 C79 1.259 . S
O65 Tb60 2.374 . S
O65 C61 1.251 . S
C66 O70 1.275 . S
C66 O71 1.246 . S
O67 C61 1.263 . S
O67 Tb62 2.353 . S
C68 O72 1.245 . S
C68 O73 1.259 . S
C69 O74 1.250 . S
C69 O75 1.263 . S
O70 Tb62 2.427 1_554 S
O70 C66 1.275 . S
O71 Tb62 2.513 1_554 S
O71 C66 1.246 . S
O72 Tb62 2.453 . S
O72 C68 1.245 . S
O73 Tb60 2.343 . S
O73 Tb62 2.596 . S
O73 C68 1.259 . S
O74 Tb62 2.374 . S
O74 C69 1.250 . S
O75 Tb60 2.353 . S
O75 C69 1.263 . S
C76 O77 1.275 . S
C76 O78 1.246 . S
O77 Tb60 2.427 . S
O77 C76 1.275 . S
O78 Tb60 2.513 . S
O78 C76 1.246 . S
C79 O63 1.245 . S
C79 O64 1.259 . S
Tb80 O83 2.453 . S
Tb80 O84 2.596 . S
Tb80 O85 2.374 . S
Tb80 O93 2.343 . S
Tb80 O95 2.353 . S
Tb80 O97 2.427 . S
Tb80 O98 2.513 . S
C81 O85 1.251 . S
C81 O87 1.263 . S
Tb82 O84 2.343 . S
Tb82 O87 2.353 . S
Tb82 O90 2.427 . S
Tb82 O91 2.513 . S
Tb82 O92 2.453 . S
Tb82 O93 2.596 . S
Tb82 O94 2.374 . S
O83 Tb80 2.453 . S
O83 C99 1.245 . S
O84 Tb80 2.596 . S
O84 Tb82 2.343 . S
O84 C99 1.259 . S
O85 Tb80 2.374 . S
O85 C81 1.251 . S
C86 O90 1.275 . S
C86 O91 1.246 . S
O87 C81 1.263 . S
O87 Tb82 2.353 . S
C88 O92 1.245 . S
C88 O93 1.259 . S
C89 O94 1.250 . S
C89 O95 1.263 . S
O90 Tb82 2.427 . S
O90 C86 1.275 . S
O91 Tb82 2.513 . S
O91 C86 1.246 . S
O92 Tb82 2.453 . S
O92 C88 1.245 . S
O93 Tb80 2.343 . S
O93 Tb82 2.596 . S
O93 C88 1.259 . S
O94 Tb82 2.374 . S
O94 C89 1.250 . S
O95 Tb80 2.353 . S
O95 C89 1.263 . S
C96 O97 1.275 . S
C96 O98 1.246 . S
O97 Tb80 2.427 . S
O97 C96 1.275 . S
O98 Tb80 2.513 . S
O98 C96 1.246 . S
C99 O83 1.245 . S
C99 O84 1.259 . S
Tb100 O103 2.453 . S
Tb100 O104 2.596 . S
Tb100 O105 2.374 . S
Tb100 O113 2.343 . S
Tb100 O115 2.353 . S
Tb100 O117 2.427 . S
Tb100 O118 2.513 . S
C101 O105 1.251 . S
C101 O107 1.263 . S
Tb102 O104 2.343 . S
Tb102 O107 2.353 . S
Tb102 O110 2.427 . S
Tb102 O111 2.513 . S
Tb102 O112 2.453 . S
Tb102 O113 2.596 . S
Tb102 O114 2.374 . S
O103 Tb100 2.453 . S
O103 C119 1.245 . S
O104 Tb100 2.596 . S
O104 Tb102 2.343 . S
O104 C119 1.259 . S
O105 Tb100 2.374 . S
O105 C101 1.251 . S
C106 O110 1.275 . S
C106 O111 1.246 . S
O107 C101 1.263 . S
O107 Tb102 2.353 . S
C108 O112 1.245 . S
C108 O113 1.259 . S
C109 O114 1.250 . S
C109 O115 1.263 . S
O110 Tb102 2.427 . S
O110 C106 1.275 . S
O111 Tb102 2.513 . S
O111 C106 1.246 . S
O112 Tb102 2.453 . S
O112 C108 1.245 . S
O113 Tb100 2.343 . S
O113 Tb102 2.596 . S
O113 C108 1.259 . S
O114 Tb102 2.374 . S
O114 C109 1.250 . S
O115 Tb100 2.353 . S
O115 C109 1.263 . S
C116 O117 1.275 . S
C116 O118 1.246 . S
O117 Tb100 2.427 . S
O117 C116 1.275 . S
O118 Tb100 2.513 . S
O118 C116 1.246 . S
C119 O103 1.245 . S
C119 O104 1.259 . S
Tb120 O123 2.453 . S
Tb120 O124 2.596 . S
Tb120 O125 2.374 . S
Tb120 O133 2.343 . S
Tb120 O135 2.353 . S
Tb120 O137 2.427 . S
Tb120 O138 2.513 . S
C121 O125 1.251 . S
C121 O127 1.263 . S
Tb122 O124 2.343 . S
Tb122 O127 2.353 . S
Tb122 O130 2.427 1_554 S
Tb122 O131 2.513 1_554 S
Tb122 O132 2.453 . S
Tb122 O133 2.596 . S
Tb122 O134 2.374 . S
O123 Tb120 2.453 . S
O123 C139 1.241 1_554 S
O124 Tb120 2.596 . S
O124 Tb122 2.343 . S
O124 C139 1.256 1_554 S
O125 Tb120 2.374 . S
O125 C121 1.251 . S
C126 O130 1.275 . S
C126 O131 1.246 . S
O127 C121 1.263 . S
O127 Tb122 2.353 . S
C128 O132 1.245 . S
C128 O133 1.259 . S
C129 O134 1.250 . S
C129 O135 1.263 . S
O130 Tb122 2.427 1_556 S
O130 C126 1.275 . S
O131 Tb122 2.513 1_556 S
O131 C126 1.246 . S
O132 Tb122 2.453 . S
O132 C128 1.245 . S
O133 Tb120 2.343 . S
O133 Tb122 2.596 . S
O133 C128 1.259 . S
O134 Tb122 2.374 . S
O134 C129 1.250 . S
O135 Tb120 2.353 . S
O135 C129 1.263 . S
C136 O137 1.275 . S
C136 O138 1.246 . S
O137 Tb120 2.427 . S
O137 C136 1.275 . S
O138 Tb120 2.513 . S
O138 C136 1.246 . S
C139 O123 1.241 1_556 S
C139 O124 1.256 1_556 S
Tb140 O143 2.453 . S
Tb140 O144 2.596 . S
Tb140 O145 2.374 . S
Tb140 O153 2.343 . S
Tb140 O155 2.353 . S
Tb140 O157 2.427 . S
Tb140 O158 2.513 . S
C141 O145 1.251 . S
C141 O147 1.263 . S
Tb142 O144 2.343 . S
Tb142 O147 2.353 . S
Tb142 O150 2.427 . S
Tb142 O151 2.513 . S
Tb142 O152 2.453 . S
Tb142 O153 2.596 . S
Tb142 O154 2.374 . S
O143 Tb140 2.453 . S
O143 C159 1.245 . S
O144 Tb140 2.596 . S
O144 Tb142 2.343 . S
O144 C159 1.259 . S
O145 Tb140 2.374 . S
O145 C141 1.251 . S
C146 O150 1.275 . S
C146 O151 1.246 . S
O147 C141 1.263 . S
O147 Tb142 2.353 . S
C148 O152 1.245 . S
C148 O153 1.259 . S
C149 O154 1.250 . S
C149 O155 1.263 . S
O150 Tb142 2.427 . S
O150 C146 1.275 . S
O151 Tb142 2.513 . S
O151 C146 1.246 . S
O152 Tb142 2.453 . S
O152 C148 1.245 . S
O153 Tb140 2.343 . S
O153 Tb142 2.596 . S
O153 C148 1.259 . S
O154 Tb142 2.374 . S
O154 C149 1.250 . S
O155 Tb140 2.353 . S
O155 C149 1.263 . S
C156 O157 1.275 . S
C156 O158 1.246 . S
O157 Tb140 2.427 . S
O157 C156 1.275 . S
O158 Tb140 2.513 . S
O158 C156 1.246 . S
C159 O143 1.245 . S
C159 O144 1.259 . S
Tb160 O163 2.453 . S
Tb160 O164 2.596 . S
Tb160 O165 2.374 . S
Tb160 O173 2.343 . S
Tb160 O175 2.353 . S
Tb160 O177 2.427 . S
Tb160 O178 2.513 . S
C161 O165 1.251 . S
C161 O167 1.263 . S
Tb162 O164 2.343 . S
Tb162 O167 2.353 . S
Tb162 O170 2.427 . S
Tb162 O171 2.513 . S
Tb162 O172 2.453 . S
Tb162 O173 2.596 . S
Tb162 O174 2.374 . S
O163 Tb160 2.453 . S
O163 C179 1.245 . S
O164 Tb160 2.596 . S
O164 Tb162 2.343 . S
O164 C179 1.259 . S
O165 Tb160 2.374 . S
O165 C161 1.251 . S
C166 O170 1.275 1_556 S
C166 O171 1.246 1_556 S
O167 C161 1.263 . S
O167 Tb162 2.353 . S
C168 O172 1.245 . S
C168 O173 1.259 . S
C169 O174 1.250 . S
C169 O175 1.263 . S
O170 Tb162 2.427 . S
O170 C166 1.275 1_554 S
O171 Tb162 2.513 . S
O171 C166 1.246 1_554 S
O172 Tb162 2.453 . S
O172 C168 1.245 . S
O173 Tb160 2.343 . S
O173 Tb162 2.596 . S
O173 C168 1.259 . S
O174 Tb162 2.374 . S
O174 C169 1.250 . S
O175 Tb160 2.353 . S
O175 C169 1.263 . S
C176 O177 1.275 . S
C176 O178 1.246 . S
O177 Tb160 2.427 . S
O177 C176 1.275 . S
O178 Tb160 2.513 . S
O178 C176 1.246 . S
C179 O163 1.245 . S
C179 O164 1.259 . S
Tb180 O183 2.453 . S
Tb180 O184 2.596 . S
Tb180 O185 2.374 . S
Tb180 O193 2.343 . S
Tb180 O195 2.353 . S
Tb180 O197 2.427 . S
Tb180 O198 2.513 . S
C181 O185 1.251 . S
C181 O187 1.263 . S
Tb182 O184 2.343 . S
Tb182 O187 2.353 . S
Tb182 O190 2.427 . S
Tb182 O191 2.513 . S
Tb182 O192 2.453 . S
Tb182 O193 2.596 . S
Tb182 O194 2.374 . S
O183 Tb180 2.453 . S
O183 C199 1.245 . S
O184 Tb180 2.596 . S
O184 Tb182 2.343 . S
O184 C199 1.259 . S
O185 Tb180 2.374 . S
O185 C181 1.251 . S
C186 O190 1.275 . S
C186 O191 1.246 . S
O187 C181 1.263 . S
O187 Tb182 2.353 . S
C188 O192 1.245 . S
C188 O193 1.259 . S
C189 O194 1.250 . S
C189 O195 1.263 . S
O190 Tb182 2.427 . S
O190 C186 1.275 . S
O191 Tb182 2.513 . S
O191 C186 1.246 . S
O192 Tb182 2.453 . S
O192 C188 1.245 . S
O193 Tb180 2.343 . S
O193 Tb182 2.596 . S
O193 C188 1.259 . S
O194 Tb182 2.374 . S
O194 C189 1.250 . S
O195 Tb180 2.353 . S
O195 C189 1.263 . S
C196 O197 1.275 . S
C196 O198 1.246 . S
O197 Tb180 2.427 . S
O197 C196 1.275 . S
O198 Tb180 2.513 . S
O198 C196 1.246 . S
C199 O183 1.245 . S
C199 O184 1.259 . S
Tb200 O203 2.453 . S
Tb200 O204 2.596 . S
Tb200 O205 2.374 . S
Tb200 O213 2.343 . S
Tb200 O215 2.353 . S
Tb200 O217 2.427 . S
Tb200 O218 2.513 . S
C201 O205 1.251 . S
C201 O207 1.263 . S
Tb202 O204 2.343 . S
Tb202 O207 2.353 . S
Tb202 O210 2.427 . S
Tb202 O211 2.513 . S
Tb202 O212 2.453 . S
Tb202 O213 2.596 . S
Tb202 O214 2.374 . S
O203 Tb200 2.453 . S
O203 C219 1.245 . S
O204 Tb200 2.596 . S
O204 Tb202 2.343 . S
O204 C219 1.259 . S
O205 Tb200 2.374 . S
O205 C201 1.251 . S
C206 O210 1.275 . S
C206 O211 1.246 . S
O207 C201 1.263 . S
O207 Tb202 2.353 . S
C208 O212 1.245 . S
C208 O213 1.259 . S
C209 O214 1.250 . S
C209 O215 1.263 . S
O210 Tb202 2.427 . S
O210 C206 1.275 . S
O211 Tb202 2.513 . S
O211 C206 1.246 . S
O212 Tb202 2.453 . S
O212 C208 1.245 . S
O213 Tb200 2.343 . S
O213 Tb202 2.596 . S
O213 C208 1.259 . S
O214 Tb202 2.374 . S
O214 C209 1.250 . S
O215 Tb200 2.353 . S
O215 C209 1.263 . S
C216 O217 1.275 . S
C216 O218 1.246 . S
O217 Tb200 2.427 . S
O217 C216 1.275 . S
O218 Tb200 2.513 . S
O218 C216 1.246 . S
C219 O203 1.245 . S
C219 O204 1.259 . S
Tb220 O223 2.453 . S
Tb220 O224 2.596 . S
Tb220 O225 2.374 . S
Tb220 O233 2.343 . S
Tb220 O235 2.353 . S
Tb220 O237 2.427 . S
Tb220 O238 2.513 . S
C221 O225 1.251 . S
C221 O227 1.263 . S
Tb222 O224 2.343 . S
Tb222 O227 2.353 . S
Tb222 O230 2.427 . S
Tb222 O231 2.513 . S
Tb222 O232 2.453 . S
Tb222 O233 2.596 . S
Tb222 O234 2.374 . S
O223 Tb220 2.453 . S
O223 C239 1.245 . S
O224 Tb220 2.596 . S
O224 Tb222 2.343 . S
O224 C239 1.259 . S
O225 Tb220 2.374 . S
O225 C221 1.251 . S
C226 O230 1.275 . S
C226 O231 1.246 . S
O227 C221 1.263 . S
O227 Tb222 2.353 . S
C228 O232 1.245 . S
C228 O233 1.259 . S
C229 O234 1.250 . S
C229 O235 1.263 . S
O230 Tb222 2.427 . S
O230 C226 1.275 . S
O231 Tb222 2.513 . S
O231 C226 1.246 . S
O232 Tb222 2.453 . S
O232 C228 1.245 . S
O233 Tb220 2.343 . S
O233 Tb222 2.596 . S
O233 C228 1.259 . S
O234 Tb222 2.374 . S
O234 C229 1.250 . S
O235 Tb220 2.353 . S
O235 C229 1.263 . S
C236 O237 1.275 . S
C236 O238 1.246 . S
O237 Tb220 2.427 . S
O237 C236 1.275 . S
O238 Tb220 2.513 . S
O238 C236 1.246 . S
C239 O223 1.245 . S
C239 O224 1.259 . S
Tb240 O243 2.453 . S
Tb240 O244 2.596 . S
Tb240 O245 2.374 . S
Tb240 O253 2.343 . S
Tb240 O255 2.353 . S
Tb240 O257 2.427 . S
Tb240 O258 2.513 . S
C241 O245 1.251 . S
C241 O247 1.263 . S
Tb242 O244 2.343 . S
Tb242 O247 2.353 . S
Tb242 O250 2.427 . S
Tb242 O251 2.513 . S
Tb242 O252 2.453 . S
Tb242 O253 2.596 . S
Tb242 O254 2.374 . S
O243 Tb240 2.453 . S
O243 C259 1.245 . S
O244 Tb240 2.596 . S
O244 Tb242 2.343 . S
O244 C259 1.259 . S
O245 Tb240 2.374 . S
O245 C241 1.251 . S
C246 O250 1.275 . S
C246 O251 1.246 . S
O247 C241 1.263 . S
O247 Tb242 2.353 . S
C248 O252 1.245 . S
C248 O253 1.259 . S
C249 O254 1.250 . S
C249 O255 1.263 . S
O250 Tb242 2.427 . S
O250 C246 1.275 . S
O251 Tb242 2.513 . S
O251 C246 1.246 . S
O252 Tb242 2.453 . S
O252 C248 1.245 . S
O253 Tb240 2.343 . S
O253 Tb242 2.596 . S
O253 C248 1.259 . S
O254 Tb242 2.374 . S
O254 C249 1.250 . S
O255 Tb240 2.353 . S
O255 C249 1.263 . S
C256 O257 1.275 . S
C256 O258 1.246 . S
O257 Tb240 2.427 . S
O257 C256 1.275 . S
O258 Tb240 2.513 . S
O258 C256 1.246 . S
C259 O243 1.245 . S
C259 O244 1.259 . S
Tb260 O263 2.453 . S
Tb260 O264 2.596 . S
Tb260 O265 2.374 . S
Tb260 O273 2.343 . S
Tb260 O275 2.353 . S
Tb260 O277 2.427 . S
Tb260 O278 2.513 . S
C261 O265 1.251 . S
C261 O267 1.263 . S
Tb262 O264 2.343 . S
Tb262 O267 2.353 . S
Tb262 O270 2.427 . S
Tb262 O271 2.513 . S
Tb262 O272 2.453 . S
Tb262 O273 2.596 . S
Tb262 O274 2.374 . S
O263 Tb260 2.453 . S
O263 C279 1.245 . S
O264 Tb260 2.596 . S
O264 Tb262 2.343 . S
O264 C279 1.259 . S
O265 Tb260 2.374 . S
O265 C261 1.251 . S
C266 O270 1.275 . S
C266 O271 1.246 . S
O267 C261 1.263 . S
O267 Tb262 2.353 . S
C268 O272 1.245 . S
C268 O273 1.259 . S
C269 O274 1.250 . S
C269 O275 1.263 . S
O270 Tb262 2.427 . S
O270 C266 1.275 . S
O271 Tb262 2.513 . S
O271 C266 1.246 . S
O272 Tb262 2.453 . S
O272 C268 1.245 . S
O273 Tb260 2.343 . S
O273 Tb262 2.596 . S
O273 C268 1.259 . S
O274 Tb262 2.374 . S
O274 C269 1.250 . S
O275 Tb260 2.353 . S
O275 C269 1.263 . S
C276 O277 1.275 . S
C276 O278 1.246 . S
O277 Tb260 2.427 . S
O277 C276 1.275 . S
O278 Tb260 2.513 . S
O278 C276 1.246 . S
C279 O263 1.245 . S
C279 O264 1.259 . S
Tb280 O283 2.453 . S
Tb280 O284 2.596 . S
Tb280 O285 2.374 . S
Tb280 O293 2.343 . S
Tb280 O295 2.353 . S
Tb280 O297 2.427 . S
Tb280 O298 2.513 . S
C281 O285 1.251 . S
C281 O287 1.263 . S
Tb282 O284 2.343 . S
Tb282 O287 2.353 . S
Tb282 O290 2.427 . S
Tb282 O291 2.513 . S
Tb282 O292 2.453 . S
Tb282 O293 2.596 . S
Tb282 O294 2.374 . S
O283 Tb280 2.453 . S
O283 C299 1.245 . S
O284 Tb280 2.596 . S
O284 Tb282 2.343 . S
O284 C299 1.259 . S
O285 Tb280 2.374 . S
O285 C281 1.251 . S
C286 O290 1.275 . S
C286 O291 1.246 . S
O287 C281 1.263 . S
O287 Tb282 2.353 . S
C288 O292 1.245 . S
C288 O293 1.259 . S
C289 O294 1.250 . S
C289 O295 1.263 . S
O290 Tb282 2.427 . S
O290 C286 1.275 . S
O291 Tb282 2.513 . S
O291 C286 1.246 . S
O292 Tb282 2.453 . S
O292 C288 1.245 . S
O293 Tb280 2.343 . S
O293 Tb282 2.596 . S
O293 C288 1.259 . S
O294 Tb282 2.374 . S
O294 C289 1.250 . S
O295 Tb280 2.353 . S
O295 C289 1.263 . S
C296 O297 1.275 . S
C296 O298 1.246 . S
O297 Tb280 2.427 . S
O297 C296 1.275 . S
O298 Tb280 2.513 . S
O298 C296 1.246 . S
C299 O283 1.245 . S
C299 O284 1.259 . S
Tb300 O303 2.453 . S
Tb300 O304 2.596 . S
Tb300 O305 2.374 . S
Tb300 O313 2.343 . S
Tb300 O315 2.353 . S
Tb300 O317 2.427 1_556 S
Tb300 O318 2.513 1_556 S
C301 O305 1.251 . S
C301 O307 1.263 . S
Tb302 O304 2.343 . S
Tb302 O307 2.353 . S
Tb302 O310 2.427 . S
Tb302 O311 2.513 . S
Tb302 O312 2.453 . S
Tb302 O313 2.596 . S
Tb302 O314 2.374 . S
O303 Tb300 2.453 . S
O303 C319 1.245 . S
O304 Tb300 2.596 . S
O304 Tb302 2.343 . S
O304 C319 1.259 . S
O305 Tb300 2.374 . S
O305 C301 1.251 . S
C306 O310 1.275 . S
C306 O311 1.246 . S
O307 C301 1.263 . S
O307 Tb302 2.353 . S
C308 O312 1.245 . S
C308 O313 1.259 . S
C309 O314 1.250 . S
C309 O315 1.263 . S
O310 Tb302 2.427 . S
O310 C306 1.275 . S
O311 Tb302 2.513 . S
O311 C306 1.246 . S
O312 Tb302 2.453 . S
O312 C308 1.245 . S
O313 Tb300 2.343 . S
O313 Tb302 2.596 . S
O313 C308 1.259 . S
O314 Tb302 2.374 . S
O314 C309 1.250 . S
O315 Tb300 2.353 . S
O315 C309 1.263 . S
C316 O317 1.275 . S
C316 O318 1.246 . S
O317 Tb300 2.427 1_554 S
O317 C316 1.275 . S
O318 Tb300 2.513 1_554 S
O318 C316 1.246 . S
C319 O303 1.245 . S
C319 O304 1.259 . S
Tb320 O323 2.453 . S
Tb320 O324 2.596 . S
Tb320 O325 2.374 . S
Tb320 O333 2.343 . S
Tb320 O335 2.353 . S
Tb320 O337 2.427 . S
Tb320 O338 2.513 . S
C321 O325 1.251 . S
C321 O327 1.263 . S
Tb322 O324 2.343 . S
Tb322 O327 2.353 . S
Tb322 O330 2.427 . S
Tb322 O331 2.513 . S
Tb322 O332 2.453 . S
Tb322 O333 2.596 . S
Tb322 O334 2.374 . S
O323 Tb320 2.453 . S
O323 C339 1.245 . S
O324 Tb320 2.596 . S
O324 Tb322 2.343 . S
O324 C339 1.259 . S
O325 Tb320 2.374 . S
O325 C321 1.251 . S
C326 O330 1.275 . S
C326 O331 1.246 . S
O327 C321 1.263 . S
O327 Tb322 2.353 . S
C328 O332 1.245 . S
C328 O333 1.259 . S
C329 O334 1.250 . S
C329 O335 1.263 . S
O330 Tb322 2.427 . S
O330 C326 1.275 . S
O331 Tb322 2.513 . S
O331 C326 1.246 . S
O332 Tb322 2.453 . S
O332 C328 1.245 . S
O333 Tb320 2.343 . S
O333 Tb322 2.596 . S
O333 C328 1.259 . S
O334 Tb322 2.374 . S
O334 C329 1.250 . S
O335 Tb320 2.353 . S
O335 C329 1.263 . S
C336 O337 1.275 . S
C336 O338 1.246 . S
O337 Tb320 2.427 . S
O337 C336 1.275 . S
O338 Tb320 2.513 . S
O338 C336 1.246 . S
C339 O323 1.245 . S
C339 O324 1.259 . S
Tb340 O343 2.453 . S
Tb340 O344 2.596 . S
Tb340 O345 2.374 . S
Tb340 O353 2.343 . S
Tb340 O355 2.353 . S
Tb340 O357 2.427 . S
Tb340 O358 2.513 . S
C341 O345 1.251 . S
C341 O347 1.263 . S
Tb342 O344 2.343 . S
Tb342 O347 2.353 . S
Tb342 O350 2.427 1_556 S
Tb342 O351 2.513 1_556 S
Tb342 O352 2.453 . S
Tb342 O353 2.596 . S
Tb342 O354 2.374 . S
O343 Tb340 2.453 . S
O343 C359 1.245 . S
O344 Tb340 2.596 . S
O344 Tb342 2.343 . S
O344 C359 1.259 . S
O345 Tb340 2.374 . S
O345 C341 1.251 . S
C346 O350 1.275 . S
C346 O351 1.246 . S
O347 C341 1.263 . S
O347 Tb342 2.353 . S
C348 O352 1.245 . S
C348 O353 1.259 . S
C349 O354 1.250 . S
C349 O355 1.263 . S
O350 Tb342 2.427 1_554 S
O350 C346 1.275 . S
O351 Tb342 2.513 1_554 S
O351 C346 1.246 . S
O352 Tb342 2.453 . S
O352 C348 1.245 . S
O353 Tb340 2.343 . S
O353 Tb342 2.596 . S
O353 C348 1.259 . S
O354 Tb342 2.374 . S
O354 C349 1.250 . S
O355 Tb340 2.353 . S
O355 C349 1.263 . S
C356 O357 1.275 . S
C356 O358 1.246 . S
O357 Tb340 2.427 . S
O357 C356 1.275 . S
O358 Tb340 2.513 . S
O358 C356 1.246 . S
C359 O343 1.245 . S
C359 O344 1.259 . S
Tb360 O363 2.453 . S
Tb360 O364 2.596 . S
Tb360 O365 2.374 . S
Tb360 O373 2.343 . S
Tb360 O375 2.353 . S
Tb360 O377 2.427 . S
Tb360 O378 2.513 . S
C361 O365 1.251 . S
C361 O367 1.263 . S
Tb362 O364 2.343 . S
Tb362 O367 2.353 . S
Tb362 O370 2.427 . S
Tb362 O371 2.513 . S
Tb362 O372 2.453 . S
Tb362 O373 2.596 . S
Tb362 O374 2.374 . S
O363 Tb360 2.453 . S
O363 C379 1.245 . S
O364 Tb360 2.596 . S
O364 Tb362 2.343 . S
O364 C379 1.259 . S
O365 Tb360 2.374 . S
O365 C361 1.251 . S
C366 O370 1.275 . S
C366 O371 1.246 . S
O367 C361 1.263 . S
O367 Tb362 2.353 . S
C368 O372 1.245 . S
C368 O373 1.259 . S
C369 O374 1.250 . S
C369 O375 1.263 . S
O370 Tb362 2.427 . S
O370 C366 1.275 . S
O371 Tb362 2.513 . S
O371 C366 1.246 . S
O372 Tb362 2.453 . S
O372 C368 1.245 . S
O373 Tb360 2.343 . S
O373 Tb362 2.596 . S
O373 C368 1.259 . S
O374 Tb362 2.374 . S
O374 C369 1.250 . S
O375 Tb360 2.353 . S
O375 C369 1.263 . S
C376 O377 1.275 . S
C376 O378 1.246 . S
O377 Tb360 2.427 . S
O377 C376 1.275 . S
O378 Tb360 2.513 . S
O378 C376 1.246 . S
C379 O363 1.245 . S
C379 O364 1.259 . S
Tb380 O383 2.453 . S
Tb380 O384 2.596 . S
Tb380 O385 2.374 . S
Tb380 O393 2.343 . S
Tb380 O395 2.353 . S
Tb380 O397 2.427 . S
Tb380 O398 2.513 . S
C381 O385 1.251 . S
C381 O387 1.263 . S
Tb382 O384 2.343 . S
Tb382 O387 2.353 . S
Tb382 O390 2.427 . S
Tb382 O391 2.513 . S
Tb382 O392 2.453 . S
Tb382 O393 2.596 . S
Tb382 O394 2.374 . S
O383 Tb380 2.453 . S
O383 C399 1.245 . S
O384 Tb380 2.596 . S
O384 Tb382 2.343 . S
O384 C399 1.259 . S
O385 Tb380 2.374 . S
O385 C381 1.251 . S
C386 O390 1.275 . S
C386 O391 1.246 . S
O387 C381 1.263 . S
O387 Tb382 2.353 . S
C388 O392 1.245 . S
C388 O393 1.259 . S
C389 O394 1.250 . S
C389 O395 1.263 . S
O390 Tb382 2.427 . S
O390 C386 1.275 . S
O391 Tb382 2.513 . S
O391 C386 1.246 . S
O392 Tb382 2.453 . S
O392 C388 1.245 . S
O393 Tb380 2.343 . S
O393 Tb382 2.596 . S
O393 C388 1.259 . S
O394 Tb382 2.374 . S
O394 C389 1.250 . S
O395 Tb380 2.353 . S
O395 C389 1.263 . S
C396 O397 1.275 . S
C396 O398 1.246 . S
O397 Tb380 2.427 . S
O397 C396 1.275 . S
O398 Tb380 2.513 . S
O398 C396 1.246 . S
C399 O383 1.245 . S
C399 O384 1.259 . S
Tb400 O403 2.453 . S
Tb400 O404 2.596 . S
Tb400 O405 2.374 . S
Tb400 O413 2.343 . S
Tb400 O415 2.353 . S
Tb400 O417 2.427 . S
Tb400 O418 2.513 . S
C401 O405 1.251 . S
C401 O407 1.263 . S
Tb402 O404 2.343 . S
Tb402 O407 2.353 . S
Tb402 O410 2.427 . S
Tb402 O411 2.513 . S
Tb402 O412 2.453 . S
Tb402 O413 2.596 . S
Tb402 O414 2.374 . S
O403 Tb400 2.453 . S
O403 C419 1.245 . S
O404 Tb400 2.596 . S
O404 Tb402 2.343 . S
O404 C419 1.259 . S
O405 Tb400 2.374 . S
O405 C401 1.251 . S
C406 O410 1.275 . S
C406 O411 1.246 . S
O407 C401 1.263 . S
O407 Tb402 2.353 . S
C408 O412 1.245 . S
C408 O413 1.259 . S
C409 O414 1.250 . S
C409 O415 1.263 . S
O410 Tb402 2.427 . S
O410 C406 1.275 . S
O411 Tb402 2.513 . S
O411 C406 1.246 . S
O412 Tb402 2.453 . S
O412 C408 1.245 . S
O413 Tb400 2.343 . S
O413 Tb402 2.596 . S
O413 C408 1.259 . S
O414 Tb402 2.374 . S
O414 C409 1.250 . S
O415 Tb400 2.353 . S
O415 C409 1.263 . S
C416 O417 1.275 1_556 S
C416 O418 1.246 1_556 S
O417 Tb400 2.427 . S
O417 C416 1.275 1_554 S
O418 Tb400 2.513 . S
O418 C416 1.246 1_554 S
C419 O403 1.245 . S
C419 O404 1.259 . S
Tb420 O423 2.453 . S
Tb420 O424 2.596 . S
Tb420 O425 2.374 . S
Tb420 O433 2.343 . S
Tb420 O435 2.353 . S
Tb420 O437 2.427 . S
Tb420 O438 2.513 . S
C421 O425 1.251 . S
C421 O427 1.263 . S
Tb422 O424 2.343 . S
Tb422 O427 2.353 . S
Tb422 O430 2.427 . S
Tb422 O431 2.513 . S
Tb422 O432 2.453 . S
Tb422 O433 2.596 . S
Tb422 O434 2.374 . S
O423 Tb420 2.453 . S
O423 C439 1.245 . S
O424 Tb420 2.596 . S
O424 Tb422 2.343 . S
O424 C439 1.259 . S
O425 Tb420 2.374 . S
O425 C421 1.251 . S
C426 O430 1.275 . S
C426 O431 1.246 . S
O427 C421 1.263 . S
O427 Tb422 2.353 . S
C428 O432 1.245 . S
C428 O433 1.259 . S
C429 O434 1.250 . S
C429 O435 1.263 . S
O430 Tb422 2.427 . S
O430 C426 1.275 . S
O431 Tb422 2.513 . S
O431 C426 1.246 . S
O432 Tb422 2.453 . S
O432 C428 1.245 . S
O433 Tb420 2.343 . S
O433 Tb422 2.596 . S
O433 C428 1.259 . S
O434 Tb422 2.374 . S
O434 C429 1.250 . S
O435 Tb420 2.353 . S
O435 C429 1.263 . S
C436 O437 1.275 . S
C436 O438 1.246 . S
O437 Tb420 2.427 . S
O437 C436 1.275 . S
O438 Tb420 2.513 . S
O438 C436 1.246 . S
C439 O423 1.245 . S
C439 O424 1.259 . S
Tb440 O443 2.453 . S
Tb440 O444 2.596 . S
Tb440 O445 2.374 . S
Tb440 O453 2.343 . S
Tb440 O455 2.353 . S
Tb440 O457 2.427 . S
Tb440 O458 2.513 . S
C441 O445 1.251 . S
C441 O447 1.263 . S
Tb442 O444 2.343 . S
Tb442 O447 2.353 . S
Tb442 O450 2.427 . S
Tb442 O451 2.513 . S
Tb442 O452 2.453 . S
Tb442 O453 2.596 . S
Tb442 O454 2.374 . S
O443 Tb440 2.453 . S
O443 C459 1.245 . S
O444 Tb440 2.596 . S
O444 Tb442 2.343 . S
O444 C459 1.259 . S
O445 Tb440 2.374 . S
O445 C441 1.251 . S
C446 O450 1.275 . S
C446 O451 1.246 . S
O447 C441 1.263 . S
O447 Tb442 2.353 . S
C448 O452 1.245 . S
C448 O453 1.259 . S
C449 O454 1.250 . S
C449 O455 1.263 . S
O450 Tb442 2.427 . S
O450 C446 1.275 . S
O451 Tb442 2.513 . S
O451 C446 1.246 . S
O452 Tb442 2.453 . S
O452 C448 1.245 . S
O453 Tb440 2.343 . S
O453 Tb442 2.596 . S
O453 C448 1.259 . S
O454 Tb442 2.374 . S
O454 C449 1.250 . S
O455 Tb440 2.353 . S
O455 C449 1.263 . S
C456 O457 1.275 . S
C456 O458 1.246 . S
O457 Tb440 2.427 . S
O457 C456 1.275 . S
O458 Tb440 2.513 . S
O458 C456 1.246 . S
C459 O443 1.245 . S
C459 O444 1.259 . S
Tb460 O463 2.453 . S
Tb460 O464 2.596 . S
Tb460 O465 2.374 . S
Tb460 O473 2.343 . S
Tb460 O475 2.353 . S
Tb460 O477 2.427 . S
Tb460 O478 2.513 . S
C461 O465 1.251 . S
C461 O467 1.263 . S
Tb462 O464 2.343 . S
Tb462 O467 2.353 . S
Tb462 O470 2.427 . S
Tb462 O471 2.513 . S
Tb462 O472 2.453 . S
Tb462 O473 2.596 . S
Tb462 O474 2.374 . S
O463 Tb460 2.453 . S
O463 C479 1.245 . S
O464 Tb460 2.596 . S
O464 Tb462 2.343 . S
O464 C479 1.259 . S
O465 Tb460 2.374 . S
O465 C461 1.251 . S
C466 O470 1.275 . S
C466 O471 1.246 . S
O467 C461 1.263 . S
O467 Tb462 2.353 . S
C468 O472 1.245 . S
C468 O473 1.259 . S
C469 O474 1.250 . S
C469 O475 1.263 . S
O470 Tb462 2.427 . S
O470 C466 1.275 . S
O471 Tb462 2.513 . S
O471 C466 1.246 . S
O472 Tb462 2.453 . S
O472 C468 1.245 . S
O473 Tb460 2.343 . S
O473 Tb462 2.596 . S
O473 C468 1.259 . S
O474 Tb462 2.374 . S
O474 C469 1.250 . S
O475 Tb460 2.353 . S
O475 C469 1.263 . S
C476 O477 1.275 . S
C476 O478 1.246 . S
O477 Tb460 2.427 . S
O477 C476 1.275 . S
O478 Tb460 2.513 . S
O478 C476 1.246 . S
C479 O463 1.245 . S
C479 O464 1.259 . S
Tb480 O483 2.453 . S
Tb480 O484 2.596 . S
Tb480 O485 2.374 . S
Tb480 O493 2.343 . S
Tb480 O495 2.353 . S
Tb480 O497 2.427 . S
Tb480 O498 2.513 . S
C481 O485 1.251 . S
C481 O487 1.263 . S
Tb482 O484 2.343 . S
Tb482 O487 2.353 . S
Tb482 O490 2.427 . S
Tb482 O491 2.513 . S
Tb482 O492 2.453 . S
Tb482 O493 2.596 . S
Tb482 O494 2.374 . S
O483 Tb480 2.453 . S
O483 C499 1.245 . S
O484 Tb480 2.596 . S
O484 Tb482 2.343 . S
O484 C499 1.259 . S
O485 Tb480 2.374 . S
O485 C481 1.251 . S
C486 O490 1.275 . S
C486 O491 1.246 . S
O487 C481 1.263 . S
O487 Tb482 2.353 . S
C488 O492 1.245 . S
C488 O493 1.259 . S
C489 O494 1.250 . S
C489 O495 1.263 . S
O490 Tb482 2.427 . S
O490 C486 1.275 . S
O491 Tb482 2.513 . S
O491 C486 1.246 . S
O492 Tb482 2.453 . S
O492 C488 1.245 . S
O493 Tb480 2.343 . S
O493 Tb482 2.596 . S
O493 C488 1.259 . S
O494 Tb482 2.374 . S
O494 C489 1.250 . S
O495 Tb480 2.353 . S
O495 C489 1.263 . S
C496 O497 1.275 . S
C496 O498 1.246 . S
O497 Tb480 2.427 . S
O497 C496 1.275 . S
O498 Tb480 2.513 . S
O498 C496 1.246 . S
C499 O483 1.245 . S
C499 O484 1.259 . S
Tb500 O503 2.453 . S
Tb500 O504 2.596 . S
Tb500 O505 2.374 . S
Tb500 O513 2.343 . S
Tb500 O515 2.353 . S
Tb500 O517 2.427 . S
Tb500 O518 2.513 . S
C501 O505 1.251 . S
C501 O507 1.263 . S
Tb502 O504 2.343 . S
Tb502 O507 2.353 . S
Tb502 O510 2.427 . S
Tb502 O511 2.513 . S
Tb502 O512 2.453 . S
Tb502 O513 2.596 . S
Tb502 O514 2.374 . S
O503 Tb500 2.453 . S
O503 C519 1.245 . S
O504 Tb500 2.596 . S
O504 Tb502 2.343 . S
O504 C519 1.259 . S
O505 Tb500 2.374 . S
O505 C501 1.251 . S
C506 O510 1.275 . S
C506 O511 1.246 . S
O507 C501 1.263 . S
O507 Tb502 2.353 . S
C508 O512 1.245 . S
C508 O513 1.259 . S
C509 O514 1.250 . S
C509 O515 1.263 . S
O510 Tb502 2.427 . S
O510 C506 1.275 . S
O511 Tb502 2.513 . S
O511 C506 1.246 . S
O512 Tb502 2.453 . S
O512 C508 1.245 . S
O513 Tb500 2.343 . S
O513 Tb502 2.596 . S
O513 C508 1.259 . S
O514 Tb502 2.374 . S
O514 C509 1.250 . S
O515 Tb500 2.353 . S
O515 C509 1.263 . S
C516 O517 1.275 . S
C516 O518 1.246 . S
O517 Tb500 2.427 . S
O517 C516 1.275 . S
O518 Tb500 2.513 . S
O518 C516 1.246 . S
C519 O503 1.245 . S
C519 O504 1.259 . S
Tb520 O523 2.453 . S
Tb520 O524 2.596 . S
Tb520 O525 2.374 . S
Tb520 O533 2.343 . S
Tb520 O535 2.353 . S
Tb520 O537 2.427 1_554 S
Tb520 O538 2.513 1_554 S
C521 O525 1.251 . S
C521 O527 1.263 . S
Tb522 O524 2.343 . S
Tb522 O527 2.353 . S
Tb522 O530 2.427 . S
Tb522 O531 2.513 . S
Tb522 O532 2.453 . S
Tb522 O533 2.596 . S
Tb522 O534 2.374 . S
O523 Tb520 2.453 . S
O523 C539 1.245 . S
O524 Tb520 2.596 . S
O524 Tb522 2.343 . S
O524 C539 1.259 . S
O525 Tb520 2.374 . S
O525 C521 1.251 . S
C526 O530 1.275 . S
C526 O531 1.246 . S
O527 C521 1.263 . S
O527 Tb522 2.353 . S
C528 O532 1.241 1_556 S
C528 O533 1.256 1_556 S
C529 O534 1.250 . S
C529 O535 1.263 . S
O530 Tb522 2.427 . S
O530 C526 1.275 . S
O531 Tb522 2.513 . S
O531 C526 1.246 . S
O532 Tb522 2.453 . S
O532 C528 1.241 1_554 S
O533 Tb520 2.343 . S
O533 Tb522 2.596 . S
O533 C528 1.256 1_554 S
O534 Tb522 2.374 . S
O534 C529 1.250 . S
O535 Tb520 2.353 . S
O535 C529 1.263 . S
C536 O537 1.275 . S
C536 O538 1.246 . S
O537 Tb520 2.427 1_556 S
O537 C536 1.275 . S
O538 Tb520 2.513 1_556 S
O538 C536 1.246 . S
C539 O523 1.245 . S
C539 O524 1.259 . S
Tb540 O543 2.453 . S
Tb540 O544 2.596 . S
Tb540 O545 2.374 . S
Tb540 O553 2.343 . S
Tb540 O555 2.353 . S
Tb540 O557 2.427 . S
Tb540 O558 2.513 . S
C541 O545 1.251 . S
C541 O547 1.263 . S
Tb542 O544 2.343 . S
Tb542 O547 2.353 . S
Tb542 O550 2.427 . S
Tb542 O551 2.513 . S
Tb542 O552 2.453 . S
Tb542 O553 2.596 . S
Tb542 O554 2.374 . S
O543 Tb540 2.453 . S
O543 C559 1.245 . S
O544 Tb540 2.596 . S
O544 Tb542 2.343 . S
O544 C559 1.259 . S
O545 Tb540 2.374 . S
O545 C541 1.251 . S
C546 O550 1.275 . S
C546 O551 1.246 . S
O547 C541 1.263 . S
O547 Tb542 2.353 . S
C548 O552 1.245 . S
C548 O553 1.259 . S
C549 O554 1.250 . S
C549 O555 1.263 . S
O550 Tb542 2.427 . S
O550 C546 1.275 . S
O551 Tb542 2.513 . S
O551 C546 1.246 . S
O552 Tb542 2.453 . S
O552 C548 1.245 . S
O553 Tb540 2.343 . S
O553 Tb542 2.596 . S
O553 C548 1.259 . S
O554 Tb542 2.374 . S
O554 C549 1.250 . S
O555 Tb540 2.353 . S
O555 C549 1.263 . S
C556 O557 1.275 . S
C556 O558 1.246 . S
O557 Tb540 2.427 . S
O557 C556 1.275 . S
O558 Tb540 2.513 . S
O558 C556 1.246 . S
C559 O543 1.245 . S
C559 O544 1.259 . S
Tb560 O563 2.453 . S
Tb560 O564 2.596 . S
Tb560 O565 2.374 . S
Tb560 O573 2.343 . S
Tb560 O575 2.353 . S
Tb560 O577 2.427 . S
Tb560 O578 2.513 . S
C561 O565 1.251 . S
C561 O567 1.263 . S
Tb562 O564 2.343 . S
Tb562 O567 2.353 . S
Tb562 O570 2.427 . S
Tb562 O571 2.513 . S
Tb562 O572 2.453 . S
Tb562 O573 2.596 . S
Tb562 O574 2.374 . S
O563 Tb560 2.453 . S
O563 C579 1.245 . S
O564 Tb560 2.596 . S
O564 Tb562 2.343 . S
O564 C579 1.259 . S
O565 Tb560 2.374 . S
O565 C561 1.251 . S
C566 O570 1.275 . S
C566 O571 1.246 . S
O567 C561 1.263 . S
O567 Tb562 2.353 . S
C568 O572 1.245 . S
C568 O573 1.259 . S
C569 O574 1.250 . S
C569 O575 1.263 . S
O570 Tb562 2.427 . S
O570 C566 1.275 . S
O571 Tb562 2.513 . S
O571 C566 1.246 . S
O572 Tb562 2.453 . S
O572 C568 1.245 . S
O573 Tb560 2.343 . S
O573 Tb562 2.596 . S
O573 C568 1.259 . S
O574 Tb562 2.374 . S
O574 C569 1.250 . S
O575 Tb560 2.353 . S
O575 C569 1.263 . S
C576 O577 1.275 1_556 S
C576 O578 1.246 1_556 S
O577 Tb560 2.427 . S
O577 C576 1.275 1_554 S
O578 Tb560 2.513 . S
O578 C576 1.246 1_554 S
C579 O563 1.245 . S
C579 O564 1.259 . S
Tb580 O583 2.453 . S
Tb580 O584 2.596 . S
Tb580 O585 2.374 . S
Tb580 O593 2.343 . S
Tb580 O595 2.353 . S
Tb580 O597 2.427 1_556 S
Tb580 O598 2.513 1_556 S
C581 O585 1.251 . S
C581 O587 1.263 . S
Tb582 O584 2.343 . S
Tb582 O587 2.353 . S
Tb582 O590 2.427 . S
Tb582 O591 2.513 . S
Tb582 O592 2.453 . S
Tb582 O593 2.596 . S
Tb582 O594 2.374 . S
O583 Tb580 2.453 . S
O583 C599 1.245 . S
O584 Tb580 2.596 . S
O584 Tb582 2.343 . S
O584 C599 1.259 . S
O585 Tb580 2.374 . S
O585 C581 1.251 . S
C586 O590 1.275 . S
C586 O591 1.246 . S
O587 C581 1.263 . S
O587 Tb582 2.353 . S
C588 O592 1.245 . S
C588 O593 1.259 . S
C589 O594 1.250 . S
C589 O595 1.263 . S
O590 Tb582 2.427 . S
O590 C586 1.275 . S
O591 Tb582 2.513 . S
O591 C586 1.246 . S
O592 Tb582 2.453 . S
O592 C588 1.245 . S
O593 Tb580 2.343 . S
O593 Tb582 2.596 . S
O593 C588 1.259 . S
O594 Tb582 2.374 . S
O594 C589 1.250 . S
O595 Tb580 2.353 . S
O595 C589 1.263 . S
C596 O597 1.275 . S
C596 O598 1.246 . S
O597 Tb580 2.427 1_554 S
O597 C596 1.275 . S
O598 Tb580 2.513 1_554 S
O598 C596 1.246 . S
C599 O583 1.245 . S
C599 O584 1.259 . S
Tb600 O603 2.453 . S
Tb600 O604 2.596 . S
Tb600 O605 2.374 . S
Tb600 O613 2.343 . S
Tb600 O615 2.353 . S
Tb600 O617 2.427 . S
Tb600 O618 2.513 . S
C601 O605 1.251 . S
C601 O607 1.263 . S
Tb602 O604 2.343 . S
Tb602 O607 2.353 . S
Tb602 O610 2.427 . S
Tb602 O611 2.513 . S
Tb602 O612 2.453 . S
Tb602 O613 2.596 . S
Tb602 O614 2.374 . S
O603 Tb600 2.453 . S
O603 C619 1.245 . S
O604 Tb600 2.596 . S
O604 Tb602 2.343 . S
O604 C619 1.259 . S
O605 Tb600 2.374 . S
O605 C601 1.251 . S
C606 O610 1.275 . S
C606 O611 1.246 . S
O607 C601 1.263 . S
O607 Tb602 2.353 . S
C608 O612 1.245 . S
C608 O613 1.259 . S
C609 O614 1.250 . S
C609 O615 1.263 . S
O610 Tb602 2.427 . S
O610 C606 1.275 . S
O611 Tb602 2.513 . S
O611 C606 1.246 . S
O612 Tb602 2.453 . S
O612 C608 1.245 . S
O613 Tb600 2.343 . S
O613 Tb602 2.596 . S
O613 C608 1.259 . S
O614 Tb602 2.374 . S
O614 C609 1.250 . S
O615 Tb600 2.353 . S
O615 C609 1.263 . S
C616 O617 1.275 . S
C616 O618 1.246 . S
O617 Tb600 2.427 . S
O617 C616 1.275 . S
O618 Tb600 2.513 . S
O618 C616 1.246 . S
C619 O603 1.245 . S
C619 O604 1.259 . S
Tb620 O623 2.453 . S
Tb620 O624 2.596 . S
Tb620 O625 2.374 . S
Tb620 O633 2.343 . S
Tb620 O635 2.353 . S
Tb620 O637 2.427 . S
Tb620 O638 2.513 . S
C621 O625 1.251 . S
C621 O627 1.263 . S
Tb622 O624 2.343 . S
Tb622 O627 2.353 . S
Tb622 O630 2.427 . S
Tb622 O631 2.513 . S
Tb622 O632 2.453 . S
Tb622 O633 2.596 . S
Tb622 O634 2.374 . S
O623 Tb620 2.453 . S
O623 C639 1.245 . S
O624 Tb620 2.596 . S
O624 Tb622 2.343 . S
O624 C639 1.259 . S
O625 Tb620 2.374 . S
O625 C621 1.251 . S
C626 O630 1.275 . S
C626 O631 1.246 . S
O627 C621 1.263 . S
O627 Tb622 2.353 . S
C628 O632 1.245 . S
C628 O633 1.259 . S
C629 O634 1.250 . S
C629 O635 1.263 . S
O630 Tb622 2.427 . S
O630 C626 1.275 . S
O631 Tb622 2.513 . S
O631 C626 1.246 . S
O632 Tb622 2.453 . S
O632 C628 1.245 . S
O633 Tb620 2.343 . S
O633 Tb622 2.596 . S
O633 C628 1.259 . S
O634 Tb622 2.374 . S
O634 C629 1.250 . S
O635 Tb620 2.353 . S
O635 C629 1.263 . S
C636 O637 1.275 . S
C636 O638 1.246 . S
O637 Tb620 2.427 . S
O637 C636 1.275 . S
O638 Tb620 2.513 . S
O638 C636 1.246 . S
C639 O623 1.245 . S
C639 O624 1.259 . S
H640 C646 0.930 . S
H641 C650 0.930 . S
H642 C655 0.929 . S
H643 C653 0.929 . S
H644 C648 0.929 . S
H645 C654 0.929 . S
C646 H640 0.930 . S
C646 C647 1.367 . S
C646 C654 1.378 . S
C647 C646 1.367 . S
C647 C655 1.433 . S
C648 H644 0.929 . S
C648 C650 1.378 . S
C648 C652 1.350 . S
C649 C652 1.463 . S
C649 C654 1.350 . S
C649 N657 1.427 . S
C650 H641 0.930 . S
C650 C648 1.378 . S
C650 C651 1.367 . S
C651 C650 1.367 . S
C651 C653 1.433 . S
C652 C648 1.350 . S
C652 C649 1.463 . S
C652 N656 1.427 . S
C653 H643 0.929 . S
C653 C651 1.433 . S
C653 N656 1.384 . S
C654 H645 0.929 . S
C654 C646 1.378 . S
C654 C649 1.350 . S
C655 H642 0.929 . S
C655 C647 1.433 . S
C655 N657 1.384 . S
N656 C652 1.427 . S
N656 C653 1.384 . S
N657 C649 1.427 . S
N657 C655 1.384 . S
H658 C664 0.930 . S
H659 C668 0.930 . S
H660 C673 0.929 . S
H661 C671 0.929 . S
H662 C666 0.929 . S
H663 C672 0.929 . S
C664 H658 0.930 . S
C664 C665 1.367 . S
C664 C672 1.378 . S
C665 C664 1.367 . S
C665 C673 1.433 . S
C666 H662 0.929 . S
C666 C668 1.378 . S
C666 C670 1.350 . S
C667 C670 1.463 . S
C667 C672 1.350 . S
C667 N675 1.427 . S
C668 H659 0.930 . S
C668 C666 1.378 . S
C668 C669 1.367 . S
C669 C668 1.367 . S
C669 C671 1.433 . S
C670 C666 1.350 . S
C670 C667 1.463 . S
C670 N674 1.427 . S
C671 H661 0.929 . S
C671 C669 1.433 . S
C671 N674 1.384 . S
C672 H663 0.929 . S
C672 C664 1.378 . S
C672 C667 1.350 . S
C673 H660 0.929 . S
C673 C665 1.433 . S
C673 N675 1.384 . S
N674 C670 1.427 . S
N674 C671 1.384 . S
N675 C667 1.427 . S
N675 C673 1.384 . S
H676 C682 0.930 . S
H677 C686 0.930 . S
H678 C691 0.929 . S
H679 C689 0.929 . S
H680 C684 0.929 . S
H681 C690 0.929 . S
C682 H676 0.930 . S
C682 C683 1.367 . S
C682 C690 1.378 . S
C683 C682 1.367 . S
C683 C691 1.433 . S
C684 H680 0.929 . S
C684 C686 1.378 . S
C684 C688 1.350 . S
C685 C688 1.463 . S
C685 C690 1.350 . S
C685 N693 1.427 . S
C686 H677 0.930 . S
C686 C684 1.378 . S
C686 C687 1.367 . S
C687 C686 1.367 . S
C687 C689 1.433 . S
C688 C684 1.350 . S
C688 C685 1.463 . S
C688 N692 1.427 . S
C689 H679 0.929 . S
C689 C687 1.433 . S
C689 N692 1.384 . S
C690 H681 0.929 . S
C690 C682 1.378 . S
C690 C685 1.350 . S
C691 H678 0.929 . S
C691 C683 1.433 . S
C691 N693 1.384 . S
N692 C688 1.427 . S
N692 C689 1.384 . S
N693 C685 1.427 . S
N693 C691 1.384 . S
H694 C700 0.930 . S
H695 C704 0.930 . S
H696 C709 0.929 . S
H697 C707 0.929 . S
H698 C702 0.929 . S
H699 C708 0.929 . S
C700 H694 0.930 . S
C700 C701 1.367 . S
C700 C708 1.378 . S
C701 C700 1.367 . S
C701 C709 1.433 . S
C702 H698 0.929 . S
C702 C704 1.378 . S
C702 C706 1.350 . S
C703 C706 1.463 . S
C703 C708 1.350 . S
C703 N711 1.427 . S
C704 H695 0.930 . S
C704 C702 1.378 . S
C704 C705 1.367 . S
C705 C704 1.367 . S
C705 C707 1.433 . S
C706 C702 1.350 . S
C706 C703 1.463 . S
C706 N710 1.427 . S
C707 H697 0.929 . S
C707 C705 1.433 . S
C707 N710 1.384 . S
C708 H699 0.929 . S
C708 C700 1.378 . S
C708 C703 1.350 . S
C709 H696 0.929 . S
C709 C701 1.433 . S
C709 N711 1.384 . S
N710 C706 1.427 . S
N710 C707 1.384 . S
N711 C703 1.427 . S
N711 C709 1.384 . S
H712 C718 0.930 . S
H713 C722 0.930 . S
H714 C727 0.929 . S
H715 C725 0.929 . S
H716 C720 0.929 . S
H717 C726 0.929 . S
C718 H712 0.930 . S
C718 C719 1.367 . S
C718 C726 1.378 . S
C719 C718 1.367 . S
C719 C727 1.433 . S
C720 H716 0.929 . S
C720 C722 1.378 . S
C720 C724 1.350 . S
C721 C724 1.463 . S
C721 C726 1.350 . S
C721 N729 1.427 . S
C722 H713 0.930 . S
C722 C720 1.378 . S
C722 C723 1.367 . S
C723 C722 1.367 . S
C723 C725 1.433 . S
C724 C720 1.350 . S
C724 C721 1.463 . S
C724 N728 1.427 . S
C725 H715 0.929 . S
C725 C723 1.433 . S
C725 N728 1.384 . S
C726 H717 0.929 . S
C726 C718 1.378 . S
C726 C721 1.350 . S
C727 H714 0.929 . S
C727 C719 1.433 . S
C727 N729 1.384 . S
N728 C724 1.427 . S
N728 C725 1.384 . S
N729 C721 1.427 . S
N729 C727 1.384 . S
H730 C736 0.930 . S
H731 C740 0.930 . S
H732 C745 0.929 . S
H733 C743 0.929 . S
H734 C738 0.929 . S
H735 C744 0.929 . S
C736 H730 0.930 . S
C736 C737 1.367 . S
C736 C744 1.378 . S
C737 C736 1.367 . S
C737 C745 1.433 . S
C738 H734 0.929 . S
C738 C740 1.378 . S
C738 C742 1.350 . S
C739 C742 1.463 . S
C739 C744 1.350 . S
C739 N747 1.427 . S
C740 H731 0.930 . S
C740 C738 1.378 . S
C740 C741 1.367 . S
C741 C740 1.367 . S
C741 C743 1.433 . S
C742 C738 1.350 . S
C742 C739 1.463 . S
C742 N746 1.427 . S
C743 H733 0.929 . S
C743 C741 1.433 . S
C743 N746 1.384 . S
C744 H735 0.929 . S
C744 C736 1.378 . S
C744 C739 1.350 . S
C745 H732 0.929 . S
C745 C737 1.433 . S
C745 N747 1.384 . S
N746 C742 1.427 . S
N746 C743 1.384 . S
N747 C739 1.427 . S
N747 C745 1.384 . S
H748 C754 0.930 . S
H749 C758 0.930 . S
H750 C763 0.929 . S
H751 C761 0.929 . S
H752 C756 0.929 . S
H753 C762 0.929 . S
C754 H748 0.930 . S
C754 C755 1.367 . S
C754 C762 1.378 . S
C755 C754 1.367 . S
C755 C763 1.433 . S
C756 H752 0.929 . S
C756 C758 1.378 . S
C756 C760 1.350 . S
C757 C760 1.463 . S
C757 C762 1.350 . S
C757 N765 1.427 . S
C758 H749 0.930 . S
C758 C756 1.378 . S
C758 C759 1.367 . S
C759 C758 1.367 . S
C759 C761 1.433 . S
C760 C756 1.350 . S
C760 C757 1.463 . S
C760 N764 1.427 . S
C761 H751 0.929 . S
C761 C759 1.433 . S
C761 N764 1.384 . S
C762 H753 0.929 . S
C762 C754 1.378 . S
C762 C757 1.350 . S
C763 H750 0.929 . S
C763 C755 1.433 . S
C763 N765 1.384 . S
N764 C760 1.427 . S
N764 C761 1.384 . S
N765 C757 1.427 . S
N765 C763 1.384 . S
H766 C772 0.930 . S
H767 C776 0.930 . S
H768 C781 0.929 . S
H769 C779 0.917 1_556 S
H770 C774 0.929 . S
H771 C780 0.929 . S
C772 H766 0.930 . S
C772 C773 1.367 . S
C772 C780 1.378 . S
C773 C772 1.367 . S
C773 C781 1.433 . S
C774 H770 0.929 . S
C774 C776 1.378 . S
C774 C778 1.350 . S
C775 C778 1.463 . S
C775 C780 1.350 . S
C775 N783 1.427 . S
C776 H767 0.930 . S
C776 C774 1.378 . S
C776 C777 1.367 . S
C777 C776 1.367 . S
C777 C779 1.433 . S
C778 C774 1.350 . S
C778 C775 1.463 . S
C778 N782 1.427 . S
C779 H769 0.917 1_554 S
C779 C777 1.433 . S
C779 N782 1.384 . S
C780 H771 0.929 . S
C780 C772 1.378 . S
C780 C775 1.350 . S
C781 H768 0.929 . S
C781 C773 1.433 . S
C781 N783 1.384 . S
N782 C778 1.427 . S
N782 C779 1.384 . S
N783 C775 1.427 . S
N783 C781 1.384 . S
H784 C790 0.930 . S
H785 C794 0.930 . S
H786 C799 0.929 . S
H787 C797 0.929 . S
H788 C792 0.929 . S
H789 C798 0.929 . S
C790 H784 0.930 . S
C790 C791 1.367 . S
C790 C798 1.378 . S
C791 C790 1.367 . S
C791 C799 1.433 . S
C792 H788 0.929 . S
C792 C794 1.378 . S
C792 C796 1.350 . S
C793 C796 1.463 1_545 S
C793 C798 1.350 . S
C793 N801 1.427 . S
C794 H785 0.930 . S
C794 C792 1.378 . S
C794 C795 1.367 . S
C795 C794 1.367 . S
C795 C797 1.433 . S
C796 C792 1.350 . S
C796 C793 1.463 1_565 S
C796 N800 1.427 . S
C797 H787 0.929 . S
C797 C795 1.433 . S
C797 N800 1.384 . S
C798 H789 0.929 . S
C798 C790 1.378 . S
C798 C793 1.350 . S
C799 H786 0.929 . S
C799 C791 1.433 . S
C799 N801 1.384 . S
N800 C796 1.427 . S
N800 C797 1.384 . S
N801 C793 1.427 . S
N801 C799 1.384 . S
H802 C808 0.930 . S
H803 C812 0.930 . S
H804 C817 0.929 . S
H805 C815 0.929 . S
H806 C810 0.929 . S
H807 C816 0.929 . S
C808 H802 0.930 . S
C808 C809 1.367 . S
C808 C816 1.378 . S
C809 C808 1.367 . S
C809 C817 1.433 . S
C810 H806 0.929 . S
C810 C812 1.378 . S
C810 C814 1.350 . S
C811 C814 1.463 . S
C811 C816 1.350 . S
C811 N819 1.427 . S
C812 H803 0.930 . S
C812 C810 1.378 . S
C812 C813 1.367 . S
C813 C812 1.367 . S
C813 C815 1.433 . S
C814 C810 1.350 . S
C814 C811 1.463 . S
C814 N818 1.427 . S
C815 H805 0.929 . S
C815 C813 1.433 . S
C815 N818 1.384 . S
C816 H807 0.929 . S
C816 C808 1.378 . S
C816 C811 1.350 . S
C817 H804 0.929 . S
C817 C809 1.433 . S
C817 N819 1.384 . S
N818 C814 1.427 . S
N818 C815 1.384 . S
N819 C811 1.427 . S
N819 C817 1.384 . S
H820 C826 0.930 . S
H821 C830 0.930 . S
H822 C835 0.929 . S
H823 C833 0.929 . S
H824 C828 0.929 . S
H825 C834 0.929 . S
C826 H820 0.930 . S
C826 C827 1.367 . S
C826 C834 1.378 . S
C827 C826 1.367 . S
C827 C835 1.433 . S
C828 H824 0.929 . S
C828 C830 1.378 . S
C828 C832 1.350 . S
C829 C832 1.463 1_545 S
C829 C834 1.350 . S
C829 N837 1.427 . S
C830 H821 0.930 . S
C830 C828 1.378 . S
C830 C831 1.367 . S
C831 C830 1.367 . S
C831 C833 1.433 . S
C832 C828 1.350 . S
C832 C829 1.463 1_565 S
C832 N836 1.427 . S
C833 H823 0.929 . S
C833 C831 1.433 . S
C833 N836 1.384 . S
C834 H825 0.929 . S
C834 C826 1.378 . S
C834 C829 1.350 . S
C835 H822 0.929 . S
C835 C827 1.433 . S
C835 N837 1.384 . S
N836 C832 1.427 . S
N836 C833 1.384 . S
N837 C829 1.427 . S
N837 C835 1.384 . S
H838 C844 0.930 . S
H839 C848 0.930 . S
H840 C853 0.929 . S
H841 C851 0.929 . S
H842 C846 0.929 . S
H843 C852 0.929 . S
C844 H838 0.930 . S
C844 C845 1.367 . S
C844 C852 1.378 . S
C845 C844 1.367 . S
C845 C853 1.433 . S
C846 H842 0.929 . S
C846 C848 1.378 . S
C846 C850 1.350 . S
C847 C850 1.463 . S
C847 C852 1.350 . S
C847 N855 1.427 . S
C848 H839 0.930 . S
C848 C846 1.378 . S
C848 C849 1.367 . S
C849 C848 1.367 . S
C849 C851 1.433 . S
C850 C846 1.350 . S
C850 C847 1.463 . S
C850 N854 1.427 . S
C851 H841 0.929 . S
C851 C849 1.433 . S
C851 N854 1.384 . S
C852 H843 0.929 . S
C852 C844 1.378 . S
C852 C847 1.350 . S
C853 H840 0.929 . S
C853 C845 1.433 . S
C853 N855 1.384 . S
N854 C850 1.427 . S
N854 C851 1.384 . S
N855 C847 1.427 . S
N855 C853 1.384 . S
H856 C862 0.930 . S
H857 C866 0.930 . S
H858 C871 0.929 . S
H859 C869 0.929 . S
H860 C864 0.929 1_545 S
H861 C870 0.929 1_565 S
C862 H856 0.930 . S
C862 C863 1.367 . S
C862 C870 1.378 . S
C863 C862 1.367 . S
C863 C871 1.433 . S
C864 H860 0.929 1_565 S
C864 C866 1.378 . S
C864 C868 1.350 . S
C865 C868 1.463 1_545 S
C865 C870 1.350 . S
C865 N873 1.427 . S
C866 H857 0.930 . S
C866 C864 1.378 . S
C866 C867 1.367 . S
C867 C866 1.367 . S
C867 C869 1.433 . S
C868 C864 1.350 . S
C868 C865 1.463 1_565 S
C868 N872 1.427 . S
C869 H859 0.929 . S
C869 C867 1.433 . S
C869 N872 1.384 . S
C870 H861 0.929 1_545 S
C870 C862 1.378 . S
C870 C865 1.350 . S
C871 H858 0.929 . S
C871 C863 1.433 . S
C871 N873 1.384 . S
N872 C868 1.427 . S
N872 C869 1.384 . S
N873 C865 1.427 . S
N873 C871 1.384 . S
H874 C880 0.930 . S
H875 C884 0.930 . S
H876 C889 0.929 1_556 S
H877 C887 0.929 . S
H878 C882 0.929 . S
H879 C888 0.929 . S
C880 H874 0.930 . S
C880 C881 1.367 . S
C880 C888 1.378 . S
C881 C880 1.367 . S
C881 C889 1.433 . S
C882 H878 0.929 . S
C882 C884 1.378 . S
C882 C886 1.350 . S
C883 C886 1.463 . S
C883 C888 1.350 . S
C883 N891 1.427 . S
C884 H875 0.930 . S
C884 C882 1.378 . S
C884 C885 1.367 . S
C885 C884 1.367 . S
C885 C887 1.433 . S
C886 C882 1.350 . S
C886 C883 1.463 . S
C886 N890 1.427 . S
C887 H877 0.929 . S
C887 C885 1.433 . S
C887 N890 1.384 . S
C888 H879 0.929 . S
C888 C880 1.378 . S
C888 C883 1.350 . S
C889 H876 0.929 1_554 S
C889 C881 1.433 . S
C889 N891 1.384 . S
N890 C886 1.427 . S
N890 C887 1.384 . S
N891 C883 1.427 . S
N891 C889 1.384 . S
H892 C898 0.930 . S
H893 C902 0.930 . S
H894 C907 0.926 . S
H895 C905 0.927 . S
H896 C900 0.929 . S
H897 C906 0.929 . S
C898 H892 0.930 . S
C898 C899 1.367 . S
C898 C906 1.378 . S
C899 C898 1.367 . S
C899 C907 1.433 . S
C900 H896 0.929 . S
C900 C902 1.378 . S
C900 C904 1.350 . S
C901 C904 1.463 1_565 S
C901 C906 1.350 . S
C901 N909 1.427 1_565 S
C902 H893 0.930 . S
C902 C900 1.378 . S
C902 C903 1.367 . S
C903 C902 1.367 . S
C903 C905 1.433 . S
C904 C900 1.350 . S
C904 C901 1.463 1_545 S
C904 N908 1.427 1_545 S
C905 H895 0.927 . S
C905 C903 1.433 . S
C905 N908 1.384 1_545 S
C906 H897 0.929 . S
C906 C898 1.378 . S
C906 C901 1.350 . S
C907 H894 0.926 . S
C907 C899 1.433 . S
C907 N909 1.384 1_565 S
N908 C904 1.427 1_565 S
N908 C905 1.384 1_565 S
N909 C901 1.427 1_545 S
N909 C907 1.384 1_545 S
H910 C916 0.930 . S
H911 C920 0.930 . S
H912 C925 0.929 . S
H913 C923 0.929 . S
H914 C918 0.929 . S
H915 C924 0.929 . S
C916 H910 0.930 . S
C916 C917 1.367 . S
C916 C924 1.378 . S
C917 C916 1.367 . S
C917 C925 1.433 . S
C918 H914 0.929 . S
C918 C920 1.378 . S
C918 C922 1.350 . S
C919 C922 1.463 . S
C919 C924 1.350 . S
C919 N927 1.427 . S
C920 H911 0.930 . S
C920 C918 1.378 . S
C920 C921 1.367 . S
C921 C920 1.367 . S
C921 C923 1.433 . S
C922 C918 1.350 . S
C922 C919 1.463 . S
C922 N926 1.427 . S
C923 H913 0.929 . S
C923 C921 1.433 . S
C923 N926 1.384 . S
C924 H915 0.929 . S
C924 C916 1.378 . S
C924 C919 1.350 . S
C925 H912 0.929 . S
C925 C917 1.433 . S
C925 N927 1.384 . S
N926 C922 1.427 . S
N926 C923 1.384 . S
N927 C919 1.427 . S
N927 C925 1.384 . S
H928 C934 0.930 . S
H929 C938 0.930 . S
H930 C943 0.929 . S
H931 C941 0.929 . S
H932 C936 0.929 . S
H933 C942 0.929 . S
C934 H928 0.930 . S
C934 C935 1.367 . S
C934 C942 1.378 . S
C935 C934 1.367 . S
C935 C943 1.433 . S
C936 H932 0.929 . S
C936 C938 1.378 . S
C936 C940 1.350 . S
C937 C940 1.463 . S
C937 C942 1.350 . S
C937 N945 1.427 . S
C938 H929 0.930 . S
C938 C936 1.378 . S
C938 C939 1.367 . S
C939 C938 1.367 . S
C939 C941 1.433 . S
C940 C936 1.350 . S
C940 C937 1.463 . S
C940 N944 1.427 . S
C941 H931 0.929 . S
C941 C939 1.433 . S
C941 N944 1.384 . S
C942 H933 0.929 . S
C942 C934 1.378 . S
C942 C937 1.350 . S
C943 H930 0.929 . S
C943 C935 1.433 . S
C943 N945 1.384 . S
N944 C940 1.427 . S
N944 C941 1.384 . S
N945 C937 1.427 . S
N945 C943 1.384 . S
H946 C952 0.930 . S
H947 C956 0.930 . S
H948 C961 0.929 . S
H949 C959 0.929 . S
H950 C954 0.929 . S
H951 C960 0.929 . S
C952 H946 0.930 . S
C952 C953 1.367 . S
C952 C960 1.378 . S
C953 C952 1.367 . S
C953 C961 1.433 . S
C954 H950 0.929 . S
C954 C956 1.378 . S
C954 C958 1.350 . S
C955 C958 1.463 . S
C955 C960 1.350 . S
C955 N963 1.427 . S
C956 H947 0.930 . S
C956 C954 1.378 . S
C956 C957 1.367 . S
C957 C956 1.367 . S
C957 C959 1.433 . S
C958 C954 1.350 . S
C958 C955 1.463 . S
C958 N962 1.427 . S
C959 H949 0.929 . S
C959 C957 1.433 . S
C959 N962 1.384 . S
C960 H951 0.929 . S
C960 C952 1.378 . S
C960 C955 1.350 . S
C961 H948 0.929 . S
C961 C953 1.433 . S
C961 N963 1.384 . S
N962 C958 1.427 . S
N962 C959 1.384 . S
N963 C955 1.427 . S
N963 C961 1.384 . S
H964 C970 0.930 . S
H965 C974 0.930 . S
H966 C979 0.929 . S
H967 C977 0.929 . S
H968 C972 0.929 . S
H969 C978 0.929 . S
C970 H964 0.930 . S
C970 C971 1.367 . S
C970 C978 1.378 . S
C971 C970 1.367 . S
C971 C979 1.433 . S
C972 H968 0.929 . S
C972 C974 1.378 . S
C972 C976 1.350 . S
C973 C976 1.463 . S
C973 C978 1.350 . S
C973 N981 1.427 . S
C974 H965 0.930 . S
C974 C972 1.378 . S
C974 C975 1.367 . S
C975 C974 1.367 . S
C975 C977 1.433 . S
C976 C972 1.350 . S
C976 C973 1.463 . S
C976 N980 1.427 . S
C977 H967 0.929 . S
C977 C975 1.433 . S
C977 N980 1.384 . S
C978 H969 0.929 . S
C978 C970 1.378 . S
C978 C973 1.350 . S
C979 H966 0.929 . S
C979 C971 1.433 . S
C979 N981 1.384 . S
N980 C976 1.427 . S
N980 C977 1.384 . S
N981 C973 1.427 . S
N981 C979 1.384 . S
H982 C988 0.941 . S
H983 C992 0.930 . S
H984 C997 0.929 . S
H985 C995 0.929 . S
H986 C990 0.929 1_556 S
H987 C996 0.929 . S
C988 H982 0.941 . S
C988 C989 1.346 1_554 S
C988 C996 1.388 . S
C989 C988 1.346 1_556 S
C989 C997 1.433 . S
C990 H986 0.929 1_554 S
C990 C992 1.378 . S
C990 C994 1.350 . S
C991 C994 1.463 . S
C991 C996 1.350 . S
C991 N999 1.427 1_554 S
C992 H983 0.930 . S
C992 C990 1.378 . S
C992 C993 1.367 . S
C993 C992 1.367 . S
C993 C995 1.433 . S
C994 C990 1.350 . S
C994 C991 1.463 . S
C994 N998 1.427 . S
C995 H985 0.929 . S
C995 C993 1.433 . S
C995 N998 1.384 . S
C996 H987 0.929 . S
C996 C988 1.388 . S
C996 C991 1.350 . S
C997 H984 0.929 . S
C997 C989 1.433 . S
C997 N999 1.384 . S
N998 C994 1.427 . S
N998 C995 1.384 . S
N999 C991 1.427 1_556 S
N999 C997 1.384 . S
H1000 C1006 0.930 . S
H1001 C1010 0.930 . S
H1002 C1015 0.929 . S
H1003 C1013 0.929 . S
H1004 C1008 0.929 . S
H1005 C1014 0.929 . S
C1006 H1000 0.930 . S
C1006 C1007 1.367 . S
C1006 C1014 1.378 . S
C1007 C1006 1.367 . S
C1007 C1015 1.433 . S
C1008 H1004 0.929 . S
C1008 C1010 1.378 . S
C1008 C1012 1.350 . S
C1009 C1012 1.463 . S
C1009 C1014 1.350 . S
C1009 N1017 1.427 . S
C1010 H1001 0.930 . S
C1010 C1008 1.378 . S
C1010 C1011 1.367 . S
C1011 C1010 1.367 . S
C1011 C1013 1.433 . S
C1012 C1008 1.350 . S
C1012 C1009 1.463 . S
C1012 N1016 1.427 . S
C1013 H1003 0.929 . S
C1013 C1011 1.433 . S
C1013 N1016 1.384 . S
C1014 H1005 0.929 . S
C1014 C1006 1.378 . S
C1014 C1009 1.350 . S
C1015 H1002 0.929 . S
C1015 C1007 1.433 . S
C1015 N1017 1.384 . S
N1016 C1012 1.427 . S
N1016 C1013 1.384 . S
N1017 C1009 1.427 . S
N1017 C1015 1.384 . S
H1018 C1024 0.930 . S
H1019 C1028 0.930 . S
H1020 C1033 0.929 . S
H1021 C1031 0.929 . S
H1022 C1026 0.929 . S
H1023 C1032 0.929 . S
C1024 H1018 0.930 . S
C1024 C1025 1.367 . S
C1024 C1032 1.378 . S
C1025 C1024 1.367 . S
C1025 C1033 1.433 . S
C1026 H1022 0.929 . S
C1026 C1028 1.378 . S
C1026 C1030 1.350 . S
C1027 C1030 1.463 . S
C1027 C1032 1.350 . S
C1027 N1035 1.427 . S
C1028 H1019 0.930 . S
C1028 C1026 1.378 . S
C1028 C1029 1.367 . S
C1029 C1028 1.367 . S
C1029 C1031 1.433 . S
C1030 C1026 1.350 . S
C1030 C1027 1.463 . S
C1030 N1034 1.427 . S
C1031 H1021 0.929 . S
C1031 C1029 1.433 . S
C1031 N1034 1.384 . S
C1032 H1023 0.929 . S
C1032 C1024 1.378 . S
C1032 C1027 1.350 . S
C1033 H1020 0.929 . S
C1033 C1025 1.433 . S
C1033 N1035 1.384 . S
N1034 C1030 1.427 . S
N1034 C1031 1.384 . S
N1035 C1027 1.427 . S
N1035 C1033 1.384 . S
H1036 C1042 0.923 1_556 S
H1037 C1046 0.930 . S
H1038 C1051 0.929 . S
H1039 C1049 0.929 . S
H1040 C1044 0.929 1_554 S
H1041 C1050 0.929 . S
C1042 H1036 0.923 1_554 S
C1042 C1043 1.386 . S
C1042 C1050 1.367 1_554 S
C1043 C1042 1.386 . S
C1043 C1051 1.433 . S
C1044 H1040 0.929 1_556 S
C1044 C1046 1.378 . S
C1044 C1048 1.350 . S
C1045 C1048 1.463 . S
C1045 C1050 1.350 . S
C1045 N1053 1.427 1_556 S
C1046 H1037 0.930 . S
C1046 C1044 1.378 . S
C1046 C1047 1.367 . S
C1047 C1046 1.367 . S
C1047 C1049 1.433 . S
C1048 C1044 1.350 . S
C1048 C1045 1.463 . S
C1048 N1052 1.427 . S
C1049 H1039 0.929 . S
C1049 C1047 1.433 . S
C1049 N1052 1.384 . S
C1050 H1041 0.929 . S
C1050 C1042 1.367 1_556 S
C1050 C1045 1.350 . S
C1051 H1038 0.929 . S
C1051 C1043 1.433 . S
C1051 N1053 1.384 . S
N1052 C1048 1.427 . S
N1052 C1049 1.384 . S
N1053 C1045 1.427 1_554 S
N1053 C1051 1.384 . S
H1054 C1060 0.930 . S
H1055 C1064 0.930 . S
H1056 C1069 0.929 . S
H1057 C1067 0.929 . S
H1058 C1062 0.929 . S
H1059 C1068 0.929 . S
C1060 H1054 0.930 . S
C1060 C1061 1.367 . S
C1060 C1068 1.378 . S
C1061 C1060 1.367 . S
C1061 C1069 1.433 . S
C1062 H1058 0.929 . S
C1062 C1064 1.378 . S
C1062 C1066 1.350 . S
C1063 C1066 1.463 . S
C1063 C1068 1.350 . S
C1063 N1071 1.427 . S
C1064 H1055 0.930 . S
C1064 C1062 1.378 . S
C1064 C1065 1.367 . S
C1065 C1064 1.367 . S
C1065 C1067 1.433 . S
C1066 C1062 1.350 . S
C1066 C1063 1.463 . S
C1066 N1070 1.427 . S
C1067 H1057 0.929 . S
C1067 C1065 1.433 . S
C1067 N1070 1.384 . S
C1068 H1059 0.929 . S
C1068 C1060 1.378 . S
C1068 C1063 1.350 . S
C1069 H1056 0.929 . S
C1069 C1061 1.433 . S
C1069 N1071 1.384 . S
N1070 C1066 1.427 . S
N1070 C1067 1.384 . S
N1071 C1063 1.427 . S
N1071 C1069 1.384 . S
H1072 C1078 0.930 . S
H1073 C1082 0.930 . S
H1074 C1087 0.929 . S
H1075 C1085 0.929 . S
H1076 C1080 0.929 . S
H1077 C1086 0.929 . S
C1078 H1072 0.930 . S
C1078 C1079 1.367 . S
C1078 C1086 1.378 . S
C1079 C1078 1.367 . S
C1079 C1087 1.433 . S
C1080 H1076 0.929 . S
C1080 C1082 1.378 . S
C1080 C1084 1.350 1_556 S
C1081 C1084 1.463 . S
C1081 C1086 1.350 . S
C1081 N1089 1.427 . S
C1082 H1073 0.930 . S
C1082 C1080 1.378 . S
C1082 C1083 1.367 . S
C1083 C1082 1.367 . S
C1083 C1085 1.433 1_556 S
C1084 C1080 1.350 1_554 S
C1084 C1081 1.463 . S
C1084 N1088 1.427 . S
C1085 H1075 0.929 . S
C1085 C1083 1.433 1_554 S
C1085 N1088 1.384 . S
C1086 H1077 0.929 . S
C1086 C1078 1.378 . S
C1086 C1081 1.350 . S
C1087 H1074 0.929 . S
C1087 C1079 1.433 . S
C1087 N1089 1.384 . S
N1088 C1084 1.427 . S
N1088 C1085 1.384 . S
N1089 C1081 1.427 . S
N1089 C1087 1.384 . S
H1090 C1096 0.930 . S
H1091 C1100 0.930 . S
H1092 C1105 0.929 . S
H1093 C1103 0.929 . S
H1094 C1098 0.929 . S
H1095 C1104 0.929 . S
C1096 H1090 0.930 . S
C1096 C1097 1.367 . S
C1096 C1104 1.378 . S
C1097 C1096 1.367 . S
C1097 C1105 1.433 . S
C1098 H1094 0.929 . S
C1098 C1100 1.378 . S
C1098 C1102 1.350 . S
C1099 C1102 1.463 . S
C1099 C1104 1.350 . S
C1099 N1107 1.427 . S
C1100 H1091 0.930 . S
C1100 C1098 1.378 . S
C1100 C1101 1.367 . S
C1101 C1100 1.367 . S
C1101 C1103 1.433 . S
C1102 C1098 1.350 . S
C1102 C1099 1.463 . S
C1102 N1106 1.427 . S
C1103 H1093 0.929 . S
C1103 C1101 1.433 . S
C1103 N1106 1.384 . S
C1104 H1095 0.929 . S
C1104 C1096 1.378 . S
C1104 C1099 1.350 . S
C1105 H1092 0.929 . S
C1105 C1097 1.433 . S
C1105 N1107 1.384 . S
N1106 C1102 1.427 . S
N1106 C1103 1.384 . S
N1107 C1099 1.427 . S
N1107 C1105 1.384 . S
H1108 C1114 0.930 . S
H1109 C1118 0.930 . S
H1110 C1123 0.929 . S
H1111 C1121 0.929 . S
H1112 C1116 0.929 . S
H1113 C1122 0.929 . S
C1114 H1108 0.930 . S
C1114 C1115 1.367 . S
C1114 C1122 1.378 . S
C1115 C1114 1.367 . S
C1115 C1123 1.433 . S
C1116 H1112 0.929 . S
C1116 C1118 1.378 . S
C1116 C1120 1.350 . S
C1117 C1120 1.463 . S
C1117 C1122 1.350 . S
C1117 N1125 1.427 . S
C1118 H1109 0.930 . S
C1118 C1116 1.378 . S
C1118 C1119 1.367 . S
C1119 C1118 1.367 . S
C1119 C1121 1.433 . S
C1120 C1116 1.350 . S
C1120 C1117 1.463 . S
C1120 N1124 1.427 . S
C1121 H1111 0.929 . S
C1121 C1119 1.433 . S
C1121 N1124 1.384 . S
C1122 H1113 0.929 . S
C1122 C1114 1.378 . S
C1122 C1117 1.350 . S
C1123 H1110 0.929 . S
C1123 C1115 1.433 . S
C1123 N1125 1.384 . S
N1124 C1120 1.427 . S
N1124 C1121 1.384 . S
N1125 C1117 1.427 . S
N1125 C1123 1.384 . S
H1126 C1132 0.930 . S
H1127 C1136 0.930 . S
H1128 C1141 0.929 . S
H1129 C1139 0.929 . S
H1130 C1134 0.929 . S
H1131 C1140 0.929 . S
C1132 H1126 0.930 . S
C1132 C1133 1.367 . S
C1132 C1140 1.378 . S
C1133 C1132 1.367 . S
C1133 C1141 1.433 . S
C1134 H1130 0.929 . S
C1134 C1136 1.378 . S
C1134 C1138 1.350 . S
C1135 C1138 1.463 . S
C1135 C1140 1.350 . S
C1135 N1143 1.427 . S
C1136 H1127 0.930 . S
C1136 C1134 1.378 . S
C1136 C1137 1.367 . S
C1137 C1136 1.367 . S
C1137 C1139 1.433 . S
C1138 C1134 1.350 . S
C1138 C1135 1.463 . S
C1138 N1142 1.427 . S
C1139 H1129 0.929 . S
C1139 C1137 1.433 . S
C1139 N1142 1.384 . S
C1140 H1131 0.929 . S
C1140 C1132 1.378 . S
C1140 C1135 1.350 . S
C1141 H1128 0.929 . S
C1141 C1133 1.433 . S
C1141 N1143 1.384 . S
N1142 C1138 1.427 . S
N1142 C1139 1.384 . S
N1143 C1135 1.427 . S
N1143 C1141 1.384 . S
H1144 C1150 0.930 . S
H1145 C1154 0.930 . S
H1146 C1159 0.929 . S
H1147 C1157 0.929 . S
H1148 C1152 0.929 . S
H1149 C1158 0.929 . S
C1150 H1144 0.930 . S
C1150 C1151 1.367 . S
C1150 C1158 1.378 . S
C1151 C1150 1.367 . S
C1151 C1159 1.433 . S
C1152 H1148 0.929 . S
C1152 C1154 1.378 . S
C1152 C1156 1.350 . S
C1153 C1156 1.463 . S
C1153 C1158 1.350 . S
C1153 N1161 1.427 . S
C1154 H1145 0.930 . S
C1154 C1152 1.378 . S
C1154 C1155 1.367 . S
C1155 C1154 1.367 . S
C1155 C1157 1.433 . S
C1156 C1152 1.350 . S
C1156 C1153 1.463 . S
C1156 N1160 1.427 . S
C1157 H1147 0.929 . S
C1157 C1155 1.433 . S
C1157 N1160 1.384 . S
C1158 H1149 0.929 . S
C1158 C1150 1.378 . S
C1158 C1153 1.350 . S
C1159 H1146 0.929 . S
C1159 C1151 1.433 . S
C1159 N1161 1.384 . S
N1160 C1156 1.427 . S
N1160 C1157 1.384 . S
N1161 C1153 1.427 . S
N1161 C1159 1.384 . S
H1162 C1168 0.930 . S
H1163 C1172 0.930 . S
H1164 C1177 0.929 . S
H1165 C1175 0.929 . S
H1166 C1170 0.929 . S
H1167 C1176 0.929 . S
C1168 H1162 0.930 . S
C1168 C1169 1.367 . S
C1168 C1176 1.378 . S
C1169 C1168 1.367 . S
C1169 C1177 1.433 . S
C1170 H1166 0.929 . S
C1170 C1172 1.378 . S
C1170 C1174 1.350 . S
C1171 C1174 1.463 . S
C1171 C1176 1.350 . S
C1171 N1179 1.427 . S
C1172 H1163 0.930 . S
C1172 C1170 1.378 . S
C1172 C1173 1.367 . S
C1173 C1172 1.367 . S
C1173 C1175 1.433 . S
C1174 C1170 1.350 . S
C1174 C1171 1.463 . S
C1174 N1178 1.427 . S
C1175 H1165 0.929 . S
C1175 C1173 1.433 . S
C1175 N1178 1.384 . S
C1176 H1167 0.929 . S
C1176 C1168 1.378 . S
C1176 C1171 1.350 . S
C1177 H1164 0.929 . S
C1177 C1169 1.433 . S
C1177 N1179 1.384 . S
N1178 C1174 1.427 . S
N1178 C1175 1.384 . S
N1179 C1171 1.427 . S
N1179 C1177 1.384 . S
H1180 C1186 0.930 . S
H1181 C1190 0.930 . S
H1182 C1195 0.929 . S
H1183 C1193 0.929 . S
H1184 C1188 0.929 . S
H1185 C1194 0.929 . S
C1186 H1180 0.930 . S
C1186 C1187 1.367 . S
C1186 C1194 1.378 . S
C1187 C1186 1.367 . S
C1187 C1195 1.433 . S
C1188 H1184 0.929 . S
C1188 C1190 1.378 . S
C1188 C1192 1.350 . S
C1189 C1192 1.463 . S
C1189 C1194 1.350 . S
C1189 N1197 1.427 . S
C1190 H1181 0.930 . S
C1190 C1188 1.378 . S
C1190 C1191 1.367 . S
C1191 C1190 1.367 . S
C1191 C1193 1.433 . S
C1192 C1188 1.350 . S
C1192 C1189 1.463 . S
C1192 N1196 1.427 . S
C1193 H1183 0.929 . S
C1193 C1191 1.433 . S
C1193 N1196 1.384 . S
C1194 H1185 0.929 . S
C1194 C1186 1.378 . S
C1194 C1189 1.350 . S
C1195 H1182 0.929 . S
C1195 C1187 1.433 . S
C1195 N1197 1.384 . S
N1196 C1192 1.427 . S
N1196 C1193 1.384 . S
N1197 C1189 1.427 . S
N1197 C1195 1.384 . S
H1198 C1204 0.930 . S
H1199 C1208 0.930 . S
H1200 C1213 0.929 . S
H1201 C1211 0.929 . S
H1202 C1206 0.929 . S
H1203 C1212 0.929 . S
C1204 H1198 0.930 . S
C1204 C1205 1.367 . S
C1204 C1212 1.378 . S
C1205 C1204 1.367 . S
C1205 C1213 1.433 . S
C1206 H1202 0.929 . S
C1206 C1208 1.378 . S
C1206 C1210 1.340 1_554 S
C1207 C1210 1.472 . S
C1207 C1212 1.350 . S
C1207 N1215 1.427 . S
C1208 H1199 0.930 . S
C1208 C1206 1.378 . S
C1208 C1209 1.367 . S
C1209 C1208 1.367 . S
C1209 C1211 1.433 . S
C1210 C1206 1.340 1_556 S
C1210 C1207 1.472 . S
C1210 N1214 1.429 . S
C1211 H1201 0.929 . S
C1211 C1209 1.433 . S
C1211 N1214 1.384 1_554 S
C1212 H1203 0.929 . S
C1212 C1204 1.378 . S
C1212 C1207 1.350 . S
C1213 H1200 0.929 . S
C1213 C1205 1.433 . S
C1213 N1215 1.384 . S
N1214 C1210 1.429 . S
N1214 C1211 1.384 1_556 S
N1215 C1207 1.427 . S
N1215 C1213 1.384 . S
H1216 C1222 0.930 . S
H1217 C1226 0.930 . S
H1218 C1231 0.929 . S
H1219 C1229 0.929 . S
H1220 C1224 0.929 . S
H1221 C1230 0.929 . S
C1222 H1216 0.930 . S
C1222 C1223 1.367 . S
C1222 C1230 1.378 . S
C1223 C1222 1.367 . S
C1223 C1231 1.433 . S
C1224 H1220 0.929 . S
C1224 C1226 1.378 . S
C1224 C1228 1.350 . S
C1225 C1228 1.463 1_655 S
C1225 C1230 1.350 . S
C1225 N1233 1.427 . S
C1226 H1217 0.930 . S
C1226 C1224 1.378 . S
C1226 C1227 1.367 . S
C1227 C1226 1.367 . S
C1227 C1229 1.433 . S
C1228 C1224 1.350 . S
C1228 C1225 1.463 1_455 S
C1228 N1232 1.427 . S
C1229 H1219 0.929 . S
C1229 C1227 1.433 . S
C1229 N1232 1.384 . S
C1230 H1221 0.929 . S
C1230 C1222 1.378 . S
C1230 C1225 1.350 . S
C1231 H1218 0.929 . S
C1231 C1223 1.433 . S
C1231 N1233 1.384 . S
N1232 C1228 1.427 . S
N1232 C1229 1.384 . S
N1233 C1225 1.427 . S
N1233 C1231 1.384 . S
H1234 C1240 0.930 . S
H1235 C1244 0.930 . S
H1236 C1249 0.929 . S
H1237 C1247 0.929 . S
H1238 C1242 0.929 . S
H1239 C1248 0.929 . S
C1240 H1234 0.930 . S
C1240 C1241 1.367 . S
C1240 C1248 1.378 . S
C1241 C1240 1.367 . S
C1241 C1249 1.433 . S
C1242 H1238 0.929 . S
C1242 C1244 1.378 . S
C1242 C1246 1.350 . S
C1243 C1246 1.463 . S
C1243 C1248 1.350 . S
C1243 N1251 1.427 . S
C1244 H1235 0.930 . S
C1244 C1242 1.378 . S
C1244 C1245 1.367 . S
C1245 C1244 1.367 . S
C1245 C1247 1.433 . S
C1246 C1242 1.350 . S
C1246 C1243 1.463 . S
C1246 N1250 1.427 . S
C1247 H1237 0.929 . S
C1247 C1245 1.433 . S
C1247 N1250 1.384 . S
C1248 H1239 0.929 . S
C1248 C1240 1.378 . S
C1248 C1243 1.350 . S
C1249 H1236 0.929 . S
C1249 C1241 1.433 . S
C1249 N1251 1.384 . S
N1250 C1246 1.427 . S
N1250 C1247 1.384 . S
N1251 C1243 1.427 . S
N1251 C1249 1.384 . S
H1252 C1258 0.930 . S
H1253 C1262 0.930 . S
H1254 C1267 0.929 . S
H1255 C1265 0.929 . S
H1256 C1260 0.929 . S
H1257 C1266 0.929 . S
C1258 H1252 0.930 . S
C1258 C1259 1.367 . S
C1258 C1266 1.378 . S
C1259 C1258 1.367 . S
C1259 C1267 1.433 . S
C1260 H1256 0.929 . S
C1260 C1262 1.378 . S
C1260 C1264 1.350 . S
C1261 C1264 1.463 . S
C1261 C1266 1.350 . S
C1261 N1269 1.427 . S
C1262 H1253 0.930 . S
C1262 C1260 1.378 . S
C1262 C1263 1.367 . S
C1263 C1262 1.367 . S
C1263 C1265 1.433 . S
C1264 C1260 1.350 . S
C1264 C1261 1.463 . S
C1264 N1268 1.427 . S
C1265 H1255 0.929 . S
C1265 C1263 1.433 . S
C1265 N1268 1.384 . S
C1266 H1257 0.929 . S
C1266 C1258 1.378 . S
C1266 C1261 1.350 . S
C1267 H1254 0.929 . S
C1267 C1259 1.433 . S
C1267 N1269 1.384 . S
N1268 C1264 1.427 . S
N1268 C1265 1.384 . S
N1269 C1261 1.427 . S
N1269 C1267 1.384 . S
H1270 C1276 0.930 . S
H1271 C1280 0.930 . S
H1272 C1285 0.929 . S
H1273 C1283 0.929 . S
H1274 C1278 0.929 . S
H1275 C1284 0.929 . S
C1276 H1270 0.930 . S
C1276 C1277 1.367 . S
C1276 C1284 1.378 . S
C1277 C1276 1.367 . S
C1277 C1285 1.433 . S
C1278 H1274 0.929 . S
C1278 C1280 1.378 . S
C1278 C1282 1.350 . S
C1279 C1282 1.463 . S
C1279 C1284 1.350 . S
C1279 N1287 1.427 . S
C1280 H1271 0.930 . S
C1280 C1278 1.378 . S
C1280 C1281 1.367 . S
C1281 C1280 1.367 . S
C1281 C1283 1.433 . S
C1282 C1278 1.350 . S
C1282 C1279 1.463 . S
C1282 N1286 1.427 . S
C1283 H1273 0.929 . S
C1283 C1281 1.433 . S
C1283 N1286 1.384 . S
C1284 H1275 0.929 . S
C1284 C1276 1.378 . S
C1284 C1279 1.350 . S
C1285 H1272 0.929 . S
C1285 C1277 1.433 . S
C1285 N1287 1.384 . S
N1286 C1282 1.427 . S
N1286 C1283 1.384 . S
N1287 C1279 1.427 . S
N1287 C1285 1.384 . S
H1288 C1294 0.930 . S
H1289 C1298 0.930 . S
H1290 C1303 0.929 . S
H1291 C1301 0.929 . S
H1292 C1296 0.929 . S
H1293 C1302 0.929 . S
C1294 H1288 0.930 . S
C1294 C1295 1.367 . S
C1294 C1302 1.378 . S
C1295 C1294 1.367 . S
C1295 C1303 1.433 . S
C1296 H1292 0.929 . S
C1296 C1298 1.378 . S
C1296 C1300 1.350 . S
C1297 C1300 1.463 1_655 S
C1297 C1302 1.350 . S
C1297 N1305 1.427 . S
C1298 H1289 0.930 . S
C1298 C1296 1.378 . S
C1298 C1299 1.367 . S
C1299 C1298 1.367 . S
C1299 C1301 1.433 . S
C1300 C1296 1.350 . S
C1300 C1297 1.463 1_455 S
C1300 N1304 1.427 . S
C1301 H1291 0.929 . S
C1301 C1299 1.433 . S
C1301 N1304 1.384 . S
C1302 H1293 0.929 . S
C1302 C1294 1.378 . S
C1302 C1297 1.350 . S
C1303 H1290 0.929 . S
C1303 C1295 1.433 . S
C1303 N1305 1.384 . S
N1304 C1300 1.427 . S
N1304 C1301 1.384 . S
N1305 C1297 1.427 . S
N1305 C1303 1.384 . S
H1306 C1312 0.930 . S
H1307 C1316 0.930 . S
H1308 C1321 0.929 . S
H1309 C1319 0.929 . S
H1310 C1314 0.929 . S
H1311 C1320 0.929 . S
C1312 H1306 0.930 . S
C1312 C1313 1.367 . S
C1312 C1320 1.378 . S
C1313 C1312 1.367 . S
C1313 C1321 1.433 . S
C1314 H1310 0.929 . S
C1314 C1316 1.378 . S
C1314 C1318 1.350 . S
C1315 C1318 1.463 . S
C1315 C1320 1.350 . S
C1315 N1323 1.427 . S
C1316 H1307 0.930 . S
C1316 C1314 1.378 . S
C1316 C1317 1.367 . S
C1317 C1316 1.367 . S
C1317 C1319 1.433 . S
C1318 C1314 1.350 . S
C1318 C1315 1.463 . S
C1318 N1322 1.427 . S
C1319 H1309 0.929 . S
C1319 C1317 1.433 . S
C1319 N1322 1.384 . S
C1320 H1311 0.929 . S
C1320 C1312 1.378 . S
C1320 C1315 1.350 . S
C1321 H1308 0.929 . S
C1321 C1313 1.433 . S
C1321 N1323 1.384 . S
N1322 C1318 1.427 . S
N1322 C1319 1.384 . S
N1323 C1315 1.427 . S
N1323 C1321 1.384 . S
H1324 C1330 0.930 . S
H1325 C1334 0.930 . S
H1326 C1339 0.929 . S
H1327 C1337 0.929 . S
H1328 C1332 0.929 . S
H1329 C1338 0.929 . S
C1330 H1324 0.930 . S
C1330 C1331 1.367 . S
C1330 C1338 1.378 . S
C1331 C1330 1.367 . S
C1331 C1339 1.433 . S
C1332 H1328 0.929 . S
C1332 C1334 1.378 . S
C1332 C1336 1.350 . S
C1333 C1336 1.463 . S
C1333 C1338 1.350 . S
C1333 N1341 1.427 . S
C1334 H1325 0.930 . S
C1334 C1332 1.378 . S
C1334 C1335 1.367 . S
C1335 C1334 1.367 . S
C1335 C1337 1.433 . S
C1336 C1332 1.350 . S
C1336 C1333 1.463 . S
C1336 N1340 1.427 . S
C1337 H1327 0.929 . S
C1337 C1335 1.433 . S
C1337 N1340 1.384 . S
C1338 H1329 0.929 . S
C1338 C1330 1.378 . S
C1338 C1333 1.350 . S
C1339 H1326 0.929 . S
C1339 C1331 1.433 . S
C1339 N1341 1.384 . S
N1340 C1336 1.427 . S
N1340 C1337 1.384 . S
N1341 C1333 1.427 . S
N1341 C1339 1.384 . S
H1342 C1348 0.930 . S
H1343 C1352 0.930 . S
H1344 C1357 0.929 . S
H1345 C1355 0.929 . S
H1346 C1350 0.929 . S
H1347 C1356 0.929 . S
C1348 H1342 0.930 . S
C1348 C1349 1.367 . S
C1348 C1356 1.378 . S
C1349 C1348 1.367 . S
C1349 C1357 1.433 . S
C1350 H1346 0.929 . S
C1350 C1352 1.378 . S
C1350 C1354 1.350 . S
C1351 C1354 1.463 . S
C1351 C1356 1.350 . S
C1351 N1359 1.427 . S
C1352 H1343 0.930 . S
C1352 C1350 1.378 . S
C1352 C1353 1.367 . S
C1353 C1352 1.367 . S
C1353 C1355 1.433 . S
C1354 C1350 1.350 . S
C1354 C1351 1.463 . S
C1354 N1358 1.427 . S
C1355 H1345 0.929 . S
C1355 C1353 1.433 . S
C1355 N1358 1.384 . S
C1356 H1347 0.929 . S
C1356 C1348 1.378 . S
C1356 C1351 1.350 . S
C1357 H1344 0.929 . S
C1357 C1349 1.433 . S
C1357 N1359 1.384 . S
N1358 C1354 1.427 . S
N1358 C1355 1.384 . S
N1359 C1351 1.427 . S
N1359 C1357 1.384 . S
H1360 C1366 0.930 . S
H1361 C1370 0.930 . S
H1362 C1375 0.929 . S
H1363 C1373 0.929 . S
H1364 C1368 0.929 . S
H1365 C1374 0.929 . S
C1366 H1360 0.930 . S
C1366 C1367 1.367 . S
C1366 C1374 1.378 . S
C1367 C1366 1.367 . S
C1367 C1375 1.433 . S
C1368 H1364 0.929 . S
C1368 C1370 1.378 . S
C1368 C1372 1.350 . S
C1369 C1372 1.463 . S
C1369 C1374 1.350 . S
C1369 N1377 1.427 . S
C1370 H1361 0.930 . S
C1370 C1368 1.378 . S
C1370 C1371 1.367 . S
C1371 C1370 1.367 . S
C1371 C1373 1.433 . S
C1372 C1368 1.350 . S
C1372 C1369 1.463 . S
C1372 N1376 1.427 . S
C1373 H1363 0.929 . S
C1373 C1371 1.433 . S
C1373 N1376 1.384 . S
C1374 H1365 0.929 . S
C1374 C1366 1.378 . S
C1374 C1369 1.350 . S
C1375 H1362 0.929 . S
C1375 C1367 1.433 . S
C1375 N1377 1.384 . S
N1376 C1372 1.427 . S
N1376 C1373 1.384 . S
N1377 C1369 1.427 . S
N1377 C1375 1.384 . S
H1378 C1384 0.930 . S
H1379 C1388 0.930 . S
H1380 C1393 0.929 . S
H1381 C1391 0.929 . S
H1382 C1386 0.929 . S
H1383 C1392 0.929 . S
C1384 H1378 0.930 . S
C1384 C1385 1.367 . S
C1384 C1392 1.378 . S
C1385 C1384 1.367 . S
C1385 C1393 1.433 . S
C1386 H1382 0.929 . S
C1386 C1388 1.378 . S
C1386 C1390 1.350 . S
C1387 C1390 1.463 . S
C1387 C1392 1.350 . S
C1387 N1395 1.427 . S
C1388 H1379 0.930 . S
C1388 C1386 1.378 . S
C1388 C1389 1.367 . S
C1389 C1388 1.367 . S
C1389 C1391 1.433 . S
C1390 C1386 1.350 . S
C1390 C1387 1.463 . S
C1390 N1394 1.427 . S
C1391 H1381 0.929 . S
C1391 C1389 1.433 . S
C1391 N1394 1.384 . S
C1392 H1383 0.929 . S
C1392 C1384 1.378 . S
C1392 C1387 1.350 . S
C1393 H1380 0.929 . S
C1393 C1385 1.433 . S
C1393 N1395 1.384 . S
N1394 C1390 1.427 . S
N1394 C1391 1.384 . S
N1395 C1387 1.427 . S
N1395 C1393 1.384 . S
H1396 C1402 0.930 . S
H1397 C1406 0.930 . S
H1398 C1411 0.929 . S
H1399 C1409 0.929 . S
H1400 C1404 0.929 . S
H1401 C1410 0.929 . S
C1402 H1396 0.930 . S
C1402 C1403 1.367 . S
C1402 C1410 1.378 . S
C1403 C1402 1.367 . S
C1403 C1411 1.433 . S
C1404 H1400 0.929 . S
C1404 C1406 1.378 . S
C1404 C1408 1.350 . S
C1405 C1408 1.463 . S
C1405 C1410 1.350 . S
C1405 N1413 1.427 . S
C1406 H1397 0.930 . S
C1406 C1404 1.378 . S
C1406 C1407 1.367 . S
C1407 C1406 1.367 . S
C1407 C1409 1.433 . S
C1408 C1404 1.350 . S
C1408 C1405 1.463 . S
C1408 N1412 1.427 . S
C1409 H1399 0.929 . S
C1409 C1407 1.433 . S
C1409 N1412 1.384 . S
C1410 H1401 0.929 . S
C1410 C1402 1.378 . S
C1410 C1405 1.350 . S
C1411 H1398 0.929 . S
C1411 C1403 1.433 . S
C1411 N1413 1.384 . S
N1412 C1408 1.427 . S
N1412 C1409 1.384 . S
N1413 C1405 1.427 . S
N1413 C1411 1.384 . S
H1414 C1420 0.930 . S
H1415 C1424 0.930 . S
H1416 C1429 0.929 . S
H1417 C1427 0.929 . S
H1418 C1422 0.929 . S
H1419 C1428 0.929 . S
C1420 H1414 0.930 . S
C1420 C1421 1.367 . S
C1420 C1428 1.378 . S
C1421 C1420 1.367 . S
C1421 C1429 1.433 . S
C1422 H1418 0.929 . S
C1422 C1424 1.378 . S
C1422 C1426 1.350 . S
C1423 C1426 1.463 . S
C1423 C1428 1.350 . S
C1423 N1431 1.427 . S
C1424 H1415 0.930 . S
C1424 C1422 1.378 . S
C1424 C1425 1.367 . S
C1425 C1424 1.367 . S
C1425 C1427 1.433 . S
C1426 C1422 1.350 . S
C1426 C1423 1.463 . S
C1426 N1430 1.427 . S
C1427 H1417 0.929 . S
C1427 C1425 1.433 . S
C1427 N1430 1.384 . S
C1428 H1419 0.929 . S
C1428 C1420 1.378 . S
C1428 C1423 1.350 . S
C1429 H1416 0.929 . S
C1429 C1421 1.433 . S
C1429 N1431 1.384 . S
N1430 C1426 1.427 . S
N1430 C1427 1.384 . S
N1431 C1423 1.427 . S
N1431 C1429 1.384 . S
H1432 C1438 0.930 . S
H1433 C1442 0.930 . S
H1434 C1447 0.929 . S
H1435 C1445 0.929 . S
H1436 C1440 0.929 1_545 S
H1437 C1446 0.929 1_565 S
C1438 H1432 0.930 . S
C1438 C1439 1.367 . S
C1438 C1446 1.378 . S
C1439 C1438 1.367 . S
C1439 C1447 1.433 . S
C1440 H1436 0.929 1_565 S
C1440 C1442 1.378 . S
C1440 C1444 1.350 . S
C1441 C1444 1.463 1_545 S
C1441 C1446 1.350 . S
C1441 N1449 1.427 . S
C1442 H1433 0.930 . S
C1442 C1440 1.378 . S
C1442 C1443 1.367 . S
C1443 C1442 1.367 . S
C1443 C1445 1.433 . S
C1444 C1440 1.350 . S
C1444 C1441 1.463 1_565 S
C1444 N1448 1.427 . S
C1445 H1435 0.929 . S
C1445 C1443 1.433 . S
C1445 N1448 1.384 . S
C1446 H1437 0.929 1_545 S
C1446 C1438 1.378 . S
C1446 C1441 1.350 . S
C1447 H1434 0.929 . S
C1447 C1439 1.433 . S
C1447 N1449 1.384 . S
N1448 C1444 1.427 . S
N1448 C1445 1.384 . S
N1449 C1441 1.427 . S
N1449 C1447 1.384 . S
H1450 C1456 0.930 . S
H1451 C1460 0.930 . S
H1452 C1465 0.929 . S
H1453 C1463 0.929 . S
H1454 C1458 0.929 . S
H1455 C1464 0.929 . S
C1456 H1450 0.930 . S
C1456 C1457 1.367 . S
C1456 C1464 1.378 . S
C1457 C1456 1.367 . S
C1457 C1465 1.433 1_565 S
C1458 H1454 0.929 . S
C1458 C1460 1.378 . S
C1458 C1462 1.350 . S
C1459 C1462 1.463 1_465 S
C1459 C1464 1.350 . S
C1459 N1467 1.427 1_565 S
C1460 H1451 0.930 . S
C1460 C1458 1.378 . S
C1460 C1461 1.367 . S
C1461 C1460 1.367 . S
C1461 C1463 1.433 1_545 S
C1462 C1458 1.350 . S
C1462 C1459 1.463 1_645 S
C1462 N1466 1.427 1_545 S
C1463 H1453 0.929 . S
C1463 C1461 1.433 1_565 S
C1463 N1466 1.384 . S
C1464 H1455 0.929 . S
C1464 C1456 1.378 . S
C1464 C1459 1.350 . S
C1465 H1452 0.929 . S
C1465 C1457 1.433 1_545 S
C1465 N1467 1.384 . S
N1466 C1462 1.427 1_565 S
N1466 C1463 1.384 . S
N1467 C1459 1.427 1_545 S
N1467 C1465 1.384 . S
H1468 C1474 0.930 . S
H1469 C1478 0.930 . S
H1470 C1483 0.929 . S
H1471 C1481 0.929 . S
H1472 C1476 0.929 . S
H1473 C1482 0.929 . S
C1474 H1468 0.930 . S
C1474 C1475 1.367 . S
C1474 C1482 1.378 . S
C1475 C1474 1.367 . S
C1475 C1483 1.433 . S
C1476 H1472 0.929 . S
C1476 C1478 1.378 . S
C1476 C1480 1.350 . S
C1477 C1480 1.463 1_565 S
C1477 C1482 1.350 . S
C1477 N1485 1.427 . S
C1478 H1469 0.930 . S
C1478 C1476 1.378 . S
C1478 C1479 1.367 . S
C1479 C1478 1.367 . S
C1479 C1481 1.433 . S
C1480 C1476 1.350 . S
C1480 C1477 1.463 1_545 S
C1480 N1484 1.427 . S
C1481 H1471 0.929 . S
C1481 C1479 1.433 . S
C1481 N1484 1.384 . S
C1482 H1473 0.929 . S
C1482 C1474 1.378 . S
C1482 C1477 1.350 . S
C1483 H1470 0.929 . S
C1483 C1475 1.433 . S
C1483 N1485 1.384 . S
N1484 C1480 1.427 . S
N1484 C1481 1.384 . S
N1485 C1477 1.427 . S
N1485 C1483 1.384 . S
H1486 C1492 0.930 . S
H1487 C1496 0.930 . S
H1488 C1501 0.929 . S
H1489 C1499 0.929 . S
H1490 C1494 0.929 . S
H1491 C1500 0.929 . S
C1492 H1486 0.930 . S
C1492 C1493 1.367 . S
C1492 C1500 1.378 . S
C1493 C1492 1.367 . S
C1493 C1501 1.433 1_565 S
C1494 H1490 0.929 . S
C1494 C1496 1.378 . S
C1494 C1498 1.350 . S
C1495 C1498 1.463 1_665 S
C1495 C1500 1.350 . S
C1495 N1503 1.427 1_565 S
C1496 H1487 0.930 . S
C1496 C1494 1.378 . S
C1496 C1497 1.367 . S
C1497 C1496 1.367 . S
C1497 C1499 1.433 1_545 S
C1498 C1494 1.350 . S
C1498 C1495 1.463 1_445 S
C1498 N1502 1.427 1_545 S
C1499 H1489 0.929 . S
C1499 C1497 1.433 1_565 S
C1499 N1502 1.384 . S
C1500 H1491 0.929 . S
C1500 C1492 1.378 . S
C1500 C1495 1.350 . S
C1501 H1488 0.929 . S
C1501 C1493 1.433 1_545 S
C1501 N1503 1.384 . S
N1502 C1498 1.427 1_565 S
N1502 C1499 1.384 . S
N1503 C1495 1.427 1_545 S
N1503 C1501 1.384 . S
H1504 C1510 0.930 . S
H1505 C1514 0.930 . S
H1506 C1519 0.929 . S
H1507 C1517 0.929 . S
H1508 C1512 0.929 . S
H1509 C1518 0.929 . S
C1510 H1504 0.930 . S
C1510 C1511 1.367 . S
C1510 C1518 1.378 . S
C1511 C1510 1.367 . S
C1511 C1519 1.433 . S
C1512 H1508 0.929 . S
C1512 C1514 1.378 . S
C1512 C1516 1.350 . S
C1513 C1516 1.463 1_455 S
C1513 C1518 1.350 . S
C1513 N1521 1.427 1_455 S
C1514 H1505 0.930 . S
C1514 C1512 1.378 . S
C1514 C1515 1.367 . S
C1515 C1514 1.367 . S
C1515 C1517 1.433 . S
C1516 C1512 1.350 . S
C1516 C1513 1.463 1_655 S
C1516 N1520 1.427 . S
C1517 H1507 0.929 . S
C1517 C1515 1.433 . S
C1517 N1520 1.384 . S
C1518 H1509 0.929 . S
C1518 C1510 1.378 . S
C1518 C1513 1.350 . S
C1519 H1506 0.929 . S
C1519 C1511 1.433 . S
C1519 N1521 1.384 1_455 S
N1520 C1516 1.427 . S
N1520 C1517 1.384 . S
N1521 C1513 1.427 1_655 S
N1521 C1519 1.384 1_655 S
H1522 C1528 0.930 . S
H1523 C1532 0.930 . S
H1524 C1537 0.929 . S
H1525 C1535 0.929 . S
H1526 C1530 0.929 . S
H1527 C1536 0.929 . S
C1528 H1522 0.930 . S
C1528 C1529 1.367 . S
C1528 C1536 1.378 . S
C1529 C1528 1.367 . S
C1529 C1537 1.433 . S
C1530 H1526 0.929 . S
C1530 C1532 1.378 . S
C1530 C1534 1.350 . S
C1531 C1534 1.463 . S
C1531 C1536 1.350 . S
C1531 N1539 1.427 . S
C1532 H1523 0.930 . S
C1532 C1530 1.378 . S
C1532 C1533 1.367 . S
C1533 C1532 1.367 . S
C1533 C1535 1.433 . S
C1534 C1530 1.350 . S
C1534 C1531 1.463 . S
C1534 N1538 1.427 . S
C1535 H1525 0.929 . S
C1535 C1533 1.433 . S
C1535 N1538 1.384 . S
C1536 H1527 0.929 . S
C1536 C1528 1.378 . S
C1536 C1531 1.350 . S
C1537 H1524 0.929 . S
C1537 C1529 1.433 . S
C1537 N1539 1.384 . S
N1538 C1534 1.427 . S
N1538 C1535 1.384 . S
N1539 C1531 1.427 . S
N1539 C1537 1.384 . S
H1540 C1546 0.930 . S
H1541 C1550 0.930 . S
H1542 C1555 0.929 . S
H1543 C1553 0.929 . S
H1544 C1548 0.929 . S
H1545 C1554 0.929 . S
C1546 H1540 0.930 . S
C1546 C1547 1.367 . S
C1546 C1554 1.378 . S
C1547 C1546 1.367 . S
C1547 C1555 1.433 . S
C1548 H1544 0.929 . S
C1548 C1550 1.378 . S
C1548 C1552 1.350 . S
C1549 C1552 1.463 . S
C1549 C1554 1.350 . S
C1549 N1557 1.427 . S
C1550 H1541 0.930 . S
C1550 C1548 1.378 . S
C1550 C1551 1.367 . S
C1551 C1550 1.367 . S
C1551 C1553 1.433 . S
C1552 C1548 1.350 . S
C1552 C1549 1.463 . S
C1552 N1556 1.427 . S
C1553 H1543 0.929 . S
C1553 C1551 1.433 . S
C1553 N1556 1.384 . S
C1554 H1545 0.929 . S
C1554 C1546 1.378 . S
C1554 C1549 1.350 . S
C1555 H1542 0.929 . S
C1555 C1547 1.433 . S
C1555 N1557 1.384 . S
N1556 C1552 1.427 . S
N1556 C1553 1.384 . S
N1557 C1549 1.427 . S
N1557 C1555 1.384 . S
H1558 C1564 0.930 . S
H1559 C1568 0.930 . S
H1560 C1573 0.929 . S
H1561 C1571 0.929 . S
H1562 C1566 0.929 . S
H1563 C1572 0.929 . S
C1564 H1558 0.930 . S
C1564 C1565 1.367 . S
C1564 C1572 1.378 . S
C1565 C1564 1.367 . S
C1565 C1573 1.433 . S
C1566 H1562 0.929 . S
C1566 C1568 1.378 . S
C1566 C1570 1.350 . S
C1567 C1570 1.463 . S
C1567 C1572 1.350 . S
C1567 N1575 1.427 . S
C1568 H1559 0.930 . S
C1568 C1566 1.378 . S
C1568 C1569 1.367 . S
C1569 C1568 1.367 . S
C1569 C1571 1.433 . S
C1570 C1566 1.350 . S
C1570 C1567 1.463 . S
C1570 N1574 1.427 . S
C1571 H1561 0.929 . S
C1571 C1569 1.433 . S
C1571 N1574 1.384 . S
C1572 H1563 0.929 . S
C1572 C1564 1.378 . S
C1572 C1567 1.350 . S
C1573 H1560 0.929 . S
C1573 C1565 1.433 . S
C1573 N1575 1.384 . S
N1574 C1570 1.427 . S
N1574 C1571 1.384 . S
N1575 C1567 1.427 . S
N1575 C1573 1.384 . S
H1576 C1582 0.930 1_554 S
H1577 C1586 0.930 1_655 S
H1578 C1591 0.929 . S
H1579 C1589 0.929 . S
H1580 C1584 0.929 . S
H1581 C1590 0.979 . S
C1582 H1576 0.930 1_556 S
C1582 C1583 1.367 . S
C1582 C1590 1.352 1_655 S
C1583 C1582 1.367 . S
C1583 C1591 1.433 . S
C1584 H1580 0.929 . S
C1584 C1586 1.378 1_655 S
C1584 C1588 1.350 1_655 S
C1585 C1588 1.463 1_655 S
C1585 C1590 1.326 1_655 S
C1585 N1593 1.427 . S
C1586 H1577 0.930 1_455 S
C1586 C1584 1.378 1_455 S
C1586 C1587 1.367 . S
C1587 C1586 1.367 . S
C1587 C1589 1.433 . S
C1588 C1584 1.350 1_455 S
C1588 C1585 1.463 1_455 S
C1588 N1592 1.427 . S
C1589 H1579 0.929 . S
C1589 C1587 1.433 . S
C1589 N1592 1.384 . S
C1590 H1581 0.979 . S
C1590 C1582 1.352 1_455 S
C1590 C1585 1.326 1_455 S
C1591 H1578 0.929 . S
C1591 C1583 1.433 . S
C1591 N1593 1.384 . S
N1592 C1588 1.427 . S
N1592 C1589 1.384 . S
N1593 C1585 1.427 . S
N1593 C1591 1.384 . S
H1594 C1600 0.930 . S
H1595 C1604 0.930 . S
H1596 C1609 0.929 . S
H1597 C1607 0.929 . S
H1598 C1602 0.929 . S
H1599 C1608 0.929 . S
C1600 H1594 0.930 . S
C1600 C1601 1.367 . S
C1600 C1608 1.378 . S
C1601 C1600 1.367 . S
C1601 C1609 1.433 . S
C1602 H1598 0.929 . S
C1602 C1604 1.378 1_554 S
C1602 C1606 1.350 . S
C1603 C1606 1.463 . S
C1603 C1608 1.350 . S
C1603 N1611 1.427 . S
C1604 H1595 0.930 . S
C1604 C1602 1.378 1_556 S
C1604 C1605 1.367 . S
C1605 C1604 1.367 . S
C1605 C1607 1.433 . S
C1606 C1602 1.350 . S
C1606 C1603 1.463 . S
C1606 N1610 1.427 1_554 S
C1607 H1597 0.929 . S
C1607 C1605 1.433 . S
C1607 N1610 1.384 . S
C1608 H1599 0.929 . S
C1608 C1600 1.378 . S
C1608 C1603 1.350 . S
C1609 H1596 0.929 . S
C1609 C1601 1.433 . S
C1609 N1611 1.384 . S
N1610 C1606 1.427 1_556 S
N1610 C1607 1.384 . S
N1611 C1603 1.427 . S
N1611 C1609 1.384 . S
H1612 C1618 0.930 . S
H1613 C1622 0.930 . S
H1614 C1627 0.929 . S
H1615 C1625 0.929 . S
H1616 C1620 0.929 . S
H1617 C1626 0.929 . S
C1618 H1612 0.930 . S
C1618 C1619 1.367 . S
C1618 C1626 1.378 . S
C1619 C1618 1.367 . S
C1619 C1627 1.433 . S
C1620 H1616 0.929 . S
C1620 C1622 1.378 . S
C1620 C1624 1.350 . S
C1621 C1624 1.463 . S
C1621 C1626 1.350 . S
C1621 N1629 1.427 . S
C1622 H1613 0.930 . S
C1622 C1620 1.378 . S
C1622 C1623 1.367 . S
C1623 C1622 1.367 . S
C1623 C1625 1.433 . S
C1624 C1620 1.350 . S
C1624 C1621 1.463 . S
C1624 N1628 1.427 . S
C1625 H1615 0.929 . S
C1625 C1623 1.433 . S
C1625 N1628 1.384 . S
C1626 H1617 0.929 . S
C1626 C1618 1.378 . S
C1626 C1621 1.350 . S
C1627 H1614 0.929 . S
C1627 C1619 1.433 . S
C1627 N1629 1.384 . S
N1628 C1624 1.427 . S
N1628 C1625 1.384 . S
N1629 C1621 1.427 . S
N1629 C1627 1.384 . S
H1630 C1636 0.930 . S
H1631 C1640 0.930 . S
H1632 C1645 0.929 . S
H1633 C1643 0.929 . S
H1634 C1638 0.929 . S
H1635 C1644 0.929 . S
C1636 H1630 0.930 . S
C1636 C1637 1.367 . S
C1636 C1644 1.378 . S
C1637 C1636 1.367 . S
C1637 C1645 1.433 . S
C1638 H1634 0.929 . S
C1638 C1640 1.378 . S
C1638 C1642 1.350 . S
C1639 C1642 1.463 . S
C1639 C1644 1.350 . S
C1639 N1647 1.427 . S
C1640 H1631 0.930 . S
C1640 C1638 1.378 . S
C1640 C1641 1.367 . S
C1641 C1640 1.367 . S
C1641 C1643 1.433 . S
C1642 C1638 1.350 . S
C1642 C1639 1.463 . S
C1642 N1646 1.427 . S
C1643 H1633 0.929 . S
C1643 C1641 1.433 . S
C1643 N1646 1.384 . S
C1644 H1635 0.929 . S
C1644 C1636 1.378 . S
C1644 C1639 1.350 . S
C1645 H1632 0.929 . S
C1645 C1637 1.433 . S
C1645 N1647 1.384 . S
N1646 C1642 1.427 . S
N1646 C1643 1.384 . S
N1647 C1639 1.427 . S
N1647 C1645 1.384 . S
H1648 C1654 0.930 . S
H1649 C1658 0.930 . S
H1650 C1663 0.929 . S
H1651 C1661 0.929 . S
H1652 C1656 0.937 . S
H1653 C1662 0.904 1_655 S
C1654 H1648 0.930 . S
C1654 C1655 1.367 . S
C1654 C1662 1.378 . S
C1655 C1654 1.367 . S
C1655 C1663 1.433 . S
C1656 H1652 0.937 . S
C1656 C1658 1.371 1_455 S
C1656 C1660 1.349 1_455 S
C1657 C1660 1.463 1_455 S
C1657 C1662 1.350 . S
C1657 N1665 1.427 . S
C1658 H1649 0.930 . S
C1658 C1656 1.371 1_655 S
C1658 C1659 1.367 . S
C1659 C1658 1.367 . S
C1659 C1661 1.433 . S
C1660 C1656 1.349 1_655 S
C1660 C1657 1.463 1_655 S
C1660 N1664 1.427 . S
C1661 H1651 0.929 . S
C1661 C1659 1.433 . S
C1661 N1664 1.384 . S
C1662 H1653 0.904 1_455 S
C1662 C1654 1.378 . S
C1662 C1657 1.350 . S
C1663 H1650 0.929 . S
C1663 C1655 1.433 . S
C1663 N1665 1.384 . S
N1664 C1660 1.427 . S
N1664 C1661 1.384 . S
N1665 C1657 1.427 . S
N1665 C1663 1.384 . S
H1666 C1672 0.930 . S
H1667 C1676 0.930 . S
H1668 C1681 0.929 . S
H1669 C1679 0.929 . S
H1670 C1674 0.929 . S
H1671 C1680 0.929 . S
C1672 H1666 0.930 . S
C1672 C1673 1.367 . S
C1672 C1680 1.378 . S
C1673 C1672 1.367 . S
C1673 C1681 1.433 . S
C1674 H1670 0.929 . S
C1674 C1676 1.378 1_554 S
C1674 C1678 1.350 . S
C1675 C1678 1.463 . S
C1675 C1680 1.350 . S
C1675 N1683 1.427 . S
C1676 H1667 0.930 . S
C1676 C1674 1.378 1_556 S
C1676 C1677 1.367 . S
C1677 C1676 1.367 . S
C1677 C1679 1.433 . S
C1678 C1674 1.350 . S
C1678 C1675 1.463 . S
C1678 N1682 1.427 1_554 S
C1679 H1669 0.929 . S
C1679 C1677 1.433 . S
C1679 N1682 1.384 . S
C1680 H1671 0.929 . S
C1680 C1672 1.378 . S
C1680 C1675 1.350 . S
C1681 H1668 0.929 . S
C1681 C1673 1.433 . S
C1681 N1683 1.384 . S
N1682 C1678 1.427 1_556 S
N1682 C1679 1.384 . S
N1683 C1675 1.427 . S
N1683 C1681 1.384 . S
H1684 C1690 0.930 . S
H1685 C1694 0.930 . S
H1686 C1699 0.929 . S
H1687 C1697 0.929 . S
H1688 C1692 0.929 . S
H1689 C1698 0.929 . S
C1690 H1684 0.930 . S
C1690 C1691 1.367 . S
C1690 C1698 1.378 . S
C1691 C1690 1.367 . S
C1691 C1699 1.433 . S
C1692 H1688 0.929 . S
C1692 C1694 1.378 . S
C1692 C1696 1.350 . S
C1693 C1696 1.463 . S
C1693 C1698 1.350 . S
C1693 N1701 1.427 . S
C1694 H1685 0.930 . S
C1694 C1692 1.378 . S
C1694 C1695 1.367 . S
C1695 C1694 1.367 . S
C1695 C1697 1.433 . S
C1696 C1692 1.350 . S
C1696 C1693 1.463 . S
C1696 N1700 1.427 . S
C1697 H1687 0.929 . S
C1697 C1695 1.433 . S
C1697 N1700 1.384 . S
C1698 H1689 0.929 . S
C1698 C1690 1.378 . S
C1698 C1693 1.350 . S
C1699 H1686 0.929 . S
C1699 C1691 1.433 . S
C1699 N1701 1.384 . S
N1700 C1696 1.427 . S
N1700 C1697 1.384 . S
N1701 C1693 1.427 . S
N1701 C1699 1.384 . S
H1702 C1708 0.930 . S
H1703 C1712 0.930 . S
H1704 C1717 0.929 . S
H1705 C1715 0.929 . S
H1706 C1710 0.929 . S
H1707 C1716 0.929 . S
C1708 H1702 0.930 . S
C1708 C1709 1.367 . S
C1708 C1716 1.378 . S
C1709 C1708 1.367 . S
C1709 C1717 1.433 . S
C1710 H1706 0.929 . S
C1710 C1712 1.378 . S
C1710 C1714 1.350 . S
C1711 C1714 1.463 . S
C1711 C1716 1.350 . S
C1711 N1719 1.427 . S
C1712 H1703 0.930 . S
C1712 C1710 1.378 . S
C1712 C1713 1.367 . S
C1713 C1712 1.367 . S
C1713 C1715 1.433 . S
C1714 C1710 1.350 . S
C1714 C1711 1.463 . S
C1714 N1718 1.427 . S
C1715 H1705 0.929 . S
C1715 C1713 1.433 . S
C1715 N1718 1.384 . S
C1716 H1707 0.929 . S
C1716 C1708 1.378 . S
C1716 C1711 1.350 . S
C1717 H1704 0.929 . S
C1717 C1709 1.433 . S
C1717 N1719 1.384 . S
N1718 C1714 1.427 . S
N1718 C1715 1.384 . S
N1719 C1711 1.427 . S
N1719 C1717 1.384 . S
H1720 C1726 0.930 . S
H1721 C1730 0.930 . S
H1722 C1735 0.929 . S
H1723 C1733 0.929 . S
H1724 C1728 0.929 . S
H1725 C1734 0.929 1_655 S
C1726 H1720 0.930 . S
C1726 C1727 1.367 . S
C1726 C1734 1.378 . S
C1727 C1726 1.367 . S
C1727 C1735 1.433 . S
C1728 H1724 0.929 . S
C1728 C1730 1.378 1_455 S
C1728 C1732 1.350 1_455 S
C1729 C1732 1.463 1_455 S
C1729 C1734 1.350 . S
C1729 N1737 1.427 . S
C1730 H1721 0.930 . S
C1730 C1728 1.378 1_655 S
C1730 C1731 1.367 . S
C1731 C1730 1.367 . S
C1731 C1733 1.433 . S
C1732 C1728 1.350 1_655 S
C1732 C1729 1.463 1_655 S
C1732 N1736 1.427 . S
C1733 H1723 0.929 . S
C1733 C1731 1.433 . S
C1733 N1736 1.384 . S
C1734 H1725 0.929 1_455 S
C1734 C1726 1.378 . S
C1734 C1729 1.350 . S
C1735 H1722 0.929 . S
C1735 C1727 1.433 . S
C1735 N1737 1.384 . S
N1736 C1732 1.427 . S
N1736 C1733 1.384 . S
N1737 C1729 1.427 . S
N1737 C1735 1.384 . S
H1738 C1744 0.930 . S
H1739 C1748 0.930 . S
H1740 C1753 0.929 . S
H1741 C1751 0.929 . S
H1742 C1746 0.929 . S
H1743 C1752 0.929 . S
C1744 H1738 0.930 . S
C1744 C1745 1.367 . S
C1744 C1752 1.378 . S
C1745 C1744 1.367 . S
C1745 C1753 1.433 . S
C1746 H1742 0.929 . S
C1746 C1748 1.378 . S
C1746 C1750 1.350 . S
C1747 C1750 1.463 . S
C1747 C1752 1.350 . S
C1747 N1755 1.427 . S
C1748 H1739 0.930 . S
C1748 C1746 1.378 . S
C1748 C1749 1.367 . S
C1749 C1748 1.367 . S
C1749 C1751 1.433 . S
C1750 C1746 1.350 . S
C1750 C1747 1.463 . S
C1750 N1754 1.427 . S
C1751 H1741 0.929 . S
C1751 C1749 1.433 . S
C1751 N1754 1.384 . S
C1752 H1743 0.929 . S
C1752 C1744 1.378 . S
C1752 C1747 1.350 . S
C1753 H1740 0.929 . S
C1753 C1745 1.433 . S
C1753 N1755 1.384 . S
N1754 C1750 1.427 . S
N1754 C1751 1.384 . S
N1755 C1747 1.427 . S
N1755 C1753 1.384 . S
H1756 C1762 0.933 . S
H1757 C1766 0.930 . S
H1758 C1771 0.929 . S
H1759 C1769 0.929 . S
H1760 C1764 0.929 . S
H1761 C1770 0.929 . S
C1762 H1756 0.933 . S
C1762 C1763 1.367 1_556 S
C1762 C1770 1.378 . S
C1763 C1762 1.367 1_554 S
C1763 C1771 1.433 . S
C1764 H1760 0.929 . S
C1764 C1766 1.378 . S
C1764 C1768 1.350 . S
C1765 C1768 1.463 . S
C1765 C1770 1.350 . S
C1765 N1773 1.427 . S
C1766 H1757 0.930 . S
C1766 C1764 1.378 . S
C1766 C1767 1.367 . S
C1767 C1766 1.367 . S
C1767 C1769 1.433 . S
C1768 C1764 1.350 . S
C1768 C1765 1.463 . S
C1768 N1772 1.427 . S
C1769 H1759 0.929 . S
C1769 C1767 1.433 . S
C1769 N1772 1.384 . S
C1770 H1761 0.929 . S
C1770 C1762 1.378 . S
C1770 C1765 1.350 . S
C1771 H1758 0.929 . S
C1771 C1763 1.433 . S
C1771 N1773 1.384 1_554 S
N1772 C1768 1.427 . S
N1772 C1769 1.384 . S
N1773 C1765 1.427 . S
N1773 C1771 1.384 1_556 S
H1774 C1780 0.930 . S
H1775 C1784 0.930 . S
H1776 C1789 0.929 . S
H1777 C1787 0.929 . S
H1778 C1782 0.929 . S
H1779 C1788 0.929 . S
C1780 H1774 0.930 . S
C1780 C1781 1.367 . S
C1780 C1788 1.378 . S
C1781 C1780 1.367 . S
C1781 C1789 1.433 . S
C1782 H1778 0.929 . S
C1782 C1784 1.378 . S
C1782 C1786 1.350 . S
C1783 C1786 1.463 . S
C1783 C1788 1.350 . S
C1783 N1791 1.427 . S
C1784 H1775 0.930 . S
C1784 C1782 1.378 . S
C1784 C1785 1.367 . S
C1785 C1784 1.367 . S
C1785 C1787 1.433 . S
C1786 C1782 1.350 . S
C1786 C1783 1.463 . S
C1786 N1790 1.427 . S
C1787 H1777 0.929 . S
C1787 C1785 1.433 . S
C1787 N1790 1.384 . S
C1788 H1779 0.929 . S
C1788 C1780 1.378 . S
C1788 C1783 1.350 . S
C1789 H1776 0.929 . S
C1789 C1781 1.433 . S
C1789 N1791 1.384 . S
N1790 C1786 1.427 . S
N1790 C1787 1.384 . S
N1791 C1783 1.427 . S
N1791 C1789 1.384 . S
H1792 C1798 0.930 . S
H1793 C1802 0.930 . S
H1794 C1807 0.929 . S
H1795 C1805 0.929 . S
H1796 C1800 0.929 . S
H1797 C1806 0.929 . S
C1798 H1792 0.930 . S
C1798 C1799 1.367 . S
C1798 C1806 1.378 . S
C1799 C1798 1.367 . S
C1799 C1807 1.433 . S
C1800 H1796 0.929 . S
C1800 C1802 1.378 . S
C1800 C1804 1.350 . S
C1801 C1804 1.463 . S
C1801 C1806 1.350 . S
C1801 N1809 1.427 . S
C1802 H1793 0.930 . S
C1802 C1800 1.378 . S
C1802 C1803 1.367 . S
C1803 C1802 1.367 . S
C1803 C1805 1.433 . S
C1804 C1800 1.350 . S
C1804 C1801 1.463 . S
C1804 N1808 1.427 . S
C1805 H1795 0.929 . S
C1805 C1803 1.433 . S
C1805 N1808 1.384 . S
C1806 H1797 0.929 . S
C1806 C1798 1.378 . S
C1806 C1801 1.350 . S
C1807 H1794 0.929 . S
C1807 C1799 1.433 . S
C1807 N1809 1.384 . S
N1808 C1804 1.427 . S
N1808 C1805 1.384 . S
N1809 C1801 1.427 . S
N1809 C1807 1.384 . S
H1810 C1816 0.930 . S
H1811 C1820 0.930 . S
H1812 C1825 0.929 . S
H1813 C1823 0.929 . S
H1814 C1818 0.929 . S
H1815 C1824 0.929 . S
C1816 H1810 0.930 . S
C1816 C1817 1.367 . S
C1816 C1824 1.378 . S
C1817 C1816 1.367 . S
C1817 C1825 1.433 . S
C1818 H1814 0.929 . S
C1818 C1820 1.378 . S
C1818 C1822 1.350 . S
C1819 C1822 1.463 . S
C1819 C1824 1.350 . S
C1819 N1827 1.427 . S
C1820 H1811 0.930 . S
C1820 C1818 1.378 . S
C1820 C1821 1.367 . S
C1821 C1820 1.367 . S
C1821 C1823 1.433 . S
C1822 C1818 1.350 . S
C1822 C1819 1.463 . S
C1822 N1826 1.427 . S
C1823 H1813 0.929 . S
C1823 C1821 1.433 . S
C1823 N1826 1.384 . S
C1824 H1815 0.929 . S
C1824 C1816 1.378 . S
C1824 C1819 1.350 . S
C1825 H1812 0.929 . S
C1825 C1817 1.433 . S
C1825 N1827 1.384 . S
N1826 C1822 1.427 . S
N1826 C1823 1.384 . S
N1827 C1819 1.427 . S
N1827 C1825 1.384 . S
H1828 C1834 0.930 . S
H1829 C1838 0.930 . S
H1830 C1843 0.929 . S
H1831 C1841 0.929 . S
H1832 C1836 0.929 . S
H1833 C1842 0.929 1_455 S
C1834 H1828 0.930 . S
C1834 C1835 1.367 . S
C1834 C1842 1.378 1_554 S
C1835 C1834 1.367 . S
C1835 C1843 1.433 1_554 S
C1836 H1832 0.929 . S
C1836 C1838 1.378 1_655 S
C1836 C1840 1.339 1_655 S
C1837 C1840 1.436 1_655 S
C1837 C1842 1.350 . S
C1837 N1845 1.427 . S
C1838 H1829 0.930 . S
C1838 C1836 1.378 1_455 S
C1838 C1839 1.367 . S
C1839 C1838 1.367 . S
C1839 C1841 1.433 . S
C1840 C1836 1.339 1_455 S
C1840 C1837 1.436 1_455 S
C1840 N1844 1.468 . S
C1841 H1831 0.929 . S
C1841 C1839 1.433 . S
C1841 N1844 1.384 . S
C1842 H1833 0.929 1_655 S
C1842 C1834 1.378 1_556 S
C1842 C1837 1.350 . S
C1843 H1830 0.929 . S
C1843 C1835 1.433 1_556 S
C1843 N1845 1.384 . S
N1844 C1840 1.468 . S
N1844 C1841 1.384 . S
N1845 C1837 1.427 . S
N1845 C1843 1.384 . S
H1846 C1852 0.930 . S
H1847 C1856 0.930 . S
H1848 C1861 0.929 . S
H1849 C1859 0.929 . S
H1850 C1854 0.929 . S
H1851 C1860 0.929 . S
C1852 H1846 0.930 . S
C1852 C1853 1.367 . S
C1852 C1860 1.378 . S
C1853 C1852 1.367 . S
C1853 C1861 1.433 . S
C1854 H1850 0.929 . S
C1854 C1856 1.378 . S
C1854 C1858 1.350 . S
C1855 C1858 1.463 . S
C1855 C1860 1.350 . S
C1855 N1863 1.427 . S
C1856 H1847 0.930 . S
C1856 C1854 1.378 . S
C1856 C1857 1.367 . S
C1857 C1856 1.367 . S
C1857 C1859 1.433 . S
C1858 C1854 1.350 . S
C1858 C1855 1.463 . S
C1858 N1862 1.427 . S
C1859 H1849 0.929 . S
C1859 C1857 1.433 . S
C1859 N1862 1.384 . S
C1860 H1851 0.929 . S
C1860 C1852 1.378 . S
C1860 C1855 1.350 . S
C1861 H1848 0.929 . S
C1861 C1853 1.433 . S
C1861 N1863 1.384 . S
N1862 C1858 1.427 . S
N1862 C1859 1.384 . S
N1863 C1855 1.427 . S
N1863 C1861 1.384 . S
H1864 C1870 0.930 . S
H1865 C1874 0.930 . S
H1866 C1879 0.929 . S
H1867 C1877 0.929 . S
H1868 C1872 0.929 . S
H1869 C1878 0.929 . S
C1870 H1864 0.930 . S
C1870 C1871 1.367 . S
C1870 C1878 1.378 . S
C1871 C1870 1.367 . S
C1871 C1879 1.433 . S
C1872 H1868 0.929 . S
C1872 C1874 1.378 . S
C1872 C1876 1.350 . S
C1873 C1876 1.463 . S
C1873 C1878 1.350 . S
C1873 N1881 1.427 . S
C1874 H1865 0.930 . S
C1874 C1872 1.378 . S
C1874 C1875 1.367 . S
C1875 C1874 1.367 . S
C1875 C1877 1.433 . S
C1876 C1872 1.350 . S
C1876 C1873 1.463 . S
C1876 N1880 1.427 . S
C1877 H1867 0.929 . S
C1877 C1875 1.433 . S
C1877 N1880 1.384 . S
C1878 H1869 0.929 . S
C1878 C1870 1.378 . S
C1878 C1873 1.350 . S
C1879 H1866 0.929 . S
C1879 C1871 1.433 . S
C1879 N1881 1.384 . S
N1880 C1876 1.427 . S
N1880 C1877 1.384 . S
N1881 C1873 1.427 . S
N1881 C1879 1.384 . S
H1882 C1888 0.930 . S
H1883 C1892 0.930 . S
H1884 C1897 0.929 . S
H1885 C1895 0.929 . S
H1886 C1890 0.929 . S
H1887 C1896 0.929 . S
C1888 H1882 0.930 . S
C1888 C1889 1.367 . S
C1888 C1896 1.378 . S
C1889 C1888 1.367 . S
C1889 C1897 1.433 . S
C1890 H1886 0.929 . S
C1890 C1892 1.378 . S
C1890 C1894 1.350 . S
C1891 C1894 1.463 . S
C1891 C1896 1.350 . S
C1891 N1899 1.427 . S
C1892 H1883 0.930 . S
C1892 C1890 1.378 . S
C1892 C1893 1.367 . S
C1893 C1892 1.367 . S
C1893 C1895 1.433 . S
C1894 C1890 1.350 . S
C1894 C1891 1.463 . S
C1894 N1898 1.427 . S
C1895 H1885 0.929 . S
C1895 C1893 1.433 . S
C1895 N1898 1.384 . S
C1896 H1887 0.929 . S
C1896 C1888 1.378 . S
C1896 C1891 1.350 . S
C1897 H1884 0.929 . S
C1897 C1889 1.433 . S
C1897 N1899 1.384 . S
N1898 C1894 1.427 . S
N1898 C1895 1.384 . S
N1899 C1891 1.427 . S
N1899 C1897 1.384 . S
H1900 C1906 0.930 . S
H1901 C1910 0.930 . S
H1902 C1915 0.929 . S
H1903 C1913 0.929 . S
H1904 C1908 0.929 . S
H1905 C1914 0.929 . S
C1906 H1900 0.930 . S
C1906 C1907 1.367 . S
C1906 C1914 1.378 . S
C1907 C1906 1.367 . S
C1907 C1915 1.433 . S
C1908 H1904 0.929 . S
C1908 C1910 1.378 . S
C1908 C1912 1.350 . S
C1909 C1912 1.463 1_455 S
C1909 C1914 1.350 . S
C1909 N1917 1.427 . S
C1910 H1901 0.930 . S
C1910 C1908 1.378 . S
C1910 C1911 1.367 . S
C1911 C1910 1.367 . S
C1911 C1913 1.433 . S
C1912 C1908 1.350 . S
C1912 C1909 1.463 1_655 S
C1912 N1916 1.427 . S
C1913 H1903 0.929 . S
C1913 C1911 1.433 . S
C1913 N1916 1.384 . S
C1914 H1905 0.929 . S
C1914 C1906 1.378 . S
C1914 C1909 1.350 . S
C1915 H1902 0.929 . S
C1915 C1907 1.433 . S
C1915 N1917 1.384 . S
N1916 C1912 1.427 . S
N1916 C1913 1.384 . S
N1917 C1909 1.427 . S
N1917 C1915 1.384 . S
H1918 C1924 0.930 . S
H1919 C1928 0.930 . S
H1920 C1933 0.929 . S
H1921 C1931 0.929 . S
H1922 C1926 0.929 . S
H1923 C1932 0.929 . S
C1924 H1918 0.930 . S
C1924 C1925 1.367 . S
C1924 C1932 1.378 . S
C1925 C1924 1.367 . S
C1925 C1933 1.433 . S
C1926 H1922 0.929 . S
C1926 C1928 1.378 . S
C1926 C1930 1.350 1_556 S
C1927 C1930 1.463 . S
C1927 C1932 1.350 . S
C1927 N1935 1.427 . S
C1928 H1919 0.930 . S
C1928 C1926 1.378 . S
C1928 C1929 1.367 . S
C1929 C1928 1.367 . S
C1929 C1931 1.433 . S
C1930 C1926 1.350 1_554 S
C1930 C1927 1.463 . S
C1930 N1934 1.427 . S
C1931 H1921 0.929 . S
C1931 C1929 1.433 . S
C1931 N1934 1.384 1_556 S
C1932 H1923 0.929 . S
C1932 C1924 1.378 . S
C1932 C1927 1.350 . S
C1933 H1920 0.929 . S
C1933 C1925 1.433 . S
C1933 N1935 1.384 . S
N1934 C1930 1.427 . S
N1934 C1931 1.384 1_554 S
N1935 C1927 1.427 . S
N1935 C1933 1.384 . S
H1936 C1942 0.930 . S
H1937 C1946 0.930 . S
H1938 C1951 0.929 . S
H1939 C1949 0.929 . S
H1940 C1944 0.929 . S
H1941 C1950 0.929 . S
C1942 H1936 0.930 . S
C1942 C1943 1.367 . S
C1942 C1950 1.378 . S
C1943 C1942 1.367 . S
C1943 C1951 1.433 . S
C1944 H1940 0.929 . S
C1944 C1946 1.378 . S
C1944 C1948 1.350 . S
C1945 C1948 1.463 . S
C1945 C1950 1.350 . S
C1945 N1953 1.427 . S
C1946 H1937 0.930 . S
C1946 C1944 1.378 . S
C1946 C1947 1.367 . S
C1947 C1946 1.367 . S
C1947 C1949 1.433 . S
C1948 C1944 1.350 . S
C1948 C1945 1.463 . S
C1948 N1952 1.427 . S
C1949 H1939 0.929 . S
C1949 C1947 1.433 . S
C1949 N1952 1.384 . S
C1950 H1941 0.929 . S
C1950 C1942 1.378 . S
C1950 C1945 1.350 . S
C1951 H1938 0.929 . S
C1951 C1943 1.433 . S
C1951 N1953 1.384 . S
N1952 C1948 1.427 . S
N1952 C1949 1.384 . S
N1953 C1945 1.427 . S
N1953 C1951 1.384 . S
H1954 C1960 0.930 . S
H1955 C1964 0.930 . S
H1956 C1969 0.929 . S
H1957 C1967 0.929 . S
H1958 C1962 0.929 . S
H1959 C1968 0.929 . S
C1960 H1954 0.930 . S
C1960 C1961 1.367 . S
C1960 C1968 1.378 . S
C1961 C1960 1.367 . S
C1961 C1969 1.433 . S
C1962 H1958 0.929 . S
C1962 C1964 1.378 . S
C1962 C1966 1.350 . S
C1963 C1966 1.463 . S
C1963 C1968 1.350 . S
C1963 N1971 1.427 . S
C1964 H1955 0.930 . S
C1964 C1962 1.378 . S
C1964 C1965 1.367 . S
C1965 C1964 1.367 . S
C1965 C1967 1.433 . S
C1966 C1962 1.350 . S
C1966 C1963 1.463 . S
C1966 N1970 1.427 . S
C1967 H1957 0.929 . S
C1967 C1965 1.433 . S
C1967 N1970 1.384 . S
C1968 H1959 0.929 . S
C1968 C1960 1.378 . S
C1968 C1963 1.350 . S
C1969 H1956 0.929 . S
C1969 C1961 1.433 . S
C1969 N1971 1.384 . S
N1970 C1966 1.427 . S
N1970 C1967 1.384 . S
N1971 C1963 1.427 . S
N1971 C1969 1.384 . S
H1972 C1978 0.930 . S
H1973 C1982 0.930 . S
H1974 C1987 0.929 . S
H1975 C1985 0.929 . S
H1976 C1980 0.929 . S
H1977 C1986 0.929 1_655 S
C1978 H1972 0.930 . S
C1978 C1979 1.367 . S
C1978 C1986 1.378 . S
C1979 C1978 1.367 . S
C1979 C1987 1.433 . S
C1980 H1976 0.929 . S
C1980 C1982 1.378 1_455 S
C1980 C1984 1.350 1_455 S
C1981 C1984 1.463 1_455 S
C1981 C1986 1.350 . S
C1981 N1989 1.427 . S
C1982 H1973 0.930 . S
C1982 C1980 1.378 1_655 S
C1982 C1983 1.367 . S
C1983 C1982 1.367 . S
C1983 C1985 1.433 . S
C1984 C1980 1.350 1_655 S
C1984 C1981 1.463 1_655 S
C1984 N1988 1.427 . S
C1985 H1975 0.929 . S
C1985 C1983 1.433 . S
C1985 N1988 1.384 . S
C1986 H1977 0.929 1_455 S
C1986 C1978 1.378 . S
C1986 C1981 1.350 . S
C1987 H1974 0.929 . S
C1987 C1979 1.433 . S
C1987 N1989 1.384 . S
N1988 C1984 1.427 . S
N1988 C1985 1.384 . S
N1989 C1981 1.427 . S
N1989 C1987 1.384 . S
H1990 C1996 0.930 . S
H1991 C2000 0.930 . S
H1992 C2005 0.929 . S
H1993 C2003 0.929 . S
H1994 C1998 0.929 . S
H1995 C2004 0.929 . S
C1996 H1990 0.930 . S
C1996 C1997 1.367 . S
C1996 C2004 1.378 . S
C1997 C1996 1.367 . S
C1997 C2005 1.433 . S
C1998 H1994 0.929 . S
C1998 C2000 1.378 . S
C1998 C2002 1.350 . S
C1999 C2002 1.463 . S
C1999 C2004 1.350 1_554 S
C1999 N2007 1.427 . S
C2000 H1991 0.930 . S
C2000 C1998 1.378 . S
C2000 C2001 1.367 . S
C2001 C2000 1.367 . S
C2001 C2003 1.433 . S
C2002 C1998 1.350 . S
C2002 C1999 1.463 . S
C2002 N2006 1.427 . S
C2003 H1993 0.929 . S
C2003 C2001 1.433 . S
C2003 N2006 1.384 . S
C2004 H1995 0.929 . S
C2004 C1996 1.378 . S
C2004 C1999 1.350 1_556 S
C2005 H1992 0.929 . S
C2005 C1997 1.433 . S
C2005 N2007 1.384 1_556 S
N2006 C2002 1.427 . S
N2006 C2003 1.384 . S
N2007 C1999 1.427 . S
N2007 C2005 1.384 1_554 S
H2008 C2014 0.930 . S
H2009 C2018 0.930 . S
H2010 C2023 0.929 . S
H2011 C2021 0.929 . S
H2012 C2016 0.929 . S
H2013 C2022 0.929 . S
C2014 H2008 0.930 . S
C2014 C2015 1.367 . S
C2014 C2022 1.378 . S
C2015 C2014 1.367 . S
C2015 C2023 1.433 . S
C2016 H2012 0.929 . S
C2016 C2018 1.378 . S
C2016 C2020 1.350 . S
C2017 C2020 1.463 . S
C2017 C2022 1.350 . S
C2017 N2025 1.427 . S
C2018 H2009 0.930 . S
C2018 C2016 1.378 . S
C2018 C2019 1.367 . S
C2019 C2018 1.367 . S
C2019 C2021 1.433 . S
C2020 C2016 1.350 . S
C2020 C2017 1.463 . S
C2020 N2024 1.427 . S
C2021 H2011 0.929 . S
C2021 C2019 1.433 . S
C2021 N2024 1.384 . S
C2022 H2013 0.929 . S
C2022 C2014 1.378 . S
C2022 C2017 1.350 . S
C2023 H2010 0.929 . S
C2023 C2015 1.433 . S
C2023 N2025 1.384 . S
N2024 C2020 1.427 . S
N2024 C2021 1.384 . S
N2025 C2017 1.427 . S
N2025 C2023 1.384 . S
H2026 C2032 0.930 . S
H2027 C2036 0.930 . S
H2028 C2041 0.929 . S
H2029 C2039 0.929 . S
H2030 C2034 0.929 . S
H2031 C2040 0.929 . S
C2032 H2026 0.930 . S
C2032 C2033 1.367 . S
C2032 C2040 1.378 . S
C2033 C2032 1.367 . S
C2033 C2041 1.433 . S
C2034 H2030 0.929 . S
C2034 C2036 1.378 . S
C2034 C2038 1.350 . S
C2035 C2038 1.463 . S
C2035 C2040 1.350 . S
C2035 N2043 1.427 . S
C2036 H2027 0.930 . S
C2036 C2034 1.378 . S
C2036 C2037 1.367 . S
C2037 C2036 1.367 . S
C2037 C2039 1.433 . S
C2038 C2034 1.350 . S
C2038 C2035 1.463 . S
C2038 N2042 1.427 . S
C2039 H2029 0.929 . S
C2039 C2037 1.433 . S
C2039 N2042 1.384 . S
C2040 H2031 0.929 . S
C2040 C2032 1.378 . S
C2040 C2035 1.350 . S
C2041 H2028 0.929 . S
C2041 C2033 1.433 . S
C2041 N2043 1.384 . S
N2042 C2038 1.427 . S
N2042 C2039 1.384 . S
N2043 C2035 1.427 . S
N2043 C2041 1.384 . S
H2044 C2050 0.930 . S
H2045 C2054 0.930 . S
H2046 C2059 0.929 . S
H2047 C2057 0.929 . S
H2048 C2052 0.929 . S
H2049 C2058 0.929 . S
C2050 H2044 0.930 . S
C2050 C2051 1.367 . S
C2050 C2058 1.378 . S
C2051 C2050 1.367 . S
C2051 C2059 1.433 . S
C2052 H2048 0.929 . S
C2052 C2054 1.378 . S
C2052 C2056 1.350 . S
C2053 C2056 1.463 1_455 S
C2053 C2058 1.350 . S
C2053 N2061 1.427 . S
C2054 H2045 0.930 . S
C2054 C2052 1.378 . S
C2054 C2055 1.367 . S
C2055 C2054 1.367 . S
C2055 C2057 1.433 . S
C2056 C2052 1.350 . S
C2056 C2053 1.463 1_655 S
C2056 N2060 1.427 . S
C2057 H2047 0.929 . S
C2057 C2055 1.433 . S
C2057 N2060 1.384 . S
C2058 H2049 0.929 . S
C2058 C2050 1.378 . S
C2058 C2053 1.350 . S
C2059 H2046 0.929 . S
C2059 C2051 1.433 . S
C2059 N2061 1.384 . S
N2060 C2056 1.427 . S
N2060 C2057 1.384 . S
N2061 C2053 1.427 . S
N2061 C2059 1.384 . S
H2062 C2068 0.930 . S
H2063 C2072 0.930 . S
H2064 C2077 0.929 . S
H2065 C2075 0.929 . S
H2066 C2070 0.929 . S
H2067 C2076 0.929 . S
C2068 H2062 0.930 . S
C2068 C2069 1.367 . S
C2068 C2076 1.378 . S
C2069 C2068 1.367 . S
C2069 C2077 1.433 . S
C2070 H2066 0.929 . S
C2070 C2072 1.378 . S
C2070 C2074 1.350 . S
C2071 C2074 1.463 . S
C2071 C2076 1.350 . S
C2071 N2079 1.427 . S
C2072 H2063 0.930 . S
C2072 C2070 1.378 . S
C2072 C2073 1.367 . S
C2073 C2072 1.367 . S
C2073 C2075 1.433 . S
C2074 C2070 1.350 . S
C2074 C2071 1.463 . S
C2074 N2078 1.427 . S
C2075 H2065 0.929 . S
C2075 C2073 1.433 . S
C2075 N2078 1.384 . S
C2076 H2067 0.929 . S
C2076 C2068 1.378 . S
C2076 C2071 1.350 . S
C2077 H2064 0.929 . S
C2077 C2069 1.433 . S
C2077 N2079 1.384 . S
N2078 C2074 1.427 . S
N2078 C2075 1.384 . S
N2079 C2071 1.427 . S
N2079 C2077 1.384 . S
H2080 C2086 0.930 . S
H2081 C2090 0.930 . S
H2082 C2095 0.929 . S
H2083 C2093 0.929 . S
H2084 C2088 0.929 . S
H2085 C2094 0.929 . S
C2086 H2080 0.930 . S
C2086 C2087 1.367 . S
C2086 C2094 1.378 . S
C2087 C2086 1.367 . S
C2087 C2095 1.433 . S
C2088 H2084 0.929 . S
C2088 C2090 1.378 . S
C2088 C2092 1.350 . S
C2089 C2092 1.463 . S
C2089 C2094 1.350 . S
C2089 N2097 1.427 . S
C2090 H2081 0.930 . S
C2090 C2088 1.378 . S
C2090 C2091 1.367 . S
C2091 C2090 1.367 . S
C2091 C2093 1.433 . S
C2092 C2088 1.350 . S
C2092 C2089 1.463 . S
C2092 N2096 1.427 . S
C2093 H2083 0.929 . S
C2093 C2091 1.433 . S
C2093 N2096 1.384 . S
C2094 H2085 0.929 . S
C2094 C2086 1.378 . S
C2094 C2089 1.350 . S
C2095 H2082 0.929 . S
C2095 C2087 1.433 . S
C2095 N2097 1.384 . S
N2096 C2092 1.427 . S
N2096 C2093 1.384 . S
N2097 C2089 1.427 . S
N2097 C2095 1.384 . S
H2098 C2104 0.930 1_556 S
H2099 C2108 0.930 . S
H2100 C2113 0.929 . S
H2101 C2111 0.929 . S
H2102 C2106 0.929 . S
H2103 C2112 0.929 . S
C2104 H2098 0.930 1_554 S
C2104 C2105 1.367 . S
C2104 C2112 1.378 . S
C2105 C2104 1.367 . S
C2105 C2113 1.433 . S
C2106 H2102 0.929 . S
C2106 C2108 1.378 . S
C2106 C2110 1.350 . S
C2107 C2110 1.463 . S
C2107 C2112 1.350 . S
C2107 N2115 1.427 . S
C2108 H2099 0.930 . S
C2108 C2106 1.378 . S
C2108 C2109 1.367 . S
C2109 C2108 1.367 . S
C2109 C2111 1.433 . S
C2110 C2106 1.350 . S
C2110 C2107 1.463 . S
C2110 N2114 1.427 . S
C2111 H2101 0.929 . S
C2111 C2109 1.433 . S
C2111 N2114 1.384 . S
C2112 H2103 0.929 . S
C2112 C2104 1.378 . S
C2112 C2107 1.350 . S
C2113 H2100 0.929 . S
C2113 C2105 1.433 . S
C2113 N2115 1.384 . S
N2114 C2110 1.427 . S
N2114 C2111 1.384 . S
N2115 C2107 1.427 . S
N2115 C2113 1.384 . S
H2116 C2122 0.930 . S
H2117 C2126 0.930 . S
H2118 C2131 0.929 . S
H2119 C2129 0.929 . S
H2120 C2124 0.929 . S
H2121 C2130 0.929 . S
C2122 H2116 0.930 . S
C2122 C2123 1.367 . S
C2122 C2130 1.378 . S
C2123 C2122 1.367 . S
C2123 C2131 1.433 . S
C2124 H2120 0.929 . S
C2124 C2126 1.378 . S
C2124 C2128 1.350 . S
C2125 C2128 1.463 . S
C2125 C2130 1.350 . S
C2125 N2133 1.427 . S
C2126 H2117 0.930 . S
C2126 C2124 1.378 . S
C2126 C2127 1.367 . S
C2127 C2126 1.367 . S
C2127 C2129 1.433 . S
C2128 C2124 1.350 . S
C2128 C2125 1.463 . S
C2128 N2132 1.427 . S
C2129 H2119 0.929 . S
C2129 C2127 1.433 . S
C2129 N2132 1.384 . S
C2130 H2121 0.929 . S
C2130 C2122 1.378 . S
C2130 C2125 1.350 . S
C2131 H2118 0.929 . S
C2131 C2123 1.433 . S
C2131 N2133 1.384 . S
N2132 C2128 1.427 . S
N2132 C2129 1.384 . S
N2133 C2125 1.427 . S
N2133 C2131 1.384 . S
H2134 C2140 0.930 . S
H2135 C2144 0.930 . S
H2136 C2149 0.929 . S
H2137 C2147 0.929 . S
H2138 C2142 0.929 . S
H2139 C2148 0.929 . S
C2140 H2134 0.930 . S
C2140 C2141 1.367 . S
C2140 C2148 1.378 . S
C2141 C2140 1.367 . S
C2141 C2149 1.433 . S
C2142 H2138 0.929 . S
C2142 C2144 1.378 . S
C2142 C2146 1.350 . S
C2143 C2146 1.463 . S
C2143 C2148 1.350 . S
C2143 N2151 1.427 . S
C2144 H2135 0.930 . S
C2144 C2142 1.378 . S
C2144 C2145 1.367 . S
C2145 C2144 1.367 . S
C2145 C2147 1.433 . S
C2146 C2142 1.350 . S
C2146 C2143 1.463 . S
C2146 N2150 1.427 . S
C2147 H2137 0.929 . S
C2147 C2145 1.433 . S
C2147 N2150 1.384 . S
C2148 H2139 0.929 . S
C2148 C2140 1.378 . S
C2148 C2143 1.350 . S
C2149 H2136 0.929 . S
C2149 C2141 1.433 . S
C2149 N2151 1.384 . S
N2150 C2146 1.427 . S
N2150 C2147 1.384 . S
N2151 C2143 1.427 . S
N2151 C2149 1.384 . S
H2152 C2158 0.930 . S
H2153 C2162 0.930 . S
H2154 C2167 0.929 . S
H2155 C2165 0.929 . S
H2156 C2160 0.929 . S
H2157 C2166 0.929 . S
C2158 H2152 0.930 . S
C2158 C2159 1.367 . S
C2158 C2166 1.378 . S
C2159 C2158 1.367 . S
C2159 C2167 1.433 . S
C2160 H2156 0.929 . S
C2160 C2162 1.378 . S
C2160 C2164 1.350 . S
C2161 C2164 1.463 . S
C2161 C2166 1.350 . S
C2161 N2169 1.427 . S
C2162 H2153 0.930 . S
C2162 C2160 1.378 . S
C2162 C2163 1.367 . S
C2163 C2162 1.367 . S
C2163 C2165 1.433 . S
C2164 C2160 1.350 . S
C2164 C2161 1.463 . S
C2164 N2168 1.427 . S
C2165 H2155 0.929 . S
C2165 C2163 1.433 . S
C2165 N2168 1.384 . S
C2166 H2157 0.929 . S
C2166 C2158 1.378 . S
C2166 C2161 1.350 . S
C2167 H2154 0.929 . S
C2167 C2159 1.433 . S
C2167 N2169 1.384 . S
N2168 C2164 1.427 . S
N2168 C2165 1.384 . S
N2169 C2161 1.427 . S
N2169 C2167 1.384 . S
H2170 C2176 0.930 . S
H2171 C2180 0.930 . S
H2172 C2185 0.929 . S
H2173 C2183 0.929 . S
H2174 C2178 0.929 . S
H2175 C2184 0.929 . S
C2176 H2170 0.930 . S
C2176 C2177 1.367 . S
C2176 C2184 1.378 . S
C2177 C2176 1.367 . S
C2177 C2185 1.433 . S
C2178 H2174 0.929 . S
C2178 C2180 1.378 . S
C2178 C2182 1.350 . S
C2179 C2182 1.463 . S
C2179 C2184 1.350 . S
C2179 N2187 1.427 . S
C2180 H2171 0.930 . S
C2180 C2178 1.378 . S
C2180 C2181 1.367 . S
C2181 C2180 1.367 . S
C2181 C2183 1.433 . S
C2182 C2178 1.350 . S
C2182 C2179 1.463 . S
C2182 N2186 1.427 . S
C2183 H2173 0.929 . S
C2183 C2181 1.433 . S
C2183 N2186 1.384 . S
C2184 H2175 0.929 . S
C2184 C2176 1.378 . S
C2184 C2179 1.350 . S
C2185 H2172 0.929 . S
C2185 C2177 1.433 . S
C2185 N2187 1.384 . S
N2186 C2182 1.427 . S
N2186 C2183 1.384 . S
N2187 C2179 1.427 . S
N2187 C2185 1.384 . S
H2188 C2194 0.930 . S
H2189 C2198 0.930 . S
H2190 C2203 0.929 . S
H2191 C2201 0.929 . S
H2192 C2196 0.929 . S
H2193 C2202 0.929 . S
C2194 H2188 0.930 . S
C2194 C2195 1.367 . S
C2194 C2202 1.378 . S
C2195 C2194 1.367 . S
C2195 C2203 1.433 . S
C2196 H2192 0.929 . S
C2196 C2198 1.378 . S
C2196 C2200 1.350 . S
C2197 C2200 1.463 . S
C2197 C2202 1.350 . S
C2197 N2205 1.427 . S
C2198 H2189 0.930 . S
C2198 C2196 1.378 . S
C2198 C2199 1.367 . S
C2199 C2198 1.367 . S
C2199 C2201 1.433 . S
C2200 C2196 1.350 . S
C2200 C2197 1.463 . S
C2200 N2204 1.427 . S
C2201 H2191 0.929 . S
C2201 C2199 1.433 . S
C2201 N2204 1.384 . S
C2202 H2193 0.929 . S
C2202 C2194 1.378 . S
C2202 C2197 1.350 . S
C2203 H2190 0.929 . S
C2203 C2195 1.433 . S
C2203 N2205 1.384 . S
N2204 C2200 1.427 . S
N2204 C2201 1.384 . S
N2205 C2197 1.427 . S
N2205 C2203 1.384 . S
H2206 C2212 0.930 . S
H2207 C2216 0.930 . S
H2208 C2221 0.929 . S
H2209 C2219 0.929 . S
H2210 C2214 0.929 . S
H2211 C2220 0.929 . S
C2212 H2206 0.930 . S
C2212 C2213 1.367 . S
C2212 C2220 1.378 . S
C2213 C2212 1.367 . S
C2213 C2221 1.433 . S
C2214 H2210 0.929 . S
C2214 C2216 1.378 . S
C2214 C2218 1.350 . S
C2215 C2218 1.463 . S
C2215 C2220 1.350 . S
C2215 N2223 1.427 . S
C2216 H2207 0.930 . S
C2216 C2214 1.378 . S
C2216 C2217 1.367 . S
C2217 C2216 1.367 . S
C2217 C2219 1.433 . S
C2218 C2214 1.350 . S
C2218 C2215 1.463 . S
C2218 N2222 1.427 . S
C2219 H2209 0.929 . S
C2219 C2217 1.433 . S
C2219 N2222 1.384 . S
C2220 H2211 0.929 . S
C2220 C2212 1.378 . S
C2220 C2215 1.350 . S
C2221 H2208 0.929 . S
C2221 C2213 1.433 . S
C2221 N2223 1.384 . S
N2222 C2218 1.427 . S
N2222 C2219 1.384 . S
N2223 C2215 1.427 . S
N2223 C2221 1.384 . S
H2224 C2230 0.930 . S
H2225 C2234 0.930 . S
H2226 C2239 0.929 . S
H2227 C2237 0.929 . S
H2228 C2232 0.929 . S
H2229 C2238 0.929 . S
C2230 H2224 0.930 . S
C2230 C2231 1.367 . S
C2230 C2238 1.378 . S
C2231 C2230 1.367 . S
C2231 C2239 1.433 . S
C2232 H2228 0.929 . S
C2232 C2234 1.378 . S
C2232 C2236 1.350 . S
C2233 C2236 1.463 1_565 S
C2233 C2238 1.350 . S
C2233 N2241 1.410 1_565 S
C2234 H2225 0.930 . S
C2234 C2232 1.378 . S
C2234 C2235 1.367 . S
C2235 C2234 1.367 . S
C2235 C2237 1.433 . S
C2236 C2232 1.350 . S
C2236 C2233 1.463 1_545 S
C2236 N2240 1.410 1_545 S
C2237 H2227 0.929 . S
C2237 C2235 1.433 . S
C2237 N2240 1.359 1_545 S
C2238 H2229 0.929 . S
C2238 C2230 1.378 . S
C2238 C2233 1.350 . S
C2239 H2226 0.929 . S
C2239 C2231 1.433 . S
C2239 N2241 1.359 1_565 S
N2240 C2236 1.410 1_565 S
N2240 C2237 1.359 1_565 S
N2241 C2233 1.410 1_545 S
N2241 C2239 1.359 1_545 S
H2242 C2248 0.930 . S
H2243 C2252 0.930 . S
H2244 C2257 0.929 . S
H2245 C2255 0.929 . S
H2246 C2250 0.929 . S
H2247 C2256 0.929 . S
C2248 H2242 0.930 . S
C2248 C2249 1.367 . S
C2248 C2256 1.378 . S
C2249 C2248 1.367 . S
C2249 C2257 1.433 . S
C2250 H2246 0.929 . S
C2250 C2252 1.378 . S
C2250 C2254 1.350 . S
C2251 C2254 1.463 . S
C2251 C2256 1.350 . S
C2251 N2259 1.427 . S
C2252 H2243 0.930 . S
C2252 C2250 1.378 . S
C2252 C2253 1.367 . S
C2253 C2252 1.367 . S
C2253 C2255 1.433 . S
C2254 C2250 1.350 . S
C2254 C2251 1.463 . S
C2254 N2258 1.427 . S
C2255 H2245 0.929 . S
C2255 C2253 1.433 . S
C2255 N2258 1.384 . S
C2256 H2247 0.929 . S
C2256 C2248 1.378 . S
C2256 C2251 1.350 . S
C2257 H2244 0.929 . S
C2257 C2249 1.433 . S
C2257 N2259 1.384 . S
N2258 C2254 1.427 . S
N2258 C2255 1.384 . S
N2259 C2251 1.427 . S
N2259 C2257 1.384 . S
H2260 C2266 0.930 . S
H2261 C2270 0.930 . S
H2262 C2275 0.929 1_565 S
H2263 C2273 0.929 1_545 S
H2264 C2268 0.929 . S
H2265 C2274 0.929 . S
C2266 H2260 0.930 . S
C2266 C2267 1.367 . S
C2266 C2274 1.378 . S
C2267 C2266 1.367 . S
C2267 C2275 1.433 . S
C2268 H2264 0.929 . S
C2268 C2270 1.378 . S
C2268 C2272 1.350 . S
C2269 C2272 1.463 1_545 S
C2269 C2274 1.350 . S
C2269 N2277 1.427 1_545 S
C2270 H2261 0.930 . S
C2270 C2268 1.378 . S
C2270 C2271 1.367 . S
C2271 C2270 1.367 . S
C2271 C2273 1.433 . S
C2272 C2268 1.350 . S
C2272 C2269 1.463 1_565 S
C2272 N2276 1.427 1_565 S
C2273 H2263 0.929 1_565 S
C2273 C2271 1.433 . S
C2273 N2276 1.384 1_565 S
C2274 H2265 0.929 . S
C2274 C2266 1.378 . S
C2274 C2269 1.350 . S
C2275 H2262 0.929 1_545 S
C2275 C2267 1.433 . S
C2275 N2277 1.384 1_545 S
N2276 C2272 1.427 1_545 S
N2276 C2273 1.384 1_545 S
N2277 C2269 1.427 1_565 S
N2277 C2275 1.384 1_565 S
H2278 C2284 0.930 . S
H2279 C2288 0.930 1_556 S
H2280 C2293 0.929 . S
H2281 C2291 0.929 . S
H2282 C2286 0.929 . S
H2283 C2292 0.929 . S
C2284 H2278 0.930 . S
C2284 C2285 1.367 . S
C2284 C2292 1.378 . S
C2285 C2284 1.367 . S
C2285 C2293 1.433 . S
C2286 H2282 0.929 . S
C2286 C2288 1.378 . S
C2286 C2290 1.350 . S
C2287 C2290 1.463 . S
C2287 C2292 1.350 . S
C2287 N2295 1.427 . S
C2288 H2279 0.930 1_554 S
C2288 C2286 1.378 . S
C2288 C2289 1.367 . S
C2289 C2288 1.367 . S
C2289 C2291 1.433 . S
C2290 C2286 1.350 . S
C2290 C2287 1.463 . S
C2290 N2294 1.427 . S
C2291 H2281 0.929 . S
C2291 C2289 1.433 . S
C2291 N2294 1.384 . S
C2292 H2283 0.929 . S
C2292 C2284 1.378 . S
C2292 C2287 1.350 . S
C2293 H2280 0.929 . S
C2293 C2285 1.433 . S
C2293 N2295 1.384 . S
N2294 C2290 1.427 . S
N2294 C2291 1.384 . S
N2295 C2287 1.427 . S
N2295 C2293 1.384 . S
H2296 C2302 0.930 . S
H2297 C2306 0.930 . S
H2298 C2311 0.960 . S
H2299 C2309 0.960 . S
H2300 C2304 0.929 . S
H2301 C2310 0.929 . S
C2302 H2296 0.930 . S
C2302 C2303 1.367 . S
C2302 C2310 1.378 . S
C2303 C2302 1.367 . S
C2303 C2311 1.433 . S
C2304 H2300 0.929 . S
C2304 C2306 1.378 . S
C2304 C2308 1.350 . S
C2305 C2308 1.463 1_565 S
C2305 C2310 1.350 . S
C2305 N2313 1.427 1_565 S
C2306 H2297 0.930 . S
C2306 C2304 1.378 . S
C2306 C2307 1.367 . S
C2307 C2306 1.367 . S
C2307 C2309 1.433 . S
C2308 C2304 1.350 . S
C2308 C2305 1.463 1_545 S
C2308 N2312 1.427 1_545 S
C2309 H2299 0.960 . S
C2309 C2307 1.433 . S
C2309 N2312 1.384 1_545 S
C2310 H2301 0.929 . S
C2310 C2302 1.378 . S
C2310 C2305 1.350 . S
C2311 H2298 0.960 . S
C2311 C2303 1.433 . S
C2311 N2313 1.384 1_565 S
N2312 C2308 1.427 1_565 S
N2312 C2309 1.384 1_565 S
N2313 C2305 1.427 1_545 S
N2313 C2311 1.384 1_545 S
H2314 C2320 0.930 . S
H2315 C2324 0.930 . S
H2316 C2329 0.929 . S
H2317 C2327 0.929 . S
H2318 C2322 0.929 . S
H2319 C2328 0.929 . S
C2320 H2314 0.930 . S
C2320 C2321 1.367 . S
C2320 C2328 1.378 . S
C2321 C2320 1.367 . S
C2321 C2329 1.433 . S
C2322 H2318 0.929 . S
C2322 C2324 1.378 . S
C2322 C2326 1.350 . S
C2323 C2326 1.463 . S
C2323 C2328 1.350 . S
C2323 N2331 1.427 . S
C2324 H2315 0.930 . S
C2324 C2322 1.378 . S
C2324 C2325 1.367 . S
C2325 C2324 1.367 . S
C2325 C2327 1.433 . S
C2326 C2322 1.350 . S
C2326 C2323 1.463 . S
C2326 N2330 1.427 . S
C2327 H2317 0.929 . S
C2327 C2325 1.433 . S
C2327 N2330 1.384 . S
C2328 H2319 0.929 . S
C2328 C2320 1.378 . S
C2328 C2323 1.350 . S
C2329 H2316 0.929 . S
C2329 C2321 1.433 . S
C2329 N2331 1.384 . S
N2330 C2326 1.427 . S
N2330 C2327 1.384 . S
N2331 C2323 1.427 . S
N2331 C2329 1.384 . S
H2332 C2338 0.930 1_545 S
H2333 C2342 0.930 1_565 S
H2334 C2347 0.929 . S
H2335 C2345 0.929 . S
H2336 C2340 0.929 . S
H2337 C2346 0.929 . S
C2338 H2332 0.930 1_565 S
C2338 C2339 1.367 . S
C2338 C2346 1.378 1_565 S
C2339 C2338 1.367 . S
C2339 C2347 1.433 . S
C2340 H2336 0.929 . S
C2340 C2342 1.378 1_565 S
C2340 C2344 1.350 1_565 S
C2341 C2344 1.463 1_565 S
C2341 C2346 1.350 1_565 S
C2341 N2349 1.427 . S
C2342 H2333 0.930 1_545 S
C2342 C2340 1.378 1_545 S
C2342 C2343 1.367 . S
C2343 C2342 1.367 . S
C2343 C2345 1.433 . S
C2344 C2340 1.350 1_545 S
C2344 C2341 1.463 1_545 S
C2344 N2348 1.427 . S
C2345 H2335 0.929 . S
C2345 C2343 1.433 . S
C2345 N2348 1.384 . S
C2346 H2337 0.929 . S
C2346 C2338 1.378 1_545 S
C2346 C2341 1.350 1_545 S
C2347 H2334 0.929 . S
C2347 C2339 1.433 . S
C2347 N2349 1.384 . S
N2348 C2344 1.427 . S
N2348 C2345 1.384 . S
N2349 C2341 1.427 . S
N2349 C2347 1.384 . S
H2350 C2356 0.930 . S
H2351 C2360 0.930 . S
H2352 C2365 0.929 . S
H2353 C2363 0.929 . S
H2354 C2358 0.929 . S
H2355 C2364 0.929 . S
C2356 H2350 0.930 . S
C2356 C2357 1.367 . S
C2356 C2364 1.378 . S
C2357 C2356 1.367 . S
C2357 C2365 1.433 . S
C2358 H2354 0.929 . S
C2358 C2360 1.378 . S
C2358 C2362 1.350 . S
C2359 C2362 1.463 . S
C2359 C2364 1.350 . S
C2359 N2367 1.427 . S
C2360 H2351 0.930 . S
C2360 C2358 1.378 . S
C2360 C2361 1.367 . S
C2361 C2360 1.367 . S
C2361 C2363 1.433 . S
C2362 C2358 1.350 . S
C2362 C2359 1.463 . S
C2362 N2366 1.427 . S
C2363 H2353 0.929 . S
C2363 C2361 1.433 . S
C2363 N2366 1.384 . S
C2364 H2355 0.929 . S
C2364 C2356 1.378 . S
C2364 C2359 1.350 . S
C2365 H2352 0.929 . S
C2365 C2357 1.433 . S
C2365 N2367 1.384 . S
N2366 C2362 1.427 . S
N2366 C2363 1.384 . S
N2367 C2359 1.427 . S
N2367 C2365 1.384 . S
C647 C16 0.970 . S
C651 C96 0.967 . S
C665 C119 1.005 . S
C669 C39 0.999 . S
C683 C59 0.859 . S
C687 C139 0.870 . S
C701 C159 0.994 . S
C705 C79 1.001 1_554 S
C719 C166 0.973 . S
C723 C246 0.975 . S
C737 C188 0.981 . S
C741 C268 0.988 . S
C755 C288 0.854 . S
C759 C208 0.853 . S
C773 C228 1.000 . S
C777 C308 0.993 1_554 S
C791 C416 0.974 . S
C795 C336 0.971 . S
C809 C359 0.985 1_554 S
C813 C439 0.993 . S
C827 C379 0.876 . S
C831 C459 0.880 . S
C845 C399 0.994 . S
C849 C479 0.997 . S
C863 C486 0.961 . S
C867 C566 0.957 . S
C881 C588 1.003 1_554 S
C885 C508 0.997 . S
C899 C528 0.889 . S
C903 C608 0.884 . S
C917 C628 0.982 . S
C921 C548 0.989 . S
C935 C421 1.223 . S
C939 C9 1.225 . S
C953 C441 1.324 . S
C957 C21 1.350 . S
C971 C461 1.350 . S
C975 C41 1.332 . S
C989 C61 1.223 . S
C993 C409 1.223 . S
C1007 C89 1.223 . S
C1011 C381 1.222 . S
C1025 C329 1.223 . S
C1029 C101 1.222 . S
C1043 C121 1.323 . S
C1047 C341 1.349 . S
C1061 C141 1.349 . S
C1065 C361 1.320 . S
C1079 C161 1.226 . S
C1083 C589 1.224 . S
C1097 C609 1.323 . S
C1101 C189 1.348 . S
C1115 C629 1.349 . S
C1119 C209 1.328 . S
C1133 C229 1.221 . S
C1137 C561 1.222 . S
C1151 C241 1.223 . S
C1155 C549 1.223 . S
C1169 C269 1.226 . S
C1173 C481 1.227 . S
C1187 C289 1.320 . S
C1191 C509 1.349 . S
C1205 C309 1.349 . S
C1209 C529 1.331 . S
C1223 C169 1.151 . S
C1227 C1 1.151 . S
C1241 C29 0.989 . S
C1245 C501 0.989 . S
C1259 C201 0.930 . S
C1263 C49 0.930 . S
C1277 C69 0.977 . S
C1281 C541 0.977 . S
C1295 C249 1.124 . S
C1299 C81 1.124 . S
C1313 C581 0.983 . S
C1317 C109 0.983 . S
C1331 C129 0.932 . S
C1335 C281 0.932 . S
C1349 C149 0.997 . S
C1353 C621 0.997 . S
C1367 C349 0.988 . S
C1371 C181 0.988 . S
C1385 C389 0.978 . S
C1389 C221 0.978 . S
C1403 C261 0.987 . S
C1407 C429 0.987 . S
C1421 C469 0.997 . S
C1425 C301 0.997 . S
C1439 C489 1.136 . S
C1443 C321 1.136 . S
C1457 C521 0.920 . S
C1461 C369 0.920 . S
C1475 C569 1.146 . S
C1479 C401 1.146 . S
C1493 C449 0.915 . S
C1497 C601 0.915 . S
C1511 C6 1.521 . S
C1515 C259 1.469 . S
C1529 C596 1.679 . S
C1533 C28 1.677 . S
C1547 C296 1.730 . S
C1551 C48 1.725 . S
C1565 C68 1.669 . S
C1569 C636 1.667 . S
C1583 C179 1.454 1_556 S
C1587 C86 1.514 . S
C1601 C516 1.677 . S
C1605 C108 1.678 . S
C1619 C216 1.737 . S
C1623 C128 1.729 . S
C1637 C556 1.681 . S
C1641 C148 1.678 . S
C1655 C88 1.458 . S
C1659 C176 1.519 . S
C1673 C426 1.691 . S
C1677 C199 1.689 . S
C1691 C126 1.728 . S
C1695 C219 1.720 . S
C1709 C239 1.678 . S
C1713 C466 1.676 . S
C1727 C8 1.456 . S
C1731 C256 1.517 . S
C1745 C346 1.666 . S
C1749 C279 1.668 . S
C1763 C299 1.728 . S
C1767 C46 1.736 . S
C1781 C319 1.677 . S
C1785 C386 1.680 . S
C1799 C579 1.460 . S
C1803 C326 1.520 . S
C1817 C276 1.691 . S
C1821 C348 1.688 . S
C1835 C368 1.722 . S
C1839 C616 1.728 . S
C1853 C316 1.676 . S
C1857 C388 1.678 . S
C1871 C406 1.520 . S
C1875 C499 1.468 . S
C1889 C428 1.677 . S
C1893 C196 1.676 . S
C1907 C536 1.734 . S
C1911 C448 1.728 . S
C1925 C236 1.681 . S
C1929 C468 1.678 . S
C1943 C496 1.516 . S
C1947 C408 1.462 1_556 S
C1961 C519 1.686 . S
C1965 C106 1.687 . S
C1979 C539 1.723 . S
C1983 C446 1.729 . S
C1997 C559 1.668 . S
C2001 C146 1.667 . S
C2015 C328 1.461 . S
C2019 C576 1.515 . S
C2033 C26 1.666 . S
C2037 C599 1.668 . S
C2051 C619 1.725 . S
C2055 C366 1.734 . S
C2069 C66 1.687 . S
C2073 C639 1.683 . S
C2087 C99 2.404 . S
C2091 C19 2.403 1_556 S
C2105 C116 1.819 1_554 S
C2109 C36 1.820 . S
C2123 C56 1.783 . S
C2127 C136 1.785 . S
C2141 C156 1.818 . S
C2145 C76 1.821 . S
C2159 C248 2.402 . S
C2163 C168 2.404 . S
C2177 C186 1.821 1_554 S
C2181 C266 1.825 . S
C2195 C206 1.787 . S
C2199 C286 1.785 1_556 S
C2213 C306 1.822 . S
C2217 C226 1.826 . S
C2231 C339 2.404 . S
C2235 C419 2.402 . S
C2249 C436 1.820 . S
C2253 C356 1.821 . S
C2267 C376 1.791 1_556 S
C2271 C456 1.792 . S
C2285 C396 1.818 . S
C2289 C476 1.817 1_554 S
C2303 C568 2.404 1_556 S
C2307 C488 2.403 . S
C2321 C586 1.821 . S
C2325 C506 1.822 . S
C2339 C526 1.784 . S
C2343 C606 1.785 . S
C2357 C626 1.819 . S
C2361 C546 1.823 1_554 S
