# Generated by pormake.
# Topology lcy-e, (6)-cn, num edge types: 1
# Building blocks:
#     Node 0, Type 0, BuildingBlock: BETFAJ_clean_sbu_0, # of connection points: 6
#     Node 1, Type 0, BuildingBlock: BETFAJ_clean_sbu_0, # of connection points: 6
#     Node 2, Type 0, BuildingBlock: BETFAJ_clean_sbu_0, # of connection points: 6
#     Node 3, Type 0, BuildingBlock: BETFAJ_clean_sbu_0, # of connection points: 6
#     Node 4, Type 0, BuildingBlock: BETFAJ_clean_sbu_0, # of connection points: 6
#     Node 5, Type 0, BuildingBlock: BETFAJ_clean_sbu_0, # of connection points: 6
#     Node 6, Type 0, BuildingBlock: BETFAJ_clean_sbu_0, # of connection points: 6
#     Node 7, Type 0, BuildingBlock: BETFAJ_clean_sbu_0, # of connection points: 6
#     Node 8, Type 0, BuildingBlock: BETFAJ_clean_sbu_0, # of connection points: 6
#     Node 9, Type 0, BuildingBlock: BETFAJ_clean_sbu_0, # of connection points: 6
#     Node 10, Type 0, BuildingBlock: BETFAJ_clean_sbu_0, # of connection points: 6
#     Node 11, Type 0, BuildingBlock: BETFAJ_clean_sbu_0, # of connection points: 6
#     Edge 12, Type (0, 0), BuildingBlock: UVAHIK_clean_linker_0, # of connection points: 2
#     Edge 13, Type (0, 0), BuildingBlock: UVAHIK_clean_linker_0, # of connection points: 2
#     Edge 14, Type (0, 0), BuildingBlock: UVAHIK_clean_linker_0, # of connection points: 2
#     Edge 15, Type (0, 0), BuildingBlock: UVAHIK_clean_linker_0, # of connection points: 2
#     Edge 16, Type (0, 0), BuildingBlock: UVAHIK_clean_linker_0, # of connection points: 2
#     Edge 17, Type (0, 0), BuildingBlock: UVAHIK_clean_linker_0, # of connection points: 2
#     Edge 18, Type (0, 0), BuildingBlock: UVAHIK_clean_linker_0, # of connection points: 2
#     Edge 19, Type (0, 0), BuildingBlock: UVAHIK_clean_linker_0, # of connection points: 2
#     Edge 20, Type (0, 0), BuildingBlock: UVAHIK_clean_linker_0, # of connection points: 2
#     Edge 21, Type (0, 0), BuildingBlock: UVAHIK_clean_linker_0, # of connection points: 2
#     Edge 22, Type (0, 0), BuildingBlock: UVAHIK_clean_linker_0, # of connection points: 2
#     Edge 23, Type (0, 0), BuildingBlock: UVAHIK_clean_linker_0, # of connection points: 2
#     Edge 24, Type (0, 0), BuildingBlock: UVAHIK_clean_linker_0, # of connection points: 2
#     Edge 25, Type (0, 0), BuildingBlock: UVAHIK_clean_linker_0, # of connection points: 2
#     Edge 26, Type (0, 0), BuildingBlock: UVAHIK_clean_linker_0, # of connection points: 2
#     Edge 27, Type (0, 0), BuildingBlock: UVAHIK_clean_linker_0, # of connection points: 2
#     Edge 28, Type (0, 0), BuildingBlock: UVAHIK_clean_linker_0, # of connection points: 2
#     Edge 29, Type (0, 0), BuildingBlock: UVAHIK_clean_linker_0, # of connection points: 2
#     Edge 30, Type (0, 0), BuildingBlock: UVAHIK_clean_linker_0, # of connection points: 2
#     Edge 31, Type (0, 0), BuildingBlock: UVAHIK_clean_linker_0, # of connection points: 2
#     Edge 32, Type (0, 0), BuildingBlock: UVAHIK_clean_linker_0, # of connection points: 2
#     Edge 33, Type (0, 0), BuildingBlock: UVAHIK_clean_linker_0, # of connection points: 2
#     Edge 34, Type (0, 0), BuildingBlock: UVAHIK_clean_linker_0, # of connection points: 2
#     Edge 35, Type (0, 0), BuildingBlock: UVAHIK_clean_linker_0, # of connection points: 2
#     Edge 36, Type (0, 0), BuildingBlock: UVAHIK_clean_linker_0, # of connection points: 2
#     Edge 37, Type (0, 0), BuildingBlock: UVAHIK_clean_linker_0, # of connection points: 2
#     Edge 38, Type (0, 0), BuildingBlock: UVAHIK_clean_linker_0, # of connection points: 2
#     Edge 39, Type (0, 0), BuildingBlock: UVAHIK_clean_linker_0, # of connection points: 2
#     Edge 40, Type (0, 0), BuildingBlock: UVAHIK_clean_linker_0, # of connection points: 2
#     Edge 41, Type (0, 0), BuildingBlock: UVAHIK_clean_linker_0, # of connection points: 2
#     Edge 42, Type (0, 0), BuildingBlock: UVAHIK_clean_linker_0, # of connection points: 2
#     Edge 43, Type (0, 0), BuildingBlock: UVAHIK_clean_linker_0, # of connection points: 2
#     Edge 44, Type (0, 0), BuildingBlock: UVAHIK_clean_linker_0, # of connection points: 2
#     Edge 45, Type (0, 0), BuildingBlock: UVAHIK_clean_linker_0, # of connection points: 2
#     Edge 46, Type (0, 0), BuildingBlock: UVAHIK_clean_linker_0, # of connection points: 2
#     Edge 47, Type (0, 0), BuildingBlock: UVAHIK_clean_linker_0, # of connection points: 2
# Relax obj value: 0.203
# Max RMSD: 0.305
# Mean RMSD: 0.281
data_MOF--net-lcy-e--node1-BETFAJ_clean_sbu_0--edge1-UVAHIK_clean_linker_0
_symmetry_space_group_name_H-M    P1
_symmetry_Int_Tables_number       1
_symmetry_cell_setting            triclinic
loop_
_symmetry_equiv_pos_as_xyz
'x, y, z'
_cell_length_a     56.653194
_cell_length_b     51.635124
_cell_length_c     56.596952
_cell_angle_alpha  89.462674
_cell_angle_beta   90.855756
_cell_angle_gamma 88.588859
loop_
_atom_site_label
_atom_site_type_symbol
_atom_site_fract_x
_atom_site_fract_y
_atom_site_fract_z
_atom_type_partial_charge
Sm0 Sm 0.13905 0.24375 0.4602 0.0
Sm1 Sm 0.15716 0.20151 0.49388 0.0
C2 C 0.12677 0.28536 0.43477 0.0
C3 C 0.12965 0.29299 0.40992 0.0
C4 C 0.14302 0.27723 0.39482 0.0
C5 C 0.14804 0.28576 0.37196 0.0
C6 C 0.13974 0.31019 0.36379 0.0
C7 C 0.12569 0.32554 0.37878 0.0
C8 C 0.12076 0.31702 0.4017 0.0
C9 C 0.12245 0.19494 0.45009 0.0
C10 C 0.18504 0.20934 0.44556 0.0
C11 C 0.16431 0.16098 0.52216 0.0
C12 C 0.15077 0.14257 0.53633 0.0
C13 C 0.13196 0.12887 0.52646 0.0
C14 C 0.12049 0.11022 0.53987 0.0
C15 C 0.12754 0.105 0.56342 0.0
C16 C 0.14585 0.11944 0.57343 0.0
C17 C 0.15739 0.13793 0.55998 0.0
C18 C 0.18126 0.24747 0.49644 0.0
C19 C 0.11202 0.23649 0.51076 0.0
O20 O 0.1465 0.2831 0.44699 0.0
O21 O 0.11227 0.26655 0.43897 0.0
O22 O 0.12465 0.20456 0.47033 0.0
O23 O 0.12955 0.21119 0.43425 0.0
O24 O 0.17558 0.23298 0.44492 0.0
O25 O 0.17698 0.1916 0.46004 0.0
O26 O 0.16251 0.15926 0.49911 0.0
O27 O 0.16488 0.18489 0.52963 0.0
O28 O 0.15938 0.24506 0.49429 0.0
O29 O 0.19159 0.22487 0.49868 0.0
O30 O 0.12384 0.2143 0.51324 0.0
O31 O 0.11576 0.25244 0.49279 0.0
H32 H 0.15009 0.25862 0.40094 0.0
H33 H 0.15864 0.27334 0.36078 0.0
H34 H 0.11924 0.34456 0.37313 0.0
H35 H 0.11057 0.32951 0.41321 0.0
H36 H 0.12639 0.13216 0.50827 0.0
H37 H 0.10661 0.09934 0.53152 0.0
H38 H 0.15142 0.11633 0.59164 0.0
H39 H 0.17176 0.14839 0.56798 0.0
Sm40 Sm 1.00041 0.85369 0.72281 0.0
Sm41 Sm 0.04138 0.86804 0.75663 0.0
C42 C 0.96254 0.85443 0.69468 0.0
C43 C 0.95562 0.86341 0.67047 0.0
C44 C 0.94564 0.88835 0.66665 0.0
C45 C 0.93842 0.89654 0.64396 0.0
C46 C 0.94084 0.87993 0.62454 0.0
C47 C 0.95089 0.85503 0.62836 0.0
C48 C 0.95813 0.84685 0.65103 0.0
C49 C 0.03966 0.82228 0.71924 0.0
C50 C 0.03666 0.90046 0.70768 0.0
C51 C 0.07945 0.87082 0.78444 0.0
C52 C 0.09961 0.8563 0.79535 0.0
C53 C 0.12085 0.86919 0.79869 0.0
C54 C 0.14035 0.85658 0.80941 0.0
C55 C 0.13912 0.83065 0.81705 0.0
C56 C 0.11778 0.81761 0.81349 0.0
C57 C 0.09819 0.83032 0.80266 0.0
C58 C 0.99936 0.89588 0.76191 0.0
C59 C 0.00694 0.82142 0.77133 0.0
O60 O 0.96662 0.87227 0.71044 0.0
O61 O 0.97725 0.83452 0.69658 0.0
O62 O 0.04012 0.84656 0.72202 0.0
O63 O 0.01825 0.81438 0.71624 0.0
O64 O 0.01631 0.8891 0.70391 0.0
O65 O 0.05059 0.89421 0.72577 0.0
O66 O 0.07981 0.8742 0.76155 0.0
O67 O 0.05827 0.8669 0.79243 0.0
O68 O 1.00197 0.8722 0.75812 0.0
O69 O 0.01986 0.9062 0.7649 0.0
O70 O 0.02925 0.82836 0.77042 0.0
O71 O 0.9908 0.83176 0.75668 0.0
H72 H 0.94314 0.90151 0.68124 0.0
H73 H 0.93042 0.91569 0.64175 0.0
H74 H 0.95324 0.84182 0.61378 0.0
H75 H 0.96558 0.82745 0.65332 0.0
H76 H 0.1223 0.88926 0.79322 0.0
H77 H 0.15624 0.86745 0.81223 0.0
H78 H 0.11626 0.79759 0.81897 0.0
H79 H 0.08197 0.81994 0.80012 0.0
Sm80 Sm 0.37581 0.77332 1.00167 0.0
Sm81 Sm 0.38603 0.73498 0.95761 0.0
C82 C 0.37658 0.79731 0.04271 0.0
C83 C 0.39297 0.81173 0.05766 0.0
C84 C 0.41572 0.81736 0.04997 0.0
C85 C 0.42989 0.83406 0.06299 0.0
C86 C 0.42143 0.84563 0.08378 0.0
C87 C 0.39883 0.83919 0.09167 0.0
C88 C 0.38479 0.82237 0.07875 0.0
C89 C 0.34045 0.77858 0.96711 0.0
C90 C 0.41583 0.78975 0.96286 0.0
C91 C 0.39078 0.7155 0.91476 0.0
C92 C 0.38126 0.69969 0.89545 0.0
C93 C 0.35697 0.6986 0.89034 0.0
C94 C 0.34893 0.68516 0.87044 0.0
C95 C 0.36507 0.67264 0.85533 0.0
C96 C 0.38934 0.67364 0.86087 0.0
C97 C 0.39728 0.68692 0.8807 0.0
C98 C 0.41182 0.72578 0.99858 0.0
C99 C 0.35044 0.71639 0.99762 0.0
O100 O 0.38034 0.77224 0.04084 0.0
O101 O 0.37052 0.8087 0.02267 0.0
O102 O 0.35852 0.76409 0.9671 0.0
O103 O 0.34073 0.79181 0.98644 0.0
O104 O 0.40568 0.79504 0.98327 0.0
O105 O 0.41058 0.76911 0.95024 0.0
O106 O 0.38033 0.73789 0.91887 0.0
O107 O 0.39898 0.70366 0.93386 0.0
O108 O 0.406 0.7477 0.99002 0.0
O109 O 0.4056 0.70744 0.98428 0.0
O110 O 0.3542 0.71608 0.97456 0.0
O111 O 0.35955 0.73406 0.01181 0.0
H112 H 0.4222 0.80953 0.03354 0.0
H113 H 0.44729 0.83828 0.05654 0.0
H114 H 0.39149 0.848 0.1073 0.0
H115 H 0.36715 0.81847 0.08476 0.0
H116 H 0.34427 0.70841 0.90148 0.0
H117 H 0.33012 0.6846 0.86688 0.0
H118 H 0.40237 0.66478 0.84949 0.0
H119 H 0.41611 0.68779 0.88418 0.0
Sm120 Sm 0.53036 0.11655 0.22743 0.0
Sm121 Sm 0.4916 0.09829 0.26087 0.0
C122 C 0.567 0.12064 0.19916 0.0
C123 C 0.57487 0.11097 0.17593 0.0
C124 C 0.57833 0.08436 0.17165 0.0
C125 C 0.58654 0.07584 0.14975 0.0
C126 C 0.59139 0.0937 0.13161 0.0
C127 C 0.58749 0.12028 0.13589 0.0
C128 C 0.57945 0.12878 0.1578 0.0
C129 C 0.48898 0.14469 0.2238 0.0
C130 C 0.49953 0.06444 0.21399 0.0
C131 C 0.45385 0.09238 0.2875 0.0
C132 C 0.43527 0.10573 0.30106 0.0
C133 C 0.43193 0.13276 0.30033 0.0
C134 C 0.41306 0.14452 0.31239 0.0
C135 C 0.39722 0.12941 0.3253 0.0
C136 C 0.40088 0.10233 0.3259 0.0
C137 C 0.41969 0.0907 0.31398 0.0
C138 C 0.5354 0.07383 0.26665 0.0
C139 C 0.52358 0.14733 0.27614 0.0
O140 O 0.56632 0.10392 0.21668 0.0
O141 O 0.54918 0.13726 0.19898 0.0
O142 O 0.49029 0.12026 0.22611 0.0
O143 O 0.5097 0.15459 0.22181 0.0
O144 O 0.51775 0.07909 0.20937 0.0
O145 O 0.48553 0.06894 0.23192 0.0
O146 O 0.45287 0.09528 0.26452 0.0
O147 O 0.47544 0.09198 0.2961 0.0
O148 O 0.53123 0.09745 0.26289 0.0
O149 O 0.51571 0.06175 0.26915 0.0
O150 O 0.50206 0.13791 0.27598 0.0
O151 O 0.53961 0.13917 0.26094 0.0
H152 H 0.57493 0.0701 0.18525 0.0
H153 H 0.58956 0.05527 0.14725 0.0
H154 H 0.59056 0.13461 0.12227 0.0
H155 H 0.57688 0.14938 0.16061 0.0
H156 H 0.44374 0.14468 0.2903 0.0
H157 H 0.41095 0.16541 0.31168 0.0
H158 H 0.38886 0.08995 0.33515 0.0
H159 H 0.42183 0.06978 0.3145 0.0
Sm160 Sm 0.64055 0.24099 0.54372 0.0
Sm161 Sm 0.65066 0.28804 0.51317 0.0
C162 C 0.64166 0.19879 0.57082 0.0
C163 C 0.65037 0.19078 0.59459 0.0
C164 C 0.67336 0.19621 0.60247 0.0
C165 C 0.68132 0.18786 0.62488 0.0
C166 C 0.66639 0.17415 0.63992 0.0
C167 C 0.64326 0.16921 0.63212 0.0
C168 C 0.63538 0.17737 0.60966 0.0
C169 C 0.60739 0.28001 0.54718 0.0
C170 C 0.67997 0.28323 0.56203 0.0
C171 C 0.6514 0.33127 0.48742 0.0
C172 C 0.63743 0.35116 0.47419 0.0
C173 C 0.61659 0.34547 0.46178 0.0
C174 C 0.60444 0.36493 0.44869 0.0
C175 C 0.61291 0.39038 0.44786 0.0
C176 C 0.6336 0.3959 0.46071 0.0
C177 C 0.64567 0.37652 0.47371 0.0
C178 C 0.68089 0.24557 0.50753 0.0
C179 C 0.61286 0.24666 0.49398 0.0
O180 O 0.65745 0.20347 0.55477 0.0
O181 O 0.62379 0.21529 0.57005 0.0
O182 O 0.62943 0.28362 0.54662 0.0
O183 O 0.60263 0.25559 0.54698 0.0
O184 O 0.67143 0.25975 0.56432 0.0
O185 O 0.67287 0.29905 0.54491 0.0
O186 O 0.64942 0.331 0.51039 0.0
O187 O 0.65358 0.3081 0.47841 0.0
O188 O 0.65895 0.24544 0.50957 0.0
O189 O 0.68812 0.26923 0.50714 0.0
O190 O 0.6171 0.27162 0.49593 0.0
O191 O 0.62316 0.22944 0.50852 0.0
H192 H 0.68523 0.20677 0.59131 0.0
H193 H 0.69915 0.19218 0.63048 0.0
H194 H 0.63142 0.15843 0.64315 0.0
H195 H 0.61759 0.173 0.60396 0.0
H196 H 0.60985 0.32601 0.46205 0.0
H197 H 0.58844 0.36005 0.43919 0.0
H198 H 0.64091 0.41508 0.46019 0.0
H199 H 0.66176 0.38127 0.48314 0.0
Sm200 Sm 0.98881 0.37093 0.73833 0.0
Sm201 Sm 0.02287 0.34959 0.77537 0.0
C202 C 0.96261 0.38416 0.70099 0.0
C203 C 0.9384 0.37766 0.69354 0.0
C204 C 0.93068 0.35206 0.69535 0.0
C205 C 0.90802 0.34574 0.68776 0.0
C206 C 0.89232 0.36492 0.67851 0.0
C207 C 0.89992 0.39069 0.67727 0.0
C208 C 0.92278 0.39696 0.68463 0.0
C209 C 0.97901 0.38736 0.78362 0.0
C210 C 0.97342 0.3216 0.76888 0.0
C211 C 0.05135 0.33845 0.81171 0.0
C212 C 0.06441 0.35099 0.83096 0.0
C213 C 0.05405 0.37099 0.84424 0.0
C214 C 0.06578 0.38053 0.86413 0.0
C215 C 0.08813 0.37033 0.87102 0.0
C216 C 0.09884 0.35112 0.85699 0.0
C217 C 0.08704 0.3415 0.83722 0.0
C218 C 0.02426 0.32454 0.73224 0.0
C219 C 0.0391 0.40025 0.74559 0.0
O220 O 0.97807 0.36489 0.70116 0.0
O221 O 0.96466 0.3992 0.71939 0.0
O222 O 0.99928 0.38559 0.77482 0.0
O223 O 0.96313 0.38018 0.76847 0.0
O224 O 0.97332 0.3311 0.74716 0.0
O225 O 0.98841 0.33004 0.78487 0.0
O226 O 0.02828 0.33911 0.813 0.0
O227 O 0.05902 0.34157 0.7902 0.0
O228 O 0.02273 0.34839 0.73567 0.0
O229 O 0.02606 0.3123 0.75231 0.0
O230 O 0.04249 0.38614 0.76497 0.0
O231 O 0.02037 0.39744 0.73166 0.0
H232 H 0.94226 0.33675 0.70238 0.0
H233 H 0.90306 0.32565 0.68867 0.0
H234 H 0.88822 0.40607 0.67063 0.0
H235 H 0.92827 0.41686 0.68331 0.0
H236 H 0.0366 0.37872 0.83969 0.0
H237 H 0.05694 0.39519 0.87458 0.0
H238 H 0.11624 0.34323 0.86148 0.0
H239 H 0.09537 0.32616 0.82713 0.0
Sm240 Sm 0.89041 0.73392 0.03961 0.0
Sm241 Sm 0.874 0.68864 0.01018 0.0
C242 C 0.89758 0.77364 0.06804 0.0
C243 C 0.88716 0.78618 0.08888 0.0
C244 C 0.86263 0.78913 0.0916 0.0
C245 C 0.85349 0.80071 0.11196 0.0
C246 C 0.86873 0.8094 0.12998 0.0
C247 C 0.89326 0.80607 0.12712 0.0
C248 C 0.90232 0.7947 0.10679 0.0
C249 C 0.92173 0.69263 0.03912 0.0
C250 C 0.84878 0.69629 0.05982 0.0
C251 C 0.86897 0.64602 0.98484 0.0
C252 C 0.88125 0.62571 0.97117 0.0
C253 C 0.90017 0.63107 0.95626 0.0
C254 C 0.91042 0.61131 0.94263 0.0
C255 C 0.90185 0.58593 0.94363 0.0
C256 C 0.88328 0.58069 0.95906 0.0
C257 C 0.87312 0.60035 0.97262 0.0
C258 C 0.84441 0.73216 0.00756 0.0
C259 C 0.91229 0.72787 0.98797 0.0
O260 O 0.88612 0.77581 0.04785 0.0
O261 O 0.90704 0.75059 0.07161 0.0
O262 O 0.89963 0.69063 0.04117 0.0
O263 O 0.92773 0.71663 0.03782 0.0
O264 O 0.85782 0.71965 0.0599 0.0
O265 O 0.85506 0.67896 0.0441 0.0
O266 O 0.8724 0.64575 0.00773 0.0
O267 O 0.86725 0.66943 0.97583 0.0
O268 O 0.86658 0.73194 0.00792 0.0
O269 O 0.8369 0.70869 0.00607 0.0
O270 O 0.90592 0.7035 0.98985 0.0
O271 O 0.90563 0.74535 1.00365 0.0
H272 H 0.85056 0.78246 0.07807 0.0
H273 H 0.83454 0.80309 0.11346 0.0
H274 H 0.90556 0.8119 0.14077 0.0
H275 H 0.92129 0.79234 0.10515 0.0
H276 H 0.90679 0.65053 0.95491 0.0
H277 H 0.92462 0.61605 0.93087 0.0
H278 H 0.87654 0.56132 0.96066 0.0
H279 H 0.85862 0.59577 0.98409 0.0
Sm280 Sm 0.53673 0.61522 0.23721 0.0
Sm281 Sm 0.5038 0.63282 0.27568 0.0
C282 C 0.56463 0.61172 0.20014 0.0
C283 C 0.58849 0.61963 0.19296 0.0
C284 C 0.59232 0.64472 0.18412 0.0
C285 C 0.61465 0.65159 0.17632 0.0
C286 C 0.63366 0.63354 0.17707 0.0
C287 C 0.62986 0.60858 0.18621 0.0
C288 C 0.60753 0.60168 0.19394 0.0
C289 C 0.53998 0.58438 0.27672 0.0
C290 C 0.55206 0.66416 0.27163 0.0
C291 C 0.47551 0.63812 0.31239 0.0
C292 C 0.46323 0.62367 0.331 0.0
C293 C 0.475 0.60465 0.34503 0.0
C294 C 0.46383 0.59376 0.36455 0.0
C295 C 0.4407 0.60167 0.37039 0.0
C296 C 0.42867 0.61982 0.35559 0.0
C297 C 0.43985 0.63074 0.33618 0.0
C298 C 0.49778 0.65868 0.23262 0.0
C299 C 0.48837 0.58496 0.24263 0.0
O300 O 0.54843 0.63002 0.20247 0.0
O301 O 0.5635 0.59359 0.21637 0.0
O302 O 0.53806 0.60893 0.27725 0.0
O303 O 0.54171 0.57598 0.25527 0.0
O304 O 0.55632 0.65059 0.25239 0.0
O305 O 0.53357 0.65988 0.28475 0.0
O306 O 0.49853 0.63876 0.31392 0.0
O307 O 0.46762 0.63644 0.29065 0.0
O308 O 0.50138 0.63494 0.23602 0.0
O309 O 0.49598 0.67028 0.2528 0.0
O310 O 0.48916 0.59331 0.26462 0.0
O311 O 0.50303 0.59395 0.22673 0.0
H312 H 0.578 0.65898 0.18288 0.0
H313 H 0.61683 0.67085 0.16907 0.0
H314 H 0.64414 0.59428 0.18734 0.0
H315 H 0.60515 0.58216 0.2005 0.0
H316 H 0.49307 0.59879 0.3414 0.0
H317 H 0.47368 0.57994 0.37559 0.0
H318 H 0.41068 0.62597 0.35925 0.0
H319 H 0.43042 0.64533 0.32558 0.0
Sm320 Sm 0.2228 0.48448 0.12634 0.0
Sm321 Sm 0.25323 0.43582 0.12022 0.0
C322 C 0.20128 0.53039 0.12945 0.0
C323 C 0.17736 0.53963 0.12266 0.0
C324 C 0.15992 0.52182 0.11684 0.0
C325 C 0.1374 0.5305 0.1095 0.0
C326 C 0.13196 0.55717 0.10768 0.0
C327 C 0.1495 0.57494 0.11365 0.0
C328 C 0.17202 0.56622 0.12109 0.0
C329 C 0.20942 0.44246 0.15282 0.0
C330 C 0.2051 0.44512 0.08655 0.0
C331 C 0.26983 0.38747 0.11763 0.0
C332 C 0.28357 0.3676 0.13094 0.0
C333 C 0.29459 0.37309 0.15261 0.0
C334 C 0.3078 0.35373 0.16473 0.0
C335 C 0.31008 0.32861 0.15537 0.0
C336 C 0.29878 0.32332 0.13371 0.0
C337 C 0.28566 0.34264 0.12164 0.0
C338 C 0.26697 0.47783 0.0941 0.0
C339 C 0.27332 0.4772 0.15563 0.0
O340 O 0.21495 0.52399 0.11192 0.0
O341 O 0.20262 0.51368 0.14695 0.0
O342 O 0.23037 0.4494 0.14999 0.0
O343 O 0.19462 0.45805 0.14177 0.0
O344 O 0.20313 0.46907 0.09418 0.0
O345 O 0.22138 0.4287 0.09518 0.0
O346 O 0.24892 0.39359 0.12569 0.0
O347 O 0.28126 0.40749 0.10993 0.0
O348 O 0.24603 0.47095 0.09698 0.0
O349 O 0.28185 0.46139 0.10401 0.0
O350 O 0.27165 0.45199 0.15273 0.0
O351 O 0.25843 0.49374 0.14479 0.0
H352 H 0.16383 0.50118 0.11772 0.0
H353 H 0.12442 0.51634 0.10473 0.0
H354 H 0.14579 0.5956 0.11265 0.0
H355 H 0.1853 0.58022 0.12544 0.0
H356 H 0.29303 0.39229 0.16008 0.0
H357 H 0.3161 0.35838 0.18146 0.0
H358 H 0.30047 0.30436 0.12579 0.0
H359 H 0.27727 0.33812 0.1049 0.0
Sm360 Sm 0.72546 0.98085 0.87381 0.0
Sm361 Sm 0.75716 0.02401 0.89058 0.0
C362 C 0.69707 0.94107 0.8688 0.0
C363 C 0.67404 0.9321 0.8772 0.0
C364 C 0.66831 0.93217 0.90128 0.0
C365 C 0.6467 0.92257 0.90876 0.0
C366 C 0.63034 0.91281 0.89231 0.0
C367 C 0.63602 0.91338 0.86818 0.0
C368 C 0.65764 0.92282 0.86075 0.0
C369 C 0.72382 0.02388 0.84533 0.0
C370 C 0.70854 0.01882 0.91816 0.0
C371 C 0.785 0.06434 0.89464 0.0
C372 C 0.79988 0.08157 0.8805 0.0
C373 C 0.79119 0.09426 0.85994 0.0
C374 C 0.80491 0.11246 0.84827 0.0
C375 C 0.8276 0.11828 0.85688 0.0
C376 C 0.83653 0.1047 0.8769 0.0
C377 C 0.82278 0.08665 0.8886 0.0
C378 C 0.76164 0.97797 0.91593 0.0
C379 C 0.77556 0.98624 0.84857 0.0
O380 O 0.71458 0.94137 0.88413 0.0
O381 O 0.6966 0.9611 0.8545 0.0
O382 O 0.72398 0.02453 0.8677 0.0
O383 O 0.72362 1.00037 0.83751 0.0
O384 O 0.70587 0.99679 0.90674 0.0
O385 O 0.72587 0.03443 0.91342 0.0
O386 O 0.76212 0.06641 0.89136 0.0
O387 O 0.79253 0.04042 0.89794 0.0
O388 O 0.75954 0.98052 0.89396 0.0
O389 O 0.76286 1.00054 0.92579 0.0
O390 O 0.77422 0.01038 0.85601 0.0
O391 O 0.7603 0.96892 0.85579 0.0
H392 H 0.6806 0.93935 0.91437 0.0
H393 H 0.64308 0.92225 0.92749 0.0
H394 H 0.62373 0.90657 0.85492 0.0
H395 H 0.66162 0.92272 0.84208 0.0
H396 H 0.77359 0.09063 0.85321 0.0
H397 H 0.79739 0.12262 0.83301 0.0
H398 H 0.8541 0.10824 0.88375 0.0
H399 H 0.82989 0.07703 0.90435 0.0
Sm400 Sm 0.77263 0.95839 0.3897 0.0
Sm401 Sm 0.81184 0.99274 0.372 0.0
C402 C 0.73531 0.92896 0.39538 0.0
C403 C 0.72261 0.9082 0.38325 0.0
C404 C 0.72353 0.90518 0.35864 0.0
C405 C 0.71087 0.88554 0.34758 0.0
C406 C 0.69709 0.86859 0.36095 0.0
C407 C 0.69666 0.87153 0.38565 0.0
C408 C 0.70926 0.89113 0.39664 0.0
C409 C 0.81318 0.95472 0.41676 0.0
C410 C 0.80412 0.94009 0.34385 0.0
C411 C 0.84923 0.02162 0.3642 0.0
C412 C 0.87111 0.03233 0.37435 0.0
C413 C 0.87132 0.04721 0.39503 0.0
C414 C 0.89232 0.05838 0.403 0.0
C415 C 0.91342 0.05498 0.39038 0.0
C416 C 0.91312 0.03954 0.37004 0.0
C417 C 0.89224 0.02845 0.36213 0.0
C418 C 0.76864 0.99874 0.34855 0.0
C419 C 0.78099 0.01195 0.41702 0.0
O420 O 0.73416 0.95203 0.38561 0.0
O421 O 0.75628 0.92286 0.40395 0.0
O422 O 0.81282 0.95606 0.39439 0.0
O423 O 0.79206 0.95326 0.42508 0.0
O424 O 0.78357 0.93894 0.35452 0.0
O425 O 0.81991 0.95704 0.35013 0.0
O426 O 0.84904 0.99664 0.3609 0.0
O427 O 0.82877 0.03124 0.37066 0.0
O428 O 0.77222 0.9961 0.37028 0.0
O429 O 0.78864 1.00002 0.33779 0.0
O430 O 0.80235 0.01078 0.40791 0.0
O431 O 0.76459 0.99549 0.41058 0.0
H432 H 0.73384 0.91811 0.34797 0.0
H433 H 0.7115 0.88399 0.32853 0.0
H434 H 0.68667 0.85857 0.39658 0.0
H435 H 0.70849 0.89302 0.41567 0.0
H436 H 0.85525 0.05052 0.40482 0.0
H437 H 0.89188 0.07025 0.41867 0.0
H438 H 0.92907 0.03604 0.36013 0.0
H439 H 0.89255 0.01704 0.34616 0.0
Sm440 Sm 0.30279 0.48238 0.62205 0.0
Sm441 Sm 0.27041 0.53312 0.60934 0.0
C442 C 0.32491 0.43695 0.62059 0.0
C443 C 0.34998 0.4293 0.61941 0.0
C444 C 0.35722 0.40352 0.62353 0.0
C445 C 0.38098 0.39607 0.62127 0.0
C446 C 0.39782 0.41432 0.61474 0.0
C447 C 0.39049 0.44026 0.61103 0.0
C448 C 0.36678 0.4477 0.61344 0.0
C449 C 0.31687 0.5241 0.64889 0.0
C450 C 0.31865 0.52382 0.58017 0.0
C451 C 0.24533 0.57697 0.60871 0.0
C452 C 0.23221 0.59485 0.62424 0.0
C453 C 0.24333 0.60744 0.64315 0.0
C454 C 0.23078 0.62561 0.65654 0.0
C455 C 0.20689 0.63148 0.6513 0.0
C456 C 0.19577 0.61855 0.6326 0.0
C457 C 0.20832 0.60049 0.6192 0.0
C458 C 0.26383 0.48958 0.58226 0.0
C459 C 0.25395 0.49296 0.65089 0.0
O460 O 0.31637 0.44902 0.60171 0.0
O461 O 0.31808 0.44751 0.64043 0.0
O462 O 0.30086 0.5237 0.63333 0.0
O463 O 0.32702 0.50133 0.65019 0.0
O464 O 0.32008 0.49992 0.58891 0.0
O465 O 0.30301 0.54126 0.58749 0.0
O466 O 0.26842 0.57593 0.61086 0.0
O467 O 0.23605 0.55437 0.60476 0.0
O468 O 0.26787 0.49025 0.60408 0.0
O469 O 0.26133 0.51299 0.57373 0.0
O470 O 0.2544 0.51744 0.64368 0.0
O471 O 0.26889 0.47498 0.64291 0.0
H472 H 0.34445 0.38909 0.62812 0.0
H473 H 0.38605 0.37589 0.62398 0.0
H474 H 0.40308 0.45478 0.60622 0.0
H475 H 0.36148 0.46777 0.61032 0.0
H476 H 0.26177 0.60358 0.64743 0.0
H477 H 0.23976 0.6351 0.67097 0.0
H478 H 0.17749 0.62292 0.62789 0.0
H479 H 0.19944 0.59125 0.60455 0.0
C480 C 0.21494 0.27384 0.51147 0.0
C481 C 0.19234 0.27258 0.50113 0.0
C482 C 0.22427 0.29783 0.51759 0.0
C483 C 0.20474 0.36687 0.52749 0.0
H484 H 0.27213 0.37782 0.53158 0.0
C485 C 0.24815 0.46609 0.54687 0.0
C486 C 0.25865 0.46545 0.56953 0.0
C487 C 0.24156 0.44304 0.53595 0.0
C488 C 0.25327 0.37498 0.5303 0.0
H489 H 0.16209 0.29537 0.48847 0.0
H490 H 0.17883 0.33695 0.49721 0.0
H491 H 0.25772 0.33673 0.51663 0.0
H492 H 0.27072 0.44025 0.59835 0.0
H493 H 0.26029 0.40007 0.57874 0.0
H494 H 0.20054 0.40554 0.54061 0.0
C495 C 0.18914 0.31964 0.50173 0.0
C496 C 0.24494 0.35135 0.52201 0.0
C497 C 0.17962 0.29572 0.49628 0.0
C498 C 0.26305 0.44135 0.58072 0.0
C499 C 0.25705 0.41836 0.56958 0.0
C500 C 0.21308 0.39065 0.53519 0.0
C501 C 0.21139 0.32114 0.51302 0.0
C502 C 0.22051 0.34678 0.52073 0.0
C503 C 0.24593 0.41904 0.54729 0.0
C504 C 0.23737 0.39478 0.5369 0.0
H505 H 0.22507 0.25627 0.51557 0.0
H506 H 0.24127 0.29792 0.52656 0.0
H507 H 0.18587 0.36415 0.5275 0.0
H508 H 0.2444 0.4844 0.53792 0.0
H509 H 0.23283 0.44393 0.51879 0.0
C510 C 0.81378 0.9963 0.82932 0.0
C511 C 0.79626 0.97828 0.83437 0.0
C512 C 0.83496 0.98841 0.81895 0.0
C513 C 0.87264 0.92955 0.81189 0.0
H514 H 0.90792 0.97354 0.76993 0.0
C515 C 0.956 0.89239 0.76612 0.0
C516 C 0.97609 0.90779 0.76736 0.0
C517 C 0.93399 0.90219 0.77275 0.0
C518 C 0.89833 0.96119 0.7818 0.0
H519 H 0.78677 0.93805 0.83117 0.0
H520 H 0.82345 0.92436 0.81237 0.0
H521 H 0.86869 0.98769 0.78283 0.0
H522 H 0.98872 0.94591 0.77574 0.0
H523 H 0.94976 0.96335 0.78731 0.0
H524 H 0.90212 0.90294 0.81061 0.0
C525 C 0.82109 0.94452 0.81708 0.0
C526 C 0.87585 0.96924 0.7892 0.0
C527 C 0.79993 0.9524 0.82766 0.0
C528 C 0.97353 0.93362 0.77466 0.0
C529 C 0.95128 0.94357 0.7812 0.0
C530 C 0.89495 0.92144 0.80433 0.0
C531 C 0.83914 0.96231 0.81315 0.0
C532 C 0.86269 0.9535 0.80436 0.0
C533 C 0.93139 0.92772 0.78071 0.0
C534 C 0.90803 0.93711 0.78917 0.0
H535 H 0.81161 0.01644 0.83422 0.0
H536 H 0.84843 1.00265 0.81645 0.0
H537 H 0.86341 0.91718 0.82403 0.0
H538 H 0.9573 0.87245 0.76043 0.0
H539 H 0.91896 0.88965 0.77179 0.0
C540 C 0.34361 0.68613 0.03136 0.0
C541 C 0.33781 0.69456 0.0083 0.0
C542 C 0.3337 0.66382 0.04075 0.0
C543 C 0.30241 0.60423 0.02204 0.0
H544 H 0.29573 0.59534 0.0897 0.0
C545 C 0.25814 0.51649 0.06817 0.0
C546 C 0.27354 0.50298 0.08388 0.0
C547 C 0.26438 0.54049 0.05873 0.0
C548 C 0.2975 0.59764 0.07077 0.0
H549 H 0.31634 0.68691 0.97731 0.0
H550 H 0.29793 0.64884 0.99407 0.0
H551 H 0.30803 0.63689 0.07389 0.0
H552 H 0.30715 0.50411 0.10258 0.0
H553 H 0.31769 0.54651 0.08666 0.0
H554 H 0.29102 0.56501 0.01917 0.0
C555 C 0.31087 0.65874 1.00469 0.0
C556 C 0.30475 0.62138 0.06164 0.0
C557 C 0.32123 0.68076 0.9951 0.0
C558 C 0.29508 0.51402 0.0903 0.0
C559 C 0.30104 0.53829 0.08134 0.0
C560 C 0.29463 0.5807 0.03117 0.0
C561 C 0.31729 0.64961 0.02751 0.0
C562 C 0.30775 0.62493 0.03714 0.0
C563 C 0.28581 0.55165 0.06539 0.0
C564 C 0.29248 0.57709 0.05562 0.0
H565 H 0.35663 0.69613 0.04184 0.0
H566 H 0.33962 0.65731 0.05813 0.0
H567 H 0.30488 0.60581 1.00316 0.0
H568 H 0.24138 0.50839 0.06304 0.0
H569 H 0.25235 0.55052 0.0465 0.0
C570 C 0.57841 0.0803 0.27285 0.0
C571 C 0.55944 0.06327 0.27204 0.0
C572 C 0.60105 0.07141 0.2793 0.0
C573 C 0.64055 0.05073 0.31145 0.0
H574 H 0.67295 0.99128 0.2843 0.0
C575 C 0.72553 0.00717 0.35301 0.0
C576 C 0.74485 0.00354 0.338 0.0
C577 C 0.70299 0.01264 0.34378 0.0
C578 C 0.66409 0.00796 0.29194 0.0
H579 H 0.54953 0.0233 0.27645 0.0
H580 H 0.58959 0.00752 0.2876 0.0
H581 H 0.63297 0.00394 0.27014 0.0
H582 H 0.75557 1.00197 0.30148 0.0
H583 H 0.7157 0.0114 0.28513 0.0
H584 H 0.6713 0.05478 0.33336 0.0
C585 C 0.5867 0.02784 0.28329 0.0
C586 C 0.6412 0.01505 0.28401 0.0
C587 C 0.5638 0.03686 0.27704 0.0
C588 C 0.74101 0.00483 0.31343 0.0
C589 C 0.71822 0.01005 0.30411 0.0
C590 C 0.66314 0.04346 0.31959 0.0
C591 C 0.60543 0.04518 0.28491 0.0
C592 C 0.62929 0.03664 0.29361 0.0
C593 C 0.69907 0.01441 0.31926 0.0
C594 C 0.67521 0.02205 0.30993 0.0
H595 H 0.57572 0.10075 0.26897 0.0
H596 H 0.61517 0.08516 0.28011 0.0
H597 H 0.63176 0.06735 0.31929 0.0
H598 H 0.72787 0.00623 0.37204 0.0
H599 H 0.68855 0.01564 0.35588 0.0
C600 C 0.71937 0.22259 0.49803 0.0
C601 C 0.69513 0.22184 0.50276 0.0
C602 C 0.73201 0.19973 0.49254 0.0
C603 C 0.72828 0.12767 0.49576 0.0
H604 H 0.76988 0.12868 0.44205 0.0
C605 C 0.75184 0.03662 0.44177 0.0
C606 C 0.7747 0.03393 0.43264 0.0
C607 C 0.745 0.05904 0.45385 0.0
C608 C 0.75863 0.12809 0.45734 0.0
H609 H 0.66521 0.19664 0.50569 0.0
H610 H 0.68695 0.15728 0.49607 0.0
H611 H 0.7531 0.16929 0.45675 0.0
H612 H 0.80863 0.05236 0.43002 0.0
H613 H 0.79665 0.09135 0.45113 0.0
H614 H 0.7332 0.0864 0.49586 0.0
C615 C 0.69646 0.1752 0.4969 0.0
C616 C 0.74904 0.15141 0.4658 0.0
C617 C 0.68391 0.19788 0.50228 0.0
C618 C 0.79085 0.05375 0.43674 0.0
C619 C 0.78396 0.07623 0.44871 0.0
C620 C 0.73779 0.10438 0.48726 0.0
C621 C 0.72064 0.17576 0.49183 0.0
C622 C 0.7333 0.15144 0.48478 0.0
C623 C 0.76082 0.07936 0.45701 0.0
C624 C 0.75269 0.10425 0.46764 0.0
H625 H 0.72845 0.2408 0.4983 0.0
H626 H 0.75067 0.20082 0.48885 0.0
H627 H 0.71662 0.12701 0.51074 0.0
H628 H 0.73893 0.02179 0.43892 0.0
H629 H 0.72698 0.0609 0.45984 0.0
C630 C 0.06018 0.42493 0.71424 0.0
C631 C 0.05848 0.41706 0.73798 0.0
C632 C 0.08076 0.4363 0.70611 0.0
C633 C 0.13637 0.46718 0.72476 0.0
H634 H 0.16108 0.43606 0.66784 0.0
C635 C 0.21849 0.50385 0.67527 0.0
C636 C 0.23391 0.48505 0.66569 0.0
C637 C 0.19753 0.49661 0.68599 0.0
C638 C 0.15451 0.44482 0.68385 0.0
H639 H 0.07642 0.41668 0.77215 0.0
H640 H 0.11212 0.43667 0.758 0.0
H641 H 0.12258 0.4236 0.68213 0.0
H642 H 0.23984 0.44376 0.66095 0.0
H643 H 0.20332 0.43119 0.67974 0.0
H644 H 0.16853 0.48822 0.72653 0.0
C645 C 0.09763 0.43396 0.74563 0.0
C646 C 0.13228 0.43796 0.69184 0.0
C647 C 0.07716 0.42242 0.75372 0.0
C648 C 0.22841 0.45876 0.66812 0.0
C649 C 0.20736 0.45156 0.67869 0.0
C650 C 0.15857 0.47423 0.71663 0.0
C651 C 0.09997 0.44026 0.72159 0.0
C652 C 0.12298 0.44895 0.71245 0.0
C653 C 0.19142 0.47044 0.68724 0.0
C654 C 0.16796 0.46296 0.69617 0.0
H655 H 0.04616 0.42107 0.70164 0.0
H656 H 0.0819 0.44131 0.68754 0.0
H657 H 0.12966 0.47604 0.74066 0.0
H658 H 0.22217 0.52428 0.67377 0.0
H659 H 0.18561 0.51163 0.69234 0.0
C660 C 0.76427 0.92983 0.91447 0.0
C661 C 0.76639 0.95257 0.92765 0.0
C662 C 0.7696 0.90563 0.92461 0.0
C663 C 0.78207 0.87132 0.9822 0.0
H664 H 0.81078 0.82024 0.94103 0.0
C665 C 0.83425 0.77873 0.01386 0.0
C666 C 0.83018 0.75571 1.00167 0.0
C667 C 0.82336 0.80206 0.00645 0.0
C668 C 0.80249 0.83416 0.95268 0.0
H669 H 0.77579 0.96781 0.96192 0.0
H670 H 0.78624 0.92548 0.97954 0.0
H671 H 0.79902 0.86253 0.92517 0.0
H672 H 0.81089 0.73861 0.9727 0.0
H673 H 0.7921 0.77965 0.95928 0.0
H674 H 0.78683 0.84293 0.00997 0.0
C675 C 0.7797 0.92625 0.96148 0.0
C676 C 0.79563 0.85849 0.9436 0.0
C677 C 0.77387 0.95058 0.95137 0.0
C678 C 0.81424 0.75614 0.98245 0.0
C679 C 0.80366 0.7796 0.9747 0.0
C680 C 0.78933 0.84704 0.99138 0.0
C681 C 0.77788 0.90342 0.94812 0.0
C682 C 0.78521 0.87746 0.95815 0.0
C683 C 0.80847 0.80289 0.98638 0.0
C684 C 0.79955 0.82819 0.97668 0.0
H685 H 0.7587 0.93068 0.89609 0.0
H686 H 0.76731 0.88864 0.91384 0.0
H687 H 0.77385 0.88517 0.99394 0.0
H688 H 0.84613 0.77874 0.02895 0.0
H689 H 0.82745 0.81966 0.01578 0.0
C690 C 0.46525 0.56238 0.21119 0.0
C691 C 0.46866 0.56842 0.23514 0.0
C692 C 0.44477 0.55011 0.20365 0.0
C693 C 0.39312 0.54356 0.19111 0.0
H694 H 0.36277 0.48989 0.22718 0.0
C695 C 0.29816 0.51385 0.16927 0.0
C696 C 0.294 0.48714 0.16873 0.0
C697 C 0.31921 0.523 0.17888 0.0
C698 C 0.37108 0.50478 0.21684 0.0
H699 H 0.45377 0.56505 0.27013 0.0
H700 H 0.41808 0.54387 0.25694 0.0
H701 H 0.40128 0.50522 0.24007 0.0
H702 H 0.30835 0.44917 0.17878 0.0
H703 H 0.34504 0.46516 0.1954 0.0
H704 H 0.36319 0.5429 0.16768 0.0
C705 C 0.43125 0.54847 0.24398 0.0
C706 C 0.39306 0.51371 0.22433 0.0
C707 C 0.45172 0.56072 0.25153 0.0
C708 C 0.31094 0.46988 0.17892 0.0
C709 C 0.33199 0.47905 0.18854 0.0
C710 C 0.37117 0.53468 0.18366 0.0
C711 C 0.42725 0.5436 0.21987 0.0
C712 C 0.40433 0.53323 0.21155 0.0
C713 C 0.33659 0.50568 0.18818 0.0
C714 C 0.35983 0.51525 0.19646 0.0
H715 H 0.47798 0.56793 0.1981 0.0
H716 H 0.44245 0.54618 0.18501 0.0
H717 H 0.40111 0.55888 0.18103 0.0
H718 H 0.2855 0.5277 0.16162 0.0
H719 H 0.32201 0.54368 0.17873 0.0
C720 C 0.51437 0.17123 0.31335 0.0
C721 C 0.53077 0.16395 0.29606 0.0
C722 C 0.52185 0.18299 0.33422 0.0
C723 C 0.57461 0.18563 0.37236 0.0
H724 H 0.53918 0.23904 0.40527 0.0
C725 C 0.59739 0.21129 0.46844 0.0
C726 C 0.59893 0.23783 0.47336 0.0
C727 C 0.58715 0.20312 0.44724 0.0
C728 C 0.54931 0.22418 0.39625 0.0
H729 H 0.56769 0.16491 0.28649 0.0
H730 H 0.58065 0.18571 0.32275 0.0
H731 H 0.52599 0.22548 0.36604 0.0
H732 H 0.58976 0.27655 0.46038 0.0
H733 H 0.572 0.26225 0.42345 0.0
H734 H 0.59807 0.18446 0.40231 0.0
C735 C 0.56207 0.18185 0.32036 0.0
C736 C 0.54168 0.21631 0.37386 0.0
C737 C 0.55459 0.17013 0.29947 0.0
C738 C 0.58893 0.25594 0.45715 0.0
C739 C 0.57865 0.24776 0.43598 0.0
C740 C 0.58217 0.19341 0.39473 0.0
C741 C 0.54589 0.18771 0.33826 0.0
C742 C 0.55428 0.19696 0.36165 0.0
C743 C 0.57817 0.22128 0.43053 0.0
C744 C 0.5696 0.21273 0.40697 0.0
H745 H 0.49586 0.16683 0.31129 0.0
H746 H 0.50895 0.18718 0.34768 0.0
H747 H 0.58453 0.1704 0.36362 0.0
H748 H 0.60483 0.19681 0.48055 0.0
H749 H 0.58665 0.18255 0.44375 0.0
C750 C 0.08919 0.27019 0.53362 0.0
C751 C 0.09605 0.24417 0.53018 0.0
C752 C 0.07758 0.27763 0.55431 0.0
C753 C 0.07255 0.25616 0.61626 0.0
H754 H 0.02294 0.30895 0.61939 0.0
C755 C 0.03252 0.28668 0.70563 0.0
C756 C 0.02852 0.31336 0.70866 0.0
C757 C 0.03789 0.27685 0.68326 0.0
C758 C 0.03692 0.2943 0.61886 0.0
H759 H 0.0945 0.20531 0.545 0.0
H760 H 0.07419 0.21821 0.58067 0.0
H761 H 0.03723 0.29494 0.58095 0.0
H762 H 0.02656 0.35062 0.69062 0.0
H763 H 0.03622 0.33371 0.65199 0.0
H764 H 0.0728 0.25593 0.65404 0.0
C765 C 0.07823 0.23299 0.56774 0.0
C766 C 0.04508 0.28627 0.59679 0.0
C767 C 0.08978 0.2256 0.54717 0.0
C768 C 0.02947 0.32992 0.68886 0.0
C769 C 0.03487 0.32017 0.66661 0.0
C770 C 0.0645 0.26427 0.63828 0.0
C771 C 0.07262 0.25917 0.57193 0.0
C772 C 0.06309 0.2672 0.59523 0.0
C773 C 0.03939 0.29354 0.66348 0.0
C774 C 0.04671 0.28361 0.63993 0.0
H775 H 0.09382 0.28499 0.52093 0.0
H776 H 0.07355 0.29799 0.55702 0.0
H777 H 0.08673 0.24174 0.61574 0.0
H778 H 0.03181 0.27347 0.72057 0.0
H779 H 0.04095 0.25619 0.68147 0.0
C780 C 0.97544 0.79994 0.79455 0.0
C781 C 0.99941 0.80537 0.79156 0.0
C782 C 0.96779 0.78863 0.81553 0.0
C783 C 0.98424 0.78401 0.87831 0.0
H784 H 0.93534 0.73289 0.88077 0.0
C785 C 0.93269 0.71681 0.95039 0.0
C786 C 0.92594 0.73556 0.96703 0.0
C787 C 0.94346 0.72403 0.92941 0.0
C788 C 0.94915 0.74702 0.88039 0.0
H789 H 0.03434 0.80179 0.80781 0.0
H790 H 0.02094 0.78195 0.8443 0.0
H791 H 0.95084 0.74611 0.84262 0.0
H792 H 0.92605 0.77656 0.97499 0.0
H793 H 0.94497 0.7892 0.93823 0.0
H794 H 0.98245 0.78501 0.91609 0.0
C795 C 0.00804 0.78681 0.83054 0.0
C796 C 0.95788 0.75473 0.85853 0.0
C797 C 0.01572 0.79799 0.80952 0.0
C798 C 0.93104 0.76164 0.96257 0.0
C799 C 0.94192 0.76887 0.94154 0.0
C800 C 0.9754 0.77642 0.90017 0.0
C801 C 0.98393 0.7826 0.834 0.0
C802 C 0.97545 0.77338 0.85724 0.0
C803 C 0.94784 0.75017 0.92455 0.0
C804 C 0.95771 0.75789 0.90144 0.0
H805 H 0.96241 0.80539 0.78109 0.0
H806 H 0.94907 0.78573 0.81771 0.0
H807 H 0.99758 0.79867 0.87787 0.0
H808 H 0.92921 0.6965 0.95328 0.0
H809 H 0.94818 0.70913 0.91687 0.0
C810 C 0.48854 0.65243 0.18998 0.0
C811 C 0.49025 0.66938 0.2092 0.0
C812 C 0.4799 0.66119 0.16807 0.0
C813 C 0.47158 0.71674 0.12877 0.0
H814 H 0.42233 0.67559 0.10073 0.0
C815 C 0.42803 0.7421 0.03708 0.0
C816 C 0.42155 0.72129 0.02276 0.0
C817 C 0.43596 0.7378 0.06042 0.0
C818 C 0.43629 0.68715 0.10806 0.0
H819 H 0.48506 0.70915 0.2202 0.0
H820 H 0.47027 0.72477 0.18125 0.0
H821 H 0.43727 0.66499 0.14024 0.0
H822 H 0.41922 0.67955 0.02129 0.0
H823 H 0.43386 0.67183 0.06143 0.0
H824 H 0.47126 0.73834 0.09622 0.0
C825 C 0.47546 0.70456 0.18349 0.0
C826 C 0.44472 0.68116 0.13083 0.0
C827 C 0.48387 0.69564 0.20573 0.0
C828 C 0.42388 0.69602 0.03196 0.0
C829 C 0.43205 0.69165 0.05513 0.0
C830 C 0.46334 0.72259 0.10575 0.0
C831 C 0.47298 0.68724 0.16459 0.0
C832 C 0.46269 0.69559 0.14132 0.0
C833 C 0.4379 0.71248 0.06987 0.0
C834 C 0.44584 0.70755 0.09491 0.0
H835 H 0.49346 0.63211 0.19193 0.0
H836 H 0.47855 0.64747 0.15376 0.0
H837 H 0.48554 0.72811 0.13639 0.0
H838 H 0.42668 0.76177 0.03033 0.0
H839 H 0.44012 0.75438 0.07115 0.0
C840 C 0.13032 0.33374 0.32552 0.0
C841 C 0.1467 0.32018 0.34022 0.0
C842 C 0.13725 0.34408 0.30383 0.0
C843 C 0.18986 0.36661 0.27316 0.0
H844 H 0.14996 0.36366 0.21703 0.0
C845 C 0.21952 0.40954 0.18434 0.0
C846 C 0.20238 0.42408 0.17144 0.0
C847 C 0.21301 0.3941 0.20349 0.0
C848 C 0.16124 0.36483 0.23259 0.0
H849 H 0.18322 0.30684 0.34358 0.0
H850 H 0.19522 0.32466 0.30569 0.0
H851 H 0.13786 0.34226 0.25339 0.0
H852 H 0.16495 0.43315 0.16785 0.0
H853 H 0.1536 0.40663 0.20144 0.0
H854 H 0.21297 0.38964 0.25267 0.0
C855 C 0.17704 0.32739 0.31098 0.0
C856 C 0.15429 0.35255 0.25342 0.0
C857 C 0.17009 0.31694 0.33258 0.0
C858 C 0.17854 0.42215 0.17748 0.0
C859 C 0.17203 0.40681 0.19668 0.0
C860 C 0.19674 0.37897 0.25239 0.0
C861 C 0.16076 0.34125 0.29642 0.0
C862 C 0.16846 0.35344 0.27399 0.0
C863 C 0.18922 0.39293 0.2102 0.0
C864 C 0.18246 0.37841 0.23186 0.0
H865 H 0.11213 0.33639 0.3308 0.0
H866 H 0.12432 0.35484 0.29312 0.0
H867 H 0.20101 0.36799 0.28878 0.0
H868 H 0.23803 0.41051 0.17993 0.0
H869 H 0.22667 0.38329 0.2132 0.0
C870 C 0.92024 0.87097 0.5859 0.0
C871 C 0.93231 0.88827 0.60052 0.0
C872 C 0.91164 0.87886 0.56362 0.0
C873 C 0.89411 0.93754 0.52895 0.0
H874 H 0.89316 0.88914 0.47698 0.0
C875 C 0.8502 0.96475 0.43885 0.0
C876 C 0.83385 0.94656 0.4312 0.0
C877 C 0.86658 0.95825 0.45691 0.0
C878 C 0.89333 0.9029 0.49131 0.0
H879 H 0.94523 0.92736 0.60283 0.0
H880 H 0.93029 0.94112 0.5639 0.0
H881 H 0.91324 0.87684 0.51398 0.0
H882 H 0.82202 0.90734 0.43554 0.0
H883 H 0.85084 0.8957 0.46656 0.0
H884 H 0.87383 0.96341 0.50634 0.0
C885 C 0.92717 0.92152 0.56983 0.0
C886 C 0.90474 0.89581 0.51258 0.0
C887 C 0.93574 0.91363 0.59217 0.0
C888 C 0.83479 0.9215 0.44094 0.0
C889 C 0.85129 0.91488 0.4587 0.0
C890 C 0.8828 0.94467 0.50762 0.0
C891 C 0.91491 0.90426 0.55528 0.0
C892 C 0.90482 0.9128 0.53188 0.0
C893 C 0.86692 0.93339 0.46741 0.0
C894 C 0.88182 0.92722 0.48873 0.0
H895 H 0.9169 0.85144 0.5919 0.0
H896 H 0.90188 0.86516 0.55318 0.0
H897 H 0.89357 0.95104 0.54347 0.0
H898 H 0.84944 0.98436 0.43182 0.0
H899 H 0.87848 0.97288 0.46317 0.0
C900 C 0.34141 0.54257 0.68084 0.0
C901 C 0.32147 0.54494 0.66593 0.0
C902 C 0.34502 0.56013 0.69901 0.0
C903 C 0.31324 0.60553 0.7378 0.0
H904 H 0.37707 0.6228 0.75638 0.0
C905 C 0.33845 0.66953 0.8192 0.0
C906 C 0.35704 0.65919 0.83349 0.0
C907 C 0.33249 0.65796 0.79765 0.0
C908 C 0.35914 0.61811 0.75144 0.0
H909 H 0.28979 0.56779 0.65798 0.0
H910 H 0.29621 0.5991 0.68982 0.0
H911 H 0.3702 0.60028 0.71942 0.0
H912 H 0.38286 0.62754 0.83679 0.0
H913 H 0.37286 0.60792 0.79916 0.0
H914 H 0.30236 0.62349 0.77011 0.0
C915 C 0.30901 0.58344 0.68749 0.0
C916 C 0.35518 0.60517 0.73026 0.0
C917 C 0.30543 0.56575 0.66912 0.0
C918 C 0.3689 0.63651 0.82603 0.0
C919 C 0.36314 0.62518 0.80447 0.0
C920 C 0.31721 0.61877 0.75898 0.0
C921 C 0.32879 0.58065 0.70281 0.0
C922 C 0.33228 0.59797 0.72348 0.0
C923 C 0.34516 0.636 0.78984 0.0
C924 C 0.3403 0.62451 0.76632 0.0
H925 H 0.35401 0.52663 0.67889 0.0
H926 H 0.36019 0.55697 0.71064 0.0
H927 H 0.29539 0.60017 0.73323 0.0
H928 H 0.32904 0.68708 0.82424 0.0
H929 H 0.31855 0.66671 0.78672 0.0
C930 C 0.59327 0.06182 0.09799 0.0
C931 C 0.60092 0.08483 0.1085 0.0
C932 C 0.6023 0.05371 0.07627 0.0
C933 C 0.63166 0.07853 0.02312 0.0
H934 H 0.65306 0.00739 0.01444 0.0
C935 C 0.69475 0.0499 0.94898 0.0
C936 C 0.69245 0.02592 0.9377 0.0
C937 C 0.68093 0.05631 0.96837 0.0
C938 C 0.64679 0.02723 0.01639 0.0
H939 H 0.62469 0.11687 0.10447 0.0
H940 H 0.64 0.103 0.06662 0.0
H941 H 0.63402 0.01987 0.05127 0.0
H942 H 0.67335 0.99002 0.93784 0.0
H943 H 0.64894 1.0014 0.97175 0.0
H944 H 0.64447 0.08605 0.98845 0.0
C945 C 0.62677 0.09141 0.07501 0.0
C946 C 0.63593 0.03438 0.03753 0.0
C947 C 0.61791 0.0994 0.09674 0.0
C948 C 0.67558 0.00867 0.94609 0.0
C949 C 0.6617 0.01511 0.96563 0.0
C950 C 0.64237 0.07138 1.002 0.0
C951 C 0.61905 0.06852 0.06447 0.0
C952 C 0.6287 0.06025 0.04132 0.0
C953 C 0.66433 0.03899 0.97709 0.0
C954 C 0.65056 0.04577 0.99854 0.0
H955 H 0.58001 0.05024 0.10633 0.0
H956 H 0.59587 0.03608 0.06852 0.0
H957 H 0.62584 0.0985 0.02528 0.0
H958 H 0.70755 0.06371 0.94311 0.0
H959 H 0.68378 0.07466 0.97694 0.0
C960 C 0.66093 0.16565 0.68337 0.0
C961 C 0.67514 0.16401 0.66323 0.0
C962 C 0.66856 0.15441 0.70487 0.0
C963 C 0.70629 0.1011 0.72716 0.0
H964 H 0.69966 0.13314 0.78849 0.0
C965 C 0.73801 0.04562 0.80944 0.0
C966 C 0.72343 0.04639 0.8292 0.0
C967 C 0.73478 0.06362 0.7911 0.0
C968 C 0.70145 0.12383 0.77153 0.0
H969 H 0.70869 0.14972 0.65004 0.0
H970 H 0.72194 0.13006 0.68747 0.0
H971 H 0.68843 0.15766 0.7526 0.0
H972 H 0.69479 0.06712 0.84609 0.0
H973 H 0.68831 0.09823 0.81347 0.0
H974 H 0.71829 0.06704 0.74562 0.0
C975 C 0.7049 0.14004 0.68663 0.0
C976 C 0.69507 0.13791 0.75099 0.0
C977 C 0.69739 0.15148 0.66524 0.0
C978 C 0.70637 0.06638 0.83104 0.0
C979 C 0.70271 0.08415 0.81233 0.0
C980 C 0.71238 0.08699 0.74757 0.0
C981 C 0.69043 0.14104 0.70659 0.0
C982 C 0.69753 0.12669 0.72857 0.0
C983 C 0.71632 0.08235 0.7917 0.0
C984 C 0.71021 0.09813 0.77009 0.0
H985 H 0.64378 0.1754 0.68244 0.0
H986 H 0.65697 0.15538 0.7199 0.0
H987 H 0.70789 0.0917 0.7102 0.0
H988 H 0.75142 0.03043 0.80777 0.0
H989 H 0.7462 0.06215 0.77598 0.0
C990 C 0.19124 0.41131 0.05848 0.0
C991 C 0.19018 0.43703 0.06636 0.0
C992 C 0.17894 0.40417 0.03809 0.0
C993 C 0.13128 0.42529 0.99591 0.0
H994 H 0.16469 0.37923 0.95342 0.0
C995 C 0.09855 0.40471 0.90046 0.0
C996 C 0.09974 0.37868 0.89334 0.0
C997 C 0.10907 0.41221 0.92177 0.0
C998 C 0.15505 0.39192 0.96519 0.0
H999 H 0.17469 0.47526 0.05938 0.0
H1000 H 0.15354 0.46288 0.02361 0.0
H1001 H 0.18328 0.39123 0.99065 0.0
H1002 H 0.11247 0.34008 0.90341 0.0
H1003 H 0.13104 0.35325 0.94026 0.0
H1004 H 0.10314 0.42613 0.97015 0.0
C1005 C 0.16367 0.44814 0.03334 0.0
C1006 C 0.16566 0.39874 0.98658 0.0
C1007 C 0.17589 0.45526 0.05382 0.0
C1008 C 0.11167 0.36038 0.90804 0.0
C1009 C 0.12225 0.3679 0.92922 0.0
C1010 C 0.1207 0.41854 0.97442 0.0
C1011 C 0.16538 0.42261 0.025 0.0
C1012 C 0.15387 0.41539 1.00228 0.0
C1013 C 0.12108 0.39388 0.93634 0.0
C1014 C 0.13243 0.40167 0.95889 0.0
H1015 H 0.2019 0.39671 0.06782 0.0
H1016 H 0.18023 0.38421 0.03246 0.0
H1017 H 0.12161 0.43794 0.00769 0.0
H1018 H 0.08972 0.41935 0.88946 0.0
H1019 H 0.1081 0.43243 0.92668 0.0
C1020 C 0.793 0.90523 0.31498 0.0
C1021 C 0.80939 0.9231 0.32346 0.0
C1022 C 0.79798 0.89033 0.29495 0.0
C1023 C 0.84814 0.86888 0.2573 0.0
H1024 H 0.79984 0.85943 0.20909 0.0
C1025 C 0.87149 0.84225 0.16235 0.0
C1026 C 0.85939 0.82178 0.15179 0.0
C1027 C 0.86395 0.85276 0.18366 0.0
C1028 C 0.81342 0.86169 0.22253 0.0
H1029 H 0.8439 0.93914 0.31744 0.0
H1030 H 0.85226 0.91379 0.28274 0.0
H1031 H 0.78948 0.88048 0.24627 0.0
H1032 H 0.82923 0.79695 0.15524 0.0
H1033 H 0.81572 0.8159 0.19233 0.0
H1034 H 0.87221 0.8509 0.23333 0.0
C1035 C 0.83578 0.91075 0.29168 0.0
C1036 C 0.8075 0.87366 0.24387 0.0
C1037 C 0.83087 0.9255 0.3116 0.0
C1038 C 0.83891 0.81281 0.16273 0.0
C1039 C 0.8312 0.82357 0.18402 0.0
C1040 C 0.85407 0.85721 0.23598 0.0
C1041 C 0.81945 0.89296 0.28302 0.0
C1042 C 0.82492 0.87788 0.26133 0.0
C1043 C 0.84393 0.84333 0.19491 0.0
C1044 C 0.8369 0.85391 0.21818 0.0
H1045 H 0.77627 0.90291 0.32366 0.0
H1046 H 0.78506 0.87667 0.28889 0.0
H1047 H 0.86191 0.87114 0.27055 0.0
H1048 H 0.88693 0.85019 0.15418 0.0
H1049 H 0.87383 0.86836 0.19137 0.0
C1050 C 0.34908 0.51238 0.54975 0.0
C1051 C 0.33435 0.53104 0.56049 0.0
C1052 C 0.36261 0.51896 0.53017 0.0
C1053 C 0.38684 0.57514 0.49815 0.0
H1054 H 0.38702 0.52939 0.4442 0.0
C1055 C 0.4163 0.60939 0.40646 0.0
C1056 C 0.42958 0.5922 0.39247 0.0
C1057 C 0.40621 0.60095 0.42744 0.0
C1058 C 0.38745 0.54222 0.45922 0.0
H1059 H 0.32282 0.57145 0.55927 0.0
H1060 H 0.34629 0.5828 0.52528 0.0
H1061 H 0.36725 0.51645 0.48034 0.0
H1062 H 0.44248 0.55248 0.38967 0.0
H1063 H 0.42513 0.5378 0.4266 0.0
H1064 H 0.40683 0.601 0.47707 0.0
C1065 C 0.34752 0.56312 0.53205 0.0
C1066 C 0.37612 0.53479 0.47995 0.0
C1067 C 0.33393 0.55654 0.55151 0.0
C1068 C 0.4325 0.56628 0.40007 0.0
C1069 C 0.42236 0.55781 0.42113 0.0
C1070 C 0.39819 0.58253 0.47748 0.0
C1071 C 0.36187 0.54438 0.52098 0.0
C1072 C 0.37539 0.55134 0.49955 0.0
C1073 C 0.40916 0.57509 0.43513 0.0
C1074 C 0.39834 0.56636 0.45761 0.0
H1075 H 0.34988 0.49255 0.55619 0.0
H1076 H 0.37368 0.50413 0.52221 0.0
H1077 H 0.38699 0.58813 0.51306 0.0
H1078 H 0.41396 0.62958 0.40139 0.0
H1079 H 0.39589 0.61473 0.43757 0.0
C1080 C 0.21978 0.18037 0.43657 0.0
C1081 C 0.20621 0.20293 0.43134 0.0
C1082 C 0.24068 0.17494 0.42458 0.0
C1083 C 0.27273 0.18674 0.37006 0.0
H1084 H 0.32771 0.16653 0.40815 0.0
C1085 C 0.36357 0.1624 0.32787 0.0
C1086 C 0.37671 0.14143 0.33786 0.0
C1087 C 0.34345 0.17243 0.33911 0.0
C1088 C 0.31252 0.17181 0.39715 0.0
H1089 H 0.20373 0.23713 0.40881 0.0
H1090 H 0.2402 0.22724 0.38742 0.0
H1091 H 0.29093 0.17851 0.42734 0.0
H1092 H 0.3793 0.11537 0.36814 0.0
H1093 H 0.34408 0.132 0.3871 0.0
H1094 H 0.29403 0.17915 0.33982 0.0
C1095 C 0.23461 0.21393 0.40102 0.0
C1096 C 0.29143 0.17881 0.40821 0.0
C1097 C 0.21378 0.21961 0.41331 0.0
C1098 C 0.36948 0.13121 0.35965 0.0
C1099 C 0.34936 0.14108 0.37076 0.0
C1100 C 0.2938 0.1794 0.35893 0.0
C1101 C 0.24847 0.19172 0.40681 0.0
C1102 C 0.2712 0.18601 0.39482 0.0
C1103 C 0.33592 0.16174 0.36064 0.0
C1104 C 0.31392 0.17146 0.37233 0.0
H1105 H 0.21458 0.16708 0.45035 0.0
H1106 H 0.2508 0.1575 0.42924 0.0
H1107 H 0.25739 0.19209 0.35928 0.0
H1108 H 0.36844 0.17068 0.31104 0.0
H1109 H 0.3338 0.18856 0.33088 0.0
C1110 C 0.09225 0.07927 0.57524 0.0
C1111 C 0.11658 0.08388 0.57721 0.0
C1112 C 0.08227 0.0589 0.58782 0.0
C1113 C 0.09875 0.99721 0.61873 0.0
H1114 H 0.03809 0.00627 0.64884 0.0
C1115 C 0.06784 0.92909 0.69201 0.0
C1116 C 0.04443 0.92068 0.69099 0.0
C1117 C 0.07541 0.94824 0.67654 0.0
C1118 C 0.0549 0.00337 0.64026 0.0
H1119 H 0.14945 0.07044 0.59389 0.0
H1120 H 0.13199 0.03573 0.61634 0.0
H1121 H 0.05367 0.04152 0.62502 0.0
H1122 H 0.01058 0.92594 0.67293 0.0
H1123 H 0.02388 0.95977 0.64593 0.0
H1124 H 0.10026 0.95937 0.63448 0.0
C1125 C 0.12064 0.04752 0.60479 0.0
C1126 C 0.06383 0.02353 0.6266 0.0
C1127 C 0.13061 0.06774 0.59217 0.0
C1128 C 0.02874 0.93195 0.67413 0.0
C1129 C 0.03629 0.95138 0.65876 0.0
C1130 C 0.08992 0.9772 0.63249 0.0
C1131 C 0.09638 0.0427 0.60266 0.0
C1132 C 0.08605 0.02082 0.61597 0.0
C1133 C 0.05975 0.95962 0.65978 0.0
C1134 C 0.06807 0.98019 0.64368 0.0
H1135 H 0.08088 0.09147 0.56407 0.0
H1136 H 0.06356 0.05564 0.58565 0.0
H1137 H 0.11563 0.99419 0.61032 0.0
H1138 H 0.08043 0.92084 0.70474 0.0
H1139 H 0.09351 0.95442 0.67793 0.0
C1140 C 0.1568 0.8022 0.84956 0.0
C1141 C 0.15985 0.81794 0.82948 0.0
C1142 C 0.17636 0.7928 0.86277 0.0
C1143 C 0.24237 0.78507 0.86256 0.0
H1144 H 0.23578 0.79141 0.93032 0.0
C1145 C 0.31929 0.76236 0.93071 0.0
C1146 C 0.32102 0.78004 0.94935 0.0
C1147 C 0.29978 0.76362 0.91504 0.0
C1148 C 0.23798 0.78956 0.91142 0.0
H1149 H 0.18607 0.83457 0.80669 0.0
H1150 H 0.21999 0.8189 0.82999 0.0
H1151 H 0.2016 0.799 0.90461 0.0
H1152 H 0.30411 0.81319 0.96586 0.0
H1153 H 0.27062 0.81563 0.93865 0.0
H1154 H 0.27915 0.77674 0.86956 0.0
C1155 C 0.20253 0.81361 0.83553 0.0
C1156 C 0.21823 0.79357 0.89664 0.0
C1157 C 0.183 0.82293 0.82231 0.0
C1158 C 0.30321 0.79916 0.95177 0.0
C1159 C 0.28387 0.80043 0.93625 0.0
C1160 C 0.26221 0.78108 0.87741 0.0
C1161 C 0.19949 0.79892 0.85628 0.0
C1162 C 0.22018 0.79187 0.87196 0.0
C1163 C 0.28165 0.7825 0.91787 0.0
C1164 C 0.26035 0.78388 0.90201 0.0
H1165 H 0.13927 0.79799 0.85568 0.0
H1166 H 0.1733 0.78117 0.8784 0.0
H1167 H 0.2445 0.78322 0.84366 0.0
H1168 H 0.33272 0.74733 0.92855 0.0
H1169 H 0.29861 0.74947 0.90109 0.0
C1170 C 0.48051 0.02188 0.2077 0.0
C1171 C 0.49498 0.04153 0.19919 0.0
C1172 C 0.47646 0.99985 0.1943 0.0
C1173 C 0.4732 0.97622 0.13434 0.0
H1174 H 0.47844 0.90837 0.1642 0.0
C1175 C 0.44808 0.88398 0.08377 0.0
C1176 C 0.43526 0.86557 0.09643 0.0
C1177 C 0.45911 0.90425 0.09549 0.0
C1178 C 0.47666 0.92715 0.15561 0.0
H1179 H 0.51647 0.05348 0.16981 0.0
H1180 H 0.50879 0.01501 0.14601 0.0
H1181 H 0.49019 0.94652 0.18607 0.0
H1182 H 0.42512 0.85343 0.13157 0.0
H1183 H 0.44336 0.88918 0.1518 0.0
H1184 H 0.45858 0.95722 0.10429 0.0
C1185 C 0.50081 0.01675 0.16321 0.0
C1186 C 0.48353 0.94898 0.16813 0.0
C1187 C 0.50522 0.03869 0.17684 0.0
C1188 C 0.43448 0.86746 0.12117 0.0
C1189 C 0.44529 0.88784 0.13285 0.0
C1190 C 0.46601 0.95442 0.12189 0.0
C1191 C 0.48651 0.99705 0.17193 0.0
C1192 C 0.48151 0.97376 0.15775 0.0
C1193 C 0.45747 0.90676 0.12015 0.0
C1194 C 0.46725 0.92962 0.13252 0.0
H1195 H 0.47245 0.02333 0.22488 0.0
H1196 H 0.46515 0.9851 0.20132 0.0
H1197 H 0.47129 0.99515 0.126 0.0
H1198 H 0.44893 0.88334 0.06469 0.0
H1199 H 0.46865 0.91816 0.08514 0.0
C1200 C 0.85591 0.33784 0.68024 0.0
C1201 C 0.86856 0.35773 0.66938 0.0
C1202 C 0.83457 0.32963 0.67048 0.0
C1203 C 0.8011 0.33098 0.61358 0.0
H1204 H 0.74919 0.30798 0.65182 0.0
C1205 C 0.70942 0.31602 0.57386 0.0
C1206 C 0.69925 0.29182 0.5779 0.0
C1207 C 0.72917 0.32345 0.5868 0.0
C1208 C 0.76366 0.31416 0.64099 0.0
H1209 H 0.86805 0.38506 0.63998 0.0
H1210 H 0.83044 0.37173 0.62374 0.0
H1211 H 0.78522 0.3232 0.67108 0.0
H1212 H 0.7013 0.25697 0.59965 0.0
H1213 H 0.73596 0.27033 0.62267 0.0
H1214 H 0.77931 0.32262 0.58357 0.0
C1215 C 0.83736 0.36186 0.63942 0.0
C1216 C 0.78431 0.32283 0.65196 0.0
C1217 C 0.85881 0.36985 0.64901 0.0
C1218 C 0.70874 0.2757 0.59604 0.0
C1219 C 0.72851 0.28333 0.60924 0.0
C1220 C 0.78043 0.32266 0.6027 0.0
C1221 C 0.82518 0.34129 0.64973 0.0
C1222 C 0.80323 0.3316 0.63836 0.0
C1223 C 0.7392 0.30702 0.60429 0.0
C1224 C 0.76144 0.3144 0.61626 0.0
H1225 H 0.86259 0.32836 0.69621 0.0
H1226 H 0.8258 0.31367 0.67887 0.0
H1227 H 0.81547 0.33681 0.60248 0.0
H1228 H 0.70256 0.32909 0.56019 0.0
H1229 H 0.73687 0.34198 0.58288 0.0
C1230 C 0.99096 0.41769 0.81584 0.0
C1231 C 0.97325 0.40402 0.804 0.0
C1232 C 0.98503 0.43586 0.83315 0.0
C1233 C 0.93651 0.45745 0.87246 0.0
H1234 H 0.96581 0.52441 0.86837 0.0
C1235 C 0.89644 0.54736 0.91754 0.0
C1236 C 0.91165 0.56498 0.92837 0.0
C1237 C 0.90538 0.52716 0.90378 0.0
C1238 C 0.95769 0.50573 0.87002 0.0
H1239 H 0.93562 0.39778 0.80176 0.0
H1240 H 0.92526 0.42933 0.83189 0.0
H1241 H 0.97911 0.48933 0.8428 0.0
H1242 H 0.94831 0.57518 0.93294 0.0
H1243 H 0.96399 0.53981 0.90885 0.0
H1244 H 0.91493 0.47384 0.89947 0.0
C1245 C 0.94373 0.42606 0.82791 0.0
C1246 C 0.96534 0.48557 0.85536 0.0
C1247 C 0.94965 0.40803 0.81055 0.0
C1248 C 0.93608 0.56209 0.92472 0.0
C1249 C 0.94506 0.54179 0.91091 0.0
C1250 C 0.92891 0.47755 0.88714 0.0
C1251 C 0.96129 0.44057 0.83913 0.0
C1252 C 0.95459 0.4613 0.85614 0.0
C1253 C 0.92981 0.52394 0.90041 0.0
C1254 C 0.93911 0.50209 0.88585 0.0
H1255 H 0.00934 0.41493 0.81122 0.0
H1256 H 0.99901 0.44641 0.84169 0.0
H1257 H 0.92813 0.43889 0.87384 0.0
H1258 H 0.87749 0.54931 0.91951 0.0
H1259 H 0.89304 0.51422 0.89552 0.0
C1260 C 0.82061 0.66474 0.07658 0.0
C1261 C 0.82946 0.68994 0.07612 0.0
C1262 C 0.80057 0.65915 0.08951 0.0
C1263 C 0.76123 0.68187 0.13682 0.0
H1264 H 0.71518 0.64127 0.10307 0.0
C1265 C 0.66638 0.66507 0.17094 0.0
C1266 C 0.65708 0.64034 0.16747 0.0
C1267 C 0.68797 0.67162 0.16106 0.0
C1268 C 0.72794 0.65233 0.11291 0.0
H1269 H 0.82478 0.72877 0.08991 0.0
H1270 H 0.78957 0.71892 0.11257 0.0
H1271 H 0.7521 0.65165 0.08428 0.0
H1272 H 0.66337 0.60313 0.15091 0.0
H1273 H 0.70113 0.61427 0.1343 0.0
H1274 H 0.73694 0.68243 0.16553 0.0
C1275 C 0.79827 0.70352 0.10288 0.0
C1276 C 0.74913 0.65831 0.1021 0.0
C1277 C 0.81841 0.70916 0.08987 0.0
C1278 C 0.67007 0.62224 0.15419 0.0
C1279 C 0.69162 0.62876 0.14437 0.0
C1280 C 0.73998 0.67579 0.14771 0.0
C1281 C 0.78881 0.67859 0.10233 0.0
C1282 C 0.76612 0.67293 0.11398 0.0
C1283 C 0.70074 0.65361 0.14745 0.0
C1284 C 0.72317 0.66074 0.13593 0.0
H1285 H 0.82879 0.64936 0.06644 0.0
H1286 H 0.79404 0.63962 0.08914 0.0
H1287 H 0.77403 0.69308 0.14646 0.0
H1288 H 0.65697 0.67939 0.1813 0.0
H1289 H 0.6944 0.69098 0.16366 0.0
C1290 C 0.59268 0.40511 0.41003 0.0
C1291 C 0.60112 0.4109 0.4328 0.0
C1292 C 0.58388 0.42479 0.39495 0.0
C1293 C 0.56215 0.49339 0.39223 0.0
H1294 H 0.58292 0.48854 0.32745 0.0
C1295 C 0.54893 0.57548 0.32005 0.0
C1296 C 0.54317 0.56671 0.2973 0.0
C1297 C 0.55441 0.55756 0.33834 0.0
C1298 C 0.57674 0.49011 0.34542 0.0
H1299 H 0.60563 0.4419 0.45798 0.0
H1300 H 0.59069 0.47628 0.43147 0.0
H1301 H 0.59483 0.45496 0.35577 0.0
H1302 H 0.53687 0.53258 0.2763 0.0
H1303 H 0.54596 0.50177 0.30787 0.0
H1304 H 0.54411 0.52883 0.38159 0.0
C1305 C 0.59082 0.45648 0.42531 0.0
C1306 C 0.58353 0.47077 0.36167 0.0
C1307 C 0.59962 0.43678 0.44042 0.0
C1308 C 0.5417 0.53996 0.29352 0.0
C1309 C 0.54703 0.52224 0.31162 0.0
C1310 C 0.55532 0.51287 0.37586 0.0
C1311 C 0.58331 0.45081 0.40219 0.0
C1312 C 0.57611 0.47192 0.38522 0.0
C1313 C 0.55414 0.53071 0.33406 0.0
C1314 C 0.56227 0.51122 0.35217 0.0
H1315 H 0.59367 0.38548 0.40348 0.0
H1316 H 0.57785 0.41964 0.3774 0.0
H1317 H 0.55609 0.49486 0.41023 0.0
H1318 H 0.55004 0.59603 0.32346 0.0
H1319 H 0.55974 0.56469 0.3555 0.0
C1320 C 0.31742 0.28228 0.16826 0.0
C1321 C 0.32476 0.30812 0.16761 0.0
C1322 C 0.332 0.26271 0.17824 0.0
C1323 C 0.38476 0.25142 0.21712 0.0
H1324 H 0.39288 0.18836 0.1811 0.0
C1325 C 0.46851 0.18767 0.2232 0.0
C1326 C 0.467 0.16061 0.22217 0.0
C1327 C 0.4484 0.20351 0.22032 0.0
C1328 C 0.39048 0.2056 0.19164 0.0
H1329 H 0.3531 0.3336 0.17727 0.0
H1330 H 0.3785 0.29955 0.19463 0.0
H1331 H 0.36277 0.22056 0.16886 0.0
H1332 H 0.44317 0.12875 0.21804 0.0
H1333 H 0.40765 0.15671 0.21262 0.0
H1334 H 0.41302 0.23685 0.2394 0.0
C1335 C 0.36131 0.29443 0.18774 0.0
C1336 C 0.37324 0.2241 0.18462 0.0
C1337 C 0.34675 0.314 0.17776 0.0
C1338 C 0.4448 0.14959 0.21881 0.0
C1339 C 0.42455 0.16556 0.21565 0.0
C1340 C 0.40199 0.23297 0.2241 0.0
C1341 C 0.35425 0.26849 0.18786 0.0
C1342 C 0.37059 0.24754 0.19692 0.0
C1343 C 0.42622 0.19273 0.2162 0.0
C1344 C 0.40547 0.21017 0.21107 0.0
H1345 H 0.30041 0.27715 0.16095 0.0
H1346 H 0.32586 0.243 0.17835 0.0
H1347 H 0.38285 0.26899 0.2273 0.0
H1348 H 0.48537 0.19673 0.22589 0.0
H1349 H 0.4504 0.22432 0.22051 0.0
C1350 C 0.95476 0.29414 0.79968 0.0
C1351 C 0.95657 0.30142 0.77579 0.0
C1352 C 0.93916 0.27509 0.80657 0.0
C1353 C 0.90735 0.21859 0.78551 0.0
H1354 H 0.871 0.22943 0.84224 0.0
C1355 C 0.84156 0.14307 0.82118 0.0
C1356 C 0.84148 0.13928 0.84584 0.0
C1357 C 0.85427 0.16325 0.81111 0.0
C1358 C 0.88118 0.22594 0.82649 0.0
H1359 H 0.94332 0.29427 0.74035 0.0
H1360 H 0.91603 0.26064 0.75249 0.0
H1361 H 0.89533 0.26396 0.82729 0.0
H1362 H 0.85457 0.15411 0.87919 0.0
H1363 H 0.87713 0.18852 0.86172 0.0
H1364 H 0.89357 0.18028 0.78505 0.0
C1365 C 0.92681 0.26979 0.76582 0.0
C1366 C 0.89508 0.2458 0.81788 0.0
C1367 C 0.94235 0.28911 0.7589 0.0
C1368 C 0.85446 0.15613 0.86012 0.0
C1369 C 0.86715 0.17619 0.85009 0.0
C1370 C 0.89349 0.1986 0.79422 0.0
C1371 C 0.92499 0.26267 0.78978 0.0
C1372 C 0.90864 0.24223 0.79753 0.0
C1373 C 0.86713 0.18016 0.82547 0.0
C1374 C 0.88056 0.20188 0.81507 0.0
H1375 H 0.96542 0.30316 0.81319 0.0
H1376 H 0.93845 0.26981 0.82511 0.0
H1377 H 0.91773 0.21519 0.76987 0.0
H1378 H 0.83192 0.13036 0.80962 0.0
H1379 H 0.85374 0.16581 0.7921 0.0
C1380 C 0.08762 0.55454 0.10679 0.0
C1381 C 0.10826 0.5664 0.09903 0.0
C1382 C 0.06538 0.56321 0.09847 0.0
C1383 C 0.03631 0.60056 0.04953 0.0
H1384 H 0.98631 0.61354 0.09428 0.0
C1385 C 0.96231 0.67561 0.03303 0.0
C1386 C 0.93951 0.67139 0.04135 0.0
C1387 C 0.98057 0.65762 0.03754 0.0
C1388 C 0.99988 0.60948 0.08145 0.0
H1389 H 0.12169 0.59636 0.07615 0.0
H1390 H 0.08299 0.61167 0.06188 0.0
H1391 H 0.0232 0.59231 0.10767 0.0
H1392 H 0.91753 0.64457 0.06006 0.0
H1393 H 0.94983 0.61284 0.06832 0.0
H1394 H 0.01333 0.61844 0.02348 0.0
C1395 C 0.08397 0.59553 0.07426 0.0
C1396 C 0.02106 0.5974 0.08915 0.0
C1397 C 0.10615 0.58699 0.08268 0.0
C1398 C 0.93499 0.64821 0.05344 0.0
C1399 C 0.95347 0.6302 0.05827 0.0
C1400 C 0.01517 0.61257 0.04186 0.0
C1401 C 0.06331 0.58376 0.08204 0.0
C1402 C 0.03978 0.59352 0.0734 0.0
C1403 C 0.97655 0.63498 0.05068 0.0
C1404 C 0.99699 0.61792 0.05787 0.0
H1405 H 0.08865 0.53875 0.11952 0.0
H1406 H 0.04981 0.55369 0.10474 0.0
H1407 H 0.05018 0.5973 0.03685 0.0
H1408 H 0.96625 0.69329 0.02358 0.0
H1409 H 0.99813 0.66211 0.03169 0.0
C1410 C 0.66013 0.84281 0.35747 0.0
C1411 C 0.68285 0.8482 0.34934 0.0
C1412 C 0.64677 0.82348 0.34703 0.0
C1413 C 0.65166 0.76446 0.31045 0.0
H1414 H 0.58389 0.77519 0.30399 0.0
C1415 C 0.58918 0.68969 0.2666 0.0
C1416 C 0.56816 0.68513 0.27876 0.0
C1417 C 0.60394 0.70983 0.27345 0.0
C1418 C 0.60278 0.7718 0.30579 0.0
H1419 H 0.70924 0.8373 0.32366 0.0
H1420 H 0.68568 0.80384 0.30508 0.0
H1421 H 0.60805 0.81 0.31879 0.0
H1422 H 0.54637 0.69824 0.30777 0.0
H1423 H 0.57192 0.73302 0.31955 0.0
H1424 H 0.6462 0.72611 0.29744 0.0
C1425 C 0.67834 0.81443 0.31978 0.0
C1426 C 0.61666 0.79177 0.31433 0.0
C1427 C 0.69175 0.83383 0.33027 0.0
C1428 C 0.56234 0.70112 0.29791 0.0
C1429 C 0.57695 0.72125 0.30461 0.0
C1430 C 0.63774 0.74446 0.30178 0.0
C1431 C 0.65565 0.80901 0.32804 0.0
C1432 C 0.64124 0.78825 0.31721 0.0
C1433 C 0.59786 0.72598 0.29244 0.0
C1434 C 0.61307 0.74775 0.29976 0.0
H1435 H 0.65252 0.85367 0.37188 0.0
H1436 H 0.62954 0.81966 0.35411 0.0
H1437 H 0.6705 0.76096 0.31259 0.0
H1438 H 0.59422 0.67777 0.25178 0.0
H1439 H 0.61989 0.71304 0.26365 0.0
C1440 C 0.56538 0.29363 0.54698 0.0
C1441 C 0.58893 0.29983 0.55172 0.0
C1442 C 0.547 0.30978 0.55436 0.0
C1443 C 0.52938 0.37426 0.57492 0.0
H1444 H 0.4805 0.33543 0.60561 0.0
C1445 C 0.43471 0.41459 0.59074 0.0
C1446 C 0.42272 0.40604 0.61084 0.0
C1447 C 0.45738 0.40495 0.58589 0.0
C1448 C 0.49409 0.34672 0.59747 0.0
H1449 H 0.61194 0.32862 0.56646 0.0
H1450 H 0.57935 0.35721 0.57972 0.0
H1451 H 0.51561 0.31293 0.59172 0.0
H1452 H 0.42569 0.38201 0.64238 0.0
H1453 H 0.46533 0.36534 0.63406 0.0
H1454 H 0.50755 0.40813 0.58063 0.0
C1455 C 0.57528 0.33971 0.57024 0.0
C1456 C 0.51411 0.33374 0.58921 0.0
C1457 C 0.59387 0.32344 0.56268 0.0
C1458 C 0.43431 0.38858 0.62653 0.0
C1459 C 0.45702 0.37906 0.62176 0.0
C1460 C 0.50919 0.38734 0.58317 0.0
C1461 C 0.55167 0.33249 0.56684 0.0
C1462 C 0.53173 0.34723 0.57739 0.0
C1463 C 0.46859 0.38662 0.60107 0.0
C1464 C 0.49115 0.37361 0.59424 0.0
H1465 H 0.56109 0.27576 0.53819 0.0
H1466 H 0.529 0.30407 0.55091 0.0
H1467 H 0.54272 0.38513 0.5659 0.0
H1468 H 0.42616 0.42789 0.57821 0.0
H1469 H 0.46564 0.41095 0.56966 0.0
C1470 C 0.17026 0.64759 0.67128 0.0
C1471 C 0.1937 0.6516 0.66467 0.0
C1472 C 0.15717 0.66721 0.68221 0.0
C1473 C 0.15296 0.73779 0.68644 0.0
H1474 H 0.1071 0.72236 0.73442 0.0
C1475 C 0.0836 0.81405 0.71834 0.0
C1476 C 0.06051 0.80474 0.71807 0.0
C1477 C 0.10295 0.79681 0.71617 0.0
C1478 C 0.11987 0.727 0.72107 0.0
H1479 H 0.22197 0.67917 0.66482 0.0
H1480 H 0.19907 0.71348 0.68414 0.0
H1481 H 0.13562 0.68892 0.72272 0.0
H1482 H 0.03952 0.77024 0.7161 0.0
H1483 H 0.07295 0.74045 0.71224 0.0
H1484 H 0.13657 0.7756 0.68419 0.0
C1485 C 0.19083 0.69515 0.68071 0.0
C1486 C 0.13617 0.70785 0.71435 0.0
C1487 C 0.20399 0.67544 0.66986 0.0
C1488 C 0.05712 0.778 0.71628 0.0
C1489 C 0.07632 0.76087 0.71429 0.0
C1490 C 0.13661 0.75699 0.69316 0.0
C1491 C 0.16719 0.69134 0.68676 0.0
C1492 C 0.1524 0.71277 0.69643 0.0
C1493 C 0.09945 0.77003 0.71401 0.0
C1494 C 0.1194 0.7515 0.70999 0.0
H1495 H 0.16192 0.62935 0.66772 0.0
H1496 H 0.13892 0.66374 0.68637 0.0
H1497 H 0.16515 0.74215 0.67247 0.0
H1498 H 0.08666 0.8346 0.71984 0.0
H1499 H 0.12061 0.80438 0.71611 0.0
C1500 C 0.44396 0.82641 0.9686 0.0
C1501 C 0.43578 0.80573 0.95493 0.0
C1502 C 0.46431 0.83955 0.96216 0.0
C1503 C 0.51914 0.82911 0.92922 0.0
H1504 H 0.52409 0.90383 0.93022 0.0
C1505 C 0.59875 0.87954 0.88898 0.0
C1506 C 0.60772 0.90149 0.90021 0.0
C1507 C 0.57764 0.86877 0.89624 0.0
C1508 C 0.52314 0.88291 0.93016 0.0
H1509 H 0.44224 0.78344 0.9232 0.0
H1510 H 0.47747 0.80624 0.91214 0.0
H1511 H 0.4872 0.88391 0.94173 0.0
H1512 H 0.60116 0.92936 0.92796 0.0
H1513 H 0.56467 0.91005 0.94112 0.0
H1514 H 0.55499 0.82785 0.91803 0.0
C1515 C 0.46834 0.8121 0.92798 0.0
C1516 C 0.50195 0.87153 0.9367 0.0
C1517 C 0.448 0.79912 0.93429 0.0
C1518 C 0.59496 0.91231 0.91902 0.0
C1519 C 0.57384 0.90142 0.92639 0.0
C1520 C 0.54031 0.84043 0.92287 0.0
C1521 C 0.477 0.83215 0.94203 0.0
C1522 C 0.49964 0.8445 0.936 0.0
C1523 C 0.56492 0.87945 0.91512 0.0
C1524 C 0.54255 0.8675 0.92295 0.0
H1525 H 0.43504 0.83203 0.98462 0.0
H1526 H 0.47057 0.85488 0.97338 0.0
H1527 H 0.51811 0.80819 0.92897 0.0
H1528 H 0.60819 0.87039 0.87467 0.0
H1529 H 0.57121 0.85211 0.88686 0.0
C1530 C 0.94244 0.06923 0.42179 0.0
C1531 C 0.93563 0.06785 0.39783 0.0
C1532 C 0.96369 0.08072 0.42844 0.0
C1533 C 0.02162 0.09973 0.4043 0.0
H1534 H 0.02425 0.14426 0.45897 0.0
C1535 C 0.09771 0.17037 0.42128 0.0
C1536 C 0.10477 0.17504 0.44472 0.0
C1537 C 0.07851 0.1546 0.41639 0.0
C1538 C 0.02397 0.13155 0.44385 0.0
H1539 H 0.94554 0.07847 0.36221 0.0
H1540 H 0.98232 0.09843 0.37376 0.0
H1541 H 0.98767 0.12262 0.44911 0.0
H1542 H 0.09807 0.16567 0.48139 0.0
H1543 H 0.06478 0.13787 0.47287 0.0
H1544 H 0.05781 0.10894 0.39886 0.0
C1545 C 0.9716 0.09008 0.38741 0.0
C1546 C 1.00293 0.11915 0.43818 0.0
C1547 C 0.95043 0.07863 0.38078 0.0
C1548 C 0.09297 0.16255 0.46313 0.0
C1549 C 0.07375 0.1468 0.45825 0.0
C1550 C 0.04263 0.11214 0.40996 0.0
C1551 C 0.97864 0.09115 0.41131 0.0
C1552 C 1.00138 0.10331 0.41816 0.0
C1553 C 0.06592 0.14309 0.43484 0.0
C1554 C 0.04403 0.12845 0.42967 0.0
H1555 H 0.9316 0.06094 0.43537 0.0
H1556 H 0.96862 0.081 0.447 0.0
H1557 H 0.02125 0.08728 0.38902 0.0
H1558 H 0.10641 0.17974 0.40671 0.0
H1559 H 0.07292 0.15237 0.39816 0.0
loop_
_geom_bond_atom_site_label_1
_geom_bond_atom_site_label_2
_geom_bond_distance
_geom_bond_site_symmetry_2
_ccdc_geom_bond_type
Sm0 C2 2.846 . S
Sm0 O20 2.543 . S
Sm0 O21 2.450 . S
Sm0 O22 2.681 . S
Sm0 O23 2.464 . S
Sm0 O24 2.396 . S
Sm0 O28 2.386 . S
Sm0 O31 2.408 . S
Sm1 C11 2.846 . S
Sm1 O22 2.386 . S
Sm1 O25 2.408 . S
Sm1 O26 2.543 . S
Sm1 O27 2.450 . S
Sm1 O28 2.681 . S
Sm1 O29 2.464 . S
Sm1 O30 2.396 . S
C2 Sm0 2.846 . S
C2 C3 1.506 . S
C2 O20 1.261 . S
C2 O21 1.242 . S
C3 C2 1.506 . S
C3 C4 1.358 . S
C3 C8 1.382 . S
C4 C3 1.358 . S
C4 C5 1.385 . S
C4 H32 0.930 . S
C5 C4 1.385 . S
C5 C6 1.395 . S
C5 H33 0.929 . S
C6 C5 1.395 . S
C6 C7 1.335 . S
C7 C6 1.335 . S
C7 C8 1.398 . S
C7 H34 0.930 . S
C8 C3 1.382 . S
C8 C7 1.398 . S
C8 H35 0.929 . S
C9 O22 1.271 . S
C9 O23 1.251 . S
C10 O24 1.252 . S
C10 O25 1.272 . S
C11 Sm1 2.846 . S
C11 C12 1.506 . S
C11 O26 1.261 . S
C11 O27 1.242 . S
C12 C11 1.506 . S
C12 C13 1.358 . S
C12 C17 1.382 . S
C13 C12 1.358 . S
C13 C14 1.385 . S
C13 H36 0.930 . S
C14 C13 1.385 . S
C14 C15 1.395 . S
C14 H37 0.929 . S
C15 C14 1.395 . S
C15 C16 1.335 . S
C16 C15 1.335 . S
C16 C17 1.398 . S
C16 H38 0.930 . S
C17 C12 1.382 . S
C17 C16 1.398 . S
C17 H39 0.929 . S
C18 O28 1.271 . S
C18 O29 1.251 . S
C19 O30 1.252 . S
C19 O31 1.272 . S
O20 Sm0 2.543 . S
O20 C2 1.261 . S
O21 Sm0 2.450 . S
O21 C2 1.242 . S
O22 Sm0 2.681 . S
O22 Sm1 2.386 . S
O22 C9 1.271 . S
O23 Sm0 2.464 . S
O23 C9 1.251 . S
O24 Sm0 2.396 . S
O24 C10 1.252 . S
O25 Sm1 2.408 . S
O25 C10 1.272 . S
O26 Sm1 2.543 . S
O26 C11 1.261 . S
O27 Sm1 2.450 . S
O27 C11 1.242 . S
O28 Sm0 2.386 . S
O28 Sm1 2.681 . S
O28 C18 1.271 . S
O29 Sm1 2.464 . S
O29 C18 1.251 . S
O30 Sm1 2.396 . S
O30 C19 1.252 . S
O31 Sm0 2.408 . S
O31 C19 1.272 . S
H32 C4 0.930 . S
H33 C5 0.929 . S
H34 C7 0.930 . S
H35 C8 0.929 . S
H36 C13 0.930 . S
H37 C14 0.929 . S
H38 C16 0.930 . S
H39 C17 0.929 . S
Sm40 C42 2.846 . S
Sm40 O60 2.543 . S
Sm40 O61 2.450 . S
Sm40 O62 2.681 1_655 S
Sm40 O63 2.464 1_655 S
Sm40 O64 2.396 1_655 S
Sm40 O68 2.387 . S
Sm40 O71 2.408 . S
Sm41 C51 2.846 . S
Sm41 O62 2.386 . S
Sm41 O65 2.408 . S
Sm41 O66 2.543 . S
Sm41 O67 2.450 . S
Sm41 O68 2.675 1_455 S
Sm41 O69 2.464 . S
Sm41 O70 2.396 . S
C42 Sm40 2.846 . S
C42 C43 1.506 . S
C42 O60 1.261 . S
C42 O61 1.242 . S
C43 C42 1.506 . S
C43 C44 1.358 . S
C43 C48 1.382 . S
C44 C43 1.358 . S
C44 C45 1.385 . S
C44 H72 0.930 . S
C45 C44 1.385 . S
C45 C46 1.395 . S
C45 H73 0.929 . S
C46 C45 1.395 . S
C46 C47 1.335 . S
C47 C46 1.335 . S
C47 C48 1.398 . S
C47 H74 0.930 . S
C48 C43 1.382 . S
C48 C47 1.398 . S
C48 H75 0.929 . S
C49 O62 1.271 . S
C49 O63 1.251 . S
C50 O64 1.252 . S
C50 O65 1.272 . S
C51 Sm41 2.846 . S
C51 C52 1.506 . S
C51 O66 1.261 . S
C51 O67 1.242 . S
C52 C51 1.506 . S
C52 C53 1.358 . S
C52 C57 1.382 . S
C53 C52 1.358 . S
C53 C54 1.385 . S
C53 H76 0.930 . S
C54 C53 1.385 . S
C54 C55 1.395 . S
C54 H77 0.929 . S
C55 C54 1.395 . S
C55 C56 1.335 . S
C56 C55 1.335 . S
C56 C57 1.398 . S
C56 H78 0.930 . S
C57 C52 1.382 . S
C57 C56 1.398 . S
C57 H79 0.929 . S
C58 O68 1.272 . S
C58 O69 1.251 1_655 S
C59 O70 1.252 . S
C59 O71 1.272 1_455 S
O60 Sm40 2.543 . S
O60 C42 1.261 . S
O61 Sm40 2.450 . S
O61 C42 1.242 . S
O62 Sm40 2.681 1_455 S
O62 Sm41 2.386 . S
O62 C49 1.271 . S
O63 Sm40 2.464 1_455 S
O63 C49 1.251 . S
O64 Sm40 2.396 1_455 S
O64 C50 1.252 . S
O65 Sm41 2.408 . S
O65 C50 1.272 . S
O66 Sm41 2.543 . S
O66 C51 1.261 . S
O67 Sm41 2.450 . S
O67 C51 1.242 . S
O68 Sm40 2.387 . S
O68 Sm41 2.675 1_655 S
O68 C58 1.272 . S
O69 Sm41 2.464 . S
O69 C58 1.251 1_455 S
O70 Sm41 2.396 . S
O70 C59 1.252 . S
O71 Sm40 2.408 . S
O71 C59 1.272 1_655 S
H72 C44 0.930 . S
H73 C45 0.929 . S
H74 C47 0.930 . S
H75 C48 0.929 . S
H76 C53 0.930 . S
H77 C54 0.929 . S
H78 C56 0.930 . S
H79 C57 0.929 . S
Sm80 C82 2.846 . S
Sm80 O100 2.543 . S
Sm80 O101 2.450 . S
Sm80 O102 2.681 1_554 S
Sm80 O103 2.464 1_554 S
Sm80 O104 2.396 1_554 S
Sm80 O108 2.386 . S
Sm80 O111 2.408 . S
Sm81 C91 2.846 . S
Sm81 O102 2.386 . S
Sm81 O105 2.408 . S
Sm81 O106 2.543 . S
Sm81 O107 2.450 . S
Sm81 O108 2.681 1_556 S
Sm81 O109 2.464 . S
Sm81 O110 2.396 . S
C82 Sm80 2.846 . S
C82 C83 1.506 . S
C82 O100 1.261 . S
C82 O101 1.242 . S
C83 C82 1.506 . S
C83 C84 1.358 . S
C83 C88 1.382 . S
C84 C83 1.358 . S
C84 C85 1.385 . S
C84 H112 0.930 . S
C85 C84 1.385 . S
C85 C86 1.395 . S
C85 H113 0.929 . S
C86 C85 1.395 . S
C86 C87 1.335 . S
C87 C86 1.335 . S
C87 C88 1.398 . S
C87 H114 0.930 . S
C88 C83 1.382 . S
C88 C87 1.398 . S
C88 H115 0.929 . S
C89 O102 1.271 . S
C89 O103 1.251 . S
C90 O104 1.252 . S
C90 O105 1.272 . S
C91 Sm81 2.846 . S
C91 C92 1.506 . S
C91 O106 1.261 . S
C91 O107 1.242 . S
C92 C91 1.506 . S
C92 C93 1.358 . S
C92 C97 1.382 . S
C93 C92 1.358 . S
C93 C94 1.385 . S
C93 H116 0.930 . S
C94 C93 1.385 . S
C94 C95 1.395 . S
C94 H117 0.929 . S
C95 C94 1.395 . S
C95 C96 1.335 . S
C96 C95 1.335 . S
C96 C97 1.398 . S
C96 H118 0.930 . S
C97 C92 1.382 . S
C97 C96 1.398 . S
C97 H119 0.929 . S
C98 O108 1.271 . S
C98 O109 1.251 1_554 S
C99 O110 1.252 . S
C99 O111 1.272 1_556 S
O100 Sm80 2.543 . S
O100 C82 1.261 . S
O101 Sm80 2.450 . S
O101 C82 1.242 . S
O102 Sm80 2.681 1_556 S
O102 Sm81 2.386 . S
O102 C89 1.271 . S
O103 Sm80 2.464 1_556 S
O103 C89 1.251 . S
O104 Sm80 2.396 1_556 S
O104 C90 1.252 . S
O105 Sm81 2.408 . S
O105 C90 1.272 . S
O106 Sm81 2.543 . S
O106 C91 1.261 . S
O107 Sm81 2.450 . S
O107 C91 1.242 . S
O108 Sm80 2.386 . S
O108 Sm81 2.681 1_554 S
O108 C98 1.271 . S
O109 Sm81 2.464 . S
O109 C98 1.251 1_556 S
O110 Sm81 2.396 . S
O110 C99 1.252 . S
O111 Sm80 2.408 . S
O111 C99 1.272 1_554 S
H112 C84 0.930 . S
H113 C85 0.929 . S
H114 C87 0.930 . S
H115 C88 0.929 . S
H116 C93 0.930 . S
H117 C94 0.929 . S
H118 C96 0.930 . S
H119 C97 0.929 . S
Sm120 C122 2.846 . S
Sm120 O140 2.543 . S
Sm120 O141 2.450 . S
Sm120 O142 2.681 . S
Sm120 O143 2.464 . S
Sm120 O144 2.396 . S
Sm120 O148 2.386 . S
Sm120 O151 2.408 . S
Sm121 C131 2.846 . S
Sm121 O142 2.386 . S
Sm121 O145 2.408 . S
Sm121 O146 2.543 . S
Sm121 O147 2.450 . S
Sm121 O148 2.681 . S
Sm121 O149 2.464 . S
Sm121 O150 2.396 . S
C122 Sm120 2.846 . S
C122 C123 1.506 . S
C122 O140 1.261 . S
C122 O141 1.242 . S
C123 C122 1.506 . S
C123 C124 1.358 . S
C123 C128 1.382 . S
C124 C123 1.358 . S
C124 C125 1.385 . S
C124 H152 0.930 . S
C125 C124 1.385 . S
C125 C126 1.395 . S
C125 H153 0.929 . S
C126 C125 1.395 . S
C126 C127 1.335 . S
C127 C126 1.335 . S
C127 C128 1.398 . S
C127 H154 0.930 . S
C128 C123 1.382 . S
C128 C127 1.398 . S
C128 H155 0.929 . S
C129 O142 1.271 . S
C129 O143 1.251 . S
C130 O144 1.252 . S
C130 O145 1.272 . S
C131 Sm121 2.846 . S
C131 C132 1.506 . S
C131 O146 1.261 . S
C131 O147 1.242 . S
C132 C131 1.506 . S
C132 C133 1.358 . S
C132 C137 1.382 . S
C133 C132 1.358 . S
C133 C134 1.385 . S
C133 H156 0.930 . S
C134 C133 1.385 . S
C134 C135 1.395 . S
C134 H157 0.929 . S
C135 C134 1.395 . S
C135 C136 1.335 . S
C136 C135 1.335 . S
C136 C137 1.398 . S
C136 H158 0.930 . S
C137 C132 1.382 . S
C137 C136 1.398 . S
C137 H159 0.929 . S
C138 O148 1.271 . S
C138 O149 1.251 . S
C139 O150 1.252 . S
C139 O151 1.272 . S
O140 Sm120 2.543 . S
O140 C122 1.261 . S
O141 Sm120 2.450 . S
O141 C122 1.242 . S
O142 Sm120 2.681 . S
O142 Sm121 2.386 . S
O142 C129 1.271 . S
O143 Sm120 2.464 . S
O143 C129 1.251 . S
O144 Sm120 2.396 . S
O144 C130 1.252 . S
O145 Sm121 2.408 . S
O145 C130 1.272 . S
O146 Sm121 2.543 . S
O146 C131 1.261 . S
O147 Sm121 2.450 . S
O147 C131 1.242 . S
O148 Sm120 2.386 . S
O148 Sm121 2.681 . S
O148 C138 1.271 . S
O149 Sm121 2.464 . S
O149 C138 1.251 . S
O150 Sm121 2.396 . S
O150 C139 1.252 . S
O151 Sm120 2.408 . S
O151 C139 1.272 . S
H152 C124 0.930 . S
H153 C125 0.929 . S
H154 C127 0.930 . S
H155 C128 0.929 . S
H156 C133 0.930 . S
H157 C134 0.929 . S
H158 C136 0.930 . S
H159 C137 0.929 . S
Sm160 C162 2.846 . S
Sm160 O180 2.543 . S
Sm160 O181 2.450 . S
Sm160 O182 2.681 . S
Sm160 O183 2.464 . S
Sm160 O184 2.396 . S
Sm160 O188 2.386 . S
Sm160 O191 2.408 . S
Sm161 C171 2.846 . S
Sm161 O182 2.386 . S
Sm161 O185 2.408 . S
Sm161 O186 2.543 . S
Sm161 O187 2.450 . S
Sm161 O188 2.681 . S
Sm161 O189 2.464 . S
Sm161 O190 2.396 . S
C162 Sm160 2.846 . S
C162 C163 1.506 . S
C162 O180 1.261 . S
C162 O181 1.242 . S
C163 C162 1.506 . S
C163 C164 1.358 . S
C163 C168 1.382 . S
C164 C163 1.358 . S
C164 C165 1.385 . S
C164 H192 0.930 . S
C165 C164 1.385 . S
C165 C166 1.395 . S
C165 H193 0.929 . S
C166 C165 1.395 . S
C166 C167 1.335 . S
C167 C166 1.335 . S
C167 C168 1.398 . S
C167 H194 0.930 . S
C168 C163 1.382 . S
C168 C167 1.398 . S
C168 H195 0.929 . S
C169 O182 1.271 . S
C169 O183 1.251 . S
C170 O184 1.252 . S
C170 O185 1.272 . S
C171 Sm161 2.846 . S
C171 C172 1.506 . S
C171 O186 1.261 . S
C171 O187 1.242 . S
C172 C171 1.506 . S
C172 C173 1.358 . S
C172 C177 1.382 . S
C173 C172 1.358 . S
C173 C174 1.385 . S
C173 H196 0.930 . S
C174 C173 1.385 . S
C174 C175 1.395 . S
C174 H197 0.929 . S
C175 C174 1.395 . S
C175 C176 1.335 . S
C176 C175 1.335 . S
C176 C177 1.398 . S
C176 H198 0.930 . S
C177 C172 1.382 . S
C177 C176 1.398 . S
C177 H199 0.929 . S
C178 O188 1.271 . S
C178 O189 1.251 . S
C179 O190 1.252 . S
C179 O191 1.272 . S
O180 Sm160 2.543 . S
O180 C162 1.261 . S
O181 Sm160 2.450 . S
O181 C162 1.242 . S
O182 Sm160 2.681 . S
O182 Sm161 2.386 . S
O182 C169 1.271 . S
O183 Sm160 2.464 . S
O183 C169 1.251 . S
O184 Sm160 2.396 . S
O184 C170 1.252 . S
O185 Sm161 2.408 . S
O185 C170 1.272 . S
O186 Sm161 2.543 . S
O186 C171 1.261 . S
O187 Sm161 2.450 . S
O187 C171 1.242 . S
O188 Sm160 2.386 . S
O188 Sm161 2.681 . S
O188 C178 1.271 . S
O189 Sm161 2.464 . S
O189 C178 1.251 . S
O190 Sm161 2.396 . S
O190 C179 1.252 . S
O191 Sm160 2.408 . S
O191 C179 1.272 . S
H192 C164 0.930 . S
H193 C165 0.929 . S
H194 C167 0.930 . S
H195 C168 0.929 . S
H196 C173 0.930 . S
H197 C174 0.929 . S
H198 C176 0.930 . S
H199 C177 0.929 . S
Sm200 C202 2.846 . S
Sm200 O220 2.543 . S
Sm200 O221 2.450 . S
Sm200 O222 2.681 . S
Sm200 O223 2.464 . S
Sm200 O224 2.396 . S
Sm200 O228 2.386 . S
Sm200 O231 2.408 1_655 S
Sm201 C211 2.846 . S
Sm201 O222 2.386 1_455 S
Sm201 O225 2.408 1_455 S
Sm201 O226 2.543 . S
Sm201 O227 2.450 . S
Sm201 O228 2.681 1_455 S
Sm201 O229 2.464 . S
Sm201 O230 2.396 . S
C202 Sm200 2.846 . S
C202 C203 1.506 . S
C202 O220 1.261 . S
C202 O221 1.242 . S
C203 C202 1.506 . S
C203 C204 1.358 . S
C203 C208 1.382 . S
C204 C203 1.358 . S
C204 C205 1.385 . S
C204 H232 0.930 . S
C205 C204 1.385 . S
C205 C206 1.395 . S
C205 H233 0.929 . S
C206 C205 1.395 . S
C206 C207 1.335 . S
C207 C206 1.335 . S
C207 C208 1.398 . S
C207 H234 0.930 . S
C208 C203 1.382 . S
C208 C207 1.398 . S
C208 H235 0.929 . S
C209 O222 1.271 . S
C209 O223 1.251 . S
C210 O224 1.252 . S
C210 O225 1.272 . S
C211 Sm201 2.846 . S
C211 C212 1.506 . S
C211 O226 1.261 . S
C211 O227 1.242 . S
C212 C211 1.506 . S
C212 C213 1.358 . S
C212 C217 1.382 . S
C213 C212 1.358 . S
C213 C214 1.385 . S
C213 H236 0.930 . S
C214 C213 1.385 . S
C214 C215 1.395 . S
C214 H237 0.929 . S
C215 C214 1.395 . S
C215 C216 1.335 . S
C216 C215 1.335 . S
C216 C217 1.398 . S
C216 H238 0.930 . S
C217 C212 1.382 . S
C217 C216 1.398 . S
C217 H239 0.929 . S
C218 O228 1.271 1_455 S
C218 O229 1.251 . S
C219 O230 1.252 . S
C219 O231 1.272 . S
O220 Sm200 2.543 . S
O220 C202 1.261 . S
O221 Sm200 2.450 . S
O221 C202 1.242 . S
O222 Sm200 2.681 . S
O222 Sm201 2.386 1_655 S
O222 C209 1.271 . S
O223 Sm200 2.464 . S
O223 C209 1.251 . S
O224 Sm200 2.396 . S
O224 C210 1.252 . S
O225 Sm201 2.408 1_655 S
O225 C210 1.272 . S
O226 Sm201 2.543 . S
O226 C211 1.261 . S
O227 Sm201 2.450 . S
O227 C211 1.242 . S
O228 Sm200 2.386 . S
O228 Sm201 2.681 1_655 S
O228 C218 1.271 1_655 S
O229 Sm201 2.464 . S
O229 C218 1.251 . S
O230 Sm201 2.396 . S
O230 C219 1.252 . S
O231 Sm200 2.408 1_455 S
O231 C219 1.272 . S
H232 C204 0.930 . S
H233 C205 0.929 . S
H234 C207 0.930 . S
H235 C208 0.929 . S
H236 C213 0.930 . S
H237 C214 0.929 . S
H238 C216 0.930 . S
H239 C217 0.929 . S
Sm240 C242 2.846 . S
Sm240 O260 2.543 . S
Sm240 O261 2.450 . S
Sm240 O262 2.681 . S
Sm240 O263 2.464 . S
Sm240 O264 2.396 . S
Sm240 O268 2.386 . S
Sm240 O271 2.408 1_554 S
Sm241 C251 2.846 . S
Sm241 O262 2.386 1_556 S
Sm241 O265 2.408 1_556 S
Sm241 O266 2.543 . S
Sm241 O267 2.450 . S
Sm241 O268 2.681 1_556 S
Sm241 O269 2.464 . S
Sm241 O270 2.396 . S
C242 Sm240 2.846 . S
C242 C243 1.506 . S
C242 O260 1.261 . S
C242 O261 1.242 . S
C243 C242 1.506 . S
C243 C244 1.358 . S
C243 C248 1.382 . S
C244 C243 1.358 . S
C244 C245 1.385 . S
C244 H272 0.930 . S
C245 C244 1.385 . S
C245 C246 1.395 . S
C245 H273 0.929 . S
C246 C245 1.395 . S
C246 C247 1.335 . S
C247 C246 1.335 . S
C247 C248 1.398 . S
C247 H274 0.930 . S
C248 C243 1.382 . S
C248 C247 1.398 . S
C248 H275 0.929 . S
C249 O262 1.271 . S
C249 O263 1.251 . S
C250 O264 1.252 . S
C250 O265 1.272 . S
C251 Sm241 2.846 . S
C251 C252 1.506 . S
C251 O266 1.261 . S
C251 O267 1.242 . S
C252 C251 1.506 . S
C252 C253 1.358 . S
C252 C257 1.382 . S
C253 C252 1.358 . S
C253 C254 1.385 . S
C253 H276 0.930 . S
C254 C253 1.385 . S
C254 C255 1.395 . S
C254 H277 0.929 . S
C255 C254 1.395 . S
C255 C256 1.335 . S
C256 C255 1.335 . S
C256 C257 1.398 . S
C256 H278 0.930 . S
C257 C252 1.382 . S
C257 C256 1.398 . S
C257 H279 0.929 . S
C258 O268 1.271 1_556 S
C258 O269 1.251 . S
C259 O270 1.252 . S
C259 O271 1.272 . S
O260 Sm240 2.543 . S
O260 C242 1.261 . S
O261 Sm240 2.450 . S
O261 C242 1.242 . S
O262 Sm240 2.681 . S
O262 Sm241 2.386 1_554 S
O262 C249 1.271 . S
O263 Sm240 2.464 . S
O263 C249 1.251 . S
O264 Sm240 2.396 . S
O264 C250 1.252 . S
O265 Sm241 2.408 1_554 S
O265 C250 1.272 . S
O266 Sm241 2.543 . S
O266 C251 1.261 . S
O267 Sm241 2.450 . S
O267 C251 1.242 . S
O268 Sm240 2.386 . S
O268 Sm241 2.681 1_554 S
O268 C258 1.271 1_554 S
O269 Sm241 2.464 . S
O269 C258 1.251 . S
O270 Sm241 2.396 . S
O270 C259 1.252 . S
O271 Sm240 2.408 1_556 S
O271 C259 1.272 . S
H272 C244 0.930 . S
H273 C245 0.929 . S
H274 C247 0.930 . S
H275 C248 0.929 . S
H276 C253 0.930 . S
H277 C254 0.929 . S
H278 C256 0.930 . S
H279 C257 0.929 . S
Sm280 C282 2.846 . S
Sm280 O300 2.543 . S
Sm280 O301 2.450 . S
Sm280 O302 2.681 . S
Sm280 O303 2.464 . S
Sm280 O304 2.396 . S
Sm280 O308 2.386 . S
Sm280 O311 2.408 . S
Sm281 C291 2.846 . S
Sm281 O302 2.386 . S
Sm281 O305 2.408 . S
Sm281 O306 2.543 . S
Sm281 O307 2.450 . S
Sm281 O308 2.681 . S
Sm281 O309 2.464 . S
Sm281 O310 2.396 . S
C282 Sm280 2.846 . S
C282 C283 1.506 . S
C282 O300 1.261 . S
C282 O301 1.242 . S
C283 C282 1.506 . S
C283 C284 1.358 . S
C283 C288 1.382 . S
C284 C283 1.358 . S
C284 C285 1.385 . S
C284 H312 0.930 . S
C285 C284 1.385 . S
C285 C286 1.395 . S
C285 H313 0.929 . S
C286 C285 1.395 . S
C286 C287 1.335 . S
C287 C286 1.335 . S
C287 C288 1.398 . S
C287 H314 0.930 . S
C288 C283 1.382 . S
C288 C287 1.398 . S
C288 H315 0.929 . S
C289 O302 1.271 . S
C289 O303 1.251 . S
C290 O304 1.252 . S
C290 O305 1.272 . S
C291 Sm281 2.846 . S
C291 C292 1.506 . S
C291 O306 1.261 . S
C291 O307 1.242 . S
C292 C291 1.506 . S
C292 C293 1.358 . S
C292 C297 1.382 . S
C293 C292 1.358 . S
C293 C294 1.385 . S
C293 H316 0.930 . S
C294 C293 1.385 . S
C294 C295 1.395 . S
C294 H317 0.929 . S
C295 C294 1.395 . S
C295 C296 1.335 . S
C296 C295 1.335 . S
C296 C297 1.398 . S
C296 H318 0.930 . S
C297 C292 1.382 . S
C297 C296 1.398 . S
C297 H319 0.929 . S
C298 O308 1.271 . S
C298 O309 1.251 . S
C299 O310 1.252 . S
C299 O311 1.272 . S
O300 Sm280 2.543 . S
O300 C282 1.261 . S
O301 Sm280 2.450 . S
O301 C282 1.242 . S
O302 Sm280 2.681 . S
O302 Sm281 2.386 . S
O302 C289 1.271 . S
O303 Sm280 2.464 . S
O303 C289 1.251 . S
O304 Sm280 2.396 . S
O304 C290 1.252 . S
O305 Sm281 2.408 . S
O305 C290 1.272 . S
O306 Sm281 2.543 . S
O306 C291 1.261 . S
O307 Sm281 2.450 . S
O307 C291 1.242 . S
O308 Sm280 2.386 . S
O308 Sm281 2.681 . S
O308 C298 1.271 . S
O309 Sm281 2.464 . S
O309 C298 1.251 . S
O310 Sm281 2.396 . S
O310 C299 1.252 . S
O311 Sm280 2.408 . S
O311 C299 1.272 . S
H312 C284 0.930 . S
H313 C285 0.929 . S
H314 C287 0.930 . S
H315 C288 0.929 . S
H316 C293 0.930 . S
H317 C294 0.929 . S
H318 C296 0.930 . S
H319 C297 0.929 . S
Sm320 C322 2.846 . S
Sm320 O340 2.543 . S
Sm320 O341 2.450 . S
Sm320 O342 2.681 . S
Sm320 O343 2.464 . S
Sm320 O344 2.396 . S
Sm320 O348 2.386 . S
Sm320 O351 2.408 . S
Sm321 C331 2.846 . S
Sm321 O342 2.386 . S
Sm321 O345 2.408 . S
Sm321 O346 2.543 . S
Sm321 O347 2.450 . S
Sm321 O348 2.681 . S
Sm321 O349 2.464 . S
Sm321 O350 2.396 . S
C322 Sm320 2.846 . S
C322 C323 1.506 . S
C322 O340 1.261 . S
C322 O341 1.242 . S
C323 C322 1.506 . S
C323 C324 1.358 . S
C323 C328 1.382 . S
C324 C323 1.358 . S
C324 C325 1.385 . S
C324 H352 0.930 . S
C325 C324 1.385 . S
C325 C326 1.395 . S
C325 H353 0.929 . S
C326 C325 1.395 . S
C326 C327 1.335 . S
C327 C326 1.335 . S
C327 C328 1.398 . S
C327 H354 0.930 . S
C328 C323 1.382 . S
C328 C327 1.398 . S
C328 H355 0.929 . S
C329 O342 1.271 . S
C329 O343 1.251 . S
C330 O344 1.252 . S
C330 O345 1.272 . S
C331 Sm321 2.846 . S
C331 C332 1.506 . S
C331 O346 1.261 . S
C331 O347 1.242 . S
C332 C331 1.506 . S
C332 C333 1.358 . S
C332 C337 1.382 . S
C333 C332 1.358 . S
C333 C334 1.385 . S
C333 H356 0.930 . S
C334 C333 1.385 . S
C334 C335 1.395 . S
C334 H357 0.929 . S
C335 C334 1.395 . S
C335 C336 1.335 . S
C336 C335 1.335 . S
C336 C337 1.398 . S
C336 H358 0.930 . S
C337 C332 1.382 . S
C337 C336 1.398 . S
C337 H359 0.929 . S
C338 O348 1.271 . S
C338 O349 1.251 . S
C339 O350 1.252 . S
C339 O351 1.272 . S
O340 Sm320 2.543 . S
O340 C322 1.261 . S
O341 Sm320 2.450 . S
O341 C322 1.242 . S
O342 Sm320 2.681 . S
O342 Sm321 2.386 . S
O342 C329 1.271 . S
O343 Sm320 2.464 . S
O343 C329 1.251 . S
O344 Sm320 2.396 . S
O344 C330 1.252 . S
O345 Sm321 2.408 . S
O345 C330 1.272 . S
O346 Sm321 2.543 . S
O346 C331 1.261 . S
O347 Sm321 2.450 . S
O347 C331 1.242 . S
O348 Sm320 2.386 . S
O348 Sm321 2.681 . S
O348 C338 1.271 . S
O349 Sm321 2.464 . S
O349 C338 1.251 . S
O350 Sm321 2.396 . S
O350 C339 1.252 . S
O351 Sm320 2.408 . S
O351 C339 1.272 . S
H352 C324 0.930 . S
H353 C325 0.929 . S
H354 C327 0.930 . S
H355 C328 0.929 . S
H356 C333 0.930 . S
H357 C334 0.929 . S
H358 C336 0.930 . S
H359 C337 0.929 . S
Sm360 C362 2.846 . S
Sm360 O380 2.543 . S
Sm360 O381 2.450 . S
Sm360 O382 2.681 1_565 S
Sm360 O383 2.464 1_565 S
Sm360 O384 2.396 1_565 S
Sm360 O388 2.386 . S
Sm360 O391 2.408 . S
Sm361 C371 2.846 . S
Sm361 O382 2.386 . S
Sm361 O385 2.408 . S
Sm361 O386 2.543 . S
Sm361 O387 2.450 . S
Sm361 O388 2.681 1_545 S
Sm361 O389 2.464 1_545 S
Sm361 O390 2.396 1_545 S
C362 Sm360 2.846 . S
C362 C363 1.506 . S
C362 O380 1.261 . S
C362 O381 1.242 . S
C363 C362 1.506 . S
C363 C364 1.358 . S
C363 C368 1.382 . S
C364 C363 1.358 . S
C364 C365 1.385 . S
C364 H392 0.930 . S
C365 C364 1.385 . S
C365 C366 1.395 . S
C365 H393 0.929 . S
C366 C365 1.395 . S
C366 C367 1.335 . S
C367 C366 1.335 . S
C367 C368 1.398 . S
C367 H394 0.930 . S
C368 C363 1.382 . S
C368 C367 1.398 . S
C368 H395 0.929 . S
C369 O382 1.271 . S
C369 O383 1.251 . S
C370 O384 1.252 . S
C370 O385 1.272 . S
C371 Sm361 2.846 . S
C371 C372 1.506 . S
C371 O386 1.261 . S
C371 O387 1.242 . S
C372 C371 1.506 . S
C372 C373 1.358 . S
C372 C377 1.382 . S
C373 C372 1.358 . S
C373 C374 1.385 . S
C373 H396 0.930 . S
C374 C373 1.385 . S
C374 C375 1.395 . S
C374 H397 0.929 . S
C375 C374 1.395 . S
C375 C376 1.335 . S
C376 C375 1.335 . S
C376 C377 1.398 . S
C376 H398 0.930 . S
C377 C372 1.382 . S
C377 C376 1.398 . S
C377 H399 0.929 . S
C378 O388 1.271 . S
C378 O389 1.251 . S
C379 O390 1.252 . S
C379 O391 1.272 . S
O380 Sm360 2.543 . S
O380 C362 1.261 . S
O381 Sm360 2.450 . S
O381 C362 1.242 . S
O382 Sm360 2.681 1_545 S
O382 Sm361 2.386 . S
O382 C369 1.271 . S
O383 Sm360 2.464 1_545 S
O383 C369 1.251 . S
O384 Sm360 2.396 1_545 S
O384 C370 1.252 . S
O385 Sm361 2.408 . S
O385 C370 1.272 . S
O386 Sm361 2.543 . S
O386 C371 1.261 . S
O387 Sm361 2.450 . S
O387 C371 1.242 . S
O388 Sm360 2.386 . S
O388 Sm361 2.681 1_565 S
O388 C378 1.271 . S
O389 Sm361 2.464 1_565 S
O389 C378 1.251 . S
O390 Sm361 2.396 1_565 S
O390 C379 1.252 . S
O391 Sm360 2.408 . S
O391 C379 1.272 . S
H392 C364 0.930 . S
H393 C365 0.929 . S
H394 C367 0.930 . S
H395 C368 0.929 . S
H396 C373 0.930 . S
H397 C374 0.929 . S
H398 C376 0.930 . S
H399 C377 0.929 . S
Sm400 C402 2.846 . S
Sm400 O420 2.543 . S
Sm400 O421 2.450 . S
Sm400 O422 2.681 . S
Sm400 O423 2.464 . S
Sm400 O424 2.396 . S
Sm400 O428 2.386 . S
Sm400 O431 2.393 1_565 S
Sm401 C411 2.846 . S
Sm401 O422 2.386 1_545 S
Sm401 O425 2.408 1_545 S
Sm401 O426 2.543 . S
Sm401 O427 2.450 . S
Sm401 O428 2.681 1_545 S
Sm401 O429 2.464 . S
Sm401 O430 2.396 . S
C402 Sm400 2.846 . S
C402 C403 1.506 . S
C402 O420 1.261 . S
C402 O421 1.242 . S
C403 C402 1.506 . S
C403 C404 1.358 . S
C403 C408 1.382 . S
C404 C403 1.358 . S
C404 C405 1.385 . S
C404 H432 0.930 . S
C405 C404 1.385 . S
C405 C406 1.395 . S
C405 H433 0.929 . S
C406 C405 1.395 . S
C406 C407 1.335 . S
C407 C406 1.335 . S
C407 C408 1.398 . S
C407 H434 0.930 . S
C408 C403 1.382 . S
C408 C407 1.398 . S
C408 H435 0.929 . S
C409 O422 1.271 . S
C409 O423 1.251 . S
C410 O424 1.252 . S
C410 O425 1.272 . S
C411 Sm401 2.846 . S
C411 C412 1.506 . S
C411 O426 1.261 . S
C411 O427 1.242 . S
C412 C411 1.506 . S
C412 C413 1.358 . S
C412 C417 1.382 . S
C413 C412 1.358 . S
C413 C414 1.385 . S
C413 H436 0.930 . S
C414 C413 1.385 . S
C414 C415 1.395 . S
C414 H437 0.929 . S
C415 C414 1.395 . S
C415 C416 1.335 . S
C416 C415 1.335 . S
C416 C417 1.398 . S
C416 H438 0.930 . S
C417 C412 1.382 . S
C417 C416 1.398 . S
C417 H439 0.929 . S
C418 O428 1.271 1_545 S
C418 O429 1.251 . S
C419 O430 1.252 . S
C419 O431 1.287 . S
O420 Sm400 2.543 . S
O420 C402 1.261 . S
O421 Sm400 2.450 . S
O421 C402 1.242 . S
O422 Sm400 2.681 . S
O422 Sm401 2.386 1_565 S
O422 C409 1.271 . S
O423 Sm400 2.464 . S
O423 C409 1.251 . S
O424 Sm400 2.396 . S
O424 C410 1.252 . S
O425 Sm401 2.408 1_565 S
O425 C410 1.272 . S
O426 Sm401 2.543 . S
O426 C411 1.261 . S
O427 Sm401 2.450 . S
O427 C411 1.242 . S
O428 Sm400 2.386 . S
O428 Sm401 2.681 1_565 S
O428 C418 1.271 1_565 S
O429 Sm401 2.464 . S
O429 C418 1.251 . S
O430 Sm401 2.396 . S
O430 C419 1.252 . S
O431 Sm400 2.393 1_545 S
O431 C419 1.287 . S
H432 C404 0.930 . S
H433 C405 0.929 . S
H434 C407 0.930 . S
H435 C408 0.929 . S
H436 C413 0.930 . S
H437 C414 0.929 . S
H438 C416 0.930 . S
H439 C417 0.929 . S
Sm440 C442 2.846 . S
Sm440 O460 2.543 . S
Sm440 O461 2.450 . S
Sm440 O462 2.681 . S
Sm440 O463 2.464 . S
Sm440 O464 2.396 . S
Sm440 O468 2.386 . S
Sm440 O471 2.408 . S
Sm441 C451 2.846 . S
Sm441 O462 2.386 . S
Sm441 O465 2.408 . S
Sm441 O466 2.543 . S
Sm441 O467 2.450 . S
Sm441 O468 2.681 . S
Sm441 O469 2.464 . S
Sm441 O470 2.396 . S
C442 Sm440 2.846 . S
C442 C443 1.506 . S
C442 O460 1.261 . S
C442 O461 1.242 . S
C443 C442 1.506 . S
C443 C444 1.358 . S
C443 C448 1.382 . S
C444 C443 1.358 . S
C444 C445 1.385 . S
C444 H472 0.930 . S
C445 C444 1.385 . S
C445 C446 1.395 . S
C445 H473 0.929 . S
C446 C445 1.395 . S
C446 C447 1.335 . S
C447 C446 1.335 . S
C447 C448 1.398 . S
C447 H474 0.930 . S
C448 C443 1.382 . S
C448 C447 1.398 . S
C448 H475 0.929 . S
C449 O462 1.271 . S
C449 O463 1.251 . S
C450 O464 1.252 . S
C450 O465 1.272 . S
C451 Sm441 2.846 . S
C451 C452 1.506 . S
C451 O466 1.261 . S
C451 O467 1.242 . S
C452 C451 1.506 . S
C452 C453 1.358 . S
C452 C457 1.382 . S
C453 C452 1.358 . S
C453 C454 1.385 . S
C453 H476 0.930 . S
C454 C453 1.385 . S
C454 C455 1.395 . S
C454 H477 0.929 . S
C455 C454 1.395 . S
C455 C456 1.335 . S
C456 C455 1.335 . S
C456 C457 1.398 . S
C456 H478 0.930 . S
C457 C452 1.382 . S
C457 C456 1.398 . S
C457 H479 0.929 . S
C458 O468 1.271 . S
C458 O469 1.251 . S
C459 O470 1.252 . S
C459 O471 1.272 . S
O460 Sm440 2.543 . S
O460 C442 1.261 . S
O461 Sm440 2.450 . S
O461 C442 1.242 . S
O462 Sm440 2.681 . S
O462 Sm441 2.386 . S
O462 C449 1.271 . S
O463 Sm440 2.464 . S
O463 C449 1.251 . S
O464 Sm440 2.396 . S
O464 C450 1.252 . S
O465 Sm441 2.408 . S
O465 C450 1.272 . S
O466 Sm441 2.543 . S
O466 C451 1.261 . S
O467 Sm441 2.450 . S
O467 C451 1.242 . S
O468 Sm440 2.386 . S
O468 Sm441 2.681 . S
O468 C458 1.271 . S
O469 Sm441 2.464 . S
O469 C458 1.251 . S
O470 Sm441 2.396 . S
O470 C459 1.252 . S
O471 Sm440 2.408 . S
O471 C459 1.272 . S
H472 C444 0.930 . S
H473 C445 0.929 . S
H474 C447 0.930 . S
H475 C448 0.929 . S
H476 C453 0.930 . S
H477 C454 0.929 . S
H478 C456 0.930 . S
H479 C457 0.929 . S
C480 C481 1.349 . S
C480 C482 1.327 . S
C480 H505 0.950 . S
C481 C480 1.349 . S
C481 C497 1.349 . S
C482 C480 1.327 . S
C482 C501 1.429 . S
C482 H506 0.950 . S
C483 C500 1.574 . S
C483 C502 1.368 . S
C483 H507 0.949 . S
H484 C488 0.949 . S
C485 C486 1.349 . S
C485 C487 1.327 . S
C485 H508 0.950 . S
C486 C485 1.349 . S
C486 C498 1.349 . S
C487 C485 1.327 . S
C487 C503 1.429 . S
C487 H509 0.950 . S
C488 H484 0.949 . S
C488 C496 1.574 . S
C488 C504 1.368 . S
H489 C497 0.950 . S
H490 C495 0.950 . S
H491 C496 0.949 . S
H492 C498 0.950 . S
H493 C499 0.950 . S
H494 C500 0.949 . S
C495 H490 0.950 . S
C495 C497 1.327 . S
C495 C501 1.429 . S
C496 C488 1.574 . S
C496 H491 0.949 . S
C496 C502 1.368 . S
C497 C481 1.349 . S
C497 H489 0.950 . S
C497 C495 1.327 . S
C498 C486 1.349 . S
C498 H492 0.950 . S
C498 C499 1.327 . S
C499 H493 0.950 . S
C499 C498 1.327 . S
C499 C503 1.429 . S
C500 C483 1.574 . S
C500 H494 0.949 . S
C500 C504 1.368 . S
C501 C482 1.429 . S
C501 C495 1.429 . S
C501 C502 1.523 . S
C502 C483 1.368 . S
C502 C496 1.368 . S
C502 C501 1.523 . S
C503 C487 1.429 . S
C503 C499 1.429 . S
C503 C504 1.523 . S
C504 C488 1.368 . S
C504 C500 1.368 . S
C504 C503 1.523 . S
H505 C480 0.950 . S
H506 C482 0.950 . S
H507 C483 0.949 . S
H508 C485 0.950 . S
H509 C487 0.950 . S
C510 C511 1.349 . S
C510 C512 1.327 . S
C510 H535 0.950 1_565 S
C511 C510 1.349 . S
C511 C527 1.349 . S
C512 C510 1.327 . S
C512 C531 1.429 . S
C512 H536 0.950 . S
C513 C530 1.574 . S
C513 C532 1.368 . S
C513 H537 0.949 . S
H514 C518 0.949 . S
C515 C516 1.349 . S
C515 C517 1.327 . S
C515 H538 0.950 . S
C516 C515 1.349 . S
C516 C528 1.349 . S
C517 C515 1.327 . S
C517 C533 1.429 . S
C517 H539 0.950 . S
C518 H514 0.949 . S
C518 C526 1.574 . S
C518 C534 1.368 . S
H519 C527 0.950 . S
H520 C525 0.950 . S
H521 C526 0.949 . S
H522 C528 0.950 . S
H523 C529 0.950 . S
H524 C530 0.949 . S
C525 H520 0.950 . S
C525 C527 1.327 . S
C525 C531 1.429 . S
C526 C518 1.574 . S
C526 H521 0.949 . S
C526 C532 1.368 . S
C527 C511 1.349 . S
C527 H519 0.950 . S
C527 C525 1.327 . S
C528 C516 1.349 . S
C528 H522 0.950 . S
C528 C529 1.327 . S
C529 H523 0.950 . S
C529 C528 1.327 . S
C529 C533 1.429 . S
C530 C513 1.574 . S
C530 H524 0.949 . S
C530 C534 1.368 . S
C531 C512 1.429 . S
C531 C525 1.429 . S
C531 C532 1.523 . S
C532 C513 1.368 . S
C532 C526 1.368 . S
C532 C531 1.523 . S
C533 C517 1.429 . S
C533 C529 1.429 . S
C533 C534 1.523 . S
C534 C518 1.368 . S
C534 C530 1.368 . S
C534 C533 1.523 . S
H535 C510 0.950 1_545 S
H536 C512 0.950 . S
H537 C513 0.949 . S
H538 C515 0.950 . S
H539 C517 0.950 . S
C540 C541 1.349 1_554 S
C540 C542 1.327 . S
C540 H565 0.950 . S
C541 C540 1.349 1_556 S
C541 C557 1.349 . S
C542 C540 1.327 . S
C542 C561 1.429 . S
C542 H566 0.950 . S
C543 C560 1.574 . S
C543 C562 1.368 . S
C543 H567 0.949 1_554 S
H544 C548 0.949 . S
C545 C546 1.349 . S
C545 C547 1.327 . S
C545 H568 0.950 . S
C546 C545 1.349 . S
C546 C558 1.349 . S
C547 C545 1.327 . S
C547 C563 1.429 . S
C547 H569 0.950 . S
C548 H544 0.949 . S
C548 C556 1.574 . S
C548 C564 1.368 . S
H549 C557 0.950 . S
H550 C555 0.950 . S
H551 C556 0.949 . S
H552 C558 0.950 . S
H553 C559 0.950 . S
H554 C560 0.949 . S
C555 H550 0.950 . S
C555 C557 1.327 . S
C555 C561 1.429 1_556 S
C556 C548 1.574 . S
C556 H551 0.949 . S
C556 C562 1.368 . S
C557 C541 1.349 . S
C557 H549 0.950 . S
C557 C555 1.327 . S
C558 C546 1.349 . S
C558 H552 0.950 . S
C558 C559 1.327 . S
C559 H553 0.950 . S
C559 C558 1.327 . S
C559 C563 1.429 . S
C560 C543 1.574 . S
C560 H554 0.949 . S
C560 C564 1.368 . S
C561 C542 1.429 . S
C561 C555 1.429 1_554 S
C561 C562 1.523 . S
C562 C543 1.368 . S
C562 C556 1.368 . S
C562 C561 1.523 . S
C563 C547 1.429 . S
C563 C559 1.429 . S
C563 C564 1.523 . S
C564 C548 1.368 . S
C564 C560 1.368 . S
C564 C563 1.523 . S
H565 C540 0.950 . S
H566 C542 0.950 . S
H567 C543 0.949 1_556 S
H568 C545 0.950 . S
H569 C547 0.950 . S
C570 C571 1.349 . S
C570 C572 1.327 . S
C570 H595 0.950 . S
C571 C570 1.349 . S
C571 C587 1.349 . S
C572 C570 1.327 . S
C572 C591 1.429 . S
C572 H596 0.950 . S
C573 C590 1.574 . S
C573 C592 1.368 . S
C573 H597 0.949 . S
H574 C578 0.949 . S
C575 C576 1.349 . S
C575 C577 1.327 . S
C575 H598 0.950 . S
C576 C575 1.349 . S
C576 C588 1.349 . S
C577 C575 1.327 . S
C577 C593 1.429 . S
C577 H599 0.950 . S
C578 H574 0.949 . S
C578 C586 1.574 . S
C578 C594 1.368 . S
H579 C587 0.950 . S
H580 C585 0.950 . S
H581 C586 0.949 . S
H582 C588 0.950 . S
H583 C589 0.950 . S
H584 C590 0.949 . S
C585 H580 0.950 . S
C585 C587 1.327 . S
C585 C591 1.429 . S
C586 C578 1.574 . S
C586 H581 0.949 . S
C586 C592 1.368 . S
C587 C571 1.349 . S
C587 H579 0.950 . S
C587 C585 1.327 . S
C588 C576 1.349 . S
C588 H582 0.950 . S
C588 C589 1.327 . S
C589 H583 0.950 . S
C589 C588 1.327 . S
C589 C593 1.429 . S
C590 C573 1.574 . S
C590 H584 0.949 . S
C590 C594 1.368 . S
C591 C572 1.429 . S
C591 C585 1.429 . S
C591 C592 1.523 . S
C592 C573 1.368 . S
C592 C586 1.368 . S
C592 C591 1.523 . S
C593 C577 1.429 . S
C593 C589 1.429 . S
C593 C594 1.523 . S
C594 C578 1.368 . S
C594 C590 1.368 . S
C594 C593 1.523 . S
H595 C570 0.950 . S
H596 C572 0.950 . S
H597 C573 0.949 . S
H598 C575 0.950 . S
H599 C577 0.950 . S
C600 C601 1.349 . S
C600 C602 1.327 . S
C600 H625 0.950 . S
C601 C600 1.349 . S
C601 C617 1.349 . S
C602 C600 1.327 . S
C602 C621 1.429 . S
C602 H626 0.950 . S
C603 C620 1.574 . S
C603 C622 1.368 . S
C603 H627 0.949 . S
H604 C608 0.949 . S
C605 C606 1.349 . S
C605 C607 1.327 . S
C605 H628 0.950 . S
C606 C605 1.349 . S
C606 C618 1.349 . S
C607 C605 1.327 . S
C607 C623 1.429 . S
C607 H629 0.950 . S
C608 H604 0.949 . S
C608 C616 1.574 . S
C608 C624 1.368 . S
H609 C617 0.950 . S
H610 C615 0.950 . S
H611 C616 0.949 . S
H612 C618 0.950 . S
H613 C619 0.950 . S
H614 C620 0.949 . S
C615 H610 0.950 . S
C615 C617 1.327 . S
C615 C621 1.429 . S
C616 C608 1.574 . S
C616 H611 0.949 . S
C616 C622 1.368 . S
C617 C601 1.349 . S
C617 H609 0.950 . S
C617 C615 1.327 . S
C618 C606 1.349 . S
C618 H612 0.950 . S
C618 C619 1.327 . S
C619 H613 0.950 . S
C619 C618 1.327 . S
C619 C623 1.429 . S
C620 C603 1.574 . S
C620 H614 0.949 . S
C620 C624 1.368 . S
C621 C602 1.429 . S
C621 C615 1.429 . S
C621 C622 1.523 . S
C622 C603 1.368 . S
C622 C616 1.368 . S
C622 C621 1.523 . S
C623 C607 1.429 . S
C623 C619 1.429 . S
C623 C624 1.523 . S
C624 C608 1.368 . S
C624 C620 1.368 . S
C624 C623 1.523 . S
H625 C600 0.950 . S
H626 C602 0.950 . S
H627 C603 0.949 . S
H628 C605 0.950 . S
H629 C607 0.950 . S
C630 C631 1.349 . S
C630 C632 1.327 . S
C630 H655 0.950 . S
C631 C630 1.349 . S
C631 C647 1.349 . S
C632 C630 1.327 . S
C632 C651 1.429 . S
C632 H656 0.950 . S
C633 C650 1.574 . S
C633 C652 1.368 . S
C633 H657 0.949 . S
H634 C638 0.949 . S
C635 C636 1.349 . S
C635 C637 1.327 . S
C635 H658 0.950 . S
C636 C635 1.349 . S
C636 C648 1.349 . S
C637 C635 1.327 . S
C637 C653 1.429 . S
C637 H659 0.950 . S
C638 H634 0.949 . S
C638 C646 1.574 . S
C638 C654 1.368 . S
H639 C647 0.950 . S
H640 C645 0.950 . S
H641 C646 0.949 . S
H642 C648 0.950 . S
H643 C649 0.950 . S
H644 C650 0.949 . S
C645 H640 0.950 . S
C645 C647 1.327 . S
C645 C651 1.429 . S
C646 C638 1.574 . S
C646 H641 0.949 . S
C646 C652 1.368 . S
C647 C631 1.349 . S
C647 H639 0.950 . S
C647 C645 1.327 . S
C648 C636 1.349 . S
C648 H642 0.950 . S
C648 C649 1.327 . S
C649 H643 0.950 . S
C649 C648 1.327 . S
C649 C653 1.429 . S
C650 C633 1.574 . S
C650 H644 0.949 . S
C650 C654 1.368 . S
C651 C632 1.429 . S
C651 C645 1.429 . S
C651 C652 1.523 . S
C652 C633 1.368 . S
C652 C646 1.368 . S
C652 C651 1.523 . S
C653 C637 1.429 . S
C653 C649 1.429 . S
C653 C654 1.523 . S
C654 C638 1.368 . S
C654 C650 1.368 . S
C654 C653 1.523 . S
H655 C630 0.950 . S
H656 C632 0.950 . S
H657 C633 0.949 . S
H658 C635 0.950 . S
H659 C637 0.950 . S
C660 C661 1.349 . S
C660 C662 1.327 . S
C660 H685 0.950 . S
C661 C660 1.349 . S
C661 C677 1.349 . S
C662 C660 1.327 . S
C662 C681 1.429 . S
C662 H686 0.950 . S
C663 C680 1.574 . S
C663 C682 1.368 . S
C663 H687 0.949 . S
H664 C668 0.949 . S
C665 C666 1.349 . S
C665 C667 1.327 . S
C665 H688 0.950 1_556 S
C666 C665 1.349 . S
C666 C678 1.349 . S
C667 C665 1.327 . S
C667 C683 1.429 . S
C667 H689 0.950 . S
C668 H664 0.949 . S
C668 C676 1.574 . S
C668 C684 1.368 . S
H669 C677 0.950 . S
H670 C675 0.950 . S
H671 C676 0.949 . S
H672 C678 0.950 . S
H673 C679 0.950 . S
H674 C680 0.949 . S
C675 H670 0.950 . S
C675 C677 1.327 . S
C675 C681 1.429 . S
C676 C668 1.574 . S
C676 H671 0.949 . S
C676 C682 1.368 . S
C677 C661 1.349 . S
C677 H669 0.950 . S
C677 C675 1.327 . S
C678 C666 1.349 . S
C678 H672 0.950 . S
C678 C679 1.327 . S
C679 H673 0.950 . S
C679 C678 1.327 . S
C679 C683 1.429 . S
C680 C663 1.574 . S
C680 H674 0.949 . S
C680 C684 1.368 . S
C681 C662 1.429 . S
C681 C675 1.429 . S
C681 C682 1.523 . S
C682 C663 1.368 . S
C682 C676 1.368 . S
C682 C681 1.523 . S
C683 C667 1.429 . S
C683 C679 1.429 . S
C683 C684 1.523 . S
C684 C668 1.368 . S
C684 C680 1.368 . S
C684 C683 1.523 . S
H685 C660 0.950 . S
H686 C662 0.950 . S
H687 C663 0.949 . S
H688 C665 0.950 1_554 S
H689 C667 0.950 . S
C690 C691 1.349 . S
C690 C692 1.327 . S
C690 H715 0.950 . S
C691 C690 1.349 . S
C691 C707 1.349 . S
C692 C690 1.327 . S
C692 C711 1.429 . S
C692 H716 0.950 . S
C693 C710 1.574 . S
C693 C712 1.368 . S
C693 H717 0.949 . S
H694 C698 0.949 . S
C695 C696 1.349 . S
C695 C697 1.327 . S
C695 H718 0.950 . S
C696 C695 1.349 . S
C696 C708 1.349 . S
C697 C695 1.327 . S
C697 C713 1.429 . S
C697 H719 0.950 . S
C698 H694 0.949 . S
C698 C706 1.574 . S
C698 C714 1.368 . S
H699 C707 0.950 . S
H700 C705 0.950 . S
H701 C706 0.949 . S
H702 C708 0.950 . S
H703 C709 0.950 . S
H704 C710 0.949 . S
C705 H700 0.950 . S
C705 C707 1.327 . S
C705 C711 1.429 . S
C706 C698 1.574 . S
C706 H701 0.949 . S
C706 C712 1.368 . S
C707 C691 1.349 . S
C707 H699 0.950 . S
C707 C705 1.327 . S
C708 C696 1.349 . S
C708 H702 0.950 . S
C708 C709 1.327 . S
C709 H703 0.950 . S
C709 C708 1.327 . S
C709 C713 1.429 . S
C710 C693 1.574 . S
C710 H704 0.949 . S
C710 C714 1.368 . S
C711 C692 1.429 . S
C711 C705 1.429 . S
C711 C712 1.523 . S
C712 C693 1.368 . S
C712 C706 1.368 . S
C712 C711 1.523 . S
C713 C697 1.429 . S
C713 C709 1.429 . S
C713 C714 1.523 . S
C714 C698 1.368 . S
C714 C710 1.368 . S
C714 C713 1.523 . S
H715 C690 0.950 . S
H716 C692 0.950 . S
H717 C693 0.949 . S
H718 C695 0.950 . S
H719 C697 0.950 . S
C720 C721 1.349 . S
C720 C722 1.327 . S
C720 H745 0.950 . S
C721 C720 1.349 . S
C721 C737 1.349 . S
C722 C720 1.327 . S
C722 C741 1.429 . S
C722 H746 0.950 . S
C723 C740 1.574 . S
C723 C742 1.368 . S
C723 H747 0.949 . S
H724 C728 0.949 . S
C725 C726 1.349 . S
C725 C727 1.327 . S
C725 H748 0.950 . S
C726 C725 1.349 . S
C726 C738 1.349 . S
C727 C725 1.327 . S
C727 C743 1.429 . S
C727 H749 0.950 . S
C728 H724 0.949 . S
C728 C736 1.574 . S
C728 C744 1.368 . S
H729 C737 0.950 . S
H730 C735 0.950 . S
H731 C736 0.949 . S
H732 C738 0.950 . S
H733 C739 0.950 . S
H734 C740 0.949 . S
C735 H730 0.950 . S
C735 C737 1.327 . S
C735 C741 1.429 . S
C736 C728 1.574 . S
C736 H731 0.949 . S
C736 C742 1.368 . S
C737 C721 1.349 . S
C737 H729 0.950 . S
C737 C735 1.327 . S
C738 C726 1.349 . S
C738 H732 0.950 . S
C738 C739 1.327 . S
C739 H733 0.950 . S
C739 C738 1.327 . S
C739 C743 1.429 . S
C740 C723 1.574 . S
C740 H734 0.949 . S
C740 C744 1.368 . S
C741 C722 1.429 . S
C741 C735 1.429 . S
C741 C742 1.523 . S
C742 C723 1.368 . S
C742 C736 1.368 . S
C742 C741 1.523 . S
C743 C727 1.429 . S
C743 C739 1.429 . S
C743 C744 1.523 . S
C744 C728 1.368 . S
C744 C740 1.368 . S
C744 C743 1.523 . S
H745 C720 0.950 . S
H746 C722 0.950 . S
H747 C723 0.949 . S
H748 C725 0.950 . S
H749 C727 0.950 . S
C750 C751 1.349 . S
C750 C752 1.327 . S
C750 H775 0.950 . S
C751 C750 1.349 . S
C751 C767 1.349 . S
C752 C750 1.327 . S
C752 C771 1.429 . S
C752 H776 0.950 . S
C753 C770 1.574 . S
C753 C772 1.368 . S
C753 H777 0.949 . S
H754 C758 0.949 . S
C755 C756 1.349 . S
C755 C757 1.327 . S
C755 H778 0.950 . S
C756 C755 1.349 . S
C756 C768 1.349 . S
C757 C755 1.327 . S
C757 C773 1.429 . S
C757 H779 0.950 . S
C758 H754 0.949 . S
C758 C766 1.574 . S
C758 C774 1.368 . S
H759 C767 0.950 . S
H760 C765 0.950 . S
H761 C766 0.949 . S
H762 C768 0.950 . S
H763 C769 0.950 . S
H764 C770 0.949 . S
C765 H760 0.950 . S
C765 C767 1.327 . S
C765 C771 1.429 . S
C766 C758 1.574 . S
C766 H761 0.949 . S
C766 C772 1.368 . S
C767 C751 1.349 . S
C767 H759 0.950 . S
C767 C765 1.327 . S
C768 C756 1.349 . S
C768 H762 0.950 . S
C768 C769 1.327 . S
C769 H763 0.950 . S
C769 C768 1.327 . S
C769 C773 1.429 . S
C770 C753 1.574 . S
C770 H764 0.949 . S
C770 C774 1.368 . S
C771 C752 1.429 . S
C771 C765 1.429 . S
C771 C772 1.523 . S
C772 C753 1.368 . S
C772 C766 1.368 . S
C772 C771 1.523 . S
C773 C757 1.429 . S
C773 C769 1.429 . S
C773 C774 1.523 . S
C774 C758 1.368 . S
C774 C770 1.368 . S
C774 C773 1.523 . S
H775 C750 0.950 . S
H776 C752 0.950 . S
H777 C753 0.949 . S
H778 C755 0.950 . S
H779 C757 0.950 . S
C780 C781 1.349 1_655 S
C780 C782 1.327 . S
C780 H805 0.950 . S
C781 C780 1.349 1_455 S
C781 C797 1.349 . S
C782 C780 1.327 . S
C782 C801 1.429 . S
C782 H806 0.950 . S
C783 C800 1.574 . S
C783 C802 1.368 . S
C783 H807 0.949 . S
H784 C788 0.949 . S
C785 C786 1.349 . S
C785 C787 1.327 . S
C785 H808 0.950 . S
C786 C785 1.349 . S
C786 C798 1.349 . S
C787 C785 1.327 . S
C787 C803 1.429 . S
C787 H809 0.950 . S
C788 H784 0.949 . S
C788 C796 1.574 . S
C788 C804 1.368 . S
H789 C797 0.950 . S
H790 C795 0.949 . S
H791 C796 0.949 . S
H792 C798 0.950 . S
H793 C799 0.950 . S
H794 C800 0.949 . S
C795 H790 0.949 . S
C795 C797 1.327 1_655 S
C795 C801 1.429 . S
C796 C788 1.574 . S
C796 H791 0.949 . S
C796 C802 1.368 . S
C797 C781 1.349 . S
C797 H789 0.950 . S
C797 C795 1.327 1_455 S
C798 C786 1.349 . S
C798 H792 0.950 . S
C798 C799 1.327 . S
C799 H793 0.950 . S
C799 C798 1.327 . S
C799 C803 1.429 . S
C800 C783 1.574 . S
C800 H794 0.949 . S
C800 C804 1.368 . S
C801 C782 1.429 . S
C801 C795 1.429 . S
C801 C802 1.523 . S
C802 C783 1.368 . S
C802 C796 1.368 . S
C802 C801 1.523 . S
C803 C787 1.429 . S
C803 C799 1.429 . S
C803 C804 1.523 . S
C804 C788 1.368 . S
C804 C800 1.368 . S
C804 C803 1.523 . S
H805 C780 0.950 . S
H806 C782 0.950 . S
H807 C783 0.949 . S
H808 C785 0.950 . S
H809 C787 0.950 . S
C810 C811 1.349 . S
C810 C812 1.327 . S
C810 H835 0.950 . S
C811 C810 1.349 . S
C811 C827 1.349 . S
C812 C810 1.327 . S
C812 C831 1.429 . S
C812 H836 0.950 . S
C813 C830 1.574 . S
C813 C832 1.368 . S
C813 H837 0.949 . S
H814 C818 0.949 . S
C815 C816 1.349 . S
C815 C817 1.327 . S
C815 H838 0.950 . S
C816 C815 1.349 . S
C816 C828 1.349 . S
C817 C815 1.327 . S
C817 C833 1.429 . S
C817 H839 0.950 . S
C818 H814 0.949 . S
C818 C826 1.574 . S
C818 C834 1.368 . S
H819 C827 0.950 . S
H820 C825 0.950 . S
H821 C826 0.949 . S
H822 C828 0.950 . S
H823 C829 0.950 . S
H824 C830 0.949 . S
C825 H820 0.950 . S
C825 C827 1.327 . S
C825 C831 1.429 . S
C826 C818 1.574 . S
C826 H821 0.949 . S
C826 C832 1.368 . S
C827 C811 1.349 . S
C827 H819 0.950 . S
C827 C825 1.327 . S
C828 C816 1.349 . S
C828 H822 0.950 . S
C828 C829 1.327 . S
C829 H823 0.950 . S
C829 C828 1.327 . S
C829 C833 1.429 . S
C830 C813 1.574 . S
C830 H824 0.949 . S
C830 C834 1.368 . S
C831 C812 1.429 . S
C831 C825 1.429 . S
C831 C832 1.523 . S
C832 C813 1.368 . S
C832 C826 1.368 . S
C832 C831 1.523 . S
C833 C817 1.429 . S
C833 C829 1.429 . S
C833 C834 1.523 . S
C834 C818 1.368 . S
C834 C830 1.368 . S
C834 C833 1.523 . S
H835 C810 0.950 . S
H836 C812 0.950 . S
H837 C813 0.949 . S
H838 C815 0.950 . S
H839 C817 0.950 . S
C840 C841 1.349 . S
C840 C842 1.327 . S
C840 H865 0.950 . S
C841 C840 1.349 . S
C841 C857 1.349 . S
C842 C840 1.327 . S
C842 C861 1.429 . S
C842 H866 0.950 . S
C843 C860 1.574 . S
C843 C862 1.368 . S
C843 H867 0.949 . S
H844 C848 0.949 . S
C845 C846 1.349 . S
C845 C847 1.327 . S
C845 H868 0.950 . S
C846 C845 1.349 . S
C846 C858 1.349 . S
C847 C845 1.327 . S
C847 C863 1.429 . S
C847 H869 0.950 . S
C848 H844 0.949 . S
C848 C856 1.574 . S
C848 C864 1.368 . S
H849 C857 0.950 . S
H850 C855 0.950 . S
H851 C856 0.949 . S
H852 C858 0.950 . S
H853 C859 0.950 . S
H854 C860 0.949 . S
C855 H850 0.950 . S
C855 C857 1.327 . S
C855 C861 1.429 . S
C856 C848 1.574 . S
C856 H851 0.949 . S
C856 C862 1.368 . S
C857 C841 1.349 . S
C857 H849 0.950 . S
C857 C855 1.327 . S
C858 C846 1.349 . S
C858 H852 0.950 . S
C858 C859 1.327 . S
C859 H853 0.950 . S
C859 C858 1.327 . S
C859 C863 1.429 . S
C860 C843 1.574 . S
C860 H854 0.949 . S
C860 C864 1.368 . S
C861 C842 1.429 . S
C861 C855 1.429 . S
C861 C862 1.523 . S
C862 C843 1.368 . S
C862 C856 1.368 . S
C862 C861 1.523 . S
C863 C847 1.429 . S
C863 C859 1.429 . S
C863 C864 1.523 . S
C864 C848 1.368 . S
C864 C860 1.368 . S
C864 C863 1.523 . S
H865 C840 0.950 . S
H866 C842 0.950 . S
H867 C843 0.949 . S
H868 C845 0.950 . S
H869 C847 0.950 . S
C870 C871 1.349 . S
C870 C872 1.327 . S
C870 H895 0.950 . S
C871 C870 1.349 . S
C871 C887 1.349 . S
C872 C870 1.327 . S
C872 C891 1.429 . S
C872 H896 0.950 . S
C873 C890 1.574 . S
C873 C892 1.368 . S
C873 H897 0.949 . S
H874 C878 0.949 . S
C875 C876 1.349 . S
C875 C877 1.327 . S
C875 H898 0.950 . S
C876 C875 1.349 . S
C876 C888 1.349 . S
C877 C875 1.327 . S
C877 C893 1.429 . S
C877 H899 0.950 . S
C878 H874 0.949 . S
C878 C886 1.574 . S
C878 C894 1.368 . S
H879 C887 0.950 . S
H880 C885 0.950 . S
H881 C886 0.949 . S
H882 C888 0.950 . S
H883 C889 0.950 . S
H884 C890 0.949 . S
C885 H880 0.950 . S
C885 C887 1.327 . S
C885 C891 1.429 . S
C886 C878 1.574 . S
C886 H881 0.949 . S
C886 C892 1.368 . S
C887 C871 1.349 . S
C887 H879 0.950 . S
C887 C885 1.327 . S
C888 C876 1.349 . S
C888 H882 0.950 . S
C888 C889 1.327 . S
C889 H883 0.950 . S
C889 C888 1.327 . S
C889 C893 1.429 . S
C890 C873 1.574 . S
C890 H884 0.949 . S
C890 C894 1.368 . S
C891 C872 1.429 . S
C891 C885 1.429 . S
C891 C892 1.523 . S
C892 C873 1.368 . S
C892 C886 1.368 . S
C892 C891 1.523 . S
C893 C877 1.429 . S
C893 C889 1.429 . S
C893 C894 1.523 . S
C894 C878 1.368 . S
C894 C890 1.368 . S
C894 C893 1.523 . S
H895 C870 0.950 . S
H896 C872 0.950 . S
H897 C873 0.949 . S
H898 C875 0.950 . S
H899 C877 0.950 . S
C900 C901 1.349 . S
C900 C902 1.327 . S
C900 H925 0.950 . S
C901 C900 1.349 . S
C901 C917 1.349 . S
C902 C900 1.327 . S
C902 C921 1.429 . S
C902 H926 0.950 . S
C903 C920 1.574 . S
C903 C922 1.368 . S
C903 H927 0.949 . S
H904 C908 0.949 . S
C905 C906 1.349 . S
C905 C907 1.327 . S
C905 H928 0.950 . S
C906 C905 1.349 . S
C906 C918 1.349 . S
C907 C905 1.327 . S
C907 C923 1.429 . S
C907 H929 0.950 . S
C908 H904 0.949 . S
C908 C916 1.574 . S
C908 C924 1.368 . S
H909 C917 0.950 . S
H910 C915 0.950 . S
H911 C916 0.949 . S
H912 C918 0.950 . S
H913 C919 0.950 . S
H914 C920 0.949 . S
C915 H910 0.950 . S
C915 C917 1.327 . S
C915 C921 1.429 . S
C916 C908 1.574 . S
C916 H911 0.949 . S
C916 C922 1.368 . S
C917 C901 1.349 . S
C917 H909 0.950 . S
C917 C915 1.327 . S
C918 C906 1.349 . S
C918 H912 0.950 . S
C918 C919 1.327 . S
C919 H913 0.950 . S
C919 C918 1.327 . S
C919 C923 1.429 . S
C920 C903 1.574 . S
C920 H914 0.949 . S
C920 C924 1.368 . S
C921 C902 1.429 . S
C921 C915 1.429 . S
C921 C922 1.523 . S
C922 C903 1.368 . S
C922 C916 1.368 . S
C922 C921 1.523 . S
C923 C907 1.429 . S
C923 C919 1.429 . S
C923 C924 1.523 . S
C924 C908 1.368 . S
C924 C920 1.368 . S
C924 C923 1.523 . S
H925 C900 0.950 . S
H926 C902 0.950 . S
H927 C903 0.949 . S
H928 C905 0.950 . S
H929 C907 0.950 . S
C930 C931 1.349 . S
C930 C932 1.327 . S
C930 H955 0.950 . S
C931 C930 1.349 . S
C931 C947 1.349 . S
C932 C930 1.327 . S
C932 C951 1.429 . S
C932 H956 0.950 . S
C933 C950 1.574 1_554 S
C933 C952 1.368 . S
C933 H957 0.949 . S
H934 C938 0.949 . S
C935 C936 1.349 . S
C935 C937 1.327 . S
C935 H958 0.950 . S
C936 C935 1.349 . S
C936 C948 1.349 . S
C937 C935 1.327 . S
C937 C953 1.429 . S
C937 H959 0.950 . S
C938 H934 0.949 . S
C938 C946 1.574 1_556 S
C938 C954 1.368 . S
H939 C947 0.950 . S
H940 C945 0.950 . S
H941 C946 0.949 . S
H942 C948 0.950 1_565 S
H943 C949 0.950 . S
H944 C950 0.949 . S
C945 H940 0.950 . S
C945 C947 1.327 . S
C945 C951 1.429 . S
C946 C938 1.574 1_554 S
C946 H941 0.949 . S
C946 C952 1.368 . S
C947 C931 1.349 . S
C947 H939 0.950 . S
C947 C945 1.327 . S
C948 C936 1.349 . S
C948 H942 0.950 1_545 S
C948 C949 1.327 . S
C949 H943 0.950 . S
C949 C948 1.327 . S
C949 C953 1.429 . S
C950 C933 1.574 1_556 S
C950 H944 0.949 . S
C950 C954 1.368 . S
C951 C932 1.429 . S
C951 C945 1.429 . S
C951 C952 1.523 . S
C952 C933 1.368 . S
C952 C946 1.368 . S
C952 C951 1.523 . S
C953 C937 1.429 . S
C953 C949 1.429 . S
C953 C954 1.523 . S
C954 C938 1.368 . S
C954 C950 1.368 . S
C954 C953 1.523 . S
H955 C930 0.950 . S
H956 C932 0.950 . S
H957 C933 0.949 . S
H958 C935 0.950 . S
H959 C937 0.950 . S
C960 C961 1.349 . S
C960 C962 1.327 . S
C960 H985 0.950 . S
C961 C960 1.349 . S
C961 C977 1.349 . S
C962 C960 1.327 . S
C962 C981 1.429 . S
C962 H986 0.950 . S
C963 C980 1.574 . S
C963 C982 1.368 . S
C963 H987 0.949 . S
H964 C968 0.949 . S
C965 C966 1.349 . S
C965 C967 1.327 . S
C965 H988 0.950 . S
C966 C965 1.349 . S
C966 C978 1.349 . S
C967 C965 1.327 . S
C967 C983 1.429 . S
C967 H989 0.950 . S
C968 H964 0.949 . S
C968 C976 1.574 . S
C968 C984 1.368 . S
H969 C977 0.950 . S
H970 C975 0.950 . S
H971 C976 0.949 . S
H972 C978 0.950 . S
H973 C979 0.950 . S
H974 C980 0.949 . S
C975 H970 0.950 . S
C975 C977 1.327 . S
C975 C981 1.429 . S
C976 C968 1.574 . S
C976 H971 0.949 . S
C976 C982 1.368 . S
C977 C961 1.349 . S
C977 H969 0.950 . S
C977 C975 1.327 . S
C978 C966 1.349 . S
C978 H972 0.950 . S
C978 C979 1.327 . S
C979 H973 0.950 . S
C979 C978 1.327 . S
C979 C983 1.429 . S
C980 C963 1.574 . S
C980 H974 0.949 . S
C980 C984 1.368 . S
C981 C962 1.429 . S
C981 C975 1.429 . S
C981 C982 1.523 . S
C982 C963 1.368 . S
C982 C976 1.368 . S
C982 C981 1.523 . S
C983 C967 1.429 . S
C983 C979 1.429 . S
C983 C984 1.523 . S
C984 C968 1.368 . S
C984 C980 1.368 . S
C984 C983 1.523 . S
H985 C960 0.950 . S
H986 C962 0.950 . S
H987 C963 0.949 . S
H988 C965 0.950 . S
H989 C967 0.950 . S
C990 C991 1.349 . S
C990 C992 1.327 . S
C990 H1015 0.950 . S
C991 C990 1.349 . S
C991 C1007 1.349 . S
C992 C990 1.327 . S
C992 C1011 1.429 . S
C992 H1016 0.950 . S
C993 C1010 1.574 . S
C993 C1012 1.368 . S
C993 H1017 0.949 . S
H994 C998 0.949 . S
C995 C996 1.349 . S
C995 C997 1.327 . S
C995 H1018 0.950 . S
C996 C995 1.349 . S
C996 C1008 1.349 . S
C997 C995 1.327 . S
C997 C1013 1.429 . S
C997 H1019 0.950 . S
C998 H994 0.949 . S
C998 C1006 1.574 . S
C998 C1014 1.368 . S
H999 C1007 0.950 . S
H1000 C1005 0.950 . S
H1001 C1006 0.949 . S
H1002 C1008 0.950 . S
H1003 C1009 0.950 . S
H1004 C1010 0.949 . S
C1005 H1000 0.950 . S
C1005 C1007 1.327 . S
C1005 C1011 1.429 . S
C1006 C998 1.574 . S
C1006 H1001 0.949 . S
C1006 C1012 1.368 . S
C1007 C991 1.349 . S
C1007 H999 0.950 . S
C1007 C1005 1.327 . S
C1008 C996 1.349 . S
C1008 H1002 0.950 . S
C1008 C1009 1.327 . S
C1009 H1003 0.950 . S
C1009 C1008 1.327 . S
C1009 C1013 1.429 . S
C1010 C993 1.574 . S
C1010 H1004 0.949 . S
C1010 C1014 1.368 . S
C1011 C992 1.429 . S
C1011 C1005 1.429 . S
C1011 C1012 1.523 1_554 S
C1012 C993 1.368 . S
C1012 C1006 1.368 . S
C1012 C1011 1.523 1_556 S
C1013 C997 1.429 . S
C1013 C1009 1.429 . S
C1013 C1014 1.523 . S
C1014 C998 1.368 . S
C1014 C1010 1.368 . S
C1014 C1013 1.523 . S
H1015 C990 0.950 . S
H1016 C992 0.950 . S
H1017 C993 0.949 . S
H1018 C995 0.950 . S
H1019 C997 0.950 . S
C1020 C1021 1.349 . S
C1020 C1022 1.327 . S
C1020 H1045 0.950 . S
C1021 C1020 1.349 . S
C1021 C1037 1.349 . S
C1022 C1020 1.327 . S
C1022 C1041 1.429 . S
C1022 H1046 0.950 . S
C1023 C1040 1.574 . S
C1023 C1042 1.368 . S
C1023 H1047 0.949 . S
H1024 C1028 0.949 . S
C1025 C1026 1.349 . S
C1025 C1027 1.327 . S
C1025 H1048 0.950 . S
C1026 C1025 1.349 . S
C1026 C1038 1.349 . S
C1027 C1025 1.327 . S
C1027 C1043 1.429 . S
C1027 H1049 0.950 . S
C1028 H1024 0.949 . S
C1028 C1036 1.574 . S
C1028 C1044 1.368 . S
H1029 C1037 0.950 . S
H1030 C1035 0.950 . S
H1031 C1036 0.949 . S
H1032 C1038 0.950 . S
H1033 C1039 0.950 . S
H1034 C1040 0.949 . S
C1035 H1030 0.950 . S
C1035 C1037 1.327 . S
C1035 C1041 1.429 . S
C1036 C1028 1.574 . S
C1036 H1031 0.949 . S
C1036 C1042 1.368 . S
C1037 C1021 1.349 . S
C1037 H1029 0.950 . S
C1037 C1035 1.327 . S
C1038 C1026 1.349 . S
C1038 H1032 0.950 . S
C1038 C1039 1.327 . S
C1039 H1033 0.950 . S
C1039 C1038 1.327 . S
C1039 C1043 1.429 . S
C1040 C1023 1.574 . S
C1040 H1034 0.949 . S
C1040 C1044 1.368 . S
C1041 C1022 1.429 . S
C1041 C1035 1.429 . S
C1041 C1042 1.523 . S
C1042 C1023 1.368 . S
C1042 C1036 1.368 . S
C1042 C1041 1.523 . S
C1043 C1027 1.429 . S
C1043 C1039 1.429 . S
C1043 C1044 1.523 . S
C1044 C1028 1.368 . S
C1044 C1040 1.368 . S
C1044 C1043 1.523 . S
H1045 C1020 0.950 . S
H1046 C1022 0.950 . S
H1047 C1023 0.949 . S
H1048 C1025 0.950 . S
H1049 C1027 0.950 . S
C1050 C1051 1.349 . S
C1050 C1052 1.327 . S
C1050 H1075 0.950 . S
C1051 C1050 1.349 . S
C1051 C1067 1.349 . S
C1052 C1050 1.327 . S
C1052 C1071 1.429 . S
C1052 H1076 0.950 . S
C1053 C1070 1.574 . S
C1053 C1072 1.368 . S
C1053 H1077 0.949 . S
H1054 C1058 0.949 . S
C1055 C1056 1.349 . S
C1055 C1057 1.327 . S
C1055 H1078 0.950 . S
C1056 C1055 1.349 . S
C1056 C1068 1.349 . S
C1057 C1055 1.327 . S
C1057 C1073 1.429 . S
C1057 H1079 0.950 . S
C1058 H1054 0.949 . S
C1058 C1066 1.574 . S
C1058 C1074 1.368 . S
H1059 C1067 0.950 . S
H1060 C1065 0.950 . S
H1061 C1066 0.949 . S
H1062 C1068 0.950 . S
H1063 C1069 0.950 . S
H1064 C1070 0.949 . S
C1065 H1060 0.950 . S
C1065 C1067 1.327 . S
C1065 C1071 1.429 . S
C1066 C1058 1.574 . S
C1066 H1061 0.949 . S
C1066 C1072 1.368 . S
C1067 C1051 1.349 . S
C1067 H1059 0.950 . S
C1067 C1065 1.327 . S
C1068 C1056 1.349 . S
C1068 H1062 0.950 . S
C1068 C1069 1.327 . S
C1069 H1063 0.950 . S
C1069 C1068 1.327 . S
C1069 C1073 1.429 . S
C1070 C1053 1.574 . S
C1070 H1064 0.949 . S
C1070 C1074 1.368 . S
C1071 C1052 1.429 . S
C1071 C1065 1.429 . S
C1071 C1072 1.523 . S
C1072 C1053 1.368 . S
C1072 C1066 1.368 . S
C1072 C1071 1.523 . S
C1073 C1057 1.429 . S
C1073 C1069 1.429 . S
C1073 C1074 1.523 . S
C1074 C1058 1.368 . S
C1074 C1070 1.368 . S
C1074 C1073 1.523 . S
H1075 C1050 0.950 . S
H1076 C1052 0.950 . S
H1077 C1053 0.949 . S
H1078 C1055 0.950 . S
H1079 C1057 0.950 . S
C1080 C1081 1.349 . S
C1080 C1082 1.327 . S
C1080 H1105 0.950 . S
C1081 C1080 1.349 . S
C1081 C1097 1.349 . S
C1082 C1080 1.327 . S
C1082 C1101 1.429 . S
C1082 H1106 0.950 . S
C1083 C1100 1.574 . S
C1083 C1102 1.368 . S
C1083 H1107 0.949 . S
H1084 C1088 0.949 . S
C1085 C1086 1.349 . S
C1085 C1087 1.327 . S
C1085 H1108 0.950 . S
C1086 C1085 1.349 . S
C1086 C1098 1.349 . S
C1087 C1085 1.327 . S
C1087 C1103 1.429 . S
C1087 H1109 0.950 . S
C1088 H1084 0.949 . S
C1088 C1096 1.574 . S
C1088 C1104 1.368 . S
H1089 C1097 0.950 . S
H1090 C1095 0.950 . S
H1091 C1096 0.949 . S
H1092 C1098 0.950 . S
H1093 C1099 0.950 . S
H1094 C1100 0.949 . S
C1095 H1090 0.950 . S
C1095 C1097 1.327 . S
C1095 C1101 1.429 . S
C1096 C1088 1.574 . S
C1096 H1091 0.949 . S
C1096 C1102 1.368 . S
C1097 C1081 1.349 . S
C1097 H1089 0.950 . S
C1097 C1095 1.327 . S
C1098 C1086 1.349 . S
C1098 H1092 0.950 . S
C1098 C1099 1.327 . S
C1099 H1093 0.950 . S
C1099 C1098 1.327 . S
C1099 C1103 1.429 . S
C1100 C1083 1.574 . S
C1100 H1094 0.949 . S
C1100 C1104 1.368 . S
C1101 C1082 1.429 . S
C1101 C1095 1.429 . S
C1101 C1102 1.523 . S
C1102 C1083 1.368 . S
C1102 C1096 1.368 . S
C1102 C1101 1.523 . S
C1103 C1087 1.429 . S
C1103 C1099 1.429 . S
C1103 C1104 1.523 . S
C1104 C1088 1.368 . S
C1104 C1100 1.368 . S
C1104 C1103 1.523 . S
H1105 C1080 0.950 . S
H1106 C1082 0.950 . S
H1107 C1083 0.949 . S
H1108 C1085 0.950 . S
H1109 C1087 0.950 . S
C1110 C1111 1.349 . S
C1110 C1112 1.327 . S
C1110 H1135 0.950 . S
C1111 C1110 1.349 . S
C1111 C1127 1.349 . S
C1112 C1110 1.327 . S
C1112 C1131 1.429 . S
C1112 H1136 0.950 . S
C1113 C1130 1.574 . S
C1113 C1132 1.368 . S
C1113 H1137 0.949 . S
H1114 C1118 0.949 . S
C1115 C1116 1.349 . S
C1115 C1117 1.327 . S
C1115 H1138 0.950 . S
C1116 C1115 1.349 . S
C1116 C1128 1.349 . S
C1117 C1115 1.327 . S
C1117 C1133 1.429 . S
C1117 H1139 0.950 . S
C1118 H1114 0.949 . S
C1118 C1126 1.574 . S
C1118 C1134 1.368 . S
H1119 C1127 0.950 . S
H1120 C1125 0.950 . S
H1121 C1126 0.949 . S
H1122 C1128 0.950 . S
H1123 C1129 0.950 . S
H1124 C1130 0.949 1_565 S
C1125 H1120 0.950 . S
C1125 C1127 1.327 . S
C1125 C1131 1.429 . S
C1126 C1118 1.574 . S
C1126 H1121 0.949 . S
C1126 C1132 1.368 . S
C1127 C1111 1.349 . S
C1127 H1119 0.950 . S
C1127 C1125 1.327 . S
C1128 C1116 1.349 . S
C1128 H1122 0.950 . S
C1128 C1129 1.327 . S
C1129 H1123 0.950 . S
C1129 C1128 1.327 . S
C1129 C1133 1.429 . S
C1130 C1113 1.574 . S
C1130 H1124 0.949 1_545 S
C1130 C1134 1.368 . S
C1131 C1112 1.429 . S
C1131 C1125 1.429 . S
C1131 C1132 1.523 . S
C1132 C1113 1.368 . S
C1132 C1126 1.368 . S
C1132 C1131 1.523 . S
C1133 C1117 1.429 . S
C1133 C1129 1.429 . S
C1133 C1134 1.523 1_565 S
C1134 C1118 1.368 . S
C1134 C1130 1.368 . S
C1134 C1133 1.523 1_545 S
H1135 C1110 0.950 . S
H1136 C1112 0.950 . S
H1137 C1113 0.949 . S
H1138 C1115 0.950 . S
H1139 C1117 0.950 . S
C1140 C1141 1.349 . S
C1140 C1142 1.327 . S
C1140 H1165 0.950 . S
C1141 C1140 1.349 . S
C1141 C1157 1.349 . S
C1142 C1140 1.327 . S
C1142 C1161 1.429 . S
C1142 H1166 0.950 . S
C1143 C1160 1.574 . S
C1143 C1162 1.368 . S
C1143 H1167 0.949 . S
H1144 C1148 0.949 . S
C1145 C1146 1.349 . S
C1145 C1147 1.327 . S
C1145 H1168 0.950 . S
C1146 C1145 1.349 . S
C1146 C1158 1.349 . S
C1147 C1145 1.327 . S
C1147 C1163 1.429 . S
C1147 H1169 0.950 . S
C1148 H1144 0.949 . S
C1148 C1156 1.574 . S
C1148 C1164 1.368 . S
H1149 C1157 0.950 . S
H1150 C1155 0.950 . S
H1151 C1156 0.949 . S
H1152 C1158 0.950 . S
H1153 C1159 0.950 . S
H1154 C1160 0.949 . S
C1155 H1150 0.950 . S
C1155 C1157 1.327 . S
C1155 C1161 1.429 . S
C1156 C1148 1.574 . S
C1156 H1151 0.949 . S
C1156 C1162 1.368 . S
C1157 C1141 1.349 . S
C1157 H1149 0.950 . S
C1157 C1155 1.327 . S
C1158 C1146 1.349 . S
C1158 H1152 0.950 . S
C1158 C1159 1.327 . S
C1159 H1153 0.950 . S
C1159 C1158 1.327 . S
C1159 C1163 1.429 . S
C1160 C1143 1.574 . S
C1160 H1154 0.949 . S
C1160 C1164 1.368 . S
C1161 C1142 1.429 . S
C1161 C1155 1.429 . S
C1161 C1162 1.523 . S
C1162 C1143 1.368 . S
C1162 C1156 1.368 . S
C1162 C1161 1.523 . S
C1163 C1147 1.429 . S
C1163 C1159 1.429 . S
C1163 C1164 1.523 . S
C1164 C1148 1.368 . S
C1164 C1160 1.368 . S
C1164 C1163 1.523 . S
H1165 C1140 0.950 . S
H1166 C1142 0.950 . S
H1167 C1143 0.949 . S
H1168 C1145 0.950 . S
H1169 C1147 0.950 . S
C1170 C1171 1.349 . S
C1170 C1172 1.327 . S
C1170 H1195 0.950 . S
C1171 C1170 1.349 . S
C1171 C1187 1.349 . S
C1172 C1170 1.327 . S
C1172 C1191 1.429 . S
C1172 H1196 0.950 . S
C1173 C1190 1.574 1_545 S
C1173 C1192 1.368 . S
C1173 H1197 0.949 . S
H1174 C1178 0.949 . S
C1175 C1176 1.349 . S
C1175 C1177 1.327 . S
C1175 H1198 0.950 . S
C1176 C1175 1.349 . S
C1176 C1188 1.349 . S
C1177 C1175 1.327 . S
C1177 C1193 1.429 . S
C1177 H1199 0.950 . S
C1178 H1174 0.949 . S
C1178 C1186 1.574 . S
C1178 C1194 1.368 . S
H1179 C1187 0.950 . S
H1180 C1185 0.950 . S
H1181 C1186 0.955 . S
H1182 C1188 0.950 . S
H1183 C1189 0.950 . S
H1184 C1190 0.949 . S
C1185 H1180 0.950 . S
C1185 C1187 1.327 . S
C1185 C1191 1.429 . S
C1186 C1178 1.574 . S
C1186 H1181 0.955 . S
C1186 C1192 1.368 1_565 S
C1187 C1171 1.349 . S
C1187 H1179 0.950 . S
C1187 C1185 1.327 . S
C1188 C1176 1.349 . S
C1188 H1182 0.950 . S
C1188 C1189 1.327 . S
C1189 H1183 0.950 . S
C1189 C1188 1.327 . S
C1189 C1193 1.429 . S
C1190 C1173 1.574 1_565 S
C1190 H1184 0.949 . S
C1190 C1194 1.368 . S
C1191 C1172 1.429 . S
C1191 C1185 1.429 . S
C1191 C1192 1.523 . S
C1192 C1173 1.368 . S
C1192 C1186 1.368 1_545 S
C1192 C1191 1.523 . S
C1193 C1177 1.429 . S
C1193 C1189 1.429 . S
C1193 C1194 1.523 . S
C1194 C1178 1.368 . S
C1194 C1190 1.368 . S
C1194 C1193 1.523 . S
H1195 C1170 0.950 . S
H1196 C1172 0.950 . S
H1197 C1173 0.949 . S
H1198 C1175 0.950 . S
H1199 C1177 0.950 . S
C1200 C1201 1.349 . S
C1200 C1202 1.327 . S
C1200 H1225 0.950 . S
C1201 C1200 1.349 . S
C1201 C1217 1.349 . S
C1202 C1200 1.327 . S
C1202 C1221 1.429 . S
C1202 H1226 0.950 . S
C1203 C1220 1.574 . S
C1203 C1222 1.368 . S
C1203 H1227 0.949 . S
H1204 C1208 0.949 . S
C1205 C1206 1.349 . S
C1205 C1207 1.327 . S
C1205 H1228 0.950 . S
C1206 C1205 1.349 . S
C1206 C1218 1.349 . S
C1207 C1205 1.327 . S
C1207 C1223 1.429 . S
C1207 H1229 0.950 . S
C1208 H1204 0.949 . S
C1208 C1216 1.574 . S
C1208 C1224 1.368 . S
H1209 C1217 0.950 . S
H1210 C1215 0.950 . S
H1211 C1216 0.949 . S
H1212 C1218 0.950 . S
H1213 C1219 0.950 . S
H1214 C1220 0.949 . S
C1215 H1210 0.950 . S
C1215 C1217 1.327 . S
C1215 C1221 1.429 . S
C1216 C1208 1.574 . S
C1216 H1211 0.949 . S
C1216 C1222 1.368 . S
C1217 C1201 1.349 . S
C1217 H1209 0.950 . S
C1217 C1215 1.327 . S
C1218 C1206 1.349 . S
C1218 H1212 0.950 . S
C1218 C1219 1.327 . S
C1219 H1213 0.950 . S
C1219 C1218 1.327 . S
C1219 C1223 1.429 . S
C1220 C1203 1.574 . S
C1220 H1214 0.949 . S
C1220 C1224 1.368 . S
C1221 C1202 1.429 . S
C1221 C1215 1.429 . S
C1221 C1222 1.523 . S
C1222 C1203 1.368 . S
C1222 C1216 1.368 . S
C1222 C1221 1.523 . S
C1223 C1207 1.429 . S
C1223 C1219 1.429 . S
C1223 C1224 1.523 . S
C1224 C1208 1.368 . S
C1224 C1220 1.368 . S
C1224 C1223 1.523 . S
H1225 C1200 0.950 . S
H1226 C1202 0.950 . S
H1227 C1203 0.949 . S
H1228 C1205 0.950 . S
H1229 C1207 0.950 . S
C1230 C1231 1.349 . S
C1230 C1232 1.327 . S
C1230 H1255 0.950 . S
C1231 C1230 1.349 . S
C1231 C1247 1.349 . S
C1232 C1230 1.327 . S
C1232 C1251 1.429 . S
C1232 H1256 0.950 . S
C1233 C1250 1.574 . S
C1233 C1252 1.368 . S
C1233 H1257 0.949 . S
H1234 C1238 0.949 . S
C1235 C1236 1.349 . S
C1235 C1237 1.327 . S
C1235 H1258 0.950 . S
C1236 C1235 1.349 . S
C1236 C1248 1.349 . S
C1237 C1235 1.327 . S
C1237 C1253 1.429 . S
C1237 H1259 0.950 . S
C1238 H1234 0.949 . S
C1238 C1246 1.574 . S
C1238 C1254 1.368 . S
H1239 C1247 0.950 . S
H1240 C1245 0.950 . S
H1241 C1246 0.949 . S
H1242 C1248 0.950 . S
H1243 C1249 0.950 . S
H1244 C1250 0.949 . S
C1245 H1240 0.950 . S
C1245 C1247 1.327 . S
C1245 C1251 1.429 . S
C1246 C1238 1.574 . S
C1246 H1241 0.949 . S
C1246 C1252 1.368 . S
C1247 C1231 1.349 . S
C1247 H1239 0.950 . S
C1247 C1245 1.327 . S
C1248 C1236 1.349 . S
C1248 H1242 0.950 . S
C1248 C1249 1.327 . S
C1249 H1243 0.950 . S
C1249 C1248 1.327 . S
C1249 C1253 1.429 . S
C1250 C1233 1.574 . S
C1250 H1244 0.949 . S
C1250 C1254 1.368 . S
C1251 C1232 1.429 . S
C1251 C1245 1.429 . S
C1251 C1252 1.523 . S
C1252 C1233 1.368 . S
C1252 C1246 1.368 . S
C1252 C1251 1.523 . S
C1253 C1237 1.429 . S
C1253 C1249 1.429 . S
C1253 C1254 1.523 . S
C1254 C1238 1.368 . S
C1254 C1250 1.368 . S
C1254 C1253 1.523 . S
H1255 C1230 0.950 . S
H1256 C1232 0.950 . S
H1257 C1233 0.949 . S
H1258 C1235 0.950 . S
H1259 C1237 0.950 . S
C1260 C1261 1.349 . S
C1260 C1262 1.327 . S
C1260 H1285 0.950 . S
C1261 C1260 1.349 . S
C1261 C1277 1.349 . S
C1262 C1260 1.327 . S
C1262 C1281 1.429 . S
C1262 H1286 0.950 . S
C1263 C1280 1.574 . S
C1263 C1282 1.368 . S
C1263 H1287 0.949 . S
H1264 C1268 0.949 . S
C1265 C1266 1.349 . S
C1265 C1267 1.327 . S
C1265 H1288 0.950 . S
C1266 C1265 1.349 . S
C1266 C1278 1.349 . S
C1267 C1265 1.327 . S
C1267 C1283 1.429 . S
C1267 H1289 0.950 . S
C1268 H1264 0.949 . S
C1268 C1276 1.574 . S
C1268 C1284 1.368 . S
H1269 C1277 0.950 . S
H1270 C1275 0.950 . S
H1271 C1276 0.949 . S
H1272 C1278 0.950 . S
H1273 C1279 0.950 . S
H1274 C1280 0.949 . S
C1275 H1270 0.950 . S
C1275 C1277 1.327 . S
C1275 C1281 1.429 . S
C1276 C1268 1.574 . S
C1276 H1271 0.949 . S
C1276 C1282 1.368 . S
C1277 C1261 1.349 . S
C1277 H1269 0.950 . S
C1277 C1275 1.327 . S
C1278 C1266 1.349 . S
C1278 H1272 0.950 . S
C1278 C1279 1.327 . S
C1279 H1273 0.950 . S
C1279 C1278 1.327 . S
C1279 C1283 1.429 . S
C1280 C1263 1.574 . S
C1280 H1274 0.949 . S
C1280 C1284 1.368 . S
C1281 C1262 1.429 . S
C1281 C1275 1.429 . S
C1281 C1282 1.523 . S
C1282 C1263 1.368 . S
C1282 C1276 1.368 . S
C1282 C1281 1.523 . S
C1283 C1267 1.429 . S
C1283 C1279 1.429 . S
C1283 C1284 1.523 . S
C1284 C1268 1.368 . S
C1284 C1280 1.368 . S
C1284 C1283 1.523 . S
H1285 C1260 0.950 . S
H1286 C1262 0.950 . S
H1287 C1263 0.949 . S
H1288 C1265 0.950 . S
H1289 C1267 0.950 . S
C1290 C1291 1.349 . S
C1290 C1292 1.327 . S
C1290 H1315 0.950 . S
C1291 C1290 1.349 . S
C1291 C1307 1.349 . S
C1292 C1290 1.327 . S
C1292 C1311 1.429 . S
C1292 H1316 0.950 . S
C1293 C1310 1.574 . S
C1293 C1312 1.368 . S
C1293 H1317 0.949 . S
H1294 C1298 0.949 . S
C1295 C1296 1.349 . S
C1295 C1297 1.327 . S
C1295 H1318 0.950 . S
C1296 C1295 1.349 . S
C1296 C1308 1.349 . S
C1297 C1295 1.327 . S
C1297 C1313 1.429 . S
C1297 H1319 0.950 . S
C1298 H1294 0.949 . S
C1298 C1306 1.574 . S
C1298 C1314 1.368 . S
H1299 C1307 0.950 . S
H1300 C1305 0.950 . S
H1301 C1306 0.949 . S
H1302 C1308 0.950 . S
H1303 C1309 0.950 . S
H1304 C1310 0.949 . S
C1305 H1300 0.950 . S
C1305 C1307 1.327 . S
C1305 C1311 1.429 . S
C1306 C1298 1.574 . S
C1306 H1301 0.949 . S
C1306 C1312 1.368 . S
C1307 C1291 1.349 . S
C1307 H1299 0.950 . S
C1307 C1305 1.327 . S
C1308 C1296 1.349 . S
C1308 H1302 0.950 . S
C1308 C1309 1.327 . S
C1309 H1303 0.950 . S
C1309 C1308 1.327 . S
C1309 C1313 1.429 . S
C1310 C1293 1.574 . S
C1310 H1304 0.949 . S
C1310 C1314 1.368 . S
C1311 C1292 1.429 . S
C1311 C1305 1.429 . S
C1311 C1312 1.523 . S
C1312 C1293 1.368 . S
C1312 C1306 1.368 . S
C1312 C1311 1.523 . S
C1313 C1297 1.429 . S
C1313 C1309 1.429 . S
C1313 C1314 1.523 . S
C1314 C1298 1.368 . S
C1314 C1310 1.368 . S
C1314 C1313 1.523 . S
H1315 C1290 0.950 . S
H1316 C1292 0.950 . S
H1317 C1293 0.949 . S
H1318 C1295 0.950 . S
H1319 C1297 0.950 . S
C1320 C1321 1.349 . S
C1320 C1322 1.327 . S
C1320 H1345 0.950 . S
C1321 C1320 1.349 . S
C1321 C1337 1.349 . S
C1322 C1320 1.327 . S
C1322 C1341 1.429 . S
C1322 H1346 0.950 . S
C1323 C1340 1.574 . S
C1323 C1342 1.368 . S
C1323 H1347 0.949 . S
H1324 C1328 0.949 . S
C1325 C1326 1.349 . S
C1325 C1327 1.327 . S
C1325 H1348 0.950 . S
C1326 C1325 1.349 . S
C1326 C1338 1.349 . S
C1327 C1325 1.327 . S
C1327 C1343 1.429 . S
C1327 H1349 0.950 . S
C1328 H1324 0.949 . S
C1328 C1336 1.574 . S
C1328 C1344 1.368 . S
H1329 C1337 0.950 . S
H1330 C1335 0.950 . S
H1331 C1336 0.949 . S
H1332 C1338 0.950 . S
H1333 C1339 0.950 . S
H1334 C1340 0.949 . S
C1335 H1330 0.950 . S
C1335 C1337 1.327 . S
C1335 C1341 1.429 . S
C1336 C1328 1.574 . S
C1336 H1331 0.949 . S
C1336 C1342 1.368 . S
C1337 C1321 1.349 . S
C1337 H1329 0.950 . S
C1337 C1335 1.327 . S
C1338 C1326 1.349 . S
C1338 H1332 0.950 . S
C1338 C1339 1.327 . S
C1339 H1333 0.950 . S
C1339 C1338 1.327 . S
C1339 C1343 1.429 . S
C1340 C1323 1.574 . S
C1340 H1334 0.949 . S
C1340 C1344 1.368 . S
C1341 C1322 1.429 . S
C1341 C1335 1.429 . S
C1341 C1342 1.523 . S
C1342 C1323 1.368 . S
C1342 C1336 1.368 . S
C1342 C1341 1.523 . S
C1343 C1327 1.429 . S
C1343 C1339 1.429 . S
C1343 C1344 1.523 . S
C1344 C1328 1.368 . S
C1344 C1340 1.368 . S
C1344 C1343 1.523 . S
H1345 C1320 0.950 . S
H1346 C1322 0.950 . S
H1347 C1323 0.949 . S
H1348 C1325 0.950 . S
H1349 C1327 0.950 . S
C1350 C1351 1.349 . S
C1350 C1352 1.327 . S
C1350 H1375 0.950 . S
C1351 C1350 1.349 . S
C1351 C1367 1.349 . S
C1352 C1350 1.327 . S
C1352 C1371 1.429 . S
C1352 H1376 0.950 . S
C1353 C1370 1.574 . S
C1353 C1372 1.368 . S
C1353 H1377 0.949 . S
H1354 C1358 0.949 . S
C1355 C1356 1.349 . S
C1355 C1357 1.327 . S
C1355 H1378 0.950 . S
C1356 C1355 1.349 . S
C1356 C1368 1.349 . S
C1357 C1355 1.327 . S
C1357 C1373 1.429 . S
C1357 H1379 0.950 . S
C1358 H1354 0.949 . S
C1358 C1366 1.574 . S
C1358 C1374 1.368 . S
H1359 C1367 0.950 . S
H1360 C1365 0.950 . S
H1361 C1366 0.949 . S
H1362 C1368 0.950 . S
H1363 C1369 0.950 . S
H1364 C1370 0.949 . S
C1365 H1360 0.950 . S
C1365 C1367 1.327 . S
C1365 C1371 1.429 . S
C1366 C1358 1.574 . S
C1366 H1361 0.949 . S
C1366 C1372 1.368 . S
C1367 C1351 1.349 . S
C1367 H1359 0.950 . S
C1367 C1365 1.327 . S
C1368 C1356 1.349 . S
C1368 H1362 0.950 . S
C1368 C1369 1.327 . S
C1369 H1363 0.950 . S
C1369 C1368 1.327 . S
C1369 C1373 1.429 . S
C1370 C1353 1.574 . S
C1370 H1364 0.949 . S
C1370 C1374 1.368 . S
C1371 C1352 1.429 . S
C1371 C1365 1.429 . S
C1371 C1372 1.523 . S
C1372 C1353 1.368 . S
C1372 C1366 1.368 . S
C1372 C1371 1.523 . S
C1373 C1357 1.429 . S
C1373 C1369 1.429 . S
C1373 C1374 1.523 . S
C1374 C1358 1.368 . S
C1374 C1370 1.368 . S
C1374 C1373 1.523 . S
H1375 C1350 0.950 . S
H1376 C1352 0.950 . S
H1377 C1353 0.949 . S
H1378 C1355 0.950 . S
H1379 C1357 0.950 . S
C1380 C1381 1.349 . S
C1380 C1382 1.327 . S
C1380 H1405 0.950 . S
C1381 C1380 1.349 . S
C1381 C1397 1.349 . S
C1382 C1380 1.327 . S
C1382 C1401 1.429 . S
C1382 H1406 0.950 . S
C1383 C1400 1.574 . S
C1383 C1402 1.368 . S
C1383 H1407 0.949 . S
H1384 C1388 0.943 1_655 S
C1385 C1386 1.349 . S
C1385 C1387 1.327 . S
C1385 H1408 0.950 . S
C1386 C1385 1.349 . S
C1386 C1398 1.349 . S
C1387 C1385 1.327 . S
C1387 C1403 1.429 . S
C1387 H1409 0.950 . S
C1388 H1384 0.943 1_455 S
C1388 C1396 1.580 . S
C1388 C1404 1.368 1_455 S
H1389 C1397 0.950 . S
H1390 C1395 0.950 . S
H1391 C1396 0.949 . S
H1392 C1398 0.950 . S
H1393 C1399 0.950 . S
H1394 C1400 0.949 . S
C1395 H1390 0.950 . S
C1395 C1397 1.327 . S
C1395 C1401 1.429 . S
C1396 C1388 1.580 . S
C1396 H1391 0.949 . S
C1396 C1402 1.368 . S
C1397 C1381 1.349 . S
C1397 H1389 0.950 . S
C1397 C1395 1.327 . S
C1398 C1386 1.349 . S
C1398 H1392 0.950 . S
C1398 C1399 1.327 . S
C1399 H1393 0.950 . S
C1399 C1398 1.327 . S
C1399 C1403 1.429 . S
C1400 C1383 1.574 . S
C1400 H1394 0.949 . S
C1400 C1404 1.368 1_455 S
C1401 C1382 1.429 . S
C1401 C1395 1.429 . S
C1401 C1402 1.523 . S
C1402 C1383 1.368 . S
C1402 C1396 1.368 . S
C1402 C1401 1.523 . S
C1403 C1387 1.429 . S
C1403 C1399 1.429 . S
C1403 C1404 1.523 . S
C1404 C1388 1.368 1_655 S
C1404 C1400 1.368 1_655 S
C1404 C1403 1.523 . S
H1405 C1380 0.950 . S
H1406 C1382 0.950 . S
H1407 C1383 0.949 . S
H1408 C1385 0.950 . S
H1409 C1387 0.950 . S
C1410 C1411 1.349 . S
C1410 C1412 1.327 . S
C1410 H1435 0.950 . S
C1411 C1410 1.349 . S
C1411 C1427 1.349 . S
C1412 C1410 1.327 . S
C1412 C1431 1.429 . S
C1412 H1436 0.950 . S
C1413 C1430 1.574 . S
C1413 C1432 1.368 . S
C1413 H1437 0.949 . S
H1414 C1418 0.949 . S
C1415 C1416 1.349 . S
C1415 C1417 1.327 . S
C1415 H1438 0.950 . S
C1416 C1415 1.349 . S
C1416 C1428 1.349 . S
C1417 C1415 1.327 . S
C1417 C1433 1.429 . S
C1417 H1439 0.950 . S
C1418 H1414 0.949 . S
C1418 C1426 1.574 . S
C1418 C1434 1.368 . S
H1419 C1427 0.950 . S
H1420 C1425 0.950 . S
H1421 C1426 0.949 . S
H1422 C1428 0.950 . S
H1423 C1429 0.950 . S
H1424 C1430 0.949 . S
C1425 H1420 0.950 . S
C1425 C1427 1.327 . S
C1425 C1431 1.429 . S
C1426 C1418 1.574 . S
C1426 H1421 0.949 . S
C1426 C1432 1.368 . S
C1427 C1411 1.349 . S
C1427 H1419 0.950 . S
C1427 C1425 1.327 . S
C1428 C1416 1.349 . S
C1428 H1422 0.950 . S
C1428 C1429 1.327 . S
C1429 H1423 0.950 . S
C1429 C1428 1.327 . S
C1429 C1433 1.429 . S
C1430 C1413 1.574 . S
C1430 H1424 0.949 . S
C1430 C1434 1.368 . S
C1431 C1412 1.429 . S
C1431 C1425 1.429 . S
C1431 C1432 1.523 . S
C1432 C1413 1.368 . S
C1432 C1426 1.368 . S
C1432 C1431 1.523 . S
C1433 C1417 1.429 . S
C1433 C1429 1.429 . S
C1433 C1434 1.523 . S
C1434 C1418 1.368 . S
C1434 C1430 1.368 . S
C1434 C1433 1.523 . S
H1435 C1410 0.950 . S
H1436 C1412 0.950 . S
H1437 C1413 0.949 . S
H1438 C1415 0.950 . S
H1439 C1417 0.950 . S
C1440 C1441 1.349 . S
C1440 C1442 1.327 . S
C1440 H1465 0.950 . S
C1441 C1440 1.349 . S
C1441 C1457 1.349 . S
C1442 C1440 1.327 . S
C1442 C1461 1.429 . S
C1442 H1466 0.950 . S
C1443 C1460 1.574 . S
C1443 C1462 1.368 . S
C1443 H1467 0.949 . S
H1444 C1448 0.949 . S
C1445 C1446 1.349 . S
C1445 C1447 1.327 . S
C1445 H1468 0.950 . S
C1446 C1445 1.349 . S
C1446 C1458 1.349 . S
C1447 C1445 1.327 . S
C1447 C1463 1.429 . S
C1447 H1469 0.950 . S
C1448 H1444 0.949 . S
C1448 C1456 1.574 . S
C1448 C1464 1.368 . S
H1449 C1457 0.950 . S
H1450 C1455 0.950 . S
H1451 C1456 0.949 . S
H1452 C1458 0.950 . S
H1453 C1459 0.950 . S
H1454 C1460 0.949 . S
C1455 H1450 0.950 . S
C1455 C1457 1.327 . S
C1455 C1461 1.429 . S
C1456 C1448 1.574 . S
C1456 H1451 0.949 . S
C1456 C1462 1.368 . S
C1457 C1441 1.349 . S
C1457 H1449 0.950 . S
C1457 C1455 1.327 . S
C1458 C1446 1.349 . S
C1458 H1452 0.950 . S
C1458 C1459 1.327 . S
C1459 H1453 0.950 . S
C1459 C1458 1.327 . S
C1459 C1463 1.429 . S
C1460 C1443 1.574 . S
C1460 H1454 0.949 . S
C1460 C1464 1.368 . S
C1461 C1442 1.429 . S
C1461 C1455 1.429 . S
C1461 C1462 1.523 . S
C1462 C1443 1.368 . S
C1462 C1456 1.368 . S
C1462 C1461 1.523 . S
C1463 C1447 1.429 . S
C1463 C1459 1.429 . S
C1463 C1464 1.523 . S
C1464 C1448 1.368 . S
C1464 C1460 1.368 . S
C1464 C1463 1.523 . S
H1465 C1440 0.950 . S
H1466 C1442 0.950 . S
H1467 C1443 0.949 . S
H1468 C1445 0.950 . S
H1469 C1447 0.950 . S
C1470 C1471 1.349 . S
C1470 C1472 1.327 . S
C1470 H1495 0.950 . S
C1471 C1470 1.349 . S
C1471 C1487 1.349 . S
C1472 C1470 1.327 . S
C1472 C1491 1.429 . S
C1472 H1496 0.950 . S
C1473 C1490 1.574 . S
C1473 C1492 1.368 . S
C1473 H1497 0.949 . S
H1474 C1478 0.949 . S
C1475 C1476 1.349 . S
C1475 C1477 1.327 . S
C1475 H1498 0.950 . S
C1476 C1475 1.349 . S
C1476 C1488 1.349 . S
C1477 C1475 1.327 . S
C1477 C1493 1.429 . S
C1477 H1499 0.950 . S
C1478 H1474 0.949 . S
C1478 C1486 1.574 . S
C1478 C1494 1.368 . S
H1479 C1487 0.950 . S
H1480 C1485 0.950 . S
H1481 C1486 0.949 . S
H1482 C1488 0.950 . S
H1483 C1489 0.950 . S
H1484 C1490 0.949 . S
C1485 H1480 0.950 . S
C1485 C1487 1.327 . S
C1485 C1491 1.429 . S
C1486 C1478 1.574 . S
C1486 H1481 0.949 . S
C1486 C1492 1.368 . S
C1487 C1471 1.349 . S
C1487 H1479 0.950 . S
C1487 C1485 1.327 . S
C1488 C1476 1.349 . S
C1488 H1482 0.950 . S
C1488 C1489 1.327 . S
C1489 H1483 0.950 . S
C1489 C1488 1.327 . S
C1489 C1493 1.429 . S
C1490 C1473 1.574 . S
C1490 H1484 0.949 . S
C1490 C1494 1.368 . S
C1491 C1472 1.429 . S
C1491 C1485 1.429 . S
C1491 C1492 1.523 . S
C1492 C1473 1.368 . S
C1492 C1486 1.368 . S
C1492 C1491 1.523 . S
C1493 C1477 1.429 . S
C1493 C1489 1.429 . S
C1493 C1494 1.523 . S
C1494 C1478 1.368 . S
C1494 C1490 1.368 . S
C1494 C1493 1.523 . S
H1495 C1470 0.950 . S
H1496 C1472 0.950 . S
H1497 C1473 0.949 . S
H1498 C1475 0.950 . S
H1499 C1477 0.950 . S
C1500 C1501 1.349 . S
C1500 C1502 1.327 . S
C1500 H1525 0.950 . S
C1501 C1500 1.349 . S
C1501 C1517 1.349 . S
C1502 C1500 1.327 . S
C1502 C1521 1.429 . S
C1502 H1526 0.950 . S
C1503 C1520 1.574 . S
C1503 C1522 1.368 . S
C1503 H1527 0.949 . S
H1504 C1508 0.949 . S
C1505 C1506 1.349 . S
C1505 C1507 1.327 . S
C1505 H1528 0.950 . S
C1506 C1505 1.349 . S
C1506 C1518 1.349 . S
C1507 C1505 1.327 . S
C1507 C1523 1.429 . S
C1507 H1529 0.950 . S
C1508 H1504 0.949 . S
C1508 C1516 1.574 . S
C1508 C1524 1.368 . S
H1509 C1517 0.950 . S
H1510 C1515 0.950 . S
H1511 C1516 0.949 . S
H1512 C1518 0.950 . S
H1513 C1519 0.950 . S
H1514 C1520 0.949 . S
C1515 H1510 0.950 . S
C1515 C1517 1.327 . S
C1515 C1521 1.429 . S
C1516 C1508 1.574 . S
C1516 H1511 0.949 . S
C1516 C1522 1.368 . S
C1517 C1501 1.349 . S
C1517 H1509 0.950 . S
C1517 C1515 1.327 . S
C1518 C1506 1.349 . S
C1518 H1512 0.950 . S
C1518 C1519 1.327 . S
C1519 H1513 0.950 . S
C1519 C1518 1.327 . S
C1519 C1523 1.429 . S
C1520 C1503 1.574 . S
C1520 H1514 0.949 . S
C1520 C1524 1.368 . S
C1521 C1502 1.429 . S
C1521 C1515 1.429 . S
C1521 C1522 1.523 . S
C1522 C1503 1.368 . S
C1522 C1516 1.368 . S
C1522 C1521 1.523 . S
C1523 C1507 1.429 . S
C1523 C1519 1.429 . S
C1523 C1524 1.523 . S
C1524 C1508 1.368 . S
C1524 C1520 1.368 . S
C1524 C1523 1.523 . S
H1525 C1500 0.950 . S
H1526 C1502 0.950 . S
H1527 C1503 0.949 . S
H1528 C1505 0.950 . S
H1529 C1507 0.950 . S
C1530 C1531 1.349 . S
C1530 C1532 1.327 . S
C1530 H1555 0.950 . S
C1531 C1530 1.349 . S
C1531 C1547 1.349 . S
C1532 C1530 1.327 . S
C1532 C1551 1.429 . S
C1532 H1556 0.950 . S
C1533 C1550 1.574 . S
C1533 C1552 1.368 . S
C1533 H1557 0.949 . S
H1534 C1538 0.949 1_455 S
C1535 C1536 1.349 . S
C1535 C1537 1.327 . S
C1535 H1558 0.950 . S
C1536 C1535 1.349 . S
C1536 C1548 1.349 . S
C1537 C1535 1.327 . S
C1537 C1553 1.429 . S
C1537 H1559 0.950 . S
C1538 H1534 0.949 1_655 S
C1538 C1546 1.574 . S
C1538 C1554 1.370 . S
H1539 C1547 0.950 . S
H1540 C1545 0.950 . S
H1541 C1546 0.949 . S
H1542 C1548 0.950 . S
H1543 C1549 0.950 . S
H1544 C1550 0.949 . S
C1545 H1540 0.950 . S
C1545 C1547 1.327 . S
C1545 C1551 1.429 . S
C1546 C1538 1.574 . S
C1546 H1541 0.949 . S
C1546 C1552 1.368 . S
C1547 C1531 1.349 . S
C1547 H1539 0.950 . S
C1547 C1545 1.327 . S
C1548 C1536 1.349 . S
C1548 H1542 0.950 . S
C1548 C1549 1.327 . S
C1549 H1543 0.950 . S
C1549 C1548 1.327 . S
C1549 C1553 1.429 . S
C1550 C1533 1.574 . S
C1550 H1544 0.949 . S
C1550 C1554 1.372 . S
C1551 C1532 1.429 . S
C1551 C1545 1.429 . S
C1551 C1552 1.523 . S
C1552 C1533 1.368 . S
C1552 C1546 1.368 . S
C1552 C1551 1.523 . S
C1553 C1537 1.429 . S
C1553 C1549 1.429 . S
C1553 C1554 1.516 1_455 S
C1554 C1538 1.370 . S
C1554 C1550 1.372 . S
C1554 C1553 1.516 1_655 S
H1555 C1530 0.950 . S
H1556 C1532 0.950 . S
H1557 C1533 0.949 . S
H1558 C1535 0.950 . S
H1559 C1537 0.950 . S
C481 C18 0.849 . S
C486 C458 0.849 . S
C511 C379 1.584 . S
C516 C58 1.654 . S
C541 C99 1.124 . S
C546 C338 1.167 . S
C571 C138 1.949 . S
C576 C418 1.943 . S
C601 C178 1.617 . S
C606 C419 1.570 . S
C631 C219 1.376 . S
C636 C459 1.395 . S
C661 C378 1.713 . S
C666 C258 1.712 . S
C691 C299 1.648 . S
C696 C339 1.700 . S
C721 C139 1.705 . S
C726 C179 1.740 . S
C751 C19 1.428 . S
C756 C218 1.492 . S
C781 C59 1.573 . S
C786 C259 1.577 . S
C811 C298 1.808 . S
C816 C98 1.815 . S
C841 C6 1.524 . S
C846 C329 1.429 . S
C871 C46 1.845 . S
C876 C409 1.764 . S
C901 C449 1.800 . S
C906 C95 1.826 . S
C931 C126 1.503 . S
C936 C370 1.479 . S
C961 C166 1.142 . S
C966 C369 1.105 . S
C991 C330 1.774 . S
C996 C215 1.714 . S
C1021 C410 1.303 . S
C1026 C246 1.309 . S
C1051 C450 2.722 . S
C1056 C295 2.646 . S
C1081 C10 2.781 . S
C1086 C135 2.700 . S
C1111 C15 1.904 . S
C1116 C50 1.951 . S
C1141 C55 2.198 . S
C1146 C89 2.172 . S
C1171 C130 1.698 . S
C1176 C86 1.728 . S
C1201 C206 1.428 . S
C1206 C170 1.413 . S
C1231 C209 1.095 . S
C1236 C255 1.124 . S
C1261 C250 1.439 . S
C1266 C286 1.457 . S
C1291 C175 0.593 . S
C1296 C289 0.612 . S
C1321 C335 0.498 . S
C1326 C129 0.545 . S
C1351 C210 1.493 . S
C1356 C375 1.461 . S
C1381 C326 1.296 . S
C1386 C249 1.244 . S
C1411 C406 1.876 . S
C1416 C290 1.858 . S
C1441 C169 1.155 . S
C1446 C446 1.213 . S
C1471 C455 1.544 . S
C1476 C49 1.504 . S
C1501 C90 1.489 . S
C1506 C366 1.508 . S
C1531 C415 1.624 . S
C1536 C9 1.597 . S
