# Generated by pormake.
# Topology dei, (4)-cn, num edge types: 1
# Building blocks:
#     Node 0, Type 0, BuildingBlock: ICAMEG_clean_sbu_1, # of connection points: 4
#     Node 1, Type 0, BuildingBlock: ICAMEG_clean_sbu_1, # of connection points: 4
#     Node 2, Type 0, BuildingBlock: ICAMEG_clean_sbu_1, # of connection points: 4
#     Node 3, Type 0, BuildingBlock: ICAMEG_clean_sbu_1, # of connection points: 4
#     Node 4, Type 0, BuildingBlock: ICAMEG_clean_sbu_1, # of connection points: 4
#     Node 5, Type 0, BuildingBlock: ICAMEG_clean_sbu_1, # of connection points: 4
#     Node 6, Type 0, BuildingBlock: ICAMEG_clean_sbu_1, # of connection points: 4
#     Node 7, Type 0, BuildingBlock: ICAMEG_clean_sbu_1, # of connection points: 4
#     Node 8, Type 0, BuildingBlock: ICAMEG_clean_sbu_1, # of connection points: 4
#     Node 9, Type 0, BuildingBlock: ICAMEG_clean_sbu_1, # of connection points: 4
#     Node 10, Type 0, BuildingBlock: ICAMEG_clean_sbu_1, # of connection points: 4
#     Node 11, Type 0, BuildingBlock: ICAMEG_clean_sbu_1, # of connection points: 4
#     Node 12, Type 0, BuildingBlock: ICAMEG_clean_sbu_1, # of connection points: 4
#     Node 13, Type 0, BuildingBlock: ICAMEG_clean_sbu_1, # of connection points: 4
#     Node 14, Type 0, BuildingBlock: ICAMEG_clean_sbu_1, # of connection points: 4
#     Node 15, Type 0, BuildingBlock: ICAMEG_clean_sbu_1, # of connection points: 4
#     Node 16, Type 0, BuildingBlock: ICAMEG_clean_sbu_1, # of connection points: 4
#     Node 17, Type 0, BuildingBlock: ICAMEG_clean_sbu_1, # of connection points: 4
#     Node 18, Type 0, BuildingBlock: ICAMEG_clean_sbu_1, # of connection points: 4
#     Node 19, Type 0, BuildingBlock: ICAMEG_clean_sbu_1, # of connection points: 4
#     Node 20, Type 0, BuildingBlock: ICAMEG_clean_sbu_1, # of connection points: 4
#     Node 21, Type 0, BuildingBlock: ICAMEG_clean_sbu_1, # of connection points: 4
#     Node 22, Type 0, BuildingBlock: ICAMEG_clean_sbu_1, # of connection points: 4
#     Node 23, Type 0, BuildingBlock: ICAMEG_clean_sbu_1, # of connection points: 4
#     Node 24, Type 0, BuildingBlock: ICAMEG_clean_sbu_1, # of connection points: 4
#     Node 25, Type 0, BuildingBlock: ICAMEG_clean_sbu_1, # of connection points: 4
#     Node 26, Type 0, BuildingBlock: ICAMEG_clean_sbu_1, # of connection points: 4
#     Node 27, Type 0, BuildingBlock: ICAMEG_clean_sbu_1, # of connection points: 4
#     Node 28, Type 0, BuildingBlock: ICAMEG_clean_sbu_1, # of connection points: 4
#     Node 29, Type 0, BuildingBlock: ICAMEG_clean_sbu_1, # of connection points: 4
#     Node 30, Type 0, BuildingBlock: ICAMEG_clean_sbu_1, # of connection points: 4
#     Node 31, Type 0, BuildingBlock: ICAMEG_clean_sbu_1, # of connection points: 4
#     Edge 32, Type (0, 0), BuildingBlock: AJUNOK_clean_linker_0, # of connection points: 2
#     Edge 33, Type (0, 0), BuildingBlock: AJUNOK_clean_linker_0, # of connection points: 2
#     Edge 34, Type (0, 0), BuildingBlock: AJUNOK_clean_linker_0, # of connection points: 2
#     Edge 35, Type (0, 0), BuildingBlock: AJUNOK_clean_linker_0, # of connection points: 2
#     Edge 36, Type (0, 0), BuildingBlock: AJUNOK_clean_linker_0, # of connection points: 2
#     Edge 37, Type (0, 0), BuildingBlock: AJUNOK_clean_linker_0, # of connection points: 2
#     Edge 38, Type (0, 0), BuildingBlock: AJUNOK_clean_linker_0, # of connection points: 2
#     Edge 39, Type (0, 0), BuildingBlock: AJUNOK_clean_linker_0, # of connection points: 2
#     Edge 40, Type (0, 0), BuildingBlock: AJUNOK_clean_linker_0, # of connection points: 2
#     Edge 41, Type (0, 0), BuildingBlock: AJUNOK_clean_linker_0, # of connection points: 2
#     Edge 42, Type (0, 0), BuildingBlock: AJUNOK_clean_linker_0, # of connection points: 2
#     Edge 43, Type (0, 0), BuildingBlock: AJUNOK_clean_linker_0, # of connection points: 2
#     Edge 44, Type (0, 0), BuildingBlock: AJUNOK_clean_linker_0, # of connection points: 2
#     Edge 45, Type (0, 0), BuildingBlock: AJUNOK_clean_linker_0, # of connection points: 2
#     Edge 46, Type (0, 0), BuildingBlock: AJUNOK_clean_linker_0, # of connection points: 2
#     Edge 47, Type (0, 0), BuildingBlock: AJUNOK_clean_linker_0, # of connection points: 2
#     Edge 48, Type (0, 0), BuildingBlock: AJUNOK_clean_linker_0, # of connection points: 2
#     Edge 49, Type (0, 0), BuildingBlock: AJUNOK_clean_linker_0, # of connection points: 2
#     Edge 50, Type (0, 0), BuildingBlock: AJUNOK_clean_linker_0, # of connection points: 2
#     Edge 51, Type (0, 0), BuildingBlock: AJUNOK_clean_linker_0, # of connection points: 2
#     Edge 52, Type (0, 0), BuildingBlock: AJUNOK_clean_linker_0, # of connection points: 2
#     Edge 53, Type (0, 0), BuildingBlock: AJUNOK_clean_linker_0, # of connection points: 2
#     Edge 54, Type (0, 0), BuildingBlock: AJUNOK_clean_linker_0, # of connection points: 2
#     Edge 55, Type (0, 0), BuildingBlock: AJUNOK_clean_linker_0, # of connection points: 2
#     Edge 56, Type (0, 0), BuildingBlock: AJUNOK_clean_linker_0, # of connection points: 2
#     Edge 57, Type (0, 0), BuildingBlock: AJUNOK_clean_linker_0, # of connection points: 2
#     Edge 58, Type (0, 0), BuildingBlock: AJUNOK_clean_linker_0, # of connection points: 2
#     Edge 59, Type (0, 0), BuildingBlock: AJUNOK_clean_linker_0, # of connection points: 2
#     Edge 60, Type (0, 0), BuildingBlock: AJUNOK_clean_linker_0, # of connection points: 2
#     Edge 61, Type (0, 0), BuildingBlock: AJUNOK_clean_linker_0, # of connection points: 2
#     Edge 62, Type (0, 0), BuildingBlock: AJUNOK_clean_linker_0, # of connection points: 2
#     Edge 63, Type (0, 0), BuildingBlock: AJUNOK_clean_linker_0, # of connection points: 2
#     Edge 64, Type (0, 0), BuildingBlock: AJUNOK_clean_linker_0, # of connection points: 2
#     Edge 65, Type (0, 0), BuildingBlock: AJUNOK_clean_linker_0, # of connection points: 2
#     Edge 66, Type (0, 0), BuildingBlock: AJUNOK_clean_linker_0, # of connection points: 2
#     Edge 67, Type (0, 0), BuildingBlock: AJUNOK_clean_linker_0, # of connection points: 2
#     Edge 68, Type (0, 0), BuildingBlock: AJUNOK_clean_linker_0, # of connection points: 2
#     Edge 69, Type (0, 0), BuildingBlock: AJUNOK_clean_linker_0, # of connection points: 2
#     Edge 70, Type (0, 0), BuildingBlock: AJUNOK_clean_linker_0, # of connection points: 2
#     Edge 71, Type (0, 0), BuildingBlock: AJUNOK_clean_linker_0, # of connection points: 2
#     Edge 72, Type (0, 0), BuildingBlock: AJUNOK_clean_linker_0, # of connection points: 2
#     Edge 73, Type (0, 0), BuildingBlock: AJUNOK_clean_linker_0, # of connection points: 2
#     Edge 74, Type (0, 0), BuildingBlock: AJUNOK_clean_linker_0, # of connection points: 2
#     Edge 75, Type (0, 0), BuildingBlock: AJUNOK_clean_linker_0, # of connection points: 2
#     Edge 76, Type (0, 0), BuildingBlock: AJUNOK_clean_linker_0, # of connection points: 2
#     Edge 77, Type (0, 0), BuildingBlock: AJUNOK_clean_linker_0, # of connection points: 2
#     Edge 78, Type (0, 0), BuildingBlock: AJUNOK_clean_linker_0, # of connection points: 2
#     Edge 79, Type (0, 0), BuildingBlock: AJUNOK_clean_linker_0, # of connection points: 2
#     Edge 80, Type (0, 0), BuildingBlock: AJUNOK_clean_linker_0, # of connection points: 2
#     Edge 81, Type (0, 0), BuildingBlock: AJUNOK_clean_linker_0, # of connection points: 2
#     Edge 82, Type (0, 0), BuildingBlock: AJUNOK_clean_linker_0, # of connection points: 2
#     Edge 83, Type (0, 0), BuildingBlock: AJUNOK_clean_linker_0, # of connection points: 2
#     Edge 84, Type (0, 0), BuildingBlock: AJUNOK_clean_linker_0, # of connection points: 2
#     Edge 85, Type (0, 0), BuildingBlock: AJUNOK_clean_linker_0, # of connection points: 2
#     Edge 86, Type (0, 0), BuildingBlock: AJUNOK_clean_linker_0, # of connection points: 2
#     Edge 87, Type (0, 0), BuildingBlock: AJUNOK_clean_linker_0, # of connection points: 2
#     Edge 88, Type (0, 0), BuildingBlock: AJUNOK_clean_linker_0, # of connection points: 2
#     Edge 89, Type (0, 0), BuildingBlock: AJUNOK_clean_linker_0, # of connection points: 2
#     Edge 90, Type (0, 0), BuildingBlock: AJUNOK_clean_linker_0, # of connection points: 2
#     Edge 91, Type (0, 0), BuildingBlock: AJUNOK_clean_linker_0, # of connection points: 2
#     Edge 92, Type (0, 0), BuildingBlock: AJUNOK_clean_linker_0, # of connection points: 2
#     Edge 93, Type (0, 0), BuildingBlock: AJUNOK_clean_linker_0, # of connection points: 2
#     Edge 94, Type (0, 0), BuildingBlock: AJUNOK_clean_linker_0, # of connection points: 2
#     Edge 95, Type (0, 0), BuildingBlock: AJUNOK_clean_linker_0, # of connection points: 2
# Relax obj value: 0.298
# Max RMSD: 0.137
# Mean RMSD: 0.136
data_MOF--net-dei--node1-ICAMEG_clean_sbu_1--edge1-AJUNOK_clean_linker_0
_symmetry_space_group_name_H-M    P1
_symmetry_Int_Tables_number       1
_symmetry_cell_setting            triclinic
loop_
_symmetry_equiv_pos_as_xyz
'x, y, z'
_cell_length_a     45.908257
_cell_length_b     45.905573
_cell_length_c     63.743589
_cell_angle_alpha  89.956567
_cell_angle_beta   90.028323
_cell_angle_gamma 89.96216
loop_
_atom_site_label
_atom_site_type_symbol
_atom_site_fract_x
_atom_site_fract_y
_atom_site_fract_z
_atom_type_partial_charge
Co0 Co 0.10232 0.65356 0.04268 0.0
Co1 Co 0.13837 0.63459 -0.0013 0.0
O2 O 0.12919 0.6275 0.0281 0.0
C3 C 0.14111 0.62717 0.07646 0.0
O4 O 0.16242 0.62088 0.06354 0.0
C5 C 0.13795 0.56866 0.00608 0.0
O6 O 0.13646 0.57342 0.02626 0.0
O7 O 0.09581 0.63363 0.99221 0.0
O8 O 0.08351 0.66656 0.01588 0.0
H9 H 0.12468 0.68526 0.92957 0.0
H10 H 0.10503 0.59085 0.05371 0.0
O11 O 0.11877 0.64125 0.07042 0.0
H12 H 1.00415 0.6084 0.03137 0.0
H13 H 0.04451 0.68812 0.10493 0.0
H14 H 0.08197 0.71393 0.03492 0.0
H15 H 0.0376 0.64952 0.03731 0.0
H16 H 0.0689 0.6512 0.08305 0.0
O17 O 0.13924 0.59016 0.99308 0.0
H18 H 0.11557 0.67603 0.96713 0.0
H19 H 0.17737 0.60722 0.96693 0.0
H20 H 0.05717 0.75103 0.05587 0.0
H21 H 0.07171 0.54921 0.04977 0.0
H22 H 0.03903 0.73874 0.09159 0.0
H23 H 0.02092 0.55784 0.03778 0.0
O24 O 0.13165 0.6848 0.03888 0.0
H25 H 0.23293 0.60133 0.03227 0.0
H26 H 0.18632 0.67397 0.98629 0.0
H27 H 0.23887 0.67726 0.99325 0.0
H28 H 0.26268 0.64063 0.01626 0.0
H29 H 0.18066 0.59913 0.02521 0.0
H30 H 0.18692 0.61539 0.92926 0.0
H31 H 0.16058 0.65477 0.91038 0.0
O32 O 0.13739 0.6792 0.00405 0.0
C33 C 0.0775 0.65158 -0.00029 0.0
C34 C 0.13638 0.66811 0.93763 0.0
C35 C 0.17128 0.62886 0.93746 0.0
N36 N 0.14615 0.64134 0.96921 0.0
C37 C 0.13138 0.66287 0.95891 0.0
C38 C 0.16572 0.62427 0.95875 0.0
C39 C 0.1565 0.65097 0.92687 0.0
C40 C 0.08289 0.5948 0.04899 0.0
N41 N 0.0737 0.6225 0.04494 0.0
C42 C 0.06407 0.57113 0.04678 0.0
C43 C 0.03561 0.57598 0.04013 0.0
C44 C 0.02609 0.60439 0.03674 0.0
C45 C 0.04523 0.62757 0.03993 0.0
C46 C 0.05254 0.6939 0.08952 0.0
C47 C 0.0735 0.70797 0.05011 0.0
C48 C 0.06637 0.67307 0.07703 0.0
N49 N 0.07731 0.68045 0.05779 0.0
C50 C 0.05959 0.72925 0.06205 0.0
C51 C 0.0495 0.72229 0.08204 0.0
C52 C 0.13811 0.6952 0.02079 0.0
C53 C 0.22288 0.61725 0.02202 0.0
C54 C 0.19635 0.65783 -0.00369 0.0
C55 C 0.22622 0.65986 0.00019 0.0
C56 C 0.23955 0.63933 0.01309 0.0
N57 N 0.18007 0.63581 0.00484 0.0
C58 C 0.19305 0.61592 0.01778 0.0
Co59 Co 0.63465 0.89038 0.24877 0.0
Co60 Co 0.62687 0.85857 0.29692 0.0
O61 O 0.64534 0.88618 0.27823 0.0
C62 C 0.69782 0.87702 0.24889 0.0
O63 O 0.6901 0.8539 0.25959 0.0
C64 C 0.64236 0.90972 0.32599 0.0
O65 O 0.65564 0.92587 0.31194 0.0
O66 O 0.58826 0.87647 0.29069 0.0
O67 O 0.59124 0.88634 0.25602 0.0
H68 H 0.54676 0.79307 0.32267 0.0
H69 H 0.67313 0.93453 0.2686 0.0
O70 O 0.67793 0.89421 0.24203 0.0
H71 H 0.58637 0.98866 0.2448 0.0
H72 H 0.64476 0.9345 0.1769 0.0
H73 H 0.59189 0.86279 0.22013 0.0
H74 H 0.59038 0.93574 0.23877 0.0
H75 H 0.65677 0.92818 0.21439 0.0
O76 O 0.6315 0.88509 0.32142 0.0
H77 H 0.57241 0.82312 0.29641 0.0
H78 H 0.64202 0.83653 0.33927 0.0
H79 H 0.57895 0.86857 0.18278 0.0
H80 H 0.67014 0.98747 0.27476 0.0
H81 H 0.6055 0.90464 0.1609 0.0
H82 H 0.62648 0.01489 0.26286 0.0
O83 O 0.63701 0.84742 0.24356 0.0
H84 H 0.73397 0.86008 0.31487 0.0
H85 H 0.65168 0.7984 0.29287 0.0
H86 H 0.70119 0.77786 0.29386 0.0
H87 H 0.74223 0.80787 0.30674 0.0
H88 H 0.68556 0.8811 0.30984 0.0
H89 H 0.61708 0.80671 0.36585 0.0
H90 H 0.5687 0.78569 0.35792 0.0
O91 O 0.61974 0.83055 0.27398 0.0
C92 C 0.57645 0.88319 0.27309 0.0
C93 C 0.56774 0.80236 0.32633 0.0
C94 C 0.60724 0.80997 0.35058 0.0
N95 N 0.60873 0.83147 0.31623 0.0
C96 C 0.58245 0.81924 0.31149 0.0
C97 C 0.62131 0.82671 0.3354 0.0
C98 C 0.58012 0.79805 0.34607 0.0
C99 C 0.65414 0.94633 0.26325 0.0
N100 N 0.63198 0.93206 0.25331 0.0
C101 C 0.65253 0.97629 0.26684 0.0
C102 C 0.62802 0.99166 0.26018 0.0
C103 C 0.60549 0.97695 0.25006 0.0
C104 C 0.60785 0.94697 0.24676 0.0
C105 C 0.63301 0.91875 0.18628 0.0
C106 C 0.60339 0.87866 0.21073 0.0
C107 C 0.63977 0.91503 0.20748 0.0
N108 N 0.6249 0.89529 0.21942 0.0
C109 C 0.59604 0.88177 0.18958 0.0
C110 C 0.61097 0.90199 0.17731 0.0
C111 C 0.6265 0.82718 0.25487 0.0
C112 C 0.71597 0.84637 0.31012 0.0
C113 C 0.66956 0.81225 0.2975 0.0
C114 C 0.69749 0.8002 0.29849 0.0
C115 C 0.72063 0.81715 0.30547 0.0
N116 N 0.66506 0.84106 0.30192 0.0
C117 C 0.68811 0.85811 0.30775 0.0
Co118 Co 0.41465 0.36964 0.54902 0.0
Co119 Co 0.38306 0.38458 0.50187 0.0
O120 O 0.38811 0.39232 0.53176 0.0
C121 C 0.36667 0.38957 0.57926 0.0
O122 O 0.35245 0.40505 0.56528 0.0
C123 C 0.39691 0.44784 0.50473 0.0
O124 O 0.41945 0.43963 0.5159 0.0
O125 O 0.42608 0.38639 0.49682 0.0
O126 O 0.44064 0.36143 0.52491 0.0
H127 H 0.40399 0.33536 0.43317 0.0
H128 H 0.40013 0.42949 0.56605 0.0
O129 O 0.38951 0.37532 0.57441 0.0
H130 H 0.50293 0.4346 0.54571 0.0
H131 H 0.47024 0.34916 0.61547 0.0
H132 H 0.44935 0.31494 0.54373 0.0
H133 H 0.4767 0.38816 0.54356 0.0
H134 H 0.43676 0.37655 0.59261 0.0
O135 O 0.38018 0.42836 0.49684 0.0
H136 H 0.41041 0.34492 0.47097 0.0
H137 H 0.34478 0.41003 0.46888 0.0
H138 H 0.48569 0.28902 0.5653 0.0
H139 H 0.42712 0.47424 0.57255 0.0
H140 H 0.49507 0.30509 0.60183 0.0
H141 H 0.47889 0.47763 0.56161 0.0
O142 O 0.39281 0.33352 0.54171 0.0
H143 H 0.28727 0.42028 0.53011 0.0
H144 H 0.33635 0.34264 0.49002 0.0
H145 H 0.28341 0.33959 0.49621 0.0
H146 H 0.25851 0.37865 0.51634 0.0
H147 H 0.3402 0.42233 0.52371 0.0
H148 H 0.33786 0.4015 0.43097 0.0
H149 H 0.36748 0.3638 0.41291 0.0
O150 O 0.38575 0.34044 0.50701 0.0
C151 C 0.445 0.37147 0.50667 0.0
C152 C 0.39085 0.35175 0.44087 0.0
C153 C 0.35376 0.3889 0.43964 0.0
N154 N 0.3777 0.37769 0.47214 0.0
C155 C 0.3943 0.35714 0.46229 0.0
C156 C 0.3578 0.39367 0.46109 0.0
C157 C 0.37039 0.36774 0.42952 0.0
C158 C 0.42296 0.42946 0.56289 0.0
N159 N 0.43653 0.40533 0.55497 0.0
C160 C 0.43813 0.45543 0.56608 0.0
C161 C 0.46708 0.45738 0.55985 0.0
C162 C 0.48057 0.43323 0.55099 0.0
C163 C 0.46526 0.40702 0.54939 0.0
C164 C 0.46592 0.3416 0.59969 0.0
C165 C 0.4542 0.32283 0.55928 0.0
C166 C 0.44673 0.35686 0.58669 0.0
N167 N 0.44102 0.34741 0.56675 0.0
C168 C 0.47436 0.30768 0.57158 0.0
C169 C 0.47992 0.31693 0.592 0.0
C170 C 0.38681 0.3238 0.52332 0.0
C171 C 0.29786 0.40315 0.5213 0.0
C172 C 0.32571 0.35962 0.49892 0.0
C173 C 0.29571 0.35783 0.50231 0.0
C174 C 0.28175 0.37977 0.51359 0.0
N175 N 0.34135 0.38265 0.50651 0.0
C176 C 0.32782 0.40423 0.51758 0.0
Co177 Co 0.88493 0.13874 0.7468 0.0
Co178 Co 0.89392 0.16887 0.79546 0.0
O179 O 0.87462 0.1423 0.77637 0.0
C180 C 0.82203 0.15367 0.7476 0.0
O181 O 0.83011 0.17537 0.7596 0.0
C182 C 0.87804 0.11656 0.82315 0.0
O183 O 0.86486 0.10146 0.80848 0.0
O184 O 0.93216 0.15037 0.78884 0.0
O185 O 0.92842 0.14096 0.7541 0.0
H186 H 0.97217 0.23742 0.82041 0.0
H187 H 0.8448 0.0953 0.76572 0.0
O188 O 0.84155 0.13677 0.7399 0.0
H189 H 0.92974 0.03897 0.7413 0.0
H190 H 0.87309 0.09736 0.67426 0.0
H191 H 0.92849 0.16582 0.71854 0.0
H192 H 0.92763 0.09219 0.73616 0.0
H193 H 0.86153 0.10273 0.71187 0.0
O194 O 0.88892 0.1415 0.81952 0.0
H195 H 0.94752 0.20582 0.79457 0.0
H196 H 0.8805 0.1882 0.83875 0.0
H197 H 0.94103 0.16092 0.68106 0.0
H198 H 0.84587 0.04208 0.77098 0.0
H199 H 0.91319 0.12651 0.65866 0.0
H200 H 0.88861 0.01356 0.75877 0.0
O201 O 0.88399 0.18187 0.74226 0.0
H202 H 0.78714 0.16948 0.81471 0.0
H203 H 0.8698 0.22924 0.79089 0.0
H204 H 0.82085 0.25071 0.79229 0.0
H205 H 0.77932 0.22136 0.80528 0.0
H206 H 0.83522 0.14771 0.81019 0.0
H207 H 0.90544 0.21816 0.86524 0.0
H208 H 0.95213 0.2422 0.85634 0.0
O209 O 0.90173 0.19736 0.77287 0.0
C210 C 0.94346 0.14334 0.77112 0.0
C211 C 0.95229 0.22637 0.82456 0.0
C212 C 0.9147 0.21577 0.84972 0.0
N213 N 0.91262 0.19511 0.81512 0.0
C214 C 0.93802 0.20877 0.80994 0.0
C215 C 0.90073 0.19878 0.83463 0.0
C216 C 0.94082 0.2294 0.84467 0.0
C217 C 0.86338 0.08302 0.76024 0.0
N218 N 0.88611 0.09684 0.75064 0.0
C219 C 0.86391 0.0529 0.76332 0.0
C220 C 0.88791 0.03691 0.75649 0.0
C221 C 0.91101 0.05116 0.7467 0.0
C222 C 0.90974 0.08132 0.74391 0.0
C223 C 0.88539 0.11241 0.68386 0.0
C224 C 0.91643 0.15067 0.7089 0.0
C225 C 0.87888 0.1156 0.70514 0.0
N226 N 0.89443 0.13446 0.71736 0.0
C227 C 0.92356 0.14805 0.68769 0.0
C228 C 0.90791 0.12876 0.67512 0.0
C229 C 0.89529 0.20142 0.75378 0.0
C230 C 0.80524 0.18278 0.80956 0.0
C231 C 0.85188 0.21577 0.79595 0.0
C232 C 0.82417 0.22832 0.79702 0.0
C233 C 0.80083 0.21182 0.80419 0.0
N234 N 0.8561 0.18706 0.80086 0.0
C235 C 0.83296 0.1706 0.80739 0.0
Co236 Co 0.10393 0.36442 0.94555 0.0
Co237 Co 0.13833 0.38083 0.99071 0.0
O238 O 0.12974 0.38981 0.96142 0.0
C239 C 0.14715 0.38859 0.91397 0.0
O240 O 0.16767 0.3925 0.92801 0.0
C241 C 0.12332 0.44419 0.9898 0.0
O242 O 0.09949 0.43633 0.98002 0.0
O243 O 0.09572 0.3819 -0.00279 0.0
O244 O 0.08254 0.352 0.97149 0.0
H245 H 0.12453 0.32858 0.05922 0.0
H246 H 0.10968 0.4264 0.93233 0.0
O247 O 0.12331 0.3761 0.91873 0.0
H248 H 1.00826 0.41498 0.95557 0.0
H249 H 0.04836 0.33303 0.88138 0.0
H250 H 0.08214 0.30427 0.9518 0.0
H251 H 0.03967 0.37193 0.9511 0.0
H252 H 0.07285 0.36861 0.90435 0.0
O253 O 0.14096 0.42451 -0.00367 0.0
H254 H 0.115 0.33903 0.02185 0.0
H255 H 0.17872 0.40601 0.02246 0.0
H256 H 0.05772 0.26827 0.92954 0.0
H257 H 0.07749 0.46917 0.93296 0.0
H258 H 0.04133 0.28211 0.89374 0.0
H259 H 0.02668 0.46392 0.94577 0.0
O260 O 0.13189 0.33207 0.95018 0.0
H261 H 0.23058 0.41961 0.9588 0.0
H262 H 0.18707 0.3397 -8e-05 0.0
H263 H 0.23942 0.33817 0.99135 0.0
H264 H 0.26153 0.37837 0.97069 0.0
H265 H 0.17826 0.4201 0.96751 0.0
H266 H 0.18874 0.39655 0.05989 0.0
H267 H 0.16162 0.35749 0.07848 0.0
O268 O 0.13639 0.33653 0.98506 0.0
C269 C 0.07685 0.36578 0.98832 0.0
C270 C 0.13653 0.34561 0.05128 0.0
C271 C 0.17255 0.38379 0.05166 0.0
N272 N 0.14641 0.37297 0.02 0.0
C273 C 0.13129 0.35156 0.03012 0.0
C274 C 0.16672 0.38911 0.0305 0.0
C275 C 0.15733 0.36186 0.06208 0.0
C276 C 0.08705 0.42341 0.93632 0.0
N277 N 0.07677 0.39657 0.94196 0.0
C278 C 0.06904 0.44792 0.93707 0.0
C279 C 0.04059 0.44498 0.94429 0.0
C280 C 0.03011 0.41747 0.94956 0.0
C281 C 0.0482 0.39323 0.94739 0.0
C282 C 0.05564 0.32658 0.89686 0.0
C283 C 0.07456 0.31083 0.93648 0.0
C284 C 0.06946 0.34667 0.90996 0.0
N285 N 0.07932 0.33848 0.92933 0.0
C286 C 0.06081 0.29021 0.92385 0.0
C287 C 0.05168 0.29804 0.90379 0.0
C288 C 0.1374 0.321 0.96819 0.0
C289 C 0.22122 0.40198 0.96783 0.0
C290 C 0.19647 0.35717 0.99079 0.0
C291 C 0.22616 0.35624 0.98606 0.0
C292 C 0.23856 0.37882 0.97449 0.0
N293 N 0.1796 0.37996 0.98419 0.0
C294 C 0.19161 0.40218 0.97287 0.0
Co295 Co 0.88657 0.89509 0.24088 0.0
Co296 Co 0.89805 0.86466 0.19298 0.0
O297 O 0.87909 0.89305 0.2109 0.0
C298 C 0.82109 0.90134 0.23359 0.0
O299 O 0.82566 0.90486 0.21349 0.0
C300 C 0.88281 0.91505 0.16292 0.0
O301 O 0.86834 0.93096 0.17649 0.0
O302 O 0.9362 0.88282 0.20003 0.0
O303 O 0.93051 0.89005 0.23502 0.0
H304 H 0.97395 0.79118 0.17123 0.0
H305 H 0.85557 0.94533 0.21895 0.0
O306 O 0.84256 0.89881 0.24651 0.0
H307 H 0.94017 0.98853 0.25447 0.0
H308 H 0.87113 0.93254 0.31419 0.0
H309 H 0.92616 0.86376 0.26991 0.0
H310 H 0.93095 0.9359 0.25693 0.0
H311 H 0.86243 0.93027 0.27599 0.0
O312 O 0.89412 0.89078 0.16806 0.0
H313 H 0.95089 0.82637 0.19543 0.0
H314 H 0.88507 0.84343 0.15016 0.0
H315 H 0.9358 0.86547 0.30798 0.0
H316 H 0.86375 0.99777 0.21631 0.0
H317 H 0.90815 0.90004 0.33038 0.0
H318 H 0.90637 0.01998 0.23414 0.0
O319 O 0.88118 0.85212 0.24436 0.0
H320 H 0.79124 0.86441 0.17312 0.0
H321 H 0.87272 0.805 0.19939 0.0
H322 H 0.82331 0.78487 0.1997 0.0
H323 H 0.78215 0.8141 0.18582 0.0
H324 H 0.83995 0.88498 0.17572 0.0
H325 H 0.90892 0.81044 0.12509 0.0
H326 H 0.95414 0.78469 0.1354 0.0
O327 O 0.90533 0.83716 0.21629 0.0
C328 C 0.94655 0.88849 0.21834 0.0
C329 C 0.95481 0.80303 0.16646 0.0
C330 C 0.91812 0.81358 0.14057 0.0
N331 N 0.91658 0.83692 0.17429 0.0
C332 C 0.94134 0.8226 0.18017 0.0
C333 C 0.90479 0.83235 0.15484 0.0
C334 C 0.9434 0.79899 0.14642 0.0
C335 C 0.87377 0.95438 0.2271 0.0
N336 N 0.89219 0.93715 0.23851 0.0
C337 C 0.8785 0.98435 0.2254 0.0
C338 C 0.90243 0.9968 0.23535 0.0
C339 C 0.92138 0.97918 0.24675 0.0
C340 C 0.91596 0.9493 0.24808 0.0
C341 C 0.88333 0.9174 0.30459 0.0
C342 C 0.91418 0.87897 0.27956 0.0
C343 C 0.87841 0.91596 0.28299 0.0
N344 N 0.89388 0.89701 0.27078 0.0
C345 C 0.91967 0.87979 0.3011 0.0
C346 C 0.90412 0.89917 0.31366 0.0
C347 C 0.89498 0.8327 0.23436 0.0
C348 C 0.80905 0.85124 0.17902 0.0
C349 C 0.85502 0.81862 0.19409 0.0
C350 C 0.827 0.80673 0.19395 0.0
C351 C 0.80392 0.82312 0.1862 0.0
N352 N 0.85992 0.84667 0.18779 0.0
C353 C 0.83716 0.86276 0.18014 0.0
Co354 Co 0.41132 0.65434 0.44703 0.0
Co355 Co 0.38024 0.63737 0.4935 0.0
O356 O 0.38554 0.62991 0.46369 0.0
C357 C 0.36712 0.62816 0.41687 0.0
O358 O 0.35379 0.61333 0.43159 0.0
C359 C 0.37857 0.5715 0.48627 0.0
O360 O 0.37766 0.57598 0.46602 0.0
O361 O 0.42315 0.63444 0.49747 0.0
O362 O 0.43527 0.66527 0.47215 0.0
H363 H 0.40333 0.68734 0.56154 0.0
H364 H 0.40383 0.59182 0.43394 0.0
O365 O 0.38856 0.6449 0.42095 0.0
H366 H 0.50677 0.60251 0.45288 0.0
H367 H 0.46667 0.6831 0.382 0.0
H368 H 0.43628 0.71339 0.45288 0.0
H369 H 0.47556 0.64571 0.44941 0.0
H370 H 0.43858 0.64967 0.40461 0.0
O371 O 0.37858 0.59312 0.49916 0.0
H372 H 0.40785 0.67803 0.52354 0.0
H373 H 0.34407 0.61132 0.52742 0.0
H374 H 0.46443 0.74719 0.43098 0.0
H375 H 0.43515 0.54865 0.43418 0.0
H376 H 0.47943 0.73248 0.39507 0.0
H377 H 0.48708 0.55356 0.44453 0.0
O378 O 0.38517 0.68741 0.45317 0.0
H379 H 0.28119 0.60733 0.46592 0.0
H380 H 0.33539 0.67902 0.50808 0.0
H381 H 0.28247 0.68461 0.5037 0.0
H382 H 0.25489 0.64854 0.48255 0.0
H383 H 0.33388 0.60276 0.47051 0.0
H384 H 0.33904 0.61966 0.56551 0.0
H385 H 0.36872 0.65801 0.58278 0.0
O386 O 0.38257 0.68191 0.48817 0.0
C387 C 0.44176 0.6505 0.48838 0.0
C388 C 0.39021 0.67063 0.55419 0.0
C389 C 0.35416 0.63261 0.55642 0.0
N390 N 0.37608 0.64433 0.52331 0.0
C391 C 0.39262 0.66533 0.53268 0.0
C392 C 0.35716 0.62792 0.53488 0.0
C393 C 0.37081 0.65414 0.5661 0.0
C394 C 0.42647 0.5946 0.43732 0.0
N395 N 0.43738 0.62143 0.44215 0.0
C396 C 0.44419 0.56987 0.43768 0.0
C397 C 0.47328 0.57263 0.44343 0.0
C398 C 0.48449 0.60012 0.44779 0.0
C399 C 0.46645 0.62448 0.44621 0.0
C400 C 0.46012 0.68988 0.39756 0.0
C401 C 0.44303 0.70653 0.43742 0.0
C402 C 0.44424 0.67104 0.41044 0.0
N403 N 0.43575 0.67956 0.43006 0.0
C404 C 0.45889 0.72588 0.42501 0.0
C405 C 0.46728 0.71756 0.40489 0.0
C406 C 0.3807 0.69788 0.47147 0.0
C407 C 0.29293 0.62311 0.47528 0.0
C408 C 0.3237 0.66315 0.49883 0.0
C409 C 0.29364 0.66646 0.49643 0.0
C410 C 0.27818 0.64624 0.48458 0.0
N411 N 0.33811 0.64024 0.48981 0.0
C412 C 0.32301 0.6205 0.47805 0.0
Co413 Co 0.63181 0.14772 0.73538 0.0
Co414 Co 0.61575 0.18702 0.69202 0.0
O415 O 0.63941 0.15809 0.70641 0.0
C416 C 0.69769 0.14754 0.72838 0.0
O417 O 0.69312 0.15222 0.70842 0.0
C418 C 0.63377 0.14312 0.66005 0.0
O419 O 0.6293 0.12205 0.67358 0.0
O420 O 0.58185 0.16064 0.69521 0.0
O421 O 0.58747 0.15021 0.72964 0.0
H422 H 0.52902 0.25241 0.68232 0.0
H423 H 0.66726 0.10682 0.70814 0.0
O424 O 0.67609 0.1452 0.74119 0.0
H425 H 0.58679 0.04792 0.73629 0.0
H426 H 0.64894 0.09437 0.80329 0.0
H427 H 0.58992 0.16893 0.76718 0.0
H428 H 0.59104 0.09977 0.74549 0.0
H429 H 0.65797 0.10629 0.76608 0.0
O430 O 0.62708 0.16927 0.66462 0.0
H431 H 0.55734 0.21342 0.69918 0.0
H432 H 0.62313 0.22146 0.65268 0.0
H433 H 0.5799 0.15751 0.80433 0.0
H434 H 0.66409 0.05522 0.69887 0.0
H435 H 0.60956 0.11999 0.82262 0.0
H436 H 0.62358 0.02518 0.71291 0.0
O437 O 0.63362 0.18986 0.74338 0.0
H438 H 0.72136 0.21012 0.6789 0.0
H439 H 0.62726 0.24964 0.7026 0.0
H440 H 0.67186 0.27862 0.70756 0.0
H441 H 0.71933 0.2591 0.69537 0.0
H442 H 0.67682 0.18067 0.67637 0.0
H443 H 0.59449 0.2594 0.63458 0.0
H444 H 0.54726 0.27551 0.64962 0.0
O445 O 0.60352 0.20589 0.71876 0.0
C446 C 0.57164 0.1517 0.71283 0.0
C447 C 0.54937 0.24543 0.67548 0.0
C448 C 0.5862 0.24941 0.64876 0.0
N449 N 0.59204 0.21528 0.67706 0.0
C450 C 0.56569 0.22348 0.68508 0.0
C451 C 0.60222 0.22775 0.65901 0.0
C452 C 0.5597 0.25844 0.65719 0.0
C453 C 0.64997 0.09416 0.71479 0.0
N454 N 0.62986 0.10656 0.72783 0.0
C455 C 0.64809 0.06478 0.70927 0.0
C456 C 0.62532 0.04796 0.71708 0.0
C457 C 0.60469 0.0607 0.73019 0.0
C458 C 0.60726 0.09015 0.73535 0.0
C459 C 0.63586 0.11075 0.79549 0.0
C460 C 0.60279 0.15248 0.77503 0.0
C461 C 0.64096 0.11766 0.77446 0.0
N462 N 0.62439 0.13819 0.7645 0.0
C463 C 0.59708 0.14616 0.79606 0.0
C464 C 0.61375 0.12512 0.80632 0.0
C465 C 0.6168 0.20937 0.73601 0.0
C466 C 0.70085 0.21879 0.68447 0.0
C467 C 0.64794 0.24045 0.69803 0.0
C468 C 0.67311 0.25714 0.70063 0.0
C469 C 0.69973 0.24621 0.69375 0.0
N470 N 0.64948 0.21273 0.6903 0.0
C471 C 0.6754 0.20226 0.68293 0.0
Co472 Co 0.91955 0.37059 0.94264 0.0
Co473 Co 0.89083 0.3825 0.99197 0.0
O474 O 0.89447 0.39121 0.96211 0.0
C475 C 0.86583 0.38672 0.91722 0.0
O476 O 0.85415 0.40293 0.9319 0.0
C477 C 0.91235 0.4429 0.989 0.0
O478 O 0.93227 0.43101 0.97705 0.0
O479 O 0.93396 0.37925 -0.00413 0.0
O480 O 0.95123 0.36786 0.96392 0.0
H481 H 0.90951 0.32756 0.05883 0.0
H482 H 0.89646 0.43192 0.93732 0.0
O483 O 0.88909 0.37225 0.92035 0.0
H484 H 0.99775 0.43578 0.91268 0.0
H485 H 0.96503 0.35111 0.8723 0.0
H486 H 0.9592 0.31957 0.94613 0.0
H487 H 0.97855 0.391 0.92877 0.0
H488 H 0.9317 0.37545 0.89674 0.0
O489 O 0.89329 0.42635 -0.00239 0.0
H490 H 0.91443 0.33781 0.02098 0.0
H491 H 0.85854 0.4111 0.02677 0.0
H492 H 0.99247 0.29409 0.92191 0.0
H493 H 0.91539 0.47734 0.92283 0.0
H494 H 0.9951 0.30952 0.8846 0.0
H495 H 0.96641 0.47961 0.91008 0.0
O496 O 0.90316 0.33286 0.95234 0.0
H497 H 0.79763 0.4302 0.96863 0.0
H498 H 0.84072 0.34505 0.00424 0.0
H499 H 0.78739 0.34811 8e-05 0.0
H500 H 0.76551 0.39097 0.98222 0.0
H501 H 0.85084 0.4261 0.97291 0.0
H502 H 0.85321 0.40184 0.06473 0.0
H503 H 0.87873 0.35973 0.08096 0.0
O504 O 0.88857 0.33865 0.98586 0.0
C505 C 0.95454 0.37199 0.98353 0.0
C506 C 0.89821 0.34592 0.05192 0.0
C507 C 0.86665 0.38764 0.05524 0.0
N508 N 0.8866 0.37487 0.0217 0.0
C509 C 0.90084 0.35177 0.0305 0.0
C510 C 0.8698 0.39282 0.03377 0.0
C511 C 0.88096 0.364 0.06434 0.0
C512 C 0.91848 0.43212 0.93171 0.0
N513 N 0.93569 0.40781 0.93296 0.0
C514 C 0.92925 0.45829 0.92367 0.0
C515 C 0.95787 0.45961 0.91662 0.0
C516 C 0.9755 0.43506 0.91823 0.0
C517 C 0.96429 0.40957 0.92708 0.0
C518 C 0.96362 0.34372 0.88839 0.0
C519 C 0.96034 0.32644 0.92994 0.0
C520 C 0.94469 0.35739 0.90233 0.0
N521 N 0.94383 0.34926 0.92298 0.0
C522 C 0.97911 0.31185 0.91628 0.0
C523 C 0.98072 0.32062 0.89539 0.0
C524 C 0.8928 0.32276 0.96947 0.0
C525 C 0.8069 0.41142 0.97646 0.0
C526 C 0.83138 0.36365 -0.00371 0.0
C527 C 0.80116 0.36532 0.99406 0.0
C528 C 0.78889 0.38939 0.98406 0.0
N529 N 0.8489 0.38535 0.98879 0.0
C530 C 0.83703 0.40902 0.97899 0.0
Co531 Co 0.39616 0.17641 0.69017 0.0
Co532 Co 0.38453 0.1452 0.73833 0.0
O533 O 0.37417 0.15103 0.70879 0.0
C534 C 0.37495 0.12687 0.66252 0.0
O535 O 0.36399 0.11158 0.67799 0.0
C536 C 0.32168 0.16093 0.73794 0.0
O537 O 0.32968 0.18334 0.72655 0.0
O538 O 0.384 0.18791 0.74349 0.0
O539 O 0.40314 0.20511 0.71348 0.0
H540 H 0.43947 0.16389 0.80516 0.0
H541 H 0.334 0.15908 0.68387 0.0
O542 O 0.38959 0.14994 0.6658 0.0
H543 H 0.33866 0.26243 0.66381 0.0
H544 H 0.42119 0.22607 0.62186 0.0
H545 H 0.4527 0.20629 0.69442 0.0
H546 H 0.38096 0.23862 0.68046 0.0
H547 H 0.39036 0.19728 0.64557 0.0
O548 O 0.34116 0.14347 0.745 0.0
H549 H 0.42754 0.17081 0.76773 0.0
H550 H 0.36046 0.10745 0.7721 0.0
H551 H 0.48559 0.23214 0.67045 0.0
H552 H 0.29064 0.18279 0.66928 0.0
H553 H 0.46979 0.24279 0.63397 0.0
H554 H 0.29282 0.23482 0.65878 0.0
O555 O 0.43212 0.15487 0.69736 0.0
H556 H 0.34404 0.05036 0.71188 0.0
H557 H 0.42653 0.09744 0.74796 0.0
H558 H 0.42786 0.04452 0.74148 0.0
H559 H 0.38637 0.02061 0.72335 0.0
H560 H 0.34376 0.10328 0.71845 0.0
H561 H 0.37148 0.1 0.80962 0.0
H562 H 0.41133 0.12826 0.82636 0.0
O563 O 0.42843 0.14705 0.73193 0.0
C564 C 0.3951 0.20827 0.73256 0.0
C565 C 0.42213 0.15136 0.79803 0.0
C566 C 0.38394 0.11553 0.80054 0.0
N567 N 0.39354 0.13934 0.76773 0.0
C568 C 0.41535 0.15512 0.77683 0.0
C569 C 0.37777 0.11988 0.77931 0.0
C570 C 0.40631 0.13139 0.80992 0.0
C571 C 0.33519 0.18188 0.67996 0.0
N572 N 0.36052 0.19713 0.6826 0.0
C573 C 0.31043 0.1952 0.67157 0.0
C574 C 0.31165 0.22435 0.66569 0.0
C575 C 0.33731 0.2399 0.6687 0.0
C576 C 0.36129 0.22617 0.67793 0.0
C577 C 0.42843 0.22154 0.63769 0.0
C578 C 0.44573 0.21044 0.6785 0.0
C579 C 0.41094 0.20542 0.65127 0.0
N580 N 0.41941 0.20052 0.67156 0.0
C581 C 0.46446 0.22521 0.665 0.0
C582 C 0.45562 0.231 0.64452 0.0
C583 C 0.4435 0.14826 0.71493 0.0
C584 C 0.36225 0.06052 0.71979 0.0
C585 C 0.40851 0.08727 0.73988 0.0
C586 C 0.40932 0.05725 0.73635 0.0
C587 C 0.38602 0.04385 0.72621 0.0
N588 N 0.38515 0.10349 0.73348 0.0
C589 C 0.36218 0.09048 0.7236 0.0
Co590 Co 0.59963 0.64163 0.44214 0.0
Co591 Co 0.62743 0.63097 0.49198 0.0
O592 O 0.6242 0.62081 0.46215 0.0
C593 C 0.65341 0.62436 0.41715 0.0
O594 O 0.66458 0.60743 0.43164 0.0
C595 C 0.61081 0.56826 0.49107 0.0
O596 O 0.59024 0.57608 0.47792 0.0
O597 O 0.58423 0.63187 0.49529 0.0
O598 O 0.56807 0.64536 0.46339 0.0
H599 H 0.6043 0.68707 0.55753 0.0
H600 H 0.62142 0.57995 0.43652 0.0
O601 O 0.63013 0.63885 0.42006 0.0
H602 H 0.51961 0.57858 0.41275 0.0
H603 H 0.55704 0.66386 0.3709 0.0
H604 H 0.56036 0.6929 0.44532 0.0
H605 H 0.54018 0.62275 0.42886 0.0
H606 H 0.58835 0.63751 0.39586 0.0
O607 O 0.6274 0.58775 0.49903 0.0
H608 H 0.60052 0.67501 0.51991 0.0
H609 H 0.66136 0.6061 0.52759 0.0
H610 H 0.52815 0.71931 0.4209 0.0
H611 H 0.60173 0.5356 0.42078 0.0
H612 H 0.52644 0.70494 0.38338 0.0
H613 H 0.55033 0.5345 0.40875 0.0
O614 O 0.61674 0.67922 0.45118 0.0
H615 H 0.72298 0.5876 0.46946 0.0
H616 H 0.67562 0.67121 0.50402 0.0
H617 H 0.72902 0.67074 0.49994 0.0
H618 H 0.75306 0.62868 0.4826 0.0
H619 H 0.66961 0.58909 0.47367 0.0
H620 H 0.66562 0.61722 0.56533 0.0
H621 H 0.63704 0.65805 0.58051 0.0
O622 O 0.62776 0.67458 0.48534 0.0
C623 C 0.56413 0.63999 0.48279 0.0
C624 C 0.61694 0.66929 0.55109 0.0
C625 C 0.65132 0.63006 0.55547 0.0
N626 N 0.63089 0.64005 0.52156 0.0
C627 C 0.61496 0.66243 0.52979 0.0
C628 C 0.64878 0.62382 0.53411 0.0
C629 C 0.63529 0.65298 0.56398 0.0
C630 C 0.59936 0.58028 0.431 0.0
N631 N 0.5826 0.6048 0.43276 0.0
C632 C 0.58813 0.55475 0.42229 0.0
C633 C 0.55929 0.5541 0.41562 0.0
C634 C 0.54202 0.57877 0.41799 0.0
C635 C 0.55392 0.60382 0.42701 0.0
C636 C 0.55762 0.67037 0.38721 0.0
C637 C 0.55954 0.68628 0.42907 0.0
C638 C 0.57551 0.65567 0.40143 0.0
N639 N 0.57587 0.6633 0.42219 0.0
C640 C 0.54141 0.70148 0.41528 0.0
C641 C 0.5404 0.69336 0.39424 0.0
C642 C 0.62522 0.68994 0.46858 0.0
C643 C 0.71276 0.60604 0.47706 0.0
C644 C 0.68588 0.65292 0.4963 0.0
C645 C 0.71615 0.65273 0.49412 0.0
C646 C 0.72963 0.62911 0.48441 0.0
N647 N 0.66949 0.63021 0.48904 0.0
C648 C 0.68255 0.60697 0.47953 0.0
Co649 Co 0.11302 0.85029 0.19329 0.0
Co650 Co 0.13583 0.88104 0.23887 0.0
O651 O 0.14157 0.8736 0.20873 0.0
C652 C 0.1369 0.89386 0.16199 0.0
O653 O 0.14644 0.91167 0.17651 0.0
C654 C 0.20159 0.87667 0.23107 0.0
O655 O 0.19681 0.87416 0.21092 0.0
O656 O 0.13583 0.83835 0.24384 0.0
O657 O 0.10395 0.8264 0.21893 0.0
H658 H 0.08864 0.86424 0.30891 0.0
H659 H 0.17439 0.85437 0.17908 0.0
O660 O 0.12161 0.87165 0.16666 0.0
H661 H 0.14677 0.75195 0.17026 0.0
H662 H 0.07043 0.79443 0.1324 0.0
H663 H 0.05413 0.82976 0.20431 0.0
H664 H 0.11508 0.78516 0.19006 0.0
H665 H 0.10756 0.8242 0.15004 0.0
O666 O 0.18017 0.8802 0.24381 0.0
H667 H 0.09554 0.85724 0.27085 0.0
H668 H 0.16545 0.91777 0.27099 0.0
H669 H 0.01665 0.80036 0.18732 0.0
H670 H 0.2092 0.8205 0.16294 0.0
H671 H 0.02408 0.78304 0.15064 0.0
H672 H 0.19483 0.76891 0.15744 0.0
O673 O 0.08327 0.87927 0.20072 0.0
H674 H 0.17326 0.97507 0.20782 0.0
H675 H 0.09826 0.93015 0.25264 0.0
H676 H 0.09718 0.98307 0.24647 0.0
H677 H 0.13494 1.00595 0.22398 0.0
H678 H 0.1733 0.92235 0.21417 0.0
H679 H 0.15951 0.92523 0.30909 0.0
H680 H 0.12079 0.89845 0.32827 0.0
O681 O 0.09085 0.88161 0.23526 0.0
C682 C 0.11872 0.82018 0.23527 0.0
C683 C 0.10552 0.87612 0.30071 0.0
C684 C 0.14533 0.91032 0.30081 0.0
N685 N 0.13068 0.88728 0.26871 0.0
C686 C 0.10946 0.87231 0.27916 0.0
C687 C 0.14863 0.90596 0.27926 0.0
C688 C 0.12359 0.89529 0.31157 0.0
C689 C 0.16903 0.83158 0.17851 0.0
N690 N 0.14262 0.82197 0.18554 0.0
C691 C 0.18858 0.81256 0.16884 0.0
C692 C 0.1805 0.78368 0.16573 0.0
C693 C 0.15374 0.77397 0.17323 0.0
C694 C 0.1357 0.79308 0.1842 0.0
C695 C 0.06648 0.8025 0.14806 0.0
C696 C 0.05784 0.82222 0.1885 0.0
C697 C 0.08749 0.81937 0.15816 0.0
N698 N 0.08327 0.82852 0.17834 0.0
C699 C 0.03628 0.80569 0.17882 0.0
C700 C 0.04059 0.7959 0.15839 0.0
C701 C 0.07423 0.88481 0.21911 0.0
C702 C 0.15676 0.96539 0.21774 0.0
C703 C 0.11476 0.93982 0.24277 0.0
C704 C 0.11405 0.96987 0.23937 0.0
C705 C 0.13524 0.9827 0.22677 0.0
N706 N 0.13604 0.92292 0.23395 0.0
C707 C 0.15679 0.93541 0.22151 0.0
Co708 Co 0.92118 0.64428 0.04615 0.0
Co709 Co 0.89231 0.6316 -0.00294 0.0
O710 O 0.89669 0.62279 0.02681 0.0
C711 C 0.86992 0.62442 0.07282 0.0
O712 O 0.8616 0.6036 0.06012 0.0
C713 C 0.9131 0.57017 -0.00186 0.0
O714 O 0.93549 0.58041 0.00855 0.0
O715 O 0.93541 0.63402 0.99293 0.0
O716 O 0.95247 0.64787 0.02453 0.0
H717 H 0.91148 0.68515 0.92973 0.0
H718 H 0.90349 0.58022 0.04735 0.0
O719 O 0.89068 0.64169 0.06827 0.0
H720 H 1.00068 0.58346 0.07952 0.0
H721 H 0.96092 0.6714 0.11732 0.0
H722 H 0.96072 0.69512 0.04187 0.0
H723 H 0.97992 0.62729 0.06359 0.0
H724 H 0.93112 0.64303 0.09276 0.0
O725 O 0.89341 0.58771 0.99148 0.0
H726 H 0.91711 0.67484 0.96751 0.0
H727 H 0.85801 0.60406 0.96277 0.0
H728 H 0.99177 0.72323 0.0659 0.0
H729 H 0.92409 0.53594 0.0622 0.0
H730 H 0.99156 0.71195 0.104 0.0
H731 H 0.97295 0.53712 0.07883 0.0
O732 O 0.90348 0.68152 0.03658 0.0
H733 H 0.79882 0.58708 0.02268 0.0
H734 H 0.84269 0.66985 0.98482 0.0
H735 H 0.78946 0.6683 0.98992 0.0
H736 H 0.76719 0.62665 0.00893 0.0
H737 H 0.85196 0.58961 0.01738 0.0
H738 H 0.85198 0.61333 0.92486 0.0
H739 H 0.87872 0.65424 0.90814 0.0
O740 O 0.89109 0.67559 0.00275 0.0
C741 C 0.95579 0.64273 0.00498 0.0
C742 C 0.89962 0.66734 0.93684 0.0
C743 C 0.86625 0.627 0.93411 0.0
N744 N 0.88762 0.63912 0.96734 0.0
C745 C 0.90263 0.66148 0.95824 0.0
C746 C 0.86979 0.62182 0.95556 0.0
C747 C 0.88126 0.64996 0.92474 0.0
C748 C 0.92427 0.58182 0.05495 0.0
N749 N 0.93908 0.60769 0.05596 0.0
C750 C 0.93612 0.55617 0.06311 0.0
C751 C 0.96355 0.55679 0.07235 0.0
C752 C 0.97905 0.58277 0.07276 0.0
C753 C 0.96678 0.60783 0.06397 0.0
C754 C 0.96098 0.67681 0.10079 0.0
C755 C 0.96094 0.68957 0.05834 0.0
C756 C 0.94391 0.66094 0.08676 0.0
N757 N 0.94448 0.66702 0.06572 0.0
C758 C 0.9783 0.70586 0.07193 0.0
C759 C 0.97825 0.69943 0.09329 0.0
C760 C 0.8945 0.6917 0.0191 0.0
C761 C 0.80826 0.60532 0.01434 0.0
C762 C 0.83318 0.65173 0.99321 0.0
C763 C 0.80302 0.65093 -0.00401 0.0
C764 C 0.79053 0.62755 0.00664 0.0
N765 N 0.85042 0.62982 0.00078 0.0
C766 C 0.83834 0.60684 0.01125 0.0
Co767 Co 0.1117 0.17771 0.79798 0.0
Co768 Co 0.13278 0.1463 0.75234 0.0
O769 O 0.13929 0.15339 0.78238 0.0
C770 C 0.13469 0.13296 0.8287 0.0
O771 O 0.14054 0.11392 0.81397 0.0
C772 C 0.1987 0.14645 0.76007 0.0
O773 O 0.1943 0.14644 0.78034 0.0
O774 O 0.13471 0.18898 0.74778 0.0
O775 O 0.10258 0.2016 0.77227 0.0
H776 H 0.08538 0.16612 0.68277 0.0
H777 H 0.17406 0.17289 0.80932 0.0
O778 O 0.12105 0.15642 0.82457 0.0
H779 H 0.14746 0.2746 0.82245 0.0
H780 H 0.06942 0.23025 0.86056 0.0
H781 H 0.05339 0.20055 0.78727 0.0
H782 H 0.1142 0.24275 0.80292 0.0
H783 H 0.10684 0.2026 0.84167 0.0
O784 O 0.17706 0.14549 0.74726 0.0
H785 H 0.09304 0.1722 0.72085 0.0
H786 H 0.16065 0.10906 0.71973 0.0
H787 H 0.01565 0.22824 0.80546 0.0
H788 H 0.21081 0.20602 0.82391 0.0
H789 H 0.02288 0.24251 0.84284 0.0
H790 H 0.19679 0.25696 0.83217 0.0
O791 O 0.08126 0.14924 0.79095 0.0
H792 H 0.16522 0.04945 0.78243 0.0
H793 H 0.0931 0.09948 0.73789 0.0
H794 H 0.08931 0.04657 0.74322 0.0
H795 H 0.12561 0.02108 0.76555 0.0
H796 H 0.16794 0.10214 0.77696 0.0
H797 H 0.15396 0.10249 0.6816 0.0
H798 H 0.11599 0.13106 0.6629 0.0
O799 O 0.08789 0.14749 0.75631 0.0
C800 C 0.11871 0.2079 0.75663 0.0
C801 C 0.10191 0.15346 0.69075 0.0
C802 C 0.14044 0.11778 0.69009 0.0
N803 N 0.12705 0.14078 0.72249 0.0
C804 C 0.10627 0.15674 0.71231 0.0
C805 C 0.14418 0.12164 0.71166 0.0
C806 C 0.11912 0.13381 0.67961 0.0
C807 C 0.16905 0.19571 0.81034 0.0
N808 N 0.14195 0.20562 0.80513 0.0
C809 C 0.18964 0.21426 0.81935 0.0
C810 C 0.18174 0.24277 0.82404 0.0
C811 C 0.15424 0.25285 0.81832 0.0
C812 C 0.13523 0.23441 0.80764 0.0
C813 C 0.06556 0.22349 0.84456 0.0
C814 C 0.05713 0.207 0.80333 0.0
C815 C 0.08677 0.20779 0.83374 0.0
N816 N 0.08256 0.19997 0.81327 0.0
C817 C 0.0354 0.22252 0.81369 0.0
C818 C 0.03957 0.2306 0.83453 0.0
C819 C 0.07154 0.14437 0.77262 0.0
C820 C 0.14936 0.06026 0.77254 0.0
C821 C 0.10904 0.08872 0.74769 0.0
C822 C 0.10675 0.05865 0.75061 0.0
C823 C 0.12712 0.04436 0.76311 0.0
N824 N 0.13107 0.10427 0.75686 0.0
C825 C 0.15095 0.09031 0.76924 0.0
Co826 Co 0.59876 0.35482 0.55152 0.0
Co827 Co 0.62763 0.38014 0.506 0.0
O828 O 0.62089 0.38468 0.53636 0.0
C829 C 0.64626 0.3744 0.58127 0.0
O830 O 0.66534 0.37791 0.56618 0.0
C831 C 0.62378 0.44558 0.51508 0.0
O832 O 0.62197 0.44042 0.53523 0.0
O833 O 0.58502 0.38062 0.50194 0.0
O834 O 0.57347 0.34723 0.52609 0.0
H835 H 0.60782 0.33682 0.43509 0.0
H836 H 0.60216 0.41575 0.56626 0.0
O837 O 0.62144 0.36313 0.57765 0.0
H838 H 0.50165 0.38456 0.57973 0.0
H839 H 0.55462 0.30405 0.6144 0.0
H840 H 0.57609 0.29706 0.53888 0.0
H841 H 0.53399 0.35449 0.5579 0.0
H842 H 0.57872 0.34476 0.59586 0.0
O843 O 0.62698 0.42451 0.50204 0.0
H844 H 0.60185 0.3422 0.47335 0.0
H845 H 0.66409 0.41056 0.47407 0.0
H846 H 0.55127 0.25674 0.55641 0.0
H847 H 0.56893 0.44881 0.58491 0.0
H848 H 0.54042 0.25979 0.59465 0.0
H849 H 0.51866 0.43235 0.59302 0.0
O850 O 0.62799 0.32617 0.54257 0.0
H851 H 0.72275 0.41577 0.5363 0.0
H852 H 0.67606 0.3428 0.49069 0.0
H853 H 0.72916 0.34126 0.49595 0.0
H854 H 0.75293 0.37802 0.51881 0.0
H855 H 0.66981 0.4162 0.5309 0.0
H856 H 0.67047 0.40623 0.43576 0.0
H857 H 0.64234 0.36902 0.41604 0.0
O858 O 0.6277 0.33518 0.50831 0.0
C859 C 0.5669 0.36331 0.51038 0.0
C860 C 0.62032 0.35302 0.44352 0.0
C861 C 0.65545 0.392 0.44389 0.0
N862 N 0.63293 0.37635 0.47595 0.0
C863 C 0.61713 0.35606 0.4652 0.0
C864 C 0.65172 0.39439 0.46557 0.0
C865 C 0.63966 0.37111 0.43284 0.0
C866 C 0.57962 0.40968 0.56787 0.0
N867 N 0.57023 0.38315 0.56099 0.0
C868 C 0.56108 0.42813 0.57904 0.0
C869 C 0.53298 0.41883 0.58369 0.0
C870 C 0.52333 0.39208 0.57611 0.0
C871 C 0.54186 0.37509 0.56383 0.0
C872 C 0.55922 0.30248 0.5978 0.0
C873 C 0.57115 0.29902 0.55537 0.0
C874 C 0.57299 0.32537 0.58726 0.0
N875 N 0.57862 0.32355 0.56624 0.0
C876 C 0.55721 0.27585 0.56532 0.0
C877 C 0.55123 0.2776 0.5867 0.0
C878 C 0.63142 0.31763 0.52383 0.0
C879 C 0.71268 0.39974 0.52618 0.0
C880 C 0.68613 0.35884 0.50075 0.0
C881 C 0.71627 0.35788 0.50361 0.0
C882 C 0.7296 0.37852 0.51642 0.0
N883 N 0.66963 0.37984 0.51028 0.0
C884 C 0.68259 0.40003 0.52293 0.0
Co885 Co 0.40558 0.84455 0.2987 0.0
Co886 Co 0.38784 0.87756 0.25256 0.0
O887 O 0.37944 0.86931 0.28226 0.0
C888 C 0.38014 0.88812 0.32939 0.0
O889 O 0.36899 0.90443 0.31453 0.0
C890 C 0.32446 0.86258 0.25386 0.0
O891 O 0.33206 0.83939 0.26457 0.0
O892 O 0.38668 0.83509 0.24646 0.0
O893 O 0.41386 0.81963 0.27345 0.0
H894 H 0.43822 0.86249 0.18348 0.0
H895 H 0.34185 0.85257 0.30573 0.0
O896 O 0.39703 0.86687 0.32512 0.0
H897 H 0.3624 0.75133 0.32589 0.0
H898 H 0.44645 0.79143 0.36187 0.0
H899 H 0.46308 0.81994 0.28845 0.0
H900 H 0.39945 0.77998 0.3071 0.0
H901 H 0.40972 0.81993 0.34285 0.0
O902 O 0.34415 0.87995 0.2471 0.0
H903 H 0.42864 0.85346 0.22102 0.0
H904 H 0.36191 0.91757 0.22077 0.0
H905 H 0.50063 0.79227 0.30706 0.0
H906 H 0.30259 0.82249 0.32016 0.0
H907 H 0.49321 0.77883 0.34444 0.0
H908 H 0.31311 0.77182 0.33144 0.0
O909 O 0.43773 0.87141 0.29188 0.0
H910 H 0.34927 0.97034 0.2838 0.0
H911 H 0.42877 0.92621 0.24265 0.0
H912 H 0.43036 0.97866 0.25082 0.0
H913 H 0.39038 1.00108 0.27151 0.0
H914 H 0.3487 0.91789 0.27544 0.0
H915 H 0.37057 0.92713 0.1832 0.0
H916 H 0.40907 0.89957 0.16433 0.0
O917 O 0.43233 0.87575 0.25728 0.0
C918 C 0.40131 0.81545 0.25582 0.0
C919 C 0.42147 0.87472 0.19155 0.0
C920 C 0.38347 0.91097 0.19138 0.0
N921 N 0.39495 0.88517 0.2231 0.0
C922 C 0.41601 0.86976 0.21281 0.0
C923 C 0.37862 0.90543 0.21264 0.0
C924 C 0.40508 0.8955 0.18081 0.0
C925 C 0.3463 0.82996 0.30902 0.0
N926 N 0.37353 0.81852 0.30599 0.0
C927 C 0.32392 0.81313 0.31757 0.0
C928 C 0.32985 0.78477 0.32397 0.0
C929 C 0.3575 0.7732 0.32072 0.0
C930 C 0.37857 0.78981 0.31041 0.0
C931 C 0.45053 0.79815 0.34589 0.0
C932 C 0.45916 0.81375 0.30454 0.0
C933 C 0.42956 0.81409 0.33494 0.0
N934 N 0.43378 0.82137 0.31437 0.0
C935 C 0.48082 0.79832 0.31511 0.0
C936 C 0.47658 0.79077 0.33602 0.0
C937 C 0.44815 0.87724 0.27391 0.0
C938 C 0.36684 0.96082 0.27479 0.0
C939 C 0.41143 0.93572 0.25183 0.0
C940 C 0.41238 0.96548 0.25632 0.0
C941 C 0.38992 0.97805 0.26791 0.0
N942 N 0.38875 0.91894 0.2587 0.0
C943 C 0.36661 0.93114 0.26999 0.0
Co944 Co 0.60497 0.14083 0.54729 0.0
Co945 Co 0.63465 0.13042 0.49829 0.0
O946 O 0.63183 0.12162 0.52826 0.0
C947 C 0.65925 0.1313 0.57468 0.0
O948 O 0.6752 0.11772 0.56069 0.0
C949 C 0.62013 0.0675 0.50068 0.0
O950 O 0.59872 0.07589 0.51287 0.0
O951 O 0.59141 0.12931 0.49411 0.0
O952 O 0.57496 0.14417 0.52531 0.0
H953 H 0.61038 0.1826 0.43122 0.0
H954 H 0.63192 0.08476 0.5612 0.0
O955 O 0.6336 0.13999 0.57068 0.0
H956 H 0.52738 0.06395 0.55638 0.0
H957 H 0.55606 0.15432 0.61713 0.0
H958 H 0.56408 0.19131 0.54467 0.0
H959 H 0.54583 0.1133 0.54842 0.0
H960 H 0.58879 0.13061 0.5918 0.0
O961 O 0.63669 0.08684 0.49242 0.0
H962 H 0.60604 0.17164 0.469 0.0
H963 H 0.6706 0.10582 0.46371 0.0
H964 H 0.52974 0.21458 0.5693 0.0
H965 H 0.61383 0.037 0.57225 0.0
H966 H 0.52657 0.19681 0.60607 0.0
H967 H 0.56094 0.02632 0.56997 0.0
O968 O 0.62049 0.17954 0.53859 0.0
H969 H 0.7318 0.0928 0.52272 0.0
H970 H 0.68089 0.17257 0.48601 0.0
H971 H 0.73419 0.175 0.4906 0.0
H972 H 0.76 0.13486 0.50901 0.0
H973 H 0.6785 0.09141 0.518 0.0
H974 H 0.6754 0.11574 0.42581 0.0
H975 H 0.64527 0.1545 0.40936 0.0
O976 O 0.63245 0.1741 0.50438 0.0
C977 C 0.57123 0.13844 0.50608 0.0
C978 C 0.62374 0.16576 0.43822 0.0
C979 C 0.6602 0.1282 0.43518 0.0
N980 N 0.63833 0.13842 0.46856 0.0
C981 C 0.62147 0.15957 0.45961 0.0
C982 C 0.65735 0.12264 0.45663 0.0
C983 C 0.64329 0.14996 0.42596 0.0
C984 C 0.60884 0.08116 0.56131 0.0
N985 N 0.58999 0.10262 0.55519 0.0
C986 C 0.59871 0.0537 0.56721 0.0
C987 C 0.56909 0.04768 0.56586 0.0
C988 C 0.55016 0.069 0.55844 0.0
C989 C 0.5609 0.0967 0.55359 0.0
C990 C 0.55753 0.16247 0.60123 0.0
C991 C 0.56213 0.18293 0.56045 0.0
C992 C 0.57612 0.14922 0.58679 0.0
N993 N 0.57833 0.15953 0.5667 0.0
C994 C 0.5429 0.1964 0.57439 0.0
C995 C 0.5409 0.18627 0.59496 0.0
C996 C 0.6285 0.18995 0.52082 0.0
C997 C 0.72081 0.1104 0.51464 0.0
C998 C 0.69194 0.15512 0.49417 0.0
C999 C 0.72214 0.15656 0.49665 0.0
C1000 C 0.73661 0.13402 0.50696 0.0
N1001 N 0.67661 0.13185 0.5017 0.0
C1002 C 0.69064 0.10968 0.51185 0.0
Co1003 Co 0.13731 0.3934 0.74978 0.0
Co1004 Co 0.12844 0.36129 0.79768 0.0
O1005 O 0.14765 0.38888 0.7793 0.0
C1006 C 0.20049 0.38001 0.7505 0.0
O1007 O 0.19291 0.35749 0.76189 0.0
C1008 C 0.14487 0.41188 0.82696 0.0
O1009 O 0.15843 0.42761 0.81281 0.0
O1010 O 0.09029 0.38016 0.79157 0.0
O1011 O 0.09382 0.39002 0.75691 0.0
H1012 H 0.05024 0.29107 0.82006 0.0
H1013 H 0.17621 0.43695 0.76984 0.0
O1014 O 0.18059 0.39672 0.74308 0.0
H1015 H 0.09035 0.49235 0.74587 0.0
H1016 H 0.14838 0.43775 0.67805 0.0
H1017 H 0.09446 0.36641 0.72094 0.0
H1018 H 0.09369 0.43941 0.73972 0.0
H1019 H 0.15996 0.43124 0.71558 0.0
O1020 O 0.13355 0.38739 0.82248 0.0
H1021 H 0.07496 0.32444 0.7955 0.0
H1022 H 0.14146 0.33966 0.84057 0.0
H1023 H 0.08191 0.37242 0.68353 0.0
H1024 H 0.17389 0.48989 0.77613 0.0
H1025 H 0.10899 0.40828 0.66183 0.0
H1026 H 0.13068 0.51795 0.76414 0.0
O1027 O 0.13937 0.35042 0.74446 0.0
H1028 H 0.23521 0.35953 0.81717 0.0
H1029 H 0.15291 0.30138 0.79089 0.0
H1030 H 0.20178 0.27986 0.79188 0.0
H1031 H 0.24317 0.30832 0.80611 0.0
H1032 H 0.18721 0.3815 0.81295 0.0
H1033 H 0.11651 0.30772 0.86589 0.0
H1034 H 0.0702 0.28375 0.85583 0.0
O1035 O 0.1205 0.33395 0.7744 0.0
C1036 C 0.07885 0.38738 0.77394 0.0
C1037 C 0.07008 0.30188 0.8247 0.0
C1038 C 0.10737 0.31109 0.85042 0.0
N1039 N 0.10966 0.33399 0.81655 0.0
C1040 C 0.08437 0.32055 0.8108 0.0
C1041 C 0.12134 0.32922 0.83601 0.0
C1042 C 0.08147 0.2975 0.84472 0.0
C1043 C 0.15742 0.44902 0.76447 0.0
N1044 N 0.13513 0.4351 0.75442 0.0
C1045 C 0.15619 0.47899 0.76812 0.0
C1046 C 0.13193 0.49472 0.76141 0.0
C1047 C 0.10928 0.48036 0.75118 0.0
C1048 C 0.11125 0.45036 0.74781 0.0
C1049 C 0.1364 0.42207 0.68735 0.0
C1050 C 0.1062 0.38219 0.71161 0.0
C1051 C 0.14293 0.41824 0.70858 0.0
N1052 N 0.1278 0.39858 0.72041 0.0
C1053 C 0.09906 0.38544 0.69043 0.0
C1054 C 0.11429 0.40554 0.67826 0.0
C1055 C 0.12782 0.33041 0.75544 0.0
C1056 C 0.21716 0.34654 0.81153 0.0
C1057 C 0.1707 0.31449 0.79658 0.0
C1058 C 0.19841 0.3019 0.79736 0.0
C1059 C 0.22166 0.3179 0.80523 0.0
N1060 N 0.16632 0.34277 0.80253 0.0
C1061 C 0.18944 0.35881 0.80961 0.0
Co1062 Co 0.92128 0.86275 0.04437 0.0
Co1063 Co 0.88695 0.8809 -0.0006 0.0
O1064 O 0.89576 0.88906 0.02884 0.0
C1065 C 0.87901 0.88779 0.07628 0.0
O1066 O 0.85909 0.89365 0.06214 0.0
C1067 C 0.90208 0.94428 0.00097 0.0
O1068 O 0.92529 0.93625 0.01147 0.0
O1069 O 0.92952 0.88181 0.99291 0.0
O1070 O 0.94246 0.85095 0.01816 0.0
H1071 H 0.9004 0.83 0.9304 0.0
H1072 H 0.91691 0.92444 0.05898 0.0
O1073 O 0.90206 0.87385 0.07146 0.0
H1074 H 0.01821 0.91148 0.03596 0.0
H1075 H 0.9776 0.82861 0.10763 0.0
H1076 H 0.9431 0.8029 0.03683 0.0
H1077 H 0.98549 0.86923 0.03855 0.0
H1078 H 0.95227 0.86496 0.08574 0.0
O1079 O 0.88466 0.92474 0.99399 0.0
H1080 H 0.91037 0.83999 0.96775 0.0
H1081 H 0.84647 0.90689 0.96796 0.0
H1082 H 0.9686 0.7663 0.05784 0.0
H1083 H 0.95073 0.96573 0.06112 0.0
H1084 H 0.98533 0.77849 0.09391 0.0
H1085 H 1.00131 0.96005 0.04803 0.0
O1086 O 0.89294 0.83081 0.03935 0.0
H1087 H 0.79515 0.91977 0.03191 0.0
H1088 H 0.83789 0.84034 0.98993 0.0
H1089 H 0.78559 0.83902 -0.00132 0.0
H1090 H 0.76388 0.87898 0.01978 0.0
H1091 H 0.84742 0.92006 0.02298 0.0
H1092 H 0.83603 0.89791 0.93053 0.0
H1093 H 0.86298 0.8591 0.91154 0.0
O1094 O 0.88858 0.83641 0.00457 0.0
C1095 C 0.94814 0.865 0.00144 0.0
C1096 C 0.88843 0.84689 0.93852 0.0
C1097 C 0.85232 0.88503 0.93859 0.0
N1098 N 0.87876 0.87372 0.97005 0.0
C1099 C 0.8939 0.85256 0.95968 0.0
C1100 C 0.85836 0.89005 0.95976 0.0
C1101 C 0.86745 0.86325 0.92795 0.0
C1102 C 0.93946 0.92096 0.05504 0.0
N1103 N 0.94899 0.89427 0.04843 0.0
C1104 C 0.95837 0.94474 0.05573 0.0
C1105 C 0.98676 0.94151 0.04848 0.0
C1106 C 0.99637 0.91422 0.04194 0.0
C1107 C 0.9775 0.89047 0.04298 0.0
C1108 C 0.97012 0.82282 0.09207 0.0
C1109 C 0.95077 0.8088 0.05225 0.0
C1110 C 0.95575 0.84334 0.0796 0.0
N1111 N 0.94572 0.836 0.06011 0.0
C1112 C 0.96514 0.78781 0.0642 0.0
C1113 C 0.97448 0.79473 0.08438 0.0
C1114 C 0.88763 0.82027 0.02116 0.0
C1115 C 0.80435 0.90225 0.02269 0.0
C1116 C 0.82866 0.8577 -0.00075 0.0
C1117 C 0.799 0.85689 0.00408 0.0
C1118 C 0.78682 0.87933 0.0159 0.0
N1119 N 0.84571 0.88024 0.00598 0.0
C1120 C 0.83392 0.90234 0.01753 0.0
Co1121 Co 0.3849 0.6323 0.25121 0.0
Co1122 Co 0.39654 0.66793 0.29647 0.0
O1123 O 0.37624 0.63864 0.28042 0.0
C1124 C 0.31927 0.62727 0.25806 0.0
O1125 O 0.32385 0.62682 0.2783 0.0
C1126 C 0.38128 0.62165 0.32882 0.0
O1127 O 0.38692 0.5994 0.31654 0.0
O1128 O 0.43265 0.64442 0.29288 0.0
O1129 O 0.42886 0.6367 0.2579 0.0
H1130 H 0.48442 0.72204 0.32149 0.0
H1131 H 0.35315 0.58577 0.27681 0.0
O1132 O 0.34079 0.62863 0.24505 0.0
H1133 H 0.4361 0.53614 0.24375 0.0
H1134 H 0.37141 0.58644 0.1802 0.0
H1135 H 0.42624 0.6591 0.22122 0.0
H1136 H 0.42817 0.58847 0.23798 0.0
H1137 H 0.36114 0.59365 0.21787 0.0
O1138 O 0.38547 0.6476 0.32272 0.0
H1139 H 0.4553 0.69553 0.29531 0.0
H1140 H 0.38158 0.69986 0.33543 0.0
H1141 H 0.43756 0.65236 0.1837 0.0
H1142 H 0.35999 0.53371 0.28268 0.0
H1143 H 0.41 0.61581 0.16292 0.0
H1144 H 0.40175 0.50822 0.26611 0.0
O1145 O 0.38095 0.67503 0.2453 0.0
H1146 H 0.28881 0.68081 0.30791 0.0
H1147 H 0.37936 0.72954 0.28609 0.0
H1148 H 0.3323 0.75393 0.28015 0.0
H1149 H 0.28658 0.72989 0.29158 0.0
H1150 H 0.33581 0.65575 0.31111 0.0
H1151 H 0.40993 0.7269 0.36171 0.0
H1152 H 0.46234 0.73639 0.3554 0.0
O1153 O 0.40903 0.69033 0.2713 0.0
C1154 C 0.44416 0.63826 0.27501 0.0
C1155 C 0.46182 0.71763 0.32448 0.0
C1156 C 0.41999 0.72032 0.34711 0.0
N1157 N 0.41682 0.69588 0.31387 0.0
C1158 C 0.44513 0.70272 0.30969 0.0
C1159 C 0.40399 0.7052 0.33204 0.0
C1160 C 0.44932 0.72584 0.34348 0.0
C1161 C 0.37083 0.57528 0.269 0.0
N1162 N 0.3894 0.59051 0.25633 0.0
C1163 C 0.37487 0.54552 0.27263 0.0
C1164 C 0.39834 0.53125 0.2634 0.0
C1165 C 0.41758 0.54689 0.25085 0.0
C1166 C 0.41285 0.5766 0.2476 0.0
C1167 C 0.38358 0.6024 0.18909 0.0
C1168 C 0.41433 0.64303 0.2123 0.0
C1169 C 0.37778 0.60665 0.21037 0.0
N1170 N 0.39325 0.62661 0.2217 0.0
C1171 C 0.42075 0.63937 0.19105 0.0
C1172 C 0.40526 0.61888 0.17941 0.0
C1173 C 0.3973 0.69419 0.25352 0.0
C1174 C 0.30857 0.69151 0.30277 0.0
C1175 C 0.35955 0.71822 0.29015 0.0
C1176 C 0.33292 0.73239 0.28707 0.0
C1177 C 0.3073 0.71896 0.29355 0.0
N1178 N 0.36054 0.69055 0.29801 0.0
C1179 C 0.33546 0.67752 0.30477 0.0
Co1180 Co 0.59856 0.86048 0.44402 0.0
Co1181 Co 0.63464 0.87814 0.48828 0.0
O1182 O 0.62573 0.88556 0.45894 0.0
C1183 C 0.64182 0.88226 0.41204 0.0
O1184 O 0.66315 0.88268 0.42573 0.0
C1185 C 0.635 0.94394 0.48084 0.0
O1186 O 0.63361 0.93952 0.46058 0.0
O1187 O 0.59224 0.88035 0.49475 0.0
O1188 O 0.57811 0.84867 0.47058 0.0
H1189 H 0.62019 0.82789 0.5575 0.0
H1190 H 0.60391 0.92211 0.4299 0.0
O1191 O 0.61701 0.87186 0.41684 0.0
H1192 H 0.50357 0.91154 0.45573 0.0
H1193 H 0.53954 0.82899 0.38148 0.0
H1194 H 0.57639 0.80068 0.45121 0.0
H1195 H 0.53447 0.86832 0.45043 0.0
H1196 H 0.566 0.86442 0.40344 0.0
O1197 O 0.6364 0.92234 0.49373 0.0
H1198 H 0.61125 0.83704 0.51988 0.0
H1199 H 0.67412 0.90481 0.51997 0.0
H1200 H 0.54991 0.76484 0.42996 0.0
H1201 H 0.57263 0.96549 0.4325 0.0
H1202 H 0.53205 0.77846 0.39449 0.0
H1203 H 0.5223 0.96054 0.44636 0.0
O1204 O 0.62638 0.82818 0.44835 0.0
H1205 H 0.7298 0.90933 0.45483 0.0
H1206 H 0.68163 0.8373 0.50039 0.0
H1207 H 0.73399 0.83253 0.49308 0.0
H1208 H 0.75855 0.86879 0.47023 0.0
H1209 H 0.6777 0.91303 0.46226 0.0
H1210 H 0.68357 0.89664 0.55766 0.0
H1211 H 0.65657 0.85784 0.57663 0.0
O1212 O 0.63238 0.83362 0.48312 0.0
C1213 C 0.57303 0.86364 0.48698 0.0
C1214 C 0.63215 0.8448 0.54939 0.0
C1215 C 0.66769 0.88342 0.54949 0.0
N1216 N 0.64231 0.87127 0.51776 0.0
C1217 C 0.62724 0.85001 0.52809 0.0
C1218 C 0.6622 0.88802 0.52819 0.0
C1219 C 0.65255 0.86164 0.56012 0.0
C1220 C 0.58173 0.91955 0.43511 0.0
N1221 N 0.57148 0.89279 0.44088 0.0
C1222 C 0.56415 0.94428 0.43669 0.0
C1223 C 0.53594 0.94149 0.44442 0.0
C1224 C 0.52528 0.91397 0.44945 0.0
C1225 C 0.54307 0.88961 0.44675 0.0
C1226 C 0.54748 0.82265 0.39681 0.0
C1227 C 0.56811 0.80714 0.43605 0.0
C1228 C 0.5624 0.84265 0.40935 0.0
N1229 N 0.57299 0.83459 0.42855 0.0
C1230 C 0.55324 0.78662 0.42399 0.0
C1231 C 0.54325 0.79433 0.40411 0.0
C1232 C 0.63281 0.81771 0.46637 0.0
C1233 C 0.71941 0.89353 0.46497 0.0
C1234 C 0.692 0.85328 0.49044 0.0
C1235 C 0.72176 0.85042 0.48637 0.0
C1236 C 0.73552 0.87075 0.47356 0.0
N1237 N 0.67626 0.87587 0.48214 0.0
C1238 C 0.68969 0.8957 0.46942 0.0
Co1239 Co 0.39023 0.39139 0.74466 0.0
Co1240 Co 0.41091 0.35701 0.7003 0.0
O1241 O 0.38569 0.38482 0.71465 0.0
C1242 C 0.3252 0.39375 0.73446 0.0
O1243 O 0.33155 0.39303 0.71448 0.0
C1244 C 0.38953 0.39937 0.66678 0.0
O1245 O 0.38194 0.41953 0.68029 0.0
O1246 O 0.44426 0.38315 0.70658 0.0
O1247 O 0.43508 0.38909 0.74118 0.0
H1248 H 0.50053 0.29491 0.69237 0.0
H1249 H 0.35863 0.43645 0.71817 0.0
O1250 O 0.34562 0.39368 0.74833 0.0
H1251 H 0.43628 0.48971 0.75486 0.0
H1252 H 0.36681 0.43636 0.81466 0.0
H1253 H 0.42817 0.36526 0.77713 0.0
H1254 H 0.43024 0.43704 0.76032 0.0
H1255 H 0.36148 0.42934 0.77645 0.0
O1256 O 0.40295 0.37646 0.67268 0.0
H1257 H 0.46711 0.32776 0.71085 0.0
H1258 H 0.40992 0.32753 0.65842 0.0
H1259 H 0.43454 0.3718 0.81529 0.0
H1260 H 0.36365 0.48887 0.71251 0.0
H1261 H 0.40368 0.40757 0.8343 0.0
H1262 H 0.40275 0.51611 0.73089 0.0
O1263 O 0.38672 0.34842 0.7499 0.0
H1264 H 0.30533 0.33709 0.68584 0.0
H1265 H 0.39946 0.29309 0.70518 0.0
H1266 H 0.35425 0.26479 0.70963 0.0
H1267 H 0.3068 0.2866 0.69985 0.0
H1268 H 0.35039 0.3656 0.68405 0.0
H1269 H 0.44482 0.29796 0.63837 0.0
H1270 H 0.49115 0.28237 0.65516 0.0
O1271 O 0.42016 0.33578 0.72686 0.0
C1272 C 0.45251 0.39001 0.7252 0.0
C1273 C 0.48077 0.30217 0.68472 0.0
C1274 C 0.44963 0.30407 0.6544 0.0
N1275 N 0.43655 0.33005 0.68571 0.0
C1276 C 0.46149 0.32057 0.69524 0.0
C1277 C 0.43007 0.32117 0.66577 0.0
C1278 C 0.47541 0.29502 0.66388 0.0
C1279 C 0.3753 0.44776 0.72659 0.0
N1280 N 0.39355 0.43332 0.73998 0.0
C1281 C 0.37824 0.47767 0.72316 0.0
C1282 C 0.40021 0.49294 0.73342 0.0
C1283 C 0.419 0.47814 0.74686 0.0
C1284 C 0.4154 0.44823 0.74989 0.0
C1285 C 0.3804 0.42074 0.80655 0.0
C1286 C 0.41484 0.38099 0.7853 0.0
C1287 C 0.37741 0.4166 0.78495 0.0
N1288 N 0.39466 0.39706 0.77461 0.0
C1289 C 0.41846 0.38454 0.8069 0.0
C1290 C 0.40111 0.40459 0.81756 0.0
C1291 C 0.40415 0.32965 0.74241 0.0
C1292 C 0.32585 0.32733 0.69039 0.0
C1293 C 0.37885 0.303 0.70127 0.0
C1294 C 0.35336 0.28676 0.70361 0.0
C1295 C 0.32667 0.29908 0.69824 0.0
N1296 N 0.37755 0.33162 0.69556 0.0
C1297 C 0.35163 0.34336 0.68923 0.0
Co1298 Co 0.92171 0.15392 0.9443 0.0
Co1299 Co 0.88537 0.13396 0.98795 0.0
O1300 O 0.89526 0.12728 0.95862 0.0
C1301 C 0.88025 0.13186 0.91102 0.0
O1302 O 0.85812 0.13145 0.92403 0.0
C1303 C 0.88765 0.06799 0.98047 0.0
O1304 O 0.88999 0.07263 0.96029 0.0
O1305 O 0.92769 0.13334 0.99495 0.0
O1306 O 0.94075 0.16617 0.97127 0.0
H1307 H 0.89631 0.1838 0.0576 0.0
H1308 H 0.91928 0.09218 0.93055 0.0
O1309 O 0.90476 0.14214 0.91664 0.0
H1310 H 0.01897 0.10745 0.95654 0.0
H1311 H 0.97995 0.18994 0.88266 0.0
H1312 H 0.94102 0.21446 0.95248 0.0
H1313 H 0.9861 0.14919 0.95095 0.0
H1314 H 0.95564 0.15253 0.90417 0.0
O1315 O 0.88499 0.08954 0.99329 0.0
H1316 H 0.90646 0.17547 0.02006 0.0
H1317 H 0.84607 0.10548 0.01898 0.0
H1318 H 0.9655 0.25221 0.93181 0.0
H1319 H 0.95238 0.05017 0.93372 0.0
H1320 H 0.98451 0.24049 0.89627 0.0
H1321 H 1.00236 0.05753 0.94772 0.0
O1322 O 0.89229 0.18491 0.94842 0.0
H1323 H 0.79284 0.09962 0.9525 0.0
H1324 H 0.83631 0.17252 -0.00026 0.0
H1325 H 0.78399 0.17511 0.99161 0.0
H1326 H 0.7618 0.13838 0.96792 0.0
H1327 H 0.84487 0.09809 0.96076 0.0
H1328 H 0.83546 0.11281 0.05657 0.0
H1329 H 0.86058 0.15231 0.0761 0.0
O1330 O 0.88604 0.17869 0.98309 0.0
C1331 C 0.94626 0.15109 0.98755 0.0
C1332 C 0.88516 0.16658 0.04925 0.0
C1333 C 0.85104 0.1267 0.04868 0.0
N1334 N 0.87671 0.14018 0.01735 0.0
C1335 C 0.89075 0.16183 0.02799 0.0
C1336 C 0.8572 0.12259 0.02743 0.0
C1337 C 0.86513 0.14888 0.05962 0.0
C1338 C 0.94128 0.09571 0.93588 0.0
N1339 N 0.95032 0.12297 0.94142 0.0
C1340 C 0.95991 0.07179 0.93775 0.0
C1341 C 0.98792 0.07593 0.94555 0.0
C1342 C 0.99735 0.10398 0.95032 0.0
C1343 C 0.97852 0.12749 0.94738 0.0
C1344 C 0.97157 0.19546 0.89802 0.0
C1345 C 0.94978 0.20881 0.93731 0.0
C1346 C 0.9578 0.17433 0.91029 0.0
N1347 N 0.94648 0.18132 0.92947 0.0
C1348 C 0.96354 0.23043 0.92556 0.0
C1349 C 0.97412 0.2238 0.90565 0.0
C1350 C 0.88539 0.19493 0.96648 0.0
C1351 C 0.80217 0.11558 0.96303 0.0
C1352 C 0.82694 0.15633 0.98946 0.0
C1353 C 0.79722 0.15796 0.98491 0.0
C1354 C 0.78479 0.13736 0.97163 0.0
N1355 N 0.8439 0.13465 0.98119 0.0
C1356 C 0.83182 0.11463 0.96796 0.0
Co1357 Co 0.1321 0.6354 0.24404 0.0
Co1358 Co 0.1266 0.66737 0.19624 0.0
O1359 O 0.14432 0.63993 0.21517 0.0
C1360 C 0.19534 0.6478 0.24486 0.0
O1361 O 0.18825 0.67169 0.23481 0.0
C1362 C 0.12609 0.61843 0.16477 0.0
O1363 O 0.10454 0.60519 0.17437 0.0
O1364 O 0.088 0.64816 0.20069 0.0
O1365 O 0.08907 0.63982 0.23564 0.0
H1366 H 0.04881 0.7348 0.16916 0.0
H1367 H 0.17069 0.59126 0.22423 0.0
O1368 O 0.17504 0.63101 0.25158 0.0
H1369 H 0.08299 0.53751 0.24644 0.0
H1370 H 0.13872 0.59054 0.31587 0.0
H1371 H 0.08816 0.66297 0.27173 0.0
H1372 H 0.08732 0.59026 0.25309 0.0
H1373 H 0.15247 0.59716 0.27873 0.0
O1374 O 0.13697 0.64149 0.17234 0.0
H1375 H 0.07241 0.70322 0.19548 0.0
H1376 H 0.14321 0.6887 0.15386 0.0
H1377 H 0.07347 0.65689 0.30872 0.0
H1378 H 0.16738 0.5385 0.21745 0.0
H1379 H 0.09885 0.62046 0.33104 0.0
H1380 H 0.12326 0.51127 0.22855 0.0
O1381 O 0.1346 0.67832 0.24935 0.0
H1382 H 0.23438 0.6696 0.18146 0.0
H1383 H 0.14958 0.72779 0.20352 0.0
H1384 H 0.19817 0.75018 0.20327 0.0
H1385 H 0.24088 0.72145 0.19143 0.0
H1386 H 0.18606 0.6471 0.18401 0.0
H1387 H 0.11947 0.71879 0.12682 0.0
H1388 H 0.07151 0.74146 0.13422 0.0
O1389 O 0.11591 0.69453 0.21916 0.0
C1390 C 0.07515 0.64218 0.2181 0.0
C1391 C 0.06937 0.72457 0.16568 0.0
C1392 C 0.1091 0.71568 0.14191 0.0
N1393 N 0.10921 0.69412 0.17627 0.0
C1394 C 0.08306 0.70695 0.18059 0.0
C1395 C 0.1224 0.69858 0.1573 0.0
C1396 C 0.08229 0.72855 0.14612 0.0
C1397 C 0.15152 0.57954 0.22926 0.0
N1398 N 0.1293 0.5938 0.23916 0.0
C1399 C 0.14972 0.54968 0.22531 0.0
C1400 C 0.12495 0.53441 0.23152 0.0
C1401 C 0.10234 0.54913 0.24155 0.0
C1402 C 0.10489 0.579 0.24523 0.0
C1403 C 0.12747 0.60646 0.30629 0.0
C1404 C 0.09916 0.64695 0.28133 0.0
C1405 C 0.13523 0.61035 0.28529 0.0
N1406 N 0.12099 0.63029 0.2731 0.0
C1407 C 0.09082 0.64367 0.30227 0.0
C1408 C 0.10509 0.62324 0.31479 0.0
C1409 C 0.12311 0.69823 0.23819 0.0
C1410 C 0.21581 0.68257 0.1862 0.0
C1411 C 0.16799 0.71474 0.1988 0.0
C1412 C 0.19551 0.72773 0.1985 0.0
C1413 C 0.21948 0.7116 0.19188 0.0
N1414 N 0.16445 0.68621 0.19329 0.0
C1415 C 0.18813 0.67005 0.18732 0.0
Co1416 Co 0.41515 0.87258 0.44497 0.0
Co1417 Co 0.38767 0.88547 0.49445 0.0
O1418 O 0.3911 0.89411 0.46455 0.0
C1419 C 0.36488 0.89335 0.41761 0.0
O1420 O 0.35716 0.9149 0.42987 0.0
C1421 C 0.40849 0.94666 0.49285 0.0
O1422 O 0.43078 0.93621 0.48244 0.0
O1423 O 0.43096 0.88282 0.49798 0.0
O1424 O 0.44687 0.86902 0.46611 0.0
H1425 H 0.40822 0.83205 0.56168 0.0
H1426 H 0.39814 0.937 0.44468 0.0
O1427 O 0.3843 0.87499 0.423 0.0
H1428 H 0.4938 0.93305 0.41039 0.0
H1429 H 0.45501 0.84638 0.37379 0.0
H1430 H 0.45417 0.82123 0.44898 0.0
H1431 H 0.47363 0.88944 0.42699 0.0
H1432 H 0.42482 0.8741 0.3984 0.0
O1433 O 0.38901 0.92922 0.49985 0.0
H1434 H 0.4126 0.84182 0.52373 0.0
H1435 H 0.35491 0.91376 0.52917 0.0
H1436 H 0.48523 0.79326 0.4248 0.0
H1437 H 0.41835 0.98111 0.42943 0.0
H1438 H 0.48542 0.80543 0.38684 0.0
H1439 H 0.4664 0.97957 0.41165 0.0
O1440 O 0.39753 0.8355 0.45489 0.0
H1441 H 0.29378 0.93005 0.46951 0.0
H1442 H 0.33813 0.84802 0.50801 0.0
H1443 H 0.28475 0.85004 0.50382 0.0
H1444 H 0.26223 0.89135 0.48452 0.0
H1445 H 0.34706 0.92698 0.47387 0.0
H1446 H 0.3501 0.90496 0.56722 0.0
H1447 H 0.37679 0.86377 0.58368 0.0
O1448 O 0.38604 0.84163 0.48891 0.0
C1449 C 0.4509 0.87414 0.48553 0.0
C1450 C 0.39641 0.85001 0.55467 0.0
C1451 C 0.36382 0.89096 0.55779 0.0
N1452 N 0.38383 0.87817 0.52426 0.0
C1453 C 0.39873 0.85558 0.53319 0.0
C1454 C 0.36668 0.89588 0.53626 0.0
C1455 C 0.37879 0.86783 0.56701 0.0
C1456 C 0.41848 0.93518 0.43651 0.0
N1457 N 0.43298 0.90915 0.43502 0.0
C1458 C 0.43017 0.96078 0.42817 0.0
C1459 C 0.45715 0.95996 0.41833 0.0
C1460 C 0.4725 0.93388 0.41762 0.0
C1461 C 0.46049 0.90892 0.42671 0.0
C1462 C 0.45482 0.84052 0.39024 0.0
C1463 C 0.45444 0.82697 0.43255 0.0
C1464 C 0.43755 0.85606 0.40429 0.0
N1465 N 0.43808 0.84971 0.42529 0.0
C1466 C 0.47186 0.81083 0.41889 0.0
C1467 C 0.47203 0.81773 0.39761 0.0
C1468 C 0.38869 0.8256 0.4725 0.0
C1469 C 0.30332 0.91199 0.47801 0.0
C1470 C 0.3285 0.866 0.49951 0.0
C1471 C 0.29826 0.86706 0.49723 0.0
C1472 C 0.28564 0.89025 0.48641 0.0
N1473 N 0.34568 0.88748 0.49133 0.0
C1474 C 0.33348 0.9102 0.4806 0.0
Co1475 Co 0.90592 0.68012 0.19042 0.0
Co1476 Co 0.88543 0.64906 0.23643 0.0
O1477 O 0.87824 0.6565 0.20647 0.0
C1478 C 0.88253 0.6349 0.1603 0.0
O1479 O 0.87753 0.61582 0.17518 0.0
C1480 C 0.81928 0.65057 0.22975 0.0
O1481 O 0.82347 0.65373 0.2096 0.0
O1482 O 0.88432 0.69178 0.24111 0.0
O1483 O 0.91578 0.70407 0.21593 0.0
H1484 H 0.93506 0.66749 0.30537 0.0
H1485 H 0.84361 0.67623 0.17873 0.0
O1486 O 0.89575 0.65866 0.16413 0.0
H1487 H 0.87144 0.77793 0.16664 0.0
H1488 H 0.94792 0.73 0.1266 0.0
H1489 H 0.96482 0.70234 0.20026 0.0
H1490 H 0.90441 0.74509 0.1857 0.0
H1491 H 0.91009 0.70427 0.14651 0.0
O1492 O 0.84117 0.64832 0.24226 0.0
H1493 H 0.92617 0.67429 0.26749 0.0
H1494 H 0.8584 0.61143 0.26925 0.0
H1495 H 1.00288 0.72835 0.18109 0.0
H1496 H 0.80726 0.71023 0.16447 0.0
H1497 H 0.99525 0.74136 0.14352 0.0
H1498 H 0.82175 0.76131 0.15704 0.0
O1499 O 0.93613 0.65123 0.19727 0.0
H1500 H 0.84974 0.55367 0.20647 0.0
H1501 H 0.92497 0.60118 0.24967 0.0
H1502 H 0.92735 0.54826 0.2438 0.0
H1503 H 0.88946 0.52406 0.22214 0.0
H1504 H 0.84847 0.60641 0.21242 0.0
H1505 H 0.86635 0.60413 0.30718 0.0
H1506 H 0.90502 0.63219 0.32546 0.0
O1507 O 0.93032 0.64973 0.23193 0.0
C1508 C 0.90065 0.71033 0.23212 0.0
C1509 C 0.91822 0.65506 0.29756 0.0
C1510 C 0.87962 0.61953 0.29859 0.0
N1511 N 0.89199 0.64308 0.26617 0.0
C1512 C 0.91315 0.65876 0.27612 0.0
C1513 C 0.87517 0.62381 0.27713 0.0
C1514 C 0.90133 0.63527 0.30883 0.0
C1515 C 0.8489 0.69903 0.1779 0.0
N1516 N 0.87605 0.70849 0.18333 0.0
C1517 C 0.82853 0.71807 0.16911 0.0
C1518 C 0.8367 0.74666 0.16488 0.0
C1519 C 0.86439 0.75618 0.17058 0.0
C1520 C 0.88321 0.73721 0.181 0.0
C1521 C 0.95192 0.72372 0.1427 0.0
C1522 C 0.96086 0.7084 0.18415 0.0
C1523 C 0.93051 0.70911 0.15409 0.0
N1524 N 0.93505 0.70171 0.17462 0.0
C1525 C 0.98278 0.72293 0.17323 0.0
C1526 C 0.97838 0.73032 0.15228 0.0
C1527 C 0.94639 0.64662 0.21547 0.0
C1528 C 0.86629 0.56392 0.21604 0.0
C1529 C 0.90841 0.59094 0.24015 0.0
C1530 C 0.90986 0.56089 0.23693 0.0
C1531 C 0.8886 0.54733 0.2248 0.0
N1532 N 0.88633 0.60714 0.23162 0.0
C1533 C 0.86554 0.59393 0.21962 0.0
Co1534 Co 0.10264 0.14532 0.94377 0.0
Co1535 Co 0.13188 0.13321 0.99289 0.0
O1536 O 0.12729 0.12411 0.96317 0.0
C1537 C 0.15244 0.12453 0.91624 0.0
O1538 O 0.15959 0.10251 0.92827 0.0
C1539 C 0.11049 0.07208 0.99203 0.0
O1540 O 0.08804 0.08266 0.98184 0.0
O1541 O 0.08877 0.13626 -0.00288 0.0
O1542 O 0.07127 0.1484 0.96526 0.0
H1543 H 0.11422 0.18778 0.05999 0.0
H1544 H 0.11935 0.08071 0.94462 0.0
O1545 O 0.13331 0.14314 0.92174 0.0
H1546 H 0.02534 0.08433 0.90793 0.0
H1547 H 0.06374 0.17406 0.87262 0.0
H1548 H 0.06256 0.19565 0.94834 0.0
H1549 H 0.04477 0.12809 0.92455 0.0
H1550 H 0.09328 0.14513 0.897 0.0
O1551 O 0.13031 0.08944 -0.00134 0.0
H1552 H 0.10841 0.17751 0.02222 0.0
H1553 H 0.16555 0.10506 0.02727 0.0
H1554 H 0.03189 0.22446 0.92445 0.0
H1555 H 0.09971 0.03644 0.92936 0.0
H1556 H 0.03269 0.21416 0.88624 0.0
H1557 H 0.05257 0.03778 0.91032 0.0
O1558 O 0.11995 0.18258 0.95338 0.0
H1559 H 0.22448 0.08736 0.96678 0.0
H1560 H 0.18221 0.17039 0.00527 0.0
H1561 H 0.23542 0.16779 0.0002 0.0
H1562 H 0.25689 0.12598 0.98091 0.0
H1563 H 0.1714 0.091 0.97202 0.0
H1564 H 0.17178 0.11436 0.06515 0.0
H1565 H 0.1461 0.15606 0.08171 0.0
O1566 O 0.13376 0.17708 0.98696 0.0
C1567 C 0.06815 0.14399 0.98489 0.0
C1568 C 0.12561 0.16961 0.05294 0.0
C1569 C 0.15788 0.12836 0.05584 0.0
N1570 N 0.13682 0.14088 0.02256 0.0
C1571 C 0.12247 0.16375 0.03156 0.0
C1572 C 0.15421 0.12316 0.03441 0.0
C1573 C 0.14347 0.15178 0.06512 0.0
C1574 C 0.09937 0.08249 0.93598 0.0
N1575 N 0.08506 0.10855 0.93385 0.0
C1576 C 0.08802 0.05678 0.92759 0.0
C1577 C 0.06156 0.05749 0.91701 0.0
C1578 C 0.04635 0.08359 0.91563 0.0
C1579 C 0.058 0.10869 0.92474 0.0
C1580 C 0.0634 0.17903 0.8892 0.0
C1581 C 0.0626 0.19051 0.93181 0.0
C1582 C 0.08031 0.16281 0.90315 0.0
N1583 N 0.07928 0.16819 0.92427 0.0
C1584 C 0.04544 0.2072 0.9183 0.0
C1585 C 0.04589 0.20138 0.89687 0.0
C1586 C 0.12994 0.19287 0.97049 0.0
C1587 C 0.2154 0.10564 0.97527 0.0
C1588 C 0.19138 0.1522 -0.00323 0.0
C1589 C 0.22153 0.15081 0.994 0.0
C1590 C 0.23357 0.12733 0.98318 0.0
N1591 N 0.17373 0.13076 0.98907 0.0
C1592 C 0.18536 0.10776 0.97835 0.0
Co1593 Co 0.61746 0.36992 0.69757 0.0
Co1594 Co 0.64138 0.39118 0.74544 0.0
O1595 O 0.64741 0.38717 0.71506 0.0
C1596 C 0.64973 0.40904 0.6674 0.0
O1597 O 0.67237 0.41283 0.67965 0.0
C1598 C 0.70216 0.3691 0.74153 0.0
O1599 O 0.69084 0.34721 0.73113 0.0
O1600 O 0.63839 0.34833 0.74756 0.0
O1601 O 0.60835 0.34021 0.7202 0.0
H1602 H 0.59623 0.36788 0.81527 0.0
H1603 H 0.68329 0.36587 0.69203 0.0
O1604 O 0.62611 0.39814 0.67442 0.0
H1605 H 0.64355 0.27851 0.65802 0.0
H1606 H 0.56453 0.35263 0.62971 0.0
H1607 H 0.55756 0.35074 0.70669 0.0
H1608 H 0.61237 0.30891 0.6803 0.0
H1609 H 0.60846 0.3584 0.65139 0.0
O1610 O 0.68546 0.38904 0.74878 0.0
H1611 H 0.60191 0.36445 0.77688 0.0
H1612 H 0.67284 0.4237 0.77888 0.0
H1613 H 0.51321 0.3485 0.68564 0.0
H1614 H 0.71547 0.33499 0.67119 0.0
H1615 H 0.51624 0.34732 0.64669 0.0
H1616 H 0.69548 0.29157 0.65303 0.0
O1617 O 0.58961 0.39874 0.70893 0.0
H1618 H 0.68458 0.48481 0.71912 0.0
H1619 H 0.60626 0.44102 0.76163 0.0
H1620 H 0.60865 0.49445 0.75782 0.0
H1621 H 0.6481 0.51668 0.7365 0.0
H1622 H 0.68117 0.43149 0.72319 0.0
H1623 H 0.66816 0.42755 0.81735 0.0
H1624 H 0.62952 0.39963 0.83577 0.0
O1625 O 0.59664 0.39317 0.74302 0.0
C1626 C 0.62157 0.33186 0.73695 0.0
C1627 C 0.61304 0.38029 0.80741 0.0
C1628 C 0.65344 0.41375 0.80858 0.0
N1629 N 0.63733 0.39427 0.77563 0.0
C1630 C 0.61626 0.37855 0.78566 0.0
C1631 C 0.65599 0.41148 0.78681 0.0
C1632 C 0.63175 0.39808 0.81891 0.0
C1633 C 0.67395 0.34744 0.68419 0.0
N1634 N 0.64481 0.34147 0.68558 0.0
C1635 C 0.69258 0.32969 0.6725 0.0
C1636 C 0.68139 0.30533 0.66237 0.0
C1637 C 0.65223 0.29807 0.6651 0.0
C1638 C 0.63456 0.31572 0.67761 0.0
C1639 C 0.56289 0.35174 0.64656 0.0
C1640 C 0.55936 0.35072 0.68982 0.0
C1641 C 0.5877 0.35514 0.65899 0.0
N1642 N 0.58565 0.35525 0.68041 0.0
C1643 C 0.53403 0.34873 0.6779 0.0
C1644 C 0.5358 0.34886 0.65611 0.0
C1645 C 0.57987 0.39914 0.7275 0.0
C1646 C 0.66732 0.4754 0.72849 0.0
C1647 C 0.6234 0.45054 0.75224 0.0
C1648 C 0.62469 0.4808 0.75019 0.0
C1649 C 0.64684 0.49326 0.73823 0.0
N1650 N 0.64366 0.43319 0.74273 0.0
C1651 C 0.66534 0.44522 0.7309 0.0
Co1652 Co 0.41561 0.15196 0.54736 0.0
Co1653 Co 0.38703 0.13475 0.49955 0.0
O1654 O 0.39237 0.12689 0.52948 0.0
C1655 C 0.36712 0.12807 0.57466 0.0
O1656 O 0.35707 0.11095 0.55989 0.0
C1657 C 0.40644 0.07345 0.50265 0.0
O1658 O 0.42799 0.08417 0.51372 0.0
O1659 O 0.42986 0.13525 0.49525 0.0
O1660 O 0.44425 0.1591 0.52413 0.0
H1661 H 0.40624 0.18455 0.43075 0.0
H1662 H 0.4046 0.08845 0.55673 0.0
O1663 O 0.38839 0.14538 0.57146 0.0
H1664 H 0.50707 0.10648 0.57476 0.0
H1665 H 0.46559 0.18414 0.61386 0.0
H1666 H 0.44407 0.20863 0.54021 0.0
H1667 H 0.47894 0.14336 0.5557 0.0
H1668 H 0.43453 0.152 0.59251 0.0
O1669 O 0.38725 0.09074 0.49494 0.0
H1670 H 0.41245 0.17583 0.4687 0.0
H1671 H 0.35123 0.10664 0.46635 0.0
H1672 H 0.4742 0.24168 0.56113 0.0
H1673 H 0.43293 0.04967 0.57361 0.0
H1674 H 0.48492 0.23005 0.59835 0.0
H1675 H 0.48448 0.05876 0.58345 0.0
O1676 O 0.39164 0.18547 0.53872 0.0
H1677 H 0.29273 0.09291 0.52592 0.0
H1678 H 0.33823 0.17417 0.48737 0.0
H1679 H 0.28505 0.174 0.49276 0.0
H1680 H 0.26194 0.13311 0.51211 0.0
H1681 H 0.34586 0.09414 0.52038 0.0
H1682 H 0.34457 0.11434 0.42832 0.0
H1683 H 0.37209 0.15365 0.4103 0.0
O1684 O 0.3872 0.17932 0.50407 0.0
C1685 C 0.4492 0.14819 0.50606 0.0
C1686 C 0.39402 0.16745 0.43844 0.0
C1687 C 0.35944 0.12801 0.43707 0.0
N1688 N 0.3819 0.14105 0.46974 0.0
C1689 C 0.39735 0.16251 0.45993 0.0
C1690 C 0.36331 0.12373 0.45858 0.0
C1691 C 0.37488 0.15008 0.42697 0.0
C1692 C 0.42698 0.09262 0.56058 0.0
N1693 N 0.43941 0.11902 0.55633 0.0
C1694 C 0.44305 0.07039 0.57008 0.0
C1695 C 0.47199 0.07543 0.57546 0.0
C1696 C 0.48482 0.10198 0.57034 0.0
C1697 C 0.46852 0.12305 0.55984 0.0
C1698 C 0.46048 0.18999 0.59784 0.0
C1699 C 0.44845 0.2033 0.55642 0.0
C1700 C 0.44296 0.17182 0.58565 0.0
N1701 N 0.43778 0.17824 0.56503 0.0
C1702 C 0.46542 0.22228 0.56826 0.0
C1703 C 0.47144 0.2156 0.58912 0.0
C1704 C 0.38648 0.19557 0.52053 0.0
C1705 C 0.30254 0.11087 0.51748 0.0
C1706 C 0.32839 0.15646 0.49601 0.0
C1707 C 0.29824 0.15641 0.49891 0.0
C1708 C 0.28528 0.13344 0.50974 0.0
N1709 N 0.34518 0.13427 0.50368 0.0
C1710 C 0.33262 0.11166 0.51427 0.0
Co1711 Co 0.61709 0.67518 0.30032 0.0
Co1712 Co 0.63296 0.64358 0.25331 0.0
O1713 O 0.64204 0.65054 0.28295 0.0
C1714 C 0.64332 0.63004 0.32959 0.0
O1715 O 0.65504 0.61499 0.3143 0.0
C1716 C 0.69636 0.65878 0.25367 0.0
O1717 O 0.68899 0.68167 0.26475 0.0
O1718 O 0.6342 0.68618 0.24794 0.0
O1719 O 0.60858 0.70137 0.27578 0.0
H1720 H 0.58105 0.66175 0.18517 0.0
H1721 H 0.68123 0.66586 0.30592 0.0
O1722 O 0.62605 0.65122 0.32594 0.0
H1723 H 0.66286 0.76741 0.32651 0.0
H1724 H 0.58098 0.72472 0.36638 0.0
H1725 H 0.56112 0.70474 0.29186 0.0
H1726 H 0.62461 0.7391 0.30909 0.0
H1727 H 0.61512 0.69541 0.34559 0.0
O1728 O 0.67653 0.64125 0.24728 0.0
H1729 H 0.59184 0.66945 0.22268 0.0
H1730 H 0.65737 0.6042 0.22058 0.0
H1731 H 0.52817 0.73643 0.31149 0.0
H1732 H 0.72167 0.69549 0.31917 0.0
H1733 H 0.53635 0.74459 0.3496 0.0
H1734 H 0.71233 0.74627 0.33079 0.0
O1735 O 0.58359 0.64978 0.29342 0.0
H1736 H 0.67185 0.54929 0.28204 0.0
H1737 H 0.59124 0.59568 0.24327 0.0
H1738 H 0.58946 0.54296 0.25048 0.0
H1739 H 0.63 0.51939 0.26997 0.0
H1740 H 0.67259 0.60204 0.27468 0.0
H1741 H 0.64763 0.59606 0.18297 0.0
H1742 H 0.60908 0.62484 0.16505 0.0
O1743 O 0.58873 0.64559 0.25871 0.0
C1744 C 0.62026 0.70574 0.25787 0.0
C1745 C 0.59784 0.64901 0.19281 0.0
C1746 C 0.63522 0.61216 0.19157 0.0
N1747 N 0.62502 0.63711 0.22382 0.0
C1748 C 0.60397 0.65321 0.21405 0.0
C1749 C 0.6407 0.61692 0.21285 0.0
C1750 C 0.61359 0.62831 0.18153 0.0
C1751 C 0.67721 0.68845 0.3095 0.0
N1752 N 0.64997 0.7002 0.30737 0.0
C1753 C 0.70027 0.70506 0.31732 0.0
C1754 C 0.69503 0.7335 0.32385 0.0
C1755 C 0.66738 0.74548 0.32126 0.0
C1756 C 0.64553 0.729 0.31182 0.0
C1757 C 0.57646 0.72034 0.35003 0.0
C1758 C 0.56598 0.70938 0.30808 0.0
C1759 C 0.59575 0.70361 0.33814 0.0
N1760 N 0.59056 0.69849 0.31732 0.0
C1761 C 0.54662 0.72671 0.31934 0.0
C1762 C 0.55153 0.73162 0.34058 0.0
C1763 C 0.5729 0.64467 0.27535 0.0
C1764 C 0.65403 0.55931 0.27356 0.0
C1765 C 0.60883 0.58568 0.25196 0.0
C1766 C 0.60777 0.55577 0.25589 0.0
C1767 C 0.63054 0.54255 0.2668 0.0
N1768 N 0.63191 0.60199 0.2587 0.0
C1769 C 0.65435 0.58916 0.26932 0.0
Co1770 Co 0.10518 0.87042 0.04757 0.0
Co1771 Co 0.13335 0.88393 -0.00166 0.0
O1772 O 0.12964 0.89196 0.02824 0.0
C1773 C 0.15652 0.88949 0.07429 0.0
O1774 O 0.1665 0.90842 0.06067 0.0
C1775 C 0.11175 0.94488 0.00056 0.0
O1776 O 0.08984 0.93383 0.01109 0.0
O1777 O 0.09024 0.8811 0.99453 0.0
O1778 O 0.07345 0.86758 0.02624 0.0
H1779 H 0.11364 0.83162 0.93062 0.0
H1780 H 0.12462 0.93385 0.05002 0.0
O1781 O 0.13584 0.87213 0.06975 0.0
H1782 H 0.02738 0.93189 0.08204 0.0
H1783 H 0.06234 0.8466 0.11816 0.0
H1784 H 0.06602 0.81921 0.0435 0.0
H1785 H 0.04653 0.88848 0.06441 0.0
H1786 H 0.09451 0.87256 0.09392 0.0
O1787 O 0.13146 0.92786 0.99328 0.0
H1788 H 0.10859 0.84098 0.96856 0.0
H1789 H 0.16645 0.91281 0.96404 0.0
H1790 H 0.03318 0.79268 0.06737 0.0
H1791 H 0.10547 0.97789 0.06616 0.0
H1792 H 0.0316 0.80591 0.10511 0.0
H1793 H 0.05663 0.97726 0.08282 0.0
O1794 O 0.12227 0.83316 0.03742 0.0
H1795 H 0.22682 0.92943 0.0231 0.0
H1796 H 0.18319 0.84664 0.98517 0.0
H1797 H 0.23655 0.84906 0.98941 0.0
H1798 H 0.2587 0.89075 0.00842 0.0
H1799 H 0.17358 0.92595 0.01872 0.0
H1800 H 0.17187 0.9045 0.92598 0.0
H1801 H 0.14547 0.86354 0.90906 0.0
O1802 O 0.13517 0.83995 0.0037 0.0
C1803 C 0.06995 0.87267 0.00672 0.0
C1804 C 0.12536 0.84945 0.93782 0.0
C1805 C 0.15801 0.89039 0.93521 0.0
N1806 N 0.13752 0.87716 0.96851 0.0
C1807 C 0.12269 0.85477 0.9593 0.0
C1808 C 0.15482 0.89503 0.95674 0.0
C1809 C 0.1432 0.8674 0.92573 0.0
C1810 C 0.10373 0.93255 0.05746 0.0
N1811 N 0.08807 0.90714 0.05772 0.0
C1812 C 0.09272 0.95806 0.06638 0.0
C1813 C 0.06531 0.95776 0.07562 0.0
C1814 C 0.0489 0.93234 0.07513 0.0
C1815 C 0.06024 0.90752 0.06543 0.0
C1816 C 0.06324 0.84009 0.10188 0.0
C1817 C 0.06517 0.82532 0.05982 0.0
C1818 C 0.08159 0.85468 0.08801 0.0
N1819 N 0.0817 0.84787 0.06711 0.0
C1820 C 0.04678 0.81 0.07332 0.0
C1821 C 0.04581 0.81752 0.09447 0.0
C1822 C 0.13154 0.82348 0.01985 0.0
C1823 C 0.21744 0.91118 0.01475 0.0
C1824 C 0.19266 0.86474 0.99359 0.0
C1825 C 0.22289 0.86605 -0.00413 0.0
C1826 C 0.23531 0.88946 0.00653 0.0
N1827 N 0.17529 0.8862 0.00163 0.0
C1828 C 0.1873 0.90915 0.01215 0.0
Co1829 Co 0.90878 0.35165 0.79924 0.0
Co1830 Co 0.8902 0.38519 0.75355 0.0
O1831 O 0.8824 0.37619 0.78307 0.0
C1832 C 0.88263 0.39452 0.83003 0.0
O1833 O 0.87092 0.41077 0.81537 0.0
C1834 C 0.82847 0.366 0.75472 0.0
O1835 O 0.83844 0.34294 0.76454 0.0
O1836 O 0.89069 0.34289 0.74695 0.0
O1837 O 0.9177 0.32716 0.77392 0.0
H1838 H 0.94013 0.37365 0.68396 0.0
H1839 H 0.84526 0.3588 0.80814 0.0
O1840 O 0.89997 0.37375 0.82556 0.0
H1841 H 0.86848 0.2566 0.82404 0.0
H1842 H 0.94576 0.2964 0.86237 0.0
H1843 H 0.96711 0.32763 0.79008 0.0
H1844 H 0.90333 0.28685 0.80453 0.0
H1845 H 0.91055 0.32615 0.84282 0.0
O1846 O 0.8463 0.38574 0.74866 0.0
H1847 H 0.93157 0.36351 0.72148 0.0
H1848 H 0.86209 0.42459 0.72242 0.0
H1849 H 1.00329 0.29886 0.80936 0.0
H1850 H 0.80788 0.32772 0.82415 0.0
H1851 H 0.99324 0.28381 0.84618 0.0
H1852 H 0.81987 0.27649 0.8333 0.0
O1853 O 0.94073 0.37878 0.7926 0.0
H1854 H 0.84802 0.47598 0.78542 0.0
H1855 H 0.92932 0.43544 0.74417 0.0
H1856 H 0.92886 0.48782 0.75268 0.0
H1857 H 0.88795 0.50844 0.7734 0.0
H1858 H 0.84956 0.42366 0.7768 0.0
H1859 H 0.86971 0.43524 0.68487 0.0
H1860 H 0.90906 0.40975 0.66541 0.0
O1861 O 0.93473 0.38474 0.7581 0.0
C1862 C 0.90505 0.32307 0.75633 0.0
C1863 C 0.923 0.38498 0.69228 0.0
C1864 C 0.88344 0.41952 0.69279 0.0
N1865 N 0.89658 0.39367 0.72414 0.0
C1866 C 0.91812 0.3794 0.71354 0.0
C1867 C 0.8792 0.41337 0.71403 0.0
C1868 C 0.90553 0.40522 0.68188 0.0
C1869 C 0.85019 0.33614 0.81083 0.0
N1870 N 0.87711 0.32512 0.80619 0.0
C1871 C 0.82893 0.31868 0.82015 0.0
C1872 C 0.83564 0.28997 0.82524 0.0
C1873 C 0.86273 0.27863 0.81975 0.0
C1874 C 0.8826 0.29611 0.80903 0.0
C1875 C 0.95087 0.30363 0.84665 0.0
C1876 C 0.96234 0.32101 0.80598 0.0
C1877 C 0.93091 0.32042 0.83544 0.0
N1878 N 0.93654 0.32851 0.81519 0.0
C1879 C 0.9831 0.30484 0.81691 0.0
C1880 C 0.97738 0.29631 0.83746 0.0
C1881 C 0.95078 0.38544 0.77466 0.0
C1882 C 0.86599 0.46726 0.7764 0.0
C1883 C 0.9116 0.44416 0.7534 0.0
C1884 C 0.91139 0.47389 0.75807 0.0
C1885 C 0.88841 0.48545 0.76967 0.0
N1886 N 0.88957 0.42645 0.76011 0.0
C1887 C 0.86694 0.43765 0.77143 0.0
C1888 C 0.1593 0.6241 0.134 0.0
C1889 C 0.13367 0.61194 0.14266 0.0
C1890 C 0.16311 0.62656 0.11223 0.0
C1891 C 0.14136 0.61706 0.09844 0.0
H1892 H 0.17562 0.63375 0.14412 0.0
H1893 H 0.18198 0.63806 0.10627 0.0
S1894 S 0.07297 0.57874 0.11275 0.0
N1895 N 0.08843 0.58638 0.13547 0.0
N1896 N 0.09541 0.59134 0.09469 0.0
C1897 C 0.11707 0.60236 0.1068 0.0
C1898 C 0.11333 0.59955 0.12891 0.0
C1899 C 0.61931 0.90681 0.38125 0.0
C1900 C 0.64467 0.89634 0.39122 0.0
C1901 C 0.6197 0.91586 0.36034 0.0
C1902 C 0.64545 0.91497 0.34856 0.0
H1903 H 0.59852 0.90651 0.38928 0.0
H1904 H 0.59917 0.92095 0.35276 0.0
S1905 S 0.71848 0.89328 0.36784 0.0
N1906 N 0.69693 0.88883 0.38836 0.0
N1907 N 0.69754 0.90581 0.34877 0.0
C1908 C 0.67149 0.90727 0.3588 0.0
C1909 C 0.67113 0.89794 0.38022 0.0
C1910 C 0.36975 0.37228 0.6362 0.0
C1911 C 0.37756 0.39921 0.64518 0.0
C1912 C 0.36271 0.36989 0.61498 0.0
C1913 C 0.3626 0.39441 0.60189 0.0
H1914 H 0.37017 0.35251 0.64543 0.0
H1915 H 0.35927 0.34837 0.60843 0.0
S1916 S 0.37719 0.4706 0.6181 0.0
N1917 N 0.38161 0.45143 0.63983 0.0
N1918 N 0.36785 0.44703 0.5997 0.0
C1919 C 0.36764 0.42191 0.61096 0.0
C1920 C 0.37518 0.42432 0.63271 0.0
C1921 C 0.85126 0.12255 0.87817 0.0
C1922 C 0.87763 0.12039 0.88933 0.0
C1923 C 0.85033 0.11713 0.85645 0.0
C1924 C 0.87561 0.10898 0.84541 0.0
H1925 H 0.83185 0.13063 0.88587 0.0
H1926 H 0.83045 0.12196 0.84797 0.0
S1927 S 0.94865 0.09535 0.86785 0.0
N1928 N 0.92856 0.10542 0.88804 0.0
N1929 N 0.92658 0.09585 0.8474 0.0
C1930 C 0.90125 0.10412 0.85671 0.0
C1931 C 0.90232 0.10968 0.87865 0.0
C1932 C 0.12309 0.41034 0.88276 0.0
C1933 C 0.14908 0.40169 0.89277 0.0
C1934 C 0.12263 0.41792 0.86155 0.0
C1935 C 0.14815 0.41744 0.84951 0.0
H1936 H 0.10253 0.40978 0.89107 0.0
H1937 H 0.10174 0.42172 0.85408 0.0
S1938 S 0.22246 0.40033 0.86867 0.0
N1939 N 0.20153 0.39626 0.88956 0.0
N1940 N 0.20062 0.41064 0.84942 0.0
C1941 C 0.17472 0.41156 0.85968 0.0
C1942 C 0.17521 0.40367 0.88141 0.0
C1943 C 0.90455 0.90847 0.10727 0.0
C1944 C 0.87804 0.90132 0.09739 0.0
C1945 C 0.90548 0.91726 0.12822 0.0
C1946 C 0.87995 0.91942 0.14017 0.0
H1947 H 0.92505 0.90601 0.09908 0.0
H1948 H 0.92657 0.91997 0.13563 0.0
S1949 S 0.80465 0.907 0.12116 0.0
N1950 N 0.82532 0.90016 0.10052 0.0
N1951 N 0.8271 0.91663 0.14021 0.0
C1952 C 0.85306 0.91497 0.13007 0.0
C1953 C 0.85209 0.90591 0.10858 0.0
C1954 C 0.3524 0.64389 0.38159 0.0
C1955 C 0.36203 0.62146 0.3947 0.0
C1956 C 0.3562 0.64213 0.35992 0.0
C1957 C 0.37066 0.61826 0.3506 0.0
H1958 H 0.34365 0.66379 0.38824 0.0
H1959 H 0.34952 0.66068 0.35058 0.0
S1960 S 0.39671 0.55221 0.37824 0.0
N1961 N 0.38337 0.57311 0.39702 0.0
N1962 N 0.39163 0.57024 0.35608 0.0
C1963 C 0.37815 0.59454 0.3634 0.0
C1964 C 0.37371 0.59613 0.38557 0.0
C1965 C 0.65874 0.16131 0.6279 0.0
C1966 C 0.64773 0.13755 0.63946 0.0
C1967 C 0.66777 0.15805 0.6071 0.0
C1968 C 0.66631 0.13093 0.59708 0.0
H1969 H 0.6588 0.18306 0.63449 0.0
H1970 H 0.67301 0.17745 0.59815 0.0
S1971 S 0.64415 0.06095 0.62121 0.0
N1972 N 0.63979 0.08515 0.64012 0.0
N1973 N 0.65687 0.0792 0.60084 0.0
C1974 C 0.65848 0.10645 0.60905 0.0
C1975 C 0.64907 0.10972 0.63029 0.0
C1976 C 0.86405 0.36794 0.86101 0.0
C1977 C 0.87074 0.39479 0.8515 0.0
C1978 C 0.85789 0.36604 0.88236 0.0
C1979 C 0.85835 0.39092 0.89507 0.0
H1980 H 0.86525 0.34788 0.85218 0.0
H1981 H 0.85553 0.34463 0.88934 0.0
S1982 S 0.8708 0.46686 0.8774 0.0
N1983 N 0.87407 0.44719 0.85581 0.0
N1984 N 0.86292 0.44365 0.89641 0.0
C1985 C 0.86219 0.41828 0.88548 0.0
C1986 C 0.86837 0.42022 0.86353 0.0
C1987 C 0.3534 0.14719 0.63027 0.0
C1988 C 0.36465 0.12275 0.64089 0.0
C1989 C 0.3509 0.14755 0.60849 0.0
C1990 C 0.35907 0.12329 0.5966 0.0
H1991 H 0.34854 0.16704 0.63869 0.0
H1992 H 0.34479 0.16773 0.6008 0.0
S1993 S 0.38592 0.05256 0.61696 0.0
N1994 N 0.38111 0.07267 0.63818 0.0
N1995 N 0.37582 0.07304 0.59689 0.0
C1996 C 0.36752 0.09766 0.60708 0.0
C1997 C 0.37041 0.09742 0.6294 0.0
C1998 C 0.65605 0.59763 0.38352 0.0
C1999 C 0.66291 0.62265 0.39531 0.0
C2000 C 0.65181 0.59943 0.36168 0.0
C2001 C 0.65385 0.62637 0.35131 0.0
H2002 H 0.65107 0.57734 0.39144 0.0
H2003 H 0.64457 0.58028 0.35323 0.0
S2004 S 0.67596 0.69687 0.375 0.0
N2005 N 0.67531 0.67384 0.39486 0.0
N2006 N 0.66711 0.67748 0.35418 0.0
C2007 C 0.66334 0.65075 0.3628 0.0
C2008 C 0.66804 0.64878 0.38475 0.0
C2009 C 0.15523 0.86853 0.13036 0.0
C2010 C 0.14857 0.895 0.14042 0.0
C2011 C 0.16211 0.86752 0.10911 0.0
C2012 C 0.16209 0.89289 0.09687 0.0
H2013 H 0.15366 0.84806 0.13867 0.0
H2014 H 0.16485 0.84638 0.10179 0.0
S2015 S 0.14905 0.96811 0.11591 0.0
N2016 N 0.14533 0.94758 0.13706 0.0
N2017 N 0.15735 0.94567 0.09654 0.0
C2018 C 0.15783 0.91985 0.10695 0.0
C2019 C 0.15117 0.92091 0.12888 0.0
C2020 C 0.86763 0.59984 0.10747 0.0
C2021 C 0.86143 0.62437 0.09496 0.0
C2022 C 0.87238 0.60279 0.12919 0.0
C2023 C 0.87151 0.63039 0.13873 0.0
H2024 H 0.8717 0.57891 0.10019 0.0
H2025 H 0.87911 0.58387 0.13814 0.0
S2026 S 0.85089 0.70015 0.11298 0.0
N2027 N 0.85034 0.67589 0.09392 0.0
N2028 N 0.85971 0.68176 0.13429 0.0
C2029 C 0.86249 0.65438 0.12654 0.0
C2030 C 0.8572 0.65125 0.10474 0.0
C2031 C 0.14656 0.10182 0.86009 0.0
C2032 C 0.14617 0.12924 0.85024 0.0
C2033 C 0.15265 0.0994 0.88168 0.0
C2034 C 0.15908 0.12429 0.89374 0.0
H2035 H 0.13995 0.08256 0.85152 0.0
H2036 H 0.1496 0.0785 0.88927 0.0
S2037 S 0.16661 0.19993 0.87461 0.0
N2038 N 0.15668 0.18097 0.85385 0.0
N2039 N 0.16914 0.17603 0.89383 0.0
C2040 C 0.16203 0.15106 0.88354 0.0
C2041 C 0.15515 0.15368 0.86193 0.0
C2042 C 0.62599 0.40058 0.61196 0.0
C2043 C 0.6504 0.38816 0.60207 0.0
C2044 C 0.62738 0.41127 0.63235 0.0
C2045 C 0.65288 0.40864 0.64431 0.0
H2046 H 0.60504 0.4009 0.60435 0.0
H2047 H 0.60743 0.41918 0.63945 0.0
S2048 S 0.72377 0.37981 0.62546 0.0
N2049 N 0.70181 0.37645 0.60504 0.0
N2050 N 0.70409 0.39472 0.64432 0.0
C2051 C 0.67815 0.39797 0.63433 0.0
C2052 C 0.67693 0.38793 0.61305 0.0
C2053 C 0.36911 0.91787 0.36156 0.0
C2054 C 0.36961 0.89082 0.35123 0.0
C2055 C 0.36376 0.91941 0.3833 0.0
C2056 C 0.35831 0.89398 0.39506 0.0
H2057 H 0.37494 0.93755 0.35317 0.0
H2058 H 0.3665 0.94014 0.39117 0.0
S2059 S 0.3515 0.81892 0.37461 0.0
N2060 N 0.36003 0.83887 0.35399 0.0
N2061 N 0.34955 0.84197 0.39439 0.0
C2062 C 0.35573 0.86747 0.38444 0.0
C2063 C 0.36162 0.86581 0.36262 0.0
C2064 C 0.02952 0.67636 -0.0017 0.0
C2065 C 0.04677 0.65222 0.99259 0.0
C2066 C 0.99934 0.67374 0.0005 0.0
C2067 C 0.98523 0.64727 -0.00364 0.0
H2068 H 0.03968 0.69648 0.00335 0.0
H2069 H 0.98726 0.69195 0.00693 0.0
S2070 S 0.01946 0.57992 0.97607 0.0
N2071 N 0.04695 0.6026 0.97938 0.0
N2072 N 0.9898 0.59816 0.98268 0.0
C2073 C 1.00155 0.62436 0.9877 0.0
C2074 C 0.03252 0.6268 0.98586 0.0
C2075 C 0.64523 0.74964 0.24329 0.0
C2076 C 0.61931 0.73577 0.24963 0.0
C2077 C 0.64683 0.78022 0.24202 0.0
C2078 C 0.62243 0.7975 0.24678 0.0
H2079 H 0.66506 0.7371 0.24142 0.0
H2080 H 0.66786 0.79034 0.23952 0.0
S2081 S 0.54856 0.77148 0.26041 0.0
N2082 N 0.56799 0.74143 0.25781 0.0
N2083 N 0.57092 0.79861 0.25508 0.0
C2084 C 0.59575 0.78365 0.2507 0.0
C2085 C 0.5942 0.7528 0.25227 0.0
C2086 C 0.49252 0.39196 0.49541 0.0
C2087 C 0.47485 0.36745 0.49877 0.0
C2088 C 0.52297 0.3899 0.49729 0.0
C2089 C 0.53643 0.36338 0.50288 0.0
H2090 H 0.48273 0.4133 0.49356 0.0
H2091 H 0.53571 0.40972 0.4963 0.0
S2092 S 0.49987 0.29195 0.509 0.0
N2093 N 0.47313 0.31512 0.50425 0.0
N2094 N 0.53011 0.31141 0.5084 0.0
C2095 C 0.51914 0.33826 0.50407 0.0
C2096 C 0.48837 0.34027 0.50176 0.0
C2097 C 0.92905 0.27497 0.75238 0.0
C2098 C 0.90499 0.29296 0.7481 0.0
C2099 C 0.9267 0.24466 0.75129 0.0
C2100 C 0.90016 0.23122 0.74605 0.0
H2101 H 0.94915 0.28427 0.75827 0.0
H2102 H 0.945 0.2316 0.75653 0.0
S2103 S 0.83193 0.2684 0.73059 0.0
N2104 N 0.85488 0.29519 0.73571 0.0
N2105 N 0.85039 0.23791 0.73426 0.0
C2106 C 0.87686 0.24883 0.73962 0.0
C2107 C 0.8793 0.27987 0.74051 0.0
C2108 C 0.99901 0.34233 0.98818 0.0
C2109 C 0.98432 0.36864 0.99179 0.0
C2110 C 0.02929 0.3405 0.99016 0.0
C2111 C 0.04608 0.36517 0.9953 0.0
H2112 H 0.98722 0.32355 0.98234 0.0
H2113 H 0.03986 0.32036 0.98559 0.0
S2114 S 0.01735 0.4383 0.0088 0.0
N2115 N 0.98804 0.41892 0.00321 0.0
N2116 N 0.0453 0.41585 0.00637 0.0
C2117 C 0.03134 0.39084 0.00104 0.0
C2118 C 1.0003 0.39255 -0.00073 0.0
C2119 C 0.87323 0.78558 0.24602 0.0
C2120 C 0.89806 0.80267 0.24222 0.0
C2121 C 0.87473 0.75497 0.24483 0.0
C2122 C 0.90101 0.74083 0.23955 0.0
H2123 H 0.85211 0.79586 0.24777 0.0
H2124 H 0.85472 0.74259 0.24607 0.0
S2125 S 0.97277 0.77599 0.23182 0.0
N2126 N 0.95021 0.80329 0.23622 0.0
N2127 N 0.95292 0.7461 0.23342 0.0
C2128 C 0.92636 0.75768 0.23781 0.0
C2129 C 0.92491 0.78855 0.23936 0.0
C2130 C 0.49042 0.67373 0.48918 0.0
C2131 C 0.47288 0.64964 0.49436 0.0
C2132 C 0.5206 0.6709 0.48722 0.0
C2133 C 0.53438 0.64405 0.49075 0.0
H2134 H 0.48053 0.69431 0.48482 0.0
H2135 H 0.53303 0.68936 0.48156 0.0
S2136 S 0.49907 0.57531 0.50726 0.0
N2137 N 0.47191 0.59875 0.50504 0.0
N2138 N 0.52902 0.59373 0.50172 0.0
C2139 C 0.51764 0.62056 0.49801 0.0
C2140 C 0.48671 0.62333 0.49984 0.0
C2141 C 0.59062 0.25607 0.74015 0.0
C2142 C 0.61542 0.23913 0.74483 0.0
C2143 C 0.59217 0.28645 0.73913 0.0
C2144 C 0.61833 0.30108 0.74341 0.0
H2145 H 0.57065 0.24567 0.73505 0.0
H2146 H 0.57328 0.29841 0.73363 0.0
S2147 S 0.68773 0.26721 0.76078 0.0
N2148 N 0.66565 0.23936 0.7568 0.0
N2149 N 0.66827 0.29672 0.75588 0.0
C2150 C 0.64216 0.28468 0.75088 0.0
C2151 C 0.64072 0.25357 0.75151 0.0
C2152 C 0.42827 0.28143 0.74367 0.0
C2153 C 0.40373 0.29853 0.74879 0.0
C2154 C 0.4257 0.25154 0.73987 0.0
C2155 C 0.39884 0.23737 0.74203 0.0
H2156 H 0.44896 0.29172 0.74024 0.0
H2157 H 0.44444 0.23982 0.73388 0.0
S2158 S 0.32963 0.27053 0.75999 0.0
N2159 N 0.35276 0.29808 0.75912 0.0
N2160 N 0.34843 0.2413 0.75322 0.0
C2161 C 0.37518 0.2532 0.75019 0.0
C2162 C 0.37756 0.28399 0.75347 0.0
C2163 C 0.14377 0.74494 0.25123 0.0
C2164 C 0.11925 0.72806 0.24611 0.0
C2165 C 0.14272 0.77554 0.24988 0.0
C2166 C 0.11721 0.78989 0.24315 0.0
H2167 H 0.16457 0.73447 0.25408 0.0
H2168 H 0.1627 0.78769 0.25209 0.0
S2169 S 0.04608 0.75527 0.23167 0.0
N2170 N 0.06795 0.72779 0.23718 0.0
N2171 N 0.06589 0.78501 0.23449 0.0
C2172 C 0.09186 0.77325 0.24025 0.0
C2173 C 0.09291 0.74236 0.24181 0.0
C2174 C 0.09519 0.25642 0.75246 0.0
C2175 C 0.11983 0.23866 0.7497 0.0
C2176 C 0.0973 0.28677 0.75129 0.0
C2177 C 0.12415 0.30054 0.74749 0.0
H2178 H 0.07451 0.24689 0.75695 0.0
H2179 H 0.07831 0.29966 0.7553 0.0
S2180 S 0.19466 0.264 0.73744 0.0
N2181 N 0.17147 0.23698 0.74118 0.0
N2182 N 0.17538 0.29428 0.73938 0.0
C2183 C 0.14843 0.28311 0.74294 0.0
C2184 C 0.14629 0.25204 0.74399 0.0
C2185 C 0.37561 0.74055 0.24014 0.0
C2186 C 0.40049 0.72375 0.24465 0.0
C2187 C 0.37661 0.77119 0.24141 0.0
C2188 C 0.40248 0.78561 0.24718 0.0
H2189 H 0.35466 0.73005 0.23819 0.0
H2190 H 0.35642 0.7833 0.24007 0.0
S2191 S 0.47463 0.75152 0.25562 0.0
N2192 N 0.45257 0.72387 0.25111 0.0
N2193 N 0.45436 0.78112 0.25369 0.0
C2194 C 0.42809 0.76914 0.24901 0.0
C2195 C 0.42713 0.73824 0.24755 0.0
C2196 C 0.49751 0.172 0.50403 0.0
C2197 C 0.47977 0.14815 0.49889 0.0
C2198 C 0.52783 0.16962 0.50358 0.0
C2199 C 0.5415 0.14322 0.49825 0.0
H2200 H 0.48792 0.19195 0.50995 0.0
H2201 H 0.54066 0.18782 0.50921 0.0
S2202 S 0.50507 0.07563 0.48075 0.0
N2203 N 0.47806 0.09845 0.48564 0.0
N2204 N 0.53539 0.09385 0.4855 0.0
C2205 C 0.52422 0.12013 0.49109 0.0
C2206 C 0.49317 0.12264 0.49126 0.0
C2207 C 0.99328 0.89067 0.98982 0.0
C2208 C 0.97881 0.86436 0.99436 0.0
C2209 C 0.02376 0.8928 0.99179 0.0
C2210 C 0.04037 0.86867 -0.00171 0.0
H2211 H 0.98088 0.9104 0.98708 0.0
H2212 H 0.03394 0.91397 0.99019 0.0
S2213 S 0.01365 0.7936 0.00711 0.0
N2214 N 0.98403 0.81265 0.00176 0.0
N2215 N 0.04101 0.81682 0.00555 0.0
C2216 C 0.02654 0.84163 0.00034 0.0
C2217 C 0.99577 0.83939 -0.00178 0.0
C2218 C 0.49433 0.84288 0.4894 0.0
C2219 C 0.48077 0.86974 0.49335 0.0
C2220 C 0.52464 0.84008 0.49021 0.0
C2221 C 0.54253 0.86423 0.49457 0.0
H2222 H 0.48156 0.82445 0.48411 0.0
H2223 H 0.53421 0.81955 0.4854 0.0
S2224 S 0.51717 0.93835 0.50884 0.0
N2225 N 0.4869 0.91991 0.50441 0.0
N2226 N 0.54417 0.91499 0.50548 0.0
C2227 C 0.52905 0.89041 0.50077 0.0
C2228 C 0.49801 0.89313 0.50015 0.0
C2229 C 0.02416 0.17425 0.98943 0.0
C2230 C 0.03851 0.14779 0.99327 0.0
C2231 C 0.99382 0.17625 0.99069 0.0
C2232 C 0.97671 0.1516 0.99527 0.0
H2233 H 0.03627 0.19295 0.98382 0.0
H2234 H 0.98359 0.19647 0.98588 0.0
S2235 S 1.00444 0.07848 0.01 0.0
N2236 N 0.03407 0.09769 0.00501 0.0
N2237 N 0.97673 0.10102 0.0067 0.0
C2238 C 0.99104 0.12592 0.00158 0.0
C2239 C 0.02212 0.12406 0.0006 0.0
C2240 C 0.11348 0.49717 0.98138 0.0
C2241 C 0.12954 0.47603 0.99273 0.0
C2242 C 0.11774 0.52732 0.98448 0.0
C2243 C 0.138 0.53761 -0.00075 0.0
H2244 H 0.09702 0.49042 0.97023 0.0
H2245 H 0.10403 0.5426 0.97607 0.0
S2246 S 0.18691 0.49204 0.03211 0.0
N2247 N 0.16781 0.46818 0.01848 0.0
N2248 N 0.17528 0.52444 0.02458 0.0
C2249 C 0.15481 0.51684 0.01018 0.0
C2250 C 0.15078 0.48623 0.00684 0.0
C2251 C 0.7684 0.91572 0.23292 0.0
C2252 C 0.79042 0.8969 0.24029 0.0
C2253 C 0.73864 0.90941 0.23593 0.0
C2254 C 0.72961 0.88354 0.24591 0.0
H2255 H 0.77425 0.93533 0.22444 0.0
H2256 H 0.72264 0.92473 0.23005 0.0
S2257 S 0.77914 0.82572 0.2663 0.0
N2258 N 0.80136 0.85101 0.25725 0.0
N2259 N 0.74589 0.83825 0.26222 0.0
C2260 C 0.75165 0.86439 0.25313 0.0
C2261 C 0.78189 0.87127 0.25049 0.0
C2262 C 0.37078 0.48892 0.48622 0.0
C2263 C 0.39103 0.4797 0.50144 0.0
C2264 C 0.36602 0.51869 0.48213 0.0
C2265 C 0.3807 0.54066 0.49342 0.0
H2266 H 0.35906 0.47303 0.47692 0.0
H2267 H 0.35102 0.52457 0.4697 0.0
S2268 S 0.43525 0.52875 0.53535 0.0
N2269 N 0.42564 0.49561 0.52808 0.0
N2270 N 0.41584 0.55123 0.52072 0.0
C2271 C 0.4002 0.53193 0.50914 0.0
C2272 C 0.40559 0.5016 0.51304 0.0
C2273 C 0.76927 0.16344 0.75628 0.0
C2274 C 0.79017 0.14919 0.74358 0.0
C2275 C 0.73914 0.16121 0.75232 0.0
C2276 C 0.72862 0.14503 0.73526 0.0
H2277 H 0.77622 0.17699 0.76922 0.0
H2278 H 0.72413 0.17345 0.76203 0.0
S2279 S 0.77343 0.10206 0.69789 0.0
N2280 N 0.79752 0.11685 0.7139 0.0
N2281 N 0.74123 0.11326 0.70615 0.0
C2282 C 0.74909 0.12994 0.72283 0.0
C2283 C 0.77971 0.13183 0.72705 0.0
C2284 C 0.88694 0.52153 -0.00039 0.0
C2285 C 0.91168 0.53814 0.99426 0.0
C2286 C 0.88721 0.49071 -0.00168 0.0
C2287 C 0.91211 0.47544 0.99134 0.0
H2288 H 0.86757 0.53234 0.00541 0.0
H2289 H 0.86777 0.47883 0.0027 0.0
S2290 S 0.98198 0.50925 0.97456 0.0
N2291 N 0.96125 0.53708 0.98131 0.0
N2292 N 0.96188 0.48001 0.97849 0.0
C2293 C 0.93669 0.4921 0.98559 0.0
C2294 C 0.93645 0.52317 0.98717 0.0
C2295 C 0.2517 0.13439 0.76424 0.0
C2296 C 0.22941 0.14804 0.75258 0.0
C2297 C 0.28131 0.138 0.75911 0.0
C2298 C 0.29001 0.15609 0.74241 0.0
H2299 H 0.24623 0.12096 0.77766 0.0
H2300 H 0.29751 0.12716 0.7687 0.0
S2301 S 0.24007 0.19681 0.7069 0.0
N2302 N 0.21804 0.17984 0.72331 0.0
N2303 N 0.27342 0.18752 0.71397 0.0
C2304 C 0.26782 0.16965 0.73048 0.0
C2305 C 0.23764 0.16539 0.73545 0.0
C2306 C 0.63262 0.49905 0.52061 0.0
C2307 C 0.62197 0.47641 0.50778 0.0
C2308 C 0.62949 0.52854 0.51492 0.0
C2309 C 0.61483 0.53674 0.49642 0.0
H2310 H 0.64349 0.49396 0.53525 0.0
H2311 H 0.63807 0.54504 0.52537 0.0
S2312 S 0.58266 0.48582 0.45741 0.0
N2313 N 0.59659 0.46424 0.47557 0.0
N2314 N 0.5897 0.51939 0.46519 0.0
C2315 C 0.60412 0.51424 0.48343 0.0
C2316 C 0.60796 0.4842 0.489 0.0
C2317 C 0.25496 0.88575 0.22537 0.0
C2318 C 0.23244 0.87548 0.2385 0.0
C2319 C 0.28454 0.88246 0.23077 0.0
C2320 C 0.29295 0.868 0.24927 0.0
H2321 H 0.24971 0.89621 0.2106 0.0
H2322 H 0.30093 0.89043 0.21998 0.0
S2323 S 0.24264 0.83799 0.28952 0.0
N2324 N 0.22074 0.85141 0.27134 0.0
N2325 N 0.27612 0.84438 0.28123 0.0
C2326 C 0.27065 0.85811 0.26276 0.0
C2327 C 0.2405 0.86209 0.25747 0.0
C2328 C 0.64471 0.02628 0.4813 0.0
C2329 C 0.62503 0.03562 0.49685 0.0
C2330 C 0.64865 0.99649 0.47685 0.0
C2331 C 0.63376 0.97468 0.48814 0.0
H2332 H 0.65662 0.04209 0.47206 0.0
H2333 H 0.66322 0.99048 0.46421 0.0
S2334 S 0.58006 0.98687 0.5305 0.0
N2335 N 0.59031 0.01995 0.5235 0.0
N2336 N 0.59882 0.96429 0.51557 0.0
C2337 C 0.61474 0.9835 0.5041 0.0
C2338 C 0.6101 0.01383 0.50832 0.0
C2339 C 0.2533 0.37179 0.75971 0.0
C2340 C 0.23222 0.38589 0.74707 0.0
C2341 C 0.2834 0.37578 0.75651 0.0
C2342 C 0.29374 0.39364 0.74025 0.0
H2343 H 0.24656 0.35712 0.77207 0.0
H2344 H 0.29862 0.36375 0.7662 0.0
S2345 S 0.24822 0.43679 0.70334 0.0
N2346 N 0.22434 0.41972 0.7183 0.0
N2347 N 0.28063 0.42666 0.71193 0.0
C2348 C 0.27302 0.40845 0.72783 0.0
C2349 C 0.2424 0.40475 0.73132 0.0
C2350 C 0.8797 0.98523 0.9799 0.0
C2351 C 0.89657 0.97608 -0.00287 0.0
C2352 C 0.87613 0.01502 0.97515 0.0
C2353 C 0.88855 0.03706 0.98774 0.0
H2354 H 0.86998 0.96926 0.96953 0.0
H2355 H 0.86384 0.02084 0.96125 0.0
S2356 S 0.93327 0.02512 0.03535 0.0
N2357 N 0.925 0.99196 0.02728 0.0
N2358 N 0.91756 0.04762 0.01857 0.0
C2359 C 0.90445 0.02834 0.00546 0.0
C2360 C 0.90866 0.99799 0.01007 0.0
C2361 C 0.27828 0.65153 0.23877 0.0
C2362 C 0.2883 0.62851 0.25134 0.0
C2363 C 0.24827 0.65734 0.23676 0.0
C2364 C 0.22696 0.64018 0.247 0.0
H2365 H 0.29372 0.66621 0.23147 0.0
H2366 H 0.24187 0.676 0.22747 0.0
S2367 S 0.24222 0.57585 0.28054 0.0
N2368 N 0.27476 0.58761 0.27346 0.0
N2369 N 0.21856 0.59796 0.26922 0.0
C2370 C 0.23681 0.61628 0.25886 0.0
C2371 C 0.26736 0.61063 0.26113 0.0
C2372 C 0.43187 0.02564 0.49886 0.0
C2373 C 0.40549 0.0413 0.49934 0.0
C2374 C 0.43238 0.99521 0.49691 0.0
C2375 C 0.40652 0.97882 0.49593 0.0
H2376 H 0.45248 0.03702 0.49989 0.0
H2377 H 0.45336 0.9844 0.49636 0.0
S2378 S 0.3315 1.00903 0.49688 0.0
N2379 N 0.35267 0.03804 0.49857 0.0
N2380 N 0.35359 0.98064 0.49562 0.0
C2381 C 0.37989 0.99408 0.49662 0.0
C2382 C 0.37938 0.02532 0.49808 0.0
C2383 C 0.74991 0.66723 0.26062 0.0
C2384 C 0.72783 0.65398 0.24843 0.0
C2385 C 0.77966 0.66469 0.25533 0.0
C2386 C 0.78854 0.64928 0.23737 0.0
H2387 H 0.74414 0.68003 0.27427 0.0
H2388 H 0.79567 0.67594 0.26482 0.0
S2389 S 0.73999 0.60903 0.20086 0.0
N2390 N 0.71754 0.62343 0.21823 0.0
N2391 N 0.773 0.61924 0.20805 0.0
C2392 C 0.76683 0.63524 0.22543 0.0
C2393 C 0.73666 0.63739 0.23101 0.0
C2394 C 0.08662 0.99307 -0.00247 0.0
C2395 C 0.11288 0.97718 -0.00228 0.0
C2396 C 0.08632 0.02357 -0.00406 0.0
C2397 C 0.11229 0.03984 0.99502 0.0
H2398 H 0.06592 0.98181 -0.00155 0.0
H2399 H 0.06541 0.03452 -0.00445 0.0
S2400 S 0.18708 1.00907 0.99541 0.0
N2401 N 0.16572 0.98018 -0.00316 0.0
N2402 N 0.16519 0.03764 0.99454 0.0
C2403 C 0.1388 0.02436 0.99548 0.0
C2404 C 0.13909 0.99306 -0.0034 0.0
C2405 C 0.78003 0.34243 0.74881 0.0
C2406 C 0.79649 0.36818 0.75073 0.0
C2407 C 0.74975 0.34315 0.7458 0.0
C2408 C 0.7343 0.36964 0.74509 0.0
H2409 H 0.79067 0.32138 0.74951 0.0
H2410 H 0.7383 0.32262 0.74429 0.0
S2411 S 0.76683 0.44339 0.74951 0.0
N2412 N 0.79497 0.42109 0.75153 0.0
N2413 N 0.73786 0.42243 0.74654 0.0
C2414 C 0.75036 0.39563 0.74715 0.0
C2415 C 0.78146 0.3949 0.74974 0.0
C2416 C 0.14005 0.77516 0.03758 0.0
C2417 C 0.13727 0.79111 0.01874 0.0
C2418 C 0.14203 0.74461 0.03781 0.0
C2419 C 0.14112 0.72794 0.01922 0.0
H2420 H 0.14004 0.78631 0.05255 0.0
H2421 H 0.14325 0.73396 0.05295 0.0
S2422 S 0.13638 0.75873 0.96534 0.0
N2423 N 0.13569 0.78768 0.9807 0.0
N2424 N 0.13912 0.73029 0.98111 0.0
C2425 C 0.13975 0.74358 0.00012 0.0
C2426 C 0.13789 0.775 -0.00012 0.0
C2427 C 0.52755 0.88015 0.25407 0.0
C2428 C 0.54368 0.88559 0.27257 0.0
C2429 C 0.49666 0.87879 0.25421 0.0
C2430 C 0.48052 0.88293 0.27283 0.0
H2431 H 0.53887 0.87571 0.23952 0.0
H2432 H 0.48547 0.87331 0.23978 0.0
S2433 S 0.51204 0.90148 0.32501 0.0
N2434 N 0.54064 0.89768 0.30961 0.0
N2435 N 0.4835 0.89549 0.3099 0.0
C2436 C 0.49647 0.88992 0.29115 0.0
C2437 C 0.52769 0.89113 0.29101 0.0
C2438 C 0.37702 0.2437 0.53812 0.0
C2439 C 0.38216 0.22813 0.51934 0.0
C2440 C 0.37751 0.27427 0.53892 0.0
C2441 C 0.38292 0.29132 0.52098 0.0
H2442 H 0.37346 0.23216 0.55272 0.0
H2443 H 0.37425 0.28459 0.55403 0.0
S2444 S 0.39565 0.26203 0.46735 0.0
N2445 N 0.39134 0.2326 0.48195 0.0
N2446 N 0.3919 0.29007 0.48335 0.0
C2447 C 0.38665 0.27625 0.50179 0.0
C2448 C 0.38632 0.24481 0.50101 0.0
C2449 C 0.99243 0.14628 0.75232 0.0
C2450 C 0.97601 0.13935 0.77041 0.0
C2451 C 0.02334 0.14633 0.75256 0.0
C2452 C 0.03916 0.13922 0.77087 0.0
H2453 H 0.98136 0.15306 0.73812 0.0
H2454 H 0.03484 0.15328 0.7386 0.0
S2455 S 1.00657 0.1152 0.82152 0.0
N2456 N 0.97823 0.12234 0.80645 0.0
N2457 N 0.03546 0.12185 0.8069 0.0
C2458 C 0.02283 0.13045 0.78861 0.0
C2459 C 0.9916 0.13069 0.78839 0.0
C2460 C 0.13384 0.24209 0.98911 0.0
C2461 C 0.1363 0.22513 0.97072 0.0
C2462 C 0.1357 0.27295 0.9885 0.0
C2463 C 0.14028 0.28824 0.96949 0.0
H2464 H 0.1291 0.23158 0.00394 0.0
H2465 H 0.13229 0.28493 0.00292 0.0
S2466 S 0.15213 0.25392 0.91733 0.0
N2467 N 0.14643 0.22619 0.93326 0.0
N2468 N 0.15009 0.28325 0.93217 0.0
C2469 C 0.14448 0.27129 0.95127 0.0
C2470 C 0.14245 0.24012 0.95187 0.0
C2471 C 0.9946 0.88167 0.23789 0.0
C2472 C 0.97905 0.89184 0.22018 0.0
C2473 C 0.02552 0.88116 0.23828 0.0
C2474 C 0.04212 0.89103 0.22104 0.0
H2475 H 0.98284 0.87266 0.25111 0.0
H2476 H 0.0364 0.87153 0.25168 0.0
S2477 S 0.012 0.92394 0.17227 0.0
N2478 N 0.98293 0.9148 0.18598 0.0
N2479 N 0.0402 0.91437 0.18678 0.0
C2480 C 0.02666 0.90302 0.20391 0.0
C2481 C 0.99546 0.90326 0.20344 0.0
C2482 C 0.38533 0.74591 0.49142 0.0
C2483 C 0.37773 0.73054 0.47299 0.0
C2484 C 0.3874 0.77675 0.49165 0.0
C2485 C 0.38215 0.7935 0.47345 0.0
H2486 H 0.39106 0.73401 0.5055 0.0
H2487 H 0.39455 0.78739 0.50592 0.0
S2488 S 0.35744 0.76451 0.42199 0.0
N2489 N 0.36176 0.73527 0.43672 0.0
N2490 N 0.36597 0.79233 0.43715 0.0
C2491 C 0.3729 0.77847 0.45535 0.0
C2492 C 0.3706 0.74734 0.45513 0.0
C2493 C 0.4928 0.14866 0.73357 0.0
C2494 C 0.47616 0.14438 0.71519 0.0
C2495 C 0.52368 0.14956 0.73301 0.0
C2496 C 0.53929 0.1463 0.71403 0.0
H2497 H 0.48191 0.15266 0.74836 0.0
H2498 H 0.5353 0.15415 0.74742 0.0
S2499 S 0.50651 0.13059 0.66192 0.0
N2500 N 0.47831 0.13378 0.67777 0.0
N2501 N 0.53546 0.13571 0.67678 0.0
C2502 C 0.52292 0.1404 0.69582 0.0
C2503 C 0.49171 0.13936 0.69638 0.0
C2504 C 0.88952 0.27339 0.98798 0.0
C2505 C 0.88615 0.29059 0.96975 0.0
C2506 C 0.88753 0.24253 0.98723 0.0
C2507 C 0.88191 0.22756 0.96826 0.0
H2508 H 0.89517 0.28368 0.00271 0.0
H2509 H 0.89185 0.23031 0.00143 0.0
S2510 S 0.86707 0.26269 0.91672 0.0
N2511 N 0.87382 0.29017 0.93265 0.0
N2512 N 0.86989 0.23312 0.93129 0.0
C2513 C 0.87665 0.24478 0.95029 0.0
C2514 C 0.87883 0.27592 0.95102 0.0
C2515 C 0.63019 0.76988 0.48671 0.0
C2516 C 0.63588 0.78508 0.46785 0.0
C2517 C 0.6281 0.73906 0.48723 0.0
C2518 C 0.63144 0.72215 0.46888 0.0
H2519 H 0.62599 0.78189 0.50101 0.0
H2520 H 0.62252 0.72857 0.50191 0.0
S2521 S 0.65057 0.75083 0.41606 0.0
N2522 N 0.64786 0.78015 0.43085 0.0
N2523 N 0.64373 0.72311 0.43176 0.0
C2524 C 0.63876 0.73706 0.45024 0.0
C2525 C 0.64104 0.76818 0.44975 0.0
C2526 C 0.88694 0.73986 0.03736 0.0
C2527 C 0.88896 0.72419 0.01835 0.0
C2528 C 0.88499 0.77043 0.03788 0.0
C2529 C 0.88514 0.78745 0.01943 0.0
H2530 H 0.88749 0.72847 0.05225 0.0
H2531 H 0.88431 0.78081 0.05313 0.0
S2532 S 0.88785 0.75756 0.96523 0.0
N2533 N 0.88915 0.72834 0.98034 0.0
N2534 N 0.88573 0.78573 0.98127 0.0
C2535 C 0.88588 0.77211 0.00019 0.0
C2536 C 0.88772 0.74068 -0.00034 0.0
C2537 C 0.64173 0.26801 0.53866 0.0
C2538 C 0.63528 0.2853 0.5209 0.0
C2539 C 0.64041 0.2375 0.53811 0.0
C2540 C 0.63299 0.22233 0.5197 0.0
H2541 H 0.64684 0.27813 0.55356 0.0
H2542 H 0.64471 0.2257 0.55251 0.0
S2543 S 0.61639 0.25651 0.4682 0.0
N2544 N 0.62272 0.28447 0.48385 0.0
N2545 N 0.62084 0.227 0.48271 0.0
C2546 C 0.62808 0.23907 0.50143 0.0
C2547 C 0.62911 0.27046 0.50205 0.0
C2548 C 0.99914 0.38573 0.75489 0.0
C2549 C 0.98313 0.39083 0.77344 0.0
C2550 C 0.03004 0.38596 0.75482 0.0
C2551 C 0.04626 0.39112 0.77331 0.0
H2552 H 0.98781 0.38021 0.74053 0.0
H2553 H 0.04125 0.38075 0.74035 0.0
S2554 S 0.01504 0.40971 0.8254 0.0
N2555 N 0.98635 0.40437 0.81031 0.0
N2556 N 0.04356 0.40439 0.81016 0.0
C2557 C 0.03044 0.39782 0.79162 0.0
C2558 C 0.99922 0.3978 0.79168 0.0
C2559 C 0.4933 0.63758 0.29285 0.0
C2560 C 0.47705 0.63652 0.27406 0.0
C2561 C 0.52388 0.63924 0.29289 0.0
C2562 C 0.54032 0.63995 0.27417 0.0
H2563 H 0.48231 0.63782 0.30787 0.0
H2564 H 0.53464 0.64062 0.308 0.0
S2565 S 0.50903 0.63616 0.22044 0.0
N2566 N 0.48027 0.63505 0.23596 0.0
N2567 N 0.53764 0.63819 0.23609 0.0
C2568 C 0.52455 0.63797 0.25518 0.0
C2569 C 0.49313 0.63624 0.25514 0.0
C2570 C 0.50029 0.40895 0.71161 0.0
C2571 C 0.48435 0.39658 0.72822 0.0
C2572 C 0.53076 0.41186 0.71246 0.0
C2573 C 0.54725 0.402 0.72982 0.0
H2574 H 0.48919 0.41576 0.69742 0.0
H2575 H 0.54163 0.42063 0.69876 0.0
S2576 S 0.51602 0.36963 0.77826 0.0
N2577 N 0.48728 0.37614 0.76335 0.0
N2578 N 0.54458 0.38087 0.76474 0.0
C2579 C 0.53147 0.39093 0.74706 0.0
C2580 C 0.50015 0.38834 0.7463 0.0
C2581 C 0.99461 0.6454 0.23575 0.0
C2582 C 0.97895 0.64149 0.21689 0.0
C2583 C 0.02553 0.64449 0.23628 0.0
C2584 C 0.04229 0.63983 0.21794 0.0
H2585 H 0.983 0.65024 0.25012 0.0
H2586 H 0.03638 0.64855 0.25107 0.0
S2587 S 0.01221 0.62543 0.16478 0.0
N2588 N 0.9832 0.6303 0.17962 0.0
N2589 N 0.04033 0.62918 0.18064 0.0
C2590 C 0.02682 0.63476 0.19919 0.0
C2591 C 0.99555 0.6354 0.19866 0.0
loop_
_geom_bond_atom_site_label_1
_geom_bond_atom_site_label_2
_geom_bond_distance
_geom_bond_site_symmetry_2
_ccdc_geom_bond_type
Co0 O2 2.143 . S
Co0 O8 2.074 . S
Co0 O11 2.093 . S
Co0 O24 2.097 . S
Co0 N41 2.151 . S
Co0 N49 2.214 . S
Co1 O2 2.160 1_556 S
Co1 O7 2.058 . S
Co1 O17 2.057 . S
Co1 O32 2.033 1_556 S
Co1 N36 2.145 . S
Co1 N57 2.256 1_556 S
O2 Co0 2.143 . S
O2 Co1 2.160 1_554 S
C3 O4 1.278 . S
C3 O11 1.224 . S
O4 C3 1.278 . S
C5 O6 1.245 . S
C5 O17 1.232 1_554 S
O6 C5 1.245 . S
O7 Co1 2.058 . S
O7 C33 1.269 1_556 S
O8 Co0 2.074 . S
O8 C33 1.257 . S
H9 C34 0.930 . S
H10 C40 0.930 . S
O11 Co0 2.093 . S
O11 C3 1.224 . S
H12 C44 0.929 . S
H13 C46 0.930 . S
H14 C47 0.930 . S
H15 C45 0.929 . S
H16 C48 0.928 . S
O17 Co1 2.057 . S
O17 C5 1.232 1_556 S
H18 C37 0.929 . S
H19 C38 0.929 . S
H20 C50 0.931 . S
H21 C42 0.929 . S
H22 C51 0.930 . S
H23 C43 0.931 . S
O24 Co0 2.097 . S
O24 C52 1.214 . S
H25 C53 0.929 . S
H26 C54 0.929 . S
H27 C55 0.930 . S
H28 C56 0.929 . S
H29 C58 0.930 . S
H30 C35 0.930 . S
H31 C39 0.930 . S
O32 Co1 2.033 1_554 S
O32 C52 1.259 . S
C33 O7 1.269 1_554 S
C33 O8 1.257 . S
C34 H9 0.930 . S
C34 C37 1.388 . S
C34 C39 1.418 . S
C35 H30 0.930 . S
C35 C38 1.404 . S
C35 C39 1.353 . S
N36 Co1 2.145 . S
N36 C37 1.397 . S
N36 C38 1.334 . S
C37 H18 0.929 . S
C37 C34 1.388 . S
C37 N36 1.397 . S
C38 H19 0.929 . S
C38 C35 1.404 . S
C38 N36 1.334 . S
C39 H31 0.930 . S
C39 C34 1.418 . S
C39 C35 1.353 . S
C40 H10 0.930 . S
C40 N41 1.330 . S
C40 C42 1.446 . S
N41 Co0 2.151 . S
N41 C40 1.330 . S
N41 C45 1.418 . S
C42 H21 0.929 . S
C42 C40 1.446 . S
C42 C43 1.332 . S
C43 H23 0.931 . S
C43 C42 1.332 . S
C43 C44 1.267 . S
C44 H12 0.929 . S
C44 C43 1.267 . S
C44 C45 1.251 . S
C45 H15 0.929 . S
C45 N41 1.418 . S
C45 C44 1.251 . S
C46 H13 0.930 . S
C46 C48 1.406 . S
C46 C51 1.261 . S
C47 H14 0.930 . S
C47 N49 1.325 . S
C47 C50 1.357 . S
C48 H16 0.928 . S
C48 C46 1.406 . S
C48 N49 1.261 . S
N49 Co0 2.214 . S
N49 C47 1.325 . S
N49 C48 1.261 . S
C50 H20 0.931 . S
C50 C47 1.357 . S
C50 C51 1.312 . S
C51 H22 0.930 . S
C51 C46 1.261 . S
C51 C50 1.312 . S
C52 O24 1.214 . S
C52 O32 1.259 . S
C53 H25 0.929 . S
C53 C56 1.391 . S
C53 C58 1.391 . S
C54 H26 0.929 . S
C54 C55 1.390 . S
C54 N57 1.387 1_556 S
C55 H27 0.930 . S
C55 C54 1.390 . S
C55 C56 1.392 1_556 S
C56 H28 0.929 . S
C56 C53 1.391 . S
C56 C55 1.392 1_554 S
N57 Co1 2.256 1_554 S
N57 C54 1.387 1_554 S
N57 C58 1.395 . S
C58 H29 0.930 . S
C58 C53 1.391 . S
C58 N57 1.395 . S
Co59 O61 2.143 . S
Co59 O67 2.074 . S
Co59 O70 2.093 . S
Co59 O83 2.097 . S
Co59 N100 2.151 . S
Co59 N108 2.214 . S
Co60 O61 2.160 . S
Co60 O66 2.058 . S
Co60 O76 2.057 . S
Co60 O91 2.037 . S
Co60 N95 2.145 . S
Co60 N116 2.257 . S
O61 Co59 2.143 . S
O61 Co60 2.160 . S
C62 O63 1.278 . S
C62 O70 1.224 . S
O63 C62 1.278 . S
C64 O65 1.245 . S
C64 O76 1.232 . S
O65 C64 1.245 . S
O66 Co60 2.058 . S
O66 C92 1.269 . S
O67 Co59 2.074 . S
O67 C92 1.257 . S
H68 C93 0.930 . S
H69 C99 0.930 . S
O70 Co59 2.093 . S
O70 C62 1.224 . S
H71 C103 0.929 . S
H72 C105 0.930 . S
H73 C106 0.930 . S
H74 C104 0.929 . S
H75 C107 0.928 . S
O76 Co60 2.057 . S
O76 C64 1.232 . S
H77 C96 0.929 . S
H78 C97 0.929 . S
H79 C109 0.931 . S
H80 C101 0.929 . S
H81 C110 0.930 . S
H82 C102 0.931 . S
O83 Co59 2.097 . S
O83 C111 1.214 . S
H84 C112 0.929 . S
H85 C113 0.929 . S
H86 C114 0.930 . S
H87 C115 0.929 . S
H88 C117 0.930 . S
H89 C94 0.930 . S
H90 C98 0.930 . S
O91 Co60 2.037 . S
O91 C111 1.234 . S
C92 O66 1.269 . S
C92 O67 1.257 . S
C93 H68 0.930 . S
C93 C96 1.388 . S
C93 C98 1.418 . S
C94 H89 0.930 . S
C94 C97 1.404 . S
C94 C98 1.353 . S
N95 Co60 2.145 . S
N95 C96 1.397 . S
N95 C97 1.334 . S
C96 H77 0.929 . S
C96 C93 1.388 . S
C96 N95 1.397 . S
C97 H78 0.929 . S
C97 C94 1.404 . S
C97 N95 1.334 . S
C98 H90 0.930 . S
C98 C93 1.418 . S
C98 C94 1.353 . S
C99 H69 0.930 . S
C99 N100 1.330 . S
C99 C101 1.446 . S
N100 Co59 2.151 . S
N100 C99 1.330 . S
N100 C104 1.418 . S
C101 H80 0.929 . S
C101 C99 1.446 . S
C101 C102 1.332 . S
C102 H82 0.931 . S
C102 C101 1.332 . S
C102 C103 1.267 . S
C103 H71 0.929 . S
C103 C102 1.267 . S
C103 C104 1.251 . S
C104 H74 0.929 . S
C104 N100 1.418 . S
C104 C103 1.251 . S
C105 H72 0.930 . S
C105 C107 1.406 . S
C105 C110 1.261 . S
C106 H73 0.930 . S
C106 N108 1.325 . S
C106 C109 1.357 . S
C107 H75 0.928 . S
C107 C105 1.406 . S
C107 N108 1.261 . S
N108 Co59 2.214 . S
N108 C106 1.325 . S
N108 C107 1.261 . S
C109 H79 0.931 . S
C109 C106 1.357 . S
C109 C110 1.312 . S
C110 H81 0.930 . S
C110 C105 1.261 . S
C110 C109 1.312 . S
C111 O83 1.214 . S
C111 O91 1.234 . S
C112 H84 0.929 . S
C112 C115 1.391 . S
C112 C117 1.391 . S
C113 H85 0.929 . S
C113 C114 1.390 . S
C113 N116 1.391 . S
C114 H86 0.930 . S
C114 C113 1.390 . S
C114 C115 1.392 . S
C115 H87 0.929 . S
C115 C112 1.391 . S
C115 C114 1.392 . S
N116 Co60 2.257 . S
N116 C113 1.391 . S
N116 C117 1.388 . S
C117 H88 0.930 . S
C117 C112 1.391 . S
C117 N116 1.388 . S
Co118 O120 2.143 . S
Co118 O126 2.074 . S
Co118 O129 2.093 . S
Co118 O142 2.097 . S
Co118 N159 2.151 . S
Co118 N167 2.214 . S
Co119 O120 2.160 . S
Co119 O125 2.058 . S
Co119 O135 2.057 . S
Co119 O150 2.037 . S
Co119 N154 2.145 . S
Co119 N175 2.257 . S
O120 Co118 2.143 . S
O120 Co119 2.160 . S
C121 O122 1.278 . S
C121 O129 1.224 . S
O122 C121 1.278 . S
C123 O124 1.245 . S
C123 O135 1.232 . S
O124 C123 1.245 . S
O125 Co119 2.058 . S
O125 C151 1.269 . S
O126 Co118 2.074 . S
O126 C151 1.257 . S
H127 C152 0.930 . S
H128 C158 0.930 . S
O129 Co118 2.093 . S
O129 C121 1.224 . S
H130 C162 0.929 . S
H131 C164 0.930 . S
H132 C165 0.930 . S
H133 C163 0.929 . S
H134 C166 0.928 . S
O135 Co119 2.057 . S
O135 C123 1.232 . S
H136 C155 0.929 . S
H137 C156 0.929 . S
H138 C168 0.931 . S
H139 C160 0.929 . S
H140 C169 0.930 . S
H141 C161 0.931 . S
O142 Co118 2.097 . S
O142 C170 1.214 . S
H143 C171 0.929 . S
H144 C172 0.929 . S
H145 C173 0.930 . S
H146 C174 0.929 . S
H147 C176 0.930 . S
H148 C153 0.930 . S
H149 C157 0.930 . S
O150 Co119 2.037 . S
O150 C170 1.234 . S
C151 O125 1.269 . S
C151 O126 1.257 . S
C152 H127 0.930 . S
C152 C155 1.388 . S
C152 C157 1.418 . S
C153 H148 0.930 . S
C153 C156 1.404 . S
C153 C157 1.353 . S
N154 Co119 2.145 . S
N154 C155 1.397 . S
N154 C156 1.334 . S
C155 H136 0.929 . S
C155 C152 1.388 . S
C155 N154 1.397 . S
C156 H137 0.929 . S
C156 C153 1.404 . S
C156 N154 1.334 . S
C157 H149 0.930 . S
C157 C152 1.418 . S
C157 C153 1.353 . S
C158 H128 0.930 . S
C158 N159 1.330 . S
C158 C160 1.446 . S
N159 Co118 2.151 . S
N159 C158 1.330 . S
N159 C163 1.418 . S
C160 H139 0.929 . S
C160 C158 1.446 . S
C160 C161 1.332 . S
C161 H141 0.931 . S
C161 C160 1.332 . S
C161 C162 1.267 . S
C162 H130 0.929 . S
C162 C161 1.267 . S
C162 C163 1.251 . S
C163 H133 0.929 . S
C163 N159 1.418 . S
C163 C162 1.251 . S
C164 H131 0.930 . S
C164 C166 1.406 . S
C164 C169 1.261 . S
C165 H132 0.930 . S
C165 N167 1.325 . S
C165 C168 1.357 . S
C166 H134 0.928 . S
C166 C164 1.406 . S
C166 N167 1.261 . S
N167 Co118 2.214 . S
N167 C165 1.325 . S
N167 C166 1.261 . S
C168 H138 0.931 . S
C168 C165 1.357 . S
C168 C169 1.312 . S
C169 H140 0.930 . S
C169 C164 1.261 . S
C169 C168 1.312 . S
C170 O142 1.214 . S
C170 O150 1.234 . S
C171 H143 0.929 . S
C171 C174 1.391 . S
C171 C176 1.391 . S
C172 H144 0.929 . S
C172 C173 1.390 . S
C172 N175 1.391 . S
C173 H145 0.930 . S
C173 C172 1.390 . S
C173 C174 1.392 . S
C174 H146 0.929 . S
C174 C171 1.391 . S
C174 C173 1.392 . S
N175 Co119 2.257 . S
N175 C172 1.391 . S
N175 C176 1.388 . S
C176 H147 0.930 . S
C176 C171 1.391 . S
C176 N175 1.388 . S
Co177 O179 2.143 . S
Co177 O185 2.074 . S
Co177 O188 2.093 . S
Co177 O201 2.097 . S
Co177 N218 2.151 . S
Co177 N226 2.214 . S
Co178 O179 2.160 . S
Co178 O184 2.058 . S
Co178 O194 2.057 . S
Co178 O209 2.037 . S
Co178 N213 2.145 . S
Co178 N234 2.257 . S
O179 Co177 2.143 . S
O179 Co178 2.160 . S
C180 O181 1.278 . S
C180 O188 1.224 . S
O181 C180 1.278 . S
C182 O183 1.245 . S
C182 O194 1.232 . S
O183 C182 1.245 . S
O184 Co178 2.058 . S
O184 C210 1.269 . S
O185 Co177 2.074 . S
O185 C210 1.257 . S
H186 C211 0.930 . S
H187 C217 0.930 . S
O188 Co177 2.093 . S
O188 C180 1.224 . S
H189 C221 0.929 . S
H190 C223 0.930 . S
H191 C224 0.930 . S
H192 C222 0.929 . S
H193 C225 0.928 . S
O194 Co178 2.057 . S
O194 C182 1.232 . S
H195 C214 0.929 . S
H196 C215 0.929 . S
H197 C227 0.931 . S
H198 C219 0.929 . S
H199 C228 0.930 . S
H200 C220 0.931 . S
O201 Co177 2.097 . S
O201 C229 1.214 . S
H202 C230 0.929 . S
H203 C231 0.929 . S
H204 C232 0.930 . S
H205 C233 0.929 . S
H206 C235 0.930 . S
H207 C212 0.930 . S
H208 C216 0.930 . S
O209 Co178 2.037 . S
O209 C229 1.234 . S
C210 O184 1.269 . S
C210 O185 1.257 . S
C211 H186 0.930 . S
C211 C214 1.388 . S
C211 C216 1.418 . S
C212 H207 0.930 . S
C212 C215 1.404 . S
C212 C216 1.353 . S
N213 Co178 2.145 . S
N213 C214 1.397 . S
N213 C215 1.334 . S
C214 H195 0.929 . S
C214 C211 1.388 . S
C214 N213 1.397 . S
C215 H196 0.929 . S
C215 C212 1.404 . S
C215 N213 1.334 . S
C216 H208 0.930 . S
C216 C211 1.418 . S
C216 C212 1.353 . S
C217 H187 0.930 . S
C217 N218 1.330 . S
C217 C219 1.446 . S
N218 Co177 2.151 . S
N218 C217 1.330 . S
N218 C222 1.418 . S
C219 H198 0.929 . S
C219 C217 1.446 . S
C219 C220 1.332 . S
C220 H200 0.931 . S
C220 C219 1.332 . S
C220 C221 1.267 . S
C221 H189 0.929 . S
C221 C220 1.267 . S
C221 C222 1.251 . S
C222 H192 0.929 . S
C222 N218 1.418 . S
C222 C221 1.251 . S
C223 H190 0.930 . S
C223 C225 1.406 . S
C223 C228 1.261 . S
C224 H191 0.930 . S
C224 N226 1.325 . S
C224 C227 1.357 . S
C225 H193 0.928 . S
C225 C223 1.406 . S
C225 N226 1.261 . S
N226 Co177 2.214 . S
N226 C224 1.325 . S
N226 C225 1.261 . S
C227 H197 0.931 . S
C227 C224 1.357 . S
C227 C228 1.312 . S
C228 H199 0.930 . S
C228 C223 1.261 . S
C228 C227 1.312 . S
C229 O201 1.214 . S
C229 O209 1.234 . S
C230 H202 0.929 . S
C230 C233 1.391 . S
C230 C235 1.391 . S
C231 H203 0.929 . S
C231 C232 1.390 . S
C231 N234 1.391 . S
C232 H204 0.930 . S
C232 C231 1.390 . S
C232 C233 1.392 . S
C233 H205 0.929 . S
C233 C230 1.391 . S
C233 C232 1.392 . S
N234 Co178 2.257 . S
N234 C231 1.391 . S
N234 C235 1.388 . S
C235 H206 0.930 . S
C235 C230 1.391 . S
C235 N234 1.388 . S
Co236 O238 2.143 . S
Co236 O244 2.074 . S
Co236 O247 2.093 . S
Co236 O260 2.097 . S
Co236 N277 2.151 . S
Co236 N285 2.214 . S
Co237 O238 2.160 1_554 S
Co237 O243 2.058 . S
Co237 O253 2.057 . S
Co237 O268 2.033 1_554 S
Co237 N272 2.145 . S
Co237 N293 2.256 1_554 S
O238 Co236 2.143 . S
O238 Co237 2.160 1_556 S
C239 O240 1.278 . S
C239 O247 1.224 . S
O240 C239 1.278 . S
C241 O242 1.245 . S
C241 O253 1.232 1_556 S
O242 C241 1.245 . S
O243 Co237 2.058 . S
O243 C269 1.269 1_554 S
O244 Co236 2.074 . S
O244 C269 1.257 . S
H245 C270 0.930 . S
H246 C276 0.930 . S
O247 Co236 2.093 . S
O247 C239 1.224 . S
H248 C280 0.929 . S
H249 C282 0.930 . S
H250 C283 0.930 . S
H251 C281 0.929 . S
H252 C284 0.928 . S
O253 Co237 2.057 . S
O253 C241 1.232 1_554 S
H254 C273 0.929 . S
H255 C274 0.929 . S
H256 C286 0.931 . S
H257 C278 0.929 . S
H258 C287 0.930 . S
H259 C279 0.931 . S
O260 Co236 2.097 . S
O260 C288 1.214 . S
H261 C289 0.929 . S
H262 C290 0.929 . S
H263 C291 0.930 . S
H264 C292 0.929 . S
H265 C294 0.930 . S
H266 C271 0.930 . S
H267 C275 0.930 . S
O268 Co237 2.033 1_556 S
O268 C288 1.259 . S
C269 O243 1.269 1_556 S
C269 O244 1.257 . S
C270 H245 0.930 . S
C270 C273 1.388 . S
C270 C275 1.418 . S
C271 H266 0.930 . S
C271 C274 1.404 . S
C271 C275 1.353 . S
N272 Co237 2.145 . S
N272 C273 1.397 . S
N272 C274 1.334 . S
C273 H254 0.929 . S
C273 C270 1.388 . S
C273 N272 1.397 . S
C274 H255 0.929 . S
C274 C271 1.404 . S
C274 N272 1.334 . S
C275 H267 0.930 . S
C275 C270 1.418 . S
C275 C271 1.353 . S
C276 H246 0.930 . S
C276 N277 1.330 . S
C276 C278 1.446 . S
N277 Co236 2.151 . S
N277 C276 1.330 . S
N277 C281 1.418 . S
C278 H257 0.929 . S
C278 C276 1.446 . S
C278 C279 1.332 . S
C279 H259 0.931 . S
C279 C278 1.332 . S
C279 C280 1.267 . S
C280 H248 0.929 . S
C280 C279 1.267 . S
C280 C281 1.251 . S
C281 H251 0.929 . S
C281 N277 1.418 . S
C281 C280 1.251 . S
C282 H249 0.930 . S
C282 C284 1.406 . S
C282 C287 1.261 . S
C283 H250 0.930 . S
C283 N285 1.325 . S
C283 C286 1.357 . S
C284 H252 0.928 . S
C284 C282 1.406 . S
C284 N285 1.261 . S
N285 Co236 2.214 . S
N285 C283 1.325 . S
N285 C284 1.261 . S
C286 H256 0.931 . S
C286 C283 1.357 . S
C286 C287 1.312 . S
C287 H258 0.930 . S
C287 C282 1.261 . S
C287 C286 1.312 . S
C288 O260 1.214 . S
C288 O268 1.259 . S
C289 H261 0.929 . S
C289 C292 1.391 . S
C289 C294 1.391 . S
C290 H262 0.929 . S
C290 C291 1.390 . S
C290 N293 1.387 1_554 S
C291 H263 0.930 . S
C291 C290 1.390 . S
C291 C292 1.392 1_554 S
C292 H264 0.929 . S
C292 C289 1.391 . S
C292 C291 1.392 1_556 S
N293 Co237 2.256 1_556 S
N293 C290 1.387 1_556 S
N293 C294 1.395 . S
C294 H265 0.930 . S
C294 C289 1.391 . S
C294 N293 1.395 . S
Co295 O297 2.143 . S
Co295 O303 2.074 . S
Co295 O306 2.093 . S
Co295 O319 2.097 . S
Co295 N336 2.151 . S
Co295 N344 2.214 . S
Co296 O297 2.160 . S
Co296 O302 2.058 . S
Co296 O312 2.057 . S
Co296 O327 2.037 . S
Co296 N331 2.145 . S
Co296 N352 2.257 . S
O297 Co295 2.143 . S
O297 Co296 2.160 . S
C298 O299 1.278 . S
C298 O306 1.224 . S
O299 C298 1.278 . S
C300 O301 1.245 . S
C300 O312 1.232 . S
O301 C300 1.245 . S
O302 Co296 2.058 . S
O302 C328 1.269 . S
O303 Co295 2.074 . S
O303 C328 1.257 . S
H304 C329 0.930 . S
H305 C335 0.930 . S
O306 Co295 2.093 . S
O306 C298 1.224 . S
H307 C339 0.929 . S
H308 C341 0.930 . S
H309 C342 0.930 . S
H310 C340 0.929 . S
H311 C343 0.928 . S
O312 Co296 2.057 . S
O312 C300 1.232 . S
H313 C332 0.929 . S
H314 C333 0.929 . S
H315 C345 0.931 . S
H316 C337 0.929 . S
H317 C346 0.930 . S
H318 C338 0.931 . S
O319 Co295 2.097 . S
O319 C347 1.214 . S
H320 C348 0.929 . S
H321 C349 0.929 . S
H322 C350 0.930 . S
H323 C351 0.929 . S
H324 C353 0.930 . S
H325 C330 0.930 . S
H326 C334 0.930 . S
O327 Co296 2.037 . S
O327 C347 1.234 . S
C328 O302 1.269 . S
C328 O303 1.257 . S
C329 H304 0.930 . S
C329 C332 1.388 . S
C329 C334 1.418 . S
C330 H325 0.930 . S
C330 C333 1.404 . S
C330 C334 1.353 . S
N331 Co296 2.145 . S
N331 C332 1.397 . S
N331 C333 1.334 . S
C332 H313 0.929 . S
C332 C329 1.388 . S
C332 N331 1.397 . S
C333 H314 0.929 . S
C333 C330 1.404 . S
C333 N331 1.334 . S
C334 H326 0.930 . S
C334 C329 1.418 . S
C334 C330 1.353 . S
C335 H305 0.930 . S
C335 N336 1.330 . S
C335 C337 1.446 . S
N336 Co295 2.151 . S
N336 C335 1.330 . S
N336 C340 1.418 . S
C337 H316 0.929 . S
C337 C335 1.446 . S
C337 C338 1.332 . S
C338 H318 0.931 . S
C338 C337 1.332 . S
C338 C339 1.267 . S
C339 H307 0.929 . S
C339 C338 1.267 . S
C339 C340 1.251 . S
C340 H310 0.929 . S
C340 N336 1.418 . S
C340 C339 1.251 . S
C341 H308 0.930 . S
C341 C343 1.406 . S
C341 C346 1.261 . S
C342 H309 0.930 . S
C342 N344 1.325 . S
C342 C345 1.357 . S
C343 H311 0.928 . S
C343 C341 1.406 . S
C343 N344 1.261 . S
N344 Co295 2.214 . S
N344 C342 1.325 . S
N344 C343 1.261 . S
C345 H315 0.931 . S
C345 C342 1.357 . S
C345 C346 1.312 . S
C346 H317 0.930 . S
C346 C341 1.261 . S
C346 C345 1.312 . S
C347 O319 1.214 . S
C347 O327 1.234 . S
C348 H320 0.929 . S
C348 C351 1.391 . S
C348 C353 1.391 . S
C349 H321 0.929 . S
C349 C350 1.390 . S
C349 N352 1.391 . S
C350 H322 0.930 . S
C350 C349 1.390 . S
C350 C351 1.392 . S
C351 H323 0.929 . S
C351 C348 1.391 . S
C351 C350 1.392 . S
N352 Co296 2.257 . S
N352 C349 1.391 . S
N352 C353 1.388 . S
C353 H324 0.930 . S
C353 C348 1.391 . S
C353 N352 1.388 . S
Co354 O356 2.143 . S
Co354 O362 2.074 . S
Co354 O365 2.093 . S
Co354 O378 2.097 . S
Co354 N395 2.151 . S
Co354 N403 2.214 . S
Co355 O356 2.160 . S
Co355 O361 2.058 . S
Co355 O371 2.057 . S
Co355 O386 2.037 . S
Co355 N390 2.145 . S
Co355 N411 2.257 . S
O356 Co354 2.143 . S
O356 Co355 2.160 . S
C357 O358 1.278 . S
C357 O365 1.224 . S
O358 C357 1.278 . S
C359 O360 1.245 . S
C359 O371 1.232 . S
O360 C359 1.245 . S
O361 Co355 2.058 . S
O361 C387 1.269 . S
O362 Co354 2.074 . S
O362 C387 1.257 . S
H363 C388 0.930 . S
H364 C394 0.930 . S
O365 Co354 2.093 . S
O365 C357 1.224 . S
H366 C398 0.929 . S
H367 C400 0.930 . S
H368 C401 0.930 . S
H369 C399 0.929 . S
H370 C402 0.928 . S
O371 Co355 2.057 . S
O371 C359 1.232 . S
H372 C391 0.929 . S
H373 C392 0.929 . S
H374 C404 0.931 . S
H375 C396 0.929 . S
H376 C405 0.930 . S
H377 C397 0.931 . S
O378 Co354 2.097 . S
O378 C406 1.214 . S
H379 C407 0.929 . S
H380 C408 0.929 . S
H381 C409 0.930 . S
H382 C410 0.929 . S
H383 C412 0.930 . S
H384 C389 0.930 . S
H385 C393 0.930 . S
O386 Co355 2.037 . S
O386 C406 1.234 . S
C387 O361 1.269 . S
C387 O362 1.257 . S
C388 H363 0.930 . S
C388 C391 1.388 . S
C388 C393 1.418 . S
C389 H384 0.930 . S
C389 C392 1.404 . S
C389 C393 1.353 . S
N390 Co355 2.145 . S
N390 C391 1.397 . S
N390 C392 1.334 . S
C391 H372 0.929 . S
C391 C388 1.388 . S
C391 N390 1.397 . S
C392 H373 0.929 . S
C392 C389 1.404 . S
C392 N390 1.334 . S
C393 H385 0.930 . S
C393 C388 1.418 . S
C393 C389 1.353 . S
C394 H364 0.930 . S
C394 N395 1.330 . S
C394 C396 1.446 . S
N395 Co354 2.151 . S
N395 C394 1.330 . S
N395 C399 1.418 . S
C396 H375 0.929 . S
C396 C394 1.446 . S
C396 C397 1.332 . S
C397 H377 0.931 . S
C397 C396 1.332 . S
C397 C398 1.267 . S
C398 H366 0.929 . S
C398 C397 1.267 . S
C398 C399 1.251 . S
C399 H369 0.929 . S
C399 N395 1.418 . S
C399 C398 1.251 . S
C400 H367 0.930 . S
C400 C402 1.406 . S
C400 C405 1.261 . S
C401 H368 0.930 . S
C401 N403 1.325 . S
C401 C404 1.357 . S
C402 H370 0.928 . S
C402 C400 1.406 . S
C402 N403 1.261 . S
N403 Co354 2.214 . S
N403 C401 1.325 . S
N403 C402 1.261 . S
C404 H374 0.931 . S
C404 C401 1.357 . S
C404 C405 1.312 . S
C405 H376 0.930 . S
C405 C400 1.261 . S
C405 C404 1.312 . S
C406 O378 1.214 . S
C406 O386 1.234 . S
C407 H379 0.929 . S
C407 C410 1.391 . S
C407 C412 1.391 . S
C408 H380 0.929 . S
C408 C409 1.390 . S
C408 N411 1.391 . S
C409 H381 0.930 . S
C409 C408 1.390 . S
C409 C410 1.392 . S
C410 H382 0.929 . S
C410 C407 1.391 . S
C410 C409 1.392 . S
N411 Co355 2.257 . S
N411 C408 1.391 . S
N411 C412 1.388 . S
C412 H383 0.930 . S
C412 C407 1.391 . S
C412 N411 1.388 . S
Co413 O415 2.143 . S
Co413 O421 2.074 . S
Co413 O424 2.093 . S
Co413 O437 2.097 . S
Co413 N454 2.151 . S
Co413 N462 2.214 . S
Co414 O415 2.160 . S
Co414 O420 2.058 . S
Co414 O430 2.057 . S
Co414 O445 2.037 . S
Co414 N449 2.145 . S
Co414 N470 2.257 . S
O415 Co413 2.143 . S
O415 Co414 2.160 . S
C416 O417 1.278 . S
C416 O424 1.224 . S
O417 C416 1.278 . S
C418 O419 1.245 . S
C418 O430 1.232 . S
O419 C418 1.245 . S
O420 Co414 2.058 . S
O420 C446 1.269 . S
O421 Co413 2.074 . S
O421 C446 1.257 . S
H422 C447 0.930 . S
H423 C453 0.930 . S
O424 Co413 2.093 . S
O424 C416 1.224 . S
H425 C457 0.929 . S
H426 C459 0.930 . S
H427 C460 0.930 . S
H428 C458 0.929 . S
H429 C461 0.928 . S
O430 Co414 2.057 . S
O430 C418 1.232 . S
H431 C450 0.929 . S
H432 C451 0.929 . S
H433 C463 0.931 . S
H434 C455 0.929 . S
H435 C464 0.930 . S
H436 C456 0.931 . S
O437 Co413 2.097 . S
O437 C465 1.214 . S
H438 C466 0.929 . S
H439 C467 0.929 . S
H440 C468 0.930 . S
H441 C469 0.929 . S
H442 C471 0.930 . S
H443 C448 0.930 . S
H444 C452 0.930 . S
O445 Co414 2.037 . S
O445 C465 1.234 . S
C446 O420 1.269 . S
C446 O421 1.257 . S
C447 H422 0.930 . S
C447 C450 1.388 . S
C447 C452 1.418 . S
C448 H443 0.930 . S
C448 C451 1.404 . S
C448 C452 1.353 . S
N449 Co414 2.145 . S
N449 C450 1.397 . S
N449 C451 1.334 . S
C450 H431 0.929 . S
C450 C447 1.388 . S
C450 N449 1.397 . S
C451 H432 0.929 . S
C451 C448 1.404 . S
C451 N449 1.334 . S
C452 H444 0.930 . S
C452 C447 1.418 . S
C452 C448 1.353 . S
C453 H423 0.930 . S
C453 N454 1.330 . S
C453 C455 1.446 . S
N454 Co413 2.151 . S
N454 C453 1.330 . S
N454 C458 1.418 . S
C455 H434 0.929 . S
C455 C453 1.446 . S
C455 C456 1.332 . S
C456 H436 0.931 . S
C456 C455 1.332 . S
C456 C457 1.267 . S
C457 H425 0.929 . S
C457 C456 1.267 . S
C457 C458 1.251 . S
C458 H428 0.929 . S
C458 N454 1.418 . S
C458 C457 1.251 . S
C459 H426 0.930 . S
C459 C461 1.406 . S
C459 C464 1.261 . S
C460 H427 0.930 . S
C460 N462 1.325 . S
C460 C463 1.357 . S
C461 H429 0.928 . S
C461 C459 1.406 . S
C461 N462 1.261 . S
N462 Co413 2.214 . S
N462 C460 1.325 . S
N462 C461 1.261 . S
C463 H433 0.931 . S
C463 C460 1.357 . S
C463 C464 1.312 . S
C464 H435 0.930 . S
C464 C459 1.261 . S
C464 C463 1.312 . S
C465 O437 1.214 . S
C465 O445 1.234 . S
C466 H438 0.929 . S
C466 C469 1.391 . S
C466 C471 1.391 . S
C467 H439 0.929 . S
C467 C468 1.390 . S
C467 N470 1.391 . S
C468 H440 0.930 . S
C468 C467 1.390 . S
C468 C469 1.392 . S
C469 H441 0.929 . S
C469 C466 1.391 . S
C469 C468 1.392 . S
N470 Co414 2.257 . S
N470 C467 1.391 . S
N470 C471 1.388 . S
C471 H442 0.930 . S
C471 C466 1.391 . S
C471 N470 1.388 . S
Co472 O474 2.143 . S
Co472 O480 2.074 . S
Co472 O483 2.093 . S
Co472 O496 2.097 . S
Co472 N513 2.151 . S
Co472 N521 2.214 . S
Co473 O474 2.160 1_554 S
Co473 O479 2.058 . S
Co473 O489 2.057 . S
Co473 O504 2.032 1_554 S
Co473 N508 2.145 . S
Co473 N529 2.255 1_554 S
O474 Co472 2.143 . S
O474 Co473 2.160 1_556 S
C475 O476 1.278 . S
C475 O483 1.224 . S
O476 C475 1.278 . S
C477 O478 1.245 . S
C477 O489 1.232 1_556 S
O478 C477 1.245 . S
O479 Co473 2.058 . S
O479 C505 1.269 1_554 S
O480 Co472 2.074 . S
O480 C505 1.257 . S
H481 C506 0.930 . S
H482 C512 0.930 . S
O483 Co472 2.093 . S
O483 C475 1.224 . S
H484 C516 0.929 . S
H485 C518 0.930 . S
H486 C519 0.930 . S
H487 C517 0.929 . S
H488 C520 0.928 . S
O489 Co473 2.057 . S
O489 C477 1.232 1_554 S
H490 C509 0.929 . S
H491 C510 0.929 . S
H492 C522 0.931 . S
H493 C514 0.929 . S
H494 C523 0.930 . S
H495 C515 0.931 . S
O496 Co472 2.097 . S
O496 C524 1.214 . S
H497 C525 0.929 . S
H498 C526 0.929 . S
H499 C527 0.930 . S
H500 C528 0.929 . S
H501 C530 0.930 . S
H502 C507 0.930 . S
H503 C511 0.930 . S
O504 Co473 2.032 1_556 S
O504 C524 1.265 . S
C505 O479 1.269 1_556 S
C505 O480 1.257 . S
C506 H481 0.930 . S
C506 C509 1.388 . S
C506 C511 1.418 . S
C507 H502 0.930 . S
C507 C510 1.404 . S
C507 C511 1.353 . S
N508 Co473 2.145 . S
N508 C509 1.397 . S
N508 C510 1.334 . S
C509 H490 0.929 . S
C509 C506 1.388 . S
C509 N508 1.397 . S
C510 H491 0.929 . S
C510 C507 1.404 . S
C510 N508 1.334 . S
C511 H503 0.930 . S
C511 C506 1.418 . S
C511 C507 1.353 . S
C512 H482 0.930 . S
C512 N513 1.330 . S
C512 C514 1.446 . S
N513 Co472 2.151 . S
N513 C512 1.330 . S
N513 C517 1.418 . S
C514 H493 0.929 . S
C514 C512 1.446 . S
C514 C515 1.332 . S
C515 H495 0.931 . S
C515 C514 1.332 . S
C515 C516 1.267 . S
C516 H484 0.929 . S
C516 C515 1.267 . S
C516 C517 1.251 . S
C517 H487 0.929 . S
C517 N513 1.418 . S
C517 C516 1.251 . S
C518 H485 0.930 . S
C518 C520 1.406 . S
C518 C523 1.261 . S
C519 H486 0.930 . S
C519 N521 1.325 . S
C519 C522 1.357 . S
C520 H488 0.928 . S
C520 C518 1.406 . S
C520 N521 1.261 . S
N521 Co472 2.214 . S
N521 C519 1.325 . S
N521 C520 1.261 . S
C522 H492 0.931 . S
C522 C519 1.357 . S
C522 C523 1.312 . S
C523 H494 0.930 . S
C523 C518 1.261 . S
C523 C522 1.312 . S
C524 O496 1.214 . S
C524 O504 1.265 . S
C525 H497 0.929 . S
C525 C528 1.391 . S
C525 C530 1.391 . S
C526 H498 0.929 . S
C526 C527 1.390 . S
C526 N529 1.384 1_554 S
C527 H499 0.930 . S
C527 C526 1.390 . S
C527 C528 1.392 1_554 S
C528 H500 0.929 . S
C528 C525 1.391 . S
C528 C527 1.392 1_556 S
N529 Co473 2.255 1_556 S
N529 C526 1.384 1_556 S
N529 C530 1.399 . S
C530 H501 0.930 . S
C530 C525 1.391 . S
C530 N529 1.399 . S
Co531 O533 2.143 . S
Co531 O539 2.074 . S
Co531 O542 2.093 . S
Co531 O555 2.097 . S
Co531 N572 2.151 . S
Co531 N580 2.214 . S
Co532 O533 2.160 . S
Co532 O538 2.058 . S
Co532 O548 2.057 . S
Co532 O563 2.037 . S
Co532 N567 2.145 . S
Co532 N588 2.257 . S
O533 Co531 2.143 . S
O533 Co532 2.160 . S
C534 O535 1.278 . S
C534 O542 1.224 . S
O535 C534 1.278 . S
C536 O537 1.245 . S
C536 O548 1.232 . S
O537 C536 1.245 . S
O538 Co532 2.058 . S
O538 C564 1.269 . S
O539 Co531 2.074 . S
O539 C564 1.257 . S
H540 C565 0.930 . S
H541 C571 0.930 . S
O542 Co531 2.093 . S
O542 C534 1.224 . S
H543 C575 0.929 . S
H544 C577 0.930 . S
H545 C578 0.930 . S
H546 C576 0.929 . S
H547 C579 0.928 . S
O548 Co532 2.057 . S
O548 C536 1.232 . S
H549 C568 0.929 . S
H550 C569 0.929 . S
H551 C581 0.931 . S
H552 C573 0.929 . S
H553 C582 0.930 . S
H554 C574 0.931 . S
O555 Co531 2.097 . S
O555 C583 1.214 . S
H556 C584 0.929 . S
H557 C585 0.929 . S
H558 C586 0.930 . S
H559 C587 0.929 . S
H560 C589 0.930 . S
H561 C566 0.930 . S
H562 C570 0.930 . S
O563 Co532 2.037 . S
O563 C583 1.234 . S
C564 O538 1.269 . S
C564 O539 1.257 . S
C565 H540 0.930 . S
C565 C568 1.388 . S
C565 C570 1.418 . S
C566 H561 0.930 . S
C566 C569 1.404 . S
C566 C570 1.353 . S
N567 Co532 2.145 . S
N567 C568 1.397 . S
N567 C569 1.334 . S
C568 H549 0.929 . S
C568 C565 1.388 . S
C568 N567 1.397 . S
C569 H550 0.929 . S
C569 C566 1.404 . S
C569 N567 1.334 . S
C570 H562 0.930 . S
C570 C565 1.418 . S
C570 C566 1.353 . S
C571 H541 0.930 . S
C571 N572 1.330 . S
C571 C573 1.446 . S
N572 Co531 2.151 . S
N572 C571 1.330 . S
N572 C576 1.418 . S
C573 H552 0.929 . S
C573 C571 1.446 . S
C573 C574 1.332 . S
C574 H554 0.931 . S
C574 C573 1.332 . S
C574 C575 1.267 . S
C575 H543 0.929 . S
C575 C574 1.267 . S
C575 C576 1.251 . S
C576 H546 0.929 . S
C576 N572 1.418 . S
C576 C575 1.251 . S
C577 H544 0.930 . S
C577 C579 1.406 . S
C577 C582 1.261 . S
C578 H545 0.930 . S
C578 N580 1.325 . S
C578 C581 1.357 . S
C579 H547 0.928 . S
C579 C577 1.406 . S
C579 N580 1.261 . S
N580 Co531 2.214 . S
N580 C578 1.325 . S
N580 C579 1.261 . S
C581 H551 0.931 . S
C581 C578 1.357 . S
C581 C582 1.312 . S
C582 H553 0.930 . S
C582 C577 1.261 . S
C582 C581 1.312 . S
C583 O555 1.214 . S
C583 O563 1.234 . S
C584 H556 0.929 . S
C584 C587 1.391 . S
C584 C589 1.391 . S
C585 H557 0.929 . S
C585 C586 1.390 . S
C585 N588 1.391 . S
C586 H558 0.930 . S
C586 C585 1.390 . S
C586 C587 1.392 . S
C587 H559 0.929 . S
C587 C584 1.391 . S
C587 C586 1.392 . S
N588 Co532 2.257 . S
N588 C585 1.391 . S
N588 C589 1.388 . S
C589 H560 0.930 . S
C589 C584 1.391 . S
C589 N588 1.388 . S
Co590 O592 2.143 . S
Co590 O598 2.074 . S
Co590 O601 2.093 . S
Co590 O614 2.097 . S
Co590 N631 2.151 . S
Co590 N639 2.214 . S
Co591 O592 2.160 . S
Co591 O597 2.058 . S
Co591 O607 2.057 . S
Co591 O622 2.037 . S
Co591 N626 2.145 . S
Co591 N647 2.257 . S
O592 Co590 2.143 . S
O592 Co591 2.160 . S
C593 O594 1.278 . S
C593 O601 1.224 . S
O594 C593 1.278 . S
C595 O596 1.245 . S
C595 O607 1.232 . S
O596 C595 1.245 . S
O597 Co591 2.058 . S
O597 C623 1.269 . S
O598 Co590 2.074 . S
O598 C623 1.257 . S
H599 C624 0.930 . S
H600 C630 0.930 . S
O601 Co590 2.093 . S
O601 C593 1.224 . S
H602 C634 0.929 . S
H603 C636 0.930 . S
H604 C637 0.930 . S
H605 C635 0.929 . S
H606 C638 0.928 . S
O607 Co591 2.057 . S
O607 C595 1.232 . S
H608 C627 0.929 . S
H609 C628 0.929 . S
H610 C640 0.931 . S
H611 C632 0.929 . S
H612 C641 0.930 . S
H613 C633 0.931 . S
O614 Co590 2.097 . S
O614 C642 1.214 . S
H615 C643 0.929 . S
H616 C644 0.929 . S
H617 C645 0.930 . S
H618 C646 0.929 . S
H619 C648 0.930 . S
H620 C625 0.930 . S
H621 C629 0.930 . S
O622 Co591 2.037 . S
O622 C642 1.234 . S
C623 O597 1.269 . S
C623 O598 1.257 . S
C624 H599 0.930 . S
C624 C627 1.388 . S
C624 C629 1.418 . S
C625 H620 0.930 . S
C625 C628 1.404 . S
C625 C629 1.353 . S
N626 Co591 2.145 . S
N626 C627 1.397 . S
N626 C628 1.334 . S
C627 H608 0.929 . S
C627 C624 1.388 . S
C627 N626 1.397 . S
C628 H609 0.929 . S
C628 C625 1.404 . S
C628 N626 1.334 . S
C629 H621 0.930 . S
C629 C624 1.418 . S
C629 C625 1.353 . S
C630 H600 0.930 . S
C630 N631 1.330 . S
C630 C632 1.446 . S
N631 Co590 2.151 . S
N631 C630 1.330 . S
N631 C635 1.418 . S
C632 H611 0.929 . S
C632 C630 1.446 . S
C632 C633 1.332 . S
C633 H613 0.931 . S
C633 C632 1.332 . S
C633 C634 1.267 . S
C634 H602 0.929 . S
C634 C633 1.267 . S
C634 C635 1.251 . S
C635 H605 0.929 . S
C635 N631 1.418 . S
C635 C634 1.251 . S
C636 H603 0.930 . S
C636 C638 1.406 . S
C636 C641 1.261 . S
C637 H604 0.930 . S
C637 N639 1.325 . S
C637 C640 1.357 . S
C638 H606 0.928 . S
C638 C636 1.406 . S
C638 N639 1.261 . S
N639 Co590 2.214 . S
N639 C637 1.325 . S
N639 C638 1.261 . S
C640 H610 0.931 . S
C640 C637 1.357 . S
C640 C641 1.312 . S
C641 H612 0.930 . S
C641 C636 1.261 . S
C641 C640 1.312 . S
C642 O614 1.214 . S
C642 O622 1.234 . S
C643 H615 0.929 . S
C643 C646 1.391 . S
C643 C648 1.391 . S
C644 H616 0.929 . S
C644 C645 1.390 . S
C644 N647 1.391 . S
C645 H617 0.930 . S
C645 C644 1.390 . S
C645 C646 1.392 . S
C646 H618 0.929 . S
C646 C643 1.391 . S
C646 C645 1.392 . S
N647 Co591 2.257 . S
N647 C644 1.391 . S
N647 C648 1.388 . S
C648 H619 0.930 . S
C648 C643 1.391 . S
C648 N647 1.388 . S
Co649 O651 2.143 . S
Co649 O657 2.074 . S
Co649 O660 2.093 . S
Co649 O673 2.097 . S
Co649 N690 2.151 . S
Co649 N698 2.214 . S
Co650 O651 2.160 . S
Co650 O656 2.058 . S
Co650 O666 2.057 . S
Co650 O681 2.037 . S
Co650 N685 2.145 . S
Co650 N706 2.257 . S
O651 Co649 2.143 . S
O651 Co650 2.160 . S
C652 O653 1.278 . S
C652 O660 1.224 . S
O653 C652 1.278 . S
C654 O655 1.245 . S
C654 O666 1.232 . S
O655 C654 1.245 . S
O656 Co650 2.058 . S
O656 C682 1.269 . S
O657 Co649 2.074 . S
O657 C682 1.257 . S
H658 C683 0.930 . S
H659 C689 0.930 . S
O660 Co649 2.093 . S
O660 C652 1.224 . S
H661 C693 0.929 . S
H662 C695 0.930 . S
H663 C696 0.930 . S
H664 C694 0.929 . S
H665 C697 0.928 . S
O666 Co650 2.057 . S
O666 C654 1.232 . S
H667 C686 0.929 . S
H668 C687 0.929 . S
H669 C699 0.931 . S
H670 C691 0.929 . S
H671 C700 0.930 . S
H672 C692 0.931 . S
O673 Co649 2.097 . S
O673 C701 1.214 . S
H674 C702 0.929 . S
H675 C703 0.929 . S
H676 C704 0.930 . S
H677 C705 0.929 . S
H678 C707 0.930 . S
H679 C684 0.930 . S
H680 C688 0.930 . S
O681 Co650 2.037 . S
O681 C701 1.234 . S
C682 O656 1.269 . S
C682 O657 1.257 . S
C683 H658 0.930 . S
C683 C686 1.388 . S
C683 C688 1.418 . S
C684 H679 0.930 . S
C684 C687 1.404 . S
C684 C688 1.353 . S
N685 Co650 2.145 . S
N685 C686 1.397 . S
N685 C687 1.334 . S
C686 H667 0.929 . S
C686 C683 1.388 . S
C686 N685 1.397 . S
C687 H668 0.929 . S
C687 C684 1.404 . S
C687 N685 1.334 . S
C688 H680 0.930 . S
C688 C683 1.418 . S
C688 C684 1.353 . S
C689 H659 0.930 . S
C689 N690 1.330 . S
C689 C691 1.446 . S
N690 Co649 2.151 . S
N690 C689 1.330 . S
N690 C694 1.418 . S
C691 H670 0.929 . S
C691 C689 1.446 . S
C691 C692 1.332 . S
C692 H672 0.931 . S
C692 C691 1.332 . S
C692 C693 1.267 . S
C693 H661 0.929 . S
C693 C692 1.267 . S
C693 C694 1.251 . S
C694 H664 0.929 . S
C694 N690 1.418 . S
C694 C693 1.251 . S
C695 H662 0.930 . S
C695 C697 1.406 . S
C695 C700 1.261 . S
C696 H663 0.930 . S
C696 N698 1.325 . S
C696 C699 1.357 . S
C697 H665 0.928 . S
C697 C695 1.406 . S
C697 N698 1.261 . S
N698 Co649 2.214 . S
N698 C696 1.325 . S
N698 C697 1.261 . S
C699 H669 0.931 . S
C699 C696 1.357 . S
C699 C700 1.312 . S
C700 H671 0.930 . S
C700 C695 1.261 . S
C700 C699 1.312 . S
C701 O673 1.214 . S
C701 O681 1.234 . S
C702 H674 0.929 . S
C702 C705 1.391 . S
C702 C707 1.391 . S
C703 H675 0.929 . S
C703 C704 1.390 . S
C703 N706 1.391 . S
C704 H676 0.930 . S
C704 C703 1.390 . S
C704 C705 1.392 . S
C705 H677 0.929 . S
C705 C702 1.391 . S
C705 C704 1.392 . S
N706 Co650 2.257 . S
N706 C703 1.391 . S
N706 C707 1.388 . S
C707 H678 0.930 . S
C707 C702 1.391 . S
C707 N706 1.388 . S
Co708 O710 2.143 . S
Co708 O716 2.074 . S
Co708 O719 2.093 . S
Co708 O732 2.097 . S
Co708 N749 2.151 . S
Co708 N757 2.214 . S
Co709 O710 2.160 1_556 S
Co709 O715 2.058 . S
Co709 O725 2.057 . S
Co709 O740 2.032 1_556 S
Co709 N744 2.145 . S
Co709 N765 2.255 1_556 S
O710 Co708 2.143 . S
O710 Co709 2.160 1_554 S
C711 O712 1.278 . S
C711 O719 1.224 . S
O712 C711 1.278 . S
C713 O714 1.245 . S
C713 O725 1.232 1_554 S
O714 C713 1.245 . S
O715 Co709 2.058 . S
O715 C741 1.269 1_556 S
O716 Co708 2.074 . S
O716 C741 1.257 . S
H717 C742 0.930 . S
H718 C748 0.930 . S
O719 Co708 2.093 . S
O719 C711 1.224 . S
H720 C752 0.929 . S
H721 C754 0.930 . S
H722 C755 0.930 . S
H723 C753 0.929 . S
H724 C756 0.928 . S
O725 Co709 2.057 . S
O725 C713 1.232 1_556 S
H726 C745 0.929 . S
H727 C746 0.929 . S
H728 C758 0.931 . S
H729 C750 0.929 . S
H730 C759 0.930 . S
H731 C751 0.931 . S
O732 Co708 2.097 . S
O732 C760 1.214 . S
H733 C761 0.929 . S
H734 C762 0.929 . S
H735 C763 0.930 . S
H736 C764 0.929 . S
H737 C766 0.930 . S
H738 C743 0.930 . S
H739 C747 0.930 . S
O740 Co709 2.032 1_554 S
O740 C760 1.265 . S
C741 O715 1.269 1_554 S
C741 O716 1.257 . S
C742 H717 0.930 . S
C742 C745 1.388 . S
C742 C747 1.418 . S
C743 H738 0.930 . S
C743 C746 1.404 . S
C743 C747 1.353 . S
N744 Co709 2.145 . S
N744 C745 1.397 . S
N744 C746 1.334 . S
C745 H726 0.929 . S
C745 C742 1.388 . S
C745 N744 1.397 . S
C746 H727 0.929 . S
C746 C743 1.404 . S
C746 N744 1.334 . S
C747 H739 0.930 . S
C747 C742 1.418 . S
C747 C743 1.353 . S
C748 H718 0.930 . S
C748 N749 1.330 . S
C748 C750 1.446 . S
N749 Co708 2.151 . S
N749 C748 1.330 . S
N749 C753 1.418 . S
C750 H729 0.929 . S
C750 C748 1.446 . S
C750 C751 1.332 . S
C751 H731 0.931 . S
C751 C750 1.332 . S
C751 C752 1.267 . S
C752 H720 0.929 . S
C752 C751 1.267 . S
C752 C753 1.251 . S
C753 H723 0.929 . S
C753 N749 1.418 . S
C753 C752 1.251 . S
C754 H721 0.930 . S
C754 C756 1.406 . S
C754 C759 1.261 . S
C755 H722 0.930 . S
C755 N757 1.325 . S
C755 C758 1.357 . S
C756 H724 0.928 . S
C756 C754 1.406 . S
C756 N757 1.261 . S
N757 Co708 2.214 . S
N757 C755 1.325 . S
N757 C756 1.261 . S
C758 H728 0.931 . S
C758 C755 1.357 . S
C758 C759 1.312 . S
C759 H730 0.930 . S
C759 C754 1.261 . S
C759 C758 1.312 . S
C760 O732 1.214 . S
C760 O740 1.265 . S
C761 H733 0.929 . S
C761 C764 1.391 . S
C761 C766 1.391 . S
C762 H734 0.929 . S
C762 C763 1.390 . S
C762 N765 1.384 1_556 S
C763 H735 0.930 . S
C763 C762 1.390 . S
C763 C764 1.392 1_556 S
C764 H736 0.929 . S
C764 C761 1.391 . S
C764 C763 1.392 1_554 S
N765 Co709 2.255 1_554 S
N765 C762 1.384 1_554 S
N765 C766 1.399 . S
C766 H737 0.930 . S
C766 C761 1.391 . S
C766 N765 1.399 . S
Co767 O769 2.143 . S
Co767 O775 2.074 . S
Co767 O778 2.093 . S
Co767 O791 2.097 . S
Co767 N808 2.151 . S
Co767 N816 2.214 . S
Co768 O769 2.160 . S
Co768 O774 2.058 . S
Co768 O784 2.057 . S
Co768 O799 2.037 . S
Co768 N803 2.145 . S
Co768 N824 2.257 . S
O769 Co767 2.143 . S
O769 Co768 2.160 . S
C770 O771 1.278 . S
C770 O778 1.224 . S
O771 C770 1.278 . S
C772 O773 1.245 . S
C772 O784 1.232 . S
O773 C772 1.245 . S
O774 Co768 2.058 . S
O774 C800 1.269 . S
O775 Co767 2.074 . S
O775 C800 1.257 . S
H776 C801 0.930 . S
H777 C807 0.930 . S
O778 Co767 2.093 . S
O778 C770 1.224 . S
H779 C811 0.929 . S
H780 C813 0.930 . S
H781 C814 0.930 . S
H782 C812 0.929 . S
H783 C815 0.928 . S
O784 Co768 2.057 . S
O784 C772 1.232 . S
H785 C804 0.929 . S
H786 C805 0.929 . S
H787 C817 0.931 . S
H788 C809 0.929 . S
H789 C818 0.930 . S
H790 C810 0.931 . S
O791 Co767 2.097 . S
O791 C819 1.214 . S
H792 C820 0.929 . S
H793 C821 0.929 . S
H794 C822 0.930 . S
H795 C823 0.929 . S
H796 C825 0.930 . S
H797 C802 0.930 . S
H798 C806 0.930 . S
O799 Co768 2.037 . S
O799 C819 1.234 . S
C800 O774 1.269 . S
C800 O775 1.257 . S
C801 H776 0.930 . S
C801 C804 1.388 . S
C801 C806 1.418 . S
C802 H797 0.930 . S
C802 C805 1.404 . S
C802 C806 1.353 . S
N803 Co768 2.145 . S
N803 C804 1.397 . S
N803 C805 1.334 . S
C804 H785 0.929 . S
C804 C801 1.388 . S
C804 N803 1.397 . S
C805 H786 0.929 . S
C805 C802 1.404 . S
C805 N803 1.334 . S
C806 H798 0.930 . S
C806 C801 1.418 . S
C806 C802 1.353 . S
C807 H777 0.930 . S
C807 N808 1.330 . S
C807 C809 1.446 . S
N808 Co767 2.151 . S
N808 C807 1.330 . S
N808 C812 1.418 . S
C809 H788 0.929 . S
C809 C807 1.446 . S
C809 C810 1.332 . S
C810 H790 0.931 . S
C810 C809 1.332 . S
C810 C811 1.267 . S
C811 H779 0.929 . S
C811 C810 1.267 . S
C811 C812 1.251 . S
C812 H782 0.929 . S
C812 N808 1.418 . S
C812 C811 1.251 . S
C813 H780 0.930 . S
C813 C815 1.406 . S
C813 C818 1.261 . S
C814 H781 0.930 . S
C814 N816 1.325 . S
C814 C817 1.357 . S
C815 H783 0.928 . S
C815 C813 1.406 . S
C815 N816 1.261 . S
N816 Co767 2.214 . S
N816 C814 1.325 . S
N816 C815 1.261 . S
C817 H787 0.931 . S
C817 C814 1.357 . S
C817 C818 1.312 . S
C818 H789 0.930 . S
C818 C813 1.261 . S
C818 C817 1.312 . S
C819 O791 1.214 . S
C819 O799 1.234 . S
C820 H792 0.929 . S
C820 C823 1.391 . S
C820 C825 1.391 . S
C821 H793 0.929 . S
C821 C822 1.390 . S
C821 N824 1.391 . S
C822 H794 0.930 . S
C822 C821 1.390 . S
C822 C823 1.392 . S
C823 H795 0.929 . S
C823 C820 1.391 . S
C823 C822 1.392 . S
N824 Co768 2.257 . S
N824 C821 1.391 . S
N824 C825 1.388 . S
C825 H796 0.930 . S
C825 C820 1.391 . S
C825 N824 1.388 . S
Co826 O828 2.143 . S
Co826 O834 2.074 . S
Co826 O837 2.093 . S
Co826 O850 2.097 . S
Co826 N867 2.151 . S
Co826 N875 2.214 . S
Co827 O828 2.160 . S
Co827 O833 2.058 . S
Co827 O843 2.057 . S
Co827 O858 2.037 . S
Co827 N862 2.145 . S
Co827 N883 2.257 . S
O828 Co826 2.143 . S
O828 Co827 2.160 . S
C829 O830 1.278 . S
C829 O837 1.224 . S
O830 C829 1.278 . S
C831 O832 1.245 . S
C831 O843 1.232 . S
O832 C831 1.245 . S
O833 Co827 2.058 . S
O833 C859 1.269 . S
O834 Co826 2.074 . S
O834 C859 1.257 . S
H835 C860 0.930 . S
H836 C866 0.930 . S
O837 Co826 2.093 . S
O837 C829 1.224 . S
H838 C870 0.929 . S
H839 C872 0.930 . S
H840 C873 0.930 . S
H841 C871 0.929 . S
H842 C874 0.928 . S
O843 Co827 2.057 . S
O843 C831 1.232 . S
H844 C863 0.929 . S
H845 C864 0.929 . S
H846 C876 0.931 . S
H847 C868 0.929 . S
H848 C877 0.930 . S
H849 C869 0.931 . S
O850 Co826 2.097 . S
O850 C878 1.214 . S
H851 C879 0.929 . S
H852 C880 0.929 . S
H853 C881 0.930 . S
H854 C882 0.929 . S
H855 C884 0.930 . S
H856 C861 0.930 . S
H857 C865 0.930 . S
O858 Co827 2.037 . S
O858 C878 1.234 . S
C859 O833 1.269 . S
C859 O834 1.257 . S
C860 H835 0.930 . S
C860 C863 1.388 . S
C860 C865 1.418 . S
C861 H856 0.930 . S
C861 C864 1.404 . S
C861 C865 1.353 . S
N862 Co827 2.145 . S
N862 C863 1.397 . S
N862 C864 1.334 . S
C863 H844 0.929 . S
C863 C860 1.388 . S
C863 N862 1.397 . S
C864 H845 0.929 . S
C864 C861 1.404 . S
C864 N862 1.334 . S
C865 H857 0.930 . S
C865 C860 1.418 . S
C865 C861 1.353 . S
C866 H836 0.930 . S
C866 N867 1.330 . S
C866 C868 1.446 . S
N867 Co826 2.151 . S
N867 C866 1.330 . S
N867 C871 1.418 . S
C868 H847 0.929 . S
C868 C866 1.446 . S
C868 C869 1.332 . S
C869 H849 0.931 . S
C869 C868 1.332 . S
C869 C870 1.267 . S
C870 H838 0.929 . S
C870 C869 1.267 . S
C870 C871 1.251 . S
C871 H841 0.929 . S
C871 N867 1.418 . S
C871 C870 1.251 . S
C872 H839 0.930 . S
C872 C874 1.406 . S
C872 C877 1.261 . S
C873 H840 0.930 . S
C873 N875 1.325 . S
C873 C876 1.357 . S
C874 H842 0.928 . S
C874 C872 1.406 . S
C874 N875 1.261 . S
N875 Co826 2.214 . S
N875 C873 1.325 . S
N875 C874 1.261 . S
C876 H846 0.931 . S
C876 C873 1.357 . S
C876 C877 1.312 . S
C877 H848 0.930 . S
C877 C872 1.261 . S
C877 C876 1.312 . S
C878 O850 1.214 . S
C878 O858 1.234 . S
C879 H851 0.929 . S
C879 C882 1.391 . S
C879 C884 1.391 . S
C880 H852 0.929 . S
C880 C881 1.390 . S
C880 N883 1.391 . S
C881 H853 0.930 . S
C881 C880 1.390 . S
C881 C882 1.392 . S
C882 H854 0.929 . S
C882 C879 1.391 . S
C882 C881 1.392 . S
N883 Co827 2.257 . S
N883 C880 1.391 . S
N883 C884 1.388 . S
C884 H855 0.930 . S
C884 C879 1.391 . S
C884 N883 1.388 . S
Co885 O887 2.143 . S
Co885 O893 2.074 . S
Co885 O896 2.093 . S
Co885 O909 2.097 . S
Co885 N926 2.151 . S
Co885 N934 2.214 . S
Co886 O887 2.160 . S
Co886 O892 2.058 . S
Co886 O902 2.057 . S
Co886 O917 2.037 . S
Co886 N921 2.145 . S
Co886 N942 2.257 . S
O887 Co885 2.143 . S
O887 Co886 2.160 . S
C888 O889 1.278 . S
C888 O896 1.224 . S
O889 C888 1.278 . S
C890 O891 1.245 . S
C890 O902 1.232 . S
O891 C890 1.245 . S
O892 Co886 2.058 . S
O892 C918 1.269 . S
O893 Co885 2.074 . S
O893 C918 1.257 . S
H894 C919 0.930 . S
H895 C925 0.930 . S
O896 Co885 2.093 . S
O896 C888 1.224 . S
H897 C929 0.929 . S
H898 C931 0.930 . S
H899 C932 0.930 . S
H900 C930 0.929 . S
H901 C933 0.928 . S
O902 Co886 2.057 . S
O902 C890 1.232 . S
H903 C922 0.929 . S
H904 C923 0.929 . S
H905 C935 0.931 . S
H906 C927 0.929 . S
H907 C936 0.930 . S
H908 C928 0.931 . S
O909 Co885 2.097 . S
O909 C937 1.214 . S
H910 C938 0.929 . S
H911 C939 0.929 . S
H912 C940 0.930 . S
H913 C941 0.929 . S
H914 C943 0.930 . S
H915 C920 0.930 . S
H916 C924 0.930 . S
O917 Co886 2.037 . S
O917 C937 1.234 . S
C918 O892 1.269 . S
C918 O893 1.257 . S
C919 H894 0.930 . S
C919 C922 1.388 . S
C919 C924 1.418 . S
C920 H915 0.930 . S
C920 C923 1.404 . S
C920 C924 1.353 . S
N921 Co886 2.145 . S
N921 C922 1.397 . S
N921 C923 1.334 . S
C922 H903 0.929 . S
C922 C919 1.388 . S
C922 N921 1.397 . S
C923 H904 0.929 . S
C923 C920 1.404 . S
C923 N921 1.334 . S
C924 H916 0.930 . S
C924 C919 1.418 . S
C924 C920 1.353 . S
C925 H895 0.930 . S
C925 N926 1.330 . S
C925 C927 1.446 . S
N926 Co885 2.151 . S
N926 C925 1.330 . S
N926 C930 1.418 . S
C927 H906 0.929 . S
C927 C925 1.446 . S
C927 C928 1.332 . S
C928 H908 0.931 . S
C928 C927 1.332 . S
C928 C929 1.267 . S
C929 H897 0.929 . S
C929 C928 1.267 . S
C929 C930 1.251 . S
C930 H900 0.929 . S
C930 N926 1.418 . S
C930 C929 1.251 . S
C931 H898 0.930 . S
C931 C933 1.406 . S
C931 C936 1.261 . S
C932 H899 0.930 . S
C932 N934 1.325 . S
C932 C935 1.357 . S
C933 H901 0.928 . S
C933 C931 1.406 . S
C933 N934 1.261 . S
N934 Co885 2.214 . S
N934 C932 1.325 . S
N934 C933 1.261 . S
C935 H905 0.931 . S
C935 C932 1.357 . S
C935 C936 1.312 . S
C936 H907 0.930 . S
C936 C931 1.261 . S
C936 C935 1.312 . S
C937 O909 1.214 . S
C937 O917 1.234 . S
C938 H910 0.929 . S
C938 C941 1.391 . S
C938 C943 1.391 . S
C939 H911 0.929 . S
C939 C940 1.390 . S
C939 N942 1.391 . S
C940 H912 0.930 . S
C940 C939 1.390 . S
C940 C941 1.392 . S
C941 H913 0.929 . S
C941 C938 1.391 . S
C941 C940 1.392 . S
N942 Co886 2.257 . S
N942 C939 1.391 . S
N942 C943 1.388 . S
C943 H914 0.930 . S
C943 C938 1.391 . S
C943 N942 1.388 . S
Co944 O946 2.143 . S
Co944 O952 2.074 . S
Co944 O955 2.093 . S
Co944 O968 2.097 . S
Co944 N985 2.151 . S
Co944 N993 2.214 . S
Co945 O946 2.160 . S
Co945 O951 2.058 . S
Co945 O961 2.057 . S
Co945 O976 2.037 . S
Co945 N980 2.145 . S
Co945 N1001 2.257 . S
O946 Co944 2.143 . S
O946 Co945 2.160 . S
C947 O948 1.278 . S
C947 O955 1.224 . S
O948 C947 1.278 . S
C949 O950 1.245 . S
C949 O961 1.232 . S
O950 C949 1.245 . S
O951 Co945 2.058 . S
O951 C977 1.269 . S
O952 Co944 2.074 . S
O952 C977 1.257 . S
H953 C978 0.930 . S
H954 C984 0.930 . S
O955 Co944 2.093 . S
O955 C947 1.224 . S
H956 C988 0.929 . S
H957 C990 0.930 . S
H958 C991 0.930 . S
H959 C989 0.929 . S
H960 C992 0.928 . S
O961 Co945 2.057 . S
O961 C949 1.232 . S
H962 C981 0.929 . S
H963 C982 0.929 . S
H964 C994 0.931 . S
H965 C986 0.929 . S
H966 C995 0.930 . S
H967 C987 0.931 . S
O968 Co944 2.097 . S
O968 C996 1.214 . S
H969 C997 0.929 . S
H970 C998 0.929 . S
H971 C999 0.930 . S
H972 C1000 0.929 . S
H973 C1002 0.930 . S
H974 C979 0.930 . S
H975 C983 0.930 . S
O976 Co945 2.037 . S
O976 C996 1.234 . S
C977 O951 1.269 . S
C977 O952 1.257 . S
C978 H953 0.930 . S
C978 C981 1.388 . S
C978 C983 1.418 . S
C979 H974 0.930 . S
C979 C982 1.404 . S
C979 C983 1.353 . S
N980 Co945 2.145 . S
N980 C981 1.397 . S
N980 C982 1.334 . S
C981 H962 0.929 . S
C981 C978 1.388 . S
C981 N980 1.397 . S
C982 H963 0.929 . S
C982 C979 1.404 . S
C982 N980 1.334 . S
C983 H975 0.930 . S
C983 C978 1.418 . S
C983 C979 1.353 . S
C984 H954 0.930 . S
C984 N985 1.330 . S
C984 C986 1.446 . S
N985 Co944 2.151 . S
N985 C984 1.330 . S
N985 C989 1.418 . S
C986 H965 0.929 . S
C986 C984 1.446 . S
C986 C987 1.332 . S
C987 H967 0.931 . S
C987 C986 1.332 . S
C987 C988 1.267 . S
C988 H956 0.929 . S
C988 C987 1.267 . S
C988 C989 1.251 . S
C989 H959 0.929 . S
C989 N985 1.418 . S
C989 C988 1.251 . S
C990 H957 0.930 . S
C990 C992 1.406 . S
C990 C995 1.261 . S
C991 H958 0.930 . S
C991 N993 1.325 . S
C991 C994 1.357 . S
C992 H960 0.928 . S
C992 C990 1.406 . S
C992 N993 1.261 . S
N993 Co944 2.214 . S
N993 C991 1.325 . S
N993 C992 1.261 . S
C994 H964 0.931 . S
C994 C991 1.357 . S
C994 C995 1.312 . S
C995 H966 0.930 . S
C995 C990 1.261 . S
C995 C994 1.312 . S
C996 O968 1.214 . S
C996 O976 1.234 . S
C997 H969 0.929 . S
C997 C1000 1.391 . S
C997 C1002 1.391 . S
C998 H970 0.929 . S
C998 C999 1.390 . S
C998 N1001 1.391 . S
C999 H971 0.930 . S
C999 C998 1.390 . S
C999 C1000 1.392 . S
C1000 H972 0.929 . S
C1000 C997 1.391 . S
C1000 C999 1.392 . S
N1001 Co945 2.257 . S
N1001 C998 1.391 . S
N1001 C1002 1.388 . S
C1002 H973 0.930 . S
C1002 C997 1.391 . S
C1002 N1001 1.388 . S
Co1003 O1005 2.143 . S
Co1003 O1011 2.074 . S
Co1003 O1014 2.093 . S
Co1003 O1027 2.097 . S
Co1003 N1044 2.151 . S
Co1003 N1052 2.214 . S
Co1004 O1005 2.160 . S
Co1004 O1010 2.058 . S
Co1004 O1020 2.057 . S
Co1004 O1035 2.037 . S
Co1004 N1039 2.145 . S
Co1004 N1060 2.257 . S
O1005 Co1003 2.143 . S
O1005 Co1004 2.160 . S
C1006 O1007 1.278 . S
C1006 O1014 1.224 . S
O1007 C1006 1.278 . S
C1008 O1009 1.245 . S
C1008 O1020 1.232 . S
O1009 C1008 1.245 . S
O1010 Co1004 2.058 . S
O1010 C1036 1.269 . S
O1011 Co1003 2.074 . S
O1011 C1036 1.257 . S
H1012 C1037 0.930 . S
H1013 C1043 0.930 . S
O1014 Co1003 2.093 . S
O1014 C1006 1.224 . S
H1015 C1047 0.929 . S
H1016 C1049 0.930 . S
H1017 C1050 0.930 . S
H1018 C1048 0.929 . S
H1019 C1051 0.928 . S
O1020 Co1004 2.057 . S
O1020 C1008 1.232 . S
H1021 C1040 0.929 . S
H1022 C1041 0.929 . S
H1023 C1053 0.931 . S
H1024 C1045 0.929 . S
H1025 C1054 0.930 . S
H1026 C1046 0.931 . S
O1027 Co1003 2.097 . S
O1027 C1055 1.214 . S
H1028 C1056 0.929 . S
H1029 C1057 0.929 . S
H1030 C1058 0.930 . S
H1031 C1059 0.929 . S
H1032 C1061 0.930 . S
H1033 C1038 0.930 . S
H1034 C1042 0.930 . S
O1035 Co1004 2.037 . S
O1035 C1055 1.234 . S
C1036 O1010 1.269 . S
C1036 O1011 1.257 . S
C1037 H1012 0.930 . S
C1037 C1040 1.388 . S
C1037 C1042 1.418 . S
C1038 H1033 0.930 . S
C1038 C1041 1.404 . S
C1038 C1042 1.353 . S
N1039 Co1004 2.145 . S
N1039 C1040 1.397 . S
N1039 C1041 1.334 . S
C1040 H1021 0.929 . S
C1040 C1037 1.388 . S
C1040 N1039 1.397 . S
C1041 H1022 0.929 . S
C1041 C1038 1.404 . S
C1041 N1039 1.334 . S
C1042 H1034 0.930 . S
C1042 C1037 1.418 . S
C1042 C1038 1.353 . S
C1043 H1013 0.930 . S
C1043 N1044 1.330 . S
C1043 C1045 1.446 . S
N1044 Co1003 2.151 . S
N1044 C1043 1.330 . S
N1044 C1048 1.418 . S
C1045 H1024 0.929 . S
C1045 C1043 1.446 . S
C1045 C1046 1.332 . S
C1046 H1026 0.931 . S
C1046 C1045 1.332 . S
C1046 C1047 1.267 . S
C1047 H1015 0.929 . S
C1047 C1046 1.267 . S
C1047 C1048 1.251 . S
C1048 H1018 0.929 . S
C1048 N1044 1.418 . S
C1048 C1047 1.251 . S
C1049 H1016 0.930 . S
C1049 C1051 1.406 . S
C1049 C1054 1.261 . S
C1050 H1017 0.930 . S
C1050 N1052 1.325 . S
C1050 C1053 1.357 . S
C1051 H1019 0.928 . S
C1051 C1049 1.406 . S
C1051 N1052 1.261 . S
N1052 Co1003 2.214 . S
N1052 C1050 1.325 . S
N1052 C1051 1.261 . S
C1053 H1023 0.931 . S
C1053 C1050 1.357 . S
C1053 C1054 1.312 . S
C1054 H1025 0.930 . S
C1054 C1049 1.261 . S
C1054 C1053 1.312 . S
C1055 O1027 1.214 . S
C1055 O1035 1.234 . S
C1056 H1028 0.929 . S
C1056 C1059 1.391 . S
C1056 C1061 1.391 . S
C1057 H1029 0.929 . S
C1057 C1058 1.390 . S
C1057 N1060 1.391 . S
C1058 H1030 0.930 . S
C1058 C1057 1.390 . S
C1058 C1059 1.392 . S
C1059 H1031 0.929 . S
C1059 C1056 1.391 . S
C1059 C1058 1.392 . S
N1060 Co1004 2.257 . S
N1060 C1057 1.391 . S
N1060 C1061 1.388 . S
C1061 H1032 0.930 . S
C1061 C1056 1.391 . S
C1061 N1060 1.388 . S
Co1062 O1064 2.143 . S
Co1062 O1070 2.074 . S
Co1062 O1073 2.093 . S
Co1062 O1086 2.097 . S
Co1062 N1103 2.151 . S
Co1062 N1111 2.214 . S
Co1063 O1064 2.160 1_556 S
Co1063 O1069 2.058 . S
Co1063 O1079 2.057 . S
Co1063 O1094 2.033 1_556 S
Co1063 N1098 2.145 . S
Co1063 N1119 2.256 1_556 S
O1064 Co1062 2.143 . S
O1064 Co1063 2.160 1_554 S
C1065 O1066 1.278 . S
C1065 O1073 1.224 . S
O1066 C1065 1.278 . S
C1067 O1068 1.245 . S
C1067 O1079 1.232 1_554 S
O1068 C1067 1.245 . S
O1069 Co1063 2.058 . S
O1069 C1095 1.269 1_556 S
O1070 Co1062 2.074 . S
O1070 C1095 1.257 . S
H1071 C1096 0.930 . S
H1072 C1102 0.930 . S
O1073 Co1062 2.093 . S
O1073 C1065 1.224 . S
H1074 C1106 0.929 . S
H1075 C1108 0.930 . S
H1076 C1109 0.930 . S
H1077 C1107 0.929 . S
H1078 C1110 0.928 . S
O1079 Co1063 2.057 . S
O1079 C1067 1.232 1_556 S
H1080 C1099 0.929 . S
H1081 C1100 0.929 . S
H1082 C1112 0.931 . S
H1083 C1104 0.929 . S
H1084 C1113 0.930 . S
H1085 C1105 0.931 . S
O1086 Co1062 2.097 . S
O1086 C1114 1.214 . S
H1087 C1115 0.929 . S
H1088 C1116 0.929 . S
H1089 C1117 0.930 . S
H1090 C1118 0.929 . S
H1091 C1120 0.930 . S
H1092 C1097 0.930 . S
H1093 C1101 0.930 . S
O1094 Co1063 2.033 1_554 S
O1094 C1114 1.259 . S
C1095 O1069 1.269 1_554 S
C1095 O1070 1.257 . S
C1096 H1071 0.930 . S
C1096 C1099 1.388 . S
C1096 C1101 1.418 . S
C1097 H1092 0.930 . S
C1097 C1100 1.404 . S
C1097 C1101 1.353 . S
N1098 Co1063 2.145 . S
N1098 C1099 1.397 . S
N1098 C1100 1.334 . S
C1099 H1080 0.929 . S
C1099 C1096 1.388 . S
C1099 N1098 1.397 . S
C1100 H1081 0.929 . S
C1100 C1097 1.404 . S
C1100 N1098 1.334 . S
C1101 H1093 0.930 . S
C1101 C1096 1.418 . S
C1101 C1097 1.353 . S
C1102 H1072 0.930 . S
C1102 N1103 1.330 . S
C1102 C1104 1.446 . S
N1103 Co1062 2.151 . S
N1103 C1102 1.330 . S
N1103 C1107 1.418 . S
C1104 H1083 0.929 . S
C1104 C1102 1.446 . S
C1104 C1105 1.332 . S
C1105 H1085 0.931 . S
C1105 C1104 1.332 . S
C1105 C1106 1.267 . S
C1106 H1074 0.929 . S
C1106 C1105 1.267 . S
C1106 C1107 1.251 . S
C1107 H1077 0.929 . S
C1107 N1103 1.418 . S
C1107 C1106 1.251 . S
C1108 H1075 0.930 . S
C1108 C1110 1.406 . S
C1108 C1113 1.261 . S
C1109 H1076 0.930 . S
C1109 N1111 1.325 . S
C1109 C1112 1.357 . S
C1110 H1078 0.928 . S
C1110 C1108 1.406 . S
C1110 N1111 1.261 . S
N1111 Co1062 2.214 . S
N1111 C1109 1.325 . S
N1111 C1110 1.261 . S
C1112 H1082 0.931 . S
C1112 C1109 1.357 . S
C1112 C1113 1.312 . S
C1113 H1084 0.930 . S
C1113 C1108 1.261 . S
C1113 C1112 1.312 . S
C1114 O1086 1.214 . S
C1114 O1094 1.259 . S
C1115 H1087 0.929 . S
C1115 C1118 1.391 . S
C1115 C1120 1.391 . S
C1116 H1088 0.929 . S
C1116 C1117 1.390 . S
C1116 N1119 1.387 1_556 S
C1117 H1089 0.930 . S
C1117 C1116 1.390 . S
C1117 C1118 1.392 1_556 S
C1118 H1090 0.929 . S
C1118 C1115 1.391 . S
C1118 C1117 1.392 1_554 S
N1119 Co1063 2.256 1_554 S
N1119 C1116 1.387 1_554 S
N1119 C1120 1.395 . S
C1120 H1091 0.930 . S
C1120 C1115 1.391 . S
C1120 N1119 1.395 . S
Co1121 O1123 2.143 . S
Co1121 O1129 2.074 . S
Co1121 O1132 2.093 . S
Co1121 O1145 2.097 . S
Co1121 N1162 2.151 . S
Co1121 N1170 2.214 . S
Co1122 O1123 2.160 . S
Co1122 O1128 2.058 . S
Co1122 O1138 2.057 . S
Co1122 O1153 2.037 . S
Co1122 N1157 2.145 . S
Co1122 N1178 2.257 . S
O1123 Co1121 2.143 . S
O1123 Co1122 2.160 . S
C1124 O1125 1.278 . S
C1124 O1132 1.224 . S
O1125 C1124 1.278 . S
C1126 O1127 1.245 . S
C1126 O1138 1.232 . S
O1127 C1126 1.245 . S
O1128 Co1122 2.058 . S
O1128 C1154 1.269 . S
O1129 Co1121 2.074 . S
O1129 C1154 1.257 . S
H1130 C1155 0.930 . S
H1131 C1161 0.930 . S
O1132 Co1121 2.093 . S
O1132 C1124 1.224 . S
H1133 C1165 0.929 . S
H1134 C1167 0.930 . S
H1135 C1168 0.930 . S
H1136 C1166 0.929 . S
H1137 C1169 0.928 . S
O1138 Co1122 2.057 . S
O1138 C1126 1.232 . S
H1139 C1158 0.929 . S
H1140 C1159 0.929 . S
H1141 C1171 0.931 . S
H1142 C1163 0.929 . S
H1143 C1172 0.930 . S
H1144 C1164 0.931 . S
O1145 Co1121 2.097 . S
O1145 C1173 1.214 . S
H1146 C1174 0.929 . S
H1147 C1175 0.929 . S
H1148 C1176 0.930 . S
H1149 C1177 0.929 . S
H1150 C1179 0.930 . S
H1151 C1156 0.930 . S
H1152 C1160 0.930 . S
O1153 Co1122 2.037 . S
O1153 C1173 1.234 . S
C1154 O1128 1.269 . S
C1154 O1129 1.257 . S
C1155 H1130 0.930 . S
C1155 C1158 1.388 . S
C1155 C1160 1.418 . S
C1156 H1151 0.930 . S
C1156 C1159 1.404 . S
C1156 C1160 1.353 . S
N1157 Co1122 2.145 . S
N1157 C1158 1.397 . S
N1157 C1159 1.334 . S
C1158 H1139 0.929 . S
C1158 C1155 1.388 . S
C1158 N1157 1.397 . S
C1159 H1140 0.929 . S
C1159 C1156 1.404 . S
C1159 N1157 1.334 . S
C1160 H1152 0.930 . S
C1160 C1155 1.418 . S
C1160 C1156 1.353 . S
C1161 H1131 0.930 . S
C1161 N1162 1.330 . S
C1161 C1163 1.446 . S
N1162 Co1121 2.151 . S
N1162 C1161 1.330 . S
N1162 C1166 1.418 . S
C1163 H1142 0.929 . S
C1163 C1161 1.446 . S
C1163 C1164 1.332 . S
C1164 H1144 0.931 . S
C1164 C1163 1.332 . S
C1164 C1165 1.267 . S
C1165 H1133 0.929 . S
C1165 C1164 1.267 . S
C1165 C1166 1.251 . S
C1166 H1136 0.929 . S
C1166 N1162 1.418 . S
C1166 C1165 1.251 . S
C1167 H1134 0.930 . S
C1167 C1169 1.406 . S
C1167 C1172 1.261 . S
C1168 H1135 0.930 . S
C1168 N1170 1.325 . S
C1168 C1171 1.357 . S
C1169 H1137 0.928 . S
C1169 C1167 1.406 . S
C1169 N1170 1.261 . S
N1170 Co1121 2.214 . S
N1170 C1168 1.325 . S
N1170 C1169 1.261 . S
C1171 H1141 0.931 . S
C1171 C1168 1.357 . S
C1171 C1172 1.312 . S
C1172 H1143 0.930 . S
C1172 C1167 1.261 . S
C1172 C1171 1.312 . S
C1173 O1145 1.214 . S
C1173 O1153 1.234 . S
C1174 H1146 0.929 . S
C1174 C1177 1.391 . S
C1174 C1179 1.391 . S
C1175 H1147 0.929 . S
C1175 C1176 1.390 . S
C1175 N1178 1.391 . S
C1176 H1148 0.930 . S
C1176 C1175 1.390 . S
C1176 C1177 1.392 . S
C1177 H1149 0.929 . S
C1177 C1174 1.391 . S
C1177 C1176 1.392 . S
N1178 Co1122 2.257 . S
N1178 C1175 1.391 . S
N1178 C1179 1.388 . S
C1179 H1150 0.930 . S
C1179 C1174 1.391 . S
C1179 N1178 1.388 . S
Co1180 O1182 2.143 . S
Co1180 O1188 2.074 . S
Co1180 O1191 2.093 . S
Co1180 O1204 2.097 . S
Co1180 N1221 2.151 . S
Co1180 N1229 2.214 . S
Co1181 O1182 2.160 . S
Co1181 O1187 2.058 . S
Co1181 O1197 2.057 . S
Co1181 O1212 2.037 . S
Co1181 N1216 2.145 . S
Co1181 N1237 2.257 . S
O1182 Co1180 2.143 . S
O1182 Co1181 2.160 . S
C1183 O1184 1.278 . S
C1183 O1191 1.224 . S
O1184 C1183 1.278 . S
C1185 O1186 1.245 . S
C1185 O1197 1.232 . S
O1186 C1185 1.245 . S
O1187 Co1181 2.058 . S
O1187 C1213 1.269 . S
O1188 Co1180 2.074 . S
O1188 C1213 1.257 . S
H1189 C1214 0.930 . S
H1190 C1220 0.930 . S
O1191 Co1180 2.093 . S
O1191 C1183 1.224 . S
H1192 C1224 0.929 . S
H1193 C1226 0.930 . S
H1194 C1227 0.930 . S
H1195 C1225 0.929 . S
H1196 C1228 0.928 . S
O1197 Co1181 2.057 . S
O1197 C1185 1.232 . S
H1198 C1217 0.929 . S
H1199 C1218 0.929 . S
H1200 C1230 0.931 . S
H1201 C1222 0.929 . S
H1202 C1231 0.930 . S
H1203 C1223 0.931 . S
O1204 Co1180 2.097 . S
O1204 C1232 1.214 . S
H1205 C1233 0.929 . S
H1206 C1234 0.929 . S
H1207 C1235 0.930 . S
H1208 C1236 0.929 . S
H1209 C1238 0.930 . S
H1210 C1215 0.930 . S
H1211 C1219 0.930 . S
O1212 Co1181 2.037 . S
O1212 C1232 1.234 . S
C1213 O1187 1.269 . S
C1213 O1188 1.257 . S
C1214 H1189 0.930 . S
C1214 C1217 1.388 . S
C1214 C1219 1.418 . S
C1215 H1210 0.930 . S
C1215 C1218 1.404 . S
C1215 C1219 1.353 . S
N1216 Co1181 2.145 . S
N1216 C1217 1.397 . S
N1216 C1218 1.334 . S
C1217 H1198 0.929 . S
C1217 C1214 1.388 . S
C1217 N1216 1.397 . S
C1218 H1199 0.929 . S
C1218 C1215 1.404 . S
C1218 N1216 1.334 . S
C1219 H1211 0.930 . S
C1219 C1214 1.418 . S
C1219 C1215 1.353 . S
C1220 H1190 0.930 . S
C1220 N1221 1.330 . S
C1220 C1222 1.446 . S
N1221 Co1180 2.151 . S
N1221 C1220 1.330 . S
N1221 C1225 1.418 . S
C1222 H1201 0.929 . S
C1222 C1220 1.446 . S
C1222 C1223 1.332 . S
C1223 H1203 0.931 . S
C1223 C1222 1.332 . S
C1223 C1224 1.267 . S
C1224 H1192 0.929 . S
C1224 C1223 1.267 . S
C1224 C1225 1.251 . S
C1225 H1195 0.929 . S
C1225 N1221 1.418 . S
C1225 C1224 1.251 . S
C1226 H1193 0.930 . S
C1226 C1228 1.406 . S
C1226 C1231 1.261 . S
C1227 H1194 0.930 . S
C1227 N1229 1.325 . S
C1227 C1230 1.357 . S
C1228 H1196 0.928 . S
C1228 C1226 1.406 . S
C1228 N1229 1.261 . S
N1229 Co1180 2.214 . S
N1229 C1227 1.325 . S
N1229 C1228 1.261 . S
C1230 H1200 0.931 . S
C1230 C1227 1.357 . S
C1230 C1231 1.312 . S
C1231 H1202 0.930 . S
C1231 C1226 1.261 . S
C1231 C1230 1.312 . S
C1232 O1204 1.214 . S
C1232 O1212 1.234 . S
C1233 H1205 0.929 . S
C1233 C1236 1.391 . S
C1233 C1238 1.391 . S
C1234 H1206 0.929 . S
C1234 C1235 1.390 . S
C1234 N1237 1.391 . S
C1235 H1207 0.930 . S
C1235 C1234 1.390 . S
C1235 C1236 1.392 . S
C1236 H1208 0.929 . S
C1236 C1233 1.391 . S
C1236 C1235 1.392 . S
N1237 Co1181 2.257 . S
N1237 C1234 1.391 . S
N1237 C1238 1.388 . S
C1238 H1209 0.930 . S
C1238 C1233 1.391 . S
C1238 N1237 1.388 . S
Co1239 O1241 2.143 . S
Co1239 O1247 2.074 . S
Co1239 O1250 2.093 . S
Co1239 O1263 2.097 . S
Co1239 N1280 2.151 . S
Co1239 N1288 2.214 . S
Co1240 O1241 2.160 . S
Co1240 O1246 2.058 . S
Co1240 O1256 2.057 . S
Co1240 O1271 2.037 . S
Co1240 N1275 2.145 . S
Co1240 N1296 2.257 . S
O1241 Co1239 2.143 . S
O1241 Co1240 2.160 . S
C1242 O1243 1.278 . S
C1242 O1250 1.224 . S
O1243 C1242 1.278 . S
C1244 O1245 1.245 . S
C1244 O1256 1.232 . S
O1245 C1244 1.245 . S
O1246 Co1240 2.058 . S
O1246 C1272 1.269 . S
O1247 Co1239 2.074 . S
O1247 C1272 1.257 . S
H1248 C1273 0.930 . S
H1249 C1279 0.930 . S
O1250 Co1239 2.093 . S
O1250 C1242 1.224 . S
H1251 C1283 0.929 . S
H1252 C1285 0.930 . S
H1253 C1286 0.930 . S
H1254 C1284 0.929 . S
H1255 C1287 0.928 . S
O1256 Co1240 2.057 . S
O1256 C1244 1.232 . S
H1257 C1276 0.929 . S
H1258 C1277 0.929 . S
H1259 C1289 0.931 . S
H1260 C1281 0.929 . S
H1261 C1290 0.930 . S
H1262 C1282 0.931 . S
O1263 Co1239 2.097 . S
O1263 C1291 1.214 . S
H1264 C1292 0.929 . S
H1265 C1293 0.929 . S
H1266 C1294 0.930 . S
H1267 C1295 0.929 . S
H1268 C1297 0.930 . S
H1269 C1274 0.930 . S
H1270 C1278 0.930 . S
O1271 Co1240 2.037 . S
O1271 C1291 1.234 . S
C1272 O1246 1.269 . S
C1272 O1247 1.257 . S
C1273 H1248 0.930 . S
C1273 C1276 1.388 . S
C1273 C1278 1.418 . S
C1274 H1269 0.930 . S
C1274 C1277 1.404 . S
C1274 C1278 1.353 . S
N1275 Co1240 2.145 . S
N1275 C1276 1.397 . S
N1275 C1277 1.334 . S
C1276 H1257 0.929 . S
C1276 C1273 1.388 . S
C1276 N1275 1.397 . S
C1277 H1258 0.929 . S
C1277 C1274 1.404 . S
C1277 N1275 1.334 . S
C1278 H1270 0.930 . S
C1278 C1273 1.418 . S
C1278 C1274 1.353 . S
C1279 H1249 0.930 . S
C1279 N1280 1.330 . S
C1279 C1281 1.446 . S
N1280 Co1239 2.151 . S
N1280 C1279 1.330 . S
N1280 C1284 1.418 . S
C1281 H1260 0.929 . S
C1281 C1279 1.446 . S
C1281 C1282 1.332 . S
C1282 H1262 0.931 . S
C1282 C1281 1.332 . S
C1282 C1283 1.267 . S
C1283 H1251 0.929 . S
C1283 C1282 1.267 . S
C1283 C1284 1.251 . S
C1284 H1254 0.929 . S
C1284 N1280 1.418 . S
C1284 C1283 1.251 . S
C1285 H1252 0.930 . S
C1285 C1287 1.406 . S
C1285 C1290 1.261 . S
C1286 H1253 0.930 . S
C1286 N1288 1.325 . S
C1286 C1289 1.357 . S
C1287 H1255 0.928 . S
C1287 C1285 1.406 . S
C1287 N1288 1.261 . S
N1288 Co1239 2.214 . S
N1288 C1286 1.325 . S
N1288 C1287 1.261 . S
C1289 H1259 0.931 . S
C1289 C1286 1.357 . S
C1289 C1290 1.312 . S
C1290 H1261 0.930 . S
C1290 C1285 1.261 . S
C1290 C1289 1.312 . S
C1291 O1263 1.214 . S
C1291 O1271 1.234 . S
C1292 H1264 0.929 . S
C1292 C1295 1.391 . S
C1292 C1297 1.391 . S
C1293 H1265 0.929 . S
C1293 C1294 1.390 . S
C1293 N1296 1.391 . S
C1294 H1266 0.930 . S
C1294 C1293 1.390 . S
C1294 C1295 1.392 . S
C1295 H1267 0.929 . S
C1295 C1292 1.391 . S
C1295 C1294 1.392 . S
N1296 Co1240 2.257 . S
N1296 C1293 1.391 . S
N1296 C1297 1.388 . S
C1297 H1268 0.930 . S
C1297 C1292 1.391 . S
C1297 N1296 1.388 . S
Co1298 O1300 2.143 . S
Co1298 O1306 2.074 . S
Co1298 O1309 2.093 . S
Co1298 O1322 2.097 . S
Co1298 N1339 2.151 . S
Co1298 N1347 2.214 . S
Co1299 O1300 2.160 1_554 S
Co1299 O1305 2.058 . S
Co1299 O1315 2.057 . S
Co1299 O1330 2.033 1_554 S
Co1299 N1334 2.145 . S
Co1299 N1355 2.256 1_554 S
O1300 Co1298 2.143 . S
O1300 Co1299 2.160 1_556 S
C1301 O1302 1.278 . S
C1301 O1309 1.224 . S
O1302 C1301 1.278 . S
C1303 O1304 1.245 . S
C1303 O1315 1.232 1_556 S
O1304 C1303 1.245 . S
O1305 Co1299 2.058 . S
O1305 C1331 1.269 1_554 S
O1306 Co1298 2.074 . S
O1306 C1331 1.257 . S
H1307 C1332 0.930 . S
H1308 C1338 0.930 . S
O1309 Co1298 2.093 . S
O1309 C1301 1.224 . S
H1310 C1342 0.929 . S
H1311 C1344 0.930 . S
H1312 C1345 0.930 . S
H1313 C1343 0.929 . S
H1314 C1346 0.928 . S
O1315 Co1299 2.057 . S
O1315 C1303 1.232 1_554 S
H1316 C1335 0.929 . S
H1317 C1336 0.929 . S
H1318 C1348 0.931 . S
H1319 C1340 0.929 . S
H1320 C1349 0.930 . S
H1321 C1341 0.931 . S
O1322 Co1298 2.097 . S
O1322 C1350 1.214 . S
H1323 C1351 0.929 . S
H1324 C1352 0.929 . S
H1325 C1353 0.930 . S
H1326 C1354 0.929 . S
H1327 C1356 0.930 . S
H1328 C1333 0.930 . S
H1329 C1337 0.930 . S
O1330 Co1299 2.033 1_556 S
O1330 C1350 1.259 . S
C1331 O1305 1.269 1_556 S
C1331 O1306 1.257 . S
C1332 H1307 0.930 . S
C1332 C1335 1.388 . S
C1332 C1337 1.418 . S
C1333 H1328 0.930 . S
C1333 C1336 1.404 . S
C1333 C1337 1.353 . S
N1334 Co1299 2.145 . S
N1334 C1335 1.397 . S
N1334 C1336 1.334 . S
C1335 H1316 0.929 . S
C1335 C1332 1.388 . S
C1335 N1334 1.397 . S
C1336 H1317 0.929 . S
C1336 C1333 1.404 . S
C1336 N1334 1.334 . S
C1337 H1329 0.930 . S
C1337 C1332 1.418 . S
C1337 C1333 1.353 . S
C1338 H1308 0.930 . S
C1338 N1339 1.330 . S
C1338 C1340 1.446 . S
N1339 Co1298 2.151 . S
N1339 C1338 1.330 . S
N1339 C1343 1.418 . S
C1340 H1319 0.929 . S
C1340 C1338 1.446 . S
C1340 C1341 1.332 . S
C1341 H1321 0.931 . S
C1341 C1340 1.332 . S
C1341 C1342 1.267 . S
C1342 H1310 0.929 . S
C1342 C1341 1.267 . S
C1342 C1343 1.251 . S
C1343 H1313 0.929 . S
C1343 N1339 1.418 . S
C1343 C1342 1.251 . S
C1344 H1311 0.930 . S
C1344 C1346 1.406 . S
C1344 C1349 1.261 . S
C1345 H1312 0.930 . S
C1345 N1347 1.325 . S
C1345 C1348 1.357 . S
C1346 H1314 0.928 . S
C1346 C1344 1.406 . S
C1346 N1347 1.261 . S
N1347 Co1298 2.214 . S
N1347 C1345 1.325 . S
N1347 C1346 1.261 . S
C1348 H1318 0.931 . S
C1348 C1345 1.357 . S
C1348 C1349 1.312 . S
C1349 H1320 0.930 . S
C1349 C1344 1.261 . S
C1349 C1348 1.312 . S
C1350 O1322 1.214 . S
C1350 O1330 1.259 . S
C1351 H1323 0.929 . S
C1351 C1354 1.391 . S
C1351 C1356 1.391 . S
C1352 H1324 0.929 . S
C1352 C1353 1.390 . S
C1352 N1355 1.387 1_554 S
C1353 H1325 0.930 . S
C1353 C1352 1.390 . S
C1353 C1354 1.392 1_554 S
C1354 H1326 0.929 . S
C1354 C1351 1.391 . S
C1354 C1353 1.392 1_556 S
N1355 Co1299 2.256 1_556 S
N1355 C1352 1.387 1_556 S
N1355 C1356 1.395 . S
C1356 H1327 0.930 . S
C1356 C1351 1.391 . S
C1356 N1355 1.395 . S
Co1357 O1359 2.143 . S
Co1357 O1365 2.074 . S
Co1357 O1368 2.093 . S
Co1357 O1381 2.097 . S
Co1357 N1398 2.151 . S
Co1357 N1406 2.214 . S
Co1358 O1359 2.160 . S
Co1358 O1364 2.058 . S
Co1358 O1374 2.057 . S
Co1358 O1389 2.037 . S
Co1358 N1393 2.145 . S
Co1358 N1414 2.257 . S
O1359 Co1357 2.143 . S
O1359 Co1358 2.160 . S
C1360 O1361 1.278 . S
C1360 O1368 1.224 . S
O1361 C1360 1.278 . S
C1362 O1363 1.245 . S
C1362 O1374 1.232 . S
O1363 C1362 1.245 . S
O1364 Co1358 2.058 . S
O1364 C1390 1.269 . S
O1365 Co1357 2.074 . S
O1365 C1390 1.257 . S
H1366 C1391 0.930 . S
H1367 C1397 0.930 . S
O1368 Co1357 2.093 . S
O1368 C1360 1.224 . S
H1369 C1401 0.929 . S
H1370 C1403 0.930 . S
H1371 C1404 0.930 . S
H1372 C1402 0.929 . S
H1373 C1405 0.928 . S
O1374 Co1358 2.057 . S
O1374 C1362 1.232 . S
H1375 C1394 0.929 . S
H1376 C1395 0.929 . S
H1377 C1407 0.931 . S
H1378 C1399 0.929 . S
H1379 C1408 0.930 . S
H1380 C1400 0.931 . S
O1381 Co1357 2.097 . S
O1381 C1409 1.214 . S
H1382 C1410 0.929 . S
H1383 C1411 0.929 . S
H1384 C1412 0.930 . S
H1385 C1413 0.929 . S
H1386 C1415 0.930 . S
H1387 C1392 0.930 . S
H1388 C1396 0.930 . S
O1389 Co1358 2.037 . S
O1389 C1409 1.234 . S
C1390 O1364 1.269 . S
C1390 O1365 1.257 . S
C1391 H1366 0.930 . S
C1391 C1394 1.388 . S
C1391 C1396 1.418 . S
C1392 H1387 0.930 . S
C1392 C1395 1.404 . S
C1392 C1396 1.353 . S
N1393 Co1358 2.145 . S
N1393 C1394 1.397 . S
N1393 C1395 1.334 . S
C1394 H1375 0.929 . S
C1394 C1391 1.388 . S
C1394 N1393 1.397 . S
C1395 H1376 0.929 . S
C1395 C1392 1.404 . S
C1395 N1393 1.334 . S
C1396 H1388 0.930 . S
C1396 C1391 1.418 . S
C1396 C1392 1.353 . S
C1397 H1367 0.930 . S
C1397 N1398 1.330 . S
C1397 C1399 1.446 . S
N1398 Co1357 2.151 . S
N1398 C1397 1.330 . S
N1398 C1402 1.418 . S
C1399 H1378 0.929 . S
C1399 C1397 1.446 . S
C1399 C1400 1.332 . S
C1400 H1380 0.931 . S
C1400 C1399 1.332 . S
C1400 C1401 1.267 . S
C1401 H1369 0.929 . S
C1401 C1400 1.267 . S
C1401 C1402 1.251 . S
C1402 H1372 0.929 . S
C1402 N1398 1.418 . S
C1402 C1401 1.251 . S
C1403 H1370 0.930 . S
C1403 C1405 1.406 . S
C1403 C1408 1.261 . S
C1404 H1371 0.930 . S
C1404 N1406 1.325 . S
C1404 C1407 1.357 . S
C1405 H1373 0.928 . S
C1405 C1403 1.406 . S
C1405 N1406 1.261 . S
N1406 Co1357 2.214 . S
N1406 C1404 1.325 . S
N1406 C1405 1.261 . S
C1407 H1377 0.931 . S
C1407 C1404 1.357 . S
C1407 C1408 1.312 . S
C1408 H1379 0.930 . S
C1408 C1403 1.261 . S
C1408 C1407 1.312 . S
C1409 O1381 1.214 . S
C1409 O1389 1.234 . S
C1410 H1382 0.929 . S
C1410 C1413 1.391 . S
C1410 C1415 1.391 . S
C1411 H1383 0.929 . S
C1411 C1412 1.390 . S
C1411 N1414 1.391 . S
C1412 H1384 0.930 . S
C1412 C1411 1.390 . S
C1412 C1413 1.392 . S
C1413 H1385 0.929 . S
C1413 C1410 1.391 . S
C1413 C1412 1.392 . S
N1414 Co1358 2.257 . S
N1414 C1411 1.391 . S
N1414 C1415 1.388 . S
C1415 H1386 0.930 . S
C1415 C1410 1.391 . S
C1415 N1414 1.388 . S
Co1416 O1418 2.143 . S
Co1416 O1424 2.074 . S
Co1416 O1427 2.093 . S
Co1416 O1440 2.097 . S
Co1416 N1457 2.151 . S
Co1416 N1465 2.214 . S
Co1417 O1418 2.160 . S
Co1417 O1423 2.058 . S
Co1417 O1433 2.057 . S
Co1417 O1448 2.037 . S
Co1417 N1452 2.145 . S
Co1417 N1473 2.257 . S
O1418 Co1416 2.143 . S
O1418 Co1417 2.160 . S
C1419 O1420 1.278 . S
C1419 O1427 1.224 . S
O1420 C1419 1.278 . S
C1421 O1422 1.245 . S
C1421 O1433 1.232 . S
O1422 C1421 1.245 . S
O1423 Co1417 2.058 . S
O1423 C1449 1.269 . S
O1424 Co1416 2.074 . S
O1424 C1449 1.257 . S
H1425 C1450 0.930 . S
H1426 C1456 0.930 . S
O1427 Co1416 2.093 . S
O1427 C1419 1.224 . S
H1428 C1460 0.929 . S
H1429 C1462 0.930 . S
H1430 C1463 0.930 . S
H1431 C1461 0.929 . S
H1432 C1464 0.928 . S
O1433 Co1417 2.057 . S
O1433 C1421 1.232 . S
H1434 C1453 0.929 . S
H1435 C1454 0.929 . S
H1436 C1466 0.931 . S
H1437 C1458 0.929 . S
H1438 C1467 0.930 . S
H1439 C1459 0.931 . S
O1440 Co1416 2.097 . S
O1440 C1468 1.214 . S
H1441 C1469 0.929 . S
H1442 C1470 0.929 . S
H1443 C1471 0.930 . S
H1444 C1472 0.929 . S
H1445 C1474 0.930 . S
H1446 C1451 0.930 . S
H1447 C1455 0.930 . S
O1448 Co1417 2.037 . S
O1448 C1468 1.234 . S
C1449 O1423 1.269 . S
C1449 O1424 1.257 . S
C1450 H1425 0.930 . S
C1450 C1453 1.388 . S
C1450 C1455 1.418 . S
C1451 H1446 0.930 . S
C1451 C1454 1.404 . S
C1451 C1455 1.353 . S
N1452 Co1417 2.145 . S
N1452 C1453 1.397 . S
N1452 C1454 1.334 . S
C1453 H1434 0.929 . S
C1453 C1450 1.388 . S
C1453 N1452 1.397 . S
C1454 H1435 0.929 . S
C1454 C1451 1.404 . S
C1454 N1452 1.334 . S
C1455 H1447 0.930 . S
C1455 C1450 1.418 . S
C1455 C1451 1.353 . S
C1456 H1426 0.930 . S
C1456 N1457 1.330 . S
C1456 C1458 1.446 . S
N1457 Co1416 2.151 . S
N1457 C1456 1.330 . S
N1457 C1461 1.418 . S
C1458 H1437 0.929 . S
C1458 C1456 1.446 . S
C1458 C1459 1.332 . S
C1459 H1439 0.931 . S
C1459 C1458 1.332 . S
C1459 C1460 1.267 . S
C1460 H1428 0.929 . S
C1460 C1459 1.267 . S
C1460 C1461 1.251 . S
C1461 H1431 0.929 . S
C1461 N1457 1.418 . S
C1461 C1460 1.251 . S
C1462 H1429 0.930 . S
C1462 C1464 1.406 . S
C1462 C1467 1.261 . S
C1463 H1430 0.930 . S
C1463 N1465 1.325 . S
C1463 C1466 1.357 . S
C1464 H1432 0.928 . S
C1464 C1462 1.406 . S
C1464 N1465 1.261 . S
N1465 Co1416 2.214 . S
N1465 C1463 1.325 . S
N1465 C1464 1.261 . S
C1466 H1436 0.931 . S
C1466 C1463 1.357 . S
C1466 C1467 1.312 . S
C1467 H1438 0.930 . S
C1467 C1462 1.261 . S
C1467 C1466 1.312 . S
C1468 O1440 1.214 . S
C1468 O1448 1.234 . S
C1469 H1441 0.929 . S
C1469 C1472 1.391 . S
C1469 C1474 1.391 . S
C1470 H1442 0.929 . S
C1470 C1471 1.390 . S
C1470 N1473 1.391 . S
C1471 H1443 0.930 . S
C1471 C1470 1.390 . S
C1471 C1472 1.392 . S
C1472 H1444 0.929 . S
C1472 C1469 1.391 . S
C1472 C1471 1.392 . S
N1473 Co1417 2.257 . S
N1473 C1470 1.391 . S
N1473 C1474 1.388 . S
C1474 H1445 0.930 . S
C1474 C1469 1.391 . S
C1474 N1473 1.388 . S
Co1475 O1477 2.143 . S
Co1475 O1483 2.074 . S
Co1475 O1486 2.093 . S
Co1475 O1499 2.097 . S
Co1475 N1516 2.151 . S
Co1475 N1524 2.214 . S
Co1476 O1477 2.160 . S
Co1476 O1482 2.058 . S
Co1476 O1492 2.057 . S
Co1476 O1507 2.037 . S
Co1476 N1511 2.145 . S
Co1476 N1532 2.257 . S
O1477 Co1475 2.143 . S
O1477 Co1476 2.160 . S
C1478 O1479 1.278 . S
C1478 O1486 1.224 . S
O1479 C1478 1.278 . S
C1480 O1481 1.245 . S
C1480 O1492 1.232 . S
O1481 C1480 1.245 . S
O1482 Co1476 2.058 . S
O1482 C1508 1.269 . S
O1483 Co1475 2.074 . S
O1483 C1508 1.257 . S
H1484 C1509 0.930 . S
H1485 C1515 0.930 . S
O1486 Co1475 2.093 . S
O1486 C1478 1.224 . S
H1487 C1519 0.929 . S
H1488 C1521 0.930 . S
H1489 C1522 0.930 . S
H1490 C1520 0.929 . S
H1491 C1523 0.928 . S
O1492 Co1476 2.057 . S
O1492 C1480 1.232 . S
H1493 C1512 0.929 . S
H1494 C1513 0.929 . S
H1495 C1525 0.931 . S
H1496 C1517 0.929 . S
H1497 C1526 0.930 . S
H1498 C1518 0.931 . S
O1499 Co1475 2.097 . S
O1499 C1527 1.214 . S
H1500 C1528 0.929 . S
H1501 C1529 0.929 . S
H1502 C1530 0.930 . S
H1503 C1531 0.929 . S
H1504 C1533 0.930 . S
H1505 C1510 0.930 . S
H1506 C1514 0.930 . S
O1507 Co1476 2.037 . S
O1507 C1527 1.234 . S
C1508 O1482 1.269 . S
C1508 O1483 1.257 . S
C1509 H1484 0.930 . S
C1509 C1512 1.388 . S
C1509 C1514 1.418 . S
C1510 H1505 0.930 . S
C1510 C1513 1.404 . S
C1510 C1514 1.353 . S
N1511 Co1476 2.145 . S
N1511 C1512 1.397 . S
N1511 C1513 1.334 . S
C1512 H1493 0.929 . S
C1512 C1509 1.388 . S
C1512 N1511 1.397 . S
C1513 H1494 0.929 . S
C1513 C1510 1.404 . S
C1513 N1511 1.334 . S
C1514 H1506 0.930 . S
C1514 C1509 1.418 . S
C1514 C1510 1.353 . S
C1515 H1485 0.930 . S
C1515 N1516 1.330 . S
C1515 C1517 1.446 . S
N1516 Co1475 2.151 . S
N1516 C1515 1.330 . S
N1516 C1520 1.418 . S
C1517 H1496 0.929 . S
C1517 C1515 1.446 . S
C1517 C1518 1.332 . S
C1518 H1498 0.931 . S
C1518 C1517 1.332 . S
C1518 C1519 1.267 . S
C1519 H1487 0.929 . S
C1519 C1518 1.267 . S
C1519 C1520 1.251 . S
C1520 H1490 0.929 . S
C1520 N1516 1.418 . S
C1520 C1519 1.251 . S
C1521 H1488 0.930 . S
C1521 C1523 1.406 . S
C1521 C1526 1.261 . S
C1522 H1489 0.930 . S
C1522 N1524 1.325 . S
C1522 C1525 1.357 . S
C1523 H1491 0.928 . S
C1523 C1521 1.406 . S
C1523 N1524 1.261 . S
N1524 Co1475 2.214 . S
N1524 C1522 1.325 . S
N1524 C1523 1.261 . S
C1525 H1495 0.931 . S
C1525 C1522 1.357 . S
C1525 C1526 1.312 . S
C1526 H1497 0.930 . S
C1526 C1521 1.261 . S
C1526 C1525 1.312 . S
C1527 O1499 1.214 . S
C1527 O1507 1.234 . S
C1528 H1500 0.929 . S
C1528 C1531 1.391 . S
C1528 C1533 1.391 . S
C1529 H1501 0.929 . S
C1529 C1530 1.390 . S
C1529 N1532 1.391 . S
C1530 H1502 0.930 . S
C1530 C1529 1.390 . S
C1530 C1531 1.392 . S
C1531 H1503 0.929 . S
C1531 C1528 1.391 . S
C1531 C1530 1.392 . S
N1532 Co1476 2.257 . S
N1532 C1529 1.391 . S
N1532 C1533 1.388 . S
C1533 H1504 0.930 . S
C1533 C1528 1.391 . S
C1533 N1532 1.388 . S
Co1534 O1536 2.143 . S
Co1534 O1542 2.074 . S
Co1534 O1545 2.093 . S
Co1534 O1558 2.097 . S
Co1534 N1575 2.151 . S
Co1534 N1583 2.214 . S
Co1535 O1536 2.160 1_554 S
Co1535 O1541 2.058 . S
Co1535 O1551 2.057 . S
Co1535 O1566 2.032 1_554 S
Co1535 N1570 2.145 . S
Co1535 N1591 2.255 1_554 S
O1536 Co1534 2.143 . S
O1536 Co1535 2.160 1_556 S
C1537 O1538 1.278 . S
C1537 O1545 1.224 . S
O1538 C1537 1.278 . S
C1539 O1540 1.245 . S
C1539 O1551 1.232 1_556 S
O1540 C1539 1.245 . S
O1541 Co1535 2.058 . S
O1541 C1567 1.269 1_554 S
O1542 Co1534 2.074 . S
O1542 C1567 1.257 . S
H1543 C1568 0.930 . S
H1544 C1574 0.930 . S
O1545 Co1534 2.093 . S
O1545 C1537 1.224 . S
H1546 C1578 0.929 . S
H1547 C1580 0.930 . S
H1548 C1581 0.930 . S
H1549 C1579 0.929 . S
H1550 C1582 0.928 . S
O1551 Co1535 2.057 . S
O1551 C1539 1.232 1_554 S
H1552 C1571 0.929 . S
H1553 C1572 0.929 . S
H1554 C1584 0.931 . S
H1555 C1576 0.929 . S
H1556 C1585 0.930 . S
H1557 C1577 0.931 . S
O1558 Co1534 2.097 . S
O1558 C1586 1.214 . S
H1559 C1587 0.929 . S
H1560 C1588 0.929 . S
H1561 C1589 0.930 . S
H1562 C1590 0.929 . S
H1563 C1592 0.930 . S
H1564 C1569 0.930 . S
H1565 C1573 0.930 . S
O1566 Co1535 2.032 1_556 S
O1566 C1586 1.265 . S
C1567 O1541 1.269 1_556 S
C1567 O1542 1.257 . S
C1568 H1543 0.930 . S
C1568 C1571 1.388 . S
C1568 C1573 1.418 . S
C1569 H1564 0.930 . S
C1569 C1572 1.404 . S
C1569 C1573 1.353 . S
N1570 Co1535 2.145 . S
N1570 C1571 1.397 . S
N1570 C1572 1.334 . S
C1571 H1552 0.929 . S
C1571 C1568 1.388 . S
C1571 N1570 1.397 . S
C1572 H1553 0.929 . S
C1572 C1569 1.404 . S
C1572 N1570 1.334 . S
C1573 H1565 0.930 . S
C1573 C1568 1.418 . S
C1573 C1569 1.353 . S
C1574 H1544 0.930 . S
C1574 N1575 1.330 . S
C1574 C1576 1.446 . S
N1575 Co1534 2.151 . S
N1575 C1574 1.330 . S
N1575 C1579 1.418 . S
C1576 H1555 0.929 . S
C1576 C1574 1.446 . S
C1576 C1577 1.332 . S
C1577 H1557 0.931 . S
C1577 C1576 1.332 . S
C1577 C1578 1.267 . S
C1578 H1546 0.929 . S
C1578 C1577 1.267 . S
C1578 C1579 1.251 . S
C1579 H1549 0.929 . S
C1579 N1575 1.418 . S
C1579 C1578 1.251 . S
C1580 H1547 0.930 . S
C1580 C1582 1.406 . S
C1580 C1585 1.261 . S
C1581 H1548 0.930 . S
C1581 N1583 1.325 . S
C1581 C1584 1.357 . S
C1582 H1550 0.928 . S
C1582 C1580 1.406 . S
C1582 N1583 1.261 . S
N1583 Co1534 2.214 . S
N1583 C1581 1.325 . S
N1583 C1582 1.261 . S
C1584 H1554 0.931 . S
C1584 C1581 1.357 . S
C1584 C1585 1.312 . S
C1585 H1556 0.930 . S
C1585 C1580 1.261 . S
C1585 C1584 1.312 . S
C1586 O1558 1.214 . S
C1586 O1566 1.265 . S
C1587 H1559 0.929 . S
C1587 C1590 1.391 . S
C1587 C1592 1.391 . S
C1588 H1560 0.929 . S
C1588 C1589 1.390 . S
C1588 N1591 1.384 1_554 S
C1589 H1561 0.930 . S
C1589 C1588 1.390 . S
C1589 C1590 1.392 1_554 S
C1590 H1562 0.929 . S
C1590 C1587 1.391 . S
C1590 C1589 1.392 1_556 S
N1591 Co1535 2.255 1_556 S
N1591 C1588 1.384 1_556 S
N1591 C1592 1.399 . S
C1592 H1563 0.930 . S
C1592 C1587 1.391 . S
C1592 N1591 1.399 . S
Co1593 O1595 2.143 . S
Co1593 O1601 2.074 . S
Co1593 O1604 2.093 . S
Co1593 O1617 2.097 . S
Co1593 N1634 2.151 . S
Co1593 N1642 2.214 . S
Co1594 O1595 2.160 . S
Co1594 O1600 2.058 . S
Co1594 O1610 2.057 . S
Co1594 O1625 2.037 . S
Co1594 N1629 2.145 . S
Co1594 N1650 2.257 . S
O1595 Co1593 2.143 . S
O1595 Co1594 2.160 . S
C1596 O1597 1.278 . S
C1596 O1604 1.224 . S
O1597 C1596 1.278 . S
C1598 O1599 1.245 . S
C1598 O1610 1.232 . S
O1599 C1598 1.245 . S
O1600 Co1594 2.058 . S
O1600 C1626 1.269 . S
O1601 Co1593 2.074 . S
O1601 C1626 1.257 . S
H1602 C1627 0.930 . S
H1603 C1633 0.930 . S
O1604 Co1593 2.093 . S
O1604 C1596 1.224 . S
H1605 C1637 0.929 . S
H1606 C1639 0.930 . S
H1607 C1640 0.930 . S
H1608 C1638 0.929 . S
H1609 C1641 0.928 . S
O1610 Co1594 2.057 . S
O1610 C1598 1.232 . S
H1611 C1630 0.929 . S
H1612 C1631 0.929 . S
H1613 C1643 0.931 . S
H1614 C1635 0.929 . S
H1615 C1644 0.930 . S
H1616 C1636 0.931 . S
O1617 Co1593 2.097 . S
O1617 C1645 1.214 . S
H1618 C1646 0.929 . S
H1619 C1647 0.929 . S
H1620 C1648 0.930 . S
H1621 C1649 0.929 . S
H1622 C1651 0.930 . S
H1623 C1628 0.930 . S
H1624 C1632 0.930 . S
O1625 Co1594 2.037 . S
O1625 C1645 1.234 . S
C1626 O1600 1.269 . S
C1626 O1601 1.257 . S
C1627 H1602 0.930 . S
C1627 C1630 1.388 . S
C1627 C1632 1.418 . S
C1628 H1623 0.930 . S
C1628 C1631 1.404 . S
C1628 C1632 1.353 . S
N1629 Co1594 2.145 . S
N1629 C1630 1.397 . S
N1629 C1631 1.334 . S
C1630 H1611 0.929 . S
C1630 C1627 1.388 . S
C1630 N1629 1.397 . S
C1631 H1612 0.929 . S
C1631 C1628 1.404 . S
C1631 N1629 1.334 . S
C1632 H1624 0.930 . S
C1632 C1627 1.418 . S
C1632 C1628 1.353 . S
C1633 H1603 0.930 . S
C1633 N1634 1.330 . S
C1633 C1635 1.446 . S
N1634 Co1593 2.151 . S
N1634 C1633 1.330 . S
N1634 C1638 1.418 . S
C1635 H1614 0.929 . S
C1635 C1633 1.446 . S
C1635 C1636 1.332 . S
C1636 H1616 0.931 . S
C1636 C1635 1.332 . S
C1636 C1637 1.267 . S
C1637 H1605 0.929 . S
C1637 C1636 1.267 . S
C1637 C1638 1.251 . S
C1638 H1608 0.929 . S
C1638 N1634 1.418 . S
C1638 C1637 1.251 . S
C1639 H1606 0.930 . S
C1639 C1641 1.406 . S
C1639 C1644 1.261 . S
C1640 H1607 0.930 . S
C1640 N1642 1.325 . S
C1640 C1643 1.357 . S
C1641 H1609 0.928 . S
C1641 C1639 1.406 . S
C1641 N1642 1.261 . S
N1642 Co1593 2.214 . S
N1642 C1640 1.325 . S
N1642 C1641 1.261 . S
C1643 H1613 0.931 . S
C1643 C1640 1.357 . S
C1643 C1644 1.312 . S
C1644 H1615 0.930 . S
C1644 C1639 1.261 . S
C1644 C1643 1.312 . S
C1645 O1617 1.214 . S
C1645 O1625 1.234 . S
C1646 H1618 0.929 . S
C1646 C1649 1.391 . S
C1646 C1651 1.391 . S
C1647 H1619 0.929 . S
C1647 C1648 1.390 . S
C1647 N1650 1.391 . S
C1648 H1620 0.930 . S
C1648 C1647 1.390 . S
C1648 C1649 1.392 . S
C1649 H1621 0.929 . S
C1649 C1646 1.391 . S
C1649 C1648 1.392 . S
N1650 Co1594 2.257 . S
N1650 C1647 1.391 . S
N1650 C1651 1.388 . S
C1651 H1622 0.930 . S
C1651 C1646 1.391 . S
C1651 N1650 1.388 . S
Co1652 O1654 2.143 . S
Co1652 O1660 2.074 . S
Co1652 O1663 2.093 . S
Co1652 O1676 2.097 . S
Co1652 N1693 2.151 . S
Co1652 N1701 2.214 . S
Co1653 O1654 2.160 . S
Co1653 O1659 2.058 . S
Co1653 O1669 2.057 . S
Co1653 O1684 2.037 . S
Co1653 N1688 2.145 . S
Co1653 N1709 2.257 . S
O1654 Co1652 2.143 . S
O1654 Co1653 2.160 . S
C1655 O1656 1.278 . S
C1655 O1663 1.224 . S
O1656 C1655 1.278 . S
C1657 O1658 1.245 . S
C1657 O1669 1.232 . S
O1658 C1657 1.245 . S
O1659 Co1653 2.058 . S
O1659 C1685 1.269 . S
O1660 Co1652 2.074 . S
O1660 C1685 1.257 . S
H1661 C1686 0.930 . S
H1662 C1692 0.930 . S
O1663 Co1652 2.093 . S
O1663 C1655 1.224 . S
H1664 C1696 0.929 . S
H1665 C1698 0.930 . S
H1666 C1699 0.930 . S
H1667 C1697 0.929 . S
H1668 C1700 0.928 . S
O1669 Co1653 2.057 . S
O1669 C1657 1.232 . S
H1670 C1689 0.929 . S
H1671 C1690 0.929 . S
H1672 C1702 0.931 . S
H1673 C1694 0.929 . S
H1674 C1703 0.930 . S
H1675 C1695 0.931 . S
O1676 Co1652 2.097 . S
O1676 C1704 1.214 . S
H1677 C1705 0.929 . S
H1678 C1706 0.929 . S
H1679 C1707 0.930 . S
H1680 C1708 0.929 . S
H1681 C1710 0.930 . S
H1682 C1687 0.930 . S
H1683 C1691 0.930 . S
O1684 Co1653 2.037 . S
O1684 C1704 1.234 . S
C1685 O1659 1.269 . S
C1685 O1660 1.257 . S
C1686 H1661 0.930 . S
C1686 C1689 1.388 . S
C1686 C1691 1.418 . S
C1687 H1682 0.930 . S
C1687 C1690 1.404 . S
C1687 C1691 1.353 . S
N1688 Co1653 2.145 . S
N1688 C1689 1.397 . S
N1688 C1690 1.334 . S
C1689 H1670 0.929 . S
C1689 C1686 1.388 . S
C1689 N1688 1.397 . S
C1690 H1671 0.929 . S
C1690 C1687 1.404 . S
C1690 N1688 1.334 . S
C1691 H1683 0.930 . S
C1691 C1686 1.418 . S
C1691 C1687 1.353 . S
C1692 H1662 0.930 . S
C1692 N1693 1.330 . S
C1692 C1694 1.446 . S
N1693 Co1652 2.151 . S
N1693 C1692 1.330 . S
N1693 C1697 1.418 . S
C1694 H1673 0.929 . S
C1694 C1692 1.446 . S
C1694 C1695 1.332 . S
C1695 H1675 0.931 . S
C1695 C1694 1.332 . S
C1695 C1696 1.267 . S
C1696 H1664 0.929 . S
C1696 C1695 1.267 . S
C1696 C1697 1.251 . S
C1697 H1667 0.929 . S
C1697 N1693 1.418 . S
C1697 C1696 1.251 . S
C1698 H1665 0.930 . S
C1698 C1700 1.406 . S
C1698 C1703 1.261 . S
C1699 H1666 0.930 . S
C1699 N1701 1.325 . S
C1699 C1702 1.357 . S
C1700 H1668 0.928 . S
C1700 C1698 1.406 . S
C1700 N1701 1.261 . S
N1701 Co1652 2.214 . S
N1701 C1699 1.325 . S
N1701 C1700 1.261 . S
C1702 H1672 0.931 . S
C1702 C1699 1.357 . S
C1702 C1703 1.312 . S
C1703 H1674 0.930 . S
C1703 C1698 1.261 . S
C1703 C1702 1.312 . S
C1704 O1676 1.214 . S
C1704 O1684 1.234 . S
C1705 H1677 0.929 . S
C1705 C1708 1.391 . S
C1705 C1710 1.391 . S
C1706 H1678 0.929 . S
C1706 C1707 1.390 . S
C1706 N1709 1.391 . S
C1707 H1679 0.930 . S
C1707 C1706 1.390 . S
C1707 C1708 1.392 . S
C1708 H1680 0.929 . S
C1708 C1705 1.391 . S
C1708 C1707 1.392 . S
N1709 Co1653 2.257 . S
N1709 C1706 1.391 . S
N1709 C1710 1.388 . S
C1710 H1681 0.930 . S
C1710 C1705 1.391 . S
C1710 N1709 1.388 . S
Co1711 O1713 2.143 . S
Co1711 O1719 2.074 . S
Co1711 O1722 2.093 . S
Co1711 O1735 2.097 . S
Co1711 N1752 2.151 . S
Co1711 N1760 2.214 . S
Co1712 O1713 2.160 . S
Co1712 O1718 2.058 . S
Co1712 O1728 2.057 . S
Co1712 O1743 2.037 . S
Co1712 N1747 2.145 . S
Co1712 N1768 2.257 . S
O1713 Co1711 2.143 . S
O1713 Co1712 2.160 . S
C1714 O1715 1.278 . S
C1714 O1722 1.224 . S
O1715 C1714 1.278 . S
C1716 O1717 1.245 . S
C1716 O1728 1.232 . S
O1717 C1716 1.245 . S
O1718 Co1712 2.058 . S
O1718 C1744 1.269 . S
O1719 Co1711 2.074 . S
O1719 C1744 1.257 . S
H1720 C1745 0.930 . S
H1721 C1751 0.930 . S
O1722 Co1711 2.093 . S
O1722 C1714 1.224 . S
H1723 C1755 0.929 . S
H1724 C1757 0.930 . S
H1725 C1758 0.930 . S
H1726 C1756 0.929 . S
H1727 C1759 0.928 . S
O1728 Co1712 2.057 . S
O1728 C1716 1.232 . S
H1729 C1748 0.929 . S
H1730 C1749 0.929 . S
H1731 C1761 0.931 . S
H1732 C1753 0.929 . S
H1733 C1762 0.930 . S
H1734 C1754 0.931 . S
O1735 Co1711 2.097 . S
O1735 C1763 1.214 . S
H1736 C1764 0.929 . S
H1737 C1765 0.929 . S
H1738 C1766 0.930 . S
H1739 C1767 0.929 . S
H1740 C1769 0.930 . S
H1741 C1746 0.930 . S
H1742 C1750 0.930 . S
O1743 Co1712 2.037 . S
O1743 C1763 1.234 . S
C1744 O1718 1.269 . S
C1744 O1719 1.257 . S
C1745 H1720 0.930 . S
C1745 C1748 1.388 . S
C1745 C1750 1.418 . S
C1746 H1741 0.930 . S
C1746 C1749 1.404 . S
C1746 C1750 1.353 . S
N1747 Co1712 2.145 . S
N1747 C1748 1.397 . S
N1747 C1749 1.334 . S
C1748 H1729 0.929 . S
C1748 C1745 1.388 . S
C1748 N1747 1.397 . S
C1749 H1730 0.929 . S
C1749 C1746 1.404 . S
C1749 N1747 1.334 . S
C1750 H1742 0.930 . S
C1750 C1745 1.418 . S
C1750 C1746 1.353 . S
C1751 H1721 0.930 . S
C1751 N1752 1.330 . S
C1751 C1753 1.446 . S
N1752 Co1711 2.151 . S
N1752 C1751 1.330 . S
N1752 C1756 1.418 . S
C1753 H1732 0.929 . S
C1753 C1751 1.446 . S
C1753 C1754 1.332 . S
C1754 H1734 0.931 . S
C1754 C1753 1.332 . S
C1754 C1755 1.267 . S
C1755 H1723 0.929 . S
C1755 C1754 1.267 . S
C1755 C1756 1.251 . S
C1756 H1726 0.929 . S
C1756 N1752 1.418 . S
C1756 C1755 1.251 . S
C1757 H1724 0.930 . S
C1757 C1759 1.406 . S
C1757 C1762 1.261 . S
C1758 H1725 0.930 . S
C1758 N1760 1.325 . S
C1758 C1761 1.357 . S
C1759 H1727 0.928 . S
C1759 C1757 1.406 . S
C1759 N1760 1.261 . S
N1760 Co1711 2.214 . S
N1760 C1758 1.325 . S
N1760 C1759 1.261 . S
C1761 H1731 0.931 . S
C1761 C1758 1.357 . S
C1761 C1762 1.312 . S
C1762 H1733 0.930 . S
C1762 C1757 1.261 . S
C1762 C1761 1.312 . S
C1763 O1735 1.214 . S
C1763 O1743 1.234 . S
C1764 H1736 0.929 . S
C1764 C1767 1.391 . S
C1764 C1769 1.391 . S
C1765 H1737 0.929 . S
C1765 C1766 1.390 . S
C1765 N1768 1.391 . S
C1766 H1738 0.930 . S
C1766 C1765 1.390 . S
C1766 C1767 1.392 . S
C1767 H1739 0.929 . S
C1767 C1764 1.391 . S
C1767 C1766 1.392 . S
N1768 Co1712 2.257 . S
N1768 C1765 1.391 . S
N1768 C1769 1.388 . S
C1769 H1740 0.930 . S
C1769 C1764 1.391 . S
C1769 N1768 1.388 . S
Co1770 O1772 2.143 . S
Co1770 O1778 2.074 . S
Co1770 O1781 2.093 . S
Co1770 O1794 2.097 . S
Co1770 N1811 2.151 . S
Co1770 N1819 2.214 . S
Co1771 O1772 2.160 1_556 S
Co1771 O1777 2.058 . S
Co1771 O1787 2.057 . S
Co1771 O1802 2.032 1_556 S
Co1771 N1806 2.145 . S
Co1771 N1827 2.255 1_556 S
O1772 Co1770 2.143 . S
O1772 Co1771 2.160 1_554 S
C1773 O1774 1.278 . S
C1773 O1781 1.224 . S
O1774 C1773 1.278 . S
C1775 O1776 1.245 . S
C1775 O1787 1.232 1_554 S
O1776 C1775 1.245 . S
O1777 Co1771 2.058 . S
O1777 C1803 1.269 1_556 S
O1778 Co1770 2.074 . S
O1778 C1803 1.257 . S
H1779 C1804 0.930 . S
H1780 C1810 0.930 . S
O1781 Co1770 2.093 . S
O1781 C1773 1.224 . S
H1782 C1814 0.929 . S
H1783 C1816 0.930 . S
H1784 C1817 0.930 . S
H1785 C1815 0.929 . S
H1786 C1818 0.928 . S
O1787 Co1771 2.057 . S
O1787 C1775 1.232 1_556 S
H1788 C1807 0.929 . S
H1789 C1808 0.929 . S
H1790 C1820 0.931 . S
H1791 C1812 0.929 . S
H1792 C1821 0.930 . S
H1793 C1813 0.931 . S
O1794 Co1770 2.097 . S
O1794 C1822 1.214 . S
H1795 C1823 0.929 . S
H1796 C1824 0.929 . S
H1797 C1825 0.930 . S
H1798 C1826 0.929 . S
H1799 C1828 0.930 . S
H1800 C1805 0.930 . S
H1801 C1809 0.930 . S
O1802 Co1771 2.032 1_554 S
O1802 C1822 1.265 . S
C1803 O1777 1.269 1_554 S
C1803 O1778 1.257 . S
C1804 H1779 0.930 . S
C1804 C1807 1.388 . S
C1804 C1809 1.418 . S
C1805 H1800 0.930 . S
C1805 C1808 1.404 . S
C1805 C1809 1.353 . S
N1806 Co1771 2.145 . S
N1806 C1807 1.397 . S
N1806 C1808 1.334 . S
C1807 H1788 0.929 . S
C1807 C1804 1.388 . S
C1807 N1806 1.397 . S
C1808 H1789 0.929 . S
C1808 C1805 1.404 . S
C1808 N1806 1.334 . S
C1809 H1801 0.930 . S
C1809 C1804 1.418 . S
C1809 C1805 1.353 . S
C1810 H1780 0.930 . S
C1810 N1811 1.330 . S
C1810 C1812 1.446 . S
N1811 Co1770 2.151 . S
N1811 C1810 1.330 . S
N1811 C1815 1.418 . S
C1812 H1791 0.929 . S
C1812 C1810 1.446 . S
C1812 C1813 1.332 . S
C1813 H1793 0.931 . S
C1813 C1812 1.332 . S
C1813 C1814 1.267 . S
C1814 H1782 0.929 . S
C1814 C1813 1.267 . S
C1814 C1815 1.251 . S
C1815 H1785 0.929 . S
C1815 N1811 1.418 . S
C1815 C1814 1.251 . S
C1816 H1783 0.930 . S
C1816 C1818 1.406 . S
C1816 C1821 1.261 . S
C1817 H1784 0.930 . S
C1817 N1819 1.325 . S
C1817 C1820 1.357 . S
C1818 H1786 0.928 . S
C1818 C1816 1.406 . S
C1818 N1819 1.261 . S
N1819 Co1770 2.214 . S
N1819 C1817 1.325 . S
N1819 C1818 1.261 . S
C1820 H1790 0.931 . S
C1820 C1817 1.357 . S
C1820 C1821 1.312 . S
C1821 H1792 0.930 . S
C1821 C1816 1.261 . S
C1821 C1820 1.312 . S
C1822 O1794 1.214 . S
C1822 O1802 1.265 . S
C1823 H1795 0.929 . S
C1823 C1826 1.391 . S
C1823 C1828 1.391 . S
C1824 H1796 0.929 . S
C1824 C1825 1.390 . S
C1824 N1827 1.384 1_556 S
C1825 H1797 0.930 . S
C1825 C1824 1.390 . S
C1825 C1826 1.392 1_556 S
C1826 H1798 0.929 . S
C1826 C1823 1.391 . S
C1826 C1825 1.392 1_554 S
N1827 Co1771 2.255 1_554 S
N1827 C1824 1.384 1_554 S
N1827 C1828 1.399 . S
C1828 H1799 0.930 . S
C1828 C1823 1.391 . S
C1828 N1827 1.399 . S
Co1829 O1831 2.143 . S
Co1829 O1837 2.074 . S
Co1829 O1840 2.093 . S
Co1829 O1853 2.097 . S
Co1829 N1870 2.151 . S
Co1829 N1878 2.214 . S
Co1830 O1831 2.160 . S
Co1830 O1836 2.058 . S
Co1830 O1846 2.057 . S
Co1830 O1861 2.037 . S
Co1830 N1865 2.145 . S
Co1830 N1886 2.257 . S
O1831 Co1829 2.143 . S
O1831 Co1830 2.160 . S
C1832 O1833 1.278 . S
C1832 O1840 1.224 . S
O1833 C1832 1.278 . S
C1834 O1835 1.245 . S
C1834 O1846 1.232 . S
O1835 C1834 1.245 . S
O1836 Co1830 2.058 . S
O1836 C1862 1.269 . S
O1837 Co1829 2.074 . S
O1837 C1862 1.257 . S
H1838 C1863 0.930 . S
H1839 C1869 0.930 . S
O1840 Co1829 2.093 . S
O1840 C1832 1.224 . S
H1841 C1873 0.929 . S
H1842 C1875 0.930 . S
H1843 C1876 0.930 . S
H1844 C1874 0.929 . S
H1845 C1877 0.928 . S
O1846 Co1830 2.057 . S
O1846 C1834 1.232 . S
H1847 C1866 0.929 . S
H1848 C1867 0.929 . S
H1849 C1879 0.931 . S
H1850 C1871 0.929 . S
H1851 C1880 0.930 . S
H1852 C1872 0.931 . S
O1853 Co1829 2.097 . S
O1853 C1881 1.214 . S
H1854 C1882 0.929 . S
H1855 C1883 0.929 . S
H1856 C1884 0.930 . S
H1857 C1885 0.929 . S
H1858 C1887 0.930 . S
H1859 C1864 0.930 . S
H1860 C1868 0.930 . S
O1861 Co1830 2.037 . S
O1861 C1881 1.234 . S
C1862 O1836 1.269 . S
C1862 O1837 1.257 . S
C1863 H1838 0.930 . S
C1863 C1866 1.388 . S
C1863 C1868 1.418 . S
C1864 H1859 0.930 . S
C1864 C1867 1.404 . S
C1864 C1868 1.353 . S
N1865 Co1830 2.145 . S
N1865 C1866 1.397 . S
N1865 C1867 1.334 . S
C1866 H1847 0.929 . S
C1866 C1863 1.388 . S
C1866 N1865 1.397 . S
C1867 H1848 0.929 . S
C1867 C1864 1.404 . S
C1867 N1865 1.334 . S
C1868 H1860 0.930 . S
C1868 C1863 1.418 . S
C1868 C1864 1.353 . S
C1869 H1839 0.930 . S
C1869 N1870 1.330 . S
C1869 C1871 1.446 . S
N1870 Co1829 2.151 . S
N1870 C1869 1.330 . S
N1870 C1874 1.418 . S
C1871 H1850 0.929 . S
C1871 C1869 1.446 . S
C1871 C1872 1.332 . S
C1872 H1852 0.931 . S
C1872 C1871 1.332 . S
C1872 C1873 1.267 . S
C1873 H1841 0.929 . S
C1873 C1872 1.267 . S
C1873 C1874 1.251 . S
C1874 H1844 0.929 . S
C1874 N1870 1.418 . S
C1874 C1873 1.251 . S
C1875 H1842 0.930 . S
C1875 C1877 1.406 . S
C1875 C1880 1.261 . S
C1876 H1843 0.930 . S
C1876 N1878 1.325 . S
C1876 C1879 1.357 . S
C1877 H1845 0.928 . S
C1877 C1875 1.406 . S
C1877 N1878 1.261 . S
N1878 Co1829 2.214 . S
N1878 C1876 1.325 . S
N1878 C1877 1.261 . S
C1879 H1849 0.931 . S
C1879 C1876 1.357 . S
C1879 C1880 1.312 . S
C1880 H1851 0.930 . S
C1880 C1875 1.261 . S
C1880 C1879 1.312 . S
C1881 O1853 1.214 . S
C1881 O1861 1.234 . S
C1882 H1854 0.929 . S
C1882 C1885 1.391 . S
C1882 C1887 1.391 . S
C1883 H1855 0.929 . S
C1883 C1884 1.390 . S
C1883 N1886 1.391 . S
C1884 H1856 0.930 . S
C1884 C1883 1.390 . S
C1884 C1885 1.392 . S
C1885 H1857 0.929 . S
C1885 C1882 1.391 . S
C1885 C1884 1.392 . S
N1886 Co1830 2.257 . S
N1886 C1883 1.391 . S
N1886 C1887 1.388 . S
C1887 H1858 0.930 . S
C1887 C1882 1.391 . S
C1887 N1886 1.388 . S
C1888 C1889 1.369 . S
C1888 C1890 1.419 . S
C1888 H1892 0.930 . S
C1889 C1888 1.369 . S
C1889 C1898 1.429 . S
C1890 C1888 1.419 . S
C1890 C1891 1.363 . S
C1890 H1893 0.929 . S
C1891 C1890 1.363 . S
C1891 C1897 1.428 . S
H1892 C1888 0.930 . S
H1893 C1890 0.929 . S
S1894 N1895 1.613 . S
S1894 N1896 1.610 . S
N1895 S1894 1.613 . S
N1895 C1898 1.350 . S
N1896 S1894 1.610 . S
N1896 C1897 1.351 . S
C1897 C1891 1.428 . S
C1897 N1896 1.351 . S
C1897 C1898 1.434 . S
C1898 C1889 1.429 . S
C1898 N1895 1.350 . S
C1898 C1897 1.434 . S
C1899 C1900 1.369 . S
C1899 C1901 1.419 . S
C1899 H1903 0.930 . S
C1900 C1899 1.369 . S
C1900 C1909 1.429 . S
C1901 C1899 1.419 . S
C1901 C1902 1.363 . S
C1901 H1904 0.929 . S
C1902 C1901 1.363 . S
C1902 C1908 1.428 . S
H1903 C1899 0.930 . S
H1904 C1901 0.929 . S
S1905 N1906 1.613 . S
S1905 N1907 1.610 . S
N1906 S1905 1.613 . S
N1906 C1909 1.350 . S
N1907 S1905 1.610 . S
N1907 C1908 1.351 . S
C1908 C1902 1.428 . S
C1908 N1907 1.351 . S
C1908 C1909 1.434 . S
C1909 C1900 1.429 . S
C1909 N1906 1.350 . S
C1909 C1908 1.434 . S
C1910 C1911 1.369 . S
C1910 C1912 1.419 . S
C1910 H1914 0.930 . S
C1911 C1910 1.369 . S
C1911 C1920 1.429 . S
C1912 C1910 1.419 . S
C1912 C1913 1.363 . S
C1912 H1915 0.929 . S
C1913 C1912 1.363 . S
C1913 C1919 1.428 . S
H1914 C1910 0.930 . S
H1915 C1912 0.929 . S
S1916 N1917 1.613 . S
S1916 N1918 1.610 . S
N1917 S1916 1.613 . S
N1917 C1920 1.350 . S
N1918 S1916 1.610 . S
N1918 C1919 1.351 . S
C1919 C1913 1.428 . S
C1919 N1918 1.351 . S
C1919 C1920 1.434 . S
C1920 C1911 1.429 . S
C1920 N1917 1.350 . S
C1920 C1919 1.434 . S
C1921 C1922 1.369 . S
C1921 C1923 1.419 . S
C1921 H1925 0.930 . S
C1922 C1921 1.369 . S
C1922 C1931 1.429 . S
C1923 C1921 1.419 . S
C1923 C1924 1.363 . S
C1923 H1926 0.929 . S
C1924 C1923 1.363 . S
C1924 C1930 1.428 . S
H1925 C1921 0.930 . S
H1926 C1923 0.929 . S
S1927 N1928 1.613 . S
S1927 N1929 1.610 . S
N1928 S1927 1.613 . S
N1928 C1931 1.350 . S
N1929 S1927 1.610 . S
N1929 C1930 1.351 . S
C1930 C1924 1.428 . S
C1930 N1929 1.351 . S
C1930 C1931 1.434 . S
C1931 C1922 1.429 . S
C1931 N1928 1.350 . S
C1931 C1930 1.434 . S
C1932 C1933 1.369 . S
C1932 C1934 1.419 . S
C1932 H1936 0.930 . S
C1933 C1932 1.369 . S
C1933 C1942 1.429 . S
C1934 C1932 1.419 . S
C1934 C1935 1.363 . S
C1934 H1937 0.929 . S
C1935 C1934 1.363 . S
C1935 C1941 1.428 . S
H1936 C1932 0.930 . S
H1937 C1934 0.929 . S
S1938 N1939 1.613 . S
S1938 N1940 1.610 . S
N1939 S1938 1.613 . S
N1939 C1942 1.350 . S
N1940 S1938 1.610 . S
N1940 C1941 1.351 . S
C1941 C1935 1.428 . S
C1941 N1940 1.351 . S
C1941 C1942 1.434 . S
C1942 C1933 1.429 . S
C1942 N1939 1.350 . S
C1942 C1941 1.434 . S
C1943 C1944 1.369 . S
C1943 C1945 1.419 . S
C1943 H1947 0.930 . S
C1944 C1943 1.369 . S
C1944 C1953 1.429 . S
C1945 C1943 1.419 . S
C1945 C1946 1.363 . S
C1945 H1948 0.929 . S
C1946 C1945 1.363 . S
C1946 C1952 1.428 . S
H1947 C1943 0.930 . S
H1948 C1945 0.929 . S
S1949 N1950 1.613 . S
S1949 N1951 1.610 . S
N1950 S1949 1.613 . S
N1950 C1953 1.350 . S
N1951 S1949 1.610 . S
N1951 C1952 1.351 . S
C1952 C1946 1.428 . S
C1952 N1951 1.351 . S
C1952 C1953 1.434 . S
C1953 C1944 1.429 . S
C1953 N1950 1.350 . S
C1953 C1952 1.434 . S
C1954 C1955 1.369 . S
C1954 C1956 1.419 . S
C1954 H1958 0.930 . S
C1955 C1954 1.369 . S
C1955 C1964 1.429 . S
C1956 C1954 1.419 . S
C1956 C1957 1.363 . S
C1956 H1959 0.929 . S
C1957 C1956 1.363 . S
C1957 C1963 1.428 . S
H1958 C1954 0.930 . S
H1959 C1956 0.929 . S
S1960 N1961 1.613 . S
S1960 N1962 1.610 . S
N1961 S1960 1.613 . S
N1961 C1964 1.350 . S
N1962 S1960 1.610 . S
N1962 C1963 1.351 . S
C1963 C1957 1.428 . S
C1963 N1962 1.351 . S
C1963 C1964 1.434 . S
C1964 C1955 1.429 . S
C1964 N1961 1.350 . S
C1964 C1963 1.434 . S
C1965 C1966 1.369 . S
C1965 C1967 1.419 . S
C1965 H1969 0.930 . S
C1966 C1965 1.369 . S
C1966 C1975 1.429 . S
C1967 C1965 1.419 . S
C1967 C1968 1.363 . S
C1967 H1970 0.929 . S
C1968 C1967 1.363 . S
C1968 C1974 1.428 . S
H1969 C1965 0.930 . S
H1970 C1967 0.929 . S
S1971 N1972 1.613 . S
S1971 N1973 1.610 . S
N1972 S1971 1.613 . S
N1972 C1975 1.350 . S
N1973 S1971 1.610 . S
N1973 C1974 1.351 . S
C1974 C1968 1.428 . S
C1974 N1973 1.351 . S
C1974 C1975 1.434 . S
C1975 C1966 1.429 . S
C1975 N1972 1.350 . S
C1975 C1974 1.434 . S
C1976 C1977 1.369 . S
C1976 C1978 1.419 . S
C1976 H1980 0.930 . S
C1977 C1976 1.369 . S
C1977 C1986 1.429 . S
C1978 C1976 1.419 . S
C1978 C1979 1.363 . S
C1978 H1981 0.929 . S
C1979 C1978 1.363 . S
C1979 C1985 1.428 . S
H1980 C1976 0.930 . S
H1981 C1978 0.929 . S
S1982 N1983 1.613 . S
S1982 N1984 1.610 . S
N1983 S1982 1.613 . S
N1983 C1986 1.350 . S
N1984 S1982 1.610 . S
N1984 C1985 1.351 . S
C1985 C1979 1.428 . S
C1985 N1984 1.351 . S
C1985 C1986 1.434 . S
C1986 C1977 1.429 . S
C1986 N1983 1.350 . S
C1986 C1985 1.434 . S
C1987 C1988 1.369 . S
C1987 C1989 1.419 . S
C1987 H1991 0.930 . S
C1988 C1987 1.369 . S
C1988 C1997 1.429 . S
C1989 C1987 1.419 . S
C1989 C1990 1.363 . S
C1989 H1992 0.929 . S
C1990 C1989 1.363 . S
C1990 C1996 1.428 . S
H1991 C1987 0.930 . S
H1992 C1989 0.929 . S
S1993 N1994 1.613 . S
S1993 N1995 1.610 . S
N1994 S1993 1.613 . S
N1994 C1997 1.350 . S
N1995 S1993 1.610 . S
N1995 C1996 1.351 . S
C1996 C1990 1.428 . S
C1996 N1995 1.351 . S
C1996 C1997 1.434 . S
C1997 C1988 1.429 . S
C1997 N1994 1.350 . S
C1997 C1996 1.434 . S
C1998 C1999 1.369 . S
C1998 C2000 1.419 . S
C1998 H2002 0.930 . S
C1999 C1998 1.369 . S
C1999 C2008 1.429 . S
C2000 C1998 1.419 . S
C2000 C2001 1.363 . S
C2000 H2003 0.929 . S
C2001 C2000 1.363 . S
C2001 C2007 1.428 . S
H2002 C1998 0.930 . S
H2003 C2000 0.929 . S
S2004 N2005 1.613 . S
S2004 N2006 1.610 . S
N2005 S2004 1.613 . S
N2005 C2008 1.350 . S
N2006 S2004 1.610 . S
N2006 C2007 1.351 . S
C2007 C2001 1.428 . S
C2007 N2006 1.351 . S
C2007 C2008 1.434 . S
C2008 C1999 1.429 . S
C2008 N2005 1.350 . S
C2008 C2007 1.434 . S
C2009 C2010 1.369 . S
C2009 C2011 1.419 . S
C2009 H2013 0.930 . S
C2010 C2009 1.369 . S
C2010 C2019 1.429 . S
C2011 C2009 1.419 . S
C2011 C2012 1.363 . S
C2011 H2014 0.929 . S
C2012 C2011 1.363 . S
C2012 C2018 1.428 . S
H2013 C2009 0.930 . S
H2014 C2011 0.929 . S
S2015 N2016 1.613 . S
S2015 N2017 1.610 . S
N2016 S2015 1.613 . S
N2016 C2019 1.350 . S
N2017 S2015 1.610 . S
N2017 C2018 1.351 . S
C2018 C2012 1.428 . S
C2018 N2017 1.351 . S
C2018 C2019 1.434 . S
C2019 C2010 1.429 . S
C2019 N2016 1.350 . S
C2019 C2018 1.434 . S
C2020 C2021 1.369 . S
C2020 C2022 1.419 . S
C2020 H2024 0.930 . S
C2021 C2020 1.369 . S
C2021 C2030 1.429 . S
C2022 C2020 1.419 . S
C2022 C2023 1.363 . S
C2022 H2025 0.929 . S
C2023 C2022 1.363 . S
C2023 C2029 1.428 . S
H2024 C2020 0.930 . S
H2025 C2022 0.929 . S
S2026 N2027 1.613 . S
S2026 N2028 1.610 . S
N2027 S2026 1.613 . S
N2027 C2030 1.350 . S
N2028 S2026 1.610 . S
N2028 C2029 1.351 . S
C2029 C2023 1.428 . S
C2029 N2028 1.351 . S
C2029 C2030 1.434 . S
C2030 C2021 1.429 . S
C2030 N2027 1.350 . S
C2030 C2029 1.434 . S
C2031 C2032 1.369 . S
C2031 C2033 1.419 . S
C2031 H2035 0.930 . S
C2032 C2031 1.369 . S
C2032 C2041 1.429 . S
C2033 C2031 1.419 . S
C2033 C2034 1.363 . S
C2033 H2036 0.929 . S
C2034 C2033 1.363 . S
C2034 C2040 1.428 . S
H2035 C2031 0.930 . S
H2036 C2033 0.929 . S
S2037 N2038 1.613 . S
S2037 N2039 1.610 . S
N2038 S2037 1.613 . S
N2038 C2041 1.350 . S
N2039 S2037 1.610 . S
N2039 C2040 1.351 . S
C2040 C2034 1.428 . S
C2040 N2039 1.351 . S
C2040 C2041 1.434 . S
C2041 C2032 1.429 . S
C2041 N2038 1.350 . S
C2041 C2040 1.434 . S
C2042 C2043 1.369 . S
C2042 C2044 1.419 . S
C2042 H2046 0.930 . S
C2043 C2042 1.369 . S
C2043 C2052 1.429 . S
C2044 C2042 1.419 . S
C2044 C2045 1.363 . S
C2044 H2047 0.929 . S
C2045 C2044 1.363 . S
C2045 C2051 1.428 . S
H2046 C2042 0.930 . S
H2047 C2044 0.929 . S
S2048 N2049 1.613 . S
S2048 N2050 1.610 . S
N2049 S2048 1.613 . S
N2049 C2052 1.350 . S
N2050 S2048 1.610 . S
N2050 C2051 1.351 . S
C2051 C2045 1.428 . S
C2051 N2050 1.351 . S
C2051 C2052 1.434 . S
C2052 C2043 1.429 . S
C2052 N2049 1.350 . S
C2052 C2051 1.434 . S
C2053 C2054 1.369 . S
C2053 C2055 1.419 . S
C2053 H2057 0.930 . S
C2054 C2053 1.369 . S
C2054 C2063 1.429 . S
C2055 C2053 1.419 . S
C2055 C2056 1.363 . S
C2055 H2058 0.929 . S
C2056 C2055 1.363 . S
C2056 C2062 1.428 . S
H2057 C2053 0.930 . S
H2058 C2055 0.929 . S
S2059 N2060 1.613 . S
S2059 N2061 1.610 . S
N2060 S2059 1.613 . S
N2060 C2063 1.350 . S
N2061 S2059 1.610 . S
N2061 C2062 1.351 . S
C2062 C2056 1.428 . S
C2062 N2061 1.351 . S
C2062 C2063 1.434 . S
C2063 C2054 1.429 . S
C2063 N2060 1.350 . S
C2063 C2062 1.434 . S
C2064 C2065 1.364 1_556 S
C2064 C2066 1.419 1_455 S
C2064 H2068 0.930 . S
C2065 C2064 1.364 1_554 S
C2065 C2074 1.434 . S
C2066 C2064 1.419 1_655 S
C2066 C2067 1.357 1_556 S
C2066 H2069 0.929 . S
C2067 C2066 1.357 1_554 S
C2067 C2073 1.435 . S
H2068 C2064 0.930 . S
H2069 C2066 0.929 . S
S2070 N2071 1.614 . S
S2070 N2072 1.610 1_455 S
N2071 S2070 1.614 . S
N2071 C2074 1.350 . S
N2072 S2070 1.610 1_655 S
N2072 C2073 1.351 . S
C2073 C2067 1.435 . S
C2073 N2072 1.351 . S
C2073 C2074 1.434 1_655 S
C2074 C2065 1.434 . S
C2074 N2071 1.350 . S
C2074 C2073 1.434 1_455 S
C2075 C2076 1.369 . S
C2075 C2077 1.419 . S
C2075 H2079 0.930 . S
C2076 C2075 1.369 . S
C2076 C2085 1.429 . S
C2077 C2075 1.419 . S
C2077 C2078 1.363 . S
C2077 H2080 0.929 . S
C2078 C2077 1.363 . S
C2078 C2084 1.428 . S
H2079 C2075 0.930 . S
H2080 C2077 0.929 . S
S2081 N2082 1.613 . S
S2081 N2083 1.610 . S
N2082 S2081 1.613 . S
N2082 C2085 1.350 . S
N2083 S2081 1.610 . S
N2083 C2084 1.351 . S
C2084 C2078 1.428 . S
C2084 N2083 1.351 . S
C2084 C2085 1.434 . S
C2085 C2076 1.429 . S
C2085 N2082 1.350 . S
C2085 C2084 1.434 . S
C2086 C2087 1.369 . S
C2086 C2088 1.419 . S
C2086 H2090 0.930 . S
C2087 C2086 1.369 . S
C2087 C2096 1.429 . S
C2088 C2086 1.419 . S
C2088 C2089 1.363 . S
C2088 H2091 0.929 . S
C2089 C2088 1.363 . S
C2089 C2095 1.428 . S
H2090 C2086 0.930 . S
H2091 C2088 0.929 . S
S2092 N2093 1.613 . S
S2092 N2094 1.610 . S
N2093 S2092 1.613 . S
N2093 C2096 1.350 . S
N2094 S2092 1.610 . S
N2094 C2095 1.351 . S
C2095 C2089 1.428 . S
C2095 N2094 1.351 . S
C2095 C2096 1.434 . S
C2096 C2087 1.429 . S
C2096 N2093 1.350 . S
C2096 C2095 1.434 . S
C2097 C2098 1.369 . S
C2097 C2099 1.419 . S
C2097 H2101 0.930 . S
C2098 C2097 1.369 . S
C2098 C2107 1.429 . S
C2099 C2097 1.419 . S
C2099 C2100 1.363 . S
C2099 H2102 0.929 . S
C2100 C2099 1.363 . S
C2100 C2106 1.428 . S
H2101 C2097 0.930 . S
H2102 C2099 0.929 . S
S2103 N2104 1.613 . S
S2103 N2105 1.610 . S
N2104 S2103 1.613 . S
N2104 C2107 1.350 . S
N2105 S2103 1.610 . S
N2105 C2106 1.351 . S
C2106 C2100 1.428 . S
C2106 N2105 1.351 . S
C2106 C2107 1.434 . S
C2107 C2098 1.429 . S
C2107 N2104 1.350 . S
C2107 C2106 1.434 . S
C2108 C2109 1.391 . S
C2108 C2110 1.419 1_655 S
C2108 H2112 0.930 . S
C2109 C2108 1.391 . S
C2109 C2118 1.407 1_556 S
C2110 C2108 1.419 1_455 S
C2110 C2111 1.383 . S
C2110 H2113 0.929 . S
C2111 C2110 1.383 . S
C2111 C2117 1.409 1_556 S
H2112 C2108 0.930 . S
H2113 C2110 0.929 . S
S2114 N2115 1.614 1_455 S
S2114 N2116 1.609 . S
N2115 S2114 1.614 1_655 S
N2115 C2118 1.350 . S
N2116 S2114 1.609 . S
N2116 C2117 1.351 . S
C2117 C2111 1.409 1_554 S
C2117 N2116 1.351 . S
C2117 C2118 1.434 1_455 S
C2118 C2109 1.407 1_554 S
C2118 N2115 1.350 . S
C2118 C2117 1.434 1_655 S
C2119 C2120 1.369 . S
C2119 C2121 1.419 . S
C2119 H2123 0.930 . S
C2120 C2119 1.369 . S
C2120 C2129 1.429 . S
C2121 C2119 1.419 . S
C2121 C2122 1.363 . S
C2121 H2124 0.929 . S
C2122 C2121 1.363 . S
C2122 C2128 1.428 . S
H2123 C2119 0.930 . S
H2124 C2121 0.929 . S
S2125 N2126 1.613 . S
S2125 N2127 1.610 . S
N2126 S2125 1.613 . S
N2126 C2129 1.350 . S
N2127 S2125 1.610 . S
N2127 C2128 1.351 . S
C2128 C2122 1.428 . S
C2128 N2127 1.351 . S
C2128 C2129 1.434 . S
C2129 C2120 1.429 . S
C2129 N2126 1.350 . S
C2129 C2128 1.434 . S
C2130 C2131 1.369 . S
C2130 C2132 1.419 . S
C2130 H2134 0.930 . S
C2131 C2130 1.369 . S
C2131 C2140 1.429 . S
C2132 C2130 1.419 . S
C2132 C2133 1.363 . S
C2132 H2135 0.929 . S
C2133 C2132 1.363 . S
C2133 C2139 1.428 . S
H2134 C2130 0.930 . S
H2135 C2132 0.929 . S
S2136 N2137 1.613 . S
S2136 N2138 1.610 . S
N2137 S2136 1.613 . S
N2137 C2140 1.350 . S
N2138 S2136 1.610 . S
N2138 C2139 1.351 . S
C2139 C2133 1.428 . S
C2139 N2138 1.351 . S
C2139 C2140 1.434 . S
C2140 C2131 1.429 . S
C2140 N2137 1.350 . S
C2140 C2139 1.434 . S
C2141 C2142 1.369 . S
C2141 C2143 1.419 . S
C2141 H2145 0.930 . S
C2142 C2141 1.369 . S
C2142 C2151 1.429 . S
C2143 C2141 1.419 . S
C2143 C2144 1.363 . S
C2143 H2146 0.929 . S
C2144 C2143 1.363 . S
C2144 C2150 1.428 . S
H2145 C2141 0.930 . S
H2146 C2143 0.929 . S
S2147 N2148 1.613 . S
S2147 N2149 1.610 . S
N2148 S2147 1.613 . S
N2148 C2151 1.350 . S
N2149 S2147 1.610 . S
N2149 C2150 1.351 . S
C2150 C2144 1.428 . S
C2150 N2149 1.351 . S
C2150 C2151 1.434 . S
C2151 C2142 1.429 . S
C2151 N2148 1.350 . S
C2151 C2150 1.434 . S
C2152 C2153 1.369 . S
C2152 C2154 1.419 . S
C2152 H2156 0.930 . S
C2153 C2152 1.369 . S
C2153 C2162 1.429 . S
C2154 C2152 1.419 . S
C2154 C2155 1.363 . S
C2154 H2157 0.929 . S
C2155 C2154 1.363 . S
C2155 C2161 1.428 . S
H2156 C2152 0.930 . S
H2157 C2154 0.929 . S
S2158 N2159 1.613 . S
S2158 N2160 1.610 . S
N2159 S2158 1.613 . S
N2159 C2162 1.350 . S
N2160 S2158 1.610 . S
N2160 C2161 1.351 . S
C2161 C2155 1.428 . S
C2161 N2160 1.351 . S
C2161 C2162 1.434 . S
C2162 C2153 1.429 . S
C2162 N2159 1.350 . S
C2162 C2161 1.434 . S
C2163 C2164 1.369 . S
C2163 C2165 1.419 . S
C2163 H2167 0.930 . S
C2164 C2163 1.369 . S
C2164 C2173 1.429 . S
C2165 C2163 1.419 . S
C2165 C2166 1.363 . S
C2165 H2168 0.929 . S
C2166 C2165 1.363 . S
C2166 C2172 1.428 . S
H2167 C2163 0.930 . S
H2168 C2165 0.929 . S
S2169 N2170 1.613 . S
S2169 N2171 1.610 . S
N2170 S2169 1.613 . S
N2170 C2173 1.350 . S
N2171 S2169 1.610 . S
N2171 C2172 1.351 . S
C2172 C2166 1.428 . S
C2172 N2171 1.351 . S
C2172 C2173 1.434 . S
C2173 C2164 1.429 . S
C2173 N2170 1.350 . S
C2173 C2172 1.434 . S
C2174 C2175 1.369 . S
C2174 C2176 1.419 . S
C2174 H2178 0.930 . S
C2175 C2174 1.369 . S
C2175 C2184 1.429 . S
C2176 C2174 1.419 . S
C2176 C2177 1.363 . S
C2176 H2179 0.929 . S
C2177 C2176 1.363 . S
C2177 C2183 1.428 . S
H2178 C2174 0.930 . S
H2179 C2176 0.929 . S
S2180 N2181 1.613 . S
S2180 N2182 1.610 . S
N2181 S2180 1.613 . S
N2181 C2184 1.350 . S
N2182 S2180 1.610 . S
N2182 C2183 1.351 . S
C2183 C2177 1.428 . S
C2183 N2182 1.351 . S
C2183 C2184 1.434 . S
C2184 C2175 1.429 . S
C2184 N2181 1.350 . S
C2184 C2183 1.434 . S
C2185 C2186 1.369 . S
C2185 C2187 1.419 . S
C2185 H2189 0.930 . S
C2186 C2185 1.369 . S
C2186 C2195 1.429 . S
C2187 C2185 1.419 . S
C2187 C2188 1.363 . S
C2187 H2190 0.929 . S
C2188 C2187 1.363 . S
C2188 C2194 1.428 . S
H2189 C2185 0.930 . S
H2190 C2187 0.929 . S
S2191 N2192 1.613 . S
S2191 N2193 1.610 . S
N2192 S2191 1.613 . S
N2192 C2195 1.350 . S
N2193 S2191 1.610 . S
N2193 C2194 1.351 . S
C2194 C2188 1.428 . S
C2194 N2193 1.351 . S
C2194 C2195 1.434 . S
C2195 C2186 1.429 . S
C2195 N2192 1.350 . S
C2195 C2194 1.434 . S
C2196 C2197 1.369 . S
C2196 C2198 1.419 . S
C2196 H2200 0.930 . S
C2197 C2196 1.369 . S
C2197 C2206 1.429 . S
C2198 C2196 1.419 . S
C2198 C2199 1.363 . S
C2198 H2201 0.929 . S
C2199 C2198 1.363 . S
C2199 C2205 1.428 . S
H2200 C2196 0.930 . S
H2201 C2198 0.929 . S
S2202 N2203 1.613 . S
S2202 N2204 1.610 . S
N2203 S2202 1.613 . S
N2203 C2206 1.350 . S
N2204 S2202 1.610 . S
N2204 C2205 1.351 . S
C2205 C2199 1.428 . S
C2205 N2204 1.351 . S
C2205 C2206 1.434 . S
C2206 C2197 1.429 . S
C2206 N2203 1.350 . S
C2206 C2205 1.434 . S
C2207 C2208 1.325 1_556 S
C2207 C2209 1.419 1_655 S
C2207 H2211 0.930 . S
C2208 C2207 1.325 1_554 S
C2208 C2217 1.474 . S
C2209 C2207 1.419 1_455 S
C2209 C2210 1.319 1_556 S
C2209 H2212 0.929 . S
C2210 C2209 1.319 1_554 S
C2210 C2216 1.474 . S
H2211 C2207 0.930 . S
H2212 C2209 0.929 . S
S2213 N2214 1.617 . S
S2213 N2215 1.606 1_655 S
N2214 S2213 1.617 . S
N2214 C2217 1.350 . S
N2215 S2213 1.606 1_455 S
N2215 C2216 1.351 . S
C2216 C2210 1.474 . S
C2216 N2215 1.351 . S
C2216 C2217 1.434 1_455 S
C2217 C2208 1.474 . S
C2217 N2214 1.350 . S
C2217 C2216 1.434 1_655 S
C2218 C2219 1.369 . S
C2218 C2220 1.419 . S
C2218 H2222 0.930 . S
C2219 C2218 1.369 . S
C2219 C2228 1.429 . S
C2220 C2218 1.419 . S
C2220 C2221 1.363 . S
C2220 H2223 0.929 . S
C2221 C2220 1.363 . S
C2221 C2227 1.428 . S
H2222 C2218 0.930 . S
H2223 C2220 0.929 . S
S2224 N2225 1.613 . S
S2224 N2226 1.610 . S
N2225 S2224 1.613 . S
N2225 C2228 1.350 . S
N2226 S2224 1.610 . S
N2226 C2227 1.351 . S
C2227 C2221 1.428 . S
C2227 N2226 1.351 . S
C2227 C2228 1.434 . S
C2228 C2219 1.429 . S
C2228 N2225 1.350 . S
C2228 C2227 1.434 . S
C2229 C2230 1.350 1_554 S
C2229 C2231 1.419 1_455 S
C2229 H2233 0.930 . S
C2230 C2229 1.350 1_556 S
C2230 C2239 1.450 . S
C2231 C2229 1.419 1_655 S
C2231 C2232 1.347 1_554 S
C2231 H2234 0.929 . S
C2232 C2231 1.347 1_556 S
C2232 C2238 1.447 . S
H2233 C2229 0.930 . S
H2234 C2231 0.929 . S
S2235 N2236 1.610 1_655 S
S2235 N2237 1.614 . S
N2236 S2235 1.610 1_455 S
N2236 C2239 1.350 . S
N2237 S2235 1.614 . S
N2237 C2238 1.351 . S
C2238 C2232 1.447 . S
C2238 N2237 1.351 . S
C2238 C2239 1.434 1_655 S
C2239 C2230 1.450 . S
C2239 N2236 1.350 . S
C2239 C2238 1.434 1_455 S
C2240 C2241 1.370 1_556 S
C2240 C2242 1.419 . S
C2240 H2244 0.930 . S
C2241 C2240 1.370 1_554 S
C2241 C2250 1.427 . S
C2242 C2240 1.419 . S
C2242 C2243 1.353 1_556 S
C2242 H2245 0.929 . S
C2243 C2242 1.353 1_554 S
C2243 C2249 1.439 . S
H2244 C2240 0.930 . S
H2245 C2242 0.929 . S
S2246 N2247 1.613 . S
S2246 N2248 1.610 . S
N2247 S2246 1.613 . S
N2247 C2250 1.350 . S
N2248 S2246 1.610 . S
N2248 C2249 1.351 . S
C2249 C2243 1.439 . S
C2249 N2248 1.351 . S
C2249 C2250 1.434 . S
C2250 C2241 1.427 . S
C2250 N2247 1.350 . S
C2250 C2249 1.434 . S
C2251 C2252 1.369 . S
C2251 C2253 1.419 . S
C2251 H2255 0.930 . S
C2252 C2251 1.369 . S
C2252 C2261 1.429 . S
C2253 C2251 1.419 . S
C2253 C2254 1.363 . S
C2253 H2256 0.929 . S
C2254 C2253 1.363 . S
C2254 C2260 1.428 . S
H2255 C2251 0.930 . S
H2256 C2253 0.929 . S
S2257 N2258 1.613 . S
S2257 N2259 1.610 . S
N2258 S2257 1.613 . S
N2258 C2261 1.350 . S
N2259 S2257 1.610 . S
N2259 C2260 1.351 . S
C2260 C2254 1.428 . S
C2260 N2259 1.351 . S
C2260 C2261 1.434 . S
C2261 C2252 1.429 . S
C2261 N2258 1.350 . S
C2261 C2260 1.434 . S
C2262 C2263 1.369 . S
C2262 C2264 1.419 . S
C2262 H2266 0.930 . S
C2263 C2262 1.369 . S
C2263 C2272 1.429 . S
C2264 C2262 1.419 . S
C2264 C2265 1.363 . S
C2264 H2267 0.929 . S
C2265 C2264 1.363 . S
C2265 C2271 1.428 . S
H2266 C2262 0.930 . S
H2267 C2264 0.929 . S
S2268 N2269 1.613 . S
S2268 N2270 1.610 . S
N2269 S2268 1.613 . S
N2269 C2272 1.350 . S
N2270 S2268 1.610 . S
N2270 C2271 1.351 . S
C2271 C2265 1.428 . S
C2271 N2270 1.351 . S
C2271 C2272 1.434 . S
C2272 C2263 1.429 . S
C2272 N2269 1.350 . S
C2272 C2271 1.434 . S
C2273 C2274 1.369 . S
C2273 C2275 1.419 . S
C2273 H2277 0.930 . S
C2274 C2273 1.369 . S
C2274 C2283 1.429 . S
C2275 C2273 1.419 . S
C2275 C2276 1.363 . S
C2275 H2278 0.929 . S
C2276 C2275 1.363 . S
C2276 C2282 1.428 . S
H2277 C2273 0.930 . S
H2278 C2275 0.929 . S
S2279 N2280 1.613 . S
S2279 N2281 1.610 . S
N2280 S2279 1.613 . S
N2280 C2283 1.350 . S
N2281 S2279 1.610 . S
N2281 C2282 1.351 . S
C2282 C2276 1.428 . S
C2282 N2281 1.351 . S
C2282 C2283 1.434 . S
C2283 C2274 1.429 . S
C2283 N2280 1.350 . S
C2283 C2282 1.434 . S
C2284 C2285 1.367 . S
C2284 C2286 1.419 . S
C2284 H2288 0.930 . S
C2285 C2284 1.367 . S
C2285 C2294 1.430 1_554 S
C2286 C2284 1.419 . S
C2286 C2287 1.354 1_554 S
C2286 H2289 0.929 . S
C2287 C2286 1.354 1_556 S
C2287 C2293 1.438 . S
H2288 C2284 0.930 . S
H2289 C2286 0.929 . S
S2290 N2291 1.613 . S
S2290 N2292 1.610 . S
N2291 S2290 1.613 . S
N2291 C2294 1.350 . S
N2292 S2290 1.610 . S
N2292 C2293 1.351 . S
C2293 C2287 1.438 . S
C2293 N2292 1.351 . S
C2293 C2294 1.434 . S
C2294 C2285 1.430 1_556 S
C2294 N2291 1.350 . S
C2294 C2293 1.434 . S
C2295 C2296 1.369 . S
C2295 C2297 1.419 . S
C2295 H2299 0.930 . S
C2296 C2295 1.369 . S
C2296 C2305 1.429 . S
C2297 C2295 1.419 . S
C2297 C2298 1.363 . S
C2297 H2300 0.929 . S
C2298 C2297 1.363 . S
C2298 C2304 1.428 . S
H2299 C2295 0.930 . S
H2300 C2297 0.929 . S
S2301 N2302 1.613 . S
S2301 N2303 1.610 . S
N2302 S2301 1.613 . S
N2302 C2305 1.350 . S
N2303 S2301 1.610 . S
N2303 C2304 1.351 . S
C2304 C2298 1.428 . S
C2304 N2303 1.351 . S
C2304 C2305 1.434 . S
C2305 C2296 1.429 . S
C2305 N2302 1.350 . S
C2305 C2304 1.434 . S
C2306 C2307 1.369 . S
C2306 C2308 1.419 . S
C2306 H2310 0.930 . S
C2307 C2306 1.369 . S
C2307 C2316 1.429 . S
C2308 C2306 1.419 . S
C2308 C2309 1.363 . S
C2308 H2311 0.929 . S
C2309 C2308 1.363 . S
C2309 C2315 1.428 . S
H2310 C2306 0.930 . S
H2311 C2308 0.929 . S
S2312 N2313 1.613 . S
S2312 N2314 1.610 . S
N2313 S2312 1.613 . S
N2313 C2316 1.350 . S
N2314 S2312 1.610 . S
N2314 C2315 1.351 . S
C2315 C2309 1.428 . S
C2315 N2314 1.351 . S
C2315 C2316 1.434 . S
C2316 C2307 1.429 . S
C2316 N2313 1.350 . S
C2316 C2315 1.434 . S
C2317 C2318 1.369 . S
C2317 C2319 1.419 . S
C2317 H2321 0.930 . S
C2318 C2317 1.369 . S
C2318 C2327 1.429 . S
C2319 C2317 1.419 . S
C2319 C2320 1.363 . S
C2319 H2322 0.929 . S
C2320 C2319 1.363 . S
C2320 C2326 1.428 . S
H2321 C2317 0.930 . S
H2322 C2319 0.929 . S
S2323 N2324 1.613 . S
S2323 N2325 1.610 . S
N2324 S2323 1.613 . S
N2324 C2327 1.350 . S
N2325 S2323 1.610 . S
N2325 C2326 1.351 . S
C2326 C2320 1.428 . S
C2326 N2325 1.351 . S
C2326 C2327 1.434 . S
C2327 C2318 1.429 . S
C2327 N2324 1.350 . S
C2327 C2326 1.434 . S
C2328 C2329 1.369 . S
C2328 C2330 1.419 1_545 S
C2328 H2332 0.930 . S
C2329 C2328 1.369 . S
C2329 C2338 1.429 . S
C2330 C2328 1.419 1_565 S
C2330 C2331 1.363 . S
C2330 H2333 0.929 . S
C2331 C2330 1.363 . S
C2331 C2337 1.428 . S
H2332 C2328 0.930 . S
H2333 C2330 0.929 . S
S2334 N2335 1.599 1_565 S
S2334 N2336 1.624 . S
N2335 S2334 1.599 1_545 S
N2335 C2338 1.350 . S
N2336 S2334 1.624 . S
N2336 C2337 1.351 . S
C2337 C2331 1.428 . S
C2337 N2336 1.351 . S
C2337 C2338 1.434 1_565 S
C2338 C2329 1.429 . S
C2338 N2335 1.350 . S
C2338 C2337 1.434 1_545 S
C2339 C2340 1.369 . S
C2339 C2341 1.419 . S
C2339 H2343 0.930 . S
C2340 C2339 1.369 . S
C2340 C2349 1.429 . S
C2341 C2339 1.419 . S
C2341 C2342 1.363 . S
C2341 H2344 0.929 . S
C2342 C2341 1.363 . S
C2342 C2348 1.428 . S
H2343 C2339 0.930 . S
H2344 C2341 0.929 . S
S2345 N2346 1.613 . S
S2345 N2347 1.610 . S
N2346 S2345 1.613 . S
N2346 C2349 1.350 . S
N2347 S2345 1.610 . S
N2347 C2348 1.351 . S
C2348 C2342 1.428 . S
C2348 N2347 1.351 . S
C2348 C2349 1.434 . S
C2349 C2340 1.429 . S
C2349 N2346 1.350 . S
C2349 C2348 1.434 . S
C2350 C2351 1.359 1_556 S
C2350 C2352 1.419 1_565 S
C2350 H2354 0.930 . S
C2351 C2350 1.359 1_554 S
C2351 C2360 1.439 . S
C2352 C2350 1.419 1_545 S
C2352 C2353 1.361 . S
C2352 H2355 0.929 . S
C2353 C2352 1.361 . S
C2353 C2359 1.431 1_556 S
H2354 C2350 0.930 . S
H2355 C2352 0.929 . S
S2356 N2357 1.602 1_545 S
S2356 N2358 1.621 . S
N2357 S2356 1.602 1_565 S
N2357 C2360 1.350 . S
N2358 S2356 1.621 . S
N2358 C2359 1.351 . S
C2359 C2353 1.431 1_554 S
C2359 N2358 1.351 . S
C2359 C2360 1.434 1_545 S
C2360 C2351 1.439 . S
C2360 N2357 1.350 . S
C2360 C2359 1.434 1_565 S
C2361 C2362 1.369 . S
C2361 C2363 1.419 . S
C2361 H2365 0.930 . S
C2362 C2361 1.369 . S
C2362 C2371 1.429 . S
C2363 C2361 1.419 . S
C2363 C2364 1.363 . S
C2363 H2366 0.929 . S
C2364 C2363 1.363 . S
C2364 C2370 1.428 . S
H2365 C2361 0.930 . S
H2366 C2363 0.929 . S
S2367 N2368 1.613 . S
S2367 N2369 1.610 . S
N2368 S2367 1.613 . S
N2368 C2371 1.350 . S
N2369 S2367 1.610 . S
N2369 C2370 1.351 . S
C2370 C2364 1.428 . S
C2370 N2369 1.351 . S
C2370 C2371 1.434 . S
C2371 C2362 1.429 . S
C2371 N2368 1.350 . S
C2371 C2370 1.434 . S
C2372 C2373 1.369 . S
C2372 C2374 1.419 1_545 S
C2372 H2376 0.930 . S
C2373 C2372 1.369 . S
C2373 C2382 1.429 . S
C2374 C2372 1.419 1_565 S
C2374 C2375 1.363 . S
C2374 H2377 0.929 . S
C2375 C2374 1.363 . S
C2375 C2381 1.428 . S
H2376 C2372 0.930 . S
H2377 C2374 0.929 . S
S2378 N2379 1.636 . S
S2378 N2380 1.587 1_545 S
N2379 S2378 1.636 . S
N2379 C2382 1.350 . S
N2380 S2378 1.587 1_565 S
N2380 C2381 1.351 . S
C2381 C2375 1.428 . S
C2381 N2380 1.351 . S
C2381 C2382 1.434 1_565 S
C2382 C2373 1.429 . S
C2382 N2379 1.350 . S
C2382 C2381 1.434 1_545 S
C2383 C2384 1.369 . S
C2383 C2385 1.419 . S
C2383 H2387 0.930 . S
C2384 C2383 1.369 . S
C2384 C2393 1.429 . S
C2385 C2383 1.419 . S
C2385 C2386 1.363 . S
C2385 H2388 0.929 . S
C2386 C2385 1.363 . S
C2386 C2392 1.428 . S
H2387 C2383 0.930 . S
H2388 C2385 0.929 . S
S2389 N2390 1.613 . S
S2389 N2391 1.610 . S
N2390 S2389 1.613 . S
N2390 C2393 1.350 . S
N2391 S2389 1.610 . S
N2391 C2392 1.351 . S
C2392 C2386 1.428 . S
C2392 N2391 1.351 . S
C2392 C2393 1.434 . S
C2393 C2384 1.429 . S
C2393 N2390 1.350 . S
C2393 C2392 1.434 . S
C2394 C2395 1.360 1_556 S
C2394 C2396 1.419 1_565 S
C2394 H2398 0.930 . S
C2395 C2394 1.360 1_554 S
C2395 C2404 1.439 . S
C2396 C2394 1.419 1_545 S
C2396 C2397 1.363 . S
C2396 H2399 0.929 . S
C2397 C2396 1.363 . S
C2397 C2403 1.428 1_556 S
H2398 C2394 0.930 . S
H2399 C2396 0.929 . S
S2400 N2401 1.600 1_545 S
S2400 N2402 1.623 . S
N2401 S2400 1.600 1_565 S
N2401 C2404 1.350 . S
N2402 S2400 1.623 . S
N2402 C2403 1.351 . S
C2403 C2397 1.428 1_554 S
C2403 N2402 1.351 . S
C2403 C2404 1.434 1_545 S
C2404 C2395 1.439 . S
C2404 N2401 1.350 . S
C2404 C2403 1.434 1_565 S
C2405 C2406 1.369 . S
C2405 C2407 1.419 . S
C2405 H2409 0.930 . S
C2406 C2405 1.369 . S
C2406 C2415 1.429 . S
C2407 C2405 1.419 . S
C2407 C2408 1.363 . S
C2407 H2410 0.929 . S
C2408 C2407 1.363 . S
C2408 C2414 1.428 . S
H2409 C2405 0.930 . S
H2410 C2407 0.929 . S
S2411 N2412 1.613 . S
S2411 N2413 1.610 . S
N2412 S2411 1.613 . S
N2412 C2415 1.350 . S
N2413 S2411 1.610 . S
N2413 C2414 1.351 . S
C2414 C2408 1.428 . S
C2414 N2413 1.351 . S
C2414 C2415 1.434 . S
C2415 C2406 1.429 . S
C2415 N2412 1.350 . S
C2415 C2414 1.434 . S
C2416 C2417 1.369 . S
C2416 C2418 1.419 . S
C2416 H2420 0.930 . S
C2417 C2416 1.369 . S
C2417 C2426 1.429 . S
C2418 C2416 1.419 . S
C2418 C2419 1.363 . S
C2418 H2421 0.929 . S
C2419 C2418 1.363 . S
C2419 C2425 1.428 . S
H2420 C2416 0.930 . S
H2421 C2418 0.929 . S
S2422 N2423 1.613 . S
S2422 N2424 1.610 . S
N2423 S2422 1.613 . S
N2423 C2426 1.350 . S
N2424 S2422 1.610 . S
N2424 C2425 1.351 . S
C2425 C2419 1.428 . S
C2425 N2424 1.351 . S
C2425 C2426 1.434 . S
C2426 C2417 1.429 . S
C2426 N2423 1.350 . S
C2426 C2425 1.434 . S
C2427 C2428 1.369 . S
C2427 C2429 1.419 . S
C2427 H2431 0.930 . S
C2428 C2427 1.369 . S
C2428 C2437 1.429 . S
C2429 C2427 1.419 . S
C2429 C2430 1.363 . S
C2429 H2432 0.929 . S
C2430 C2429 1.363 . S
C2430 C2436 1.428 . S
H2431 C2427 0.930 . S
H2432 C2429 0.929 . S
S2433 N2434 1.613 . S
S2433 N2435 1.610 . S
N2434 S2433 1.613 . S
N2434 C2437 1.350 . S
N2435 S2433 1.610 . S
N2435 C2436 1.351 . S
C2436 C2430 1.428 . S
C2436 N2435 1.351 . S
C2436 C2437 1.434 . S
C2437 C2428 1.429 . S
C2437 N2434 1.350 . S
C2437 C2436 1.434 . S
C2438 C2439 1.369 . S
C2438 C2440 1.419 . S
C2438 H2442 0.930 . S
C2439 C2438 1.369 . S
C2439 C2448 1.429 . S
C2440 C2438 1.419 . S
C2440 C2441 1.363 . S
C2440 H2443 0.929 . S
C2441 C2440 1.363 . S
C2441 C2447 1.428 . S
H2442 C2438 0.930 . S
H2443 C2440 0.929 . S
S2444 N2445 1.613 . S
S2444 N2446 1.610 . S
N2445 S2444 1.613 . S
N2445 C2448 1.350 . S
N2446 S2444 1.610 . S
N2446 C2447 1.351 . S
C2447 C2441 1.428 . S
C2447 N2446 1.351 . S
C2447 C2448 1.434 . S
C2448 C2439 1.429 . S
C2448 N2445 1.350 . S
C2448 C2447 1.434 . S
C2449 C2450 1.369 . S
C2449 C2451 1.419 1_655 S
C2449 H2453 0.930 . S
C2450 C2449 1.369 . S
C2450 C2459 1.429 . S
C2451 C2449 1.419 1_455 S
C2451 C2452 1.363 . S
C2451 H2454 0.929 . S
C2452 C2451 1.363 . S
C2452 C2458 1.428 . S
H2453 C2449 0.930 . S
H2454 C2451 0.929 . S
S2455 N2456 1.622 . S
S2455 N2457 1.602 1_655 S
N2456 S2455 1.622 . S
N2456 C2459 1.350 . S
N2457 S2455 1.602 1_455 S
N2457 C2458 1.351 . S
C2458 C2452 1.428 . S
C2458 N2457 1.351 . S
C2458 C2459 1.434 1_455 S
C2459 C2450 1.429 . S
C2459 N2456 1.350 . S
C2459 C2458 1.434 1_655 S
C2460 C2461 1.369 1_554 S
C2460 C2462 1.419 . S
C2460 H2464 0.930 . S
C2461 C2460 1.369 1_556 S
C2461 C2470 1.429 . S
C2462 C2460 1.419 . S
C2462 C2463 1.363 1_554 S
C2462 H2465 0.929 . S
C2463 C2462 1.363 1_556 S
C2463 C2469 1.428 . S
H2464 C2460 0.930 . S
H2465 C2462 0.929 . S
S2466 N2467 1.613 . S
S2466 N2468 1.610 . S
N2467 S2466 1.613 . S
N2467 C2470 1.350 . S
N2468 S2466 1.610 . S
N2468 C2469 1.351 . S
C2469 C2463 1.428 . S
C2469 N2468 1.351 . S
C2469 C2470 1.434 . S
C2470 C2461 1.429 . S
C2470 N2467 1.350 . S
C2470 C2469 1.434 . S
C2471 C2472 1.369 . S
C2471 C2473 1.419 1_655 S
C2471 H2475 0.930 . S
C2472 C2471 1.369 . S
C2472 C2481 1.429 . S
C2473 C2471 1.419 1_455 S
C2473 C2474 1.363 . S
C2473 H2476 0.929 . S
C2474 C2473 1.363 . S
C2474 C2480 1.428 . S
H2475 C2471 0.930 . S
H2476 C2473 0.929 . S
S2477 N2478 1.622 . S
S2477 N2479 1.602 1_655 S
N2478 S2477 1.622 . S
N2478 C2481 1.350 . S
N2479 S2477 1.602 1_455 S
N2479 C2480 1.351 . S
C2480 C2474 1.428 . S
C2480 N2479 1.351 . S
C2480 C2481 1.434 1_455 S
C2481 C2472 1.429 . S
C2481 N2478 1.350 . S
C2481 C2480 1.434 1_655 S
C2482 C2483 1.369 . S
C2482 C2484 1.419 . S
C2482 H2486 0.930 . S
C2483 C2482 1.369 . S
C2483 C2492 1.429 . S
C2484 C2482 1.419 . S
C2484 C2485 1.363 . S
C2484 H2487 0.929 . S
C2485 C2484 1.363 . S
C2485 C2491 1.428 . S
H2486 C2482 0.930 . S
H2487 C2484 0.929 . S
S2488 N2489 1.613 . S
S2488 N2490 1.610 . S
N2489 S2488 1.613 . S
N2489 C2492 1.350 . S
N2490 S2488 1.610 . S
N2490 C2491 1.351 . S
C2491 C2485 1.428 . S
C2491 N2490 1.351 . S
C2491 C2492 1.434 . S
C2492 C2483 1.429 . S
C2492 N2489 1.350 . S
C2492 C2491 1.434 . S
C2493 C2494 1.369 . S
C2493 C2495 1.419 . S
C2493 H2497 0.930 . S
C2494 C2493 1.369 . S
C2494 C2503 1.429 . S
C2495 C2493 1.419 . S
C2495 C2496 1.363 . S
C2495 H2498 0.929 . S
C2496 C2495 1.363 . S
C2496 C2502 1.428 . S
H2497 C2493 0.930 . S
H2498 C2495 0.929 . S
S2499 N2500 1.613 . S
S2499 N2501 1.610 . S
N2500 S2499 1.613 . S
N2500 C2503 1.350 . S
N2501 S2499 1.610 . S
N2501 C2502 1.351 . S
C2502 C2496 1.428 . S
C2502 N2501 1.351 . S
C2502 C2503 1.434 . S
C2503 C2494 1.429 . S
C2503 N2500 1.350 . S
C2503 C2502 1.434 . S
C2504 C2505 1.369 . S
C2504 C2506 1.419 . S
C2504 H2508 0.930 . S
C2505 C2504 1.369 . S
C2505 C2514 1.429 . S
C2506 C2504 1.419 . S
C2506 C2507 1.363 . S
C2506 H2509 0.929 . S
C2507 C2506 1.363 . S
C2507 C2513 1.428 . S
H2508 C2504 0.930 . S
H2509 C2506 0.929 . S
S2510 N2511 1.607 1_554 S
S2510 N2512 1.602 1_554 S
N2511 S2510 1.607 1_556 S
N2511 C2514 1.360 . S
N2512 S2510 1.602 1_556 S
N2512 C2513 1.364 . S
C2513 C2507 1.428 . S
C2513 N2512 1.364 . S
C2513 C2514 1.434 . S
C2514 C2505 1.429 . S
C2514 N2511 1.360 . S
C2514 C2513 1.434 . S
C2515 C2516 1.369 . S
C2515 C2517 1.419 . S
C2515 H2519 0.930 . S
C2516 C2515 1.369 . S
C2516 C2525 1.429 . S
C2517 C2515 1.419 . S
C2517 C2518 1.363 . S
C2517 H2520 0.929 . S
C2518 C2517 1.363 . S
C2518 C2524 1.428 . S
H2519 C2515 0.930 . S
H2520 C2517 0.929 . S
S2521 N2522 1.613 . S
S2521 N2523 1.610 . S
N2522 S2521 1.613 . S
N2522 C2525 1.350 . S
N2523 S2521 1.610 . S
N2523 C2524 1.351 . S
C2524 C2518 1.428 . S
C2524 N2523 1.351 . S
C2524 C2525 1.434 . S
C2525 C2516 1.429 . S
C2525 N2522 1.350 . S
C2525 C2524 1.434 . S
C2526 C2527 1.369 . S
C2526 C2528 1.419 . S
C2526 H2530 0.930 . S
C2527 C2526 1.369 . S
C2527 C2536 1.429 1_554 S
C2528 C2526 1.419 . S
C2528 C2529 1.363 . S
C2528 H2531 0.929 . S
C2529 C2528 1.363 . S
C2529 C2535 1.428 1_554 S
H2530 C2526 0.930 . S
H2531 C2528 0.929 . S
S2532 N2533 1.613 . S
S2532 N2534 1.610 . S
N2533 S2532 1.613 . S
N2533 C2536 1.350 . S
N2534 S2532 1.610 . S
N2534 C2535 1.351 . S
C2535 C2529 1.428 1_556 S
C2535 N2534 1.351 . S
C2535 C2536 1.434 . S
C2536 C2527 1.429 1_556 S
C2536 N2533 1.350 . S
C2536 C2535 1.434 . S
C2537 C2538 1.369 . S
C2537 C2539 1.419 . S
C2537 H2541 0.930 . S
C2538 C2537 1.369 . S
C2538 C2547 1.429 . S
C2539 C2537 1.419 . S
C2539 C2540 1.363 . S
C2539 H2542 0.929 . S
C2540 C2539 1.363 . S
C2540 C2546 1.428 . S
H2541 C2537 0.930 . S
H2542 C2539 0.929 . S
S2543 N2544 1.613 . S
S2543 N2545 1.610 . S
N2544 S2543 1.613 . S
N2544 C2547 1.350 . S
N2545 S2543 1.610 . S
N2545 C2546 1.351 . S
C2546 C2540 1.428 . S
C2546 N2545 1.351 . S
C2546 C2547 1.434 . S
C2547 C2538 1.429 . S
C2547 N2544 1.350 . S
C2547 C2546 1.434 . S
C2548 C2549 1.369 . S
C2548 C2550 1.419 1_655 S
C2548 H2552 0.930 . S
C2549 C2548 1.369 . S
C2549 C2558 1.429 . S
C2550 C2548 1.419 1_455 S
C2550 C2551 1.363 . S
C2550 H2553 0.929 . S
C2551 C2550 1.363 . S
C2551 C2557 1.428 . S
H2552 C2548 0.930 . S
H2553 C2550 0.929 . S
S2554 N2555 1.605 1_455 S
S2554 N2556 1.619 . S
N2555 S2554 1.605 1_655 S
N2555 C2558 1.350 . S
N2556 S2554 1.619 . S
N2556 C2557 1.351 . S
C2557 C2551 1.428 . S
C2557 N2556 1.351 . S
C2557 C2558 1.434 1_455 S
C2558 C2549 1.429 . S
C2558 N2555 1.350 . S
C2558 C2557 1.434 1_655 S
C2559 C2560 1.369 . S
C2559 C2561 1.419 . S
C2559 H2563 0.930 . S
C2560 C2559 1.369 . S
C2560 C2569 1.429 . S
C2561 C2559 1.419 . S
C2561 C2562 1.363 . S
C2561 H2564 0.929 . S
C2562 C2561 1.363 . S
C2562 C2568 1.428 . S
H2563 C2559 0.930 . S
H2564 C2561 0.929 . S
S2565 N2566 1.613 . S
S2565 N2567 1.610 . S
N2566 S2565 1.613 . S
N2566 C2569 1.350 . S
N2567 S2565 1.610 . S
N2567 C2568 1.351 . S
C2568 C2562 1.428 . S
C2568 N2567 1.351 . S
C2568 C2569 1.434 . S
C2569 C2560 1.429 . S
C2569 N2566 1.350 . S
C2569 C2568 1.434 . S
C2570 C2571 1.369 . S
C2570 C2572 1.419 . S
C2570 H2574 0.930 . S
C2571 C2570 1.369 . S
C2571 C2580 1.429 . S
C2572 C2570 1.419 . S
C2572 C2573 1.363 . S
C2572 H2575 0.929 . S
C2573 C2572 1.363 . S
C2573 C2579 1.428 . S
H2574 C2570 0.930 . S
H2575 C2572 0.929 . S
S2576 N2577 1.613 . S
S2576 N2578 1.610 . S
N2577 S2576 1.613 . S
N2577 C2580 1.350 . S
N2578 S2576 1.610 . S
N2578 C2579 1.351 . S
C2579 C2573 1.428 . S
C2579 N2578 1.351 . S
C2579 C2580 1.434 . S
C2580 C2571 1.429 . S
C2580 N2577 1.350 . S
C2580 C2579 1.434 . S
C2581 C2582 1.369 . S
C2581 C2583 1.419 1_655 S
C2581 H2585 0.930 . S
C2582 C2581 1.369 . S
C2582 C2591 1.429 . S
C2583 C2581 1.419 1_455 S
C2583 C2584 1.363 . S
C2583 H2586 0.929 . S
C2584 C2583 1.363 . S
C2584 C2590 1.428 . S
H2585 C2581 0.930 . S
H2586 C2583 0.929 . S
S2587 N2588 1.604 1_455 S
S2587 N2589 1.620 . S
N2588 S2587 1.604 1_655 S
N2588 C2591 1.350 . S
N2589 S2587 1.620 . S
N2589 C2590 1.351 . S
C2590 C2584 1.428 . S
C2590 N2589 1.351 . S
C2590 C2591 1.434 1_455 S
C2591 C2582 1.429 . S
C2591 N2588 1.350 . S
C2591 C2590 1.434 1_655 S
C1889 C1362 1.941 . S
C1891 C3 1.942 . S
C1900 C1183 1.943 . S
C1902 C64 1.940 . S
C1911 C1244 1.940 . S
C1913 C121 1.943 . S
C1922 C1301 1.939 . S
C1924 C182 1.936 . S
C1933 C239 1.944 . S
C1935 C1008 1.939 . S
C1944 C1065 1.945 . S
C1946 C300 1.939 . S
C1955 C357 1.940 . S
C1957 C1126 1.941 . S
C1966 C418 1.942 . S
C1968 C947 1.939 . S
C1977 C1832 1.950 . S
C1979 C475 1.948 . S
C1988 C534 1.949 . S
C1990 C1655 1.945 . S
C1999 C593 1.947 . S
C2001 C1714 1.943 . S
C2010 C652 1.950 . S
C2012 C1773 1.947 . S
C2021 C711 1.946 . S
C2023 C1478 1.943 . S
C2032 C770 1.944 . S
C2034 C1537 1.949 . S
C2043 C829 1.948 . S
C2045 C1596 1.943 . S
C2054 C888 1.942 . S
C2056 C1419 1.947 . S
C2065 C33 1.474 . S
C2067 C741 1.476 . S
C2076 C1744 1.471 . S
C2078 C111 1.459 . S
C2087 C151 1.466 . S
C2089 C859 1.467 . S
C2098 C1862 1.464 . S
C2100 C229 1.454 . S
C2109 C505 1.475 . S
C2111 C269 1.474 . S
C2120 C347 1.460 . S
C2122 C1508 1.470 . S
C2131 C387 1.469 . S
C2133 C623 1.469 . S
C2142 C465 1.460 . S
C2144 C1626 1.470 . S
C2153 C1291 1.460 . S
C2155 C564 1.470 . S
C2164 C1409 1.456 . S
C2166 C682 1.467 . S
C2175 C800 1.464 . S
C2177 C1055 1.454 . S
C2186 C1173 1.452 . S
C2188 C918 1.465 . S
C2197 C1685 1.470 . S
C2199 C977 1.469 . S
C2208 C1095 1.474 . S
C2210 C1803 1.476 . S
C2219 C1449 1.466 . S
C2221 C1213 1.466 . S
C2230 C1567 1.476 . S
C2232 C1331 1.474 . S
C2241 C241 1.426 1_554 S
C2243 C5 1.424 . S
C2252 C298 1.417 . S
C2254 C62 1.417 . S
C2263 C123 1.418 . S
C2265 C359 1.423 . S
C2274 C180 1.423 . S
C2276 C416 1.419 . S
C2285 C713 1.418 . S
C2287 C477 1.419 . S
C2296 C772 1.418 . S
C2298 C536 1.414 . S
C2307 C831 1.421 . S
C2309 C595 1.416 . S
C2318 C654 1.420 . S
C2320 C890 1.414 . S
C2329 C949 1.418 . S
C2331 C1185 1.423 . S
C2340 C1006 1.423 . S
C2342 C1242 1.420 . S
C2351 C1067 1.421 . S
C2353 C1303 1.421 . S
C2362 C1124 1.422 . S
C2364 C1360 1.423 . S
C2373 C1657 1.422 . S
C2375 C1421 1.418 . S
C2384 C1716 1.420 . S
C2386 C1480 1.419 . S
C2395 C1775 1.422 . S
C2397 C1539 1.422 . S
C2406 C1834 1.416 . S
C2408 C1598 1.420 . S
C2417 C1822 1.666 . S
C2419 C52 1.666 . S
C2428 C92 1.660 . S
C2430 C937 1.665 . S
C2439 C1704 1.670 . S
C2441 C170 1.669 . S
C2450 C210 1.663 . S
C2452 C819 1.666 . S
C2461 C1586 1.666 . S
C2463 C288 1.666 . S
C2472 C328 1.663 . S
C2474 C701 1.666 . S
C2483 C406 1.667 . S
C2485 C1468 1.668 . S
C2494 C583 1.665 . S
C2496 C446 1.662 . S
C2505 C524 1.669 . S
C2507 C1350 1.669 . S
C2516 C1232 1.665 . S
C2518 C642 1.667 . S
C2527 C760 1.670 . S
C2529 C1114 1.669 . S
C2538 C878 1.667 . S
C2540 C996 1.667 . S
C2549 C1881 1.666 . S
C2551 C1036 1.662 . S
C2560 C1154 1.664 . S
C2562 C1763 1.668 . S
C2571 C1272 1.665 . S
C2573 C1645 1.668 . S
C2582 C1527 1.666 . S
C2584 C1390 1.663 . S
