# Generated by pormake.
# Topology zni, (4)-cn, num edge types: 1
# Building blocks:
#     Node 0, Type 0, BuildingBlock: QUQFOY_clean_sbu_1, # of connection points: 4
#     Node 1, Type 0, BuildingBlock: QUQFOY_clean_sbu_1, # of connection points: 4
#     Node 2, Type 0, BuildingBlock: QUQFOY_clean_sbu_1, # of connection points: 4
#     Node 3, Type 0, BuildingBlock: QUQFOY_clean_sbu_1, # of connection points: 4
#     Node 4, Type 0, BuildingBlock: QUQFOY_clean_sbu_1, # of connection points: 4
#     Node 5, Type 0, BuildingBlock: QUQFOY_clean_sbu_1, # of connection points: 4
#     Node 6, Type 0, BuildingBlock: QUQFOY_clean_sbu_1, # of connection points: 4
#     Node 7, Type 0, BuildingBlock: QUQFOY_clean_sbu_1, # of connection points: 4
#     Node 8, Type 0, BuildingBlock: QUQFOY_clean_sbu_1, # of connection points: 4
#     Node 9, Type 0, BuildingBlock: QUQFOY_clean_sbu_1, # of connection points: 4
#     Node 10, Type 0, BuildingBlock: QUQFOY_clean_sbu_1, # of connection points: 4
#     Node 11, Type 0, BuildingBlock: QUQFOY_clean_sbu_1, # of connection points: 4
#     Node 12, Type 0, BuildingBlock: QUQFOY_clean_sbu_1, # of connection points: 4
#     Node 13, Type 0, BuildingBlock: QUQFOY_clean_sbu_1, # of connection points: 4
#     Node 14, Type 0, BuildingBlock: QUQFOY_clean_sbu_1, # of connection points: 4
#     Node 15, Type 0, BuildingBlock: QUQFOY_clean_sbu_1, # of connection points: 4
#     Node 16, Type 0, BuildingBlock: QUQFOY_clean_sbu_1, # of connection points: 4
#     Node 17, Type 0, BuildingBlock: QUQFOY_clean_sbu_1, # of connection points: 4
#     Node 18, Type 0, BuildingBlock: QUQFOY_clean_sbu_1, # of connection points: 4
#     Node 19, Type 0, BuildingBlock: QUQFOY_clean_sbu_1, # of connection points: 4
#     Node 20, Type 0, BuildingBlock: QUQFOY_clean_sbu_1, # of connection points: 4
#     Node 21, Type 0, BuildingBlock: QUQFOY_clean_sbu_1, # of connection points: 4
#     Node 22, Type 0, BuildingBlock: QUQFOY_clean_sbu_1, # of connection points: 4
#     Node 23, Type 0, BuildingBlock: QUQFOY_clean_sbu_1, # of connection points: 4
#     Node 24, Type 0, BuildingBlock: QUQFOY_clean_sbu_1, # of connection points: 4
#     Node 25, Type 0, BuildingBlock: QUQFOY_clean_sbu_1, # of connection points: 4
#     Node 26, Type 0, BuildingBlock: QUQFOY_clean_sbu_1, # of connection points: 4
#     Node 27, Type 0, BuildingBlock: QUQFOY_clean_sbu_1, # of connection points: 4
#     Node 28, Type 0, BuildingBlock: QUQFOY_clean_sbu_1, # of connection points: 4
#     Node 29, Type 0, BuildingBlock: QUQFOY_clean_sbu_1, # of connection points: 4
#     Node 30, Type 0, BuildingBlock: QUQFOY_clean_sbu_1, # of connection points: 4
#     Node 31, Type 0, BuildingBlock: QUQFOY_clean_sbu_1, # of connection points: 4
#     Edge 32, Type (0, 0), BuildingBlock: OJICUG_clean_linker_0, # of connection points: 2
#     Edge 33, Type (0, 0), BuildingBlock: OJICUG_clean_linker_0, # of connection points: 2
#     Edge 34, Type (0, 0), BuildingBlock: OJICUG_clean_linker_0, # of connection points: 2
#     Edge 35, Type (0, 0), BuildingBlock: OJICUG_clean_linker_0, # of connection points: 2
#     Edge 36, Type (0, 0), BuildingBlock: OJICUG_clean_linker_0, # of connection points: 2
#     Edge 37, Type (0, 0), BuildingBlock: OJICUG_clean_linker_0, # of connection points: 2
#     Edge 38, Type (0, 0), BuildingBlock: OJICUG_clean_linker_0, # of connection points: 2
#     Edge 39, Type (0, 0), BuildingBlock: OJICUG_clean_linker_0, # of connection points: 2
#     Edge 40, Type (0, 0), BuildingBlock: OJICUG_clean_linker_0, # of connection points: 2
#     Edge 41, Type (0, 0), BuildingBlock: OJICUG_clean_linker_0, # of connection points: 2
#     Edge 42, Type (0, 0), BuildingBlock: OJICUG_clean_linker_0, # of connection points: 2
#     Edge 43, Type (0, 0), BuildingBlock: OJICUG_clean_linker_0, # of connection points: 2
#     Edge 44, Type (0, 0), BuildingBlock: OJICUG_clean_linker_0, # of connection points: 2
#     Edge 45, Type (0, 0), BuildingBlock: OJICUG_clean_linker_0, # of connection points: 2
#     Edge 46, Type (0, 0), BuildingBlock: OJICUG_clean_linker_0, # of connection points: 2
#     Edge 47, Type (0, 0), BuildingBlock: OJICUG_clean_linker_0, # of connection points: 2
#     Edge 48, Type (0, 0), BuildingBlock: OJICUG_clean_linker_0, # of connection points: 2
#     Edge 49, Type (0, 0), BuildingBlock: OJICUG_clean_linker_0, # of connection points: 2
#     Edge 50, Type (0, 0), BuildingBlock: OJICUG_clean_linker_0, # of connection points: 2
#     Edge 51, Type (0, 0), BuildingBlock: OJICUG_clean_linker_0, # of connection points: 2
#     Edge 52, Type (0, 0), BuildingBlock: OJICUG_clean_linker_0, # of connection points: 2
#     Edge 53, Type (0, 0), BuildingBlock: OJICUG_clean_linker_0, # of connection points: 2
#     Edge 54, Type (0, 0), BuildingBlock: OJICUG_clean_linker_0, # of connection points: 2
#     Edge 55, Type (0, 0), BuildingBlock: OJICUG_clean_linker_0, # of connection points: 2
#     Edge 56, Type (0, 0), BuildingBlock: OJICUG_clean_linker_0, # of connection points: 2
#     Edge 57, Type (0, 0), BuildingBlock: OJICUG_clean_linker_0, # of connection points: 2
#     Edge 58, Type (0, 0), BuildingBlock: OJICUG_clean_linker_0, # of connection points: 2
#     Edge 59, Type (0, 0), BuildingBlock: OJICUG_clean_linker_0, # of connection points: 2
#     Edge 60, Type (0, 0), BuildingBlock: OJICUG_clean_linker_0, # of connection points: 2
#     Edge 61, Type (0, 0), BuildingBlock: OJICUG_clean_linker_0, # of connection points: 2
#     Edge 62, Type (0, 0), BuildingBlock: OJICUG_clean_linker_0, # of connection points: 2
#     Edge 63, Type (0, 0), BuildingBlock: OJICUG_clean_linker_0, # of connection points: 2
#     Edge 64, Type (0, 0), BuildingBlock: OJICUG_clean_linker_0, # of connection points: 2
#     Edge 65, Type (0, 0), BuildingBlock: OJICUG_clean_linker_0, # of connection points: 2
#     Edge 66, Type (0, 0), BuildingBlock: OJICUG_clean_linker_0, # of connection points: 2
#     Edge 67, Type (0, 0), BuildingBlock: OJICUG_clean_linker_0, # of connection points: 2
#     Edge 68, Type (0, 0), BuildingBlock: OJICUG_clean_linker_0, # of connection points: 2
#     Edge 69, Type (0, 0), BuildingBlock: OJICUG_clean_linker_0, # of connection points: 2
#     Edge 70, Type (0, 0), BuildingBlock: OJICUG_clean_linker_0, # of connection points: 2
#     Edge 71, Type (0, 0), BuildingBlock: OJICUG_clean_linker_0, # of connection points: 2
#     Edge 72, Type (0, 0), BuildingBlock: OJICUG_clean_linker_0, # of connection points: 2
#     Edge 73, Type (0, 0), BuildingBlock: OJICUG_clean_linker_0, # of connection points: 2
#     Edge 74, Type (0, 0), BuildingBlock: OJICUG_clean_linker_0, # of connection points: 2
#     Edge 75, Type (0, 0), BuildingBlock: OJICUG_clean_linker_0, # of connection points: 2
#     Edge 76, Type (0, 0), BuildingBlock: OJICUG_clean_linker_0, # of connection points: 2
#     Edge 77, Type (0, 0), BuildingBlock: OJICUG_clean_linker_0, # of connection points: 2
#     Edge 78, Type (0, 0), BuildingBlock: OJICUG_clean_linker_0, # of connection points: 2
#     Edge 79, Type (0, 0), BuildingBlock: OJICUG_clean_linker_0, # of connection points: 2
#     Edge 80, Type (0, 0), BuildingBlock: OJICUG_clean_linker_0, # of connection points: 2
#     Edge 81, Type (0, 0), BuildingBlock: OJICUG_clean_linker_0, # of connection points: 2
#     Edge 82, Type (0, 0), BuildingBlock: OJICUG_clean_linker_0, # of connection points: 2
#     Edge 83, Type (0, 0), BuildingBlock: OJICUG_clean_linker_0, # of connection points: 2
#     Edge 84, Type (0, 0), BuildingBlock: OJICUG_clean_linker_0, # of connection points: 2
#     Edge 85, Type (0, 0), BuildingBlock: OJICUG_clean_linker_0, # of connection points: 2
#     Edge 86, Type (0, 0), BuildingBlock: OJICUG_clean_linker_0, # of connection points: 2
#     Edge 87, Type (0, 0), BuildingBlock: OJICUG_clean_linker_0, # of connection points: 2
#     Edge 88, Type (0, 0), BuildingBlock: OJICUG_clean_linker_0, # of connection points: 2
#     Edge 89, Type (0, 0), BuildingBlock: OJICUG_clean_linker_0, # of connection points: 2
#     Edge 90, Type (0, 0), BuildingBlock: OJICUG_clean_linker_0, # of connection points: 2
#     Edge 91, Type (0, 0), BuildingBlock: OJICUG_clean_linker_0, # of connection points: 2
#     Edge 92, Type (0, 0), BuildingBlock: OJICUG_clean_linker_0, # of connection points: 2
#     Edge 93, Type (0, 0), BuildingBlock: OJICUG_clean_linker_0, # of connection points: 2
#     Edge 94, Type (0, 0), BuildingBlock: OJICUG_clean_linker_0, # of connection points: 2
#     Edge 95, Type (0, 0), BuildingBlock: OJICUG_clean_linker_0, # of connection points: 2
# Relax obj value: 0.190
# Max RMSD: 0.170
# Mean RMSD: 0.170
data_MOF--net-zni--node1-QUQFOY_clean_sbu_1--edge1-OJICUG_clean_linker_0
_symmetry_space_group_name_H-M    P1
_symmetry_Int_Tables_number       1
_symmetry_cell_setting            triclinic
loop_
_symmetry_equiv_pos_as_xyz
'x, y, z'
_cell_length_a     44.093194
_cell_length_b     44.098761
_cell_length_c     25.992588
_cell_angle_alpha  89.981484
_cell_angle_beta   90.032769
_cell_angle_gamma 89.954615
loop_
_atom_site_label
_atom_site_type_symbol
_atom_site_fract_x
_atom_site_fract_y
_atom_site_fract_z
_atom_type_partial_charge
O0 O 0.05234 0.09936 0.37509 0.0
Cd1 Cd 0.09899 0.09853 0.36765 0.0
Cd2 Cd 0.09547 0.10455 0.46797 0.0
O3 O 0.05044 0.09302 0.45906 0.0
O4 O 0.10776 0.07782 0.30108 0.0
O5 O 0.11912 0.05806 0.37706 0.0
C6 C 0.11799 0.05524 0.32756 0.0
C7 C 0.12434 0.08832 0.53761 0.0
C8 C 0.03704 0.09516 0.41596 0.0
C9 C 0.11849 0.15788 0.40793 0.0
O10 O 0.1064 0.14848 0.44928 0.0
O11 O 0.12097 0.14012 0.36958 0.0
O12 O 0.10049 0.10474 0.54353 0.0
O13 O 0.13101 0.07904 0.49193 0.0
O14 O 0.14312 0.80903 0.57575 0.0
Cd15 Cd 0.14422 0.85509 0.56296 0.0
Cd16 Cd 0.13718 0.85566 0.67512 0.0
O17 O 0.14822 0.81093 0.66016 0.0
O18 O 0.16681 0.8619 0.49762 0.0
O19 O 0.18428 0.8755 0.57423 0.0
C20 C 0.18854 0.87295 0.52516 0.0
C21 C 0.13662 0.86498 0.76429 0.0
C22 C 0.14696 0.79577 0.61869 0.0
C23 C 0.08733 0.88134 0.60155 0.0
O24 O 0.09788 0.87388 0.6452 0.0
O25 O 0.10288 0.87719 0.56101 0.0
O26 O 0.11855 0.84634 0.74228 0.0
O27 O 0.15631 0.87853 0.73579 0.0
O28 O 0.45011 0.89951 0.84392 0.0
Cd29 Cd 0.40334 0.90152 0.84076 0.0
Cd30 Cd 0.40973 0.8981 0.94307 0.0
O31 O 0.45449 0.90811 0.92703 0.0
O32 O 0.39259 0.92135 0.77424 0.0
O33 O 0.38415 0.94244 0.85024 0.0
C34 C 0.3835 0.94444 0.80059 0.0
C35 C 0.3887 0.91385 0.02095 0.0
C36 C 0.46663 0.90438 0.88318 0.0
C37 C 0.38321 0.84414 0.88719 0.0
O38 O 0.39605 0.85457 0.92715 0.0
O39 O 0.38072 0.86056 0.84717 0.0
O40 O 0.41184 0.89619 0.01901 0.0
O41 O 0.37799 0.92435 0.97835 0.0
O42 O 0.35186 0.19618 0.10872 0.0
Cd43 Cd 0.35215 0.15005 0.09546 0.0
Cd44 Cd 0.35686 0.14966 0.2004 0.0
O45 O 0.34616 0.19506 0.19294 0.0
O46 O 0.33396 0.14463 0.02576 0.0
O47 O 0.31172 0.12901 0.09736 0.0
C48 C 0.31065 0.1328 0.04804 0.0
C49 C 0.34224 0.12434 0.27522 0.0
C50 C 0.34774 0.20992 0.15116 0.0
C51 C 0.41073 0.12827 0.13683 0.0
O52 O 0.40014 0.13712 0.17969 0.0
O53 O 0.39422 0.12896 0.09668 0.0
O54 O 0.36075 0.14679 0.27606 0.0
O55 O 0.33044 0.11663 0.23176 0.0
O56 O 0.05634 0.8962 0.16654 0.0
Cd57 Cd 0.1021 0.8967 0.18267 0.0
Cd58 Cd 0.10434 0.88893 0.06882 0.0
O59 O 0.0593 0.89958 0.08188 0.0
O60 O 0.10699 0.91769 0.25012 0.0
O61 O 0.12322 0.93687 0.17632 0.0
C62 C 0.11921 0.93992 0.22535 0.0
C63 C 0.11503 0.8865 0.98016 0.0
C64 C 0.04364 0.89922 0.12289 0.0
C65 C 0.12929 0.83982 0.14498 0.0
O66 O 0.12279 0.85041 0.10094 0.0
O67 O 0.12391 0.85516 0.18534 0.0
O68 O 0.09637 0.86863 0.00255 0.0
O69 O 0.12748 0.90732 0.00778 0.0
O70 O 0.35152 0.80717 0.38135 0.0
Cd71 Cd 0.35098 0.85337 0.39498 0.0
Cd72 Cd 0.36142 0.85377 0.29121 0.0
O73 O 0.35101 0.80816 0.2965 0.0
O74 O 0.32789 0.8594 0.46008 0.0
O75 O 0.31127 0.8748 0.38398 0.0
C76 C 0.30663 0.87153 0.43281 0.0
C77 C 0.3531 0.87968 0.21429 0.0
C78 C 0.35009 0.79335 0.33843 0.0
C79 C 0.41093 0.87612 0.36414 0.0
O80 O 0.40269 0.86708 0.31998 0.0
O81 O 0.39256 0.87495 0.40175 0.0
O82 O 0.37184 0.85747 0.21757 0.0
O83 O 0.33696 0.88631 0.25408 0.0
O84 O 0.44313 0.10063 0.63815 0.0
Cd85 Cd 0.3969 0.10071 0.64988 0.0
Cd86 Cd 0.39737 0.10571 0.54551 0.0
O87 O 0.44259 0.09451 0.55403 0.0
O88 O 0.39061 0.0813 0.71833 0.0
O89 O 0.37591 0.06041 0.64498 0.0
C90 C 0.37915 0.05839 0.69434 0.0
C91 C 0.37277 0.09177 0.46959 0.0
C92 C 0.45717 0.09627 0.59608 0.0
C93 C 0.3758 0.15948 0.60918 0.0
O94 O 0.38508 0.14903 0.56648 0.0
O95 O 0.37587 0.14277 0.64908 0.0
O96 O 0.39543 0.11001 0.46982 0.0
O97 O 0.36438 0.07987 0.5126 0.0
O98 O 0.15799 0.20268 0.87904 0.0
Cd99 Cd 0.15804 0.15604 0.8879 0.0
Cd100 Cd 0.15288 0.15913 0.78624 0.0
O101 O 0.16465 0.20406 0.79509 0.0
O102 O 0.17644 0.14794 0.95672 0.0
O103 O 0.19845 0.13503 0.88338 0.0
C104 C 0.19959 0.13675 0.93302 0.0
C105 C 0.16866 0.13066 0.71583 0.0
C106 C 0.16248 0.21771 0.83794 0.0
C107 C 0.09892 0.1367 0.84549 0.0
O108 O 0.10878 0.14844 0.80417 0.0
O109 O 0.11624 0.13448 0.88448 0.0
O110 O 0.1525 0.15472 0.71057 0.0
O111 O 0.17799 0.12351 0.76131 0.0
O112 O 0.94516 0.90047 0.6472 0.0
Cd113 Cd 0.89957 0.9028 0.66471 0.0
Cd114 Cd 0.89664 0.88774 0.55332 0.0
O115 O 0.94247 0.89681 0.56249 0.0
O116 O 0.8966 0.92715 0.72904 0.0
O117 O 0.87924 0.94305 0.65373 0.0
C118 C 0.88431 0.94837 0.70191 0.0
C119 C 0.88107 0.88195 0.4675 0.0
C120 C 0.95803 0.8996 0.60342 0.0
C121 C 0.86996 0.84511 0.63833 0.0
O122 O 0.8769 0.85249 0.59268 0.0
O123 O 0.87626 0.8626 0.67562 0.0
O124 O 0.89994 0.86394 0.48926 0.0
O125 O 0.872 0.90519 0.49336 0.0
O126 O 0.85486 0.1996 0.40181 0.0
Cd127 Cd 0.85321 0.154 0.41963 0.0
Cd128 Cd 0.86861 0.15052 0.30845 0.0
O129 O 0.85922 0.19632 0.31725 0.0
O130 O 0.82791 0.15007 0.48268 0.0
O131 O 0.81378 0.13276 0.40631 0.0
C132 C 0.80757 0.13727 0.45433 0.0
C133 C 0.87526 0.13534 0.22267 0.0
C134 C 0.8559 0.21215 0.35775 0.0
C135 C 0.91086 0.12402 0.39438 0.0
O136 O 0.90347 0.13047 0.34851 0.0
O137 O 0.89353 0.13106 0.43149 0.0
O138 O 0.89302 0.15413 0.24513 0.0
O139 O 0.85184 0.12609 0.24783 0.0
O140 O 0.5553 0.10937 0.17118 0.0
Cd141 Cd 0.60163 0.106 0.18116 0.0
Cd142 Cd 0.59899 0.11944 0.06833 0.0
O143 O 0.55396 0.111 0.08621 0.0
O144 O 0.60805 0.0827 0.24598 0.0
O145 O 0.62062 0.0652 0.16903 0.0
C146 C 0.61851 0.06085 0.21811 0.0
C147 C 0.60777 0.12348 0.97928 0.0
C148 C 0.54038 0.10959 0.12928 0.0
C149 C 0.63114 0.16252 0.14682 0.0
O150 O 0.62174 0.15479 0.10259 0.0
O151 O 0.62627 0.14575 0.18567 0.0
O152 O 0.59073 0.14197 0.00397 0.0
O153 O 0.61935 0.10118 0.00468 0.0
O154 O 0.65217 0.80671 0.88362 0.0
Cd155 Cd 0.65319 0.85298 0.89647 0.0
Cd156 Cd 0.64363 0.853 0.79238 0.0
O157 O 0.65357 0.80733 0.79881 0.0
O158 O 0.67579 0.85875 0.96216 0.0
O159 O 0.69335 0.87361 0.88643 0.0
C160 C 0.69753 0.87031 0.93538 0.0
C161 C 0.65372 0.8781 0.7154 0.0
C162 C 0.65399 0.7927 0.84093 0.0
C163 C 0.59398 0.87704 0.86321 0.0
O164 O 0.60228 0.8674 0.81944 0.0
O165 O 0.61203 0.87563 0.90129 0.0
O166 O 0.63459 0.85624 0.71815 0.0
O167 O 0.66912 0.88493 0.75596 0.0
O168 O 0.95363 0.11832 0.81918 0.0
Cd169 Cd 0.90704 0.11419 0.81761 0.0
Cd170 Cd 0.91404 0.11759 0.92462 0.0
O171 O 0.95825 0.10918 0.90219 0.0
O172 O 0.89549 0.09032 0.75566 0.0
O173 O 0.89034 0.07338 0.83558 0.0
C174 C 0.88835 0.06851 0.78659 0.0
C175 C 0.90534 0.11049 0.01279 0.0
C176 C 0.97022 0.11344 0.85834 0.0
C177 C 0.88182 0.16883 0.86479 0.0
O178 O 0.89425 0.15823 0.90498 0.0
O179 O 0.88216 0.15375 0.82316 0.0
O180 O 0.92468 0.12961 0.99549 0.0
O181 O 0.89128 0.09372 0.97993 0.0
O182 O 0.63529 0.19882 0.5702 0.0
Cd183 Cd 0.63985 0.15243 0.56508 0.0
Cd184 Cd 0.62911 0.15715 0.67497 0.0
O185 O 0.6374 0.20189 0.65491 0.0
O186 O 0.6651 0.14379 0.50338 0.0
O187 O 0.68059 0.13544 0.58334 0.0
C188 C 0.68641 0.13561 0.53455 0.0
C189 C 0.62907 0.14872 0.76431 0.0
C190 C 0.63676 0.21462 0.61103 0.0
C191 C 0.58397 0.12385 0.60214 0.0
O192 O 0.59209 0.13479 0.64514 0.0
O193 O 0.60066 0.12696 0.56269 0.0
O194 O 0.60992 0.16621 0.74202 0.0
O195 O 0.64974 0.13641 0.73612 0.0
O196 O 0.55548 0.89429 0.34734 0.0
Cd197 Cd 0.60214 0.89737 0.34452 0.0
Cd198 Cd 0.59618 0.89315 0.44559 0.0
O199 O 0.55118 0.90282 0.43045 0.0
O200 O 0.61245 0.91976 0.28032 0.0
O201 O 0.61968 0.9384 0.35858 0.0
C202 C 0.62029 0.94225 0.30923 0.0
C203 C 0.61837 0.90982 0.52179 0.0
C204 C 0.53898 0.8991 0.38662 0.0
C205 C 0.62403 0.84024 0.38893 0.0
O206 O 0.61071 0.84994 0.42896 0.0
O207 O 0.62616 0.85711 0.34939 0.0
O208 O 0.59564 0.89163 0.52157 0.0
O209 O 0.62794 0.92031 0.47843 0.0
O210 O 0.86538 0.8047 0.06397 0.0
Cd211 Cd 0.86108 0.85126 0.06186 0.0
Cd212 Cd 0.86398 0.8442 0.16927 0.0
O213 O 0.85571 0.79998 0.14678 0.0
O214 O 0.83845 0.86216 -0.00186 0.0
O215 O 0.81977 0.86799 0.07673 0.0
C216 C 0.81592 0.86944 0.02741 0.0
C217 C 0.85633 0.85301 0.25734 0.0
C218 C 0.86032 0.78806 0.10298 0.0
C219 C 0.91564 0.87609 0.11017 0.0
O220 O 0.90485 0.86365 0.15017 0.0
O221 O 0.90067 0.87602 0.06838 0.0
O222 O 0.87547 0.83355 0.24046 0.0
O223 O 0.83989 0.8672 0.22411 0.0
O224 O 0.56098 0.60667 0.83909 0.0
Cd225 Cd 0.60646 0.60602 0.82057 0.0
Cd226 Cd 0.60992 0.61771 0.93309 0.0
O227 O 0.56429 0.60791 0.92395 0.0
O228 O 0.60964 0.58416 0.75367 0.0
O229 O 0.62788 0.56593 0.82683 0.0
C230 C 0.62266 0.5623 0.77825 0.0
C231 C 0.62532 0.62144 0.01945 0.0
C232 C 0.54846 0.60607 0.88317 0.0
C233 C 0.63398 0.66404 0.85152 0.0
O234 O 0.62795 0.65497 0.89667 0.0
O235 O 0.62808 0.64741 0.81291 0.0
O236 O 0.60602 0.63954 -0.00094 0.0
O237 O 0.63513 0.59929 0.99169 0.0
O238 O 0.6552 0.30354 0.11677 0.0
Cd239 Cd 0.65496 0.35005 0.10776 0.0
Cd240 Cd 0.6493 0.34811 0.20915 0.0
O241 O 0.66131 0.30313 0.20086 0.0
O242 O 0.67656 0.35896 0.04211 0.0
O243 O 0.69468 0.37125 0.11887 0.0
C244 C 0.69839 0.3699 0.06954 0.0
C245 C 0.66417 0.37539 0.28159 0.0
C246 C 0.65961 0.28899 0.15839 0.0
C247 C 0.59545 0.36956 0.14715 0.0
O248 O 0.60544 0.35909 0.1894 0.0
O249 O 0.61276 0.37092 0.10808 0.0
O250 O 0.64727 0.35175 0.28488 0.0
O251 O 0.67447 0.383 0.23698 0.0
O252 O 0.94525 0.39699 0.32806 0.0
Cd253 Cd 0.89936 0.39812 0.3134 0.0
Cd254 Cd 0.89817 0.39136 0.42684 0.0
O255 O 0.94305 0.402 0.41251 0.0
O256 O 0.89397 0.41921 0.24616 0.0
O257 O 0.87883 0.43856 0.32052 0.0
C258 C 0.88239 0.44162 0.27138 0.0
C259 C 0.88844 0.38939 0.51587 0.0
C260 C 0.95836 0.40066 0.37119 0.0
C261 C 0.87274 0.34155 0.35265 0.0
O262 O 0.87987 0.35238 0.39622 0.0
O263 O 0.87728 0.35677 0.31186 0.0
O264 O 0.90711 0.37162 0.49324 0.0
O265 O 0.87537 0.40985 0.48821 0.0
O266 O 0.84816 0.70298 0.61885 0.0
Cd267 Cd 0.8481 0.65625 0.61194 0.0
Cd268 Cd 0.85365 0.66018 0.71237 0.0
O269 O 0.84172 0.70506 0.70277 0.0
O270 O 0.82785 0.6469 0.54522 0.0
O271 O 0.80804 0.63534 0.62102 0.0
C272 C 0.80543 0.6362 0.57147 0.0
C273 C 0.8373 0.63171 0.7823 0.0
C274 C 0.84368 0.71835 0.65956 0.0
C275 C 0.90736 0.63705 0.65344 0.0
O276 O 0.89775 0.64923 0.69457 0.0
O277 O 0.88983 0.63457 0.61479 0.0
O278 O 0.85355 0.65567 0.78798 0.0
O279 O 0.82824 0.62468 0.73662 0.0
O280 O 0.55267 0.40394 0.63062 0.0
Cd281 Cd 0.5992 0.40352 0.63917 0.0
Cd282 Cd 0.59689 0.39844 0.53797 0.0
O283 O 0.552 0.41067 0.54668 0.0
O284 O 0.60835 0.42446 0.70529 0.0
O285 O 0.62047 0.44324 0.6289 0.0
C286 C 0.61928 0.44649 0.67833 0.0
C287 C 0.62444 0.41392 0.46625 0.0
C288 C 0.538 0.40869 0.58924 0.0
C289 C 0.61817 0.34415 0.59874 0.0
O290 O 0.60752 0.35435 0.55677 0.0
O291 O 0.61991 0.36133 0.63793 0.0
O292 O 0.60068 0.39725 0.46222 0.0
O293 O 0.63203 0.42364 0.51125 0.0
O294 O 0.86027 0.30946 0.91893 0.0
Cd295 Cd 0.8593 0.35538 0.93319 0.0
Cd296 Cd 0.8662 0.35673 0.82057 0.0
O297 O 0.85542 0.31185 0.83448 0.0
O298 O 0.83743 0.36126 -0.00045 0.0
O299 O 0.81908 0.37605 0.9242 0.0
C300 C 0.81538 0.37276 0.97327 0.0
C301 C 0.86722 0.36683 0.73162 0.0
C302 C 0.85662 0.29645 0.87573 0.0
C303 C 0.91621 0.38165 0.8946 0.0
O304 O 0.90546 0.37461 0.85091 0.0
O305 O 0.90079 0.37725 0.93521 0.0
O306 O 0.88518 0.34801 0.7535 0.0
O307 O 0.84725 0.38001 0.76009 0.0
O308 O 0.95168 0.60111 0.12424 0.0
Cd309 Cd 0.90496 0.60057 0.13109 0.0
Cd310 Cd 0.90878 0.60612 0.0308 0.0
O311 O 0.95379 0.59462 0.04033 0.0
O312 O 0.8956 0.57976 0.19734 0.0
O313 O 0.88469 0.56027 0.12101 0.0
C314 C 0.88541 0.55734 0.17052 0.0
C315 C 0.8803 0.58945 0.96109 0.0
C316 C 0.96708 0.59674 0.08352 0.0
C317 C 0.88524 0.65968 0.08968 0.0
O318 O 0.89748 0.65011 0.04857 0.0
O319 O 0.8829 0.64215 0.12837 0.0
O320 O 0.90411 0.6059 0.95521 0.0
O321 O 0.87345 0.58039 0.00683 0.0
O322 O 0.64368 0.69652 0.42394 0.0
Cd323 Cd 0.64636 0.65005 0.42986 0.0
Cd324 Cd 0.64285 0.65482 0.32046 0.0
O325 O 0.65293 0.69904 0.3407 0.0
O326 O 0.66697 0.64109 0.49636 0.0
O327 O 0.68754 0.6316 0.42025 0.0
C328 C 0.69007 0.63216 0.46985 0.0
C329 C 0.64886 0.64588 0.23191 0.0
C330 C 0.64906 0.71206 0.38379 0.0
C331 C 0.59058 0.62623 0.38353 0.0
O332 O 0.60165 0.637 0.34233 0.0
O333 O 0.6058 0.62682 0.42506 0.0
O334 O 0.63017 0.66545 0.24983 0.0
O335 O 0.66547 0.63125 0.26432 0.0
O336 O 0.45032 0.38864 0.17565 0.0
Cd337 Cd 0.40386 0.39294 0.18126 0.0
Cd338 Cd 0.40833 0.38124 0.07145 0.0
O339 O 0.45321 0.38935 0.09084 0.0
O340 O 0.39507 0.41898 0.24205 0.0
O341 O 0.38629 0.43325 0.1616 0.0
C342 C 0.38643 0.43973 0.21015 0.0
C343 C 0.39937 0.38001 0.98228 0.0
C344 C 0.46604 0.38936 0.13466 0.0
C345 C 0.37525 0.33671 0.14574 0.0
O346 O 0.38588 0.34468 0.10245 0.0
O347 O 0.37869 0.35351 0.18498 0.0
O348 O 0.41693 0.36112 0.00503 0.0
O349 O 0.38744 0.40121 0.00981 0.0
O350 O 0.36694 0.69995 0.92547 0.0
Cd351 Cd 0.36411 0.65352 0.93165 0.0
Cd352 Cd 0.37009 0.65729 0.82174 0.0
O353 O 0.36019 0.70169 0.84143 0.0
O354 O 0.33973 0.64395 0.99401 0.0
O355 O 0.32379 0.63539 0.91435 0.0
C356 C 0.31835 0.63539 0.96328 0.0
C357 C 0.36757 0.64918 0.73244 0.0
C358 C 0.36267 0.71509 0.88449 0.0
C359 C 0.41995 0.62742 0.88978 0.0
O360 O 0.40963 0.63752 0.84752 0.0
O361 O 0.40449 0.62977 0.93081 0.0
O362 O 0.38634 0.66767 0.75316 0.0
O363 O 0.34883 0.63534 0.76236 0.0
O364 O 0.05265 0.61781 0.67751 0.0
Cd365 Cd 0.09919 0.61322 0.67774 0.0
Cd366 Cd 0.09147 0.61576 0.57232 0.0
O367 O 0.04738 0.60723 0.59517 0.0
O368 O 0.11116 0.58921 0.73932 0.0
O369 O 0.11523 0.57223 0.65924 0.0
C370 C 0.11763 0.5673 0.70817 0.0
C371 C 0.10084 0.60676 0.4849 0.0
C372 C 0.03573 0.61231 0.63902 0.0
C373 C 0.1234 0.66781 0.62944 0.0
O374 O 0.11029 0.65714 0.58995 0.0
O375 O 0.12414 0.65262 0.67095 0.0
O376 O 0.08089 0.62578 0.50052 0.0
O377 O 0.11518 0.59116 0.5191 0.0
O378 O 0.1359 0.30344 0.42996 0.0
Cd379 Cd 0.14047 0.34996 0.42999 0.0
Cd380 Cd 0.13742 0.34228 0.32445 0.0
O381 O 0.14581 0.29813 0.3474 0.0
O382 O 0.16525 0.36177 0.49073 0.0
O383 O 0.18125 0.36583 0.41008 0.0
C384 C 0.18682 0.3681 0.45883 0.0
C385 C 0.14619 0.35138 0.23691 0.0
C386 C 0.14115 0.28651 0.39141 0.0
C387 C 0.08592 0.37486 0.38235 0.0
O388 O 0.09639 0.3618 0.34266 0.0
O389 O 0.10115 0.37517 0.42385 0.0
O390 O 0.12689 0.33182 0.25284 0.0
O391 O 0.16214 0.36551 0.27086 0.0
O392 O 0.44824 0.60977 0.33255 0.0
Cd393 Cd 0.40233 0.60803 0.31817 0.0
Cd394 Cd 0.40073 0.62039 0.42983 0.0
O395 O 0.44599 0.61 0.41745 0.0
O396 O 0.39658 0.58251 0.25572 0.0
O397 O 0.38188 0.56852 0.33375 0.0
C398 C 0.38515 0.56206 0.28551 0.0
C399 C 0.38895 0.62504 0.51773 0.0
C400 C 0.46133 0.60863 0.37612 0.0
C401 C 0.37376 0.66546 0.34857 0.0
O402 O 0.38092 0.65694 0.3936 0.0
O403 O 0.37947 0.64871 0.31002 0.0
O404 O 0.40733 0.64289 0.49456 0.0
O405 O 0.37768 0.60293 0.49154 0.0
O406 O 0.14993 0.69803 0.09853 0.0
Cd407 Cd 0.15184 0.65243 0.08058 0.0
Cd408 Cd 0.1365 0.64895 0.191 0.0
O409 O 0.14525 0.69491 0.18305 0.0
O410 O 0.17704 0.64878 0.01729 0.0
O411 O 0.19149 0.63129 0.09337 0.0
C412 C 0.19755 0.63599 0.04533 0.0
C413 C 0.13084 0.6323 0.27615 0.0
C414 C 0.14853 0.71069 0.14247 0.0
C415 C 0.09383 0.6231 0.10551 0.0
O416 O 0.1012 0.62957 0.15134 0.0
O417 O 0.1114 0.62967 0.06847 0.0
O418 O 0.11274 0.65138 0.25515 0.0
O419 O 0.15418 0.62373 0.25004 0.0
O420 O 0.05838 0.39948 0.84729 0.0
Cd421 Cd 0.10395 0.4015 0.82933 0.0
Cd422 Cd 0.10729 0.38695 0.94109 0.0
O423 O 0.0614 0.39586 0.93199 0.0
O424 O 0.1071 0.42594 0.76511 0.0
O425 O 0.1246 0.44151 0.84051 0.0
C426 C 0.11963 0.44696 0.79234 0.0
C427 C 0.12275 0.38101 0.02688 0.0
C428 C 0.04568 0.39868 0.89123 0.0
C429 C 0.13417 0.34418 0.85629 0.0
O430 O 0.12747 0.35187 0.90189 0.0
O431 O 0.1273 0.36126 0.8187 0.0
O432 O 0.10405 0.36294 0.00491 0.0
O433 O 0.13167 0.4044 0.00127 0.0
O434 O 0.35868 0.3044 0.57657 0.0
Cd435 Cd 0.35502 0.35077 0.56824 0.0
Cd436 Cd 0.36855 0.34754 0.67956 0.0
O437 O 0.3596 0.30262 0.66151 0.0
O438 O 0.32977 0.35803 0.50591 0.0
O439 O 0.31468 0.36933 0.58492 0.0
C440 C 0.30876 0.36783 0.53623 0.0
C441 C 0.3725 0.35642 0.76853 0.0
C442 C 0.35848 0.28925 0.61822 0.0
C443 C 0.41163 0.37995 0.60149 0.0
O444 O 0.40414 0.37007 0.64553 0.0
O445 O 0.39455 0.37563 0.56284 0.0
O446 O 0.39079 0.33904 0.74409 0.0
O447 O 0.35041 0.36826 0.74292 0.0
C448 C 0.12695 0.02424 0.24819 0.0
C449 C 0.12464 0.02592 0.30209 0.0
H450 H 0.12773 0.99563 0.18161 0.0
C451 C 0.12481 0.99888 0.3307 0.0
H452 H 0.12701 0.04468 0.22507 0.0
C453 C 0.12482 0.97076 0.30574 0.0
C454 C 0.12516 0.96911 0.25171 0.0
H455 H 0.12303 0.99938 0.37225 0.0
H456 H 0.12324 0.95034 0.32876 0.0
C457 C 0.12744 0.99611 0.22327 0.0
C458 C 0.24474 0.87971 0.53257 0.0
C459 C 0.21856 0.87898 0.50174 0.0
H460 H 0.29327 0.87793 0.53481 0.0
C461 C 0.2218 0.88009 0.44795 0.0
H462 H 0.24304 0.87885 0.57411 0.0
C463 C 0.25062 0.87997 0.4254 0.0
C464 C 0.27675 0.87821 0.45622 0.0
H465 H 0.20204 0.8797 0.42316 0.0
H466 H 0.25232 0.87933 0.38385 0.0
C467 C 0.27354 0.87908 0.51003 0.0
C468 C 0.37136 1.00212 0.69466 0.0
C469 C 0.37364 0.02951 0.72199 0.0
H470 H 0.37261 0.95361 0.69819 0.0
C471 C 0.37477 0.02853 0.77605 0.0
H472 H 0.37046 1.00206 0.65301 0.0
C473 C 0.37572 1.00074 0.80201 0.0
C474 C 0.37596 0.97335 0.77439 0.0
H475 H 0.37638 0.04925 0.79826 0.0
H476 H 0.37815 1.0008 0.84349 0.0
C477 C 0.3727 0.97432 0.72058 0.0
C478 C 0.25577 0.12834 0.9363 0.0
C479 C 0.2277 0.12943 0.96179 0.0
H480 H 0.30417 0.12849 0.94371 0.0
C481 C 0.22723 0.12725 0.01578 0.0
H482 H 0.25692 0.12999 0.89476 0.0
C483 C 0.25431 0.12597 0.04383 0.0
C484 C 0.28242 0.12735 0.01849 0.0
H485 H 0.20594 0.12787 0.03654 0.0
H486 H 0.25318 0.12583 0.08546 0.0
C487 C 0.28286 0.12756 0.96438 0.0
C488 C 0.88183 0.9832 0.77784 0.0
C489 C 0.87935 0.97882 0.72442 0.0
H490 H 0.88601 0.01505 0.83958 0.0
C491 C 0.87574 0.00427 0.69245 0.0
H492 H 0.88446 0.96403 0.80354 0.0
C493 C 0.87692 0.03355 0.71309 0.0
C494 C 0.88136 0.03795 0.76615 0.0
H495 H 0.87376 1.00166 0.65115 0.0
H496 H 0.87567 0.05274 0.68713 0.0
C497 C 0.88264 0.01246 0.79854 0.0
C498 C 0.77195 0.13215 0.52878 0.0
C499 C 0.77706 0.13093 0.47542 0.0
H500 H 0.7392 0.1339 0.5895 0.0
C501 C 0.75217 0.12708 0.44231 0.0
H502 H 0.7907 0.13492 0.55531 0.0
C503 C 0.72262 0.12683 0.46187 0.0
C504 C 0.71742 0.12998 0.51498 0.0
H505 H 0.75535 0.12604 0.40102 0.0
H506 H 0.70381 0.12546 0.43515 0.0
C507 C 0.74243 0.13146 0.5484 0.0
C508 C 0.62792 0.97599 0.2327 0.0
C509 C 0.62607 0.97249 0.28641 0.0
H510 H 0.62749 0.00676 0.1689 0.0
C511 C 0.62585 0.99855 0.31751 0.0
H512 H 0.62828 0.95637 0.20766 0.0
C513 C 0.62511 0.02743 0.29525 0.0
C514 C 0.62492 0.03086 0.24146 0.0
H515 H 0.62446 0.99667 0.35899 0.0
H516 H 0.62337 0.04701 0.32023 0.0
C517 C 0.62751 0.0049 0.21046 0.0
C518 C 0.75348 0.87958 0.92886 0.0
C519 C 0.72742 0.87628 0.95945 0.0
H520 H 0.80202 0.88013 0.92645 0.0
C521 C 0.73073 0.87496 0.01322 0.0
H522 H 0.75171 0.88068 0.88734 0.0
C523 C 0.75957 0.87491 0.03571 0.0
C524 C 0.78571 0.87582 0.00483 0.0
H525 H 0.71109 0.8726 0.0379 0.0
H526 H 0.76136 0.87238 0.07705 0.0
C527 C 0.78233 0.87918 0.95131 0.0
C528 C 0.62938 0.47779 0.75691 0.0
C529 C 0.62663 0.47582 0.70311 0.0
H530 H 0.63101 0.50683 0.82294 0.0
C531 C 0.62691 0.50266 0.67398 0.0
H532 H 0.62936 0.45749 0.7804 0.0
C533 C 0.62741 0.53092 0.69841 0.0
C534 C 0.62818 0.5329 0.75238 0.0
H535 H 0.62479 0.50192 0.63248 0.0
H536 H 0.62586 0.55122 0.67506 0.0
C537 C 0.63041 0.50607 0.7813 0.0
C538 C 0.78304 0.37856 0.05193 0.0
C539 C 0.78564 0.3785 0.998 0.0
H540 H 0.7533 0.37661 0.11698 0.0
C541 C 0.7591 0.38001 0.96815 0.0
H542 H 0.80308 0.37756 0.07601 0.0
C543 C 0.73056 0.37909 0.99163 0.0
C544 C 0.72798 0.37712 0.04546 0.0
H545 H 0.76031 0.37998 0.92653 0.0
H546 H 0.71054 0.37853 0.96747 0.0
C547 C 0.75449 0.37811 0.07544 0.0
C548 C 0.87498 0.49793 0.27413 0.0
C549 C 0.87679 0.47101 0.24537 0.0
H550 H 0.87622 0.54649 0.2729 0.0
C551 C 0.87711 0.4729 0.19136 0.0
H552 H 0.8747 0.49727 0.31578 0.0
C553 C 0.87762 0.50112 0.16673 0.0
C554 C 0.87828 0.52803 0.19566 0.0
H555 H 0.87833 0.45256 0.1681 0.0
H556 H 0.87938 0.50176 0.12518 0.0
C557 C 0.87593 0.52616 0.24953 0.0
C558 C 0.74657 0.62645 0.46681 0.0
C559 C 0.71957 0.62652 0.4955 0.0
H560 H 0.79504 0.62933 0.46843 0.0
C561 C 0.72138 0.62526 0.54949 0.0
H562 H 0.74599 0.62738 0.42518 0.0
C563 C 0.74954 0.62613 0.57432 0.0
C564 C 0.77643 0.62862 0.54565 0.0
H565 H 0.70099 0.62511 0.57271 0.0
H566 H 0.75007 0.62673 0.61597 0.0
C567 C 0.77471 0.62766 0.49164 0.0
C568 C 0.37725 0.47674 0.28158 0.0
C569 C 0.38009 0.47087 0.22862 0.0
H570 H 0.37597 0.51027 0.34112 0.0
C571 C 0.38038 0.49543 0.19418 0.0
H572 H 0.37678 0.45829 0.3091 0.0
C573 C 0.38021 0.52524 0.21259 0.0
C574 C 0.37935 0.53109 0.26576 0.0
H575 H 0.38251 0.49169 0.15316 0.0
H576 H 0.38209 0.54368 0.18522 0.0
C577 C 0.37669 0.50655 0.29995 0.0
C578 C 0.25316 0.62638 0.05668 0.0
C579 C 0.22805 0.62985 0.02389 0.0
H580 H 0.30159 0.62533 0.06312 0.0
C581 C 0.23288 0.63092 0.97046 0.0
H582 H 0.25019 0.62548 0.09801 0.0
C583 C 0.26231 0.63045 0.9504 0.0
C584 C 0.28752 0.62936 0.98344 0.0
H585 H 0.21397 0.63339 0.94417 0.0
H586 H 0.26529 0.63278 0.90923 0.0
C587 C 0.28262 0.62636 0.03667 0.0
C588 C 0.12249 0.48186 0.7165 0.0
C589 C 0.12507 0.47734 0.76989 0.0
H590 H 0.11875 0.5139 0.65492 0.0
C591 C 0.12936 0.50265 0.8019 0.0
H592 H 0.11937 0.46281 0.69076 0.0
C593 C 0.12874 0.53198 0.78138 0.0
C594 C 0.12418 0.53657 0.72838 0.0
H595 H 0.13145 0.49993 0.84316 0.0
H596 H 0.13049 0.55109 0.80739 0.0
C597 C 0.12223 0.51117 0.69592 0.0
C598 C 0.24265 0.3737 0.44392 0.0
C599 C 0.21789 0.37423 0.47791 0.0
H600 H 0.29089 0.37145 0.43573 0.0
C601 C 0.2235 0.37689 0.531 0.0
H602 H 0.23914 0.37175 0.4028 0.0
C603 C 0.25322 0.37688 0.5499 0.0
C604 C 0.27791 0.37397 0.51612 0.0
H605 H 0.20492 0.37754 0.55822 0.0
H606 H 0.25672 0.37744 0.59114 0.0
C607 C 0.27235 0.37345 0.46284 0.0
C608 C 0.12651 0.20881 0.44809 0.0
C609 C 0.12787 0.19009 0.40431 0.0
H610 H 0.12992 0.2537 0.47855 0.0
C611 C 0.13639 0.20297 0.35704 0.0
H612 H 0.1203 0.19962 0.48529 0.0
C613 C 0.14196 0.23415 0.35322 0.0
C614 C 0.13916 0.25307 0.3966 0.0
H615 H 0.13776 0.18919 0.32265 0.0
H616 H 0.14748 0.24353 0.31586 0.0
C617 C 0.1321 0.23989 0.4443 0.0
C618 C 0.00892 0.90385 0.64543 0.0
C619 C 0.99166 0.89969 0.60057 0.0
H620 H 0.05263 0.90203 0.68053 0.0
C621 C 0.00687 0.89345 0.55407 0.0
H622 H 0.99809 0.90909 0.68177 0.0
C623 C 0.03843 0.88945 0.55331 0.0
C624 C 0.05532 0.89157 0.59903 0.0
H625 H 0.99428 0.8903 0.51869 0.0
H626 H 0.0493 0.88307 0.51755 0.0
C627 C 0.0403 0.89987 0.64466 0.0
C628 C 0.37389 0.79517 0.93295 0.0
C629 C 0.37349 0.81199 0.88694 0.0
H630 H 0.37047 0.75157 0.96841 0.0
C631 C 0.36623 0.79712 0.84078 0.0
H632 H 0.37908 0.80596 0.96935 0.0
C633 C 0.3613 0.76577 0.84028 0.0
C634 C 0.36344 0.74869 0.88595 0.0
H635 H 0.36563 0.80943 0.80473 0.0
H636 H 0.35695 0.75479 0.80374 0.0
C637 C 0.3689 0.76392 0.93248 0.0
C638 C 0.46001 0.11576 0.17962 0.0
C639 C 0.44315 0.11942 0.13404 0.0
H640 H 0.50363 0.10953 0.21392 0.0
C641 C 0.45821 0.117 0.08658 0.0
H642 H 0.44912 0.11721 0.2169 0.0
C643 C 0.48968 0.11265 0.08491 0.0
C644 C 0.50672 0.11051 0.13064 0.0
H645 H 0.44592 0.11967 0.05079 0.0
H646 H 0.50075 0.11195 0.04773 0.0
C647 C 0.49135 0.11132 0.17795 0.0
C648 C 0.15356 0.76182 0.10161 0.0
C649 C 0.14845 0.74431 0.14588 0.0
H650 H 0.15224 0.80569 0.06707 0.0
C651 C 0.14105 0.75923 0.19215 0.0
H652 H 0.1597 0.75121 0.0655 0.0
C653 C 0.13677 0.79076 0.19311 0.0
C654 C 0.13983 0.8079 0.14782 0.0
H655 H 0.13714 0.74644 0.22709 0.0
H656 H 0.12945 0.80139 0.22856 0.0
C657 C 0.14933 0.79317 0.10258 0.0
C658 C 0.49223 0.89572 0.33272 0.0
C659 C 0.50553 0.89762 0.38169 0.0
H660 H 0.45209 0.88795 0.28896 0.0
C661 C 0.48677 0.89547 0.42538 0.0
H662 H 0.50589 0.89759 0.29825 0.0
C663 C 0.45563 0.88979 0.42008 0.0
C664 C 0.44274 0.88621 0.37099 0.0
H665 H 0.49632 0.8969 0.46372 0.0
H666 H 0.44195 0.88701 0.45435 0.0
C667 C 0.46128 0.89013 0.32745 0.0
C668 C 0.36452 0.20681 0.65982 0.0
C669 C 0.36728 0.19198 0.61221 0.0
H670 H 0.35954 0.24919 0.69919 0.0
C671 C 0.36435 0.20912 0.56679 0.0
H672 H 0.36663 0.19429 0.69549 0.0
C673 C 0.36027 0.24049 0.56882 0.0
C674 C 0.35911 0.2556 0.61635 0.0
H675 H 0.36608 0.19841 0.52939 0.0
H676 H 0.35902 0.25298 0.533 0.0
C677 C 0.36053 0.23831 0.66187 0.0
C678 C 0.05338 0.11878 0.89515 0.0
C679 C 0.06669 0.12726 0.8482 0.0
H680 H 0.01249 0.10753 0.93519 0.0
C681 C 0.04841 0.12835 0.80383 0.0
H682 H 0.06681 0.11759 0.92997 0.0
C683 C 0.01732 0.12255 0.80671 0.0
C684 C 0.00371 0.11554 0.85407 0.0
H685 H 0.05794 0.13451 0.76686 0.0
H686 H 0.00385 0.12454 0.77204 0.0
C687 C 0.02221 0.11301 0.89805 0.0
C688 C 0.84162 0.76634 0.60896 0.0
C689 C 0.84435 0.7519 0.65682 0.0
H690 H 0.84678 0.80717 0.56599 0.0
C691 C 0.85125 0.76951 0.70048 0.0
H692 H 0.83594 0.75354 0.57471 0.0
C693 C 0.85774 0.80052 0.69549 0.0
C694 C 0.85727 0.81437 0.64678 0.0
H695 H 0.85346 0.75902 0.73798 0.0
H696 H 0.86479 0.81314 0.72916 0.0
C697 C 0.84788 0.79717 0.60403 0.0
C698 C 0.95529 0.11151 0.45179 0.0
C699 C 0.94136 0.11081 0.40315 0.0
H700 H 0.99678 0.10674 0.49426 0.0
C701 C 0.95826 0.10047 0.36069 0.0
H702 H 0.94289 0.11926 0.48525 0.0
C703 C 0.98894 0.09351 0.36573 0.0
C704 C 0.00352 0.09646 0.41343 0.0
H705 H 0.94816 0.09915 0.32274 0.0
H706 H 1.00154 0.08711 0.33165 0.0
C707 C 0.98616 0.10431 0.45691 0.0
C708 C 0.66017 0.23997 0.11054 0.0
C709 C 0.65885 0.25542 0.15768 0.0
H710 H 0.65317 0.19838 0.07047 0.0
C711 C 0.65302 0.23876 0.20285 0.0
H712 H 0.66502 0.252 0.07514 0.0
C713 C 0.64605 0.20778 0.2002 0.0
C714 C 0.64488 0.19301 0.15234 0.0
H715 H 0.65196 0.25 0.23986 0.0
H716 H 0.63976 0.19595 0.23512 0.0
C717 C 0.65334 0.20916 0.10792 0.0
C718 C 0.54421 0.89226 0.82519 0.0
C719 C 0.56247 0.88831 0.86912 0.0
H720 H 0.49995 0.90084 0.79515 0.0
C721 C 0.54958 0.8932 0.91786 0.0
H722 H 0.55344 0.88911 0.78693 0.0
C723 C 0.51865 0.9001 0.92253 0.0
C724 C 0.50008 0.90221 0.87855 0.0
H725 H 0.56304 0.89048 0.95241 0.0
H726 H 0.50907 0.90242 0.9607 0.0
C727 C 0.51346 0.89909 0.82984 0.0
C728 C 0.85993 0.24548 0.91761 0.0
C729 C 0.85733 0.26288 0.87261 0.0
H730 H 0.86918 0.20206 0.95029 0.0
C731 C 0.85865 0.24809 0.82459 0.0
H732 H 0.85869 0.256 0.95521 0.0
C733 C 0.86472 0.21696 0.82172 0.0
C734 C 0.86961 0.2001 0.86679 0.0
H735 H 0.85653 0.2608 0.78911 0.0
H736 H 0.86723 0.20652 0.78423 0.0
C737 C 0.866 0.21448 0.91473 0.0
C738 C 0.53757 0.10309 0.64385 0.0
C739 C 0.55332 0.11035 0.59844 0.0
H740 H 0.49501 0.09253 0.67859 0.0
C741 C 0.53805 0.10824 0.55112 0.0
H742 H 0.54877 0.10401 0.68093 0.0
C743 C 0.50698 0.10156 0.5498 0.0
C744 C 0.49075 0.09691 0.59579 0.0
H745 H 0.54958 0.11361 0.51548 0.0
H746 H 0.49537 0.10188 0.51306 0.0
C747 C 0.50669 0.09649 0.64254 0.0
C748 C 0.64933 0.76311 0.34075 0.0
C749 C 0.64749 0.74562 0.38599 0.0
H750 H 0.64352 0.80686 0.30606 0.0
C751 C 0.64116 0.76028 0.43272 0.0
H752 H 0.6543 0.75256 0.30407 0.0
C753 C 0.63495 0.7913 0.43376 0.0
C754 C 0.63497 0.80847 0.38813 0.0
H755 H 0.63979 0.74761 0.46834 0.0
H756 H 0.62912 0.80161 0.47027 0.0
C757 C 0.64316 0.79426 0.34182 0.0
C758 C 0.96127 0.89147 0.16061 0.0
C759 C 0.94707 0.88785 0.1125 0.0
H760 H 0.0027 0.89826 0.20167 0.0
C761 C 0.96427 0.89212 0.06763 0.0
H762 H 0.9486 0.88873 0.196 0.0
C763 C 0.99551 0.8976 0.07094 0.0
C764 C 0.01007 0.89895 0.11918 0.0
H765 H 0.95399 0.88956 0.03002 0.0
H766 H 0.00843 0.89925 0.03564 0.0
C767 C 0.99236 0.89697 0.16392 0.0
C768 C 0.65873 0.74319 0.88684 0.0
C769 C 0.65407 0.75907 0.8407 0.0
H770 H 0.65685 0.70074 0.92594 0.0
C771 C 0.64687 0.74259 0.79591 0.0
H772 H 0.66473 0.75506 0.92187 0.0
C773 C 0.64222 0.71113 0.79823 0.0
C774 C 0.64478 0.69568 0.84535 0.0
H775 H 0.64326 0.75416 0.75966 0.0
H776 H 0.635 0.69929 0.76385 0.0
C777 C 0.65424 0.71194 0.88909 0.0
C778 C 0.51407 0.38486 0.18569 0.0
C779 C 0.49963 0.3879 0.13777 0.0
H780 H 0.5555 0.37696 0.22614 0.0
C781 C 0.51749 0.38748 0.09285 0.0
H782 H 0.50113 0.38524 0.22108 0.0
C783 C 0.54888 0.38279 0.09575 0.0
C784 C 0.56302 0.37827 0.14361 0.0
H785 H 0.50714 0.38989 0.05527 0.0
H786 H 0.56184 0.38161 0.06043 0.0
C787 C 0.54533 0.38005 0.18855 0.0
C788 C 0.85057 0.26339 0.39818 0.0
C789 C 0.85537 0.24576 0.35396 0.0
H790 H 0.85152 0.30745 0.43201 0.0
C791 C 0.86178 0.26059 0.30717 0.0
H792 H 0.84518 0.25284 0.43469 0.0
C793 C 0.86539 0.29218 0.30556 0.0
C794 C 0.86266 0.30948 0.35071 0.0
H795 H 0.8654 0.24771 0.27224 0.0
H796 H 0.87197 0.30277 0.26965 0.0
C797 C 0.85414 0.2948 0.39656 0.0
C798 C 0.95239 0.61795 0.60368 0.0
C799 C 0.9395 0.62729 0.65049 0.0
H800 H 0.99287 0.60561 0.56335 0.0
C801 C 0.9581 0.62887 0.69443 0.0
H802 H 0.9387 0.61635 0.5692 0.0
C803 C 0.9891 0.62266 0.69119 0.0
C804 C 0.00231 0.61476 0.64389 0.0
H805 H 0.94889 0.63569 0.7313 0.0
H806 H 0.00285 0.62504 0.72548 0.0
C807 C 0.98347 0.61176 0.60041 0.0
C808 C 0.6319 0.26256 0.55992 0.0
C809 C 0.63554 0.24819 0.60777 0.0
H810 H 0.62383 0.304 0.5196 0.0
C811 C 0.63603 0.26613 0.65259 0.0
H812 H 0.63158 0.24954 0.5246 0.0
C813 C 0.63165 0.29755 0.64972 0.0
C814 C 0.62655 0.31164 0.602 0.0
H815 H 0.63894 0.25583 0.69011 0.0
H816 H 0.63119 0.31058 0.68502 0.0
C817 C 0.62741 0.29386 0.55709 0.0
C818 C 0.99703 0.39261 0.94115 0.0
C819 C 0.01206 0.399 0.89455 0.0
H820 H 0.95468 0.38243 0.97812 0.0
C821 C 0.99461 0.40365 0.85003 0.0
H822 H 0.00976 0.38909 0.97629 0.0
C823 C 0.96319 0.40003 0.85121 0.0
C824 C 0.94832 0.39159 0.89691 0.0
H825 H 0.0053 0.40903 0.81364 0.0
H826 H 0.9507 0.40259 0.81557 0.0
C827 C 0.96543 0.38895 0.94232 0.0
C828 C 0.87007 0.74114 0.05124 0.0
C829 C 0.86275 0.7546 0.0986 0.0
H830 H 0.88267 0.70074 0.0113 0.0
C831 C 0.86034 0.736 0.14247 0.0
H832 H 0.87197 0.75468 0.01664 0.0
C833 C 0.86654 0.7049 0.13946 0.0
C834 C 0.87533 0.69178 0.09252 0.0
H835 H 0.85466 0.7456 0.1796 0.0
H836 H 0.86544 0.6914 0.1742 0.0
C837 C 0.87629 0.71014 0.04826 0.0
C838 C 0.54361 0.61211 0.33554 0.0
C839 C 0.55853 0.61617 0.38292 0.0
H840 H 0.50146 0.60629 0.29621 0.0
C841 C 0.54158 0.61413 0.42853 0.0
H842 H 0.55603 0.61322 0.29962 0.0
C843 C 0.51006 0.61023 0.42652 0.0
C844 C 0.49494 0.60821 0.37887 0.0
H845 H 0.55237 0.61716 0.46561 0.0
H846 H 0.49746 0.61012 0.46227 0.0
C847 C 0.51224 0.60815 0.33353 0.0
C848 C 0.35355 0.29061 0.10455 0.0
C849 C 0.36169 0.3061 0.14979 0.0
H850 H 0.34235 0.24826 0.06965 0.0
C851 C 0.36052 0.29055 0.19694 0.0
H852 H 0.35374 0.30203 0.06763 0.0
C853 C 0.35388 0.25945 0.19808 0.0
C854 C 0.34836 0.2435 0.15207 0.0
H855 H 0.36661 0.30187 0.23244 0.0
H856 H 0.35493 0.24762 0.23455 0.0
C857 C 0.347 0.25972 0.10566 0.0
C858 C 0.466 0.60894 0.8438 0.0
C859 C 0.45156 0.61599 0.89054 0.0
H860 H 0.50768 0.59995 0.80489 0.0
C861 C 0.46873 0.61577 0.93608 0.0
H862 H 0.45337 0.60854 0.80804 0.0
C863 C 0.50014 0.61088 0.93423 0.0
C864 C 0.51487 0.60608 0.88681 0.0
H865 H 0.45827 0.62111 0.97267 0.0
H866 H 0.51302 0.61238 0.96961 0.0
C867 C 0.49723 0.60403 0.84196 0.0
C868 C 0.13739 0.71392 0.57909 0.0
C869 C 0.13509 0.69925 0.62703 0.0
H870 H 0.14332 0.75573 0.53878 0.0
C871 C 0.14081 0.71593 0.67199 0.0
H872 H 0.13352 0.70165 0.5436 0.0
C873 C 0.14646 0.74713 0.66917 0.0
C874 C 0.14653 0.76218 0.62132 0.0
H875 H 0.13932 0.70528 0.70945 0.0
H876 H 0.14928 0.75966 0.70468 0.0
C877 C 0.14306 0.74499 0.57627 0.0
C878 C 0.03796 0.39272 0.42503 0.0
C879 C 0.05467 0.38713 0.38005 0.0
H880 H 0.99426 0.40162 0.45758 0.0
C881 C 0.04017 0.39018 0.33207 0.0
H882 H 0.04849 0.39066 0.46253 0.0
C883 C 0.00921 0.39644 0.32915 0.0
C884 C 0.99194 0.39976 0.37415 0.0
H885 H 0.05249 0.38645 0.29658 0.0
H886 H 0.99859 0.39726 0.29158 0.0
C887 C 0.00685 0.39895 0.42211 0.0
C888 C 0.36387 0.71221 0.29526 0.0
C889 C 0.36171 0.69665 0.34232 0.0
H890 H 0.36173 0.75526 0.25689 0.0
C891 C 0.35151 0.71251 0.38597 0.0
H892 H 0.37164 0.70065 0.26095 0.0
C893 C 0.34601 0.74362 0.38377 0.0
C894 C 0.35044 0.75972 0.33781 0.0
H895 H 0.34916 0.70117 0.42274 0.0
H896 H 0.33956 0.75525 0.4188 0.0
C897 C 0.35826 0.74352 0.29302 0.0
C898 C 0.01822 0.6049 0.04282 0.0
C899 C 1.00062 0.59758 0.0863 0.0
H900 H 0.06184 0.61876 0.01451 0.0
C901 C 0.01506 0.5945 0.1341 0.0
H902 H 0.00771 0.6074 0.00538 0.0
C903 C 0.04588 0.60076 0.13919 0.0
C904 C 0.06308 0.61053 0.09669 0.0
H905 H 1.00227 0.58849 0.16819 0.0
H906 H 0.05588 0.59934 0.17721 0.0
C907 C 0.04922 0.61141 0.04799 0.0
C908 C 0.16413 0.26616 0.88721 0.0
C909 C 0.16141 0.25126 0.83977 0.0
H910 H 0.15845 0.30726 0.9292 0.0
C911 C 0.15395 0.26838 0.79577 0.0
H912 H 0.17021 0.25375 0.92169 0.0
C913 C 0.1469 0.29931 0.80007 0.0
C914 C 0.14736 0.31358 0.84841 0.0
H915 H 0.15172 0.25752 0.75859 0.0
H916 H 0.13944 0.31152 0.76619 0.0
C917 C 0.15733 0.29692 0.89144 0.0
C918 C 0.45665 0.39534 0.54794 0.0
C919 C 0.44208 0.39374 0.59594 0.0
H920 H 0.49871 0.40165 0.50797 0.0
C921 C 0.45838 0.40191 0.64037 0.0
H922 H 0.44469 0.38929 0.51302 0.0
C923 C 0.48916 0.40885 0.63757 0.0
C924 C 0.50442 0.40793 0.59024 0.0
H925 H 0.44774 0.40142 0.67793 0.0
H926 H 0.50131 0.41345 0.67295 0.0
C927 C 0.48761 0.40241 0.54511 0.0
C928 C 0.13667 0.07438 0.62728 0.0
C929 C 0.14602 0.08681 0.58026 0.0
H930 H 0.13883 0.07786 0.70932 0.0
C931 C 0.17036 0.1073 0.5795 0.0
H932 H 0.11752 0.05901 0.62869 0.0
C933 C 0.18177 0.11895 0.62563 0.0
C934 C 0.16968 0.10929 0.67273 0.0
H935 H 0.17745 0.11763 0.54363 0.0
H936 H 0.19733 0.13794 0.6243 0.0
C937 C 0.14891 0.08518 0.67338 0.0
C938 C 0.11383 0.8518 0.84817 0.0
C939 C 0.13339 0.87059 0.82003 0.0
H940 H 0.09274 0.84225 0.91965 0.0
C941 C 0.14778 0.89491 0.84517 0.0
H942 H 0.10246 0.83275 0.83027 0.0
C943 C 0.14206 0.90051 0.89756 0.0
C944 C 0.12192 0.88183 0.9251 0.0
H945 H 0.16291 0.90981 0.82428 0.0
H946 H 0.15314 0.91944 0.91627 0.0
C947 C 0.10816 0.85734 0.89975 0.0
C948 C 0.39031 0.92548 0.11351 0.0
C949 C 0.37308 0.91742 0.07035 0.0
H950 H 0.39623 0.92041 0.1947 0.0
C951 C 0.34474 0.90344 0.07731 0.0
H952 H 0.41245 0.93579 0.10886 0.0
C953 C 0.33569 0.89404 0.1265 0.0
C954 C 0.35469 0.89924 0.16885 0.0
H955 H 0.33147 0.8964 0.04431 0.0
H956 H 0.31563 0.88009 0.13054 0.0
C957 C 0.38104 0.91663 0.16251 0.0
C958 C 0.36813 0.07416 0.37983 0.0
C959 C 0.3551 0.08891 0.42215 0.0
H960 H 0.37253 0.07324 0.29779 0.0
C961 C 0.33133 0.10957 0.41413 0.0
H962 H 0.38701 0.05874 0.38524 0.0
C963 C 0.32356 0.11842 0.36417 0.0
C964 C 0.33899 0.1061 0.32194 0.0
H965 H 0.32156 0.12175 0.44633 0.0
H966 H 0.30799 0.1372 0.35889 0.0
C967 C 0.35982 0.08247 0.32986 0.0
C968 C 0.86652 0.83759 0.34681 0.0
C969 C 0.85596 0.85987 0.31277 0.0
H970 H 0.8825 0.82724 0.42197 0.0
C971 C 0.85023 0.88928 0.33136 0.0
H972 H 0.87083 0.81467 0.33367 0.0
C973 C 0.85717 0.89668 0.38265 0.0
C974 C 0.86996 0.87472 0.41537 0.0
H975 H 0.84226 0.9069 0.30564 0.0
H976 H 0.85397 0.91976 0.39583 0.0
C977 C 0.87345 0.84491 0.39737 0.0
C978 C 0.92016 0.12232 0.102 0.0
C979 C 0.89838 0.11055 0.06819 0.0
H980 H 0.92981 0.13918 0.17681 0.0
C981 C 0.86922 0.10378 0.08687 0.0
H982 H 0.9429 0.12747 0.08883 0.0
C983 C 0.86151 0.11074 0.13799 0.0
C984 C 0.88291 0.12458 0.17051 0.0
H985 H 0.85198 0.09485 0.06135 0.0
H986 H 0.83861 0.1066 0.15125 0.0
C987 C 0.91253 0.12926 0.15241 0.0
C988 C 0.60528 0.15999 0.84844 0.0
C989 C 0.62577 0.14242 0.81986 0.0
H990 H 0.58347 0.16758 0.92016 0.0
C991 C 0.64084 0.11819 0.84416 0.0
H992 H 0.5933 0.17886 0.83107 0.0
C993 C 0.635 0.1115 0.8961 0.0
C994 C 0.61412 0.12904 0.92422 0.0
H995 H 0.65661 0.10415 0.8229 0.0
H996 H 0.64674 0.09271 0.91413 0.0
C997 C 0.59955 0.15342 0.89975 0.0
C998 C 0.61922 0.92468 0.61308 0.0
C999 C 0.63502 0.91394 0.57005 0.0
H1000 H 0.61423 0.92239 0.69483 0.0
C1001 C 0.66222 0.89785 0.57713 0.0
H1002 H 0.59788 0.93656 0.60836 0.0
C1003 C 0.67124 0.88911 0.62664 0.0
C1004 C 0.65347 0.8971 0.66922 0.0
H1005 H 0.6743 0.88872 0.54428 0.0
H1006 H 0.69007 0.87352 0.63104 0.0
C1007 C 0.62858 0.91652 0.66246 0.0
C1008 C 0.63215 0.65677 0.09218 0.0
C1009 C 0.63602 0.62745 0.07226 0.0
H1010 H 0.63411 0.68555 0.1578 0.0
C1011 C 0.64863 0.60479 0.10383 0.0
H1012 H 0.62322 0.67495 0.06855 0.0
C1013 C 0.65509 0.61104 0.15576 0.0
C1014 C 0.64904 0.63997 0.17614 0.0
H1015 H 0.65209 0.58207 0.08917 0.0
H1016 H 0.66304 0.59291 0.18046 0.0
C1017 C 0.63859 0.66294 0.14334 0.0
C1018 C 0.66901 0.39544 0.41938 0.0
C1019 C 0.64473 0.41599 0.4218 0.0
H1020 H 0.69486 0.36594 0.37063 0.0
C1021 C 0.63397 0.42932 0.37635 0.0
H1022 H 0.67713 0.3844 0.45402 0.0
C1023 C 0.64488 0.41949 0.3287 0.0
C1024 C 0.66583 0.39556 0.32624 0.0
H1025 H 0.6148 0.4447 0.37741 0.0
H1026 H 0.63381 0.42755 0.29404 0.0
C1027 C 0.67918 0.38486 0.37171 0.0
C1028 C 0.85505 0.39637 0.65063 0.0
C1029 C 0.87088 0.37307 0.67614 0.0
H1030 H 0.84826 0.42024 0.57919 0.0
C1031 C 0.89207 0.3558 0.64853 0.0
H1032 H 0.83866 0.41013 0.6711 0.0
C1033 C 0.89765 0.36165 0.59704 0.0
C1034 C 0.88215 0.38491 0.57118 0.0
H1035 H 0.90471 0.33764 0.66672 0.0
H1036 H 0.91426 0.34766 0.57753 0.0
C1037 C 0.86066 0.40227 0.5983 0.0
C1038 C 0.86841 0.57525 0.87144 0.0
C1039 C 0.85879 0.58775 0.91823 0.0
H1040 H 0.86684 0.57874 0.78936 0.0
C1041 C 0.83445 0.60829 0.91849 0.0
H1042 H 0.88756 0.55984 0.87042 0.0
C1043 C 0.8234 0.61998 0.87212 0.0
C1044 C 0.83582 0.6103 0.8253 0.0
H1045 H 0.82714 0.61867 0.95419 0.0
H1046 H 0.80787 0.63903 0.87312 0.0
C1047 C 0.85652 0.58609 0.82508 0.0
C1048 C 0.40181 0.34761 0.84853 0.0
C1049 C 0.37818 0.36302 0.82346 0.0
H1050 H 0.42717 0.3413 0.91727 0.0
C1051 C 0.36172 0.38515 0.85069 0.0
H1052 H 0.41509 0.33051 0.82882 0.0
C1053 C 0.36887 0.39155 0.90226 0.0
C1054 C 0.39248 0.37581 0.92709 0.0
H1055 H 0.34353 0.39755 0.83217 0.0
H1056 H 0.35573 0.4084 0.92279 0.0
C1057 C 0.40886 0.35391 0.89946 0.0
C1058 C 0.38592 0.66401 0.64626 0.0
C1059 C 0.36937 0.64357 0.67656 0.0
H1060 H 0.40496 0.6741 0.57324 0.0
C1061 C 0.35755 0.6172 0.65364 0.0
H1062 H 0.39512 0.68467 0.66253 0.0
C1063 C 0.36338 0.61094 0.60153 0.0
C1064 C 0.38106 0.63102 0.57204 0.0
H1065 H 0.3448 0.60102 0.67628 0.0
H1066 H 0.35467 0.59023 0.58474 0.0
C1067 C 0.39169 0.65783 0.59487 0.0
C1068 C 0.08575 0.61482 0.39473 0.0
C1069 C 0.10819 0.60581 0.42972 0.0
H1070 H 0.0755 0.63002 0.31903 0.0
C1071 C 0.13809 0.60162 0.41224 0.0
H1072 H 0.06247 0.61793 0.40704 0.0
C1073 C 0.14574 0.6088 0.36117 0.0
C1074 C 0.12352 0.62032 0.32763 0.0
H1075 H 0.15583 0.59487 0.43873 0.0
H1076 H 0.16914 0.607 0.34891 0.0
C1077 C 0.09331 0.62201 0.34438 0.0
C1078 C 0.13763 0.33617 0.14693 0.0
C1079 C 0.14724 0.35848 0.18162 0.0
H1080 H 0.1226 0.32593 0.07117 0.0
C1081 C 0.15245 0.38813 0.16367 0.0
H1082 H 0.13374 0.31307 0.1596 0.0
C1083 C 0.1458 0.39569 0.11234 0.0
C1084 C 0.13384 0.37365 0.07896 0.0
H1085 H 0.15968 0.40577 0.18991 0.0
H1086 H 0.14849 0.41893 0.09964 0.0
C1087 C 0.131 0.34364 0.09631 0.0
loop_
_geom_bond_atom_site_label_1
_geom_bond_atom_site_label_2
_geom_bond_distance
_geom_bond_site_symmetry_2
_ccdc_geom_bond_type
O0 Cd1 2.223 . S
O0 C8 1.315 . S
Cd1 O0 2.223 . S
Cd1 O4 2.297 . S
Cd1 O5 2.439 . S
Cd1 O11 2.240 . S
Cd2 O3 2.240 . S
Cd2 O10 2.223 . S
Cd2 O12 2.297 . S
Cd2 O13 2.439 . S
O3 Cd2 2.240 . S
O3 C8 1.279 . S
O4 Cd1 2.297 . S
O4 C6 1.247 . S
O5 Cd1 2.439 . S
O5 C6 1.208 . S
C6 O4 1.247 . S
C6 O5 1.208 . S
C7 O12 1.247 . S
C7 O13 1.208 . S
C8 O0 1.315 . S
C8 O3 1.279 . S
C9 O10 1.315 . S
C9 O11 1.279 . S
O10 Cd2 2.223 . S
O10 C9 1.315 . S
O11 Cd1 2.240 . S
O11 C9 1.279 . S
O12 Cd2 2.297 . S
O12 C7 1.247 . S
O13 Cd2 2.439 . S
O13 C7 1.208 . S
O14 Cd15 2.223 . S
O14 C22 1.315 . S
Cd15 O14 2.223 . S
Cd15 O18 2.297 . S
Cd15 O19 2.439 . S
Cd15 O25 2.240 . S
Cd16 O17 2.240 . S
Cd16 O24 2.223 . S
Cd16 O26 2.297 . S
Cd16 O27 2.439 . S
O17 Cd16 2.240 . S
O17 C22 1.279 . S
O18 Cd15 2.297 . S
O18 C20 1.247 . S
O19 Cd15 2.439 . S
O19 C20 1.208 . S
C20 O18 1.247 . S
C20 O19 1.208 . S
C21 O26 1.247 . S
C21 O27 1.208 . S
C22 O14 1.315 . S
C22 O17 1.279 . S
C23 O24 1.315 . S
C23 O25 1.279 . S
O24 Cd16 2.223 . S
O24 C23 1.315 . S
O25 Cd15 2.240 . S
O25 C23 1.279 . S
O26 Cd16 2.297 . S
O26 C21 1.247 . S
O27 Cd16 2.439 . S
O27 C21 1.208 . S
O28 Cd29 2.223 . S
O28 C36 1.315 . S
Cd29 O28 2.223 . S
Cd29 O32 2.297 . S
Cd29 O33 2.439 . S
Cd29 O39 2.240 . S
Cd30 O31 2.240 . S
Cd30 O38 2.223 . S
Cd30 O40 2.297 1_556 S
Cd30 O41 2.439 . S
O31 Cd30 2.240 . S
O31 C36 1.279 . S
O32 Cd29 2.297 . S
O32 C34 1.247 . S
O33 Cd29 2.439 . S
O33 C34 1.208 . S
C34 O32 1.247 . S
C34 O33 1.208 . S
C35 O40 1.247 . S
C35 O41 1.208 1_554 S
C36 O28 1.315 . S
C36 O31 1.279 . S
C37 O38 1.315 . S
C37 O39 1.279 . S
O38 Cd30 2.223 . S
O38 C37 1.315 . S
O39 Cd29 2.240 . S
O39 C37 1.279 . S
O40 Cd30 2.297 1_554 S
O40 C35 1.247 . S
O41 Cd30 2.439 . S
O41 C35 1.208 1_556 S
O42 Cd43 2.223 . S
O42 C50 1.315 . S
Cd43 O42 2.223 . S
Cd43 O46 2.297 . S
Cd43 O47 2.439 . S
Cd43 O53 2.240 . S
Cd44 O45 2.240 . S
Cd44 O52 2.223 . S
Cd44 O54 2.297 . S
Cd44 O55 2.439 . S
O45 Cd44 2.240 . S
O45 C50 1.279 . S
O46 Cd43 2.297 . S
O46 C48 1.247 . S
O47 Cd43 2.439 . S
O47 C48 1.208 . S
C48 O46 1.247 . S
C48 O47 1.208 . S
C49 O54 1.247 . S
C49 O55 1.208 . S
C50 O42 1.315 . S
C50 O45 1.279 . S
C51 O52 1.315 . S
C51 O53 1.279 . S
O52 Cd44 2.223 . S
O52 C51 1.315 . S
O53 Cd43 2.240 . S
O53 C51 1.279 . S
O54 Cd44 2.297 . S
O54 C49 1.247 . S
O55 Cd44 2.439 . S
O55 C49 1.208 . S
O56 Cd57 2.223 . S
O56 C64 1.315 . S
Cd57 O56 2.223 . S
Cd57 O60 2.297 . S
Cd57 O61 2.439 . S
Cd57 O67 2.240 . S
Cd58 O59 2.240 . S
Cd58 O66 2.223 . S
Cd58 O68 2.297 1_554 S
Cd58 O69 2.439 . S
O59 Cd58 2.240 . S
O59 C64 1.279 . S
O60 Cd57 2.297 . S
O60 C62 1.247 . S
O61 Cd57 2.439 . S
O61 C62 1.208 . S
C62 O60 1.247 . S
C62 O61 1.208 . S
C63 O68 1.247 . S
C63 O69 1.208 1_556 S
C64 O56 1.315 . S
C64 O59 1.279 . S
C65 O66 1.315 . S
C65 O67 1.279 . S
O66 Cd58 2.223 . S
O66 C65 1.315 . S
O67 Cd57 2.240 . S
O67 C65 1.279 . S
O68 Cd58 2.297 1_556 S
O68 C63 1.247 . S
O69 Cd58 2.439 . S
O69 C63 1.208 1_554 S
O70 Cd71 2.223 . S
O70 C78 1.315 . S
Cd71 O70 2.223 . S
Cd71 O74 2.297 . S
Cd71 O75 2.439 . S
Cd71 O81 2.240 . S
Cd72 O73 2.240 . S
Cd72 O80 2.223 . S
Cd72 O82 2.297 . S
Cd72 O83 2.439 . S
O73 Cd72 2.240 . S
O73 C78 1.279 . S
O74 Cd71 2.297 . S
O74 C76 1.247 . S
O75 Cd71 2.439 . S
O75 C76 1.208 . S
C76 O74 1.247 . S
C76 O75 1.208 . S
C77 O82 1.247 . S
C77 O83 1.208 . S
C78 O70 1.315 . S
C78 O73 1.279 . S
C79 O80 1.315 . S
C79 O81 1.279 . S
O80 Cd72 2.223 . S
O80 C79 1.315 . S
O81 Cd71 2.240 . S
O81 C79 1.279 . S
O82 Cd72 2.297 . S
O82 C77 1.247 . S
O83 Cd72 2.439 . S
O83 C77 1.208 . S
O84 Cd85 2.223 . S
O84 C92 1.315 . S
Cd85 O84 2.223 . S
Cd85 O88 2.297 . S
Cd85 O89 2.439 . S
Cd85 O95 2.240 . S
Cd86 O87 2.240 . S
Cd86 O94 2.223 . S
Cd86 O96 2.297 . S
Cd86 O97 2.439 . S
O87 Cd86 2.240 . S
O87 C92 1.279 . S
O88 Cd85 2.297 . S
O88 C90 1.247 . S
O89 Cd85 2.439 . S
O89 C90 1.208 . S
C90 O88 1.247 . S
C90 O89 1.208 . S
C91 O96 1.247 . S
C91 O97 1.208 . S
C92 O84 1.315 . S
C92 O87 1.279 . S
C93 O94 1.315 . S
C93 O95 1.279 . S
O94 Cd86 2.223 . S
O94 C93 1.315 . S
O95 Cd85 2.240 . S
O95 C93 1.279 . S
O96 Cd86 2.297 . S
O96 C91 1.247 . S
O97 Cd86 2.439 . S
O97 C91 1.208 . S
O98 Cd99 2.223 . S
O98 C106 1.315 . S
Cd99 O98 2.223 . S
Cd99 O102 2.297 . S
Cd99 O103 2.439 . S
Cd99 O109 2.240 . S
Cd100 O101 2.240 . S
Cd100 O108 2.223 . S
Cd100 O110 2.297 . S
Cd100 O111 2.439 . S
O101 Cd100 2.240 . S
O101 C106 1.279 . S
O102 Cd99 2.297 . S
O102 C104 1.247 . S
O103 Cd99 2.439 . S
O103 C104 1.208 . S
C104 O102 1.247 . S
C104 O103 1.208 . S
C105 O110 1.247 . S
C105 O111 1.208 . S
C106 O98 1.315 . S
C106 O101 1.279 . S
C107 O108 1.315 . S
C107 O109 1.279 . S
O108 Cd100 2.223 . S
O108 C107 1.315 . S
O109 Cd99 2.240 . S
O109 C107 1.279 . S
O110 Cd100 2.297 . S
O110 C105 1.247 . S
O111 Cd100 2.439 . S
O111 C105 1.208 . S
O112 Cd113 2.223 . S
O112 C120 1.315 . S
Cd113 O112 2.223 . S
Cd113 O116 2.297 . S
Cd113 O117 2.439 . S
Cd113 O123 2.240 . S
Cd114 O115 2.240 . S
Cd114 O122 2.223 . S
Cd114 O124 2.297 . S
Cd114 O125 2.439 . S
O115 Cd114 2.240 . S
O115 C120 1.279 . S
O116 Cd113 2.297 . S
O116 C118 1.247 . S
O117 Cd113 2.439 . S
O117 C118 1.208 . S
C118 O116 1.247 . S
C118 O117 1.208 . S
C119 O124 1.247 . S
C119 O125 1.208 . S
C120 O112 1.315 . S
C120 O115 1.279 . S
C121 O122 1.315 . S
C121 O123 1.279 . S
O122 Cd114 2.223 . S
O122 C121 1.315 . S
O123 Cd113 2.240 . S
O123 C121 1.279 . S
O124 Cd114 2.297 . S
O124 C119 1.247 . S
O125 Cd114 2.439 . S
O125 C119 1.208 . S
O126 Cd127 2.223 . S
O126 C134 1.315 . S
Cd127 O126 2.223 . S
Cd127 O130 2.297 . S
Cd127 O131 2.439 . S
Cd127 O137 2.240 . S
Cd128 O129 2.240 . S
Cd128 O136 2.223 . S
Cd128 O138 2.297 . S
Cd128 O139 2.439 . S
O129 Cd128 2.240 . S
O129 C134 1.279 . S
O130 Cd127 2.297 . S
O130 C132 1.247 . S
O131 Cd127 2.439 . S
O131 C132 1.208 . S
C132 O130 1.247 . S
C132 O131 1.208 . S
C133 O138 1.247 . S
C133 O139 1.208 . S
C134 O126 1.315 . S
C134 O129 1.279 . S
C135 O136 1.315 . S
C135 O137 1.279 . S
O136 Cd128 2.223 . S
O136 C135 1.315 . S
O137 Cd127 2.240 . S
O137 C135 1.279 . S
O138 Cd128 2.297 . S
O138 C133 1.247 . S
O139 Cd128 2.439 . S
O139 C133 1.208 . S
O140 Cd141 2.223 . S
O140 C148 1.315 . S
Cd141 O140 2.223 . S
Cd141 O144 2.297 . S
Cd141 O145 2.439 . S
Cd141 O151 2.240 . S
Cd142 O143 2.240 . S
Cd142 O150 2.223 . S
Cd142 O152 2.297 1_554 S
Cd142 O153 2.439 . S
O143 Cd142 2.240 . S
O143 C148 1.279 . S
O144 Cd141 2.297 . S
O144 C146 1.247 . S
O145 Cd141 2.439 . S
O145 C146 1.208 . S
C146 O144 1.247 . S
C146 O145 1.208 . S
C147 O152 1.247 . S
C147 O153 1.208 1_556 S
C148 O140 1.315 . S
C148 O143 1.279 . S
C149 O150 1.315 . S
C149 O151 1.279 . S
O150 Cd142 2.223 . S
O150 C149 1.315 . S
O151 Cd141 2.240 . S
O151 C149 1.279 . S
O152 Cd142 2.297 1_556 S
O152 C147 1.247 . S
O153 Cd142 2.439 . S
O153 C147 1.208 1_554 S
O154 Cd155 2.223 . S
O154 C162 1.315 . S
Cd155 O154 2.223 . S
Cd155 O158 2.297 . S
Cd155 O159 2.439 . S
Cd155 O165 2.240 . S
Cd156 O157 2.240 . S
Cd156 O164 2.223 . S
Cd156 O166 2.297 . S
Cd156 O167 2.439 . S
O157 Cd156 2.240 . S
O157 C162 1.279 . S
O158 Cd155 2.297 . S
O158 C160 1.247 . S
O159 Cd155 2.439 . S
O159 C160 1.208 . S
C160 O158 1.247 . S
C160 O159 1.208 . S
C161 O166 1.247 . S
C161 O167 1.208 . S
C162 O154 1.315 . S
C162 O157 1.279 . S
C163 O164 1.315 . S
C163 O165 1.279 . S
O164 Cd156 2.223 . S
O164 C163 1.315 . S
O165 Cd155 2.240 . S
O165 C163 1.279 . S
O166 Cd156 2.297 . S
O166 C161 1.247 . S
O167 Cd156 2.439 . S
O167 C161 1.208 . S
O168 Cd169 2.223 . S
O168 C176 1.315 . S
Cd169 O168 2.223 . S
Cd169 O172 2.297 . S
Cd169 O173 2.439 . S
Cd169 O179 2.240 . S
Cd170 O171 2.240 . S
Cd170 O178 2.223 . S
Cd170 O180 2.297 1_556 S
Cd170 O181 2.439 . S
O171 Cd170 2.240 . S
O171 C176 1.279 . S
O172 Cd169 2.297 . S
O172 C174 1.247 . S
O173 Cd169 2.439 . S
O173 C174 1.208 . S
C174 O172 1.247 . S
C174 O173 1.208 . S
C175 O180 1.247 . S
C175 O181 1.208 1_554 S
C176 O168 1.315 . S
C176 O171 1.279 . S
C177 O178 1.315 . S
C177 O179 1.279 . S
O178 Cd170 2.223 . S
O178 C177 1.315 . S
O179 Cd169 2.240 . S
O179 C177 1.279 . S
O180 Cd170 2.297 1_554 S
O180 C175 1.247 . S
O181 Cd170 2.439 . S
O181 C175 1.208 1_556 S
O182 Cd183 2.223 . S
O182 C190 1.315 . S
Cd183 O182 2.223 . S
Cd183 O186 2.297 . S
Cd183 O187 2.439 . S
Cd183 O193 2.240 . S
Cd184 O185 2.240 . S
Cd184 O192 2.223 . S
Cd184 O194 2.297 . S
Cd184 O195 2.439 . S
O185 Cd184 2.240 . S
O185 C190 1.279 . S
O186 Cd183 2.297 . S
O186 C188 1.247 . S
O187 Cd183 2.439 . S
O187 C188 1.208 . S
C188 O186 1.247 . S
C188 O187 1.208 . S
C189 O194 1.247 . S
C189 O195 1.208 . S
C190 O182 1.315 . S
C190 O185 1.279 . S
C191 O192 1.315 . S
C191 O193 1.279 . S
O192 Cd184 2.223 . S
O192 C191 1.315 . S
O193 Cd183 2.240 . S
O193 C191 1.279 . S
O194 Cd184 2.297 . S
O194 C189 1.247 . S
O195 Cd184 2.439 . S
O195 C189 1.208 . S
O196 Cd197 2.223 . S
O196 C204 1.315 . S
Cd197 O196 2.223 . S
Cd197 O200 2.297 . S
Cd197 O201 2.439 . S
Cd197 O207 2.240 . S
Cd198 O199 2.240 . S
Cd198 O206 2.223 . S
Cd198 O208 2.297 . S
Cd198 O209 2.439 . S
O199 Cd198 2.240 . S
O199 C204 1.279 . S
O200 Cd197 2.297 . S
O200 C202 1.247 . S
O201 Cd197 2.439 . S
O201 C202 1.208 . S
C202 O200 1.247 . S
C202 O201 1.208 . S
C203 O208 1.247 . S
C203 O209 1.208 . S
C204 O196 1.315 . S
C204 O199 1.279 . S
C205 O206 1.315 . S
C205 O207 1.279 . S
O206 Cd198 2.223 . S
O206 C205 1.315 . S
O207 Cd197 2.240 . S
O207 C205 1.279 . S
O208 Cd198 2.297 . S
O208 C203 1.247 . S
O209 Cd198 2.439 . S
O209 C203 1.208 . S
O210 Cd211 2.223 . S
O210 C218 1.315 . S
Cd211 O210 2.223 . S
Cd211 O214 2.297 . S
Cd211 O215 2.439 . S
Cd211 O221 2.240 . S
Cd212 O213 2.240 . S
Cd212 O220 2.223 . S
Cd212 O222 2.297 . S
Cd212 O223 2.439 . S
O213 Cd212 2.240 . S
O213 C218 1.279 . S
O214 Cd211 2.297 . S
O214 C216 1.247 . S
O215 Cd211 2.439 . S
O215 C216 1.208 . S
C216 O214 1.247 . S
C216 O215 1.208 . S
C217 O222 1.247 . S
C217 O223 1.208 . S
C218 O210 1.315 . S
C218 O213 1.279 . S
C219 O220 1.315 . S
C219 O221 1.279 . S
O220 Cd212 2.223 . S
O220 C219 1.315 . S
O221 Cd211 2.240 . S
O221 C219 1.279 . S
O222 Cd212 2.297 . S
O222 C217 1.247 . S
O223 Cd212 2.439 . S
O223 C217 1.208 . S
O224 Cd225 2.223 . S
O224 C232 1.315 . S
Cd225 O224 2.223 . S
Cd225 O228 2.297 . S
Cd225 O229 2.439 . S
Cd225 O235 2.240 . S
Cd226 O227 2.240 . S
Cd226 O234 2.223 . S
Cd226 O236 2.297 1_556 S
Cd226 O237 2.439 . S
O227 Cd226 2.240 . S
O227 C232 1.279 . S
O228 Cd225 2.297 . S
O228 C230 1.247 . S
O229 Cd225 2.439 . S
O229 C230 1.208 . S
C230 O228 1.247 . S
C230 O229 1.208 . S
C231 O236 1.247 . S
C231 O237 1.208 1_554 S
C232 O224 1.315 . S
C232 O227 1.279 . S
C233 O234 1.315 . S
C233 O235 1.279 . S
O234 Cd226 2.223 . S
O234 C233 1.315 . S
O235 Cd225 2.240 . S
O235 C233 1.279 . S
O236 Cd226 2.297 1_554 S
O236 C231 1.247 . S
O237 Cd226 2.439 . S
O237 C231 1.208 1_556 S
O238 Cd239 2.223 . S
O238 C246 1.315 . S
Cd239 O238 2.223 . S
Cd239 O242 2.297 . S
Cd239 O243 2.439 . S
Cd239 O249 2.240 . S
Cd240 O241 2.240 . S
Cd240 O248 2.223 . S
Cd240 O250 2.297 . S
Cd240 O251 2.439 . S
O241 Cd240 2.240 . S
O241 C246 1.279 . S
O242 Cd239 2.297 . S
O242 C244 1.247 . S
O243 Cd239 2.439 . S
O243 C244 1.208 . S
C244 O242 1.247 . S
C244 O243 1.208 . S
C245 O250 1.247 . S
C245 O251 1.208 . S
C246 O238 1.315 . S
C246 O241 1.279 . S
C247 O248 1.315 . S
C247 O249 1.279 . S
O248 Cd240 2.223 . S
O248 C247 1.315 . S
O249 Cd239 2.240 . S
O249 C247 1.279 . S
O250 Cd240 2.297 . S
O250 C245 1.247 . S
O251 Cd240 2.439 . S
O251 C245 1.208 . S
O252 Cd253 2.223 . S
O252 C260 1.315 . S
Cd253 O252 2.223 . S
Cd253 O256 2.297 . S
Cd253 O257 2.439 . S
Cd253 O263 2.240 . S
Cd254 O255 2.240 . S
Cd254 O262 2.223 . S
Cd254 O264 2.297 . S
Cd254 O265 2.439 . S
O255 Cd254 2.240 . S
O255 C260 1.279 . S
O256 Cd253 2.297 . S
O256 C258 1.247 . S
O257 Cd253 2.439 . S
O257 C258 1.208 . S
C258 O256 1.247 . S
C258 O257 1.208 . S
C259 O264 1.247 . S
C259 O265 1.208 . S
C260 O252 1.315 . S
C260 O255 1.279 . S
C261 O262 1.315 . S
C261 O263 1.279 . S
O262 Cd254 2.223 . S
O262 C261 1.315 . S
O263 Cd253 2.240 . S
O263 C261 1.279 . S
O264 Cd254 2.297 . S
O264 C259 1.247 . S
O265 Cd254 2.439 . S
O265 C259 1.208 . S
O266 Cd267 2.223 . S
O266 C274 1.315 . S
Cd267 O266 2.223 . S
Cd267 O270 2.297 . S
Cd267 O271 2.439 . S
Cd267 O277 2.240 . S
Cd268 O269 2.240 . S
Cd268 O276 2.223 . S
Cd268 O278 2.297 . S
Cd268 O279 2.439 . S
O269 Cd268 2.240 . S
O269 C274 1.279 . S
O270 Cd267 2.297 . S
O270 C272 1.247 . S
O271 Cd267 2.439 . S
O271 C272 1.208 . S
C272 O270 1.247 . S
C272 O271 1.208 . S
C273 O278 1.247 . S
C273 O279 1.208 . S
C274 O266 1.315 . S
C274 O269 1.279 . S
C275 O276 1.315 . S
C275 O277 1.279 . S
O276 Cd268 2.223 . S
O276 C275 1.315 . S
O277 Cd267 2.240 . S
O277 C275 1.279 . S
O278 Cd268 2.297 . S
O278 C273 1.247 . S
O279 Cd268 2.439 . S
O279 C273 1.208 . S
O280 Cd281 2.223 . S
O280 C288 1.315 . S
Cd281 O280 2.223 . S
Cd281 O284 2.297 . S
Cd281 O285 2.439 . S
Cd281 O291 2.240 . S
Cd282 O283 2.240 . S
Cd282 O290 2.223 . S
Cd282 O292 2.297 . S
Cd282 O293 2.439 . S
O283 Cd282 2.240 . S
O283 C288 1.279 . S
O284 Cd281 2.297 . S
O284 C286 1.247 . S
O285 Cd281 2.439 . S
O285 C286 1.208 . S
C286 O284 1.247 . S
C286 O285 1.208 . S
C287 O292 1.247 . S
C287 O293 1.208 . S
C288 O280 1.315 . S
C288 O283 1.279 . S
C289 O290 1.315 . S
C289 O291 1.279 . S
O290 Cd282 2.223 . S
O290 C289 1.315 . S
O291 Cd281 2.240 . S
O291 C289 1.279 . S
O292 Cd282 2.297 . S
O292 C287 1.247 . S
O293 Cd282 2.439 . S
O293 C287 1.208 . S
O294 Cd295 2.223 . S
O294 C302 1.315 . S
Cd295 O294 2.223 . S
Cd295 O298 2.297 . S
Cd295 O299 2.439 . S
Cd295 O305 2.240 . S
Cd296 O297 2.240 . S
Cd296 O304 2.223 . S
Cd296 O306 2.297 . S
Cd296 O307 2.439 . S
O297 Cd296 2.240 . S
O297 C302 1.279 . S
O298 Cd295 2.297 . S
O298 C300 1.247 . S
O299 Cd295 2.439 . S
O299 C300 1.208 . S
C300 O298 1.247 . S
C300 O299 1.208 . S
C301 O306 1.247 . S
C301 O307 1.208 . S
C302 O294 1.315 . S
C302 O297 1.279 . S
C303 O304 1.315 . S
C303 O305 1.279 . S
O304 Cd296 2.223 . S
O304 C303 1.315 . S
O305 Cd295 2.240 . S
O305 C303 1.279 . S
O306 Cd296 2.297 . S
O306 C301 1.247 . S
O307 Cd296 2.439 . S
O307 C301 1.208 . S
O308 Cd309 2.223 . S
O308 C316 1.315 . S
Cd309 O308 2.223 . S
Cd309 O312 2.297 . S
Cd309 O313 2.439 . S
Cd309 O319 2.240 . S
Cd310 O311 2.240 . S
Cd310 O318 2.223 . S
Cd310 O320 2.297 1_554 S
Cd310 O321 2.439 . S
O311 Cd310 2.240 . S
O311 C316 1.279 . S
O312 Cd309 2.297 . S
O312 C314 1.247 . S
O313 Cd309 2.439 . S
O313 C314 1.208 . S
C314 O312 1.247 . S
C314 O313 1.208 . S
C315 O320 1.247 . S
C315 O321 1.208 1_556 S
C316 O308 1.315 . S
C316 O311 1.279 . S
C317 O318 1.315 . S
C317 O319 1.279 . S
O318 Cd310 2.223 . S
O318 C317 1.315 . S
O319 Cd309 2.240 . S
O319 C317 1.279 . S
O320 Cd310 2.297 1_556 S
O320 C315 1.247 . S
O321 Cd310 2.439 . S
O321 C315 1.208 1_554 S
O322 Cd323 2.223 . S
O322 C330 1.315 . S
Cd323 O322 2.223 . S
Cd323 O326 2.297 . S
Cd323 O327 2.439 . S
Cd323 O333 2.240 . S
Cd324 O325 2.240 . S
Cd324 O332 2.223 . S
Cd324 O334 2.297 . S
Cd324 O335 2.439 . S
O325 Cd324 2.240 . S
O325 C330 1.279 . S
O326 Cd323 2.297 . S
O326 C328 1.247 . S
O327 Cd323 2.439 . S
O327 C328 1.208 . S
C328 O326 1.247 . S
C328 O327 1.208 . S
C329 O334 1.247 . S
C329 O335 1.208 . S
C330 O322 1.315 . S
C330 O325 1.279 . S
C331 O332 1.315 . S
C331 O333 1.279 . S
O332 Cd324 2.223 . S
O332 C331 1.315 . S
O333 Cd323 2.240 . S
O333 C331 1.279 . S
O334 Cd324 2.297 . S
O334 C329 1.247 . S
O335 Cd324 2.439 . S
O335 C329 1.208 . S
O336 Cd337 2.223 . S
O336 C344 1.315 . S
Cd337 O336 2.223 . S
Cd337 O340 2.297 . S
Cd337 O341 2.439 . S
Cd337 O347 2.240 . S
Cd338 O339 2.240 . S
Cd338 O346 2.223 . S
Cd338 O348 2.297 1_554 S
Cd338 O349 2.439 . S
O339 Cd338 2.240 . S
O339 C344 1.279 . S
O340 Cd337 2.297 . S
O340 C342 1.247 . S
O341 Cd337 2.439 . S
O341 C342 1.208 . S
C342 O340 1.247 . S
C342 O341 1.208 . S
C343 O348 1.247 . S
C343 O349 1.208 1_556 S
C344 O336 1.315 . S
C344 O339 1.279 . S
C345 O346 1.315 . S
C345 O347 1.279 . S
O346 Cd338 2.223 . S
O346 C345 1.315 . S
O347 Cd337 2.240 . S
O347 C345 1.279 . S
O348 Cd338 2.297 1_556 S
O348 C343 1.247 . S
O349 Cd338 2.439 . S
O349 C343 1.208 1_554 S
O350 Cd351 2.223 . S
O350 C358 1.315 . S
Cd351 O350 2.223 . S
Cd351 O354 2.297 . S
Cd351 O355 2.439 . S
Cd351 O361 2.240 . S
Cd352 O353 2.240 . S
Cd352 O360 2.223 . S
Cd352 O362 2.297 . S
Cd352 O363 2.439 . S
O353 Cd352 2.240 . S
O353 C358 1.279 . S
O354 Cd351 2.297 . S
O354 C356 1.247 . S
O355 Cd351 2.439 . S
O355 C356 1.208 . S
C356 O354 1.247 . S
C356 O355 1.208 . S
C357 O362 1.247 . S
C357 O363 1.208 . S
C358 O350 1.315 . S
C358 O353 1.279 . S
C359 O360 1.315 . S
C359 O361 1.279 . S
O360 Cd352 2.223 . S
O360 C359 1.315 . S
O361 Cd351 2.240 . S
O361 C359 1.279 . S
O362 Cd352 2.297 . S
O362 C357 1.247 . S
O363 Cd352 2.439 . S
O363 C357 1.208 . S
O364 Cd365 2.223 . S
O364 C372 1.315 . S
Cd365 O364 2.223 . S
Cd365 O368 2.297 . S
Cd365 O369 2.439 . S
Cd365 O375 2.240 . S
Cd366 O367 2.240 . S
Cd366 O374 2.223 . S
Cd366 O376 2.297 . S
Cd366 O377 2.439 . S
O367 Cd366 2.240 . S
O367 C372 1.279 . S
O368 Cd365 2.297 . S
O368 C370 1.247 . S
O369 Cd365 2.439 . S
O369 C370 1.208 . S
C370 O368 1.247 . S
C370 O369 1.208 . S
C371 O376 1.247 . S
C371 O377 1.208 . S
C372 O364 1.315 . S
C372 O367 1.279 . S
C373 O374 1.315 . S
C373 O375 1.279 . S
O374 Cd366 2.223 . S
O374 C373 1.315 . S
O375 Cd365 2.240 . S
O375 C373 1.279 . S
O376 Cd366 2.297 . S
O376 C371 1.247 . S
O377 Cd366 2.439 . S
O377 C371 1.208 . S
O378 Cd379 2.223 . S
O378 C386 1.315 . S
Cd379 O378 2.223 . S
Cd379 O382 2.297 . S
Cd379 O383 2.439 . S
Cd379 O389 2.240 . S
Cd380 O381 2.240 . S
Cd380 O388 2.223 . S
Cd380 O390 2.297 . S
Cd380 O391 2.439 . S
O381 Cd380 2.240 . S
O381 C386 1.279 . S
O382 Cd379 2.297 . S
O382 C384 1.247 . S
O383 Cd379 2.439 . S
O383 C384 1.208 . S
C384 O382 1.247 . S
C384 O383 1.208 . S
C385 O390 1.247 . S
C385 O391 1.208 . S
C386 O378 1.315 . S
C386 O381 1.279 . S
C387 O388 1.315 . S
C387 O389 1.279 . S
O388 Cd380 2.223 . S
O388 C387 1.315 . S
O389 Cd379 2.240 . S
O389 C387 1.279 . S
O390 Cd380 2.297 . S
O390 C385 1.247 . S
O391 Cd380 2.439 . S
O391 C385 1.208 . S
O392 Cd393 2.223 . S
O392 C400 1.315 . S
Cd393 O392 2.223 . S
Cd393 O396 2.297 . S
Cd393 O397 2.439 . S
Cd393 O403 2.240 . S
Cd394 O395 2.240 . S
Cd394 O402 2.223 . S
Cd394 O404 2.297 . S
Cd394 O405 2.439 . S
O395 Cd394 2.240 . S
O395 C400 1.279 . S
O396 Cd393 2.297 . S
O396 C398 1.247 . S
O397 Cd393 2.439 . S
O397 C398 1.208 . S
C398 O396 1.247 . S
C398 O397 1.208 . S
C399 O404 1.247 . S
C399 O405 1.208 . S
C400 O392 1.315 . S
C400 O395 1.279 . S
C401 O402 1.315 . S
C401 O403 1.279 . S
O402 Cd394 2.223 . S
O402 C401 1.315 . S
O403 Cd393 2.240 . S
O403 C401 1.279 . S
O404 Cd394 2.297 . S
O404 C399 1.247 . S
O405 Cd394 2.439 . S
O405 C399 1.208 . S
O406 Cd407 2.223 . S
O406 C414 1.315 . S
Cd407 O406 2.223 . S
Cd407 O410 2.297 . S
Cd407 O411 2.439 . S
Cd407 O417 2.240 . S
Cd408 O409 2.240 . S
Cd408 O416 2.223 . S
Cd408 O418 2.297 . S
Cd408 O419 2.439 . S
O409 Cd408 2.240 . S
O409 C414 1.279 . S
O410 Cd407 2.297 . S
O410 C412 1.247 . S
O411 Cd407 2.439 . S
O411 C412 1.208 . S
C412 O410 1.247 . S
C412 O411 1.208 . S
C413 O418 1.247 . S
C413 O419 1.208 . S
C414 O406 1.315 . S
C414 O409 1.279 . S
C415 O416 1.315 . S
C415 O417 1.279 . S
O416 Cd408 2.223 . S
O416 C415 1.315 . S
O417 Cd407 2.240 . S
O417 C415 1.279 . S
O418 Cd408 2.297 . S
O418 C413 1.247 . S
O419 Cd408 2.439 . S
O419 C413 1.208 . S
O420 Cd421 2.223 . S
O420 C428 1.315 . S
Cd421 O420 2.223 . S
Cd421 O424 2.297 . S
Cd421 O425 2.439 . S
Cd421 O431 2.240 . S
Cd422 O423 2.240 . S
Cd422 O430 2.223 . S
Cd422 O432 2.297 1_556 S
Cd422 O433 2.439 . S
O423 Cd422 2.240 . S
O423 C428 1.279 . S
O424 Cd421 2.297 . S
O424 C426 1.247 . S
O425 Cd421 2.439 . S
O425 C426 1.208 . S
C426 O424 1.247 . S
C426 O425 1.208 . S
C427 O432 1.247 . S
C427 O433 1.208 1_554 S
C428 O420 1.315 . S
C428 O423 1.279 . S
C429 O430 1.315 . S
C429 O431 1.279 . S
O430 Cd422 2.223 . S
O430 C429 1.315 . S
O431 Cd421 2.240 . S
O431 C429 1.279 . S
O432 Cd422 2.297 1_554 S
O432 C427 1.247 . S
O433 Cd422 2.439 . S
O433 C427 1.208 1_556 S
O434 Cd435 2.223 . S
O434 C442 1.315 . S
Cd435 O434 2.223 . S
Cd435 O438 2.297 . S
Cd435 O439 2.439 . S
Cd435 O445 2.240 . S
Cd436 O437 2.240 . S
Cd436 O444 2.223 . S
Cd436 O446 2.297 . S
Cd436 O447 2.439 . S
O437 Cd436 2.240 . S
O437 C442 1.279 . S
O438 Cd435 2.297 . S
O438 C440 1.247 . S
O439 Cd435 2.439 . S
O439 C440 1.208 . S
C440 O438 1.247 . S
C440 O439 1.208 . S
C441 O446 1.247 . S
C441 O447 1.208 . S
C442 O434 1.315 . S
C442 O437 1.279 . S
C443 O444 1.315 . S
C443 O445 1.279 . S
O444 Cd436 2.223 . S
O444 C443 1.315 . S
O445 Cd435 2.240 . S
O445 C443 1.279 . S
O446 Cd436 2.297 . S
O446 C441 1.247 . S
O447 Cd436 2.439 . S
O447 C441 1.208 . S
C448 C449 1.387 . S
C448 H452 0.950 . S
C448 C457 1.390 1_545 S
C449 C448 1.387 . S
C449 C451 1.387 . S
H450 C457 0.950 . S
C451 C449 1.387 . S
C451 C453 1.390 1_545 S
C451 H455 0.950 . S
H452 C448 0.950 . S
C453 C451 1.390 1_565 S
C453 C454 1.387 . S
C453 H456 0.950 . S
C454 C453 1.387 . S
C454 C457 1.387 . S
H455 C451 0.950 . S
H456 C453 0.950 . S
C457 C448 1.390 1_565 S
C457 H450 0.950 . S
C457 C454 1.387 . S
C458 C459 1.387 . S
C458 H462 0.950 . S
C458 C467 1.390 . S
C459 C458 1.387 . S
C459 C461 1.387 . S
H460 C467 0.950 . S
C461 C459 1.387 . S
C461 C463 1.390 . S
C461 H465 0.950 . S
H462 C458 0.950 . S
C463 C461 1.390 . S
C463 C464 1.387 . S
C463 H466 0.950 . S
C464 C463 1.387 . S
C464 C467 1.387 . S
H465 C461 0.950 . S
H466 C463 0.950 . S
C467 C458 1.390 . S
C467 H460 0.950 . S
C467 C464 1.387 . S
C468 C469 1.387 . S
C468 H472 0.950 . S
C468 C477 1.390 1_545 S
C469 C468 1.387 . S
C469 C471 1.387 . S
H470 C477 0.950 . S
C471 C469 1.387 . S
C471 C473 1.390 1_545 S
C471 H475 0.950 . S
H472 C468 0.950 . S
C473 C471 1.390 1_565 S
C473 C474 1.387 . S
C473 H476 0.950 . S
C474 C473 1.387 . S
C474 C477 1.387 . S
H475 C471 0.950 . S
H476 C473 0.950 . S
C477 C468 1.390 1_565 S
C477 H470 0.950 . S
C477 C474 1.387 . S
C478 C479 1.387 . S
C478 H482 0.950 . S
C478 C487 1.390 1_556 S
C479 C478 1.387 . S
C479 C481 1.387 . S
H480 C487 0.950 . S
C481 C479 1.387 . S
C481 C483 1.390 1_556 S
C481 H485 0.950 . S
H482 C478 0.950 . S
C483 C481 1.390 1_554 S
C483 C484 1.387 . S
C483 H486 0.950 . S
C484 C483 1.387 . S
C484 C487 1.387 . S
H485 C481 0.950 . S
H486 C483 0.950 . S
C487 C478 1.390 1_554 S
C487 H480 0.950 . S
C487 C484 1.387 . S
C488 C489 1.387 . S
C488 H492 0.950 . S
C488 C497 1.390 1_565 S
C489 C488 1.387 . S
C489 C491 1.387 . S
H490 C497 0.950 . S
C491 C489 1.387 . S
C491 C493 1.390 1_565 S
C491 H495 0.950 . S
H492 C488 0.950 . S
C493 C491 1.390 1_545 S
C493 C494 1.387 . S
C493 H496 0.950 . S
C494 C493 1.387 . S
C494 C497 1.387 . S
H495 C491 0.950 . S
H496 C493 0.950 . S
C497 C488 1.390 1_545 S
C497 H490 0.950 . S
C497 C494 1.387 . S
C498 C499 1.387 . S
C498 H502 0.950 . S
C498 C507 1.390 . S
C499 C498 1.387 . S
C499 C501 1.387 . S
H500 C507 0.950 . S
C501 C499 1.387 . S
C501 C503 1.390 . S
C501 H505 0.950 . S
H502 C498 0.950 . S
C503 C501 1.390 . S
C503 C504 1.387 . S
C503 H506 0.950 . S
C504 C503 1.387 . S
C504 C507 1.387 . S
H505 C501 0.950 . S
H506 C503 0.950 . S
C507 C498 1.390 . S
C507 H500 0.950 . S
C507 C504 1.387 . S
C508 C509 1.387 . S
C508 H512 0.950 . S
C508 C517 1.390 1_565 S
C509 C508 1.387 . S
C509 C511 1.387 . S
H510 C517 0.950 . S
C511 C509 1.387 . S
C511 C513 1.390 1_565 S
C511 H515 0.950 . S
H512 C508 0.950 . S
C513 C511 1.390 1_545 S
C513 C514 1.387 . S
C513 H516 0.950 . S
C514 C513 1.387 . S
C514 C517 1.387 . S
H515 C511 0.950 . S
H516 C513 0.950 . S
C517 C508 1.390 1_545 S
C517 H510 0.950 . S
C517 C514 1.387 . S
C518 C519 1.387 . S
C518 H522 0.950 . S
C518 C527 1.390 1_556 S
C519 C518 1.387 . S
C519 C521 1.387 . S
H520 C527 0.950 . S
C521 C519 1.387 . S
C521 C523 1.390 1_556 S
C521 H525 0.950 . S
H522 C518 0.950 . S
C523 C521 1.390 1_554 S
C523 C524 1.387 . S
C523 H526 0.950 . S
C524 C523 1.387 . S
C524 C527 1.387 . S
H525 C521 0.950 . S
H526 C523 0.950 . S
C527 C518 1.390 1_554 S
C527 H520 0.950 . S
C527 C524 1.387 . S
C528 C529 1.387 . S
C528 H532 0.950 . S
C528 C537 1.390 . S
C529 C528 1.387 . S
C529 C531 1.387 . S
H530 C537 0.950 . S
C531 C529 1.387 . S
C531 C533 1.390 . S
C531 H535 0.950 . S
H532 C528 0.950 . S
C533 C531 1.390 . S
C533 C534 1.387 . S
C533 H536 0.950 . S
C534 C533 1.387 . S
C534 C537 1.387 . S
H535 C531 0.950 . S
H536 C533 0.950 . S
C537 C528 1.390 . S
C537 H530 0.950 . S
C537 C534 1.387 . S
C538 C539 1.387 . S
C538 H542 0.950 . S
C538 C547 1.390 1_556 S
C539 C538 1.387 . S
C539 C541 1.387 . S
H540 C547 0.950 . S
C541 C539 1.387 . S
C541 C543 1.390 1_556 S
C541 H545 0.950 . S
H542 C538 0.950 . S
C543 C541 1.390 1_554 S
C543 C544 1.387 . S
C543 H546 0.950 . S
C544 C543 1.387 . S
C544 C547 1.387 . S
H545 C541 0.950 . S
H546 C543 0.950 . S
C547 C538 1.390 1_554 S
C547 H540 0.950 . S
C547 C544 1.387 . S
C548 C549 1.387 . S
C548 H552 0.950 . S
C548 C557 1.390 . S
C549 C548 1.387 . S
C549 C551 1.387 . S
H550 C557 0.950 . S
C551 C549 1.387 . S
C551 C553 1.390 . S
C551 H555 0.950 . S
H552 C548 0.950 . S
C553 C551 1.390 . S
C553 C554 1.387 . S
C553 H556 0.950 . S
C554 C553 1.387 . S
C554 C557 1.387 . S
H555 C551 0.950 . S
H556 C553 0.950 . S
C557 C548 1.390 . S
C557 H550 0.950 . S
C557 C554 1.387 . S
C558 C559 1.387 . S
C558 H562 0.950 . S
C558 C567 1.390 . S
C559 C558 1.387 . S
C559 C561 1.387 . S
H560 C567 0.950 . S
C561 C559 1.387 . S
C561 C563 1.390 . S
C561 H565 0.950 . S
H562 C558 0.950 . S
C563 C561 1.390 . S
C563 C564 1.387 . S
C563 H566 0.950 . S
C564 C563 1.387 . S
C564 C567 1.387 . S
H565 C561 0.950 . S
H566 C563 0.950 . S
C567 C558 1.390 . S
C567 H560 0.950 . S
C567 C564 1.387 . S
C568 C569 1.387 . S
C568 H572 0.950 . S
C568 C577 1.390 . S
C569 C568 1.387 . S
C569 C571 1.387 . S
H570 C577 0.950 . S
C571 C569 1.387 . S
C571 C573 1.390 . S
C571 H575 0.950 . S
H572 C568 0.950 . S
C573 C571 1.390 . S
C573 C574 1.387 . S
C573 H576 0.950 . S
C574 C573 1.387 . S
C574 C577 1.387 . S
H575 C571 0.950 . S
H576 C573 0.950 . S
C577 C568 1.390 . S
C577 H570 0.950 . S
C577 C574 1.387 . S
C578 C579 1.387 . S
C578 H582 0.950 . S
C578 C587 1.390 1_554 S
C579 C578 1.387 . S
C579 C581 1.387 . S
H580 C587 0.950 . S
C581 C579 1.387 . S
C581 C583 1.390 1_554 S
C581 H585 0.950 . S
H582 C578 0.950 . S
C583 C581 1.390 1_556 S
C583 C584 1.387 . S
C583 H586 0.950 . S
C584 C583 1.387 . S
C584 C587 1.387 . S
H585 C581 0.950 . S
H586 C583 0.950 . S
C587 C578 1.390 1_556 S
C587 H580 0.950 . S
C587 C584 1.387 . S
C588 C589 1.387 . S
C588 H592 0.950 . S
C588 C597 1.390 . S
C589 C588 1.387 . S
C589 C591 1.387 . S
H590 C597 0.950 . S
C591 C589 1.387 . S
C591 C593 1.390 . S
C591 H595 0.950 . S
H592 C588 0.950 . S
C593 C591 1.390 . S
C593 C594 1.387 . S
C593 H596 0.950 . S
C594 C593 1.387 . S
C594 C597 1.387 . S
H595 C591 0.950 . S
H596 C593 0.950 . S
C597 C588 1.390 . S
C597 H590 0.950 . S
C597 C594 1.387 . S
C598 C599 1.387 . S
C598 H602 0.950 . S
C598 C607 1.390 . S
C599 C598 1.387 . S
C599 C601 1.387 . S
H600 C607 0.950 . S
C601 C599 1.387 . S
C601 C603 1.390 . S
C601 H605 0.950 . S
H602 C598 0.950 . S
C603 C601 1.390 . S
C603 C604 1.387 . S
C603 H606 0.950 . S
C604 C603 1.387 . S
C604 C607 1.387 . S
H605 C601 0.950 . S
H606 C603 0.950 . S
C607 C598 1.390 . S
C607 H600 0.950 . S
C607 C604 1.387 . S
C608 C609 1.387 . S
C608 H612 0.950 . S
C608 C617 1.390 . S
C609 C608 1.387 . S
C609 C611 1.387 . S
H610 C617 0.950 . S
C611 C609 1.387 . S
C611 C613 1.390 . S
C611 H615 0.950 . S
H612 C608 0.950 . S
C613 C611 1.390 . S
C613 C614 1.387 . S
C613 H616 0.950 . S
C614 C613 1.387 . S
C614 C617 1.387 . S
H615 C611 0.950 . S
H616 C613 0.950 . S
C617 C608 1.390 . S
C617 H610 0.950 . S
C617 C614 1.387 . S
C618 C619 1.373 1_455 S
C618 H622 0.933 1_455 S
C618 C627 1.422 . S
C619 C618 1.373 1_655 S
C619 C621 1.387 1_655 S
H620 C627 0.950 . S
C621 C619 1.387 1_455 S
C621 C623 1.390 . S
C621 H625 0.950 1_455 S
H622 C618 0.933 1_655 S
C623 C621 1.390 . S
C623 C624 1.387 . S
C623 H626 0.950 . S
C624 C623 1.387 . S
C624 C627 1.387 . S
H625 C621 0.950 1_655 S
H626 C623 0.950 . S
C627 C618 1.422 . S
C627 H620 0.950 . S
C627 C624 1.387 . S
C628 C629 1.387 . S
C628 H632 0.950 . S
C628 C637 1.390 . S
C629 C628 1.387 . S
C629 C631 1.387 . S
H630 C637 0.950 . S
C631 C629 1.387 . S
C631 C633 1.390 . S
C631 H635 0.950 . S
H632 C628 0.950 . S
C633 C631 1.390 . S
C633 C634 1.387 . S
C633 H636 0.950 . S
C634 C633 1.387 . S
C634 C637 1.387 . S
H635 C631 0.950 . S
H636 C633 0.950 . S
C637 C628 1.390 . S
C637 H630 0.950 . S
C637 C634 1.387 . S
C638 C639 1.387 . S
C638 H642 0.950 . S
C638 C647 1.390 . S
C639 C638 1.387 . S
C639 C641 1.387 . S
H640 C647 0.950 . S
C641 C639 1.387 . S
C641 C643 1.390 . S
C641 H645 0.950 . S
H642 C638 0.950 . S
C643 C641 1.390 . S
C643 C644 1.387 . S
C643 H646 0.950 . S
C644 C643 1.387 . S
C644 C647 1.387 . S
H645 C641 0.950 . S
H646 C643 0.950 . S
C647 C638 1.390 . S
C647 H640 0.950 . S
C647 C644 1.387 . S
C648 C649 1.387 . S
C648 H652 0.950 . S
C648 C657 1.390 . S
C649 C648 1.387 . S
C649 C651 1.387 . S
H650 C657 0.950 . S
C651 C649 1.387 . S
C651 C653 1.390 . S
C651 H655 0.950 . S
H652 C648 0.950 . S
C653 C651 1.390 . S
C653 C654 1.387 . S
C653 H656 0.950 . S
C654 C653 1.387 . S
C654 C657 1.387 . S
H655 C651 0.950 . S
H656 C653 0.950 . S
C657 C648 1.390 . S
C657 H650 0.950 . S
C657 C654 1.387 . S
C658 C659 1.387 . S
C658 H662 0.950 . S
C658 C667 1.390 . S
C659 C658 1.387 . S
C659 C661 1.387 . S
H660 C667 0.950 . S
C661 C659 1.387 . S
C661 C663 1.390 . S
C661 H665 0.950 . S
H662 C658 0.950 . S
C663 C661 1.390 . S
C663 C664 1.387 . S
C663 H666 0.950 . S
C664 C663 1.387 . S
C664 C667 1.387 . S
H665 C661 0.950 . S
H666 C663 0.950 . S
C667 C658 1.390 . S
C667 H660 0.950 . S
C667 C664 1.387 . S
C668 C669 1.387 . S
C668 H672 0.950 . S
C668 C677 1.390 . S
C669 C668 1.387 . S
C669 C671 1.387 . S
H670 C677 0.950 . S
C671 C669 1.387 . S
C671 C673 1.390 . S
C671 H675 0.950 . S
H672 C668 0.950 . S
C673 C671 1.390 . S
C673 C674 1.387 . S
C673 H676 0.950 . S
C674 C673 1.387 . S
C674 C677 1.387 . S
H675 C671 0.950 . S
H676 C673 0.950 . S
C677 C668 1.390 . S
C677 H670 0.950 . S
C677 C674 1.387 . S
C678 C679 1.387 . S
C678 H682 0.950 . S
C678 C687 1.390 . S
C679 C678 1.387 . S
C679 C681 1.387 . S
H680 C687 0.950 1_655 S
C681 C679 1.387 . S
C681 C683 1.390 . S
C681 H685 0.950 . S
H682 C678 0.950 . S
C683 C681 1.390 . S
C683 C684 1.387 1_455 S
C683 H686 0.950 1_455 S
C684 C683 1.387 1_655 S
C684 C687 1.387 1_655 S
H685 C681 0.950 . S
H686 C683 0.950 1_655 S
C687 C678 1.390 . S
C687 H680 0.950 1_455 S
C687 C684 1.387 1_455 S
C688 C689 1.387 . S
C688 H692 0.950 . S
C688 C697 1.390 . S
C689 C688 1.387 . S
C689 C691 1.387 . S
H690 C697 0.950 . S
C691 C689 1.387 . S
C691 C693 1.390 . S
C691 H695 0.950 . S
H692 C688 0.950 . S
C693 C691 1.390 . S
C693 C694 1.387 . S
C693 H696 0.950 . S
C694 C693 1.387 . S
C694 C697 1.387 . S
H695 C691 0.950 . S
H696 C693 0.950 . S
C697 C688 1.390 . S
C697 H690 0.950 . S
C697 C694 1.387 . S
C698 C699 1.387 . S
C698 H702 0.950 . S
C698 C707 1.390 . S
C699 C698 1.387 . S
C699 C701 1.387 . S
H700 C707 0.950 1_455 S
C701 C699 1.387 . S
C701 C703 1.390 . S
C701 H705 0.950 . S
H702 C698 0.950 . S
C703 C701 1.390 . S
C703 C704 1.387 1_655 S
C703 H706 0.950 1_655 S
C704 C703 1.387 1_455 S
C704 C707 1.387 1_455 S
H705 C701 0.950 . S
H706 C703 0.950 1_455 S
C707 C698 1.390 . S
C707 H700 0.950 1_655 S
C707 C704 1.387 1_655 S
C708 C709 1.387 . S
C708 H712 0.950 . S
C708 C717 1.390 . S
C709 C708 1.387 . S
C709 C711 1.387 . S
H710 C717 0.950 . S
C711 C709 1.387 . S
C711 C713 1.390 . S
C711 H715 0.950 . S
H712 C708 0.950 . S
C713 C711 1.390 . S
C713 C714 1.387 . S
C713 H716 0.950 . S
C714 C713 1.387 . S
C714 C717 1.387 . S
H715 C711 0.950 . S
H716 C713 0.950 . S
C717 C708 1.390 . S
C717 H710 0.950 . S
C717 C714 1.387 . S
C718 C719 1.387 . S
C718 H722 0.950 . S
C718 C727 1.390 . S
C719 C718 1.387 . S
C719 C721 1.387 . S
H720 C727 0.950 . S
C721 C719 1.387 . S
C721 C723 1.390 . S
C721 H725 0.950 . S
H722 C718 0.950 . S
C723 C721 1.390 . S
C723 C724 1.387 . S
C723 H726 0.950 . S
C724 C723 1.387 . S
C724 C727 1.387 . S
H725 C721 0.950 . S
H726 C723 0.950 . S
C727 C718 1.390 . S
C727 H720 0.950 . S
C727 C724 1.387 . S
C728 C729 1.387 . S
C728 H732 0.950 . S
C728 C737 1.390 . S
C729 C728 1.387 . S
C729 C731 1.387 . S
H730 C737 0.950 . S
C731 C729 1.387 . S
C731 C733 1.390 . S
C731 H735 0.950 . S
H732 C728 0.950 . S
C733 C731 1.390 . S
C733 C734 1.387 . S
C733 H736 0.950 . S
C734 C733 1.387 . S
C734 C737 1.387 . S
H735 C731 0.950 . S
H736 C733 0.950 . S
C737 C728 1.390 . S
C737 H730 0.950 . S
C737 C734 1.387 . S
C738 C739 1.387 . S
C738 H742 0.950 . S
C738 C747 1.390 . S
C739 C738 1.387 . S
C739 C741 1.387 . S
H740 C747 0.950 . S
C741 C739 1.387 . S
C741 C743 1.390 . S
C741 H745 0.950 . S
H742 C738 0.950 . S
C743 C741 1.390 . S
C743 C744 1.387 . S
C743 H746 0.950 . S
C744 C743 1.387 . S
C744 C747 1.387 . S
H745 C741 0.950 . S
H746 C743 0.950 . S
C747 C738 1.390 . S
C747 H740 0.950 . S
C747 C744 1.387 . S
C748 C749 1.387 . S
C748 H752 0.950 . S
C748 C757 1.390 . S
C749 C748 1.387 . S
C749 C751 1.387 . S
H750 C757 0.950 . S
C751 C749 1.387 . S
C751 C753 1.390 . S
C751 H755 0.950 . S
H752 C748 0.950 . S
C753 C751 1.390 . S
C753 C754 1.387 . S
C753 H756 0.950 . S
C754 C753 1.387 . S
C754 C757 1.387 . S
H755 C751 0.950 . S
H756 C753 0.950 . S
C757 C748 1.390 . S
C757 H750 0.950 . S
C757 C754 1.387 . S
C758 C759 1.387 . S
C758 H762 0.950 . S
C758 C767 1.390 . S
C759 C758 1.387 . S
C759 C761 1.387 . S
H760 C767 0.950 1_455 S
C761 C759 1.387 . S
C761 C763 1.390 . S
C761 H765 0.950 . S
H762 C758 0.950 . S
C763 C761 1.390 . S
C763 C764 1.387 1_655 S
C763 H766 0.950 1_655 S
C764 C763 1.387 1_455 S
C764 C767 1.387 1_455 S
H765 C761 0.950 . S
H766 C763 0.950 1_455 S
C767 C758 1.390 . S
C767 H760 0.950 1_655 S
C767 C764 1.387 1_655 S
C768 C769 1.387 . S
C768 H772 0.950 . S
C768 C777 1.390 . S
C769 C768 1.387 . S
C769 C771 1.387 . S
H770 C777 0.950 . S
C771 C769 1.387 . S
C771 C773 1.390 . S
C771 H775 0.950 . S
H772 C768 0.950 . S
C773 C771 1.390 . S
C773 C774 1.387 . S
C773 H776 0.950 . S
C774 C773 1.387 . S
C774 C777 1.387 . S
H775 C771 0.950 . S
H776 C773 0.950 . S
C777 C768 1.390 . S
C777 H770 0.950 . S
C777 C774 1.387 . S
C778 C779 1.387 . S
C778 H782 0.950 . S
C778 C787 1.390 . S
C779 C778 1.387 . S
C779 C781 1.387 . S
H780 C787 0.950 . S
C781 C779 1.387 . S
C781 C783 1.390 . S
C781 H785 0.950 . S
H782 C778 0.950 . S
C783 C781 1.390 . S
C783 C784 1.387 . S
C783 H786 0.950 . S
C784 C783 1.387 . S
C784 C787 1.387 . S
H785 C781 0.950 . S
H786 C783 0.950 . S
C787 C778 1.390 . S
C787 H780 0.950 . S
C787 C784 1.387 . S
C788 C789 1.387 . S
C788 H792 0.950 . S
C788 C797 1.390 . S
C789 C788 1.387 . S
C789 C791 1.387 . S
H790 C797 0.950 . S
C791 C789 1.387 . S
C791 C793 1.390 . S
C791 H795 0.950 . S
H792 C788 0.950 . S
C793 C791 1.390 . S
C793 C794 1.387 . S
C793 H796 0.950 . S
C794 C793 1.387 . S
C794 C797 1.387 . S
H795 C791 0.950 . S
H796 C793 0.950 . S
C797 C788 1.390 . S
C797 H790 0.950 . S
C797 C794 1.387 . S
C798 C799 1.387 . S
C798 H802 0.950 . S
C798 C807 1.390 . S
C799 C798 1.387 . S
C799 C801 1.387 . S
H800 C807 0.950 1_455 S
C801 C799 1.387 . S
C801 C803 1.390 . S
C801 H805 0.950 . S
H802 C798 0.950 . S
C803 C801 1.390 . S
C803 C804 1.387 1_655 S
C803 H806 0.950 1_655 S
C804 C803 1.387 1_455 S
C804 C807 1.387 1_455 S
H805 C801 0.950 . S
H806 C803 0.950 1_455 S
C807 C798 1.390 . S
C807 H800 0.950 1_655 S
C807 C804 1.387 1_655 S
C808 C809 1.387 . S
C808 H812 0.950 . S
C808 C817 1.390 . S
C809 C808 1.387 . S
C809 C811 1.387 . S
H810 C817 0.950 . S
C811 C809 1.387 . S
C811 C813 1.390 . S
C811 H815 0.950 . S
H812 C808 0.950 . S
C813 C811 1.390 . S
C813 C814 1.387 . S
C813 H816 0.950 . S
C814 C813 1.387 . S
C814 C817 1.387 . S
H815 C811 0.950 . S
H816 C813 0.950 . S
C817 C808 1.390 . S
C817 H810 0.950 . S
C817 C814 1.387 . S
C818 C819 1.387 1_655 S
C818 H822 0.950 1_655 S
C818 C827 1.390 . S
C819 C818 1.387 1_455 S
C819 C821 1.387 1_455 S
H820 C827 0.950 . S
C821 C819 1.387 1_655 S
C821 C823 1.390 . S
C821 H825 0.950 1_655 S
H822 C818 0.950 1_455 S
C823 C821 1.390 . S
C823 C824 1.387 . S
C823 H826 0.950 . S
C824 C823 1.387 . S
C824 C827 1.387 . S
H825 C821 0.950 1_455 S
H826 C823 0.950 . S
C827 C818 1.390 . S
C827 H820 0.950 . S
C827 C824 1.387 . S
C828 C829 1.387 . S
C828 H832 0.950 . S
C828 C837 1.390 . S
C829 C828 1.387 . S
C829 C831 1.387 . S
H830 C837 0.950 . S
C831 C829 1.387 . S
C831 C833 1.390 . S
C831 H835 0.950 . S
H832 C828 0.950 . S
C833 C831 1.390 . S
C833 C834 1.387 . S
C833 H836 0.950 . S
C834 C833 1.387 . S
C834 C837 1.387 . S
H835 C831 0.950 . S
H836 C833 0.950 . S
C837 C828 1.390 . S
C837 H830 0.950 . S
C837 C834 1.387 . S
C838 C839 1.387 . S
C838 H842 0.950 . S
C838 C847 1.390 . S
C839 C838 1.387 . S
C839 C841 1.387 . S
H840 C847 0.950 . S
C841 C839 1.387 . S
C841 C843 1.390 . S
C841 H845 0.950 . S
H842 C838 0.950 . S
C843 C841 1.390 . S
C843 C844 1.387 . S
C843 H846 0.950 . S
C844 C843 1.387 . S
C844 C847 1.387 . S
H845 C841 0.950 . S
H846 C843 0.950 . S
C847 C838 1.390 . S
C847 H840 0.950 . S
C847 C844 1.387 . S
C848 C849 1.387 . S
C848 H852 0.950 . S
C848 C857 1.390 . S
C849 C848 1.387 . S
C849 C851 1.387 . S
H850 C857 0.950 . S
C851 C849 1.387 . S
C851 C853 1.390 . S
C851 H855 0.950 . S
H852 C848 0.950 . S
C853 C851 1.390 . S
C853 C854 1.387 . S
C853 H856 0.950 . S
C854 C853 1.387 . S
C854 C857 1.387 . S
H855 C851 0.950 . S
H856 C853 0.950 . S
C857 C848 1.390 . S
C857 H850 0.950 . S
C857 C854 1.387 . S
C858 C859 1.387 . S
C858 H862 0.950 . S
C858 C867 1.390 . S
C859 C858 1.387 . S
C859 C861 1.387 . S
H860 C867 0.950 . S
C861 C859 1.387 . S
C861 C863 1.390 . S
C861 H865 0.950 . S
H862 C858 0.950 . S
C863 C861 1.390 . S
C863 C864 1.387 . S
C863 H866 0.950 . S
C864 C863 1.387 . S
C864 C867 1.387 . S
H865 C861 0.950 . S
H866 C863 0.950 . S
C867 C858 1.390 . S
C867 H860 0.950 . S
C867 C864 1.387 . S
C868 C869 1.387 . S
C868 H872 0.950 . S
C868 C877 1.390 . S
C869 C868 1.387 . S
C869 C871 1.387 . S
H870 C877 0.950 . S
C871 C869 1.387 . S
C871 C873 1.390 . S
C871 H875 0.950 . S
H872 C868 0.950 . S
C873 C871 1.390 . S
C873 C874 1.387 . S
C873 H876 0.950 . S
C874 C873 1.387 . S
C874 C877 1.387 . S
H875 C871 0.950 . S
H876 C873 0.950 . S
C877 C868 1.390 . S
C877 H870 0.950 . S
C877 C874 1.387 . S
C878 C879 1.387 . S
C878 H882 0.950 . S
C878 C887 1.390 . S
C879 C878 1.387 . S
C879 C881 1.387 . S
H880 C887 0.950 1_655 S
C881 C879 1.387 . S
C881 C883 1.390 . S
C881 H885 0.950 . S
H882 C878 0.950 . S
C883 C881 1.390 . S
C883 C884 1.387 1_455 S
C883 H886 0.950 1_455 S
C884 C883 1.387 1_655 S
C884 C887 1.387 1_655 S
H885 C881 0.950 . S
H886 C883 0.950 1_655 S
C887 C878 1.390 . S
C887 H880 0.950 1_455 S
C887 C884 1.387 1_455 S
C888 C889 1.387 . S
C888 H892 0.950 . S
C888 C897 1.390 . S
C889 C888 1.387 . S
C889 C891 1.387 . S
H890 C897 0.950 . S
C891 C889 1.387 . S
C891 C893 1.390 . S
C891 H895 0.950 . S
H892 C888 0.950 . S
C893 C891 1.390 . S
C893 C894 1.387 . S
C893 H896 0.950 . S
C894 C893 1.387 . S
C894 C897 1.387 . S
H895 C891 0.950 . S
H896 C893 0.950 . S
C897 C888 1.390 . S
C897 H890 0.950 . S
C897 C894 1.387 . S
C898 C899 1.387 . S
C898 H902 0.950 . S
C898 C907 1.390 1_655 S
C899 C898 1.387 . S
C899 C901 1.387 1_655 S
H900 C907 0.950 . S
C901 C899 1.387 1_455 S
C901 C903 1.390 . S
C901 H905 0.950 1_455 S
H902 C898 0.950 . S
C903 C901 1.390 . S
C903 C904 1.387 . S
C903 H906 0.950 . S
C904 C903 1.387 . S
C904 C907 1.387 . S
H905 C901 0.950 1_655 S
H906 C903 0.950 . S
C907 C898 1.390 1_455 S
C907 H900 0.950 . S
C907 C904 1.387 . S
C908 C909 1.387 . S
C908 H912 0.950 . S
C908 C917 1.390 . S
C909 C908 1.387 . S
C909 C911 1.387 . S
H910 C917 0.950 . S
C911 C909 1.387 . S
C911 C913 1.390 . S
C911 H915 0.950 . S
H912 C908 0.950 . S
C913 C911 1.390 . S
C913 C914 1.387 . S
C913 H916 0.950 . S
C914 C913 1.387 . S
C914 C917 1.387 . S
H915 C911 0.950 . S
H916 C913 0.950 . S
C917 C908 1.390 . S
C917 H910 0.950 . S
C917 C914 1.387 . S
C918 C919 1.387 . S
C918 H922 0.950 . S
C918 C927 1.390 . S
C919 C918 1.387 . S
C919 C921 1.387 . S
H920 C927 0.950 . S
C921 C919 1.387 . S
C921 C923 1.390 . S
C921 H925 0.950 . S
H922 C918 0.950 . S
C923 C921 1.390 . S
C923 C924 1.387 . S
C923 H926 0.950 . S
C924 C923 1.387 . S
C924 C927 1.387 . S
H925 C921 0.950 . S
H926 C923 0.950 . S
C927 C918 1.390 . S
C927 H920 0.950 . S
C927 C924 1.387 . S
C928 C929 1.387 . S
C928 H932 0.950 . S
C928 C937 1.390 . S
C929 C928 1.387 . S
C929 C931 1.387 . S
H930 C937 0.950 . S
C931 C929 1.387 . S
C931 C933 1.390 . S
C931 H935 0.950 . S
H932 C928 0.950 . S
C933 C931 1.390 . S
C933 C934 1.387 . S
C933 H936 0.950 . S
C934 C933 1.387 . S
C934 C937 1.387 . S
H935 C931 0.950 . S
H936 C933 0.950 . S
C937 C928 1.390 . S
C937 H930 0.950 . S
C937 C934 1.387 . S
C938 C939 1.387 . S
C938 H942 0.950 . S
C938 C947 1.390 . S
C939 C938 1.387 . S
C939 C941 1.387 . S
H940 C947 0.950 . S
C941 C939 1.387 . S
C941 C943 1.390 . S
C941 H945 0.950 . S
H942 C938 0.950 . S
C943 C941 1.390 . S
C943 C944 1.387 . S
C943 H946 0.950 . S
C944 C943 1.387 . S
C944 C947 1.387 . S
H945 C941 0.950 . S
H946 C943 0.950 . S
C947 C938 1.390 . S
C947 H940 0.950 . S
C947 C944 1.387 . S
C948 C949 1.387 . S
C948 H952 0.950 . S
C948 C957 1.390 . S
C949 C948 1.387 . S
C949 C951 1.387 . S
H950 C957 0.950 . S
C951 C949 1.387 . S
C951 C953 1.390 . S
C951 H955 0.950 . S
H952 C948 0.950 . S
C953 C951 1.390 . S
C953 C954 1.387 . S
C953 H956 0.950 . S
C954 C953 1.387 . S
C954 C957 1.387 . S
H955 C951 0.950 . S
H956 C953 0.950 . S
C957 C948 1.390 . S
C957 H950 0.950 . S
C957 C954 1.387 . S
C958 C959 1.387 . S
C958 H962 0.950 . S
C958 C967 1.390 . S
C959 C958 1.387 . S
C959 C961 1.387 . S
H960 C967 0.950 . S
C961 C959 1.387 . S
C961 C963 1.390 . S
C961 H965 0.950 . S
H962 C958 0.950 . S
C963 C961 1.390 . S
C963 C964 1.387 . S
C963 H966 0.950 . S
C964 C963 1.387 . S
C964 C967 1.387 . S
H965 C961 0.950 . S
H966 C963 0.950 . S
C967 C958 1.390 . S
C967 H960 0.950 . S
C967 C964 1.387 . S
C968 C969 1.387 . S
C968 H972 0.950 . S
C968 C977 1.390 . S
C969 C968 1.387 . S
C969 C971 1.387 . S
H970 C977 0.950 . S
C971 C969 1.387 . S
C971 C973 1.390 . S
C971 H975 0.950 . S
H972 C968 0.950 . S
C973 C971 1.390 . S
C973 C974 1.387 . S
C973 H976 0.950 . S
C974 C973 1.387 . S
C974 C977 1.387 . S
H975 C971 0.950 . S
H976 C973 0.950 . S
C977 C968 1.390 . S
C977 H970 0.950 . S
C977 C974 1.387 . S
C978 C979 1.387 . S
C978 H982 0.950 . S
C978 C987 1.390 . S
C979 C978 1.387 . S
C979 C981 1.387 . S
H980 C987 0.950 . S
C981 C979 1.387 . S
C981 C983 1.390 . S
C981 H985 0.950 . S
H982 C978 0.950 . S
C983 C981 1.390 . S
C983 C984 1.387 . S
C983 H986 0.950 . S
C984 C983 1.387 . S
C984 C987 1.387 . S
H985 C981 0.950 . S
H986 C983 0.950 . S
C987 C978 1.390 . S
C987 H980 0.950 . S
C987 C984 1.387 . S
C988 C989 1.387 . S
C988 H992 0.950 . S
C988 C997 1.390 . S
C989 C988 1.387 . S
C989 C991 1.387 . S
H990 C997 0.950 . S
C991 C989 1.387 . S
C991 C993 1.390 . S
C991 H995 0.950 . S
H992 C988 0.950 . S
C993 C991 1.390 . S
C993 C994 1.387 . S
C993 H996 0.950 . S
C994 C993 1.387 . S
C994 C997 1.387 . S
H995 C991 0.950 . S
H996 C993 0.950 . S
C997 C988 1.390 . S
C997 H990 0.950 . S
C997 C994 1.387 . S
C998 C999 1.387 . S
C998 H1002 0.950 . S
C998 C1007 1.390 . S
C999 C998 1.387 . S
C999 C1001 1.387 . S
H1000 C1007 0.950 . S
C1001 C999 1.387 . S
C1001 C1003 1.390 . S
C1001 H1005 0.950 . S
H1002 C998 0.950 . S
C1003 C1001 1.390 . S
C1003 C1004 1.387 . S
C1003 H1006 0.950 . S
C1004 C1003 1.387 . S
C1004 C1007 1.387 . S
H1005 C1001 0.950 . S
H1006 C1003 0.950 . S
C1007 C998 1.390 . S
C1007 H1000 0.950 . S
C1007 C1004 1.387 . S
C1008 C1009 1.387 . S
C1008 H1012 0.950 . S
C1008 C1017 1.390 . S
C1009 C1008 1.387 . S
C1009 C1011 1.387 . S
H1010 C1017 0.950 . S
C1011 C1009 1.387 . S
C1011 C1013 1.390 . S
C1011 H1015 0.950 . S
H1012 C1008 0.950 . S
C1013 C1011 1.390 . S
C1013 C1014 1.387 . S
C1013 H1016 0.950 . S
C1014 C1013 1.387 . S
C1014 C1017 1.387 . S
H1015 C1011 0.950 . S
H1016 C1013 0.950 . S
C1017 C1008 1.390 . S
C1017 H1010 0.950 . S
C1017 C1014 1.387 . S
C1018 C1019 1.387 . S
C1018 H1022 0.950 . S
C1018 C1027 1.390 . S
C1019 C1018 1.387 . S
C1019 C1021 1.387 . S
H1020 C1027 0.950 . S
C1021 C1019 1.387 . S
C1021 C1023 1.390 . S
C1021 H1025 0.950 . S
H1022 C1018 0.950 . S
C1023 C1021 1.390 . S
C1023 C1024 1.387 . S
C1023 H1026 0.950 . S
C1024 C1023 1.387 . S
C1024 C1027 1.387 . S
H1025 C1021 0.950 . S
H1026 C1023 0.950 . S
C1027 C1018 1.390 . S
C1027 H1020 0.950 . S
C1027 C1024 1.387 . S
C1028 C1029 1.387 . S
C1028 H1032 0.950 . S
C1028 C1037 1.390 . S
C1029 C1028 1.387 . S
C1029 C1031 1.387 . S
H1030 C1037 0.950 . S
C1031 C1029 1.387 . S
C1031 C1033 1.390 . S
C1031 H1035 0.950 . S
H1032 C1028 0.950 . S
C1033 C1031 1.390 . S
C1033 C1034 1.387 . S
C1033 H1036 0.950 . S
C1034 C1033 1.387 . S
C1034 C1037 1.387 . S
H1035 C1031 0.950 . S
H1036 C1033 0.950 . S
C1037 C1028 1.390 . S
C1037 H1030 0.950 . S
C1037 C1034 1.387 . S
C1038 C1039 1.387 . S
C1038 H1042 0.950 . S
C1038 C1047 1.390 . S
C1039 C1038 1.387 . S
C1039 C1041 1.387 . S
H1040 C1047 0.950 . S
C1041 C1039 1.387 . S
C1041 C1043 1.390 . S
C1041 H1045 0.950 . S
H1042 C1038 0.950 . S
C1043 C1041 1.390 . S
C1043 C1044 1.387 . S
C1043 H1046 0.950 . S
C1044 C1043 1.387 . S
C1044 C1047 1.387 . S
H1045 C1041 0.950 . S
H1046 C1043 0.950 . S
C1047 C1038 1.390 . S
C1047 H1040 0.950 . S
C1047 C1044 1.387 . S
C1048 C1049 1.387 . S
C1048 H1052 0.950 . S
C1048 C1057 1.390 . S
C1049 C1048 1.387 . S
C1049 C1051 1.387 . S
H1050 C1057 0.950 . S
C1051 C1049 1.387 . S
C1051 C1053 1.390 . S
C1051 H1055 0.950 . S
H1052 C1048 0.950 . S
C1053 C1051 1.390 . S
C1053 C1054 1.387 . S
C1053 H1056 0.950 . S
C1054 C1053 1.387 . S
C1054 C1057 1.387 . S
H1055 C1051 0.950 . S
H1056 C1053 0.950 . S
C1057 C1048 1.390 . S
C1057 H1050 0.950 . S
C1057 C1054 1.387 . S
C1058 C1059 1.387 . S
C1058 H1062 0.950 . S
C1058 C1067 1.390 . S
C1059 C1058 1.387 . S
C1059 C1061 1.387 . S
H1060 C1067 0.950 . S
C1061 C1059 1.387 . S
C1061 C1063 1.390 . S
C1061 H1065 0.950 . S
H1062 C1058 0.950 . S
C1063 C1061 1.390 . S
C1063 C1064 1.387 . S
C1063 H1066 0.950 . S
C1064 C1063 1.387 . S
C1064 C1067 1.387 . S
H1065 C1061 0.950 . S
H1066 C1063 0.950 . S
C1067 C1058 1.390 . S
C1067 H1060 0.950 . S
C1067 C1064 1.387 . S
C1068 C1069 1.387 . S
C1068 H1072 0.950 . S
C1068 C1077 1.390 . S
C1069 C1068 1.387 . S
C1069 C1071 1.387 . S
H1070 C1077 0.950 . S
C1071 C1069 1.387 . S
C1071 C1073 1.390 . S
C1071 H1075 0.950 . S
H1072 C1068 0.950 . S
C1073 C1071 1.390 . S
C1073 C1074 1.387 . S
C1073 H1076 0.950 . S
C1074 C1073 1.387 . S
C1074 C1077 1.387 . S
H1075 C1071 0.950 . S
H1076 C1073 0.950 . S
C1077 C1068 1.390 . S
C1077 H1070 0.950 . S
C1077 C1074 1.387 . S
C1078 C1079 1.387 . S
C1078 H1082 0.950 . S
C1078 C1087 1.390 . S
C1079 C1078 1.387 . S
C1079 C1081 1.387 . S
H1080 C1087 0.950 . S
C1081 C1079 1.387 . S
C1081 C1083 1.390 . S
C1081 H1085 0.950 . S
H1082 C1078 0.950 . S
C1083 C1081 1.390 . S
C1083 C1084 1.387 . S
C1083 H1086 0.950 . S
C1084 C1083 1.387 . S
C1084 C1087 1.387 . S
H1085 C1081 0.950 . S
H1086 C1083 0.950 . S
C1087 C1078 1.390 . S
C1087 H1080 0.950 . S
C1087 C1084 1.387 . S
C449 C6 1.516 . S
C454 C62 1.516 . S
C459 C20 1.520 . S
C464 C76 1.520 . S
C469 C90 1.520 . S
C474 C34 1.520 . S
C479 C104 1.516 . S
C484 C48 1.516 . S
C489 C118 1.516 . S
C494 C174 1.516 . S
C499 C132 1.520 . S
C504 C188 1.520 . S
C509 C202 1.516 . S
C514 C146 1.516 . S
C519 C160 1.516 . S
C524 C216 1.516 . S
C529 C286 1.516 . S
C534 C230 1.516 . S
C539 C300 1.516 . S
C544 C244 1.516 . S
C549 C258 1.520 . S
C554 C314 1.520 . S
C559 C328 1.520 . S
C564 C272 1.520 . S
C569 C342 1.520 . S
C574 C398 1.520 . S
C579 C412 1.520 . S
C584 C356 1.520 . S
C589 C426 1.516 . S
C594 C370 1.516 . S
C599 C384 1.516 . S
C604 C440 1.516 . S
C609 C9 1.595 . S
C614 C386 1.653 . S
C619 C120 1.653 . S
C624 C23 1.595 . S
C629 C37 1.594 . S
C634 C358 1.653 . S
C639 C51 1.595 . S
C644 C148 1.653 . S
C649 C414 1.653 . S
C654 C65 1.594 . S
C659 C204 1.653 . S
C664 C79 1.594 . S
C669 C93 1.595 . S
C674 C442 1.654 . S
C679 C107 1.594 . S
C684 C176 1.654 . S
C689 C274 1.654 . S
C694 C121 1.595 . S
C699 C135 1.594 . S
C704 C8 1.653 . S
C709 C246 1.654 . S
C714 C149 1.595 . S
C719 C163 1.595 . S
C724 C36 1.654 . S
C729 C302 1.654 . S
C734 C177 1.595 . S
C739 C191 1.595 . S
C744 C92 1.654 . S
C749 C330 1.653 . S
C754 C205 1.594 . S
C759 C219 1.595 . S
C764 C64 1.654 . S
C769 C162 1.653 . S
C774 C233 1.594 . S
C779 C344 1.653 . S
C784 C247 1.595 . S
C789 C134 1.653 . S
C794 C261 1.594 . S
C799 C275 1.595 . S
C804 C372 1.654 . S
C809 C190 1.653 . S
C814 C289 1.594 . S
C819 C428 1.654 . S
C824 C303 1.595 . S
C829 C218 1.653 . S
C834 C317 1.594 . S
C839 C331 1.594 . S
C844 C400 1.653 . S
C849 C345 1.595 . S
C854 C50 1.653 . S
C859 C359 1.594 . S
C864 C232 1.653 . S
C869 C373 1.595 . S
C874 C22 1.653 . S
C879 C387 1.594 . S
C884 C260 1.653 . S
C889 C401 1.594 . S
C894 C78 1.653 . S
C899 C316 1.653 . S
C904 C415 1.593 . S
C909 C106 1.653 . S
C914 C429 1.595 . S
C919 C443 1.594 . S
C924 C288 1.653 . S
C929 C7 1.229 . S
C934 C105 1.232 . S
C939 C21 1.232 . S
C944 C63 1.233 . S
C949 C35 1.229 . S
C954 C77 1.233 . S
C959 C91 1.229 . S
C964 C49 1.233 . S
C969 C217 1.232 . S
C974 C119 1.229 . S
C979 C175 1.230 . S
C984 C133 1.230 . S
C989 C189 1.232 . S
C994 C147 1.229 . S
C999 C203 1.234 . S
C1004 C161 1.230 . S
C1009 C231 1.234 . S
C1014 C329 1.230 . S
C1019 C287 1.233 . S
C1024 C245 1.229 . S
C1029 C301 1.231 . S
C1034 C259 1.229 . S
C1039 C315 1.229 . S
C1044 C273 1.233 . S
C1049 C441 1.231 . S
C1054 C343 1.229 . S
C1059 C357 1.230 . S
C1064 C399 1.230 . S
C1069 C371 1.231 . S
C1074 C413 1.229 . S
C1079 C385 1.232 . S
C1084 C427 1.229 . S
