# Generated by pormake.
# Topology ana, (4)-cn, num edge types: 1
# Building blocks:
#     Node 0, Type 0, BuildingBlock: QUQFOY_clean_sbu_1, # of connection points: 4
#     Node 1, Type 0, BuildingBlock: QUQFOY_clean_sbu_1, # of connection points: 4
#     Node 2, Type 0, BuildingBlock: QUQFOY_clean_sbu_1, # of connection points: 4
#     Node 3, Type 0, BuildingBlock: QUQFOY_clean_sbu_1, # of connection points: 4
#     Node 4, Type 0, BuildingBlock: QUQFOY_clean_sbu_1, # of connection points: 4
#     Node 5, Type 0, BuildingBlock: QUQFOY_clean_sbu_1, # of connection points: 4
#     Node 6, Type 0, BuildingBlock: QUQFOY_clean_sbu_1, # of connection points: 4
#     Node 7, Type 0, BuildingBlock: QUQFOY_clean_sbu_1, # of connection points: 4
#     Node 8, Type 0, BuildingBlock: QUQFOY_clean_sbu_1, # of connection points: 4
#     Node 9, Type 0, BuildingBlock: QUQFOY_clean_sbu_1, # of connection points: 4
#     Node 10, Type 0, BuildingBlock: QUQFOY_clean_sbu_1, # of connection points: 4
#     Node 11, Type 0, BuildingBlock: QUQFOY_clean_sbu_1, # of connection points: 4
#     Node 12, Type 0, BuildingBlock: QUQFOY_clean_sbu_1, # of connection points: 4
#     Node 13, Type 0, BuildingBlock: QUQFOY_clean_sbu_1, # of connection points: 4
#     Node 14, Type 0, BuildingBlock: QUQFOY_clean_sbu_1, # of connection points: 4
#     Node 15, Type 0, BuildingBlock: QUQFOY_clean_sbu_1, # of connection points: 4
#     Node 16, Type 0, BuildingBlock: QUQFOY_clean_sbu_1, # of connection points: 4
#     Node 17, Type 0, BuildingBlock: QUQFOY_clean_sbu_1, # of connection points: 4
#     Node 18, Type 0, BuildingBlock: QUQFOY_clean_sbu_1, # of connection points: 4
#     Node 19, Type 0, BuildingBlock: QUQFOY_clean_sbu_1, # of connection points: 4
#     Node 20, Type 0, BuildingBlock: QUQFOY_clean_sbu_1, # of connection points: 4
#     Node 21, Type 0, BuildingBlock: QUQFOY_clean_sbu_1, # of connection points: 4
#     Node 22, Type 0, BuildingBlock: QUQFOY_clean_sbu_1, # of connection points: 4
#     Node 23, Type 0, BuildingBlock: QUQFOY_clean_sbu_1, # of connection points: 4
#     Node 24, Type 0, BuildingBlock: QUQFOY_clean_sbu_1, # of connection points: 4
#     Node 25, Type 0, BuildingBlock: QUQFOY_clean_sbu_1, # of connection points: 4
#     Node 26, Type 0, BuildingBlock: QUQFOY_clean_sbu_1, # of connection points: 4
#     Node 27, Type 0, BuildingBlock: QUQFOY_clean_sbu_1, # of connection points: 4
#     Node 28, Type 0, BuildingBlock: QUQFOY_clean_sbu_1, # of connection points: 4
#     Node 29, Type 0, BuildingBlock: QUQFOY_clean_sbu_1, # of connection points: 4
#     Node 30, Type 0, BuildingBlock: QUQFOY_clean_sbu_1, # of connection points: 4
#     Node 31, Type 0, BuildingBlock: QUQFOY_clean_sbu_1, # of connection points: 4
#     Node 32, Type 0, BuildingBlock: QUQFOY_clean_sbu_1, # of connection points: 4
#     Node 33, Type 0, BuildingBlock: QUQFOY_clean_sbu_1, # of connection points: 4
#     Node 34, Type 0, BuildingBlock: QUQFOY_clean_sbu_1, # of connection points: 4
#     Node 35, Type 0, BuildingBlock: QUQFOY_clean_sbu_1, # of connection points: 4
#     Node 36, Type 0, BuildingBlock: QUQFOY_clean_sbu_1, # of connection points: 4
#     Node 37, Type 0, BuildingBlock: QUQFOY_clean_sbu_1, # of connection points: 4
#     Node 38, Type 0, BuildingBlock: QUQFOY_clean_sbu_1, # of connection points: 4
#     Node 39, Type 0, BuildingBlock: QUQFOY_clean_sbu_1, # of connection points: 4
#     Node 40, Type 0, BuildingBlock: QUQFOY_clean_sbu_1, # of connection points: 4
#     Node 41, Type 0, BuildingBlock: QUQFOY_clean_sbu_1, # of connection points: 4
#     Node 42, Type 0, BuildingBlock: QUQFOY_clean_sbu_1, # of connection points: 4
#     Node 43, Type 0, BuildingBlock: QUQFOY_clean_sbu_1, # of connection points: 4
#     Node 44, Type 0, BuildingBlock: QUQFOY_clean_sbu_1, # of connection points: 4
#     Node 45, Type 0, BuildingBlock: QUQFOY_clean_sbu_1, # of connection points: 4
#     Node 46, Type 0, BuildingBlock: QUQFOY_clean_sbu_1, # of connection points: 4
#     Node 47, Type 0, BuildingBlock: QUQFOY_clean_sbu_1, # of connection points: 4
#     Edge 48, Type (0, 0), BuildingBlock: KIFKEQ_clean_linker_1, # of connection points: 2
#     Edge 49, Type (0, 0), BuildingBlock: KIFKEQ_clean_linker_1, # of connection points: 2
#     Edge 50, Type (0, 0), BuildingBlock: KIFKEQ_clean_linker_1, # of connection points: 2
#     Edge 51, Type (0, 0), BuildingBlock: KIFKEQ_clean_linker_1, # of connection points: 2
#     Edge 52, Type (0, 0), BuildingBlock: KIFKEQ_clean_linker_1, # of connection points: 2
#     Edge 53, Type (0, 0), BuildingBlock: KIFKEQ_clean_linker_1, # of connection points: 2
#     Edge 54, Type (0, 0), BuildingBlock: KIFKEQ_clean_linker_1, # of connection points: 2
#     Edge 55, Type (0, 0), BuildingBlock: KIFKEQ_clean_linker_1, # of connection points: 2
#     Edge 56, Type (0, 0), BuildingBlock: KIFKEQ_clean_linker_1, # of connection points: 2
#     Edge 57, Type (0, 0), BuildingBlock: KIFKEQ_clean_linker_1, # of connection points: 2
#     Edge 58, Type (0, 0), BuildingBlock: KIFKEQ_clean_linker_1, # of connection points: 2
#     Edge 59, Type (0, 0), BuildingBlock: KIFKEQ_clean_linker_1, # of connection points: 2
#     Edge 60, Type (0, 0), BuildingBlock: KIFKEQ_clean_linker_1, # of connection points: 2
#     Edge 61, Type (0, 0), BuildingBlock: KIFKEQ_clean_linker_1, # of connection points: 2
#     Edge 62, Type (0, 0), BuildingBlock: KIFKEQ_clean_linker_1, # of connection points: 2
#     Edge 63, Type (0, 0), BuildingBlock: KIFKEQ_clean_linker_1, # of connection points: 2
#     Edge 64, Type (0, 0), BuildingBlock: KIFKEQ_clean_linker_1, # of connection points: 2
#     Edge 65, Type (0, 0), BuildingBlock: KIFKEQ_clean_linker_1, # of connection points: 2
#     Edge 66, Type (0, 0), BuildingBlock: KIFKEQ_clean_linker_1, # of connection points: 2
#     Edge 67, Type (0, 0), BuildingBlock: KIFKEQ_clean_linker_1, # of connection points: 2
#     Edge 68, Type (0, 0), BuildingBlock: KIFKEQ_clean_linker_1, # of connection points: 2
#     Edge 69, Type (0, 0), BuildingBlock: KIFKEQ_clean_linker_1, # of connection points: 2
#     Edge 70, Type (0, 0), BuildingBlock: KIFKEQ_clean_linker_1, # of connection points: 2
#     Edge 71, Type (0, 0), BuildingBlock: KIFKEQ_clean_linker_1, # of connection points: 2
#     Edge 72, Type (0, 0), BuildingBlock: KIFKEQ_clean_linker_1, # of connection points: 2
#     Edge 73, Type (0, 0), BuildingBlock: KIFKEQ_clean_linker_1, # of connection points: 2
#     Edge 74, Type (0, 0), BuildingBlock: KIFKEQ_clean_linker_1, # of connection points: 2
#     Edge 75, Type (0, 0), BuildingBlock: KIFKEQ_clean_linker_1, # of connection points: 2
#     Edge 76, Type (0, 0), BuildingBlock: KIFKEQ_clean_linker_1, # of connection points: 2
#     Edge 77, Type (0, 0), BuildingBlock: KIFKEQ_clean_linker_1, # of connection points: 2
#     Edge 78, Type (0, 0), BuildingBlock: KIFKEQ_clean_linker_1, # of connection points: 2
#     Edge 79, Type (0, 0), BuildingBlock: KIFKEQ_clean_linker_1, # of connection points: 2
#     Edge 80, Type (0, 0), BuildingBlock: KIFKEQ_clean_linker_1, # of connection points: 2
#     Edge 81, Type (0, 0), BuildingBlock: KIFKEQ_clean_linker_1, # of connection points: 2
#     Edge 82, Type (0, 0), BuildingBlock: KIFKEQ_clean_linker_1, # of connection points: 2
#     Edge 83, Type (0, 0), BuildingBlock: KIFKEQ_clean_linker_1, # of connection points: 2
#     Edge 84, Type (0, 0), BuildingBlock: KIFKEQ_clean_linker_1, # of connection points: 2
#     Edge 85, Type (0, 0), BuildingBlock: KIFKEQ_clean_linker_1, # of connection points: 2
#     Edge 86, Type (0, 0), BuildingBlock: KIFKEQ_clean_linker_1, # of connection points: 2
#     Edge 87, Type (0, 0), BuildingBlock: KIFKEQ_clean_linker_1, # of connection points: 2
#     Edge 88, Type (0, 0), BuildingBlock: KIFKEQ_clean_linker_1, # of connection points: 2
#     Edge 89, Type (0, 0), BuildingBlock: KIFKEQ_clean_linker_1, # of connection points: 2
#     Edge 90, Type (0, 0), BuildingBlock: KIFKEQ_clean_linker_1, # of connection points: 2
#     Edge 91, Type (0, 0), BuildingBlock: KIFKEQ_clean_linker_1, # of connection points: 2
#     Edge 92, Type (0, 0), BuildingBlock: KIFKEQ_clean_linker_1, # of connection points: 2
#     Edge 93, Type (0, 0), BuildingBlock: KIFKEQ_clean_linker_1, # of connection points: 2
#     Edge 94, Type (0, 0), BuildingBlock: KIFKEQ_clean_linker_1, # of connection points: 2
#     Edge 95, Type (0, 0), BuildingBlock: KIFKEQ_clean_linker_1, # of connection points: 2
#     Edge 96, Type (0, 0), BuildingBlock: KIFKEQ_clean_linker_1, # of connection points: 2
#     Edge 97, Type (0, 0), BuildingBlock: KIFKEQ_clean_linker_1, # of connection points: 2
#     Edge 98, Type (0, 0), BuildingBlock: KIFKEQ_clean_linker_1, # of connection points: 2
#     Edge 99, Type (0, 0), BuildingBlock: KIFKEQ_clean_linker_1, # of connection points: 2
#     Edge 100, Type (0, 0), BuildingBlock: KIFKEQ_clean_linker_1, # of connection points: 2
#     Edge 101, Type (0, 0), BuildingBlock: KIFKEQ_clean_linker_1, # of connection points: 2
#     Edge 102, Type (0, 0), BuildingBlock: KIFKEQ_clean_linker_1, # of connection points: 2
#     Edge 103, Type (0, 0), BuildingBlock: KIFKEQ_clean_linker_1, # of connection points: 2
#     Edge 104, Type (0, 0), BuildingBlock: KIFKEQ_clean_linker_1, # of connection points: 2
#     Edge 105, Type (0, 0), BuildingBlock: KIFKEQ_clean_linker_1, # of connection points: 2
#     Edge 106, Type (0, 0), BuildingBlock: KIFKEQ_clean_linker_1, # of connection points: 2
#     Edge 107, Type (0, 0), BuildingBlock: KIFKEQ_clean_linker_1, # of connection points: 2
#     Edge 108, Type (0, 0), BuildingBlock: KIFKEQ_clean_linker_1, # of connection points: 2
#     Edge 109, Type (0, 0), BuildingBlock: KIFKEQ_clean_linker_1, # of connection points: 2
#     Edge 110, Type (0, 0), BuildingBlock: KIFKEQ_clean_linker_1, # of connection points: 2
#     Edge 111, Type (0, 0), BuildingBlock: KIFKEQ_clean_linker_1, # of connection points: 2
#     Edge 112, Type (0, 0), BuildingBlock: KIFKEQ_clean_linker_1, # of connection points: 2
#     Edge 113, Type (0, 0), BuildingBlock: KIFKEQ_clean_linker_1, # of connection points: 2
#     Edge 114, Type (0, 0), BuildingBlock: KIFKEQ_clean_linker_1, # of connection points: 2
#     Edge 115, Type (0, 0), BuildingBlock: KIFKEQ_clean_linker_1, # of connection points: 2
#     Edge 116, Type (0, 0), BuildingBlock: KIFKEQ_clean_linker_1, # of connection points: 2
#     Edge 117, Type (0, 0), BuildingBlock: KIFKEQ_clean_linker_1, # of connection points: 2
#     Edge 118, Type (0, 0), BuildingBlock: KIFKEQ_clean_linker_1, # of connection points: 2
#     Edge 119, Type (0, 0), BuildingBlock: KIFKEQ_clean_linker_1, # of connection points: 2
#     Edge 120, Type (0, 0), BuildingBlock: KIFKEQ_clean_linker_1, # of connection points: 2
#     Edge 121, Type (0, 0), BuildingBlock: KIFKEQ_clean_linker_1, # of connection points: 2
#     Edge 122, Type (0, 0), BuildingBlock: KIFKEQ_clean_linker_1, # of connection points: 2
#     Edge 123, Type (0, 0), BuildingBlock: KIFKEQ_clean_linker_1, # of connection points: 2
#     Edge 124, Type (0, 0), BuildingBlock: KIFKEQ_clean_linker_1, # of connection points: 2
#     Edge 125, Type (0, 0), BuildingBlock: KIFKEQ_clean_linker_1, # of connection points: 2
#     Edge 126, Type (0, 0), BuildingBlock: KIFKEQ_clean_linker_1, # of connection points: 2
#     Edge 127, Type (0, 0), BuildingBlock: KIFKEQ_clean_linker_1, # of connection points: 2
#     Edge 128, Type (0, 0), BuildingBlock: KIFKEQ_clean_linker_1, # of connection points: 2
#     Edge 129, Type (0, 0), BuildingBlock: KIFKEQ_clean_linker_1, # of connection points: 2
#     Edge 130, Type (0, 0), BuildingBlock: KIFKEQ_clean_linker_1, # of connection points: 2
#     Edge 131, Type (0, 0), BuildingBlock: KIFKEQ_clean_linker_1, # of connection points: 2
#     Edge 132, Type (0, 0), BuildingBlock: KIFKEQ_clean_linker_1, # of connection points: 2
#     Edge 133, Type (0, 0), BuildingBlock: KIFKEQ_clean_linker_1, # of connection points: 2
#     Edge 134, Type (0, 0), BuildingBlock: KIFKEQ_clean_linker_1, # of connection points: 2
#     Edge 135, Type (0, 0), BuildingBlock: KIFKEQ_clean_linker_1, # of connection points: 2
#     Edge 136, Type (0, 0), BuildingBlock: KIFKEQ_clean_linker_1, # of connection points: 2
#     Edge 137, Type (0, 0), BuildingBlock: KIFKEQ_clean_linker_1, # of connection points: 2
#     Edge 138, Type (0, 0), BuildingBlock: KIFKEQ_clean_linker_1, # of connection points: 2
#     Edge 139, Type (0, 0), BuildingBlock: KIFKEQ_clean_linker_1, # of connection points: 2
#     Edge 140, Type (0, 0), BuildingBlock: KIFKEQ_clean_linker_1, # of connection points: 2
#     Edge 141, Type (0, 0), BuildingBlock: KIFKEQ_clean_linker_1, # of connection points: 2
#     Edge 142, Type (0, 0), BuildingBlock: KIFKEQ_clean_linker_1, # of connection points: 2
#     Edge 143, Type (0, 0), BuildingBlock: KIFKEQ_clean_linker_1, # of connection points: 2
# Relax obj value: 0.112
# Max RMSD: 0.187
# Mean RMSD: 0.143
data_MOF--net-ana--node1-QUQFOY_clean_sbu_1--edge1-KIFKEQ_clean_linker_1
_symmetry_space_group_name_H-M    P1
_symmetry_Int_Tables_number       1
_symmetry_cell_setting            triclinic
loop_
_symmetry_equiv_pos_as_xyz
'x, y, z'
_cell_length_a     67.968527
_cell_length_b     69.886538
_cell_length_c     68.62802
_cell_angle_alpha  91.158754
_cell_angle_beta   91.823198
_cell_angle_gamma 95.627076
loop_
_atom_site_label
_atom_site_type_symbol
_atom_site_fract_x
_atom_site_fract_y
_atom_site_fract_z
_atom_type_partial_charge
O0 O 0.13081 0.13561 0.43978 0.0
Cd1 Cd 0.13057 0.13822 0.40992 0.0
Cd2 Cd 0.12483 0.17597 0.42094 0.0
O3 O 0.13292 0.16641 0.44807 0.0
O4 O 0.14302 0.11513 0.4009 0.0
O5 O 0.15623 0.14486 0.39643 0.0
C6 C 0.15749 0.12656 0.39486 0.0
C7 C 0.13216 0.20866 0.41413 0.0
C8 C 0.13282 0.14891 0.45279 0.0
C9 C 0.09141 0.15055 0.39953 0.0
O10 O 0.09735 0.16559 0.40959 0.0
O11 O 0.10307 0.13778 0.39623 0.0
O12 O 0.11991 0.203 0.4272 0.0
O13 O 0.14117 0.19575 0.4053 0.0
O14 O 0.09891 0.91177 0.65115 0.0
Cd15 Cd 0.0853 0.88673 0.66183 0.0
Cd16 Cd 0.09277 0.87395 0.62508 0.0
O17 O 0.1068 0.90124 0.62219 0.0
O18 O 0.08299 0.89289 0.69 0.0
O19 O 0.10187 0.87121 0.67915 0.0
C20 C 0.09547 0.88062 0.69366 0.0
C21 C 0.10918 0.84703 0.61809 0.0
C22 C 0.10705 0.91471 0.63493 0.0
C23 C 0.05025 0.87216 0.63599 0.0
O24 O 0.06232 0.87018 0.62248 0.0
O25 O 0.05654 0.87791 0.65294 0.0
O26 O 0.10278 0.85747 0.60443 0.0
O27 O 0.10673 0.85223 0.63597 0.0
O28 O 0.40852 0.82816 0.90847 0.0
Cd29 Cd 0.38419 0.81887 0.924 0.0
Cd30 Cd 0.37543 0.85575 0.91436 0.0
O31 O 0.4005 0.85608 0.89796 0.0
O32 O 0.38996 0.79221 0.92975 0.0
O33 O 0.36443 0.79845 0.91112 0.0
C34 C 0.37492 0.78594 0.91878 0.0
C35 C 0.34517 0.86308 0.90117 0.0
C36 C 0.41235 0.84309 0.89848 0.0
C37 C 0.38058 0.84753 0.95686 0.0
O38 O 0.37883 0.86023 0.94411 0.0
O39 O 0.38185 0.83012 0.95176 0.0
O40 O 0.35935 0.87635 0.9053 0.0
O41 O 0.34854 0.84539 0.90368 0.0
O42 O 0.43078 0.13454 0.13342 0.0
Cd43 Cd 0.40055 0.13087 0.13629 0.0
Cd44 Cd 0.41205 0.12026 0.1737 0.0
O45 O 0.43984 0.12883 0.16376 0.0
O46 O 0.38919 0.145 0.11441 0.0
O47 O 0.38673 0.15349 0.14541 0.0
C48 C 0.38327 0.15673 0.1272 0.0
C49 C 0.40582 0.12541 0.20668 0.0
C50 C 0.44427 0.13339 0.14649 0.0
C51 C 0.3885 0.09048 0.14693 0.0
O52 O 0.39805 0.09465 0.16291 0.0
O53 O 0.38697 0.10314 0.1341 0.0
O54 O 0.41798 0.11356 0.20114 0.0
O55 O 0.39762 0.13516 0.19344 0.0
O56 O 0.10887 0.81273 0.10289 0.0
Cd57 Cd 0.11421 0.84182 0.09787 0.0
Cd58 Cd 0.12526 0.82854 0.06296 0.0
O59 O 0.11448 0.8022 0.07327 0.0
O60 O 0.10116 0.85487 0.11921 0.0
O61 O 0.09187 0.85646 0.08814 0.0
C62 C 0.08943 0.86105 0.10618 0.0
C63 C 0.11819 0.83656 0.03082 0.0
C64 C 0.10944 0.7989 0.09065 0.0
C65 C 0.15679 0.85003 0.08878 0.0
O66 O 0.15276 0.83966 0.07351 0.0
O67 O 0.14317 0.85365 0.10014 0.0
O68 O 0.12961 0.82345 0.03496 0.0
O69 O 0.11003 0.84481 0.04505 0.0
O70 O 0.38621 0.86966 0.3176 0.0
Cd71 Cd 0.39051 0.8733 0.34733 0.0
Cd72 Cd 0.42782 0.87111 0.33917 0.0
O73 O 0.41738 0.87883 0.31213 0.0
O74 O 0.36942 0.88875 0.35657 0.0
O75 O 0.4012 0.89966 0.35684 0.0
C76 C 0.38305 0.90282 0.35964 0.0
C77 C 0.45975 0.88279 0.34961 0.0
C78 C 0.39965 0.87488 0.30584 0.0
C79 C 0.40645 0.83813 0.36006 0.0
O80 O 0.42034 0.84359 0.34885 0.0
O81 O 0.39309 0.84911 0.36357 0.0
O82 O 0.45652 0.87118 0.33482 0.0
O83 O 0.44473 0.88861 0.35821 0.0
O84 O 0.3387 0.17749 0.57734 0.0
Cd85 Cd 0.36493 0.18687 0.56519 0.0
Cd86 Cd 0.38129 0.17591 0.59876 0.0
O87 O 0.3523 0.1655 0.60337 0.0
O88 O 0.36014 0.18623 0.53651 0.0
O89 O 0.37955 0.16718 0.55176 0.0
C90 C 0.37128 0.17232 0.53573 0.0
C91 C 0.406 0.1562 0.60701 0.0
C92 C 0.33701 0.16844 0.59315 0.0
C93 C 0.38599 0.21827 0.58971 0.0
O94 O 0.38899 0.20527 0.60186 0.0
O95 O 0.3771 0.21396 0.57343 0.0
O96 O 0.39636 0.1644 0.62013 0.0
O97 O 0.4015 0.15901 0.58894 0.0
O98 O 0.10337 0.10745 0.81329 0.0
Cd99 Cd 0.09943 0.10748 0.84298 0.0
Cd100 Cd 0.06256 0.11501 0.8296 0.0
O101 O 0.0724 0.10735 0.80274 0.0
O102 O 0.12336 0.09584 0.85267 0.0
O103 O 0.09301 0.08194 0.85581 0.0
C104 C 0.11188 0.08121 0.85793 0.0
C105 C 0.03009 0.10632 0.83833 0.0
C106 C 0.09054 0.10639 0.79933 0.0
C107 C 0.08745 0.14609 0.85296 0.0
O108 O 0.07298 0.14161 0.84105 0.0
O109 O 0.09939 0.13381 0.85734 0.0
O110 O 0.03419 0.11815 0.82456 0.0
O111 O 0.04448 0.09832 0.84649 0.0
O112 O 0.13791 0.44782 0.12637 0.0
Cd113 Cd 0.14147 0.41868 0.12638 0.0
Cd114 Cd 0.17508 0.43145 0.10803 0.0
O115 O 0.16684 0.45835 0.11487 0.0
O116 O 0.12069 0.40751 0.14377 0.0
O117 O 0.15265 0.40715 0.1506 0.0
C118 C 0.13456 0.40291 0.15547 0.0
C119 C 0.20711 0.42319 0.11448 0.0
C120 C 0.15023 0.46167 0.12155 0.0
C121 C 0.14514 0.40526 0.08499 0.0
O122 O 0.16057 0.41703 0.08452 0.0
O123 O 0.13596 0.40281 0.10072 0.0
O124 O 0.20335 0.43491 0.10089 0.0
O125 O 0.19269 0.41671 0.12513 0.0
O126 O 0.65378 0.08796 0.83657 0.0
Cd127 Cd 0.66491 0.07927 0.86289 0.0
Cd128 Cd 0.65492 0.11383 0.8741 0.0
O129 O 0.64116 0.11407 0.84689 0.0
O130 O 0.66867 0.05178 0.85818 0.0
O131 O 0.64719 0.06146 0.8789 0.0
C132 C 0.6551 0.04754 0.87049 0.0
C133 C 0.63878 0.1181 0.90289 0.0
C134 C 0.64381 0.10209 0.83326 0.0
C135 C 0.69779 0.10835 0.87675 0.0
O136 O 0.68509 0.12052 0.87664 0.0
O137 O 0.69248 0.09075 0.8728 0.0
O138 O 0.64375 0.1324 0.89185 0.0
O139 O 0.64192 0.10105 0.89688 0.0
O140 O 0.84685 0.91436 0.33826 0.0
Cd141 Cd 0.8306 0.9202 0.36213 0.0
Cd142 Cd 0.84349 0.8864 0.37406 0.0
O143 O 0.85838 0.88759 0.3482 0.0
O144 O 0.82548 0.94758 0.36002 0.0
O145 O 0.84388 0.93689 0.38386 0.0
C146 C 0.83641 0.95111 0.37562 0.0
C147 C 0.85785 0.88033 0.40421 0.0
C148 C 0.85725 0.90045 0.33546 0.0
C149 C 0.79961 0.88814 0.36951 0.0
O150 O 0.81371 0.87798 0.37305 0.0
O151 O 0.80304 0.90563 0.36497 0.0
O152 O 0.85428 0.86693 0.391 0.0
O153 O 0.85475 0.89767 0.39966 0.0
O154 O 0.80604 0.11513 0.12929 0.0
Cd155 Cd 0.8359 0.11315 0.13274 0.0
Cd156 Cd 0.82409 0.07596 0.14212 0.0
O157 O 0.79636 0.08482 0.13531 0.0
O158 O 0.8494 0.13423 0.11763 0.0
O159 O 0.85014 0.10337 0.10992 0.0
C160 C 0.85495 0.1212 0.10601 0.0
C161 C 0.83156 0.04519 0.13255 0.0
C162 C 0.7923 0.10161 0.13082 0.0
C163 C 0.8471 0.10191 0.17271 0.0
O164 O 0.83836 0.08548 0.16803 0.0
O165 O 0.84802 0.11549 0.16067 0.0
O166 O 0.81906 0.04773 0.14585 0.0
O167 O 0.83929 0.06021 0.12387 0.0
O168 O 0.30263 0.61305 0.62743 0.0
Cd169 Cd 0.33246 0.60937 0.63065 0.0
Cd170 Cd 0.31769 0.57507 0.64373 0.0
O171 O 0.2908 0.58354 0.63433 0.0
O172 O 0.34623 0.63069 0.61596 0.0
O173 O 0.34639 0.60006 0.60726 0.0
C174 C 0.35159 0.61795 0.60392 0.0
C175 C 0.32823 0.54553 0.63436 0.0
C176 C 0.28801 0.60042 0.62905 0.0
C177 C 0.34116 0.60127 0.6726 0.0
O178 O 0.3291 0.58628 0.67014 0.0
O179 O 0.34568 0.61188 0.65827 0.0
O180 O 0.3144 0.54666 0.64666 0.0
O181 O 0.33564 0.56126 0.62669 0.0
O182 O 0.16192 0.59033 0.33455 0.0
Cd183 Cd 0.17423 0.58039 0.35976 0.0
Cd184 Cd 0.16319 0.61476 0.37343 0.0
O185 O 0.14982 0.61622 0.34617 0.0
O186 O 0.17972 0.55412 0.35159 0.0
O187 O 0.15891 0.55959 0.37467 0.0
C188 C 0.16736 0.54743 0.36417 0.0
C189 C 0.14612 0.61942 0.40165 0.0
C190 C 0.15213 0.60472 0.33204 0.0
C191 C 0.20643 0.60966 0.37517 0.0
O192 O 0.19335 0.62136 0.37661 0.0
O193 O 0.20161 0.59238 0.36957 0.0
O194 O 0.15201 0.63361 0.39085 0.0
O195 O 0.14912 0.60226 0.39585 0.0
O196 O 0.33509 0.41312 0.83535 0.0
Cd197 Cd 0.32415 0.42054 0.86168 0.0
Cd198 Cd 0.33863 0.38798 0.87261 0.0
O199 O 0.35191 0.38969 0.84578 0.0
O200 O 0.32112 0.44846 0.86064 0.0
O201 O 0.34289 0.43617 0.88028 0.0
C202 C 0.33546 0.45111 0.87348 0.0
C203 C 0.35512 0.38244 0.90183 0.0
C204 C 0.34713 0.4007 0.83222 0.0
C205 C 0.29457 0.38939 0.87322 0.0
O206 O 0.3089 0.37903 0.87383 0.0
O207 O 0.29743 0.40713 0.86948 0.0
O208 O 0.35108 0.36891 0.88883 0.0
O209 O 0.35128 0.39962 0.89748 0.0
O210 O 0.86542 0.8581 0.5588 0.0
Cd211 Cd 0.86566 0.85536 0.58874 0.0
Cd212 Cd 0.87348 0.81802 0.57817 0.0
O213 O 0.86796 0.82776 0.5505 0.0
O214 O 0.85323 0.87821 0.59857 0.0
O215 O 0.8397 0.84838 0.60159 0.0
C216 C 0.83864 0.86663 0.60412 0.0
C217 C 0.86433 0.78577 0.58552 0.0
C218 C 0.86609 0.84501 0.54577 0.0
C219 C 0.90517 0.84363 0.60102 0.0
O220 O 0.90011 0.82821 0.59127 0.0
O221 O 0.89308 0.85627 0.60298 0.0
O222 O 0.87766 0.79057 0.57315 0.0
O223 O 0.8553 0.79932 0.59323 0.0
O224 O 0.89821 0.08745 0.35905 0.0
Cd225 Cd 0.90987 0.11103 0.34443 0.0
Cd226 Cd 0.9023 0.12785 0.37862 0.0
O227 O 0.88681 0.10175 0.38466 0.0
O228 O 0.91031 0.10003 0.31758 0.0
O229 O 0.89376 0.1248 0.32492 0.0
C230 C 0.89878 0.11258 0.31209 0.0
C231 C 0.88767 0.15653 0.38073 0.0
C232 C 0.8888 0.08659 0.37472 0.0
C233 C 0.94503 0.12726 0.36808 0.0
O234 O 0.93299 0.13025 0.3814 0.0
O235 O 0.93864 0.12068 0.35144 0.0
O236 O 0.89285 0.14779 0.39618 0.0
O237 O 0.89019 0.14857 0.36394 0.0
O238 O 0.58927 0.16499 0.09167 0.0
Cd239 Cd 0.61472 0.17403 0.07779 0.0
Cd240 Cd 0.62176 0.13689 0.08717 0.0
O241 O 0.59578 0.13663 0.10223 0.0
O242 O 0.60981 0.20095 0.07215 0.0
O243 O 0.63412 0.19395 0.09196 0.0
C244 C 0.62429 0.2068 0.08398 0.0
C245 C 0.65176 0.13065 0.10177 0.0
C246 C 0.58435 0.14995 0.10115 0.0
C247 C 0.619 0.14584 0.04471 0.0
O248 O 0.61975 0.13281 0.05727 0.0
O249 O 0.61809 0.16324 0.05004 0.0
O250 O 0.63818 0.11692 0.09719 0.0
O251 O 0.64786 0.14814 0.0989 0.0
O252 O 0.56299 0.86301 0.85783 0.0
Cd253 Cd 0.59319 0.86868 0.85489 0.0
Cd254 Cd 0.57971 0.88383 0.82095 0.0
O255 O 0.5524 0.87207 0.8291 0.0
O256 O 0.60396 0.85369 0.87638 0.0
O257 O 0.60927 0.84767 0.84537 0.0
C258 C 0.61155 0.8433 0.86345 0.0
C259 C 0.58865 0.88059 0.78854 0.0
C260 C 0.54888 0.86495 0.84564 0.0
C261 C 0.60142 0.91109 0.85071 0.0
O262 O 0.59071 0.90898 0.83516 0.0
O263 O 0.60554 0.89656 0.86031 0.0
O264 O 0.57542 0.89156 0.79357 0.0
O265 O 0.59668 0.87095 0.80199 0.0
O266 O 0.888 0.1887 0.89961 0.0
Cd267 Cd 0.88254 0.15968 0.90489 0.0
Cd268 Cd 0.87136 0.1736 0.93984 0.0
O269 O 0.88204 0.19971 0.92896 0.0
O270 O 0.89458 0.14661 0.8829 0.0
O271 O 0.90499 0.1446 0.91358 0.0
C272 C 0.90663 0.14009 0.8954 0.0
C273 C 0.87869 0.16624 0.97213 0.0
C274 C 0.88726 0.20272 0.91159 0.0
C275 C 0.8399 0.15165 0.9144 0.0
O276 O 0.84385 0.16224 0.92954 0.0
O277 O 0.85355 0.14796 0.90311 0.0
O278 O 0.86715 0.1792 0.96778 0.0
O279 O 0.88681 0.15777 0.95801 0.0
O280 O 0.58107 0.15548 0.64888 0.0
Cd281 Cd 0.57054 0.13032 0.66187 0.0
Cd282 Cd 0.60852 0.12228 0.65167 0.0
O283 O 0.6098 0.14839 0.63802 0.0
O284 O 0.54333 0.13622 0.66773 0.0
O285 O 0.54921 0.11349 0.64654 0.0
C286 C 0.53663 0.12333 0.65493 0.0
C287 C 0.61585 0.09383 0.63656 0.0
C288 C 0.59664 0.16001 0.63958 0.0
C289 C 0.59947 0.12227 0.69418 0.0
O290 O 0.61261 0.12253 0.68142 0.0
O291 O 0.58155 0.12393 0.68924 0.0
O292 O 0.62961 0.10714 0.64182 0.0
O293 O 0.59767 0.09723 0.63878 0.0
O294 O 0.65832 0.82417 0.41195 0.0
Cd295 Cd 0.63196 0.81482 0.42433 0.0
Cd296 Cd 0.61757 0.82827 0.39193 0.0
O297 O 0.64558 0.84174 0.3894 0.0
O298 O 0.63899 0.81262 0.45241 0.0
O299 O 0.61868 0.83311 0.44128 0.0
C300 C 0.62815 0.82638 0.45584 0.0
C301 C 0.59094 0.84629 0.38645 0.0
C302 C 0.66052 0.83625 0.39843 0.0
C303 C 0.61364 0.78527 0.39694 0.0
O304 O 0.61343 0.79906 0.38515 0.0
O305 O 0.61865 0.78858 0.41475 0.0
O306 O 0.6009 0.84026 0.3723 0.0
O307 O 0.5962 0.84216 0.40401 0.0
O308 O 0.8885 0.88734 0.18506 0.0
Cd309 Cd 0.89223 0.88879 0.15536 0.0
Cd310 Cd 0.92975 0.88344 0.16657 0.0
O311 O 0.92021 0.89187 0.19345 0.0
O312 O 0.86971 0.90201 0.14469 0.0
O313 O 0.90086 0.91465 0.14437 0.0
C314 C 0.88232 0.9163 0.14073 0.0
C315 C 0.96246 0.89202 0.1582 0.0
C316 C 0.90219 0.89047 0.1981 0.0
C317 C 0.90517 0.8513 0.14413 0.0
O318 O 0.91984 0.85631 0.15567 0.0
O319 O 0.89264 0.86311 0.14014 0.0
O320 O 0.95811 0.88042 0.17209 0.0
O321 O 0.94817 0.89979 0.14958 0.0
O322 O 0.86117 0.55314 0.87546 0.0
Cd323 Cd 0.85864 0.58248 0.87543 0.0
Cd324 Cd 0.82331 0.57045 0.88986 0.0
O325 O 0.83074 0.54319 0.88332 0.0
O326 O 0.88036 0.59244 0.85846 0.0
O327 O 0.84877 0.59439 0.85086 0.0
C328 C 0.86708 0.59728 0.8462 0.0
C329 C 0.79285 0.58042 0.87983 0.0
C330 C 0.84788 0.5395 0.87845 0.0
C331 C 0.85169 0.59519 0.91627 0.0
O332 O 0.83597 0.58373 0.9149 0.0
O333 O 0.8625 0.59799 0.9016 0.0
O334 O 0.79427 0.56828 0.8936 0.0
O335 O 0.80881 0.58647 0.87115 0.0
O336 O 0.34829 0.90791 0.16383 0.0
Cd337 Cd 0.33405 0.91748 0.13938 0.0
Cd338 Cd 0.34249 0.88151 0.1263 0.0
O339 O 0.35585 0.87955 0.15338 0.0
O340 O 0.32892 0.94365 0.14826 0.0
O341 O 0.34808 0.93855 0.12368 0.0
C342 C 0.34026 0.95055 0.13492 0.0
C343 C 0.35882 0.8767 0.09771 0.0
C344 C 0.35616 0.89242 0.16675 0.0
C345 C 0.29997 0.8887 0.12582 0.0
O346 O 0.31229 0.87637 0.12368 0.0
O347 O 0.30582 0.90582 0.13136 0.0
O348 O 0.35266 0.86248 0.10838 0.0
O349 O 0.35658 0.89393 0.10389 0.0
O350 O 0.15606 0.08894 0.66083 0.0
Cd351 Cd 0.16986 0.0831 0.6354 0.0
Cd352 Cd 0.15657 0.11679 0.62668 0.0
O353 O 0.14027 0.11339 0.65146 0.0
O354 O 0.17708 0.05667 0.63981 0.0
O355 O 0.15564 0.06337 0.61667 0.0
C356 C 0.16465 0.0507 0.62594 0.0
C357 C 0.14325 0.11876 0.59544 0.0
C358 C 0.14378 0.10108 0.66417 0.0
C359 C 0.20005 0.11632 0.62884 0.0
O360 O 0.186 0.12702 0.62941 0.0
O361 O 0.19647 0.09817 0.62956 0.0
O362 O 0.14396 0.13318 0.60761 0.0
O363 O 0.1489 0.10272 0.60156 0.0
O364 O 0.19219 0.88668 0.87416 0.0
Cd365 Cd 0.16257 0.89102 0.87089 0.0
Cd366 Cd 0.17759 0.92492 0.85791 0.0
O367 O 0.20418 0.91627 0.86789 0.0
O368 O 0.14831 0.87019 0.88582 0.0
O369 O 0.14908 0.90099 0.89421 0.0
C370 C 0.14349 0.88325 0.8978 0.0
C371 C 0.16668 0.95406 0.86777 0.0
C372 C 0.20687 0.89929 0.87291 0.0
C373 C 0.15448 0.89894 0.8288 0.0
O374 O 0.16677 0.91378 0.83122 0.0
O375 O 0.14952 0.8886 0.84321 0.0
O376 O 0.18118 0.95348 0.85616 0.0
O377 O 0.15865 0.93805 0.87433 0.0
O378 O 0.6939 0.38927 0.38046 0.0
Cd379 Cd 0.66398 0.39178 0.37756 0.0
Cd380 Cd 0.67645 0.42742 0.36488 0.0
O381 O 0.70388 0.41918 0.37322 0.0
O382 O 0.65074 0.37074 0.3929 0.0
O383 O 0.64998 0.40157 0.40062 0.0
C384 C 0.64513 0.38374 0.40449 0.0
C385 C 0.66776 0.45805 0.37286 0.0
C386 C 0.70779 0.40255 0.37838 0.0
C387 C 0.65323 0.40012 0.33625 0.0
O388 O 0.66352 0.41618 0.33902 0.0
O389 O 0.65089 0.38837 0.35006 0.0
O390 O 0.68135 0.45558 0.36066 0.0
O391 O 0.65949 0.44312 0.38129 0.0
O392 O 0.85024 0.40688 0.66067 0.0
Cd393 Cd 0.83811 0.4165 0.63516 0.0
Cd394 Cd 0.84629 0.3803 0.62316 0.0
O395 O 0.8583 0.37846 0.65088 0.0
O396 O 0.83352 0.44336 0.64228 0.0
O397 O 0.85473 0.43629 0.62012 0.0
C398 C 0.84654 0.44913 0.62994 0.0
C399 C 0.86396 0.37606 0.5953 0.0
C400 C 0.85783 0.39134 0.66415 0.0
C401 C 0.80407 0.38827 0.62042 0.0
O402 O 0.81615 0.37557 0.61933 0.0
O403 O 0.81011 0.40544 0.62564 0.0
O404 O 0.85732 0.36159 0.60542 0.0
O405 O 0.86141 0.39316 0.60168 0.0
O406 O 0.66057 0.59041 0.08278 0.0
Cd407 Cd 0.66809 0.58117 0.11014 0.0
Cd408 Cd 0.63034 0.58573 0.11457 0.0
O409 O 0.6324 0.60169 0.08964 0.0
O410 O 0.69706 0.58016 0.10863 0.0
O411 O 0.6838 0.60077 0.12791 0.0
C412 C 0.6994 0.5944 0.12093 0.0
C413 C 0.62359 0.59781 0.14509 0.0
C414 C 0.64619 0.59982 0.07788 0.0
C415 C 0.64094 0.54591 0.1157 0.0
O416 O 0.627 0.55616 0.11165 0.0
O417 O 0.65855 0.55367 0.11811 0.0
O418 O 0.60957 0.59332 0.13215 0.0
O419 O 0.64163 0.59645 0.14019 0.0
O420 O 0.6396 0.6429 0.92892 0.0
Cd421 Cd 0.6386 0.64898 0.89967 0.0
Cd422 Cd 0.63246 0.68383 0.91446 0.0
O423 O 0.64153 0.67269 0.94047 0.0
O424 O 0.65002 0.62677 0.8872 0.0
O425 O 0.66465 0.65646 0.88724 0.0
C426 C 0.66512 0.6384 0.88302 0.0
C427 C 0.64317 0.71504 0.90561 0.0
C428 C 0.64185 0.6548 0.94324 0.0
C429 C 0.59856 0.66144 0.89247 0.0
O430 O 0.60404 0.67499 0.90466 0.0
O431 O 0.61086 0.65011 0.88674 0.0
O432 O 0.63213 0.71176 0.92032 0.0
O433 O 0.64906 0.70051 0.8963 0.0
O434 O 0.59423 0.40464 0.15846 0.0
Cd435 Cd 0.58043 0.3802 0.1701 0.0
Cd436 Cd 0.58888 0.3658 0.13387 0.0
O437 O 0.6017 0.39329 0.12969 0.0
O438 O 0.57719 0.38924 0.19727 0.0
O439 O 0.5957 0.36602 0.18994 0.0
C440 C 0.58919 0.3772 0.20296 0.0
C441 C 0.60642 0.33967 0.12659 0.0
C442 C 0.60193 0.40713 0.14199 0.0
C443 C 0.54603 0.36434 0.14404 0.0
O444 O 0.55849 0.36125 0.1312 0.0
O445 O 0.55181 0.37131 0.16073 0.0
O446 O 0.59917 0.34971 0.11306 0.0
O447 O 0.60402 0.3447 0.14452 0.0
O448 O 0.91303 0.3401 0.40094 0.0
Cd449 Cd 0.89092 0.32818 0.41811 0.0
Cd450 Cd 0.88012 0.36585 0.41239 0.0
O451 O 0.9052 0.36961 0.39618 0.0
O452 O 0.89966 0.30194 0.41998 0.0
O453 O 0.8709 0.30727 0.40638 0.0
C454 C 0.88359 0.29532 0.41076 0.0
C455 C 0.84921 0.37267 0.40041 0.0
C456 C 0.91663 0.35653 0.39354 0.0
C457 C 0.88729 0.35385 0.4537 0.0
O458 O 0.88364 0.36716 0.4422 0.0
O459 O 0.89012 0.33724 0.44706 0.0
O460 O 0.86266 0.38621 0.40587 0.0
O461 O 0.8537 0.35512 0.4009 0.0
O462 O 0.93049 0.63487 0.63754 0.0
Cd463 Cd 0.90061 0.6302 0.64277 0.0
Cd464 Cd 0.91537 0.61815 0.6771 0.0
O465 O 0.9419 0.63046 0.66736 0.0
O466 O 0.88774 0.64382 0.62136 0.0
O467 O 0.88677 0.65271 0.65237 0.0
C468 C 0.88241 0.65571 0.6343 0.0
C469 C 0.90655 0.62346 0.70921 0.0
C470 C 0.94492 0.63506 0.64983 0.0
C471 C 0.89335 0.58832 0.65047 0.0
O472 O 0.90539 0.59164 0.66497 0.0
O473 O 0.88779 0.60211 0.64055 0.0
O474 O 0.92097 0.61356 0.70518 0.0
O475 O 0.89723 0.63087 0.69497 0.0
O476 O 0.61511 0.31031 0.60947 0.0
Cd477 Cd 0.61842 0.33948 0.60447 0.0
Cd478 Cd 0.62566 0.32732 0.56829 0.0
O479 O 0.61448 0.30102 0.57853 0.0
O480 O 0.60546 0.35224 0.62605 0.0
O481 O 0.595 0.35272 0.59518 0.0
C482 C 0.59294 0.35755 0.61323 0.0
C483 C 0.61783 0.33556 0.53635 0.0
C484 C 0.61286 0.29703 0.59643 0.0
C485 C 0.6594 0.34843 0.59199 0.0
O486 O 0.65407 0.33763 0.57728 0.0
O487 O 0.64683 0.35245 0.60434 0.0
O488 O 0.62877 0.32198 0.54011 0.0
O489 O 0.61046 0.34412 0.55087 0.0
O490 O 0.88351 0.37017 0.81627 0.0
Cd491 Cd 0.88747 0.37313 0.84611 0.0
Cd492 Cd 0.92533 0.3687 0.83777 0.0
O493 O 0.91518 0.37651 0.81068 0.0
O494 O 0.86669 0.38903 0.85524 0.0
O495 O 0.89871 0.399 0.85663 0.0
C496 C 0.88064 0.40261 0.85915 0.0
C497 C 0.95877 0.37687 0.84611 0.0
C498 C 0.89728 0.37407 0.80448 0.0
C499 C 0.90132 0.33701 0.85894 0.0
O500 O 0.91583 0.34202 0.84834 0.0
O501 O 0.88825 0.34845 0.86194 0.0
O502 O 0.95312 0.36474 0.83223 0.0
O503 O 0.94536 0.38528 0.8549 0.0
O504 O 0.83379 0.67056 0.08742 0.0
Cd505 Cd 0.85952 0.6808 0.07441 0.0
Cd506 Cd 0.87686 0.67018 0.10765 0.0
O507 O 0.84863 0.65794 0.1124 0.0
O508 O 0.85401 0.68051 0.04574 0.0
O509 O 0.87438 0.6618 0.06007 0.0
C510 C 0.86572 0.66712 0.04432 0.0
C511 C 0.90301 0.65183 0.11462 0.0
C512 C 0.83292 0.66078 0.10284 0.0
C513 C 0.88 0.71255 0.09913 0.0
O514 O 0.88275 0.69966 0.11147 0.0
O515 O 0.87179 0.70796 0.08258 0.0
O516 O 0.89317 0.65898 0.12825 0.0
O517 O 0.89792 0.65496 0.09676 0.0
O518 O 0.60863 0.61054 0.3001 0.0
Cd519 Cd 0.60802 0.61175 0.33012 0.0
Cd520 Cd 0.56894 0.61888 0.32166 0.0
O521 O 0.57718 0.61377 0.29337 0.0
O522 O 0.63134 0.59864 0.33883 0.0
O523 O 0.60055 0.58753 0.3448 0.0
C524 C 0.61924 0.58546 0.34601 0.0
C525 C 0.53651 0.60999 0.33071 0.0
C526 C 0.59442 0.61134 0.28775 0.0
C527 C 0.59635 0.64956 0.34375 0.0
O528 O 0.57968 0.64429 0.33549 0.0
O529 O 0.6102 0.63858 0.3437 0.0
O530 O 0.54058 0.62302 0.31809 0.0
O531 O 0.55083 0.60092 0.33745 0.0
O532 O 0.63701 0.94414 0.62167 0.0
Cd533 Cd 0.63995 0.91508 0.62249 0.0
Cd534 Cd 0.67651 0.9268 0.60863 0.0
O535 O 0.66741 0.95394 0.61344 0.0
O536 O 0.61856 0.90428 0.63934 0.0
O537 O 0.65034 0.90435 0.6474 0.0
C538 C 0.63207 0.90033 0.65181 0.0
C539 C 0.70867 0.91997 0.61713 0.0
C540 C 0.65019 0.95768 0.61808 0.0
C541 C 0.64844 0.90025 0.58292 0.0
O542 O 0.6647 0.91087 0.58471 0.0
O543 O 0.63637 0.89926 0.5967 0.0
O544 O 0.70515 0.93112 0.60298 0.0
O545 O 0.69392 0.91339 0.62729 0.0
O546 O 0.36557 0.36079 0.05623 0.0
Cd547 Cd 0.36456 0.35759 0.08608 0.0
Cd548 Cd 0.37165 0.3197 0.07503 0.0
O549 O 0.36752 0.33043 0.04755 0.0
O550 O 0.3521 0.38046 0.09582 0.0
O551 O 0.33797 0.35071 0.09772 0.0
C552 C 0.3371 0.36895 0.10055 0.0
C553 C 0.36259 0.28703 0.08052 0.0
C554 C 0.36631 0.34785 0.04306 0.0
C555 C 0.40273 0.34411 0.10011 0.0
O556 O 0.39759 0.32904 0.08984 0.0
O557 O 0.3912 0.35731 0.10156 0.0
O558 O 0.37642 0.29261 0.06896 0.0
O559 O 0.35293 0.30005 0.08836 0.0
O560 O 0.40951 0.58586 0.84968 0.0
Cd561 Cd 0.41906 0.61135 0.83688 0.0
Cd562 Cd 0.41017 0.62633 0.87164 0.0
O563 O 0.39722 0.59874 0.87564 0.0
O564 O 0.41973 0.60519 0.80855 0.0
O565 O 0.39938 0.62472 0.821 0.0
C566 C 0.40571 0.61611 0.80593 0.0
C567 C 0.39232 0.65231 0.87871 0.0
C568 C 0.39995 0.58405 0.86525 0.0
C569 C 0.45292 0.63047 0.86088 0.0
O570 O 0.44069 0.63177 0.87438 0.0
O571 O 0.44699 0.62372 0.84418 0.0
O572 O 0.39957 0.64237 0.89232 0.0
O573 O 0.39482 0.6472 0.86082 0.0
O574 O 0.08615 0.66976 0.58667 0.0
Cd575 Cd 0.11151 0.67892 0.57264 0.0
Cd576 Cd 0.12002 0.64251 0.58358 0.0
O577 O 0.09408 0.64241 0.5987 0.0
O578 O 0.10669 0.70579 0.56661 0.0
O579 O 0.13094 0.6989 0.5866 0.0
C580 C 0.12121 0.7117 0.57839 0.0
C581 C 0.14977 0.63552 0.59827 0.0
C582 C 0.08198 0.6551 0.59695 0.0
C583 C 0.11707 0.64997 0.5407 0.0
O584 O 0.11814 0.63751 0.55381 0.0
O585 O 0.11548 0.66744 0.5453 0.0
O586 O 0.13578 0.62215 0.59387 0.0
O587 O 0.14644 0.65314 0.59523 0.0
O588 O 0.06937 0.36955 0.3657 0.0
Cd589 Cd 0.09949 0.36965 0.36317 0.0
Cd590 Cd 0.09047 0.37956 0.3251 0.0
O591 O 0.06208 0.37216 0.33434 0.0
O592 O 0.10922 0.35376 0.38447 0.0
O593 O 0.11059 0.3458 0.35317 0.0
C594 C 0.11382 0.34176 0.37123 0.0
C595 C 0.09606 0.3751 0.29182 0.0
C596 C 0.05665 0.36998 0.35178 0.0
C597 C 0.11527 0.40856 0.35216 0.0
O598 O 0.10572 0.40464 0.33612 0.0
O599 O 0.11569 0.39605 0.36528 0.0
O600 O 0.08472 0.38743 0.298 0.0
O601 O 0.10387 0.36453 0.30456 0.0
O602 O 0.39689 0.69006 0.40033 0.0
Cd603 Cd 0.39125 0.66085 0.40459 0.0
Cd604 Cd 0.37944 0.67445 0.44008 0.0
O605 O 0.39097 0.70061 0.42988 0.0
O606 O 0.40271 0.64881 0.3816 0.0
O607 O 0.41378 0.64518 0.41178 0.0
C608 C 0.41497 0.64158 0.39335 0.0
C609 C 0.38469 0.66645 0.47259 0.0
C610 C 0.39632 0.70388 0.41258 0.0
C611 C 0.34837 0.65321 0.41351 0.0
O612 O 0.35214 0.66371 0.42874 0.0
O613 O 0.36218 0.64935 0.4025 0.0
O614 O 0.37389 0.67986 0.46778 0.0
O615 O 0.39343 0.658 0.45888 0.0
O616 O 0.07977 0.65965 0.15318 0.0
Cd617 Cd 0.07057 0.63365 0.16516 0.0
Cd618 Cd 0.10673 0.62649 0.15244 0.0
O619 O 0.10565 0.65177 0.13741 0.0
O620 O 0.04309 0.6377 0.17184 0.0
O621 O 0.04993 0.61635 0.14954 0.0
C622 C 0.03689 0.62504 0.15861 0.0
C623 C 0.1134 0.59742 0.13822 0.0
C624 C 0.09349 0.66389 0.14141 0.0
C625 C 0.10128 0.62681 0.19553 0.0
O626 O 0.11354 0.6283 0.18192 0.0
O627 O 0.08289 0.62688 0.19169 0.0
O628 O 0.12719 0.61128 0.14144 0.0
O629 O 0.09543 0.60059 0.14186 0.0
O630 O 0.15665 0.32088 0.92196 0.0
Cd631 Cd 0.12988 0.31173 0.93335 0.0
Cd632 Cd 0.11482 0.32552 0.90114 0.0
O633 O 0.14337 0.33846 0.89973 0.0
O634 O 0.13335 0.31177 0.96218 0.0
O635 O 0.11533 0.33165 0.9463 0.0
C636 C 0.12264 0.32604 0.9626 0.0
C637 C 0.08921 0.34449 0.894 0.0
C638 C 0.15851 0.33322 0.90866 0.0
C639 C 0.11029 0.28239 0.90614 0.0
O640 O 0.10937 0.29627 0.89451 0.0
O641 O 0.11667 0.28561 0.9236 0.0
O642 O 0.10013 0.33856 0.88058 0.0
O643 O 0.09284 0.33968 0.91172 0.0
O644 O 0.38988 0.39084 0.68276 0.0
Cd645 Cd 0.39687 0.3926 0.6536 0.0
Cd646 Cd 0.43155 0.3835 0.66956 0.0
O647 O 0.42026 0.39229 0.69525 0.0
O648 O 0.37442 0.40498 0.64153 0.0
O649 O 0.40499 0.4191 0.64366 0.0
C650 C 0.38656 0.41998 0.63885 0.0
C651 C 0.46479 0.39069 0.66262 0.0
C652 C 0.40181 0.39244 0.6975 0.0
C653 C 0.40825 0.35388 0.64404 0.0
O654 O 0.42043 0.35701 0.65841 0.0
O655 O 0.39865 0.36731 0.63767 0.0
O656 O 0.45937 0.37931 0.6764 0.0
O657 O 0.4513 0.39907 0.65338 0.0
O658 O 0.35905 0.05283 0.37017 0.0
Cd659 Cd 0.35524 0.08191 0.37043 0.0
Cd660 Cd 0.32084 0.06896 0.38694 0.0
O661 O 0.32939 0.04225 0.3798 0.0
O662 O 0.3766 0.09365 0.35399 0.0
O663 O 0.34484 0.09357 0.34595 0.0
C664 C 0.36309 0.09811 0.34179 0.0
C665 C 0.28949 0.07756 0.37833 0.0
C666 C 0.34634 0.03895 0.37402 0.0
C667 C 0.34945 0.09453 0.41184 0.0
O668 O 0.33402 0.08266 0.41154 0.0
O669 O 0.35929 0.09729 0.39653 0.0
O670 O 0.29192 0.06499 0.39146 0.0
O671 O 0.30486 0.08489 0.36948 0.0
H672 H 0.11714 0.30976 0.3482 0.0
H673 H 0.12778 0.33237 0.40704 0.0
H674 H 0.12549 0.27829 0.35883 0.0
H675 H 0.13667 0.30121 0.41751 0.0
H676 H 0.11817 0.23863 0.43321 0.0
H677 H 0.11739 0.27134 0.42247 0.0
H678 H 0.15018 0.25817 0.37179 0.0
H679 H 0.15059 0.22494 0.38247 0.0
C680 C 0.12166 0.30812 0.36331 0.0
C681 C 0.12151 0.32347 0.37684 0.0
C682 C 0.12655 0.29011 0.36939 0.0
C683 C 0.1315 0.28714 0.38909 0.0
C684 C 0.1325 0.30286 0.40232 0.0
C685 C 0.12747 0.32076 0.3963 0.0
C686 C 0.12547 0.24271 0.4199 0.0
C687 C 0.13437 0.22914 0.40866 0.0
C688 C 0.12514 0.26157 0.41378 0.0
C689 C 0.13373 0.26745 0.39624 0.0
C690 C 0.14327 0.25406 0.38528 0.0
C691 C 0.14365 0.23508 0.39147 0.0
H692 H 0.03181 0.8555 0.60305 0.0
H693 H 0.01996 0.87909 0.65973 0.0
H694 H 0.99643 0.84847 0.5963 0.0
H695 H 0.98447 0.8719 0.65292 0.0
H696 H 0.92293 0.87583 0.62058 0.0
H697 H 0.95795 0.88259 0.63015 0.0
H698 H 0.96898 0.8263 0.60859 0.0
H699 H 0.93426 0.81954 0.59897 0.0
C700 C 0.02168 0.85916 0.61409 0.0
C701 C 0.02873 0.86783 0.63194 0.0
C702 C 0.00141 0.85503 0.61025 0.0
C703 C 0.98771 0.85956 0.62413 0.0
C704 C 0.9947 0.86836 0.64192 0.0
C705 C 0.01502 0.87237 0.64584 0.0
C706 C 0.93279 0.86483 0.61809 0.0
C707 C 0.9258 0.84722 0.60884 0.0
C708 C 0.95282 0.86869 0.62361 0.0
C709 C 0.96621 0.85505 0.61988 0.0
C710 C 0.95907 0.83721 0.61131 0.0
C711 C 0.93911 0.83332 0.6059 0.0
H712 H 0.38921 0.75689 0.93862 0.0
H713 H 0.35262 0.76803 0.8883 0.0
H714 H 0.38809 0.72337 0.92861 0.0
H715 H 0.35123 0.73401 0.87828 0.0
H716 H 0.37829 0.66217 0.91382 0.0
H717 H 0.36811 0.6932 0.92387 0.0
H718 H 0.37557 0.71354 0.86528 0.0
H719 H 0.3852 0.68217 0.85507 0.0
C720 C 0.38056 0.75207 0.92559 0.0
C721 C 0.37113 0.76513 0.91417 0.0
C722 C 0.37978 0.73276 0.91991 0.0
C723 C 0.36959 0.72596 0.90261 0.0
C724 C 0.35934 0.73884 0.8916 0.0
C725 C 0.36001 0.75826 0.89741 0.0
C726 C 0.37738 0.67313 0.90298 0.0
C727 C 0.38287 0.66985 0.88373 0.0
C728 C 0.3716 0.69094 0.90876 0.0
C729 C 0.3714 0.70598 0.89548 0.0
C730 C 0.37548 0.70225 0.87586 0.0
C731 C 0.3811 0.68431 0.87002 0.0
H732 H 0.45906 0.14811 0.11284 0.0
H733 H 0.47706 0.12576 0.1682 0.0
H734 H 0.49342 0.15215 0.10349 0.0
H735 H 0.51161 0.12993 0.15876 0.0
H736 H 0.5669 0.11943 0.12131 0.0
H737 H 0.53333 0.11589 0.13368 0.0
H738 H 0.52411 0.17261 0.11369 0.0
H739 H 0.55727 0.17618 0.10133 0.0
C740 C 0.47035 0.14415 0.12307 0.0
C741 C 0.4653 0.13665 0.14129 0.0
C742 C 0.49006 0.14654 0.11774 0.0
C743 C 0.5052 0.14139 0.13042 0.0
C744 C 0.50022 0.13389 0.14865 0.0
C745 C 0.48046 0.13165 0.15409 0.0
C746 C 0.55775 0.13119 0.11971 0.0
C747 C 0.56473 0.14799 0.11015 0.0
C748 C 0.53858 0.12919 0.12686 0.0
C749 C 0.52605 0.14391 0.12445 0.0
C750 C 0.5333 0.1609 0.11546 0.0
C751 C 0.55238 0.16294 0.10844 0.0
H752 H 0.06901 0.69212 0.14631 0.0
H753 H 0.1216 0.67942 0.11673 0.0
H754 H 0.07185 0.72416 0.13303 0.0
H755 H 0.12458 0.71183 0.10363 0.0
H756 H 0.11256 0.76569 0.06952 0.0
H757 H 0.10818 0.73271 0.08086 0.0
H758 H 0.0937 0.7537 0.13774 0.0
H759 H 0.09776 0.78657 0.12641 0.0
C760 C 0.08122 0.69615 0.13698 0.0
C761 C 0.09516 0.68319 0.13268 0.0
C762 C 0.08287 0.71459 0.12944 0.0
C763 C 0.0985 0.7206 0.11739 0.0
C764 C 0.11227 0.70757 0.11275 0.0
C765 C 0.11062 0.68904 0.12034 0.0
C766 C 0.10827 0.76326 0.0844 0.0
C767 C 0.10548 0.7788 0.09704 0.0
C768 C 0.10592 0.74437 0.09093 0.0
C769 C 0.10065 0.74059 0.11021 0.0
C770 C 0.09755 0.7561 0.12273 0.0
C771 C 0.09995 0.77497 0.11624 0.0
H772 H 0.49244 0.89507 0.33011 0.0
H773 H 0.47256 0.87823 0.38683 0.0
H774 H 0.52657 0.89238 0.34079 0.0
H775 H 0.50641 0.87392 0.39723 0.0
H776 H 0.56979 0.86604 0.41226 0.0
H777 H 0.53997 0.88195 0.40509 0.0
H778 H 0.54282 0.86525 0.34425 0.0
H779 H 0.57278 0.85049 0.35128 0.0
C780 C 0.49552 0.89125 0.34505 0.0
C781 C 0.48002 0.88681 0.35766 0.0
C782 C 0.51502 0.88939 0.35112 0.0
C783 C 0.51928 0.88222 0.36967 0.0
C784 C 0.50384 0.87949 0.38286 0.0
C785 C 0.48438 0.88196 0.37694 0.0
C786 C 0.5641 0.86607 0.39734 0.0
C787 C 0.57357 0.85694 0.38235 0.0
C788 C 0.54698 0.87512 0.39322 0.0
C789 C 0.53886 0.87501 0.37406 0.0
C790 C 0.54874 0.8662 0.3591 0.0
C791 C 0.56591 0.85745 0.36317 0.0
H792 H 0.41538 0.23316 0.61521 0.0
H793 H 0.36839 0.24929 0.57704 0.0
H794 H 0.42218 0.26642 0.62666 0.0
H795 H 0.37414 0.28229 0.58936 0.0
H796 H 0.3966 0.34372 0.60637 0.0
H797 H 0.39338 0.31151 0.59143 0.0
H798 H 0.4091 0.28802 0.64704 0.0
H799 H 0.41351 0.32018 0.66138 0.0
C800 C 0.40651 0.24387 0.60929 0.0
C801 C 0.39134 0.23866 0.5953 0.0
C802 C 0.41023 0.26293 0.61599 0.0
C803 C 0.3985 0.27714 0.60924 0.0
C804 C 0.38369 0.27192 0.59477 0.0
C805 C 0.3803 0.25294 0.58774 0.0
C806 C 0.39938 0.3316 0.6153 0.0
C807 C 0.40537 0.33443 0.63499 0.0
C808 C 0.39747 0.31311 0.60679 0.0
C809 C 0.40108 0.29701 0.61794 0.0
C810 C 0.40674 0.29998 0.63776 0.0
C811 C 0.40907 0.31845 0.64609 0.0
H812 H 0.99672 0.11712 0.82082 0.0
H813 H 0.01787 0.09111 0.87302 0.0
H814 H 0.96529 0.12025 0.83554 0.0
H815 H 0.9859 0.0938 0.88779 0.0
H816 H 0.94157 0.13447 0.91438 0.0
H817 H 0.96982 0.12064 0.90055 0.0
H818 H 0.93524 0.1057 0.84751 0.0
H819 H 0.9074 0.12021 0.86105 0.0
C820 C 0.99446 0.11158 0.83529 0.0
C821 C 0.00986 0.10406 0.84582 0.0
C822 C 0.97631 0.11326 0.84373 0.0
C823 C 0.97305 0.10741 0.86295 0.0
C824 C 0.98803 0.09869 0.87306 0.0
C825 C 0.00627 0.09698 0.86454 0.0
C826 C 0.93994 0.12791 0.89991 0.0
C827 C 0.92245 0.12875 0.88865 0.0
C828 C 0.95608 0.11986 0.892 0.0
C829 C 0.95492 0.11233 0.87276 0.0
C830 C 0.93682 0.11181 0.86217 0.0
C831 C 0.92084 0.12007 0.86995 0.0
H832 H 0.37451 0.14151 0.22264 0.0
H833 H 0.42504 0.11106 0.23752 0.0
H834 H 0.36386 0.13899 0.25638 0.0
H835 H 0.41436 0.1083 0.27078 0.0
H836 H 0.39934 0.11461 0.33234 0.0
H837 H 0.40989 0.12575 0.30063 0.0
H838 H 0.35024 0.11274 0.27714 0.0
H839 H 0.33954 0.10202 0.30916 0.0
C840 C 0.3835 0.13458 0.23316 0.0
C841 C 0.40058 0.12643 0.22741 0.0
C842 C 0.37732 0.133 0.25242 0.0
C843 C 0.38822 0.12341 0.26628 0.0
C844 C 0.40572 0.11601 0.26061 0.0
C845 C 0.4118 0.11749 0.24145 0.0
C846 C 0.3884 0.11437 0.3205 0.0
C847 C 0.36866 0.10717 0.32318 0.0
C848 C 0.39446 0.12071 0.30229 0.0
C849 C 0.38099 0.11985 0.28626 0.0
C850 C 0.36098 0.1137 0.2892 0.0
C851 C 0.35486 0.10746 0.30752 0.0
H852 H 0.12543 0.11336 0.46839 0.0
H853 H 0.14237 0.17297 0.48436 0.0
H854 H 0.12538 0.10517 0.50267 0.0
H855 H 0.14308 0.16467 0.51864 0.0
H856 H 0.12605 0.14854 0.57907 0.0
H857 H 0.12227 0.15512 0.54452 0.0
H858 H 0.14663 0.10193 0.53013 0.0
H859 H 0.14965 0.09504 0.56467 0.0
C860 C 0.12937 0.1247 0.47921 0.0
C861 C 0.13392 0.14383 0.47362 0.0
C862 C 0.12939 0.11998 0.4989 0.0
C863 C 0.13413 0.13424 0.51349 0.0
C864 C 0.13893 0.15335 0.50785 0.0
C865 C 0.13872 0.1581 0.48817 0.0
C866 C 0.13027 0.1381 0.56851 0.0
C867 C 0.13821 0.1213 0.5746 0.0
C868 C 0.12832 0.14197 0.54869 0.0
C869 C 0.13446 0.12923 0.53449 0.0
C870 C 0.1416 0.11202 0.5406 0.0
C871 C 0.14335 0.10805 0.56044 0.0
H872 H 0.16914 0.91008 0.79381 0.0
H873 H 0.12064 0.87575 0.81934 0.0
H874 H 0.15469 0.90192 0.76128 0.0
H875 H 0.10607 0.86789 0.78673 0.0
H876 H 0.07736 0.88847 0.7272 0.0
H877 H 0.09181 0.89005 0.7603 0.0
H878 H 0.14572 0.87099 0.73865 0.0
H879 H 0.13111 0.86903 0.70544 0.0
C880 C 0.15543 0.90077 0.79247 0.0
C881 C 0.14596 0.89363 0.80912 0.0
C882 C 0.14728 0.89597 0.77387 0.0
C883 C 0.12934 0.88423 0.77156 0.0
C884 C 0.11993 0.87697 0.78817 0.0
C885 C 0.12827 0.88146 0.80678 0.0
C886 C 0.09216 0.88424 0.72956 0.0
C887 C 0.10316 0.87868 0.71378 0.0
C888 C 0.10038 0.88509 0.74849 0.0
C889 C 0.11988 0.88074 0.75194 0.0
C890 C 0.13067 0.8745 0.73629 0.0
C891 C 0.12228 0.87326 0.71736 0.0
H892 H 0.39342 0.82733 0.9876 0.0
H893 H 0.36828 0.87997 0.97348 0.0
H894 H 0.3923 0.8354 0.02218 0.0
H895 H 0.36628 0.88766 0.00807 0.0
H896 H 0.37421 0.90306 0.07178 0.0
H897 H 0.38295 0.89688 0.03815 0.0
H898 H 0.36817 0.83594 0.04575 0.0
H899 H 0.36034 0.84206 0.07934 0.0
C900 C 0.3876 0.84062 0.9919 0.0
C901 C 0.38077 0.85293 0.97782 0.0
C902 C 0.38688 0.84523 0.01174 0.0
C903 C 0.37902 0.86211 0.01801 0.0
C904 C 0.37269 0.87468 0.00385 0.0
C905 C 0.37368 0.87019 0.98399 0.0
C906 C 0.3732 0.88834 0.06632 0.0
C907 C 0.3665 0.87307 0.0782 0.0
C908 C 0.37804 0.88479 0.04699 0.0
C909 C 0.37612 0.86591 0.0391 0.0
C910 C 0.37014 0.85064 0.0513 0.0
C911 C 0.36551 0.85417 0.07061 0.0
H912 H 0.42101 0.89527 0.27882 0.0
H913 H 0.36703 0.85818 0.28553 0.0
H914 H 0.41218 0.89879 0.24433 0.0
H915 H 0.35846 0.86149 0.25097 0.0
H916 H 0.36157 0.85808 0.18351 0.0
H917 H 0.37343 0.85299 0.21692 0.0
H918 H 0.38252 0.9144 0.22716 0.0
H919 H 0.37038 0.91955 0.19399 0.0
C920 C 0.40736 0.88776 0.2729 0.0
C921 C 0.39465 0.87652 0.28488 0.0
C922 C 0.40232 0.88981 0.25321 0.0
C923 C 0.3847 0.88036 0.24508 0.0
C924 C 0.37222 0.86878 0.25691 0.0
C925 C 0.37706 0.86701 0.27668 0.0
C926 C 0.36631 0.87047 0.19284 0.0
C927 C 0.36498 0.88921 0.1862 0.0
C928 C 0.37298 0.86755 0.21193 0.0
C929 C 0.37882 0.88331 0.22453 0.0
C930 C 0.37819 0.90203 0.21767 0.0
C931 C 0.37116 0.90495 0.19874 0.0
H932 H 0.38169 0.13583 0.53072 0.0
H933 H 0.36412 0.18449 0.49897 0.0
H934 H 0.37924 0.11649 0.50042 0.0
H935 H 0.36197 0.16524 0.46875 0.0
H936 H 0.37443 0.12759 0.41581 0.0
H937 H 0.38337 0.14654 0.44571 0.0
H938 H 0.3479 0.10501 0.47877 0.0
H939 H 0.33873 0.08615 0.44894 0.0
C940 C 0.37775 0.14251 0.51722 0.0
C941 C 0.37298 0.16162 0.51719 0.0
C942 C 0.37624 0.13142 0.49995 0.0
C943 C 0.37032 0.13938 0.48233 0.0
C944 C 0.36667 0.1588 0.48213 0.0
C945 C 0.36783 0.16978 0.49943 0.0
C946 C 0.36867 0.12242 0.42948 0.0
C947 C 0.35577 0.10544 0.43002 0.0
C948 C 0.37377 0.13328 0.44655 0.0
C949 C 0.36636 0.12718 0.4645 0.0
C950 C 0.35397 0.10991 0.46513 0.0
C951 C 0.34861 0.09922 0.44804 0.0
H952 H 0.12727 0.10008 0.78749 0.0
H953 H 0.06868 0.10888 0.76527 0.0
H954 H 0.13867 0.09839 0.75437 0.0
H955 H 0.08018 0.10698 0.73191 0.0
H956 H 0.11768 0.12553 0.67773 0.0
H957 H 0.10349 0.12603 0.71006 0.0
H958 H 0.13358 0.07663 0.72567 0.0
H959 H 0.14787 0.07619 0.69371 0.0
C960 C 0.11677 0.10155 0.77554 0.0
C961 C 0.09704 0.10459 0.77905 0.0
C962 C 0.1233 0.10048 0.75653 0.0
C963 C 0.1103 0.10248 0.74054 0.0
C964 C 0.09055 0.10551 0.74397 0.0
C965 C 0.08395 0.10647 0.76306 0.0
C966 C 0.12116 0.11472 0.68804 0.0
C967 C 0.13407 0.10095 0.68319 0.0
C968 C 0.11295 0.11495 0.70649 0.0
C969 C 0.11758 0.10147 0.72044 0.0
C970 C 0.13001 0.0874 0.71535 0.0
C971 C 0.13815 0.08713 0.69698 0.0
H972 H 0.12915 0.81831 0.99824 0.0
H973 H 0.10268 0.86889 0.01736 0.0
H974 H 0.13035 0.83023 0.96537 0.0
H975 H 0.10355 0.88081 0.98402 0.0
H976 H 0.12339 0.84876 0.90538 0.0
H977 H 0.11171 0.83751 0.9367 0.0
H978 H 0.12976 0.89358 0.96269 0.0
H979 H 0.14088 0.90501 0.93109 0.0
C980 C 0.12321 0.83184 0.99533 0.0
C981 C 0.11595 0.84271 0.01044 0.0
C982 C 0.12376 0.83863 0.97639 0.0
C983 C 0.11705 0.85651 0.97201 0.0
C984 C 0.10899 0.86706 0.98696 0.0
C985 C 0.10836 0.86018 0.006 0.0
C986 C 0.12451 0.8588 0.91769 0.0
C987 C 0.13334 0.87767 0.91586 0.0
C988 C 0.11788 0.85233 0.93567 0.0
C989 C 0.12016 0.86452 0.9523 0.0
C990 C 0.1277 0.88383 0.95017 0.0
C991 C 0.13416 0.89037 0.93207 0.0
H992 H 0.30086 0.34939 0.10659 0.0
H993 H 0.33228 0.40623 0.1101 0.0
H994 H 0.27004 0.36317 0.11343 0.0
H995 H 0.30166 0.4199 0.11727 0.0
H996 H 0.2407 0.43747 0.0971 0.0
H997 H 0.27252 0.42444 0.09729 0.0
H998 H 0.25083 0.3805 0.1368 0.0
H999 H 0.21863 0.3935 0.13641 0.0
C1000 C 0.30127 0.36476 0.1092 0.0
C1001 C 0.31899 0.37673 0.10755 0.0
C1002 C 0.28362 0.37266 0.11321 0.0
C1003 C 0.28333 0.39268 0.11566 0.0
C1004 C 0.30128 0.40447 0.11509 0.0
C1005 C 0.31887 0.3966 0.11106 0.0
C1006 C 0.24273 0.42518 0.10604 0.0
C1007 C 0.22708 0.4165 0.11669 0.0
C1008 C 0.26107 0.41775 0.10625 0.0
C1009 C 0.26426 0.40139 0.11706 0.0
C1010 C 0.24879 0.39301 0.12819 0.0
C1011 C 0.23041 0.40054 0.12808 0.0
H1012 H 0.72899 0.08649 0.87664 0.0
H1013 H 0.71401 0.14419 0.88873 0.0
H1014 H 0.76336 0.09643 0.88618 0.0
H1015 H 0.74847 0.15412 0.89802 0.0
H1016 H 0.80676 0.15889 0.93369 0.0
H1017 H 0.77247 0.14813 0.92455 0.0
H1018 H 0.79176 0.11742 0.87451 0.0
H1019 H 0.8261 0.12795 0.88373 0.0
C1020 C 0.73303 0.10131 0.88124 0.0
C1021 C 0.71875 0.11455 0.88194 0.0
C1022 C 0.75274 0.10701 0.88662 0.0
C1023 C 0.75857 0.12603 0.89288 0.0
C1024 C 0.74434 0.1393 0.89349 0.0
C1025 C 0.72463 0.13363 0.88804 0.0
C1026 C 0.80372 0.14975 0.9208 0.0
C1027 C 0.81917 0.14431 0.90942 0.0
C1028 C 0.78407 0.14371 0.9155 0.0
C1029 C 0.77945 0.13204 0.89876 0.0
C1030 C 0.79489 0.12629 0.88758 0.0
C1031 C 0.81455 0.13239 0.89283 0.0
H1032 H 0.1188 0.4747 0.13992 0.0
H1033 H 0.16934 0.494 0.1063 0.0
H1034 H 0.10971 0.50749 0.14199 0.0
H1035 H 0.15985 0.52669 0.10772 0.0
H1036 H 0.15018 0.58563 0.1344 0.0
H1037 H 0.15886 0.55304 0.12959 0.0
H1038 H 0.09682 0.53241 0.12396 0.0
H1039 H 0.08813 0.5651 0.12954 0.0
C1040 C 0.12792 0.48593 0.13287 0.0
C1041 C 0.14487 0.48171 0.12304 0.0
C1042 C 0.12259 0.50474 0.13389 0.0
C1043 C 0.13397 0.51982 0.12495 0.0
C1044 C 0.15087 0.51555 0.11503 0.0
C1045 C 0.1563 0.49676 0.11416 0.0
C1046 C 0.13836 0.5742 0.13189 0.0
C1047 C 0.11845 0.57798 0.13244 0.0
C1048 C 0.14336 0.55545 0.12905 0.0
C1049 C 0.12856 0.53997 0.12652 0.0
C1050 C 0.10862 0.54389 0.12626 0.0
C1051 C 0.10362 0.56267 0.12926 0.0
H1052 H 0.67282 0.87174 0.38512 0.0
H1053 H 0.69318 0.81694 0.39915 0.0
H1054 H 0.70637 0.88407 0.37733 0.0
H1055 H 0.72637 0.82854 0.38996 0.0
H1056 H 0.78728 0.86028 0.39441 0.0
H1057 H 0.75362 0.84794 0.40081 0.0
H1058 H 0.73202 0.88419 0.35609 0.0
H1059 H 0.76591 0.89756 0.35081 0.0
C1060 C 0.68449 0.86228 0.38625 0.0
C1061 C 0.68056 0.84351 0.39293 0.0
C1062 C 0.70371 0.86925 0.38161 0.0
C1063 C 0.71927 0.85738 0.38308 0.0
C1064 C 0.71501 0.83834 0.38918 0.0
C1065 C 0.69595 0.8316 0.39433 0.0
C1066 C 0.77532 0.86551 0.38588 0.0
C1067 C 0.77915 0.87984 0.37211 0.0
C1068 C 0.75595 0.85834 0.38944 0.0
C1069 C 0.73993 0.86492 0.37892 0.0
C1070 C 0.74388 0.879 0.36477 0.0
C1071 C 0.76329 0.88657 0.36159 0.0
H1072 H 0.9038 0.95141 0.13785 0.0
H1073 H 0.84504 0.9225 0.12826 0.0
H1074 H 0.89096 0.98227 0.13176 0.0
H1075 H 0.83233 0.95319 0.12175 0.0
H1076 H 0.86302 0.03534 0.11158 0.0
H1077 H 0.87539 0.00362 0.10914 0.0
H1078 H 0.82685 0.9798 0.14313 0.0
H1079 H 0.81446 0.01113 0.14529 0.0
C1080 C 0.88824 0.95158 0.134 0.0
C1081 C 0.8754 0.93453 0.13382 0.0
C1082 C 0.88088 0.96927 0.13042 0.0
C1083 C 0.86055 0.97025 0.12654 0.0
C1084 C 0.84799 0.95301 0.12511 0.0
C1085 C 0.85531 0.93539 0.12876 0.0
C1086 C 0.85482 0.02322 0.1182 0.0
C1087 C 0.83779 0.02577 0.12869 0.0
C1088 C 0.86199 0.00509 0.11693 0.0
C1089 C 0.85215 0.98915 0.12597 0.0
C1090 C 0.83468 0.99164 0.13575 0.0
C1091 C 0.82762 0.00969 0.1371 0.0
H1092 H 0.1625 0.59982 0.60034 0.0
H1093 H 0.18175 0.65992 0.61137 0.0
H1094 H 0.19564 0.59157 0.60824 0.0
H1095 H 0.2149 0.6516 0.62011 0.0
H1096 H 0.27659 0.63251 0.61141 0.0
H1097 H 0.2431 0.64107 0.60535 0.0
H1098 H 0.21977 0.58905 0.63309 0.0
H1099 H 0.25323 0.58016 0.6384 0.0
C1100 C 0.17374 0.61127 0.60481 0.0
C1101 C 0.16948 0.63055 0.60517 0.0
C1102 C 0.1928 0.60651 0.60944 0.0
C1103 C 0.20808 0.62089 0.61478 0.0
C1104 C 0.20363 0.64015 0.61572 0.0
C1105 C 0.18457 0.64493 0.61088 0.0
C1106 C 0.2643 0.62288 0.61618 0.0
C1107 C 0.2676 0.60559 0.62529 0.0
C1108 C 0.24506 0.62787 0.61286 0.0
C1109 C 0.22863 0.6158 0.61876 0.0
C1110 C 0.23199 0.59858 0.62803 0.0
C1111 C 0.25121 0.59349 0.63115 0.0
H1112 H 0.12564 0.4349 0.32483 0.0
H1113 H 0.12734 0.42648 0.38707 0.0
H1114 H 0.14018 0.46786 0.33004 0.0
H1115 H 0.14194 0.45979 0.39226 0.0
H1116 H 0.14038 0.52804 0.38751 0.0
H1117 H 0.12984 0.49346 0.38644 0.0
H1118 H 0.17264 0.48504 0.3427 0.0
H1119 H 0.18314 0.51932 0.34368 0.0
C1120 C 0.12924 0.44006 0.33964 0.0
C1121 C 0.12534 0.4281 0.35554 0.0
C1122 C 0.13767 0.45891 0.3426 0.0
C1123 C 0.14222 0.46633 0.36155 0.0
C1124 C 0.13849 0.45439 0.37752 0.0
C1125 C 0.13027 0.43535 0.37453 0.0
C1126 C 0.14772 0.51874 0.37789 0.0
C1127 C 0.1624 0.52644 0.3655 0.0
C1128 C 0.14175 0.49898 0.37735 0.0
C1129 C 0.15031 0.48667 0.36433 0.0
C1130 C 0.16563 0.49427 0.35267 0.0
C1131 C 0.17164 0.51391 0.35328 0.0
H1132 H 0.41181 0.54951 0.85407 0.0
H1133 H 0.36907 0.57499 0.8891 0.0
H1134 H 0.39645 0.51752 0.86125 0.0
H1135 H 0.35349 0.54283 0.89602 0.0
H1136 H 0.31832 0.48448 0.86955 0.0
H1137 H 0.33475 0.51715 0.87204 0.0
H1138 H 0.38917 0.49485 0.8905 0.0
H1139 H 0.37267 0.46209 0.88831 0.0
C1140 C 0.39924 0.54827 0.86344 0.0
C1141 C 0.39155 0.56474 0.87091 0.0
C1142 C 0.39057 0.52996 0.86768 0.0
C1143 C 0.37384 0.52777 0.87922 0.0
C1144 C 0.3664 0.54419 0.88709 0.0
C1145 C 0.37532 0.56254 0.88315 0.0
C1146 C 0.33366 0.48659 0.8746 0.0
C1147 C 0.34428 0.47077 0.87859 0.0
C1148 C 0.34302 0.50528 0.87611 0.0
C1149 C 0.36323 0.50845 0.88132 0.0
C1150 C 0.37359 0.49272 0.88636 0.0
C1151 C 0.36413 0.47403 0.88519 0.0
H1152 H 0.86601 0.66243 0.59868 0.0
H1153 H 0.87838 0.68844 0.65593 0.0
H1154 H 0.85627 0.69278 0.5867 0.0
H1155 H 0.86914 0.71906 0.64379 0.0
H1156 H 0.84511 0.77155 0.61762 0.0
H1157 H 0.84437 0.73878 0.62988 0.0
H1158 H 0.87617 0.72201 0.57979 0.0
H1159 H 0.87662 0.75433 0.56754 0.0
C1160 C 0.8664 0.67458 0.60879 0.0
C1161 C 0.87324 0.67311 0.62819 0.0
C1162 C 0.86089 0.69201 0.6019 0.0
C1163 C 0.86227 0.70847 0.61417 0.0
C1164 C 0.8678 0.70666 0.63395 0.0
C1165 C 0.87318 0.68912 0.6409 0.0
C1166 C 0.85154 0.76071 0.60906 0.0
C1167 C 0.861 0.76555 0.59166 0.0
C1168 C 0.85125 0.74199 0.61616 0.0
C1169 C 0.86025 0.72775 0.60586 0.0
C1170 C 0.86884 0.73247 0.588 0.0
C1171 C 0.86922 0.7511 0.58101 0.0
H1172 H 0.97469 0.11947 0.34403 0.0
H1173 H 0.96428 0.14347 0.40092 0.0
H1174 H 0.01026 0.12534 0.35047 0.0
H1175 H -0.00012 0.14912 0.40738 0.0
H1176 H 0.06331 0.17542 0.40387 0.0
H1177 H 0.02818 0.16997 0.39554 0.0
H1178 H 0.03638 0.1136 0.37207 0.0
H1179 H 0.07179 0.11909 0.38025 0.0
C1180 C 0.97996 0.126 0.35791 0.0
C1181 C 0.96662 0.13105 0.37196 0.0
C1182 C 0.00036 0.12924 0.36162 0.0
C1183 C 0.00785 0.1377 0.3794 0.0
C1184 C 0.99453 0.14279 0.39343 0.0
C1185 C 0.97413 0.13946 0.38977 0.0
C1186 C 0.05772 0.16188 0.39681 0.0
C1187 C 0.07038 0.14763 0.39283 0.0
C1188 C 0.03753 0.15873 0.39216 0.0
C1189 C 0.02949 0.14129 0.38336 0.0
C1190 C 0.04219 0.12724 0.37878 0.0
C1191 C 0.06245 0.13036 0.3835 0.0
H1192 H 0.61109 0.23649 0.06432 0.0
H1193 H 0.64554 0.22383 0.11559 0.0
H1194 H 0.612 0.26975 0.07511 0.0
H1195 H 0.6468 0.25762 0.12639 0.0
H1196 H 0.62126 0.33054 0.09166 0.0
H1197 H 0.63162 0.2997 0.0812 0.0
H1198 H 0.62245 0.27799 0.13906 0.0
H1199 H 0.61271 0.30919 0.1497 0.0
C1200 C 0.61925 0.24093 0.07773 0.0
C1201 C 0.62811 0.2275 0.08917 0.0
C1202 C 0.61991 0.2601 0.08388 0.0
C1203 C 0.62945 0.26641 0.10166 0.0
C1204 C 0.63918 0.25317 0.1127 0.0
C1205 C 0.6386 0.23388 0.10645 0.0
C1206 C 0.62182 0.3193 0.10225 0.0
C1207 C 0.61586 0.32216 0.12141 0.0
C1208 C 0.62771 0.3016 0.09624 0.0
C1209 C 0.62749 0.28624 0.10917 0.0
C1210 C 0.62288 0.28953 0.12874 0.0
C1211 C 0.6172 0.30738 0.13482 0.0
H1212 H 0.42815 0.87428 0.87835 0.0
H1213 H 0.43926 0.81689 0.89509 0.0
H1214 H 0.46064 0.87846 0.86376 0.0
H1215 H 0.47136 0.82102 0.88038 0.0
H1216 H 0.53619 0.8464 0.87821 0.0
H1217 H 0.50248 0.84058 0.88907 0.0
H1218 H 0.48087 0.86657 0.83704 0.0
H1219 H 0.51478 0.87263 0.82617 0.0
C1220 C 0.43738 0.8625 0.87873 0.0
C1221 C 0.43118 0.84535 0.88809 0.0
C1222 C 0.45594 0.86486 0.87029 0.0
C1223 C 0.46862 0.85012 0.87111 0.0
C1224 C 0.46208 0.83276 0.87983 0.0
C1225 C 0.44361 0.83039 0.88821 0.0
C1226 C 0.52428 0.85075 0.86898 0.0
C1227 C 0.5282 0.86 0.85133 0.0
C1228 C 0.50493 0.84733 0.87517 0.0
C1229 C 0.48902 0.85312 0.8639 0.0
C1230 C 0.49286 0.86211 0.8461 0.0
C1231 C 0.51226 0.86543 0.83983 0.0
H1232 H 0.89961 0.21453 0.87585 0.0
H1233 H 0.88328 0.23619 0.93191 0.0
H1234 H 0.90326 0.24718 0.86384 0.0
H1235 H 0.88721 0.26892 0.9199 0.0
H1236 H 0.87278 0.32083 0.88275 0.0
H1237 H 0.87038 0.28859 0.89619 0.0
H1238 H 0.92434 0.27744 0.86836 0.0
H1239 H 0.92664 0.30937 0.85474 0.0
C1240 C 0.897 0.22626 0.88569 0.0
C1241 C 0.89113 0.22271 0.90484 0.0
C1242 C 0.89916 0.24499 0.87881 0.0
C1243 C 0.89546 0.26063 0.8909 0.0
C1244 C 0.88992 0.25715 0.91016 0.0
C1245 C 0.88783 0.2384 0.91708 0.0
C1246 C 0.88414 0.31151 0.87953 0.0
C1247 C 0.89984 0.31767 0.86759 0.0
C1248 C 0.88283 0.29309 0.88733 0.0
C1249 C 0.89715 0.28045 0.88329 0.0
C1250 C 0.91293 0.28672 0.87153 0.0
C1251 C 0.91427 0.30509 0.86379 0.0
H1252 H 0.43721 0.14751 0.58532 0.0
H1253 H 0.41203 0.13969 0.64192 0.0
H1254 H 0.46717 0.13421 0.59717 0.0
H1255 H 0.44151 0.1257 0.65354 0.0
H1256 H 0.51856 0.10555 0.62203 0.0
H1257 H 0.48466 0.10813 0.60983 0.0
H1258 H 0.47357 0.14069 0.66188 0.0
H1259 H 0.50688 0.13772 0.67409 0.0
C1260 C 0.43787 0.14246 0.60013 0.0
C1261 C 0.42248 0.14498 0.61282 0.0
C1262 C 0.45499 0.13472 0.6069 0.0
C1263 C 0.45691 0.12918 0.62644 0.0
C1264 C 0.44075 0.13027 0.63858 0.0
C1265 C 0.42382 0.13824 0.6319 0.0
C1266 C 0.50865 0.1128 0.63103 0.0
C1267 C 0.51542 0.12156 0.64895 0.0
C1268 C 0.4893 0.11443 0.62398 0.0
C1269 C 0.47638 0.12472 0.63479 0.0
C1270 C 0.48292 0.13244 0.65322 0.0
C1271 C 0.50215 0.13086 0.6602 0.0
H1272 H 0.61835 0.77183 0.36006 0.0
H1273 H 0.60102 0.75342 0.41731 0.0
H1274 H 0.615 0.73831 0.34842 0.0
H1275 H 0.59712 0.71989 0.40536 0.0
H1276 H 0.56864 0.6691 0.36081 0.0
H1277 H 0.57276 0.70182 0.37468 0.0
H1278 H 0.6346 0.70648 0.36129 0.0
H1279 H 0.6307 0.67341 0.34788 0.0
C1280 C 0.61357 0.76066 0.37007 0.0
C1281 C 0.60988 0.76521 0.38958 0.0
C1282 C 0.61185 0.74153 0.36345 0.0
C1283 C 0.60598 0.72668 0.37609 0.0
C1284 C 0.60174 0.73119 0.39543 0.0
C1285 C 0.60393 0.75031 0.4022 0.0
C1286 C 0.58317 0.67704 0.361 0.0
C1287 C 0.59937 0.66878 0.35326 0.0
C1288 C 0.58549 0.69567 0.36898 0.0
C1289 C 0.60395 0.70653 0.36893 0.0
C1290 C 0.62022 0.69829 0.3614 0.0
C1291 C 0.61801 0.67942 0.35384 0.0
H1292 H 0.08668 0.88093 0.14026 0.0
H1293 H 0.05506 0.86573 0.08572 0.0
H1294 H 0.05778 0.8946 0.15252 0.0
H1295 H 0.02575 0.87871 0.09825 0.0
H1296 H 0.99546 0.88173 0.17682 0.0
H1297 H 0.02757 0.87923 0.1633 0.0
H1298 H 0.00826 0.90499 0.11016 0.0
H1299 H 0.97559 0.90705 0.12371 0.0
C1300 C 0.07358 0.88069 0.13081 0.0
C1301 C 0.073 0.87198 0.11216 0.0
C1302 C 0.05698 0.88847 0.13786 0.0
C1303 C 0.03927 0.88742 0.12654 0.0
C1304 C 0.03914 0.87988 0.10734 0.0
C1305 C 0.0559 0.87232 0.10018 0.0
C1306 C 0.99813 0.88723 0.16239 0.0
C1307 C 0.98292 0.89441 0.15127 0.0
C1308 C 0.01666 0.88593 0.15465 0.0
C1309 C 0.02054 0.89181 0.13556 0.0
C1310 C 0.00568 0.9001 0.12482 0.0
C1311 C 0.98704 0.90145 0.13264 0.0
H1312 H 0.65593 0.89765 0.68447 0.0
H1313 H 0.59554 0.88587 0.66266 0.0
H1314 H 0.64539 0.88964 0.71733 0.0
H1315 H 0.58514 0.8775 0.69524 0.0
H1316 H 0.5712 0.89612 0.75729 0.0
H1317 H 0.58217 0.89749 0.72404 0.0
H1318 H 0.6309 0.86491 0.73973 0.0
H1319 H 0.61996 0.86375 0.77345 0.0
C1320 C 0.6405 0.89296 0.68661 0.0
C1321 C 0.62652 0.89268 0.67104 0.0
C1322 C 0.63447 0.8883 0.70542 0.0
C1323 C 0.61437 0.88322 0.70895 0.0
C1324 C 0.60066 0.88176 0.69309 0.0
C1325 C 0.60665 0.8865 0.67439 0.0
C1326 C 0.58416 0.88908 0.75369 0.0
C1327 C 0.59473 0.87986 0.76804 0.0
C1328 C 0.59038 0.88975 0.73454 0.0
C1329 C 0.60736 0.88123 0.72918 0.0
C1330 C 0.61782 0.8717 0.74344 0.0
C1331 C 0.61149 0.87095 0.76269 0.0
H1332 H 0.85309 0.87705 0.52945 0.0
H1333 H 0.87889 0.82472 0.51504 0.0
H1334 H 0.8533 0.88576 0.49528 0.0
H1335 H 0.88009 0.83382 0.48106 0.0
H1336 H 0.85745 0.8446 0.41931 0.0
H1337 H 0.86019 0.83629 0.45331 0.0
H1338 H 0.87284 0.89652 0.46936 0.0
H1339 H 0.86904 0.90487 0.43518 0.0
C1340 C 0.85893 0.86746 0.51898 0.0
C1341 C 0.8658 0.85012 0.52493 0.0
C1342 C 0.85926 0.87255 0.49938 0.0
C1343 C 0.86679 0.86056 0.48527 0.0
C1344 C 0.87385 0.84329 0.49135 0.0
C1345 C 0.8732 0.83806 0.51089 0.0
C1346 C 0.8611 0.85609 0.43004 0.0
C1347 C 0.86294 0.87542 0.42452 0.0
C1348 C 0.86276 0.8513 0.44963 0.0
C1349 C 0.86659 0.86571 0.46426 0.0
C1350 C 0.86941 0.88503 0.4586 0.0
C1351 C 0.86747 0.88984 0.43897 0.0
H1352 H 0.84457 0.13235 0.19762 0.0
H1353 H 0.86981 0.07837 0.19197 0.0
H1354 H 0.85668 0.13565 0.23151 0.0
H1355 H 0.88354 0.08227 0.22506 0.0
H1356 H 0.88735 0.08106 0.28984 0.0
H1357 H 0.87487 0.0794 0.25635 0.0
H1358 H 0.8818 0.14162 0.25455 0.0
H1359 H 0.89269 0.14301 0.2889 0.0
C1360 C 0.85312 0.12142 0.2036 0.0
C1361 C 0.85614 0.10503 0.1924 0.0
C1362 C 0.86019 0.12332 0.22299 0.0
C1363 C 0.87092 0.1091 0.23136 0.0
C1364 C 0.87473 0.0932 0.21958 0.0
C1365 C 0.86709 0.09102 0.20048 0.0
C1366 C 0.88609 0.09436 0.28225 0.0
C1367 C 0.89101 0.11215 0.29182 0.0
C1368 C 0.87915 0.09346 0.2629 0.0
C1369 C 0.87762 0.11036 0.25235 0.0
C1370 C 0.8825 0.12825 0.26211 0.0
C1371 C 0.88886 0.12912 0.28177 0.0
H1372 H 0.62469 0.09146 0.92914 0.0
H1373 H 0.63724 0.1526 0.92154 0.0
H1374 H 0.61691 0.09737 0.96309 0.0
H1375 H 0.63047 0.15847 0.95543 0.0
H1376 H 0.60632 0.16644 0.01428 0.0
H1377 H 0.60725 0.15876 0.97963 0.0
H1378 H 0.63371 0.10653 0.99294 0.0
H1379 H 0.63179 0.11381 0.02765 0.0
C1380 C 0.62562 0.10616 0.93467 0.0
C1381 C 0.63161 0.12155 0.92266 0.0
C1382 C 0.62136 0.10955 0.95419 0.0
C1383 C 0.62321 0.1284 0.96216 0.0
C1384 C 0.62854 0.14378 0.94985 0.0
C1385 C 0.63255 0.1404 0.93035 0.0
C1386 C 0.61224 0.15327 0.00979 0.0
C1387 C 0.61914 0.14081 0.02368 0.0
C1388 C 0.61286 0.14888 0.98989 0.0
C1389 C 0.62073 0.13209 0.98336 0.0
C1390 C 0.62727 0.11944 0.99734 0.0
C1391 C 0.62634 0.12368 0.01727 0.0
H1392 H 0.62081 0.12983 0.82048 0.0
H1393 H 0.64876 0.0803 0.80071 0.0
H1394 H 0.60923 0.13483 0.78702 0.0
H1395 H 0.6371 0.08524 0.76753 0.0
H1396 H 0.63551 0.11465 0.70897 0.0
H1397 H 0.64513 0.10988 0.7428 0.0
H1398 H 0.58628 0.11914 0.76032 0.0
H1399 H 0.57654 0.12409 0.72629 0.0
C1400 C 0.62438 0.11996 0.80906 0.0
C1401 C 0.63584 0.10475 0.81327 0.0
C1402 C 0.61767 0.12277 0.78993 0.0
C1403 C 0.62241 0.11051 0.77466 0.0
C1404 C 0.63348 0.0951 0.77895 0.0
C1405 C 0.64008 0.09223 0.79802 0.0
C1406 C 0.62457 0.11571 0.71998 0.0
C1407 C 0.60522 0.1197 0.71489 0.0
C1408 C 0.63008 0.11287 0.73937 0.0
C1409 C 0.61642 0.114 0.75418 0.0
C1410 C 0.59714 0.11827 0.7492 0.0
C1411 C 0.59156 0.12101 0.72972 0.0
H1412 H 0.60556 0.85419 0.46889 0.0
H1413 H 0.65085 0.81853 0.48747 0.0
H1414 H 0.60882 0.87122 0.5006 0.0
H1415 H 0.65415 0.83565 0.51883 0.0
H1416 H 0.67434 0.89074 0.55581 0.0
H1417 H 0.66728 0.87152 0.52595 0.0
H1418 H 0.60526 0.8646 0.53872 0.0
H1419 H 0.61231 0.88373 0.56897 0.0
C1420 C 0.61598 0.84981 0.4798 0.0
C1421 C 0.62805 0.83512 0.47562 0.0
C1422 C 0.61779 0.85951 0.49792 0.0
C1423 C 0.63187 0.85482 0.512 0.0
C1424 C 0.64333 0.83964 0.50811 0.0
C1425 C 0.64136 0.82981 0.49017 0.0
C1426 C 0.65918 0.88515 0.5523 0.0
C1427 C 0.64388 0.88873 0.56475 0.0
C1428 C 0.65518 0.87407 0.53526 0.0
C1429 C 0.63575 0.86653 0.53015 0.0
C1430 C 0.62035 0.87029 0.54238 0.0
C1431 C 0.62441 0.88115 0.55968 0.0
H1432 H 0.8657 0.86769 0.31647 0.0
H1433 H 0.87046 0.92952 0.31189 0.0
H1434 H 0.87813 0.86493 0.28347 0.0
H1435 H 0.88341 0.9267 0.27918 0.0
H1436 H 0.92413 0.90914 0.22813 0.0
H1437 H 0.91536 0.91132 0.26247 0.0
H1438 H 0.86046 0.87643 0.24923 0.0
H1439 H 0.86884 0.87467 0.21488 0.0
C1440 C 0.86978 0.88068 0.30858 0.0
C1441 C 0.86704 0.89881 0.31668 0.0
C1442 C 0.87679 0.87908 0.28973 0.0
C1443 C 0.88165 0.89562 0.2789 0.0
C1444 C 0.87982 0.91378 0.28733 0.0
C1445 C 0.87236 0.91536 0.30597 0.0
C1446 C 0.9102 0.90195 0.23257 0.0
C1447 C 0.89711 0.89183 0.21883 0.0
C1448 C 0.90522 0.90321 0.25216 0.0
C1449 C 0.88734 0.89393 0.25838 0.0
C1450 C 0.87441 0.88356 0.24474 0.0
C1451 C 0.87915 0.88269 0.22511 0.0
H1452 H 0.89528 0.13474 0.98623 0.0
H1453 H 0.86718 0.18468 0.00438 0.0
H1454 H 0.89491 0.12348 0.01982 0.0
H1455 H 0.86643 0.17338 0.03748 0.0
H1456 H 0.85862 0.09907 0.07319 0.0
H1457 H 0.86936 0.11029 0.04141 0.0
H1458 H 0.88512 0.16722 0.06634 0.0
H1459 H 0.87377 0.15615 0.09784 0.0
C1460 C 0.88933 0.14345 0.99742 0.0
C1461 C 0.88115 0.16053 0.99263 0.0
C1462 C 0.889 0.13694 0.01661 0.0
C1463 C 0.88061 0.14749 0.03136 0.0
C1464 C 0.87329 0.165 0.02662 0.0
C1465 C 0.87357 0.17143 0.00754 0.0
C1466 C 0.86476 0.11387 0.07194 0.0
C1467 C 0.86501 0.12682 0.0879 0.0
C1468 C 0.87101 0.1203 0.05374 0.0
C1469 C 0.87778 0.13975 0.05124 0.0
C1470 C 0.87953 0.15226 0.06765 0.0
C1471 C 0.8731 0.1459 0.08573 0.0
H1472 H 0.75656 0.56651 0.89179 0.0
H1473 H 0.78574 0.61154 0.85777 0.0
H1474 H 0.72555 0.58072 0.88778 0.0
H1475 H 0.75438 0.62581 0.85356 0.0
H1476 H 0.70222 0.65731 0.88041 0.0
H1477 H 0.73296 0.64278 0.87529 0.0
H1478 H 0.69963 0.58754 0.86442 0.0
H1479 H 0.66902 0.60194 0.86988 0.0
C1480 C 0.75629 0.5793 0.88318 0.0
C1481 C 0.77365 0.58793 0.87518 0.0
C1482 C 0.73843 0.5874 0.88075 0.0
C1483 C 0.73745 0.60442 0.87032 0.0
C1484 C 0.75469 0.61277 0.86178 0.0
C1485 C 0.7726 0.60453 0.86409 0.0
C1486 C 0.70143 0.64216 0.87647 0.0
C1487 C 0.6832 0.63073 0.87584 0.0
C1488 C 0.71906 0.63383 0.87348 0.0
C1489 C 0.71877 0.61393 0.86978 0.0
C1490 C 0.7004 0.60284 0.86766 0.0
C1491 C 0.68283 0.61113 0.87069 0.0
H1492 H 0.28252 0.85401 0.11194 0.0
H1493 H 0.26939 0.91118 0.129 0.0
H1494 H 0.24778 0.84545 0.10303 0.0
H1495 H 0.23464 0.90262 0.11979 0.0
H1496 H 0.17113 0.87186 0.12065 0.0
H1497 H 0.20568 0.88146 0.12999 0.0
H1498 H 0.22398 0.85385 0.07762 0.0
H1499 H 0.18955 0.84401 0.06838 0.0
C1500 C 0.27224 0.86475 0.11381 0.0
C1501 C 0.27875 0.88329 0.12115 0.0
C1502 C 0.25235 0.85988 0.10858 0.0
C1503 C 0.23853 0.87342 0.11059 0.0
C1504 C 0.24495 0.89185 0.11821 0.0
C1505 C 0.26486 0.89676 0.12341 0.0
C1506 C 0.18251 0.86794 0.11107 0.0
C1507 C 0.17758 0.85709 0.09382 0.0
C1508 C 0.20229 0.8735 0.11639 0.0
C1509 C 0.21751 0.86827 0.1046 0.0
C1510 C 0.21256 0.8578 0.08716 0.0
C1511 C 0.19282 0.85228 0.08181 0.0
H1512 H 0.88044 0.52618 0.86254 0.0
H1513 H 0.82611 0.50704 0.89038 0.0
H1514 H 0.88831 0.49306 0.85953 0.0
H1515 H 0.83432 0.47393 0.88807 0.0
H1516 H 0.84418 0.41576 0.8598 0.0
H1517 H 0.83639 0.44859 0.86522 0.0
H1518 H 0.89836 0.46663 0.87705 0.0
H1519 H 0.90622 0.43379 0.87084 0.0
C1520 C 0.87023 0.51491 0.86815 0.0
C1521 C 0.8526 0.51928 0.87662 0.0
C1522 C 0.87483 0.49588 0.86659 0.0
C1523 C 0.86202 0.48072 0.87362 0.0
C1524 C 0.84443 0.48514 0.88222 0.0
C1525 C 0.83973 0.50417 0.88361 0.0
C1526 C 0.85615 0.42668 0.86376 0.0
C1527 C 0.87585 0.42215 0.86481 0.0
C1528 C 0.85166 0.44556 0.86696 0.0
C1529 C 0.86673 0.46039 0.87147 0.0
C1530 C 0.88639 0.45569 0.87322 0.0
C1531 C 0.8909 0.43681 0.86983 0.0
H1532 H 0.23377 0.09805 0.62984 0.0
H1533 H 0.21267 0.15383 0.62164 0.0
H1534 H 0.2671 0.11139 0.62254 0.0
H1535 H 0.24614 0.16718 0.61454 0.0
H1536 H 0.30127 0.17494 0.57663 0.0
H1537 H 0.2685 0.16314 0.58715 0.0
H1538 H 0.29487 0.13453 0.63515 0.0
H1539 H 0.32776 0.14617 0.62456 0.0
C1540 C 0.23627 0.1132 0.62669 0.0
C1541 C 0.22054 0.12485 0.62619 0.0
C1542 C 0.2554 0.12086 0.62262 0.0
C1543 C 0.25918 0.14029 0.61787 0.0
C1544 C 0.24358 0.15208 0.61791 0.0
C1545 C 0.22445 0.14445 0.62209 0.0
C1546 C 0.30012 0.16616 0.58945 0.0
C1547 C 0.31714 0.16143 0.59972 0.0
C1548 C 0.28133 0.15954 0.59556 0.0
C1549 C 0.27915 0.14798 0.612 0.0
C1550 C 0.29613 0.14331 0.62234 0.0
C1551 C 0.31495 0.15002 0.61629 0.0
H1552 H 0.12807 0.96087 0.86995 0.0
H1553 H 0.18748 0.9888 0.87487 0.0
H1554 H 0.11493 0.99206 0.87092 0.0
H1555 H 0.17459 0.01997 0.87766 0.0
H1556 H 0.14888 0.07157 0.85194 0.0
H1557 H 0.16191 0.04126 0.85778 0.0
H1558 H 0.10749 0.02039 0.88487 0.0
H1559 H 0.09393 0.05065 0.87753 0.0
C1560 C 0.13827 0.97374 0.87189 0.0
C1561 C 0.15875 0.97252 0.87211 0.0
C1562 C 0.13077 0.9917 0.87256 0.0
C1563 C 0.14362 0.00883 0.87399 0.0
C1564 C 0.16414 0.00731 0.87578 0.0
C1565 C 0.1716 0.98941 0.87444 0.0
C1566 C 0.13975 0.06061 0.85937 0.0
C1567 C 0.12034 0.0635 0.86421 0.0
C1568 C 0.14732 0.04312 0.86292 0.0
C1569 C 0.13588 0.02808 0.8719 0.0
C1570 C 0.11669 0.03135 0.87756 0.0
C1571 C 0.10893 0.04878 0.87354 0.0
H1572 H 0.81775 0.34796 0.38674 0.0
H1573 H 0.83465 0.40762 0.40243 0.0
H1574 H 0.78377 0.35527 0.38045 0.0
H1575 H 0.80071 0.41479 0.39685 0.0
H1576 H 0.74125 0.42521 0.36932 0.0
H1577 H 0.77544 0.41783 0.37284 0.0
H1578 H 0.7558 0.3633 0.39793 0.0
H1579 H 0.72158 0.37041 0.39378 0.0
C1580 C 0.81423 0.36264 0.38878 0.0
C1581 C 0.82892 0.3772 0.39508 0.0
C1582 C 0.79471 0.36681 0.38535 0.0
C1583 C 0.7894 0.38561 0.38827 0.0
C1584 C 0.80424 0.40021 0.39418 0.0
C1585 C 0.82374 0.39607 0.39748 0.0
C1586 C 0.74422 0.41166 0.37563 0.0
C1587 C 0.72865 0.39841 0.38129 0.0
C1588 C 0.76386 0.40744 0.37771 0.0
C1589 C 0.76845 0.38994 0.38565 0.0
C1590 C 0.75285 0.37676 0.39142 0.0
C1591 C 0.7332 0.38091 0.38921 0.0
H1592 H 0.82501 0.47865 0.63888 0.0
H1593 H 0.88169 0.46636 0.61765 0.0
H1594 H 0.83635 0.51289 0.64075 0.0
H1595 H 0.89316 0.50075 0.61986 0.0
H1596 H 0.91041 0.55602 0.6602 0.0
H1597 H 0.89896 0.52274 0.65129 0.0
H1598 H 0.8491 0.54169 0.61916 0.0
H1599 H 0.8607 0.5752 0.62782 0.0
C1600 C 0.8398 0.48332 0.63433 0.0
C1601 C 0.85253 0.46987 0.62823 0.0
C1602 C 0.84623 0.50291 0.63532 0.0
C1603 C 0.86563 0.50939 0.63055 0.0
C1604 C 0.87814 0.49605 0.6237 0.0
C1605 C 0.87157 0.47644 0.62235 0.0
C1606 C 0.89704 0.55313 0.65118 0.0
C1607 C 0.88637 0.56822 0.64482 0.0
C1608 C 0.89062 0.5341 0.64592 0.0
C1609 C 0.87324 0.52971 0.63446 0.0
C1610 C 0.86257 0.54475 0.628 0.0
C1611 C 0.8692 0.56387 0.63296 0.0
H1612 H 0.6083 0.52283 0.10238 0.0
H1613 H 0.66404 0.52174 0.1343 0.0
H1614 H 0.60095 0.48831 0.1073 0.0
H1615 H 0.65646 0.48735 0.13943 0.0
H1616 H 0.61682 0.43592 0.16705 0.0
H1617 H 0.62794 0.46908 0.15924 0.0
H1618 H 0.61649 0.45572 0.098 0.0
H1619 H 0.60566 0.4223 0.10574 0.0
C1620 C 0.61898 0.51522 0.11038 0.0
C1621 C 0.6367 0.52498 0.11803 0.0
C1622 C 0.61484 0.49549 0.11305 0.0
C1623 C 0.62818 0.48529 0.12371 0.0
C1624 C 0.64596 0.49497 0.13119 0.0
C1625 C 0.65027 0.51461 0.12822 0.0
C1626 C 0.6169 0.43999 0.1519 0.0
C1627 C 0.61034 0.42659 0.13699 0.0
C1628 C 0.62333 0.45891 0.14745 0.0
C1629 C 0.62298 0.46486 0.12805 0.0
C1630 C 0.61679 0.45142 0.11307 0.0
C1631 C 0.61072 0.43234 0.11749 0.0
H1632 H 0.65185 0.7478 0.92733 0.0
H1633 H 0.64143 0.72665 0.86809 0.0
H1634 H 0.65 0.7806 0.91663 0.0
H1635 H 0.63794 0.75922 0.85739 0.0
H1636 H 0.63382 0.82081 0.84134 0.0
H1637 H 0.64774 0.79133 0.85111 0.0
H1638 H 0.62387 0.79742 0.90837 0.0
H1639 H 0.61119 0.82703 0.89897 0.0
C1640 C 0.64946 0.75028 0.91193 0.0
C1641 C 0.64669 0.73479 0.89853 0.0
C1642 C 0.64811 0.76904 0.90579 0.0
C1643 C 0.64315 0.77265 0.8862 0.0
C1644 C 0.64185 0.75718 0.87257 0.0
C1645 C 0.64382 0.73844 0.87867 0.0
C1646 C 0.63189 0.81592 0.85609 0.0
C1647 C 0.62139 0.82624 0.86936 0.0
C1648 C 0.63976 0.79896 0.86169 0.0
C1649 C 0.63703 0.79182 0.88059 0.0
C1650 C 0.62685 0.80252 0.89387 0.0
C1651 C 0.61932 0.81953 0.8884 0.0
H1652 H 0.52851 0.34629 0.1114 0.0
H1653 H 0.51505 0.37384 0.16569 0.0
H1654 H 0.49339 0.34117 0.10271 0.0
H1655 H 0.47976 0.36851 0.15696 0.0
H1656 H 0.42153 0.37578 0.11981 0.0
H1657 H 0.45597 0.3801 0.132 0.0
H1658 H 0.46355 0.32189 0.11364 0.0
H1659 H 0.42948 0.31758 0.10138 0.0
C1660 C 0.51807 0.35115 0.12155 0.0
C1661 C 0.5246 0.36046 0.13925 0.0
C1662 C 0.49792 0.34812 0.1166 0.0
C1663 C 0.48383 0.3544 0.12919 0.0
C1664 C 0.4903 0.36365 0.14692 0.0
C1665 C 0.5105 0.36657 0.15195 0.0
C1666 C 0.4305 0.36386 0.11858 0.0
C1667 C 0.4228 0.34642 0.10942 0.0
C1668 C 0.45018 0.36631 0.12561 0.0
C1669 C 0.46249 0.3514 0.12354 0.0
C1670 C 0.45453 0.33376 0.1151 0.0
C1671 C 0.43495 0.33129 0.10815 0.0
H1672 H 0.88958 0.18448 0.35347 0.0
H1673 H 0.87119 0.1726 0.41205 0.0
H1674 H 0.88489 0.2185 0.35882 0.0
H1675 H 0.86602 0.20652 0.41707 0.0
H1676 H 0.84869 0.27229 0.4039 0.0
H1677 H 0.84504 0.23784 0.39439 0.0
H1678 H 0.90849 0.23842 0.39329 0.0
H1679 H 0.91223 0.27229 0.40333 0.0
C1680 C 0.8839 0.18899 0.36722 0.0
C1681 C 0.88091 0.17594 0.38241 0.0
C1682 C 0.88121 0.20841 0.37024 0.0
C1683 C 0.875 0.21494 0.38829 0.0
C1684 C 0.87059 0.20169 0.40297 0.0
C1685 C 0.87367 0.18236 0.40011 0.0
C1686 C 0.86179 0.265 0.40157 0.0
C1687 C 0.88073 0.27487 0.4045 0.0
C1688 C 0.8597 0.24541 0.39613 0.0
C1689 C 0.87652 0.23572 0.393 0.0
C1690 C 0.89535 0.24571 0.39549 0.0
C1691 C 0.89745 0.26502 0.40136 0.0
H1692 H 0.95666 0.6486 0.61455 0.0
H1693 H 0.97957 0.63118 0.67024 0.0
H1694 H 0.99021 0.65372 0.60296 0.0
H1695 H 0.01323 0.63649 0.65859 0.0
H1696 H 0.06689 0.62578 0.62 0.0
H1697 H 0.03404 0.62179 0.63388 0.0
H1698 H 0.02059 0.67553 0.60917 0.0
H1699 H 0.05307 0.67947 0.59522 0.0
C1700 C 0.96885 0.64602 0.62439 0.0
C1701 C 0.96541 0.63949 0.64333 0.0
C1702 C 0.98809 0.64902 0.61776 0.0
C1703 C 0.00435 0.64549 0.62987 0.0
C1704 C 0.00097 0.63915 0.64888 0.0
C1705 C 0.9817 0.63627 0.65558 0.0
C1706 C 0.05695 0.63677 0.61762 0.0
C1707 C 0.06259 0.65286 0.60637 0.0
C1708 C 0.03819 0.63454 0.62565 0.0
C1709 C 0.0247 0.64829 0.62249 0.0
C1710 C 0.03053 0.66454 0.61161 0.0
C1711 C 0.04922 0.66682 0.60368 0.0
H1712 H 0.59551 0.26636 0.5747 0.0
H1713 H 0.62364 0.28181 0.63093 0.0
H1714 H 0.59186 0.23247 0.58384 0.0
H1715 H 0.62048 0.24791 0.63973 0.0
H1716 H 0.63136 0.18227 0.63426 0.0
H1717 H 0.63526 0.21556 0.62311 0.0
H1718 H 0.57201 0.21425 0.61436 0.0
H1719 H 0.56799 0.18128 0.62601 0.0
C1720 C 0.6009 0.26252 0.58897 0.0
C1721 C 0.60976 0.27672 0.60215 0.0
C1722 C 0.59883 0.24319 0.59416 0.0
C1723 C 0.60607 0.23771 0.61238 0.0
C1724 C 0.61497 0.25184 0.62552 0.0
C1725 C 0.6166 0.27121 0.62054 0.0
C1726 C 0.61834 0.18905 0.62976 0.0
C1727 C 0.59938 0.17927 0.63105 0.0
C1728 C 0.62056 0.20805 0.6235 0.0
C1729 C 0.60391 0.21734 0.61796 0.0
C1730 C 0.58504 0.20732 0.61852 0.0
C1731 C 0.58277 0.18853 0.62522 0.0
H1732 H 0.08402 0.36457 0.86103 0.0
H1733 H 0.05656 0.34935 0.9152 0.0
H1734 H 0.05444 0.3788 0.85008 0.0
H1735 H 0.02656 0.3629 0.90394 0.0
H1736 H 0.9749 0.39195 0.881 0.0
H1737 H 0.00864 0.38965 0.89379 0.0
H1738 H 0.02319 0.36374 0.83903 0.0
H1739 H 0.99002 0.36647 0.8263 0.0
C1740 C 0.07169 0.36442 0.87068 0.0
C1741 C 0.07244 0.35555 0.88882 0.0
C1742 C 0.05472 0.37254 0.86439 0.0
C1743 C 0.03796 0.37168 0.87595 0.0
C1744 C 0.03921 0.36395 0.89469 0.0
C1745 C 0.05636 0.35605 0.90111 0.0
C1746 C 0.98553 0.38628 0.87158 0.0
C1747 C 0.97979 0.37923 0.85272 0.0
C1748 C 0.00479 0.38479 0.87895 0.0
C1749 C 0.01861 0.37636 0.86751 0.0
C1750 C 0.0131 0.37052 0.84822 0.0
C1751 C 0.99396 0.37195 0.84093 0.0
H1752 H 0.89726 0.72761 0.13333 0.0
H1753 H 0.87482 0.74404 0.07709 0.0
H1754 H 0.90401 0.76135 0.143 0.0
H1755 H 0.88195 0.77787 0.0867 0.0
H1756 H 0.87431 0.83427 0.12115 0.0
H1757 H 0.86936 0.80093 0.10929 0.0
H1758 H 0.92538 0.79017 0.13628 0.0
H1759 H 0.93017 0.82328 0.14844 0.0
C1760 C 0.89396 0.73841 0.12294 0.0
C1761 C 0.88544 0.73309 0.10445 0.0
C1762 C 0.89793 0.75778 0.12846 0.0
C1763 C 0.89348 0.77231 0.11563 0.0
C1764 C 0.8853 0.76701 0.09701 0.0
C1765 C 0.88135 0.74762 0.09146 0.0
C1766 C 0.88561 0.82482 0.12446 0.0
C1767 C 0.90256 0.83143 0.13587 0.0
C1768 C 0.88283 0.80574 0.11757 0.0
C1769 C 0.89694 0.79287 0.12193 0.0
C1770 C 0.91409 0.79962 0.13293 0.0
C1771 C 0.91686 0.81866 0.13983 0.0
H1772 H 0.45025 0.63472 0.41097 0.0
H1773 H 0.4148 0.62356 0.3579 0.0
H1774 H 0.47801 0.62147 0.39553 0.0
H1775 H 0.44214 0.60966 0.34272 0.0
H1776 H 0.52495 0.59284 0.36472 0.0
H1777 H 0.49346 0.59507 0.38063 0.0
H1778 H 0.47204 0.62485 0.33085 0.0
H1779 H 0.50299 0.62224 0.315 0.0
C1780 C 0.44823 0.62896 0.39619 0.0
C1781 C 0.43052 0.63051 0.38551 0.0
C1782 C 0.4641 0.62124 0.38735 0.0
C1783 C 0.46243 0.61477 0.36774 0.0
C1784 C 0.44411 0.61495 0.35767 0.0
C1785 C 0.42841 0.62286 0.36639 0.0
C1786 C 0.51325 0.59935 0.357 0.0
C1787 C 0.51648 0.60749 0.33867 0.0
C1788 C 0.4953 0.6008 0.36618 0.0
C1789 C 0.48025 0.61028 0.35712 0.0
C1790 C 0.48313 0.61725 0.33823 0.0
C1791 C 0.50099 0.61586 0.32914 0.0
H1792 H 0.90169 0.59401 0.82852 0.0
H1793 H 0.84537 0.61687 0.82018 0.0
H1794 H 0.91069 0.60331 0.79606 0.0
H1795 H 0.85487 0.62752 0.78778 0.0
H1796 H 0.869 0.62077 0.72242 0.0
H1797 H 0.85921 0.617 0.75615 0.0
H1798 H 0.9207 0.62706 0.77542 0.0
H1799 H 0.93029 0.62916 0.74164 0.0
C1800 C 0.89138 0.60146 0.81985 0.0
C1801 C 0.87281 0.60469 0.82693 0.0
C1802 C 0.89662 0.60702 0.80117 0.0
C1803 C 0.88365 0.61641 0.7891 0.0
C1804 C 0.8652 0.6201 0.79643 0.0
C1805 C 0.85977 0.61412 0.81507 0.0
C1806 C 0.88031 0.62244 0.73398 0.0
C1807 C 0.90038 0.62505 0.72952 0.0
C1808 C 0.87474 0.62035 0.75337 0.0
C1809 C 0.88915 0.62129 0.76871 0.0
C1810 C 0.90915 0.62547 0.76411 0.0
C1811 C 0.91471 0.62694 0.74475 0.0
H1812 H 0.62026 0.62413 0.06323 0.0
H1813 H 0.67146 0.59535 0.04845 0.0
H1814 H 0.61998 0.63822 0.03087 0.0
H1815 H 0.67119 0.60948 0.01638 0.0
H1816 H 0.64818 0.61847 0.95389 0.0
H1817 H 0.64929 0.60583 0.98665 0.0
H1818 H 0.64081 0.66186 0.01077 0.0
H1819 H 0.63958 0.67461 0.97787 0.0
C1820 C 0.63144 0.62083 0.05312 0.0
C1821 C 0.64581 0.60855 0.0584 0.0
C1822 C 0.63136 0.629 0.03467 0.0
C1823 C 0.64554 0.6249 0.02111 0.0
C1824 C 0.65994 0.61272 0.02645 0.0
C1825 C 0.66012 0.60469 0.04487 0.0
C1826 C 0.64666 0.62816 0.96616 0.0
C1827 C 0.6438 0.64756 0.96326 0.0
C1828 C 0.64736 0.62091 0.98493 0.0
C1829 C 0.64511 0.63285 0.00125 0.0
C1830 C 0.6424 0.65229 0.99843 0.0
C1831 C 0.64186 0.65961 0.97961 0.0
H1832 H 0.61527 0.3545 0.22025 0.0
H1833 H 0.57974 0.40118 0.2321 0.0
H1834 H 0.63029 0.35863 0.25324 0.0
H1835 H 0.59481 0.40528 0.2647 0.0
H1836 H 0.6475 0.42454 0.30664 0.0
H1837 H 0.63087 0.41699 0.27507 0.0
H1838 H 0.62062 0.3573 0.29029 0.0
H1839 H 0.63719 0.36483 0.32216 0.0
C1840 C 0.61046 0.36541 0.22994 0.0
C1841 C 0.59645 0.37761 0.22351 0.0
C1842 C 0.61903 0.36774 0.24878 0.0
C1843 C 0.61386 0.38244 0.26133 0.0
C1844 C 0.59924 0.39404 0.25518 0.0
C1845 C 0.59057 0.39159 0.23652 0.0
C1846 C 0.64177 0.40979 0.30329 0.0
C1847 C 0.6436 0.3953 0.31693 0.0
C1848 C 0.63216 0.4055 0.28526 0.0
C1849 C 0.62438 0.3866 0.28036 0.0
C1850 C 0.62654 0.37198 0.29376 0.0
C1851 C 0.63593 0.37632 0.31198 0.0
H1852 H 0.86543 0.34195 0.57571 0.0
H1853 H 0.88128 0.40305 0.57116 0.0
H1854 H 0.87415 0.33706 0.5421 0.0
H1855 H 0.89085 0.39809 0.53761 0.0
H1856 H 0.87558 0.38526 0.47265 0.0
H1857 H 0.87367 0.3908 0.50749 0.0
H1858 H 0.89836 0.33711 0.51812 0.0
H1859 H 0.89954 0.3312 0.48303 0.0
C1860 C 0.87125 0.35431 0.56767 0.0
C1861 C 0.87244 0.37293 0.57604 0.0
C1862 C 0.87638 0.35149 0.54836 0.0
C1863 C 0.88302 0.36719 0.53699 0.0
C1864 C 0.88536 0.3857 0.54578 0.0
C1865 C 0.88002 0.38855 0.56507 0.0
C1866 C 0.88075 0.37467 0.48239 0.0
C1867 C 0.88756 0.35769 0.47502 0.0
C1868 C 0.87982 0.37795 0.50245 0.0
C1869 C 0.88586 0.36442 0.51572 0.0
C1870 C 0.89329 0.34771 0.50835 0.0
C1871 C 0.89404 0.34434 0.48822 0.0
H1872 H 0.91983 0.39311 0.77745 0.0
H1873 H 0.86402 0.35894 0.78414 0.0
H1874 H 0.91157 0.39663 0.74282 0.0
H1875 H 0.85603 0.36219 0.74941 0.0
H1876 H 0.86142 0.35703 0.6817 0.0
H1877 H 0.87191 0.35209 0.7156 0.0
H1878 H 0.88232 0.41352 0.72515 0.0
H1879 H 0.87147 0.41854 0.69151 0.0
C1880 C 0.90588 0.38624 0.7715 0.0
C1881 C 0.89252 0.37582 0.78349 0.0
C1882 C 0.90118 0.3883 0.75174 0.0
C1883 C 0.88323 0.37962 0.74355 0.0
C1884 C 0.87004 0.36887 0.75541 0.0
C1885 C 0.87455 0.36714 0.77526 0.0
C1886 C 0.86612 0.36945 0.69101 0.0
C1887 C 0.86558 0.38817 0.68403 0.0
C1888 C 0.872 0.36662 0.71036 0.0
C1889 C 0.87787 0.38244 0.72287 0.0
C1890 C 0.87794 0.40111 0.71572 0.0
C1891 C 0.87166 0.40396 0.69653 0.0
H1892 H 0.84033 0.58445 0.95244 0.0
H1893 H 0.87511 0.62909 0.9225 0.0
H1894 H 0.84741 0.60211 0.98331 0.0
H1895 H 0.88189 0.64697 0.95351 0.0
H1896 H 0.85798 0.68052 0.00813 0.0
H1897 H 0.85792 0.66302 0.97693 0.0
H1898 H 0.87787 0.61408 0.00634 0.0
H1899 H 0.87828 0.63169 0.0376 0.0
C1900 C 0.84958 0.59799 0.95247 0.0
C1901 C 0.8571 0.60544 0.93504 0.0
C1902 C 0.85374 0.60801 0.97016 0.0
C1903 C 0.86521 0.62586 0.97076 0.0
C1904 C 0.87298 0.63323 0.9534 0.0
C1905 C 0.86915 0.62299 0.93571 0.0
C1906 C 0.86267 0.66614 0.0079 0.0
C1907 C 0.86804 0.65742 0.0253 0.0
C1908 C 0.86273 0.65619 0.99004 0.0
C1909 C 0.86782 0.63721 0.98928 0.0
C1910 C 0.87381 0.62869 0.00658 0.0
C1911 C 0.87411 0.63879 0.02442 0.0
H1912 H 0.5707 0.62064 0.25705 0.0
H1913 H 0.62695 0.59931 0.27069 0.0
H1914 H 0.57777 0.61978 0.22247 0.0
H1915 H 0.63369 0.59769 0.23615 0.0
H1916 H 0.64928 0.61174 0.1747 0.0
H1917 H 0.642 0.61649 0.20891 0.0
H1918 H 0.58024 0.59847 0.19578 0.0
H1919 H 0.58743 0.59455 0.16155 0.0
C1920 C 0.58449 0.61558 0.25265 0.0
C1921 C 0.59826 0.61004 0.26664 0.0
C1922 C 0.58853 0.61503 0.23279 0.0
C1923 C 0.60636 0.60873 0.22642 0.0
C1924 C 0.62001 0.60303 0.24047 0.0
C1925 C 0.61606 0.60378 0.26031 0.0
C1926 C 0.63412 0.60907 0.1791 0.0
C1927 C 0.61896 0.60273 0.16541 0.0
C1928 C 0.62995 0.61161 0.19876 0.0
C1929 C 0.61055 0.60764 0.20524 0.0
C1930 C 0.59531 0.60189 0.19138 0.0
C1931 C 0.59945 0.59956 0.1717 0.0
H1932 H 0.60324 0.36858 0.52347 0.0
H1933 H 0.62758 0.31715 0.50341 0.0
H1934 H 0.60444 0.38095 0.49032 0.0
H1935 H 0.62923 0.32953 0.47078 0.0
H1936 H 0.62434 0.34944 0.41127 0.0
H1937 H 0.6118 0.33794 0.44218 0.0
H1938 H 0.63064 0.39336 0.46928 0.0
H1939 H 0.64247 0.40508 0.43803 0.0
C1940 C 0.6085 0.35978 0.51195 0.0
C1941 C 0.61544 0.34195 0.51607 0.0
C1942 C 0.60934 0.36692 0.49301 0.0
C1943 C 0.617 0.35629 0.47787 0.0
C1944 C 0.62295 0.33803 0.48193 0.0
C1945 C 0.62216 0.33097 0.50075 0.0
C1946 C 0.62545 0.35928 0.42375 0.0
C1947 C 0.63467 0.37806 0.42234 0.0
C1948 C 0.61834 0.35268 0.44149 0.0
C1949 C 0.62058 0.36458 0.45834 0.0
C1950 C 0.62856 0.38382 0.4566 0.0
C1951 C 0.63545 0.39052 0.43872 0.0
H1952 H 0.74275 0.93504 0.60123 0.0
H1953 H 0.71993 0.89056 0.63962 0.0
H1954 H 0.7747 0.92229 0.60216 0.0
H1955 H 0.75227 0.87783 0.6408 0.0
H1956 H 0.83408 0.90375 0.61447 0.0
H1957 H 0.80356 0.9174 0.6221 0.0
H1958 H 0.77179 0.86075 0.61771 0.0
H1959 H 0.80252 0.847 0.61049 0.0
C1960 C 0.74466 0.92272 0.61019 0.0
C1961 C 0.72875 0.91377 0.62028 0.0
C1962 C 0.76307 0.91545 0.61082 0.0
C1963 C 0.76609 0.89899 0.62153 0.0
C1964 C 0.75038 0.89043 0.63226 0.0
C1965 C 0.73191 0.89781 0.63171 0.0
C1966 C 0.82066 0.89414 0.61544 0.0
C1967 C 0.82069 0.87431 0.61163 0.0
C1968 C 0.80313 0.90199 0.61974 0.0
C1969 C 0.78515 0.89023 0.62022 0.0
C1970 C 0.78538 0.87023 0.61756 0.0
C1971 C 0.80299 0.86234 0.61333 0.0
H1972 H 0.23812 0.58855 0.37336 0.0
H1973 H 0.22207 0.6451 0.38894 0.0
H1974 H 0.27242 0.59869 0.38293 0.0
H1975 H 0.25648 0.65529 0.39819 0.0
H1976 H 0.31515 0.6595 0.43315 0.0
H1977 H 0.28093 0.64878 0.42375 0.0
H1978 H 0.3004 0.62045 0.37231 0.0
H1979 H 0.33467 0.63088 0.38182 0.0
C1980 C 0.24191 0.60319 0.37873 0.0
C1981 C 0.22734 0.61602 0.38042 0.0
C1982 C 0.26159 0.609 0.38411 0.0
C1983 C 0.26713 0.62776 0.39134 0.0
C1984 C 0.2526 0.64065 0.39291 0.0
C1985 C 0.23291 0.63485 0.3875 0.0
C1986 C 0.31217 0.6509 0.41987 0.0
C1987 C 0.32766 0.64605 0.40822 0.0
C1988 C 0.29254 0.64489 0.41443 0.0
C1989 C 0.28798 0.63387 0.39725 0.0
C1990 C 0.30347 0.62879 0.38573 0.0
C1991 C 0.32311 0.63482 0.39114 0.0
H1992 H 0.59073 0.06285 0.62339 0.0
H1993 H 0.65253 0.08122 0.6355 0.0
H1994 H 0.59899 0.03021 0.61671 0.0
H1995 H 0.66071 0.0486 0.62959 0.0
H1996 H 0.67186 0.99001 0.60553 0.0
H1997 H 0.66329 0.02308 0.6069 0.0
H1998 H 0.60894 0.00409 0.63487 0.0
H1999 H 0.61717 0.97107 0.63285 0.0
C2000 C 0.60609 0.05996 0.62446 0.0
C2001 C 0.62094 0.07463 0.63005 0.0
C2002 C 0.61083 0.04121 0.62082 0.0
C2003 C 0.63051 0.03664 0.62283 0.0
C2004 C 0.64543 0.05153 0.62767 0.0
C2005 C 0.64071 0.07029 0.63116 0.0
C2006 C 0.65807 0.99291 0.61194 0.0
C2007 C 0.64523 0.97788 0.61911 0.0
C2008 C 0.65316 0.0119 0.61278 0.0
C2009 C 0.63538 0.01634 0.62097 0.0
C2010 C 0.62256 0.00124 0.6281 0.0
C2011 C 0.62738 0.98227 0.62711 0.0
H2012 H 0.16936 0.3694 0.89657 0.0
H2013 H 0.19217 0.31526 0.9087 0.0
H2014 H 0.20224 0.38308 0.88825 0.0
H2015 H 0.22476 0.32823 0.89888 0.0
H2016 H 0.2851 0.36119 0.89879 0.0
H2017 H 0.25233 0.34805 0.90775 0.0
H2018 H 0.22634 0.38441 0.86569 0.0
H2019 H 0.25929 0.39856 0.85802 0.0
C2020 C 0.18144 0.36038 0.89719 0.0
C2021 C 0.17834 0.34135 0.90336 0.0
C2022 C 0.20029 0.36813 0.89224 0.0
C2023 C 0.21635 0.35682 0.8928 0.0
C2024 C 0.21301 0.33761 0.8987 0.0
C2025 C 0.19428 0.33007 0.90421 0.0
C2026 C 0.27232 0.36631 0.89149 0.0
C2027 C 0.27464 0.38086 0.87774 0.0
C2028 C 0.25348 0.35869 0.8965 0.0
C2029 C 0.23648 0.36504 0.88744 0.0
C2030 C 0.23895 0.3794 0.87335 0.0
C2031 C 0.25783 0.38743 0.86878 0.0
H2032 H 0.34953 0.42486 0.62465 0.0
H2033 H 0.40637 0.45613 0.63875 0.0
H2034 H 0.33533 0.45505 0.61933 0.0
H2035 H 0.39202 0.48645 0.63379 0.0
H2036 H 0.31281 0.51007 0.64517 0.0
H2037 H 0.32733 0.47981 0.64213 0.0
H2038 H 0.37616 0.50815 0.61155 0.0
H2039 H 0.36162 0.53873 0.61484 0.0
C2040 C 0.35908 0.43818 0.62635 0.0
C2041 C 0.37904 0.43809 0.63236 0.0
C2042 C 0.3509 0.4555 0.6234 0.0
C2043 C 0.36244 0.47319 0.62645 0.0
C2044 C 0.38272 0.47309 0.63122 0.0
C2045 C 0.39095 0.4557 0.63413 0.0
C2046 C 0.32651 0.50986 0.63757 0.0
C2047 C 0.33608 0.52684 0.63032 0.0
C2048 C 0.3348 0.49244 0.6357 0.0
C2049 C 0.35293 0.49152 0.62658 0.0
C2050 C 0.36226 0.5084 0.61879 0.0
C2051 C 0.35387 0.52588 0.62056 0.0
H2052 H 0.77874 0.13333 0.11447 0.0
H2053 H 0.75863 0.07915 0.13994 0.0
H2054 H 0.74466 0.14018 0.10909 0.0
H2055 H 0.72444 0.08634 0.13527 0.0
H2056 H 0.66605 0.09555 0.10298 0.0
H2057 H 0.69967 0.08854 0.11081 0.0
H2058 H 0.71616 0.14874 0.12455 0.0
H2059 H 0.6826 0.15583 0.1159 0.0
C2060 C 0.76703 0.12293 0.11908 0.0
C2061 C 0.77144 0.10565 0.12758 0.0
C2062 C 0.74743 0.12695 0.11615 0.0
C2063 C 0.73168 0.11389 0.12182 0.0
C2064 C 0.73612 0.09664 0.13045 0.0
C2065 C 0.75575 0.09252 0.1332 0.0
C2066 C 0.67679 0.10728 0.10785 0.0
C2067 C 0.67166 0.12627 0.10872 0.0
C2068 C 0.69611 0.10324 0.11245 0.0
C2069 C 0.71077 0.11806 0.11821 0.0
C2070 C 0.70541 0.13699 0.11977 0.0
C2071 C 0.68611 0.14106 0.11498 0.0
H2072 H 0.67504 0.01629 0.86416 0.0
H2073 H 0.61912 0.03303 0.88327 0.0
H2074 H 0.66167 0.98258 0.86372 0.0
H2075 H 0.60564 0.99918 0.88256 0.0
H2076 H 0.58624 0.94449 0.84171 0.0
H2077 H 0.59918 0.9771 0.85158 0.0
H2078 H 0.64635 0.95484 0.88506 0.0
H2079 H 0.63322 0.92196 0.87539 0.0
C2080 C 0.66 0.01271 0.86862 0.0
C2081 C 0.64803 0.02724 0.87357 0.0
C2082 C 0.65241 0.99342 0.86848 0.0
C2083 C 0.63262 0.98835 0.87299 0.0
C2084 C 0.62094 0.00279 0.87894 0.0
C2085 C 0.62866 0.0221 0.87942 0.0
C2086 C 0.59928 0.94651 0.85131 0.0
C2087 C 0.60884 0.93069 0.85764 0.0
C2088 C 0.60654 0.96517 0.85713 0.0
C2089 C 0.62368 0.96843 0.86914 0.0
C2090 C 0.63308 0.95264 0.8758 0.0
C2091 C 0.62558 0.93389 0.87027 0.0
H2092 H 0.90611 0.05365 0.37178 0.0
H2093 H 0.85361 0.07665 0.3922 0.0
H2094 H 0.89196 0.02124 0.3786 0.0
H2095 H 0.83907 0.04381 0.39868 0.0
H2096 H 0.81711 0.98232 0.36673 0.0
H2097 H 0.82895 0.01604 0.37288 0.0
H2098 H 0.8791 0.99905 0.4061 0.0
H2099 H 0.86718 0.96519 0.4001 0.0
C2100 C 0.89161 0.05173 0.37801 0.0
C2101 C 0.88084 0.06755 0.38133 0.0
C2102 C 0.8836 0.03321 0.38209 0.0
C2103 C 0.86447 0.03005 0.38922 0.0
C2104 C 0.8539 0.04593 0.39324 0.0
C2105 C 0.86217 0.06463 0.38957 0.0
C2106 C 0.8304 0.98577 0.37577 0.0
C2107 C 0.84141 0.97114 0.38267 0.0
C2108 C 0.83706 0.00508 0.37943 0.0
C2109 C 0.85499 0.0101 0.38985 0.0
C2110 C 0.86525 0.9955 0.39796 0.0
C2111 C 0.85843 0.97615 0.39453 0.0
H2112 H 0.37647 0.25667 0.06203 0.0
H2113 H 0.34243 0.2712 0.11135 0.0
H2114 H 0.37687 0.22414 0.07346 0.0
H2115 H 0.34251 0.23818 0.12275 0.0
H2116 H 0.36861 0.16388 0.09097 0.0
H2117 H 0.35821 0.19403 0.07914 0.0
H2118 H 0.36761 0.21931 0.13707 0.0
H2119 H 0.37748 0.18886 0.14904 0.0
C2120 C 0.36867 0.25279 0.07513 0.0
C2121 C 0.35952 0.26656 0.08584 0.0
C2122 C 0.36879 0.23403 0.08164 0.0
C2123 C 0.35977 0.2285 0.09909 0.0
C2124 C 0.34977 0.24203 0.10936 0.0
C2125 C 0.34957 0.26088 0.10275 0.0
C2126 C 0.36814 0.17577 0.10127 0.0
C2127 C 0.37414 0.17407 0.12089 0.0
C2128 C 0.36224 0.19308 0.09447 0.0
C2129 C 0.36238 0.20922 0.10707 0.0
C2130 C 0.3672 0.20716 0.12698 0.0
C2131 C 0.37296 0.18973 0.13383 0.0
H2132 H 0.58055 0.63235 0.86883 0.0
H2133 H 0.56879 0.68328 0.90154 0.0
H2134 H 0.54534 0.62579 0.86055 0.0
H2135 H 0.53371 0.67686 0.89298 0.0
H2136 H 0.47128 0.64495 0.8949 0.0
H2137 H 0.50659 0.65327 0.90135 0.0
H2138 H 0.51814 0.63784 0.84182 0.0
H2139 H 0.48291 0.6292 0.83541 0.0
C2140 C 0.57051 0.64227 0.87405 0.0
C2141 C 0.57749 0.65827 0.88594 0.0
C2142 C 0.55033 0.63855 0.86925 0.0
C2143 C 0.53672 0.65074 0.87623 0.0
C2144 C 0.54378 0.66702 0.88765 0.0
C2145 C 0.56392 0.67075 0.89245 0.0
C2146 C 0.48133 0.6434 0.88316 0.0
C2147 C 0.47425 0.63634 0.86466 0.0
C2148 C 0.50156 0.64827 0.88683 0.0
C2149 C 0.51517 0.64619 0.87209 0.0
C2150 C 0.50807 0.63937 0.85354 0.0
C2151 C 0.48785 0.63452 0.84986 0.0
H2152 H 0.10773 0.74121 0.55859 0.0
H2153 H 0.14349 0.7291 0.60917 0.0
H2154 H 0.10982 0.77481 0.56854 0.0
H2155 H 0.14589 0.76319 0.61911 0.0
H2156 H 0.12241 0.83608 0.58295 0.0
H2157 H 0.13088 0.80434 0.5731 0.0
H2158 H 0.12259 0.78482 0.63187 0.0
H2159 H 0.11467 0.81685 0.64188 0.0
C2160 C 0.11639 0.74582 0.57168 0.0
C2161 C 0.12533 0.73247 0.58316 0.0
C2162 C 0.11772 0.76517 0.57733 0.0
C2163 C 0.12803 0.77174 0.59465 0.0
C2164 C 0.13771 0.75854 0.60577 0.0
C2165 C 0.13646 0.73907 0.60001 0.0
C2166 C 0.12276 0.82512 0.59387 0.0
C2167 C 0.11756 0.82887 0.61312 0.0
C2168 C 0.12755 0.80691 0.5882 0.0
C2169 C 0.12704 0.79192 0.6016 0.0
C2170 C 0.12321 0.79604 0.6212 0.0
C2171 C 0.11857 0.81438 0.62692 0.0
H2172 H 0.04026 0.37862 0.38617 0.0
H2173 H 0.02504 0.35921 0.32692 0.0
H2174 H 0.00517 0.37753 0.39319 0.0
H2175 H 0.98983 0.35771 0.33419 0.0
H2176 H 0.93525 0.33125 0.37197 0.0
H2177 H 0.9686 0.33602 0.35948 0.0
H2178 H 0.97387 0.39506 0.38022 0.0
H2179 H 0.94019 0.39045 0.39235 0.0
C2180 C 0.02943 0.37405 0.37467 0.0
C2181 C 0.03539 0.36889 0.35603 0.0
C2182 C 0.00937 0.37363 0.37864 0.0
C2183 C 0.99489 0.36769 0.36417 0.0
C2184 C 0.00078 0.36242 0.34555 0.0
C2185 C 0.02087 0.36324 0.34143 0.0
C2186 C 0.94336 0.34537 0.37345 0.0
C2187 C 0.93521 0.36048 0.38316 0.0
C2188 C 0.96239 0.34809 0.36626 0.0
C2189 C 0.97376 0.36585 0.36903 0.0
C2190 C 0.96534 0.38122 0.378 0.0
C2191 C 0.94609 0.37862 0.38481 0.0
H2192 H 0.43285 0.81148 0.35545 0.0
H2193 H 0.37916 0.8212 0.38464 0.0
H2194 H 0.43207 0.77967 0.36931 0.0
H2195 H 0.37825 0.78914 0.39829 0.0
H2196 H 0.39242 0.73713 0.43335 0.0
H2197 H 0.39591 0.76997 0.42158 0.0
H2198 H 0.41204 0.74887 0.36529 0.0
H2199 H 0.40886 0.71614 0.37707 0.0
C2200 C 0.42085 0.80684 0.36481 0.0
C2201 C 0.406 0.81889 0.36885 0.0
C2202 C 0.42038 0.78855 0.3727 0.0
C2203 C 0.40508 0.78184 0.38485 0.0
C2204 C 0.39037 0.79397 0.38915 0.0
C2205 C 0.39082 0.81229 0.38122 0.0
C2206 C 0.39694 0.73951 0.41854 0.0
C2207 C 0.40032 0.72397 0.40615 0.0
C2208 C 0.39877 0.75832 0.41175 0.0
C2209 C 0.40412 0.76202 0.39247 0.0
C2210 C 0.40807 0.74654 0.38028 0.0
C2211 C 0.40617 0.72775 0.38703 0.0
H2212 H 0.00656 0.63688 0.1789 0.0
H2213 H 0.01921 0.60754 0.12542 0.0
H2214 H 0.97272 0.63831 0.16747 0.0
H2215 H 0.9848 0.60854 0.11399 0.0
H2216 H 0.9344 0.64584 0.092 0.0
H2217 H 0.96547 0.63391 0.10271 0.0
H2218 H 0.94131 0.6218 0.15916 0.0
H2219 H 0.91069 0.63445 0.14868 0.0
C2220 C 0.00196 0.6303 0.16485 0.0
C2221 C 0.01561 0.62226 0.15299 0.0
C2222 C 0.98244 0.63098 0.15831 0.0
C2223 C 0.97599 0.6236 0.13973 0.0
C2224 C 0.98936 0.61455 0.12828 0.0
C2225 C 0.009 0.61382 0.13489 0.0
C2226 C 0.93565 0.64029 0.10656 0.0
C2227 C 0.92031 0.64143 0.11964 0.0
C2228 C 0.95341 0.63333 0.11269 0.0
C2229 C 0.95603 0.6272 0.13193 0.0
C2230 C 0.93999 0.62688 0.14441 0.0
C2231 C 0.92241 0.63407 0.13839 0.0
H2232 H 0.11228 0.24938 0.92655 0.0
H2233 H 0.09718 0.26991 0.86951 0.0
H2234 H 0.10622 0.21631 0.91425 0.0
H2235 H 0.09144 0.23683 0.85719 0.0
H2236 H 0.06426 0.17524 0.8467 0.0
H2237 H 0.06874 0.20785 0.86019 0.0
H2238 H 0.12146 0.1946 0.89188 0.0
H2239 H 0.11682 0.16171 0.8786 0.0
C2240 C 0.10758 0.24686 0.91141 0.0
C2241 C 0.10523 0.26232 0.89901 0.0
C2242 C 0.10426 0.2279 0.90434 0.0
C2243 C 0.09846 0.22395 0.88473 0.0
C2244 C 0.09572 0.23938 0.87243 0.0
C2245 C 0.09907 0.25836 0.87948 0.0
C2246 C 0.07682 0.17921 0.85657 0.0
C2247 C 0.09023 0.16584 0.86152 0.0
C2248 C 0.07942 0.19796 0.86422 0.0
C2249 C 0.09548 0.20383 0.87704 0.0
C2250 C 0.10881 0.19044 0.88219 0.0
C2251 C 0.10622 0.17163 0.8745 0.0
H2252 H 0.58907 0.37572 0.64816 0.0
H2253 H 0.55895 0.36285 0.59238 0.0
H2254 H 0.55995 0.38923 0.66011 0.0
H2255 H 0.52947 0.37578 0.60456 0.0
H2256 H 0.47997 0.40595 0.62905 0.0
H2257 H 0.51285 0.4027 0.61656 0.0
H2258 H 0.52872 0.37444 0.66942 0.0
H2259 H 0.49636 0.37809 0.68194 0.0
C2260 C 0.57626 0.37591 0.63839 0.0
C2261 C 0.57619 0.36796 0.61942 0.0
C2262 C 0.55953 0.38361 0.64527 0.0
C2263 C 0.54224 0.38333 0.63342 0.0
C2264 C 0.54257 0.37638 0.61405 0.0
C2265 C 0.55942 0.36884 0.60709 0.0
C2266 C 0.4907 0.39951 0.63817 0.0
C2267 C 0.48552 0.39216 0.65642 0.0
C2268 C 0.50946 0.39748 0.63094 0.0
C2269 C 0.5234 0.38817 0.6419 0.0
C2270 C 0.51851 0.38189 0.66063 0.0
C2271 C 0.49984 0.38388 0.6678 0.0
H2272 H 0.07648 0.3905 0.2619 0.0
H2273 H 0.12644 0.35854 0.27461 0.0
H2274 H 0.08616 0.39349 0.22835 0.0
H2275 H 0.13611 0.36133 0.24054 0.0
H2276 H 0.09856 0.38691 0.16617 0.0
H2277 H 0.08906 0.37576 0.19818 0.0
H2278 H 0.14955 0.38783 0.2196 0.0
H2279 H 0.1592 0.3986 0.18724 0.0
C2280 C 0.08939 0.38381 0.25743 0.0
C2281 C 0.10074 0.37434 0.27093 0.0
C2282 C 0.09488 0.38542 0.23811 0.0
C2283 C 0.11192 0.37763 0.23172 0.0
C2284 C 0.12299 0.36759 0.24506 0.0
C2285 C 0.11737 0.36586 0.2645 0.0
C2286 C 0.10991 0.38696 0.17762 0.0
C2287 C 0.12958 0.39392 0.17426 0.0
C2288 C 0.10445 0.3806 0.19599 0.0
C2289 C 0.11848 0.38119 0.21153 0.0
C2290 C 0.1384 0.3871 0.20791 0.0
C2291 C 0.14391 0.39337 0.18941 0.0
H2292 H 0.36741 0.40739 0.93215 0.0
H2293 H 0.3563 0.34691 0.91705 0.0
H2294 H 0.37265 0.39944 0.96626 0.0
H2295 H 0.36044 0.33899 0.95101 0.0
H2296 H 0.3797 0.32789 0.01242 0.0
H2297 H 0.38085 0.33699 0.97843 0.0
H2298 H 0.35383 0.3888 0.99267 0.0
H2299 H 0.35372 0.38011 0.02685 0.0
C2300 C 0.3663 0.3924 0.93608 0.0
C2301 C 0.36141 0.3778 0.92189 0.0
C2302 C 0.36906 0.38782 0.95569 0.0
C2303 C 0.36671 0.36855 0.96157 0.0
C2304 C 0.36265 0.35397 0.94715 0.0
C2305 C 0.36019 0.35853 0.92758 0.0
C2306 C 0.37401 0.34123 0.00827 0.0
C2307 C 0.3665 0.35322 0.0223 0.0
C2308 C 0.37462 0.34645 0.98873 0.0
C2309 C 0.36738 0.36364 0.98264 0.0
C2310 C 0.35991 0.37565 0.99677 0.0
C2311 C 0.35964 0.37058 0.01638 0.0
H2312 H 0.32767 0.58883 0.70761 0.0
H2313 H 0.37485 0.62479 0.68187 0.0
H2314 H 0.34319 0.59573 0.7399 0.0
H2315 H 0.39049 0.63143 0.71425 0.0
H2316 H 0.42209 0.60933 0.77116 0.0
H2317 H 0.40609 0.60855 0.73877 0.0
H2318 H 0.35271 0.6252 0.76387 0.0
H2319 H 0.36885 0.62631 0.7964 0.0
C2320 C 0.3413 0.59827 0.70886 0.0
C2321 C 0.35011 0.60619 0.69219 0.0
C2322 C 0.35007 0.60233 0.72735 0.0
C2323 C 0.36798 0.61412 0.72951 0.0
C2324 C 0.37668 0.62226 0.71292 0.0
C2325 C 0.36772 0.61849 0.69444 0.0
C2326 C 0.40704 0.6131 0.76975 0.0
C2327 C 0.39667 0.6178 0.78629 0.0
C2328 C 0.39794 0.61275 0.75121 0.0
C2329 C 0.37818 0.61676 0.74889 0.0
C2330 C 0.36795 0.62198 0.76534 0.0
C2331 C 0.37719 0.6227 0.78389 0.0
H2332 H 0.13096 0.61762 0.52554 0.0
H2333 H 0.10539 0.66933 0.5089 0.0
H2334 H 0.13501 0.60948 0.49133 0.0
H2335 H 0.10853 0.66079 0.47467 0.0
H2336 H 0.14324 0.65412 0.41939 0.0
H2337 H 0.13387 0.66047 0.45245 0.0
H2338 H 0.12025 0.59947 0.46063 0.0
H2339 H 0.13056 0.59307 0.42754 0.0
C2340 C 0.1259 0.62709 0.51454 0.0
C2341 C 0.11809 0.64424 0.51992 0.0
C2342 C 0.12807 0.62235 0.49489 0.0
C2343 C 0.12223 0.63453 0.48015 0.0
C2344 C 0.11363 0.65128 0.48559 0.0
C2345 C 0.11174 0.65615 0.50523 0.0
C2346 C 0.13802 0.64204 0.42812 0.0
C2347 C 0.13777 0.62308 0.42086 0.0
C2348 C 0.1325 0.6457 0.44713 0.0
C2349 C 0.12633 0.6305 0.45934 0.0
C2350 C 0.12526 0.61152 0.45178 0.0
C2351 C 0.13101 0.60785 0.43276 0.0
H2352 H 0.13886 0.62181 0.20822 0.0
H2353 H 0.08006 0.6267 0.22883 0.0
H2354 H 0.15065 0.61706 0.24147 0.0
H2355 H 0.09195 0.62181 0.26218 0.0
H2356 H 0.12781 0.63209 0.3212 0.0
H2357 H 0.11521 0.6381 0.28832 0.0
H2358 H 0.14516 0.59114 0.26563 0.0
H2359 H 0.15781 0.58516 0.29824 0.0
C2360 C 0.12845 0.62193 0.21984 0.0
C2361 C 0.10849 0.62456 0.21585 0.0
C2362 C 0.1352 0.61911 0.23887 0.0
C2363 C 0.12219 0.61896 0.25438 0.0
C2364 C 0.10233 0.62198 0.25051 0.0
C2365 C 0.09552 0.62467 0.23141 0.0
C2366 C 0.13167 0.62303 0.30919 0.0
C2367 C 0.14388 0.60819 0.31235 0.0
C2368 C 0.12438 0.62643 0.2904 0.0
C2369 C 0.12932 0.61516 0.27443 0.0
C2370 C 0.14135 0.60023 0.27763 0.0
C2371 C 0.14849 0.59675 0.29636 0.0
H2372 H 0.15431 0.41322 0.04746 0.0
H2373 H 0.12019 0.37205 0.08225 0.0
H2374 H 0.14447 0.39386 0.01817 0.0
H2375 H 0.11052 0.35255 0.05283 0.0
H2376 H 0.12957 0.31416 -0.00045 0.0
H2377 H 0.13132 0.33367 0.02958 0.0
H2378 H 0.11324 0.38176 0.99735 0.0
H2379 H 0.11128 0.3622 0.96726 0.0
C2380 C 0.1446 0.40011 0.04884 0.0
C2381 C 0.13812 0.3941 0.06717 0.0
C2382 C 0.13884 0.38912 0.03205 0.0
C2383 C 0.1267 0.37176 0.03328 0.0
C2384 C 0.11991 0.36588 0.05153 0.0
C2385 C 0.12542 0.37705 0.06832 0.0
C2386 C 0.12557 0.32877 0.99893 0.0
C2387 C 0.12045 0.33671 0.98105 0.0
C2388 C 0.12649 0.33989 0.01613 0.0
C2389 C 0.12255 0.35923 0.01571 0.0
C2390 C 0.11648 0.3669 0.998 0.0
C2391 C 0.11527 0.35569 0.98083 0.0
H2392 H 0.33851 0.421 0.80007 0.0
H2393 H 0.37475 0.37728 0.81997 0.0
H2394 H 0.35207 0.41903 0.76786 0.0
H2395 H 0.38818 0.37517 0.78744 0.0
H2396 H 0.42254 0.39308 0.73246 0.0
H2397 H 0.40957 0.3948 0.76514 0.0
H2398 H 0.3506 0.3962 0.74018 0.0
H2399 H 0.36351 0.39474 0.70755 0.0
C2400 C 0.34934 0.4109 0.79758 0.0
C2401 C 0.35551 0.39926 0.81264 0.0
C2402 C 0.35703 0.40972 0.77905 0.0
C2403 C 0.37113 0.39689 0.77508 0.0
C2404 C 0.37745 0.38531 0.79012 0.0
C2405 C 0.36967 0.38644 0.80871 0.0
C2406 C 0.40681 0.39382 0.73393 0.0
C2407 C 0.39407 0.39385 0.71737 0.0
C2408 C 0.39938 0.39466 0.75267 0.0
C2409 C 0.37907 0.39564 0.75523 0.0
C2410 C 0.36636 0.39569 0.73868 0.0
C2411 C 0.37376 0.39478 0.71997 0.0
H2412 H 0.39913 0.63396 0.48699 0.0
H2413 H 0.37144 0.6844 0.50433 0.0
H2414 H 0.39579 0.6217 0.52005 0.0
H2415 H 0.36775 0.67212 0.53689 0.0
H2416 H 0.37105 0.65295 0.59723 0.0
H2417 H 0.38417 0.66467 0.56664 0.0
H2418 H 0.36843 0.60863 0.53965 0.0
H2419 H 0.35588 0.59672 0.57058 0.0
C2420 C 0.39264 0.64256 0.49792 0.0
C2421 C 0.38546 0.66011 0.49303 0.0
C2422 C 0.39058 0.63548 0.5168 0.0
C2423 C 0.38145 0.64588 0.53114 0.0
C2424 C 0.37512 0.66382 0.52637 0.0
C2425 C 0.37711 0.67083 0.50759 0.0
C2426 C 0.37069 0.64303 0.58486 0.0
C2427 C 0.36217 0.62399 0.58622 0.0
C2428 C 0.37814 0.64977 0.56729 0.0
C2429 C 0.37703 0.63771 0.55057 0.0
C2430 C 0.36963 0.6183 0.55226 0.0
C2431 C 0.36234 0.61148 0.56995 0.0
H2432 H 0.1864 0.1439 0.37216 0.0
H2433 H 0.16974 0.09171 0.40266 0.0
H2434 H 0.21733 0.13145 0.36329 0.0
H2435 H 0.2009 0.07987 0.3953 0.0
H2436 H 0.2541 0.05589 0.37549 0.0
H2437 H 0.22133 0.06711 0.3746 0.0
H2438 H 0.24806 0.12599 0.37498 0.0
H2439 H 0.28065 0.11439 0.37401 0.0
C2440 C 0.18937 0.12976 0.37694 0.0
C2441 C 0.17562 0.11877 0.38805 0.0
C2442 C 0.20721 0.12264 0.37203 0.0
C2443 C 0.21193 0.10456 0.37856 0.0
C2444 C 0.19787 0.09357 0.38944 0.0
C2445 C 0.17991 0.10046 0.39387 0.0
C2446 C 0.25283 0.0712 0.3749 0.0
C2447 C 0.26981 0.08429 0.37486 0.0
C2448 C 0.23404 0.07773 0.37468 0.0
C2449 C 0.23178 0.09759 0.37528 0.0
C2450 C 0.24892 0.11062 0.37433 0.0
C2451 C 0.26771 0.10401 0.37386 0.0
H2452 H 0.78621 0.35344 0.60729 0.0
H2453 H 0.77387 0.41129 0.62262 0.0
H2454 H 0.75118 0.34474 0.59977 0.0
H2455 H 0.73886 0.40259 0.6148 0.0
H2456 H 0.67609 0.37183 0.62174 0.0
H2457 H 0.71109 0.38199 0.62801 0.0
H2458 H 0.72536 0.35165 0.57566 0.0
H2459 H 0.69042 0.34124 0.56948 0.0
C2460 C 0.77606 0.36433 0.60898 0.0
C2461 C 0.78284 0.38305 0.6156 0.0
C2462 C 0.756 0.35937 0.60454 0.0
C2463 C 0.74229 0.373 0.60667 0.0
C2464 C 0.74906 0.39173 0.61321 0.0
C2465 C 0.76913 0.39672 0.6176 0.0
C2466 C 0.68667 0.36741 0.6115 0.0
C2467 C 0.68046 0.35564 0.59516 0.0
C2468 C 0.70671 0.37332 0.61505 0.0
C2469 C 0.72096 0.36754 0.60237 0.0
C2470 C 0.71473 0.3561 0.58584 0.0
C2471 C 0.6947 0.35024 0.58225 0.0
H2472 H 0.34612 0.91486 0.36071 0.0
H2473 H 0.40798 0.93514 0.36905 0.0
H2474 H 0.33737 0.94756 0.3646 0.0
H2475 H 0.39919 0.96791 0.37372 0.0
H2476 H 0.37865 0.02596 0.35715 0.0
H2477 H 0.38753 0.99307 0.35518 0.0
H2478 H 0.33528 0.97373 0.3864 0.0
H2479 H 0.32605 0.0065 0.38769 0.0
C2480 C 0.35785 0.92627 0.36377 0.0
C2481 C 0.37776 0.92238 0.36451 0.0
C2482 C 0.35282 0.94507 0.36607 0.0
C2483 C 0.36756 0.96049 0.36937 0.0
C2484 C 0.38745 0.95648 0.37081 0.0
C2485 C 0.3925 0.93766 0.36833 0.0
C2486 C 0.36903 0.01468 0.36354 0.0
C2487 C 0.35159 0.01887 0.37249 0.0
C2488 C 0.37422 0.9958 0.36257 0.0
C2489 C 0.36219 0.98067 0.3707 0.0
C2490 C 0.34477 0.98492 0.37972 0.0
C2491 C 0.33949 0.00376 0.38052 0.0
H2492 H 0.79624 0.67013 0.09152 0.0
H2493 H 0.82584 0.63252 0.12939 0.0
H2494 H 0.76426 0.65495 0.10118 0.0
H2495 H 0.79377 0.61727 0.13888 0.0
H2496 H 0.73438 0.579 0.11855 0.0
H2497 H 0.76727 0.59638 0.11831 0.0
H2498 H 0.74235 0.64952 0.1312 0.0
H2499 H 0.7093 0.63202 0.13169 0.0
C2500 C 0.79592 0.65874 0.10201 0.0
C2501 C 0.81356 0.6524 0.10955 0.0
C2502 C 0.77762 0.6502 0.10768 0.0
C2503 C 0.77659 0.635 0.12081 0.0
C2504 C 0.79419 0.62896 0.12872 0.0
C2505 C 0.81251 0.63769 0.12327 0.0
C2506 C 0.73599 0.59431 0.12185 0.0
C2507 C 0.71933 0.60421 0.12502 0.0
C2508 C 0.75481 0.60424 0.12178 0.0
C2509 C 0.75728 0.62429 0.12457 0.0
C2510 C 0.74077 0.63406 0.12888 0.0
C2511 C 0.72193 0.62404 0.1293 0.0
H2512 H 0.60043 0.55894 0.36995 0.0
H2513 H 0.65481 0.57229 0.34005 0.0
H2514 H 0.61253 0.52924 0.38152 0.0
H2515 H 0.66635 0.54238 0.35029 0.0
H2516 H 0.69013 0.49239 0.3756 0.0
H2517 H 0.67871 0.52426 0.37392 0.0
H2518 H 0.61806 0.49852 0.37174 0.0
H2519 H 0.62976 0.46685 0.37512 0.0
C2520 C 0.61497 0.55551 0.36587 0.0
C2521 C 0.62668 0.56796 0.35413 0.0
C2522 C 0.62189 0.5384 0.37237 0.0
C2523 C 0.64052 0.53318 0.36694 0.0
C2524 C 0.65221 0.54592 0.35535 0.0
C2525 C 0.64549 0.56312 0.34925 0.0
C2526 C 0.67436 0.49369 0.37529 0.0
C2527 C 0.66081 0.47724 0.37543 0.0
C2528 C 0.66774 0.51194 0.37404 0.0
C2529 C 0.64738 0.51414 0.37208 0.0
C2530 C 0.63383 0.49762 0.37334 0.0
C2531 C 0.6405 0.47938 0.37523 0.0
H2532 H 0.21811 0.86686 0.89005 0.0
H2533 H 0.2417 0.91963 0.86397 0.0
H2534 H 0.25156 0.85805 0.89583 0.0
H2535 H 0.27508 0.91049 0.86898 0.0
H2536 H 0.33248 0.89884 0.9006 0.0
H2537 H 0.29927 0.90738 0.89361 0.0
H2538 H 0.27958 0.84765 0.88053 0.0
H2539 H 0.31283 0.83902 0.88836 0.0
C2540 C 0.23044 0.87653 0.88545 0.0
C2541 C 0.22722 0.894 0.87665 0.0
C2542 C 0.24964 0.8714 0.8886 0.0
C2543 C 0.26611 0.88351 0.88285 0.0
C2544 C 0.26283 0.90093 0.87392 0.0
C2545 C 0.24365 0.90616 0.87098 0.0
C2546 C 0.32112 0.88752 0.89608 0.0
C2547 C 0.32531 0.86824 0.89506 0.0
C2548 C 0.30203 0.89244 0.89197 0.0
C2549 C 0.28663 0.87823 0.88652 0.0
C2550 C 0.29095 0.85896 0.88502 0.0
C2551 C 0.31006 0.85401 0.88933 0.0
H2552 H 0.36598 0.97048 0.11067 0.0
H2553 H 0.32467 0.97823 0.15613 0.0
H2554 H 0.37589 0.00522 0.11166 0.0
H2555 H 0.33452 0.01261 0.157 0.0
H2556 H 0.38071 0.06327 0.17402 0.0
H2557 H 0.36732 0.02999 0.16872 0.0
H2558 H 0.36268 0.03888 0.10674 0.0
H2559 H 0.37615 0.07257 0.11202 0.0
C2560 C 0.35882 0.97959 0.12063 0.0
C2561 C 0.34475 0.97159 0.13351 0.0
C2562 C 0.36442 0.99944 0.12112 0.0
C2563 C 0.35611 0.01149 0.13457 0.0
C2564 C 0.34135 0.00358 0.1467 0.0
C2565 C 0.33572 0.98387 0.14616 0.0
C2566 C 0.37677 0.05822 0.15925 0.0
C2567 C 0.37947 0.07056 0.14344 0.0
C2568 C 0.369 0.03918 0.15624 0.0
C2569 C 0.36389 0.03192 0.13734 0.0
C2570 C 0.36656 0.04417 0.12145 0.0
C2571 C 0.37413 0.06341 0.12449 0.0
H2572 H 0.11682 0.93043 0.59973 0.0
H2573 H 0.12 0.94244 0.66185 0.0
H2574 H 0.13302 0.96279 0.5942 0.0
H2575 H 0.13623 0.97433 0.6563 0.0
H2576 H 0.18202 0.02154 0.64293 0.0
H2577 H 0.16974 0.98765 0.64253 0.0
H2578 H 0.12332 0.99846 0.60102 0.0
H2579 H 0.13555 0.03266 0.60142 0.0
C2580 C 0.12108 0.9399 0.61216 0.0
C2581 C 0.11713 0.93393 0.63123 0.0
C2582 C 0.13025 0.95836 0.60898 0.0
C2583 C 0.13598 0.97091 0.62484 0.0
C2584 C 0.13219 0.96483 0.64384 0.0
C2585 C 0.12277 0.94661 0.647 0.0
C2586 C 0.16942 0.01671 0.63341 0.0
C2587 C 0.15954 0.02984 0.62245 0.0
C2588 C 0.1624 0.9973 0.63322 0.0
C2589 C 0.14545 0.99057 0.62197 0.0
C2590 C 0.13645 0.00334 0.6098 0.0
C2591 C 0.14342 0.02289 0.61007 0.0
loop_
_geom_bond_atom_site_label_1
_geom_bond_atom_site_label_2
_geom_bond_distance
_geom_bond_site_symmetry_2
_ccdc_geom_bond_type
O0 Cd1 2.223 . S
O0 C8 1.315 . S
Cd1 O0 2.223 . S
Cd1 O4 2.297 . S
Cd1 O5 2.439 . S
Cd1 O11 2.240 . S
Cd2 O3 2.240 . S
Cd2 O10 2.223 . S
Cd2 O12 2.297 . S
Cd2 O13 2.439 . S
O3 Cd2 2.240 . S
O3 C8 1.279 . S
O4 Cd1 2.297 . S
O4 C6 1.247 . S
O5 Cd1 2.439 . S
O5 C6 1.208 . S
C6 O4 1.247 . S
C6 O5 1.208 . S
C7 O12 1.247 . S
C7 O13 1.208 . S
C8 O0 1.315 . S
C8 O3 1.279 . S
C9 O10 1.315 . S
C9 O11 1.279 . S
O10 Cd2 2.223 . S
O10 C9 1.315 . S
O11 Cd1 2.240 . S
O11 C9 1.279 . S
O12 Cd2 2.297 . S
O12 C7 1.247 . S
O13 Cd2 2.439 . S
O13 C7 1.208 . S
O14 Cd15 2.223 . S
O14 C22 1.315 . S
Cd15 O14 2.223 . S
Cd15 O18 2.297 . S
Cd15 O19 2.439 . S
Cd15 O25 2.240 . S
Cd16 O17 2.240 . S
Cd16 O24 2.223 . S
Cd16 O26 2.297 . S
Cd16 O27 2.439 . S
O17 Cd16 2.240 . S
O17 C22 1.279 . S
O18 Cd15 2.297 . S
O18 C20 1.247 . S
O19 Cd15 2.439 . S
O19 C20 1.208 . S
C20 O18 1.247 . S
C20 O19 1.208 . S
C21 O26 1.247 . S
C21 O27 1.208 . S
C22 O14 1.315 . S
C22 O17 1.279 . S
C23 O24 1.315 . S
C23 O25 1.279 . S
O24 Cd16 2.223 . S
O24 C23 1.315 . S
O25 Cd15 2.240 . S
O25 C23 1.279 . S
O26 Cd16 2.297 . S
O26 C21 1.247 . S
O27 Cd16 2.439 . S
O27 C21 1.208 . S
O28 Cd29 2.223 . S
O28 C36 1.315 . S
Cd29 O28 2.223 . S
Cd29 O32 2.297 . S
Cd29 O33 2.439 . S
Cd29 O39 2.240 . S
Cd30 O31 2.240 . S
Cd30 O38 2.223 . S
Cd30 O40 2.297 . S
Cd30 O41 2.439 . S
O31 Cd30 2.240 . S
O31 C36 1.279 . S
O32 Cd29 2.297 . S
O32 C34 1.247 . S
O33 Cd29 2.439 . S
O33 C34 1.208 . S
C34 O32 1.247 . S
C34 O33 1.208 . S
C35 O40 1.247 . S
C35 O41 1.208 . S
C36 O28 1.315 . S
C36 O31 1.279 . S
C37 O38 1.315 . S
C37 O39 1.279 . S
O38 Cd30 2.223 . S
O38 C37 1.315 . S
O39 Cd29 2.240 . S
O39 C37 1.279 . S
O40 Cd30 2.297 . S
O40 C35 1.247 . S
O41 Cd30 2.439 . S
O41 C35 1.208 . S
O42 Cd43 2.223 . S
O42 C50 1.315 . S
Cd43 O42 2.223 . S
Cd43 O46 2.297 . S
Cd43 O47 2.439 . S
Cd43 O53 2.240 . S
Cd44 O45 2.240 . S
Cd44 O52 2.223 . S
Cd44 O54 2.297 . S
Cd44 O55 2.439 . S
O45 Cd44 2.240 . S
O45 C50 1.279 . S
O46 Cd43 2.297 . S
O46 C48 1.247 . S
O47 Cd43 2.439 . S
O47 C48 1.208 . S
C48 O46 1.247 . S
C48 O47 1.208 . S
C49 O54 1.247 . S
C49 O55 1.208 . S
C50 O42 1.315 . S
C50 O45 1.279 . S
C51 O52 1.315 . S
C51 O53 1.279 . S
O52 Cd44 2.223 . S
O52 C51 1.315 . S
O53 Cd43 2.240 . S
O53 C51 1.279 . S
O54 Cd44 2.297 . S
O54 C49 1.247 . S
O55 Cd44 2.439 . S
O55 C49 1.208 . S
O56 Cd57 2.223 . S
O56 C64 1.315 . S
Cd57 O56 2.223 . S
Cd57 O60 2.297 . S
Cd57 O61 2.439 . S
Cd57 O67 2.240 . S
Cd58 O59 2.240 . S
Cd58 O66 2.223 . S
Cd58 O68 2.297 . S
Cd58 O69 2.439 . S
O59 Cd58 2.240 . S
O59 C64 1.279 . S
O60 Cd57 2.297 . S
O60 C62 1.247 . S
O61 Cd57 2.439 . S
O61 C62 1.208 . S
C62 O60 1.247 . S
C62 O61 1.208 . S
C63 O68 1.247 . S
C63 O69 1.208 . S
C64 O56 1.315 . S
C64 O59 1.279 . S
C65 O66 1.315 . S
C65 O67 1.279 . S
O66 Cd58 2.223 . S
O66 C65 1.315 . S
O67 Cd57 2.240 . S
O67 C65 1.279 . S
O68 Cd58 2.297 . S
O68 C63 1.247 . S
O69 Cd58 2.439 . S
O69 C63 1.208 . S
O70 Cd71 2.223 . S
O70 C78 1.315 . S
Cd71 O70 2.223 . S
Cd71 O74 2.297 . S
Cd71 O75 2.439 . S
Cd71 O81 2.240 . S
Cd72 O73 2.240 . S
Cd72 O80 2.223 . S
Cd72 O82 2.297 . S
Cd72 O83 2.439 . S
O73 Cd72 2.240 . S
O73 C78 1.279 . S
O74 Cd71 2.297 . S
O74 C76 1.247 . S
O75 Cd71 2.439 . S
O75 C76 1.208 . S
C76 O74 1.247 . S
C76 O75 1.208 . S
C77 O82 1.247 . S
C77 O83 1.208 . S
C78 O70 1.315 . S
C78 O73 1.279 . S
C79 O80 1.315 . S
C79 O81 1.279 . S
O80 Cd72 2.223 . S
O80 C79 1.315 . S
O81 Cd71 2.240 . S
O81 C79 1.279 . S
O82 Cd72 2.297 . S
O82 C77 1.247 . S
O83 Cd72 2.439 . S
O83 C77 1.208 . S
O84 Cd85 2.223 . S
O84 C92 1.315 . S
Cd85 O84 2.223 . S
Cd85 O88 2.297 . S
Cd85 O89 2.439 . S
Cd85 O95 2.240 . S
Cd86 O87 2.240 . S
Cd86 O94 2.223 . S
Cd86 O96 2.297 . S
Cd86 O97 2.439 . S
O87 Cd86 2.240 . S
O87 C92 1.279 . S
O88 Cd85 2.297 . S
O88 C90 1.247 . S
O89 Cd85 2.439 . S
O89 C90 1.208 . S
C90 O88 1.247 . S
C90 O89 1.208 . S
C91 O96 1.247 . S
C91 O97 1.208 . S
C92 O84 1.315 . S
C92 O87 1.279 . S
C93 O94 1.315 . S
C93 O95 1.279 . S
O94 Cd86 2.223 . S
O94 C93 1.315 . S
O95 Cd85 2.240 . S
O95 C93 1.279 . S
O96 Cd86 2.297 . S
O96 C91 1.247 . S
O97 Cd86 2.439 . S
O97 C91 1.208 . S
O98 Cd99 2.223 . S
O98 C106 1.315 . S
Cd99 O98 2.223 . S
Cd99 O102 2.297 . S
Cd99 O103 2.439 . S
Cd99 O109 2.240 . S
Cd100 O101 2.240 . S
Cd100 O108 2.223 . S
Cd100 O110 2.297 . S
Cd100 O111 2.439 . S
O101 Cd100 2.240 . S
O101 C106 1.279 . S
O102 Cd99 2.297 . S
O102 C104 1.247 . S
O103 Cd99 2.439 . S
O103 C104 1.208 . S
C104 O102 1.247 . S
C104 O103 1.208 . S
C105 O110 1.247 . S
C105 O111 1.208 . S
C106 O98 1.315 . S
C106 O101 1.279 . S
C107 O108 1.315 . S
C107 O109 1.279 . S
O108 Cd100 2.223 . S
O108 C107 1.315 . S
O109 Cd99 2.240 . S
O109 C107 1.279 . S
O110 Cd100 2.297 . S
O110 C105 1.247 . S
O111 Cd100 2.439 . S
O111 C105 1.208 . S
O112 Cd113 2.223 . S
O112 C120 1.315 . S
Cd113 O112 2.223 . S
Cd113 O116 2.297 . S
Cd113 O117 2.439 . S
Cd113 O123 2.240 . S
Cd114 O115 2.240 . S
Cd114 O122 2.223 . S
Cd114 O124 2.297 . S
Cd114 O125 2.439 . S
O115 Cd114 2.240 . S
O115 C120 1.279 . S
O116 Cd113 2.297 . S
O116 C118 1.247 . S
O117 Cd113 2.439 . S
O117 C118 1.208 . S
C118 O116 1.247 . S
C118 O117 1.208 . S
C119 O124 1.247 . S
C119 O125 1.208 . S
C120 O112 1.315 . S
C120 O115 1.279 . S
C121 O122 1.315 . S
C121 O123 1.279 . S
O122 Cd114 2.223 . S
O122 C121 1.315 . S
O123 Cd113 2.240 . S
O123 C121 1.279 . S
O124 Cd114 2.297 . S
O124 C119 1.247 . S
O125 Cd114 2.439 . S
O125 C119 1.208 . S
O126 Cd127 2.223 . S
O126 C134 1.315 . S
Cd127 O126 2.223 . S
Cd127 O130 2.297 . S
Cd127 O131 2.439 . S
Cd127 O137 2.240 . S
Cd128 O129 2.240 . S
Cd128 O136 2.223 . S
Cd128 O138 2.297 . S
Cd128 O139 2.439 . S
O129 Cd128 2.240 . S
O129 C134 1.279 . S
O130 Cd127 2.297 . S
O130 C132 1.247 . S
O131 Cd127 2.439 . S
O131 C132 1.208 . S
C132 O130 1.247 . S
C132 O131 1.208 . S
C133 O138 1.247 . S
C133 O139 1.208 . S
C134 O126 1.315 . S
C134 O129 1.279 . S
C135 O136 1.315 . S
C135 O137 1.279 . S
O136 Cd128 2.223 . S
O136 C135 1.315 . S
O137 Cd127 2.240 . S
O137 C135 1.279 . S
O138 Cd128 2.297 . S
O138 C133 1.247 . S
O139 Cd128 2.439 . S
O139 C133 1.208 . S
O140 Cd141 2.223 . S
O140 C148 1.315 . S
Cd141 O140 2.223 . S
Cd141 O144 2.297 . S
Cd141 O145 2.439 . S
Cd141 O151 2.240 . S
Cd142 O143 2.240 . S
Cd142 O150 2.223 . S
Cd142 O152 2.297 . S
Cd142 O153 2.439 . S
O143 Cd142 2.240 . S
O143 C148 1.279 . S
O144 Cd141 2.297 . S
O144 C146 1.247 . S
O145 Cd141 2.439 . S
O145 C146 1.208 . S
C146 O144 1.247 . S
C146 O145 1.208 . S
C147 O152 1.247 . S
C147 O153 1.208 . S
C148 O140 1.315 . S
C148 O143 1.279 . S
C149 O150 1.315 . S
C149 O151 1.279 . S
O150 Cd142 2.223 . S
O150 C149 1.315 . S
O151 Cd141 2.240 . S
O151 C149 1.279 . S
O152 Cd142 2.297 . S
O152 C147 1.247 . S
O153 Cd142 2.439 . S
O153 C147 1.208 . S
O154 Cd155 2.223 . S
O154 C162 1.315 . S
Cd155 O154 2.223 . S
Cd155 O158 2.297 . S
Cd155 O159 2.439 . S
Cd155 O165 2.240 . S
Cd156 O157 2.240 . S
Cd156 O164 2.223 . S
Cd156 O166 2.297 . S
Cd156 O167 2.439 . S
O157 Cd156 2.240 . S
O157 C162 1.279 . S
O158 Cd155 2.297 . S
O158 C160 1.247 . S
O159 Cd155 2.439 . S
O159 C160 1.208 . S
C160 O158 1.247 . S
C160 O159 1.208 . S
C161 O166 1.247 . S
C161 O167 1.208 . S
C162 O154 1.315 . S
C162 O157 1.279 . S
C163 O164 1.315 . S
C163 O165 1.279 . S
O164 Cd156 2.223 . S
O164 C163 1.315 . S
O165 Cd155 2.240 . S
O165 C163 1.279 . S
O166 Cd156 2.297 . S
O166 C161 1.247 . S
O167 Cd156 2.439 . S
O167 C161 1.208 . S
O168 Cd169 2.223 . S
O168 C176 1.315 . S
Cd169 O168 2.223 . S
Cd169 O172 2.297 . S
Cd169 O173 2.439 . S
Cd169 O179 2.240 . S
Cd170 O171 2.240 . S
Cd170 O178 2.223 . S
Cd170 O180 2.297 . S
Cd170 O181 2.439 . S
O171 Cd170 2.240 . S
O171 C176 1.279 . S
O172 Cd169 2.297 . S
O172 C174 1.247 . S
O173 Cd169 2.439 . S
O173 C174 1.208 . S
C174 O172 1.247 . S
C174 O173 1.208 . S
C175 O180 1.247 . S
C175 O181 1.208 . S
C176 O168 1.315 . S
C176 O171 1.279 . S
C177 O178 1.315 . S
C177 O179 1.279 . S
O178 Cd170 2.223 . S
O178 C177 1.315 . S
O179 Cd169 2.240 . S
O179 C177 1.279 . S
O180 Cd170 2.297 . S
O180 C175 1.247 . S
O181 Cd170 2.439 . S
O181 C175 1.208 . S
O182 Cd183 2.223 . S
O182 C190 1.315 . S
Cd183 O182 2.223 . S
Cd183 O186 2.297 . S
Cd183 O187 2.439 . S
Cd183 O193 2.240 . S
Cd184 O185 2.240 . S
Cd184 O192 2.223 . S
Cd184 O194 2.297 . S
Cd184 O195 2.439 . S
O185 Cd184 2.240 . S
O185 C190 1.279 . S
O186 Cd183 2.297 . S
O186 C188 1.247 . S
O187 Cd183 2.439 . S
O187 C188 1.208 . S
C188 O186 1.247 . S
C188 O187 1.208 . S
C189 O194 1.247 . S
C189 O195 1.208 . S
C190 O182 1.315 . S
C190 O185 1.279 . S
C191 O192 1.315 . S
C191 O193 1.279 . S
O192 Cd184 2.223 . S
O192 C191 1.315 . S
O193 Cd183 2.240 . S
O193 C191 1.279 . S
O194 Cd184 2.297 . S
O194 C189 1.247 . S
O195 Cd184 2.439 . S
O195 C189 1.208 . S
O196 Cd197 2.223 . S
O196 C204 1.315 . S
Cd197 O196 2.223 . S
Cd197 O200 2.297 . S
Cd197 O201 2.439 . S
Cd197 O207 2.240 . S
Cd198 O199 2.240 . S
Cd198 O206 2.223 . S
Cd198 O208 2.297 . S
Cd198 O209 2.439 . S
O199 Cd198 2.240 . S
O199 C204 1.279 . S
O200 Cd197 2.297 . S
O200 C202 1.247 . S
O201 Cd197 2.439 . S
O201 C202 1.208 . S
C202 O200 1.247 . S
C202 O201 1.208 . S
C203 O208 1.247 . S
C203 O209 1.208 . S
C204 O196 1.315 . S
C204 O199 1.279 . S
C205 O206 1.315 . S
C205 O207 1.279 . S
O206 Cd198 2.223 . S
O206 C205 1.315 . S
O207 Cd197 2.240 . S
O207 C205 1.279 . S
O208 Cd198 2.297 . S
O208 C203 1.247 . S
O209 Cd198 2.439 . S
O209 C203 1.208 . S
O210 Cd211 2.223 . S
O210 C218 1.315 . S
Cd211 O210 2.223 . S
Cd211 O214 2.297 . S
Cd211 O215 2.439 . S
Cd211 O221 2.240 . S
Cd212 O213 2.240 . S
Cd212 O220 2.223 . S
Cd212 O222 2.297 . S
Cd212 O223 2.439 . S
O213 Cd212 2.240 . S
O213 C218 1.279 . S
O214 Cd211 2.297 . S
O214 C216 1.247 . S
O215 Cd211 2.439 . S
O215 C216 1.208 . S
C216 O214 1.247 . S
C216 O215 1.208 . S
C217 O222 1.247 . S
C217 O223 1.208 . S
C218 O210 1.315 . S
C218 O213 1.279 . S
C219 O220 1.315 . S
C219 O221 1.279 . S
O220 Cd212 2.223 . S
O220 C219 1.315 . S
O221 Cd211 2.240 . S
O221 C219 1.279 . S
O222 Cd212 2.297 . S
O222 C217 1.247 . S
O223 Cd212 2.439 . S
O223 C217 1.208 . S
O224 Cd225 2.223 . S
O224 C232 1.315 . S
Cd225 O224 2.223 . S
Cd225 O228 2.297 . S
Cd225 O229 2.439 . S
Cd225 O235 2.240 . S
Cd226 O227 2.240 . S
Cd226 O234 2.223 . S
Cd226 O236 2.297 . S
Cd226 O237 2.439 . S
O227 Cd226 2.240 . S
O227 C232 1.279 . S
O228 Cd225 2.297 . S
O228 C230 1.247 . S
O229 Cd225 2.439 . S
O229 C230 1.208 . S
C230 O228 1.247 . S
C230 O229 1.208 . S
C231 O236 1.247 . S
C231 O237 1.208 . S
C232 O224 1.315 . S
C232 O227 1.279 . S
C233 O234 1.315 . S
C233 O235 1.279 . S
O234 Cd226 2.223 . S
O234 C233 1.315 . S
O235 Cd225 2.240 . S
O235 C233 1.279 . S
O236 Cd226 2.297 . S
O236 C231 1.247 . S
O237 Cd226 2.439 . S
O237 C231 1.208 . S
O238 Cd239 2.223 . S
O238 C246 1.315 . S
Cd239 O238 2.223 . S
Cd239 O242 2.297 . S
Cd239 O243 2.439 . S
Cd239 O249 2.240 . S
Cd240 O241 2.240 . S
Cd240 O248 2.223 . S
Cd240 O250 2.297 . S
Cd240 O251 2.439 . S
O241 Cd240 2.240 . S
O241 C246 1.279 . S
O242 Cd239 2.297 . S
O242 C244 1.247 . S
O243 Cd239 2.439 . S
O243 C244 1.208 . S
C244 O242 1.247 . S
C244 O243 1.208 . S
C245 O250 1.247 . S
C245 O251 1.208 . S
C246 O238 1.315 . S
C246 O241 1.279 . S
C247 O248 1.315 . S
C247 O249 1.279 . S
O248 Cd240 2.223 . S
O248 C247 1.315 . S
O249 Cd239 2.240 . S
O249 C247 1.279 . S
O250 Cd240 2.297 . S
O250 C245 1.247 . S
O251 Cd240 2.439 . S
O251 C245 1.208 . S
O252 Cd253 2.223 . S
O252 C260 1.315 . S
Cd253 O252 2.223 . S
Cd253 O256 2.297 . S
Cd253 O257 2.439 . S
Cd253 O263 2.240 . S
Cd254 O255 2.240 . S
Cd254 O262 2.223 . S
Cd254 O264 2.297 . S
Cd254 O265 2.439 . S
O255 Cd254 2.240 . S
O255 C260 1.279 . S
O256 Cd253 2.297 . S
O256 C258 1.247 . S
O257 Cd253 2.439 . S
O257 C258 1.208 . S
C258 O256 1.247 . S
C258 O257 1.208 . S
C259 O264 1.247 . S
C259 O265 1.208 . S
C260 O252 1.315 . S
C260 O255 1.279 . S
C261 O262 1.315 . S
C261 O263 1.279 . S
O262 Cd254 2.223 . S
O262 C261 1.315 . S
O263 Cd253 2.240 . S
O263 C261 1.279 . S
O264 Cd254 2.297 . S
O264 C259 1.247 . S
O265 Cd254 2.439 . S
O265 C259 1.208 . S
O266 Cd267 2.223 . S
O266 C274 1.315 . S
Cd267 O266 2.223 . S
Cd267 O270 2.297 . S
Cd267 O271 2.439 . S
Cd267 O277 2.240 . S
Cd268 O269 2.240 . S
Cd268 O276 2.223 . S
Cd268 O278 2.297 . S
Cd268 O279 2.439 . S
O269 Cd268 2.240 . S
O269 C274 1.279 . S
O270 Cd267 2.297 . S
O270 C272 1.247 . S
O271 Cd267 2.439 . S
O271 C272 1.208 . S
C272 O270 1.247 . S
C272 O271 1.208 . S
C273 O278 1.247 . S
C273 O279 1.208 . S
C274 O266 1.315 . S
C274 O269 1.279 . S
C275 O276 1.315 . S
C275 O277 1.279 . S
O276 Cd268 2.223 . S
O276 C275 1.315 . S
O277 Cd267 2.240 . S
O277 C275 1.279 . S
O278 Cd268 2.297 . S
O278 C273 1.247 . S
O279 Cd268 2.439 . S
O279 C273 1.208 . S
O280 Cd281 2.223 . S
O280 C288 1.315 . S
Cd281 O280 2.223 . S
Cd281 O284 2.297 . S
Cd281 O285 2.439 . S
Cd281 O291 2.240 . S
Cd282 O283 2.240 . S
Cd282 O290 2.223 . S
Cd282 O292 2.297 . S
Cd282 O293 2.439 . S
O283 Cd282 2.240 . S
O283 C288 1.279 . S
O284 Cd281 2.297 . S
O284 C286 1.247 . S
O285 Cd281 2.439 . S
O285 C286 1.208 . S
C286 O284 1.247 . S
C286 O285 1.208 . S
C287 O292 1.247 . S
C287 O293 1.208 . S
C288 O280 1.315 . S
C288 O283 1.279 . S
C289 O290 1.315 . S
C289 O291 1.279 . S
O290 Cd282 2.223 . S
O290 C289 1.315 . S
O291 Cd281 2.240 . S
O291 C289 1.279 . S
O292 Cd282 2.297 . S
O292 C287 1.247 . S
O293 Cd282 2.439 . S
O293 C287 1.208 . S
O294 Cd295 2.223 . S
O294 C302 1.315 . S
Cd295 O294 2.223 . S
Cd295 O298 2.297 . S
Cd295 O299 2.439 . S
Cd295 O305 2.240 . S
Cd296 O297 2.240 . S
Cd296 O304 2.223 . S
Cd296 O306 2.297 . S
Cd296 O307 2.439 . S
O297 Cd296 2.240 . S
O297 C302 1.279 . S
O298 Cd295 2.297 . S
O298 C300 1.247 . S
O299 Cd295 2.439 . S
O299 C300 1.208 . S
C300 O298 1.247 . S
C300 O299 1.208 . S
C301 O306 1.247 . S
C301 O307 1.208 . S
C302 O294 1.315 . S
C302 O297 1.279 . S
C303 O304 1.315 . S
C303 O305 1.279 . S
O304 Cd296 2.223 . S
O304 C303 1.315 . S
O305 Cd295 2.240 . S
O305 C303 1.279 . S
O306 Cd296 2.297 . S
O306 C301 1.247 . S
O307 Cd296 2.439 . S
O307 C301 1.208 . S
O308 Cd309 2.223 . S
O308 C316 1.315 . S
Cd309 O308 2.223 . S
Cd309 O312 2.297 . S
Cd309 O313 2.439 . S
Cd309 O319 2.240 . S
Cd310 O311 2.240 . S
Cd310 O318 2.223 . S
Cd310 O320 2.297 . S
Cd310 O321 2.439 . S
O311 Cd310 2.240 . S
O311 C316 1.279 . S
O312 Cd309 2.297 . S
O312 C314 1.247 . S
O313 Cd309 2.439 . S
O313 C314 1.208 . S
C314 O312 1.247 . S
C314 O313 1.208 . S
C315 O320 1.247 . S
C315 O321 1.208 . S
C316 O308 1.315 . S
C316 O311 1.279 . S
C317 O318 1.315 . S
C317 O319 1.279 . S
O318 Cd310 2.223 . S
O318 C317 1.315 . S
O319 Cd309 2.240 . S
O319 C317 1.279 . S
O320 Cd310 2.297 . S
O320 C315 1.247 . S
O321 Cd310 2.439 . S
O321 C315 1.208 . S
O322 Cd323 2.223 . S
O322 C330 1.315 . S
Cd323 O322 2.223 . S
Cd323 O326 2.297 . S
Cd323 O327 2.439 . S
Cd323 O333 2.240 . S
Cd324 O325 2.240 . S
Cd324 O332 2.223 . S
Cd324 O334 2.297 . S
Cd324 O335 2.439 . S
O325 Cd324 2.240 . S
O325 C330 1.279 . S
O326 Cd323 2.297 . S
O326 C328 1.247 . S
O327 Cd323 2.439 . S
O327 C328 1.208 . S
C328 O326 1.247 . S
C328 O327 1.208 . S
C329 O334 1.247 . S
C329 O335 1.208 . S
C330 O322 1.315 . S
C330 O325 1.279 . S
C331 O332 1.315 . S
C331 O333 1.279 . S
O332 Cd324 2.223 . S
O332 C331 1.315 . S
O333 Cd323 2.240 . S
O333 C331 1.279 . S
O334 Cd324 2.297 . S
O334 C329 1.247 . S
O335 Cd324 2.439 . S
O335 C329 1.208 . S
O336 Cd337 2.223 . S
O336 C344 1.315 . S
Cd337 O336 2.223 . S
Cd337 O340 2.297 . S
Cd337 O341 2.439 . S
Cd337 O347 2.240 . S
Cd338 O339 2.240 . S
Cd338 O346 2.223 . S
Cd338 O348 2.297 . S
Cd338 O349 2.439 . S
O339 Cd338 2.240 . S
O339 C344 1.279 . S
O340 Cd337 2.297 . S
O340 C342 1.247 . S
O341 Cd337 2.439 . S
O341 C342 1.208 . S
C342 O340 1.247 . S
C342 O341 1.208 . S
C343 O348 1.247 . S
C343 O349 1.208 . S
C344 O336 1.315 . S
C344 O339 1.279 . S
C345 O346 1.315 . S
C345 O347 1.279 . S
O346 Cd338 2.223 . S
O346 C345 1.315 . S
O347 Cd337 2.240 . S
O347 C345 1.279 . S
O348 Cd338 2.297 . S
O348 C343 1.247 . S
O349 Cd338 2.439 . S
O349 C343 1.208 . S
O350 Cd351 2.223 . S
O350 C358 1.315 . S
Cd351 O350 2.223 . S
Cd351 O354 2.297 . S
Cd351 O355 2.439 . S
Cd351 O361 2.240 . S
Cd352 O353 2.240 . S
Cd352 O360 2.223 . S
Cd352 O362 2.297 . S
Cd352 O363 2.439 . S
O353 Cd352 2.240 . S
O353 C358 1.279 . S
O354 Cd351 2.297 . S
O354 C356 1.247 . S
O355 Cd351 2.439 . S
O355 C356 1.208 . S
C356 O354 1.247 . S
C356 O355 1.208 . S
C357 O362 1.247 . S
C357 O363 1.208 . S
C358 O350 1.315 . S
C358 O353 1.279 . S
C359 O360 1.315 . S
C359 O361 1.279 . S
O360 Cd352 2.223 . S
O360 C359 1.315 . S
O361 Cd351 2.240 . S
O361 C359 1.279 . S
O362 Cd352 2.297 . S
O362 C357 1.247 . S
O363 Cd352 2.439 . S
O363 C357 1.208 . S
O364 Cd365 2.223 . S
O364 C372 1.315 . S
Cd365 O364 2.223 . S
Cd365 O368 2.297 . S
Cd365 O369 2.439 . S
Cd365 O375 2.240 . S
Cd366 O367 2.240 . S
Cd366 O374 2.223 . S
Cd366 O376 2.297 . S
Cd366 O377 2.439 . S
O367 Cd366 2.240 . S
O367 C372 1.279 . S
O368 Cd365 2.297 . S
O368 C370 1.247 . S
O369 Cd365 2.439 . S
O369 C370 1.208 . S
C370 O368 1.247 . S
C370 O369 1.208 . S
C371 O376 1.247 . S
C371 O377 1.208 . S
C372 O364 1.315 . S
C372 O367 1.279 . S
C373 O374 1.315 . S
C373 O375 1.279 . S
O374 Cd366 2.223 . S
O374 C373 1.315 . S
O375 Cd365 2.240 . S
O375 C373 1.279 . S
O376 Cd366 2.297 . S
O376 C371 1.247 . S
O377 Cd366 2.439 . S
O377 C371 1.208 . S
O378 Cd379 2.223 . S
O378 C386 1.315 . S
Cd379 O378 2.223 . S
Cd379 O382 2.297 . S
Cd379 O383 2.439 . S
Cd379 O389 2.240 . S
Cd380 O381 2.240 . S
Cd380 O388 2.223 . S
Cd380 O390 2.297 . S
Cd380 O391 2.439 . S
O381 Cd380 2.240 . S
O381 C386 1.279 . S
O382 Cd379 2.297 . S
O382 C384 1.247 . S
O383 Cd379 2.439 . S
O383 C384 1.208 . S
C384 O382 1.247 . S
C384 O383 1.208 . S
C385 O390 1.247 . S
C385 O391 1.208 . S
C386 O378 1.315 . S
C386 O381 1.279 . S
C387 O388 1.315 . S
C387 O389 1.279 . S
O388 Cd380 2.223 . S
O388 C387 1.315 . S
O389 Cd379 2.240 . S
O389 C387 1.279 . S
O390 Cd380 2.297 . S
O390 C385 1.247 . S
O391 Cd380 2.439 . S
O391 C385 1.208 . S
O392 Cd393 2.223 . S
O392 C400 1.315 . S
Cd393 O392 2.223 . S
Cd393 O396 2.297 . S
Cd393 O397 2.439 . S
Cd393 O403 2.240 . S
Cd394 O395 2.240 . S
Cd394 O402 2.223 . S
Cd394 O404 2.297 . S
Cd394 O405 2.439 . S
O395 Cd394 2.240 . S
O395 C400 1.279 . S
O396 Cd393 2.297 . S
O396 C398 1.247 . S
O397 Cd393 2.439 . S
O397 C398 1.208 . S
C398 O396 1.247 . S
C398 O397 1.208 . S
C399 O404 1.247 . S
C399 O405 1.208 . S
C400 O392 1.315 . S
C400 O395 1.279 . S
C401 O402 1.315 . S
C401 O403 1.279 . S
O402 Cd394 2.223 . S
O402 C401 1.315 . S
O403 Cd393 2.240 . S
O403 C401 1.279 . S
O404 Cd394 2.297 . S
O404 C399 1.247 . S
O405 Cd394 2.439 . S
O405 C399 1.208 . S
O406 Cd407 2.223 . S
O406 C414 1.315 . S
Cd407 O406 2.223 . S
Cd407 O410 2.297 . S
Cd407 O411 2.439 . S
Cd407 O417 2.240 . S
Cd408 O409 2.240 . S
Cd408 O416 2.223 . S
Cd408 O418 2.297 . S
Cd408 O419 2.439 . S
O409 Cd408 2.240 . S
O409 C414 1.279 . S
O410 Cd407 2.297 . S
O410 C412 1.247 . S
O411 Cd407 2.439 . S
O411 C412 1.208 . S
C412 O410 1.247 . S
C412 O411 1.208 . S
C413 O418 1.247 . S
C413 O419 1.208 . S
C414 O406 1.315 . S
C414 O409 1.279 . S
C415 O416 1.315 . S
C415 O417 1.279 . S
O416 Cd408 2.223 . S
O416 C415 1.315 . S
O417 Cd407 2.240 . S
O417 C415 1.279 . S
O418 Cd408 2.297 . S
O418 C413 1.247 . S
O419 Cd408 2.439 . S
O419 C413 1.208 . S
O420 Cd421 2.223 . S
O420 C428 1.315 . S
Cd421 O420 2.223 . S
Cd421 O424 2.297 . S
Cd421 O425 2.439 . S
Cd421 O431 2.240 . S
Cd422 O423 2.240 . S
Cd422 O430 2.223 . S
Cd422 O432 2.297 . S
Cd422 O433 2.439 . S
O423 Cd422 2.240 . S
O423 C428 1.279 . S
O424 Cd421 2.297 . S
O424 C426 1.247 . S
O425 Cd421 2.439 . S
O425 C426 1.208 . S
C426 O424 1.247 . S
C426 O425 1.208 . S
C427 O432 1.247 . S
C427 O433 1.208 . S
C428 O420 1.315 . S
C428 O423 1.279 . S
C429 O430 1.315 . S
C429 O431 1.279 . S
O430 Cd422 2.223 . S
O430 C429 1.315 . S
O431 Cd421 2.240 . S
O431 C429 1.279 . S
O432 Cd422 2.297 . S
O432 C427 1.247 . S
O433 Cd422 2.439 . S
O433 C427 1.208 . S
O434 Cd435 2.223 . S
O434 C442 1.315 . S
Cd435 O434 2.223 . S
Cd435 O438 2.297 . S
Cd435 O439 2.439 . S
Cd435 O445 2.240 . S
Cd436 O437 2.240 . S
Cd436 O444 2.223 . S
Cd436 O446 2.297 . S
Cd436 O447 2.439 . S
O437 Cd436 2.240 . S
O437 C442 1.279 . S
O438 Cd435 2.297 . S
O438 C440 1.247 . S
O439 Cd435 2.439 . S
O439 C440 1.208 . S
C440 O438 1.247 . S
C440 O439 1.208 . S
C441 O446 1.247 . S
C441 O447 1.208 . S
C442 O434 1.315 . S
C442 O437 1.279 . S
C443 O444 1.315 . S
C443 O445 1.279 . S
O444 Cd436 2.223 . S
O444 C443 1.315 . S
O445 Cd435 2.240 . S
O445 C443 1.279 . S
O446 Cd436 2.297 . S
O446 C441 1.247 . S
O447 Cd436 2.439 . S
O447 C441 1.208 . S
O448 Cd449 2.223 . S
O448 C456 1.315 . S
Cd449 O448 2.223 . S
Cd449 O452 2.297 . S
Cd449 O453 2.439 . S
Cd449 O459 2.240 . S
Cd450 O451 2.240 . S
Cd450 O458 2.223 . S
Cd450 O460 2.297 . S
Cd450 O461 2.439 . S
O451 Cd450 2.240 . S
O451 C456 1.279 . S
O452 Cd449 2.297 . S
O452 C454 1.247 . S
O453 Cd449 2.439 . S
O453 C454 1.208 . S
C454 O452 1.247 . S
C454 O453 1.208 . S
C455 O460 1.247 . S
C455 O461 1.208 . S
C456 O448 1.315 . S
C456 O451 1.279 . S
C457 O458 1.315 . S
C457 O459 1.279 . S
O458 Cd450 2.223 . S
O458 C457 1.315 . S
O459 Cd449 2.240 . S
O459 C457 1.279 . S
O460 Cd450 2.297 . S
O460 C455 1.247 . S
O461 Cd450 2.439 . S
O461 C455 1.208 . S
O462 Cd463 2.223 . S
O462 C470 1.315 . S
Cd463 O462 2.223 . S
Cd463 O466 2.297 . S
Cd463 O467 2.439 . S
Cd463 O473 2.240 . S
Cd464 O465 2.240 . S
Cd464 O472 2.223 . S
Cd464 O474 2.297 . S
Cd464 O475 2.439 . S
O465 Cd464 2.240 . S
O465 C470 1.279 . S
O466 Cd463 2.297 . S
O466 C468 1.247 . S
O467 Cd463 2.439 . S
O467 C468 1.208 . S
C468 O466 1.247 . S
C468 O467 1.208 . S
C469 O474 1.247 . S
C469 O475 1.208 . S
C470 O462 1.315 . S
C470 O465 1.279 . S
C471 O472 1.315 . S
C471 O473 1.279 . S
O472 Cd464 2.223 . S
O472 C471 1.315 . S
O473 Cd463 2.240 . S
O473 C471 1.279 . S
O474 Cd464 2.297 . S
O474 C469 1.247 . S
O475 Cd464 2.439 . S
O475 C469 1.208 . S
O476 Cd477 2.223 . S
O476 C484 1.315 . S
Cd477 O476 2.223 . S
Cd477 O480 2.297 . S
Cd477 O481 2.439 . S
Cd477 O487 2.240 . S
Cd478 O479 2.240 . S
Cd478 O486 2.223 . S
Cd478 O488 2.297 . S
Cd478 O489 2.439 . S
O479 Cd478 2.240 . S
O479 C484 1.279 . S
O480 Cd477 2.297 . S
O480 C482 1.247 . S
O481 Cd477 2.439 . S
O481 C482 1.208 . S
C482 O480 1.247 . S
C482 O481 1.208 . S
C483 O488 1.247 . S
C483 O489 1.208 . S
C484 O476 1.315 . S
C484 O479 1.279 . S
C485 O486 1.315 . S
C485 O487 1.279 . S
O486 Cd478 2.223 . S
O486 C485 1.315 . S
O487 Cd477 2.240 . S
O487 C485 1.279 . S
O488 Cd478 2.297 . S
O488 C483 1.247 . S
O489 Cd478 2.439 . S
O489 C483 1.208 . S
O490 Cd491 2.223 . S
O490 C498 1.315 . S
Cd491 O490 2.223 . S
Cd491 O494 2.297 . S
Cd491 O495 2.439 . S
Cd491 O501 2.240 . S
Cd492 O493 2.240 . S
Cd492 O500 2.223 . S
Cd492 O502 2.297 . S
Cd492 O503 2.439 . S
O493 Cd492 2.240 . S
O493 C498 1.279 . S
O494 Cd491 2.297 . S
O494 C496 1.247 . S
O495 Cd491 2.439 . S
O495 C496 1.208 . S
C496 O494 1.247 . S
C496 O495 1.208 . S
C497 O502 1.247 . S
C497 O503 1.208 . S
C498 O490 1.315 . S
C498 O493 1.279 . S
C499 O500 1.315 . S
C499 O501 1.279 . S
O500 Cd492 2.223 . S
O500 C499 1.315 . S
O501 Cd491 2.240 . S
O501 C499 1.279 . S
O502 Cd492 2.297 . S
O502 C497 1.247 . S
O503 Cd492 2.439 . S
O503 C497 1.208 . S
O504 Cd505 2.223 . S
O504 C512 1.315 . S
Cd505 O504 2.223 . S
Cd505 O508 2.297 . S
Cd505 O509 2.439 . S
Cd505 O515 2.240 . S
Cd506 O507 2.240 . S
Cd506 O514 2.223 . S
Cd506 O516 2.297 . S
Cd506 O517 2.439 . S
O507 Cd506 2.240 . S
O507 C512 1.279 . S
O508 Cd505 2.297 . S
O508 C510 1.247 . S
O509 Cd505 2.439 . S
O509 C510 1.208 . S
C510 O508 1.247 . S
C510 O509 1.208 . S
C511 O516 1.247 . S
C511 O517 1.208 . S
C512 O504 1.315 . S
C512 O507 1.279 . S
C513 O514 1.315 . S
C513 O515 1.279 . S
O514 Cd506 2.223 . S
O514 C513 1.315 . S
O515 Cd505 2.240 . S
O515 C513 1.279 . S
O516 Cd506 2.297 . S
O516 C511 1.247 . S
O517 Cd506 2.439 . S
O517 C511 1.208 . S
O518 Cd519 2.223 . S
O518 C526 1.315 . S
Cd519 O518 2.223 . S
Cd519 O522 2.297 . S
Cd519 O523 2.439 . S
Cd519 O529 2.240 . S
Cd520 O521 2.240 . S
Cd520 O528 2.223 . S
Cd520 O530 2.297 . S
Cd520 O531 2.439 . S
O521 Cd520 2.240 . S
O521 C526 1.279 . S
O522 Cd519 2.297 . S
O522 C524 1.247 . S
O523 Cd519 2.439 . S
O523 C524 1.208 . S
C524 O522 1.247 . S
C524 O523 1.208 . S
C525 O530 1.247 . S
C525 O531 1.208 . S
C526 O518 1.315 . S
C526 O521 1.279 . S
C527 O528 1.315 . S
C527 O529 1.279 . S
O528 Cd520 2.223 . S
O528 C527 1.315 . S
O529 Cd519 2.240 . S
O529 C527 1.279 . S
O530 Cd520 2.297 . S
O530 C525 1.247 . S
O531 Cd520 2.439 . S
O531 C525 1.208 . S
O532 Cd533 2.223 . S
O532 C540 1.315 . S
Cd533 O532 2.223 . S
Cd533 O536 2.297 . S
Cd533 O537 2.439 . S
Cd533 O543 2.240 . S
Cd534 O535 2.240 . S
Cd534 O542 2.223 . S
Cd534 O544 2.297 . S
Cd534 O545 2.439 . S
O535 Cd534 2.240 . S
O535 C540 1.279 . S
O536 Cd533 2.297 . S
O536 C538 1.247 . S
O537 Cd533 2.439 . S
O537 C538 1.208 . S
C538 O536 1.247 . S
C538 O537 1.208 . S
C539 O544 1.247 . S
C539 O545 1.208 . S
C540 O532 1.315 . S
C540 O535 1.279 . S
C541 O542 1.315 . S
C541 O543 1.279 . S
O542 Cd534 2.223 . S
O542 C541 1.315 . S
O543 Cd533 2.240 . S
O543 C541 1.279 . S
O544 Cd534 2.297 . S
O544 C539 1.247 . S
O545 Cd534 2.439 . S
O545 C539 1.208 . S
O546 Cd547 2.223 . S
O546 C554 1.315 . S
Cd547 O546 2.223 . S
Cd547 O550 2.297 . S
Cd547 O551 2.439 . S
Cd547 O557 2.240 . S
Cd548 O549 2.240 . S
Cd548 O556 2.223 . S
Cd548 O558 2.297 . S
Cd548 O559 2.439 . S
O549 Cd548 2.240 . S
O549 C554 1.279 . S
O550 Cd547 2.297 . S
O550 C552 1.247 . S
O551 Cd547 2.439 . S
O551 C552 1.208 . S
C552 O550 1.247 . S
C552 O551 1.208 . S
C553 O558 1.247 . S
C553 O559 1.208 . S
C554 O546 1.315 . S
C554 O549 1.279 . S
C555 O556 1.315 . S
C555 O557 1.279 . S
O556 Cd548 2.223 . S
O556 C555 1.315 . S
O557 Cd547 2.240 . S
O557 C555 1.279 . S
O558 Cd548 2.297 . S
O558 C553 1.247 . S
O559 Cd548 2.439 . S
O559 C553 1.208 . S
O560 Cd561 2.223 . S
O560 C568 1.315 . S
Cd561 O560 2.223 . S
Cd561 O564 2.297 . S
Cd561 O565 2.439 . S
Cd561 O571 2.240 . S
Cd562 O563 2.240 . S
Cd562 O570 2.223 . S
Cd562 O572 2.297 . S
Cd562 O573 2.439 . S
O563 Cd562 2.240 . S
O563 C568 1.279 . S
O564 Cd561 2.297 . S
O564 C566 1.247 . S
O565 Cd561 2.439 . S
O565 C566 1.208 . S
C566 O564 1.247 . S
C566 O565 1.208 . S
C567 O572 1.247 . S
C567 O573 1.208 . S
C568 O560 1.315 . S
C568 O563 1.279 . S
C569 O570 1.315 . S
C569 O571 1.279 . S
O570 Cd562 2.223 . S
O570 C569 1.315 . S
O571 Cd561 2.240 . S
O571 C569 1.279 . S
O572 Cd562 2.297 . S
O572 C567 1.247 . S
O573 Cd562 2.439 . S
O573 C567 1.208 . S
O574 Cd575 2.223 . S
O574 C582 1.315 . S
Cd575 O574 2.223 . S
Cd575 O578 2.297 . S
Cd575 O579 2.439 . S
Cd575 O585 2.240 . S
Cd576 O577 2.240 . S
Cd576 O584 2.223 . S
Cd576 O586 2.297 . S
Cd576 O587 2.439 . S
O577 Cd576 2.240 . S
O577 C582 1.279 . S
O578 Cd575 2.297 . S
O578 C580 1.247 . S
O579 Cd575 2.439 . S
O579 C580 1.208 . S
C580 O578 1.247 . S
C580 O579 1.208 . S
C581 O586 1.247 . S
C581 O587 1.208 . S
C582 O574 1.315 . S
C582 O577 1.279 . S
C583 O584 1.315 . S
C583 O585 1.279 . S
O584 Cd576 2.223 . S
O584 C583 1.315 . S
O585 Cd575 2.240 . S
O585 C583 1.279 . S
O586 Cd576 2.297 . S
O586 C581 1.247 . S
O587 Cd576 2.439 . S
O587 C581 1.208 . S
O588 Cd589 2.223 . S
O588 C596 1.315 . S
Cd589 O588 2.223 . S
Cd589 O592 2.297 . S
Cd589 O593 2.439 . S
Cd589 O599 2.240 . S
Cd590 O591 2.240 . S
Cd590 O598 2.223 . S
Cd590 O600 2.297 . S
Cd590 O601 2.439 . S
O591 Cd590 2.240 . S
O591 C596 1.279 . S
O592 Cd589 2.297 . S
O592 C594 1.247 . S
O593 Cd589 2.439 . S
O593 C594 1.208 . S
C594 O592 1.247 . S
C594 O593 1.208 . S
C595 O600 1.247 . S
C595 O601 1.208 . S
C596 O588 1.315 . S
C596 O591 1.279 . S
C597 O598 1.315 . S
C597 O599 1.279 . S
O598 Cd590 2.223 . S
O598 C597 1.315 . S
O599 Cd589 2.240 . S
O599 C597 1.279 . S
O600 Cd590 2.297 . S
O600 C595 1.247 . S
O601 Cd590 2.439 . S
O601 C595 1.208 . S
O602 Cd603 2.223 . S
O602 C610 1.315 . S
Cd603 O602 2.223 . S
Cd603 O606 2.297 . S
Cd603 O607 2.439 . S
Cd603 O613 2.240 . S
Cd604 O605 2.240 . S
Cd604 O612 2.223 . S
Cd604 O614 2.297 . S
Cd604 O615 2.439 . S
O605 Cd604 2.240 . S
O605 C610 1.279 . S
O606 Cd603 2.297 . S
O606 C608 1.247 . S
O607 Cd603 2.439 . S
O607 C608 1.208 . S
C608 O606 1.247 . S
C608 O607 1.208 . S
C609 O614 1.247 . S
C609 O615 1.208 . S
C610 O602 1.315 . S
C610 O605 1.279 . S
C611 O612 1.315 . S
C611 O613 1.279 . S
O612 Cd604 2.223 . S
O612 C611 1.315 . S
O613 Cd603 2.240 . S
O613 C611 1.279 . S
O614 Cd604 2.297 . S
O614 C609 1.247 . S
O615 Cd604 2.439 . S
O615 C609 1.208 . S
O616 Cd617 2.223 . S
O616 C624 1.315 . S
Cd617 O616 2.223 . S
Cd617 O620 2.297 . S
Cd617 O621 2.439 . S
Cd617 O627 2.240 . S
Cd618 O619 2.240 . S
Cd618 O626 2.223 . S
Cd618 O628 2.297 . S
Cd618 O629 2.439 . S
O619 Cd618 2.240 . S
O619 C624 1.279 . S
O620 Cd617 2.297 . S
O620 C622 1.247 . S
O621 Cd617 2.439 . S
O621 C622 1.208 . S
C622 O620 1.247 . S
C622 O621 1.208 . S
C623 O628 1.247 . S
C623 O629 1.208 . S
C624 O616 1.315 . S
C624 O619 1.279 . S
C625 O626 1.315 . S
C625 O627 1.279 . S
O626 Cd618 2.223 . S
O626 C625 1.315 . S
O627 Cd617 2.240 . S
O627 C625 1.279 . S
O628 Cd618 2.297 . S
O628 C623 1.247 . S
O629 Cd618 2.439 . S
O629 C623 1.208 . S
O630 Cd631 2.223 . S
O630 C638 1.315 . S
Cd631 O630 2.223 . S
Cd631 O634 2.297 . S
Cd631 O635 2.439 . S
Cd631 O641 2.240 . S
Cd632 O633 2.240 . S
Cd632 O640 2.223 . S
Cd632 O642 2.297 . S
Cd632 O643 2.439 . S
O633 Cd632 2.240 . S
O633 C638 1.279 . S
O634 Cd631 2.297 . S
O634 C636 1.247 . S
O635 Cd631 2.439 . S
O635 C636 1.208 . S
C636 O634 1.247 . S
C636 O635 1.208 . S
C637 O642 1.247 . S
C637 O643 1.208 . S
C638 O630 1.315 . S
C638 O633 1.279 . S
C639 O640 1.315 . S
C639 O641 1.279 . S
O640 Cd632 2.223 . S
O640 C639 1.315 . S
O641 Cd631 2.240 . S
O641 C639 1.279 . S
O642 Cd632 2.297 . S
O642 C637 1.247 . S
O643 Cd632 2.439 . S
O643 C637 1.208 . S
O644 Cd645 2.223 . S
O644 C652 1.315 . S
Cd645 O644 2.223 . S
Cd645 O648 2.297 . S
Cd645 O649 2.439 . S
Cd645 O655 2.240 . S
Cd646 O647 2.240 . S
Cd646 O654 2.223 . S
Cd646 O656 2.297 . S
Cd646 O657 2.439 . S
O647 Cd646 2.240 . S
O647 C652 1.279 . S
O648 Cd645 2.297 . S
O648 C650 1.247 . S
O649 Cd645 2.439 . S
O649 C650 1.208 . S
C650 O648 1.247 . S
C650 O649 1.208 . S
C651 O656 1.247 . S
C651 O657 1.208 . S
C652 O644 1.315 . S
C652 O647 1.279 . S
C653 O654 1.315 . S
C653 O655 1.279 . S
O654 Cd646 2.223 . S
O654 C653 1.315 . S
O655 Cd645 2.240 . S
O655 C653 1.279 . S
O656 Cd646 2.297 . S
O656 C651 1.247 . S
O657 Cd646 2.439 . S
O657 C651 1.208 . S
O658 Cd659 2.223 . S
O658 C666 1.315 . S
Cd659 O658 2.223 . S
Cd659 O662 2.297 . S
Cd659 O663 2.439 . S
Cd659 O669 2.240 . S
Cd660 O661 2.240 . S
Cd660 O668 2.223 . S
Cd660 O670 2.297 . S
Cd660 O671 2.439 . S
O661 Cd660 2.240 . S
O661 C666 1.279 . S
O662 Cd659 2.297 . S
O662 C664 1.247 . S
O663 Cd659 2.439 . S
O663 C664 1.208 . S
C664 O662 1.247 . S
C664 O663 1.208 . S
C665 O670 1.247 . S
C665 O671 1.208 . S
C666 O658 1.315 . S
C666 O661 1.279 . S
C667 O668 1.315 . S
C667 O669 1.279 . S
O668 Cd660 2.223 . S
O668 C667 1.315 . S
O669 Cd659 2.240 . S
O669 C667 1.279 . S
O670 Cd660 2.297 . S
O670 C665 1.247 . S
O671 Cd660 2.439 . S
O671 C665 1.208 . S
H672 C680 0.950 . S
H673 C685 0.950 . S
H674 C682 0.950 . S
H675 C684 0.950 . S
H676 C686 0.950 . S
H677 C688 0.950 . S
H678 C690 0.950 . S
H679 C691 0.950 . S
C680 H672 0.950 . S
C680 C681 1.386 . S
C680 C682 1.391 . S
C681 C680 1.386 . S
C681 C685 1.393 . S
C682 H674 0.950 . S
C682 C680 1.391 . S
C682 C683 1.400 . S
C683 C682 1.400 . S
C683 C684 1.398 . S
C683 C689 1.491 . S
C684 H675 0.950 . S
C684 C683 1.398 . S
C684 C685 1.391 . S
C685 H673 0.950 . S
C685 C681 1.393 . S
C685 C684 1.391 . S
C686 H676 0.950 . S
C686 C687 1.386 . S
C686 C688 1.391 . S
C687 C686 1.386 . S
C687 C691 1.393 . S
C688 H677 0.950 . S
C688 C686 1.391 . S
C688 C689 1.400 . S
C689 C683 1.491 . S
C689 C688 1.400 . S
C689 C690 1.398 . S
C690 H678 0.950 . S
C690 C689 1.398 . S
C690 C691 1.391 . S
C691 H679 0.950 . S
C691 C687 1.393 . S
C691 C690 1.391 . S
H692 C700 0.950 . S
H693 C705 0.950 . S
H694 C702 0.950 . S
H695 C704 0.950 . S
H696 C706 0.950 . S
H697 C708 0.950 . S
H698 C710 0.950 . S
H699 C711 0.950 . S
C700 H692 0.950 . S
C700 C701 1.386 . S
C700 C702 1.391 . S
C701 C700 1.386 . S
C701 C705 1.393 . S
C702 H694 0.950 . S
C702 C700 1.391 . S
C702 C703 1.400 . S
C703 C702 1.400 . S
C703 C704 1.398 . S
C703 C709 1.491 1_455 S
C704 H695 0.950 . S
C704 C703 1.398 . S
C704 C705 1.391 . S
C705 H693 0.950 . S
C705 C701 1.393 . S
C705 C704 1.391 . S
C706 H696 0.950 . S
C706 C707 1.386 . S
C706 C708 1.391 . S
C707 C706 1.386 . S
C707 C711 1.393 . S
C708 H697 0.950 . S
C708 C706 1.391 . S
C708 C709 1.400 . S
C709 C703 1.491 1_655 S
C709 C708 1.400 . S
C709 C710 1.398 . S
C710 H698 0.950 . S
C710 C709 1.398 . S
C710 C711 1.391 . S
C711 H699 0.950 . S
C711 C707 1.393 . S
C711 C710 1.391 . S
H712 C720 0.950 . S
H713 C725 0.950 . S
H714 C722 0.950 . S
H715 C724 0.950 . S
H716 C726 0.950 . S
H717 C728 0.950 . S
H718 C730 0.950 . S
H719 C731 0.950 . S
C720 H712 0.950 . S
C720 C721 1.386 . S
C720 C722 1.391 . S
C721 C720 1.386 . S
C721 C725 1.393 . S
C722 H714 0.950 . S
C722 C720 1.391 . S
C722 C723 1.400 . S
C723 C722 1.400 . S
C723 C724 1.398 . S
C723 C729 1.491 . S
C724 H715 0.950 . S
C724 C723 1.398 . S
C724 C725 1.391 . S
C725 H713 0.950 . S
C725 C721 1.393 . S
C725 C724 1.391 . S
C726 H716 0.950 . S
C726 C727 1.386 . S
C726 C728 1.391 . S
C727 C726 1.386 . S
C727 C731 1.393 . S
C728 H717 0.950 . S
C728 C726 1.391 . S
C728 C729 1.400 . S
C729 C723 1.491 . S
C729 C728 1.400 . S
C729 C730 1.398 . S
C730 H718 0.950 . S
C730 C729 1.398 . S
C730 C731 1.391 . S
C731 H719 0.950 . S
C731 C727 1.393 . S
C731 C730 1.391 . S
H732 C740 0.950 . S
H733 C745 0.950 . S
H734 C742 0.950 . S
H735 C744 0.950 . S
H736 C746 0.950 . S
H737 C748 0.950 . S
H738 C750 0.950 . S
H739 C751 0.950 . S
C740 H732 0.950 . S
C740 C741 1.386 . S
C740 C742 1.391 . S
C741 C740 1.386 . S
C741 C745 1.393 . S
C742 H734 0.950 . S
C742 C740 1.391 . S
C742 C743 1.400 . S
C743 C742 1.400 . S
C743 C744 1.398 . S
C743 C749 1.491 . S
C744 H735 0.950 . S
C744 C743 1.398 . S
C744 C745 1.391 . S
C745 H733 0.950 . S
C745 C741 1.393 . S
C745 C744 1.391 . S
C746 H736 0.950 . S
C746 C747 1.386 . S
C746 C748 1.391 . S
C747 C746 1.386 . S
C747 C751 1.393 . S
C748 H737 0.950 . S
C748 C746 1.391 . S
C748 C749 1.400 . S
C749 C743 1.491 . S
C749 C748 1.400 . S
C749 C750 1.398 . S
C750 H738 0.950 . S
C750 C749 1.398 . S
C750 C751 1.391 . S
C751 H739 0.950 . S
C751 C747 1.393 . S
C751 C750 1.391 . S
H752 C760 0.950 . S
H753 C765 0.950 . S
H754 C762 0.950 . S
H755 C764 0.950 . S
H756 C766 0.950 . S
H757 C768 0.950 . S
H758 C770 0.950 . S
H759 C771 0.950 . S
C760 H752 0.950 . S
C760 C761 1.386 . S
C760 C762 1.391 . S
C761 C760 1.386 . S
C761 C765 1.393 . S
C762 H754 0.950 . S
C762 C760 1.391 . S
C762 C763 1.400 . S
C763 C762 1.400 . S
C763 C764 1.398 . S
C763 C769 1.491 . S
C764 H755 0.950 . S
C764 C763 1.398 . S
C764 C765 1.391 . S
C765 H753 0.950 . S
C765 C761 1.393 . S
C765 C764 1.391 . S
C766 H756 0.950 . S
C766 C767 1.386 . S
C766 C768 1.391 . S
C767 C766 1.386 . S
C767 C771 1.393 . S
C768 H757 0.950 . S
C768 C766 1.391 . S
C768 C769 1.400 . S
C769 C763 1.491 . S
C769 C768 1.400 . S
C769 C770 1.398 . S
C770 H758 0.950 . S
C770 C769 1.398 . S
C770 C771 1.391 . S
C771 H759 0.950 . S
C771 C767 1.393 . S
C771 C770 1.391 . S
H772 C780 0.950 . S
H773 C785 0.950 . S
H774 C782 0.950 . S
H775 C784 0.950 . S
H776 C786 0.950 . S
H777 C788 0.950 . S
H778 C790 0.950 . S
H779 C791 0.950 . S
C780 H772 0.950 . S
C780 C781 1.386 . S
C780 C782 1.391 . S
C781 C780 1.386 . S
C781 C785 1.393 . S
C782 H774 0.950 . S
C782 C780 1.391 . S
C782 C783 1.400 . S
C783 C782 1.400 . S
C783 C784 1.398 . S
C783 C789 1.491 . S
C784 H775 0.950 . S
C784 C783 1.398 . S
C784 C785 1.391 . S
C785 H773 0.950 . S
C785 C781 1.393 . S
C785 C784 1.391 . S
C786 H776 0.950 . S
C786 C787 1.386 . S
C786 C788 1.391 . S
C787 C786 1.386 . S
C787 C791 1.393 . S
C788 H777 0.950 . S
C788 C786 1.391 . S
C788 C789 1.400 . S
C789 C783 1.491 . S
C789 C788 1.400 . S
C789 C790 1.398 . S
C790 H778 0.950 . S
C790 C789 1.398 . S
C790 C791 1.391 . S
C791 H779 0.950 . S
C791 C787 1.393 . S
C791 C790 1.391 . S
H792 C800 0.950 . S
H793 C805 0.950 . S
H794 C802 0.950 . S
H795 C804 0.950 . S
H796 C806 0.950 . S
H797 C808 0.950 . S
H798 C810 0.950 . S
H799 C811 0.950 . S
C800 H792 0.950 . S
C800 C801 1.386 . S
C800 C802 1.391 . S
C801 C800 1.386 . S
C801 C805 1.393 . S
C802 H794 0.950 . S
C802 C800 1.391 . S
C802 C803 1.400 . S
C803 C802 1.400 . S
C803 C804 1.398 . S
C803 C809 1.491 . S
C804 H795 0.950 . S
C804 C803 1.398 . S
C804 C805 1.391 . S
C805 H793 0.950 . S
C805 C801 1.393 . S
C805 C804 1.391 . S
C806 H796 0.950 . S
C806 C807 1.386 . S
C806 C808 1.391 . S
C807 C806 1.386 . S
C807 C811 1.393 . S
C808 H797 0.950 . S
C808 C806 1.391 . S
C808 C809 1.400 . S
C809 C803 1.491 . S
C809 C808 1.400 . S
C809 C810 1.398 . S
C810 H798 0.950 . S
C810 C809 1.398 . S
C810 C811 1.391 . S
C811 H799 0.950 . S
C811 C807 1.393 . S
C811 C810 1.391 . S
H812 C820 0.950 . S
H813 C825 0.950 . S
H814 C822 0.950 1_655 S
H815 C824 0.950 1_655 S
H816 C826 0.950 . S
H817 C828 0.950 . S
H818 C830 0.950 . S
H819 C831 0.950 . S
C820 H812 0.950 . S
C820 C821 1.386 . S
C820 C822 1.391 . S
C821 C820 1.386 . S
C821 C825 1.393 . S
C822 H814 0.950 1_455 S
C822 C820 1.391 . S
C822 C823 1.400 1_455 S
C823 C822 1.400 1_655 S
C823 C824 1.398 1_655 S
C823 C829 1.491 . S
C824 H815 0.950 1_455 S
C824 C823 1.398 1_455 S
C824 C825 1.391 . S
C825 H813 0.950 . S
C825 C821 1.393 . S
C825 C824 1.391 . S
C826 H816 0.950 . S
C826 C827 1.386 . S
C826 C828 1.391 . S
C827 C826 1.386 . S
C827 C831 1.393 . S
C828 H817 0.950 . S
C828 C826 1.391 . S
C828 C829 1.400 . S
C829 C823 1.491 . S
C829 C828 1.400 . S
C829 C830 1.398 . S
C830 H818 0.950 . S
C830 C829 1.398 . S
C830 C831 1.391 . S
C831 H819 0.950 . S
C831 C827 1.393 . S
C831 C830 1.391 . S
H832 C840 0.950 . S
H833 C845 0.950 . S
H834 C842 0.950 . S
H835 C844 0.950 . S
H836 C846 0.950 . S
H837 C848 0.950 . S
H838 C850 0.950 . S
H839 C851 0.950 . S
C840 H832 0.950 . S
C840 C841 1.386 . S
C840 C842 1.391 . S
C841 C840 1.386 . S
C841 C845 1.393 . S
C842 H834 0.950 . S
C842 C840 1.391 . S
C842 C843 1.400 . S
C843 C842 1.400 . S
C843 C844 1.398 . S
C843 C849 1.491 . S
C844 H835 0.950 . S
C844 C843 1.398 . S
C844 C845 1.391 . S
C845 H833 0.950 . S
C845 C841 1.393 . S
C845 C844 1.391 . S
C846 H836 0.950 . S
C846 C847 1.386 . S
C846 C848 1.391 . S
C847 C846 1.386 . S
C847 C851 1.393 . S
C848 H837 0.950 . S
C848 C846 1.391 . S
C848 C849 1.400 . S
C849 C843 1.491 . S
C849 C848 1.400 . S
C849 C850 1.398 . S
C850 H838 0.950 . S
C850 C849 1.398 . S
C850 C851 1.391 . S
C851 H839 0.950 . S
C851 C847 1.393 . S
C851 C850 1.391 . S
H852 C860 0.950 . S
H853 C865 0.950 . S
H854 C862 0.950 . S
H855 C864 0.950 . S
H856 C866 0.950 . S
H857 C868 0.950 . S
H858 C870 0.950 . S
H859 C871 0.950 . S
C860 H852 0.950 . S
C860 C861 1.386 . S
C860 C862 1.391 . S
C861 C860 1.386 . S
C861 C865 1.393 . S
C862 H854 0.950 . S
C862 C860 1.391 . S
C862 C863 1.400 . S
C863 C862 1.400 . S
C863 C864 1.398 . S
C863 C869 1.491 . S
C864 H855 0.950 . S
C864 C863 1.398 . S
C864 C865 1.391 . S
C865 H853 0.950 . S
C865 C861 1.393 . S
C865 C864 1.391 . S
C866 H856 0.950 . S
C866 C867 1.386 . S
C866 C868 1.391 . S
C867 C866 1.386 . S
C867 C871 1.393 . S
C868 H857 0.950 . S
C868 C866 1.391 . S
C868 C869 1.400 . S
C869 C863 1.491 . S
C869 C868 1.400 . S
C869 C870 1.398 . S
C870 H858 0.950 . S
C870 C869 1.398 . S
C870 C871 1.391 . S
C871 H859 0.950 . S
C871 C867 1.393 . S
C871 C870 1.391 . S
H872 C880 0.950 . S
H873 C885 0.950 . S
H874 C882 0.950 . S
H875 C884 0.950 . S
H876 C886 0.950 . S
H877 C888 0.950 . S
H878 C890 0.950 . S
H879 C891 0.950 . S
C880 H872 0.950 . S
C880 C881 1.386 . S
C880 C882 1.391 . S
C881 C880 1.386 . S
C881 C885 1.393 . S
C882 H874 0.950 . S
C882 C880 1.391 . S
C882 C883 1.400 . S
C883 C882 1.400 . S
C883 C884 1.398 . S
C883 C889 1.491 . S
C884 H875 0.950 . S
C884 C883 1.398 . S
C884 C885 1.391 . S
C885 H873 0.950 . S
C885 C881 1.393 . S
C885 C884 1.391 . S
C886 H876 0.950 . S
C886 C887 1.386 . S
C886 C888 1.391 . S
C887 C886 1.386 . S
C887 C891 1.393 . S
C888 H877 0.950 . S
C888 C886 1.391 . S
C888 C889 1.400 . S
C889 C883 1.491 . S
C889 C888 1.400 . S
C889 C890 1.398 . S
C890 H878 0.950 . S
C890 C889 1.398 . S
C890 C891 1.391 . S
C891 H879 0.950 . S
C891 C887 1.393 . S
C891 C890 1.391 . S
H892 C900 0.950 . S
H893 C905 0.950 . S
H894 C902 0.950 . S
H895 C904 0.950 . S
H896 C906 0.950 . S
H897 C908 0.950 . S
H898 C910 0.950 . S
H899 C911 0.950 . S
C900 H892 0.950 . S
C900 C901 1.386 . S
C900 C902 1.391 . S
C901 C900 1.386 . S
C901 C905 1.393 . S
C902 H894 0.950 . S
C902 C900 1.391 . S
C902 C903 1.400 . S
C903 C902 1.400 . S
C903 C904 1.398 . S
C903 C909 1.491 1_556 S
C904 H895 0.950 . S
C904 C903 1.398 . S
C904 C905 1.391 . S
C905 H893 0.950 . S
C905 C901 1.393 . S
C905 C904 1.391 . S
C906 H896 0.950 . S
C906 C907 1.386 . S
C906 C908 1.391 . S
C907 C906 1.386 . S
C907 C911 1.393 . S
C908 H897 0.950 . S
C908 C906 1.391 . S
C908 C909 1.400 . S
C909 C903 1.491 1_554 S
C909 C908 1.400 . S
C909 C910 1.398 . S
C910 H898 0.950 . S
C910 C909 1.398 . S
C910 C911 1.391 . S
C911 H899 0.950 . S
C911 C907 1.393 . S
C911 C910 1.391 . S
H912 C920 0.950 . S
H913 C925 0.950 . S
H914 C922 0.950 . S
H915 C924 0.950 . S
H916 C926 0.950 . S
H917 C928 0.950 . S
H918 C930 0.950 . S
H919 C931 0.950 . S
C920 H912 0.950 . S
C920 C921 1.386 . S
C920 C922 1.391 . S
C921 C920 1.386 . S
C921 C925 1.393 . S
C922 H914 0.950 . S
C922 C920 1.391 . S
C922 C923 1.400 . S
C923 C922 1.400 . S
C923 C924 1.398 . S
C923 C929 1.491 . S
C924 H915 0.950 . S
C924 C923 1.398 . S
C924 C925 1.391 . S
C925 H913 0.950 . S
C925 C921 1.393 . S
C925 C924 1.391 . S
C926 H916 0.950 . S
C926 C927 1.386 . S
C926 C928 1.391 . S
C927 C926 1.386 . S
C927 C931 1.393 . S
C928 H917 0.950 . S
C928 C926 1.391 . S
C928 C929 1.400 . S
C929 C923 1.491 . S
C929 C928 1.400 . S
C929 C930 1.398 . S
C930 H918 0.950 . S
C930 C929 1.398 . S
C930 C931 1.391 . S
C931 H919 0.950 . S
C931 C927 1.393 . S
C931 C930 1.391 . S
H932 C940 0.950 . S
H933 C945 0.950 . S
H934 C942 0.950 . S
H935 C944 0.950 . S
H936 C946 0.950 . S
H937 C948 0.950 . S
H938 C950 0.950 . S
H939 C951 0.950 . S
C940 H932 0.950 . S
C940 C941 1.386 . S
C940 C942 1.391 . S
C941 C940 1.386 . S
C941 C945 1.393 . S
C942 H934 0.950 . S
C942 C940 1.391 . S
C942 C943 1.400 . S
C943 C942 1.400 . S
C943 C944 1.398 . S
C943 C949 1.491 . S
C944 H935 0.950 . S
C944 C943 1.398 . S
C944 C945 1.391 . S
C945 H933 0.950 . S
C945 C941 1.393 . S
C945 C944 1.391 . S
C946 H936 0.950 . S
C946 C947 1.386 . S
C946 C948 1.391 . S
C947 C946 1.386 . S
C947 C951 1.393 . S
C948 H937 0.950 . S
C948 C946 1.391 . S
C948 C949 1.400 . S
C949 C943 1.491 . S
C949 C948 1.400 . S
C949 C950 1.398 . S
C950 H938 0.950 . S
C950 C949 1.398 . S
C950 C951 1.391 . S
C951 H939 0.950 . S
C951 C947 1.393 . S
C951 C950 1.391 . S
H952 C960 0.950 . S
H953 C965 0.950 . S
H954 C962 0.950 . S
H955 C964 0.950 . S
H956 C966 0.950 . S
H957 C968 0.950 . S
H958 C970 0.950 . S
H959 C971 0.950 . S
C960 H952 0.950 . S
C960 C961 1.386 . S
C960 C962 1.391 . S
C961 C960 1.386 . S
C961 C965 1.393 . S
C962 H954 0.950 . S
C962 C960 1.391 . S
C962 C963 1.400 . S
C963 C962 1.400 . S
C963 C964 1.398 . S
C963 C969 1.491 . S
C964 H955 0.950 . S
C964 C963 1.398 . S
C964 C965 1.391 . S
C965 H953 0.950 . S
C965 C961 1.393 . S
C965 C964 1.391 . S
C966 H956 0.950 . S
C966 C967 1.386 . S
C966 C968 1.391 . S
C967 C966 1.386 . S
C967 C971 1.393 . S
C968 H957 0.950 . S
C968 C966 1.391 . S
C968 C969 1.400 . S
C969 C963 1.491 . S
C969 C968 1.400 . S
C969 C970 1.398 . S
C970 H958 0.950 . S
C970 C969 1.398 . S
C970 C971 1.391 . S
C971 H959 0.950 . S
C971 C967 1.393 . S
C971 C970 1.391 . S
H972 C980 0.950 . S
H973 C985 0.950 . S
H974 C982 0.950 . S
H975 C984 0.950 . S
H976 C986 0.950 . S
H977 C988 0.950 . S
H978 C990 0.950 . S
H979 C991 0.950 . S
C980 H972 0.950 . S
C980 C981 1.386 . S
C980 C982 1.391 . S
C981 C980 1.386 . S
C981 C985 1.393 . S
C982 H974 0.950 . S
C982 C980 1.391 . S
C982 C983 1.400 . S
C983 C982 1.400 . S
C983 C984 1.398 . S
C983 C989 1.491 1_554 S
C984 H975 0.950 . S
C984 C983 1.398 . S
C984 C985 1.391 . S
C985 H973 0.950 . S
C985 C981 1.393 . S
C985 C984 1.391 . S
C986 H976 0.950 . S
C986 C987 1.386 . S
C986 C988 1.391 . S
C987 C986 1.386 . S
C987 C991 1.393 . S
C988 H977 0.950 . S
C988 C986 1.391 . S
C988 C989 1.400 . S
C989 C983 1.491 1_556 S
C989 C988 1.400 . S
C989 C990 1.398 . S
C990 H978 0.950 . S
C990 C989 1.398 . S
C990 C991 1.391 . S
C991 H979 0.950 . S
C991 C987 1.393 . S
C991 C990 1.391 . S
H992 C1000 0.950 . S
H993 C1005 0.950 . S
H994 C1002 0.950 . S
H995 C1004 0.950 . S
H996 C1006 0.950 . S
H997 C1008 0.950 . S
H998 C1010 0.950 . S
H999 C1011 0.950 . S
C1000 H992 0.950 . S
C1000 C1001 1.386 . S
C1000 C1002 1.391 . S
C1001 C1000 1.386 . S
C1001 C1005 1.393 . S
C1002 H994 0.950 . S
C1002 C1000 1.391 . S
C1002 C1003 1.400 . S
C1003 C1002 1.400 . S
C1003 C1004 1.398 . S
C1003 C1009 1.491 . S
C1004 H995 0.950 . S
C1004 C1003 1.398 . S
C1004 C1005 1.391 . S
C1005 H993 0.950 . S
C1005 C1001 1.393 . S
C1005 C1004 1.391 . S
C1006 H996 0.950 . S
C1006 C1007 1.386 . S
C1006 C1008 1.391 . S
C1007 C1006 1.386 . S
C1007 C1011 1.393 . S
C1008 H997 0.950 . S
C1008 C1006 1.391 . S
C1008 C1009 1.400 . S
C1009 C1003 1.491 . S
C1009 C1008 1.400 . S
C1009 C1010 1.398 . S
C1010 H998 0.950 . S
C1010 C1009 1.398 . S
C1010 C1011 1.391 . S
C1011 H999 0.950 . S
C1011 C1007 1.393 . S
C1011 C1010 1.391 . S
H1012 C1020 0.950 . S
H1013 C1025 0.950 . S
H1014 C1022 0.950 . S
H1015 C1024 0.950 . S
H1016 C1026 0.950 . S
H1017 C1028 0.950 . S
H1018 C1030 0.950 . S
H1019 C1031 0.950 . S
C1020 H1012 0.950 . S
C1020 C1021 1.386 . S
C1020 C1022 1.391 . S
C1021 C1020 1.386 . S
C1021 C1025 1.393 . S
C1022 H1014 0.950 . S
C1022 C1020 1.391 . S
C1022 C1023 1.400 . S
C1023 C1022 1.400 . S
C1023 C1024 1.398 . S
C1023 C1029 1.491 . S
C1024 H1015 0.950 . S
C1024 C1023 1.398 . S
C1024 C1025 1.391 . S
C1025 H1013 0.950 . S
C1025 C1021 1.393 . S
C1025 C1024 1.391 . S
C1026 H1016 0.950 . S
C1026 C1027 1.386 . S
C1026 C1028 1.391 . S
C1027 C1026 1.386 . S
C1027 C1031 1.393 . S
C1028 H1017 0.950 . S
C1028 C1026 1.391 . S
C1028 C1029 1.400 . S
C1029 C1023 1.491 . S
C1029 C1028 1.400 . S
C1029 C1030 1.398 . S
C1030 H1018 0.950 . S
C1030 C1029 1.398 . S
C1030 C1031 1.391 . S
C1031 H1019 0.950 . S
C1031 C1027 1.393 . S
C1031 C1030 1.391 . S
H1032 C1040 0.950 . S
H1033 C1045 0.950 . S
H1034 C1042 0.950 . S
H1035 C1044 0.950 . S
H1036 C1046 0.950 . S
H1037 C1048 0.950 . S
H1038 C1050 0.950 . S
H1039 C1051 0.950 . S
C1040 H1032 0.950 . S
C1040 C1041 1.386 . S
C1040 C1042 1.391 . S
C1041 C1040 1.386 . S
C1041 C1045 1.393 . S
C1042 H1034 0.950 . S
C1042 C1040 1.391 . S
C1042 C1043 1.400 . S
C1043 C1042 1.400 . S
C1043 C1044 1.398 . S
C1043 C1049 1.491 . S
C1044 H1035 0.950 . S
C1044 C1043 1.398 . S
C1044 C1045 1.391 . S
C1045 H1033 0.950 . S
C1045 C1041 1.393 . S
C1045 C1044 1.391 . S
C1046 H1036 0.950 . S
C1046 C1047 1.386 . S
C1046 C1048 1.391 . S
C1047 C1046 1.386 . S
C1047 C1051 1.393 . S
C1048 H1037 0.950 . S
C1048 C1046 1.391 . S
C1048 C1049 1.400 . S
C1049 C1043 1.491 . S
C1049 C1048 1.400 . S
C1049 C1050 1.398 . S
C1050 H1038 0.950 . S
C1050 C1049 1.398 . S
C1050 C1051 1.391 . S
C1051 H1039 0.950 . S
C1051 C1047 1.393 . S
C1051 C1050 1.391 . S
H1052 C1060 0.950 . S
H1053 C1065 0.950 . S
H1054 C1062 0.950 . S
H1055 C1064 0.950 . S
H1056 C1066 0.950 . S
H1057 C1068 0.950 . S
H1058 C1070 0.950 . S
H1059 C1071 0.950 . S
C1060 H1052 0.950 . S
C1060 C1061 1.386 . S
C1060 C1062 1.391 . S
C1061 C1060 1.386 . S
C1061 C1065 1.393 . S
C1062 H1054 0.950 . S
C1062 C1060 1.391 . S
C1062 C1063 1.400 . S
C1063 C1062 1.400 . S
C1063 C1064 1.398 . S
C1063 C1069 1.491 . S
C1064 H1055 0.950 . S
C1064 C1063 1.398 . S
C1064 C1065 1.391 . S
C1065 H1053 0.950 . S
C1065 C1061 1.393 . S
C1065 C1064 1.391 . S
C1066 H1056 0.950 . S
C1066 C1067 1.386 . S
C1066 C1068 1.391 . S
C1067 C1066 1.386 . S
C1067 C1071 1.393 . S
C1068 H1057 0.950 . S
C1068 C1066 1.391 . S
C1068 C1069 1.400 . S
C1069 C1063 1.491 . S
C1069 C1068 1.400 . S
C1069 C1070 1.398 . S
C1070 H1058 0.950 . S
C1070 C1069 1.398 . S
C1070 C1071 1.391 . S
C1071 H1059 0.950 . S
C1071 C1067 1.393 . S
C1071 C1070 1.391 . S
H1072 C1080 0.950 . S
H1073 C1085 0.950 . S
H1074 C1082 0.950 . S
H1075 C1084 0.950 . S
H1076 C1086 0.958 . S
H1077 C1088 0.950 . S
H1078 C1090 0.950 . S
H1079 C1091 0.950 . S
C1080 H1072 0.950 . S
C1080 C1081 1.386 . S
C1080 C1082 1.391 . S
C1081 C1080 1.386 . S
C1081 C1085 1.393 . S
C1082 H1074 0.950 . S
C1082 C1080 1.391 . S
C1082 C1083 1.400 . S
C1083 C1082 1.400 . S
C1083 C1084 1.398 . S
C1083 C1089 1.491 . S
C1084 H1075 0.950 . S
C1084 C1083 1.398 . S
C1084 C1085 1.391 . S
C1085 H1073 0.950 . S
C1085 C1081 1.393 . S
C1085 C1084 1.391 . S
C1086 H1076 0.958 . S
C1086 C1087 1.386 1_565 S
C1086 C1088 1.391 . S
C1087 C1086 1.386 1_545 S
C1087 C1091 1.393 . S
C1088 H1077 0.950 . S
C1088 C1086 1.391 . S
C1088 C1089 1.400 . S
C1089 C1083 1.491 . S
C1089 C1088 1.400 . S
C1089 C1090 1.398 . S
C1090 H1078 0.950 . S
C1090 C1089 1.398 . S
C1090 C1091 1.391 1_565 S
C1091 H1079 0.950 . S
C1091 C1087 1.393 . S
C1091 C1090 1.391 1_545 S
H1092 C1100 0.950 . S
H1093 C1105 0.950 . S
H1094 C1102 0.950 . S
H1095 C1104 0.950 . S
H1096 C1106 0.950 . S
H1097 C1108 0.950 . S
H1098 C1110 0.950 . S
H1099 C1111 0.950 . S
C1100 H1092 0.950 . S
C1100 C1101 1.386 . S
C1100 C1102 1.391 . S
C1101 C1100 1.386 . S
C1101 C1105 1.393 . S
C1102 H1094 0.950 . S
C1102 C1100 1.391 . S
C1102 C1103 1.400 . S
C1103 C1102 1.400 . S
C1103 C1104 1.398 . S
C1103 C1109 1.491 . S
C1104 H1095 0.950 . S
C1104 C1103 1.398 . S
C1104 C1105 1.391 . S
C1105 H1093 0.950 . S
C1105 C1101 1.393 . S
C1105 C1104 1.391 . S
C1106 H1096 0.950 . S
C1106 C1107 1.386 . S
C1106 C1108 1.391 . S
C1107 C1106 1.386 . S
C1107 C1111 1.393 . S
C1108 H1097 0.950 . S
C1108 C1106 1.391 . S
C1108 C1109 1.400 . S
C1109 C1103 1.491 . S
C1109 C1108 1.400 . S
C1109 C1110 1.398 . S
C1110 H1098 0.950 . S
C1110 C1109 1.398 . S
C1110 C1111 1.391 . S
C1111 H1099 0.950 . S
C1111 C1107 1.393 . S
C1111 C1110 1.391 . S
H1112 C1120 0.950 . S
H1113 C1125 0.950 . S
H1114 C1122 0.950 . S
H1115 C1124 0.950 . S
H1116 C1126 0.950 . S
H1117 C1128 0.950 . S
H1118 C1130 0.950 . S
H1119 C1131 0.950 . S
C1120 H1112 0.950 . S
C1120 C1121 1.386 . S
C1120 C1122 1.391 . S
C1121 C1120 1.386 . S
C1121 C1125 1.393 . S
C1122 H1114 0.950 . S
C1122 C1120 1.391 . S
C1122 C1123 1.400 . S
C1123 C1122 1.400 . S
C1123 C1124 1.398 . S
C1123 C1129 1.491 . S
C1124 H1115 0.950 . S
C1124 C1123 1.398 . S
C1124 C1125 1.391 . S
C1125 H1113 0.950 . S
C1125 C1121 1.393 . S
C1125 C1124 1.391 . S
C1126 H1116 0.950 . S
C1126 C1127 1.386 . S
C1126 C1128 1.391 . S
C1127 C1126 1.386 . S
C1127 C1131 1.393 . S
C1128 H1117 0.950 . S
C1128 C1126 1.391 . S
C1128 C1129 1.400 . S
C1129 C1123 1.491 . S
C1129 C1128 1.400 . S
C1129 C1130 1.398 . S
C1130 H1118 0.950 . S
C1130 C1129 1.398 . S
C1130 C1131 1.391 . S
C1131 H1119 0.950 . S
C1131 C1127 1.393 . S
C1131 C1130 1.391 . S
H1132 C1140 0.950 . S
H1133 C1145 0.950 . S
H1134 C1142 0.950 . S
H1135 C1144 0.950 . S
H1136 C1146 0.950 . S
H1137 C1148 0.950 . S
H1138 C1150 0.950 . S
H1139 C1151 0.950 . S
C1140 H1132 0.950 . S
C1140 C1141 1.386 . S
C1140 C1142 1.391 . S
C1141 C1140 1.386 . S
C1141 C1145 1.393 . S
C1142 H1134 0.950 . S
C1142 C1140 1.391 . S
C1142 C1143 1.400 . S
C1143 C1142 1.400 . S
C1143 C1144 1.398 . S
C1143 C1149 1.491 . S
C1144 H1135 0.950 . S
C1144 C1143 1.398 . S
C1144 C1145 1.391 . S
C1145 H1133 0.950 . S
C1145 C1141 1.393 . S
C1145 C1144 1.391 . S
C1146 H1136 0.950 . S
C1146 C1147 1.386 . S
C1146 C1148 1.391 . S
C1147 C1146 1.386 . S
C1147 C1151 1.393 . S
C1148 H1137 0.950 . S
C1148 C1146 1.391 . S
C1148 C1149 1.400 . S
C1149 C1143 1.491 . S
C1149 C1148 1.400 . S
C1149 C1150 1.398 . S
C1150 H1138 0.950 . S
C1150 C1149 1.398 . S
C1150 C1151 1.391 . S
C1151 H1139 0.950 . S
C1151 C1147 1.393 . S
C1151 C1150 1.391 . S
H1152 C1160 0.950 . S
H1153 C1165 0.950 . S
H1154 C1162 0.950 . S
H1155 C1164 0.950 . S
H1156 C1166 0.950 . S
H1157 C1168 0.950 . S
H1158 C1170 0.950 . S
H1159 C1171 0.950 . S
C1160 H1152 0.950 . S
C1160 C1161 1.386 . S
C1160 C1162 1.391 . S
C1161 C1160 1.386 . S
C1161 C1165 1.393 . S
C1162 H1154 0.950 . S
C1162 C1160 1.391 . S
C1162 C1163 1.400 . S
C1163 C1162 1.400 . S
C1163 C1164 1.398 . S
C1163 C1169 1.491 . S
C1164 H1155 0.950 . S
C1164 C1163 1.398 . S
C1164 C1165 1.391 . S
C1165 H1153 0.950 . S
C1165 C1161 1.393 . S
C1165 C1164 1.391 . S
C1166 H1156 0.950 . S
C1166 C1167 1.386 . S
C1166 C1168 1.391 . S
C1167 C1166 1.386 . S
C1167 C1171 1.393 . S
C1168 H1157 0.950 . S
C1168 C1166 1.391 . S
C1168 C1169 1.400 . S
C1169 C1163 1.491 . S
C1169 C1168 1.400 . S
C1169 C1170 1.398 . S
C1170 H1158 0.950 . S
C1170 C1169 1.398 . S
C1170 C1171 1.391 . S
C1171 H1159 0.950 . S
C1171 C1167 1.393 . S
C1171 C1170 1.391 . S
H1172 C1180 0.950 . S
H1173 C1185 0.950 . S
H1174 C1182 0.950 . S
H1175 C1184 0.950 . S
H1176 C1186 0.950 . S
H1177 C1188 0.950 . S
H1178 C1190 0.950 . S
H1179 C1191 0.950 . S
C1180 H1172 0.950 . S
C1180 C1181 1.386 . S
C1180 C1182 1.391 . S
C1181 C1180 1.386 . S
C1181 C1185 1.393 . S
C1182 H1174 0.950 . S
C1182 C1180 1.391 . S
C1182 C1183 1.400 . S
C1183 C1182 1.400 . S
C1183 C1184 1.398 . S
C1183 C1189 1.491 1_655 S
C1184 H1175 0.950 . S
C1184 C1183 1.398 . S
C1184 C1185 1.391 . S
C1185 H1173 0.950 . S
C1185 C1181 1.393 . S
C1185 C1184 1.391 . S
C1186 H1176 0.950 . S
C1186 C1187 1.386 . S
C1186 C1188 1.391 . S
C1187 C1186 1.386 . S
C1187 C1191 1.393 . S
C1188 H1177 0.950 . S
C1188 C1186 1.391 . S
C1188 C1189 1.400 . S
C1189 C1183 1.491 1_455 S
C1189 C1188 1.400 . S
C1189 C1190 1.398 . S
C1190 H1178 0.950 . S
C1190 C1189 1.398 . S
C1190 C1191 1.391 . S
C1191 H1179 0.950 . S
C1191 C1187 1.393 . S
C1191 C1190 1.391 . S
H1192 C1200 0.950 . S
H1193 C1205 0.950 . S
H1194 C1202 0.950 . S
H1195 C1204 0.950 . S
H1196 C1206 0.950 . S
H1197 C1208 0.950 . S
H1198 C1210 0.950 . S
H1199 C1211 0.950 . S
C1200 H1192 0.950 . S
C1200 C1201 1.386 . S
C1200 C1202 1.391 . S
C1201 C1200 1.386 . S
C1201 C1205 1.393 . S
C1202 H1194 0.950 . S
C1202 C1200 1.391 . S
C1202 C1203 1.400 . S
C1203 C1202 1.400 . S
C1203 C1204 1.398 . S
C1203 C1209 1.491 . S
C1204 H1195 0.950 . S
C1204 C1203 1.398 . S
C1204 C1205 1.391 . S
C1205 H1193 0.950 . S
C1205 C1201 1.393 . S
C1205 C1204 1.391 . S
C1206 H1196 0.950 . S
C1206 C1207 1.386 . S
C1206 C1208 1.391 . S
C1207 C1206 1.386 . S
C1207 C1211 1.393 . S
C1208 H1197 0.950 . S
C1208 C1206 1.391 . S
C1208 C1209 1.400 . S
C1209 C1203 1.491 . S
C1209 C1208 1.400 . S
C1209 C1210 1.398 . S
C1210 H1198 0.950 . S
C1210 C1209 1.398 . S
C1210 C1211 1.391 . S
C1211 H1199 0.950 . S
C1211 C1207 1.393 . S
C1211 C1210 1.391 . S
H1212 C1220 0.950 . S
H1213 C1225 0.950 . S
H1214 C1222 0.950 . S
H1215 C1224 0.950 . S
H1216 C1226 0.950 . S
H1217 C1228 0.950 . S
H1218 C1230 0.950 . S
H1219 C1231 0.950 . S
C1220 H1212 0.950 . S
C1220 C1221 1.386 . S
C1220 C1222 1.391 . S
C1221 C1220 1.386 . S
C1221 C1225 1.393 . S
C1222 H1214 0.950 . S
C1222 C1220 1.391 . S
C1222 C1223 1.400 . S
C1223 C1222 1.400 . S
C1223 C1224 1.398 . S
C1223 C1229 1.491 . S
C1224 H1215 0.950 . S
C1224 C1223 1.398 . S
C1224 C1225 1.391 . S
C1225 H1213 0.950 . S
C1225 C1221 1.393 . S
C1225 C1224 1.391 . S
C1226 H1216 0.950 . S
C1226 C1227 1.386 . S
C1226 C1228 1.391 . S
C1227 C1226 1.386 . S
C1227 C1231 1.393 . S
C1228 H1217 0.950 . S
C1228 C1226 1.391 . S
C1228 C1229 1.400 . S
C1229 C1223 1.491 . S
C1229 C1228 1.400 . S
C1229 C1230 1.398 . S
C1230 H1218 0.950 . S
C1230 C1229 1.398 . S
C1230 C1231 1.391 . S
C1231 H1219 0.950 . S
C1231 C1227 1.393 . S
C1231 C1230 1.391 . S
H1232 C1240 0.950 . S
H1233 C1245 0.950 . S
H1234 C1242 0.950 . S
H1235 C1244 0.950 . S
H1236 C1246 0.950 . S
H1237 C1248 0.950 . S
H1238 C1250 0.950 . S
H1239 C1251 0.950 . S
C1240 H1232 0.950 . S
C1240 C1241 1.386 . S
C1240 C1242 1.391 . S
C1241 C1240 1.386 . S
C1241 C1245 1.393 . S
C1242 H1234 0.950 . S
C1242 C1240 1.391 . S
C1242 C1243 1.400 . S
C1243 C1242 1.400 . S
C1243 C1244 1.398 . S
C1243 C1249 1.491 . S
C1244 H1235 0.950 . S
C1244 C1243 1.398 . S
C1244 C1245 1.391 . S
C1245 H1233 0.950 . S
C1245 C1241 1.393 . S
C1245 C1244 1.391 . S
C1246 H1236 0.950 . S
C1246 C1247 1.386 . S
C1246 C1248 1.391 . S
C1247 C1246 1.386 . S
C1247 C1251 1.393 . S
C1248 H1237 0.950 . S
C1248 C1246 1.391 . S
C1248 C1249 1.400 . S
C1249 C1243 1.491 . S
C1249 C1248 1.400 . S
C1249 C1250 1.398 . S
C1250 H1238 0.950 . S
C1250 C1249 1.398 . S
C1250 C1251 1.391 . S
C1251 H1239 0.950 . S
C1251 C1247 1.393 . S
C1251 C1250 1.391 . S
H1252 C1260 0.950 . S
H1253 C1265 0.950 . S
H1254 C1262 0.950 . S
H1255 C1264 0.950 . S
H1256 C1266 0.950 . S
H1257 C1268 0.950 . S
H1258 C1270 0.950 . S
H1259 C1271 0.950 . S
C1260 H1252 0.950 . S
C1260 C1261 1.386 . S
C1260 C1262 1.391 . S
C1261 C1260 1.386 . S
C1261 C1265 1.393 . S
C1262 H1254 0.950 . S
C1262 C1260 1.391 . S
C1262 C1263 1.400 . S
C1263 C1262 1.400 . S
C1263 C1264 1.398 . S
C1263 C1269 1.491 . S
C1264 H1255 0.950 . S
C1264 C1263 1.398 . S
C1264 C1265 1.391 . S
C1265 H1253 0.950 . S
C1265 C1261 1.393 . S
C1265 C1264 1.391 . S
C1266 H1256 0.950 . S
C1266 C1267 1.386 . S
C1266 C1268 1.391 . S
C1267 C1266 1.386 . S
C1267 C1271 1.393 . S
C1268 H1257 0.950 . S
C1268 C1266 1.391 . S
C1268 C1269 1.400 . S
C1269 C1263 1.491 . S
C1269 C1268 1.400 . S
C1269 C1270 1.398 . S
C1270 H1258 0.950 . S
C1270 C1269 1.398 . S
C1270 C1271 1.391 . S
C1271 H1259 0.950 . S
C1271 C1267 1.393 . S
C1271 C1270 1.391 . S
H1272 C1280 0.950 . S
H1273 C1285 0.950 . S
H1274 C1282 0.950 . S
H1275 C1284 0.950 . S
H1276 C1286 0.950 . S
H1277 C1288 0.950 . S
H1278 C1290 0.950 . S
H1279 C1291 0.950 . S
C1280 H1272 0.950 . S
C1280 C1281 1.386 . S
C1280 C1282 1.391 . S
C1281 C1280 1.386 . S
C1281 C1285 1.393 . S
C1282 H1274 0.950 . S
C1282 C1280 1.391 . S
C1282 C1283 1.400 . S
C1283 C1282 1.400 . S
C1283 C1284 1.398 . S
C1283 C1289 1.491 . S
C1284 H1275 0.950 . S
C1284 C1283 1.398 . S
C1284 C1285 1.391 . S
C1285 H1273 0.950 . S
C1285 C1281 1.393 . S
C1285 C1284 1.391 . S
C1286 H1276 0.950 . S
C1286 C1287 1.386 . S
C1286 C1288 1.391 . S
C1287 C1286 1.386 . S
C1287 C1291 1.393 . S
C1288 H1277 0.950 . S
C1288 C1286 1.391 . S
C1288 C1289 1.400 . S
C1289 C1283 1.491 . S
C1289 C1288 1.400 . S
C1289 C1290 1.398 . S
C1290 H1278 0.950 . S
C1290 C1289 1.398 . S
C1290 C1291 1.391 . S
C1291 H1279 0.950 . S
C1291 C1287 1.393 . S
C1291 C1290 1.391 . S
H1292 C1300 0.950 . S
H1293 C1305 0.950 . S
H1294 C1302 0.950 . S
H1295 C1304 0.950 . S
H1296 C1306 0.950 . S
H1297 C1308 0.950 1_455 S
H1298 C1310 0.950 . S
H1299 C1311 0.950 . S
C1300 H1292 0.950 . S
C1300 C1301 1.386 . S
C1300 C1302 1.391 . S
C1301 C1300 1.386 . S
C1301 C1305 1.393 . S
C1302 H1294 0.950 . S
C1302 C1300 1.391 . S
C1302 C1303 1.400 . S
C1303 C1302 1.400 . S
C1303 C1304 1.398 . S
C1303 C1309 1.491 . S
C1304 H1295 0.950 . S
C1304 C1303 1.398 . S
C1304 C1305 1.391 . S
C1305 H1293 0.950 . S
C1305 C1301 1.393 . S
C1305 C1304 1.391 . S
C1306 H1296 0.950 . S
C1306 C1307 1.386 . S
C1306 C1308 1.391 . S
C1307 C1306 1.386 . S
C1307 C1311 1.393 . S
C1308 H1297 0.950 1_655 S
C1308 C1306 1.391 . S
C1308 C1309 1.400 1_655 S
C1309 C1303 1.491 . S
C1309 C1308 1.400 1_455 S
C1309 C1310 1.398 . S
C1310 H1298 0.950 . S
C1310 C1309 1.398 . S
C1310 C1311 1.391 1_455 S
C1311 H1299 0.950 . S
C1311 C1307 1.393 . S
C1311 C1310 1.391 1_655 S
H1312 C1320 0.950 . S
H1313 C1325 0.950 . S
H1314 C1322 0.950 . S
H1315 C1324 0.950 . S
H1316 C1326 0.950 . S
H1317 C1328 0.950 . S
H1318 C1330 0.950 . S
H1319 C1331 0.950 . S
C1320 H1312 0.950 . S
C1320 C1321 1.386 . S
C1320 C1322 1.391 . S
C1321 C1320 1.386 . S
C1321 C1325 1.393 . S
C1322 H1314 0.950 . S
C1322 C1320 1.391 . S
C1322 C1323 1.400 . S
C1323 C1322 1.400 . S
C1323 C1324 1.398 . S
C1323 C1329 1.491 . S
C1324 H1315 0.950 . S
C1324 C1323 1.398 . S
C1324 C1325 1.391 . S
C1325 H1313 0.950 . S
C1325 C1321 1.393 . S
C1325 C1324 1.391 . S
C1326 H1316 0.950 . S
C1326 C1327 1.386 . S
C1326 C1328 1.391 . S
C1327 C1326 1.386 . S
C1327 C1331 1.393 . S
C1328 H1317 0.950 . S
C1328 C1326 1.391 . S
C1328 C1329 1.400 . S
C1329 C1323 1.491 . S
C1329 C1328 1.400 . S
C1329 C1330 1.398 . S
C1330 H1318 0.950 . S
C1330 C1329 1.398 . S
C1330 C1331 1.391 . S
C1331 H1319 0.950 . S
C1331 C1327 1.393 . S
C1331 C1330 1.391 . S
H1332 C1340 0.950 . S
H1333 C1345 0.950 . S
H1334 C1342 0.950 . S
H1335 C1344 0.950 . S
H1336 C1346 0.950 . S
H1337 C1348 0.950 . S
H1338 C1350 0.950 . S
H1339 C1351 0.950 . S
C1340 H1332 0.950 . S
C1340 C1341 1.386 . S
C1340 C1342 1.391 . S
C1341 C1340 1.386 . S
C1341 C1345 1.393 . S
C1342 H1334 0.950 . S
C1342 C1340 1.391 . S
C1342 C1343 1.400 . S
C1343 C1342 1.400 . S
C1343 C1344 1.398 . S
C1343 C1349 1.491 . S
C1344 H1335 0.950 . S
C1344 C1343 1.398 . S
C1344 C1345 1.391 . S
C1345 H1333 0.950 . S
C1345 C1341 1.393 . S
C1345 C1344 1.391 . S
C1346 H1336 0.950 . S
C1346 C1347 1.386 . S
C1346 C1348 1.391 . S
C1347 C1346 1.386 . S
C1347 C1351 1.393 . S
C1348 H1337 0.950 . S
C1348 C1346 1.391 . S
C1348 C1349 1.400 . S
C1349 C1343 1.491 . S
C1349 C1348 1.400 . S
C1349 C1350 1.398 . S
C1350 H1338 0.950 . S
C1350 C1349 1.398 . S
C1350 C1351 1.391 . S
C1351 H1339 0.950 . S
C1351 C1347 1.393 . S
C1351 C1350 1.391 . S
H1352 C1360 0.950 . S
H1353 C1365 0.950 . S
H1354 C1362 0.950 . S
H1355 C1364 0.950 . S
H1356 C1366 0.950 . S
H1357 C1368 0.950 . S
H1358 C1370 0.950 . S
H1359 C1371 0.950 . S
C1360 H1352 0.950 . S
C1360 C1361 1.386 . S
C1360 C1362 1.391 . S
C1361 C1360 1.386 . S
C1361 C1365 1.393 . S
C1362 H1354 0.950 . S
C1362 C1360 1.391 . S
C1362 C1363 1.400 . S
C1363 C1362 1.400 . S
C1363 C1364 1.398 . S
C1363 C1369 1.491 . S
C1364 H1355 0.950 . S
C1364 C1363 1.398 . S
C1364 C1365 1.391 . S
C1365 H1353 0.950 . S
C1365 C1361 1.393 . S
C1365 C1364 1.391 . S
C1366 H1356 0.950 . S
C1366 C1367 1.386 . S
C1366 C1368 1.391 . S
C1367 C1366 1.386 . S
C1367 C1371 1.393 . S
C1368 H1357 0.950 . S
C1368 C1366 1.391 . S
C1368 C1369 1.400 . S
C1369 C1363 1.491 . S
C1369 C1368 1.400 . S
C1369 C1370 1.398 . S
C1370 H1358 0.950 . S
C1370 C1369 1.398 . S
C1370 C1371 1.391 . S
C1371 H1359 0.950 . S
C1371 C1367 1.393 . S
C1371 C1370 1.391 . S
H1372 C1380 0.950 . S
H1373 C1385 0.950 . S
H1374 C1382 0.950 . S
H1375 C1384 0.950 . S
H1376 C1386 0.950 . S
H1377 C1388 0.950 . S
H1378 C1390 0.950 . S
H1379 C1391 0.950 . S
C1380 H1372 0.950 . S
C1380 C1381 1.386 . S
C1380 C1382 1.391 . S
C1381 C1380 1.386 . S
C1381 C1385 1.393 . S
C1382 H1374 0.950 . S
C1382 C1380 1.391 . S
C1382 C1383 1.400 . S
C1383 C1382 1.400 . S
C1383 C1384 1.398 . S
C1383 C1389 1.491 1_556 S
C1384 H1375 0.950 . S
C1384 C1383 1.398 . S
C1384 C1385 1.391 . S
C1385 H1373 0.950 . S
C1385 C1381 1.393 . S
C1385 C1384 1.391 . S
C1386 H1376 0.950 . S
C1386 C1387 1.386 . S
C1386 C1388 1.391 . S
C1387 C1386 1.386 . S
C1387 C1391 1.393 . S
C1388 H1377 0.950 . S
C1388 C1386 1.391 . S
C1388 C1389 1.400 . S
C1389 C1383 1.491 1_554 S
C1389 C1388 1.400 . S
C1389 C1390 1.398 . S
C1390 H1378 0.950 . S
C1390 C1389 1.398 . S
C1390 C1391 1.391 . S
C1391 H1379 0.950 . S
C1391 C1387 1.393 . S
C1391 C1390 1.391 . S
H1392 C1400 0.950 . S
H1393 C1405 0.950 . S
H1394 C1402 0.950 . S
H1395 C1404 0.950 . S
H1396 C1406 0.950 . S
H1397 C1408 0.950 . S
H1398 C1410 0.950 . S
H1399 C1411 0.950 . S
C1400 H1392 0.950 . S
C1400 C1401 1.386 . S
C1400 C1402 1.391 . S
C1401 C1400 1.386 . S
C1401 C1405 1.393 . S
C1402 H1394 0.950 . S
C1402 C1400 1.391 . S
C1402 C1403 1.400 . S
C1403 C1402 1.400 . S
C1403 C1404 1.398 . S
C1403 C1409 1.491 . S
C1404 H1395 0.950 . S
C1404 C1403 1.398 . S
C1404 C1405 1.391 . S
C1405 H1393 0.950 . S
C1405 C1401 1.393 . S
C1405 C1404 1.391 . S
C1406 H1396 0.950 . S
C1406 C1407 1.386 . S
C1406 C1408 1.391 . S
C1407 C1406 1.386 . S
C1407 C1411 1.393 . S
C1408 H1397 0.950 . S
C1408 C1406 1.391 . S
C1408 C1409 1.400 . S
C1409 C1403 1.491 . S
C1409 C1408 1.400 . S
C1409 C1410 1.398 . S
C1410 H1398 0.950 . S
C1410 C1409 1.398 . S
C1410 C1411 1.391 . S
C1411 H1399 0.950 . S
C1411 C1407 1.393 . S
C1411 C1410 1.391 . S
H1412 C1420 0.950 . S
H1413 C1425 0.950 . S
H1414 C1422 0.950 . S
H1415 C1424 0.950 . S
H1416 C1426 0.950 . S
H1417 C1428 0.950 . S
H1418 C1430 0.950 . S
H1419 C1431 0.950 . S
C1420 H1412 0.950 . S
C1420 C1421 1.386 . S
C1420 C1422 1.391 . S
C1421 C1420 1.386 . S
C1421 C1425 1.393 . S
C1422 H1414 0.950 . S
C1422 C1420 1.391 . S
C1422 C1423 1.400 . S
C1423 C1422 1.400 . S
C1423 C1424 1.398 . S
C1423 C1429 1.491 . S
C1424 H1415 0.950 . S
C1424 C1423 1.398 . S
C1424 C1425 1.391 . S
C1425 H1413 0.950 . S
C1425 C1421 1.393 . S
C1425 C1424 1.391 . S
C1426 H1416 0.950 . S
C1426 C1427 1.386 . S
C1426 C1428 1.391 . S
C1427 C1426 1.386 . S
C1427 C1431 1.393 . S
C1428 H1417 0.950 . S
C1428 C1426 1.391 . S
C1428 C1429 1.400 . S
C1429 C1423 1.491 . S
C1429 C1428 1.400 . S
C1429 C1430 1.398 . S
C1430 H1418 0.950 . S
C1430 C1429 1.398 . S
C1430 C1431 1.391 . S
C1431 H1419 0.950 . S
C1431 C1427 1.393 . S
C1431 C1430 1.391 . S
H1432 C1440 0.950 . S
H1433 C1445 0.950 . S
H1434 C1442 0.950 . S
H1435 C1444 0.950 . S
H1436 C1446 0.950 . S
H1437 C1448 0.950 . S
H1438 C1450 0.950 . S
H1439 C1451 0.950 . S
C1440 H1432 0.950 . S
C1440 C1441 1.386 . S
C1440 C1442 1.391 . S
C1441 C1440 1.386 . S
C1441 C1445 1.393 . S
C1442 H1434 0.950 . S
C1442 C1440 1.391 . S
C1442 C1443 1.400 . S
C1443 C1442 1.400 . S
C1443 C1444 1.398 . S
C1443 C1449 1.491 . S
C1444 H1435 0.950 . S
C1444 C1443 1.398 . S
C1444 C1445 1.391 . S
C1445 H1433 0.950 . S
C1445 C1441 1.393 . S
C1445 C1444 1.391 . S
C1446 H1436 0.950 . S
C1446 C1447 1.386 . S
C1446 C1448 1.391 . S
C1447 C1446 1.386 . S
C1447 C1451 1.393 . S
C1448 H1437 0.950 . S
C1448 C1446 1.391 . S
C1448 C1449 1.400 . S
C1449 C1443 1.491 . S
C1449 C1448 1.400 . S
C1449 C1450 1.398 . S
C1450 H1438 0.950 . S
C1450 C1449 1.398 . S
C1450 C1451 1.391 . S
C1451 H1439 0.950 . S
C1451 C1447 1.393 . S
C1451 C1450 1.391 . S
H1452 C1460 0.950 . S
H1453 C1465 0.950 . S
H1454 C1462 0.950 . S
H1455 C1464 0.950 . S
H1456 C1466 0.950 . S
H1457 C1468 0.950 . S
H1458 C1470 0.950 . S
H1459 C1471 0.950 . S
C1460 H1452 0.950 . S
C1460 C1461 1.386 . S
C1460 C1462 1.391 . S
C1461 C1460 1.386 . S
C1461 C1465 1.393 . S
C1462 H1454 0.950 . S
C1462 C1460 1.391 . S
C1462 C1463 1.400 . S
C1463 C1462 1.400 . S
C1463 C1464 1.398 . S
C1463 C1469 1.491 1_556 S
C1464 H1455 0.950 . S
C1464 C1463 1.398 . S
C1464 C1465 1.391 . S
C1465 H1453 0.950 . S
C1465 C1461 1.393 . S
C1465 C1464 1.391 . S
C1466 H1456 0.950 . S
C1466 C1467 1.386 . S
C1466 C1468 1.391 . S
C1467 C1466 1.386 . S
C1467 C1471 1.393 . S
C1468 H1457 0.950 . S
C1468 C1466 1.391 . S
C1468 C1469 1.400 . S
C1469 C1463 1.491 1_554 S
C1469 C1468 1.400 . S
C1469 C1470 1.398 . S
C1470 H1458 0.950 . S
C1470 C1469 1.398 . S
C1470 C1471 1.391 . S
C1471 H1459 0.950 . S
C1471 C1467 1.393 . S
C1471 C1470 1.391 . S
H1472 C1480 0.950 . S
H1473 C1485 0.950 . S
H1474 C1482 0.950 . S
H1475 C1484 0.950 . S
H1476 C1486 0.950 . S
H1477 C1488 0.950 . S
H1478 C1490 0.950 . S
H1479 C1491 0.950 . S
C1480 H1472 0.950 . S
C1480 C1481 1.386 . S
C1480 C1482 1.391 . S
C1481 C1480 1.386 . S
C1481 C1485 1.393 . S
C1482 H1474 0.950 . S
C1482 C1480 1.391 . S
C1482 C1483 1.400 . S
C1483 C1482 1.400 . S
C1483 C1484 1.398 . S
C1483 C1489 1.491 . S
C1484 H1475 0.950 . S
C1484 C1483 1.398 . S
C1484 C1485 1.391 . S
C1485 H1473 0.950 . S
C1485 C1481 1.393 . S
C1485 C1484 1.391 . S
C1486 H1476 0.950 . S
C1486 C1487 1.386 . S
C1486 C1488 1.391 . S
C1487 C1486 1.386 . S
C1487 C1491 1.393 . S
C1488 H1477 0.950 . S
C1488 C1486 1.391 . S
C1488 C1489 1.400 . S
C1489 C1483 1.491 . S
C1489 C1488 1.400 . S
C1489 C1490 1.398 . S
C1490 H1478 0.950 . S
C1490 C1489 1.398 . S
C1490 C1491 1.391 . S
C1491 H1479 0.950 . S
C1491 C1487 1.393 . S
C1491 C1490 1.391 . S
H1492 C1500 0.950 . S
H1493 C1505 0.950 . S
H1494 C1502 0.950 . S
H1495 C1504 0.950 . S
H1496 C1506 0.950 . S
H1497 C1508 0.950 . S
H1498 C1510 0.950 . S
H1499 C1511 0.950 . S
C1500 H1492 0.950 . S
C1500 C1501 1.386 . S
C1500 C1502 1.391 . S
C1501 C1500 1.386 . S
C1501 C1505 1.393 . S
C1502 H1494 0.950 . S
C1502 C1500 1.391 . S
C1502 C1503 1.400 . S
C1503 C1502 1.400 . S
C1503 C1504 1.398 . S
C1503 C1509 1.491 . S
C1504 H1495 0.950 . S
C1504 C1503 1.398 . S
C1504 C1505 1.391 . S
C1505 H1493 0.950 . S
C1505 C1501 1.393 . S
C1505 C1504 1.391 . S
C1506 H1496 0.950 . S
C1506 C1507 1.386 . S
C1506 C1508 1.391 . S
C1507 C1506 1.386 . S
C1507 C1511 1.393 . S
C1508 H1497 0.950 . S
C1508 C1506 1.391 . S
C1508 C1509 1.400 . S
C1509 C1503 1.491 . S
C1509 C1508 1.400 . S
C1509 C1510 1.398 . S
C1510 H1498 0.950 . S
C1510 C1509 1.398 . S
C1510 C1511 1.391 . S
C1511 H1499 0.950 . S
C1511 C1507 1.393 . S
C1511 C1510 1.391 . S
H1512 C1520 0.950 . S
H1513 C1525 0.950 . S
H1514 C1522 0.950 . S
H1515 C1524 0.950 . S
H1516 C1526 0.950 . S
H1517 C1528 0.950 . S
H1518 C1530 0.950 . S
H1519 C1531 0.950 . S
C1520 H1512 0.950 . S
C1520 C1521 1.386 . S
C1520 C1522 1.391 . S
C1521 C1520 1.386 . S
C1521 C1525 1.393 . S
C1522 H1514 0.950 . S
C1522 C1520 1.391 . S
C1522 C1523 1.400 . S
C1523 C1522 1.400 . S
C1523 C1524 1.398 . S
C1523 C1529 1.491 . S
C1524 H1515 0.950 . S
C1524 C1523 1.398 . S
C1524 C1525 1.391 . S
C1525 H1513 0.950 . S
C1525 C1521 1.393 . S
C1525 C1524 1.391 . S
C1526 H1516 0.950 . S
C1526 C1527 1.386 . S
C1526 C1528 1.391 . S
C1527 C1526 1.386 . S
C1527 C1531 1.393 . S
C1528 H1517 0.950 . S
C1528 C1526 1.391 . S
C1528 C1529 1.400 . S
C1529 C1523 1.491 . S
C1529 C1528 1.400 . S
C1529 C1530 1.398 . S
C1530 H1518 0.950 . S
C1530 C1529 1.398 . S
C1530 C1531 1.391 . S
C1531 H1519 0.950 . S
C1531 C1527 1.393 . S
C1531 C1530 1.391 . S
H1532 C1540 0.950 . S
H1533 C1545 0.950 . S
H1534 C1542 0.950 . S
H1535 C1544 0.950 . S
H1536 C1546 0.950 . S
H1537 C1548 0.950 . S
H1538 C1550 0.950 . S
H1539 C1551 0.950 . S
C1540 H1532 0.950 . S
C1540 C1541 1.386 . S
C1540 C1542 1.391 . S
C1541 C1540 1.386 . S
C1541 C1545 1.393 . S
C1542 H1534 0.950 . S
C1542 C1540 1.391 . S
C1542 C1543 1.400 . S
C1543 C1542 1.400 . S
C1543 C1544 1.398 . S
C1543 C1549 1.491 . S
C1544 H1535 0.950 . S
C1544 C1543 1.398 . S
C1544 C1545 1.391 . S
C1545 H1533 0.950 . S
C1545 C1541 1.393 . S
C1545 C1544 1.391 . S
C1546 H1536 0.950 . S
C1546 C1547 1.386 . S
C1546 C1548 1.391 . S
C1547 C1546 1.386 . S
C1547 C1551 1.393 . S
C1548 H1537 0.950 . S
C1548 C1546 1.391 . S
C1548 C1549 1.400 . S
C1549 C1543 1.491 . S
C1549 C1548 1.400 . S
C1549 C1550 1.398 . S
C1550 H1538 0.950 . S
C1550 C1549 1.398 . S
C1550 C1551 1.391 . S
C1551 H1539 0.950 . S
C1551 C1547 1.393 . S
C1551 C1550 1.391 . S
H1552 C1560 0.950 . S
H1553 C1565 0.932 1_565 S
H1554 C1562 0.950 . S
H1555 C1564 0.950 . S
H1556 C1566 0.950 . S
H1557 C1568 0.950 . S
H1558 C1570 0.950 . S
H1559 C1571 0.950 . S
C1560 H1552 0.950 . S
C1560 C1561 1.386 . S
C1560 C1562 1.391 1_565 S
C1561 C1560 1.386 . S
C1561 C1565 1.374 1_565 S
C1562 H1554 0.950 . S
C1562 C1560 1.391 1_545 S
C1562 C1563 1.400 . S
C1563 C1562 1.400 . S
C1563 C1564 1.398 . S
C1563 C1569 1.491 . S
C1564 H1555 0.950 . S
C1564 C1563 1.398 . S
C1564 C1565 1.429 . S
C1565 H1553 0.932 1_545 S
C1565 C1561 1.374 1_545 S
C1565 C1564 1.429 . S
C1566 H1556 0.950 . S
C1566 C1567 1.386 . S
C1566 C1568 1.391 . S
C1567 C1566 1.386 . S
C1567 C1571 1.393 . S
C1568 H1557 0.950 . S
C1568 C1566 1.391 . S
C1568 C1569 1.400 . S
C1569 C1563 1.491 . S
C1569 C1568 1.400 . S
C1569 C1570 1.398 . S
C1570 H1558 0.950 . S
C1570 C1569 1.398 . S
C1570 C1571 1.391 . S
C1571 H1559 0.950 . S
C1571 C1567 1.393 . S
C1571 C1570 1.391 . S
H1572 C1580 0.950 . S
H1573 C1585 0.950 . S
H1574 C1582 0.950 . S
H1575 C1584 0.950 . S
H1576 C1586 0.950 . S
H1577 C1588 0.950 . S
H1578 C1590 0.950 . S
H1579 C1591 0.950 . S
C1580 H1572 0.950 . S
C1580 C1581 1.386 . S
C1580 C1582 1.391 . S
C1581 C1580 1.386 . S
C1581 C1585 1.393 . S
C1582 H1574 0.950 . S
C1582 C1580 1.391 . S
C1582 C1583 1.400 . S
C1583 C1582 1.400 . S
C1583 C1584 1.398 . S
C1583 C1589 1.491 . S
C1584 H1575 0.950 . S
C1584 C1583 1.398 . S
C1584 C1585 1.391 . S
C1585 H1573 0.950 . S
C1585 C1581 1.393 . S
C1585 C1584 1.391 . S
C1586 H1576 0.950 . S
C1586 C1587 1.386 . S
C1586 C1588 1.391 . S
C1587 C1586 1.386 . S
C1587 C1591 1.393 . S
C1588 H1577 0.950 . S
C1588 C1586 1.391 . S
C1588 C1589 1.400 . S
C1589 C1583 1.491 . S
C1589 C1588 1.400 . S
C1589 C1590 1.398 . S
C1590 H1578 0.950 . S
C1590 C1589 1.398 . S
C1590 C1591 1.391 . S
C1591 H1579 0.950 . S
C1591 C1587 1.393 . S
C1591 C1590 1.391 . S
H1592 C1600 0.950 . S
H1593 C1605 0.950 . S
H1594 C1602 0.950 . S
H1595 C1604 0.950 . S
H1596 C1606 0.950 . S
H1597 C1608 0.950 . S
H1598 C1610 0.950 . S
H1599 C1611 0.950 . S
C1600 H1592 0.950 . S
C1600 C1601 1.386 . S
C1600 C1602 1.391 . S
C1601 C1600 1.386 . S
C1601 C1605 1.393 . S
C1602 H1594 0.950 . S
C1602 C1600 1.391 . S
C1602 C1603 1.400 . S
C1603 C1602 1.400 . S
C1603 C1604 1.398 . S
C1603 C1609 1.491 . S
C1604 H1595 0.950 . S
C1604 C1603 1.398 . S
C1604 C1605 1.391 . S
C1605 H1593 0.950 . S
C1605 C1601 1.393 . S
C1605 C1604 1.391 . S
C1606 H1596 0.950 . S
C1606 C1607 1.386 . S
C1606 C1608 1.391 . S
C1607 C1606 1.386 . S
C1607 C1611 1.393 . S
C1608 H1597 0.950 . S
C1608 C1606 1.391 . S
C1608 C1609 1.400 . S
C1609 C1603 1.491 . S
C1609 C1608 1.400 . S
C1609 C1610 1.398 . S
C1610 H1598 0.950 . S
C1610 C1609 1.398 . S
C1610 C1611 1.391 . S
C1611 H1599 0.950 . S
C1611 C1607 1.393 . S
C1611 C1610 1.391 . S
H1612 C1620 0.950 . S
H1613 C1625 0.950 . S
H1614 C1622 0.950 . S
H1615 C1624 0.950 . S
H1616 C1626 0.950 . S
H1617 C1628 0.950 . S
H1618 C1630 0.950 . S
H1619 C1631 0.950 . S
C1620 H1612 0.950 . S
C1620 C1621 1.386 . S
C1620 C1622 1.391 . S
C1621 C1620 1.386 . S
C1621 C1625 1.393 . S
C1622 H1614 0.950 . S
C1622 C1620 1.391 . S
C1622 C1623 1.400 . S
C1623 C1622 1.400 . S
C1623 C1624 1.398 . S
C1623 C1629 1.491 . S
C1624 H1615 0.950 . S
C1624 C1623 1.398 . S
C1624 C1625 1.391 . S
C1625 H1613 0.950 . S
C1625 C1621 1.393 . S
C1625 C1624 1.391 . S
C1626 H1616 0.950 . S
C1626 C1627 1.386 . S
C1626 C1628 1.391 . S
C1627 C1626 1.386 . S
C1627 C1631 1.393 . S
C1628 H1617 0.950 . S
C1628 C1626 1.391 . S
C1628 C1629 1.400 . S
C1629 C1623 1.491 . S
C1629 C1628 1.400 . S
C1629 C1630 1.398 . S
C1630 H1618 0.950 . S
C1630 C1629 1.398 . S
C1630 C1631 1.391 . S
C1631 H1619 0.950 . S
C1631 C1627 1.393 . S
C1631 C1630 1.391 . S
H1632 C1640 0.950 . S
H1633 C1645 0.950 . S
H1634 C1642 0.950 . S
H1635 C1644 0.950 . S
H1636 C1646 0.950 . S
H1637 C1648 0.950 . S
H1638 C1650 0.950 . S
H1639 C1651 0.950 . S
C1640 H1632 0.950 . S
C1640 C1641 1.386 . S
C1640 C1642 1.391 . S
C1641 C1640 1.386 . S
C1641 C1645 1.393 . S
C1642 H1634 0.950 . S
C1642 C1640 1.391 . S
C1642 C1643 1.400 . S
C1643 C1642 1.400 . S
C1643 C1644 1.398 . S
C1643 C1649 1.491 . S
C1644 H1635 0.950 . S
C1644 C1643 1.398 . S
C1644 C1645 1.391 . S
C1645 H1633 0.950 . S
C1645 C1641 1.393 . S
C1645 C1644 1.391 . S
C1646 H1636 0.950 . S
C1646 C1647 1.386 . S
C1646 C1648 1.391 . S
C1647 C1646 1.386 . S
C1647 C1651 1.393 . S
C1648 H1637 0.950 . S
C1648 C1646 1.391 . S
C1648 C1649 1.400 . S
C1649 C1643 1.491 . S
C1649 C1648 1.400 . S
C1649 C1650 1.398 . S
C1650 H1638 0.950 . S
C1650 C1649 1.398 . S
C1650 C1651 1.391 . S
C1651 H1639 0.950 . S
C1651 C1647 1.393 . S
C1651 C1650 1.391 . S
H1652 C1660 0.950 . S
H1653 C1665 0.950 . S
H1654 C1662 0.950 . S
H1655 C1664 0.950 . S
H1656 C1666 0.950 . S
H1657 C1668 0.950 . S
H1658 C1670 0.950 . S
H1659 C1671 0.950 . S
C1660 H1652 0.950 . S
C1660 C1661 1.386 . S
C1660 C1662 1.391 . S
C1661 C1660 1.386 . S
C1661 C1665 1.393 . S
C1662 H1654 0.950 . S
C1662 C1660 1.391 . S
C1662 C1663 1.400 . S
C1663 C1662 1.400 . S
C1663 C1664 1.398 . S
C1663 C1669 1.491 . S
C1664 H1655 0.950 . S
C1664 C1663 1.398 . S
C1664 C1665 1.391 . S
C1665 H1653 0.950 . S
C1665 C1661 1.393 . S
C1665 C1664 1.391 . S
C1666 H1656 0.950 . S
C1666 C1667 1.386 . S
C1666 C1668 1.391 . S
C1667 C1666 1.386 . S
C1667 C1671 1.393 . S
C1668 H1657 0.950 . S
C1668 C1666 1.391 . S
C1668 C1669 1.400 . S
C1669 C1663 1.491 . S
C1669 C1668 1.400 . S
C1669 C1670 1.398 . S
C1670 H1658 0.950 . S
C1670 C1669 1.398 . S
C1670 C1671 1.391 . S
C1671 H1659 0.950 . S
C1671 C1667 1.393 . S
C1671 C1670 1.391 . S
H1672 C1680 0.950 . S
H1673 C1685 0.950 . S
H1674 C1682 0.950 . S
H1675 C1684 0.950 . S
H1676 C1686 0.950 . S
H1677 C1688 0.950 . S
H1678 C1690 0.950 . S
H1679 C1691 0.950 . S
C1680 H1672 0.950 . S
C1680 C1681 1.386 . S
C1680 C1682 1.391 . S
C1681 C1680 1.386 . S
C1681 C1685 1.393 . S
C1682 H1674 0.950 . S
C1682 C1680 1.391 . S
C1682 C1683 1.400 . S
C1683 C1682 1.400 . S
C1683 C1684 1.398 . S
C1683 C1689 1.491 . S
C1684 H1675 0.950 . S
C1684 C1683 1.398 . S
C1684 C1685 1.391 . S
C1685 H1673 0.950 . S
C1685 C1681 1.393 . S
C1685 C1684 1.391 . S
C1686 H1676 0.950 . S
C1686 C1687 1.386 . S
C1686 C1688 1.391 . S
C1687 C1686 1.386 . S
C1687 C1691 1.393 . S
C1688 H1677 0.950 . S
C1688 C1686 1.391 . S
C1688 C1689 1.400 . S
C1689 C1683 1.491 . S
C1689 C1688 1.400 . S
C1689 C1690 1.398 . S
C1690 H1678 0.950 . S
C1690 C1689 1.398 . S
C1690 C1691 1.391 . S
C1691 H1679 0.950 . S
C1691 C1687 1.393 . S
C1691 C1690 1.391 . S
H1692 C1700 0.950 . S
H1693 C1705 0.950 . S
H1694 C1702 0.950 . S
H1695 C1704 0.950 . S
H1696 C1706 0.950 . S
H1697 C1708 0.950 . S
H1698 C1710 0.950 . S
H1699 C1711 0.950 . S
C1700 H1692 0.950 . S
C1700 C1701 1.386 . S
C1700 C1702 1.391 . S
C1701 C1700 1.386 . S
C1701 C1705 1.393 . S
C1702 H1694 0.950 . S
C1702 C1700 1.391 . S
C1702 C1703 1.400 1_655 S
C1703 C1702 1.400 1_455 S
C1703 C1704 1.398 . S
C1703 C1709 1.491 . S
C1704 H1695 0.950 . S
C1704 C1703 1.398 . S
C1704 C1705 1.391 1_455 S
C1705 H1693 0.950 . S
C1705 C1701 1.393 . S
C1705 C1704 1.391 1_655 S
C1706 H1696 0.950 . S
C1706 C1707 1.386 . S
C1706 C1708 1.391 . S
C1707 C1706 1.386 . S
C1707 C1711 1.393 . S
C1708 H1697 0.950 . S
C1708 C1706 1.391 . S
C1708 C1709 1.400 . S
C1709 C1703 1.491 . S
C1709 C1708 1.400 . S
C1709 C1710 1.398 . S
C1710 H1698 0.950 . S
C1710 C1709 1.398 . S
C1710 C1711 1.391 . S
C1711 H1699 0.950 . S
C1711 C1707 1.393 . S
C1711 C1710 1.391 . S
H1712 C1720 0.950 . S
H1713 C1725 0.950 . S
H1714 C1722 0.950 . S
H1715 C1724 0.950 . S
H1716 C1726 0.950 . S
H1717 C1728 0.950 . S
H1718 C1730 0.950 . S
H1719 C1731 0.950 . S
C1720 H1712 0.950 . S
C1720 C1721 1.386 . S
C1720 C1722 1.391 . S
C1721 C1720 1.386 . S
C1721 C1725 1.393 . S
C1722 H1714 0.950 . S
C1722 C1720 1.391 . S
C1722 C1723 1.400 . S
C1723 C1722 1.400 . S
C1723 C1724 1.398 . S
C1723 C1729 1.491 . S
C1724 H1715 0.950 . S
C1724 C1723 1.398 . S
C1724 C1725 1.391 . S
C1725 H1713 0.950 . S
C1725 C1721 1.393 . S
C1725 C1724 1.391 . S
C1726 H1716 0.950 . S
C1726 C1727 1.386 . S
C1726 C1728 1.391 . S
C1727 C1726 1.386 . S
C1727 C1731 1.393 . S
C1728 H1717 0.950 . S
C1728 C1726 1.391 . S
C1728 C1729 1.400 . S
C1729 C1723 1.491 . S
C1729 C1728 1.400 . S
C1729 C1730 1.398 . S
C1730 H1718 0.950 . S
C1730 C1729 1.398 . S
C1730 C1731 1.391 . S
C1731 H1719 0.950 . S
C1731 C1727 1.393 . S
C1731 C1730 1.391 . S
H1732 C1740 0.950 . S
H1733 C1745 0.950 . S
H1734 C1742 0.950 . S
H1735 C1744 0.950 . S
H1736 C1746 0.950 . S
H1737 C1748 0.950 1_455 S
H1738 C1750 0.921 1_455 S
H1739 C1751 0.950 . S
C1740 H1732 0.950 . S
C1740 C1741 1.386 . S
C1740 C1742 1.391 . S
C1741 C1740 1.386 . S
C1741 C1745 1.393 . S
C1742 H1734 0.950 . S
C1742 C1740 1.391 . S
C1742 C1743 1.400 . S
C1743 C1742 1.400 . S
C1743 C1744 1.398 . S
C1743 C1749 1.491 . S
C1744 H1735 0.950 . S
C1744 C1743 1.398 . S
C1744 C1745 1.391 . S
C1745 H1733 0.950 . S
C1745 C1741 1.393 . S
C1745 C1744 1.391 . S
C1746 H1736 0.950 . S
C1746 C1747 1.386 . S
C1746 C1748 1.391 . S
C1747 C1746 1.386 . S
C1747 C1751 1.393 . S
C1748 H1737 0.950 1_655 S
C1748 C1746 1.391 . S
C1748 C1749 1.400 1_655 S
C1749 C1743 1.491 . S
C1749 C1748 1.400 1_455 S
C1749 C1750 1.398 1_455 S
C1750 H1738 0.921 1_655 S
C1750 C1749 1.398 1_655 S
C1750 C1751 1.391 . S
C1751 H1739 0.950 . S
C1751 C1747 1.393 . S
C1751 C1750 1.391 . S
H1752 C1760 0.950 . S
H1753 C1765 0.950 . S
H1754 C1762 0.950 . S
H1755 C1764 0.950 . S
H1756 C1766 0.950 . S
H1757 C1768 0.950 . S
H1758 C1770 0.950 . S
H1759 C1771 0.950 . S
C1760 H1752 0.950 . S
C1760 C1761 1.386 . S
C1760 C1762 1.391 . S
C1761 C1760 1.386 . S
C1761 C1765 1.393 . S
C1762 H1754 0.950 . S
C1762 C1760 1.391 . S
C1762 C1763 1.400 . S
C1763 C1762 1.400 . S
C1763 C1764 1.398 . S
C1763 C1769 1.491 . S
C1764 H1755 0.950 . S
C1764 C1763 1.398 . S
C1764 C1765 1.391 . S
C1765 H1753 0.950 . S
C1765 C1761 1.393 . S
C1765 C1764 1.391 . S
C1766 H1756 0.950 . S
C1766 C1767 1.386 . S
C1766 C1768 1.391 . S
C1767 C1766 1.386 . S
C1767 C1771 1.393 . S
C1768 H1757 0.950 . S
C1768 C1766 1.391 . S
C1768 C1769 1.400 . S
C1769 C1763 1.491 . S
C1769 C1768 1.400 . S
C1769 C1770 1.398 . S
C1770 H1758 0.950 . S
C1770 C1769 1.398 . S
C1770 C1771 1.391 . S
C1771 H1759 0.950 . S
C1771 C1767 1.393 . S
C1771 C1770 1.391 . S
H1772 C1780 0.950 . S
H1773 C1785 0.950 . S
H1774 C1782 0.950 . S
H1775 C1784 0.950 . S
H1776 C1786 0.950 . S
H1777 C1788 0.950 . S
H1778 C1790 0.950 . S
H1779 C1791 0.950 . S
C1780 H1772 0.950 . S
C1780 C1781 1.386 . S
C1780 C1782 1.391 . S
C1781 C1780 1.386 . S
C1781 C1785 1.393 . S
C1782 H1774 0.950 . S
C1782 C1780 1.391 . S
C1782 C1783 1.400 . S
C1783 C1782 1.400 . S
C1783 C1784 1.398 . S
C1783 C1789 1.491 . S
C1784 H1775 0.950 . S
C1784 C1783 1.398 . S
C1784 C1785 1.391 . S
C1785 H1773 0.950 . S
C1785 C1781 1.393 . S
C1785 C1784 1.391 . S
C1786 H1776 0.950 . S
C1786 C1787 1.386 . S
C1786 C1788 1.391 . S
C1787 C1786 1.386 . S
C1787 C1791 1.393 . S
C1788 H1777 0.950 . S
C1788 C1786 1.391 . S
C1788 C1789 1.400 . S
C1789 C1783 1.491 . S
C1789 C1788 1.400 . S
C1789 C1790 1.398 . S
C1790 H1778 0.950 . S
C1790 C1789 1.398 . S
C1790 C1791 1.391 . S
C1791 H1779 0.950 . S
C1791 C1787 1.393 . S
C1791 C1790 1.391 . S
H1792 C1800 0.950 . S
H1793 C1805 0.950 . S
H1794 C1802 0.950 . S
H1795 C1804 0.950 . S
H1796 C1806 0.950 . S
H1797 C1808 0.950 . S
H1798 C1810 0.950 . S
H1799 C1811 0.950 . S
C1800 H1792 0.950 . S
C1800 C1801 1.386 . S
C1800 C1802 1.391 . S
C1801 C1800 1.386 . S
C1801 C1805 1.393 . S
C1802 H1794 0.950 . S
C1802 C1800 1.391 . S
C1802 C1803 1.400 . S
C1803 C1802 1.400 . S
C1803 C1804 1.398 . S
C1803 C1809 1.491 . S
C1804 H1795 0.950 . S
C1804 C1803 1.398 . S
C1804 C1805 1.391 . S
C1805 H1793 0.950 . S
C1805 C1801 1.393 . S
C1805 C1804 1.391 . S
C1806 H1796 0.950 . S
C1806 C1807 1.386 . S
C1806 C1808 1.391 . S
C1807 C1806 1.386 . S
C1807 C1811 1.393 . S
C1808 H1797 0.950 . S
C1808 C1806 1.391 . S
C1808 C1809 1.400 . S
C1809 C1803 1.491 . S
C1809 C1808 1.400 . S
C1809 C1810 1.398 . S
C1810 H1798 0.950 . S
C1810 C1809 1.398 . S
C1810 C1811 1.391 . S
C1811 H1799 0.950 . S
C1811 C1807 1.393 . S
C1811 C1810 1.391 . S
H1812 C1820 0.950 . S
H1813 C1825 0.950 . S
H1814 C1822 0.950 . S
H1815 C1824 0.950 . S
H1816 C1826 0.950 . S
H1817 C1828 0.950 . S
H1818 C1830 0.950 . S
H1819 C1831 0.950 . S
C1820 H1812 0.950 . S
C1820 C1821 1.386 . S
C1820 C1822 1.391 . S
C1821 C1820 1.386 . S
C1821 C1825 1.393 . S
C1822 H1814 0.950 . S
C1822 C1820 1.391 . S
C1822 C1823 1.400 . S
C1823 C1822 1.400 . S
C1823 C1824 1.398 . S
C1823 C1829 1.491 . S
C1824 H1815 0.950 . S
C1824 C1823 1.398 . S
C1824 C1825 1.391 . S
C1825 H1813 0.950 . S
C1825 C1821 1.393 . S
C1825 C1824 1.391 . S
C1826 H1816 0.950 . S
C1826 C1827 1.386 . S
C1826 C1828 1.391 . S
C1827 C1826 1.386 . S
C1827 C1831 1.393 . S
C1828 H1817 0.950 . S
C1828 C1826 1.391 . S
C1828 C1829 1.400 1_556 S
C1829 C1823 1.491 . S
C1829 C1828 1.400 1_554 S
C1829 C1830 1.398 . S
C1830 H1818 0.950 . S
C1830 C1829 1.398 . S
C1830 C1831 1.391 1_554 S
C1831 H1819 0.950 . S
C1831 C1827 1.393 . S
C1831 C1830 1.391 1_556 S
H1832 C1840 0.950 . S
H1833 C1845 0.950 . S
H1834 C1842 0.950 . S
H1835 C1844 0.950 . S
H1836 C1846 0.950 . S
H1837 C1848 0.950 . S
H1838 C1850 0.950 . S
H1839 C1851 0.950 . S
C1840 H1832 0.950 . S
C1840 C1841 1.386 . S
C1840 C1842 1.391 . S
C1841 C1840 1.386 . S
C1841 C1845 1.393 . S
C1842 H1834 0.950 . S
C1842 C1840 1.391 . S
C1842 C1843 1.400 . S
C1843 C1842 1.400 . S
C1843 C1844 1.398 . S
C1843 C1849 1.491 . S
C1844 H1835 0.950 . S
C1844 C1843 1.398 . S
C1844 C1845 1.391 . S
C1845 H1833 0.950 . S
C1845 C1841 1.393 . S
C1845 C1844 1.391 . S
C1846 H1836 0.950 . S
C1846 C1847 1.386 . S
C1846 C1848 1.391 . S
C1847 C1846 1.386 . S
C1847 C1851 1.393 . S
C1848 H1837 0.950 . S
C1848 C1846 1.391 . S
C1848 C1849 1.400 . S
C1849 C1843 1.491 . S
C1849 C1848 1.400 . S
C1849 C1850 1.398 . S
C1850 H1838 0.950 . S
C1850 C1849 1.398 . S
C1850 C1851 1.391 . S
C1851 H1839 0.950 . S
C1851 C1847 1.393 . S
C1851 C1850 1.391 . S
H1852 C1860 0.950 . S
H1853 C1865 0.950 . S
H1854 C1862 0.950 . S
H1855 C1864 0.950 . S
H1856 C1866 0.950 . S
H1857 C1868 0.950 . S
H1858 C1870 0.950 . S
H1859 C1871 0.950 . S
C1860 H1852 0.950 . S
C1860 C1861 1.386 . S
C1860 C1862 1.391 . S
C1861 C1860 1.386 . S
C1861 C1865 1.393 . S
C1862 H1854 0.950 . S
C1862 C1860 1.391 . S
C1862 C1863 1.400 . S
C1863 C1862 1.400 . S
C1863 C1864 1.398 . S
C1863 C1869 1.491 . S
C1864 H1855 0.950 . S
C1864 C1863 1.398 . S
C1864 C1865 1.391 . S
C1865 H1853 0.950 . S
C1865 C1861 1.393 . S
C1865 C1864 1.391 . S
C1866 H1856 0.950 . S
C1866 C1867 1.386 . S
C1866 C1868 1.391 . S
C1867 C1866 1.386 . S
C1867 C1871 1.393 . S
C1868 H1857 0.950 . S
C1868 C1866 1.391 . S
C1868 C1869 1.400 . S
C1869 C1863 1.491 . S
C1869 C1868 1.400 . S
C1869 C1870 1.398 . S
C1870 H1858 0.950 . S
C1870 C1869 1.398 . S
C1870 C1871 1.391 . S
C1871 H1859 0.950 . S
C1871 C1867 1.393 . S
C1871 C1870 1.391 . S
H1872 C1880 0.950 . S
H1873 C1885 0.950 . S
H1874 C1882 0.950 . S
H1875 C1884 0.950 . S
H1876 C1886 0.950 . S
H1877 C1888 0.950 . S
H1878 C1890 0.950 . S
H1879 C1891 0.950 . S
C1880 H1872 0.950 . S
C1880 C1881 1.386 . S
C1880 C1882 1.391 . S
C1881 C1880 1.386 . S
C1881 C1885 1.393 . S
C1882 H1874 0.950 . S
C1882 C1880 1.391 . S
C1882 C1883 1.400 . S
C1883 C1882 1.400 . S
C1883 C1884 1.398 . S
C1883 C1889 1.491 . S
C1884 H1875 0.950 . S
C1884 C1883 1.398 . S
C1884 C1885 1.391 . S
C1885 H1873 0.950 . S
C1885 C1881 1.393 . S
C1885 C1884 1.391 . S
C1886 H1876 0.950 . S
C1886 C1887 1.386 . S
C1886 C1888 1.391 . S
C1887 C1886 1.386 . S
C1887 C1891 1.393 . S
C1888 H1877 0.950 . S
C1888 C1886 1.391 . S
C1888 C1889 1.400 . S
C1889 C1883 1.491 . S
C1889 C1888 1.400 . S
C1889 C1890 1.398 . S
C1890 H1878 0.950 . S
C1890 C1889 1.398 . S
C1890 C1891 1.391 . S
C1891 H1879 0.950 . S
C1891 C1887 1.393 . S
C1891 C1890 1.391 . S
H1892 C1900 0.950 . S
H1893 C1905 0.950 . S
H1894 C1902 0.950 . S
H1895 C1904 0.950 . S
H1896 C1906 0.950 . S
H1897 C1908 0.950 . S
H1898 C1910 0.950 . S
H1899 C1911 0.950 . S
C1900 H1892 0.950 . S
C1900 C1901 1.386 . S
C1900 C1902 1.391 . S
C1901 C1900 1.386 . S
C1901 C1905 1.393 . S
C1902 H1894 0.950 . S
C1902 C1900 1.391 . S
C1902 C1903 1.400 . S
C1903 C1902 1.400 . S
C1903 C1904 1.398 . S
C1903 C1909 1.491 . S
C1904 H1895 0.950 . S
C1904 C1903 1.398 . S
C1904 C1905 1.391 . S
C1905 H1893 0.950 . S
C1905 C1901 1.393 . S
C1905 C1904 1.391 . S
C1906 H1896 0.950 . S
C1906 C1907 1.386 . S
C1906 C1908 1.391 1_554 S
C1907 C1906 1.386 . S
C1907 C1911 1.393 . S
C1908 H1897 0.950 . S
C1908 C1906 1.391 1_556 S
C1908 C1909 1.400 . S
C1909 C1903 1.491 . S
C1909 C1908 1.400 . S
C1909 C1910 1.398 . S
C1910 H1898 0.950 . S
C1910 C1909 1.398 . S
C1910 C1911 1.391 1_556 S
C1911 H1899 0.950 . S
C1911 C1907 1.393 . S
C1911 C1910 1.391 1_554 S
H1912 C1920 0.950 . S
H1913 C1925 0.950 . S
H1914 C1922 0.950 . S
H1915 C1924 0.950 . S
H1916 C1926 0.950 . S
H1917 C1928 0.950 . S
H1918 C1930 0.950 . S
H1919 C1931 0.950 . S
C1920 H1912 0.950 . S
C1920 C1921 1.386 . S
C1920 C1922 1.391 . S
C1921 C1920 1.386 . S
C1921 C1925 1.393 . S
C1922 H1914 0.950 . S
C1922 C1920 1.391 . S
C1922 C1923 1.400 . S
C1923 C1922 1.400 . S
C1923 C1924 1.398 . S
C1923 C1929 1.491 . S
C1924 H1915 0.950 . S
C1924 C1923 1.398 . S
C1924 C1925 1.391 . S
C1925 H1913 0.950 . S
C1925 C1921 1.393 . S
C1925 C1924 1.391 . S
C1926 H1916 0.950 . S
C1926 C1927 1.386 . S
C1926 C1928 1.391 . S
C1927 C1926 1.386 . S
C1927 C1931 1.393 . S
C1928 H1917 0.950 . S
C1928 C1926 1.391 . S
C1928 C1929 1.400 . S
C1929 C1923 1.491 . S
C1929 C1928 1.400 . S
C1929 C1930 1.398 . S
C1930 H1918 0.950 . S
C1930 C1929 1.398 . S
C1930 C1931 1.391 . S
C1931 H1919 0.950 . S
C1931 C1927 1.393 . S
C1931 C1930 1.391 . S
H1932 C1940 0.950 . S
H1933 C1945 0.950 . S
H1934 C1942 0.950 . S
H1935 C1944 0.950 . S
H1936 C1946 0.950 . S
H1937 C1948 0.950 . S
H1938 C1950 0.950 . S
H1939 C1951 0.950 . S
C1940 H1932 0.950 . S
C1940 C1941 1.386 . S
C1940 C1942 1.391 . S
C1941 C1940 1.386 . S
C1941 C1945 1.393 . S
C1942 H1934 0.950 . S
C1942 C1940 1.391 . S
C1942 C1943 1.400 . S
C1943 C1942 1.400 . S
C1943 C1944 1.398 . S
C1943 C1949 1.491 . S
C1944 H1935 0.950 . S
C1944 C1943 1.398 . S
C1944 C1945 1.391 . S
C1945 H1933 0.950 . S
C1945 C1941 1.393 . S
C1945 C1944 1.391 . S
C1946 H1936 0.950 . S
C1946 C1947 1.386 . S
C1946 C1948 1.391 . S
C1947 C1946 1.386 . S
C1947 C1951 1.393 . S
C1948 H1937 0.950 . S
C1948 C1946 1.391 . S
C1948 C1949 1.400 . S
C1949 C1943 1.491 . S
C1949 C1948 1.400 . S
C1949 C1950 1.398 . S
C1950 H1938 0.950 . S
C1950 C1949 1.398 . S
C1950 C1951 1.391 . S
C1951 H1939 0.950 . S
C1951 C1947 1.393 . S
C1951 C1950 1.391 . S
H1952 C1960 0.950 . S
H1953 C1965 0.950 . S
H1954 C1962 0.950 . S
H1955 C1964 0.950 . S
H1956 C1966 0.950 . S
H1957 C1968 0.950 . S
H1958 C1970 0.950 . S
H1959 C1971 0.950 . S
C1960 H1952 0.950 . S
C1960 C1961 1.386 . S
C1960 C1962 1.391 . S
C1961 C1960 1.386 . S
C1961 C1965 1.393 . S
C1962 H1954 0.950 . S
C1962 C1960 1.391 . S
C1962 C1963 1.400 . S
C1963 C1962 1.400 . S
C1963 C1964 1.398 . S
C1963 C1969 1.491 . S
C1964 H1955 0.950 . S
C1964 C1963 1.398 . S
C1964 C1965 1.391 . S
C1965 H1953 0.950 . S
C1965 C1961 1.393 . S
C1965 C1964 1.391 . S
C1966 H1956 0.950 . S
C1966 C1967 1.386 . S
C1966 C1968 1.391 . S
C1967 C1966 1.386 . S
C1967 C1971 1.393 . S
C1968 H1957 0.950 . S
C1968 C1966 1.391 . S
C1968 C1969 1.400 . S
C1969 C1963 1.491 . S
C1969 C1968 1.400 . S
C1969 C1970 1.398 . S
C1970 H1958 0.950 . S
C1970 C1969 1.398 . S
C1970 C1971 1.391 . S
C1971 H1959 0.950 . S
C1971 C1967 1.393 . S
C1971 C1970 1.391 . S
H1972 C1980 0.950 . S
H1973 C1985 0.950 . S
H1974 C1982 0.950 . S
H1975 C1984 0.950 . S
H1976 C1986 0.950 . S
H1977 C1988 0.950 . S
H1978 C1990 0.950 . S
H1979 C1991 0.950 . S
C1980 H1972 0.950 . S
C1980 C1981 1.386 . S
C1980 C1982 1.391 . S
C1981 C1980 1.386 . S
C1981 C1985 1.393 . S
C1982 H1974 0.950 . S
C1982 C1980 1.391 . S
C1982 C1983 1.400 . S
C1983 C1982 1.400 . S
C1983 C1984 1.398 . S
C1983 C1989 1.491 . S
C1984 H1975 0.950 . S
C1984 C1983 1.398 . S
C1984 C1985 1.391 . S
C1985 H1973 0.950 . S
C1985 C1981 1.393 . S
C1985 C1984 1.391 . S
C1986 H1976 0.950 . S
C1986 C1987 1.386 . S
C1986 C1988 1.391 . S
C1987 C1986 1.386 . S
C1987 C1991 1.393 . S
C1988 H1977 0.950 . S
C1988 C1986 1.391 . S
C1988 C1989 1.400 . S
C1989 C1983 1.491 . S
C1989 C1988 1.400 . S
C1989 C1990 1.398 . S
C1990 H1978 0.950 . S
C1990 C1989 1.398 . S
C1990 C1991 1.391 . S
C1991 H1979 0.950 . S
C1991 C1987 1.393 . S
C1991 C1990 1.391 . S
H1992 C2000 0.950 . S
H1993 C2005 0.950 . S
H1994 C2002 0.950 . S
H1995 C2004 0.950 . S
H1996 C2006 0.950 . S
H1997 C2008 0.950 1_545 S
H1998 C2010 0.950 . S
H1999 C2011 0.950 . S
C2000 H1992 0.950 . S
C2000 C2001 1.386 . S
C2000 C2002 1.391 . S
C2001 C2000 1.386 . S
C2001 C2005 1.393 . S
C2002 H1994 0.950 . S
C2002 C2000 1.391 . S
C2002 C2003 1.400 . S
C2003 C2002 1.400 . S
C2003 C2004 1.398 . S
C2003 C2009 1.491 . S
C2004 H1995 0.950 . S
C2004 C2003 1.398 . S
C2004 C2005 1.391 . S
C2005 H1993 0.950 . S
C2005 C2001 1.393 . S
C2005 C2004 1.391 . S
C2006 H1996 0.950 . S
C2006 C2007 1.386 . S
C2006 C2008 1.391 . S
C2007 C2006 1.386 . S
C2007 C2011 1.393 . S
C2008 H1997 0.950 1_565 S
C2008 C2006 1.391 . S
C2008 C2009 1.400 1_565 S
C2009 C2003 1.491 . S
C2009 C2008 1.400 1_545 S
C2009 C2010 1.398 1_545 S
C2010 H1998 0.950 . S
C2010 C2009 1.398 1_565 S
C2010 C2011 1.391 . S
C2011 H1999 0.950 . S
C2011 C2007 1.393 . S
C2011 C2010 1.391 . S
H2012 C2020 0.950 . S
H2013 C2025 0.950 . S
H2014 C2022 0.950 . S
H2015 C2024 0.950 . S
H2016 C2026 0.950 . S
H2017 C2028 0.950 . S
H2018 C2030 0.950 . S
H2019 C2031 0.950 . S
C2020 H2012 0.950 . S
C2020 C2021 1.386 . S
C2020 C2022 1.391 . S
C2021 C2020 1.386 . S
C2021 C2025 1.393 . S
C2022 H2014 0.950 . S
C2022 C2020 1.391 . S
C2022 C2023 1.400 . S
C2023 C2022 1.400 . S
C2023 C2024 1.398 . S
C2023 C2029 1.491 . S
C2024 H2015 0.950 . S
C2024 C2023 1.398 . S
C2024 C2025 1.391 . S
C2025 H2013 0.950 . S
C2025 C2021 1.393 . S
C2025 C2024 1.391 . S
C2026 H2016 0.950 . S
C2026 C2027 1.386 . S
C2026 C2028 1.391 . S
C2027 C2026 1.386 . S
C2027 C2031 1.393 . S
C2028 H2017 0.950 . S
C2028 C2026 1.391 . S
C2028 C2029 1.400 . S
C2029 C2023 1.491 . S
C2029 C2028 1.400 . S
C2029 C2030 1.398 . S
C2030 H2018 0.950 . S
C2030 C2029 1.398 . S
C2030 C2031 1.391 . S
C2031 H2019 0.950 . S
C2031 C2027 1.393 . S
C2031 C2030 1.391 . S
H2032 C2040 0.950 . S
H2033 C2045 0.950 . S
H2034 C2042 0.950 . S
H2035 C2044 0.950 . S
H2036 C2046 0.950 . S
H2037 C2048 0.950 . S
H2038 C2050 0.950 . S
H2039 C2051 0.950 . S
C2040 H2032 0.950 . S
C2040 C2041 1.386 . S
C2040 C2042 1.391 . S
C2041 C2040 1.386 . S
C2041 C2045 1.393 . S
C2042 H2034 0.950 . S
C2042 C2040 1.391 . S
C2042 C2043 1.400 . S
C2043 C2042 1.400 . S
C2043 C2044 1.398 . S
C2043 C2049 1.491 . S
C2044 H2035 0.950 . S
C2044 C2043 1.398 . S
C2044 C2045 1.391 . S
C2045 H2033 0.950 . S
C2045 C2041 1.393 . S
C2045 C2044 1.391 . S
C2046 H2036 0.950 . S
C2046 C2047 1.386 . S
C2046 C2048 1.391 . S
C2047 C2046 1.386 . S
C2047 C2051 1.393 . S
C2048 H2037 0.950 . S
C2048 C2046 1.391 . S
C2048 C2049 1.400 . S
C2049 C2043 1.491 . S
C2049 C2048 1.400 . S
C2049 C2050 1.398 . S
C2050 H2038 0.950 . S
C2050 C2049 1.398 . S
C2050 C2051 1.391 . S
C2051 H2039 0.950 . S
C2051 C2047 1.393 . S
C2051 C2050 1.391 . S
H2052 C2060 0.950 . S
H2053 C2065 0.950 . S
H2054 C2062 0.950 . S
H2055 C2064 0.950 . S
H2056 C2066 0.950 . S
H2057 C2068 0.950 . S
H2058 C2070 0.950 . S
H2059 C2071 0.950 . S
C2060 H2052 0.950 . S
C2060 C2061 1.386 . S
C2060 C2062 1.391 . S
C2061 C2060 1.386 . S
C2061 C2065 1.393 . S
C2062 H2054 0.950 . S
C2062 C2060 1.391 . S
C2062 C2063 1.400 . S
C2063 C2062 1.400 . S
C2063 C2064 1.398 . S
C2063 C2069 1.491 . S
C2064 H2055 0.950 . S
C2064 C2063 1.398 . S
C2064 C2065 1.391 . S
C2065 H2053 0.950 . S
C2065 C2061 1.393 . S
C2065 C2064 1.391 . S
C2066 H2056 0.950 . S
C2066 C2067 1.386 . S
C2066 C2068 1.391 . S
C2067 C2066 1.386 . S
C2067 C2071 1.393 . S
C2068 H2057 0.950 . S
C2068 C2066 1.391 . S
C2068 C2069 1.400 . S
C2069 C2063 1.491 . S
C2069 C2068 1.400 . S
C2069 C2070 1.398 . S
C2070 H2058 0.950 . S
C2070 C2069 1.398 . S
C2070 C2071 1.391 . S
C2071 H2059 0.950 . S
C2071 C2067 1.393 . S
C2071 C2070 1.391 . S
H2072 C2080 0.950 . S
H2073 C2085 0.950 . S
H2074 C2082 0.935 1_565 S
H2075 C2084 0.950 1_565 S
H2076 C2086 0.950 . S
H2077 C2088 0.950 . S
H2078 C2090 0.950 . S
H2079 C2091 0.950 . S
C2080 H2072 0.950 . S
C2080 C2081 1.386 . S
C2080 C2082 1.413 . S
C2081 C2080 1.386 . S
C2081 C2085 1.393 . S
C2082 H2074 0.935 1_545 S
C2082 C2080 1.413 . S
C2082 C2083 1.393 1_545 S
C2083 C2082 1.393 1_565 S
C2083 C2084 1.398 1_565 S
C2083 C2089 1.491 . S
C2084 H2075 0.950 1_545 S
C2084 C2083 1.398 1_545 S
C2084 C2085 1.391 . S
C2085 H2073 0.950 . S
C2085 C2081 1.393 . S
C2085 C2084 1.391 . S
C2086 H2076 0.950 . S
C2086 C2087 1.386 . S
C2086 C2088 1.391 . S
C2087 C2086 1.386 . S
C2087 C2091 1.393 . S
C2088 H2077 0.950 . S
C2088 C2086 1.391 . S
C2088 C2089 1.400 . S
C2089 C2083 1.491 . S
C2089 C2088 1.400 . S
C2089 C2090 1.398 . S
C2090 H2078 0.950 . S
C2090 C2089 1.398 . S
C2090 C2091 1.391 . S
C2091 H2079 0.950 . S
C2091 C2087 1.393 . S
C2091 C2090 1.391 . S
H2092 C2100 0.950 . S
H2093 C2105 0.950 . S
H2094 C2102 0.950 . S
H2095 C2104 0.950 . S
H2096 C2106 0.950 . S
H2097 C2108 0.950 . S
H2098 C2110 0.950 1_545 S
H2099 C2111 0.950 . S
C2100 H2092 0.950 . S
C2100 C2101 1.386 . S
C2100 C2102 1.391 . S
C2101 C2100 1.386 . S
C2101 C2105 1.393 . S
C2102 H2094 0.950 . S
C2102 C2100 1.391 . S
C2102 C2103 1.400 . S
C2103 C2102 1.400 . S
C2103 C2104 1.398 . S
C2103 C2109 1.491 . S
C2104 H2095 0.950 . S
C2104 C2103 1.398 . S
C2104 C2105 1.391 . S
C2105 H2093 0.950 . S
C2105 C2101 1.393 . S
C2105 C2104 1.391 . S
C2106 H2096 0.950 . S
C2106 C2107 1.386 . S
C2106 C2108 1.391 . S
C2107 C2106 1.386 . S
C2107 C2111 1.393 . S
C2108 H2097 0.950 . S
C2108 C2106 1.391 . S
C2108 C2109 1.400 1_565 S
C2109 C2103 1.491 . S
C2109 C2108 1.400 1_545 S
C2109 C2110 1.398 1_545 S
C2110 H2098 0.950 1_565 S
C2110 C2109 1.398 1_565 S
C2110 C2111 1.391 . S
C2111 H2099 0.950 . S
C2111 C2107 1.393 . S
C2111 C2110 1.391 . S
H2112 C2120 0.950 . S
H2113 C2125 0.950 . S
H2114 C2122 0.950 . S
H2115 C2124 0.950 . S
H2116 C2126 0.950 . S
H2117 C2128 0.950 . S
H2118 C2130 0.950 . S
H2119 C2131 0.950 . S
C2120 H2112 0.950 . S
C2120 C2121 1.386 . S
C2120 C2122 1.391 . S
C2121 C2120 1.386 . S
C2121 C2125 1.393 . S
C2122 H2114 0.950 . S
C2122 C2120 1.391 . S
C2122 C2123 1.400 . S
C2123 C2122 1.400 . S
C2123 C2124 1.398 . S
C2123 C2129 1.491 . S
C2124 H2115 0.950 . S
C2124 C2123 1.398 . S
C2124 C2125 1.391 . S
C2125 H2113 0.950 . S
C2125 C2121 1.393 . S
C2125 C2124 1.391 . S
C2126 H2116 0.950 . S
C2126 C2127 1.386 . S
C2126 C2128 1.391 . S
C2127 C2126 1.386 . S
C2127 C2131 1.393 . S
C2128 H2117 0.950 . S
C2128 C2126 1.391 . S
C2128 C2129 1.400 . S
C2129 C2123 1.491 . S
C2129 C2128 1.400 . S
C2129 C2130 1.398 . S
C2130 H2118 0.950 . S
C2130 C2129 1.398 . S
C2130 C2131 1.391 . S
C2131 H2119 0.950 . S
C2131 C2127 1.393 . S
C2131 C2130 1.391 . S
H2132 C2140 0.950 . S
H2133 C2145 0.950 . S
H2134 C2142 0.950 . S
H2135 C2144 0.950 . S
H2136 C2146 0.950 . S
H2137 C2148 0.950 . S
H2138 C2150 0.950 . S
H2139 C2151 0.950 . S
C2140 H2132 0.950 . S
C2140 C2141 1.386 . S
C2140 C2142 1.391 . S
C2141 C2140 1.386 . S
C2141 C2145 1.393 . S
C2142 H2134 0.950 . S
C2142 C2140 1.391 . S
C2142 C2143 1.400 . S
C2143 C2142 1.400 . S
C2143 C2144 1.398 . S
C2143 C2149 1.491 . S
C2144 H2135 0.950 . S
C2144 C2143 1.398 . S
C2144 C2145 1.391 . S
C2145 H2133 0.950 . S
C2145 C2141 1.393 . S
C2145 C2144 1.391 . S
C2146 H2136 0.950 . S
C2146 C2147 1.386 . S
C2146 C2148 1.391 . S
C2147 C2146 1.386 . S
C2147 C2151 1.393 . S
C2148 H2137 0.950 . S
C2148 C2146 1.391 . S
C2148 C2149 1.400 . S
C2149 C2143 1.491 . S
C2149 C2148 1.400 . S
C2149 C2150 1.398 . S
C2150 H2138 0.950 . S
C2150 C2149 1.398 . S
C2150 C2151 1.391 . S
C2151 H2139 0.950 . S
C2151 C2147 1.393 . S
C2151 C2150 1.391 . S
H2152 C2160 0.950 . S
H2153 C2165 0.950 . S
H2154 C2162 0.950 . S
H2155 C2164 0.950 . S
H2156 C2166 0.950 . S
H2157 C2168 0.950 . S
H2158 C2170 0.950 . S
H2159 C2171 0.950 . S
C2160 H2152 0.950 . S
C2160 C2161 1.386 . S
C2160 C2162 1.391 . S
C2161 C2160 1.386 . S
C2161 C2165 1.393 . S
C2162 H2154 0.950 . S
C2162 C2160 1.391 . S
C2162 C2163 1.400 . S
C2163 C2162 1.400 . S
C2163 C2164 1.398 . S
C2163 C2169 1.491 . S
C2164 H2155 0.950 . S
C2164 C2163 1.398 . S
C2164 C2165 1.391 . S
C2165 H2153 0.950 . S
C2165 C2161 1.393 . S
C2165 C2164 1.391 . S
C2166 H2156 0.950 . S
C2166 C2167 1.386 . S
C2166 C2168 1.391 . S
C2167 C2166 1.386 . S
C2167 C2171 1.393 . S
C2168 H2157 0.950 . S
C2168 C2166 1.391 . S
C2168 C2169 1.400 . S
C2169 C2163 1.491 . S
C2169 C2168 1.400 . S
C2169 C2170 1.398 . S
C2170 H2158 0.950 . S
C2170 C2169 1.398 . S
C2170 C2171 1.391 . S
C2171 H2159 0.950 . S
C2171 C2167 1.393 . S
C2171 C2170 1.391 . S
H2172 C2180 0.950 . S
H2173 C2185 0.950 . S
H2174 C2182 0.950 . S
H2175 C2184 0.950 . S
H2176 C2186 0.950 . S
H2177 C2188 0.950 . S
H2178 C2190 0.950 . S
H2179 C2191 0.950 . S
C2180 H2172 0.950 . S
C2180 C2181 1.386 . S
C2180 C2182 1.391 1_455 S
C2181 C2180 1.386 . S
C2181 C2185 1.393 . S
C2182 H2174 0.950 . S
C2182 C2180 1.391 1_655 S
C2182 C2183 1.400 . S
C2183 C2182 1.400 . S
C2183 C2184 1.398 . S
C2183 C2189 1.491 . S
C2184 H2175 0.950 . S
C2184 C2183 1.398 . S
C2184 C2185 1.391 1_655 S
C2185 H2173 0.950 . S
C2185 C2181 1.393 . S
C2185 C2184 1.391 1_455 S
C2186 H2176 0.950 . S
C2186 C2187 1.386 . S
C2186 C2188 1.391 . S
C2187 C2186 1.386 . S
C2187 C2191 1.393 . S
C2188 H2177 0.950 . S
C2188 C2186 1.391 . S
C2188 C2189 1.400 . S
C2189 C2183 1.491 . S
C2189 C2188 1.400 . S
C2189 C2190 1.398 . S
C2190 H2178 0.950 . S
C2190 C2189 1.398 . S
C2190 C2191 1.391 . S
C2191 H2179 0.950 . S
C2191 C2187 1.393 . S
C2191 C2190 1.391 . S
H2192 C2200 0.950 . S
H2193 C2205 0.950 . S
H2194 C2202 0.950 . S
H2195 C2204 0.950 . S
H2196 C2206 0.950 . S
H2197 C2208 0.950 . S
H2198 C2210 0.950 . S
H2199 C2211 0.950 . S
C2200 H2192 0.950 . S
C2200 C2201 1.386 . S
C2200 C2202 1.391 . S
C2201 C2200 1.386 . S
C2201 C2205 1.393 . S
C2202 H2194 0.950 . S
C2202 C2200 1.391 . S
C2202 C2203 1.400 . S
C2203 C2202 1.400 . S
C2203 C2204 1.398 . S
C2203 C2209 1.491 . S
C2204 H2195 0.950 . S
C2204 C2203 1.398 . S
C2204 C2205 1.391 . S
C2205 H2193 0.950 . S
C2205 C2201 1.393 . S
C2205 C2204 1.391 . S
C2206 H2196 0.950 . S
C2206 C2207 1.386 . S
C2206 C2208 1.391 . S
C2207 C2206 1.386 . S
C2207 C2211 1.393 . S
C2208 H2197 0.950 . S
C2208 C2206 1.391 . S
C2208 C2209 1.400 . S
C2209 C2203 1.491 . S
C2209 C2208 1.400 . S
C2209 C2210 1.398 . S
C2210 H2198 0.950 . S
C2210 C2209 1.398 . S
C2210 C2211 1.391 . S
C2211 H2199 0.950 . S
C2211 C2207 1.393 . S
C2211 C2210 1.391 . S
H2212 C2220 0.950 . S
H2213 C2225 0.950 . S
H2214 C2222 0.950 . S
H2215 C2224 0.950 . S
H2216 C2226 0.950 . S
H2217 C2228 0.950 . S
H2218 C2230 0.950 . S
H2219 C2231 0.950 . S
C2220 H2212 0.950 . S
C2220 C2221 1.386 . S
C2220 C2222 1.391 . S
C2221 C2220 1.386 . S
C2221 C2225 1.393 . S
C2222 H2214 0.950 . S
C2222 C2220 1.391 . S
C2222 C2223 1.400 . S
C2223 C2222 1.400 . S
C2223 C2224 1.398 . S
C2223 C2229 1.491 1_455 S
C2224 H2215 0.950 . S
C2224 C2223 1.398 . S
C2224 C2225 1.391 . S
C2225 H2213 0.950 . S
C2225 C2221 1.393 . S
C2225 C2224 1.391 . S
C2226 H2216 0.950 . S
C2226 C2227 1.386 . S
C2226 C2228 1.391 . S
C2227 C2226 1.386 . S
C2227 C2231 1.393 . S
C2228 H2217 0.950 . S
C2228 C2226 1.391 . S
C2228 C2229 1.400 . S
C2229 C2223 1.491 1_655 S
C2229 C2228 1.400 . S
C2229 C2230 1.398 . S
C2230 H2218 0.950 . S
C2230 C2229 1.398 . S
C2230 C2231 1.391 . S
C2231 H2219 0.950 . S
C2231 C2227 1.393 . S
C2231 C2230 1.391 . S
H2232 C2240 0.950 . S
H2233 C2245 0.950 . S
H2234 C2242 0.950 . S
H2235 C2244 0.950 . S
H2236 C2246 0.950 . S
H2237 C2248 0.950 . S
H2238 C2250 0.950 . S
H2239 C2251 0.950 . S
C2240 H2232 0.950 . S
C2240 C2241 1.386 . S
C2240 C2242 1.391 . S
C2241 C2240 1.386 . S
C2241 C2245 1.393 . S
C2242 H2234 0.950 . S
C2242 C2240 1.391 . S
C2242 C2243 1.400 . S
C2243 C2242 1.400 . S
C2243 C2244 1.398 . S
C2243 C2249 1.491 . S
C2244 H2235 0.950 . S
C2244 C2243 1.398 . S
C2244 C2245 1.391 . S
C2245 H2233 0.950 . S
C2245 C2241 1.393 . S
C2245 C2244 1.391 . S
C2246 H2236 0.950 . S
C2246 C2247 1.386 . S
C2246 C2248 1.391 . S
C2247 C2246 1.386 . S
C2247 C2251 1.393 . S
C2248 H2237 0.950 . S
C2248 C2246 1.391 . S
C2248 C2249 1.400 . S
C2249 C2243 1.491 . S
C2249 C2248 1.400 . S
C2249 C2250 1.398 . S
C2250 H2238 0.950 . S
C2250 C2249 1.398 . S
C2250 C2251 1.391 . S
C2251 H2239 0.950 . S
C2251 C2247 1.393 . S
C2251 C2250 1.391 . S
H2252 C2260 0.950 . S
H2253 C2265 0.950 . S
H2254 C2262 0.950 . S
H2255 C2264 0.950 . S
H2256 C2266 0.950 . S
H2257 C2268 0.950 . S
H2258 C2270 0.950 . S
H2259 C2271 0.950 . S
C2260 H2252 0.950 . S
C2260 C2261 1.386 . S
C2260 C2262 1.391 . S
C2261 C2260 1.386 . S
C2261 C2265 1.393 . S
C2262 H2254 0.950 . S
C2262 C2260 1.391 . S
C2262 C2263 1.400 . S
C2263 C2262 1.400 . S
C2263 C2264 1.398 . S
C2263 C2269 1.491 . S
C2264 H2255 0.950 . S
C2264 C2263 1.398 . S
C2264 C2265 1.391 . S
C2265 H2253 0.950 . S
C2265 C2261 1.393 . S
C2265 C2264 1.391 . S
C2266 H2256 0.950 . S
C2266 C2267 1.386 . S
C2266 C2268 1.391 . S
C2267 C2266 1.386 . S
C2267 C2271 1.393 . S
C2268 H2257 0.950 . S
C2268 C2266 1.391 . S
C2268 C2269 1.400 . S
C2269 C2263 1.491 . S
C2269 C2268 1.400 . S
C2269 C2270 1.398 . S
C2270 H2258 0.950 . S
C2270 C2269 1.398 . S
C2270 C2271 1.391 . S
C2271 H2259 0.950 . S
C2271 C2267 1.393 . S
C2271 C2270 1.391 . S
H2272 C2280 0.950 . S
H2273 C2285 0.950 . S
H2274 C2282 0.950 . S
H2275 C2284 0.950 . S
H2276 C2286 0.950 . S
H2277 C2288 0.950 . S
H2278 C2290 0.950 . S
H2279 C2291 0.950 . S
C2280 H2272 0.950 . S
C2280 C2281 1.386 . S
C2280 C2282 1.391 . S
C2281 C2280 1.386 . S
C2281 C2285 1.393 . S
C2282 H2274 0.950 . S
C2282 C2280 1.391 . S
C2282 C2283 1.400 . S
C2283 C2282 1.400 . S
C2283 C2284 1.398 . S
C2283 C2289 1.491 . S
C2284 H2275 0.950 . S
C2284 C2283 1.398 . S
C2284 C2285 1.391 . S
C2285 H2273 0.950 . S
C2285 C2281 1.393 . S
C2285 C2284 1.391 . S
C2286 H2276 0.950 . S
C2286 C2287 1.386 . S
C2286 C2288 1.391 . S
C2287 C2286 1.386 . S
C2287 C2291 1.393 . S
C2288 H2277 0.950 . S
C2288 C2286 1.391 . S
C2288 C2289 1.400 . S
C2289 C2283 1.491 . S
C2289 C2288 1.400 . S
C2289 C2290 1.398 . S
C2290 H2278 0.950 . S
C2290 C2289 1.398 . S
C2290 C2291 1.391 . S
C2291 H2279 0.950 . S
C2291 C2287 1.393 . S
C2291 C2290 1.391 . S
H2292 C2300 0.950 . S
H2293 C2305 0.950 . S
H2294 C2302 0.950 . S
H2295 C2304 0.950 . S
H2296 C2306 0.950 . S
H2297 C2308 0.950 . S
H2298 C2310 0.953 1_556 S
H2299 C2311 0.950 . S
C2300 H2292 0.950 . S
C2300 C2301 1.386 . S
C2300 C2302 1.391 . S
C2301 C2300 1.386 . S
C2301 C2305 1.393 . S
C2302 H2294 0.950 . S
C2302 C2300 1.391 . S
C2302 C2303 1.400 . S
C2303 C2302 1.400 . S
C2303 C2304 1.398 . S
C2303 C2309 1.491 1_556 S
C2304 H2295 0.950 . S
C2304 C2303 1.398 . S
C2304 C2305 1.391 . S
C2305 H2293 0.950 . S
C2305 C2301 1.393 . S
C2305 C2304 1.391 . S
C2306 H2296 0.950 . S
C2306 C2307 1.386 . S
C2306 C2308 1.391 . S
C2307 C2306 1.386 . S
C2307 C2311 1.393 . S
C2308 H2297 0.950 . S
C2308 C2306 1.391 . S
C2308 C2309 1.400 . S
C2309 C2303 1.491 1_554 S
C2309 C2308 1.400 . S
C2309 C2310 1.398 . S
C2310 H2298 0.953 1_554 S
C2310 C2309 1.398 . S
C2310 C2311 1.391 . S
C2311 H2299 0.950 . S
C2311 C2307 1.393 . S
C2311 C2310 1.391 . S
H2312 C2320 0.950 . S
H2313 C2325 0.950 . S
H2314 C2322 0.950 . S
H2315 C2324 0.950 . S
H2316 C2326 0.950 . S
H2317 C2328 0.950 . S
H2318 C2330 0.950 . S
H2319 C2331 0.950 . S
C2320 H2312 0.950 . S
C2320 C2321 1.386 . S
C2320 C2322 1.391 . S
C2321 C2320 1.386 . S
C2321 C2325 1.393 . S
C2322 H2314 0.950 . S
C2322 C2320 1.391 . S
C2322 C2323 1.400 . S
C2323 C2322 1.400 . S
C2323 C2324 1.398 . S
C2323 C2329 1.491 . S
C2324 H2315 0.950 . S
C2324 C2323 1.398 . S
C2324 C2325 1.391 . S
C2325 H2313 0.950 . S
C2325 C2321 1.393 . S
C2325 C2324 1.391 . S
C2326 H2316 0.950 . S
C2326 C2327 1.386 . S
C2326 C2328 1.391 . S
C2327 C2326 1.386 . S
C2327 C2331 1.393 . S
C2328 H2317 0.950 . S
C2328 C2326 1.391 . S
C2328 C2329 1.400 . S
C2329 C2323 1.491 . S
C2329 C2328 1.400 . S
C2329 C2330 1.398 . S
C2330 H2318 0.950 . S
C2330 C2329 1.398 . S
C2330 C2331 1.391 . S
C2331 H2319 0.950 . S
C2331 C2327 1.393 . S
C2331 C2330 1.391 . S
H2332 C2340 0.950 . S
H2333 C2345 0.950 . S
H2334 C2342 0.950 . S
H2335 C2344 0.950 . S
H2336 C2346 0.950 . S
H2337 C2348 0.950 . S
H2338 C2350 0.950 . S
H2339 C2351 0.950 . S
C2340 H2332 0.950 . S
C2340 C2341 1.386 . S
C2340 C2342 1.391 . S
C2341 C2340 1.386 . S
C2341 C2345 1.393 . S
C2342 H2334 0.950 . S
C2342 C2340 1.391 . S
C2342 C2343 1.400 . S
C2343 C2342 1.400 . S
C2343 C2344 1.398 . S
C2343 C2349 1.491 . S
C2344 H2335 0.950 . S
C2344 C2343 1.398 . S
C2344 C2345 1.391 . S
C2345 H2333 0.950 . S
C2345 C2341 1.393 . S
C2345 C2344 1.391 . S
C2346 H2336 0.950 . S
C2346 C2347 1.386 . S
C2346 C2348 1.391 . S
C2347 C2346 1.386 . S
C2347 C2351 1.393 . S
C2348 H2337 0.950 . S
C2348 C2346 1.391 . S
C2348 C2349 1.400 . S
C2349 C2343 1.491 . S
C2349 C2348 1.400 . S
C2349 C2350 1.398 . S
C2350 H2338 0.950 . S
C2350 C2349 1.398 . S
C2350 C2351 1.391 . S
C2351 H2339 0.950 . S
C2351 C2347 1.393 . S
C2351 C2350 1.391 . S
H2352 C2360 0.950 . S
H2353 C2365 0.950 . S
H2354 C2362 0.950 . S
H2355 C2364 0.950 . S
H2356 C2366 0.950 . S
H2357 C2368 0.950 . S
H2358 C2370 0.950 . S
H2359 C2371 0.950 . S
C2360 H2352 0.950 . S
C2360 C2361 1.386 . S
C2360 C2362 1.391 . S
C2361 C2360 1.386 . S
C2361 C2365 1.393 . S
C2362 H2354 0.950 . S
C2362 C2360 1.391 . S
C2362 C2363 1.400 . S
C2363 C2362 1.400 . S
C2363 C2364 1.398 . S
C2363 C2369 1.491 . S
C2364 H2355 0.950 . S
C2364 C2363 1.398 . S
C2364 C2365 1.391 . S
C2365 H2353 0.950 . S
C2365 C2361 1.393 . S
C2365 C2364 1.391 . S
C2366 H2356 0.950 . S
C2366 C2367 1.386 . S
C2366 C2368 1.391 . S
C2367 C2366 1.386 . S
C2367 C2371 1.393 . S
C2368 H2357 0.950 . S
C2368 C2366 1.391 . S
C2368 C2369 1.400 . S
C2369 C2363 1.491 . S
C2369 C2368 1.400 . S
C2369 C2370 1.398 . S
C2370 H2358 0.950 . S
C2370 C2369 1.398 . S
C2370 C2371 1.391 . S
C2371 H2359 0.950 . S
C2371 C2367 1.393 . S
C2371 C2370 1.391 . S
H2372 C2380 0.950 . S
H2373 C2385 0.950 . S
H2374 C2382 0.950 . S
H2375 C2384 0.950 . S
H2376 C2386 0.950 . S
H2377 C2388 0.950 . S
H2378 C2390 0.950 1_554 S
H2379 C2391 0.950 . S
C2380 H2372 0.950 . S
C2380 C2381 1.386 . S
C2380 C2382 1.391 . S
C2381 C2380 1.386 . S
C2381 C2385 1.393 . S
C2382 H2374 0.950 . S
C2382 C2380 1.391 . S
C2382 C2383 1.400 . S
C2383 C2382 1.400 . S
C2383 C2384 1.398 . S
C2383 C2389 1.491 . S
C2384 H2375 0.950 . S
C2384 C2383 1.398 . S
C2384 C2385 1.391 . S
C2385 H2373 0.950 . S
C2385 C2381 1.393 . S
C2385 C2384 1.391 . S
C2386 H2376 0.950 . S
C2386 C2387 1.386 . S
C2386 C2388 1.391 1_556 S
C2387 C2386 1.386 . S
C2387 C2391 1.393 . S
C2388 H2377 0.950 . S
C2388 C2386 1.391 1_554 S
C2388 C2389 1.400 . S
C2389 C2383 1.491 . S
C2389 C2388 1.400 . S
C2389 C2390 1.398 1_554 S
C2390 H2378 0.950 1_556 S
C2390 C2389 1.398 1_556 S
C2390 C2391 1.391 . S
C2391 H2379 0.950 . S
C2391 C2387 1.393 . S
C2391 C2390 1.391 . S
H2392 C2400 0.950 . S
H2393 C2405 0.950 . S
H2394 C2402 0.950 . S
H2395 C2404 0.950 . S
H2396 C2406 0.950 . S
H2397 C2408 0.950 . S
H2398 C2410 0.950 . S
H2399 C2411 0.950 . S
C2400 H2392 0.950 . S
C2400 C2401 1.386 . S
C2400 C2402 1.391 . S
C2401 C2400 1.386 . S
C2401 C2405 1.393 . S
C2402 H2394 0.950 . S
C2402 C2400 1.391 . S
C2402 C2403 1.400 . S
C2403 C2402 1.400 . S
C2403 C2404 1.398 . S
C2403 C2409 1.491 . S
C2404 H2395 0.950 . S
C2404 C2403 1.398 . S
C2404 C2405 1.391 . S
C2405 H2393 0.950 . S
C2405 C2401 1.393 . S
C2405 C2404 1.391 . S
C2406 H2396 0.950 . S
C2406 C2407 1.386 . S
C2406 C2408 1.391 . S
C2407 C2406 1.386 . S
C2407 C2411 1.393 . S
C2408 H2397 0.950 . S
C2408 C2406 1.391 . S
C2408 C2409 1.400 . S
C2409 C2403 1.491 . S
C2409 C2408 1.400 . S
C2409 C2410 1.398 . S
C2410 H2398 0.950 . S
C2410 C2409 1.398 . S
C2410 C2411 1.391 . S
C2411 H2399 0.950 . S
C2411 C2407 1.393 . S
C2411 C2410 1.391 . S
H2412 C2420 0.950 . S
H2413 C2425 0.950 . S
H2414 C2422 0.950 . S
H2415 C2424 0.950 . S
H2416 C2426 0.950 . S
H2417 C2428 0.950 . S
H2418 C2430 0.950 . S
H2419 C2431 0.950 . S
C2420 H2412 0.950 . S
C2420 C2421 1.386 . S
C2420 C2422 1.391 . S
C2421 C2420 1.386 . S
C2421 C2425 1.393 . S
C2422 H2414 0.950 . S
C2422 C2420 1.391 . S
C2422 C2423 1.400 . S
C2423 C2422 1.400 . S
C2423 C2424 1.398 . S
C2423 C2429 1.491 . S
C2424 H2415 0.950 . S
C2424 C2423 1.398 . S
C2424 C2425 1.391 . S
C2425 H2413 0.950 . S
C2425 C2421 1.393 . S
C2425 C2424 1.391 . S
C2426 H2416 0.950 . S
C2426 C2427 1.386 . S
C2426 C2428 1.391 . S
C2427 C2426 1.386 . S
C2427 C2431 1.393 . S
C2428 H2417 0.950 . S
C2428 C2426 1.391 . S
C2428 C2429 1.400 . S
C2429 C2423 1.491 . S
C2429 C2428 1.400 . S
C2429 C2430 1.398 . S
C2430 H2418 0.950 . S
C2430 C2429 1.398 . S
C2430 C2431 1.391 . S
C2431 H2419 0.950 . S
C2431 C2427 1.393 . S
C2431 C2430 1.391 . S
H2432 C2440 0.950 . S
H2433 C2445 0.950 . S
H2434 C2442 0.950 . S
H2435 C2444 0.950 . S
H2436 C2446 0.950 . S
H2437 C2448 0.950 . S
H2438 C2450 0.950 . S
H2439 C2451 0.950 . S
C2440 H2432 0.950 . S
C2440 C2441 1.386 . S
C2440 C2442 1.391 . S
C2441 C2440 1.386 . S
C2441 C2445 1.393 . S
C2442 H2434 0.950 . S
C2442 C2440 1.391 . S
C2442 C2443 1.400 . S
C2443 C2442 1.400 . S
C2443 C2444 1.398 . S
C2443 C2449 1.491 . S
C2444 H2435 0.950 . S
C2444 C2443 1.398 . S
C2444 C2445 1.391 . S
C2445 H2433 0.950 . S
C2445 C2441 1.393 . S
C2445 C2444 1.391 . S
C2446 H2436 0.950 . S
C2446 C2447 1.386 . S
C2446 C2448 1.391 . S
C2447 C2446 1.386 . S
C2447 C2451 1.393 . S
C2448 H2437 0.950 . S
C2448 C2446 1.391 . S
C2448 C2449 1.400 . S
C2449 C2443 1.491 . S
C2449 C2448 1.400 . S
C2449 C2450 1.398 . S
C2450 H2438 0.950 . S
C2450 C2449 1.398 . S
C2450 C2451 1.391 . S
C2451 H2439 0.950 . S
C2451 C2447 1.393 . S
C2451 C2450 1.391 . S
H2452 C2460 0.950 . S
H2453 C2465 0.950 . S
H2454 C2462 0.950 . S
H2455 C2464 0.950 . S
H2456 C2466 0.950 . S
H2457 C2468 0.950 . S
H2458 C2470 0.950 . S
H2459 C2471 0.950 . S
C2460 H2452 0.950 . S
C2460 C2461 1.386 . S
C2460 C2462 1.391 . S
C2461 C2460 1.386 . S
C2461 C2465 1.393 . S
C2462 H2454 0.950 . S
C2462 C2460 1.391 . S
C2462 C2463 1.400 . S
C2463 C2462 1.400 . S
C2463 C2464 1.398 . S
C2463 C2469 1.491 . S
C2464 H2455 0.950 . S
C2464 C2463 1.398 . S
C2464 C2465 1.391 . S
C2465 H2453 0.950 . S
C2465 C2461 1.393 . S
C2465 C2464 1.391 . S
C2466 H2456 0.950 . S
C2466 C2467 1.386 . S
C2466 C2468 1.391 . S
C2467 C2466 1.386 . S
C2467 C2471 1.393 . S
C2468 H2457 0.950 . S
C2468 C2466 1.391 . S
C2468 C2469 1.400 . S
C2469 C2463 1.491 . S
C2469 C2468 1.400 . S
C2469 C2470 1.398 . S
C2470 H2458 0.950 . S
C2470 C2469 1.398 . S
C2470 C2471 1.391 . S
C2471 H2459 0.950 . S
C2471 C2467 1.393 . S
C2471 C2470 1.391 . S
H2472 C2480 0.950 . S
H2473 C2485 0.950 . S
H2474 C2482 0.950 . S
H2475 C2484 0.950 . S
H2476 C2486 0.950 . S
H2477 C2488 0.950 . S
H2478 C2490 0.950 1_565 S
H2479 C2491 0.950 . S
C2480 H2472 0.950 . S
C2480 C2481 1.386 . S
C2480 C2482 1.391 . S
C2481 C2480 1.386 . S
C2481 C2485 1.393 . S
C2482 H2474 0.950 . S
C2482 C2480 1.391 . S
C2482 C2483 1.400 . S
C2483 C2482 1.400 . S
C2483 C2484 1.398 . S
C2483 C2489 1.491 . S
C2484 H2475 0.950 . S
C2484 C2483 1.398 . S
C2484 C2485 1.391 . S
C2485 H2473 0.950 . S
C2485 C2481 1.393 . S
C2485 C2484 1.391 . S
C2486 H2476 0.950 . S
C2486 C2487 1.386 . S
C2486 C2488 1.391 . S
C2487 C2486 1.386 . S
C2487 C2491 1.393 . S
C2488 H2477 0.950 . S
C2488 C2486 1.391 . S
C2488 C2489 1.400 1_545 S
C2489 C2483 1.491 . S
C2489 C2488 1.400 1_565 S
C2489 C2490 1.398 1_565 S
C2490 H2478 0.950 1_545 S
C2490 C2489 1.398 1_545 S
C2490 C2491 1.391 . S
C2491 H2479 0.950 . S
C2491 C2487 1.393 . S
C2491 C2490 1.391 . S
H2492 C2500 0.950 . S
H2493 C2505 0.950 . S
H2494 C2502 0.950 . S
H2495 C2504 0.950 . S
H2496 C2506 0.950 . S
H2497 C2508 0.950 . S
H2498 C2510 0.950 . S
H2499 C2511 0.950 . S
C2500 H2492 0.950 . S
C2500 C2501 1.386 . S
C2500 C2502 1.391 . S
C2501 C2500 1.386 . S
C2501 C2505 1.393 . S
C2502 H2494 0.950 . S
C2502 C2500 1.391 . S
C2502 C2503 1.400 . S
C2503 C2502 1.400 . S
C2503 C2504 1.398 . S
C2503 C2509 1.491 . S
C2504 H2495 0.950 . S
C2504 C2503 1.398 . S
C2504 C2505 1.391 . S
C2505 H2493 0.950 . S
C2505 C2501 1.393 . S
C2505 C2504 1.391 . S
C2506 H2496 0.950 . S
C2506 C2507 1.386 . S
C2506 C2508 1.391 . S
C2507 C2506 1.386 . S
C2507 C2511 1.393 . S
C2508 H2497 0.950 . S
C2508 C2506 1.391 . S
C2508 C2509 1.400 . S
C2509 C2503 1.491 . S
C2509 C2508 1.400 . S
C2509 C2510 1.398 . S
C2510 H2498 0.950 . S
C2510 C2509 1.398 . S
C2510 C2511 1.391 . S
C2511 H2499 0.950 . S
C2511 C2507 1.393 . S
C2511 C2510 1.391 . S
H2512 C2520 0.950 . S
H2513 C2525 0.950 . S
H2514 C2522 0.950 . S
H2515 C2524 0.950 . S
H2516 C2526 0.950 . S
H2517 C2528 0.950 . S
H2518 C2530 0.950 . S
H2519 C2531 0.950 . S
C2520 H2512 0.950 . S
C2520 C2521 1.386 . S
C2520 C2522 1.391 . S
C2521 C2520 1.386 . S
C2521 C2525 1.393 . S
C2522 H2514 0.950 . S
C2522 C2520 1.391 . S
C2522 C2523 1.400 . S
C2523 C2522 1.400 . S
C2523 C2524 1.398 . S
C2523 C2529 1.491 . S
C2524 H2515 0.950 . S
C2524 C2523 1.398 . S
C2524 C2525 1.391 . S
C2525 H2513 0.950 . S
C2525 C2521 1.393 . S
C2525 C2524 1.391 . S
C2526 H2516 0.950 . S
C2526 C2527 1.386 . S
C2526 C2528 1.391 . S
C2527 C2526 1.386 . S
C2527 C2531 1.393 . S
C2528 H2517 0.950 . S
C2528 C2526 1.391 . S
C2528 C2529 1.400 . S
C2529 C2523 1.491 . S
C2529 C2528 1.400 . S
C2529 C2530 1.398 . S
C2530 H2518 0.950 . S
C2530 C2529 1.398 . S
C2530 C2531 1.391 . S
C2531 H2519 0.950 . S
C2531 C2527 1.393 . S
C2531 C2530 1.391 . S
H2532 C2540 0.950 . S
H2533 C2545 0.950 . S
H2534 C2542 0.950 . S
H2535 C2544 0.950 . S
H2536 C2546 0.950 . S
H2537 C2548 0.950 . S
H2538 C2550 0.950 . S
H2539 C2551 0.950 . S
C2540 H2532 0.950 . S
C2540 C2541 1.386 . S
C2540 C2542 1.391 . S
C2541 C2540 1.386 . S
C2541 C2545 1.393 . S
C2542 H2534 0.950 . S
C2542 C2540 1.391 . S
C2542 C2543 1.400 . S
C2543 C2542 1.400 . S
C2543 C2544 1.398 . S
C2543 C2549 1.491 . S
C2544 H2535 0.950 . S
C2544 C2543 1.398 . S
C2544 C2545 1.391 . S
C2545 H2533 0.950 . S
C2545 C2541 1.393 . S
C2545 C2544 1.391 . S
C2546 H2536 0.950 . S
C2546 C2547 1.386 . S
C2546 C2548 1.391 . S
C2547 C2546 1.386 . S
C2547 C2551 1.393 . S
C2548 H2537 0.950 . S
C2548 C2546 1.391 . S
C2548 C2549 1.400 . S
C2549 C2543 1.491 . S
C2549 C2548 1.400 . S
C2549 C2550 1.398 . S
C2550 H2538 0.950 . S
C2550 C2549 1.398 . S
C2550 C2551 1.391 . S
C2551 H2539 0.950 . S
C2551 C2547 1.393 . S
C2551 C2550 1.391 . S
H2552 C2560 0.950 . S
H2553 C2565 0.950 . S
H2554 C2562 0.950 1_545 S
H2555 C2564 0.932 1_545 S
H2556 C2566 0.950 . S
H2557 C2568 0.950 . S
H2558 C2570 0.950 . S
H2559 C2571 0.950 . S
C2560 H2552 0.950 . S
C2560 C2561 1.386 . S
C2560 C2562 1.391 . S
C2561 C2560 1.386 . S
C2561 C2565 1.393 . S
C2562 H2554 0.950 1_565 S
C2562 C2560 1.391 . S
C2562 C2563 1.400 1_565 S
C2563 C2562 1.400 1_545 S
C2563 C2564 1.398 1_545 S
C2563 C2569 1.491 . S
C2564 H2555 0.932 1_565 S
C2564 C2563 1.398 1_565 S
C2564 C2565 1.391 . S
C2565 H2553 0.950 . S
C2565 C2561 1.393 . S
C2565 C2564 1.391 . S
C2566 H2556 0.950 . S
C2566 C2567 1.386 . S
C2566 C2568 1.391 . S
C2567 C2566 1.386 . S
C2567 C2571 1.393 . S
C2568 H2557 0.950 . S
C2568 C2566 1.391 . S
C2568 C2569 1.400 . S
C2569 C2563 1.491 . S
C2569 C2568 1.400 . S
C2569 C2570 1.398 . S
C2570 H2558 0.950 . S
C2570 C2569 1.398 . S
C2570 C2571 1.391 . S
C2571 H2559 0.950 . S
C2571 C2567 1.393 . S
C2571 C2570 1.391 . S
H2572 C2580 0.950 . S
H2573 C2585 0.950 . S
H2574 C2582 0.950 . S
H2575 C2584 0.950 . S
H2576 C2586 0.950 . S
H2577 C2588 0.950 1_565 S
H2578 C2590 0.925 1_565 S
H2579 C2591 0.950 . S
C2580 H2572 0.950 . S
C2580 C2581 1.386 . S
C2580 C2582 1.391 . S
C2581 C2580 1.386 . S
C2581 C2585 1.393 . S
C2582 H2574 0.950 . S
C2582 C2580 1.391 . S
C2582 C2583 1.400 . S
C2583 C2582 1.400 . S
C2583 C2584 1.398 . S
C2583 C2589 1.491 . S
C2584 H2575 0.950 . S
C2584 C2583 1.398 . S
C2584 C2585 1.391 . S
C2585 H2573 0.950 . S
C2585 C2581 1.393 . S
C2585 C2584 1.391 . S
C2586 H2576 0.950 . S
C2586 C2587 1.386 . S
C2586 C2588 1.391 . S
C2587 C2586 1.386 . S
C2587 C2591 1.393 . S
C2588 H2577 0.950 1_545 S
C2588 C2586 1.391 . S
C2588 C2589 1.400 1_545 S
C2589 C2583 1.491 . S
C2589 C2588 1.400 1_565 S
C2589 C2590 1.368 1_565 S
C2590 H2578 0.925 1_545 S
C2590 C2589 1.368 1_545 S
C2590 C2591 1.447 . S
C2591 H2579 0.950 . S
C2591 C2587 1.393 . S
C2591 C2590 1.447 . S
C681 C594 1.247 . S
C687 C7 1.224 . S
C701 C23 1.516 . S
C707 C219 1.507 . S
C721 C34 1.216 . S
C727 C567 1.301 . S
C741 C50 1.494 . S
C747 C246 1.499 . S
C761 C624 1.582 . S
C767 C64 1.616 . S
C781 C77 1.431 . S
C787 C301 1.498 . S
C801 C93 1.658 . S
C807 C653 1.620 . S
C821 C105 1.428 . S
C827 C272 1.498 . S
C841 C49 1.208 . S
C847 C664 1.193 . S
C861 C8 1.400 . S
C867 C357 1.419 . S
C881 C373 1.366 . S
C887 C20 1.358 . S
C901 C37 1.529 . S
C907 C343 1.535 . S
C921 C78 1.718 . S
C927 C344 1.649 . S
C941 C90 1.545 . S
C947 C667 1.541 . S
C961 C106 1.609 . S
C967 C358 1.617 . S
C981 C63 1.368 . S
C987 C370 1.393 . S
C1001 C552 1.138 . S
C1007 C119 1.149 . S
C1021 C135 1.696 . S
C1027 C275 1.606 . S
C1041 C120 1.430 . S
C1047 C623 1.455 . S
C1061 C302 1.726 . S
C1067 C149 1.783 . S
C1081 C314 1.366 . S
C1087 C161 1.320 . S
C1101 C581 1.227 . S
C1107 C176 1.234 . S
C1121 C597 1.435 . S
C1127 C188 1.418 . S
C1141 C568 1.419 . S
C1147 C202 1.382 . S
C1161 C468 1.231 . S
C1167 C217 1.201 . S
C1181 C233 1.527 . S
C1187 C9 1.507 . S
C1201 C244 1.332 . S
C1207 C441 1.394 . S
C1221 C36 1.442 . S
C1227 C260 1.469 . S
C1241 C274 1.614 . S
C1247 C499 1.574 . S
C1261 C91 1.513 . S
C1267 C286 1.444 . S
C1281 C303 1.642 . S
C1287 C527 1.608 . S
C1301 C62 1.488 . S
C1307 C315 1.408 . S
C1321 C538 1.258 . S
C1327 C259 1.231 . S
C1341 C218 1.430 . S
C1347 C147 1.439 . S
C1361 C163 1.304 . S
C1367 C230 1.306 . S
C1381 C133 1.511 . S
C1387 C247 1.502 . S
C1401 C134 1.678 . S
C1407 C289 1.707 . S
C1421 C300 1.528 . S
C1427 C541 1.535 . S
C1441 C148 1.659 . S
C1447 C316 1.676 . S
C1461 C273 1.347 . S
C1467 C160 1.372 . S
C1481 C329 1.215 . S
C1487 C426 1.218 . S
C1501 C345 1.663 . S
C1507 C65 1.586 . S
C1521 C330 1.417 . S
C1527 C496 1.423 . S
C1541 C359 1.707 . S
C1547 C92 1.673 . S
C1561 C371 1.292 . S
C1567 C104 1.330 . S
C1581 C455 1.276 . S
C1587 C386 1.286 . S
C1601 C398 1.425 . S
C1607 C471 1.419 . S
C1621 C415 1.752 . S
C1627 C442 1.698 . S
C1641 C427 1.370 . S
C1647 C258 1.406 . S
C1661 C443 1.529 . S
C1667 C555 1.527 . S
C1681 C231 1.307 . S
C1687 C454 1.222 . S
C1701 C470 1.478 . S
C1707 C582 1.467 . S
C1721 C484 1.633 . S
C1727 C288 1.595 . S
C1741 C637 1.495 . S
C1747 C497 1.408 . S
C1761 C513 1.649 . S
C1767 C317 1.620 . S
C1781 C608 1.343 . S
C1787 C525 1.268 . S
C1801 C328 1.189 . S
C1807 C469 1.179 . S
C1821 C414 1.620 . S
C1827 C428 1.642 . S
C1841 C440 1.491 . S
C1847 C387 1.473 . S
C1861 C399 1.547 . S
C1867 C457 1.538 . S
C1881 C498 1.714 . S
C1887 C400 1.643 . S
C1901 C331 1.428 . S
C1907 C510 1.420 . S
C1921 C526 1.393 . S
C1927 C413 1.407 . S
C1941 C483 1.407 . S
C1947 C384 1.400 . S
C1961 C539 1.141 . S
C1967 C216 1.174 . S
C1981 C191 1.632 . S
C1987 C611 1.566 . S
C2001 C287 1.479 . S
C2007 C540 1.464 . S
C2021 C638 1.624 . S
C2027 C205 1.688 . S
C2041 C650 1.329 . S
C2047 C175 1.320 . S
C2061 C162 1.271 . S
C2067 C245 1.272 . S
C2081 C132 1.489 . S
C2087 C261 1.460 . S
C2101 C232 1.501 . S
C2107 C146 1.479 . S
C2121 C553 1.232 . S
C2127 C48 1.258 . S
C2141 C429 1.521 . S
C2147 C569 1.554 . S
C2161 C580 1.241 . S
C2167 C21 1.278 . S
C2181 C596 1.501 . S
C2187 C456 1.466 . S
C2201 C79 1.608 . S
C2207 C610 1.644 . S
C2221 C622 1.331 . S
C2227 C511 1.400 . S
C2241 C639 1.651 . S
C2247 C107 1.630 . S
C2261 C482 1.509 . S
C2267 C651 1.439 . S
C2281 C595 1.229 . S
C2287 C118 1.209 . S
C2301 C203 1.379 . S
C2307 C554 1.362 . S
C2321 C177 1.346 . S
C2327 C566 1.355 . S
C2341 C583 1.543 . S
C2347 C189 1.549 . S
C2361 C625 1.747 . S
C2367 C190 1.680 . S
C2381 C121 1.560 . S
C2387 C636 1.577 . S
C2401 C204 1.590 . S
C2407 C652 1.594 . S
C2421 C609 1.354 . S
C2427 C174 1.344 . S
C2441 C6 1.175 . S
C2447 C665 1.180 . S
C2461 C401 1.705 . S
C2467 C485 1.618 . S
C2481 C76 1.452 . S
C2487 C666 1.435 . S
C2501 C512 1.443 . S
C2507 C412 1.416 . S
C2521 C524 1.273 . S
C2527 C385 1.264 . S
C2541 C372 1.253 . S
C2547 C35 1.248 . S
C2561 C342 1.448 . S
C2567 C51 1.462 . S
C2581 C22 1.458 . S
C2587 C356 1.440 . S
