# Generated by pormake.
# Topology wjg, (4)-cn, num edge types: 1
# Building blocks:
#     Node 0, Type 0, BuildingBlock: UXUYUI_clean_sbu_0, # of connection points: 4
#     Node 1, Type 0, BuildingBlock: UXUYUI_clean_sbu_0, # of connection points: 4
#     Node 2, Type 0, BuildingBlock: UXUYUI_clean_sbu_0, # of connection points: 4
#     Node 3, Type 0, BuildingBlock: UXUYUI_clean_sbu_0, # of connection points: 4
#     Node 4, Type 0, BuildingBlock: UXUYUI_clean_sbu_0, # of connection points: 4
#     Node 5, Type 0, BuildingBlock: UXUYUI_clean_sbu_0, # of connection points: 4
#     Node 6, Type 0, BuildingBlock: UXUYUI_clean_sbu_0, # of connection points: 4
#     Node 7, Type 0, BuildingBlock: UXUYUI_clean_sbu_0, # of connection points: 4
#     Node 8, Type 0, BuildingBlock: UXUYUI_clean_sbu_0, # of connection points: 4
#     Node 9, Type 0, BuildingBlock: UXUYUI_clean_sbu_0, # of connection points: 4
#     Node 10, Type 0, BuildingBlock: UXUYUI_clean_sbu_0, # of connection points: 4
#     Node 11, Type 0, BuildingBlock: UXUYUI_clean_sbu_0, # of connection points: 4
#     Edge 12, Type (0, 0), BuildingBlock: KIFKEQ_clean_linker_1, # of connection points: 2
#     Edge 13, Type (0, 0), BuildingBlock: KIFKEQ_clean_linker_1, # of connection points: 2
#     Edge 14, Type (0, 0), BuildingBlock: KIFKEQ_clean_linker_1, # of connection points: 2
#     Edge 15, Type (0, 0), BuildingBlock: KIFKEQ_clean_linker_1, # of connection points: 2
#     Edge 16, Type (0, 0), BuildingBlock: KIFKEQ_clean_linker_1, # of connection points: 2
#     Edge 17, Type (0, 0), BuildingBlock: KIFKEQ_clean_linker_1, # of connection points: 2
#     Edge 18, Type (0, 0), BuildingBlock: KIFKEQ_clean_linker_1, # of connection points: 2
#     Edge 19, Type (0, 0), BuildingBlock: KIFKEQ_clean_linker_1, # of connection points: 2
#     Edge 20, Type (0, 0), BuildingBlock: KIFKEQ_clean_linker_1, # of connection points: 2
#     Edge 21, Type (0, 0), BuildingBlock: KIFKEQ_clean_linker_1, # of connection points: 2
#     Edge 22, Type (0, 0), BuildingBlock: KIFKEQ_clean_linker_1, # of connection points: 2
#     Edge 23, Type (0, 0), BuildingBlock: KIFKEQ_clean_linker_1, # of connection points: 2
#     Edge 24, Type (0, 0), BuildingBlock: KIFKEQ_clean_linker_1, # of connection points: 2
#     Edge 25, Type (0, 0), BuildingBlock: KIFKEQ_clean_linker_1, # of connection points: 2
#     Edge 26, Type (0, 0), BuildingBlock: KIFKEQ_clean_linker_1, # of connection points: 2
#     Edge 27, Type (0, 0), BuildingBlock: KIFKEQ_clean_linker_1, # of connection points: 2
#     Edge 28, Type (0, 0), BuildingBlock: KIFKEQ_clean_linker_1, # of connection points: 2
#     Edge 29, Type (0, 0), BuildingBlock: KIFKEQ_clean_linker_1, # of connection points: 2
#     Edge 30, Type (0, 0), BuildingBlock: KIFKEQ_clean_linker_1, # of connection points: 2
#     Edge 31, Type (0, 0), BuildingBlock: KIFKEQ_clean_linker_1, # of connection points: 2
#     Edge 32, Type (0, 0), BuildingBlock: KIFKEQ_clean_linker_1, # of connection points: 2
#     Edge 33, Type (0, 0), BuildingBlock: KIFKEQ_clean_linker_1, # of connection points: 2
#     Edge 34, Type (0, 0), BuildingBlock: KIFKEQ_clean_linker_1, # of connection points: 2
#     Edge 35, Type (0, 0), BuildingBlock: KIFKEQ_clean_linker_1, # of connection points: 2
# Relax obj value: 0.406
# Max RMSD: 0.171
# Mean RMSD: 0.170
data_MOF--net-wjg--node1-UXUYUI_clean_sbu_0--edge1-KIFKEQ_clean_linker_1
_symmetry_space_group_name_H-M    P1
_symmetry_Int_Tables_number       1
_symmetry_cell_setting            triclinic
loop_
_symmetry_equiv_pos_as_xyz
'x, y, z'
_cell_length_a     52.404254
_cell_length_b     52.381388
_cell_length_c     53.661638
_cell_angle_alpha  90.050648
_cell_angle_beta   89.965014
_cell_angle_gamma 120.04545
loop_
_atom_site_label
_atom_site_type_symbol
_atom_site_fract_x
_atom_site_fract_y
_atom_site_fract_z
_atom_type_partial_charge
Li0 Li 0.2057 0.45309 0.29112 0.0
Li1 Li 0.18304 0.41427 0.32171 0.0
Li2 Li 0.20165 0.40667 0.28238 0.0
Li3 Li 0.15685 0.41036 0.28279 0.0
C4 C 0.2492 0.45767 0.31812 0.0
N5 N 0.29936 0.5075 0.33485 0.0
C6 C 0.25059 0.46776 0.34251 0.0
C7 C 0.27341 0.47304 0.30227 0.0
C8 C 0.27614 0.49292 0.35062 0.0
C9 C 0.29852 0.49817 0.31106 0.0
C10 C 0.1447 0.4374 0.32306 0.0
C11 C 0.09598 0.40648 0.33989 0.0
N12 N 0.09636 0.4308 0.34927 0.0
C13 C 0.14457 0.4621 0.33276 0.0
C14 C 0.12021 0.40939 0.32658 0.0
C15 C 0.11994 0.4583 0.34601 0.0
C16 C 0.24683 0.50764 0.26841 0.0
N17 N 0.22959 0.49461 0.28866 0.0
C18 C 0.25381 0.53966 0.31156 0.0
C19 C 0.23185 0.51018 0.3096 0.0
C20 C 0.2735 0.55322 0.29168 0.0
C21 C 0.26909 0.53716 0.26952 0.0
H22 H 0.24446 0.4947 0.25198 0.0
H23 H 0.21797 0.49906 0.32548 0.0
C24 C 0.20008 0.39457 0.362 0.0
N25 N 0.18171 0.40498 0.35618 0.0
C26 C 0.20459 0.38982 0.38669 0.0
C27 C 0.17133 0.40681 0.3993 0.0
C28 C 0.16719 0.41095 0.37421 0.0
C29 C 0.19056 0.39649 0.40573 0.0
H30 H 0.21254 0.39146 0.34749 0.0
H31 H 0.1534 0.42006 0.3694 0.0
C32 C 0.19824 0.42173 0.23793 0.0
N33 N 0.21229 0.40244 0.1949 0.0
C34 C 0.17593 0.40005 0.22318 0.0
C35 C 0.22769 0.43369 0.23075 0.0
C36 C 0.18349 0.39058 0.2015 0.0
C37 C 0.23434 0.42361 0.20895 0.0
C38 C 0.15395 0.35408 0.31077 0.0
C39 C 0.17424 0.34525 0.31718 0.0
C40 C 0.12419 0.33585 0.31676 0.0
C41 C 0.16453 0.31861 0.32974 0.0
C42 C 0.11533 0.30937 0.32934 0.0
N43 N 0.13552 0.30137 0.33553 0.0
C44 C 0.24837 0.3961 0.27425 0.0
C45 C 0.20212 0.35796 0.25977 0.0
C46 C 0.26071 0.37814 0.2713 0.0
N47 N 0.21939 0.3855 0.26924 0.0
C48 C 0.21345 0.33898 0.25695 0.0
C49 C 0.24285 0.34878 0.26363 0.0
H50 H 0.26139 0.41769 0.28234 0.0
H51 H 0.17897 0.34996 0.25638 0.0
C52 C 0.11259 0.41828 0.26131 0.0
N53 N 0.12013 0.39777 0.26744 0.0
C54 C 0.08685 0.41007 0.24783 0.0
C55 C 0.07685 0.35968 0.24797 0.0
C56 C 0.1028 0.36889 0.26138 0.0
C57 C 0.06888 0.3805 0.24064 0.0
H58 H 0.12698 0.44112 0.26637 0.0
H59 H 0.10972 0.35322 0.26614 0.0
O60 O 0.22407 0.43341 0.30962 0.0
O61 O 0.16852 0.44086 0.30978 0.0
O62 O 0.19133 0.4308 0.25953 0.0
O63 O 0.16297 0.38002 0.29821 0.0
H64 H 0.23202 0.45669 0.35498 0.0
H65 H 0.27257 0.46618 0.28314 0.0
H66 H 0.27742 0.50099 0.3694 0.0
H67 H 0.31723 0.51042 0.29888 0.0
H68 H 0.0769 0.3849 0.34278 0.0
H69 H 0.16329 0.48399 0.33006 0.0
H70 H 0.11998 0.39014 0.31918 0.0
H71 H 0.11956 0.47722 0.35366 0.0
H72 H 0.25658 0.551 0.3291 0.0
H73 H 0.28351 0.54692 0.25363 0.0
H74 H 0.2202 0.38259 0.39088 0.0
H75 H 0.16024 0.41235 0.41354 0.0
H76 H 0.15305 0.39053 0.22846 0.0
H77 H 0.24526 0.45021 0.2421 0.0
H78 H 0.16645 0.37376 0.18994 0.0
H79 H 0.25704 0.43252 0.20327 0.0
H80 H 0.19735 0.35892 0.31278 0.0
H81 H 0.10796 0.34189 0.31165 0.0
H82 H 0.18007 0.31165 0.33489 0.0
H83 H 0.09238 0.29512 0.33411 0.0
H84 H 0.28334 0.3864 0.27702 0.0
H85 H 0.19901 0.31645 0.25099 0.0
H86 H 0.08138 0.42674 0.24266 0.0
H87 H 0.06391 0.33678 0.24242 0.0
Li88 Li 0.74337 0.19476 0.64227 0.0
Li89 Li 0.74929 0.1588 0.66887 0.0
Li90 Li 0.7849 0.18579 0.63647 0.0
Li91 Li 0.73752 0.14725 0.62635 0.0
C92 C 0.80049 0.22329 0.67512 0.0
N93 N 0.85452 0.26659 0.69285 0.0
C94 C 0.81648 0.21603 0.69165 0.0
C95 C 0.81193 0.25259 0.66767 0.0
C96 C 0.84378 0.23823 0.70037 0.0
C97 C 0.83929 0.27416 0.67686 0.0
C98 C 0.69307 0.14177 0.67051 0.0
C99 C 0.66425 0.10237 0.69936 0.0
N100 N 0.65347 0.11886 0.70953 0.0
C101 C 0.68152 0.15823 0.68111 0.0
C102 C 0.6842 0.11352 0.67956 0.0
C103 C 0.66159 0.14629 0.70088 0.0
C104 C 0.71418 0.22517 0.62511 0.0
N105 N 0.73037 0.22241 0.64358 0.0
C106 C 0.7294 0.26043 0.66727 0.0
C107 C 0.73759 0.2391 0.66455 0.0
C108 C 0.71324 0.26442 0.64832 0.0
C109 C 0.70539 0.24627 0.62707 0.0
H110 H 0.70839 0.21119 0.6088 0.0
H111 H 0.74991 0.23593 0.67917 0.0
C112 C 0.76205 0.13423 0.71033 0.0
N113 N 0.74867 0.14936 0.70271 0.0
C114 C 0.77198 0.13702 0.73487 0.0
C115 C 0.75204 0.16898 0.7434 0.0
C116 C 0.74273 0.16577 0.71875 0.0
C117 C 0.7681 0.15564 0.75141 0.0
H118 H 0.7675 0.12232 0.69686 0.0
H119 H 0.73342 0.17872 0.71181 0.0
C120 C 0.77813 0.20688 0.59359 0.0
N121 N 0.81764 0.24628 0.55936 0.0
C122 C 0.79505 0.19894 0.57882 0.0
C123 C 0.78134 0.23489 0.59093 0.0
C124 C 0.81491 0.21917 0.56164 0.0
C125 C 0.80141 0.25448 0.57351 0.0
C126 C 0.76542 0.11919 0.63558 0.0
C127 C 0.78357 0.12113 0.61571 0.0
C128 C 0.74429 0.09152 0.64455 0.0
C129 C 0.77993 0.09526 0.60487 0.0
C130 C 0.74131 0.06616 0.63318 0.0
N131 N 0.75902 0.06854 0.61372 0.0
C132 C 0.83972 0.19135 0.64359 0.0
C133 C 0.84325 0.23367 0.62423 0.0
C134 C 0.87004 0.20607 0.64765 0.0
N135 N 0.82685 0.20542 0.63253 0.0
C136 C 0.87378 0.2491 0.62757 0.0
C137 C 0.88729 0.23551 0.64013 0.0
H138 H 0.8262 0.16932 0.65085 0.0
H139 H 0.83258 0.24502 0.61668 0.0
C140 C 0.68695 0.09553 0.60869 0.0
N141 N 0.71523 0.11639 0.60345 0.0
C142 C 0.67059 0.07311 0.59154 0.0
C143 C 0.71291 0.0941 0.56413 0.0
C144 C 0.72826 0.11615 0.58166 0.0
C145 C 0.68358 0.07227 0.56885 0.0
H146 H 0.67702 0.09643 0.62608 0.0
H147 H 0.75071 0.13298 0.57797 0.0
O148 O 0.7741 0.20174 0.6658 0.0
O149 O 0.71284 0.15319 0.65131 0.0
O150 O 0.75823 0.18725 0.61028 0.0
O151 O 0.76823 0.14426 0.64611 0.0
H152 H 0.80818 0.19345 0.69737 0.0
H153 H 0.80005 0.25854 0.6546 0.0
H154 H 0.85648 0.23288 0.71302 0.0
H155 H 0.8485 0.29689 0.67113 0.0
H156 H 0.65734 0.08062 0.70665 0.0
H157 H 0.68789 0.18 0.67422 0.0
H158 H 0.6928 0.10044 0.67151 0.0
H159 H 0.65259 0.15883 0.70933 0.0
H160 H 0.73635 0.27415 0.68379 0.0
H161 H 0.69265 0.24836 0.61216 0.0
H162 H 0.78421 0.12631 0.74039 0.0
H163 H 0.74908 0.18398 0.75535 0.0
H164 H 0.79332 0.17762 0.58087 0.0
H165 H 0.76862 0.24155 0.60224 0.0
H166 H 0.82825 0.21335 0.5502 0.0
H167 H 0.80413 0.27623 0.57129 0.0
H168 H 0.80005 0.14239 0.60855 0.0
H169 H 0.73027 0.08964 0.66006 0.0
H170 H 0.79367 0.09642 0.58936 0.0
H171 H 0.72491 0.04459 0.63982 0.0
H172 H 0.87975 0.19494 0.65744 0.0
H173 H 0.88639 0.27199 0.62193 0.0
H174 H 0.64795 0.05691 0.59584 0.0
H175 H 0.72406 0.09403 0.54717 0.0
Li176 Li 0.57606 0.74271 0.00187 0.0
Li177 Li 0.53882 0.73877 0.97004 0.0
Li178 Li 0.58003 0.72819 0.95934 0.0
Li179 Li 0.5903 0.77664 0.96863 0.0
C180 C 0.53169 0.68132 -0.00409 0.0
N181 N 0.50123 0.62863 0.02153 0.0
C182 C 0.5065 0.67495 0.00961 0.0
C183 C 0.54105 0.66058 -0.00513 0.0
C184 C 0.49151 0.64829 0.02255 0.0
C185 C 0.52546 0.63416 0.00805 0.0
C186 C 0.56525 0.79616 0.00123 0.0
C187 C 0.5534 0.83493 -0.00258 0.0
N188 N 0.57519 0.85154 0.01392 0.0
C189 C 0.58741 0.81353 0.01827 0.0
C190 C 0.54801 0.80686 0.99077 0.0
C191 C 0.59214 0.8415 0.02439 0.0
C192 C 0.60731 0.75935 0.04698 0.0
N193 N 0.58002 0.74299 0.03684 0.0
C194 C 0.55741 0.74718 0.07401 0.0
C195 C 0.55525 0.73593 0.05007 0.0
C196 C 0.58535 0.76629 0.08411 0.0
C197 C 0.61049 0.7711 0.07084 0.0
H198 H 0.62671 0.76621 0.03566 0.0
H199 H 0.53397 0.7243 0.04113 0.0
C200 C 0.48249 0.7165 0.94622 0.0
N201 N 0.49881 0.72791 0.96723 0.0
C202 C 0.45253 0.70795 0.94622 0.0
C203 C 0.45719 0.72312 0.98937 0.0
C204 C 0.48688 0.7315 0.98847 0.0
C205 C 0.43954 0.71098 0.96813 0.0
H206 H 0.49265 0.71385 0.92961 0.0
H207 H 0.50048 0.74062 0.00487 0.0
C208 C 0.62963 0.74648 0.9888 0.0
N209 N 0.6648 0.72385 0.00383 0.0
C210 C 0.65982 0.76168 0.98352 0.0
C211 C 0.61744 0.71993 0.00192 0.0
C212 C 0.6772 0.74983 0.9912 0.0
C213 C 0.63553 0.70881 0.00933 0.0
C214 C 0.57558 0.77102 0.92137 0.0
C215 C 0.604 0.78128 0.91211 0.0
C216 C 0.55779 0.78113 0.91104 0.0
C217 C 0.61435 0.8019 0.89278 0.0
C218 C 0.56894 0.80172 0.89169 0.0
N219 N 0.59676 0.81161 0.88306 0.0
C220 C 0.56707 0.67789 0.93059 0.0
C221 C 0.61754 0.71492 0.9321 0.0
C222 C 0.57357 0.66071 0.91475 0.0
N223 N 0.58904 0.70436 0.93895 0.0
C224 C 0.62509 0.69829 0.91677 0.0
C225 C 0.60294 0.67091 0.90785 0.0
H226 H 0.54452 0.67033 0.93603 0.0
H227 H 0.63438 0.73654 0.93812 0.0
C228 C 0.64264 0.82903 0.97519 0.0
N229 N 0.61604 0.818 0.96378 0.0
C230 C 0.66085 0.85933 0.9781 0.0
C231 C 0.62457 0.86667 0.95652 0.0
C232 C 0.607 0.8361 0.954 0.0
C233 C 0.65156 0.87858 0.9693 0.0
H234 H 0.64891 0.81424 0.98355 0.0
H235 H 0.58538 0.82688 0.94573 0.0
O236 O 0.5464 0.70713 0.98275 0.0
O237 O 0.56065 0.76895 0.9946 0.0
O238 O 0.61232 0.75773 0.98106 0.0
O239 O 0.56511 0.75097 0.94034 0.0
H240 H 0.49861 0.69043 0.01034 0.0
H241 H 0.56014 0.66477 0.98397 0.0
H242 H 0.4721 0.64321 0.03335 0.0
H243 H 0.53257 0.61802 0.0075 0.0
H244 H 0.54035 0.84357 0.98936 0.0
H245 H 0.60113 0.80573 0.02637 0.0
H246 H 0.53093 0.79379 0.97739 0.0
H247 H 0.60938 0.85528 0.03739 0.0
H248 H 0.53748 0.74273 0.08373 0.0
H249 H 0.63244 0.7861 0.07773 0.0
H250 H 0.4396 0.69866 0.92948 0.0
H251 H 0.44822 0.7264 0.00647 0.0
H252 H 0.66967 0.78224 0.9733 0.0
H253 H 0.5944 0.70832 0.00675 0.0
H254 H 0.70055 0.76128 0.9871 0.0
H255 H 0.62633 0.68828 0.01953 0.0
H256 H 0.61799 0.7736 0.91996 0.0
H257 H 0.53571 0.77331 0.91803 0.0
H258 H 0.63637 0.8102 0.88552 0.0
H259 H 0.55551 0.80988 0.88358 0.0
H260 H 0.55595 0.63977 0.90797 0.0
H261 H 0.64789 0.70713 0.91129 0.0
H262 H 0.68118 0.86744 0.98847 0.0
H263 H 0.61664 0.88074 0.94933 0.0
Li264 Li 0.85401 0.59979 0.33928 0.0
Li265 Li 0.81326 0.56097 0.31606 0.0
Li266 Li 0.86023 0.5965 0.29512 0.0
Li267 Li 0.82516 0.61204 0.31068 0.0
C268 C 0.87455 0.56025 0.32877 0.0
N269 N 0.91749 0.54778 0.34413 0.0
C270 C 0.86665 0.53374 0.34099 0.0
C271 C 0.90427 0.5802 0.32408 0.0
C272 C 0.88868 0.5279 0.34869 0.0
C273 C 0.92566 0.57357 0.33206 0.0
C274 C 0.78767 0.57113 0.35447 0.0
C275 C 0.73481 0.54572 0.3591 0.0
N276 N 0.73743 0.53546 0.38167 0.0
C277 C 0.78987 0.56048 0.37777 0.0
C278 C 0.75997 0.56389 0.3451 0.0
C279 C 0.76419 0.54245 0.39123 0.0
C280 C 0.8637 0.6312 0.38149 0.0
N281 N 0.86892 0.61017 0.37207 0.0
C282 C 0.87854 0.5987 0.4128 0.0
C283 C 0.87711 0.59452 0.38697 0.0
C284 C 0.87156 0.61918 0.42304 0.0
C285 C 0.8654 0.63645 0.40695 0.0
H286 H 0.85563 0.64211 0.36945 0.0
H287 H 0.88017 0.57723 0.3792 0.0
C288 C 0.75917 0.51109 0.30157 0.0
N289 N 0.78138 0.52167 0.31854 0.0
C290 C 0.73371 0.48391 0.30545 0.0
C291 C 0.75509 0.47848 0.34359 0.0
C292 C 0.78004 0.50582 0.33903 0.0
C293 C 0.73128 0.46749 0.32692 0.0
H294 H 0.76086 0.52412 0.28541 0.0
H295 H 0.79781 0.51506 0.35244 0.0
C296 C 0.8888 0.65773 0.32577 0.0
N297 N 0.92888 0.70865 0.35033 0.0
C298 C 0.88325 0.68106 0.32861 0.0
C299 C 0.91498 0.66055 0.33514 0.0
C300 C 0.90371 0.70655 0.34115 0.0
C301 C 0.93489 0.68639 0.34759 0.0
C302 C 0.80687 0.59019 0.2648 0.0
C303 C 0.82456 0.6057 0.24448 0.0
C304 C 0.77733 0.58299 0.26534 0.0
C305 C 0.81236 0.61375 0.22499 0.0
C306 C 0.76598 0.59149 0.2455 0.0
N307 N 0.78357 0.60656 0.22591 0.0
C308 C 0.88091 0.57895 0.25364 0.0
C309 C 0.91238 0.62781 0.26796 0.0
C310 C 0.90082 0.58271 0.23471 0.0
N311 N 0.88706 0.60142 0.26966 0.0
C312 C 0.933 0.6324 0.24957 0.0
C313 C 0.92729 0.6097 0.23263 0.0
H314 H 0.8605 0.55823 0.25553 0.0
H315 H 0.91655 0.64527 0.28093 0.0
C316 C 0.79952 0.64136 0.3316 0.0
N317 N 0.80889 0.63744 0.30905 0.0
C318 C 0.78763 0.65971 0.33408 0.0
C319 C 0.79573 0.67057 0.29007 0.0
C320 C 0.80775 0.65201 0.28847 0.0
C321 C 0.78551 0.67457 0.31317 0.0
H322 H 0.80156 0.63043 0.34789 0.0
H323 H 0.81637 0.64952 0.27093 0.0
O324 O 0.85318 0.56624 0.32111 0.0
O325 O 0.81248 0.58827 0.34072 0.0
O326 O 0.86883 0.6325 0.31365 0.0
O327 O 0.81833 0.58186 0.28394 0.0
H328 H 0.84377 0.51784 0.34453 0.0
H329 H 0.9108 0.6005 0.31428 0.0
H330 H 0.88287 0.50754 0.35827 0.0
H331 H 0.94875 0.58889 0.32859 0.0
H332 H 0.71321 0.53974 0.352 0.0
H333 H 0.81111 0.56579 0.38528 0.0
H334 H 0.75793 0.57199 0.3271 0.0
H335 H 0.76554 0.53391 0.40923 0.0
H336 H 0.88311 0.58478 0.42471 0.0
H337 H 0.85905 0.65184 0.41405 0.0
H338 H 0.71595 0.476 0.292 0.0
H339 H 0.75395 0.4667 0.36051 0.0
H340 H 0.86341 0.6796 0.3212 0.0
H341 H 0.91979 0.64289 0.33318 0.0
H342 H 0.8996 0.72468 0.34356 0.0
H343 H 0.9551 0.68871 0.3551 0.0
H344 H 0.84747 0.61152 0.24376 0.0
H345 H 0.76339 0.57124 0.28101 0.0
H346 H 0.82579 0.62577 0.20916 0.0
H347 H 0.7432 0.58618 0.24572 0.0
H348 H 0.89572 0.56471 0.22199 0.0
H349 H 0.95295 0.65369 0.2483 0.0
H350 H 0.7798 0.66192 0.35219 0.0
H351 H 0.79482 0.68196 0.27356 0.0
Li352 Li 0.24422 0.84633 0.66477 0.0
Li353 Li 0.2517 0.80864 0.64516 0.0
Li354 Li 0.24983 0.84929 0.62023 0.0
Li355 Li 0.20587 0.80935 0.63991 0.0
C356 C 0.30315 0.87332 0.65834 0.0
N357 N 0.35113 0.91587 0.68447 0.0
C358 C 0.31698 0.86509 0.67627 0.0
C359 C 0.31419 0.90321 0.65329 0.0
C360 C 0.34106 0.8869 0.68942 0.0
C361 C 0.33835 0.92439 0.66679 0.0
C362 C 0.20454 0.79541 0.69067 0.0
C363 C 0.18719 0.76957 0.72971 0.0
N364 N 0.16958 0.78153 0.73271 0.0
C365 C 0.1862 0.80738 0.69412 0.0
C366 C 0.20501 0.77629 0.70857 0.0
C367 C 0.1687 0.80011 0.71548 0.0
C368 C 0.23858 0.882 0.70324 0.0
N369 N 0.25049 0.86511 0.69657 0.0
C370 C 0.2536 0.85388 0.73913 0.0
C371 C 0.25959 0.85263 0.71403 0.0
C372 C 0.23787 0.8679 0.7462 0.0
C373 C 0.23192 0.8836 0.72818 0.0
H374 H 0.23155 0.89189 0.68933 0.0
H375 H 0.26805 0.8385 0.70828 0.0
C376 C 0.2691 0.768 0.62946 0.0
N377 N 0.26745 0.7835 0.6491 0.0
C378 C 0.27631 0.746 0.63338 0.0
C379 C 0.28159 0.75766 0.67739 0.0
C380 C 0.27384 0.77906 0.67268 0.0
C381 C 0.28213 0.74033 0.65768 0.0
H382 H 0.2636 0.77186 0.61095 0.0
H383 H 0.27171 0.79133 0.68796 0.0
C384 C 0.21625 0.87595 0.6428 0.0
N385 N 0.2102 0.9251 0.64891 0.0
C386 C 0.18945 0.87284 0.65091 0.0
C387 C 0.23991 0.9041 0.63778 0.0
C388 C 0.18686 0.89795 0.65392 0.0
C389 C 0.23643 0.92865 0.64096 0.0
C390 C 0.2084 0.78587 0.59854 0.0
C391 C 0.19578 0.79551 0.58063 0.0
C392 C 0.1972 0.75567 0.60209 0.0
C393 C 0.17201 0.77468 0.56655 0.0
C394 C 0.1734 0.73555 0.58763 0.0
N395 N 0.16139 0.74539 0.57032 0.0
C396 C 0.29327 0.88383 0.5851 0.0
C397 C 0.24823 0.88386 0.58111 0.0
C398 C 0.30582 0.9044 0.56589 0.0
N399 N 0.26514 0.87441 0.59246 0.0
C400 C 0.26001 0.90477 0.56215 0.0
C401 C 0.28933 0.91562 0.55444 0.0
H402 H 0.30609 0.87574 0.59449 0.0
H403 H 0.22587 0.87586 0.58738 0.0
C404 C 0.15265 0.75627 0.64732 0.0
N405 N 0.1644 0.7839 0.63775 0.0
C406 C 0.12218 0.73847 0.64972 0.0
C407 C 0.11647 0.77754 0.63156 0.0
C408 C 0.14706 0.79442 0.62919 0.0
C409 C 0.10363 0.74939 0.64253 0.0
H410 H 0.16704 0.74845 0.65386 0.0
H411 H 0.15706 0.81637 0.6214 0.0
O412 O 0.27949 0.85223 0.64531 0.0
O413 O 0.22269 0.80304 0.67031 0.0
O414 O 0.21909 0.85154 0.63966 0.0
O415 O 0.23109 0.80591 0.613 0.0
H416 H 0.30916 0.84209 0.6801 0.0
H417 H 0.3045 0.91004 0.6389 0.0
H418 H 0.35179 0.8808 0.70351 0.0
H419 H 0.34702 0.9476 0.66313 0.0
H420 H 0.18743 0.7549 0.74376 0.0
H421 H 0.18573 0.82238 0.68059 0.0
H422 H 0.21915 0.7669 0.70624 0.0
H423 H 0.15452 0.80934 0.71843 0.0
H424 H 0.25824 0.84111 0.75235 0.0
H425 H 0.22007 0.89493 0.73301 0.0
H426 H 0.27652 0.73301 0.61775 0.0
H427 H 0.28548 0.75357 0.69642 0.0
H428 H 0.17089 0.85134 0.6551 0.0
H429 H 0.2607 0.907 0.63143 0.0
H430 H 0.16629 0.89584 0.66027 0.0
H431 H 0.25459 0.95054 0.63711 0.0
H432 H 0.20408 0.81881 0.57781 0.0
H433 H 0.20649 0.74786 0.61611 0.0
H434 H 0.16193 0.7818 0.55268 0.0
H435 H 0.16439 0.71211 0.59025 0.0
H436 H 0.32827 0.91161 0.56029 0.0
H437 H 0.24651 0.91301 0.55428 0.0
H438 H 0.11335 0.71667 0.65768 0.0
H439 H 0.10322 0.78707 0.62587 0.0
Li440 Li 0.45384 0.24236 0.95983 0.0
Li441 Li 0.41632 0.23788 0.98932 0.0
Li442 Li 0.40687 0.19745 0.96006 0.0
Li443 Li 0.40828 0.24167 0.94477 0.0
C444 C 0.45803 0.21237 -0.001 0.0
N445 N 0.50445 0.21097 0.02218 0.0
C446 C 0.46583 0.2226 0.02345 0.0
C447 C 0.47371 0.20112 0.98647 0.0
C448 C 0.48936 0.22175 0.03482 0.0
C449 C 0.49716 0.20072 -0.00154 0.0
C450 C 0.44647 0.29871 0.97444 0.0
C451 C 0.43327 0.33668 0.97741 0.0
N452 N 0.459 0.35437 0.98953 0.0
C453 C 0.473 0.31753 0.98657 0.0
C454 C 0.42664 0.3086 0.96952 0.0
C455 C 0.47884 0.34546 0.9942 0.0
C456 C 0.50632 0.25211 0.93586 0.0
N457 N 0.49518 0.25829 0.95638 0.0
C458 C 0.54167 0.27896 0.97706 0.0
C459 C 0.51238 0.27223 0.97646 0.0
C460 C 0.5533 0.2711 0.95682 0.0
C461 C 0.53554 0.25832 0.93569 0.0
H462 H 0.49212 0.24098 0.92016 0.0
H463 H 0.50273 0.276 0.99283 0.0
C464 C 0.38684 0.21826 0.03291 0.0
N465 N 0.4094 0.24315 0.02292 0.0
C466 C 0.38331 0.21518 0.05858 0.0
C467 C 0.42545 0.26417 0.06334 0.0
C468 C 0.42807 0.26638 0.03739 0.0
C469 C 0.40351 0.23781 0.07419 0.0
H470 H 0.37293 0.19984 0.02094 0.0
H471 H 0.44633 0.28556 0.02904 0.0
C472 C 0.41967 0.19824 0.91422 0.0
N473 N 0.39986 0.14999 0.88303 0.0
C474 C 0.39492 0.18979 0.89921 0.0
C475 C 0.43445 0.18225 0.91327 0.0
C476 C 0.38523 0.16532 0.88358 0.0
C477 C 0.42406 0.15789 0.89742 0.0
C478 C 0.35628 0.21608 0.97422 0.0
C479 C 0.3277 0.19319 0.96912 0.0
C480 C 0.36023 0.24204 0.98512 0.0
C481 C 0.30371 0.19704 0.97433 0.0
C482 C 0.33572 0.24507 0.99009 0.0
N483 N 0.30818 0.22271 0.98459 0.0
C484 C 0.3988 0.14035 0.9683 0.0
C485 C 0.35865 0.14131 0.94893 0.0
C486 C 0.38232 0.10975 0.97057 0.0
N487 N 0.3866 0.15549 0.95804 0.0
C488 C 0.34111 0.11076 0.95136 0.0
C489 C 0.35286 0.0948 0.96273 0.0
H490 H 0.42084 0.15204 0.97569 0.0
H491 H 0.34967 0.15388 0.94059 0.0
C492 C 0.41236 0.28277 0.90922 0.0
N493 N 0.39321 0.25703 0.92064 0.0
C494 C 0.40215 0.29526 0.89172 0.0
C495 C 0.35286 0.25407 0.89763 0.0
C496 C 0.36405 0.24236 0.91491 0.0
C497 C 0.37197 0.28095 0.88585 0.0
H498 H 0.43554 0.2937 0.9139 0.0
H499 H 0.34943 0.2215 0.92365 0.0
O500 O 0.43531 0.21352 0.98741 0.0
O501 O 0.44072 0.27145 0.96639 0.0
O502 O 0.42892 0.22159 0.9302 0.0
O503 O 0.38005 0.21261 0.96925 0.0
H504 H 0.45389 0.23111 0.03359 0.0
H505 H 0.46826 0.19338 0.96749 0.0
H506 H 0.49565 0.22969 0.0537 0.0
H507 H 0.50968 0.19242 0.98884 0.0
H508 H 0.418 0.34446 0.97381 0.0
H509 H 0.48892 0.31069 0.99023 0.0
H510 H 0.40632 0.29488 0.95962 0.0
H511 H 0.49918 0.36007 0.00379 0.0
H512 H 0.55436 0.28827 0.99391 0.0
H513 H 0.5438 0.25214 0.91965 0.0
H514 H 0.36645 0.19427 0.06606 0.0
H515 H 0.44143 0.28213 0.07476 0.0
H516 H 0.38313 0.20181 0.8998 0.0
H517 H 0.45355 0.18837 0.92482 0.0
H518 H 0.36602 0.15844 0.87195 0.0
H519 H 0.43519 0.14521 0.8966 0.0
H520 H 0.32398 0.17269 0.9611 0.0
H521 H 0.38192 0.25946 0.99018 0.0
H522 H 0.28153 0.17959 0.97027 0.0
H523 H 0.33857 0.26512 -0.00153 0.0
H524 H 0.39195 0.09808 0.97961 0.0
H525 H 0.31846 0.09979 0.94499 0.0
H526 H 0.41775 0.31574 0.88277 0.0
H527 H 0.32942 0.24235 0.89383 0.0
Li528 Li 0.59709 0.85464 0.37021 0.0
Li529 Li 0.60948 0.81953 0.35156 0.0
Li530 Li 0.59926 0.85211 0.32595 0.0
Li531 Li 0.55963 0.81117 0.34969 0.0
C532 C 0.65632 0.88426 0.33799 0.0
N533 N 0.7048 0.92625 0.31204 0.0
C534 C 0.67947 0.8793 0.33213 0.0
C535 C 0.65791 0.91066 0.33077 0.0
C536 C 0.70377 0.90078 0.31897 0.0
C537 C 0.68257 0.93158 0.31761 0.0
C538 C 0.5911 0.79901 0.39611 0.0
C539 C 0.5926 0.75581 0.40941 0.0
N540 N 0.61129 0.77175 0.42816 0.0
C541 C 0.61042 0.815 0.41545 0.0
C542 C 0.58213 0.76918 0.39302 0.0
C543 C 0.62031 0.80079 0.4315 0.0
C544 C 0.58648 0.86887 0.41828 0.0
N545 N 0.60295 0.88017 0.39732 0.0
C546 C 0.6257 0.92883 0.41411 0.0
C547 C 0.62237 0.90947 0.39492 0.0
C548 C 0.60918 0.91777 0.43604 0.0
C549 C 0.5895 0.88739 0.43815 0.0
H550 H 0.57089 0.84548 0.41947 0.0
H551 H 0.63501 0.91785 0.37802 0.0
C552 C 0.62963 0.78463 0.33042 0.0
N553 N 0.63319 0.80128 0.35095 0.0
C554 C 0.64671 0.77142 0.32703 0.0
C555 C 0.67167 0.79323 0.36576 0.0
C556 C 0.65393 0.80607 0.36843 0.0
C557 C 0.66804 0.77556 0.34481 0.0
H558 H 0.61401 0.78212 0.31623 0.0
H559 H 0.6571 0.82024 0.38417 0.0
C560 C 0.558 0.86898 0.35634 0.0
N561 N 0.54034 0.90388 0.38088 0.0
C562 C 0.5352 0.85649 0.37382 0.0
C563 C 0.57162 0.89911 0.35112 0.0
C564 C 0.52664 0.87454 0.38608 0.0
C565 C 0.56243 0.91641 0.36379 0.0
C566 C 0.56363 0.78695 0.30804 0.0
C567 C 0.55308 0.79306 0.28624 0.0
C568 C 0.55241 0.75766 0.31548 0.0
C569 C 0.53132 0.76976 0.27235 0.0
C570 C 0.53058 0.73499 0.30112 0.0
N571 N 0.52057 0.74146 0.28003 0.0
C572 C 0.62797 0.86404 0.28156 0.0
C573 C 0.5917 0.87853 0.28207 0.0
C574 C 0.63045 0.86697 0.25585 0.0
N575 N 0.60836 0.86909 0.29398 0.0
C576 C 0.59306 0.8812 0.25608 0.0
C577 C 0.61181 0.87418 0.24266 0.0
H578 H 0.63971 0.85505 0.29135 0.0
H579 H 0.57552 0.88129 0.29239 0.0
C580 C 0.50799 0.75782 0.36271 0.0
N581 N 0.51922 0.78216 0.34802 0.0
C582 C 0.47954 0.73442 0.35848 0.0
C583 C 0.47432 0.76236 0.325 0.0
C584 C 0.50282 0.78523 0.32994 0.0
C585 C 0.46262 0.73621 0.33895 0.0
H586 H 0.52147 0.75613 0.3771 0.0
H587 H 0.51247 0.8049 0.31854 0.0
O588 O 0.63229 0.86338 0.35076 0.0
O589 O 0.58124 0.81253 0.38012 0.0
O590 O 0.56728 0.85185 0.34473 0.0
O591 O 0.58444 0.80948 0.32229 0.0
H592 H 0.67866 0.85903 0.33756 0.0
H593 H 0.64001 0.9147 0.3348 0.0
H594 H 0.72181 0.89719 0.31424 0.0
H595 H 0.68397 0.95199 0.31174 0.0
H596 H 0.58594 0.73277 0.40717 0.0
H597 H 0.61801 0.8382 0.41791 0.0
H598 H 0.56753 0.75656 0.37797 0.0
H599 H 0.6353 0.81291 0.44652 0.0
H600 H 0.64131 0.95215 0.41198 0.0
H601 H 0.57635 0.87818 0.45481 0.0
H602 H 0.64372 0.75868 0.31026 0.0
H603 H 0.68798 0.79708 0.37987 0.0
H604 H 0.52452 0.83319 0.37809 0.0
H605 H 0.5893 0.90906 0.33762 0.0
H606 H 0.50917 0.86525 0.3998 0.0
H607 H 0.57291 0.93982 0.3601 0.0
H608 H 0.56132 0.8155 0.2802 0.0
H609 H 0.56023 0.75253 0.33234 0.0
H610 H 0.52288 0.77419 0.2555 0.0
H611 H 0.52153 0.71226 0.30679 0.0
H612 H 0.6446 0.86058 0.24628 0.0
H613 H 0.57817 0.88657 0.2465 0.0
H614 H 0.47115 0.71487 0.36998 0.0
H615 H 0.4622 0.76459 0.30963 0.0
Li616 Li 0.78494 0.60235 0.69049 0.0
Li617 Li 0.73843 0.59342 0.70541 0.0
Li618 Li 0.74224 0.55284 0.68585 0.0
Li619 Li 0.74698 0.59545 0.66106 0.0
C620 C 0.7733 0.5857 0.74023 0.0
N621 N 0.79674 0.60884 0.78643 0.0
C622 C 0.78879 0.61623 0.74388 0.0
C623 C 0.76976 0.56695 0.76006 0.0
C624 C 0.80045 0.62749 0.76738 0.0
C625 C 0.78179 0.57907 0.78329 0.0
C626 C 0.76147 0.65024 0.68427 0.0
C627 C 0.72933 0.66877 0.6726 0.0
N628 N 0.74887 0.69549 0.68243 0.0
C629 C 0.78141 0.67796 0.694 0.0
C630 C 0.73537 0.64566 0.67327 0.0
C631 C 0.77458 0.70052 0.693 0.0
C632 C 0.83967 0.64563 0.67554 0.0
N633 N 0.82659 0.62314 0.69215 0.0
C634 C 0.87295 0.62752 0.70243 0.0
C635 C 0.84245 0.61411 0.70582 0.0
C636 C 0.88677 0.64985 0.68447 0.0
C637 C 0.86989 0.65926 0.67127 0.0
H638 H 0.8263 0.65189 0.66466 0.0
H639 H 0.83129 0.59568 0.71848 0.0
C640 C 0.6931 0.57706 0.74 0.0
N641 N 0.71845 0.60047 0.73147 0.0
C642 C 0.67811 0.58042 0.7601 0.0
C643 C 0.7156 0.63196 0.76211 0.0
C644 C 0.72993 0.62753 0.74213 0.0
C645 C 0.68944 0.60817 0.77151 0.0
H646 H 0.68479 0.55567 0.73137 0.0
H647 H 0.75048 0.6456 0.73548 0.0
C648 C 0.79501 0.57594 0.65175 0.0
N649 N 0.84442 0.57574 0.63406 0.0
C650 C 0.8104 0.59338 0.63129 0.0
C651 C 0.80465 0.5583 0.66316 0.0
C652 C 0.83534 0.59298 0.62263 0.0
C653 C 0.82972 0.55854 0.65396 0.0
C654 C 0.68547 0.55633 0.66972 0.0
C655 C 0.67252 0.53209 0.65364 0.0
C656 C 0.67022 0.57105 0.6758 0.0
C657 C 0.64491 0.52351 0.64332 0.0
C658 C 0.64264 0.56178 0.66512 0.0
N659 N 0.63068 0.53842 0.64921 0.0
C660 C 0.72347 0.49399 0.70214 0.0
C661 C 0.72782 0.50326 0.65862 0.0
C662 C 0.71624 0.46475 0.69799 0.0
N663 N 0.72936 0.51249 0.68251 0.0
C664 C 0.7208 0.4744 0.65363 0.0
C665 C 0.71537 0.45488 0.67345 0.0
H666 H 0.72509 0.50213 0.72095 0.0
H667 H 0.73266 0.5186 0.64344 0.0
C668 C 0.76398 0.63207 0.61931 0.0
N669 N 0.74448 0.60451 0.62761 0.0
C670 C 0.77496 0.63602 0.59505 0.0
C671 C 0.74352 0.58369 0.58793 0.0
C672 C 0.73306 0.58075 0.61221 0.0
C673 C 0.76612 0.61125 0.57974 0.0
H674 H 0.774 0.65026 0.63229 0.0
H675 H 0.71897 0.55896 0.61967 0.0
O676 O 0.76136 0.57403 0.71748 0.0
O677 O 0.7679 0.62797 0.68524 0.0
O678 O 0.77096 0.57657 0.66089 0.0
O679 O 0.7123 0.56473 0.6803 0.0
H680 H 0.79176 0.63113 0.7288 0.0
H681 H 0.75779 0.54325 0.75753 0.0
H682 H 0.81244 0.65107 0.77047 0.0
H683 H 0.7792 0.56481 0.79881 0.0
H684 H 0.70917 0.66551 0.66415 0.0
H685 H 0.80184 0.68189 0.70242 0.0
H686 H 0.7202 0.62467 0.66496 0.0
H687 H 0.78971 0.72203 0.70062 0.0
H688 H 0.88535 0.61962 0.71279 0.0
H689 H 0.87987 0.67652 0.65738 0.0
H690 H 0.65828 0.56138 0.76694 0.0
H691 H 0.72498 0.65382 0.77008 0.0
H692 H 0.80337 0.6073 0.62236 0.0
H693 H 0.79311 0.54486 0.67915 0.0
H694 H 0.84753 0.60645 0.60687 0.0
H695 H 0.83754 0.54513 0.66269 0.0
H696 H 0.68369 0.52004 0.64912 0.0
H697 H 0.67946 0.58933 0.68876 0.0
H698 H 0.63475 0.50492 0.6307 0.0
H699 H 0.63068 0.57307 0.66958 0.0
H700 H 0.71246 0.4504 0.71376 0.0
H701 H 0.72002 0.46755 0.63447 0.0
H702 H 0.79266 0.65753 0.58945 0.0
H703 H 0.7362 0.56413 0.57657 0.0
Li704 Li 0.17408 0.77674 0.01019 0.0
Li705 Li 0.13469 0.7308 0.02476 0.0
Li706 Li 0.17806 0.73344 0.00141 0.0
Li707 Li 0.1406 0.74305 0.98057 0.0
C708 C 0.19293 0.76645 0.05428 0.0
N709 N 0.22517 0.80063 0.09422 0.0
C710 C 0.18143 0.77995 0.06946 0.0
C711 C 0.22074 0.77019 0.05943 0.0
C712 C 0.19811 0.79721 0.08955 0.0
C713 C 0.23671 0.78759 0.07972 0.0
C714 C 0.10269 0.75582 0.0073 0.0
C715 C 0.05179 0.72197 -0.00275 0.0
N716 N 0.04428 0.74146 0.0066 0.0
C717 C 0.09451 0.77558 0.01668 0.0
C718 C 0.08122 0.72886 -0.0026 0.0
C719 C 0.06485 0.76789 0.01621 0.0
C720 C 0.18473 0.83263 0.00165 0.0
N721 N 0.1964 0.81854 0.01444 0.0
C722 C 0.23983 0.86446 0.02338 0.0
C723 C 0.22331 0.83376 0.02549 0.0
C724 C 0.22888 0.87953 0.00926 0.0
C725 C 0.20066 0.86312 -0.00134 0.0
H726 H 0.16367 0.81992 0.99247 0.0
H727 H 0.23268 0.82216 0.03485 0.0
C728 C 0.09937 0.68241 0.05593 0.0
N729 N 0.1079 0.711 0.05087 0.0
C730 C 0.08032 0.66796 0.07581 0.0
C731 C 0.07934 0.71275 0.08472 0.0
C732 C 0.09835 0.72627 0.06474 0.0
C733 C 0.07025 0.68328 0.09061 0.0
H734 H 0.10765 0.67097 0.0447 0.0
H735 H 0.10572 0.74906 0.06042 0.0
C736 C 0.20895 0.78941 0.97106 0.0
N737 N 0.25954 0.84069 0.95763 0.0
C738 C 0.20772 0.80806 0.95309 0.0
C739 C 0.23594 0.79672 0.98208 0.0
C740 C 0.23353 0.83393 0.9466 0.0
C741 C 0.26126 0.82276 0.97505 0.0
C742 C 0.11979 0.68017 0.98351 0.0
C743 C 0.13467 0.67276 0.9659 0.0
C744 C 0.08994 0.66061 0.9882 0.0
C745 C 0.11929 0.64618 0.95287 0.0
C746 C 0.07533 0.63424 0.9748 0.0
N747 N 0.09018 0.62764 0.95754 0.0
C748 C 0.20954 0.70464 0.01561 0.0
C749 C 0.21754 0.72342 0.97441 0.0
C750 C 0.23066 0.69608 0.01239 0.0
N751 N 0.20379 0.71839 -0.00318 0.0
C752 C 0.2388 0.71533 0.97039 0.0
C753 C 0.24596 0.70187 0.98965 0.0
H754 H 0.19822 0.70099 0.03325 0.0
H755 H 0.21249 0.73444 0.95982 0.0
C756 C 0.12442 0.76921 0.94456 0.0
N757 N 0.12526 0.74409 0.94896 0.0
C758 C 0.12654 0.77948 0.92027 0.0
C759 C 0.12663 0.73595 0.90542 0.0
C760 C 0.12481 0.72666 0.93003 0.0
C761 C 0.12973 0.76373 0.9005 0.0
H762 H 0.12582 0.78316 0.95997 0.0
H763 H 0.12618 0.70721 0.93394 0.0
O764 O 0.17697 0.74943 0.03458 0.0
O765 O 0.13165 0.76304 0.00791 0.0
O766 O 0.18379 0.76442 0.97822 0.0
O767 O 0.13464 0.70579 -0.00313 0.0
H768 H 0.16003 0.77741 0.06559 0.0
H769 H 0.22992 0.75988 0.0478 0.0
H770 H 0.18958 0.80793 0.1014 0.0
H771 H 0.2583 0.79075 0.08391 0.0
H772 H 0.03494 0.70116 0.98965 0.0
H773 H 0.11093 0.79658 0.02437 0.0
H774 H 0.08722 0.71355 0.98975 0.0
H775 H 0.05819 0.78293 0.02349 0.0
H776 H 0.26129 0.87608 0.03216 0.0
H777 H 0.19142 0.87339 0.9871 0.0
H778 H 0.07406 0.64532 0.07988 0.0
H779 H 0.07177 0.72524 0.0954 0.0
H780 H 0.18705 0.80277 0.94439 0.0
H781 H 0.23722 0.78271 -0.00375 0.0
H782 H 0.23288 0.84866 0.93283 0.0
H783 H 0.28225 0.82882 0.98356 0.0
H784 H 0.15774 0.68754 0.96205 0.0
H785 H 0.07816 0.66564 0.00214 0.0
H786 H 0.13049 0.64031 0.93904 0.0
H787 H 0.05221 0.61896 0.97818 0.0
H788 H 0.23529 0.68549 0.02765 0.0
H789 H 0.25031 0.72067 0.95271 0.0
H790 H 0.12911 0.80111 0.91744 0.0
H791 H 0.12846 0.72288 0.89062 0.0
Li792 Li 0.39046 0.18982 0.34838 0.0
Li793 Li 0.40008 0.15569 0.37012 0.0
Li794 Li 0.44196 0.20271 0.35505 0.0
Li795 Li 0.40929 0.16207 0.32597 0.0
C796 C 0.39467 0.19601 0.40045 0.0
N797 N 0.3601 0.19306 0.44048 0.0
C798 C 0.36396 0.17977 0.39865 0.0
C799 C 0.40781 0.21079 0.4226 0.0
C800 C 0.34686 0.17853 0.41909 0.0
C801 C 0.38996 0.20903 0.44264 0.0
C802 C 0.34773 0.11924 0.34283 0.0
C803 C 0.32744 0.06676 0.33845 0.0
N804 N 0.30014 0.06248 0.3435 0.0
C805 C 0.3194 0.11436 0.34766 0.0
C806 C 0.35175 0.0953 0.33792 0.0
C807 C 0.29565 0.08549 0.34804 0.0
C808 C 0.34599 0.193 0.32358 0.0
N809 N 0.36604 0.20615 0.34213 0.0
C810 C 0.35533 0.24531 0.34458 0.0
C811 C 0.37074 0.23159 0.35297 0.0
C812 C 0.33519 0.23279 0.32476 0.0
C813 C 0.33026 0.20599 0.31455 0.0
H814 H 0.34334 0.17315 0.31494 0.0
H815 H 0.38722 0.24176 0.36741 0.0
C816 C 0.40847 0.12417 0.40852 0.0
N817 N 0.38776 0.12798 0.39657 0.0
C818 C 0.40016 0.10281 0.42711 0.0
C819 C 0.34948 0.09024 0.42107 0.0
C820 C 0.35883 0.11208 0.40293 0.0
C821 C 0.3702 0.08513 0.43335 0.0
H822 H 0.43142 0.13749 0.40334 0.0
H823 H 0.34285 0.11604 0.39377 0.0
C824 C 0.42204 0.22572 0.31091 0.0
N825 N 0.41745 0.26848 0.28451 0.0
C826 C 0.40667 0.21864 0.28834 0.0
C827 C 0.43522 0.25457 0.32 0.0
C828 C 0.40458 0.24057 0.27528 0.0
C829 C 0.43259 0.27587 0.30639 0.0
C830 C 0.44702 0.14473 0.34406 0.0
C831 C 0.47385 0.15735 0.33128 0.0
C832 C 0.43167 0.11436 0.34855 0.0
C833 C 0.4845 0.13928 0.32262 0.0
C834 C 0.44306 0.09703 0.33962 0.0
N835 N 0.469 0.10974 0.32691 0.0
C836 C 0.49199 0.25023 0.37923 0.0
C837 C 0.49724 0.24065 0.33688 0.0
C838 C 0.52062 0.27451 0.37942 0.0
N839 N 0.48101 0.23405 0.35809 0.0
C840 C 0.52592 0.26444 0.33629 0.0
C841 C 0.53789 0.28187 0.35768 0.0
H842 H 0.47837 0.2446 0.39573 0.0
H843 H 0.48758 0.22771 0.32023 0.0
C844 C 0.38268 0.13447 0.28133 0.0
N845 N 0.40909 0.14933 0.29318 0.0
C846 C 0.38108 0.13746 0.25568 0.0
C847 C 0.43412 0.16863 0.25467 0.0
C848 C 0.43471 0.16511 0.28038 0.0
C849 C 0.40686 0.15622 0.24239 0.0
H850 H 0.36252 0.12339 0.29196 0.0
H851 H 0.45512 0.17809 0.29039 0.0
O852 O 0.41193 0.1974 0.38077 0.0
O853 O 0.37124 0.14739 0.34264 0.0
O854 O 0.42365 0.20439 0.32432 0.0
O855 O 0.4363 0.16213 0.35274 0.0
H856 H 0.35339 0.16813 0.38171 0.0
H857 H 0.43158 0.22343 0.42431 0.0
H858 H 0.32306 0.16598 0.41795 0.0
H859 H 0.39984 0.22034 0.45991 0.0
H860 H 0.33027 0.04802 0.33473 0.0
H861 H 0.31584 0.13267 0.3513 0.0
H862 H 0.37332 0.09875 0.33338 0.0
H863 H 0.27365 0.08138 0.35194 0.0
H864 H 0.35957 0.26576 0.3532 0.0
H865 H 0.31542 0.1958 0.29898 0.0
H866 H 0.41703 0.1002 0.43641 0.0
H867 H 0.32612 0.07708 0.42494 0.0
H868 H 0.39614 0.19637 0.28114 0.0
H869 H 0.44703 0.26034 0.33752 0.0
H870 H 0.39263 0.23536 0.25785 0.0
H871 H 0.44252 0.29825 0.31326 0.0
H872 H 0.48631 0.18086 0.32801 0.0
H873 H 0.4113 0.10426 0.35899 0.0
H874 H 0.50513 0.14876 0.31254 0.0
H875 H 0.43134 0.07349 0.34289 0.0
H876 H 0.52912 0.28744 0.39628 0.0
H877 H 0.53824 0.26972 0.31902 0.0
H878 H 0.35968 0.12757 0.24676 0.0
H879 H 0.4544 0.18363 0.24512 0.0
Li880 Li 0.24776 0.40654 0.71065 0.0
Li881 Li 0.20503 0.40566 0.69382 0.0
Li882 Li 0.2455 0.41645 0.66696 0.0
Li883 Li 0.24958 0.45369 0.69673 0.0
C884 C 0.2036 0.35726 0.66865 0.0
N885 N 0.16943 0.31363 0.63472 0.0
C886 C 0.18749 0.36231 0.65054 0.0
C887 C 0.20236 0.32998 0.66946 0.0
C888 C 0.17034 0.34001 0.63357 0.0
C889 C 0.18494 0.30821 0.65216 0.0
C890 C 0.20317 0.41713 0.74014 0.0
C891 C 0.16426 0.42316 0.75793 0.0
N892 N 0.15363 0.39679 0.76974 0.0
C893 C 0.19194 0.39013 0.75248 0.0
C894 C 0.18931 0.43384 0.74289 0.0
C895 C 0.16684 0.38021 0.76735 0.0
C896 C 0.28633 0.40949 0.74797 0.0
N897 N 0.26262 0.39073 0.73407 0.0
C898 C 0.26153 0.34897 0.75288 0.0
C899 C 0.24998 0.36102 0.73626 0.0
C900 C 0.28621 0.36775 0.76744 0.0
C901 C 0.29852 0.39842 0.76493 0.0
H902 H 0.29581 0.43305 0.74574 0.0
H903 H 0.2311 0.34673 0.72492 0.0
C904 C 0.14785 0.40042 0.69251 0.0
N905 N 0.16257 0.38544 0.69569 0.0
C906 C 0.11726 0.38526 0.68991 0.0
C907 C 0.11717 0.33951 0.69568 0.0
C908 C 0.14773 0.35565 0.69859 0.0
C909 C 0.10158 0.35427 0.69048 0.0
H910 H 0.15976 0.42411 0.69163 0.0
H911 H 0.1597 0.3442 0.70213 0.0
C912 C 0.30089 0.4401 0.6774 0.0
N913 N 0.3447 0.43943 0.64926 0.0
C914 C 0.32056 0.46504 0.66383 0.0
C915 C 0.3035 0.41482 0.6767 0.0
C916 C 0.34257 0.46426 0.6497 0.0
C917 C 0.3258 0.41493 0.66236 0.0
C918 C 0.20763 0.44816 0.65692 0.0
C919 C 0.19723 0.43948 0.63261 0.0
C920 C 0.20308 0.4693 0.66887 0.0
C921 C 0.18214 0.45179 0.62083 0.0
C922 C 0.18791 0.48109 0.65646 0.0
N923 N 0.17784 0.47216 0.6329 0.0
C924 C 0.25402 0.38886 0.62391 0.0
C925 C 0.26116 0.437 0.61916 0.0
C926 C 0.25438 0.38566 0.59809 0.0
N927 N 0.25591 0.41369 0.6337 0.0
C928 C 0.26176 0.43483 0.59335 0.0
C929 C 0.25703 0.4084 0.58248 0.0
H930 H 0.25046 0.37087 0.63599 0.0
H931 H 0.26277 0.45653 0.62757 0.0
C932 C 0.26098 0.50683 0.72099 0.0
N933 N 0.26588 0.49473 0.70043 0.0
C934 C 0.26844 0.53645 0.72081 0.0
C935 C 0.2877 0.54082 0.67906 0.0
C936 C 0.27945 0.51109 0.6799 0.0
C937 C 0.28136 0.55356 0.69941 0.0
H938 H 0.24993 0.49315 0.73697 0.0
H939 H 0.28232 0.50057 0.66364 0.0
O940 O 0.22099 0.37894 0.68525 0.0
O941 O 0.22718 0.42673 0.72493 0.0
O942 O 0.27862 0.44002 0.69073 0.0
O943 O 0.22323 0.43696 0.6685 0.0
H944 H 0.18808 0.38315 0.64969 0.0
H945 H 0.21487 0.32573 0.6832 0.0
H946 H 0.15775 0.34366 0.61949 0.0
H947 H 0.18382 0.28702 0.65256 0.0
H948 H 0.15319 0.43576 0.76012 0.0
H949 H 0.20231 0.37685 0.75037 0.0
H950 H 0.19751 0.45461 0.7332 0.0
H951 H 0.15781 0.3593 0.77693 0.0
H952 H 0.25156 0.32522 0.75395 0.0
H953 H 0.31726 0.4137 0.77603 0.0
H954 H 0.10614 0.39772 0.68698 0.0
H955 H 0.1062 0.31568 0.69641 0.0
H956 H 0.3188 0.48474 0.66412 0.0
H957 H 0.28822 0.3952 0.68686 0.0
H958 H 0.35792 0.48338 0.63906 0.0
H959 H 0.32801 0.39549 0.66155 0.0
H960 H 0.20083 0.4235 0.62282 0.0
H961 H 0.2106 0.47611 0.68774 0.0
H962 H 0.17395 0.4452 0.60205 0.0
H963 H 0.18409 0.4973 0.66559 0.0
H964 H 0.25121 0.36513 0.59043 0.0
H965 H 0.26365 0.45285 0.58211 0.0
H966 H 0.26322 0.5456 0.73682 0.0
H967 H 0.29713 0.55316 0.66208 0.0
Li968 Li 0.81441 0.19691 0.02367 0.0
Li969 Li 0.85176 0.24537 0.04181 0.0
Li970 Li 0.80882 0.24025 0.01775 0.0
Li971 Li 0.84914 0.23801 -0.00277 0.0
C972 C 0.79387 0.20132 0.06861 0.0
N973 N 0.7646 0.16163 0.10657 0.0
C974 C 0.80954 0.19977 0.08907 0.0
C975 C 0.76333 0.18267 0.06743 0.0
C976 C 0.79433 0.17958 0.10809 0.0
C977 C 0.74894 0.16274 0.08681 0.0
C978 C 0.87786 0.20929 0.01352 0.0
C979 C 0.92534 0.22394 -0.0047 0.0
N980 N 0.91743 0.19508 0.99269 0.0
C981 C 0.87031 0.17977 0.01084 0.0
C982 C 0.9057 0.23157 0.00588 0.0
C983 C 0.89057 0.17304 0.0002 0.0
C984 C 0.78874 0.14413 -0.00035 0.0
N985 N 0.79407 0.15484 0.0233 0.0
C986 C 0.77208 0.10586 0.03971 0.0
C987 C 0.78643 0.13646 0.04329 0.0
C988 C 0.76613 0.09433 0.01536 0.0
C989 C 0.77463 0.11397 -0.00476 0.0
H990 H 0.7958 0.15908 0.98401 0.0
H991 H 0.79176 0.1454 0.06191 0.0
C992 C 0.87086 0.28143 0.08445 0.0
N993 N 0.87682 0.26449 0.06902 0.0
C994 C 0.88976 0.29645 0.10427 0.0
C995 C 0.92043 0.27624 0.09174 0.0
C996 C 0.90081 0.2614 0.07237 0.0
C997 C 0.91506 0.29415 0.10788 0.0
H998 H 0.85154 0.28339 0.08121 0.0
H999 H 0.90486 0.24766 0.05982 0.0
C1000 C 0.7833 0.2053 0.97827 0.0
N1001 N 0.73535 0.19287 0.94866 0.0
C1002 C 0.78754 0.21733 0.95436 0.0
C1003 C 0.75472 0.18676 0.98706 0.0
C1004 C 0.763 0.2108 0.93968 0.0
C1005 C 0.73075 0.18082 0.97183 0.0
C1006 C 0.87406 0.29856 0.00877 0.0
C1007 C 0.86922 0.31877 -0.00441 0.0
C1008 C 0.90276 0.30611 0.01542 0.0
C1009 C 0.89328 0.34598 0.98887 0.0
C1010 C 0.92624 0.33354 0.00838 0.0
N1011 N 0.92106 0.35274 -0.00467 0.0
C1012 C 0.75818 0.2441 0.02964 0.0
C1013 C 0.78195 0.26677 0.99172 0.0
C1014 C 0.73513 0.24934 0.02433 0.0
N1015 N 0.7806 0.25229 0.01312 0.0
C1016 C 0.75945 0.27255 0.9857 0.0
C1017 C 0.73534 0.26322 0.00187 0.0
H1018 H 0.75777 0.23274 0.04656 0.0
H1019 H 0.79987 0.27263 0.97879 0.0
C1020 C 0.85964 0.21537 0.95581 0.0
N1021 N 0.8661 0.24201 0.96528 0.0
C1022 C 0.86147 0.21179 0.93036 0.0
C1023 C 0.87773 0.26349 0.92468 0.0
C1024 C 0.87599 0.2662 0.95048 0.0
C1025 C 0.86914 0.23566 0.91432 0.0
H1026 H 0.85019 0.19617 0.96769 0.0
H1027 H 0.87998 0.28689 0.95825 0.0
O1028 O 0.80829 0.22119 0.04996 0.0
O1029 O 0.85813 0.2162 0.02378 0.0
O1030 O 0.80701 0.21185 0.99311 0.0
O1031 O 0.85068 0.27185 0.01551 0.0
H1032 H 0.83318 0.21392 0.09026 0.0
H1033 H 0.75088 0.18343 0.05167 0.0
H1034 H 0.80616 0.17813 0.12403 0.0
H1035 H 0.72532 0.14813 0.08612 0.0
H1036 H 0.94687 0.24098 0.98914 0.0
H1037 H 0.84906 0.1622 0.01694 0.0
H1038 H 0.912 0.25449 0.00773 0.0
H1039 H 0.88495 0.15028 -0.00206 0.0
H1040 H 0.76623 0.09144 0.05574 0.0
H1041 H 0.77024 0.10613 0.97617 0.0
H1042 H 0.885 0.31018 0.11629 0.0
H1043 H 0.93951 0.27362 0.09415 0.0
H1044 H 0.80952 0.23175 0.94729 0.0
H1045 H 0.75111 0.17725 0.00551 0.0
H1046 H 0.76594 0.22005 0.92118 0.0
H1047 H 0.70849 0.16666 0.97844 0.0
H1048 H 0.84714 0.31349 0.99053 0.0
H1049 H 0.90691 0.29109 0.02603 0.0
H1050 H 0.88985 0.36175 0.97855 0.0
H1051 H 0.94858 0.33961 0.01336 0.0
H1052 H 0.71709 0.24213 0.03743 0.0
H1053 H 0.76027 0.28297 0.96806 0.0
H1054 H 0.8539 0.1898 0.9232 0.0
H1055 H 0.88359 0.28238 0.91285 0.0
H1056 H 0.32945 0.5704 0.27643 0.0
H1057 H 0.27846 0.60181 0.31573 0.0
H1058 H 0.37448 0.61587 0.28648 0.0
H1059 H 0.32385 0.6469 0.3268 0.0
H1060 H 0.41176 0.73505 0.32463 0.0
H1061 H 0.3657 0.69238 0.31073 0.0
H1062 H 0.40262 0.63611 0.32425 0.0
H1063 H 0.44882 0.6787 0.33705 0.0
C1064 C 0.32777 0.58722 0.28685 0.0
C1065 C 0.30032 0.58246 0.29527 0.0
C1066 C 0.35366 0.6131 0.29296 0.0
C1067 C 0.35278 0.6348 0.30776 0.0
C1068 C 0.32527 0.63064 0.31532 0.0
C1069 C 0.2993 0.60472 0.30914 0.0
C1070 C 0.41003 0.71356 0.3245 0.0
C1071 C 0.43392 0.71026 0.332 0.0
C1072 C 0.38359 0.68911 0.31672 0.0
C1073 C 0.38058 0.6609 0.31621 0.0
C1074 C 0.40437 0.65761 0.32402 0.0
C1075 C 0.43072 0.68198 0.33176 0.0
H1076 H 0.69611 0.2824 0.68988 0.0
H1077 H 0.71473 0.30122 0.61144 0.0
H1078 H 0.69297 0.3269 0.69473 0.0
H1079 H 0.70974 0.34473 0.61598 0.0
H1080 H 0.74645 0.44028 0.64174 0.0
H1081 H 0.74057 0.39194 0.63418 0.0
H1082 H 0.66772 0.35342 0.68613 0.0
H1083 H 0.67412 0.40231 0.69404 0.0
C1084 C 0.6991 0.2958 0.67358 0.0
C1085 C 0.70625 0.28854 0.65037 0.0
C1086 C 0.69689 0.32113 0.67631 0.0
C1087 C 0.70151 0.33964 0.65581 0.0
C1088 C 0.70668 0.33129 0.63226 0.0
C1089 C 0.70914 0.30609 0.62958 0.0
C1090 C 0.7289 0.42143 0.65128 0.0
C1091 C 0.71069 0.42503 0.66844 0.0
C1092 C 0.72541 0.39366 0.64687 0.0
C1093 C 0.70351 0.36871 0.6594 0.0
C1094 C 0.68499 0.37223 0.67634 0.0
C1095 C 0.68863 0.40017 0.68089 0.0
H1096 H 0.39999 0.68053 0.00495 0.0
H1097 H 0.40786 0.72205 0.93365 0.0
H1098 H 0.35016 0.67238 0.00956 0.0
H1099 H 0.35797 0.71396 0.93828 0.0
H1100 H 0.26037 0.68088 0.94824 0.0
H1101 H 0.3047 0.67745 0.94169 0.0
H1102 H 0.33205 0.70669 0.01729 0.0
H1103 H 0.28817 0.71046 0.02376 0.0
C1104 C 0.39095 0.68771 0.99017 0.0
C1105 C 0.40795 0.70232 0.9691 0.0
C1106 C 0.36244 0.68304 0.99282 0.0
C1107 C 0.35029 0.69285 0.97444 0.0
C1108 C 0.36664 0.70593 0.95268 0.0
C1109 C 0.39522 0.7106 0.95002 0.0
C1110 C 0.2758 0.68643 0.96349 0.0
C1111 C 0.27079 0.69609 0.9865 0.0
C1112 C 0.30114 0.68443 0.95973 0.0
C1113 C 0.32189 0.69187 0.97894 0.0
C1114 C 0.31627 0.70036 0.00222 0.0
C1115 C 0.29105 0.70248 0.00596 0.0
H1116 H 0.58784 0.28663 0.33726 0.0
H1117 H 0.55496 0.33705 0.3753 0.0
H1118 H 0.6353 0.33148 0.33118 0.0
H1119 H 0.60264 0.38184 0.36966 0.0
H1120 H 0.67513 0.45741 0.32304 0.0
H1121 H 0.62933 0.41221 0.33276 0.0
H1122 H 0.67893 0.37017 0.35411 0.0
H1123 H 0.72484 0.41532 0.34389 0.0
C1124 C 0.59089 0.30727 0.34454 0.0
C1125 C 0.56766 0.30839 0.35662 0.0
C1126 C 0.61811 0.33289 0.34123 0.0
C1127 C 0.62259 0.36018 0.34979 0.0
C1128 C 0.59968 0.36115 0.36261 0.0
C1129 C 0.57251 0.33548 0.36607 0.0
C1130 C 0.67624 0.43843 0.32959 0.0
C1131 C 0.70354 0.43981 0.33255 0.0
C1132 C 0.65005 0.41269 0.33547 0.0
C1133 C 0.65057 0.38772 0.34432 0.0
C1134 C 0.67786 0.38905 0.34722 0.0
C1135 C 0.70411 0.4149 0.34151 0.0
H1136 H 0.32464 0.73828 0.68582 0.0
H1137 H 0.24672 0.6841 0.64202 0.0
H1138 H 0.3269 0.69414 0.69769 0.0
H1139 H 0.2488 0.64022 0.65409 0.0
H1140 H 0.24023 0.56921 0.70891 0.0
H1141 H 0.24281 0.61595 0.69894 0.0
H1142 H 0.33236 0.65132 0.67341 0.0
H1143 H 0.32972 0.60424 0.68316 0.0
C1144 C 0.30822 0.71699 0.6786 0.0
C1145 C 0.28558 0.71451 0.66295 0.0
C1146 C 0.30954 0.69187 0.68533 0.0
C1147 C 0.28786 0.66393 0.67695 0.0
C1148 C 0.2656 0.66156 0.66094 0.0
C1149 C 0.26459 0.68664 0.65386 0.0
C1150 C 0.26067 0.58716 0.70168 0.0
C1151 C 0.28481 0.58322 0.69684 0.0
C1152 C 0.26203 0.61374 0.69577 0.0
C1153 C 0.28769 0.63699 0.68526 0.0
C1154 C 0.31237 0.63365 0.68154 0.0
C1155 C 0.31084 0.60682 0.68706 0.0
H1156 H 0.73556 0.31101 0.98085 0.0
H1157 H 0.67722 0.22192 0.00598 0.0
H1158 H 0.69295 0.31462 0.96705 0.0
H1159 H 0.63482 0.22575 0.99276 0.0
H1160 H 0.56738 0.2294 0.94383 0.0
H1161 H 0.61273 0.2291 0.95302 0.0
H1162 H 0.64972 0.31579 0.98584 0.0
H1163 H 0.60448 0.31644 0.97603 0.0
C1164 C 0.71365 0.29226 0.98346 0.0
C1165 C 0.70969 0.26622 0.99456 0.0
C1166 C 0.68931 0.29439 0.9757 0.0
C1167 C 0.6606 0.2704 0.97866 0.0
C1168 C 0.6567 0.24446 0.9899 0.0
C1169 C 0.68096 0.24241 -0.00221 0.0
C1170 C 0.58545 0.24873 0.95241 0.0
C1171 C 0.58236 0.27295 0.95922 0.0
C1172 C 0.61127 0.24838 0.95798 0.0
C1173 C 0.63459 0.27226 0.97044 0.0
C1174 C 0.63212 0.29711 0.97617 0.0
C1175 C 0.60619 0.29741 0.97069 0.0
H1176 H 0.21518 0.29535 0.28653 0.0
H1177 H 0.29571 0.35561 0.24834 0.0
H1178 H 0.23679 0.26571 0.29919 0.0
H1179 H 0.31726 0.32554 0.26045 0.0
H1180 H 0.35896 0.29197 0.3168 0.0
H1181 H 0.33533 0.31737 0.29869 0.0
H1182 H 0.25527 0.23386 0.28807 0.0
H1183 H 0.27842 0.20857 0.30757 0.0
C1184 C 0.23718 0.30169 0.28013 0.0
C1185 C 0.25381 0.32782 0.26651 0.0
C1186 C 0.24963 0.28473 0.28744 0.0
C1187 C 0.27894 0.29345 0.28116 0.0
C1188 C 0.29488 0.31858 0.26613 0.0
C1189 C 0.2825 0.33567 0.259 0.0
C1190 C 0.33618 0.27903 0.31096 0.0
C1191 C 0.32054 0.24823 0.31386 0.0
C1192 C 0.32277 0.29356 0.30011 0.0
C1193 C 0.29344 0.27766 0.2917 0.0
C1194 C 0.27782 0.24682 0.29448 0.0
C1195 C 0.29119 0.23229 0.30548 0.0
H1196 H 0.9101 0.24039 0.68639 0.0
H1197 H 0.93474 0.26971 0.61055 0.0
H1198 H 0.96138 0.26979 0.6993 0.0
H1199 H 0.98642 0.29826 0.62307 0.0
H1200 H 0.07194 0.36857 0.65632 0.0
H1201 H 0.02025 0.34066 0.64501 0.0
H1202 H 0.00743 0.27257 0.69741 0.0
H1203 H 0.05865 0.30164 0.71018 0.0
C1204 C 0.92668 0.25283 0.67243 0.0
C1205 C 0.91863 0.2527 0.64747 0.0
C1206 C 0.95609 0.26963 0.67978 0.0
C1207 C 0.97819 0.2864 0.66225 0.0
C1208 C 0.97 0.28606 0.63719 0.0
C1209 C 0.94048 0.26958 0.62992 0.0
C1210 C 0.05801 0.34798 0.6659 0.0
C1211 C 0.0696 0.33749 0.68429 0.0
C1212 C 0.02838 0.33165 0.65903 0.0
C1213 C 0.00959 0.30417 0.6701 0.0
C1214 C 0.0211 0.29377 0.68863 0.0
C1215 C 0.05066 0.3103 0.69574 0.0
H1216 H 0.71857 0.05014 0.03981 0.0
H1217 H 0.77967 0.06577 0.9798 0.0
H1218 H 0.69157 0.99771 0.02924 0.0
H1219 H 0.75205 0.01391 0.96852 0.0
H1220 H 0.71153 0.9144 0.9685 0.0
H1221 H 0.74008 0.96565 0.98178 0.0
H1222 H 0.65939 0.96649 -0.00358 0.0
H1223 H 0.63086 0.91478 0.98433 0.0
C1224 C 0.72636 0.04234 0.02452 0.0
C1225 C 0.7511 0.06213 0.01052 0.0
C1226 C 0.71068 0.0124 0.01823 0.0
C1227 C 0.71946 0.00165 -0.00214 0.0
C1228 C 0.74476 0.02134 0.98441 0.0
C1229 C 0.76042 0.05117 0.99071 0.0
C1230 C 0.69989 0.92549 0.97465 0.0
C1231 C 0.66892 0.91051 0.97528 0.0
C1232 C 0.71625 0.95495 0.98209 0.0
C1233 C 0.70204 0.97019 0.99024 0.0
C1234 C 0.67105 0.9553 0.99059 0.0
C1235 C 0.65468 0.9258 0.98323 0.0
H1236 H 0.65055 0.71994 0.32836 0.0
H1237 H 0.7276 0.8005 0.35207 0.0
H1238 H 0.68122 0.69839 0.31906 0.0
H1239 H 0.75842 0.77884 0.34275 0.0
H1240 H 0.79457 0.71408 0.35016 0.0
H1241 H 0.76731 0.73979 0.35762 0.0
H1242 H 0.71893 0.70386 0.2892 0.0
H1243 H 0.74556 0.67731 0.28219 0.0
C1244 C 0.6741 0.7331 0.33147 0.0
C1245 C 0.68667 0.76197 0.34085 0.0
C1246 C 0.69168 0.7208 0.32603 0.0
C1247 C 0.7223 0.73703 0.32986 0.0
C1248 C 0.73487 0.76572 0.3397 0.0
C1249 C 0.71722 0.77808 0.34515 0.0
C1250 C 0.77818 0.71177 0.33667 0.0
C1251 C 0.77193 0.69339 0.31574 0.0
C1252 C 0.76276 0.72672 0.34083 0.0
C1253 C 0.74073 0.72359 0.32415 0.0
C1254 C 0.73544 0.70629 0.30262 0.0
C1255 C 0.75092 0.69137 0.29843 0.0
H1256 H 0.07581 0.71436 0.68295 0.0
H1257 H 0.05824 0.746 0.61434 0.0
H1258 H 0.02353 0.68797 0.69245 0.0
H1259 H 0.00621 0.72155 0.62485 0.0
H1260 H 0.91087 0.65422 0.6388 0.0
H1261 H 0.96285 0.67584 0.6282 0.0
H1262 H 0.98574 0.69631 0.70599 0.0
H1263 H 0.93348 0.67337 0.71651 0.0
C1264 C 0.06083 0.71558 0.66976 0.0
C1265 C 0.0714 0.73233 0.64779 0.0
C1266 C 0.0308 0.70082 0.67547 0.0
C1267 C 0.01052 0.70272 0.65955 0.0
C1268 C 0.02104 0.71922 0.63745 0.0
C1269 C 0.05104 0.73366 0.63157 0.0
C1270 C 0.92712 0.66334 0.65357 0.0
C1271 C 0.91833 0.66235 0.67843 0.0
C1272 C 0.95692 0.67587 0.64752 0.0
C1273 C 0.97866 0.6881 0.66618 0.0
C1274 C 0.96968 0.68674 0.69114 0.0
C1275 C 0.93979 0.67377 0.69722 0.0
H1276 H 0.30262 0.06963 0.98995 0.0
H1277 H 0.36109 0.04931 0.94911 0.0
H1278 H 0.27335 0.01833 0.00284 0.0
H1279 H 0.33086 0.99742 0.96046 0.0
H1280 H 0.28895 0.91222 0.00296 0.0
H1281 H 0.31854 0.96409 0.99272 0.0
H1282 H 0.23976 0.97112 0.99079 0.0
H1283 H 0.21066 0.92012 0.00357 0.0
C1284 C 0.30875 0.05389 0.98332 0.0
C1285 C 0.3339 0.06319 0.96848 0.0
C1286 C 0.29195 0.02443 0.9906 0.0
C1287 C 0.29959 0.00345 0.98275 0.0
C1288 C 0.32456 0.01289 0.96739 0.0
C1289 C 0.34174 0.04252 0.9606 0.0
C1290 C 0.27797 0.92496 0.00104 0.0
C1291 C 0.24727 0.91174 0.00415 0.0
C1292 C 0.29495 0.95471 0.99459 0.0
C1293 C 0.28165 0.97198 0.99057 0.0
C1294 C 0.251 0.95882 0.99397 0.0
C1295 C 0.23413 0.92926 0.00093 0.0
H1296 H 0.90267 0.29824 0.15675 0.0
H1297 H 0.97477 0.32681 0.10471 0.0
H1298 H 0.93796 0.3228 0.19067 0.0
H1299 H 0.00989 0.35089 0.13846 0.0
H1300 H 0.06642 0.40974 0.19952 0.0
H1301 H 0.02717 0.3923 0.16858 0.0
H1302 H 0.97517 0.31342 0.21198 0.0
H1303 H 0.01418 0.33121 0.24331 0.0
C1304 C 0.92603 0.31004 0.15256 0.0
C1305 C 0.93606 0.31048 0.12819 0.0
C1306 C 0.94617 0.32391 0.17194 0.0
C1307 C 0.97663 0.33874 0.16719 0.0
C1308 C 0.98655 0.33992 0.14265 0.0
C1309 C 0.96648 0.32586 0.12338 0.0
C1310 C 0.04631 0.38903 0.2028 0.0
C1311 C 0.04345 0.37172 0.22376 0.0
C1312 C 0.02397 0.37894 0.18496 0.0
C1313 C 0.99828 0.35139 0.18777 0.0
C1314 C 0.99468 0.33481 0.20939 0.0
C1315 C 0.01711 0.34485 0.22719 0.0
H1316 H 0.6447 0.01352 0.57704 0.0
H1317 H 0.68479 0.07799 0.51824 0.0
H1318 H 0.62038 0.97471 0.54594 0.0
H1319 H 0.66228 0.0392 0.48734 0.0
H1320 H 0.60683 0.96841 0.4341 0.0
H1321 H 0.61872 0.00447 0.46734 0.0
H1322 H 0.63422 0.94906 0.51754 0.0
H1323 H 0.62102 0.91258 0.4845 0.0
C1324 C 0.64814 0.01946 0.5575 0.0
C1325 C 0.66698 0.04882 0.55013 0.0
C1326 C 0.63448 0.99716 0.53967 0.0
C1327 C 0.63951 0.00373 0.5141 0.0
C1328 C 0.65754 0.03326 0.50681 0.0
C1329 C 0.67092 0.05552 0.52458 0.0
C1330 C 0.61242 0.9639 0.45239 0.0
C1331 C 0.6133 0.93797 0.45679 0.0
C1332 C 0.61937 0.98455 0.47139 0.0
C1333 C 0.62786 0.97991 0.49506 0.0
C1334 C 0.62746 0.95326 0.49968 0.0
C1335 C 0.62006 0.9324 0.48075 0.0
H1336 H 0.57982 0.65068 0.86187 0.0
H1337 H 0.64399 0.65431 0.91422 0.0
H1338 H 0.59858 0.63092 0.83014 0.0
H1339 H 0.66203 0.63329 0.883 0.0
H1340 H 0.71494 0.64191 0.81282 0.0
H1341 H 0.69101 0.65207 0.8469 0.0
H1342 H 0.60578 0.59241 0.81481 0.0
H1343 H 0.62999 0.58377 0.77965 0.0
C1344 C 0.59739 0.64639 0.86674 0.0
C1345 C 0.61072 0.65422 0.89029 0.0
C1346 C 0.60812 0.63499 0.84862 0.0
C1347 C 0.63214 0.63089 0.85388 0.0
C1348 C 0.64404 0.63689 0.87809 0.0
C1349 C 0.63362 0.64871 0.89603 0.0
C1350 C 0.6911 0.63113 0.81287 0.0
C1351 C 0.67443 0.61236 0.79329 0.0
C1352 C 0.67729 0.63654 0.83271 0.0
C1353 C 0.6464 0.62301 0.8337 0.0
C1354 C 0.62963 0.60347 0.81451 0.0
C1355 C 0.6435 0.59826 0.79449 0.0
H1356 H 0.02291 0.62717 0.09372 0.0
H1357 H 0.0734 0.70702 0.13648 0.0
H1358 H 0.98928 0.60485 0.12891 0.0
H1359 H 0.03928 0.68535 0.17104 0.0
H1360 H 0.98685 0.63438 0.23662 0.0
H1361 H 0.02256 0.64823 0.20287 0.0
H1362 H 0.95138 0.61115 0.14934 0.0
H1363 H 0.91571 0.59681 0.18321 0.0
C1364 C 0.02695 0.63985 0.11068 0.0
C1365 C 0.05065 0.66894 0.11226 0.0
C1366 C 0.00755 0.62718 0.13073 0.0
C1367 C 0.01155 0.64333 0.15275 0.0
C1368 C 0.03574 0.67212 0.1545 0.0
C1369 C 0.05508 0.68473 0.13453 0.0
C1370 C 0.9789 0.62897 0.21764 0.0
C1371 C 0.94859 0.61484 0.21246 0.0
C1372 C -0.00069 0.63693 0.19832 0.0
C1373 C 0.98983 0.63114 0.17339 0.0
C1374 C 0.95941 0.61569 0.16833 0.0
C1375 C 0.93897 0.60753 0.18771 0.0
H1376 H 0.32478 0.06645 0.46692 0.0
H1377 H 0.39319 0.04894 0.44219 0.0
H1378 H 0.30606 0.02429 0.49492 0.0
H1379 H 0.3752 0.00778 0.47144 0.0
H1380 H 0.34644 0.96163 0.55229 0.0
H1381 H 0.36753 0.00236 0.5226 0.0
H1382 H 0.28388 0.96556 0.4848 0.0
H1383 H 0.26296 0.92383 0.51341 0.0
C1384 C 0.33585 0.0537 0.46737 0.0
C1385 C 0.36036 0.06102 0.45201 0.0
C1386 C 0.32518 0.02968 0.48352 0.0
C1387 C 0.33914 0.01287 0.48508 0.0
C1388 C 0.36419 0.0206 0.47052 0.0
C1389 C 0.37456 0.0443 0.45394 0.0
C1390 C 0.33264 0.96169 0.53731 0.0
C1391 C 0.30285 0.93941 0.53542 0.0
C1392 C 0.34474 0.98516 0.52046 0.0
C1393 C 0.32717 0.98705 0.50171 0.0
C1394 C 0.29768 0.96464 0.49938 0.0
C1395 C 0.28572 0.94089 0.51589 0.0
H1396 H 0.38824 0.33913 0.88038 0.0
H1397 H 0.32934 0.25241 0.85044 0.0
H1398 H 0.36804 0.36038 0.85147 0.0
H1399 H 0.30883 0.27369 0.82194 0.0
H1400 H 0.25718 0.31927 0.79747 0.0
H1401 H 0.27857 0.29842 0.82549 0.0
H1402 H 0.36593 0.36765 0.80541 0.0
H1403 H 0.34465 0.38826 0.77696 0.0
C1404 C 0.37122 0.32464 0.86748 0.0
C1405 C 0.36035 0.29405 0.86778 0.0
C1406 C 0.35961 0.33682 0.85099 0.0
C1407 C 0.33678 0.31865 0.83458 0.0
C1408 C 0.3261 0.28814 0.83468 0.0
C1409 C 0.33782 0.27598 0.85103 0.0
C1410 C 0.28096 0.32989 0.79881 0.0
C1411 C 0.2992 0.35541 0.78493 0.0
C1412 C 0.29318 0.31796 0.81489 0.0
C1413 C 0.32389 0.3314 0.81756 0.0
C1414 C 0.34216 0.35704 0.8039 0.0
C1415 C 0.32995 0.36887 0.78768 0.0
H1416 H 0.20489 0.43857 0.44123 0.0
H1417 H 0.19506 0.35256 0.42916 0.0
H1418 H 0.22302 0.43949 0.48326 0.0
H1419 H 0.21362 0.35365 0.47126 0.0
H1420 H 0.21434 0.35885 0.55938 0.0
H1421 H 0.19836 0.35409 0.51612 0.0
H1422 H 0.269 0.44256 0.50125 0.0
H1423 H 0.28541 0.44724 0.54441 0.0
C1424 C 0.20621 0.41969 0.44771 0.0
C1425 C 0.1985 0.39546 0.432 0.0
C1426 C 0.217 0.4204 0.4716 0.0
C1427 C 0.2201 0.39682 0.48033 0.0
C1428 C 0.2115 0.37213 0.46494 0.0
C1429 C 0.20095 0.37154 0.44091 0.0
C1430 C 0.22706 0.37697 0.54672 0.0
C1431 C 0.25103 0.40354 0.55538 0.0
C1432 C 0.21775 0.37427 0.52199 0.0
C1433 C 0.23213 0.39815 0.50553 0.0
C1434 C 0.25715 0.42405 0.51375 0.0
C1435 C 0.26657 0.42668 0.53841 0.0
H1436 H 0.83956 0.25484 0.88542 0.0
H1437 H 0.88116 0.20151 0.88314 0.0
H1438 H 0.81697 0.23532 0.84508 0.0
H1439 H 0.85781 0.18133 0.84291 0.0
H1440 H 0.82511 0.17025 0.7605 0.0
H1441 H 0.85378 0.19253 0.79823 0.0
H1442 H 0.77647 0.1852 0.83387 0.0
H1443 H 0.74774 0.16273 0.79628 0.0
C1444 C 0.84464 0.23964 0.87596 0.0
C1445 C 0.86208 0.22964 0.88748 0.0
C1446 C 0.83125 0.22806 0.85306 0.0
C1447 C 0.83507 0.20629 0.84118 0.0
C1448 C 0.85437 0.19798 0.85171 0.0
C1449 C 0.86772 0.20952 0.8747 0.0
C1450 C 0.81405 0.17272 0.77661 0.0
C1451 C 0.78414 0.16474 0.77544 0.0
C1452 C 0.83056 0.1857 0.79811 0.0
C1453 C 0.81749 0.1911 0.81877 0.0
C1454 C 0.78731 0.182 0.81796 0.0
C1455 C 0.7708 0.16894 0.79654 0.0
H1456 H 0.56021 0.84331 0.21735 0.0
H1457 H 0.65469 0.88961 0.2073 0.0
H1458 H 0.55383 0.82014 0.17677 0.0
H1459 H 0.64827 0.86622 0.1666 0.0
H1460 H 0.62456 0.78091 0.12259 0.0
H1461 H 0.63167 0.8134 0.15773 0.0
H1462 H 0.56072 0.82546 0.1309 0.0
H1463 H 0.5538 0.79328 0.09561 0.0
C1464 C 0.57957 0.84951 0.20603 0.0
C1465 C 0.60798 0.86806 0.21558 0.0
C1466 C 0.57591 0.83603 0.18283 0.0
C1467 C 0.60059 0.84087 0.16883 0.0
C1468 C 0.62889 0.86159 0.17732 0.0
C1469 C 0.63256 0.87514 0.20047 0.0
C1470 C 0.61055 0.79056 0.12416 0.0
C1471 C 0.58843 0.78425 0.10648 0.0
C1472 C 0.61476 0.80934 0.14415 0.0
C1473 C 0.59691 0.82218 0.14688 0.0
C1474 C 0.57467 0.81575 0.12931 0.0
C1475 C 0.57055 0.79707 0.10927 0.0
H1476 H 0.83843 0.57111 0.45178 0.0
H1477 H 0.88766 0.66628 0.45412 0.0
H1478 H 0.81578 0.57015 0.4915 0.0
H1479 H 0.86525 0.66541 0.49429 0.0
H1480 H 0.78489 0.65101 0.54133 0.0
H1481 H 0.81602 0.65407 0.50613 0.0
H1482 H 0.82087 0.57971 0.53532 0.0
H1483 H 0.78933 0.57633 0.56994 0.0
C1484 C 0.84532 0.59181 0.4613 0.0
C1485 C 0.86473 0.61878 0.44984 0.0
C1486 C 0.83219 0.59129 0.48405 0.0
C1487 C 0.83832 0.61774 0.49586 0.0
C1488 C 0.85954 0.64468 0.48534 0.0
C1489 C 0.87261 0.64519 0.46252 0.0
C1490 C 0.79258 0.63533 0.54004 0.0
C1491 C 0.78415 0.61302 0.55792 0.0
C1492 C 0.81065 0.63723 0.52011 0.0
C1493 C 0.8209 0.61708 0.51791 0.0
C1494 C 0.81294 0.59522 0.5362 0.0
C1495 C 0.79472 0.59317 0.55593 0.0
H1496 H 0.11625 0.80041 0.87384 0.0
H1497 H 0.17299 0.7625 0.87352 0.0
H1498 H 0.14329 0.83117 0.83806 0.0
H1499 H 0.19892 0.7921 0.83761 0.0
H1500 H 0.26106 0.8678 0.7918 0.0
H1501 H 0.23338 0.84445 0.8297 0.0
H1502 H 0.15276 0.82708 0.79323 0.0
H1503 H 0.18044 0.85069 0.75553 0.0
C1504 C 0.13413 0.79831 0.86594 0.0
C1505 C 0.1423 0.77885 0.87646 0.0
C1506 C 0.14958 0.81588 0.84549 0.0
C1507 C 0.17358 0.81444 0.83538 0.0
C1508 C 0.18098 0.79424 0.84536 0.0
C1509 C 0.16562 0.77675 0.86565 0.0
C1510 C 0.23755 0.85963 0.79213 0.0
C1511 C 0.22291 0.86089 0.7707 0.0
C1512 C 0.22166 0.84608 0.81371 0.0
C1513 C 0.19082 0.83337 0.8142 0.0
C1514 C 0.1765 0.83671 0.79343 0.0
C1515 C 0.19241 0.85038 0.77186 0.0
H1516 H 0.37067 0.17682 0.22883 0.0
H1517 H 0.43977 0.16253 0.20079 0.0
H1518 H 0.37051 0.20036 0.18983 0.0
H1519 H 0.43922 0.18554 0.16132 0.0
H1520 H 0.45172 0.25148 0.10277 0.0
H1521 H 0.45234 0.23309 0.14426 0.0
H1522 H 0.35722 0.18948 0.14696 0.0
H1523 H 0.35674 0.20919 0.10602 0.0
C1524 C 0.38533 0.17808 0.21403 0.0
C1525 C 0.40492 0.16743 0.21762 0.0
C1526 C 0.38536 0.19173 0.19174 0.0
C1527 C 0.40491 0.19495 0.17249 0.0
C1528 C 0.42425 0.18391 0.17597 0.0
C1529 C 0.42438 0.17045 0.1984 0.0
C1530 C 0.43101 0.2388 0.11255 0.0
C1531 C 0.40415 0.23167 0.10106 0.0
C1532 C 0.43133 0.22777 0.13614 0.0
C1533 C 0.40481 0.2093 0.14869 0.0
C1534 C 0.37807 0.20366 0.13783 0.0
C1535 C 0.37776 0.21481 0.11431 0.0
loop_
_geom_bond_atom_site_label_1
_geom_bond_atom_site_label_2
_geom_bond_distance
_geom_bond_site_symmetry_2
_ccdc_geom_bond_type
Li0 N17 1.990 . S
Li0 O60 1.956 . S
Li0 O61 1.970 . S
Li0 O62 1.961 . S
Li1 N25 1.990 . S
Li1 O60 1.970 . S
Li1 O61 1.956 . S
Li1 O63 1.961 . S
Li2 N47 1.990 . S
Li2 O60 1.961 . S
Li2 O62 1.956 . S
Li2 O63 1.970 . S
Li3 N53 1.990 . S
Li3 O61 1.961 . S
Li3 O62 1.970 . S
Li3 O63 1.956 . S
C4 C6 1.348 . S
C4 C7 1.356 . S
C4 O60 1.325 . S
N5 C8 1.314 . S
N5 C9 1.279 . S
C6 C4 1.348 . S
C6 C8 1.353 . S
C6 H64 0.929 . S
C7 C4 1.356 . S
C7 C9 1.358 . S
C7 H65 0.930 . S
C8 N5 1.314 . S
C8 C6 1.353 . S
C8 H66 0.930 . S
C9 N5 1.279 . S
C9 C7 1.358 . S
C9 H67 0.930 . S
C10 C13 1.348 . S
C10 C14 1.356 . S
C10 O61 1.325 . S
C11 N12 1.279 . S
C11 C14 1.358 . S
C11 H68 0.930 . S
N12 C11 1.279 . S
N12 C15 1.314 . S
C13 C10 1.348 . S
C13 C15 1.353 . S
C13 H69 0.929 . S
C14 C10 1.356 . S
C14 C11 1.358 . S
C14 H70 0.930 . S
C15 N12 1.314 . S
C15 C13 1.353 . S
C15 H71 0.930 . S
C16 N17 1.314 . S
C16 C21 1.353 . S
C16 H22 0.930 . S
N17 Li0 1.990 . S
N17 C16 1.314 . S
N17 C19 1.279 . S
C18 C19 1.358 . S
C18 C20 1.356 . S
C18 H72 0.930 . S
C19 N17 1.279 . S
C19 C18 1.358 . S
C19 H23 0.930 . S
C20 C18 1.356 . S
C20 C21 1.348 . S
C21 C16 1.353 . S
C21 C20 1.348 . S
C21 H73 0.929 . S
H22 C16 0.930 . S
H23 C19 0.930 . S
C24 N25 1.314 . S
C24 C26 1.353 . S
C24 H30 0.930 . S
N25 Li1 1.990 . S
N25 C24 1.314 . S
N25 C28 1.279 . S
C26 C24 1.353 . S
C26 C29 1.348 . S
C26 H74 0.929 . S
C27 C28 1.358 . S
C27 C29 1.356 . S
C27 H75 0.930 . S
C28 N25 1.279 . S
C28 C27 1.358 . S
C28 H31 0.930 . S
C29 C26 1.348 . S
C29 C27 1.356 . S
H30 C24 0.930 . S
H31 C28 0.930 . S
C32 C34 1.348 . S
C32 C35 1.356 . S
C32 O62 1.325 . S
N33 C36 1.314 . S
N33 C37 1.279 . S
C34 C32 1.348 . S
C34 C36 1.353 . S
C34 H76 0.929 . S
C35 C32 1.356 . S
C35 C37 1.358 . S
C35 H77 0.930 . S
C36 N33 1.314 . S
C36 C34 1.353 . S
C36 H78 0.930 . S
C37 N33 1.279 . S
C37 C35 1.358 . S
C37 H79 0.930 . S
C38 C39 1.348 . S
C38 C40 1.356 . S
C38 O63 1.325 . S
C39 C38 1.348 . S
C39 C41 1.353 . S
C39 H80 0.929 . S
C40 C38 1.356 . S
C40 C42 1.358 . S
C40 H81 0.930 . S
C41 C39 1.353 . S
C41 N43 1.314 . S
C41 H82 0.930 . S
C42 C40 1.358 . S
C42 N43 1.279 . S
C42 H83 0.930 . S
N43 C41 1.314 . S
N43 C42 1.279 . S
C44 C46 1.353 . S
C44 N47 1.314 . S
C44 H50 0.930 . S
C45 N47 1.279 . S
C45 C48 1.358 . S
C45 H51 0.930 . S
C46 C44 1.353 . S
C46 C49 1.348 . S
C46 H84 0.929 . S
N47 Li2 1.990 . S
N47 C44 1.314 . S
N47 C45 1.279 . S
C48 C45 1.358 . S
C48 C49 1.356 . S
C48 H85 0.930 . S
C49 C46 1.348 . S
C49 C48 1.356 . S
H50 C44 0.930 . S
H51 C45 0.930 . S
C52 N53 1.314 . S
C52 C54 1.353 . S
C52 H58 0.930 . S
N53 Li3 1.990 . S
N53 C52 1.314 . S
N53 C56 1.279 . S
C54 C52 1.353 . S
C54 C57 1.348 . S
C54 H86 0.929 . S
C55 C56 1.358 . S
C55 C57 1.356 . S
C55 H87 0.930 . S
C56 N53 1.279 . S
C56 C55 1.358 . S
C56 H59 0.930 . S
C57 C54 1.348 . S
C57 C55 1.356 . S
H58 C52 0.930 . S
H59 C56 0.930 . S
O60 Li0 1.956 . S
O60 Li1 1.970 . S
O60 Li2 1.961 . S
O60 C4 1.325 . S
O61 Li0 1.970 . S
O61 Li1 1.956 . S
O61 Li3 1.961 . S
O61 C10 1.325 . S
O62 Li0 1.961 . S
O62 Li2 1.956 . S
O62 Li3 1.970 . S
O62 C32 1.325 . S
O63 Li1 1.961 . S
O63 Li2 1.970 . S
O63 Li3 1.956 . S
O63 C38 1.325 . S
H64 C6 0.929 . S
H65 C7 0.930 . S
H66 C8 0.930 . S
H67 C9 0.930 . S
H68 C11 0.930 . S
H69 C13 0.929 . S
H70 C14 0.930 . S
H71 C15 0.930 . S
H72 C18 0.930 . S
H73 C21 0.929 . S
H74 C26 0.929 . S
H75 C27 0.930 . S
H76 C34 0.929 . S
H77 C35 0.930 . S
H78 C36 0.930 . S
H79 C37 0.930 . S
H80 C39 0.929 . S
H81 C40 0.930 . S
H82 C41 0.930 . S
H83 C42 0.930 . S
H84 C46 0.929 . S
H85 C48 0.930 . S
H86 C54 0.929 . S
H87 C55 0.930 . S
Li88 N105 1.990 . S
Li88 O148 1.956 . S
Li88 O149 1.970 . S
Li88 O150 1.961 . S
Li89 N113 1.990 . S
Li89 O148 1.970 . S
Li89 O149 1.956 . S
Li89 O151 1.961 . S
Li90 N135 1.990 . S
Li90 O148 1.961 . S
Li90 O150 1.956 . S
Li90 O151 1.970 . S
Li91 N141 1.990 . S
Li91 O149 1.961 . S
Li91 O150 1.970 . S
Li91 O151 1.956 . S
C92 C94 1.348 . S
C92 C95 1.356 . S
C92 O148 1.325 . S
N93 C96 1.314 . S
N93 C97 1.279 . S
C94 C92 1.348 . S
C94 C96 1.353 . S
C94 H152 0.929 . S
C95 C92 1.356 . S
C95 C97 1.358 . S
C95 H153 0.930 . S
C96 N93 1.314 . S
C96 C94 1.353 . S
C96 H154 0.930 . S
C97 N93 1.279 . S
C97 C95 1.358 . S
C97 H155 0.930 . S
C98 C101 1.348 . S
C98 C102 1.356 . S
C98 O149 1.325 . S
C99 N100 1.279 . S
C99 C102 1.358 . S
C99 H156 0.930 . S
N100 C99 1.279 . S
N100 C103 1.314 . S
C101 C98 1.348 . S
C101 C103 1.353 . S
C101 H157 0.929 . S
C102 C98 1.356 . S
C102 C99 1.358 . S
C102 H158 0.930 . S
C103 N100 1.314 . S
C103 C101 1.353 . S
C103 H159 0.930 . S
C104 N105 1.314 . S
C104 C109 1.353 . S
C104 H110 0.930 . S
N105 Li88 1.990 . S
N105 C104 1.314 . S
N105 C107 1.279 . S
C106 C107 1.358 . S
C106 C108 1.356 . S
C106 H160 0.930 . S
C107 N105 1.279 . S
C107 C106 1.358 . S
C107 H111 0.930 . S
C108 C106 1.356 . S
C108 C109 1.348 . S
C109 C104 1.353 . S
C109 C108 1.348 . S
C109 H161 0.929 . S
H110 C104 0.930 . S
H111 C107 0.930 . S
C112 N113 1.314 . S
C112 C114 1.353 . S
C112 H118 0.930 . S
N113 Li89 1.990 . S
N113 C112 1.314 . S
N113 C116 1.279 . S
C114 C112 1.353 . S
C114 C117 1.348 . S
C114 H162 0.929 . S
C115 C116 1.358 . S
C115 C117 1.356 . S
C115 H163 0.930 . S
C116 N113 1.279 . S
C116 C115 1.358 . S
C116 H119 0.930 . S
C117 C114 1.348 . S
C117 C115 1.356 . S
H118 C112 0.930 . S
H119 C116 0.930 . S
C120 C122 1.348 . S
C120 C123 1.356 . S
C120 O150 1.325 . S
N121 C124 1.314 . S
N121 C125 1.279 . S
C122 C120 1.348 . S
C122 C124 1.353 . S
C122 H164 0.929 . S
C123 C120 1.356 . S
C123 C125 1.358 . S
C123 H165 0.930 . S
C124 N121 1.314 . S
C124 C122 1.353 . S
C124 H166 0.930 . S
C125 N121 1.279 . S
C125 C123 1.358 . S
C125 H167 0.930 . S
C126 C127 1.348 . S
C126 C128 1.356 . S
C126 O151 1.325 . S
C127 C126 1.348 . S
C127 C129 1.353 . S
C127 H168 0.929 . S
C128 C126 1.356 . S
C128 C130 1.358 . S
C128 H169 0.930 . S
C129 C127 1.353 . S
C129 N131 1.314 . S
C129 H170 0.930 . S
C130 C128 1.358 . S
C130 N131 1.279 . S
C130 H171 0.930 . S
N131 C129 1.314 . S
N131 C130 1.279 . S
C132 C134 1.353 . S
C132 N135 1.314 . S
C132 H138 0.930 . S
C133 N135 1.279 . S
C133 C136 1.358 . S
C133 H139 0.930 . S
C134 C132 1.353 . S
C134 C137 1.348 . S
C134 H172 0.929 . S
N135 Li90 1.990 . S
N135 C132 1.314 . S
N135 C133 1.279 . S
C136 C133 1.358 . S
C136 C137 1.356 . S
C136 H173 0.930 . S
C137 C134 1.348 . S
C137 C136 1.356 . S
H138 C132 0.930 . S
H139 C133 0.930 . S
C140 N141 1.314 . S
C140 C142 1.353 . S
C140 H146 0.930 . S
N141 Li91 1.990 . S
N141 C140 1.314 . S
N141 C144 1.279 . S
C142 C140 1.353 . S
C142 C145 1.348 . S
C142 H174 0.929 . S
C143 C144 1.358 . S
C143 C145 1.356 . S
C143 H175 0.930 . S
C144 N141 1.279 . S
C144 C143 1.358 . S
C144 H147 0.930 . S
C145 C142 1.348 . S
C145 C143 1.356 . S
H146 C140 0.930 . S
H147 C144 0.930 . S
O148 Li88 1.956 . S
O148 Li89 1.970 . S
O148 Li90 1.961 . S
O148 C92 1.325 . S
O149 Li88 1.970 . S
O149 Li89 1.956 . S
O149 Li91 1.961 . S
O149 C98 1.325 . S
O150 Li88 1.961 . S
O150 Li90 1.956 . S
O150 Li91 1.970 . S
O150 C120 1.325 . S
O151 Li89 1.961 . S
O151 Li90 1.970 . S
O151 Li91 1.956 . S
O151 C126 1.325 . S
H152 C94 0.929 . S
H153 C95 0.930 . S
H154 C96 0.930 . S
H155 C97 0.930 . S
H156 C99 0.930 . S
H157 C101 0.929 . S
H158 C102 0.930 . S
H159 C103 0.930 . S
H160 C106 0.930 . S
H161 C109 0.929 . S
H162 C114 0.929 . S
H163 C115 0.930 . S
H164 C122 0.929 . S
H165 C123 0.930 . S
H166 C124 0.930 . S
H167 C125 0.930 . S
H168 C127 0.929 . S
H169 C128 0.930 . S
H170 C129 0.930 . S
H171 C130 0.930 . S
H172 C134 0.929 . S
H173 C136 0.930 . S
H174 C142 0.929 . S
H175 C143 0.930 . S
Li176 N193 1.990 . S
Li176 O236 1.956 . S
Li176 O237 1.970 . S
Li176 O238 1.961 . S
Li177 N201 1.990 . S
Li177 O236 1.970 1_556 S
Li177 O237 1.956 1_556 S
Li177 O239 1.961 . S
Li178 N223 1.990 . S
Li178 O236 1.961 1_556 S
Li178 O238 1.956 1_556 S
Li178 O239 1.970 . S
Li179 N229 1.990 . S
Li179 O237 1.961 1_556 S
Li179 O238 1.970 1_556 S
Li179 O239 1.956 . S
C180 C182 1.348 . S
C180 C183 1.356 . S
C180 O236 1.325 . S
N181 C184 1.314 . S
N181 C185 1.279 . S
C182 C180 1.348 . S
C182 C184 1.353 . S
C182 H240 0.929 . S
C183 C180 1.356 . S
C183 C185 1.358 . S
C183 H241 0.930 . S
C184 N181 1.314 . S
C184 C182 1.353 . S
C184 H242 0.930 . S
C185 N181 1.279 . S
C185 C183 1.358 . S
C185 H243 0.930 . S
C186 C189 1.348 . S
C186 C190 1.356 . S
C186 O237 1.325 . S
C187 N188 1.279 . S
C187 C190 1.358 . S
C187 H244 0.930 . S
N188 C187 1.279 . S
N188 C191 1.314 . S
C189 C186 1.348 . S
C189 C191 1.353 . S
C189 H245 0.929 . S
C190 C186 1.356 . S
C190 C187 1.358 . S
C190 H246 0.930 . S
C191 N188 1.314 . S
C191 C189 1.353 . S
C191 H247 0.930 . S
C192 N193 1.314 . S
C192 C197 1.353 . S
C192 H198 0.930 . S
N193 Li176 1.990 . S
N193 C192 1.314 . S
N193 C195 1.279 . S
C194 C195 1.358 . S
C194 C196 1.356 . S
C194 H248 0.930 . S
C195 N193 1.279 . S
C195 C194 1.358 . S
C195 H199 0.930 . S
C196 C194 1.356 . S
C196 C197 1.348 . S
C197 C192 1.353 . S
C197 C196 1.348 . S
C197 H249 0.929 . S
H198 C192 0.930 . S
H199 C195 0.930 . S
C200 N201 1.314 . S
C200 C202 1.353 . S
C200 H206 0.930 . S
N201 Li177 1.990 . S
N201 C200 1.314 . S
N201 C204 1.279 1_556 S
C202 C200 1.353 . S
C202 C205 1.348 . S
C202 H250 0.929 . S
C203 C204 1.358 1_556 S
C203 C205 1.356 . S
C203 H251 0.930 1_556 S
C204 N201 1.279 1_554 S
C204 C203 1.358 1_554 S
C204 H207 0.930 . S
C205 C202 1.348 . S
C205 C203 1.356 . S
H206 C200 0.930 . S
H207 C204 0.930 . S
C208 C210 1.348 . S
C208 C211 1.356 . S
C208 O238 1.325 . S
N209 C212 1.314 . S
N209 C213 1.279 . S
C210 C208 1.348 . S
C210 C212 1.353 . S
C210 H252 0.929 1_554 S
C211 C208 1.356 . S
C211 C213 1.358 . S
C211 H253 0.930 . S
C212 N209 1.314 . S
C212 C210 1.353 . S
C212 H254 0.930 . S
C213 N209 1.279 . S
C213 C211 1.358 . S
C213 H255 0.930 . S
C214 C215 1.348 . S
C214 C216 1.356 . S
C214 O239 1.325 . S
C215 C214 1.348 . S
C215 C217 1.353 . S
C215 H256 0.929 . S
C216 C214 1.356 . S
C216 C218 1.358 . S
C216 H257 0.930 . S
C217 C215 1.353 . S
C217 N219 1.314 . S
C217 H258 0.930 . S
C218 C216 1.358 . S
C218 N219 1.279 . S
C218 H259 0.930 . S
N219 C217 1.314 . S
N219 C218 1.279 . S
C220 C222 1.353 . S
C220 N223 1.314 . S
C220 H226 0.930 . S
C221 N223 1.279 . S
C221 C224 1.358 . S
C221 H227 0.930 . S
C222 C220 1.353 . S
C222 C225 1.348 . S
C222 H260 0.929 . S
N223 Li178 1.990 . S
N223 C220 1.314 . S
N223 C221 1.279 . S
C224 C221 1.358 . S
C224 C225 1.356 . S
C224 H261 0.930 . S
C225 C222 1.348 . S
C225 C224 1.356 . S
H226 C220 0.930 . S
H227 C221 0.930 . S
C228 N229 1.314 1_554 S
C228 C230 1.353 . S
C228 H234 0.930 . S
N229 Li179 1.990 . S
N229 C228 1.314 1_556 S
N229 C232 1.279 . S
C230 C228 1.353 . S
C230 C233 1.348 1_554 S
C230 H262 0.929 . S
C231 C232 1.358 . S
C231 C233 1.356 . S
C231 H263 0.930 . S
C232 N229 1.279 . S
C232 C231 1.358 . S
C232 H235 0.930 . S
C233 C230 1.348 1_556 S
C233 C231 1.356 . S
H234 C228 0.930 . S
H235 C232 0.930 . S
O236 Li176 1.956 . S
O236 Li177 1.970 1_554 S
O236 Li178 1.961 1_554 S
O236 C180 1.325 . S
O237 Li176 1.970 . S
O237 Li177 1.956 1_554 S
O237 Li179 1.961 1_554 S
O237 C186 1.325 . S
O238 Li176 1.961 . S
O238 Li178 1.956 1_554 S
O238 Li179 1.970 1_554 S
O238 C208 1.325 . S
O239 Li177 1.961 . S
O239 Li178 1.970 . S
O239 Li179 1.956 . S
O239 C214 1.325 . S
H240 C182 0.929 . S
H241 C183 0.930 . S
H242 C184 0.930 . S
H243 C185 0.930 . S
H244 C187 0.930 . S
H245 C189 0.929 . S
H246 C190 0.930 . S
H247 C191 0.930 . S
H248 C194 0.930 . S
H249 C197 0.929 . S
H250 C202 0.929 . S
H251 C203 0.930 1_554 S
H252 C210 0.929 1_556 S
H253 C211 0.930 . S
H254 C212 0.930 . S
H255 C213 0.930 . S
H256 C215 0.929 . S
H257 C216 0.930 . S
H258 C217 0.930 . S
H259 C218 0.930 . S
H260 C222 0.929 . S
H261 C224 0.930 . S
H262 C230 0.929 . S
H263 C231 0.930 . S
Li264 N281 1.990 . S
Li264 O324 1.956 . S
Li264 O325 1.970 . S
Li264 O326 1.961 . S
Li265 N289 1.990 . S
Li265 O324 1.970 . S
Li265 O325 1.956 . S
Li265 O327 1.961 . S
Li266 N311 1.990 . S
Li266 O324 1.961 . S
Li266 O326 1.956 . S
Li266 O327 1.970 . S
Li267 N317 1.990 . S
Li267 O325 1.961 . S
Li267 O326 1.970 . S
Li267 O327 1.956 . S
C268 C270 1.348 . S
C268 C271 1.356 . S
C268 O324 1.325 . S
N269 C272 1.314 . S
N269 C273 1.279 . S
C270 C268 1.348 . S
C270 C272 1.353 . S
C270 H328 0.929 . S
C271 C268 1.356 . S
C271 C273 1.358 . S
C271 H329 0.930 . S
C272 N269 1.314 . S
C272 C270 1.353 . S
C272 H330 0.930 . S
C273 N269 1.279 . S
C273 C271 1.358 . S
C273 H331 0.930 . S
C274 C277 1.348 . S
C274 C278 1.356 . S
C274 O325 1.325 . S
C275 N276 1.279 . S
C275 C278 1.358 . S
C275 H332 0.930 . S
N276 C275 1.279 . S
N276 C279 1.314 . S
C277 C274 1.348 . S
C277 C279 1.353 . S
C277 H333 0.929 . S
C278 C274 1.356 . S
C278 C275 1.358 . S
C278 H334 0.930 . S
C279 N276 1.314 . S
C279 C277 1.353 . S
C279 H335 0.930 . S
C280 N281 1.314 . S
C280 C285 1.353 . S
C280 H286 0.930 . S
N281 Li264 1.990 . S
N281 C280 1.314 . S
N281 C283 1.279 . S
C282 C283 1.358 . S
C282 C284 1.356 . S
C282 H336 0.930 . S
C283 N281 1.279 . S
C283 C282 1.358 . S
C283 H287 0.930 . S
C284 C282 1.356 . S
C284 C285 1.348 . S
C285 C280 1.353 . S
C285 C284 1.348 . S
C285 H337 0.929 . S
H286 C280 0.930 . S
H287 C283 0.930 . S
C288 N289 1.314 . S
C288 C290 1.353 . S
C288 H294 0.930 . S
N289 Li265 1.990 . S
N289 C288 1.314 . S
N289 C292 1.279 . S
C290 C288 1.353 . S
C290 C293 1.348 . S
C290 H338 0.929 . S
C291 C292 1.358 . S
C291 C293 1.356 . S
C291 H339 0.930 . S
C292 N289 1.279 . S
C292 C291 1.358 . S
C292 H295 0.930 . S
C293 C290 1.348 . S
C293 C291 1.356 . S
H294 C288 0.930 . S
H295 C292 0.930 . S
C296 C298 1.348 . S
C296 C299 1.356 . S
C296 O326 1.325 . S
N297 C300 1.314 . S
N297 C301 1.279 . S
C298 C296 1.348 . S
C298 C300 1.353 . S
C298 H340 0.929 . S
C299 C296 1.356 . S
C299 C301 1.358 . S
C299 H341 0.930 . S
C300 N297 1.314 . S
C300 C298 1.353 . S
C300 H342 0.930 . S
C301 N297 1.279 . S
C301 C299 1.358 . S
C301 H343 0.930 . S
C302 C303 1.348 . S
C302 C304 1.356 . S
C302 O327 1.325 . S
C303 C302 1.348 . S
C303 C305 1.353 . S
C303 H344 0.929 . S
C304 C302 1.356 . S
C304 C306 1.358 . S
C304 H345 0.930 . S
C305 C303 1.353 . S
C305 N307 1.314 . S
C305 H346 0.930 . S
C306 C304 1.358 . S
C306 N307 1.279 . S
C306 H347 0.930 . S
N307 C305 1.314 . S
N307 C306 1.279 . S
C308 C310 1.353 . S
C308 N311 1.314 . S
C308 H314 0.930 . S
C309 N311 1.279 . S
C309 C312 1.358 . S
C309 H315 0.930 . S
C310 C308 1.353 . S
C310 C313 1.348 . S
C310 H348 0.929 . S
N311 Li266 1.990 . S
N311 C308 1.314 . S
N311 C309 1.279 . S
C312 C309 1.358 . S
C312 C313 1.356 . S
C312 H349 0.930 . S
C313 C310 1.348 . S
C313 C312 1.356 . S
H314 C308 0.930 . S
H315 C309 0.930 . S
C316 N317 1.314 . S
C316 C318 1.353 . S
C316 H322 0.930 . S
N317 Li267 1.990 . S
N317 C316 1.314 . S
N317 C320 1.279 . S
C318 C316 1.353 . S
C318 C321 1.348 . S
C318 H350 0.929 . S
C319 C320 1.358 . S
C319 C321 1.356 . S
C319 H351 0.930 . S
C320 N317 1.279 . S
C320 C319 1.358 . S
C320 H323 0.930 . S
C321 C318 1.348 . S
C321 C319 1.356 . S
H322 C316 0.930 . S
H323 C320 0.930 . S
O324 Li264 1.956 . S
O324 Li265 1.970 . S
O324 Li266 1.961 . S
O324 C268 1.325 . S
O325 Li264 1.970 . S
O325 Li265 1.956 . S
O325 Li267 1.961 . S
O325 C274 1.325 . S
O326 Li264 1.961 . S
O326 Li266 1.956 . S
O326 Li267 1.970 . S
O326 C296 1.325 . S
O327 Li265 1.961 . S
O327 Li266 1.970 . S
O327 Li267 1.956 . S
O327 C302 1.325 . S
H328 C270 0.929 . S
H329 C271 0.930 . S
H330 C272 0.930 . S
H331 C273 0.930 . S
H332 C275 0.930 . S
H333 C277 0.929 . S
H334 C278 0.930 . S
H335 C279 0.930 . S
H336 C282 0.930 . S
H337 C285 0.929 . S
H338 C290 0.929 . S
H339 C291 0.930 . S
H340 C298 0.929 . S
H341 C299 0.930 . S
H342 C300 0.930 . S
H343 C301 0.930 . S
H344 C303 0.929 . S
H345 C304 0.930 . S
H346 C305 0.930 . S
H347 C306 0.930 . S
H348 C310 0.929 . S
H349 C312 0.930 . S
H350 C318 0.929 . S
H351 C319 0.930 . S
Li352 N369 1.990 . S
Li352 O412 1.956 . S
Li352 O413 1.970 . S
Li352 O414 1.961 . S
Li353 N377 1.990 . S
Li353 O412 1.970 . S
Li353 O413 1.956 . S
Li353 O415 1.961 . S
Li354 N399 1.990 . S
Li354 O412 1.961 . S
Li354 O414 1.956 . S
Li354 O415 1.970 . S
Li355 N405 1.990 . S
Li355 O413 1.961 . S
Li355 O414 1.970 . S
Li355 O415 1.956 . S
C356 C358 1.348 . S
C356 C359 1.356 . S
C356 O412 1.325 . S
N357 C360 1.314 . S
N357 C361 1.279 . S
C358 C356 1.348 . S
C358 C360 1.353 . S
C358 H416 0.929 . S
C359 C356 1.356 . S
C359 C361 1.358 . S
C359 H417 0.930 . S
C360 N357 1.314 . S
C360 C358 1.353 . S
C360 H418 0.930 . S
C361 N357 1.279 . S
C361 C359 1.358 . S
C361 H419 0.930 . S
C362 C365 1.348 . S
C362 C366 1.356 . S
C362 O413 1.325 . S
C363 N364 1.279 . S
C363 C366 1.358 . S
C363 H420 0.930 . S
N364 C363 1.279 . S
N364 C367 1.314 . S
C365 C362 1.348 . S
C365 C367 1.353 . S
C365 H421 0.929 . S
C366 C362 1.356 . S
C366 C363 1.358 . S
C366 H422 0.930 . S
C367 N364 1.314 . S
C367 C365 1.353 . S
C367 H423 0.930 . S
C368 N369 1.314 . S
C368 C373 1.353 . S
C368 H374 0.930 . S
N369 Li352 1.990 . S
N369 C368 1.314 . S
N369 C371 1.279 . S
C370 C371 1.358 . S
C370 C372 1.356 . S
C370 H424 0.930 . S
C371 N369 1.279 . S
C371 C370 1.358 . S
C371 H375 0.930 . S
C372 C370 1.356 . S
C372 C373 1.348 . S
C373 C368 1.353 . S
C373 C372 1.348 . S
C373 H425 0.929 . S
H374 C368 0.930 . S
H375 C371 0.930 . S
C376 N377 1.314 . S
C376 C378 1.353 . S
C376 H382 0.930 . S
N377 Li353 1.990 . S
N377 C376 1.314 . S
N377 C380 1.279 . S
C378 C376 1.353 . S
C378 C381 1.348 . S
C378 H426 0.929 . S
C379 C380 1.358 . S
C379 C381 1.356 . S
C379 H427 0.930 . S
C380 N377 1.279 . S
C380 C379 1.358 . S
C380 H383 0.930 . S
C381 C378 1.348 . S
C381 C379 1.356 . S
H382 C376 0.930 . S
H383 C380 0.930 . S
C384 C386 1.348 . S
C384 C387 1.356 . S
C384 O414 1.325 . S
N385 C388 1.314 . S
N385 C389 1.279 . S
C386 C384 1.348 . S
C386 C388 1.353 . S
C386 H428 0.929 . S
C387 C384 1.356 . S
C387 C389 1.358 . S
C387 H429 0.930 . S
C388 N385 1.314 . S
C388 C386 1.353 . S
C388 H430 0.930 . S
C389 N385 1.279 . S
C389 C387 1.358 . S
C389 H431 0.930 . S
C390 C391 1.348 . S
C390 C392 1.356 . S
C390 O415 1.325 . S
C391 C390 1.348 . S
C391 C393 1.353 . S
C391 H432 0.929 . S
C392 C390 1.356 . S
C392 C394 1.358 . S
C392 H433 0.930 . S
C393 C391 1.353 . S
C393 N395 1.314 . S
C393 H434 0.930 . S
C394 C392 1.358 . S
C394 N395 1.279 . S
C394 H435 0.930 . S
N395 C393 1.314 . S
N395 C394 1.279 . S
C396 C398 1.353 . S
C396 N399 1.314 . S
C396 H402 0.930 . S
C397 N399 1.279 . S
C397 C400 1.358 . S
C397 H403 0.930 . S
C398 C396 1.353 . S
C398 C401 1.348 . S
C398 H436 0.929 . S
N399 Li354 1.990 . S
N399 C396 1.314 . S
N399 C397 1.279 . S
C400 C397 1.358 . S
C400 C401 1.356 . S
C400 H437 0.930 . S
C401 C398 1.348 . S
C401 C400 1.356 . S
H402 C396 0.930 . S
H403 C397 0.930 . S
C404 N405 1.314 . S
C404 C406 1.353 . S
C404 H410 0.930 . S
N405 Li355 1.990 . S
N405 C404 1.314 . S
N405 C408 1.279 . S
C406 C404 1.353 . S
C406 C409 1.348 . S
C406 H438 0.929 . S
C407 C408 1.358 . S
C407 C409 1.356 . S
C407 H439 0.930 . S
C408 N405 1.279 . S
C408 C407 1.358 . S
C408 H411 0.930 . S
C409 C406 1.348 . S
C409 C407 1.356 . S
H410 C404 0.930 . S
H411 C408 0.930 . S
O412 Li352 1.956 . S
O412 Li353 1.970 . S
O412 Li354 1.961 . S
O412 C356 1.325 . S
O413 Li352 1.970 . S
O413 Li353 1.956 . S
O413 Li355 1.961 . S
O413 C362 1.325 . S
O414 Li352 1.961 . S
O414 Li354 1.956 . S
O414 Li355 1.970 . S
O414 C384 1.325 . S
O415 Li353 1.961 . S
O415 Li354 1.970 . S
O415 Li355 1.956 . S
O415 C390 1.325 . S
H416 C358 0.929 . S
H417 C359 0.930 . S
H418 C360 0.930 . S
H419 C361 0.930 . S
H420 C363 0.930 . S
H421 C365 0.929 . S
H422 C366 0.930 . S
H423 C367 0.930 . S
H424 C370 0.930 . S
H425 C373 0.929 . S
H426 C378 0.929 . S
H427 C379 0.930 . S
H428 C386 0.929 . S
H429 C387 0.930 . S
H430 C388 0.930 . S
H431 C389 0.930 . S
H432 C391 0.929 . S
H433 C392 0.930 . S
H434 C393 0.930 . S
H435 C394 0.930 . S
H436 C398 0.929 . S
H437 C400 0.930 . S
H438 C406 0.929 . S
H439 C407 0.930 . S
Li440 N457 1.990 . S
Li440 O500 1.956 1_556 S
Li440 O501 1.970 1_556 S
Li440 O502 1.961 . S
Li441 N465 1.990 . S
Li441 O500 1.970 . S
Li441 O501 1.956 . S
Li441 O503 1.961 . S
Li442 N487 1.990 . S
Li442 O500 1.961 1_556 S
Li442 O502 1.956 . S
Li442 O503 1.970 1_556 S
Li443 N493 1.990 . S
Li443 O501 1.961 1_556 S
Li443 O502 1.970 . S
Li443 O503 1.956 1_556 S
C444 C446 1.348 . S
C444 C447 1.356 . S
C444 O500 1.325 . S
N445 C448 1.314 . S
N445 C449 1.279 . S
C446 C444 1.348 . S
C446 C448 1.353 . S
C446 H504 0.929 . S
C447 C444 1.356 . S
C447 C449 1.358 . S
C447 H505 0.930 . S
C448 N445 1.314 . S
C448 C446 1.353 . S
C448 H506 0.930 . S
C449 N445 1.279 . S
C449 C447 1.358 . S
C449 H507 0.930 . S
C450 C453 1.348 . S
C450 C454 1.356 . S
C450 O501 1.325 . S
C451 N452 1.279 . S
C451 C454 1.358 . S
C451 H508 0.930 . S
N452 C451 1.279 . S
N452 C455 1.314 . S
C453 C450 1.348 . S
C453 C455 1.353 . S
C453 H509 0.929 . S
C454 C450 1.356 . S
C454 C451 1.358 . S
C454 H510 0.930 . S
C455 N452 1.314 . S
C455 C453 1.353 . S
C455 H511 0.930 . S
C456 N457 1.314 . S
C456 C461 1.353 . S
C456 H462 0.930 . S
N457 Li440 1.990 . S
N457 C456 1.314 . S
N457 C459 1.279 1_556 S
C458 C459 1.358 1_556 S
C458 C460 1.356 . S
C458 H512 0.930 1_556 S
C459 N457 1.279 1_554 S
C459 C458 1.358 1_554 S
C459 H463 0.930 . S
C460 C458 1.356 . S
C460 C461 1.348 . S
C461 C456 1.353 . S
C461 C460 1.348 . S
C461 H513 0.929 . S
H462 C456 0.930 . S
H463 C459 0.930 . S
C464 N465 1.314 . S
C464 C466 1.353 . S
C464 H470 0.930 . S
N465 Li441 1.990 . S
N465 C464 1.314 . S
N465 C468 1.279 . S
C466 C464 1.353 . S
C466 C469 1.348 . S
C466 H514 0.929 . S
C467 C468 1.358 . S
C467 C469 1.356 . S
C467 H515 0.930 . S
C468 N465 1.279 . S
C468 C467 1.358 . S
C468 H471 0.930 . S
C469 C466 1.348 . S
C469 C467 1.356 . S
H470 C464 0.930 . S
H471 C468 0.930 . S
C472 C474 1.348 . S
C472 C475 1.356 . S
C472 O502 1.325 . S
N473 C476 1.314 . S
N473 C477 1.279 . S
C474 C472 1.348 . S
C474 C476 1.353 . S
C474 H516 0.929 . S
C475 C472 1.356 . S
C475 C477 1.358 . S
C475 H517 0.930 . S
C476 N473 1.314 . S
C476 C474 1.353 . S
C476 H518 0.930 . S
C477 N473 1.279 . S
C477 C475 1.358 . S
C477 H519 0.930 . S
C478 C479 1.348 . S
C478 C480 1.356 . S
C478 O503 1.325 . S
C479 C478 1.348 . S
C479 C481 1.353 . S
C479 H520 0.929 1_554 S
C480 C478 1.356 . S
C480 C482 1.358 . S
C480 H521 0.930 . S
C481 C479 1.353 . S
C481 N483 1.314 . S
C481 H522 0.930 . S
C482 C480 1.358 . S
C482 N483 1.279 . S
C482 H523 0.930 . S
N483 C481 1.314 . S
N483 C482 1.279 . S
C484 C486 1.353 . S
C484 N487 1.314 1_554 S
C484 H490 0.930 . S
C485 N487 1.279 . S
C485 C488 1.358 . S
C485 H491 0.930 . S
C486 C484 1.353 . S
C486 C489 1.348 1_554 S
C486 H524 0.929 . S
N487 Li442 1.990 . S
N487 C484 1.314 1_556 S
N487 C485 1.279 . S
C488 C485 1.358 . S
C488 C489 1.356 . S
C488 H525 0.930 . S
C489 C486 1.348 1_556 S
C489 C488 1.356 . S
H490 C484 0.930 . S
H491 C485 0.930 . S
C492 N493 1.314 . S
C492 C494 1.353 . S
C492 H498 0.930 . S
N493 Li443 1.990 . S
N493 C492 1.314 . S
N493 C496 1.279 . S
C494 C492 1.353 . S
C494 C497 1.348 . S
C494 H526 0.929 . S
C495 C496 1.358 . S
C495 C497 1.356 . S
C495 H527 0.930 . S
C496 N493 1.279 . S
C496 C495 1.358 . S
C496 H499 0.930 . S
C497 C494 1.348 . S
C497 C495 1.356 . S
H498 C492 0.930 . S
H499 C496 0.930 . S
O500 Li440 1.956 1_554 S
O500 Li441 1.970 . S
O500 Li442 1.961 1_554 S
O500 C444 1.325 . S
O501 Li440 1.970 1_554 S
O501 Li441 1.956 . S
O501 Li443 1.961 1_554 S
O501 C450 1.325 . S
O502 Li440 1.961 . S
O502 Li442 1.956 . S
O502 Li443 1.970 . S
O502 C472 1.325 . S
O503 Li441 1.961 . S
O503 Li442 1.970 1_554 S
O503 Li443 1.956 1_554 S
O503 C478 1.325 . S
H504 C446 0.929 . S
H505 C447 0.930 . S
H506 C448 0.930 . S
H507 C449 0.930 . S
H508 C451 0.930 . S
H509 C453 0.929 . S
H510 C454 0.930 . S
H511 C455 0.930 . S
H512 C458 0.930 1_554 S
H513 C461 0.929 . S
H514 C466 0.929 . S
H515 C467 0.930 . S
H516 C474 0.929 . S
H517 C475 0.930 . S
H518 C476 0.930 . S
H519 C477 0.930 . S
H520 C479 0.929 1_556 S
H521 C480 0.930 . S
H522 C481 0.930 . S
H523 C482 0.930 . S
H524 C486 0.929 . S
H525 C488 0.930 . S
H526 C494 0.929 . S
H527 C495 0.930 . S
Li528 N545 1.990 . S
Li528 O588 1.956 . S
Li528 O589 1.970 . S
Li528 O590 1.961 . S
Li529 N553 1.990 . S
Li529 O588 1.970 . S
Li529 O589 1.956 . S
Li529 O591 1.961 . S
Li530 N575 1.990 . S
Li530 O588 1.961 . S
Li530 O590 1.956 . S
Li530 O591 1.970 . S
Li531 N581 1.990 . S
Li531 O589 1.961 . S
Li531 O590 1.970 . S
Li531 O591 1.956 . S
C532 C534 1.348 . S
C532 C535 1.356 . S
C532 O588 1.325 . S
N533 C536 1.314 . S
N533 C537 1.279 . S
C534 C532 1.348 . S
C534 C536 1.353 . S
C534 H592 0.929 . S
C535 C532 1.356 . S
C535 C537 1.358 . S
C535 H593 0.930 . S
C536 N533 1.314 . S
C536 C534 1.353 . S
C536 H594 0.930 . S
C537 N533 1.279 . S
C537 C535 1.358 . S
C537 H595 0.930 . S
C538 C541 1.348 . S
C538 C542 1.356 . S
C538 O589 1.325 . S
C539 N540 1.279 . S
C539 C542 1.358 . S
C539 H596 0.930 . S
N540 C539 1.279 . S
N540 C543 1.314 . S
C541 C538 1.348 . S
C541 C543 1.353 . S
C541 H597 0.929 . S
C542 C538 1.356 . S
C542 C539 1.358 . S
C542 H598 0.930 . S
C543 N540 1.314 . S
C543 C541 1.353 . S
C543 H599 0.930 . S
C544 N545 1.314 . S
C544 C549 1.353 . S
C544 H550 0.930 . S
N545 Li528 1.990 . S
N545 C544 1.314 . S
N545 C547 1.279 . S
C546 C547 1.358 . S
C546 C548 1.356 . S
C546 H600 0.930 . S
C547 N545 1.279 . S
C547 C546 1.358 . S
C547 H551 0.930 . S
C548 C546 1.356 . S
C548 C549 1.348 . S
C549 C544 1.353 . S
C549 C548 1.348 . S
C549 H601 0.929 . S
H550 C544 0.930 . S
H551 C547 0.930 . S
C552 N553 1.314 . S
C552 C554 1.353 . S
C552 H558 0.930 . S
N553 Li529 1.990 . S
N553 C552 1.314 . S
N553 C556 1.279 . S
C554 C552 1.353 . S
C554 C557 1.348 . S
C554 H602 0.929 . S
C555 C556 1.358 . S
C555 C557 1.356 . S
C555 H603 0.930 . S
C556 N553 1.279 . S
C556 C555 1.358 . S
C556 H559 0.930 . S
C557 C554 1.348 . S
C557 C555 1.356 . S
H558 C552 0.930 . S
H559 C556 0.930 . S
C560 C562 1.348 . S
C560 C563 1.356 . S
C560 O590 1.325 . S
N561 C564 1.314 . S
N561 C565 1.279 . S
C562 C560 1.348 . S
C562 C564 1.353 . S
C562 H604 0.929 . S
C563 C560 1.356 . S
C563 C565 1.358 . S
C563 H605 0.930 . S
C564 N561 1.314 . S
C564 C562 1.353 . S
C564 H606 0.930 . S
C565 N561 1.279 . S
C565 C563 1.358 . S
C565 H607 0.930 . S
C566 C567 1.348 . S
C566 C568 1.356 . S
C566 O591 1.325 . S
C567 C566 1.348 . S
C567 C569 1.353 . S
C567 H608 0.929 . S
C568 C566 1.356 . S
C568 C570 1.358 . S
C568 H609 0.930 . S
C569 C567 1.353 . S
C569 N571 1.314 . S
C569 H610 0.930 . S
C570 C568 1.358 . S
C570 N571 1.279 . S
C570 H611 0.930 . S
N571 C569 1.314 . S
N571 C570 1.279 . S
C572 C574 1.353 . S
C572 N575 1.314 . S
C572 H578 0.930 . S
C573 N575 1.279 . S
C573 C576 1.358 . S
C573 H579 0.930 . S
C574 C572 1.353 . S
C574 C577 1.348 . S
C574 H612 0.929 . S
N575 Li530 1.990 . S
N575 C572 1.314 . S
N575 C573 1.279 . S
C576 C573 1.358 . S
C576 C577 1.356 . S
C576 H613 0.930 . S
C577 C574 1.348 . S
C577 C576 1.356 . S
H578 C572 0.930 . S
H579 C573 0.930 . S
C580 N581 1.314 . S
C580 C582 1.353 . S
C580 H586 0.930 . S
N581 Li531 1.990 . S
N581 C580 1.314 . S
N581 C584 1.279 . S
C582 C580 1.353 . S
C582 C585 1.348 . S
C582 H614 0.929 . S
C583 C584 1.358 . S
C583 C585 1.356 . S
C583 H615 0.930 . S
C584 N581 1.279 . S
C584 C583 1.358 . S
C584 H587 0.930 . S
C585 C582 1.348 . S
C585 C583 1.356 . S
H586 C580 0.930 . S
H587 C584 0.930 . S
O588 Li528 1.956 . S
O588 Li529 1.970 . S
O588 Li530 1.961 . S
O588 C532 1.325 . S
O589 Li528 1.970 . S
O589 Li529 1.956 . S
O589 Li531 1.961 . S
O589 C538 1.325 . S
O590 Li528 1.961 . S
O590 Li530 1.956 . S
O590 Li531 1.970 . S
O590 C560 1.325 . S
O591 Li529 1.961 . S
O591 Li530 1.970 . S
O591 Li531 1.956 . S
O591 C566 1.325 . S
H592 C534 0.929 . S
H593 C535 0.930 . S
H594 C536 0.930 . S
H595 C537 0.930 . S
H596 C539 0.930 . S
H597 C541 0.929 . S
H598 C542 0.930 . S
H599 C543 0.930 . S
H600 C546 0.930 . S
H601 C549 0.929 . S
H602 C554 0.929 . S
H603 C555 0.930 . S
H604 C562 0.929 . S
H605 C563 0.930 . S
H606 C564 0.930 . S
H607 C565 0.930 . S
H608 C567 0.929 . S
H609 C568 0.930 . S
H610 C569 0.930 . S
H611 C570 0.930 . S
H612 C574 0.929 . S
H613 C576 0.930 . S
H614 C582 0.929 . S
H615 C583 0.930 . S
Li616 N633 1.990 . S
Li616 O676 1.956 . S
Li616 O677 1.970 . S
Li616 O678 1.961 . S
Li617 N641 1.990 . S
Li617 O676 1.970 . S
Li617 O677 1.956 . S
Li617 O679 1.961 . S
Li618 N663 1.990 . S
Li618 O676 1.961 . S
Li618 O678 1.956 . S
Li618 O679 1.970 . S
Li619 N669 1.990 . S
Li619 O677 1.961 . S
Li619 O678 1.970 . S
Li619 O679 1.956 . S
C620 C622 1.348 . S
C620 C623 1.356 . S
C620 O676 1.325 . S
N621 C624 1.314 . S
N621 C625 1.279 . S
C622 C620 1.348 . S
C622 C624 1.353 . S
C622 H680 0.929 . S
C623 C620 1.356 . S
C623 C625 1.358 . S
C623 H681 0.930 . S
C624 N621 1.314 . S
C624 C622 1.353 . S
C624 H682 0.930 . S
C625 N621 1.279 . S
C625 C623 1.358 . S
C625 H683 0.930 . S
C626 C629 1.348 . S
C626 C630 1.356 . S
C626 O677 1.325 . S
C627 N628 1.279 . S
C627 C630 1.358 . S
C627 H684 0.930 . S
N628 C627 1.279 . S
N628 C631 1.314 . S
C629 C626 1.348 . S
C629 C631 1.353 . S
C629 H685 0.929 . S
C630 C626 1.356 . S
C630 C627 1.358 . S
C630 H686 0.930 . S
C631 N628 1.314 . S
C631 C629 1.353 . S
C631 H687 0.930 . S
C632 N633 1.314 . S
C632 C637 1.353 . S
C632 H638 0.930 . S
N633 Li616 1.990 . S
N633 C632 1.314 . S
N633 C635 1.279 . S
C634 C635 1.358 . S
C634 C636 1.356 . S
C634 H688 0.930 . S
C635 N633 1.279 . S
C635 C634 1.358 . S
C635 H639 0.930 . S
C636 C634 1.356 . S
C636 C637 1.348 . S
C637 C632 1.353 . S
C637 C636 1.348 . S
C637 H689 0.929 . S
H638 C632 0.930 . S
H639 C635 0.930 . S
C640 N641 1.314 . S
C640 C642 1.353 . S
C640 H646 0.930 . S
N641 Li617 1.990 . S
N641 C640 1.314 . S
N641 C644 1.279 . S
C642 C640 1.353 . S
C642 C645 1.348 . S
C642 H690 0.929 . S
C643 C644 1.358 . S
C643 C645 1.356 . S
C643 H691 0.930 . S
C644 N641 1.279 . S
C644 C643 1.358 . S
C644 H647 0.930 . S
C645 C642 1.348 . S
C645 C643 1.356 . S
H646 C640 0.930 . S
H647 C644 0.930 . S
C648 C650 1.348 . S
C648 C651 1.356 . S
C648 O678 1.325 . S
N649 C652 1.314 . S
N649 C653 1.279 . S
C650 C648 1.348 . S
C650 C652 1.353 . S
C650 H692 0.929 . S
C651 C648 1.356 . S
C651 C653 1.358 . S
C651 H693 0.930 . S
C652 N649 1.314 . S
C652 C650 1.353 . S
C652 H694 0.930 . S
C653 N649 1.279 . S
C653 C651 1.358 . S
C653 H695 0.930 . S
C654 C655 1.348 . S
C654 C656 1.356 . S
C654 O679 1.325 . S
C655 C654 1.348 . S
C655 C657 1.353 . S
C655 H696 0.929 . S
C656 C654 1.356 . S
C656 C658 1.358 . S
C656 H697 0.930 . S
C657 C655 1.353 . S
C657 N659 1.314 . S
C657 H698 0.930 . S
C658 C656 1.358 . S
C658 N659 1.279 . S
C658 H699 0.930 . S
N659 C657 1.314 . S
N659 C658 1.279 . S
C660 C662 1.353 . S
C660 N663 1.314 . S
C660 H666 0.930 . S
C661 N663 1.279 . S
C661 C664 1.358 . S
C661 H667 0.930 . S
C662 C660 1.353 . S
C662 C665 1.348 . S
C662 H700 0.929 . S
N663 Li618 1.990 . S
N663 C660 1.314 . S
N663 C661 1.279 . S
C664 C661 1.358 . S
C664 C665 1.356 . S
C664 H701 0.930 . S
C665 C662 1.348 . S
C665 C664 1.356 . S
H666 C660 0.930 . S
H667 C661 0.930 . S
C668 N669 1.314 . S
C668 C670 1.353 . S
C668 H674 0.930 . S
N669 Li619 1.990 . S
N669 C668 1.314 . S
N669 C672 1.279 . S
C670 C668 1.353 . S
C670 C673 1.348 . S
C670 H702 0.929 . S
C671 C672 1.358 . S
C671 C673 1.356 . S
C671 H703 0.930 . S
C672 N669 1.279 . S
C672 C671 1.358 . S
C672 H675 0.930 . S
C673 C670 1.348 . S
C673 C671 1.356 . S
H674 C668 0.930 . S
H675 C672 0.930 . S
O676 Li616 1.956 . S
O676 Li617 1.970 . S
O676 Li618 1.961 . S
O676 C620 1.325 . S
O677 Li616 1.970 . S
O677 Li617 1.956 . S
O677 Li619 1.961 . S
O677 C626 1.325 . S
O678 Li616 1.961 . S
O678 Li618 1.956 . S
O678 Li619 1.970 . S
O678 C648 1.325 . S
O679 Li617 1.961 . S
O679 Li618 1.970 . S
O679 Li619 1.956 . S
O679 C654 1.325 . S
H680 C622 0.929 . S
H681 C623 0.930 . S
H682 C624 0.930 . S
H683 C625 0.930 . S
H684 C627 0.930 . S
H685 C629 0.929 . S
H686 C630 0.930 . S
H687 C631 0.930 . S
H688 C634 0.930 . S
H689 C637 0.929 . S
H690 C642 0.929 . S
H691 C643 0.930 . S
H692 C650 0.929 . S
H693 C651 0.930 . S
H694 C652 0.930 . S
H695 C653 0.930 . S
H696 C655 0.929 . S
H697 C656 0.930 . S
H698 C657 0.930 . S
H699 C658 0.930 . S
H700 C662 0.929 . S
H701 C664 0.930 . S
H702 C670 0.929 . S
H703 C671 0.930 . S
Li704 N721 1.990 . S
Li704 O764 1.956 . S
Li704 O765 1.970 1_554 S
Li704 O766 1.961 1_554 S
Li705 N729 1.990 . S
Li705 O764 1.970 . S
Li705 O765 1.956 1_554 S
Li705 O767 1.961 1_554 S
Li706 N751 1.990 . S
Li706 O764 1.961 . S
Li706 O766 1.956 1_554 S
Li706 O767 1.970 1_554 S
Li707 N757 1.990 . S
Li707 O765 1.961 . S
Li707 O766 1.970 . S
Li707 O767 1.956 . S
C708 C710 1.348 . S
C708 C711 1.356 . S
C708 O764 1.325 . S
N709 C712 1.314 . S
N709 C713 1.279 . S
C710 C708 1.348 . S
C710 C712 1.353 . S
C710 H768 0.929 . S
C711 C708 1.356 . S
C711 C713 1.358 . S
C711 H769 0.930 . S
C712 N709 1.314 . S
C712 C710 1.353 . S
C712 H770 0.930 . S
C713 N709 1.279 . S
C713 C711 1.358 . S
C713 H771 0.930 . S
C714 C717 1.348 . S
C714 C718 1.356 . S
C714 O765 1.325 . S
C715 N716 1.279 . S
C715 C718 1.358 . S
C715 H772 0.930 . S
N716 C715 1.279 . S
N716 C719 1.314 . S
C717 C714 1.348 . S
C717 C719 1.353 . S
C717 H773 0.929 1_556 S
C718 C714 1.356 . S
C718 C715 1.358 . S
C718 H774 0.930 . S
C719 N716 1.314 . S
C719 C717 1.353 . S
C719 H775 0.930 . S
C720 N721 1.314 1_556 S
C720 C725 1.353 . S
C720 H726 0.930 . S
N721 Li704 1.990 . S
N721 C720 1.314 1_554 S
N721 C723 1.279 . S
C722 C723 1.358 . S
C722 C724 1.356 . S
C722 H776 0.930 . S
C723 N721 1.279 . S
C723 C722 1.358 . S
C723 H727 0.930 . S
C724 C722 1.356 . S
C724 C725 1.348 1_554 S
C725 C720 1.353 . S
C725 C724 1.348 1_556 S
C725 H777 0.929 . S
H726 C720 0.930 . S
H727 C723 0.930 . S
C728 N729 1.314 . S
C728 C730 1.353 . S
C728 H734 0.930 . S
N729 Li705 1.990 . S
N729 C728 1.314 . S
N729 C732 1.279 . S
C730 C728 1.353 . S
C730 C733 1.348 . S
C730 H778 0.929 . S
C731 C732 1.358 . S
C731 C733 1.356 . S
C731 H779 0.930 . S
C732 N729 1.279 . S
C732 C731 1.358 . S
C732 H735 0.930 . S
C733 C730 1.348 . S
C733 C731 1.356 . S
H734 C728 0.930 . S
H735 C732 0.930 . S
C736 C738 1.348 . S
C736 C739 1.356 . S
C736 O766 1.325 . S
N737 C740 1.314 . S
N737 C741 1.279 . S
C738 C736 1.348 . S
C738 C740 1.353 . S
C738 H780 0.929 . S
C739 C736 1.356 . S
C739 C741 1.358 . S
C739 H781 0.930 . S
C740 N737 1.314 . S
C740 C738 1.353 . S
C740 H782 0.930 . S
C741 N737 1.279 . S
C741 C739 1.358 . S
C741 H783 0.930 . S
C742 C743 1.348 . S
C742 C744 1.356 . S
C742 O767 1.325 . S
C743 C742 1.348 . S
C743 C745 1.353 . S
C743 H784 0.929 . S
C744 C742 1.356 . S
C744 C746 1.358 . S
C744 H785 0.930 . S
C745 C743 1.353 . S
C745 N747 1.314 . S
C745 H786 0.930 . S
C746 C744 1.358 . S
C746 N747 1.279 . S
C746 H787 0.930 . S
N747 C745 1.314 . S
N747 C746 1.279 . S
C748 C750 1.353 . S
C748 N751 1.314 . S
C748 H754 0.930 . S
C749 N751 1.279 1_556 S
C749 C752 1.358 1_556 S
C749 H755 0.930 . S
C750 C748 1.353 . S
C750 C753 1.348 . S
C750 H788 0.929 . S
N751 Li706 1.990 . S
N751 C748 1.314 . S
N751 C749 1.279 1_554 S
C752 C749 1.358 1_554 S
C752 C753 1.356 . S
C752 H789 0.930 1_554 S
C753 C750 1.348 . S
C753 C752 1.356 . S
H754 C748 0.930 . S
H755 C749 0.930 . S
C756 N757 1.314 . S
C756 C758 1.353 . S
C756 H762 0.930 . S
N757 Li707 1.990 . S
N757 C756 1.314 . S
N757 C760 1.279 . S
C758 C756 1.353 . S
C758 C761 1.348 . S
C758 H790 0.929 . S
C759 C760 1.358 . S
C759 C761 1.356 . S
C759 H791 0.930 . S
C760 N757 1.279 . S
C760 C759 1.358 . S
C760 H763 0.930 . S
C761 C758 1.348 . S
C761 C759 1.356 . S
H762 C756 0.930 . S
H763 C760 0.930 . S
O764 Li704 1.956 . S
O764 Li705 1.970 . S
O764 Li706 1.961 . S
O764 C708 1.325 . S
O765 Li704 1.970 1_556 S
O765 Li705 1.956 1_556 S
O765 Li707 1.961 . S
O765 C714 1.325 . S
O766 Li704 1.961 1_556 S
O766 Li706 1.956 1_556 S
O766 Li707 1.970 . S
O766 C736 1.325 . S
O767 Li705 1.961 1_556 S
O767 Li706 1.970 1_556 S
O767 Li707 1.956 . S
O767 C742 1.325 . S
H768 C710 0.929 . S
H769 C711 0.930 . S
H770 C712 0.930 . S
H771 C713 0.930 . S
H772 C715 0.930 . S
H773 C717 0.929 1_554 S
H774 C718 0.930 . S
H775 C719 0.930 . S
H776 C722 0.930 . S
H777 C725 0.929 . S
H778 C730 0.929 . S
H779 C731 0.930 . S
H780 C738 0.929 . S
H781 C739 0.930 . S
H782 C740 0.930 . S
H783 C741 0.930 . S
H784 C743 0.929 . S
H785 C744 0.930 . S
H786 C745 0.930 . S
H787 C746 0.930 . S
H788 C750 0.929 . S
H789 C752 0.930 1_556 S
H790 C758 0.929 . S
H791 C759 0.930 . S
Li792 N809 1.990 . S
Li792 O852 1.956 . S
Li792 O853 1.970 . S
Li792 O854 1.961 . S
Li793 N817 1.990 . S
Li793 O852 1.970 . S
Li793 O853 1.956 . S
Li793 O855 1.961 . S
Li794 N839 1.990 . S
Li794 O852 1.961 . S
Li794 O854 1.956 . S
Li794 O855 1.970 . S
Li795 N845 1.990 . S
Li795 O853 1.961 . S
Li795 O854 1.970 . S
Li795 O855 1.956 . S
C796 C798 1.348 . S
C796 C799 1.356 . S
C796 O852 1.325 . S
N797 C800 1.314 . S
N797 C801 1.279 . S
C798 C796 1.348 . S
C798 C800 1.353 . S
C798 H856 0.929 . S
C799 C796 1.356 . S
C799 C801 1.358 . S
C799 H857 0.930 . S
C800 N797 1.314 . S
C800 C798 1.353 . S
C800 H858 0.930 . S
C801 N797 1.279 . S
C801 C799 1.358 . S
C801 H859 0.930 . S
C802 C805 1.348 . S
C802 C806 1.356 . S
C802 O853 1.325 . S
C803 N804 1.279 . S
C803 C806 1.358 . S
C803 H860 0.930 . S
N804 C803 1.279 . S
N804 C807 1.314 . S
C805 C802 1.348 . S
C805 C807 1.353 . S
C805 H861 0.929 . S
C806 C802 1.356 . S
C806 C803 1.358 . S
C806 H862 0.930 . S
C807 N804 1.314 . S
C807 C805 1.353 . S
C807 H863 0.930 . S
C808 N809 1.314 . S
C808 C813 1.353 . S
C808 H814 0.930 . S
N809 Li792 1.990 . S
N809 C808 1.314 . S
N809 C811 1.279 . S
C810 C811 1.358 . S
C810 C812 1.356 . S
C810 H864 0.930 . S
C811 N809 1.279 . S
C811 C810 1.358 . S
C811 H815 0.930 . S
C812 C810 1.356 . S
C812 C813 1.348 . S
C813 C808 1.353 . S
C813 C812 1.348 . S
C813 H865 0.929 . S
H814 C808 0.930 . S
H815 C811 0.930 . S
C816 N817 1.314 . S
C816 C818 1.353 . S
C816 H822 0.930 . S
N817 Li793 1.990 . S
N817 C816 1.314 . S
N817 C820 1.279 . S
C818 C816 1.353 . S
C818 C821 1.348 . S
C818 H866 0.929 . S
C819 C820 1.358 . S
C819 C821 1.356 . S
C819 H867 0.930 . S
C820 N817 1.279 . S
C820 C819 1.358 . S
C820 H823 0.930 . S
C821 C818 1.348 . S
C821 C819 1.356 . S
H822 C816 0.930 . S
H823 C820 0.930 . S
C824 C826 1.348 . S
C824 C827 1.356 . S
C824 O854 1.325 . S
N825 C828 1.314 . S
N825 C829 1.279 . S
C826 C824 1.348 . S
C826 C828 1.353 . S
C826 H868 0.929 . S
C827 C824 1.356 . S
C827 C829 1.358 . S
C827 H869 0.930 . S
C828 N825 1.314 . S
C828 C826 1.353 . S
C828 H870 0.930 . S
C829 N825 1.279 . S
C829 C827 1.358 . S
C829 H871 0.930 . S
C830 C831 1.348 . S
C830 C832 1.356 . S
C830 O855 1.325 . S
C831 C830 1.348 . S
C831 C833 1.353 . S
C831 H872 0.929 . S
C832 C830 1.356 . S
C832 C834 1.358 . S
C832 H873 0.930 . S
C833 C831 1.353 . S
C833 N835 1.314 . S
C833 H874 0.930 . S
C834 C832 1.358 . S
C834 N835 1.279 . S
C834 H875 0.930 . S
N835 C833 1.314 . S
N835 C834 1.279 . S
C836 C838 1.353 . S
C836 N839 1.314 . S
C836 H842 0.930 . S
C837 N839 1.279 . S
C837 C840 1.358 . S
C837 H843 0.930 . S
C838 C836 1.353 . S
C838 C841 1.348 . S
C838 H876 0.929 . S
N839 Li794 1.990 . S
N839 C836 1.314 . S
N839 C837 1.279 . S
C840 C837 1.358 . S
C840 C841 1.356 . S
C840 H877 0.930 . S
C841 C838 1.348 . S
C841 C840 1.356 . S
H842 C836 0.930 . S
H843 C837 0.930 . S
C844 N845 1.314 . S
C844 C846 1.353 . S
C844 H850 0.930 . S
N845 Li795 1.990 . S
N845 C844 1.314 . S
N845 C848 1.279 . S
C846 C844 1.353 . S
C846 C849 1.348 . S
C846 H878 0.929 . S
C847 C848 1.358 . S
C847 C849 1.356 . S
C847 H879 0.930 . S
C848 N845 1.279 . S
C848 C847 1.358 . S
C848 H851 0.930 . S
C849 C846 1.348 . S
C849 C847 1.356 . S
H850 C844 0.930 . S
H851 C848 0.930 . S
O852 Li792 1.956 . S
O852 Li793 1.970 . S
O852 Li794 1.961 . S
O852 C796 1.325 . S
O853 Li792 1.970 . S
O853 Li793 1.956 . S
O853 Li795 1.961 . S
O853 C802 1.325 . S
O854 Li792 1.961 . S
O854 Li794 1.956 . S
O854 Li795 1.970 . S
O854 C824 1.325 . S
O855 Li793 1.961 . S
O855 Li794 1.970 . S
O855 Li795 1.956 . S
O855 C830 1.325 . S
H856 C798 0.929 . S
H857 C799 0.930 . S
H858 C800 0.930 . S
H859 C801 0.930 . S
H860 C803 0.930 . S
H861 C805 0.929 . S
H862 C806 0.930 . S
H863 C807 0.930 . S
H864 C810 0.930 . S
H865 C813 0.929 . S
H866 C818 0.929 . S
H867 C819 0.930 . S
H868 C826 0.929 . S
H869 C827 0.930 . S
H870 C828 0.930 . S
H871 C829 0.930 . S
H872 C831 0.929 . S
H873 C832 0.930 . S
H874 C833 0.930 . S
H875 C834 0.930 . S
H876 C838 0.929 . S
H877 C840 0.930 . S
H878 C846 0.929 . S
H879 C847 0.930 . S
Li880 N897 1.990 . S
Li880 O940 1.956 . S
Li880 O941 1.970 . S
Li880 O942 1.961 . S
Li881 N905 1.990 . S
Li881 O940 1.970 . S
Li881 O941 1.956 . S
Li881 O943 1.961 . S
Li882 N927 1.990 . S
Li882 O940 1.961 . S
Li882 O942 1.956 . S
Li882 O943 1.970 . S
Li883 N933 1.990 . S
Li883 O941 1.961 . S
Li883 O942 1.970 . S
Li883 O943 1.956 . S
C884 C886 1.348 . S
C884 C887 1.356 . S
C884 O940 1.325 . S
N885 C888 1.314 . S
N885 C889 1.279 . S
C886 C884 1.348 . S
C886 C888 1.353 . S
C886 H944 0.929 . S
C887 C884 1.356 . S
C887 C889 1.358 . S
C887 H945 0.930 . S
C888 N885 1.314 . S
C888 C886 1.353 . S
C888 H946 0.930 . S
C889 N885 1.279 . S
C889 C887 1.358 . S
C889 H947 0.930 . S
C890 C893 1.348 . S
C890 C894 1.356 . S
C890 O941 1.325 . S
C891 N892 1.279 . S
C891 C894 1.358 . S
C891 H948 0.930 . S
N892 C891 1.279 . S
N892 C895 1.314 . S
C893 C890 1.348 . S
C893 C895 1.353 . S
C893 H949 0.929 . S
C894 C890 1.356 . S
C894 C891 1.358 . S
C894 H950 0.930 . S
C895 N892 1.314 . S
C895 C893 1.353 . S
C895 H951 0.930 . S
C896 N897 1.314 . S
C896 C901 1.353 . S
C896 H902 0.930 . S
N897 Li880 1.990 . S
N897 C896 1.314 . S
N897 C899 1.279 . S
C898 C899 1.358 . S
C898 C900 1.356 . S
C898 H952 0.930 . S
C899 N897 1.279 . S
C899 C898 1.358 . S
C899 H903 0.930 . S
C900 C898 1.356 . S
C900 C901 1.348 . S
C901 C896 1.353 . S
C901 C900 1.348 . S
C901 H953 0.929 . S
H902 C896 0.930 . S
H903 C899 0.930 . S
C904 N905 1.314 . S
C904 C906 1.353 . S
C904 H910 0.930 . S
N905 Li881 1.990 . S
N905 C904 1.314 . S
N905 C908 1.279 . S
C906 C904 1.353 . S
C906 C909 1.348 . S
C906 H954 0.929 . S
C907 C908 1.358 . S
C907 C909 1.356 . S
C907 H955 0.930 . S
C908 N905 1.279 . S
C908 C907 1.358 . S
C908 H911 0.930 . S
C909 C906 1.348 . S
C909 C907 1.356 . S
H910 C904 0.930 . S
H911 C908 0.930 . S
C912 C914 1.348 . S
C912 C915 1.356 . S
C912 O942 1.325 . S
N913 C916 1.314 . S
N913 C917 1.279 . S
C914 C912 1.348 . S
C914 C916 1.353 . S
C914 H956 0.929 . S
C915 C912 1.356 . S
C915 C917 1.358 . S
C915 H957 0.930 . S
C916 N913 1.314 . S
C916 C914 1.353 . S
C916 H958 0.930 . S
C917 N913 1.279 . S
C917 C915 1.358 . S
C917 H959 0.930 . S
C918 C919 1.348 . S
C918 C920 1.356 . S
C918 O943 1.325 . S
C919 C918 1.348 . S
C919 C921 1.353 . S
C919 H960 0.929 . S
C920 C918 1.356 . S
C920 C922 1.358 . S
C920 H961 0.930 . S
C921 C919 1.353 . S
C921 N923 1.314 . S
C921 H962 0.930 . S
C922 C920 1.358 . S
C922 N923 1.279 . S
C922 H963 0.930 . S
N923 C921 1.314 . S
N923 C922 1.279 . S
C924 C926 1.353 . S
C924 N927 1.314 . S
C924 H930 0.930 . S
C925 N927 1.279 . S
C925 C928 1.358 . S
C925 H931 0.930 . S
C926 C924 1.353 . S
C926 C929 1.348 . S
C926 H964 0.929 . S
N927 Li882 1.990 . S
N927 C924 1.314 . S
N927 C925 1.279 . S
C928 C925 1.358 . S
C928 C929 1.356 . S
C928 H965 0.930 . S
C929 C926 1.348 . S
C929 C928 1.356 . S
H930 C924 0.930 . S
H931 C925 0.930 . S
C932 N933 1.314 . S
C932 C934 1.353 . S
C932 H938 0.930 . S
N933 Li883 1.990 . S
N933 C932 1.314 . S
N933 C936 1.279 . S
C934 C932 1.353 . S
C934 C937 1.348 . S
C934 H966 0.929 . S
C935 C936 1.358 . S
C935 C937 1.356 . S
C935 H967 0.930 . S
C936 N933 1.279 . S
C936 C935 1.358 . S
C936 H939 0.930 . S
C937 C934 1.348 . S
C937 C935 1.356 . S
H938 C932 0.930 . S
H939 C936 0.930 . S
O940 Li880 1.956 . S
O940 Li881 1.970 . S
O940 Li882 1.961 . S
O940 C884 1.325 . S
O941 Li880 1.970 . S
O941 Li881 1.956 . S
O941 Li883 1.961 . S
O941 C890 1.325 . S
O942 Li880 1.961 . S
O942 Li882 1.956 . S
O942 Li883 1.970 . S
O942 C912 1.325 . S
O943 Li881 1.961 . S
O943 Li882 1.970 . S
O943 Li883 1.956 . S
O943 C918 1.325 . S
H944 C886 0.929 . S
H945 C887 0.930 . S
H946 C888 0.930 . S
H947 C889 0.930 . S
H948 C891 0.930 . S
H949 C893 0.929 . S
H950 C894 0.930 . S
H951 C895 0.930 . S
H952 C898 0.930 . S
H953 C901 0.929 . S
H954 C906 0.929 . S
H955 C907 0.930 . S
H956 C914 0.929 . S
H957 C915 0.930 . S
H958 C916 0.930 . S
H959 C917 0.930 . S
H960 C919 0.929 . S
H961 C920 0.930 . S
H962 C921 0.930 . S
H963 C922 0.930 . S
H964 C926 0.929 . S
H965 C928 0.930 . S
H966 C934 0.929 . S
H967 C935 0.930 . S
Li968 N985 1.990 . S
Li968 O1028 1.956 . S
Li968 O1029 1.970 1_554 S
Li968 O1030 1.961 1_554 S
Li969 N993 1.990 . S
Li969 O1028 1.970 . S
Li969 O1029 1.956 1_554 S
Li969 O1031 1.961 1_554 S
Li970 N1015 1.990 . S
Li970 O1028 1.961 . S
Li970 O1030 1.956 1_554 S
Li970 O1031 1.970 1_554 S
Li971 N1021 1.990 . S
Li971 O1029 1.961 . S
Li971 O1030 1.970 . S
Li971 O1031 1.956 . S
C972 C974 1.348 . S
C972 C975 1.356 . S
C972 O1028 1.325 . S
N973 C976 1.314 . S
N973 C977 1.279 . S
C974 C972 1.348 . S
C974 C976 1.353 . S
C974 H1032 0.929 . S
C975 C972 1.356 . S
C975 C977 1.358 . S
C975 H1033 0.930 . S
C976 N973 1.314 . S
C976 C974 1.353 . S
C976 H1034 0.930 . S
C977 N973 1.279 . S
C977 C975 1.358 . S
C977 H1035 0.930 . S
C978 C981 1.348 . S
C978 C982 1.356 . S
C978 O1029 1.325 . S
C979 N980 1.279 . S
C979 C982 1.358 . S
C979 H1036 0.930 . S
N980 C979 1.279 . S
N980 C983 1.314 . S
C981 C978 1.348 . S
C981 C983 1.353 . S
C981 H1037 0.929 1_556 S
C982 C978 1.356 . S
C982 C979 1.358 . S
C982 H1038 0.930 . S
C983 N980 1.314 . S
C983 C981 1.353 . S
C983 H1039 0.930 . S
C984 N985 1.314 1_556 S
C984 C989 1.353 . S
C984 H990 0.930 . S
N985 Li968 1.990 . S
N985 C984 1.314 1_554 S
N985 C987 1.279 . S
C986 C987 1.358 . S
C986 C988 1.356 . S
C986 H1040 0.930 . S
C987 N985 1.279 . S
C987 C986 1.358 . S
C987 H991 0.930 . S
C988 C986 1.356 . S
C988 C989 1.348 1_554 S
C989 C984 1.353 . S
C989 C988 1.348 1_556 S
C989 H1041 0.929 . S
H990 C984 0.930 . S
H991 C987 0.930 . S
C992 N993 1.314 . S
C992 C994 1.353 . S
C992 H998 0.930 . S
N993 Li969 1.990 . S
N993 C992 1.314 . S
N993 C996 1.279 . S
C994 C992 1.353 . S
C994 C997 1.348 . S
C994 H1042 0.929 . S
C995 C996 1.358 . S
C995 C997 1.356 . S
C995 H1043 0.930 . S
C996 N993 1.279 . S
C996 C995 1.358 . S
C996 H999 0.930 . S
C997 C994 1.348 . S
C997 C995 1.356 . S
H998 C992 0.930 . S
H999 C996 0.930 . S
C1000 C1002 1.348 . S
C1000 C1003 1.356 . S
C1000 O1030 1.325 . S
N1001 C1004 1.314 . S
N1001 C1005 1.279 . S
C1002 C1000 1.348 . S
C1002 C1004 1.353 . S
C1002 H1044 0.929 . S
C1003 C1000 1.356 . S
C1003 C1005 1.358 . S
C1003 H1045 0.930 . S
C1004 N1001 1.314 . S
C1004 C1002 1.353 . S
C1004 H1046 0.930 . S
C1005 N1001 1.279 . S
C1005 C1003 1.358 . S
C1005 H1047 0.930 . S
C1006 C1007 1.348 . S
C1006 C1008 1.356 . S
C1006 O1031 1.325 . S
C1007 C1006 1.348 . S
C1007 C1009 1.353 . S
C1007 H1048 0.929 . S
C1008 C1006 1.356 . S
C1008 C1010 1.358 . S
C1008 H1049 0.930 . S
C1009 C1007 1.353 . S
C1009 N1011 1.314 . S
C1009 H1050 0.930 . S
C1010 C1008 1.358 . S
C1010 N1011 1.279 . S
C1010 H1051 0.930 . S
N1011 C1009 1.314 . S
N1011 C1010 1.279 . S
C1012 C1014 1.353 . S
C1012 N1015 1.314 . S
C1012 H1018 0.930 . S
C1013 N1015 1.279 1_556 S
C1013 C1016 1.358 1_556 S
C1013 H1019 0.930 . S
C1014 C1012 1.353 . S
C1014 C1017 1.348 . S
C1014 H1052 0.929 . S
N1015 Li970 1.990 . S
N1015 C1012 1.314 . S
N1015 C1013 1.279 1_554 S
C1016 C1013 1.358 1_554 S
C1016 C1017 1.356 . S
C1016 H1053 0.930 1_554 S
C1017 C1014 1.348 . S
C1017 C1016 1.356 . S
H1018 C1012 0.930 . S
H1019 C1013 0.930 . S
C1020 N1021 1.314 . S
C1020 C1022 1.353 . S
C1020 H1026 0.930 . S
N1021 Li971 1.990 . S
N1021 C1020 1.314 . S
N1021 C1024 1.279 . S
C1022 C1020 1.353 . S
C1022 C1025 1.348 . S
C1022 H1054 0.929 . S
C1023 C1024 1.358 . S
C1023 C1025 1.356 . S
C1023 H1055 0.930 . S
C1024 N1021 1.279 . S
C1024 C1023 1.358 . S
C1024 H1027 0.930 . S
C1025 C1022 1.348 . S
C1025 C1023 1.356 . S
H1026 C1020 0.930 . S
H1027 C1024 0.930 . S
O1028 Li968 1.956 . S
O1028 Li969 1.970 . S
O1028 Li970 1.961 . S
O1028 C972 1.325 . S
O1029 Li968 1.970 1_556 S
O1029 Li969 1.956 1_556 S
O1029 Li971 1.961 . S
O1029 C978 1.325 . S
O1030 Li968 1.961 1_556 S
O1030 Li970 1.956 1_556 S
O1030 Li971 1.970 . S
O1030 C1000 1.325 . S
O1031 Li969 1.961 1_556 S
O1031 Li970 1.970 1_556 S
O1031 Li971 1.956 . S
O1031 C1006 1.325 . S
H1032 C974 0.929 . S
H1033 C975 0.930 . S
H1034 C976 0.930 . S
H1035 C977 0.930 . S
H1036 C979 0.930 . S
H1037 C981 0.929 1_554 S
H1038 C982 0.930 . S
H1039 C983 0.930 . S
H1040 C986 0.930 . S
H1041 C989 0.929 . S
H1042 C994 0.929 . S
H1043 C995 0.930 . S
H1044 C1002 0.929 . S
H1045 C1003 0.930 . S
H1046 C1004 0.930 . S
H1047 C1005 0.930 . S
H1048 C1007 0.929 . S
H1049 C1008 0.930 . S
H1050 C1009 0.930 . S
H1051 C1010 0.930 . S
H1052 C1014 0.929 . S
H1053 C1016 0.930 1_556 S
H1054 C1022 0.929 . S
H1055 C1023 0.930 . S
H1056 C1064 0.950 . S
H1057 C1069 0.950 . S
H1058 C1066 0.950 . S
H1059 C1068 0.950 . S
H1060 C1070 0.950 . S
H1061 C1072 0.950 . S
H1062 C1074 0.950 . S
H1063 C1075 0.950 . S
C1064 H1056 0.950 . S
C1064 C1065 1.386 . S
C1064 C1066 1.391 . S
C1065 C1064 1.386 . S
C1065 C1069 1.393 . S
C1066 H1058 0.950 . S
C1066 C1064 1.391 . S
C1066 C1067 1.400 . S
C1067 C1066 1.400 . S
C1067 C1068 1.398 . S
C1067 C1073 1.491 . S
C1068 H1059 0.950 . S
C1068 C1067 1.398 . S
C1068 C1069 1.391 . S
C1069 H1057 0.950 . S
C1069 C1065 1.393 . S
C1069 C1068 1.391 . S
C1070 H1060 0.950 . S
C1070 C1071 1.386 . S
C1070 C1072 1.391 . S
C1071 C1070 1.386 . S
C1071 C1075 1.393 . S
C1072 H1061 0.950 . S
C1072 C1070 1.391 . S
C1072 C1073 1.400 . S
C1073 C1067 1.491 . S
C1073 C1072 1.400 . S
C1073 C1074 1.398 . S
C1074 H1062 0.950 . S
C1074 C1073 1.398 . S
C1074 C1075 1.391 . S
C1075 H1063 0.950 . S
C1075 C1071 1.393 . S
C1075 C1074 1.391 . S
H1076 C1084 0.950 . S
H1077 C1089 0.950 . S
H1078 C1086 0.950 . S
H1079 C1088 0.950 . S
H1080 C1090 0.950 . S
H1081 C1092 0.950 . S
H1082 C1094 0.950 . S
H1083 C1095 0.950 . S
C1084 H1076 0.950 . S
C1084 C1085 1.386 . S
C1084 C1086 1.391 . S
C1085 C1084 1.386 . S
C1085 C1089 1.393 . S
C1086 H1078 0.950 . S
C1086 C1084 1.391 . S
C1086 C1087 1.400 . S
C1087 C1086 1.400 . S
C1087 C1088 1.398 . S
C1087 C1093 1.491 . S
C1088 H1079 0.950 . S
C1088 C1087 1.398 . S
C1088 C1089 1.391 . S
C1089 H1077 0.950 . S
C1089 C1085 1.393 . S
C1089 C1088 1.391 . S
C1090 H1080 0.950 . S
C1090 C1091 1.386 . S
C1090 C1092 1.391 . S
C1091 C1090 1.386 . S
C1091 C1095 1.393 . S
C1092 H1081 0.950 . S
C1092 C1090 1.391 . S
C1092 C1093 1.400 . S
C1093 C1087 1.491 . S
C1093 C1092 1.400 . S
C1093 C1094 1.398 . S
C1094 H1082 0.950 . S
C1094 C1093 1.398 . S
C1094 C1095 1.391 . S
C1095 H1083 0.950 . S
C1095 C1091 1.393 . S
C1095 C1094 1.391 . S
H1096 C1104 0.950 . S
H1097 C1109 0.950 . S
H1098 C1106 0.950 . S
H1099 C1108 0.950 . S
H1100 C1110 0.950 . S
H1101 C1112 0.950 . S
H1102 C1114 0.950 . S
H1103 C1115 0.950 . S
C1104 H1096 0.950 . S
C1104 C1105 1.386 1_554 S
C1104 C1106 1.391 . S
C1105 C1104 1.386 1_556 S
C1105 C1109 1.393 . S
C1106 H1098 0.950 . S
C1106 C1104 1.391 . S
C1106 C1107 1.400 1_554 S
C1107 C1106 1.400 1_556 S
C1107 C1108 1.398 . S
C1107 C1113 1.491 1_556 S
C1108 H1099 0.950 . S
C1108 C1107 1.398 . S
C1108 C1109 1.391 . S
C1109 H1097 0.950 . S
C1109 C1105 1.393 . S
C1109 C1108 1.391 . S
C1110 H1100 0.950 . S
C1110 C1111 1.386 1_556 S
C1110 C1112 1.391 . S
C1111 C1110 1.386 1_554 S
C1111 C1115 1.393 . S
C1112 H1101 0.950 . S
C1112 C1110 1.391 . S
C1112 C1113 1.400 1_556 S
C1113 C1107 1.491 1_554 S
C1113 C1112 1.400 1_554 S
C1113 C1114 1.398 . S
C1114 H1102 0.950 . S
C1114 C1113 1.398 . S
C1114 C1115 1.391 . S
C1115 H1103 0.950 . S
C1115 C1111 1.393 . S
C1115 C1114 1.391 . S
H1116 C1124 0.950 . S
H1117 C1129 0.950 . S
H1118 C1126 0.950 . S
H1119 C1128 0.950 . S
H1120 C1130 0.950 . S
H1121 C1132 0.950 . S
H1122 C1134 0.950 . S
H1123 C1135 0.950 . S
C1124 H1116 0.950 . S
C1124 C1125 1.386 . S
C1124 C1126 1.391 . S
C1125 C1124 1.386 . S
C1125 C1129 1.393 . S
C1126 H1118 0.950 . S
C1126 C1124 1.391 . S
C1126 C1127 1.400 . S
C1127 C1126 1.400 . S
C1127 C1128 1.398 . S
C1127 C1133 1.491 . S
C1128 H1119 0.950 . S
C1128 C1127 1.398 . S
C1128 C1129 1.391 . S
C1129 H1117 0.950 . S
C1129 C1125 1.393 . S
C1129 C1128 1.391 . S
C1130 H1120 0.950 . S
C1130 C1131 1.386 . S
C1130 C1132 1.391 . S
C1131 C1130 1.386 . S
C1131 C1135 1.393 . S
C1132 H1121 0.950 . S
C1132 C1130 1.391 . S
C1132 C1133 1.400 . S
C1133 C1127 1.491 . S
C1133 C1132 1.400 . S
C1133 C1134 1.398 . S
C1134 H1122 0.950 . S
C1134 C1133 1.398 . S
C1134 C1135 1.391 . S
C1135 H1123 0.950 . S
C1135 C1131 1.393 . S
C1135 C1134 1.391 . S
H1136 C1144 0.950 . S
H1137 C1149 0.950 . S
H1138 C1146 0.950 . S
H1139 C1148 0.950 . S
H1140 C1150 0.950 . S
H1141 C1152 0.950 . S
H1142 C1154 0.950 . S
H1143 C1155 0.950 . S
C1144 H1136 0.950 . S
C1144 C1145 1.386 . S
C1144 C1146 1.391 . S
C1145 C1144 1.386 . S
C1145 C1149 1.393 . S
C1146 H1138 0.950 . S
C1146 C1144 1.391 . S
C1146 C1147 1.400 . S
C1147 C1146 1.400 . S
C1147 C1148 1.398 . S
C1147 C1153 1.491 . S
C1148 H1139 0.950 . S
C1148 C1147 1.398 . S
C1148 C1149 1.391 . S
C1149 H1137 0.950 . S
C1149 C1145 1.393 . S
C1149 C1148 1.391 . S
C1150 H1140 0.950 . S
C1150 C1151 1.386 . S
C1150 C1152 1.391 . S
C1151 C1150 1.386 . S
C1151 C1155 1.393 . S
C1152 H1141 0.950 . S
C1152 C1150 1.391 . S
C1152 C1153 1.400 . S
C1153 C1147 1.491 . S
C1153 C1152 1.400 . S
C1153 C1154 1.398 . S
C1154 H1142 0.950 . S
C1154 C1153 1.398 . S
C1154 C1155 1.391 . S
C1155 H1143 0.950 . S
C1155 C1151 1.393 . S
C1155 C1154 1.391 . S
H1156 C1164 0.950 . S
H1157 C1169 0.950 . S
H1158 C1166 0.950 1_556 S
H1159 C1168 0.950 . S
H1160 C1170 0.950 . S
H1161 C1172 0.950 1_554 S
H1162 C1174 0.950 . S
H1163 C1175 0.950 . S
C1164 H1156 0.950 . S
C1164 C1165 1.386 . S
C1164 C1166 1.391 . S
C1165 C1164 1.386 . S
C1165 C1169 1.393 . S
C1166 H1158 0.950 1_554 S
C1166 C1164 1.391 . S
C1166 C1167 1.400 . S
C1167 C1166 1.400 . S
C1167 C1168 1.398 . S
C1167 C1173 1.491 1_554 S
C1168 H1159 0.950 . S
C1168 C1167 1.398 . S
C1168 C1169 1.391 . S
C1169 H1157 0.950 . S
C1169 C1165 1.393 . S
C1169 C1168 1.391 . S
C1170 H1160 0.950 . S
C1170 C1171 1.386 . S
C1170 C1172 1.391 . S
C1171 C1170 1.386 . S
C1171 C1175 1.393 . S
C1172 H1161 0.950 1_556 S
C1172 C1170 1.391 . S
C1172 C1173 1.400 . S
C1173 C1167 1.491 1_556 S
C1173 C1172 1.400 . S
C1173 C1174 1.398 . S
C1174 H1162 0.950 . S
C1174 C1173 1.398 . S
C1174 C1175 1.391 . S
C1175 H1163 0.950 . S
C1175 C1171 1.393 . S
C1175 C1174 1.391 . S
H1176 C1184 0.950 . S
H1177 C1189 0.950 . S
H1178 C1186 0.950 . S
H1179 C1188 0.950 . S
H1180 C1190 0.950 . S
H1181 C1192 0.950 . S
H1182 C1194 0.950 . S
H1183 C1195 0.950 . S
C1184 H1176 0.950 . S
C1184 C1185 1.386 . S
C1184 C1186 1.391 . S
C1185 C1184 1.386 . S
C1185 C1189 1.393 . S
C1186 H1178 0.950 . S
C1186 C1184 1.391 . S
C1186 C1187 1.400 . S
C1187 C1186 1.400 . S
C1187 C1188 1.398 . S
C1187 C1193 1.491 . S
C1188 H1179 0.950 . S
C1188 C1187 1.398 . S
C1188 C1189 1.391 . S
C1189 H1177 0.950 . S
C1189 C1185 1.393 . S
C1189 C1188 1.391 . S
C1190 H1180 0.950 . S
C1190 C1191 1.386 . S
C1190 C1192 1.391 . S
C1191 C1190 1.386 . S
C1191 C1195 1.393 . S
C1192 H1181 0.950 . S
C1192 C1190 1.391 . S
C1192 C1193 1.400 . S
C1193 C1187 1.491 . S
C1193 C1192 1.400 . S
C1193 C1194 1.398 . S
C1194 H1182 0.950 . S
C1194 C1193 1.398 . S
C1194 C1195 1.391 . S
C1195 H1183 0.950 . S
C1195 C1191 1.393 . S
C1195 C1194 1.391 . S
H1196 C1204 0.950 . S
H1197 C1209 0.950 . S
H1198 C1206 0.950 . S
H1199 C1208 0.950 . S
H1200 C1210 0.950 . S
H1201 C1212 0.950 . S
H1202 C1214 0.950 . S
H1203 C1215 0.950 . S
C1204 H1196 0.950 . S
C1204 C1205 1.386 . S
C1204 C1206 1.391 . S
C1205 C1204 1.386 . S
C1205 C1209 1.393 . S
C1206 H1198 0.950 . S
C1206 C1204 1.391 . S
C1206 C1207 1.400 . S
C1207 C1206 1.400 . S
C1207 C1208 1.398 . S
C1207 C1213 1.491 1_655 S
C1208 H1199 0.950 . S
C1208 C1207 1.398 . S
C1208 C1209 1.391 . S
C1209 H1197 0.950 . S
C1209 C1205 1.393 . S
C1209 C1208 1.391 . S
C1210 H1200 0.950 . S
C1210 C1211 1.386 . S
C1210 C1212 1.391 . S
C1211 C1210 1.386 . S
C1211 C1215 1.393 . S
C1212 H1201 0.950 . S
C1212 C1210 1.391 . S
C1212 C1213 1.400 . S
C1213 C1207 1.491 1_455 S
C1213 C1212 1.400 . S
C1213 C1214 1.398 . S
C1214 H1202 0.950 . S
C1214 C1213 1.398 . S
C1214 C1215 1.391 . S
C1215 H1203 0.950 . S
C1215 C1211 1.393 . S
C1215 C1214 1.391 . S
H1216 C1224 0.950 . S
H1217 C1229 0.950 . S
H1218 C1226 0.950 . S
H1219 C1228 0.972 . S
H1220 C1230 0.950 . S
H1221 C1232 0.950 . S
H1222 C1234 0.950 . S
H1223 C1235 0.950 . S
C1224 H1216 0.950 . S
C1224 C1225 1.386 . S
C1224 C1226 1.391 . S
C1225 C1224 1.386 . S
C1225 C1229 1.393 . S
C1226 H1218 0.950 . S
C1226 C1224 1.391 . S
C1226 C1227 1.400 . S
C1227 C1226 1.400 . S
C1227 C1228 1.391 1_554 S
C1227 C1233 1.491 1_544 S
C1228 H1219 0.972 . S
C1228 C1227 1.391 1_556 S
C1228 C1229 1.378 1_556 S
C1229 H1217 0.950 . S
C1229 C1225 1.393 . S
C1229 C1228 1.378 1_554 S
C1230 H1220 0.950 . S
C1230 C1231 1.386 . S
C1230 C1232 1.391 . S
C1231 C1230 1.386 . S
C1231 C1235 1.393 . S
C1232 H1221 0.950 . S
C1232 C1230 1.391 . S
C1232 C1233 1.400 . S
C1233 C1227 1.491 1_566 S
C1233 C1232 1.400 . S
C1233 C1234 1.398 1_556 S
C1234 H1222 0.950 . S
C1234 C1233 1.398 1_554 S
C1234 C1235 1.391 1_554 S
C1235 H1223 0.950 . S
C1235 C1231 1.393 . S
C1235 C1234 1.391 1_556 S
H1236 C1244 0.950 . S
H1237 C1249 0.950 . S
H1238 C1246 0.950 . S
H1239 C1248 0.950 . S
H1240 C1250 0.950 . S
H1241 C1252 0.950 . S
H1242 C1254 0.950 . S
H1243 C1255 0.950 . S
C1244 H1236 0.950 . S
C1244 C1245 1.386 . S
C1244 C1246 1.391 . S
C1245 C1244 1.386 . S
C1245 C1249 1.393 . S
C1246 H1238 0.950 . S
C1246 C1244 1.391 . S
C1246 C1247 1.400 . S
C1247 C1246 1.400 . S
C1247 C1248 1.398 . S
C1247 C1253 1.491 . S
C1248 H1239 0.950 . S
C1248 C1247 1.398 . S
C1248 C1249 1.391 . S
C1249 H1237 0.950 . S
C1249 C1245 1.393 . S
C1249 C1248 1.391 . S
C1250 H1240 0.950 . S
C1250 C1251 1.386 . S
C1250 C1252 1.391 . S
C1251 C1250 1.386 . S
C1251 C1255 1.393 . S
C1252 H1241 0.950 . S
C1252 C1250 1.391 . S
C1252 C1253 1.400 . S
C1253 C1247 1.491 . S
C1253 C1252 1.400 . S
C1253 C1254 1.398 . S
C1254 H1242 0.950 . S
C1254 C1253 1.398 . S
C1254 C1255 1.391 . S
C1255 H1243 0.950 . S
C1255 C1251 1.393 . S
C1255 C1254 1.391 . S
H1256 C1264 0.950 . S
H1257 C1269 0.950 . S
H1258 C1266 0.950 . S
H1259 C1268 0.950 . S
H1260 C1270 0.950 . S
H1261 C1272 0.950 . S
H1262 C1274 0.950 . S
H1263 C1275 0.950 . S
C1264 H1256 0.950 . S
C1264 C1265 1.386 . S
C1264 C1266 1.391 . S
C1265 C1264 1.386 . S
C1265 C1269 1.393 . S
C1266 H1258 0.950 . S
C1266 C1264 1.391 . S
C1266 C1267 1.400 . S
C1267 C1266 1.400 . S
C1267 C1268 1.398 . S
C1267 C1273 1.491 1_455 S
C1268 H1259 0.950 . S
C1268 C1267 1.398 . S
C1268 C1269 1.391 . S
C1269 H1257 0.950 . S
C1269 C1265 1.393 . S
C1269 C1268 1.391 . S
C1270 H1260 0.950 . S
C1270 C1271 1.386 . S
C1270 C1272 1.391 . S
C1271 C1270 1.386 . S
C1271 C1275 1.393 . S
C1272 H1261 0.950 . S
C1272 C1270 1.391 . S
C1272 C1273 1.400 . S
C1273 C1267 1.491 1_655 S
C1273 C1272 1.400 . S
C1273 C1274 1.398 . S
C1274 H1262 0.950 . S
C1274 C1273 1.398 . S
C1274 C1275 1.391 . S
C1275 H1263 0.950 . S
C1275 C1271 1.393 . S
C1275 C1274 1.391 . S
H1276 C1284 0.950 . S
H1277 C1289 0.950 . S
H1278 C1286 0.950 . S
H1279 C1288 0.950 . S
H1280 C1290 0.950 . S
H1281 C1292 0.950 . S
H1282 C1294 0.950 . S
H1283 C1295 0.950 . S
C1284 H1276 0.950 . S
C1284 C1285 1.386 . S
C1284 C1286 1.391 . S
C1285 C1284 1.386 . S
C1285 C1289 1.393 1_556 S
C1286 H1278 0.950 . S
C1286 C1284 1.391 . S
C1286 C1287 1.400 . S
C1287 C1286 1.400 . S
C1287 C1288 1.398 1_556 S
C1287 C1293 1.491 1_546 S
C1288 H1279 0.950 . S
C1288 C1287 1.398 1_554 S
C1288 C1289 1.391 . S
C1289 H1277 0.950 . S
C1289 C1285 1.393 1_554 S
C1289 C1288 1.391 . S
C1290 H1280 0.950 . S
C1290 C1291 1.386 . S
C1290 C1292 1.391 . S
C1291 C1290 1.386 . S
C1291 C1295 1.393 1_554 S
C1292 H1281 0.950 . S
C1292 C1290 1.391 . S
C1292 C1293 1.400 . S
C1293 C1287 1.491 1_564 S
C1293 C1292 1.400 . S
C1293 C1294 1.398 1_554 S
C1294 H1282 0.950 . S
C1294 C1293 1.398 1_556 S
C1294 C1295 1.391 . S
C1295 H1283 0.950 . S
C1295 C1291 1.393 1_556 S
C1295 C1294 1.391 . S
H1296 C1304 0.950 . S
H1297 C1309 0.950 . S
H1298 C1306 0.950 . S
H1299 C1308 0.950 . S
H1300 C1310 0.950 . S
H1301 C1312 0.950 . S
H1302 C1314 0.950 . S
H1303 C1315 0.950 . S
C1304 H1296 0.950 . S
C1304 C1305 1.386 . S
C1304 C1306 1.391 . S
C1305 C1304 1.386 . S
C1305 C1309 1.393 . S
C1306 H1298 0.950 . S
C1306 C1304 1.391 . S
C1306 C1307 1.400 . S
C1307 C1306 1.400 . S
C1307 C1308 1.398 1_655 S
C1307 C1313 1.491 1_655 S
C1308 H1299 0.950 . S
C1308 C1307 1.398 1_455 S
C1308 C1309 1.391 1_455 S
C1309 H1297 0.950 . S
C1309 C1305 1.393 . S
C1309 C1308 1.391 1_655 S
C1310 H1300 0.950 . S
C1310 C1311 1.386 . S
C1310 C1312 1.391 . S
C1311 C1310 1.386 . S
C1311 C1315 1.393 . S
C1312 H1301 0.950 . S
C1312 C1310 1.391 . S
C1312 C1313 1.400 . S
C1313 C1307 1.491 1_455 S
C1313 C1312 1.400 . S
C1313 C1314 1.398 1_455 S
C1314 H1302 0.950 . S
C1314 C1313 1.398 1_655 S
C1314 C1315 1.391 1_655 S
C1315 H1303 0.950 . S
C1315 C1311 1.393 . S
C1315 C1314 1.391 1_455 S
H1316 C1324 0.950 . S
H1317 C1329 0.950 . S
H1318 C1326 0.950 1_565 S
H1319 C1328 0.950 . S
H1320 C1330 0.950 . S
H1321 C1332 0.950 1_545 S
H1322 C1334 0.950 . S
H1323 C1335 0.950 . S
C1324 H1316 0.950 . S
C1324 C1325 1.386 . S
C1324 C1326 1.391 . S
C1325 C1324 1.386 . S
C1325 C1329 1.393 . S
C1326 H1318 0.950 1_545 S
C1326 C1324 1.391 . S
C1326 C1327 1.400 . S
C1327 C1326 1.400 . S
C1327 C1328 1.398 . S
C1327 C1333 1.491 1_545 S
C1328 H1319 0.950 . S
C1328 C1327 1.398 . S
C1328 C1329 1.391 . S
C1329 H1317 0.950 . S
C1329 C1325 1.393 . S
C1329 C1328 1.391 . S
C1330 H1320 0.950 . S
C1330 C1331 1.386 . S
C1330 C1332 1.391 . S
C1331 C1330 1.386 . S
C1331 C1335 1.393 . S
C1332 H1321 0.950 1_565 S
C1332 C1330 1.391 . S
C1332 C1333 1.400 . S
C1333 C1327 1.491 1_565 S
C1333 C1332 1.400 . S
C1333 C1334 1.398 . S
C1334 H1322 0.950 . S
C1334 C1333 1.398 . S
C1334 C1335 1.391 . S
C1335 H1323 0.950 . S
C1335 C1331 1.393 . S
C1335 C1334 1.391 . S
H1336 C1344 0.950 . S
H1337 C1349 0.950 . S
H1338 C1346 0.950 . S
H1339 C1348 0.950 . S
H1340 C1350 0.950 . S
H1341 C1352 0.950 . S
H1342 C1354 0.950 . S
H1343 C1355 0.950 . S
C1344 H1336 0.950 . S
C1344 C1345 1.386 . S
C1344 C1346 1.391 . S
C1345 C1344 1.386 . S
C1345 C1349 1.393 . S
C1346 H1338 0.950 . S
C1346 C1344 1.391 . S
C1346 C1347 1.400 . S
C1347 C1346 1.400 . S
C1347 C1348 1.398 . S
C1347 C1353 1.491 . S
C1348 H1339 0.950 . S
C1348 C1347 1.398 . S
C1348 C1349 1.391 . S
C1349 H1337 0.950 . S
C1349 C1345 1.393 . S
C1349 C1348 1.391 . S
C1350 H1340 0.950 . S
C1350 C1351 1.386 . S
C1350 C1352 1.391 . S
C1351 C1350 1.386 . S
C1351 C1355 1.393 . S
C1352 H1341 0.950 . S
C1352 C1350 1.391 . S
C1352 C1353 1.400 . S
C1353 C1347 1.491 . S
C1353 C1352 1.400 . S
C1353 C1354 1.398 . S
C1354 H1342 0.950 . S
C1354 C1353 1.398 . S
C1354 C1355 1.391 . S
C1355 H1343 0.950 . S
C1355 C1351 1.393 . S
C1355 C1354 1.391 . S
H1356 C1364 0.950 . S
H1357 C1369 0.950 . S
H1358 C1366 0.950 1_655 S
H1359 C1368 0.950 . S
H1360 C1370 0.950 . S
H1361 C1372 0.950 1_455 S
H1362 C1374 0.950 . S
H1363 C1375 0.950 . S
C1364 H1356 0.950 . S
C1364 C1365 1.386 . S
C1364 C1366 1.391 . S
C1365 C1364 1.386 . S
C1365 C1369 1.393 . S
C1366 H1358 0.950 1_455 S
C1366 C1364 1.391 . S
C1366 C1367 1.400 . S
C1367 C1366 1.400 . S
C1367 C1368 1.398 . S
C1367 C1373 1.491 1_455 S
C1368 H1359 0.950 . S
C1368 C1367 1.398 . S
C1368 C1369 1.391 . S
C1369 H1357 0.950 . S
C1369 C1365 1.393 . S
C1369 C1368 1.391 . S
C1370 H1360 0.950 . S
C1370 C1371 1.386 . S
C1370 C1372 1.391 . S
C1371 C1370 1.386 . S
C1371 C1375 1.393 . S
C1372 H1361 0.950 1_655 S
C1372 C1370 1.391 . S
C1372 C1373 1.400 . S
C1373 C1367 1.491 1_655 S
C1373 C1372 1.400 . S
C1373 C1374 1.398 . S
C1374 H1362 0.950 . S
C1374 C1373 1.398 . S
C1374 C1375 1.391 . S
C1375 H1363 0.950 . S
C1375 C1371 1.393 . S
C1375 C1374 1.391 . S
H1376 C1384 0.950 . S
H1377 C1389 0.950 . S
H1378 C1386 0.950 . S
H1379 C1388 0.950 . S
H1380 C1390 0.950 . S
H1381 C1392 0.950 . S
H1382 C1394 0.950 . S
H1383 C1395 0.950 . S
C1384 H1376 0.950 . S
C1384 C1385 1.386 . S
C1384 C1386 1.391 . S
C1385 C1384 1.386 . S
C1385 C1389 1.393 . S
C1386 H1378 0.950 . S
C1386 C1384 1.391 . S
C1386 C1387 1.400 . S
C1387 C1386 1.400 . S
C1387 C1388 1.398 . S
C1387 C1393 1.491 1_545 S
C1388 H1379 0.950 . S
C1388 C1387 1.398 . S
C1388 C1389 1.391 . S
C1389 H1377 0.950 . S
C1389 C1385 1.393 . S
C1389 C1388 1.391 . S
C1390 H1380 0.950 . S
C1390 C1391 1.386 . S
C1390 C1392 1.391 . S
C1391 C1390 1.386 . S
C1391 C1395 1.393 . S
C1392 H1381 0.950 . S
C1392 C1390 1.391 . S
C1392 C1393 1.400 . S
C1393 C1387 1.491 1_565 S
C1393 C1392 1.400 . S
C1393 C1394 1.398 . S
C1394 H1382 0.950 . S
C1394 C1393 1.398 . S
C1394 C1395 1.391 . S
C1395 H1383 0.950 . S
C1395 C1391 1.393 . S
C1395 C1394 1.391 . S
H1396 C1404 0.950 . S
H1397 C1409 0.950 . S
H1398 C1406 0.950 . S
H1399 C1408 0.950 . S
H1400 C1410 0.950 . S
H1401 C1412 0.950 . S
H1402 C1414 0.950 . S
H1403 C1415 0.950 . S
C1404 H1396 0.950 . S
C1404 C1405 1.386 . S
C1404 C1406 1.391 . S
C1405 C1404 1.386 . S
C1405 C1409 1.393 . S
C1406 H1398 0.950 . S
C1406 C1404 1.391 . S
C1406 C1407 1.400 . S
C1407 C1406 1.400 . S
C1407 C1408 1.398 . S
C1407 C1413 1.491 . S
C1408 H1399 0.950 . S
C1408 C1407 1.398 . S
C1408 C1409 1.391 . S
C1409 H1397 0.950 . S
C1409 C1405 1.393 . S
C1409 C1408 1.391 . S
C1410 H1400 0.950 . S
C1410 C1411 1.386 . S
C1410 C1412 1.391 . S
C1411 C1410 1.386 . S
C1411 C1415 1.393 . S
C1412 H1401 0.950 . S
C1412 C1410 1.391 . S
C1412 C1413 1.400 . S
C1413 C1407 1.491 . S
C1413 C1412 1.400 . S
C1413 C1414 1.398 . S
C1414 H1402 0.950 . S
C1414 C1413 1.398 . S
C1414 C1415 1.391 . S
C1415 H1403 0.950 . S
C1415 C1411 1.393 . S
C1415 C1414 1.391 . S
H1416 C1424 0.950 . S
H1417 C1429 0.950 . S
H1418 C1426 0.950 . S
H1419 C1428 0.950 . S
H1420 C1430 0.950 . S
H1421 C1432 0.950 . S
H1422 C1434 0.950 . S
H1423 C1435 0.950 . S
C1424 H1416 0.950 . S
C1424 C1425 1.386 . S
C1424 C1426 1.391 . S
C1425 C1424 1.386 . S
C1425 C1429 1.393 . S
C1426 H1418 0.950 . S
C1426 C1424 1.391 . S
C1426 C1427 1.400 . S
C1427 C1426 1.400 . S
C1427 C1428 1.398 . S
C1427 C1433 1.491 . S
C1428 H1419 0.950 . S
C1428 C1427 1.398 . S
C1428 C1429 1.391 . S
C1429 H1417 0.950 . S
C1429 C1425 1.393 . S
C1429 C1428 1.391 . S
C1430 H1420 0.950 . S
C1430 C1431 1.386 . S
C1430 C1432 1.391 . S
C1431 C1430 1.386 . S
C1431 C1435 1.393 . S
C1432 H1421 0.950 . S
C1432 C1430 1.391 . S
C1432 C1433 1.400 . S
C1433 C1427 1.491 . S
C1433 C1432 1.400 . S
C1433 C1434 1.398 . S
C1434 H1422 0.950 . S
C1434 C1433 1.398 . S
C1434 C1435 1.391 . S
C1435 H1423 0.950 . S
C1435 C1431 1.393 . S
C1435 C1434 1.391 . S
H1436 C1444 0.950 . S
H1437 C1449 0.950 . S
H1438 C1446 0.950 . S
H1439 C1448 0.950 . S
H1440 C1450 0.950 . S
H1441 C1452 0.950 . S
H1442 C1454 0.950 . S
H1443 C1455 0.950 . S
C1444 H1436 0.950 . S
C1444 C1445 1.386 . S
C1444 C1446 1.391 . S
C1445 C1444 1.386 . S
C1445 C1449 1.393 . S
C1446 H1438 0.950 . S
C1446 C1444 1.391 . S
C1446 C1447 1.400 . S
C1447 C1446 1.400 . S
C1447 C1448 1.398 . S
C1447 C1453 1.491 . S
C1448 H1439 0.950 . S
C1448 C1447 1.398 . S
C1448 C1449 1.391 . S
C1449 H1437 0.950 . S
C1449 C1445 1.393 . S
C1449 C1448 1.391 . S
C1450 H1440 0.950 . S
C1450 C1451 1.386 . S
C1450 C1452 1.391 . S
C1451 C1450 1.386 . S
C1451 C1455 1.393 . S
C1452 H1441 0.950 . S
C1452 C1450 1.391 . S
C1452 C1453 1.400 . S
C1453 C1447 1.491 . S
C1453 C1452 1.400 . S
C1453 C1454 1.398 . S
C1454 H1442 0.950 . S
C1454 C1453 1.398 . S
C1454 C1455 1.391 . S
C1455 H1443 0.950 . S
C1455 C1451 1.393 . S
C1455 C1454 1.391 . S
H1456 C1464 0.950 . S
H1457 C1469 0.950 . S
H1458 C1466 0.950 . S
H1459 C1468 0.950 . S
H1460 C1470 0.950 . S
H1461 C1472 0.950 . S
H1462 C1474 0.950 . S
H1463 C1475 0.950 . S
C1464 H1456 0.950 . S
C1464 C1465 1.386 . S
C1464 C1466 1.391 . S
C1465 C1464 1.386 . S
C1465 C1469 1.393 . S
C1466 H1458 0.950 . S
C1466 C1464 1.391 . S
C1466 C1467 1.400 . S
C1467 C1466 1.400 . S
C1467 C1468 1.398 . S
C1467 C1473 1.491 . S
C1468 H1459 0.950 . S
C1468 C1467 1.398 . S
C1468 C1469 1.391 . S
C1469 H1457 0.950 . S
C1469 C1465 1.393 . S
C1469 C1468 1.391 . S
C1470 H1460 0.950 . S
C1470 C1471 1.386 . S
C1470 C1472 1.391 . S
C1471 C1470 1.386 . S
C1471 C1475 1.393 . S
C1472 H1461 0.950 . S
C1472 C1470 1.391 . S
C1472 C1473 1.400 . S
C1473 C1467 1.491 . S
C1473 C1472 1.400 . S
C1473 C1474 1.398 . S
C1474 H1462 0.950 . S
C1474 C1473 1.398 . S
C1474 C1475 1.391 . S
C1475 H1463 0.950 . S
C1475 C1471 1.393 . S
C1475 C1474 1.391 . S
H1476 C1484 0.950 . S
H1477 C1489 0.950 . S
H1478 C1486 0.950 . S
H1479 C1488 0.950 . S
H1480 C1490 0.950 . S
H1481 C1492 0.950 . S
H1482 C1494 0.950 . S
H1483 C1495 0.950 . S
C1484 H1476 0.950 . S
C1484 C1485 1.386 . S
C1484 C1486 1.391 . S
C1485 C1484 1.386 . S
C1485 C1489 1.393 . S
C1486 H1478 0.950 . S
C1486 C1484 1.391 . S
C1486 C1487 1.400 . S
C1487 C1486 1.400 . S
C1487 C1488 1.398 . S
C1487 C1493 1.491 . S
C1488 H1479 0.950 . S
C1488 C1487 1.398 . S
C1488 C1489 1.391 . S
C1489 H1477 0.950 . S
C1489 C1485 1.393 . S
C1489 C1488 1.391 . S
C1490 H1480 0.950 . S
C1490 C1491 1.386 . S
C1490 C1492 1.391 . S
C1491 C1490 1.386 . S
C1491 C1495 1.393 . S
C1492 H1481 0.950 . S
C1492 C1490 1.391 . S
C1492 C1493 1.400 . S
C1493 C1487 1.491 . S
C1493 C1492 1.400 . S
C1493 C1494 1.398 . S
C1494 H1482 0.950 . S
C1494 C1493 1.398 . S
C1494 C1495 1.391 . S
C1495 H1483 0.950 . S
C1495 C1491 1.393 . S
C1495 C1494 1.391 . S
H1496 C1504 0.950 . S
H1497 C1509 0.950 . S
H1498 C1506 0.950 . S
H1499 C1508 0.950 . S
H1500 C1510 0.950 . S
H1501 C1512 0.950 . S
H1502 C1514 0.950 . S
H1503 C1515 0.950 . S
C1504 H1496 0.950 . S
C1504 C1505 1.386 . S
C1504 C1506 1.391 . S
C1505 C1504 1.386 . S
C1505 C1509 1.393 . S
C1506 H1498 0.950 . S
C1506 C1504 1.391 . S
C1506 C1507 1.400 . S
C1507 C1506 1.400 . S
C1507 C1508 1.398 . S
C1507 C1513 1.491 . S
C1508 H1499 0.950 . S
C1508 C1507 1.398 . S
C1508 C1509 1.391 . S
C1509 H1497 0.950 . S
C1509 C1505 1.393 . S
C1509 C1508 1.391 . S
C1510 H1500 0.950 . S
C1510 C1511 1.386 . S
C1510 C1512 1.391 . S
C1511 C1510 1.386 . S
C1511 C1515 1.393 . S
C1512 H1501 0.950 . S
C1512 C1510 1.391 . S
C1512 C1513 1.400 . S
C1513 C1507 1.491 . S
C1513 C1512 1.400 . S
C1513 C1514 1.398 . S
C1514 H1502 0.950 . S
C1514 C1513 1.398 . S
C1514 C1515 1.391 . S
C1515 H1503 0.950 . S
C1515 C1511 1.393 . S
C1515 C1514 1.391 . S
H1516 C1524 0.950 . S
H1517 C1529 0.950 . S
H1518 C1526 0.950 . S
H1519 C1528 0.950 . S
H1520 C1530 0.950 . S
H1521 C1532 0.950 . S
H1522 C1534 0.950 . S
H1523 C1535 0.950 . S
C1524 H1516 0.950 . S
C1524 C1525 1.386 . S
C1524 C1526 1.391 . S
C1525 C1524 1.386 . S
C1525 C1529 1.393 . S
C1526 H1518 0.950 . S
C1526 C1524 1.391 . S
C1526 C1527 1.400 . S
C1527 C1526 1.400 . S
C1527 C1528 1.398 . S
C1527 C1533 1.491 . S
C1528 H1519 0.950 . S
C1528 C1527 1.398 . S
C1528 C1529 1.391 . S
C1529 H1517 0.950 . S
C1529 C1525 1.393 . S
C1529 C1528 1.391 . S
C1530 H1520 0.950 . S
C1530 C1531 1.386 . S
C1530 C1532 1.391 . S
C1531 C1530 1.386 . S
C1531 C1535 1.393 . S
C1532 H1521 0.950 . S
C1532 C1530 1.391 . S
C1532 C1533 1.400 . S
C1533 C1527 1.491 . S
C1533 C1532 1.400 . S
C1533 C1534 1.398 . S
C1534 H1522 0.950 . S
C1534 C1533 1.398 . S
C1534 C1535 1.391 . S
C1535 H1523 0.950 . S
C1535 C1531 1.393 . S
C1535 C1534 1.391 . S
C1065 C20 1.432 . S
C1071 C585 1.441 . S
C1085 C108 1.415 . S
C1091 C665 1.425 . S
C1105 C205 1.425 . S
C1111 C753 1.438 . S
C1125 C841 1.415 . S
C1131 C293 1.420 . S
C1145 C381 1.417 . S
C1151 C937 1.415 . S
C1165 C1017 1.413 . S
C1171 C460 1.419 . S
C1185 C49 0.524 . S
C1191 C812 0.537 . S
C1205 C137 0.514 . S
C1211 C909 0.490 . S
C1225 C988 0.491 . S
C1231 C233 0.495 . S
C1245 C557 0.506 . S
C1251 C321 0.485 . S
C1265 C409 0.528 . S
C1271 C636 0.505 . S
C1285 C489 0.519 . S
C1291 C724 0.538 . S
C1305 C997 2.220 . S
C1311 C57 2.219 . S
C1325 C145 2.255 . S
C1331 C548 2.253 . S
C1345 C225 2.214 . S
C1351 C645 2.212 . S
C1365 C733 2.216 . S
C1371 C313 2.208 . S
C1385 C821 2.264 . S
C1391 C401 2.262 . S
C1405 C497 2.214 . S
C1411 C900 2.211 . S
C1425 C29 0.994 . S
C1431 C929 0.999 . S
C1445 C1025 1.011 . S
C1451 C117 1.022 . S
C1465 C577 1.036 . S
C1471 C196 1.038 . S
C1485 C284 1.019 . S
C1491 C673 1.020 . S
C1505 C761 0.980 . S
C1511 C372 0.981 . S
C1525 C849 0.998 . S
C1531 C469 1.008 . S
