# Generated by pormake.
# Topology ukm, (4)-cn, num edge types: 1
# Building blocks:
#     Node 0, Type 0, BuildingBlock: QUQFOY_clean_sbu_1, # of connection points: 4
#     Node 1, Type 0, BuildingBlock: QUQFOY_clean_sbu_1, # of connection points: 4
#     Node 2, Type 0, BuildingBlock: QUQFOY_clean_sbu_1, # of connection points: 4
#     Node 3, Type 0, BuildingBlock: QUQFOY_clean_sbu_1, # of connection points: 4
#     Node 4, Type 0, BuildingBlock: QUQFOY_clean_sbu_1, # of connection points: 4
#     Node 5, Type 0, BuildingBlock: QUQFOY_clean_sbu_1, # of connection points: 4
#     Node 6, Type 0, BuildingBlock: QUQFOY_clean_sbu_1, # of connection points: 4
#     Node 7, Type 0, BuildingBlock: QUQFOY_clean_sbu_1, # of connection points: 4
#     Node 8, Type 0, BuildingBlock: QUQFOY_clean_sbu_1, # of connection points: 4
#     Node 9, Type 0, BuildingBlock: QUQFOY_clean_sbu_1, # of connection points: 4
#     Node 10, Type 0, BuildingBlock: QUQFOY_clean_sbu_1, # of connection points: 4
#     Node 11, Type 0, BuildingBlock: QUQFOY_clean_sbu_1, # of connection points: 4
#     Node 12, Type 0, BuildingBlock: QUQFOY_clean_sbu_1, # of connection points: 4
#     Node 13, Type 0, BuildingBlock: QUQFOY_clean_sbu_1, # of connection points: 4
#     Node 14, Type 0, BuildingBlock: QUQFOY_clean_sbu_1, # of connection points: 4
#     Node 15, Type 0, BuildingBlock: QUQFOY_clean_sbu_1, # of connection points: 4
#     Node 16, Type 0, BuildingBlock: QUQFOY_clean_sbu_1, # of connection points: 4
#     Node 17, Type 0, BuildingBlock: QUQFOY_clean_sbu_1, # of connection points: 4
#     Node 18, Type 0, BuildingBlock: QUQFOY_clean_sbu_1, # of connection points: 4
#     Node 19, Type 0, BuildingBlock: QUQFOY_clean_sbu_1, # of connection points: 4
#     Node 20, Type 0, BuildingBlock: QUQFOY_clean_sbu_1, # of connection points: 4
#     Node 21, Type 0, BuildingBlock: QUQFOY_clean_sbu_1, # of connection points: 4
#     Node 22, Type 0, BuildingBlock: QUQFOY_clean_sbu_1, # of connection points: 4
#     Node 23, Type 0, BuildingBlock: QUQFOY_clean_sbu_1, # of connection points: 4
#     Node 24, Type 0, BuildingBlock: QUQFOY_clean_sbu_1, # of connection points: 4
#     Node 25, Type 0, BuildingBlock: QUQFOY_clean_sbu_1, # of connection points: 4
#     Node 26, Type 0, BuildingBlock: QUQFOY_clean_sbu_1, # of connection points: 4
#     Node 27, Type 0, BuildingBlock: QUQFOY_clean_sbu_1, # of connection points: 4
#     Node 28, Type 0, BuildingBlock: QUQFOY_clean_sbu_1, # of connection points: 4
#     Node 29, Type 0, BuildingBlock: QUQFOY_clean_sbu_1, # of connection points: 4
#     Node 30, Type 0, BuildingBlock: QUQFOY_clean_sbu_1, # of connection points: 4
#     Node 31, Type 0, BuildingBlock: QUQFOY_clean_sbu_1, # of connection points: 4
#     Edge 32, Type (0, 0), BuildingBlock: CIFDUS_clean_linker_0, # of connection points: 2
#     Edge 33, Type (0, 0), BuildingBlock: CIFDUS_clean_linker_0, # of connection points: 2
#     Edge 34, Type (0, 0), BuildingBlock: CIFDUS_clean_linker_0, # of connection points: 2
#     Edge 35, Type (0, 0), BuildingBlock: CIFDUS_clean_linker_0, # of connection points: 2
#     Edge 36, Type (0, 0), BuildingBlock: CIFDUS_clean_linker_0, # of connection points: 2
#     Edge 37, Type (0, 0), BuildingBlock: CIFDUS_clean_linker_0, # of connection points: 2
#     Edge 38, Type (0, 0), BuildingBlock: CIFDUS_clean_linker_0, # of connection points: 2
#     Edge 39, Type (0, 0), BuildingBlock: CIFDUS_clean_linker_0, # of connection points: 2
#     Edge 40, Type (0, 0), BuildingBlock: CIFDUS_clean_linker_0, # of connection points: 2
#     Edge 41, Type (0, 0), BuildingBlock: CIFDUS_clean_linker_0, # of connection points: 2
#     Edge 42, Type (0, 0), BuildingBlock: CIFDUS_clean_linker_0, # of connection points: 2
#     Edge 43, Type (0, 0), BuildingBlock: CIFDUS_clean_linker_0, # of connection points: 2
#     Edge 44, Type (0, 0), BuildingBlock: CIFDUS_clean_linker_0, # of connection points: 2
#     Edge 45, Type (0, 0), BuildingBlock: CIFDUS_clean_linker_0, # of connection points: 2
#     Edge 46, Type (0, 0), BuildingBlock: CIFDUS_clean_linker_0, # of connection points: 2
#     Edge 47, Type (0, 0), BuildingBlock: CIFDUS_clean_linker_0, # of connection points: 2
#     Edge 48, Type (0, 0), BuildingBlock: CIFDUS_clean_linker_0, # of connection points: 2
#     Edge 49, Type (0, 0), BuildingBlock: CIFDUS_clean_linker_0, # of connection points: 2
#     Edge 50, Type (0, 0), BuildingBlock: CIFDUS_clean_linker_0, # of connection points: 2
#     Edge 51, Type (0, 0), BuildingBlock: CIFDUS_clean_linker_0, # of connection points: 2
#     Edge 52, Type (0, 0), BuildingBlock: CIFDUS_clean_linker_0, # of connection points: 2
#     Edge 53, Type (0, 0), BuildingBlock: CIFDUS_clean_linker_0, # of connection points: 2
#     Edge 54, Type (0, 0), BuildingBlock: CIFDUS_clean_linker_0, # of connection points: 2
#     Edge 55, Type (0, 0), BuildingBlock: CIFDUS_clean_linker_0, # of connection points: 2
#     Edge 56, Type (0, 0), BuildingBlock: CIFDUS_clean_linker_0, # of connection points: 2
#     Edge 57, Type (0, 0), BuildingBlock: CIFDUS_clean_linker_0, # of connection points: 2
#     Edge 58, Type (0, 0), BuildingBlock: CIFDUS_clean_linker_0, # of connection points: 2
#     Edge 59, Type (0, 0), BuildingBlock: CIFDUS_clean_linker_0, # of connection points: 2
#     Edge 60, Type (0, 0), BuildingBlock: CIFDUS_clean_linker_0, # of connection points: 2
#     Edge 61, Type (0, 0), BuildingBlock: CIFDUS_clean_linker_0, # of connection points: 2
#     Edge 62, Type (0, 0), BuildingBlock: CIFDUS_clean_linker_0, # of connection points: 2
#     Edge 63, Type (0, 0), BuildingBlock: CIFDUS_clean_linker_0, # of connection points: 2
#     Edge 64, Type (0, 0), BuildingBlock: CIFDUS_clean_linker_0, # of connection points: 2
#     Edge 65, Type (0, 0), BuildingBlock: CIFDUS_clean_linker_0, # of connection points: 2
#     Edge 66, Type (0, 0), BuildingBlock: CIFDUS_clean_linker_0, # of connection points: 2
#     Edge 67, Type (0, 0), BuildingBlock: CIFDUS_clean_linker_0, # of connection points: 2
#     Edge 68, Type (0, 0), BuildingBlock: CIFDUS_clean_linker_0, # of connection points: 2
#     Edge 69, Type (0, 0), BuildingBlock: CIFDUS_clean_linker_0, # of connection points: 2
#     Edge 70, Type (0, 0), BuildingBlock: CIFDUS_clean_linker_0, # of connection points: 2
#     Edge 71, Type (0, 0), BuildingBlock: CIFDUS_clean_linker_0, # of connection points: 2
#     Edge 72, Type (0, 0), BuildingBlock: CIFDUS_clean_linker_0, # of connection points: 2
#     Edge 73, Type (0, 0), BuildingBlock: CIFDUS_clean_linker_0, # of connection points: 2
#     Edge 74, Type (0, 0), BuildingBlock: CIFDUS_clean_linker_0, # of connection points: 2
#     Edge 75, Type (0, 0), BuildingBlock: CIFDUS_clean_linker_0, # of connection points: 2
#     Edge 76, Type (0, 0), BuildingBlock: CIFDUS_clean_linker_0, # of connection points: 2
#     Edge 77, Type (0, 0), BuildingBlock: CIFDUS_clean_linker_0, # of connection points: 2
#     Edge 78, Type (0, 0), BuildingBlock: CIFDUS_clean_linker_0, # of connection points: 2
#     Edge 79, Type (0, 0), BuildingBlock: CIFDUS_clean_linker_0, # of connection points: 2
#     Edge 80, Type (0, 0), BuildingBlock: CIFDUS_clean_linker_0, # of connection points: 2
#     Edge 81, Type (0, 0), BuildingBlock: CIFDUS_clean_linker_0, # of connection points: 2
#     Edge 82, Type (0, 0), BuildingBlock: CIFDUS_clean_linker_0, # of connection points: 2
#     Edge 83, Type (0, 0), BuildingBlock: CIFDUS_clean_linker_0, # of connection points: 2
#     Edge 84, Type (0, 0), BuildingBlock: CIFDUS_clean_linker_0, # of connection points: 2
#     Edge 85, Type (0, 0), BuildingBlock: CIFDUS_clean_linker_0, # of connection points: 2
#     Edge 86, Type (0, 0), BuildingBlock: CIFDUS_clean_linker_0, # of connection points: 2
#     Edge 87, Type (0, 0), BuildingBlock: CIFDUS_clean_linker_0, # of connection points: 2
#     Edge 88, Type (0, 0), BuildingBlock: CIFDUS_clean_linker_0, # of connection points: 2
#     Edge 89, Type (0, 0), BuildingBlock: CIFDUS_clean_linker_0, # of connection points: 2
#     Edge 90, Type (0, 0), BuildingBlock: CIFDUS_clean_linker_0, # of connection points: 2
#     Edge 91, Type (0, 0), BuildingBlock: CIFDUS_clean_linker_0, # of connection points: 2
#     Edge 92, Type (0, 0), BuildingBlock: CIFDUS_clean_linker_0, # of connection points: 2
#     Edge 93, Type (0, 0), BuildingBlock: CIFDUS_clean_linker_0, # of connection points: 2
#     Edge 94, Type (0, 0), BuildingBlock: CIFDUS_clean_linker_0, # of connection points: 2
#     Edge 95, Type (0, 0), BuildingBlock: CIFDUS_clean_linker_0, # of connection points: 2
# Relax obj value: 0.226
# Max RMSD: 0.207
# Mean RMSD: 0.207
data_MOF--net-ukm--node1-QUQFOY_clean_sbu_1--edge1-CIFDUS_clean_linker_0
_symmetry_space_group_name_H-M    P1
_symmetry_Int_Tables_number       1
_symmetry_cell_setting            triclinic
loop_
_symmetry_equiv_pos_as_xyz
'x, y, z'
_cell_length_a     27.265768
_cell_length_b     92.750663
_cell_length_c     35.775449
_cell_angle_alpha  90.170725
_cell_angle_beta   90.257223
_cell_angle_gamma 90.048422
loop_
_atom_site_label
_atom_site_type_symbol
_atom_site_fract_x
_atom_site_fract_y
_atom_site_fract_z
_atom_type_partial_charge
O0 O 0.13923 0.33208 0.33287 0.0
Cd1 Cd 0.18033 0.31808 0.30034 0.0
Cd2 Cd 0.08086 0.31219 0.28414 0.0
O3 O 0.06127 0.326 0.32581 0.0
O4 O 0.24624 0.32621 0.31183 0.0
O5 O 0.22718 0.30366 0.32441 0.0
C6 C 0.25899 0.31396 0.32538 0.0
C7 C 0.058 0.28857 0.27446 0.0
C8 C 0.09414 0.33384 0.34066 0.0
C9 C 0.14156 0.32244 0.22207 0.0
O10 O 0.09869 0.3217 0.23535 0.0
O11 O 0.17874 0.32 0.24264 0.0
O12 O 0.02705 0.29896 0.26975 0.0
O13 O 0.10051 0.29158 0.28879 0.0
O14 O 0.12211 0.92207 0.30557 0.0
Cd15 Cd 0.09415 0.94105 0.28421 0.0
Cd16 Cd 0.18942 0.94301 0.27155 0.0
O17 O 0.20076 0.92726 0.31105 0.0
O18 O 0.0223 0.93898 0.29225 0.0
O19 O 0.06621 0.95611 0.31942 0.0
C20 C 0.02424 0.95 0.31403 0.0
C21 C 0.21223 0.96688 0.26789 0.0
C22 C 0.16513 0.91864 0.31627 0.0
C23 C 0.12773 0.93805 0.20648 0.0
O24 O 0.16949 0.93528 0.22035 0.0
O25 O 0.09372 0.94287 0.22709 0.0
O26 O 0.24383 0.95673 0.26199 0.0
O27 O 0.16939 0.96335 0.28047 0.0
O28 O 0.13467 0.9283 0.87354 0.0
Cd29 Cd 0.16825 0.94299 0.909 0.0
Cd30 Cd 0.06773 0.9451 0.92366 0.0
O31 O 0.05482 0.93149 0.87983 0.0
O32 O 0.23654 0.93636 0.90125 0.0
O33 O 0.21379 0.9586 0.88879 0.0
C34 C 0.24795 0.94899 0.8896 0.0
C35 C 0.04408 0.96854 0.93339 0.0
C36 C 0.09076 0.9251 0.86469 0.0
C37 C 0.1291 0.93579 -0.01416 0.0
O38 O 0.08611 0.9354 0.97235 0.0
O39 O 0.16502 0.93981 0.96597 0.0
O40 O 0.01284 0.95811 0.93629 0.0
O41 O 0.0874 0.96569 0.92062 0.0
O42 O 0.11818 0.33938 0.90613 0.0
Cd43 Cd 0.0897 0.31989 0.92374 0.0
Cd44 Cd 0.18514 0.31656 0.9333 0.0
O45 O 0.19538 0.33336 0.89667 0.0
O46 O 0.01776 0.3219 0.9149 0.0
O47 O 0.06314 0.30595 0.88483 0.0
C48 C 0.02082 0.31176 0.89046 0.0
C49 C 0.21299 0.29305 0.93303 0.0
C50 C 0.1609 0.34257 0.89451 0.0
C51 C 0.12697 0.32024 0.00087 0.0
O52 O 0.16819 0.3229 -0.01377 0.0
O53 O 0.091 0.3164 0.98049 0.0
O54 O 0.24251 0.30364 0.94007 0.0
O55 O 0.16897 0.29602 0.92168 0.0
O56 O 0.94069 0.68665 0.73544 0.0
Cd57 Cd 0.95408 0.69368 0.68295 0.0
Cd58 Cd 0.85587 0.69326 0.67546 0.0
O59 O 0.86503 0.69487 0.73266 0.0
O60 O 1.00743 0.70807 0.68781 0.0
O61 O 0.92979 0.71354 0.67446 0.0
C62 C 0.97342 0.71771 0.6841 0.0
C63 C 0.78462 0.70332 0.6497 0.0
C64 C 0.90118 0.69015 0.75154 0.0
C65 C 0.91978 0.67046 0.6367 0.0
O66 O 0.87833 0.67462 0.64888 0.0
O67 O 0.95838 0.67774 0.64337 0.0
O68 O 0.78293 0.69235 0.67153 0.0
O69 O 0.82692 0.70894 0.6428 0.0
O70 O 0.8443 0.07816 0.74101 0.0
Cd71 Cd 0.83851 0.07071 0.68755 0.0
Cd72 Cd 0.93483 0.07948 0.68965 0.0
O73 O 0.92434 0.07555 0.74574 0.0
O74 O 0.77878 0.05855 0.69106 0.0
O75 O 0.85314 0.0496 0.68236 0.0
C76 C 0.80728 0.04748 0.68968 0.0
C77 C 0.01494 0.07826 0.66547 0.0
C78 C 0.88272 0.07736 0.76094 0.0
C79 C 0.85397 0.09744 0.65117 0.0
O80 O 0.895 0.09647 0.66801 0.0
O81 O 0.82587 0.08655 0.64872 0.0
O82 O 1.00147 0.08836 0.68784 0.0
O83 O 0.98352 0.06827 0.65768 0.0
O84 O 0.93694 0.07151 0.00251 0.0
Cd85 Cd 0.93974 0.06188 0.05319 0.0
Cd86 Cd 0.83998 0.06549 0.05126 0.0
O87 O 0.85791 0.06731 -0.00481 0.0
O88 O 0.99316 0.04766 0.0489 0.0
O89 O 0.9142 0.04181 0.05367 0.0
C90 C 0.95904 0.03798 0.04709 0.0
C91 C 0.75786 0.06006 0.06545 0.0
C92 C 0.89916 0.07108 -0.01816 0.0
C93 C 0.90697 0.08339 0.10427 0.0
O94 O 0.86638 0.08092 0.08788 0.0
O95 O 0.94447 0.07576 0.09738 0.0
O96 O 0.77063 0.07208 0.05067 0.0
O97 O 0.79155 0.05051 0.07064 0.0
O98 O 0.80563 0.69383 -0.01461 0.0
Cd99 Cd 0.79433 0.70069 0.03871 0.0
Cd100 Cd 0.89362 0.6984 0.04262 0.0
O101 O 0.88354 0.70017 -0.01411 0.0
O102 O 0.73841 0.71413 0.03457 0.0
O103 O 0.8149 0.72099 0.0475 0.0
C104 C 0.77036 0.72437 0.03828 0.0
C105 C 0.97343 0.70376 0.06418 0.0
C106 C 0.84533 0.69621 0.96821 0.0
C107 C 0.82474 0.6761 0.07978 0.0
O108 O 0.86594 0.67997 0.06667 0.0
O109 O 0.78783 0.6844 0.07716 0.0
O110 O 0.96395 0.6927 0.04374 0.0
O111 O 0.93754 0.71227 0.07203 0.0
O112 O 0.1233 0.83985 0.79879 0.0
Cd113 Cd 0.15189 0.82008 0.78353 0.0
Cd114 Cd 0.05816 0.81564 0.78253 0.0
O115 O 0.05028 0.83292 0.81797 0.0
O116 O 0.22447 0.82235 0.78778 0.0
O117 O 0.182 0.80755 0.82365 0.0
C118 C 0.22367 0.81311 0.81453 0.0
C119 C 0.03971 0.79163 0.78599 0.0
C120 C 0.08255 0.84272 0.81434 0.0
C121 C 0.10406 0.81753 0.71037 0.0
O122 O 0.0654 0.82096 0.72773 0.0
O123 O 0.14278 0.81435 0.7284 0.0
O124 O 1.00525 0.8011 0.78212 0.0
O125 O 0.08365 0.79606 0.79382 0.0
O126 O 0.11968 0.42925 0.82072 0.0
Cd127 Cd 0.10152 0.44688 0.7884 0.0
Cd128 Cd 0.2032 0.44629 0.78708 0.0
O129 O 0.19961 0.43152 0.8297 0.0
O130 O 0.02927 0.44414 0.78276 0.0
O131 O 0.06114 0.46276 0.81271 0.0
C132 C 0.02281 0.45584 0.80131 0.0
C133 C 0.23606 0.46909 0.78253 0.0
C134 C 0.15941 0.425 0.83582 0.0
C135 C 0.15571 0.44093 0.71659 0.0
O136 O 0.19364 0.43777 0.73536 0.0
O137 O 0.11859 0.4465 0.73238 0.0
O138 O 0.2642 0.45789 0.78441 0.0
O139 O 0.18952 0.46739 0.78825 0.0
O140 O 0.11782 0.4179 0.40463 0.0
Cd141 Cd 0.15456 0.43574 0.42481 0.0
Cd142 Cd 0.05779 0.4417 0.42741 0.0
O143 O 0.04367 0.42545 0.38972 0.0
O144 O 0.22147 0.42719 0.42435 0.0
O145 O 0.20348 0.447 0.39335 0.0
C146 C 0.23525 0.43731 0.40235 0.0
C147 C 0.04168 0.46596 0.42823 0.0
C148 C 0.07573 0.41553 0.39048 0.0
C149 C 0.10737 0.43695 0.49844 0.0
O150 O 0.06746 0.43485 0.48097 0.0
O151 O 0.14639 0.43983 0.48073 0.0
O152 O 1.00664 0.45667 0.43204 0.0
O153 O 0.08459 0.46134 0.41839 0.0
O154 O 0.11796 0.83176 0.39097 0.0
Cd155 Cd 0.09915 0.81277 0.41727 0.0
Cd156 Cd 0.19772 0.81338 0.42096 0.0
O157 O 0.19743 0.82926 0.38101 0.0
O158 O 0.02607 0.81361 0.41628 0.0
O159 O 0.06812 0.79744 0.38431 0.0
C160 C 0.02634 0.80301 0.39305 0.0
C161 C 0.22446 0.78995 0.42303 0.0
C162 C 0.15773 0.83625 0.37663 0.0
C163 C 0.14832 0.81636 0.4914 0.0
O164 O 0.18582 0.82051 0.47368 0.0
O165 O 0.11187 0.81097 0.47402 0.0
O166 O 0.2554 0.80052 0.42519 0.0
O167 O 0.17936 0.79278 0.41418 0.0
O168 O 0.93199 0.18867 0.23342 0.0
Cd169 Cd 0.94093 0.19348 0.17841 0.0
Cd170 Cd 0.84616 0.19007 0.17709 0.0
O171 O 0.85451 0.19518 0.23272 0.0
O172 O 0.99903 0.20617 0.17875 0.0
O173 O 0.92348 0.21366 0.16541 0.0
C174 C 0.96874 0.21669 0.17336 0.0
C175 C 0.77644 0.19839 0.14551 0.0
C176 C 0.89314 0.19192 0.25075 0.0
C177 C 0.9128 0.16653 0.147 0.0
O178 O 0.8719 0.16998 0.16155 0.0
O179 O 0.9467 0.17587 0.14407 0.0
O180 O 0.77339 0.18892 0.17161 0.0
O181 O 0.81925 0.20338 0.13729 0.0
O182 O 0.82536 0.57779 0.23312 0.0
Cd183 Cd 0.81429 0.57054 0.18034 0.0
Cd184 Cd 0.91484 0.57149 0.17554 0.0
O185 O 0.9018 0.57019 0.23217 0.0
O186 O 0.75822 0.5571 0.18384 0.0
O187 O 0.83504 0.55021 0.17274 0.0
C188 C 0.79023 0.54686 0.18097 0.0
C189 C 0.99334 0.5636 0.15814 0.0
C190 C 0.86473 0.57469 0.25013 0.0
C191 C 0.84968 0.5935 0.13386 0.0
O192 O 0.89113 0.5895 0.14664 0.0
O193 O 0.8111 0.58628 0.14051 0.0
O194 O 0.98698 0.57491 0.17832 0.0
O195 O 0.95499 0.55655 0.14737 0.0
O196 O 0.9581 0.57135 0.48508 0.0
Cd197 Cd 0.96823 0.5636 0.53765 0.0
Cd198 Cd 0.86989 0.5663 0.54102 0.0
O199 O 0.88016 0.56506 0.48426 0.0
O200 O 0.01926 0.54859 0.53278 0.0
O201 O 0.9406 0.54399 0.54442 0.0
C202 C 0.98375 0.53937 0.5352 0.0
C203 C 0.78979 0.56108 0.5614 0.0
C204 C 0.91845 0.56922 0.4673 0.0
C205 C 0.94005 0.58782 0.58069 0.0
O206 O 0.89871 0.5843 0.56684 0.0
O207 O 0.97639 0.57932 0.57782 0.0
O208 O 0.7999 0.57229 0.54196 0.0
O209 O 0.82523 0.55234 0.56892 0.0
O210 O 0.8088 0.19012 0.48743 0.0
Cd211 Cd 0.79841 0.19926 0.53819 0.0
Cd212 Cd 0.90442 0.19629 0.54318 0.0
O213 O 0.88702 0.19628 0.48673 0.0
O214 O 0.74246 0.21267 0.53239 0.0
O215 O 0.82001 0.21972 0.53957 0.0
C216 C 0.77481 0.22287 0.53183 0.0
C217 C 0.98943 0.19766 0.55558 0.0
C218 C 0.84838 0.1921 0.46978 0.0
C219 C 0.8311 0.17857 0.59244 0.0
O220 O 0.87302 0.18161 0.57923 0.0
O221 O 0.79297 0.18527 0.58192 0.0
O222 O 0.96938 0.18663 0.54005 0.0
O223 O 0.96146 0.20847 0.5632 0.0
O224 O 0.66646 0.34234 0.80843 0.0
Cd225 Cd 0.68565 0.32396 0.77946 0.0
Cd226 Cd 0.58719 0.32328 0.77711 0.0
O227 O 0.587 0.33922 0.81741 0.0
O228 O 0.75877 0.32425 0.78222 0.0
O229 O 0.71402 0.30761 0.81004 0.0
C230 C 0.75662 0.31308 0.80337 0.0
C231 C 0.56242 0.2995 0.77611 0.0
C232 C 0.62616 0.34642 0.82275 0.0
C233 C 0.63525 0.32831 0.70599 0.0
O234 O 0.59646 0.33067 0.72434 0.0
O235 O 0.67371 0.32378 0.72239 0.0
O236 O 0.53057 0.30982 0.7741 0.0
O237 O 0.6076 0.3028 0.78357 0.0
O238 O 0.64021 0.92923 0.81661 0.0
Cd239 Cd 0.60675 0.94792 0.79889 0.0
Cd240 Cd 0.7111 0.94983 0.78732 0.0
O241 O 0.71979 0.93269 0.82303 0.0
O242 O 0.5555 0.95779 0.83191 0.0
O243 O 0.54073 0.93895 0.79613 0.0
C244 C 0.52517 0.94811 0.82015 0.0
C245 C 0.74955 0.9719 0.78489 0.0
C246 C 0.68231 0.92467 0.82628 0.0
C247 C 0.64614 0.94899 0.72205 0.0
O248 O 0.68664 0.94453 0.73517 0.0
O249 O 0.61239 0.95335 0.7436 0.0
O250 O 0.77361 0.96019 0.77815 0.0
O251 O 0.70539 0.97086 0.7978 0.0
O252 O 0.65517 0.92793 0.40701 0.0
Cd253 Cd 0.68393 0.94768 0.42297 0.0
Cd254 Cd 0.58705 0.95032 0.43475 0.0
O255 O 0.57695 0.93313 0.39871 0.0
O256 O 0.75575 0.94456 0.41735 0.0
O257 O 0.71478 0.96042 0.38352 0.0
C258 C 0.75582 0.95427 0.39184 0.0
C259 C 0.5586 0.97375 0.43555 0.0
C260 C 0.61238 0.92425 0.3962 0.0
C261 C 0.64915 0.94872 0.50052 0.0
O262 O 0.60809 0.94474 0.48737 0.0
O263 O 0.68309 0.95274 0.47881 0.0
O264 O 0.52962 0.9631 0.44308 0.0
O265 O 0.60177 0.97084 0.42254 0.0
O266 O 0.64676 0.33882 0.37786 0.0
Cd267 Cd 0.61717 0.32425 0.41496 0.0
Cd268 Cd 0.72207 0.32109 0.41781 0.0
O269 O 0.7265 0.33491 0.37356 0.0
O270 O 0.55134 0.33339 0.41803 0.0
O271 O 0.56101 0.31139 0.39638 0.0
C272 C 0.53212 0.32204 0.40352 0.0
C273 C 0.74442 0.29737 0.42426 0.0
C274 C 0.68826 0.34171 0.36369 0.0
C275 C 0.67529 0.3293 0.48697 0.0
O276 O 0.71459 0.33055 0.46851 0.0
O277 O 0.6357 0.32527 0.4711 0.0
O278 O 0.77734 0.30739 0.42261 0.0
O279 O 0.69912 0.30074 0.41757 0.0
O280 O 0.40836 0.69538 0.23202 0.0
Cd281 Cd 0.42521 0.70195 0.17937 0.0
Cd282 Cd 0.32405 0.69651 0.17253 0.0
O283 O 0.32873 0.69938 0.22937 0.0
O284 O 0.48426 0.71409 0.18851 0.0
O285 O 0.41276 0.72289 0.16964 0.0
C286 C 0.45669 0.72515 0.18226 0.0
C287 C 0.24476 0.69831 0.14671 0.0
C288 C 0.3673 0.69673 0.24812 0.0
C289 C 0.40373 0.67596 0.13967 0.0
O290 O 0.36089 0.67892 0.15126 0.0
O291 O 0.43797 0.68522 0.14248 0.0
O292 O 0.25739 0.68789 0.1682 0.0
O293 O 0.27663 0.70827 0.14041 0.0
O294 O 0.3157 0.07156 0.2236 0.0
Cd295 Cd 0.30719 0.06477 0.16976 0.0
Cd296 Cd 0.40622 0.0688 0.16964 0.0
O297 O 0.39393 0.06566 0.22577 0.0
O298 O 0.2537 0.05038 0.17254 0.0
O299 O 0.33156 0.04479 0.16112 0.0
C300 C 0.28751 0.04068 0.1694 0.0
C301 C 0.48776 0.06648 0.14891 0.0
C302 C 0.35446 0.06917 0.24225 0.0
C303 C 0.33414 0.09021 0.13155 0.0
O304 O 0.3749 0.08693 0.1466 0.0
O305 O 0.29898 0.08121 0.13149 0.0
O306 O 0.47422 0.07657 0.1712 0.0
O307 O 0.45551 0.05697 0.1394 0.0
O308 O 0.43595 0.07709 0.47896 0.0
Cd309 Cd 0.44786 0.071 0.53284 0.0
Cd310 Cd 0.35137 0.07726 0.53626 0.0
O311 O 0.35655 0.07288 0.47992 0.0
O312 O 0.50386 0.05749 0.52713 0.0
O313 O 0.42903 0.05054 0.54335 0.0
C314 C 0.47283 0.04718 0.53252 0.0
C315 C 0.27576 0.07273 0.56546 0.0
C316 C 0.39577 0.07513 0.46177 0.0
C317 C 0.4297 0.09804 0.568 0.0
O318 O 0.38719 0.09569 0.55445 0.0
O319 O 0.46144 0.088 0.56885 0.0
O320 O 0.28172 0.08335 0.54292 0.0
O321 O 0.31264 0.06428 0.57116 0.0
O322 O 0.36215 0.68934 0.48393 0.0
Cd323 Cd 0.34523 0.69668 0.53555 0.0
Cd324 Cd 0.44377 0.69618 0.54469 0.0
O325 O 0.43675 0.6983 0.4874 0.0
O326 O 0.28748 0.70924 0.52733 0.0
O327 O 0.36153 0.71741 0.54299 0.0
C328 C 0.31733 0.72 0.53136 0.0
C329 C 0.51578 0.70526 0.57185 0.0
C330 C 0.40141 0.69325 0.46816 0.0
C331 C 0.37749 0.67344 0.58183 0.0
O332 O 0.41927 0.67749 0.57005 0.0
O333 O 0.33929 0.68085 0.57513 0.0
O334 O 0.51642 0.69446 0.54928 0.0
O335 O 0.47414 0.7113 0.57871 0.0
O336 O 0.6686 0.83785 0.32107 0.0
Cd337 Cd 0.68914 0.81957 0.29185 0.0
Cd338 Cd 0.59081 0.81951 0.28506 0.0
O339 O 0.58838 0.83508 0.32622 0.0
O340 O 0.76198 0.81955 0.29697 0.0
O341 O 0.71512 0.80277 0.32218 0.0
C342 C 0.75828 0.80808 0.31684 0.0
C343 C 0.56164 0.79618 0.28121 0.0
C344 C 0.62744 0.84204 0.33375 0.0
C345 C 0.64499 0.82464 0.21652 0.0
O346 O 0.6052 0.82725 0.23334 0.0
O347 O 0.68173 0.81972 0.23434 0.0
O348 O 0.53212 0.80704 0.27825 0.0
O349 O 0.60665 0.79865 0.2911 0.0
O350 O 0.62035 0.42501 0.30444 0.0
Cd351 Cd 0.57908 0.44253 0.28739 0.0
Cd352 Cd 0.67426 0.45065 0.27909 0.0
O353 O 0.69429 0.43406 0.31371 0.0
O354 O 0.51215 0.43474 0.29591 0.0
O355 O 0.53804 0.4549 0.32228 0.0
C356 C 0.50348 0.44557 0.31738 0.0
C357 C 0.70167 0.47421 0.27796 0.0
C358 C 0.66462 0.42352 0.31516 0.0
C359 C 0.61546 0.44516 0.21087 0.0
O360 O 0.65762 0.44454 0.22581 0.0
O361 O 0.57752 0.44634 0.231 0.0
O362 O 0.7307 0.46364 0.2702 0.0
O363 O 0.65874 0.47121 0.29114 0.0
O364 O 0.65782 0.43253 0.89492 0.0
Cd365 Cd 0.68521 0.45182 0.91588 0.0
Cd366 Cd 0.58674 0.45426 0.9214 0.0
O367 O 0.58068 0.43798 0.88255 0.0
O368 O 0.75719 0.44813 0.9174 0.0
O369 O 0.7245 0.46514 0.88225 0.0
C370 C 0.76302 0.45851 0.89419 0.0
C371 C 0.55684 0.47748 0.92384 0.0
C372 C 0.6162 0.42911 0.88118 0.0
C373 C 0.64011 0.45107 -0.00938 0.0
O374 O 0.60106 0.44725 0.97408 0.0
O375 O 0.67609 0.4558 0.97195 0.0
O376 O 0.52783 0.46655 0.92772 0.0
O377 O 0.60161 0.47509 0.91353 0.0
O378 O 0.59596 0.84054 0.89162 0.0
Cd379 Cd 0.56614 0.82339 0.92067 0.0
Cd380 Cd 0.66369 0.81994 0.92929 0.0
O381 O 0.67448 0.83478 0.88797 0.0
O382 O 0.49405 0.82617 0.91441 0.0
O383 O 0.53363 0.80762 0.89008 0.0
C384 C 0.49307 0.81454 0.89475 0.0
C385 C 0.68611 0.79615 0.93459 0.0
C386 C 0.63902 0.84305 0.8796 0.0
C387 C 0.61003 0.82698 -0.00327 0.0
O388 O 0.65078 0.8285 0.9804 0.0
O389 O 0.5722 0.82315 0.97834 0.0
O390 O 0.71839 0.80631 0.93777 0.0
O391 O 0.64225 0.79953 0.92365 0.0
O392 O 0.42526 0.19437 0.72203 0.0
Cd393 Cd 0.4439 0.20298 0.67213 0.0
Cd394 Cd 0.3424 0.19814 0.65745 0.0
O395 O 0.34499 0.19572 0.71487 0.0
O396 O 0.49932 0.21617 0.68434 0.0
O397 O 0.42598 0.22374 0.66574 0.0
C398 C 0.46908 0.22671 0.67908 0.0
C399 C 0.26356 0.20311 0.63351 0.0
C400 C 0.38239 0.19337 0.73528 0.0
C401 C 0.4243 0.18061 0.61712 0.0
O402 O 0.37981 0.18338 0.62486 0.0
O403 O 0.45906 0.18796 0.63136 0.0
O404 O 0.27515 0.19076 0.64701 0.0
O405 O 0.29663 0.21306 0.63399 0.0
O406 O 0.35633 0.57275 0.72627 0.0
Cd407 Cd 0.33712 0.56539 0.67456 0.0
Cd408 Cd 0.43906 0.56924 0.66663 0.0
O409 O 0.43446 0.56675 0.72352 0.0
O410 O 0.27496 0.55478 0.68397 0.0
O411 O 0.34485 0.54403 0.66898 0.0
C412 C 0.29999 0.54305 0.68041 0.0
C413 C 0.51833 0.56703 0.64148 0.0
C414 C 0.39728 0.57063 0.74226 0.0
C415 C 0.36172 0.59044 0.63318 0.0
O416 O 0.40418 0.58709 0.64508 0.0
O417 O 0.32643 0.58156 0.63603 0.0
O418 O 0.48599 0.55719 0.63487 0.0
O419 O 0.50619 0.5775 0.66297 0.0
O420 O 0.4097 0.57869 0.97824 0.0
Cd421 Cd 0.42519 0.57114 0.02995 0.0
Cd422 Cd 0.32422 0.57198 0.03811 0.0
O423 O 0.33297 0.57136 -0.01914 0.0
O424 O 0.48364 0.55874 0.02262 0.0
O425 O 0.40955 0.55029 0.03631 0.0
C426 C 0.45423 0.54786 0.02586 0.0
C427 C 0.24826 0.56318 0.05834 0.0
C428 C 0.36936 0.57586 0.96219 0.0
C429 C 0.39175 0.59368 0.07956 0.0
O430 O 0.34963 0.58965 0.06805 0.0
O431 O 0.43013 0.58672 0.07068 0.0
O432 O 0.25182 0.57487 0.03938 0.0
O433 O 0.28797 0.55628 0.06632 0.0
O434 O 0.35457 0.18819 0.97016 0.0
Cd435 Cd 0.33614 0.19539 0.02177 0.0
Cd436 Cd 0.43582 0.1931 0.03436 0.0
O437 O 0.43257 0.1939 0.97669 0.0
O438 O 0.27943 0.20842 0.01334 0.0
O439 O 0.35313 0.216 0.03155 0.0
C440 C 0.30931 0.21899 0.01977 0.0
C441 C 0.50919 0.20119 0.06185 0.0
C442 C 0.39663 0.19012 0.95615 0.0
C443 C 0.36278 0.17193 0.0708 0.0
O444 O 0.40613 0.17547 0.06142 0.0
O445 O 0.32614 0.17948 0.06079 0.0
O446 O 0.5077 0.18988 0.04106 0.0
O447 O 0.469 0.20826 0.06684 0.0
H448 H 0.11064 0.39203 0.42387 0.0
H449 H 0.01281 0.4054 0.33555 0.0
H450 H 1.00182 0.38006 0.31653 0.0
H451 H 0.03 0.35461 0.32024 0.0
H452 H 0.13224 0.34235 0.40674 0.0
H453 H 0.13058 0.36679 0.43221 0.0
C454 C 0.08669 0.38942 0.40049 0.0
C455 C 0.06361 0.40052 0.38037 0.0
C456 C 0.08107 0.37503 0.38981 0.0
C457 C 0.03146 0.39699 0.35102 0.0
C458 C 0.02525 0.38254 0.34024 0.0
C459 C 0.05034 0.35723 0.3455 0.0
C460 C 0.08092 0.34678 0.36196 0.0
C461 C 0.05105 0.37151 0.35881 0.0
C462 C 0.10819 0.35026 0.39403 0.0
C463 C 0.10765 0.36424 0.40826 0.0
H464 H 0.10282 0.89628 0.31016 0.0
H465 H 0.24698 0.9074 0.3514 0.0
H466 H 0.26004 0.88227 0.37049 0.0
H467 H 0.22834 0.85722 0.37732 0.0
H468 H 0.08374 0.84705 0.33531 0.0
H469 H 0.07353 0.87173 0.31371 0.0
C470 C 0.13711 0.89331 0.32357 0.0
C471 C 0.17357 0.90378 0.32989 0.0
C472 C 0.14454 0.87894 0.33374 0.0
C473 C 0.21808 0.89959 0.34659 0.0
C474 C 0.22564 0.88521 0.35729 0.0
C475 C 0.19517 0.86038 0.36267 0.0
C476 C 0.15685 0.85035 0.35777 0.0
C477 C 0.189 0.87478 0.35105 0.0
C478 C 0.11367 0.8546 0.33934 0.0
C479 C 0.10767 0.86872 0.32723 0.0
H480 H 0.02538 0.90386 0.87848 0.0
H481 H 0.14199 0.91635 0.80422 0.0
H482 H 0.14739 0.89169 0.78049 0.0
H483 H 0.12692 0.86632 0.78707 0.0
H484 H 0.01303 0.85309 0.863 0.0
H485 H 0.99874 0.87836 0.88029 0.0
C486 C 0.05066 0.90124 0.85614 0.0
C487 C 0.0831 0.91184 0.84284 0.0
C488 C 0.05509 0.88689 0.84392 0.0
C489 C 0.11651 0.90833 0.81455 0.0
C490 C 0.11999 0.89423 0.80136 0.0
C491 C 0.09892 0.86892 0.80745 0.0
C492 C 0.07186 0.85784 0.82445 0.0
C493 C 0.09095 0.88335 0.81702 0.0
C494 C 0.03481 0.86144 0.84997 0.0
C495 C 0.02655 0.87587 0.85972 0.0
H496 H 0.22803 0.4037 0.83482 0.0
H497 H 0.08693 0.41514 0.88016 0.0
H498 H 0.07554 0.39055 0.90247 0.0
H499 H 0.10216 0.3656 0.90459 0.0
H500 H 0.24217 0.35336 0.85856 0.0
H501 H 0.25732 0.37847 0.84052 0.0
C502 C 0.19548 0.40086 0.85049 0.0
C503 C 0.15846 0.4112 0.85612 0.0
C504 C 0.18843 0.38652 0.86219 0.0
C505 C 0.11595 0.40735 0.87571 0.0
C506 C 0.10924 0.39328 0.88816 0.0
C507 C 0.13601 0.36835 0.89046 0.0
C508 C 0.17064 0.35756 0.8824 0.0
C509 C 0.14456 0.38272 0.88061 0.0
C510 C 0.21466 0.36143 0.86473 0.0
C511 C 0.22342 0.37579 0.85459 0.0
H512 H 0.87718 0.60965 0.56985 0.0
H513 H 0.01717 0.59989 0.62056 0.0
H514 H 0.02622 0.62531 0.63914 0.0
H515 H 0.99186 0.65017 0.64265 0.0
H516 H 0.85163 0.65886 0.59102 0.0
H517 H 0.84585 0.63392 0.57005 0.0
C518 C 0.9097 0.61295 0.58523 0.0
C519 C 0.94609 0.6028 0.5944 0.0
C520 C 0.91493 0.62745 0.595 0.0
C521 C 0.98833 0.60745 0.6136 0.0
C522 C 0.99361 0.62199 0.62397 0.0
C523 C 0.96071 0.64662 0.62604 0.0
C524 C 0.92223 0.6563 0.61821 0.0
C525 C 0.957 0.63209 0.61484 0.0
C526 C 0.88162 0.65158 0.59727 0.0
C527 C 0.87813 0.63732 0.58554 0.0
H528 H 0.88717 0.12286 0.67679 0.0
H529 H 0.78281 0.10441 0.59924 0.0
H530 H 0.75921 0.12871 0.57879 0.0
H531 H 0.77527 0.15507 0.57874 0.0
H532 H 0.88292 0.17269 0.65475 0.0
H533 H 0.89721 0.14879 0.68113 0.0
C534 C 0.85924 0.1241 0.65533 0.0
C535 C 0.83761 0.11186 0.63884 0.0
C536 C 0.84595 0.13796 0.64402 0.0
C537 C 0.8005 0.11368 0.61192 0.0
C538 C 0.78692 0.12756 0.60038 0.0
C539 C 0.80039 0.15368 0.60205 0.0
C540 C 0.82759 0.16554 0.61534 0.0
C541 C 0.81009 0.13977 0.61579 0.0
C542 C 0.86118 0.16368 0.64468 0.0
C543 C 0.8698 0.15002 0.65933 0.0
H544 H 0.86022 0.14364 0.16999 0.0
H545 H 0.98768 0.15503 0.1053 0.0
H546 H 1.00277 0.12947 0.09209 0.0
H547 H 0.97507 0.1041 0.09469 0.0
H548 H 0.84534 0.09337 0.15716 0.0
H549 H 0.83675 0.11849 0.17682 0.0
C550 C 0.89128 0.14058 0.15286 0.0
C551 C 0.92222 0.15123 0.13798 0.0
C552 C 0.89983 0.12597 0.14572 0.0
C553 C 0.96292 0.14703 0.11662 0.0
C554 C 0.97171 0.13243 0.10927 0.0
C555 C 0.9461 0.10723 0.11375 0.0
C556 C 0.91123 0.09698 0.12503 0.0
C557 C 0.94004 0.12182 0.12334 0.0
C558 C 0.87289 0.10112 0.14873 0.0
C559 C 0.86761 0.11548 0.15947 0.0
H560 H 0.77607 0.61329 0.13829 0.0
H561 H 0.91847 0.60559 0.08998 0.0
H562 H 0.92296 0.63061 0.06977 0.0
H563 H 0.88973 0.65472 0.06952 0.0
H564 H 0.74766 0.66338 0.11737 0.0
H565 H 0.74003 0.63787 0.13478 0.0
C566 C 0.80744 0.61705 0.12254 0.0
C567 C 0.84686 0.60764 0.11544 0.0
C568 C 0.8104 0.63162 0.11187 0.0
C569 C 0.88774 0.61265 0.09564 0.0
C570 C 0.89049 0.62697 0.08436 0.0
C571 C 0.85705 0.65115 0.08401 0.0
C572 C 0.81964 0.66102 0.0927 0.0
C573 C 0.85267 0.63658 0.09319 0.0
C574 C 0.77727 0.65603 0.11078 0.0
C575 C 0.77279 0.64145 0.12049 0.0
H576 H 0.67693 0.40655 0.89178 0.0
H577 H 0.53747 0.41775 0.84233 0.0
H578 H 0.52505 0.39253 0.82358 0.0
H579 H 0.55626 0.36741 0.81897 0.0
H580 H 0.69654 0.35706 0.8682 0.0
H581 H 0.70557 0.38181 0.89028 0.0
C582 C 0.64383 0.40356 0.8767 0.0
C583 C 0.60853 0.4141 0.86797 0.0
C584 C 0.63675 0.38912 0.86655 0.0
C585 C 0.5655 0.40989 0.84904 0.0
C586 C 0.55828 0.39546 0.83852 0.0
C587 C 0.58812 0.37054 0.83536 0.0
C588 C 0.62559 0.36044 0.84223 0.0
C589 C 0.59379 0.38498 0.84702 0.0
C590 C 0.6672 0.36465 0.86277 0.0
C591 C 0.67256 0.37882 0.87511 0.0
H592 H 0.71651 0.86141 0.8871 0.0
H593 H 0.57893 0.85537 0.82903 0.0
H594 H 0.58228 0.88006 0.80609 0.0
H595 H 0.6192 0.90372 0.80774 0.0
H596 H 0.75548 0.91096 0.86663 0.0
H597 H 0.75785 0.88535 0.88431 0.0
C598 C 0.68808 0.86544 0.86859 0.0
C599 C 0.64752 0.85665 0.85961 0.0
C600 C 0.68945 0.87987 0.8565 0.0
C601 C 0.61041 0.86198 0.83619 0.0
C602 C 0.61215 0.8761 0.82332 0.0
C603 C 0.64952 0.89978 0.82459 0.0
C604 C 0.68655 0.90929 0.83666 0.0
C605 C 0.65056 0.88523 0.83434 0.0
C606 C 0.72621 0.90387 0.85745 0.0
C607 C 0.72756 0.88924 0.86744 0.0
H608 H 0.55556 0.86259 0.33193 0.0
H609 H 0.69739 0.85284 0.37949 0.0
H610 H 0.70422 0.87736 0.40349 0.0
H611 H 0.67358 0.90185 0.40675 0.0
H612 H 0.53269 0.91255 0.35901 0.0
H613 H 0.52188 0.88738 0.33902 0.0
C614 C 0.58733 0.86579 0.34832 0.0
C615 C 0.62592 0.85593 0.35402 0.0
C616 C 0.59166 0.88011 0.36126 0.0
C617 C 0.66727 0.86024 0.37476 0.0
C618 C 0.67135 0.87428 0.38828 0.0
C619 C 0.64043 0.89876 0.39187 0.0
C620 C 0.60435 0.90914 0.38384 0.0
C621 C 0.63444 0.88437 0.38082 0.0
C622 C 0.56127 0.9048 0.36522 0.0
C623 C 0.55504 0.89041 0.3539 0.0
H624 H 0.74801 0.36452 0.37554 0.0
H625 H 0.63207 0.34858 0.30427 0.0
H626 H 0.61684 0.37291 0.28113 0.0
H627 H 0.62813 0.39876 0.28821 0.0
H628 H 0.74135 0.41547 0.36093 0.0
H629 H 0.76601 0.39075 0.37693 0.0
C630 C 0.72085 0.36636 0.35382 0.0
C631 C 0.69145 0.35485 0.34118 0.0
C632 C 0.71075 0.38051 0.34204 0.0
C633 C 0.65542 0.35731 0.31387 0.0
C634 C 0.64627 0.37122 0.30111 0.0
C635 C 0.65825 0.39702 0.30761 0.0
C636 C 0.68204 0.40887 0.32426 0.0
C637 C 0.67217 0.38293 0.31631 0.0
C638 C 0.722 0.40648 0.34831 0.0
C639 C 0.73615 0.39237 0.3573 0.0
H640 H 0.46086 0.61486 0.07263 0.0
H641 H 0.32809 0.60357 0.1309 0.0
H642 H 0.32177 0.62802 0.1554 0.0
H643 H 0.34903 0.6528 0.15573 0.0
H644 H 0.48041 0.66524 0.09725 0.0
H645 H 0.49225 0.64009 0.07708 0.0
C646 C 0.43137 0.61771 0.09148 0.0
C647 C 0.39499 0.60745 0.10011 0.0
C648 C 0.42711 0.63201 0.10462 0.0
C649 C 0.35645 0.61129 0.12398 0.0
C650 C 0.35264 0.62529 0.13776 0.0
C651 C 0.38031 0.65011 0.13842 0.0
C652 C 0.41323 0.66095 0.1273 0.0
C653 C 0.38685 0.63579 0.12733 0.0
C654 C 0.4542 0.65712 0.10577 0.0
C655 C 0.46098 0.64275 0.09437 0.0
H656 H 0.29151 0.15155 0.06029 0.0
H657 H 0.42132 0.16145 0.12492 0.0
H658 H 0.4222 0.13708 0.15003 0.0
H659 H 0.39109 0.11275 0.14965 0.0
H660 H 0.26262 0.1016 0.08485 0.0
H661 H 0.2562 0.12673 0.0635 0.0
C662 C 0.31914 0.14841 0.08058 0.0
C663 C 0.35628 0.15824 0.09091 0.0
C664 C 0.32028 0.13415 0.09413 0.0
C665 C 0.39244 0.15404 0.11667 0.0
C666 C 0.39314 0.1401 0.13082 0.0
C667 C 0.3616 0.11571 0.13071 0.0
C668 C 0.32792 0.10522 0.11824 0.0
C669 C 0.35816 0.13 0.11892 0.0
C670 C 0.28935 0.10942 0.0945 0.0
C671 C 0.28566 0.12379 0.08241 0.0
H672 H 0.39274 0.12197 0.53717 0.0
H673 H 0.49639 0.10783 0.62067 0.0
H674 H 0.51108 0.13305 0.63919 0.0
H675 H 0.48629 0.15886 0.63605 0.0
H676 H 0.38021 0.17207 0.55326 0.0
H677 H 0.37564 0.14747 0.52913 0.0
C678 C 0.4187 0.12437 0.55942 0.0
C679 C 0.44254 0.11306 0.57823 0.0
C680 C 0.42689 0.13875 0.56961 0.0
C681 C 0.47713 0.11637 0.60616 0.0
C682 C 0.48552 0.13077 0.61665 0.0
C683 C 0.46368 0.1564 0.61184 0.0
C684 C 0.4339 0.16723 0.59613 0.0
C685 C 0.45973 0.14204 0.5991 0.0
C686 C 0.40374 0.1639 0.56543 0.0
C687 C 0.40069 0.14982 0.55197 0.0
H688 H 0.30696 0.65272 0.57307 0.0
H689 H 0.44278 0.66235 0.63033 0.0
H690 H 0.44878 0.63747 0.65138 0.0
H691 H 0.41978 0.61292 0.64939 0.0
H692 H 0.28481 0.60212 0.59238 0.0
H693 H 0.2742 0.62758 0.57491 0.0
C694 C 0.33709 0.64939 0.59093 0.0
C695 C 0.37438 0.65931 0.60031 0.0
C696 C 0.34106 0.63487 0.60211 0.0
C697 C 0.41373 0.65487 0.62288 0.0
C698 C 0.41735 0.64065 0.63467 0.0
C699 C 0.38802 0.61602 0.63291 0.0
C700 C 0.35365 0.60556 0.62148 0.0
C701 C 0.38205 0.63052 0.62355 0.0
C702 C 0.31214 0.60994 0.60107 0.0
C703 C 0.30602 0.62449 0.59125 0.0
H704 H 0.47505 0.29932 0.37899 0.0
H705 H 0.47038 0.34482 0.40518 0.0
H706 H 0.38573 0.34604 0.38444 0.0
H707 H 0.3142 0.33476 0.3562 0.0
H708 H 0.31438 0.28926 0.33163 0.0
H709 H 0.39928 0.28742 0.35464 0.0
C710 C 0.4553 0.30945 0.38037 0.0
C711 C 0.47934 0.32197 0.39339 0.0
C712 C 0.40588 0.31011 0.36858 0.0
C713 C 0.45307 0.335 0.39527 0.0
C714 C 0.40454 0.33575 0.38332 0.0
C715 C 0.33274 0.32441 0.35596 0.0
C716 C 0.30844 0.31221 0.34184 0.0
C717 C 0.38086 0.32345 0.36948 0.0
C718 C 0.33251 0.29882 0.34234 0.0
C719 C 0.38104 0.29779 0.35536 0.0
H720 H 0.93499 0.9541 0.28334 0.0
H721 H 0.01387 0.95615 0.38784 0.0
H722 H 0.93648 0.95903 0.42172 0.0
H723 H 0.84604 0.95775 0.42162 0.0
H724 H 0.76738 0.95731 0.31689 0.0
H725 H 0.84511 0.95725 0.2827 0.0
C726 C 0.9351 0.95551 0.31346 0.0
C727 C 0.9796 0.95478 0.3333 0.0
C728 C 0.89066 0.95734 0.33252 0.0
C729 C 0.97983 0.95673 0.37218 0.0
C730 C 0.93565 0.95827 0.39148 0.0
C731 C 0.84612 0.95797 0.3913 0.0
C732 C 0.80144 0.95738 0.37162 0.0
C733 C 0.89081 0.95812 0.372 0.0
C734 C 0.80153 0.9578 0.33245 0.0
C735 C 0.84588 0.95766 0.31298 0.0
H736 H 0.46042 0.96939 0.84067 0.0
H737 H 0.47787 0.92325 0.83205 0.0
H738 H 0.39426 0.91962 0.85335 0.0
H739 H 0.3161 0.92926 0.87277 0.0
H740 H 0.29354 0.97522 0.8787 0.0
H741 H 0.37901 0.97926 0.85972 0.0
C742 C 0.44577 0.95859 0.84379 0.0
C743 C 0.47512 0.94659 0.83491 0.0
C744 C 0.39679 0.95655 0.85519 0.0
C745 C 0.4558 0.93264 0.83856 0.0
C746 C 0.40803 0.93054 0.85073 0.0
C747 C 0.32975 0.9402 0.87006 0.0
C748 C 0.29866 0.95192 0.87728 0.0
C749 C 0.37817 0.94238 0.8588 0.0
C750 C 0.31683 0.96601 0.87318 0.0
C751 C 0.36569 0.96831 0.86248 0.0
H752 H 0.84828 0.3111 0.77499 0.0
H753 H 0.76475 0.30435 0.87543 0.0
H754 H 0.84066 0.30187 0.91163 0.0
H755 H 0.9304 0.30523 0.91575 0.0
H756 H 0.01427 0.31032 0.8149 0.0
H757 H 0.93873 0.30965 0.7775 0.0
C758 C 0.84687 0.30871 0.80464 0.0
C759 C 0.80125 0.30806 0.82272 0.0
C760 C 0.89062 0.30715 0.82512 0.0
C761 C 0.79956 0.30484 0.86099 0.0
C762 C 0.84292 0.30355 0.88172 0.0
C763 C 0.93202 0.3058 0.8855 0.0
C764 C 0.97741 0.30794 0.86794 0.0
C765 C 0.88859 0.30521 0.86428 0.0
C766 C 0.97955 0.30861 0.82882 0.0
C767 C 0.93639 0.30834 0.80753 0.0
H768 H 0.69541 0.70757 0.68047 0.0
H769 H 0.77331 0.70936 0.57607 0.0
H770 H 0.69561 0.71169 0.54197 0.0
H771 H 0.60526 0.70962 0.54181 0.0
H772 H 0.52743 0.70955 0.64633 0.0
H773 H 0.6053 0.7104 0.68073 0.0
C774 C 0.69525 0.70885 0.65033 0.0
C775 C 0.73964 0.70816 0.63062 0.0
C776 C 0.65054 0.71038 0.63107 0.0
C777 C 0.73941 0.70993 0.59169 0.0
C778 C 0.69503 0.71114 0.57223 0.0
C779 C 0.60553 0.7102 0.57211 0.0
C780 C 0.56106 0.70941 0.59168 0.0
C781 C 0.65034 0.71086 0.59156 0.0
C782 C 0.5614 0.71023 0.63083 0.0
C783 C 0.60587 0.71059 0.65045 0.0
H784 H 0.07553 0.05604 0.64418 0.0
H785 H 0.06299 0.10241 0.64595 0.0
H786 H 0.14162 0.10468 0.61452 0.0
H787 H 0.21373 0.0937 0.58623 0.0
H788 H 0.23222 0.04759 0.58873 0.0
H789 H 0.15189 0.04495 0.61892 0.0
C790 C 0.09021 0.0666 0.63763 0.0
C791 C 0.06343 0.07904 0.64721 0.0
C792 C 0.13649 0.06787 0.6204 0.0
C793 C 0.083 0.09268 0.63902 0.0
C794 C 0.12792 0.094 0.62094 0.0
C795 C 0.20014 0.08306 0.59334 0.0
C796 C 0.22846 0.07085 0.58495 0.0
C797 C 0.1549 0.0817 0.61147 0.0
C798 C 0.21093 0.05715 0.59493 0.0
C799 C 0.165 0.05565 0.61208 0.0
H800 H 0.54641 0.0439 0.12639 0.0
H801 H 0.54023 0.09031 0.13473 0.0
H802 H 0.62158 0.09225 0.1078 0.0
H803 H 0.69488 0.08108 0.08318 0.0
H804 H 0.70742 0.03479 0.07889 0.0
H805 H 0.62337 0.03243 0.1029 0.0
C806 C 0.56304 0.05439 0.12217 0.0
C807 C 0.53738 0.06695 0.13254 0.0
C808 C 0.61088 0.05545 0.10744 0.0
C809 C 0.55937 0.08048 0.12727 0.0
C810 C 0.60585 0.08163 0.11174 0.0
C811 C 0.67918 0.07044 0.08715 0.0
C812 C 0.70703 0.05813 0.07887 0.0
C813 C 0.63194 0.06922 0.10189 0.0
C814 C 0.68652 0.04443 0.08494 0.0
C815 C 0.63853 0.0431 0.09867 0.0
H816 H 0.04343 0.6836 0.07037 0.0
H817 H 0.01555 0.72857 0.09241 0.0
H818 H 0.09902 0.73132 0.11774 0.0
H819 H 0.17973 0.72046 0.13516 0.0
H820 H 0.20189 0.67494 0.117 0.0
H821 H 0.12107 0.67289 0.08825 0.0
C822 C 0.0556 0.69406 0.08046 0.0
C823 C 0.02353 0.70588 0.07929 0.0
C824 C 0.10274 0.69543 0.09566 0.0
C825 C 0.03965 0.71929 0.09304 0.0
C826 C 0.08735 0.72086 0.10745 0.0
C827 C 0.16675 0.71018 0.12457 0.0
C828 C 0.19658 0.69787 0.12797 0.0
C829 C 0.11923 0.70896 0.10908 0.0
C830 C 0.17938 0.68453 0.11472 0.0
C831 C 0.13323 0.68334 0.09829 0.0
H832 H 0.40262 0.81312 0.925 0.0
H833 H 0.48133 0.80673 0.82213 0.0
H834 H 0.40367 0.80463 0.78775 0.0
H835 H 0.31361 0.80761 0.78635 0.0
H836 H 0.23475 0.81205 0.88984 0.0
H837 H 0.31214 0.81172 0.92491 0.0
C838 C 0.40256 0.81094 0.89518 0.0
C839 C 0.44726 0.8102 0.87591 0.0
C840 C 0.35787 0.80952 0.87583 0.0
C841 C 0.44716 0.80727 0.83742 0.0
C842 C 0.40283 0.80618 0.81778 0.0
C843 C 0.31351 0.8082 0.81664 0.0
C844 C 0.26892 0.81001 0.83562 0.0
C845 C 0.35802 0.80773 0.83655 0.0
C846 C 0.26881 0.81062 0.8748 0.0
C847 C 0.31301 0.81053 0.89478 0.0
H848 H 0.79543 0.46074 0.823 0.0
H849 H 0.8418 0.46385 0.93797 0.0
H850 H 0.92742 0.46603 0.91856 0.0
H851 H 0.9897 0.46371 0.86938 0.0
H852 H 0.94382 0.45701 0.75531 0.0
H853 H 0.85781 0.45978 0.77334 0.0
C854 C 0.82434 0.46227 0.84357 0.0
C855 C 0.81273 0.46227 0.88173 0.0
C856 C 0.87366 0.46274 0.83225 0.0
C857 C 0.85025 0.46389 0.9084 0.0
C858 C 0.89912 0.46508 0.89733 0.0
C859 C 0.9608 0.46327 0.84846 0.0
C860 C 0.97271 0.46032 0.81112 0.0
C861 C 0.91142 0.46406 0.85941 0.0
C862 C 0.93518 0.45937 0.78422 0.0
C863 C 0.88609 0.46087 0.79455 0.0
H864 H 0.44317 0.42392 0.3359 0.0
H865 H 0.45564 0.47023 0.33921 0.0
H866 H 0.37231 0.47201 0.36471 0.0
H867 H 0.29486 0.46012 0.38488 0.0
H868 H 0.28734 0.41364 0.38508 0.0
H869 H 0.36959 0.41219 0.35914 0.0
C870 C 0.42769 0.43442 0.34228 0.0
C871 C 0.45515 0.44693 0.33546 0.0
C872 C 0.38052 0.4353 0.35736 0.0
C873 C 0.43507 0.46044 0.34436 0.0
C874 C 0.38741 0.46146 0.35873 0.0
C875 C 0.31139 0.44972 0.37909 0.0
C876 C 0.28509 0.437 0.38658 0.0
C877 C 0.35957 0.44894 0.36507 0.0
C878 C 0.30698 0.42357 0.37957 0.0
C879 C 0.35396 0.42272 0.36472 0.0
H880 H 0.84589 0.80196 0.28565 0.0
H881 H 0.76871 0.802 0.39044 0.0
H882 H 0.84617 0.79862 0.42428 0.0
H883 H 0.93673 0.79956 0.42393 0.0
H884 H 0.01353 0.79792 0.31901 0.0
H885 H 0.93535 0.7977 0.28507 0.0
C886 C 0.84609 0.80079 0.31581 0.0
C887 C 0.8021 0.80232 0.33571 0.0
C888 C 0.89062 0.79869 0.33493 0.0
C889 C 0.80231 0.80076 0.37469 0.0
C890 C 0.84658 0.79896 0.39401 0.0
C891 C 0.93614 0.79872 0.39368 0.0
C892 C 0.98052 0.79889 0.37385 0.0
C893 C 0.8911 0.79847 0.37446 0.0
C894 C 0.97967 0.79772 0.33475 0.0
C895 C 0.93502 0.79774 0.31536 0.0
H896 H 0.68672 0.20468 0.173 0.0
H897 H 0.76741 0.20072 0.07021 0.0
H898 H 0.691 0.20255 0.03421 0.0
H899 H 0.60042 0.20219 0.03285 0.0
H900 H 0.52014 0.20802 0.13523 0.0
H901 H 0.5972 0.2088 0.17073 0.0
C902 C 0.68748 0.20453 0.14268 0.0
C903 C 0.73224 0.2024 0.12413 0.0
C904 C 0.64357 0.20584 0.12227 0.0
C905 C 0.73322 0.20237 0.08493 0.0
C906 C 0.68957 0.20332 0.06442 0.0
C907 C 0.60004 0.20398 0.06283 0.0
C908 C 0.55499 0.20493 0.0816 0.0
C909 C 0.64443 0.20462 0.08286 0.0
C910 C 0.55457 0.20734 0.12032 0.0
C911 C 0.59855 0.20766 0.1406 0.0
H912 H 0.21969 0.56023 0.12991 0.0
H913 H 0.1685 0.55687 0.01623 0.0
H914 H 0.08393 0.55403 0.03789 0.0
H915 H 0.0237 0.55605 0.08882 0.0
H916 H 0.07465 0.56297 0.20161 0.0
H917 H 0.1598 0.56069 0.18118 0.0
C918 C 0.19002 0.55845 0.11012 0.0
C919 C 0.1999 0.55854 0.0717 0.0
C920 C 0.14133 0.55765 0.12274 0.0
C921 C 0.16138 0.55667 0.046 0.0
C922 C 0.11312 0.55514 0.05837 0.0
C923 C 0.05354 0.55666 0.10892 0.0
C924 C 0.04326 0.55957 0.1466 0.0
C925 C 0.10244 0.55611 0.09662 0.0
C926 C 0.082 0.5607 0.17243 0.0
C927 C 0.13061 0.55945 0.16075 0.0
H928 H 0.7198 0.58128 0.56661 0.0
H929 H 0.74716 0.53634 0.58903 0.0
H930 H 0.66354 0.53373 0.61355 0.0
H931 H 0.58295 0.54472 0.63039 0.0
H932 H 0.56135 0.59021 0.61173 0.0
H933 H 0.64221 0.59209 0.58359 0.0
C934 C 0.70751 0.57085 0.57659 0.0
C935 C 0.73949 0.559 0.5758 0.0
C936 C 0.66028 0.56956 0.59131 0.0
C937 C 0.72314 0.54564 0.58937 0.0
C938 C 0.67536 0.54415 0.60332 0.0
C939 C 0.59606 0.55496 0.6198 0.0
C940 C 0.56641 0.56731 0.62292 0.0
C941 C 0.64361 0.55608 0.60465 0.0
C942 C 0.58374 0.58059 0.60968 0.0
C943 C 0.62991 0.58168 0.59359 0.0
H944 H 0.04909 0.21982 0.58 0.0
H945 H 0.04805 0.1742 0.55519 0.0
H946 H 0.13239 0.17214 0.5762 0.0
H947 H 0.20538 0.18276 0.60387 0.0
H948 H 0.21107 0.22836 0.6269 0.0
H949 H 0.12631 0.231 0.60411 0.0
C950 C 0.06752 0.20948 0.57903 0.0
C951 C 0.042 0.19718 0.56623 0.0
C952 C 0.11681 0.20833 0.59091 0.0
C953 C 0.06657 0.18386 0.56486 0.0
C954 C 0.11491 0.18263 0.57698 0.0
C955 C 0.18815 0.19331 0.60387 0.0
C956 C 0.21408 0.20532 0.61745 0.0
C957 C 0.14013 0.19472 0.59042 0.0
C958 C 0.19168 0.21895 0.61661 0.0
C959 C 0.14323 0.22043 0.60371 0.0
H960 H 0.04867 0.22489 0.21314 0.0
H961 H 0.91939 0.24172 0.15863 0.0
H962 H 0.93481 0.26541 0.18655 0.0
H963 H 0.98248 0.28088 0.22901 0.0
H964 H 0.11067 0.26382 0.28461 0.0
H965 H 0.09738 0.24048 0.25432 0.0
C966 C 0.02437 0.2338 0.20669 0.0
C967 C 0.9831 0.23156 0.18358 0.0
C968 C 0.03251 0.24721 0.22384 0.0
C969 C 0.9516 0.24319 0.17606 0.0
C970 C 0.96012 0.25668 0.19234 0.0
C971 C 1.00725 0.27202 0.23486 0.0
C972 C 0.0472 0.27405 0.25942 0.0
C973 C 0.99983 0.25872 0.21692 0.0
C974 C 0.07937 0.26251 0.26615 0.0
C975 C 0.07202 0.2492 0.2486 0.0
H976 H 0.28821 0.9762 0.22518 0.0
H977 H 0.1572 0.99097 0.28069 0.0
H978 H 0.16687 0.01473 0.25238 0.0
H979 H 0.21164 0.03117 0.21127 0.0
H980 H 0.34347 0.01668 0.15652 0.0
H981 H 0.3336 0.99279 0.1844 0.0
C982 C 0.26214 0.98467 0.23157 0.0
C983 C 0.2222 0.98181 0.2553 0.0
C984 C 0.26742 0.99824 0.21463 0.0
C985 C 0.18845 0.99288 0.26278 0.0
C986 C 0.19372 1.00644 0.24634 0.0
C987 C 0.23781 0.02273 0.20487 0.0
C988 C 0.2779 0.02566 0.18138 0.0
C989 C 0.23269 0.00918 0.22185 0.0
C990 C 0.312 0.01467 0.17413 0.0
C991 C 0.30661 1.00105 0.19035 0.0
H992 H 0.03851 0.03024 0.00695 0.0
H993 H 0.90253 0.01364 0.0507 0.0
H994 H 0.91541 0.99093 0.01713 0.0
H995 H 0.96456 0.97607 0.97449 0.0
H996 H 0.09965 0.99301 0.92981 0.0
H997 H 0.08707 0.01554 0.96392 0.0
C998 C 0.01206 0.02157 0.0097 0.0
C999 C 0.96993 0.02354 0.03171 0.0
C1000 C 0.01895 0.00877 -0.01054 0.0
C1001 C 0.9355 0.01232 0.03426 0.0
C1002 C 0.94264 0.9994 0.01481 0.0
C1003 C 0.99095 0.98476 0.97176 0.0
C1004 C 0.03287 0.98288 0.9494 0.0
C1005 C 0.98392 0.99759 -0.00805 0.0
C1006 C 0.06692 0.9942 0.94657 0.0
C1007 C 0.05997 1.00704 0.96634 0.0
H1008 H 0.23123 0.22751 0.97786 0.0
H1009 H 0.35849 0.24394 0.03623 0.0
H1010 H 0.3418 0.26809 0.0122 0.0
H1011 H 0.29161 0.28448 0.9742 0.0
H1012 H 0.16424 0.26808 0.91591 0.0
H1013 H 0.18118 0.24388 0.93966 0.0
C1014 C 0.25499 0.2364 -0.01422 0.0
C1015 C 0.29584 0.23392 0.00915 0.0
C1016 C 0.24574 0.2502 0.97124 0.0
C1017 C 0.32661 0.24555 0.01856 0.0
C1018 C 0.31729 0.25935 0.00459 0.0
C1019 C 0.26792 0.27558 0.96619 0.0
C1020 C 0.22692 0.27809 0.94298 0.0
C1021 C 0.27726 0.26177 0.98061 0.0
C1022 C 0.19624 0.26645 0.93345 0.0
C1023 C 0.20569 0.25263 0.94727 0.0
H1024 H 0.04842 0.72761 0.72726 0.0
H1025 H 0.91543 0.7412 0.67178 0.0
H1026 H 0.92182 0.76485 0.70168 0.0
H1027 H 0.96436 0.78149 0.74406 0.0
H1028 H 0.09791 0.76814 0.79908 0.0
H1029 H 0.0912 0.74434 0.76973 0.0
C1030 C 0.02129 0.73582 0.72116 0.0
C1031 C 0.98177 0.73269 0.69696 0.0
C1032 C 0.02454 0.74928 0.73915 0.0
C1033 C 0.94645 0.74338 0.68998 0.0
C1034 C 0.94981 0.75685 0.70736 0.0
C1035 C 0.99154 0.7733 0.75027 0.0
C1036 C 0.03126 0.77653 0.77416 0.0
C1037 C 0.9883 0.75984 0.73238 0.0
C1038 C 0.06668 0.76587 0.78117 0.0
C1039 C 0.06314 0.75232 0.76407 0.0
H1040 H 0.69696 0.99483 0.76145 0.0
H1041 H 0.84536 0.97977 0.7761 0.0
H1042 H 0.8765 1.00138 0.74494 0.0
H1043 H 0.86122 0.02445 0.71289 0.0
H1044 H 0.71224 0.03896 0.69688 0.0
H1045 H 0.68162 0.01746 0.72821 0.0
C1046 C 0.73617 0.99642 0.75849 0.0
C1047 C 0.76889 0.98587 0.7717 0.0
C1048 C 0.75363 0.00858 0.7394 0.0
C1049 C 0.81951 0.98786 0.76664 0.0
C1050 C 0.83728 1.00013 0.7485 0.0
C1051 C 0.82203 0.02277 0.71562 0.0
C1052 C 0.78908 0.03327 0.70232 0.0
C1053 C 0.80462 0.01048 0.73435 0.0
C1054 C 0.73842 0.03102 0.70664 0.0
C1055 C 0.72085 0.01879 0.72489 0.0
H1056 H 0.76352 0.78797 0.9774 0.0
H1057 H 0.63169 0.77164 0.92507 0.0
H1058 H 0.64394 0.74835 0.95552 0.0
H1059 H 0.69169 0.73274 -0.0028 0.0
H1060 H 0.82381 0.749 0.04924 0.0
H1061 H 0.81098 0.7724 0.01948 0.0
C1062 C 0.73781 0.77926 0.97217 0.0
C1063 C 0.697 0.7815 0.94862 0.0
C1064 C 0.74449 0.76601 -0.00958 0.0
C1065 C 0.66363 0.77016 0.94275 0.0
C1066 C 0.67038 0.75688 0.96042 0.0
C1067 C 0.71726 0.74147 0.00262 0.0
C1068 C 0.75843 0.73915 0.02575 0.0
C1069 C 0.71039 0.75475 -0.01539 0.0
C1070 C 0.79161 0.75053 0.03186 0.0
C1071 C 0.78454 0.76386 0.01456 0.0
H1072 H 0.35136 0.52031 0.70742 0.0
H1073 H 0.20392 0.53544 0.68807 0.0
H1074 H 0.17106 0.5144 0.72061 0.0
H1075 H 0.18433 0.49188 0.75534 0.0
H1076 H 0.33201 0.47704 0.77568 0.0
H1077 H 0.36465 0.49798 0.74288 0.0
C1078 C 0.31201 0.51886 0.70971 0.0
C1079 C 0.28009 0.5293 0.69482 0.0
C1080 C 0.29346 0.50697 0.72947 0.0
C1081 C 0.22923 0.52746 0.6989 0.0
C1082 C 0.21045 0.5155 0.7178 0.0
C1083 C 0.22368 0.49334 0.75319 0.0
C1084 C 0.25565 0.48293 0.76827 0.0
C1085 C 0.24223 0.50529 0.73362 0.0
C1086 C 0.30654 0.48492 0.76462 0.0
C1087 C 0.32526 0.49683 0.74555 0.0
H1088 H 0.96755 0.4763 0.47072 0.0
H1089 H 0.10276 0.48901 0.41781 0.0
H1090 H 0.09872 0.5125 0.44895 0.0
H1091 H 0.05771 0.52915 0.49218 0.0
H1092 H 0.92262 0.51636 0.54512 0.0
H1093 H 0.92653 0.49294 0.51376 0.0
C1094 C 0.99574 0.48429 0.46541 0.0
C1095 C 0.03516 0.48095 0.4416 0.0
C1096 C 0.99389 0.49759 0.4842 0.0
C1097 C 0.07178 0.49135 0.43568 0.0
C1098 C 0.06975 0.50472 0.45378 0.0
C1099 C 0.02955 0.52115 0.49742 0.0
C1100 C 0.99021 0.52444 0.52136 0.0
C1101 C 0.03137 0.50786 0.47854 0.0
C1102 C 0.95354 0.51405 0.52717 0.0
C1103 C 0.95551 0.50071 0.50895 0.0
H1104 H 0.2394 0.7269 0.48739 0.0
H1105 H 0.36668 0.74541 0.54137 0.0
H1106 H 0.35145 0.76833 0.50985 0.0
H1107 H 0.30274 0.78298 0.46636 0.0
H1108 H 0.17509 0.76456 0.41276 0.0
H1109 H 0.19058 0.74157 0.44397 0.0
C1110 C 0.2634 0.736 0.49278 0.0
C1111 C 0.30387 0.73446 0.51707 0.0
C1112 C 0.25507 0.74905 0.4739 0.0
C1113 C 0.33502 0.74632 0.52314 0.0
C1114 C 0.32659 0.7594 0.50483 0.0
C1115 C 0.27878 0.77387 0.46093 0.0
C1116 C 0.23814 0.77544 0.43683 0.0
C1117 C 0.28711 0.76082 0.47979 0.0
C1118 C 0.2069 0.7636 0.43082 0.0
C1119 C 0.21548 0.75049 0.44895 0.0
H1120 H 0.77912 0.48249 0.23579 0.0
H1121 H 0.65121 0.49912 0.29199 0.0
H1122 H 0.6653 0.52281 0.26425 0.0
H1123 H 0.71296 0.53862 0.22318 0.0
H1124 H 0.84133 0.52205 0.16755 0.0
H1125 H 0.82716 0.49833 0.19519 0.0
C1126 C 0.75468 0.49133 0.24248 0.0
C1127 C 0.71433 0.48904 0.26621 0.0
C1128 C 0.76239 0.50483 0.22581 0.0
C1129 C 0.68275 0.50061 0.2741 0.0
C1130 C 0.69052 0.51412 0.25796 0.0
C1131 C 0.7374 0.52976 0.21656 0.0
C1132 C 0.77781 0.53205 0.19292 0.0
C1133 C 0.72981 0.51629 0.23337 0.0
C1134 C 0.8097 0.52053 0.18533 0.0
C1135 C 0.80186 0.50701 0.20139 0.0
H1136 H 0.83587 0.24254 0.50102 0.0
H1137 H 0.68364 0.23483 0.52667 0.0
H1138 H 0.66033 0.25665 0.49279 0.0
H1139 H 0.68314 0.27769 0.45509 0.0
H1140 H 0.8354 0.2853 0.42922 0.0
H1141 H 0.85863 0.2635 0.46313 0.0
C1142 C 0.79768 0.24578 0.4998 0.0
C1143 C 0.76159 0.23718 0.51675 0.0
C1144 C 0.78444 0.2581 0.47942 0.0
C1145 C 0.71215 0.24135 0.51417 0.0
C1146 C 0.69877 0.25375 0.49451 0.0
C1147 C 0.72132 0.27445 0.45628 0.0
C1148 C 0.75744 0.28303 0.43931 0.0
C1149 C 0.73454 0.26209 0.4766 0.0
C1150 C 0.80685 0.27882 0.44177 0.0
C1151 C 0.82021 0.26643 0.46145 0.0
H1152 H 0.48203 0.29108 0.7366 0.0
H1153 H 0.61445 0.27469 0.78743 0.0
H1154 H 0.59852 0.25092 0.76018 0.0
H1155 H 0.54812 0.23497 0.72066 0.0
H1156 H 0.41636 0.25149 0.66901 0.0
H1157 H 0.43155 0.27512 0.69719 0.0
C1158 C 0.50701 0.28225 0.74227 0.0
C1159 C 0.54913 0.28464 0.76441 0.0
C1160 C 0.49831 0.26872 0.72568 0.0
C1161 C 0.58156 0.27313 0.7708 0.0
C1162 C 0.57267 0.25956 0.75496 0.0
C1163 C 0.52298 0.24377 0.71516 0.0
C1164 C 0.48133 0.24146 0.69243 0.0
C1165 C 0.53153 0.25729 0.73194 0.0
C1166 C 0.44889 0.25297 0.6861 0.0
C1167 C 0.45735 0.26647 0.70245 0.0
H1168 H 0.54775 0.03866 0.48801 0.0
H1169 H 0.42283 0.0223 0.5482 0.0
H1170 H 0.43619 0.99835 0.52117 0.0
H1171 H 0.48285 0.98216 0.47988 0.0
H1172 H 0.60717 0.99873 0.41924 0.0
H1173 H 0.59368 0.02261 0.44629 0.0
C1174 C 0.52385 0.02982 0.49574 0.0
C1175 C 0.4847 0.03225 0.52056 0.0
C1176 C 0.53096 0.01619 0.47931 0.0
C1177 C 0.45354 0.0207 0.52954 0.0
C1178 C 0.46092 1.00704 0.51382 0.0
C1179 C 0.50656 0.99104 0.47206 0.0
C1180 C 0.54577 0.98865 0.44724 0.0
C1181 C 0.49919 1.0047 0.48834 0.0
C1182 C 0.5765 1.00026 0.43797 0.0
C1183 C 0.56907 0.0139 0.45371 0.0
H1184 H 0.48219 0.78932 0.2386 0.0
H1185 H 0.60818 0.77048 0.29309 0.0
H1186 H 0.58871 0.74709 0.26499 0.0
H1187 H 0.53651 0.73207 0.22447 0.0
H1188 H 0.41077 0.75093 0.16965 0.0
H1189 H 0.43031 0.77433 0.19766 0.0
C1190 C 0.505 0.78006 0.24482 0.0
C1191 C 0.54629 0.78163 0.26833 0.0
C1192 C 0.49425 0.76672 0.22785 0.0
C1193 C 0.57595 0.76955 0.27542 0.0
C1194 C 0.56505 0.7562 0.25911 0.0
C1195 C 0.51372 0.74133 0.21815 0.0
C1196 C 0.4724 0.73974 0.19468 0.0
C1197 C 0.5246 0.75469 0.23497 0.0
C1198 C 0.44298 0.75185 0.18733 0.0
C1199 C 0.45391 0.76522 0.20361 0.0
H1200 H 0.47693 0.48425 0.96538 0.0
H1201 H 0.60384 0.5032 0.91311 0.0
H1202 H 0.58509 0.5264 0.94235 0.0
H1203 H 0.53364 0.54116 -0.01631 0.0
H1204 H 0.4068 0.52219 0.036 0.0
H1205 H 0.42532 0.49902 0.00652 0.0
C1206 C 0.5001 0.4935 0.95985 0.0
C1207 C 0.54151 0.492 0.93673 0.0
C1208 C 0.48976 0.50671 0.97748 0.0
C1209 C 0.57153 0.50407 0.93048 0.0
C1210 C 0.56106 0.51731 0.94747 0.0
C1211 C 0.51042 0.53191 -0.01086 0.0
C1212 C 0.46915 0.53338 0.01241 0.0
C1213 C 0.52067 0.51871 0.97141 0.0
C1214 C 0.43902 0.52133 0.01854 0.0
C1215 C 0.44937 0.5081 0.00142 0.0
H1216 H 0.06936 0.32227 0.17028 0.0
H1217 H 0.22631 0.32677 0.18273 0.0
H1218 H 0.23521 0.32717 0.11473 0.0
H1219 H 0.19874 0.32462 0.05232 0.0
H1220 H 0.0421 0.31891 0.04072 0.0
H1221 H 0.03284 0.32053 0.10837 0.0
C1222 C 0.10557 0.32352 0.15826 0.0
C1223 C 0.14717 0.32445 0.1815 0.0
C1224 C 0.11047 0.32335 0.11944 0.0
C1225 C 0.19374 0.326 0.16539 0.0
C1226 C 0.19885 0.32618 0.12658 0.0
C1227 C 0.16253 0.3238 0.06455 0.0
C1228 C 0.12119 0.32156 0.0416 0.0
C1229 C 0.15753 0.32458 0.10341 0.0
C1230 C 0.07453 0.32052 0.05784 0.0
C1231 C 0.06918 0.32149 0.09646 0.0
H1232 H 0.05938 0.93547 0.03908 0.0
H1233 H 0.21534 0.93074 0.02254 0.0
H1234 H 0.22817 0.9299 0.09014 0.0
H1235 H 0.19575 0.93267 0.15339 0.0
H1236 H 0.04025 0.9389 0.16943 0.0
H1237 H 0.02656 0.93699 0.10219 0.0
C1238 C 0.09612 0.93401 0.05021 0.0
C1239 C 0.13639 0.93323 0.02598 0.0
C1240 C 0.10333 0.93399 0.08888 0.0
C1241 C 0.1838 0.93144 0.04076 0.0
C1242 C 0.19116 0.93101 0.07933 0.0
C1243 C 0.15881 0.93349 0.14221 0.0
C1244 C 0.11913 0.93604 0.16622 0.0
C1245 C 0.15131 0.93264 0.10359 0.0
C1246 C 0.07146 0.93707 0.15141 0.0
C1247 C 0.06357 0.93595 0.11303 0.0
H1248 H 0.81957 0.69206 0.794 0.0
H1249 H 0.97693 0.6873 0.80085 0.0
H1250 H 0.97325 0.68856 0.86885 0.0
H1251 H 0.92584 0.69205 0.92598 0.0
H1252 H 0.76837 0.69628 0.91943 0.0
H1253 H 0.77163 0.69418 0.85142 0.0
C1254 C 0.85302 0.69123 0.81039 0.0
C1255 C 0.89842 0.6897 0.79252 0.0
C1256 C 0.85067 0.69194 0.84939 0.0
C1257 C 0.94146 0.68848 0.81403 0.0
C1258 C 0.93946 0.68925 0.85287 0.0
C1259 C 0.89226 0.69252 0.90963 0.0
C1260 C 0.84704 0.69445 0.92747 0.0
C1261 C 0.89435 0.69117 0.87076 0.0
C1262 C 0.80366 0.69481 0.90616 0.0
C1263 C 0.80548 0.69363 0.86735 0.0
H1264 H 0.95591 0.07834 0.81276 0.0
H1265 H 0.79817 0.07718 0.80109 0.0
H1266 H 0.78932 0.07595 0.86862 0.0
H1267 H 0.82617 0.07377 0.93067 0.0
H1268 H 0.98381 0.07497 0.94273 0.0
H1269 H 0.9927 0.07773 0.87539 0.0
C1270 C 0.91962 0.0779 0.82501 0.0
C1271 C 0.87789 0.07773 0.80193 0.0
C1272 C 0.91466 0.07717 0.86392 0.0
C1273 C 0.83103 0.07729 0.81822 0.0
C1274 C 0.82583 0.07655 0.85686 0.0
C1275 C 0.86246 0.07473 0.91861 0.0
C1276 C 0.90417 0.07403 0.94161 0.0
C1277 C 0.8674 0.07626 0.87991 0.0
C1278 C 0.95098 0.07544 0.92561 0.0
C1279 C 0.95618 0.07698 0.88708 0.0
H1280 H 0.18263 0.81921 0.66499 0.0
H1281 H 0.02486 0.81531 0.66417 0.0
H1282 H 0.02461 0.81463 0.59593 0.0
H1283 H 0.06937 0.81495 0.53675 0.0
H1284 H 0.22693 0.81975 0.53772 0.0
H1285 H 0.22708 0.82034 0.60587 0.0
C1286 C 0.14825 0.81817 0.64984 0.0
C1287 C 0.10391 0.81723 0.66938 0.0
C1288 C 0.14831 0.81799 0.61077 0.0
C1289 C 0.05948 0.81608 0.64956 0.0
C1290 C 0.05929 0.81566 0.61063 0.0
C1291 C 0.1037 0.81612 0.55192 0.0
C1292 C 0.14802 0.81725 0.53238 0.0
C1293 C 0.10351 0.81659 0.59099 0.0
C1294 C 0.19226 0.81891 0.55224 0.0
C1295 C 0.19244 0.81921 0.59116 0.0
H1296 H 0.07606 0.44018 0.67175 0.0
H1297 H 0.23394 0.43659 0.67064 0.0
H1298 H 0.23267 0.43452 0.60255 0.0
H1299 H 0.18689 0.43492 0.54352 0.0
H1300 H 0.0289 0.43821 0.54506 0.0
H1301 H 0.03007 0.43916 0.61317 0.0
C1302 C 0.11019 0.4389 0.65661 0.0
C1303 C 0.15502 0.43867 0.67599 0.0
C1304 C 0.10918 0.43771 0.61771 0.0
C1305 C 0.19894 0.43681 0.6562 0.0
C1306 C 0.19827 0.43567 0.61734 0.0
C1307 C 0.15274 0.4358 0.55879 0.0
C1308 C 0.10796 0.43662 0.53943 0.0
C1309 C 0.15364 0.4363 0.59784 0.0
C1310 C 0.06387 0.43757 0.55945 0.0
C1311 C 0.06448 0.43815 0.59833 0.0
H1312 H 0.81415 0.1901 0.29596 0.0
H1313 H 0.97216 0.19317 0.29728 0.0
H1314 H 0.9723 0.19291 0.36547 0.0
H1315 H 0.92752 0.19235 0.42442 0.0
H1316 H 0.76953 0.1888 0.42324 0.0
H1317 H 0.76952 0.18852 0.35508 0.0
C1318 C 0.84856 0.19075 0.31122 0.0
C1319 C 0.893 0.19175 0.29178 0.0
C1320 C 0.84844 0.19042 0.35031 0.0
C1321 C 0.93744 0.19239 0.31175 0.0
C1322 C 0.93758 0.19224 0.35068 0.0
C1323 C 0.89309 0.19144 0.40927 0.0
C1324 C 0.84864 0.19068 0.42881 0.0
C1325 C 0.89329 0.19131 0.3702 0.0
C1326 C 0.80433 0.18939 0.40882 0.0
C1327 C 0.80422 0.1893 0.36987 0.0
H1328 H 0.83793 0.57282 0.42412 0.0
H1329 H 0.99596 0.57042 0.41966 0.0
H1330 H 0.99323 0.57266 0.35173 0.0
H1331 H 0.94578 0.57411 0.29375 0.0
H1332 H 0.78779 0.57682 0.29823 0.0
H1333 H 0.79076 0.57579 0.36635 0.0
C1334 C 0.87176 0.57281 0.40826 0.0
C1335 C 0.917 0.57131 0.42667 0.0
C1336 C 0.86995 0.57417 0.36939 0.0
C1337 C 0.96065 0.57154 0.40598 0.0
C1338 C 0.95914 0.57279 0.3672 0.0
C1339 C 0.91201 0.57454 0.30965 0.0
C1340 C 0.86666 0.5754 0.29111 0.0
C1341 C 0.91396 0.57393 0.34864 0.0
C1342 C 0.8232 0.57615 0.31197 0.0
C1343 C 0.82482 0.57551 0.35086 0.0
H1344 H 0.59752 0.33186 0.53313 0.0
H1345 H 0.75588 0.33106 0.53229 0.0
H1346 H 0.75747 0.33136 0.60047 0.0
H1347 H 0.71376 0.33005 0.66006 0.0
H1348 H 0.55539 0.33098 0.66063 0.0
H1349 H 0.55404 0.33246 0.59264 0.0
C1350 C 0.63239 0.33187 0.54786 0.0
C1351 C 0.67643 0.33127 0.52778 0.0
C1352 C 0.63308 0.33196 0.58693 0.0
C1353 C 0.72139 0.33149 0.54717 0.0
C1354 C 0.72238 0.33159 0.58613 0.0
C1355 C 0.67899 0.33064 0.64529 0.0
C1356 C 0.6348 0.33024 0.66522 0.0
C1357 C 0.67842 0.33152 0.60625 0.0
C1358 C 0.58997 0.33123 0.64585 0.0
C1359 C 0.58911 0.33205 0.60699 0.0
H1360 H 0.57961 0.94902 0.55386 0.0
H1361 H 0.73646 0.94892 0.53781 0.0
H1362 H 0.74929 0.94888 0.60544 0.0
H1363 H 0.7158 0.94873 0.66874 0.0
H1364 H 0.55896 0.94976 0.68471 0.0
H1365 H 0.54617 0.94961 0.6171 0.0
C1366 C 0.61659 0.94893 0.56519 0.0
C1367 C 0.65704 0.94887 0.54109 0.0
C1368 C 0.62364 0.9491 0.60388 0.0
C1369 C 0.70478 0.94898 0.55597 0.0
C1370 C 0.71213 0.94893 0.59454 0.0
C1371 C 0.67883 0.94887 0.65739 0.0
C1372 C 0.63838 0.94916 0.68147 0.0
C1373 C 0.67181 0.94896 0.61869 0.0
C1374 C 0.59066 0.94956 0.66657 0.0
C1375 C 0.58332 0.94944 0.62801 0.0
H1376 H 0.32534 0.69123 0.41997 0.0
H1377 H 0.48312 0.69509 0.42465 0.0
H1378 H 0.48622 0.69611 0.35643 0.0
H1379 H 0.44392 0.69665 0.29618 0.0
H1380 H 0.28584 0.69381 0.29167 0.0
H1381 H 0.28305 0.69168 0.35969 0.0
C1382 C 0.36049 0.69215 0.40608 0.0
C1383 C 0.40399 0.69303 0.42717 0.0
C1384 C 0.36187 0.69301 0.36713 0.0
C1385 C 0.44917 0.69441 0.40889 0.0
C1386 C 0.45095 0.695 0.36998 0.0
C1387 C 0.40882 0.69549 0.31001 0.0
C1388 C 0.36514 0.69537 0.28901 0.0
C1389 C 0.40748 0.69444 0.34893 0.0
C1390 C 0.31995 0.69399 0.30732 0.0
C1391 C 0.31834 0.69274 0.34612 0.0
H1392 H 0.31675 0.07397 0.41527 0.0
H1393 H 0.47516 0.07533 0.41599 0.0
H1394 H 0.47617 0.07354 0.34815 0.0
H1395 H 0.43249 0.07117 0.2888 0.0
H1396 H 0.27417 0.07027 0.28738 0.0
H1397 H 0.27281 0.0723 0.35542 0.0
C1398 C 0.35145 0.07392 0.40056 0.0
C1399 C 0.39572 0.07474 0.42064 0.0
C1400 C 0.35188 0.07292 0.36149 0.0
C1401 C 0.44046 0.07473 0.4012 0.0
C1402 C 0.44116 0.07367 0.3624 0.0
C1403 C 0.39769 0.07138 0.30338 0.0
C1404 C 0.35358 0.0705 0.28321 0.0
C1405 C 0.39713 0.07267 0.34232 0.0
C1406 C 0.3087 0.07095 0.30238 0.0
C1407 C 0.30786 0.07209 0.34125 0.0
H1408 H 0.68694 0.82772 0.04443 0.0
H1409 H 0.52868 0.82928 0.04068 0.0
H1410 H 0.52605 0.82973 0.10897 0.0
H1411 H 0.56852 0.82818 0.16914 0.0
H1412 H 0.72656 0.82519 0.1726 0.0
H1413 H 0.72946 0.82686 0.10451 0.0
C1414 C 0.65184 0.82833 0.05849 0.0
C1415 C 0.60804 0.82846 0.03763 0.0
C1416 C 0.6506 0.82824 0.09752 0.0
C1417 C 0.56287 0.82912 0.05622 0.0
C1418 C 0.56135 0.82937 0.09519 0.0
C1419 C 0.60367 0.82803 0.15505 0.0
C1420 C 0.64728 0.82654 0.17578 0.0
C1421 C 0.60497 0.8287 0.11604 0.0
C1422 C 0.69249 0.82626 0.15717 0.0
C1423 C 0.69417 0.82722 0.11831 0.0
H1424 H 0.56611 0.44601 0.03908 0.0
H1425 H 0.72211 0.45394 0.03371 0.0
H1426 H 0.72802 0.45231 0.10157 0.0
H1427 H 0.68903 0.44898 0.16192 0.0
H1428 H 0.53276 0.44177 0.16814 0.0
H1429 H 0.52685 0.44272 0.09995 0.0
C1430 C 0.60143 0.44734 0.05275 0.0
C1431 C 0.64361 0.45007 0.0315 0.0
C1432 C 0.60451 0.4465 0.09171 0.0
C1433 C 0.68907 0.45187 0.04954 0.0
C1434 C 0.69252 0.45091 0.08827 0.0
C1435 C 0.65366 0.44751 0.14842 0.0
C1436 C 0.61141 0.44525 0.16992 0.0
C1437 C 0.65048 0.44826 0.10954 0.0
C1438 C 0.5658 0.44353 0.15207 0.0
C1439 C 0.56241 0.44408 0.11317 0.0
H1440 H 0.45475 0.19138 0.78687 0.0
H1441 H 0.2973 0.18901 0.774 0.0
H1442 H 0.28836 0.18659 0.84162 0.0
H1443 H 0.32492 0.187 0.90415 0.0
H1444 H 0.48215 0.19057 0.9168 0.0
H1445 H 0.49147 0.1906 0.84899 0.0
C1446 C 0.41842 0.19019 0.79872 0.0
C1447 C 0.3767 0.19048 0.77549 0.0
C1448 C 0.41352 0.18911 0.83745 0.0
C1449 C 0.32997 0.1889 0.79133 0.0
C1450 C 0.32484 0.18754 0.82995 0.0
C1451 C 0.36131 0.18764 0.89212 0.0
C1452 C 0.40277 0.18888 0.91542 0.0
C1453 C 0.36632 0.18792 0.85325 0.0
C1454 C 0.44963 0.1897 0.89942 0.0
C1455 C 0.45499 0.18972 0.8607 0.0
H1456 H 0.44492 0.57595 0.91372 0.0
H1457 H 0.28675 0.57694 0.91914 0.0
H1458 H 0.28185 0.57602 0.85097 0.0
H1459 H 0.32231 0.57375 0.79061 0.0
H1460 H 0.48038 0.57157 0.7852 0.0
H1461 H 0.48551 0.57412 0.8531 0.0
C1462 C 0.40938 0.57615 0.89997 0.0
C1463 C 0.36624 0.57654 0.92126 0.0
C1464 C 0.40684 0.57528 0.86101 0.0
C1465 C 0.32043 0.57661 0.9032 0.0
C1466 C 0.31762 0.57607 0.86433 0.0
C1467 C 0.35795 0.57392 0.80421 0.0
C1468 C 0.40091 0.57246 0.783 0.0
C1469 C 0.36057 0.5752 0.84307 0.0
C1470 C 0.44678 0.57261 0.80102 0.0
C1471 C 0.44974 0.5741 0.83976 0.0
loop_
_geom_bond_atom_site_label_1
_geom_bond_atom_site_label_2
_geom_bond_distance
_geom_bond_site_symmetry_2
_ccdc_geom_bond_type
O0 Cd1 2.223 . S
O0 C8 1.315 . S
Cd1 O0 2.223 . S
Cd1 O4 2.297 . S
Cd1 O5 2.439 . S
Cd1 O11 2.240 . S
Cd2 O3 2.240 . S
Cd2 O10 2.223 . S
Cd2 O12 2.297 . S
Cd2 O13 2.439 . S
O3 Cd2 2.240 . S
O3 C8 1.279 . S
O4 Cd1 2.297 . S
O4 C6 1.247 . S
O5 Cd1 2.439 . S
O5 C6 1.208 . S
C6 O4 1.247 . S
C6 O5 1.208 . S
C7 O12 1.247 . S
C7 O13 1.208 . S
C8 O0 1.315 . S
C8 O3 1.279 . S
C9 O10 1.315 . S
C9 O11 1.279 . S
O10 Cd2 2.223 . S
O10 C9 1.315 . S
O11 Cd1 2.240 . S
O11 C9 1.279 . S
O12 Cd2 2.297 . S
O12 C7 1.247 . S
O13 Cd2 2.439 . S
O13 C7 1.208 . S
O14 Cd15 2.223 . S
O14 C22 1.315 . S
Cd15 O14 2.223 . S
Cd15 O18 2.297 1_455 S
Cd15 O19 2.439 . S
Cd15 O25 2.240 . S
Cd16 O17 2.240 . S
Cd16 O24 2.223 . S
Cd16 O26 2.297 . S
Cd16 O27 2.439 . S
O17 Cd16 2.240 . S
O17 C22 1.279 . S
O18 Cd15 2.297 1_655 S
O18 C20 1.247 1_655 S
O19 Cd15 2.439 . S
O19 C20 1.208 . S
C20 O18 1.247 1_455 S
C20 O19 1.208 . S
C21 O26 1.247 . S
C21 O27 1.208 . S
C22 O14 1.315 . S
C22 O17 1.279 . S
C23 O24 1.315 . S
C23 O25 1.279 . S
O24 Cd16 2.223 . S
O24 C23 1.315 . S
O25 Cd15 2.240 . S
O25 C23 1.279 . S
O26 Cd16 2.297 . S
O26 C21 1.247 . S
O27 Cd16 2.439 . S
O27 C21 1.208 . S
O28 Cd29 2.223 . S
O28 C36 1.315 . S
Cd29 O28 2.223 . S
Cd29 O32 2.297 . S
Cd29 O33 2.439 . S
Cd29 O39 2.240 1_556 S
Cd30 O31 2.240 . S
Cd30 O38 2.223 1_556 S
Cd30 O40 2.297 . S
Cd30 O41 2.439 . S
O31 Cd30 2.240 . S
O31 C36 1.279 . S
O32 Cd29 2.297 . S
O32 C34 1.247 . S
O33 Cd29 2.439 . S
O33 C34 1.208 . S
C34 O32 1.247 . S
C34 O33 1.208 . S
C35 O40 1.247 . S
C35 O41 1.208 . S
C36 O28 1.315 . S
C36 O31 1.279 . S
C37 O38 1.315 . S
C37 O39 1.279 . S
O38 Cd30 2.223 1_554 S
O38 C37 1.315 . S
O39 Cd29 2.240 1_554 S
O39 C37 1.279 . S
O40 Cd30 2.297 . S
O40 C35 1.247 . S
O41 Cd30 2.439 . S
O41 C35 1.208 . S
O42 Cd43 2.223 . S
O42 C50 1.315 . S
Cd43 O42 2.223 . S
Cd43 O46 2.297 1_455 S
Cd43 O47 2.439 . S
Cd43 O53 2.240 1_556 S
Cd44 O45 2.240 . S
Cd44 O52 2.223 1_556 S
Cd44 O54 2.297 . S
Cd44 O55 2.439 . S
O45 Cd44 2.240 . S
O45 C50 1.279 . S
O46 Cd43 2.297 1_655 S
O46 C48 1.247 1_655 S
O47 Cd43 2.439 . S
O47 C48 1.208 . S
C48 O46 1.247 1_455 S
C48 O47 1.208 . S
C49 O54 1.247 . S
C49 O55 1.208 . S
C50 O42 1.315 . S
C50 O45 1.279 . S
C51 O52 1.315 . S
C51 O53 1.279 . S
O52 Cd44 2.223 1_554 S
O52 C51 1.315 . S
O53 Cd43 2.240 1_554 S
O53 C51 1.279 . S
O54 Cd44 2.297 . S
O54 C49 1.247 . S
O55 Cd44 2.439 . S
O55 C49 1.208 . S
O56 Cd57 2.223 . S
O56 C64 1.315 . S
Cd57 O56 2.223 . S
Cd57 O60 2.297 . S
Cd57 O61 2.439 . S
Cd57 O67 2.240 . S
Cd58 O59 2.240 . S
Cd58 O66 2.223 . S
Cd58 O68 2.297 . S
Cd58 O69 2.439 . S
O59 Cd58 2.240 . S
O59 C64 1.279 . S
O60 Cd57 2.297 . S
O60 C62 1.247 . S
O61 Cd57 2.439 . S
O61 C62 1.208 . S
C62 O60 1.247 . S
C62 O61 1.208 . S
C63 O68 1.247 . S
C63 O69 1.208 . S
C64 O56 1.315 . S
C64 O59 1.279 . S
C65 O66 1.315 . S
C65 O67 1.279 . S
O66 Cd58 2.223 . S
O66 C65 1.315 . S
O67 Cd57 2.240 . S
O67 C65 1.279 . S
O68 Cd58 2.297 . S
O68 C63 1.247 . S
O69 Cd58 2.439 . S
O69 C63 1.208 . S
O70 Cd71 2.223 . S
O70 C78 1.315 . S
Cd71 O70 2.223 . S
Cd71 O74 2.297 . S
Cd71 O75 2.439 . S
Cd71 O81 2.240 . S
Cd72 O73 2.240 . S
Cd72 O80 2.223 . S
Cd72 O82 2.297 1_655 S
Cd72 O83 2.439 . S
O73 Cd72 2.240 . S
O73 C78 1.279 . S
O74 Cd71 2.297 . S
O74 C76 1.247 . S
O75 Cd71 2.439 . S
O75 C76 1.208 . S
C76 O74 1.247 . S
C76 O75 1.208 . S
C77 O82 1.247 1_655 S
C77 O83 1.208 . S
C78 O70 1.315 . S
C78 O73 1.279 . S
C79 O80 1.315 . S
C79 O81 1.279 . S
O80 Cd72 2.223 . S
O80 C79 1.315 . S
O81 Cd71 2.240 . S
O81 C79 1.279 . S
O82 Cd72 2.297 1_455 S
O82 C77 1.247 1_455 S
O83 Cd72 2.439 . S
O83 C77 1.208 . S
O84 Cd85 2.223 1_556 S
O84 C92 1.315 . S
Cd85 O84 2.223 1_554 S
Cd85 O88 2.297 . S
Cd85 O89 2.439 . S
Cd85 O95 2.240 . S
Cd86 O87 2.240 1_554 S
Cd86 O94 2.223 . S
Cd86 O96 2.297 . S
Cd86 O97 2.439 . S
O87 Cd86 2.240 1_556 S
O87 C92 1.279 . S
O88 Cd85 2.297 . S
O88 C90 1.247 . S
O89 Cd85 2.439 . S
O89 C90 1.208 . S
C90 O88 1.247 . S
C90 O89 1.208 . S
C91 O96 1.247 . S
C91 O97 1.208 . S
C92 O84 1.315 . S
C92 O87 1.279 . S
C93 O94 1.315 . S
C93 O95 1.279 . S
O94 Cd86 2.223 . S
O94 C93 1.315 . S
O95 Cd85 2.240 . S
O95 C93 1.279 . S
O96 Cd86 2.297 . S
O96 C91 1.247 . S
O97 Cd86 2.439 . S
O97 C91 1.208 . S
O98 Cd99 2.223 1_556 S
O98 C106 1.315 . S
Cd99 O98 2.223 1_554 S
Cd99 O102 2.297 . S
Cd99 O103 2.439 . S
Cd99 O109 2.240 . S
Cd100 O101 2.240 1_554 S
Cd100 O108 2.223 . S
Cd100 O110 2.297 1_655 S
Cd100 O111 2.439 . S
O101 Cd100 2.240 1_556 S
O101 C106 1.279 . S
O102 Cd99 2.297 . S
O102 C104 1.247 . S
O103 Cd99 2.439 . S
O103 C104 1.208 . S
C104 O102 1.247 . S
C104 O103 1.208 . S
C105 O110 1.247 1_655 S
C105 O111 1.208 . S
C106 O98 1.315 . S
C106 O101 1.279 . S
C107 O108 1.315 . S
C107 O109 1.279 . S
O108 Cd100 2.223 . S
O108 C107 1.315 . S
O109 Cd99 2.240 . S
O109 C107 1.279 . S
O110 Cd100 2.297 1_455 S
O110 C105 1.247 1_455 S
O111 Cd100 2.439 . S
O111 C105 1.208 . S
O112 Cd113 2.223 . S
O112 C120 1.315 . S
Cd113 O112 2.223 . S
Cd113 O116 2.297 . S
Cd113 O117 2.439 . S
Cd113 O123 2.240 . S
Cd114 O115 2.240 . S
Cd114 O122 2.223 . S
Cd114 O124 2.297 . S
Cd114 O125 2.439 . S
O115 Cd114 2.240 . S
O115 C120 1.279 . S
O116 Cd113 2.297 . S
O116 C118 1.247 . S
O117 Cd113 2.439 . S
O117 C118 1.208 . S
C118 O116 1.247 . S
C118 O117 1.208 . S
C119 O124 1.247 . S
C119 O125 1.208 . S
C120 O112 1.315 . S
C120 O115 1.279 . S
C121 O122 1.315 . S
C121 O123 1.279 . S
O122 Cd114 2.223 . S
O122 C121 1.315 . S
O123 Cd113 2.240 . S
O123 C121 1.279 . S
O124 Cd114 2.297 . S
O124 C119 1.247 . S
O125 Cd114 2.439 . S
O125 C119 1.208 . S
O126 Cd127 2.223 . S
O126 C134 1.315 . S
Cd127 O126 2.223 . S
Cd127 O130 2.297 1_455 S
Cd127 O131 2.439 . S
Cd127 O137 2.240 . S
Cd128 O129 2.240 . S
Cd128 O136 2.223 . S
Cd128 O138 2.297 . S
Cd128 O139 2.439 . S
O129 Cd128 2.240 . S
O129 C134 1.279 . S
O130 Cd127 2.297 1_655 S
O130 C132 1.247 1_655 S
O131 Cd127 2.439 . S
O131 C132 1.208 . S
C132 O130 1.247 1_455 S
C132 O131 1.208 . S
C133 O138 1.247 . S
C133 O139 1.208 . S
C134 O126 1.315 . S
C134 O129 1.279 . S
C135 O136 1.315 . S
C135 O137 1.279 . S
O136 Cd128 2.223 . S
O136 C135 1.315 . S
O137 Cd127 2.240 . S
O137 C135 1.279 . S
O138 Cd128 2.297 . S
O138 C133 1.247 . S
O139 Cd128 2.439 . S
O139 C133 1.208 . S
O140 Cd141 2.223 . S
O140 C148 1.315 . S
Cd141 O140 2.223 . S
Cd141 O144 2.297 . S
Cd141 O145 2.439 . S
Cd141 O151 2.240 . S
Cd142 O143 2.240 . S
Cd142 O150 2.223 . S
Cd142 O152 2.297 . S
Cd142 O153 2.439 . S
O143 Cd142 2.240 . S
O143 C148 1.279 . S
O144 Cd141 2.297 . S
O144 C146 1.247 . S
O145 Cd141 2.439 . S
O145 C146 1.208 . S
C146 O144 1.247 . S
C146 O145 1.208 . S
C147 O152 1.247 . S
C147 O153 1.208 . S
C148 O140 1.315 . S
C148 O143 1.279 . S
C149 O150 1.315 . S
C149 O151 1.279 . S
O150 Cd142 2.223 . S
O150 C149 1.315 . S
O151 Cd141 2.240 . S
O151 C149 1.279 . S
O152 Cd142 2.297 . S
O152 C147 1.247 . S
O153 Cd142 2.439 . S
O153 C147 1.208 . S
O154 Cd155 2.223 . S
O154 C162 1.315 . S
Cd155 O154 2.223 . S
Cd155 O158 2.297 1_455 S
Cd155 O159 2.439 . S
Cd155 O165 2.240 . S
Cd156 O157 2.240 . S
Cd156 O164 2.223 . S
Cd156 O166 2.297 . S
Cd156 O167 2.439 . S
O157 Cd156 2.240 . S
O157 C162 1.279 . S
O158 Cd155 2.297 1_655 S
O158 C160 1.247 1_655 S
O159 Cd155 2.439 . S
O159 C160 1.208 . S
C160 O158 1.247 1_455 S
C160 O159 1.208 . S
C161 O166 1.247 . S
C161 O167 1.208 . S
C162 O154 1.315 . S
C162 O157 1.279 . S
C163 O164 1.315 . S
C163 O165 1.279 . S
O164 Cd156 2.223 . S
O164 C163 1.315 . S
O165 Cd155 2.240 . S
O165 C163 1.279 . S
O166 Cd156 2.297 . S
O166 C161 1.247 . S
O167 Cd156 2.439 . S
O167 C161 1.208 . S
O168 Cd169 2.223 . S
O168 C176 1.315 . S
Cd169 O168 2.223 . S
Cd169 O172 2.297 . S
Cd169 O173 2.439 . S
Cd169 O179 2.240 . S
Cd170 O171 2.240 . S
Cd170 O178 2.223 . S
Cd170 O180 2.297 . S
Cd170 O181 2.439 . S
O171 Cd170 2.240 . S
O171 C176 1.279 . S
O172 Cd169 2.297 . S
O172 C174 1.247 . S
O173 Cd169 2.439 . S
O173 C174 1.208 . S
C174 O172 1.247 . S
C174 O173 1.208 . S
C175 O180 1.247 . S
C175 O181 1.208 . S
C176 O168 1.315 . S
C176 O171 1.279 . S
C177 O178 1.315 . S
C177 O179 1.279 . S
O178 Cd170 2.223 . S
O178 C177 1.315 . S
O179 Cd169 2.240 . S
O179 C177 1.279 . S
O180 Cd170 2.297 . S
O180 C175 1.247 . S
O181 Cd170 2.439 . S
O181 C175 1.208 . S
O182 Cd183 2.223 . S
O182 C190 1.315 . S
Cd183 O182 2.223 . S
Cd183 O186 2.297 . S
Cd183 O187 2.439 . S
Cd183 O193 2.240 . S
Cd184 O185 2.240 . S
Cd184 O192 2.223 . S
Cd184 O194 2.297 1_655 S
Cd184 O195 2.439 . S
O185 Cd184 2.240 . S
O185 C190 1.279 . S
O186 Cd183 2.297 . S
O186 C188 1.247 . S
O187 Cd183 2.439 . S
O187 C188 1.208 . S
C188 O186 1.247 . S
C188 O187 1.208 . S
C189 O194 1.247 1_655 S
C189 O195 1.208 . S
C190 O182 1.315 . S
C190 O185 1.279 . S
C191 O192 1.315 . S
C191 O193 1.279 . S
O192 Cd184 2.223 . S
O192 C191 1.315 . S
O193 Cd183 2.240 . S
O193 C191 1.279 . S
O194 Cd184 2.297 1_455 S
O194 C189 1.247 1_455 S
O195 Cd184 2.439 . S
O195 C189 1.208 . S
O196 Cd197 2.223 . S
O196 C204 1.315 . S
Cd197 O196 2.223 . S
Cd197 O200 2.297 . S
Cd197 O201 2.439 . S
Cd197 O207 2.240 . S
Cd198 O199 2.240 . S
Cd198 O206 2.223 . S
Cd198 O208 2.297 . S
Cd198 O209 2.439 . S
O199 Cd198 2.240 . S
O199 C204 1.279 . S
O200 Cd197 2.297 . S
O200 C202 1.247 . S
O201 Cd197 2.439 . S
O201 C202 1.208 . S
C202 O200 1.247 . S
C202 O201 1.208 . S
C203 O208 1.247 . S
C203 O209 1.208 . S
C204 O196 1.315 . S
C204 O199 1.279 . S
C205 O206 1.315 . S
C205 O207 1.279 . S
O206 Cd198 2.223 . S
O206 C205 1.315 . S
O207 Cd197 2.240 . S
O207 C205 1.279 . S
O208 Cd198 2.297 . S
O208 C203 1.247 . S
O209 Cd198 2.439 . S
O209 C203 1.208 . S
O210 Cd211 2.223 . S
O210 C218 1.315 . S
Cd211 O210 2.223 . S
Cd211 O214 2.297 . S
Cd211 O215 2.439 . S
Cd211 O221 2.240 . S
Cd212 O213 2.240 . S
Cd212 O220 2.223 . S
Cd212 O222 2.297 1_655 S
Cd212 O223 2.439 . S
O213 Cd212 2.240 . S
O213 C218 1.279 . S
O214 Cd211 2.297 . S
O214 C216 1.247 . S
O215 Cd211 2.439 . S
O215 C216 1.208 . S
C216 O214 1.247 . S
C216 O215 1.208 . S
C217 O222 1.247 1_655 S
C217 O223 1.208 . S
C218 O210 1.315 . S
C218 O213 1.279 . S
C219 O220 1.315 . S
C219 O221 1.279 . S
O220 Cd212 2.223 . S
O220 C219 1.315 . S
O221 Cd211 2.240 . S
O221 C219 1.279 . S
O222 Cd212 2.297 1_455 S
O222 C217 1.247 1_455 S
O223 Cd212 2.439 . S
O223 C217 1.208 . S
O224 Cd225 2.223 . S
O224 C232 1.315 . S
Cd225 O224 2.223 . S
Cd225 O228 2.297 . S
Cd225 O229 2.439 . S
Cd225 O235 2.240 . S
Cd226 O227 2.240 . S
Cd226 O234 2.223 . S
Cd226 O236 2.297 . S
Cd226 O237 2.439 . S
O227 Cd226 2.240 . S
O227 C232 1.279 . S
O228 Cd225 2.297 . S
O228 C230 1.247 . S
O229 Cd225 2.439 . S
O229 C230 1.208 . S
C230 O228 1.247 . S
C230 O229 1.208 . S
C231 O236 1.247 . S
C231 O237 1.208 . S
C232 O224 1.315 . S
C232 O227 1.279 . S
C233 O234 1.315 . S
C233 O235 1.279 . S
O234 Cd226 2.223 . S
O234 C233 1.315 . S
O235 Cd225 2.240 . S
O235 C233 1.279 . S
O236 Cd226 2.297 . S
O236 C231 1.247 . S
O237 Cd226 2.439 . S
O237 C231 1.208 . S
O238 Cd239 2.223 . S
O238 C246 1.315 . S
Cd239 O238 2.223 . S
Cd239 O242 2.297 . S
Cd239 O243 2.439 . S
Cd239 O249 2.240 . S
Cd240 O241 2.240 . S
Cd240 O248 2.223 . S
Cd240 O250 2.297 . S
Cd240 O251 2.439 . S
O241 Cd240 2.240 . S
O241 C246 1.279 . S
O242 Cd239 2.297 . S
O242 C244 1.247 . S
O243 Cd239 2.439 . S
O243 C244 1.208 . S
C244 O242 1.247 . S
C244 O243 1.208 . S
C245 O250 1.247 . S
C245 O251 1.208 . S
C246 O238 1.315 . S
C246 O241 1.279 . S
C247 O248 1.315 . S
C247 O249 1.279 . S
O248 Cd240 2.223 . S
O248 C247 1.315 . S
O249 Cd239 2.240 . S
O249 C247 1.279 . S
O250 Cd240 2.297 . S
O250 C245 1.247 . S
O251 Cd240 2.439 . S
O251 C245 1.208 . S
O252 Cd253 2.223 . S
O252 C260 1.315 . S
Cd253 O252 2.223 . S
Cd253 O256 2.297 . S
Cd253 O257 2.439 . S
Cd253 O263 2.240 . S
Cd254 O255 2.240 . S
Cd254 O262 2.223 . S
Cd254 O264 2.297 . S
Cd254 O265 2.439 . S
O255 Cd254 2.240 . S
O255 C260 1.279 . S
O256 Cd253 2.297 . S
O256 C258 1.247 . S
O257 Cd253 2.439 . S
O257 C258 1.208 . S
C258 O256 1.247 . S
C258 O257 1.208 . S
C259 O264 1.247 . S
C259 O265 1.208 . S
C260 O252 1.315 . S
C260 O255 1.279 . S
C261 O262 1.315 . S
C261 O263 1.279 . S
O262 Cd254 2.223 . S
O262 C261 1.315 . S
O263 Cd253 2.240 . S
O263 C261 1.279 . S
O264 Cd254 2.297 . S
O264 C259 1.247 . S
O265 Cd254 2.439 . S
O265 C259 1.208 . S
O266 Cd267 2.223 . S
O266 C274 1.315 . S
Cd267 O266 2.223 . S
Cd267 O270 2.297 . S
Cd267 O271 2.439 . S
Cd267 O277 2.240 . S
Cd268 O269 2.240 . S
Cd268 O276 2.223 . S
Cd268 O278 2.297 . S
Cd268 O279 2.439 . S
O269 Cd268 2.240 . S
O269 C274 1.279 . S
O270 Cd267 2.297 . S
O270 C272 1.247 . S
O271 Cd267 2.439 . S
O271 C272 1.208 . S
C272 O270 1.247 . S
C272 O271 1.208 . S
C273 O278 1.247 . S
C273 O279 1.208 . S
C274 O266 1.315 . S
C274 O269 1.279 . S
C275 O276 1.315 . S
C275 O277 1.279 . S
O276 Cd268 2.223 . S
O276 C275 1.315 . S
O277 Cd267 2.240 . S
O277 C275 1.279 . S
O278 Cd268 2.297 . S
O278 C273 1.247 . S
O279 Cd268 2.439 . S
O279 C273 1.208 . S
O280 Cd281 2.223 . S
O280 C288 1.315 . S
Cd281 O280 2.223 . S
Cd281 O284 2.297 . S
Cd281 O285 2.439 . S
Cd281 O291 2.240 . S
Cd282 O283 2.240 . S
Cd282 O290 2.223 . S
Cd282 O292 2.297 . S
Cd282 O293 2.439 . S
O283 Cd282 2.240 . S
O283 C288 1.279 . S
O284 Cd281 2.297 . S
O284 C286 1.247 . S
O285 Cd281 2.439 . S
O285 C286 1.208 . S
C286 O284 1.247 . S
C286 O285 1.208 . S
C287 O292 1.247 . S
C287 O293 1.208 . S
C288 O280 1.315 . S
C288 O283 1.279 . S
C289 O290 1.315 . S
C289 O291 1.279 . S
O290 Cd282 2.223 . S
O290 C289 1.315 . S
O291 Cd281 2.240 . S
O291 C289 1.279 . S
O292 Cd282 2.297 . S
O292 C287 1.247 . S
O293 Cd282 2.439 . S
O293 C287 1.208 . S
O294 Cd295 2.223 . S
O294 C302 1.315 . S
Cd295 O294 2.223 . S
Cd295 O298 2.297 . S
Cd295 O299 2.439 . S
Cd295 O305 2.240 . S
Cd296 O297 2.240 . S
Cd296 O304 2.223 . S
Cd296 O306 2.297 . S
Cd296 O307 2.439 . S
O297 Cd296 2.240 . S
O297 C302 1.279 . S
O298 Cd295 2.297 . S
O298 C300 1.247 . S
O299 Cd295 2.439 . S
O299 C300 1.208 . S
C300 O298 1.247 . S
C300 O299 1.208 . S
C301 O306 1.247 . S
C301 O307 1.208 . S
C302 O294 1.315 . S
C302 O297 1.279 . S
C303 O304 1.315 . S
C303 O305 1.279 . S
O304 Cd296 2.223 . S
O304 C303 1.315 . S
O305 Cd295 2.240 . S
O305 C303 1.279 . S
O306 Cd296 2.297 . S
O306 C301 1.247 . S
O307 Cd296 2.439 . S
O307 C301 1.208 . S
O308 Cd309 2.223 . S
O308 C316 1.315 . S
Cd309 O308 2.223 . S
Cd309 O312 2.297 . S
Cd309 O313 2.439 . S
Cd309 O319 2.240 . S
Cd310 O311 2.240 . S
Cd310 O318 2.223 . S
Cd310 O320 2.297 . S
Cd310 O321 2.439 . S
O311 Cd310 2.240 . S
O311 C316 1.279 . S
O312 Cd309 2.297 . S
O312 C314 1.247 . S
O313 Cd309 2.439 . S
O313 C314 1.208 . S
C314 O312 1.247 . S
C314 O313 1.208 . S
C315 O320 1.247 . S
C315 O321 1.208 . S
C316 O308 1.315 . S
C316 O311 1.279 . S
C317 O318 1.315 . S
C317 O319 1.279 . S
O318 Cd310 2.223 . S
O318 C317 1.315 . S
O319 Cd309 2.240 . S
O319 C317 1.279 . S
O320 Cd310 2.297 . S
O320 C315 1.247 . S
O321 Cd310 2.439 . S
O321 C315 1.208 . S
O322 Cd323 2.223 . S
O322 C330 1.315 . S
Cd323 O322 2.223 . S
Cd323 O326 2.297 . S
Cd323 O327 2.439 . S
Cd323 O333 2.240 . S
Cd324 O325 2.240 . S
Cd324 O332 2.223 . S
Cd324 O334 2.297 . S
Cd324 O335 2.439 . S
O325 Cd324 2.240 . S
O325 C330 1.279 . S
O326 Cd323 2.297 . S
O326 C328 1.247 . S
O327 Cd323 2.439 . S
O327 C328 1.208 . S
C328 O326 1.247 . S
C328 O327 1.208 . S
C329 O334 1.247 . S
C329 O335 1.208 . S
C330 O322 1.315 . S
C330 O325 1.279 . S
C331 O332 1.315 . S
C331 O333 1.279 . S
O332 Cd324 2.223 . S
O332 C331 1.315 . S
O333 Cd323 2.240 . S
O333 C331 1.279 . S
O334 Cd324 2.297 . S
O334 C329 1.247 . S
O335 Cd324 2.439 . S
O335 C329 1.208 . S
O336 Cd337 2.223 . S
O336 C344 1.315 . S
Cd337 O336 2.223 . S
Cd337 O340 2.297 . S
Cd337 O341 2.439 . S
Cd337 O347 2.240 . S
Cd338 O339 2.240 . S
Cd338 O346 2.223 . S
Cd338 O348 2.297 . S
Cd338 O349 2.439 . S
O339 Cd338 2.240 . S
O339 C344 1.279 . S
O340 Cd337 2.297 . S
O340 C342 1.247 . S
O341 Cd337 2.439 . S
O341 C342 1.208 . S
C342 O340 1.247 . S
C342 O341 1.208 . S
C343 O348 1.247 . S
C343 O349 1.208 . S
C344 O336 1.315 . S
C344 O339 1.279 . S
C345 O346 1.315 . S
C345 O347 1.279 . S
O346 Cd338 2.223 . S
O346 C345 1.315 . S
O347 Cd337 2.240 . S
O347 C345 1.279 . S
O348 Cd338 2.297 . S
O348 C343 1.247 . S
O349 Cd338 2.439 . S
O349 C343 1.208 . S
O350 Cd351 2.223 . S
O350 C358 1.315 . S
Cd351 O350 2.223 . S
Cd351 O354 2.297 . S
Cd351 O355 2.439 . S
Cd351 O361 2.240 . S
Cd352 O353 2.240 . S
Cd352 O360 2.223 . S
Cd352 O362 2.297 . S
Cd352 O363 2.439 . S
O353 Cd352 2.240 . S
O353 C358 1.279 . S
O354 Cd351 2.297 . S
O354 C356 1.247 . S
O355 Cd351 2.439 . S
O355 C356 1.208 . S
C356 O354 1.247 . S
C356 O355 1.208 . S
C357 O362 1.247 . S
C357 O363 1.208 . S
C358 O350 1.315 . S
C358 O353 1.279 . S
C359 O360 1.315 . S
C359 O361 1.279 . S
O360 Cd352 2.223 . S
O360 C359 1.315 . S
O361 Cd351 2.240 . S
O361 C359 1.279 . S
O362 Cd352 2.297 . S
O362 C357 1.247 . S
O363 Cd352 2.439 . S
O363 C357 1.208 . S
O364 Cd365 2.223 . S
O364 C372 1.315 . S
Cd365 O364 2.223 . S
Cd365 O368 2.297 . S
Cd365 O369 2.439 . S
Cd365 O375 2.240 1_556 S
Cd366 O367 2.240 . S
Cd366 O374 2.223 1_556 S
Cd366 O376 2.297 . S
Cd366 O377 2.439 . S
O367 Cd366 2.240 . S
O367 C372 1.279 . S
O368 Cd365 2.297 . S
O368 C370 1.247 . S
O369 Cd365 2.439 . S
O369 C370 1.208 . S
C370 O368 1.247 . S
C370 O369 1.208 . S
C371 O376 1.247 . S
C371 O377 1.208 . S
C372 O364 1.315 . S
C372 O367 1.279 . S
C373 O374 1.315 . S
C373 O375 1.279 . S
O374 Cd366 2.223 1_554 S
O374 C373 1.315 . S
O375 Cd365 2.240 1_554 S
O375 C373 1.279 . S
O376 Cd366 2.297 . S
O376 C371 1.247 . S
O377 Cd366 2.439 . S
O377 C371 1.208 . S
O378 Cd379 2.223 . S
O378 C386 1.315 . S
Cd379 O378 2.223 . S
Cd379 O382 2.297 . S
Cd379 O383 2.439 . S
Cd379 O389 2.240 1_556 S
Cd380 O381 2.240 . S
Cd380 O388 2.223 1_556 S
Cd380 O390 2.297 . S
Cd380 O391 2.439 . S
O381 Cd380 2.240 . S
O381 C386 1.279 . S
O382 Cd379 2.297 . S
O382 C384 1.247 . S
O383 Cd379 2.439 . S
O383 C384 1.208 . S
C384 O382 1.247 . S
C384 O383 1.208 . S
C385 O390 1.247 . S
C385 O391 1.208 . S
C386 O378 1.315 . S
C386 O381 1.279 . S
C387 O388 1.315 . S
C387 O389 1.279 . S
O388 Cd380 2.223 1_554 S
O388 C387 1.315 . S
O389 Cd379 2.240 1_554 S
O389 C387 1.279 . S
O390 Cd380 2.297 . S
O390 C385 1.247 . S
O391 Cd380 2.439 . S
O391 C385 1.208 . S
O392 Cd393 2.223 . S
O392 C400 1.315 . S
Cd393 O392 2.223 . S
Cd393 O396 2.297 . S
Cd393 O397 2.439 . S
Cd393 O403 2.240 . S
Cd394 O395 2.240 . S
Cd394 O402 2.223 . S
Cd394 O404 2.297 . S
Cd394 O405 2.439 . S
O395 Cd394 2.240 . S
O395 C400 1.279 . S
O396 Cd393 2.297 . S
O396 C398 1.247 . S
O397 Cd393 2.439 . S
O397 C398 1.208 . S
C398 O396 1.247 . S
C398 O397 1.208 . S
C399 O404 1.247 . S
C399 O405 1.208 . S
C400 O392 1.315 . S
C400 O395 1.279 . S
C401 O402 1.315 . S
C401 O403 1.279 . S
O402 Cd394 2.223 . S
O402 C401 1.315 . S
O403 Cd393 2.240 . S
O403 C401 1.279 . S
O404 Cd394 2.297 . S
O404 C399 1.247 . S
O405 Cd394 2.439 . S
O405 C399 1.208 . S
O406 Cd407 2.223 . S
O406 C414 1.315 . S
Cd407 O406 2.223 . S
Cd407 O410 2.297 . S
Cd407 O411 2.439 . S
Cd407 O417 2.240 . S
Cd408 O409 2.240 . S
Cd408 O416 2.223 . S
Cd408 O418 2.297 . S
Cd408 O419 2.439 . S
O409 Cd408 2.240 . S
O409 C414 1.279 . S
O410 Cd407 2.297 . S
O410 C412 1.247 . S
O411 Cd407 2.439 . S
O411 C412 1.208 . S
C412 O410 1.247 . S
C412 O411 1.208 . S
C413 O418 1.247 . S
C413 O419 1.208 . S
C414 O406 1.315 . S
C414 O409 1.279 . S
C415 O416 1.315 . S
C415 O417 1.279 . S
O416 Cd408 2.223 . S
O416 C415 1.315 . S
O417 Cd407 2.240 . S
O417 C415 1.279 . S
O418 Cd408 2.297 . S
O418 C413 1.247 . S
O419 Cd408 2.439 . S
O419 C413 1.208 . S
O420 Cd421 2.223 1_556 S
O420 C428 1.315 . S
Cd421 O420 2.223 1_554 S
Cd421 O424 2.297 . S
Cd421 O425 2.439 . S
Cd421 O431 2.240 . S
Cd422 O423 2.240 1_554 S
Cd422 O430 2.223 . S
Cd422 O432 2.297 . S
Cd422 O433 2.439 . S
O423 Cd422 2.240 1_556 S
O423 C428 1.279 . S
O424 Cd421 2.297 . S
O424 C426 1.247 . S
O425 Cd421 2.439 . S
O425 C426 1.208 . S
C426 O424 1.247 . S
C426 O425 1.208 . S
C427 O432 1.247 . S
C427 O433 1.208 . S
C428 O420 1.315 . S
C428 O423 1.279 . S
C429 O430 1.315 . S
C429 O431 1.279 . S
O430 Cd422 2.223 . S
O430 C429 1.315 . S
O431 Cd421 2.240 . S
O431 C429 1.279 . S
O432 Cd422 2.297 . S
O432 C427 1.247 . S
O433 Cd422 2.439 . S
O433 C427 1.208 . S
O434 Cd435 2.223 1_556 S
O434 C442 1.315 . S
Cd435 O434 2.223 1_554 S
Cd435 O438 2.297 . S
Cd435 O439 2.439 . S
Cd435 O445 2.240 . S
Cd436 O437 2.240 1_554 S
Cd436 O444 2.223 . S
Cd436 O446 2.297 . S
Cd436 O447 2.439 . S
O437 Cd436 2.240 1_556 S
O437 C442 1.279 . S
O438 Cd435 2.297 . S
O438 C440 1.247 . S
O439 Cd435 2.439 . S
O439 C440 1.208 . S
C440 O438 1.247 . S
C440 O439 1.208 . S
C441 O446 1.247 . S
C441 O447 1.208 . S
C442 O434 1.315 . S
C442 O437 1.279 . S
C443 O444 1.315 . S
C443 O445 1.279 . S
O444 Cd436 2.223 . S
O444 C443 1.315 . S
O445 Cd435 2.240 . S
O445 C443 1.279 . S
O446 Cd436 2.297 . S
O446 C441 1.247 . S
O447 Cd436 2.439 . S
O447 C441 1.208 . S
H448 C454 0.930 . S
H449 C457 0.930 . S
H450 C458 0.930 . S
H451 C459 0.930 . S
H452 C462 0.930 . S
H453 C463 0.930 . S
C454 H448 0.930 . S
C454 C455 1.355 . S
C454 C456 1.415 . S
C455 C454 1.355 . S
C455 C457 1.419 . S
C456 C454 1.415 . S
C456 C461 1.425 . S
C456 C463 1.409 . S
C457 H449 0.930 . S
C457 C455 1.419 . S
C457 C458 1.362 . S
C458 H450 0.930 . S
C458 C457 1.362 . S
C458 C461 1.409 . S
C459 H451 0.930 . S
C459 C460 1.355 . S
C459 C461 1.415 . S
C460 C459 1.355 . S
C460 C462 1.419 . S
C461 C456 1.425 . S
C461 C458 1.409 . S
C461 C459 1.415 . S
C462 H452 0.930 . S
C462 C460 1.419 . S
C462 C463 1.362 . S
C463 H453 0.930 . S
C463 C456 1.409 . S
C463 C462 1.362 . S
H464 C470 0.930 . S
H465 C473 0.930 . S
H466 C474 0.930 . S
H467 C475 0.930 . S
H468 C478 0.930 . S
H469 C479 0.930 . S
C470 H464 0.930 . S
C470 C471 1.355 . S
C470 C472 1.415 . S
C471 C470 1.355 . S
C471 C473 1.419 . S
C472 C470 1.415 . S
C472 C477 1.425 . S
C472 C479 1.409 . S
C473 H465 0.930 . S
C473 C471 1.419 . S
C473 C474 1.362 . S
C474 H466 0.930 . S
C474 C473 1.362 . S
C474 C477 1.409 . S
C475 H467 0.930 . S
C475 C476 1.355 . S
C475 C477 1.415 . S
C476 C475 1.355 . S
C476 C478 1.419 . S
C477 C472 1.425 . S
C477 C474 1.409 . S
C477 C475 1.415 . S
C478 H468 0.930 . S
C478 C476 1.419 . S
C478 C479 1.362 . S
C479 H469 0.930 . S
C479 C472 1.409 . S
C479 C478 1.362 . S
H480 C486 0.930 . S
H481 C489 0.930 . S
H482 C490 0.930 . S
H483 C491 0.930 . S
H484 C494 0.930 . S
H485 C495 0.930 . S
C486 H480 0.930 . S
C486 C487 1.355 . S
C486 C488 1.415 . S
C487 C486 1.355 . S
C487 C489 1.419 . S
C488 C486 1.415 . S
C488 C493 1.425 . S
C488 C495 1.409 . S
C489 H481 0.930 . S
C489 C487 1.419 . S
C489 C490 1.362 . S
C490 H482 0.930 . S
C490 C489 1.362 . S
C490 C493 1.409 . S
C491 H483 0.930 . S
C491 C492 1.355 . S
C491 C493 1.415 . S
C492 C491 1.355 . S
C492 C494 1.419 . S
C493 C488 1.425 . S
C493 C490 1.409 . S
C493 C491 1.415 . S
C494 H484 0.930 . S
C494 C492 1.419 . S
C494 C495 1.362 . S
C495 H485 0.930 . S
C495 C488 1.409 . S
C495 C494 1.362 . S
H496 C502 0.930 . S
H497 C505 0.930 . S
H498 C506 0.930 . S
H499 C507 0.930 . S
H500 C510 0.930 . S
H501 C511 0.930 . S
C502 H496 0.930 . S
C502 C503 1.355 . S
C502 C504 1.415 . S
C503 C502 1.355 . S
C503 C505 1.419 . S
C504 C502 1.415 . S
C504 C509 1.425 . S
C504 C511 1.409 . S
C505 H497 0.930 . S
C505 C503 1.419 . S
C505 C506 1.362 . S
C506 H498 0.930 . S
C506 C505 1.362 . S
C506 C509 1.409 . S
C507 H499 0.930 . S
C507 C508 1.355 . S
C507 C509 1.415 . S
C508 C507 1.355 . S
C508 C510 1.419 . S
C509 C504 1.425 . S
C509 C506 1.409 . S
C509 C507 1.415 . S
C510 H500 0.930 . S
C510 C508 1.419 . S
C510 C511 1.362 . S
C511 H501 0.930 . S
C511 C504 1.409 . S
C511 C510 1.362 . S
H512 C518 0.930 . S
H513 C521 0.930 . S
H514 C522 0.930 . S
H515 C523 0.930 . S
H516 C526 0.930 . S
H517 C527 0.930 . S
C518 H512 0.930 . S
C518 C519 1.355 . S
C518 C520 1.415 . S
C519 C518 1.355 . S
C519 C521 1.419 . S
C520 C518 1.415 . S
C520 C525 1.425 . S
C520 C527 1.409 . S
C521 H513 0.930 . S
C521 C519 1.419 . S
C521 C522 1.362 . S
C522 H514 0.930 . S
C522 C521 1.362 . S
C522 C525 1.409 . S
C523 H515 0.930 . S
C523 C524 1.355 . S
C523 C525 1.415 . S
C524 C523 1.355 . S
C524 C526 1.419 . S
C525 C520 1.425 . S
C525 C522 1.409 . S
C525 C523 1.415 . S
C526 H516 0.930 . S
C526 C524 1.419 . S
C526 C527 1.362 . S
C527 H517 0.930 . S
C527 C520 1.409 . S
C527 C526 1.362 . S
H528 C534 0.930 . S
H529 C537 0.930 . S
H530 C538 0.930 . S
H531 C539 0.930 . S
H532 C542 0.930 . S
H533 C543 0.930 . S
C534 H528 0.930 . S
C534 C535 1.355 . S
C534 C536 1.415 . S
C535 C534 1.355 . S
C535 C537 1.419 . S
C536 C534 1.415 . S
C536 C541 1.425 . S
C536 C543 1.409 . S
C537 H529 0.930 . S
C537 C535 1.419 . S
C537 C538 1.362 . S
C538 H530 0.930 . S
C538 C537 1.362 . S
C538 C541 1.409 . S
C539 H531 0.930 . S
C539 C540 1.355 . S
C539 C541 1.415 . S
C540 C539 1.355 . S
C540 C542 1.419 . S
C541 C536 1.425 . S
C541 C538 1.409 . S
C541 C539 1.415 . S
C542 H532 0.930 . S
C542 C540 1.419 . S
C542 C543 1.362 . S
C543 H533 0.930 . S
C543 C536 1.409 . S
C543 C542 1.362 . S
H544 C550 0.930 . S
H545 C553 0.930 . S
H546 C554 0.930 . S
H547 C555 0.930 . S
H548 C558 0.930 . S
H549 C559 0.930 . S
C550 H544 0.930 . S
C550 C551 1.355 . S
C550 C552 1.415 . S
C551 C550 1.355 . S
C551 C553 1.419 . S
C552 C550 1.415 . S
C552 C557 1.425 . S
C552 C559 1.409 . S
C553 H545 0.930 . S
C553 C551 1.419 . S
C553 C554 1.362 . S
C554 H546 0.930 . S
C554 C553 1.362 . S
C554 C557 1.409 . S
C555 H547 0.930 . S
C555 C556 1.355 . S
C555 C557 1.415 . S
C556 C555 1.355 . S
C556 C558 1.419 . S
C557 C552 1.425 . S
C557 C554 1.409 . S
C557 C555 1.415 . S
C558 H548 0.930 . S
C558 C556 1.419 . S
C558 C559 1.362 . S
C559 H549 0.930 . S
C559 C552 1.409 . S
C559 C558 1.362 . S
H560 C566 0.930 . S
H561 C569 0.930 . S
H562 C570 0.930 . S
H563 C571 0.930 . S
H564 C574 0.930 . S
H565 C575 0.930 . S
C566 H560 0.930 . S
C566 C567 1.355 . S
C566 C568 1.415 . S
C567 C566 1.355 . S
C567 C569 1.419 . S
C568 C566 1.415 . S
C568 C573 1.425 . S
C568 C575 1.409 . S
C569 H561 0.930 . S
C569 C567 1.419 . S
C569 C570 1.362 . S
C570 H562 0.930 . S
C570 C569 1.362 . S
C570 C573 1.409 . S
C571 H563 0.930 . S
C571 C572 1.355 . S
C571 C573 1.415 . S
C572 C571 1.355 . S
C572 C574 1.419 . S
C573 C568 1.425 . S
C573 C570 1.409 . S
C573 C571 1.415 . S
C574 H564 0.930 . S
C574 C572 1.419 . S
C574 C575 1.362 . S
C575 H565 0.930 . S
C575 C568 1.409 . S
C575 C574 1.362 . S
H576 C582 0.930 . S
H577 C585 0.930 . S
H578 C586 0.930 . S
H579 C587 0.930 . S
H580 C590 0.930 . S
H581 C591 0.930 . S
C582 H576 0.930 . S
C582 C583 1.355 . S
C582 C584 1.415 . S
C583 C582 1.355 . S
C583 C585 1.419 . S
C584 C582 1.415 . S
C584 C589 1.425 . S
C584 C591 1.409 . S
C585 H577 0.930 . S
C585 C583 1.419 . S
C585 C586 1.362 . S
C586 H578 0.930 . S
C586 C585 1.362 . S
C586 C589 1.409 . S
C587 H579 0.930 . S
C587 C588 1.355 . S
C587 C589 1.415 . S
C588 C587 1.355 . S
C588 C590 1.419 . S
C589 C584 1.425 . S
C589 C586 1.409 . S
C589 C587 1.415 . S
C590 H580 0.930 . S
C590 C588 1.419 . S
C590 C591 1.362 . S
C591 H581 0.930 . S
C591 C584 1.409 . S
C591 C590 1.362 . S
H592 C598 0.930 . S
H593 C601 0.930 . S
H594 C602 0.930 . S
H595 C603 0.930 . S
H596 C606 0.930 . S
H597 C607 0.930 . S
C598 H592 0.930 . S
C598 C599 1.355 . S
C598 C600 1.415 . S
C599 C598 1.355 . S
C599 C601 1.419 . S
C600 C598 1.415 . S
C600 C605 1.425 . S
C600 C607 1.409 . S
C601 H593 0.930 . S
C601 C599 1.419 . S
C601 C602 1.362 . S
C602 H594 0.930 . S
C602 C601 1.362 . S
C602 C605 1.409 . S
C603 H595 0.930 . S
C603 C604 1.355 . S
C603 C605 1.415 . S
C604 C603 1.355 . S
C604 C606 1.419 . S
C605 C600 1.425 . S
C605 C602 1.409 . S
C605 C603 1.415 . S
C606 H596 0.930 . S
C606 C604 1.419 . S
C606 C607 1.362 . S
C607 H597 0.930 . S
C607 C600 1.409 . S
C607 C606 1.362 . S
H608 C614 0.930 . S
H609 C617 0.930 . S
H610 C618 0.930 . S
H611 C619 0.930 . S
H612 C622 0.930 . S
H613 C623 0.930 . S
C614 H608 0.930 . S
C614 C615 1.355 . S
C614 C616 1.415 . S
C615 C614 1.355 . S
C615 C617 1.419 . S
C616 C614 1.415 . S
C616 C621 1.425 . S
C616 C623 1.409 . S
C617 H609 0.930 . S
C617 C615 1.419 . S
C617 C618 1.362 . S
C618 H610 0.930 . S
C618 C617 1.362 . S
C618 C621 1.409 . S
C619 H611 0.930 . S
C619 C620 1.355 . S
C619 C621 1.415 . S
C620 C619 1.355 . S
C620 C622 1.419 . S
C621 C616 1.425 . S
C621 C618 1.409 . S
C621 C619 1.415 . S
C622 H612 0.930 . S
C622 C620 1.419 . S
C622 C623 1.362 . S
C623 H613 0.930 . S
C623 C616 1.409 . S
C623 C622 1.362 . S
H624 C630 0.930 . S
H625 C633 0.930 . S
H626 C634 0.930 . S
H627 C635 0.930 . S
H628 C638 0.930 . S
H629 C639 0.930 . S
C630 H624 0.930 . S
C630 C631 1.355 . S
C630 C632 1.415 . S
C631 C630 1.355 . S
C631 C633 1.419 . S
C632 C630 1.415 . S
C632 C637 1.425 . S
C632 C639 1.409 . S
C633 H625 0.930 . S
C633 C631 1.419 . S
C633 C634 1.362 . S
C634 H626 0.930 . S
C634 C633 1.362 . S
C634 C637 1.409 . S
C635 H627 0.930 . S
C635 C636 1.355 . S
C635 C637 1.415 . S
C636 C635 1.355 . S
C636 C638 1.419 . S
C637 C632 1.425 . S
C637 C634 1.409 . S
C637 C635 1.415 . S
C638 H628 0.930 . S
C638 C636 1.419 . S
C638 C639 1.362 . S
C639 H629 0.930 . S
C639 C632 1.409 . S
C639 C638 1.362 . S
H640 C646 0.930 . S
H641 C649 0.930 . S
H642 C650 0.930 . S
H643 C651 0.930 . S
H644 C654 0.930 . S
H645 C655 0.930 . S
C646 H640 0.930 . S
C646 C647 1.355 . S
C646 C648 1.415 . S
C647 C646 1.355 . S
C647 C649 1.419 . S
C648 C646 1.415 . S
C648 C653 1.425 . S
C648 C655 1.409 . S
C649 H641 0.930 . S
C649 C647 1.419 . S
C649 C650 1.362 . S
C650 H642 0.930 . S
C650 C649 1.362 . S
C650 C653 1.409 . S
C651 H643 0.930 . S
C651 C652 1.355 . S
C651 C653 1.415 . S
C652 C651 1.355 . S
C652 C654 1.419 . S
C653 C648 1.425 . S
C653 C650 1.409 . S
C653 C651 1.415 . S
C654 H644 0.930 . S
C654 C652 1.419 . S
C654 C655 1.362 . S
C655 H645 0.930 . S
C655 C648 1.409 . S
C655 C654 1.362 . S
H656 C662 0.930 . S
H657 C665 0.930 . S
H658 C666 0.930 . S
H659 C667 0.930 . S
H660 C670 0.930 . S
H661 C671 0.930 . S
C662 H656 0.930 . S
C662 C663 1.355 . S
C662 C664 1.415 . S
C663 C662 1.355 . S
C663 C665 1.419 . S
C664 C662 1.415 . S
C664 C669 1.425 . S
C664 C671 1.409 . S
C665 H657 0.930 . S
C665 C663 1.419 . S
C665 C666 1.362 . S
C666 H658 0.930 . S
C666 C665 1.362 . S
C666 C669 1.409 . S
C667 H659 0.930 . S
C667 C668 1.355 . S
C667 C669 1.415 . S
C668 C667 1.355 . S
C668 C670 1.419 . S
C669 C664 1.425 . S
C669 C666 1.409 . S
C669 C667 1.415 . S
C670 H660 0.930 . S
C670 C668 1.419 . S
C670 C671 1.362 . S
C671 H661 0.930 . S
C671 C664 1.409 . S
C671 C670 1.362 . S
H672 C678 0.930 . S
H673 C681 0.930 . S
H674 C682 0.930 . S
H675 C683 0.930 . S
H676 C686 0.930 . S
H677 C687 0.930 . S
C678 H672 0.930 . S
C678 C679 1.355 . S
C678 C680 1.415 . S
C679 C678 1.355 . S
C679 C681 1.419 . S
C680 C678 1.415 . S
C680 C685 1.425 . S
C680 C687 1.409 . S
C681 H673 0.930 . S
C681 C679 1.419 . S
C681 C682 1.362 . S
C682 H674 0.930 . S
C682 C681 1.362 . S
C682 C685 1.409 . S
C683 H675 0.930 . S
C683 C684 1.355 . S
C683 C685 1.415 . S
C684 C683 1.355 . S
C684 C686 1.419 . S
C685 C680 1.425 . S
C685 C682 1.409 . S
C685 C683 1.415 . S
C686 H676 0.930 . S
C686 C684 1.419 . S
C686 C687 1.362 . S
C687 H677 0.930 . S
C687 C680 1.409 . S
C687 C686 1.362 . S
H688 C694 0.930 . S
H689 C697 0.930 . S
H690 C698 0.930 . S
H691 C699 0.930 . S
H692 C702 0.930 . S
H693 C703 0.930 . S
C694 H688 0.930 . S
C694 C695 1.355 . S
C694 C696 1.415 . S
C695 C694 1.355 . S
C695 C697 1.419 . S
C696 C694 1.415 . S
C696 C701 1.425 . S
C696 C703 1.409 . S
C697 H689 0.930 . S
C697 C695 1.419 . S
C697 C698 1.362 . S
C698 H690 0.930 . S
C698 C697 1.362 . S
C698 C701 1.409 . S
C699 H691 0.930 . S
C699 C700 1.355 . S
C699 C701 1.415 . S
C700 C699 1.355 . S
C700 C702 1.419 . S
C701 C696 1.425 . S
C701 C698 1.409 . S
C701 C699 1.415 . S
C702 H692 0.930 . S
C702 C700 1.419 . S
C702 C703 1.362 . S
C703 H693 0.930 . S
C703 C696 1.409 . S
C703 C702 1.362 . S
H704 C710 0.930 . S
H705 C713 0.930 . S
H706 C714 0.930 . S
H707 C715 0.930 . S
H708 C718 0.930 . S
H709 C719 0.930 . S
C710 H704 0.930 . S
C710 C711 1.355 . S
C710 C712 1.415 . S
C711 C710 1.355 . S
C711 C713 1.419 . S
C712 C710 1.415 . S
C712 C717 1.425 . S
C712 C719 1.409 . S
C713 H705 0.930 . S
C713 C711 1.419 . S
C713 C714 1.362 . S
C714 H706 0.930 . S
C714 C713 1.362 . S
C714 C717 1.409 . S
C715 H707 0.930 . S
C715 C716 1.355 . S
C715 C717 1.415 . S
C716 C715 1.355 . S
C716 C718 1.419 . S
C717 C712 1.425 . S
C717 C714 1.409 . S
C717 C715 1.415 . S
C718 H708 0.930 . S
C718 C716 1.419 . S
C718 C719 1.362 . S
C719 H709 0.930 . S
C719 C712 1.409 . S
C719 C718 1.362 . S
H720 C726 0.930 . S
H721 C729 0.930 . S
H722 C730 0.930 . S
H723 C731 0.930 . S
H724 C734 0.930 . S
H725 C735 0.930 . S
C726 H720 0.930 . S
C726 C727 1.355 . S
C726 C728 1.415 . S
C727 C726 1.355 . S
C727 C729 1.419 . S
C728 C726 1.415 . S
C728 C733 1.425 . S
C728 C735 1.409 . S
C729 H721 0.930 . S
C729 C727 1.419 . S
C729 C730 1.362 . S
C730 H722 0.930 . S
C730 C729 1.362 . S
C730 C733 1.409 . S
C731 H723 0.930 . S
C731 C732 1.355 . S
C731 C733 1.415 . S
C732 C731 1.355 . S
C732 C734 1.419 . S
C733 C728 1.425 . S
C733 C730 1.409 . S
C733 C731 1.415 . S
C734 H724 0.930 . S
C734 C732 1.419 . S
C734 C735 1.362 . S
C735 H725 0.930 . S
C735 C728 1.409 . S
C735 C734 1.362 . S
H736 C742 0.930 . S
H737 C745 0.930 . S
H738 C746 0.930 . S
H739 C747 0.930 . S
H740 C750 0.930 . S
H741 C751 0.930 . S
C742 H736 0.930 . S
C742 C743 1.355 . S
C742 C744 1.415 . S
C743 C742 1.355 . S
C743 C745 1.419 . S
C744 C742 1.415 . S
C744 C749 1.425 . S
C744 C751 1.409 . S
C745 H737 0.930 . S
C745 C743 1.419 . S
C745 C746 1.362 . S
C746 H738 0.930 . S
C746 C745 1.362 . S
C746 C749 1.409 . S
C747 H739 0.930 . S
C747 C748 1.355 . S
C747 C749 1.415 . S
C748 C747 1.355 . S
C748 C750 1.419 . S
C749 C744 1.425 . S
C749 C746 1.409 . S
C749 C747 1.415 . S
C750 H740 0.930 . S
C750 C748 1.419 . S
C750 C751 1.362 . S
C751 H741 0.930 . S
C751 C744 1.409 . S
C751 C750 1.362 . S
H752 C758 0.930 . S
H753 C761 0.930 . S
H754 C762 0.930 . S
H755 C763 0.930 . S
H756 C766 0.930 . S
H757 C767 0.930 . S
C758 H752 0.930 . S
C758 C759 1.355 . S
C758 C760 1.415 . S
C759 C758 1.355 . S
C759 C761 1.419 . S
C760 C758 1.415 . S
C760 C765 1.425 . S
C760 C767 1.409 . S
C761 H753 0.930 . S
C761 C759 1.419 . S
C761 C762 1.362 . S
C762 H754 0.930 . S
C762 C761 1.362 . S
C762 C765 1.409 . S
C763 H755 0.930 . S
C763 C764 1.355 . S
C763 C765 1.415 . S
C764 C763 1.355 . S
C764 C766 1.419 . S
C765 C760 1.425 . S
C765 C762 1.409 . S
C765 C763 1.415 . S
C766 H756 0.930 . S
C766 C764 1.419 . S
C766 C767 1.362 . S
C767 H757 0.930 . S
C767 C760 1.409 . S
C767 C766 1.362 . S
H768 C774 0.930 . S
H769 C777 0.930 . S
H770 C778 0.930 . S
H771 C779 0.930 . S
H772 C782 0.930 . S
H773 C783 0.930 . S
C774 H768 0.930 . S
C774 C775 1.355 . S
C774 C776 1.415 . S
C775 C774 1.355 . S
C775 C777 1.419 . S
C776 C774 1.415 . S
C776 C781 1.425 . S
C776 C783 1.409 . S
C777 H769 0.930 . S
C777 C775 1.419 . S
C777 C778 1.362 . S
C778 H770 0.930 . S
C778 C777 1.362 . S
C778 C781 1.409 . S
C779 H771 0.930 . S
C779 C780 1.355 . S
C779 C781 1.415 . S
C780 C779 1.355 . S
C780 C782 1.419 . S
C781 C776 1.425 . S
C781 C778 1.409 . S
C781 C779 1.415 . S
C782 H772 0.930 . S
C782 C780 1.419 . S
C782 C783 1.362 . S
C783 H773 0.930 . S
C783 C776 1.409 . S
C783 C782 1.362 . S
H784 C790 0.930 . S
H785 C793 0.930 . S
H786 C794 0.930 . S
H787 C795 0.930 . S
H788 C798 0.930 . S
H789 C799 0.930 . S
C790 H784 0.930 . S
C790 C791 1.355 . S
C790 C792 1.415 . S
C791 C790 1.355 . S
C791 C793 1.419 . S
C792 C790 1.415 . S
C792 C797 1.425 . S
C792 C799 1.409 . S
C793 H785 0.930 . S
C793 C791 1.419 . S
C793 C794 1.362 . S
C794 H786 0.930 . S
C794 C793 1.362 . S
C794 C797 1.409 . S
C795 H787 0.930 . S
C795 C796 1.355 . S
C795 C797 1.415 . S
C796 C795 1.355 . S
C796 C798 1.419 . S
C797 C792 1.425 . S
C797 C794 1.409 . S
C797 C795 1.415 . S
C798 H788 0.930 . S
C798 C796 1.419 . S
C798 C799 1.362 . S
C799 H789 0.930 . S
C799 C792 1.409 . S
C799 C798 1.362 . S
H800 C806 0.930 . S
H801 C809 0.930 . S
H802 C810 0.930 . S
H803 C811 0.930 . S
H804 C814 0.930 . S
H805 C815 0.930 . S
C806 H800 0.930 . S
C806 C807 1.355 . S
C806 C808 1.415 . S
C807 C806 1.355 . S
C807 C809 1.419 . S
C808 C806 1.415 . S
C808 C813 1.425 . S
C808 C815 1.409 . S
C809 H801 0.930 . S
C809 C807 1.419 . S
C809 C810 1.362 . S
C810 H802 0.930 . S
C810 C809 1.362 . S
C810 C813 1.409 . S
C811 H803 0.930 . S
C811 C812 1.355 . S
C811 C813 1.415 . S
C812 C811 1.355 . S
C812 C814 1.419 . S
C813 C808 1.425 . S
C813 C810 1.409 . S
C813 C811 1.415 . S
C814 H804 0.930 . S
C814 C812 1.419 . S
C814 C815 1.362 . S
C815 H805 0.930 . S
C815 C808 1.409 . S
C815 C814 1.362 . S
H816 C822 0.930 . S
H817 C825 0.930 . S
H818 C826 0.930 . S
H819 C827 0.930 . S
H820 C830 0.930 . S
H821 C831 0.930 . S
C822 H816 0.930 . S
C822 C823 1.355 . S
C822 C824 1.415 . S
C823 C822 1.355 . S
C823 C825 1.419 . S
C824 C822 1.415 . S
C824 C829 1.425 . S
C824 C831 1.409 . S
C825 H817 0.930 . S
C825 C823 1.419 . S
C825 C826 1.362 . S
C826 H818 0.930 . S
C826 C825 1.362 . S
C826 C829 1.409 . S
C827 H819 0.930 . S
C827 C828 1.355 . S
C827 C829 1.415 . S
C828 C827 1.355 . S
C828 C830 1.419 . S
C829 C824 1.425 . S
C829 C826 1.409 . S
C829 C827 1.415 . S
C830 H820 0.930 . S
C830 C828 1.419 . S
C830 C831 1.362 . S
C831 H821 0.930 . S
C831 C824 1.409 . S
C831 C830 1.362 . S
H832 C838 0.930 . S
H833 C841 0.930 . S
H834 C842 0.930 . S
H835 C843 0.930 . S
H836 C846 0.930 . S
H837 C847 0.930 . S
C838 H832 0.930 . S
C838 C839 1.355 . S
C838 C840 1.415 . S
C839 C838 1.355 . S
C839 C841 1.419 . S
C840 C838 1.415 . S
C840 C845 1.425 . S
C840 C847 1.409 . S
C841 H833 0.930 . S
C841 C839 1.419 . S
C841 C842 1.362 . S
C842 H834 0.930 . S
C842 C841 1.362 . S
C842 C845 1.409 . S
C843 H835 0.930 . S
C843 C844 1.355 . S
C843 C845 1.415 . S
C844 C843 1.355 . S
C844 C846 1.419 . S
C845 C840 1.425 . S
C845 C842 1.409 . S
C845 C843 1.415 . S
C846 H836 0.930 . S
C846 C844 1.419 . S
C846 C847 1.362 . S
C847 H837 0.930 . S
C847 C840 1.409 . S
C847 C846 1.362 . S
H848 C854 0.930 . S
H849 C857 0.930 . S
H850 C858 0.930 . S
H851 C859 0.930 . S
H852 C862 0.930 . S
H853 C863 0.930 . S
C854 H848 0.930 . S
C854 C855 1.355 . S
C854 C856 1.415 . S
C855 C854 1.355 . S
C855 C857 1.419 . S
C856 C854 1.415 . S
C856 C861 1.425 . S
C856 C863 1.409 . S
C857 H849 0.930 . S
C857 C855 1.419 . S
C857 C858 1.362 . S
C858 H850 0.930 . S
C858 C857 1.362 . S
C858 C861 1.409 . S
C859 H851 0.930 . S
C859 C860 1.355 . S
C859 C861 1.415 . S
C860 C859 1.355 . S
C860 C862 1.419 . S
C861 C856 1.425 . S
C861 C858 1.409 . S
C861 C859 1.415 . S
C862 H852 0.930 . S
C862 C860 1.419 . S
C862 C863 1.362 . S
C863 H853 0.930 . S
C863 C856 1.409 . S
C863 C862 1.362 . S
H864 C870 0.930 . S
H865 C873 0.930 . S
H866 C874 0.930 . S
H867 C875 0.930 . S
H868 C878 0.930 . S
H869 C879 0.930 . S
C870 H864 0.930 . S
C870 C871 1.355 . S
C870 C872 1.415 . S
C871 C870 1.355 . S
C871 C873 1.419 . S
C872 C870 1.415 . S
C872 C877 1.425 . S
C872 C879 1.409 . S
C873 H865 0.930 . S
C873 C871 1.419 . S
C873 C874 1.362 . S
C874 H866 0.930 . S
C874 C873 1.362 . S
C874 C877 1.409 . S
C875 H867 0.930 . S
C875 C876 1.355 . S
C875 C877 1.415 . S
C876 C875 1.355 . S
C876 C878 1.419 . S
C877 C872 1.425 . S
C877 C874 1.409 . S
C877 C875 1.415 . S
C878 H868 0.930 . S
C878 C876 1.419 . S
C878 C879 1.362 . S
C879 H869 0.930 . S
C879 C872 1.409 . S
C879 C878 1.362 . S
H880 C886 0.930 . S
H881 C889 0.930 . S
H882 C890 0.930 . S
H883 C891 0.930 . S
H884 C894 0.930 . S
H885 C895 0.930 . S
C886 H880 0.930 . S
C886 C887 1.355 . S
C886 C888 1.415 . S
C887 C886 1.355 . S
C887 C889 1.419 . S
C888 C886 1.415 . S
C888 C893 1.425 . S
C888 C895 1.409 . S
C889 H881 0.930 . S
C889 C887 1.419 . S
C889 C890 1.362 . S
C890 H882 0.930 . S
C890 C889 1.362 . S
C890 C893 1.409 . S
C891 H883 0.930 . S
C891 C892 1.355 . S
C891 C893 1.415 . S
C892 C891 1.355 . S
C892 C894 1.419 . S
C893 C888 1.425 . S
C893 C890 1.409 . S
C893 C891 1.415 . S
C894 H884 0.930 . S
C894 C892 1.419 . S
C894 C895 1.362 . S
C895 H885 0.930 . S
C895 C888 1.409 . S
C895 C894 1.362 . S
H896 C902 0.930 . S
H897 C905 0.930 . S
H898 C906 0.930 . S
H899 C907 0.930 . S
H900 C910 0.930 . S
H901 C911 0.930 . S
C902 H896 0.930 . S
C902 C903 1.355 . S
C902 C904 1.415 . S
C903 C902 1.355 . S
C903 C905 1.419 . S
C904 C902 1.415 . S
C904 C909 1.425 . S
C904 C911 1.409 . S
C905 H897 0.930 . S
C905 C903 1.419 . S
C905 C906 1.362 . S
C906 H898 0.930 . S
C906 C905 1.362 . S
C906 C909 1.409 . S
C907 H899 0.930 . S
C907 C908 1.355 . S
C907 C909 1.415 . S
C908 C907 1.355 . S
C908 C910 1.419 . S
C909 C904 1.425 . S
C909 C906 1.409 . S
C909 C907 1.415 . S
C910 H900 0.930 . S
C910 C908 1.419 . S
C910 C911 1.362 . S
C911 H901 0.930 . S
C911 C904 1.409 . S
C911 C910 1.362 . S
H912 C918 0.930 . S
H913 C921 0.930 . S
H914 C922 0.930 . S
H915 C923 0.930 . S
H916 C926 0.930 . S
H917 C927 0.930 . S
C918 H912 0.930 . S
C918 C919 1.355 . S
C918 C920 1.415 . S
C919 C918 1.355 . S
C919 C921 1.419 . S
C920 C918 1.415 . S
C920 C925 1.425 . S
C920 C927 1.409 . S
C921 H913 0.930 . S
C921 C919 1.419 . S
C921 C922 1.362 . S
C922 H914 0.930 . S
C922 C921 1.362 . S
C922 C925 1.409 . S
C923 H915 0.930 . S
C923 C924 1.355 . S
C923 C925 1.415 . S
C924 C923 1.355 . S
C924 C926 1.419 . S
C925 C920 1.425 . S
C925 C922 1.409 . S
C925 C923 1.415 . S
C926 H916 0.930 . S
C926 C924 1.419 . S
C926 C927 1.362 . S
C927 H917 0.930 . S
C927 C920 1.409 . S
C927 C926 1.362 . S
H928 C934 0.930 . S
H929 C937 0.930 . S
H930 C938 0.930 . S
H931 C939 0.930 . S
H932 C942 0.930 . S
H933 C943 0.930 . S
C934 H928 0.930 . S
C934 C935 1.355 . S
C934 C936 1.415 . S
C935 C934 1.355 . S
C935 C937 1.419 . S
C936 C934 1.415 . S
C936 C941 1.425 . S
C936 C943 1.409 . S
C937 H929 0.930 . S
C937 C935 1.419 . S
C937 C938 1.362 . S
C938 H930 0.930 . S
C938 C937 1.362 . S
C938 C941 1.409 . S
C939 H931 0.930 . S
C939 C940 1.355 . S
C939 C941 1.415 . S
C940 C939 1.355 . S
C940 C942 1.419 . S
C941 C936 1.425 . S
C941 C938 1.409 . S
C941 C939 1.415 . S
C942 H932 0.930 . S
C942 C940 1.419 . S
C942 C943 1.362 . S
C943 H933 0.930 . S
C943 C936 1.409 . S
C943 C942 1.362 . S
H944 C950 0.930 . S
H945 C953 0.930 . S
H946 C954 0.930 . S
H947 C955 0.930 . S
H948 C958 0.930 . S
H949 C959 0.930 . S
C950 H944 0.930 . S
C950 C951 1.355 . S
C950 C952 1.415 . S
C951 C950 1.355 . S
C951 C953 1.419 . S
C952 C950 1.415 . S
C952 C957 1.425 . S
C952 C959 1.409 . S
C953 H945 0.930 . S
C953 C951 1.419 . S
C953 C954 1.362 . S
C954 H946 0.930 . S
C954 C953 1.362 . S
C954 C957 1.409 . S
C955 H947 0.930 . S
C955 C956 1.355 . S
C955 C957 1.415 . S
C956 C955 1.355 . S
C956 C958 1.419 . S
C957 C952 1.425 . S
C957 C954 1.409 . S
C957 C955 1.415 . S
C958 H948 0.930 . S
C958 C956 1.419 . S
C958 C959 1.362 . S
C959 H949 0.930 . S
C959 C952 1.409 . S
C959 C958 1.362 . S
H960 C966 0.930 . S
H961 C969 0.930 . S
H962 C970 0.930 . S
H963 C971 0.930 . S
H964 C974 0.930 . S
H965 C975 0.930 . S
C966 H960 0.930 . S
C966 C967 1.355 . S
C966 C968 1.415 . S
C967 C966 1.355 . S
C967 C969 1.419 . S
C968 C966 1.415 . S
C968 C973 1.425 1_655 S
C968 C975 1.409 . S
C969 H961 0.930 . S
C969 C967 1.419 . S
C969 C970 1.362 1_655 S
C970 H962 0.930 . S
C970 C969 1.362 1_455 S
C970 C973 1.409 . S
C971 H963 0.930 . S
C971 C972 1.355 . S
C971 C973 1.415 . S
C972 C971 1.355 . S
C972 C974 1.419 . S
C973 C968 1.425 1_455 S
C973 C970 1.409 . S
C973 C971 1.415 . S
C974 H964 0.930 . S
C974 C972 1.419 . S
C974 C975 1.362 1_455 S
C975 H965 0.930 . S
C975 C968 1.409 . S
C975 C974 1.362 1_655 S
H976 C982 0.930 . S
H977 C985 0.930 . S
H978 C986 0.951 . S
H979 C987 0.930 . S
H980 C990 0.930 . S
H981 C991 0.951 . S
C982 H976 0.930 . S
C982 C983 1.355 . S
C982 C984 1.415 . S
C983 C982 1.355 . S
C983 C985 1.419 . S
C984 C982 1.415 . S
C984 C989 1.425 1_565 S
C984 C991 1.418 . S
C985 H977 0.930 . S
C985 C983 1.419 . S
C985 C986 1.334 1_565 S
C986 H978 0.951 . S
C986 C985 1.334 1_545 S
C986 C989 1.418 . S
C987 H979 0.930 . S
C987 C988 1.355 . S
C987 C989 1.415 . S
C988 C987 1.355 . S
C988 C990 1.419 . S
C989 C984 1.425 1_545 S
C989 C986 1.418 . S
C989 C987 1.415 . S
C990 H980 0.930 . S
C990 C988 1.419 . S
C990 C991 1.334 1_545 S
C991 H981 0.951 . S
C991 C984 1.418 . S
C991 C990 1.334 1_565 S
H992 C998 0.939 . S
H993 C1001 0.930 . S
H994 C1002 0.930 1_556 S
H995 C1003 0.939 . S
H996 C1006 0.930 . S
H997 C1007 0.930 1_554 S
C998 H992 0.939 . S
C998 C999 1.341 1_455 S
C998 C1000 1.419 . S
C999 C998 1.341 1_655 S
C999 C1001 1.419 . S
C1000 C998 1.419 . S
C1000 C1005 1.425 1_444 S
C1000 C1007 1.409 1_554 S
C1001 H993 0.930 . S
C1001 C999 1.419 . S
C1001 C1002 1.362 1_545 S
C1002 H994 0.930 1_554 S
C1002 C1001 1.362 1_565 S
C1002 C1005 1.409 1_554 S
C1003 H995 0.939 . S
C1003 C1004 1.341 1_655 S
C1003 C1005 1.419 . S
C1004 C1003 1.341 1_455 S
C1004 C1006 1.419 . S
C1005 C1000 1.425 1_666 S
C1005 C1002 1.409 1_556 S
C1005 C1003 1.419 . S
C1006 H996 0.930 . S
C1006 C1004 1.419 . S
C1006 C1007 1.362 1_565 S
C1007 H997 0.930 1_556 S
C1007 C1000 1.409 1_556 S
C1007 C1006 1.362 1_545 S
H1008 C1014 0.930 . S
H1009 C1017 0.930 . S
H1010 C1018 0.930 . S
H1011 C1019 0.930 . S
H1012 C1022 0.930 . S
H1013 C1023 0.930 . S
C1014 H1008 0.930 . S
C1014 C1015 1.355 . S
C1014 C1016 1.413 1_554 S
C1015 C1014 1.355 . S
C1015 C1017 1.419 . S
C1016 C1014 1.413 1_556 S
C1016 C1021 1.425 1_556 S
C1016 C1023 1.411 . S
C1017 H1009 0.930 . S
C1017 C1015 1.419 . S
C1017 C1018 1.362 . S
C1018 H1010 0.930 . S
C1018 C1017 1.362 . S
C1018 C1021 1.411 . S
C1019 H1011 0.930 . S
C1019 C1020 1.355 . S
C1019 C1021 1.413 1_556 S
C1020 C1019 1.355 . S
C1020 C1022 1.419 . S
C1021 C1016 1.425 1_554 S
C1021 C1018 1.411 . S
C1021 C1019 1.413 1_554 S
C1022 H1012 0.930 . S
C1022 C1020 1.419 . S
C1022 C1023 1.362 . S
C1023 H1013 0.930 . S
C1023 C1016 1.411 . S
C1023 C1022 1.362 . S
H1024 C1030 0.930 1_455 S
H1025 C1033 0.930 . S
H1026 C1034 0.930 . S
H1027 C1035 0.930 1_655 S
H1028 C1038 0.930 . S
H1029 C1039 0.930 . S
C1030 H1024 0.930 1_655 S
C1030 C1031 1.355 . S
C1030 C1032 1.415 1_655 S
C1031 C1030 1.355 . S
C1031 C1033 1.419 . S
C1032 C1030 1.415 1_455 S
C1032 C1037 1.425 1_455 S
C1032 C1039 1.409 . S
C1033 H1025 0.930 . S
C1033 C1031 1.419 . S
C1033 C1034 1.362 . S
C1034 H1026 0.930 . S
C1034 C1033 1.362 . S
C1034 C1037 1.409 . S
C1035 H1027 0.930 1_455 S
C1035 C1036 1.355 . S
C1035 C1037 1.415 1_455 S
C1036 C1035 1.355 . S
C1036 C1038 1.419 . S
C1037 C1032 1.425 1_655 S
C1037 C1034 1.409 . S
C1037 C1035 1.415 1_655 S
C1038 H1028 0.930 . S
C1038 C1036 1.419 . S
C1038 C1039 1.362 . S
C1039 H1029 0.930 . S
C1039 C1032 1.409 . S
C1039 C1038 1.362 . S
H1040 C1046 0.930 . S
H1041 C1049 0.930 . S
H1042 C1050 0.930 . S
H1043 C1051 0.930 . S
H1044 C1054 0.930 . S
H1045 C1055 0.930 . S
C1046 H1040 0.930 . S
C1046 C1047 1.355 . S
C1046 C1048 1.415 1_565 S
C1047 C1046 1.355 . S
C1047 C1049 1.419 . S
C1048 C1046 1.415 1_545 S
C1048 C1053 1.425 1_545 S
C1048 C1055 1.409 . S
C1049 H1041 0.930 . S
C1049 C1047 1.419 . S
C1049 C1050 1.362 . S
C1050 H1042 0.930 . S
C1050 C1049 1.362 . S
C1050 C1053 1.409 . S
C1051 H1043 0.930 . S
C1051 C1052 1.355 . S
C1051 C1053 1.415 1_545 S
C1052 C1051 1.355 . S
C1052 C1054 1.419 . S
C1053 C1048 1.425 1_565 S
C1053 C1050 1.409 . S
C1053 C1051 1.415 1_565 S
C1054 H1044 0.930 . S
C1054 C1052 1.419 . S
C1054 C1055 1.362 . S
C1055 H1045 0.930 . S
C1055 C1048 1.409 . S
C1055 C1054 1.362 . S
H1056 C1062 0.930 . S
H1057 C1065 0.930 . S
H1058 C1066 0.930 . S
H1059 C1067 0.930 . S
H1060 C1070 0.930 . S
H1061 C1071 0.930 . S
C1062 H1056 0.930 . S
C1062 C1063 1.355 . S
C1062 C1064 1.415 1_556 S
C1063 C1062 1.355 . S
C1063 C1065 1.419 . S
C1064 C1062 1.415 1_554 S
C1064 C1069 1.425 1_554 S
C1064 C1071 1.409 . S
C1065 H1057 0.930 . S
C1065 C1063 1.419 . S
C1065 C1066 1.362 . S
C1066 H1058 0.930 . S
C1066 C1065 1.362 . S
C1066 C1069 1.409 . S
C1067 H1059 0.930 . S
C1067 C1068 1.355 . S
C1067 C1069 1.415 1_554 S
C1068 C1067 1.355 . S
C1068 C1070 1.419 . S
C1069 C1064 1.425 1_556 S
C1069 C1066 1.409 . S
C1069 C1067 1.415 1_556 S
C1070 H1060 0.930 . S
C1070 C1068 1.419 . S
C1070 C1071 1.362 . S
C1071 H1061 0.930 . S
C1071 C1064 1.409 . S
C1071 C1070 1.362 . S
H1072 C1078 0.930 . S
H1073 C1081 0.930 . S
H1074 C1082 0.930 . S
H1075 C1083 0.930 . S
H1076 C1086 0.930 . S
H1077 C1087 0.930 . S
C1078 H1072 0.930 . S
C1078 C1079 1.355 . S
C1078 C1080 1.415 . S
C1079 C1078 1.355 . S
C1079 C1081 1.419 . S
C1080 C1078 1.415 . S
C1080 C1085 1.425 . S
C1080 C1087 1.409 . S
C1081 H1073 0.930 . S
C1081 C1079 1.419 . S
C1081 C1082 1.362 . S
C1082 H1074 0.930 . S
C1082 C1081 1.362 . S
C1082 C1085 1.409 . S
C1083 H1075 0.930 . S
C1083 C1084 1.355 . S
C1083 C1085 1.415 . S
C1084 C1083 1.355 . S
C1084 C1086 1.419 . S
C1085 C1080 1.425 . S
C1085 C1082 1.409 . S
C1085 C1083 1.415 . S
C1086 H1076 0.930 . S
C1086 C1084 1.419 . S
C1086 C1087 1.362 . S
C1087 H1077 0.930 . S
C1087 C1080 1.409 . S
C1087 C1086 1.362 . S
H1088 C1094 0.930 . S
H1089 C1097 0.930 . S
H1090 C1098 0.930 . S
H1091 C1099 0.930 . S
H1092 C1102 0.930 . S
H1093 C1103 0.930 . S
C1094 H1088 0.930 . S
C1094 C1095 1.355 . S
C1094 C1096 1.415 1_455 S
C1095 C1094 1.355 . S
C1095 C1097 1.419 . S
C1096 C1094 1.415 1_655 S
C1096 C1101 1.425 1_655 S
C1096 C1103 1.409 . S
C1097 H1089 0.930 . S
C1097 C1095 1.419 . S
C1097 C1098 1.362 . S
C1098 H1090 0.930 . S
C1098 C1097 1.362 . S
C1098 C1101 1.409 . S
C1099 H1091 0.930 . S
C1099 C1100 1.355 . S
C1099 C1101 1.415 1_655 S
C1100 C1099 1.355 . S
C1100 C1102 1.419 . S
C1101 C1096 1.425 1_455 S
C1101 C1098 1.409 . S
C1101 C1099 1.415 1_455 S
C1102 H1092 0.930 . S
C1102 C1100 1.419 . S
C1102 C1103 1.362 . S
C1103 H1093 0.930 . S
C1103 C1096 1.409 . S
C1103 C1102 1.362 . S
H1104 C1110 0.930 . S
H1105 C1113 0.930 . S
H1106 C1114 0.930 . S
H1107 C1115 0.930 . S
H1108 C1118 0.930 . S
H1109 C1119 0.930 . S
C1110 H1104 0.930 . S
C1110 C1111 1.355 . S
C1110 C1112 1.415 . S
C1111 C1110 1.355 . S
C1111 C1113 1.419 . S
C1112 C1110 1.415 . S
C1112 C1117 1.425 . S
C1112 C1119 1.409 . S
C1113 H1105 0.930 . S
C1113 C1111 1.419 . S
C1113 C1114 1.362 . S
C1114 H1106 0.930 . S
C1114 C1113 1.362 . S
C1114 C1117 1.409 . S
C1115 H1107 0.930 . S
C1115 C1116 1.355 . S
C1115 C1117 1.415 . S
C1116 C1115 1.355 . S
C1116 C1118 1.419 . S
C1117 C1112 1.425 . S
C1117 C1114 1.409 . S
C1117 C1115 1.415 . S
C1118 H1108 0.930 . S
C1118 C1116 1.419 . S
C1118 C1119 1.362 . S
C1119 H1109 0.930 . S
C1119 C1112 1.409 . S
C1119 C1118 1.362 . S
H1120 C1126 0.930 . S
H1121 C1129 0.930 . S
H1122 C1130 0.930 . S
H1123 C1131 0.930 . S
H1124 C1134 0.930 . S
H1125 C1135 0.930 . S
C1126 H1120 0.930 . S
C1126 C1127 1.355 . S
C1126 C1128 1.415 . S
C1127 C1126 1.355 . S
C1127 C1129 1.419 . S
C1128 C1126 1.415 . S
C1128 C1133 1.425 . S
C1128 C1135 1.409 . S
C1129 H1121 0.930 . S
C1129 C1127 1.419 . S
C1129 C1130 1.362 . S
C1130 H1122 0.930 . S
C1130 C1129 1.362 . S
C1130 C1133 1.409 . S
C1131 H1123 0.930 . S
C1131 C1132 1.355 . S
C1131 C1133 1.415 . S
C1132 C1131 1.355 . S
C1132 C1134 1.419 . S
C1133 C1128 1.425 . S
C1133 C1130 1.409 . S
C1133 C1131 1.415 . S
C1134 H1124 0.930 . S
C1134 C1132 1.419 . S
C1134 C1135 1.362 . S
C1135 H1125 0.930 . S
C1135 C1128 1.409 . S
C1135 C1134 1.362 . S
H1136 C1142 0.930 . S
H1137 C1145 0.930 . S
H1138 C1146 0.930 . S
H1139 C1147 0.930 . S
H1140 C1150 0.930 . S
H1141 C1151 0.930 . S
C1142 H1136 0.930 . S
C1142 C1143 1.355 . S
C1142 C1144 1.415 . S
C1143 C1142 1.355 . S
C1143 C1145 1.419 . S
C1144 C1142 1.415 . S
C1144 C1149 1.425 . S
C1144 C1151 1.409 . S
C1145 H1137 0.930 . S
C1145 C1143 1.419 . S
C1145 C1146 1.362 . S
C1146 H1138 0.930 . S
C1146 C1145 1.362 . S
C1146 C1149 1.409 . S
C1147 H1139 0.930 . S
C1147 C1148 1.355 . S
C1147 C1149 1.415 . S
C1148 C1147 1.355 . S
C1148 C1150 1.419 . S
C1149 C1144 1.425 . S
C1149 C1146 1.409 . S
C1149 C1147 1.415 . S
C1150 H1140 0.930 . S
C1150 C1148 1.419 . S
C1150 C1151 1.362 . S
C1151 H1141 0.930 . S
C1151 C1144 1.409 . S
C1151 C1150 1.362 . S
H1152 C1158 0.930 . S
H1153 C1161 0.930 . S
H1154 C1162 0.930 . S
H1155 C1163 0.930 . S
H1156 C1166 0.930 . S
H1157 C1167 0.930 . S
C1158 H1152 0.930 . S
C1158 C1159 1.355 . S
C1158 C1160 1.415 . S
C1159 C1158 1.355 . S
C1159 C1161 1.419 . S
C1160 C1158 1.415 . S
C1160 C1165 1.425 . S
C1160 C1167 1.409 . S
C1161 H1153 0.930 . S
C1161 C1159 1.419 . S
C1161 C1162 1.362 . S
C1162 H1154 0.930 . S
C1162 C1161 1.362 . S
C1162 C1165 1.409 . S
C1163 H1155 0.930 . S
C1163 C1164 1.355 . S
C1163 C1165 1.415 . S
C1164 C1163 1.355 . S
C1164 C1166 1.419 . S
C1165 C1160 1.425 . S
C1165 C1162 1.409 . S
C1165 C1163 1.415 . S
C1166 H1156 0.930 . S
C1166 C1164 1.419 . S
C1166 C1167 1.362 . S
C1167 H1157 0.930 . S
C1167 C1160 1.409 . S
C1167 C1166 1.362 . S
H1168 C1174 0.930 . S
H1169 C1177 0.930 . S
H1170 C1178 0.930 . S
H1171 C1179 0.930 . S
H1172 C1182 0.930 . S
H1173 C1183 0.930 . S
C1174 H1168 0.930 . S
C1174 C1175 1.355 . S
C1174 C1176 1.415 . S
C1175 C1174 1.355 . S
C1175 C1177 1.419 . S
C1176 C1174 1.415 . S
C1176 C1181 1.425 1_545 S
C1176 C1183 1.409 . S
C1177 H1169 0.930 . S
C1177 C1175 1.419 . S
C1177 C1178 1.362 1_545 S
C1178 H1170 0.930 . S
C1178 C1177 1.362 1_565 S
C1178 C1181 1.409 . S
C1179 H1171 0.930 . S
C1179 C1180 1.355 . S
C1179 C1181 1.415 . S
C1180 C1179 1.355 . S
C1180 C1182 1.419 . S
C1181 C1176 1.425 1_565 S
C1181 C1178 1.409 . S
C1181 C1179 1.415 . S
C1182 H1172 0.930 . S
C1182 C1180 1.419 . S
C1182 C1183 1.362 1_565 S
C1183 H1173 0.930 . S
C1183 C1176 1.409 . S
C1183 C1182 1.362 1_545 S
H1184 C1190 0.930 . S
H1185 C1193 0.930 . S
H1186 C1194 0.930 . S
H1187 C1195 0.930 . S
H1188 C1198 0.930 . S
H1189 C1199 0.930 . S
C1190 H1184 0.930 . S
C1190 C1191 1.355 . S
C1190 C1192 1.415 . S
C1191 C1190 1.355 . S
C1191 C1193 1.419 . S
C1192 C1190 1.415 . S
C1192 C1197 1.425 . S
C1192 C1199 1.409 . S
C1193 H1185 0.930 . S
C1193 C1191 1.419 . S
C1193 C1194 1.362 . S
C1194 H1186 0.930 . S
C1194 C1193 1.362 . S
C1194 C1197 1.409 . S
C1195 H1187 0.930 . S
C1195 C1196 1.355 . S
C1195 C1197 1.415 . S
C1196 C1195 1.355 . S
C1196 C1198 1.419 . S
C1197 C1192 1.425 . S
C1197 C1194 1.409 . S
C1197 C1195 1.415 . S
C1198 H1188 0.930 . S
C1198 C1196 1.419 . S
C1198 C1199 1.362 . S
C1199 H1189 0.930 . S
C1199 C1192 1.409 . S
C1199 C1198 1.362 . S
H1200 C1206 0.930 . S
H1201 C1209 0.930 . S
H1202 C1210 0.930 . S
H1203 C1211 0.930 . S
H1204 C1214 0.930 . S
H1205 C1215 0.930 . S
C1206 H1200 0.930 . S
C1206 C1207 1.355 . S
C1206 C1208 1.415 . S
C1207 C1206 1.355 . S
C1207 C1209 1.419 . S
C1208 C1206 1.415 . S
C1208 C1213 1.425 1_556 S
C1208 C1215 1.409 1_556 S
C1209 H1201 0.930 . S
C1209 C1207 1.419 . S
C1209 C1210 1.362 . S
C1210 H1202 0.930 . S
C1210 C1209 1.362 . S
C1210 C1213 1.409 1_556 S
C1211 H1203 0.930 . S
C1211 C1212 1.355 . S
C1211 C1213 1.415 . S
C1212 C1211 1.355 . S
C1212 C1214 1.419 . S
C1213 C1208 1.425 1_554 S
C1213 C1210 1.409 1_554 S
C1213 C1211 1.415 . S
C1214 H1204 0.930 . S
C1214 C1212 1.419 . S
C1214 C1215 1.362 . S
C1215 H1205 0.930 . S
C1215 C1208 1.409 1_554 S
C1215 C1214 1.362 . S
H1216 C1222 0.930 . S
H1217 C1225 0.930 . S
H1218 C1226 0.930 . S
H1219 C1227 0.930 . S
H1220 C1230 0.930 . S
H1221 C1231 0.930 . S
C1222 H1216 0.930 . S
C1222 C1223 1.355 . S
C1222 C1224 1.415 . S
C1223 C1222 1.355 . S
C1223 C1225 1.419 . S
C1224 C1222 1.415 . S
C1224 C1229 1.425 . S
C1224 C1231 1.409 . S
C1225 H1217 0.930 . S
C1225 C1223 1.419 . S
C1225 C1226 1.362 . S
C1226 H1218 0.930 . S
C1226 C1225 1.362 . S
C1226 C1229 1.409 . S
C1227 H1219 0.930 . S
C1227 C1228 1.355 . S
C1227 C1229 1.415 . S
C1228 C1227 1.355 . S
C1228 C1230 1.419 . S
C1229 C1224 1.425 . S
C1229 C1226 1.409 . S
C1229 C1227 1.415 . S
C1230 H1220 0.930 . S
C1230 C1228 1.419 . S
C1230 C1231 1.362 . S
C1231 H1221 0.930 . S
C1231 C1224 1.409 . S
C1231 C1230 1.362 . S
H1232 C1238 0.930 . S
H1233 C1241 0.930 . S
H1234 C1242 0.930 . S
H1235 C1243 0.930 . S
H1236 C1246 0.930 . S
H1237 C1247 0.930 . S
C1238 H1232 0.930 . S
C1238 C1239 1.355 . S
C1238 C1240 1.415 . S
C1239 C1238 1.355 . S
C1239 C1241 1.419 . S
C1240 C1238 1.415 . S
C1240 C1245 1.425 . S
C1240 C1247 1.409 . S
C1241 H1233 0.930 . S
C1241 C1239 1.419 . S
C1241 C1242 1.362 . S
C1242 H1234 0.930 . S
C1242 C1241 1.362 . S
C1242 C1245 1.409 . S
C1243 H1235 0.930 . S
C1243 C1244 1.355 . S
C1243 C1245 1.415 . S
C1244 C1243 1.355 . S
C1244 C1246 1.419 . S
C1245 C1240 1.425 . S
C1245 C1242 1.409 . S
C1245 C1243 1.415 . S
C1246 H1236 0.930 . S
C1246 C1244 1.419 . S
C1246 C1247 1.362 . S
C1247 H1237 0.930 . S
C1247 C1240 1.409 . S
C1247 C1246 1.362 . S
H1248 C1254 0.930 . S
H1249 C1257 0.930 . S
H1250 C1258 0.930 . S
H1251 C1259 0.930 . S
H1252 C1262 0.930 . S
H1253 C1263 0.930 . S
C1254 H1248 0.930 . S
C1254 C1255 1.355 . S
C1254 C1256 1.415 . S
C1255 C1254 1.355 . S
C1255 C1257 1.419 . S
C1256 C1254 1.415 . S
C1256 C1261 1.425 . S
C1256 C1263 1.409 . S
C1257 H1249 0.930 . S
C1257 C1255 1.419 . S
C1257 C1258 1.362 . S
C1258 H1250 0.930 . S
C1258 C1257 1.362 . S
C1258 C1261 1.409 . S
C1259 H1251 0.930 . S
C1259 C1260 1.355 . S
C1259 C1261 1.415 . S
C1260 C1259 1.355 . S
C1260 C1262 1.419 . S
C1261 C1256 1.425 . S
C1261 C1258 1.409 . S
C1261 C1259 1.415 . S
C1262 H1252 0.930 . S
C1262 C1260 1.419 . S
C1262 C1263 1.362 . S
C1263 H1253 0.930 . S
C1263 C1256 1.409 . S
C1263 C1262 1.362 . S
H1264 C1270 0.930 . S
H1265 C1273 0.930 . S
H1266 C1274 0.930 . S
H1267 C1275 0.930 . S
H1268 C1278 0.930 . S
H1269 C1279 0.930 . S
C1270 H1264 0.930 . S
C1270 C1271 1.355 . S
C1270 C1272 1.415 . S
C1271 C1270 1.355 . S
C1271 C1273 1.419 . S
C1272 C1270 1.415 . S
C1272 C1277 1.425 . S
C1272 C1279 1.409 . S
C1273 H1265 0.930 . S
C1273 C1271 1.419 . S
C1273 C1274 1.362 . S
C1274 H1266 0.930 . S
C1274 C1273 1.362 . S
C1274 C1277 1.409 . S
C1275 H1267 0.930 . S
C1275 C1276 1.355 . S
C1275 C1277 1.415 . S
C1276 C1275 1.355 . S
C1276 C1278 1.419 . S
C1277 C1272 1.425 . S
C1277 C1274 1.409 . S
C1277 C1275 1.415 . S
C1278 H1268 0.930 . S
C1278 C1276 1.419 . S
C1278 C1279 1.362 . S
C1279 H1269 0.930 . S
C1279 C1272 1.409 . S
C1279 C1278 1.362 . S
H1280 C1286 0.930 . S
H1281 C1289 0.930 . S
H1282 C1290 0.930 . S
H1283 C1291 0.930 . S
H1284 C1294 0.930 . S
H1285 C1295 0.930 . S
C1286 H1280 0.930 . S
C1286 C1287 1.355 . S
C1286 C1288 1.415 . S
C1287 C1286 1.355 . S
C1287 C1289 1.419 . S
C1288 C1286 1.415 . S
C1288 C1293 1.425 . S
C1288 C1295 1.409 . S
C1289 H1281 0.930 . S
C1289 C1287 1.419 . S
C1289 C1290 1.362 . S
C1290 H1282 0.930 . S
C1290 C1289 1.362 . S
C1290 C1293 1.409 . S
C1291 H1283 0.930 . S
C1291 C1292 1.355 . S
C1291 C1293 1.415 . S
C1292 C1291 1.355 . S
C1292 C1294 1.419 . S
C1293 C1288 1.425 . S
C1293 C1290 1.409 . S
C1293 C1291 1.415 . S
C1294 H1284 0.930 . S
C1294 C1292 1.419 . S
C1294 C1295 1.362 . S
C1295 H1285 0.930 . S
C1295 C1288 1.409 . S
C1295 C1294 1.362 . S
H1296 C1302 0.930 . S
H1297 C1305 0.930 . S
H1298 C1306 0.930 . S
H1299 C1307 0.930 . S
H1300 C1310 0.930 . S
H1301 C1311 0.930 . S
C1302 H1296 0.930 . S
C1302 C1303 1.355 . S
C1302 C1304 1.415 . S
C1303 C1302 1.355 . S
C1303 C1305 1.419 . S
C1304 C1302 1.415 . S
C1304 C1309 1.425 . S
C1304 C1311 1.409 . S
C1305 H1297 0.930 . S
C1305 C1303 1.419 . S
C1305 C1306 1.362 . S
C1306 H1298 0.930 . S
C1306 C1305 1.362 . S
C1306 C1309 1.409 . S
C1307 H1299 0.930 . S
C1307 C1308 1.355 . S
C1307 C1309 1.415 . S
C1308 C1307 1.355 . S
C1308 C1310 1.419 . S
C1309 C1304 1.425 . S
C1309 C1306 1.409 . S
C1309 C1307 1.415 . S
C1310 H1300 0.930 . S
C1310 C1308 1.419 . S
C1310 C1311 1.362 . S
C1311 H1301 0.930 . S
C1311 C1304 1.409 . S
C1311 C1310 1.362 . S
H1312 C1318 0.930 . S
H1313 C1321 0.930 . S
H1314 C1322 0.930 . S
H1315 C1323 0.930 . S
H1316 C1326 0.930 . S
H1317 C1327 0.930 . S
C1318 H1312 0.930 . S
C1318 C1319 1.355 . S
C1318 C1320 1.415 . S
C1319 C1318 1.355 . S
C1319 C1321 1.419 . S
C1320 C1318 1.415 . S
C1320 C1325 1.425 . S
C1320 C1327 1.409 . S
C1321 H1313 0.930 . S
C1321 C1319 1.419 . S
C1321 C1322 1.362 . S
C1322 H1314 0.930 . S
C1322 C1321 1.362 . S
C1322 C1325 1.409 . S
C1323 H1315 0.930 . S
C1323 C1324 1.355 . S
C1323 C1325 1.415 . S
C1324 C1323 1.355 . S
C1324 C1326 1.419 . S
C1325 C1320 1.425 . S
C1325 C1322 1.409 . S
C1325 C1323 1.415 . S
C1326 H1316 0.930 . S
C1326 C1324 1.419 . S
C1326 C1327 1.362 . S
C1327 H1317 0.930 . S
C1327 C1320 1.409 . S
C1327 C1326 1.362 . S
H1328 C1334 0.930 . S
H1329 C1337 0.930 . S
H1330 C1338 0.930 . S
H1331 C1339 0.930 . S
H1332 C1342 0.930 . S
H1333 C1343 0.930 . S
C1334 H1328 0.930 . S
C1334 C1335 1.355 . S
C1334 C1336 1.415 . S
C1335 C1334 1.355 . S
C1335 C1337 1.419 . S
C1336 C1334 1.415 . S
C1336 C1341 1.425 . S
C1336 C1343 1.409 . S
C1337 H1329 0.930 . S
C1337 C1335 1.419 . S
C1337 C1338 1.362 . S
C1338 H1330 0.930 . S
C1338 C1337 1.362 . S
C1338 C1341 1.409 . S
C1339 H1331 0.930 . S
C1339 C1340 1.355 . S
C1339 C1341 1.415 . S
C1340 C1339 1.355 . S
C1340 C1342 1.419 . S
C1341 C1336 1.425 . S
C1341 C1338 1.409 . S
C1341 C1339 1.415 . S
C1342 H1332 0.930 . S
C1342 C1340 1.419 . S
C1342 C1343 1.362 . S
C1343 H1333 0.930 . S
C1343 C1336 1.409 . S
C1343 C1342 1.362 . S
H1344 C1350 0.930 . S
H1345 C1353 0.930 . S
H1346 C1354 0.930 . S
H1347 C1355 0.930 . S
H1348 C1358 0.930 . S
H1349 C1359 0.930 . S
C1350 H1344 0.930 . S
C1350 C1351 1.355 . S
C1350 C1352 1.415 . S
C1351 C1350 1.355 . S
C1351 C1353 1.419 . S
C1352 C1350 1.415 . S
C1352 C1357 1.425 . S
C1352 C1359 1.409 . S
C1353 H1345 0.930 . S
C1353 C1351 1.419 . S
C1353 C1354 1.362 . S
C1354 H1346 0.930 . S
C1354 C1353 1.362 . S
C1354 C1357 1.409 . S
C1355 H1347 0.930 . S
C1355 C1356 1.355 . S
C1355 C1357 1.415 . S
C1356 C1355 1.355 . S
C1356 C1358 1.419 . S
C1357 C1352 1.425 . S
C1357 C1354 1.409 . S
C1357 C1355 1.415 . S
C1358 H1348 0.930 . S
C1358 C1356 1.419 . S
C1358 C1359 1.362 . S
C1359 H1349 0.930 . S
C1359 C1352 1.409 . S
C1359 C1358 1.362 . S
H1360 C1366 0.930 . S
H1361 C1369 0.930 . S
H1362 C1370 0.930 . S
H1363 C1371 0.930 . S
H1364 C1374 0.930 . S
H1365 C1375 0.930 . S
C1366 H1360 0.930 . S
C1366 C1367 1.355 . S
C1366 C1368 1.415 . S
C1367 C1366 1.355 . S
C1367 C1369 1.419 . S
C1368 C1366 1.415 . S
C1368 C1373 1.425 . S
C1368 C1375 1.409 . S
C1369 H1361 0.930 . S
C1369 C1367 1.419 . S
C1369 C1370 1.362 . S
C1370 H1362 0.930 . S
C1370 C1369 1.362 . S
C1370 C1373 1.409 . S
C1371 H1363 0.930 . S
C1371 C1372 1.355 . S
C1371 C1373 1.415 . S
C1372 C1371 1.355 . S
C1372 C1374 1.419 . S
C1373 C1368 1.425 . S
C1373 C1370 1.409 . S
C1373 C1371 1.415 . S
C1374 H1364 0.930 . S
C1374 C1372 1.419 . S
C1374 C1375 1.362 . S
C1375 H1365 0.930 . S
C1375 C1368 1.409 . S
C1375 C1374 1.362 . S
H1376 C1382 0.930 . S
H1377 C1385 0.930 . S
H1378 C1386 0.930 . S
H1379 C1387 0.930 . S
H1380 C1390 0.930 . S
H1381 C1391 0.930 . S
C1382 H1376 0.930 . S
C1382 C1383 1.355 . S
C1382 C1384 1.415 . S
C1383 C1382 1.355 . S
C1383 C1385 1.419 . S
C1384 C1382 1.415 . S
C1384 C1389 1.425 . S
C1384 C1391 1.409 . S
C1385 H1377 0.930 . S
C1385 C1383 1.419 . S
C1385 C1386 1.362 . S
C1386 H1378 0.930 . S
C1386 C1385 1.362 . S
C1386 C1389 1.409 . S
C1387 H1379 0.930 . S
C1387 C1388 1.355 . S
C1387 C1389 1.415 . S
C1388 C1387 1.355 . S
C1388 C1390 1.419 . S
C1389 C1384 1.425 . S
C1389 C1386 1.409 . S
C1389 C1387 1.415 . S
C1390 H1380 0.930 . S
C1390 C1388 1.419 . S
C1390 C1391 1.362 . S
C1391 H1381 0.930 . S
C1391 C1384 1.409 . S
C1391 C1390 1.362 . S
H1392 C1398 0.930 . S
H1393 C1401 0.930 . S
H1394 C1402 0.930 . S
H1395 C1403 0.930 . S
H1396 C1406 0.930 . S
H1397 C1407 0.930 . S
C1398 H1392 0.930 . S
C1398 C1399 1.355 . S
C1398 C1400 1.415 . S
C1399 C1398 1.355 . S
C1399 C1401 1.419 . S
C1400 C1398 1.415 . S
C1400 C1405 1.425 . S
C1400 C1407 1.409 . S
C1401 H1393 0.930 . S
C1401 C1399 1.419 . S
C1401 C1402 1.362 . S
C1402 H1394 0.930 . S
C1402 C1401 1.362 . S
C1402 C1405 1.409 . S
C1403 H1395 0.930 . S
C1403 C1404 1.355 . S
C1403 C1405 1.415 . S
C1404 C1403 1.355 . S
C1404 C1406 1.419 . S
C1405 C1400 1.425 . S
C1405 C1402 1.409 . S
C1405 C1403 1.415 . S
C1406 H1396 0.930 . S
C1406 C1404 1.419 . S
C1406 C1407 1.362 . S
C1407 H1397 0.930 . S
C1407 C1400 1.409 . S
C1407 C1406 1.362 . S
H1408 C1414 0.930 . S
H1409 C1417 0.930 . S
H1410 C1418 0.930 . S
H1411 C1419 0.930 . S
H1412 C1422 0.930 . S
H1413 C1423 0.930 . S
C1414 H1408 0.930 . S
C1414 C1415 1.355 . S
C1414 C1416 1.415 . S
C1415 C1414 1.355 . S
C1415 C1417 1.419 . S
C1416 C1414 1.415 . S
C1416 C1421 1.425 . S
C1416 C1423 1.409 . S
C1417 H1409 0.930 . S
C1417 C1415 1.419 . S
C1417 C1418 1.362 . S
C1418 H1410 0.930 . S
C1418 C1417 1.362 . S
C1418 C1421 1.409 . S
C1419 H1411 0.930 . S
C1419 C1420 1.355 . S
C1419 C1421 1.415 . S
C1420 C1419 1.355 . S
C1420 C1422 1.419 . S
C1421 C1416 1.425 . S
C1421 C1418 1.409 . S
C1421 C1419 1.415 . S
C1422 H1412 0.930 . S
C1422 C1420 1.419 . S
C1422 C1423 1.362 . S
C1423 H1413 0.930 . S
C1423 C1416 1.409 . S
C1423 C1422 1.362 . S
H1424 C1430 0.930 . S
H1425 C1433 0.930 . S
H1426 C1434 0.930 . S
H1427 C1435 0.930 . S
H1428 C1438 0.930 . S
H1429 C1439 0.930 . S
C1430 H1424 0.930 . S
C1430 C1431 1.355 . S
C1430 C1432 1.415 . S
C1431 C1430 1.355 . S
C1431 C1433 1.419 . S
C1432 C1430 1.415 . S
C1432 C1437 1.425 . S
C1432 C1439 1.409 . S
C1433 H1425 0.930 . S
C1433 C1431 1.419 . S
C1433 C1434 1.362 . S
C1434 H1426 0.930 . S
C1434 C1433 1.362 . S
C1434 C1437 1.409 . S
C1435 H1427 0.930 . S
C1435 C1436 1.355 . S
C1435 C1437 1.415 . S
C1436 C1435 1.355 . S
C1436 C1438 1.419 . S
C1437 C1432 1.425 . S
C1437 C1434 1.409 . S
C1437 C1435 1.415 . S
C1438 H1428 0.930 . S
C1438 C1436 1.419 . S
C1438 C1439 1.362 . S
C1439 H1429 0.930 . S
C1439 C1432 1.409 . S
C1439 C1438 1.362 . S
H1440 C1446 0.930 . S
H1441 C1449 0.930 . S
H1442 C1450 0.930 . S
H1443 C1451 0.930 . S
H1444 C1454 0.930 . S
H1445 C1455 0.930 . S
C1446 H1440 0.930 . S
C1446 C1447 1.355 . S
C1446 C1448 1.415 . S
C1447 C1446 1.355 . S
C1447 C1449 1.419 . S
C1448 C1446 1.415 . S
C1448 C1453 1.425 . S
C1448 C1455 1.409 . S
C1449 H1441 0.930 . S
C1449 C1447 1.419 . S
C1449 C1450 1.362 . S
C1450 H1442 0.930 . S
C1450 C1449 1.362 . S
C1450 C1453 1.409 . S
C1451 H1443 0.930 . S
C1451 C1452 1.355 . S
C1451 C1453 1.415 . S
C1452 C1451 1.355 . S
C1452 C1454 1.419 . S
C1453 C1448 1.425 . S
C1453 C1450 1.409 . S
C1453 C1451 1.415 . S
C1454 H1444 0.930 . S
C1454 C1452 1.419 . S
C1454 C1455 1.362 . S
C1455 H1445 0.930 . S
C1455 C1448 1.409 . S
C1455 C1454 1.362 . S
H1456 C1462 0.930 . S
H1457 C1465 0.930 . S
H1458 C1466 0.930 . S
H1459 C1467 0.930 . S
H1460 C1470 0.930 . S
H1461 C1471 0.930 . S
C1462 H1456 0.930 . S
C1462 C1463 1.355 . S
C1462 C1464 1.415 . S
C1463 C1462 1.355 . S
C1463 C1465 1.419 . S
C1464 C1462 1.415 . S
C1464 C1469 1.425 . S
C1464 C1471 1.409 . S
C1465 H1457 0.930 . S
C1465 C1463 1.419 . S
C1465 C1466 1.362 . S
C1466 H1458 0.930 . S
C1466 C1465 1.362 . S
C1466 C1469 1.409 . S
C1467 H1459 0.930 . S
C1467 C1468 1.355 . S
C1467 C1469 1.415 . S
C1468 C1467 1.355 . S
C1468 C1470 1.419 . S
C1469 C1464 1.425 . S
C1469 C1466 1.409 . S
C1469 C1467 1.415 . S
C1470 H1460 0.930 . S
C1470 C1468 1.419 . S
C1470 C1471 1.362 . S
C1471 H1461 0.930 . S
C1471 C1464 1.409 . S
C1471 C1470 1.362 . S
C455 C148 1.380 . S
C460 C8 1.401 . S
C471 C22 1.443 . S
C476 C162 1.371 . S
C487 C36 1.376 . S
C492 C120 1.407 . S
C503 C134 1.423 . S
C508 C50 1.417 . S
C519 C205 1.444 . S
C524 C65 1.378 . S
C535 C79 1.432 . S
C540 C219 1.365 . S
C551 C177 1.425 . S
C556 C93 1.366 . S
C567 C191 1.391 . S
C572 C107 1.441 . S
C583 C372 1.442 . S
C588 C232 1.370 . S
C599 C386 1.367 . S
C604 C246 1.425 . S
C615 C344 1.424 . S
C620 C260 1.416 . S
C631 C274 1.367 . S
C636 C358 1.439 . S
C647 C429 1.380 . S
C652 C289 1.444 . S
C663 C443 1.407 . S
C668 C303 1.431 . S
C679 C317 1.431 . S
C684 C401 1.365 . S
C695 C331 1.367 . S
C700 C415 1.423 . S
C711 C272 1.267 . S
C716 C6 1.292 . S
C727 C20 1.376 1_655 S
C732 C258 1.350 . S
C743 C244 1.276 . S
C748 C34 1.318 . S
C759 C230 1.376 . S
C764 C48 1.365 1_655 S
C775 C63 1.359 . S
C780 C329 1.377 . S
C791 C77 1.274 1_455 S
C796 C315 1.313 . S
C807 C301 1.303 . S
C812 C91 1.350 . S
C823 C105 1.302 1_455 S
C828 C287 1.269 . S
C839 C384 1.377 . S
C844 C118 1.358 . S
C855 C370 1.272 . S
C860 C132 1.309 1_655 S
C871 C356 1.273 . S
C876 C146 1.271 . S
C887 C342 1.374 . S
C892 C160 1.370 1_655 S
C903 C175 1.372 . S
C908 C441 1.372 . S
C919 C427 1.304 . S
C924 C189 1.270 1_455 S
C935 C203 1.308 . S
C940 C413 1.271 . S
C951 C217 1.279 1_455 S
C956 C399 1.268 . S
C967 C174 1.503 . S
C972 C7 1.503 . S
C983 C21 1.496 . S
C988 C300 1.496 . S
C999 C90 1.483 . S
C1004 C35 1.483 . S
C1015 C440 1.494 . S
C1020 C49 1.494 . S
C1031 C62 1.454 . S
C1036 C119 1.454 . S
C1047 C245 1.440 . S
C1052 C76 1.440 . S
C1063 C385 1.507 . S
C1068 C104 1.507 . S
C1079 C412 1.449 . S
C1084 C133 1.449 . S
C1095 C147 1.502 . S
C1100 C202 1.502 . S
C1111 C328 1.490 . S
C1116 C161 1.490 . S
C1127 C357 1.507 . S
C1132 C188 1.507 . S
C1143 C216 1.501 . S
C1148 C273 1.501 . S
C1159 C231 1.505 . S
C1164 C398 1.505 . S
C1175 C314 1.502 . S
C1180 C259 1.502 . S
C1191 C343 1.506 . S
C1196 C286 1.506 . S
C1207 C371 1.503 . S
C1212 C426 1.503 . S
C1223 C9 1.211 . S
C1228 C51 1.176 . S
C1239 C37 1.225 . S
C1244 C23 1.166 . S
C1255 C64 1.167 . S
C1260 C106 1.227 . S
C1271 C78 1.227 . S
C1276 C92 1.170 . S
C1287 C121 1.183 . S
C1292 C163 1.218 . S
C1303 C135 1.227 . S
C1308 C149 1.168 . S
C1319 C176 1.212 . S
C1324 C218 1.190 . S
C1335 C204 1.216 . S
C1340 C190 1.186 . S
C1351 C275 1.172 . S
C1356 C233 1.225 . S
C1367 C261 1.166 . S
C1372 C247 1.227 . S
C1383 C330 1.171 . S
C1388 C288 1.217 . S
C1399 C316 1.178 . S
C1404 C302 1.222 . S
C1415 C387 1.177 . S
C1420 C345 1.210 . S
C1431 C373 1.168 . S
C1436 C359 1.227 . S
C1447 C400 1.204 . S
C1452 C442 1.182 . S
C1463 C428 1.221 . S
C1468 C414 1.168 . S
