# Generated by pormake.
# Topology rkf, (6)-cn, num edge types: 1
# Building blocks:
#     Node 0, Type 0, BuildingBlock: BETDEL_clean_sbu_0, # of connection points: 6
#     Node 1, Type 0, BuildingBlock: BETDEL_clean_sbu_0, # of connection points: 6
#     Node 2, Type 0, BuildingBlock: BETDEL_clean_sbu_0, # of connection points: 6
#     Node 3, Type 0, BuildingBlock: BETDEL_clean_sbu_0, # of connection points: 6
#     Node 4, Type 0, BuildingBlock: BETDEL_clean_sbu_0, # of connection points: 6
#     Node 5, Type 0, BuildingBlock: BETDEL_clean_sbu_0, # of connection points: 6
#     Edge 6, Type (0, 0), BuildingBlock: FUNLAD_clean_linker_1, # of connection points: 2
#     Edge 7, Type (0, 0), BuildingBlock: FUNLAD_clean_linker_1, # of connection points: 2
#     Edge 8, Type (0, 0), BuildingBlock: FUNLAD_clean_linker_1, # of connection points: 2
#     Edge 9, Type (0, 0), BuildingBlock: FUNLAD_clean_linker_1, # of connection points: 2
#     Edge 10, Type (0, 0), BuildingBlock: FUNLAD_clean_linker_1, # of connection points: 2
#     Edge 11, Type (0, 0), BuildingBlock: FUNLAD_clean_linker_1, # of connection points: 2
#     Edge 12, Type (0, 0), BuildingBlock: FUNLAD_clean_linker_1, # of connection points: 2
#     Edge 13, Type (0, 0), BuildingBlock: FUNLAD_clean_linker_1, # of connection points: 2
#     Edge 14, Type (0, 0), BuildingBlock: FUNLAD_clean_linker_1, # of connection points: 2
#     Edge 15, Type (0, 0), BuildingBlock: FUNLAD_clean_linker_1, # of connection points: 2
#     Edge 16, Type (0, 0), BuildingBlock: FUNLAD_clean_linker_1, # of connection points: 2
#     Edge 17, Type (0, 0), BuildingBlock: FUNLAD_clean_linker_1, # of connection points: 2
#     Edge 18, Type (0, 0), BuildingBlock: FUNLAD_clean_linker_1, # of connection points: 2
#     Edge 19, Type (0, 0), BuildingBlock: FUNLAD_clean_linker_1, # of connection points: 2
#     Edge 20, Type (0, 0), BuildingBlock: FUNLAD_clean_linker_1, # of connection points: 2
#     Edge 21, Type (0, 0), BuildingBlock: FUNLAD_clean_linker_1, # of connection points: 2
#     Edge 22, Type (0, 0), BuildingBlock: FUNLAD_clean_linker_1, # of connection points: 2
#     Edge 23, Type (0, 0), BuildingBlock: FUNLAD_clean_linker_1, # of connection points: 2
# Relax obj value: 0.371
# Max RMSD: 0.269
# Mean RMSD: 0.269
data_MOF--net-rkf--node1-BETDEL_clean_sbu_0--edge1-FUNLAD_clean_linker_1
_symmetry_space_group_name_H-M    P1
_symmetry_Int_Tables_number       1
_symmetry_cell_setting            triclinic
loop_
_symmetry_equiv_pos_as_xyz
'x, y, z'
_cell_length_a     24.930384
_cell_length_b     24.543234
_cell_length_c     42.927052
_cell_angle_alpha  89.947062
_cell_angle_beta   90.068796
_cell_angle_gamma 120.20219
loop_
_atom_site_label
_atom_site_type_symbol
_atom_site_fract_x
_atom_site_fract_y
_atom_site_fract_z
_atom_type_partial_charge
Dy0 Dy 0.222 0.02846 0.07547 0.0
C1 C 0.26608 0.22435 0.98837 0.0
C2 C 0.17802 0.92814 0.1155 0.0
Dy3 Dy 0.2823 0.15162 1.03227 0.0
O4 O 0.15312 0.9289 0.08912 0.0
O5 O 0.22892 0.98189 0.11977 0.0
O6 O 0.12909 0.02248 0.06835 0.0
O7 O 0.21041 0.10835 0.0667 0.0
C8 C 0.15364 0.08208 0.06265 0.0
C9 C 0.3564 0.10658 0.04727 0.0
O10 O 0.30373 0.19597 0.08009 0.0
O11 O 0.28447 0.10602 0.10867 0.0
O12 O 0.23722 0.20566 1.01478 0.0
O13 O 0.30795 0.20739 0.9868 0.0
O14 O 0.37833 0.16567 1.03912 0.0
O15 O 0.29868 0.07502 0.04289 0.0
O16 O 0.21887 0.98601 1.02882 0.0
O17 O 0.22439 0.06918 1.00034 0.0
C18 C 0.30484 0.16769 0.10655 0.0
C19 C 0.21187 0.01 1.00249 0.0
Dy20 Dy 0.23161 0.28273 0.40611 0.0
C21 C 0.09101 0.31692 0.3125 0.0
C22 C 0.28257 0.24985 0.45424 0.0
Dy23 Dy 0.17484 0.33575 0.35866 0.0
O24 O 0.24516 0.21175 0.4332 0.0
O25 O 0.29423 0.30683 0.44836 0.0
O26 O 0.14178 0.18816 0.40145 0.0
O27 O 0.14135 0.27122 0.39684 0.0
C28 C 0.10815 0.21326 0.39508 0.0
C29 C 0.29151 0.41705 0.37339 0.0
O30 O 0.15128 0.36696 0.4036 0.0
O31 O 0.21965 0.3522 0.43494 0.0
O32 O 0.14897 0.36192 0.31254 0.0
O33 O 0.07859 0.28592 0.33847 0.0
O34 O 0.25186 0.43411 0.36452 0.0
O35 O 0.26919 0.35783 0.37047 0.0
O36 O 0.26945 0.26559 0.36248 0.0
O37 O 0.19867 0.27295 0.33029 0.0
C38 C 0.17999 0.37287 0.43075 0.0
C39 C 0.24223 0.25785 0.33506 0.0
Dy40 Dy 0.98611 0.23218 0.72815 0.0
C41 C 0.81922 0.12907 0.6321 0.0
C42 C 0.07462 0.25869 0.77401 0.0
Dy43 Dy 0.87477 0.19894 0.68418 0.0
O44 O 0.07894 0.24733 0.74491 0.0
O45 O 0.02248 0.25781 0.77806 0.0
O46 O 0.98036 0.14193 0.70955 0.0
O47 O 0.90178 0.1478 0.7141 0.0
C48 C 0.92104 0.113 0.70499 0.0
C49 C 0.92011 0.31248 0.70898 0.0
O50 O 0.82479 0.16024 0.72963 0.0
O51 O 0.91131 0.22224 0.76071 0.0
O52 O 0.79611 0.15752 0.64855 0.0
O53 O 0.87048 0.13852 0.64457 0.0
O54 O 0.86339 0.27917 0.69823 0.0
O55 O 0.95262 0.28746 0.70187 0.0
O56 O 0.04088 0.28605 0.68605 0.0
O57 O 0.95709 0.24388 0.65205 0.0
C58 C 0.85034 0.18514 0.75709 0.0
C59 C 0.01757 0.27711 0.65748 0.0
Dy60 Dy 0.80869 0.02969 0.05466 0.0
C61 C 0.7311 0.83668 0.96282 0.0
C62 C 0.86637 0.11609 0.10141 0.0
Dy63 Dy 0.73056 0.90408 1.01386 0.0
O64 O 0.87645 0.07054 0.09441 0.0
O65 O 0.82485 0.11521 0.08255 0.0
O66 O 0.88925 0.05229 1.0227 0.0
O67 O 0.82249 0.95864 1.03221 0.0
C68 C 0.8683 0.99356 1.01563 0.0
C69 C 0.6612 0.94004 0.0456 0.0
O70 O 0.75064 0.86785 0.0581 0.0
O71 O 0.76356 0.95102 0.0893 0.0
O72 O 0.70573 0.81168 0.98962 0.0
O73 O 0.75332 0.897 0.96404 0.0
O74 O 0.63767 0.88349 1.03337 0.0
O75 O 0.71559 0.97377 1.03571 0.0
O76 O 0.79161 0.07438 1.01347 0.0
O77 O 0.7529 0.98524 0.98124 0.0
C78 C 0.75511 0.89351 0.08597 0.0
C79 C 0.77311 0.0463 0.98592 0.0
Dy80 Dy 0.85479 0.82761 0.38918 0.0
C81 C 0.9462 0.70042 0.3156 0.0
C82 C 0.83339 0.90135 0.42966 0.0
Dy83 Dy 0.8817 0.7306 0.35706 0.0
O84 O 0.88116 0.92057 0.41163 0.0
O85 O 0.79519 0.84153 0.42483 0.0
O86 O 0.93636 0.90278 0.3618 0.0
O87 O 0.93593 0.82188 0.37673 0.0
C88 C 0.96531 0.87121 0.36117 0.0
C89 C 0.77019 0.67706 0.38319 0.0
O90 O 0.91035 0.72233 0.40584 0.0
O91 O 0.87502 0.78384 0.4298 0.0
O92 O 0.8887 0.68624 0.31235 0.0
O93 O 0.96626 0.72637 0.34262 0.0
O94 O 0.80126 0.6479 0.37862 0.0
O95 O 0.79702 0.73102 0.37015 0.0
O96 O 0.80882 0.82311 0.34416 0.0
O97 O 0.85996 0.77941 0.31799 0.0
C98 C 0.89941 0.74687 0.43096 0.0
C99 C 0.82539 0.80678 0.31807 0.0
Dy100 Dy 0.07247 0.86653 0.72735 0.0
C101 C 0.28278 -0.00036 0.65179 0.0
C102 C 0.96938 0.82176 0.76518 0.0
Dy103 Dy 0.19861 0.91913 0.6946 0.0
O104 O 0.9779 0.85197 0.7392 0.0
O105 O 0.01616 0.81316 0.76998 0.0
O106 O 0.07695 0.95794 0.71344 0.0
O107 O 0.15713 0.95752 0.72428 0.0
C108 C 0.13671 0.9916 0.71521 0.0
C109 C 0.14887 0.79889 0.71043 0.0
O110 O 0.23396 0.93922 0.74384 0.0
O111 O 0.1366 0.8757 0.76658 0.0
O112 O 0.27 0.94187 0.65666 0.0
O113 O 0.25371 0.0142 0.67218 0.0
O114 O 0.20856 0.83748 0.7079 0.0
O115 O 0.11789 0.82395 0.70077 0.0
O116 O 0.03733 0.82931 0.67939 0.0
O117 O 0.12965 0.90293 0.65662 0.0
C118 C 0.19814 0.91113 0.76852 0.0
C119 C 0.07002 0.86044 0.65459 0.0
H120 H 0.93696 0.00804 0.98127 0.0
C121 C 0.89531 0.97079 0.99219 0.0
H122 H 0.84393 0.87586 1.00453 0.0
H123 H 0.1259 0.09648 0.99228 0.0
H124 H 0.14036 0.06341 0.9408 0.0
H125 H 0.06581 0.95767 0.92042 0.0
H126 H 0.97246 0.8858 0.95076 0.0
C127 C 0.88815 0.91269 0.99543 0.0
C128 C 0.94312 0.91068 1.00727 0.0
C129 C -0.00159 0.94788 0.99072 0.0
C130 C 0.04198 0.00758 1.00303 0.0
C131 C 0.09218 0.04984 0.9842 0.0
C132 C 0.10066 0.03146 0.95468 0.0
C133 C 0.05849 0.97179 0.94316 0.0
C134 C 0.0063 0.93085 0.96061 0.0
H135 H 0.14409 0.16653 0.06221 0.0
C136 C 0.12077 0.11655 0.05681 0.0
H137 H 0.04254 0.11752 1.04001 0.0
H138 H 0.86869 0.82236 0.04889 0.0
H139 H 0.86787 0.83867 0.10549 0.0
H140 H 0.94094 0.94198 0.12888 0.0
H141 H 0.0165 0.02876 0.09654 0.0
C142 C 0.06451 0.08954 0.04398 0.0
C143 C 0.03202 0.02336 1.03343 0.0
C144 C -0.01115 0.97497 0.05321 0.0
C145 C 0.94674 0.91579 1.03995 0.0
C146 C 0.90238 0.8673 0.0589 0.0
C147 C 0.90123 0.87656 0.09091 0.0
C148 C 0.94236 0.9349 0.1041 0.0
C149 C 0.98542 0.98418 0.08544 0.0
H150 H 0.0303 0.85093 0.33571 0.0
C151 C 0.02362 0.88857 0.3444 0.0
H152 H 0.11136 0.95708 0.32815 0.0
H153 H 0.004 0.06926 0.44038 0.0
H154 H 0.02427 0.00399 0.47549 0.0
H155 H 0.06875 0.94069 0.45581 0.0
H156 H 0.09073 0.94041 0.40049 0.0
C157 C 0.0703 0.94823 0.34106 0.0
C158 C 0.06707 0.00229 0.3543 0.0
C159 C 0.0585 0.00493 0.3868 0.0
C160 C 0.03528 0.04309 0.39827 0.0
C161 C 0.02274 0.04176 0.43053 0.0
C162 C 0.03426 0.00461 0.45093 0.0
C163 C 0.05901 0.96874 0.43981 0.0
C164 C 0.07114 0.96875 0.40811 0.0
H165 H 0.01972 0.2106 0.40351 0.0
C166 C 0.03991 0.18217 0.39671 0.0
H167 H 0.9518 0.10225 0.39137 0.0
H168 H 0.09641 0.02065 0.29245 0.0
H169 H 0.08798 0.09489 0.2581 0.0
H170 H 0.04837 0.16239 0.27784 0.0
H171 H 0.01768 0.15644 0.33201 0.0
C172 C 0.00159 0.12184 0.38939 0.0
C173 C 0.02502 0.08149 0.37738 0.0
C174 C 0.04112 0.08482 0.3455 0.0
C175 C 0.06287 0.04536 0.33398 0.0
C176 C 0.07891 0.04924 0.30216 0.0
C177 C 0.07443 0.09172 0.28228 0.0
C178 C 0.05236 0.12989 0.29342 0.0
C179 C 0.03526 0.12627 0.32459 0.0
H180 H 0.22547 0.08114 0.71698 0.0
C181 C 0.1761 0.06089 0.71274 0.0
H182 H 0.18872 0.15055 0.7042 0.0
H183 H 0.88574 0.96452 0.73196 0.0
H184 H 0.91636 0.96278 0.78561 0.0
H185 H 0.02633 0.01803 0.80053 0.0
H186 H 0.10762 0.074 0.76172 0.0
C187 C 0.15538 0.10049 0.70612 0.0
C188 C 0.08966 0.07835 0.69875 0.0
C189 C 0.04384 0.05077 0.72236 0.0
C190 C 0.9804 0.02163 0.71419 0.0
C191 C 0.93481 0.98928 0.73738 0.0
C192 C 0.95171 0.98778 0.76814 0.0
C193 C 0.01392 0.01893 0.77651 0.0
C194 C 0.0598 0.05047 0.75404 0.0
H195 H 0.83306 0.03985 0.68411 0.0
C196 C 0.88104 0.05288 0.68826 0.0
H197 H 0.86822 0.97265 0.6642 0.0
H198 H 0.16644 0.12883 0.6481 0.0
H199 H 0.13483 0.13481 0.59526 0.0
H200 H 0.02415 0.0903 0.58202 0.0
H201 H 0.94442 0.03995 0.62175 0.0
C202 C 0.90007 0.01428 0.67741 0.0
C203 C 0.96349 0.02692 0.68337 0.0
C204 C 0.00892 0.05508 0.65983 0.0
C205 C 0.07243 0.08072 0.6675 0.0
C206 C 0.11736 0.10886 0.64361 0.0
C207 C 0.09984 0.11259 0.61318 0.0
C208 C 0.03754 0.08767 0.60573 0.0
C209 C -0.00766 0.05912 0.62871 0.0
H210 H 0.20404 0.25409 0.96743 0.0
C211 C 0.24252 0.24666 0.9622 0.0
H212 H 0.29589 0.2382 0.92677 0.0
H213 H 0.10558 0.15659 0.81649 0.0
H214 H 0.12273 0.06839 0.82231 0.0
H215 H 0.17732 0.05977 0.86781 0.0
H216 H 0.22351 0.14324 0.90586 0.0
C217 C 0.25963 0.24896 0.93216 0.0
C218 C 0.2229 0.25426 0.90535 0.0
C219 C 0.19503 0.20472 0.8831 0.0
C220 C 0.16004 0.20832 0.85746 0.0
C221 C 0.13343 0.15762 0.83599 0.0
C222 C 0.14193 0.10601 0.83924 0.0
C223 C 0.17359 0.10146 0.86471 0.0
C224 C 0.19985 0.14992 0.88642 0.0
H225 H 0.16137 0.26466 0.79086 0.0
C226 C 0.11959 0.26406 0.79856 0.0
H227 H 0.06764 0.26361 0.83724 0.0
H228 H 0.27621 0.36182 0.94035 0.0
H229 H 0.26218 0.45201 0.93425 0.0
H230 H 0.19705 0.45567 0.89197 0.0
H231 H 0.14622 0.36956 0.85516 0.0
C232 C 0.10856 0.26256 0.82947 0.0
C233 C 0.15117 0.26104 0.85424 0.0
C234 C 0.17941 0.31075 0.87639 0.0
C235 C 0.21603 0.30797 0.90144 0.0
C236 C 0.24612 0.36021 0.92179 0.0
C237 C 0.2389 0.4126 0.91837 0.0
C238 C 0.20228 0.4147 0.89453 0.0
C239 C 0.17307 0.36473 0.87366 0.0
H240 H 0.0036 0.25172 0.28877 0.0
C241 C 0.04948 0.29234 0.285 0.0
H242 H 0.11642 0.34873 0.25175 0.0
H243 H 0.03052 0.15543 0.14184 0.0
H244 H 0.13275 0.17279 0.15385 0.0
H245 H 0.18971 0.23369 0.20019 0.0
H246 H 0.14546 0.27885 0.23444 0.0
C247 C 0.06922 0.31053 0.25558 0.0
C248 C 0.03263 0.2718 0.22795 0.0
C249 C 0.05852 0.24431 0.20834 0.0
C250 C 0.02435 0.20668 0.18227 0.0
C251 C 0.05299 0.18235 0.16256 0.0
C252 C 0.11197 0.19222 0.16907 0.0
C253 C 0.14413 0.22667 0.19511 0.0
C254 C 0.11811 0.25261 0.21452 0.0
H255 H 0.89762 0.20592 0.12693 0.0
C256 C 0.89785 0.1618 0.12712 0.0
H257 H 0.92526 0.10424 0.1498 0.0
H258 H 0.97175 0.32359 0.25751 0.0
H259 H 0.86504 0.29692 0.24925 0.0
H260 H 0.80034 0.2191 0.20936 0.0
H261 H 0.84244 0.16936 0.17678 0.0
C262 C 0.92599 0.1488 0.15051 0.0
C263 C 0.96278 0.19365 0.17639 0.0
C264 C 0.93606 0.21934 0.19672 0.0
C265 C 0.97192 0.26052 0.22154 0.0
C266 C 0.94563 0.28939 0.23961 0.0
C267 C 0.88455 0.27485 0.23497 0.0
C268 C 0.84824 0.23132 0.21239 0.0
C269 C 0.87335 0.20364 0.19351 0.0
H270 H 0.74986 0.08363 0.59376 0.0
C271 C 0.79411 0.09235 0.60291 0.0
H272 H 0.87062 0.07838 0.59786 0.0
H273 H 0.76536 0.8382 0.51706 0.0
H274 H 0.76066 0.79406 0.56805 0.0
H275 H 0.77565 0.85648 0.6156 0.0
H276 H 0.7953 0.9636 0.61238 0.0
C277 C 0.82699 0.07013 0.58796 0.0
C278 C 0.80603 0.02987 0.55934 0.0
C279 C 0.79243 0.96646 0.5614 0.0
C280 C 0.783 0.93016 0.53388 0.0
C281 C 0.77168 0.86773 0.53699 0.0
C282 C 0.76907 0.84173 0.5662 0.0
C283 C 0.77766 0.87691 0.59297 0.0
C284 C 0.78915 0.93846 0.59076 0.0
H285 H 0.87108 0.98677 0.4585 0.0
C286 C 0.83033 0.94052 0.45507 0.0
H287 H 0.74285 0.87316 0.47243 0.0
H288 H 0.83503 0.15083 0.54664 0.0
H289 H 0.83853 0.19523 0.4957 0.0
H290 H 0.81415 0.13021 0.4483 0.0
H291 H 0.78774 0.02083 0.45146 0.0
C292 C 0.78274 0.92017 0.47524 0.0
C293 C 0.78711 0.95717 0.50404 0.0
C294 C 0.79811 0.01988 0.50207 0.0
C295 C 0.80904 0.05661 0.52963 0.0
C296 C 0.82447 0.12031 0.52665 0.0
C297 C 0.82676 0.14645 0.49753 0.0
C298 C 0.81325 0.1099 0.47083 0.0
C299 C 0.79873 0.04729 0.47295 0.0
H300 H 0.74704 0.76262 0.94255 0.0
C301 C 0.74707 0.80599 0.93749 0.0
H302 H 0.77064 0.88053 0.90629 0.0
H303 H -0.00118 0.90986 0.83651 0.0
H304 H 0.04152 0.00535 0.86716 0.0
H305 H 0.98064 0.01759 0.90866 0.0
H306 H 0.87539 0.93553 0.91927 0.0
C307 C 0.77061 0.83676 0.91032 0.0
C308 C 0.80919 0.8231 0.88823 0.0
C309 C 0.87171 0.87104 0.88281 0.0
C310 C 0.90801 0.86309 0.85954 0.0
C311 C 0.96935 0.91287 0.85409 0.0
C312 C -0.00555 0.96826 0.87135 0.0
C313 C 0.95991 0.97534 0.8946 0.0
C314 C 0.89945 0.92755 0.90046 0.0
H315 H 0.88409 0.82065 0.78003 0.0
C316 C 0.91986 0.8108 0.78781 0.0
H317 H 0.96066 0.7931 0.82662 0.0
H318 H 0.69058 0.72304 0.89061 0.0
H319 H 0.64865 0.62629 0.8607 0.0
H320 H 0.71346 0.61049 0.82252 0.0
H321 H 0.82066 0.6919 0.81365 0.0
C322 C 0.9226 0.79875 0.81822 0.0
C323 C 0.88277 0.80655 0.84201 0.0
C324 C 0.82075 0.75811 0.84771 0.0
C325 C 0.7837 0.7666 0.8705 0.0
C326 C 0.72123 0.71844 0.87442 0.0
C327 C 0.69649 0.66278 0.85726 0.0
C328 C 0.73298 0.65392 0.83571 0.0
C329 C 0.79436 0.70093 0.83083 0.0
H330 H 0.03685 0.72581 0.29518 0.0
C331 C -0.01097 0.7113 0.28946 0.0
H332 H 0.92862 0.71183 0.25538 0.0
H333 H 0.12394 0.9603 0.19073 0.0
H334 H 0.07383 -0.00043 0.22494 0.0
H335 H 0.00322 0.93227 0.26651 0.0
H336 H 0.97886 0.8244 0.27273 0.0
C337 C 0.97525 0.7212 0.26045 0.0
C338 C 0.02517 0.76339 0.23826 0.0
C339 C 0.03935 0.82682 0.23502 0.0
C340 C 0.08281 0.86666 0.21218 0.0
C341 C 0.09317 0.92862 0.20842 0.0
C342 C 0.06442 0.95173 0.22779 0.0
C343 C 0.0243 0.91376 0.25101 0.0
C344 C 0.01103 0.85185 0.25443 0.0
H345 H 0.10312 0.83579 0.13154 0.0
C346 C 0.14529 0.87794 0.13893 0.0
H347 H 0.19919 0.93069 0.17712 0.0
H348 H 0.00992 0.64533 0.23892 0.0
H349 H 0.06578 0.60796 0.20732 0.0
H350 H 0.14534 0.67859 0.16971 0.0
H351 H 0.16919 0.78684 0.16314 0.0
C352 C 0.15948 0.88671 0.16938 0.0
C353 C 0.11421 0.84401 0.19335 0.0
C354 C 0.10177 0.78126 0.19743 0.0
C355 C 0.05671 0.74075 0.21966 0.0
C356 C 0.04412 0.67802 0.22264 0.0
C357 C 0.07583 0.65606 0.20467 0.0
C358 C 0.12059 0.69583 0.18345 0.0
C359 C 0.13366 0.75776 0.1798 0.0
H360 H 0.32155 0.01323 0.60404 0.0
C361 C 0.3053 0.03328 0.62166 0.0
H362 H 0.27375 0.09671 0.63111 0.0
H363 H 0.40069 0.21961 0.49515 0.0
H364 H 0.49987 0.2528 0.51995 0.0
H365 H 0.50512 0.21689 0.57297 0.0
H366 H 0.411 0.14656 0.60138 0.0
C367 C 0.29376 0.07972 0.61385 0.0
C368 C 0.2921 0.09848 0.58082 0.0
C369 C 0.34726 0.14066 0.56473 0.0
C370 C 0.3441 0.1631 0.53444 0.0
C371 C 0.40017 0.20301 0.51855 0.0
C372 C 0.45748 0.22206 0.53244 0.0
C373 C 0.46044 0.20173 0.56227 0.0
C374 C 0.40612 0.16143 0.57833 0.0
H375 H 0.32466 0.26489 0.5012 0.0
C376 C 0.30003 0.22974 0.48329 0.0
H377 H 0.2544 0.13361 0.47129 0.0
H378 H 0.17754 0.01351 0.60383 0.0
H379 H 0.07823 0.98007 0.57931 0.0
H380 H 0.07205 0.02246 0.52827 0.0
H381 H 0.16524 0.09795 0.50105 0.0
C382 C 0.2808 0.16855 0.48905 0.0
C383 C 0.28557 0.14476 0.52058 0.0
C384 C 0.23035 0.10116 0.53646 0.0
C385 C 0.2337 0.07776 0.56638 0.0
C386 C 0.1778 0.03354 0.58133 0.0
C387 C 0.12036 0.0136 0.56745 0.0
C388 C 0.11692 0.03748 0.53868 0.0
C389 C 0.17098 0.08078 0.52329 0.0
H390 H 0.36775 0.0263 0.05972 0.0
C391 C 0.39311 0.07605 0.05361 0.0
H392 H 0.48012 0.15331 0.0412 0.0
H393 H 0.54416 0.94495 0.10758 0.0
H394 H 0.51542 0.974 0.15621 0.0
H395 H 0.47411 0.04667 0.15663 0.0
H396 H 0.46101 0.09055 0.10841 0.0
C397 C 0.45456 0.10468 0.04912 0.0
C398 C 0.48621 0.06687 0.0496 0.0
C399 C 0.49472 0.04263 0.07803 0.0
C400 C 0.51981 0.00178 0.07786 0.0
C401 C 0.52641 0.97707 0.10648 0.0
C402 C 0.50991 0.9932 0.13452 0.0
C403 C 0.48652 0.03402 0.13475 0.0
C404 C 0.47895 0.05863 0.10691 0.0
H405 H 0.65061 0.01577 0.06631 0.0
C406 C 0.62499 0.96864 0.05645 0.0
H407 H 0.54055 0.90017 1.03641 0.0
H408 H 0.47747 0.10638 0.99107 0.0
H409 H 0.50875 0.07959 0.94266 0.0
H410 H 0.55373 0.01018 0.94244 0.0
H411 H 0.56783 0.9672 0.99055 0.0
C412 C 0.56521 0.94489 0.04869 0.0
C413 C 0.53713 0.98599 0.04931 0.0
C414 C 0.52975 0.01125 1.02094 0.0
C415 C 0.50438 0.05179 1.02109 0.0
C416 C 0.49694 0.07575 0.99237 0.0
C417 C 0.51469 0.06076 0.96438 0.0
C418 C 0.54004 0.02171 0.96425 0.0
C419 C 0.5477 -0.0028 0.99209 0.0
H420 H 0.36944 0.51286 0.38105 0.0
C421 C 0.35745 0.46392 0.37855 0.0
H422 H 0.39243 0.40198 0.37342 0.0
H423 H 0.6463 0.62731 0.31971 0.0
H424 H 0.59661 0.57215 0.27202 0.0
H425 H 0.48821 0.48431 0.2722 0.0
H426 H 0.42894 0.45095 0.32018 0.0
C427 C 0.403 0.45002 0.37771 0.0
C428 C 0.46921 0.5017 0.37812 0.0
C429 C 0.50335 0.52069 0.34991 0.0
C430 C 0.56574 0.57172 0.34978 0.0
C431 C 0.59868 0.58926 0.32121 0.0
C432 C 0.57072 0.55794 0.29361 0.0
C433 C 0.50972 0.50848 0.29372 0.0
C434 C 0.47622 0.48983 0.32145 0.0
H435 H 0.68719 0.59555 0.4024 0.0
C436 C 0.70336 0.64005 0.39028 0.0
H437 H 0.67665 0.69471 0.36368 0.0
H438 H 0.41775 0.47601 0.43632 0.0
H439 H 0.46636 0.53302 0.48392 0.0
H440 H 0.57331 0.62361 0.48344 0.0
H441 H 0.63255 0.65751 0.43538 0.0
C442 C 0.66142 0.65286 0.37795 0.0
C443 C 0.59422 0.60344 0.37795 0.0
C444 C 0.55972 0.58504 0.40609 0.0
C445 C 0.4974 0.53378 0.40623 0.0
C446 C 0.4647 0.51542 0.4348 0.0
C447 C 0.49212 0.54759 0.4623 0.0
C448 C 0.55241 0.59851 0.46204 0.0
C449 C 0.58602 0.61726 0.43434 0.0
H450 H 0.91227 0.39467 0.72157 0.0
C451 C 0.94553 0.37971 0.71617 0.0
H452 H 0.03837 0.40985 0.70433 0.0
H453 H 0.08091 0.66867 0.64996 0.0
H454 H 0.08651 0.6156 0.6035 0.0
H455 H 0.06045 0.50462 0.60541 0.0
H456 H 0.03217 0.44679 0.65413 0.0
C457 C 0.00529 0.42361 0.71191 0.0
C458 C 0.02398 0.49175 0.71135 0.0
C459 C 0.04007 0.5247 0.68256 0.0
C460 C 0.05323 0.58824 0.68124 0.0
C461 C 0.06995 0.62022 0.65227 0.0
C462 C 0.07305 0.59026 0.62537 0.0
C463 C 0.05882 0.52786 0.6265 0.0
C464 C 0.04255 0.49522 0.65466 0.0
H465 H 0.15575 0.71735 0.7256 0.0
C466 C 0.12392 0.73117 0.71605 0.0
H467 H 0.03577 0.69868 0.69577 0.0
H468 H 0.00076 0.44467 0.77069 0.0
H469 H -0.00431 0.49803 0.81724 0.0
H470 H 0.01434 0.60665 0.81451 0.0
H471 H 0.03866 0.66281 0.76524 0.0
C472 C 0.06706 0.68627 0.70723 0.0
C473 C 0.05013 0.61875 0.70864 0.0
C474 C 0.03455 0.58605 0.73745 0.0
C475 C 0.02217 0.52276 0.73888 0.0
C476 C 0.0088 0.49207 0.76815 0.0
C477 C 0.00612 0.52229 0.79507 0.0
C478 C 0.01677 0.58351 0.79354 0.0
C479 C 0.03087 0.61527 0.76514 0.0
H480 H 0.30023 0.23689 0.13714 0.0
C481 C 0.31511 0.20224 0.13619 0.0
H482 H 0.34648 0.14992 0.16068 0.0
H483 H 0.314 0.34962 0.25909 0.0
H484 H 0.3832 0.43523 0.22503 0.0
H485 H 0.42631 0.41449 0.17779 0.0
H486 H 0.39939 0.30787 0.16399 0.0
C487 C 0.33082 0.18379 0.1626 0.0
C488 C 0.3171 0.19936 0.1944 0.0
C489 C 0.33559 0.26235 0.20293 0.0
C490 C 0.3129 0.27463 0.23095 0.0
C491 C 0.33014 0.33766 0.23822 0.0
C492 C 0.37009 0.3873 0.21896 0.0
C493 C 0.39424 0.3756 0.19232 0.0
C494 C 0.37769 0.31406 0.18441 0.0
H495 H 0.30093 0.22519 0.31257 0.0
C496 C 0.26524 0.23738 0.30833 0.0
H497 H 0.21262 0.25218 0.27429 0.0
H498 H 0.27975 0.07289 0.18849 0.0
H499 H 0.22514 0.99149 0.22667 0.0
H500 H 0.18966 0.01403 0.27587 0.0
H501 H 0.21054 0.11938 0.28759 0.0
C502 C 0.24616 0.23726 0.27895 0.0
C503 C 0.27482 0.22456 0.25142 0.0
C504 C 0.26202 0.16263 0.24469 0.0
C505 C 0.28268 0.14979 0.21611 0.0
C506 C 0.26717 0.08673 0.20986 0.0
C507 C 0.23505 0.03892 0.23153 0.0
C508 C 0.21518 0.05163 0.25929 0.0
C509 C 0.22766 0.11245 0.26573 0.0
H510 H 0.11371 0.38976 0.4573 0.0
C511 C 0.15585 0.38719 0.45918 0.0
H512 H 0.21801 0.37855 0.48965 0.0
H513 H 0.10903 0.42976 0.61314 0.0
H514 H 0.18934 0.53798 0.60354 0.0
H515 H 0.24684 0.56834 0.55385 0.0
H516 H 0.22387 0.49051 0.51329 0.0
C517 C 0.17627 0.38177 0.48748 0.0
C518 C 0.1371 0.36534 0.51589 0.0
C519 C 0.15146 0.411 0.53946 0.0
C520 C 0.11881 0.39327 0.56828 0.0
C521 C 0.13313 0.44028 0.59109 0.0
C522 C 0.179 0.50266 0.58582 0.0
C523 C 0.21134 0.51977 0.55783 0.0
C524 C 0.19787 0.47468 0.53481 0.0
H525 H 0.10846 0.32507 0.63311 0.0
C526 C 0.05902 0.30725 0.63055 0.0
H527 H 0.98585 0.29211 0.60028 0.0
H528 H 0.09946 0.26471 0.47609 0.0
H529 H 0.01904 0.15688 0.48556 0.0
H530 H 0.96176 0.12637 0.5353 0.0
H531 H 0.98511 0.20356 0.5759 0.0
C532 C 0.03541 0.31037 0.60277 0.0
C533 C 0.07228 0.32964 0.57351 0.0
C534 C 0.05744 0.28397 0.54979 0.0
C535 C 0.09014 0.30168 0.52104 0.0
C536 C 0.07561 0.25448 0.49819 0.0
C537 C 0.02956 0.19212 0.50335 0.0
C538 C -0.00267 0.17495 0.53133 0.0
C539 C 0.01107 0.21997 0.5544 0.0
H540 H 0.76966 0.11758 0.7851 0.0
C541 C 0.81237 0.16293 0.78562 0.0
H542 H 0.87857 0.23762 0.81316 0.0
H543 H 0.66364 0.07128 0.91981 0.0
H544 H 0.59534 0.09827 0.89177 0.0
H545 H 0.62735 0.15449 0.84146 0.0
H546 H 0.72755 0.18362 0.81875 0.0
C547 C 0.83541 0.1926 0.81288 0.0
C548 C 0.8146 0.15887 0.84308 0.0
C549 C 0.75626 0.14298 0.85606 0.0
C550 C 0.73808 0.11122 0.88522 0.0
C551 C 0.67946 0.0953 0.89768 0.0
C552 C 0.64 0.11068 0.88188 0.0
C553 C 0.65803 0.14233 0.85355 0.0
C554 C 0.71553 0.15859 0.84071 0.0
H555 H 0.80595 0.13624 0.96075 0.0
C556 C 0.77899 0.08524 0.95857 0.0
H557 H 0.73075 0.0079 0.92792 0.0
H558 H 0.92856 0.17937 0.8239 0.0
H559 H -0.00352 0.15311 0.85237 0.0
H560 H 0.96742 0.10417 0.90423 0.0
H561 H 0.86781 0.07527 0.92679 0.0
C562 C 0.75808 0.0588 0.93048 0.0
C563 C 0.77866 0.09649 0.90144 0.0
C564 C 0.83733 0.11306 0.88866 0.0
C565 C 0.85513 0.14383 0.85933 0.0
C566 C 0.91308 0.15754 0.8465 0.0
C567 C 0.95266 0.14272 0.86254 0.0
C568 C 0.93595 0.11432 0.89159 0.0
C569 C 0.87874 0.09868 0.90442 0.0
H570 H 0.75966 0.81746 0.11177 0.0
C571 C 0.75664 0.85984 0.11441 0.0
H572 H 0.75769 0.92691 0.1454 0.0
H573 H 0.71794 0.702 0.24582 0.0
H574 H 0.6255 0.63005 0.21668 0.0
H575 H 0.59913 0.66355 0.16761 0.0
H576 H 0.66532 0.76857 0.14704 0.0
C577 C 0.7596 0.88382 0.14308 0.0
C578 C 0.77526 0.86062 0.17202 0.0
C579 C 0.7351 0.79925 0.18405 0.0
C580 C 0.74932 0.78041 0.21292 0.0
C581 C 0.70911 0.71869 0.22414 0.0
C582 C 0.65584 0.67702 0.20771 0.0
C583 C 0.64105 0.69587 0.18005 0.0
C584 C 0.67981 0.75627 0.16835 0.0
H585 H 0.78375 0.84988 0.28867 0.0
C586 C 0.80633 0.82182 0.28809 0.0
H587 H 0.83867 0.77447 0.25927 0.0
H588 H 0.86567 0.97971 0.15483 0.0
H589 H 0.95637 0.05167 0.18507 0.0
H590 H 0.9752 0.02175 0.23682 0.0
H591 H 0.90505 0.91874 0.25843 0.0
C592 C 0.81739 0.80368 0.2604 0.0
C593 C 0.80202 0.82361 0.23039 0.0
C594 C 0.84155 0.88512 0.21864 0.0
C595 C 0.82902 0.90318 0.18922 0.0
C596 C 0.87156 0.96396 0.17746 0.0
C597 C 0.92394 0.00579 0.19447 0.0
C598 C 0.93485 0.98883 0.22358 0.0
C599 C 0.89431 0.92937 0.23564 0.0
H600 H 0.8896 0.68835 0.47208 0.0
C601 C 0.91593 0.73538 0.46226 0.0
H602 H 0.97896 0.83123 0.46906 0.0
H603 H 0.95032 0.87782 0.60759 0.0
H604 H 0.92672 0.9501 0.58054 0.0
H605 H 0.91452 0.94552 0.52345 0.0
H606 H 0.92493 0.86859 0.49313 0.0
C607 C 0.9545 0.7851 0.48007 0.0
C608 C 0.95749 0.78333 0.51492 0.0
C609 C 0.94852 0.82729 0.53257 0.0
C610 C 0.9554 0.83004 0.56557 0.0
C611 C 0.94678 0.87463 0.58246 0.0
C612 C 0.93287 0.91617 0.56727 0.0
C613 C 0.92593 0.91353 0.53514 0.0
C614 C 0.93272 0.86927 0.51794 0.0
H615 H 0.07144 0.88145 0.60497 0.0
C616 C 0.04284 0.84854 0.62305 0.0
H617 H 0.96011 0.76255 0.6318 0.0
H618 H 0.98644 0.69888 0.48895 0.0
H619 H 0.00591 0.62461 0.51653 0.0
H620 H 0.00711 0.62269 0.57391 0.0
H621 H -0.00854 0.69709 0.60409 0.0
C622 C -0.01165 0.79845 0.61481 0.0
C623 C 0.97047 0.78851 0.58113 0.0
C624 C 0.97618 0.7425 0.56383 0.0
C625 C 0.97183 0.74121 0.53066 0.0
C626 C 0.98471 0.69924 0.51406 0.0
C627 C -0.00302 0.65688 0.52965 0.0
C628 C -0.00188 0.6561 0.56197 0.0
C629 C -0.01123 0.69887 0.57898 0.0
H630 H 0.27626 0.94641 0.80225 0.0
C631 C 0.22627 0.92511 0.79995 0.0
H632 H 0.14109 0.89607 0.82279 0.0
H633 H 0.19499 0.86435 0.95976 0.0
H634 H 0.13257 0.75495 0.94406 0.0
H635 H 0.10775 0.72649 0.88868 0.0
H636 H 0.14577 0.80724 0.84867 0.0
C637 C 0.19107 0.91725 0.82525 0.0
C638 C 0.21573 0.93467 0.85758 0.0
C639 C 0.19296 0.88702 0.88078 0.0
C640 C 0.20628 0.90344 0.91277 0.0
C641 C 0.18442 0.85465 0.93525 0.0
C642 C 0.149 0.7916 0.92653 0.0
C643 C 0.13508 0.77557 0.89535 0.0
C644 C 0.15689 0.82246 0.87264 0.0
H645 H 0.15389 0.94704 0.9647 0.0
C646 C 0.20107 0.9751 0.97326 0.0
H647 H 0.29637 0.01679 0.96381 0.0
H648 H 0.26821 0.03889 0.81925 0.0
H649 H 0.33319 0.14726 0.83493 0.0
H650 H 0.35674 0.17553 0.89034 0.0
H651 H 0.31528 0.09541 0.93031 0.0
C652 C 0.24951 0.98636 0.95513 0.0
C653 C 0.24134 0.96769 0.92163 0.0
C654 C 0.26736 0.01523 0.89833 0.0
C655 C 0.2543 -0.0012 0.86627 0.0
C656 C 0.2782 0.04778 0.84378 0.0
C657 C 0.31534 0.11061 0.85248 0.0
C658 C 0.32855 0.12653 0.88367 0.0
C659 C 0.30449 0.07978 0.90642 0.0
loop_
_geom_bond_atom_site_label_1
_geom_bond_atom_site_label_2
_geom_bond_distance
_geom_bond_site_symmetry_2
_ccdc_geom_bond_type
Dy0 O4 2.398 1_545 S
Dy0 O5 2.491 1_545 S
Dy0 O6 2.403 . S
Dy0 O7 2.664 1_554 S
Dy0 O11 2.326 . S
Dy0 O15 2.310 . S
Dy0 O16 2.351 1_544 S
C1 O12 1.185 . S
C1 O13 1.355 . S
C2 O4 1.185 . S
C2 O5 1.355 . S
Dy3 O7 2.310 . S
Dy3 O10 2.351 1_556 S
Dy3 O12 2.398 . S
Dy3 O13 2.491 . S
Dy3 O14 2.403 . S
Dy3 O15 2.664 1_556 S
Dy3 O17 2.326 . S
O4 Dy0 2.398 1_565 S
O4 C2 1.185 . S
O5 Dy0 2.491 1_565 S
O5 C2 1.355 . S
O6 Dy0 2.403 . S
O6 C8 1.254 . S
O7 Dy0 2.664 1_556 S
O7 Dy3 2.310 . S
O7 C8 1.268 1_556 S
C8 O6 1.254 . S
C8 O7 1.268 1_554 S
C9 O14 1.239 1_554 S
C9 O15 1.276 . S
O10 Dy3 2.351 1_554 S
O10 C18 1.249 . S
O11 Dy0 2.326 . S
O11 C18 1.267 . S
O12 C1 1.185 . S
O12 Dy3 2.398 . S
O13 C1 1.355 . S
O13 Dy3 2.491 . S
O14 Dy3 2.403 . S
O14 C9 1.239 1_556 S
O15 Dy0 2.310 . S
O15 Dy3 2.664 1_554 S
O15 C9 1.276 . S
O16 Dy0 2.351 1_566 S
O16 C19 1.249 1_565 S
O17 Dy3 2.326 . S
O17 C19 1.267 . S
C18 O10 1.249 . S
C18 O11 1.267 . S
C19 O16 1.249 1_545 S
C19 O17 1.267 . S
Dy20 O24 2.398 . S
Dy20 O25 2.491 . S
Dy20 O26 2.403 . S
Dy20 O27 2.664 . S
Dy20 O31 2.326 . S
Dy20 O35 2.310 . S
Dy20 O36 2.351 . S
C21 O32 1.185 . S
C21 O33 1.355 . S
C22 O24 1.185 . S
C22 O25 1.355 . S
Dy23 O27 2.310 . S
Dy23 O30 2.351 . S
Dy23 O32 2.398 . S
Dy23 O33 2.491 . S
Dy23 O34 2.403 . S
Dy23 O35 2.664 . S
Dy23 O37 2.326 . S
O24 Dy20 2.398 . S
O24 C22 1.185 . S
O25 Dy20 2.491 . S
O25 C22 1.355 . S
O26 Dy20 2.403 . S
O26 C28 1.254 . S
O27 Dy20 2.664 . S
O27 Dy23 2.310 . S
O27 C28 1.268 . S
C28 O26 1.254 . S
C28 O27 1.268 . S
C29 O34 1.254 . S
C29 O35 1.268 . S
O30 Dy23 2.351 . S
O30 C38 1.249 . S
O31 Dy20 2.326 . S
O31 C38 1.267 . S
O32 C21 1.185 . S
O32 Dy23 2.398 . S
O33 C21 1.355 . S
O33 Dy23 2.491 . S
O34 Dy23 2.403 . S
O34 C29 1.254 . S
O35 Dy20 2.310 . S
O35 Dy23 2.664 . S
O35 C29 1.268 . S
O36 Dy20 2.351 . S
O36 C39 1.249 . S
O37 Dy23 2.326 . S
O37 C39 1.267 . S
C38 O30 1.249 . S
C38 O31 1.267 . S
C39 O36 1.249 . S
C39 O37 1.267 . S
Dy40 O44 2.398 . S
Dy40 O45 2.491 . S
Dy40 O46 2.403 . S
Dy40 O47 2.664 1_455 S
Dy40 O51 2.326 1_455 S
Dy40 O55 2.310 . S
Dy40 O56 2.351 . S
C41 O52 1.185 . S
C41 O53 1.355 . S
C42 O44 1.185 . S
C42 O45 1.355 . S
Dy43 O47 2.310 . S
Dy43 O50 2.351 . S
Dy43 O52 2.398 . S
Dy43 O53 2.491 . S
Dy43 O54 2.403 . S
Dy43 O55 2.664 1_655 S
Dy43 O57 2.326 1_655 S
O44 Dy40 2.398 . S
O44 C42 1.185 . S
O45 Dy40 2.491 . S
O45 C42 1.355 . S
O46 Dy40 2.403 . S
O46 C48 1.254 . S
O47 Dy40 2.664 1_655 S
O47 Dy43 2.310 . S
O47 C48 1.268 1_655 S
C48 O46 1.254 . S
C48 O47 1.268 1_455 S
C49 O54 1.254 . S
C49 O55 1.268 1_655 S
O50 Dy43 2.351 . S
O50 C58 1.249 . S
O51 Dy40 2.326 1_655 S
O51 C58 1.267 . S
O52 C41 1.185 . S
O52 Dy43 2.398 . S
O53 C41 1.355 . S
O53 Dy43 2.491 . S
O54 Dy43 2.403 . S
O54 C49 1.254 . S
O55 Dy40 2.310 . S
O55 Dy43 2.664 1_455 S
O55 C49 1.268 1_455 S
O56 Dy40 2.351 . S
O56 C59 1.249 . S
O57 Dy43 2.326 1_455 S
O57 C59 1.267 . S
C58 O50 1.249 . S
C58 O51 1.267 . S
C59 O56 1.249 . S
C59 O57 1.267 . S
Dy60 O64 2.398 . S
Dy60 O65 2.491 . S
Dy60 O66 2.403 . S
Dy60 O67 2.664 1_544 S
Dy60 O71 2.326 1_545 S
Dy60 O75 2.310 . S
Dy60 O76 2.351 1_554 S
C61 O72 1.185 . S
C61 O73 1.355 . S
C62 O64 1.185 . S
C62 O65 1.355 . S
Dy63 O67 2.310 . S
Dy63 O70 2.351 1_556 S
Dy63 O72 2.398 . S
Dy63 O73 2.491 . S
Dy63 O74 2.403 . S
Dy63 O75 2.664 1_566 S
Dy63 O77 2.326 1_565 S
O64 Dy60 2.398 . S
O64 C62 1.185 . S
O65 Dy60 2.491 . S
O65 C62 1.355 . S
O66 Dy60 2.403 . S
O66 C68 1.254 . S
O67 Dy60 2.664 1_566 S
O67 Dy63 2.310 . S
O67 C68 1.268 1_566 S
C68 O66 1.254 . S
C68 O67 1.268 1_544 S
C69 O74 1.239 1_554 S
C69 O75 1.276 1_565 S
O70 Dy63 2.351 1_554 S
O70 C78 1.249 . S
O71 Dy60 2.326 1_565 S
O71 C78 1.267 . S
O72 C61 1.185 . S
O72 Dy63 2.398 . S
O73 C61 1.355 . S
O73 Dy63 2.491 . S
O74 Dy63 2.403 . S
O74 C69 1.239 1_556 S
O75 Dy60 2.310 . S
O75 Dy63 2.664 1_544 S
O75 C69 1.276 1_545 S
O76 Dy60 2.351 1_556 S
O76 C79 1.249 . S
O77 Dy63 2.326 1_545 S
O77 C79 1.267 . S
C78 O70 1.249 . S
C78 O71 1.267 . S
C79 O76 1.249 . S
C79 O77 1.267 . S
Dy80 O84 2.398 . S
Dy80 O85 2.491 . S
Dy80 O86 2.403 . S
Dy80 O87 2.664 . S
Dy80 O91 2.326 . S
Dy80 O95 2.310 . S
Dy80 O96 2.351 . S
C81 O92 1.185 . S
C81 O93 1.355 . S
C82 O84 1.185 . S
C82 O85 1.355 . S
Dy83 O87 2.310 . S
Dy83 O90 2.351 . S
Dy83 O92 2.398 . S
Dy83 O93 2.491 . S
Dy83 O94 2.403 . S
Dy83 O95 2.664 . S
Dy83 O97 2.326 . S
O84 Dy80 2.398 . S
O84 C82 1.185 . S
O85 Dy80 2.491 . S
O85 C82 1.355 . S
O86 Dy80 2.403 . S
O86 C88 1.254 . S
O87 Dy80 2.664 . S
O87 Dy83 2.310 . S
O87 C88 1.268 . S
C88 O86 1.254 . S
C88 O87 1.268 . S
C89 O94 1.254 . S
C89 O95 1.268 . S
O90 Dy83 2.351 . S
O90 C98 1.249 . S
O91 Dy80 2.326 . S
O91 C98 1.267 . S
O92 C81 1.185 . S
O92 Dy83 2.398 . S
O93 C81 1.355 . S
O93 Dy83 2.491 . S
O94 Dy83 2.403 . S
O94 C89 1.254 . S
O95 Dy80 2.310 . S
O95 Dy83 2.664 . S
O95 C89 1.268 . S
O96 Dy80 2.351 . S
O96 C99 1.249 . S
O97 Dy83 2.326 . S
O97 C99 1.267 . S
C98 O90 1.249 . S
C98 O91 1.267 . S
C99 O96 1.249 . S
C99 O97 1.267 . S
Dy100 O104 2.398 1_455 S
Dy100 O105 2.491 1_455 S
Dy100 O106 2.403 . S
Dy100 O107 2.664 . S
Dy100 O111 2.326 . S
Dy100 O115 2.310 . S
Dy100 O116 2.351 1_455 S
C101 O112 1.185 . S
C101 O113 1.355 . S
C102 O104 1.185 . S
C102 O105 1.355 . S
Dy103 O107 2.310 . S
Dy103 O110 2.351 . S
Dy103 O112 2.398 . S
Dy103 O113 2.491 . S
Dy103 O114 2.403 . S
Dy103 O115 2.664 . S
Dy103 O117 2.326 . S
O104 Dy100 2.398 1_655 S
O104 C102 1.185 . S
O105 Dy100 2.491 1_655 S
O105 C102 1.355 . S
O106 Dy100 2.403 . S
O106 C108 1.254 . S
O107 Dy100 2.664 . S
O107 Dy103 2.310 . S
O107 C108 1.268 . S
C108 O106 1.254 . S
C108 O107 1.268 . S
C109 O114 1.254 . S
C109 O115 1.268 . S
O110 Dy103 2.351 . S
O110 C118 1.249 . S
O111 Dy100 2.326 . S
O111 C118 1.267 . S
O112 C101 1.185 . S
O112 Dy103 2.398 . S
O113 C101 1.355 . S
O113 Dy103 2.491 . S
O114 Dy103 2.403 . S
O114 C109 1.254 . S
O115 Dy100 2.310 . S
O115 Dy103 2.664 . S
O115 C109 1.268 . S
O116 Dy100 2.351 1_655 S
O116 C119 1.249 1_655 S
O117 Dy103 2.326 . S
O117 C119 1.267 . S
C118 O110 1.249 . S
C118 O111 1.267 . S
C119 O116 1.249 1_455 S
C119 O117 1.267 . S
H120 C121 0.951 1_545 S
C121 H120 0.951 1_565 S
C121 C127 1.265 . S
H122 C127 0.949 1_554 S
H123 C131 0.949 . S
H124 C132 0.950 . S
H125 C133 0.951 1_655 S
H126 C134 0.951 . S
C127 C121 1.265 . S
C127 H122 0.949 1_556 S
C127 C128 1.478 1_565 S
C128 C127 1.478 1_545 S
C128 C129 1.397 1_645 S
C128 C145 1.394 1_656 S
C129 C128 1.397 1_465 S
C129 C130 1.438 1_565 S
C129 C134 1.429 1_455 S
C130 C129 1.438 1_545 S
C130 C131 1.428 . S
C130 C143 1.394 . S
C131 H123 0.949 . S
C131 C130 1.428 . S
C131 C132 1.345 1_545 S
C132 H124 0.950 . S
C132 C131 1.345 1_565 S
C132 C133 1.424 . S
C133 H125 0.951 1_455 S
C133 C132 1.424 . S
C133 C134 1.347 1_455 S
C134 H126 0.951 . S
C134 C129 1.429 1_655 S
C134 C133 1.347 1_655 S
H135 C136 0.949 1_554 S
C136 H135 0.949 1_556 S
C136 C142 1.265 . S
H137 C142 0.950 . S
H138 C146 0.949 . S
H139 C147 0.950 1_655 S
H140 C148 0.951 . S
H141 C149 0.951 . S
C142 C136 1.265 . S
C142 H137 0.950 . S
C142 C143 1.478 . S
C143 C130 1.394 . S
C143 C142 1.478 . S
C143 C144 1.397 1_556 S
C144 C143 1.397 1_554 S
C144 C145 1.438 . S
C144 C149 1.429 . S
C145 C128 1.394 1_454 S
C145 C144 1.438 . S
C145 C146 1.428 1_455 S
C146 H138 0.949 . S
C146 C145 1.428 1_655 S
C146 C147 1.345 1_655 S
C147 H139 0.950 1_455 S
C147 C146 1.345 1_455 S
C147 C148 1.424 . S
C148 H140 0.951 . S
C148 C147 1.424 . S
C148 C149 1.347 . S
C149 H141 0.951 . S
C149 C144 1.429 . S
C149 C148 1.347 . S
H150 C151 0.951 . S
C151 H150 0.951 . S
C151 C157 1.265 . S
H152 C157 0.950 . S
H153 C161 0.949 . S
H154 C162 0.950 . S
H155 C163 0.951 . S
H156 C164 0.951 . S
C157 C151 1.265 . S
C157 H152 0.950 . S
C157 C158 1.478 . S
C158 C157 1.478 . S
C158 C159 1.397 1_665 S
C158 C175 1.394 1_665 S
C159 C158 1.397 1_445 S
C159 C160 1.438 . S
C159 C164 1.429 1_445 S
C160 C159 1.438 . S
C160 C161 1.428 . S
C160 C173 1.394 . S
C161 H153 0.949 . S
C161 C160 1.428 . S
C161 C162 1.345 . S
C162 H154 0.950 . S
C162 C161 1.345 . S
C162 C163 1.424 1_455 S
C163 H155 0.951 . S
C163 C162 1.424 1_655 S
C163 C164 1.347 1_545 S
C164 H156 0.951 . S
C164 C159 1.429 1_665 S
C164 C163 1.347 1_565 S
H165 C166 0.951 . S
C166 H165 0.951 . S
C166 C172 1.265 . S
H167 C172 0.950 . S
H168 C176 0.949 1_655 S
H169 C177 0.950 . S
H170 C178 0.951 . S
H171 C179 0.951 . S
C172 C166 1.265 . S
C172 H167 0.950 . S
C172 C173 1.478 . S
C173 C160 1.394 . S
C173 C172 1.478 . S
C173 C174 1.397 . S
C174 C173 1.397 . S
C174 C175 1.438 . S
C174 C179 1.429 . S
C175 C158 1.394 1_445 S
C175 C174 1.438 . S
C175 C176 1.428 1_545 S
C176 H168 0.949 1_455 S
C176 C175 1.428 1_565 S
C176 C177 1.345 . S
C177 H169 0.950 . S
C177 C176 1.345 . S
C177 C178 1.424 1_565 S
C178 H170 0.951 . S
C178 C177 1.424 1_545 S
C178 C179 1.347 . S
C179 H171 0.951 . S
C179 C174 1.429 . S
C179 C178 1.347 . S
H180 C181 0.951 . S
C181 H180 0.951 . S
C181 C187 1.265 . S
H182 C187 0.950 . S
H183 C191 0.949 . S
H184 C192 0.950 . S
H185 C193 0.951 . S
H186 C194 0.951 . S
C187 C181 1.265 . S
C187 H182 0.950 . S
C187 C188 1.478 . S
C188 C187 1.478 . S
C188 C189 1.397 1_565 S
C188 C205 1.394 1_565 S
C189 C188 1.397 1_545 S
C189 C190 1.438 . S
C189 C194 1.429 1_545 S
C190 C189 1.438 . S
C190 C191 1.428 1_455 S
C190 C203 1.394 . S
C191 H183 0.949 . S
C191 C190 1.428 1_655 S
C191 C192 1.345 . S
C192 H184 0.950 . S
C192 C191 1.345 . S
C192 C193 1.424 1_545 S
C193 H185 0.951 . S
C193 C192 1.424 1_565 S
C193 C194 1.347 1_655 S
C194 H186 0.951 . S
C194 C189 1.429 1_565 S
C194 C193 1.347 1_455 S
H195 C196 0.951 . S
C196 H195 0.951 . S
C196 C202 1.265 1_655 S
H197 C202 0.950 . S
H198 C206 0.949 1_565 S
H199 C207 0.950 . S
H200 C208 0.951 . S
H201 C209 0.951 . S
C202 C196 1.265 1_455 S
C202 H197 0.950 . S
C202 C203 1.478 . S
C203 C190 1.394 . S
C203 C202 1.478 . S
C203 C204 1.397 . S
C204 C203 1.397 . S
C204 C205 1.438 . S
C204 C209 1.429 . S
C205 C188 1.394 1_545 S
C205 C204 1.438 . S
C205 C206 1.428 . S
C206 H198 0.949 1_545 S
C206 C205 1.428 . S
C206 C207 1.345 . S
C207 H199 0.950 . S
C207 C206 1.345 . S
C207 C208 1.424 . S
C208 H200 0.951 . S
C208 C207 1.424 . S
C208 C209 1.347 . S
C209 H201 0.951 . S
C209 C204 1.429 . S
C209 C208 1.347 . S
H210 C211 0.951 . S
C211 H210 0.951 . S
C211 C217 1.265 . S
H212 C217 0.950 . S
H213 C221 0.949 . S
H214 C222 0.950 . S
H215 C223 0.951 . S
H216 C224 0.951 . S
C217 C211 1.265 . S
C217 H212 0.950 . S
C217 C218 1.478 . S
C218 C217 1.478 . S
C218 C219 1.397 . S
C218 C235 1.394 . S
C219 C218 1.397 . S
C219 C220 1.438 . S
C219 C224 1.429 . S
C220 C219 1.438 . S
C220 C221 1.428 . S
C220 C233 1.394 . S
C221 H213 0.949 . S
C221 C220 1.428 . S
C221 C222 1.345 . S
C222 H214 0.950 . S
C222 C221 1.345 . S
C222 C223 1.424 . S
C223 H215 0.951 . S
C223 C222 1.424 . S
C223 C224 1.347 . S
C224 H216 0.951 . S
C224 C219 1.429 . S
C224 C223 1.347 . S
H225 C226 0.951 . S
C226 H225 0.951 . S
C226 C232 1.265 . S
H227 C232 0.950 . S
H228 C236 0.949 . S
H229 C237 0.950 . S
H230 C238 0.951 . S
H231 C239 0.951 . S
C232 C226 1.265 . S
C232 H227 0.950 . S
C232 C233 1.478 . S
C233 C220 1.394 . S
C233 C232 1.478 . S
C233 C234 1.397 . S
C234 C233 1.397 . S
C234 C235 1.438 . S
C234 C239 1.429 . S
C235 C218 1.394 . S
C235 C234 1.438 . S
C235 C236 1.428 . S
C236 H228 0.949 . S
C236 C235 1.428 . S
C236 C237 1.345 . S
C237 H229 0.950 . S
C237 C236 1.345 . S
C237 C238 1.424 . S
C238 H230 0.951 . S
C238 C237 1.424 . S
C238 C239 1.347 . S
C239 H231 0.951 . S
C239 C234 1.429 . S
C239 C238 1.347 . S
H240 C241 0.951 . S
C241 H240 0.951 . S
C241 C247 1.265 . S
H242 C247 0.950 . S
H243 C251 0.949 . S
H244 C252 0.950 . S
H245 C253 0.951 . S
H246 C254 0.951 . S
C247 C241 1.265 . S
C247 H242 0.950 . S
C247 C248 1.478 . S
C248 C247 1.478 . S
C248 C249 1.397 . S
C248 C265 1.394 1_455 S
C249 C248 1.397 . S
C249 C250 1.438 . S
C249 C254 1.429 . S
C250 C249 1.438 . S
C250 C251 1.428 . S
C250 C263 1.394 1_455 S
C251 H243 0.949 . S
C251 C250 1.428 . S
C251 C252 1.345 . S
C252 H244 0.950 . S
C252 C251 1.345 . S
C252 C253 1.424 . S
C253 H245 0.951 . S
C253 C252 1.424 . S
C253 C254 1.347 . S
C254 H246 0.951 . S
C254 C249 1.429 . S
C254 C253 1.347 . S
H255 C256 0.951 . S
C256 H255 0.951 . S
C256 C262 1.265 . S
H257 C262 0.950 . S
H258 C266 0.949 1_455 S
H259 C267 0.950 . S
H260 C268 0.951 . S
H261 C269 0.951 . S
C262 C256 1.265 . S
C262 H257 0.950 . S
C262 C263 1.478 . S
C263 C250 1.394 1_655 S
C263 C262 1.478 . S
C263 C264 1.397 . S
C264 C263 1.397 . S
C264 C265 1.438 . S
C264 C269 1.429 . S
C265 C248 1.394 1_655 S
C265 C264 1.438 . S
C265 C266 1.428 . S
C266 H258 0.949 1_655 S
C266 C265 1.428 . S
C266 C267 1.345 . S
C267 H259 0.950 . S
C267 C266 1.345 . S
C267 C268 1.424 . S
C268 H260 0.951 . S
C268 C267 1.424 . S
C268 C269 1.347 . S
C269 H261 0.951 . S
C269 C264 1.429 . S
C269 C268 1.347 . S
H270 C271 0.951 . S
C271 H270 0.951 . S
C271 C277 1.265 . S
H272 C277 0.950 . S
H273 C281 0.949 . S
H274 C282 0.950 . S
H275 C283 0.951 . S
H276 C284 0.951 . S
C277 C271 1.265 . S
C277 H272 0.950 . S
C277 C278 1.478 . S
C278 C277 1.478 . S
C278 C279 1.397 1_545 S
C278 C295 1.394 . S
C279 C278 1.397 1_565 S
C279 C280 1.438 . S
C279 C284 1.429 . S
C280 C279 1.438 . S
C280 C281 1.428 . S
C280 C293 1.394 . S
C281 H273 0.949 . S
C281 C280 1.428 . S
C281 C282 1.345 . S
C282 H274 0.950 . S
C282 C281 1.345 . S
C282 C283 1.424 . S
C283 H275 0.951 . S
C283 C282 1.424 . S
C283 C284 1.347 . S
C284 H276 0.951 . S
C284 C279 1.429 . S
C284 C283 1.347 . S
H285 C286 0.951 . S
C286 H285 0.951 . S
C286 C292 1.265 . S
H287 C292 0.950 . S
H288 C296 0.949 . S
H289 C297 0.950 . S
H290 C298 0.951 . S
H291 C299 0.951 . S
C292 C286 1.265 . S
C292 H287 0.950 . S
C292 C293 1.478 . S
C293 C280 1.394 . S
C293 C292 1.478 . S
C293 C294 1.397 1_565 S
C294 C293 1.397 1_545 S
C294 C295 1.438 . S
C294 C299 1.429 . S
C295 C278 1.394 . S
C295 C294 1.438 . S
C295 C296 1.428 . S
C296 H288 0.949 . S
C296 C295 1.428 . S
C296 C297 1.345 . S
C297 H289 0.950 . S
C297 C296 1.345 . S
C297 C298 1.424 . S
C298 H290 0.951 . S
C298 C297 1.424 . S
C298 C299 1.347 . S
C299 H291 0.951 . S
C299 C294 1.429 . S
C299 C298 1.347 . S
H300 C301 0.951 . S
C301 H300 0.951 . S
C301 C307 1.265 . S
H302 C307 0.950 . S
H303 C311 0.949 . S
H304 C312 0.950 1_545 S
H305 C313 0.951 1_545 S
H306 C314 0.951 . S
C307 C301 1.265 . S
C307 H302 0.950 . S
C307 C308 1.478 . S
C308 C307 1.478 . S
C308 C309 1.397 . S
C308 C325 1.394 . S
C309 C308 1.397 . S
C309 C310 1.438 . S
C309 C314 1.429 . S
C310 C309 1.438 . S
C310 C311 1.428 . S
C310 C323 1.394 . S
C311 H303 0.949 . S
C311 C310 1.428 . S
C311 C312 1.345 . S
C312 H304 0.950 1_565 S
C312 C311 1.345 . S
C312 C313 1.424 . S
C313 H305 0.951 1_565 S
C313 C312 1.424 . S
C313 C314 1.347 . S
C314 H306 0.951 . S
C314 C309 1.429 . S
C314 C313 1.347 . S
H315 C316 0.951 . S
C316 H315 0.951 . S
C316 C322 1.265 . S
H317 C322 0.950 . S
H318 C326 0.949 . S
H319 C327 0.950 . S
H320 C328 0.951 . S
H321 C329 0.951 . S
C322 C316 1.265 . S
C322 H317 0.950 . S
C322 C323 1.478 . S
C323 C310 1.394 . S
C323 C322 1.478 . S
C323 C324 1.397 . S
C324 C323 1.397 . S
C324 C325 1.438 . S
C324 C329 1.429 . S
C325 C308 1.394 . S
C325 C324 1.438 . S
C325 C326 1.428 . S
C326 H318 0.949 . S
C326 C325 1.428 . S
C326 C327 1.345 . S
C327 H319 0.950 . S
C327 C326 1.345 . S
C327 C328 1.424 . S
C328 H320 0.951 . S
C328 C327 1.424 . S
C328 C329 1.347 . S
C329 H321 0.951 . S
C329 C324 1.429 . S
C329 C328 1.347 . S
H330 C331 0.953 . S
C331 H330 0.953 . S
C331 C337 1.265 . S
H332 C337 0.950 . S
H333 C341 0.949 1_545 S
H334 C342 0.950 . S
H335 C343 0.951 1_655 S
H336 C344 0.951 . S
C337 C331 1.265 . S
C337 H332 0.950 . S
C337 C338 1.478 1_655 S
C338 C337 1.478 1_455 S
C338 C339 1.397 . S
C338 C355 1.394 . S
C339 C338 1.397 . S
C339 C340 1.438 . S
C339 C344 1.429 1_455 S
C340 C339 1.438 . S
C340 C341 1.428 . S
C340 C353 1.394 . S
C341 H333 0.949 1_565 S
C341 C340 1.428 . S
C341 C342 1.345 1_565 S
C342 H334 0.950 . S
C342 C341 1.345 1_545 S
C342 C343 1.424 1_545 S
C343 H335 0.951 1_455 S
C343 C342 1.424 1_565 S
C343 C344 1.347 1_455 S
C344 H336 0.951 . S
C344 C339 1.429 1_655 S
C344 C343 1.347 1_655 S
H345 C346 0.951 . S
C346 H345 0.951 . S
C346 C352 1.265 . S
H347 C352 0.950 . S
H348 C356 0.949 . S
H349 C357 0.950 . S
H350 C358 0.951 . S
H351 C359 0.951 . S
C352 C346 1.265 . S
C352 H347 0.950 . S
C352 C353 1.478 . S
C353 C340 1.394 . S
C353 C352 1.478 . S
C353 C354 1.397 . S
C354 C353 1.397 . S
C354 C355 1.438 . S
C354 C359 1.429 . S
C355 C338 1.394 . S
C355 C354 1.438 . S
C355 C356 1.428 . S
C356 H348 0.949 . S
C356 C355 1.428 . S
C356 C357 1.345 . S
C357 H349 0.950 . S
C357 C356 1.345 . S
C357 C358 1.424 . S
C358 H350 0.951 . S
C358 C357 1.424 . S
C358 C359 1.347 . S
C359 H351 0.951 . S
C359 C354 1.429 . S
C359 C358 1.347 . S
H360 C361 0.951 . S
C361 H360 0.951 . S
C361 C367 1.265 1_565 S
H362 C367 0.950 . S
H363 C371 0.949 . S
H364 C372 0.950 . S
H365 C373 0.951 . S
H366 C374 0.951 . S
C367 C361 1.265 1_545 S
C367 H362 0.950 . S
C367 C368 1.478 . S
C368 C367 1.478 . S
C368 C369 1.397 . S
C368 C385 1.394 . S
C369 C368 1.397 . S
C369 C370 1.438 . S
C369 C374 1.429 . S
C370 C369 1.438 . S
C370 C371 1.428 . S
C370 C383 1.394 . S
C371 H363 0.949 . S
C371 C370 1.428 . S
C371 C372 1.345 . S
C372 H364 0.950 . S
C372 C371 1.345 . S
C372 C373 1.424 . S
C373 H365 0.951 . S
C373 C372 1.424 . S
C373 C374 1.347 . S
C374 H366 0.951 . S
C374 C369 1.429 . S
C374 C373 1.347 . S
H375 C376 0.951 . S
C376 H375 0.951 . S
C376 C382 1.265 . S
H377 C382 0.950 . S
H378 C386 0.949 . S
H379 C387 0.950 . S
H380 C388 0.951 . S
H381 C389 0.951 . S
C382 C376 1.265 . S
C382 H377 0.950 . S
C382 C383 1.478 . S
C383 C370 1.394 . S
C383 C382 1.478 . S
C383 C384 1.397 . S
C384 C383 1.397 . S
C384 C385 1.438 . S
C384 C389 1.429 . S
C385 C368 1.394 . S
C385 C384 1.438 . S
C385 C386 1.428 1_545 S
C386 H378 0.949 . S
C386 C385 1.428 1_565 S
C386 C387 1.345 . S
C387 H379 0.950 . S
C387 C386 1.345 . S
C387 C388 1.424 . S
C388 H380 0.951 . S
C388 C387 1.424 . S
C388 C389 1.347 1_565 S
C389 H381 0.951 . S
C389 C384 1.429 . S
C389 C388 1.347 1_545 S
H390 C391 0.951 . S
C391 H390 0.951 . S
C391 C397 1.265 . S
H392 C397 0.950 . S
H393 C401 0.949 . S
H394 C402 0.950 . S
H395 C403 0.951 . S
H396 C404 0.951 . S
C397 C391 1.265 . S
C397 H392 0.950 . S
C397 C398 1.478 . S
C398 C397 1.478 . S
C398 C399 1.397 . S
C398 C415 1.394 1_554 S
C399 C398 1.397 . S
C399 C400 1.438 . S
C399 C404 1.429 . S
C400 C399 1.438 . S
C400 C401 1.428 . S
C400 C413 1.394 . S
C401 H393 0.949 . S
C401 C400 1.428 . S
C401 C402 1.345 . S
C402 H394 0.950 . S
C402 C401 1.345 . S
C402 C403 1.424 . S
C403 H395 0.951 . S
C403 C402 1.424 . S
C403 C404 1.347 . S
C404 H396 0.951 . S
C404 C399 1.429 . S
C404 C403 1.347 . S
H405 C406 0.951 . S
C406 H405 0.951 . S
C406 C412 1.265 1_545 S
H407 C412 0.950 . S
H408 C416 0.949 . S
H409 C417 0.950 . S
H410 C418 0.951 . S
H411 C419 0.951 . S
C412 C406 1.265 1_565 S
C412 H407 0.950 . S
C412 C413 1.478 1_565 S
C413 C400 1.394 . S
C413 C412 1.478 1_545 S
C413 C414 1.397 1_554 S
C414 C413 1.397 1_556 S
C414 C415 1.438 . S
C414 C419 1.429 1_545 S
C415 C398 1.394 1_556 S
C415 C414 1.438 . S
C415 C416 1.428 . S
C416 H408 0.949 . S
C416 C415 1.428 . S
C416 C417 1.345 1_545 S
C417 H409 0.950 . S
C417 C416 1.345 1_565 S
C417 C418 1.424 . S
C418 H410 0.951 . S
C418 C417 1.424 . S
C418 C419 1.347 . S
C419 H411 0.951 . S
C419 C414 1.429 1_565 S
C419 C418 1.347 . S
H420 C421 0.951 . S
C421 H420 0.951 . S
C421 C427 1.265 . S
H422 C427 0.950 . S
H423 C431 0.949 . S
H424 C432 0.950 . S
H425 C433 0.951 . S
H426 C434 0.951 . S
C427 C421 1.265 . S
C427 H422 0.950 . S
C427 C428 1.478 . S
C428 C427 1.478 . S
C428 C429 1.397 . S
C428 C445 1.394 . S
C429 C428 1.397 . S
C429 C430 1.438 . S
C429 C434 1.429 . S
C430 C429 1.438 . S
C430 C431 1.428 . S
C430 C443 1.394 . S
C431 H423 0.949 . S
C431 C430 1.428 . S
C431 C432 1.345 . S
C432 H424 0.950 . S
C432 C431 1.345 . S
C432 C433 1.424 . S
C433 H425 0.951 . S
C433 C432 1.424 . S
C433 C434 1.347 . S
C434 H426 0.951 . S
C434 C429 1.429 . S
C434 C433 1.347 . S
H435 C436 0.951 . S
C436 H435 0.951 . S
C436 C442 1.265 . S
H437 C442 0.950 . S
H438 C446 0.949 . S
H439 C447 0.950 . S
H440 C448 0.951 . S
H441 C449 0.951 . S
C442 C436 1.265 . S
C442 H437 0.950 . S
C442 C443 1.478 . S
C443 C430 1.394 . S
C443 C442 1.478 . S
C443 C444 1.397 . S
C444 C443 1.397 . S
C444 C445 1.438 . S
C444 C449 1.429 . S
C445 C428 1.394 . S
C445 C444 1.438 . S
C445 C446 1.428 . S
C446 H438 0.949 . S
C446 C445 1.428 . S
C446 C447 1.345 . S
C447 H439 0.950 . S
C447 C446 1.345 . S
C447 C448 1.424 . S
C448 H440 0.951 . S
C448 C447 1.424 . S
C448 C449 1.347 . S
C449 H441 0.951 . S
C449 C444 1.429 . S
C449 C448 1.347 . S
H450 C451 0.951 . S
C451 H450 0.951 . S
C451 C457 1.265 1_655 S
H452 C457 0.950 . S
H453 C461 0.949 . S
H454 C462 0.950 . S
H455 C463 0.951 . S
H456 C464 0.951 . S
C457 C451 1.265 1_455 S
C457 H452 0.950 . S
C457 C458 1.478 . S
C458 C457 1.478 . S
C458 C459 1.397 . S
C458 C475 1.394 . S
C459 C458 1.397 . S
C459 C460 1.438 . S
C459 C464 1.429 . S
C460 C459 1.438 . S
C460 C461 1.428 . S
C460 C473 1.394 . S
C461 H453 0.949 . S
C461 C460 1.428 . S
C461 C462 1.345 . S
C462 H454 0.950 . S
C462 C461 1.345 . S
C462 C463 1.424 . S
C463 H455 0.951 . S
C463 C462 1.424 . S
C463 C464 1.347 . S
C464 H456 0.951 . S
C464 C459 1.429 . S
C464 C463 1.347 . S
H465 C466 0.951 . S
C466 H465 0.951 . S
C466 C472 1.265 . S
H467 C472 0.950 . S
H468 C476 0.940 . S
H469 C477 0.950 . S
H470 C478 0.951 . S
H471 C479 0.951 . S
C472 C466 1.265 . S
C472 H467 0.950 . S
C472 C473 1.478 . S
C473 C460 1.394 . S
C473 C472 1.478 . S
C473 C474 1.397 . S
C474 C473 1.397 . S
C474 C475 1.438 . S
C474 C479 1.429 . S
C475 C458 1.394 . S
C475 C474 1.438 . S
C475 C476 1.427 1_455 S
C476 H468 0.940 . S
C476 C475 1.427 1_655 S
C476 C477 1.354 . S
C477 H469 0.950 . S
C477 C476 1.354 . S
C477 C478 1.424 . S
C478 H470 0.951 . S
C478 C477 1.424 . S
C478 C479 1.347 1_655 S
C479 H471 0.951 . S
C479 C474 1.429 . S
C479 C478 1.347 1_455 S
H480 C481 0.951 . S
C481 H480 0.951 . S
C481 C487 1.265 . S
H482 C487 0.950 . S
H483 C491 0.949 . S
H484 C492 0.950 . S
H485 C493 0.951 . S
H486 C494 0.951 . S
C487 C481 1.265 . S
C487 H482 0.950 . S
C487 C488 1.478 . S
C488 C487 1.478 . S
C488 C489 1.397 . S
C488 C505 1.394 . S
C489 C488 1.397 . S
C489 C490 1.438 . S
C489 C494 1.429 . S
C490 C489 1.438 . S
C490 C491 1.428 . S
C490 C503 1.394 . S
C491 H483 0.949 . S
C491 C490 1.428 . S
C491 C492 1.345 . S
C492 H484 0.950 . S
C492 C491 1.345 . S
C492 C493 1.424 . S
C493 H485 0.951 . S
C493 C492 1.424 . S
C493 C494 1.347 . S
C494 H486 0.951 . S
C494 C489 1.429 . S
C494 C493 1.347 . S
H495 C496 0.951 . S
C496 H495 0.951 . S
C496 C502 1.265 . S
H497 C502 0.950 . S
H498 C506 0.949 . S
H499 C507 0.950 1_565 S
H500 C508 0.951 1_565 S
H501 C509 0.951 . S
C502 C496 1.265 . S
C502 H497 0.950 . S
C502 C503 1.478 . S
C503 C490 1.394 . S
C503 C502 1.478 . S
C503 C504 1.397 . S
C504 C503 1.397 . S
C504 C505 1.438 . S
C504 C509 1.429 . S
C505 C488 1.394 . S
C505 C504 1.438 . S
C505 C506 1.428 . S
C506 H498 0.949 . S
C506 C505 1.428 . S
C506 C507 1.345 . S
C507 H499 0.950 1_545 S
C507 C506 1.345 . S
C507 C508 1.424 . S
C508 H500 0.951 1_545 S
C508 C507 1.424 . S
C508 C509 1.347 . S
C509 H501 0.951 . S
C509 C504 1.429 . S
C509 C508 1.347 . S
H510 C511 0.951 . S
C511 H510 0.951 . S
C511 C517 1.265 . S
H512 C517 0.950 . S
H513 C521 0.949 . S
H514 C522 0.950 . S
H515 C523 0.951 . S
H516 C524 0.951 . S
C517 C511 1.265 . S
C517 H512 0.950 . S
C517 C518 1.478 . S
C518 C517 1.478 . S
C518 C519 1.397 . S
C518 C535 1.394 . S
C519 C518 1.397 . S
C519 C520 1.438 . S
C519 C524 1.429 . S
C520 C519 1.438 . S
C520 C521 1.428 . S
C520 C533 1.394 . S
C521 H513 0.949 . S
C521 C520 1.428 . S
C521 C522 1.345 . S
C522 H514 0.950 . S
C522 C521 1.345 . S
C522 C523 1.424 . S
C523 H515 0.951 . S
C523 C522 1.424 . S
C523 C524 1.347 . S
C524 H516 0.951 . S
C524 C519 1.429 . S
C524 C523 1.347 . S
H525 C526 0.951 . S
C526 H525 0.951 . S
C526 C532 1.265 . S
H527 C532 0.950 . S
H528 C536 0.949 . S
H529 C537 0.950 1_655 S
H530 C538 0.951 . S
H531 C539 0.956 . S
C532 C526 1.265 . S
C532 H527 0.950 . S
C532 C533 1.478 . S
C533 C520 1.394 . S
C533 C532 1.478 . S
C533 C534 1.397 . S
C534 C533 1.397 . S
C534 C535 1.438 . S
C534 C539 1.429 . S
C535 C518 1.394 . S
C535 C534 1.438 . S
C535 C536 1.428 . S
C536 H528 0.949 . S
C536 C535 1.428 . S
C536 C537 1.345 . S
C537 H529 0.950 1_455 S
C537 C536 1.345 . S
C537 C538 1.424 1_455 S
C538 H530 0.951 . S
C538 C537 1.424 1_655 S
C538 C539 1.347 1_655 S
C539 H531 0.956 . S
C539 C534 1.429 . S
C539 C538 1.347 1_455 S
H540 C541 0.951 . S
C541 H540 0.951 . S
C541 C547 1.265 . S
H542 C547 0.950 . S
H543 C551 0.947 1_565 S
H544 C552 0.950 . S
H545 C553 0.951 . S
H546 C554 0.951 . S
C547 C541 1.265 . S
C547 H542 0.950 . S
C547 C548 1.478 . S
C548 C547 1.478 . S
C548 C549 1.397 . S
C548 C565 1.394 . S
C549 C548 1.397 . S
C549 C550 1.438 . S
C549 C554 1.429 . S
C550 C549 1.438 . S
C550 C551 1.428 . S
C550 C563 1.394 . S
C551 H543 0.947 1_545 S
C551 C550 1.428 . S
C551 C552 1.345 1_545 S
C552 H544 0.950 . S
C552 C551 1.345 1_565 S
C552 C553 1.424 . S
C553 H545 0.951 . S
C553 C552 1.424 . S
C553 C554 1.347 1_565 S
C554 H546 0.951 . S
C554 C549 1.429 . S
C554 C553 1.347 1_545 S
H555 C556 0.951 . S
C556 H555 0.951 . S
C556 C562 1.265 . S
H557 C562 0.950 . S
H558 C566 0.949 . S
H559 C567 0.950 . S
H560 C568 0.951 . S
H561 C569 0.951 . S
C562 C556 1.265 . S
C562 H557 0.950 . S
C562 C563 1.478 . S
C563 C550 1.394 . S
C563 C562 1.478 . S
C563 C564 1.397 . S
C564 C563 1.397 . S
C564 C565 1.438 . S
C564 C569 1.429 . S
C565 C548 1.394 . S
C565 C564 1.438 . S
C565 C566 1.428 . S
C566 H558 0.949 . S
C566 C565 1.428 . S
C566 C567 1.345 1_655 S
C567 H559 0.950 . S
C567 C566 1.345 1_455 S
C567 C568 1.424 . S
C568 H560 0.951 . S
C568 C567 1.424 . S
C568 C569 1.347 1_455 S
C569 H561 0.951 . S
C569 C564 1.429 . S
C569 C568 1.347 1_655 S
H570 C571 0.951 . S
C571 H570 0.951 . S
C571 C577 1.265 . S
H572 C577 0.950 . S
H573 C581 0.949 . S
H574 C582 0.950 . S
H575 C583 0.951 . S
H576 C584 0.951 . S
C577 C571 1.265 . S
C577 H572 0.950 . S
C577 C578 1.478 . S
C578 C577 1.478 . S
C578 C579 1.397 . S
C578 C595 1.394 . S
C579 C578 1.397 . S
C579 C580 1.438 . S
C579 C584 1.429 . S
C580 C579 1.438 . S
C580 C581 1.428 . S
C580 C593 1.394 . S
C581 H573 0.949 . S
C581 C580 1.428 . S
C581 C582 1.345 . S
C582 H574 0.950 . S
C582 C581 1.345 . S
C582 C583 1.424 . S
C583 H575 0.951 . S
C583 C582 1.424 . S
C583 C584 1.347 . S
C584 H576 0.951 . S
C584 C579 1.429 . S
C584 C583 1.347 . S
H585 C586 0.951 . S
C586 H585 0.951 . S
C586 C592 1.265 . S
H587 C592 0.950 . S
H588 C596 0.949 . S
H589 C597 0.950 . S
H590 C598 0.951 . S
H591 C599 0.951 . S
C592 C586 1.265 . S
C592 H587 0.950 . S
C592 C593 1.478 . S
C593 C580 1.394 . S
C593 C592 1.478 . S
C593 C594 1.397 . S
C594 C593 1.397 . S
C594 C595 1.438 . S
C594 C599 1.429 . S
C595 C578 1.394 . S
C595 C594 1.438 . S
C595 C596 1.428 1_565 S
C596 H588 0.949 . S
C596 C595 1.428 1_545 S
C596 C597 1.345 . S
C597 H589 0.950 . S
C597 C596 1.345 . S
C597 C598 1.424 . S
C598 H590 0.951 . S
C598 C597 1.424 . S
C598 C599 1.347 1_545 S
C599 H591 0.951 . S
C599 C594 1.429 . S
C599 C598 1.347 1_565 S
H600 C601 0.951 . S
C601 H600 0.951 . S
C601 C607 1.265 . S
H602 C607 0.950 . S
H603 C611 0.949 . S
H604 C612 0.950 . S
H605 C613 0.951 . S
H606 C614 0.951 . S
C607 C601 1.265 . S
C607 H602 0.950 . S
C607 C608 1.478 . S
C608 C607 1.478 . S
C608 C609 1.393 1_655 S
C608 C625 1.394 . S
C609 C608 1.393 1_455 S
C609 C610 1.438 . S
C609 C614 1.432 . S
C610 C609 1.438 . S
C610 C611 1.428 . S
C610 C623 1.394 1_455 S
C611 H603 0.949 . S
C611 C610 1.428 . S
C611 C612 1.345 . S
C612 H604 0.950 . S
C612 C611 1.345 . S
C612 C613 1.424 . S
C613 H605 0.951 . S
C613 C612 1.424 . S
C613 C614 1.347 . S
C614 H606 0.951 . S
C614 C609 1.432 . S
C614 C613 1.347 . S
H615 C616 0.951 1_455 S
C616 H615 0.951 1_655 S
C616 C622 1.265 . S
H617 C622 0.950 . S
H618 C626 0.949 . S
H619 C627 0.950 . S
H620 C628 0.951 . S
H621 C629 0.951 . S
C622 C616 1.265 . S
C622 H617 0.950 . S
C622 C623 1.478 . S
C623 C610 1.394 1_655 S
C623 C622 1.478 . S
C623 C624 1.397 . S
C624 C623 1.397 . S
C624 C625 1.438 . S
C624 C629 1.429 . S
C625 C608 1.394 . S
C625 C624 1.438 . S
C625 C626 1.428 . S
C626 H618 0.949 . S
C626 C625 1.428 . S
C626 C627 1.345 . S
C627 H619 0.950 . S
C627 C626 1.345 . S
C627 C628 1.424 . S
C628 H620 0.951 . S
C628 C627 1.424 . S
C628 C629 1.347 . S
C629 H621 0.951 . S
C629 C624 1.429 . S
C629 C628 1.347 . S
H630 C631 0.951 . S
C631 H630 0.951 . S
C631 C637 1.265 . S
H632 C637 0.950 . S
H633 C641 0.949 . S
H634 C642 0.950 . S
H635 C643 0.951 . S
H636 C644 0.951 . S
C637 C631 1.265 . S
C637 H632 0.950 . S
C637 C638 1.478 . S
C638 C637 1.478 . S
C638 C639 1.397 . S
C638 C655 1.394 . S
C639 C638 1.397 . S
C639 C640 1.438 . S
C639 C644 1.429 . S
C640 C639 1.438 . S
C640 C641 1.428 . S
C640 C653 1.394 . S
C641 H633 0.949 . S
C641 C640 1.428 . S
C641 C642 1.345 . S
C642 H634 0.950 . S
C642 C641 1.345 . S
C642 C643 1.424 . S
C643 H635 0.951 . S
C643 C642 1.424 . S
C643 C644 1.347 . S
C644 H636 0.951 . S
C644 C639 1.429 . S
C644 C643 1.347 . S
H645 C646 0.951 . S
C646 H645 0.951 . S
C646 C652 1.265 . S
H647 C652 0.950 . S
H648 C656 0.949 . S
H649 C657 0.950 . S
H650 C658 0.951 . S
H651 C659 0.951 . S
C652 C646 1.265 . S
C652 H647 0.950 . S
C652 C653 1.478 . S
C653 C640 1.394 . S
C653 C652 1.478 . S
C653 C654 1.397 1_565 S
C654 C653 1.397 1_545 S
C654 C655 1.438 1_545 S
C654 C659 1.429 . S
C655 C638 1.394 . S
C655 C654 1.438 1_565 S
C655 C656 1.428 1_565 S
C656 H648 0.949 . S
C656 C655 1.428 1_545 S
C656 C657 1.345 . S
C657 H649 0.950 . S
C657 C656 1.345 . S
C657 C658 1.424 . S
C658 H650 0.951 . S
C658 C657 1.424 . S
C658 C659 1.347 . S
C659 H651 0.951 . S
C659 C654 1.429 . S
C659 C658 1.347 . S
C121 C68 1.376 1_566 S
C136 C8 1.368 1_556 S
C151 C88 1.498 . S
C166 C28 1.493 . S
C181 C108 1.496 . S
C196 C48 1.496 1_655 S
C211 C1 1.353 . S
C226 C42 1.303 . S
C241 C21 1.356 . S
C256 C62 1.345 . S
C271 C41 1.427 . S
C286 C82 1.355 . S
C301 C61 1.349 . S
C316 C102 1.308 . S
C331 C81 1.357 . S
C346 C2 1.300 . S
C361 C101 1.451 . S
C376 C22 1.403 . S
C391 C9 1.111 . S
C406 C69 1.111 1_545 S
C421 C29 1.072 . S
C436 C89 1.076 . S
C451 C49 1.077 . S
C466 C109 1.072 . S
C481 C18 1.801 . S
C496 C39 1.869 . S
C511 C38 1.835 . S
C526 C59 1.883 . S
C541 C58 1.800 . S
C556 C79 1.850 . S
C571 C78 1.803 . S
C586 C99 1.871 . S
C601 C98 1.818 . S
C616 C119 1.845 1_655 S
C631 C118 1.860 . S
C646 C19 1.876 1_565 S
