# Generated by pormake.
# Topology loh, (5)-cn, num edge types: 1
# Building blocks:
#     Node 0, Type 0, BuildingBlock: BEQFEK_clean_sbu_0, # of connection points: 5
#     Node 1, Type 0, BuildingBlock: BEQFEK_clean_sbu_0, # of connection points: 5
#     Node 2, Type 0, BuildingBlock: BEQFEK_clean_sbu_0, # of connection points: 5
#     Node 3, Type 0, BuildingBlock: BEQFEK_clean_sbu_0, # of connection points: 5
#     Node 4, Type 0, BuildingBlock: BEQFEK_clean_sbu_0, # of connection points: 5
#     Node 5, Type 0, BuildingBlock: BEQFEK_clean_sbu_0, # of connection points: 5
#     Node 6, Type 0, BuildingBlock: BEQFEK_clean_sbu_0, # of connection points: 5
#     Node 7, Type 0, BuildingBlock: BEQFEK_clean_sbu_0, # of connection points: 5
#     Edge 8, Type (0, 0), BuildingBlock: KIFKEQ_clean_linker_1, # of connection points: 2
#     Edge 9, Type (0, 0), BuildingBlock: KIFKEQ_clean_linker_1, # of connection points: 2
#     Edge 10, Type (0, 0), BuildingBlock: KIFKEQ_clean_linker_1, # of connection points: 2
#     Edge 11, Type (0, 0), BuildingBlock: KIFKEQ_clean_linker_1, # of connection points: 2
#     Edge 12, Type (0, 0), BuildingBlock: KIFKEQ_clean_linker_1, # of connection points: 2
#     Edge 13, Type (0, 0), BuildingBlock: KIFKEQ_clean_linker_1, # of connection points: 2
#     Edge 14, Type (0, 0), BuildingBlock: KIFKEQ_clean_linker_1, # of connection points: 2
#     Edge 15, Type (0, 0), BuildingBlock: KIFKEQ_clean_linker_1, # of connection points: 2
#     Edge 16, Type (0, 0), BuildingBlock: KIFKEQ_clean_linker_1, # of connection points: 2
#     Edge 17, Type (0, 0), BuildingBlock: KIFKEQ_clean_linker_1, # of connection points: 2
#     Edge 18, Type (0, 0), BuildingBlock: KIFKEQ_clean_linker_1, # of connection points: 2
#     Edge 19, Type (0, 0), BuildingBlock: KIFKEQ_clean_linker_1, # of connection points: 2
#     Edge 20, Type (0, 0), BuildingBlock: KIFKEQ_clean_linker_1, # of connection points: 2
#     Edge 21, Type (0, 0), BuildingBlock: KIFKEQ_clean_linker_1, # of connection points: 2
#     Edge 22, Type (0, 0), BuildingBlock: KIFKEQ_clean_linker_1, # of connection points: 2
#     Edge 23, Type (0, 0), BuildingBlock: KIFKEQ_clean_linker_1, # of connection points: 2
#     Edge 24, Type (0, 0), BuildingBlock: KIFKEQ_clean_linker_1, # of connection points: 2
#     Edge 25, Type (0, 0), BuildingBlock: KIFKEQ_clean_linker_1, # of connection points: 2
#     Edge 26, Type (0, 0), BuildingBlock: KIFKEQ_clean_linker_1, # of connection points: 2
#     Edge 27, Type (0, 0), BuildingBlock: KIFKEQ_clean_linker_1, # of connection points: 2
# Relax obj value: 0.183
# Max RMSD: 0.139
# Mean RMSD: 0.139
data_MOF--net-loh--node1-BEQFEK_clean_sbu_0--edge1-KIFKEQ_clean_linker_1
_symmetry_space_group_name_H-M    P1
_symmetry_Int_Tables_number       1
_symmetry_cell_setting            triclinic
loop_
_symmetry_equiv_pos_as_xyz
'x, y, z'
_cell_length_a     22.315198
_cell_length_b     28.591004
_cell_length_c     44.178312
_cell_angle_alpha  89.971866
_cell_angle_beta   89.992299
_cell_angle_gamma 90.043118
loop_
_atom_site_label
_atom_site_type_symbol
_atom_site_fract_x
_atom_site_fract_y
_atom_site_fract_z
_atom_type_partial_charge
Co0 Co 0.03622 0.36202 0.13177 0.0
Co1 Co 0.04975 0.26017 0.1566 0.0
C2 C 0.95703 0.2807 0.11153 0.0
O3 O 0.97911 0.32149 0.11136 0.0
O4 O 0.9761 0.25011 0.13023 0.0
C5 C 0.95138 0.43028 0.12103 0.0
O6 O 0.91725 0.39818 0.13355 0.0
C7 C 0.03699 0.16943 0.19071 0.0
C8 C 0.13147 0.14668 0.19168 0.0
C9 C 0.0743 0.133 0.20017 0.0
N10 N 0.07088 0.20269 0.17728 0.0
N11 N 0.12729 0.18874 0.17819 0.0
C12 C 0.97012 0.17127 0.19262 0.0
H13 H 0.9519 0.19772 0.17676 0.0
H14 H 0.95677 0.18124 0.21592 0.0
H15 H 0.95068 0.13637 0.18763 0.0
C16 C 0.03438 0.38604 0.19545 0.0
N17 N 0.03638 0.35375 0.17346 0.0
N18 N 0.04086 0.31163 0.18527 0.0
C19 C 0.04132 0.31631 0.21586 0.0
C20 C 0.03703 0.36379 0.22312 0.0
C21 C 0.03149 0.43768 0.18989 0.0
H22 H 0.98488 0.44733 0.18384 0.0
H23 H 0.04477 0.45796 0.21022 0.0
H24 H 0.06118 0.44718 0.17071 0.0
O25 O 0.11435 0.34896 0.11412 0.0
O26 O 0.11827 0.2738 0.12703 0.0
H27 H 0.08716 0.25533 0.23154 0.0
H28 H 0.05121 0.28912 0.26122 0.0
C29 C 0.04724 0.2765 0.23754 0.0
H30 H 0.00733 0.25359 0.23552 0.0
H31 H 0.16302 0.20765 0.1691 0.0
O32 O 0.00785 0.42434 0.12052 0.0
C33 C 0.13945 0.30911 0.11264 0.0
Co34 Co 0.55408 0.68316 0.63045 0.0
Co35 Co 0.52466 0.78317 0.65539 0.0
C36 C 0.63016 0.76719 0.61503 0.0
O37 O 0.61538 0.72445 0.61417 0.0
O38 O 0.5998 0.79649 0.63051 0.0
C39 C 0.63912 0.61281 0.62041 0.0
O40 O 0.6751 0.64382 0.63269 0.0
C41 C 0.53278 0.87294 0.69043 0.0
C42 C 0.43812 0.89521 0.68969 0.0
C43 C 0.49449 0.90906 0.69939 0.0
N44 N 0.50025 0.83974 0.67614 0.0
N45 N 0.44368 0.85338 0.67603 0.0
C46 C 0.59946 0.87119 0.69367 0.0
H47 H 0.61907 0.84503 0.67808 0.0
H48 H 0.61097 0.86077 0.71714 0.0
H49 H 0.61922 0.90618 0.68926 0.0
C50 C 0.54754 0.65759 0.69403 0.0
N51 N 0.54573 0.6901 0.67213 0.0
N52 N 0.53431 0.73147 0.68388 0.0
C53 C 0.52861 0.72603 0.71427 0.0
C54 C 0.53715 0.67892 0.72154 0.0
C55 C 0.55708 0.60645 0.6885 0.0
H56 H 0.52984 0.59498 0.66886 0.0
H57 H 0.60499 0.60034 0.68315 0.0
H58 H 0.54495 0.58508 0.70856 0.0
O59 O 0.47848 0.69558 0.60923 0.0
O60 O 0.4587 0.76763 0.62518 0.0
H61 H 0.47313 0.7832 0.72784 0.0
H62 H 0.50693 0.75134 0.75903 0.0
C63 C 0.51398 0.76475 0.73572 0.0
H64 H 0.55128 0.7904 0.73578 0.0
H65 H 0.40887 0.83447 0.66607 0.0
O66 O 0.58308 0.62078 0.6196 0.0
C67 C 0.44588 0.73206 0.6088 0.0
Co68 Co 0.02992 0.6771 0.92748 0.0
Co69 Co 0.04625 0.77804 0.90182 0.0
C70 C 0.95224 0.76019 0.9464 0.0
O71 O 0.97353 0.71917 0.94701 0.0
O72 O 0.97209 0.79017 0.92745 0.0
C73 C 0.94378 0.60964 0.93958 0.0
O74 O 0.90914 0.64201 0.92779 0.0
C75 C 0.03714 0.86808 0.86716 0.0
C76 C 0.13306 0.88468 0.86143 0.0
C77 C 0.07619 0.90133 0.85477 0.0
N78 N 0.06985 0.83404 0.88041 0.0
N79 N 0.12709 0.84443 0.87688 0.0
C80 C 0.97029 0.86681 0.86513 0.0
H81 H 0.95356 0.83074 0.86909 0.0
H82 H 0.95518 0.8794 0.84263 0.0
H83 H 0.95114 0.88996 0.8828 0.0
C84 C 0.02939 0.65157 0.86403 0.0
N85 N 0.03142 0.68429 0.88574 0.0
N86 N 0.03661 0.72613 0.87361 0.0
C87 C 0.03723 0.72089 0.84307 0.0
C88 C 0.03285 0.67328 0.83617 0.0
C89 C 0.02425 0.60017 0.87011 0.0
H90 H 0.05431 0.59031 0.88906 0.0
H91 H 0.97752 0.59204 0.87686 0.0
H92 H 0.03549 0.57896 0.84989 0.0
O93 O 0.1079 0.68947 0.94546 0.0
O94 O 0.11381 0.76423 0.93188 0.0
H95 H 0.08572 0.77962 0.82591 0.0
H96 H 0.04426 0.74743 0.79739 0.0
C97 C 0.04366 0.7603 0.8211 0.0
H98 H 0.00588 0.78504 0.82413 0.0
H99 H 0.16223 0.82385 0.88494 0.0
O100 O 1.0003 0.61531 0.93923 0.0
C101 C 0.13389 0.729 0.94671 0.0
Co102 Co 0.54464 0.35867 0.43035 0.0
Co103 Co 0.51289 0.26043 0.40355 0.0
C104 C 0.6188 0.27256 0.44364 0.0
O105 O 0.60482 0.31538 0.4455 0.0
O106 O 0.58792 0.24438 0.42754 0.0
C107 C 0.63211 0.42678 0.44146 0.0
O108 O 0.66682 0.39559 0.42851 0.0
C109 C 0.51876 0.17147 0.36836 0.0
C110 C 0.42261 0.15584 0.3625 0.0
C111 C 0.4793 0.13862 0.35601 0.0
N112 N 0.48658 0.2058 0.38157 0.0
N113 N 0.42918 0.19606 0.37794 0.0
C114 C 0.58562 0.17218 0.36627 0.0
H115 H 0.60266 0.20842 0.36902 0.0
H116 H 0.60069 0.15781 0.34421 0.0
H117 H 0.60456 0.15036 0.38471 0.0
C118 C 0.53686 0.38751 0.36733 0.0
N119 N 0.5353 0.35398 0.38859 0.0
N120 N 0.52362 0.31321 0.37608 0.0
C121 C 0.51799 0.31996 0.34581 0.0
C122 C 0.5261 0.36743 0.33944 0.0
C123 C 0.54797 0.43819 0.37383 0.0
H124 H 0.52084 0.44925 0.39361 0.0
H125 H 0.59596 0.44312 0.37952 0.0
H126 H 0.53705 0.46073 0.35416 0.0
O127 O 0.469 0.3465 0.45159 0.0
O128 O 0.44783 0.27539 0.4343 0.0
H129 H 0.45948 0.26636 0.32971 0.0
H130 H 0.50149 0.29587 0.30019 0.0
C131 C 0.50333 0.28215 0.32368 0.0
H132 H 0.53765 0.2542 0.3252 0.0
H133 H 0.39434 0.21696 0.38605 0.0
O134 O 0.57582 0.41994 0.44231 0.0
C135 C 0.43581 0.31029 0.45141 0.0
Co136 Co 0.52975 0.86281 0.12594 0.0
Co137 Co 0.54603 0.76198 0.15185 0.0
C138 C 0.45293 0.77909 0.10693 0.0
O139 O 0.47439 0.82006 0.10622 0.0
O140 O 0.47206 0.74941 0.12622 0.0
C141 C 0.4411 0.92782 0.11507 0.0
O142 O 0.40914 0.89439 0.12756 0.0
C143 C 0.53616 0.6724 0.1868 0.0
C144 C 0.6318 0.65484 0.19231 0.0
C145 C 0.57468 0.63882 0.19918 0.0
N146 N 0.56936 0.706 0.17335 0.0
N147 N 0.62643 0.69504 0.17675 0.0
C148 C 0.46936 0.67443 0.18901 0.0
H149 H 0.4533 0.71063 0.18493 0.0
H150 H 0.45423 0.66227 0.21162 0.0
H151 H 0.44956 0.6513 0.1715 0.0
C152 C 0.52907 0.88854 0.18935 0.0
N153 N 0.53101 0.85569 0.16771 0.0
N154 N 0.53614 0.81393 0.17994 0.0
C155 C 0.53683 0.81935 0.21047 0.0
C156 C 0.53249 0.86698 0.21726 0.0
C157 C 0.52429 0.93992 0.18316 0.0
H158 H 0.55348 0.94946 0.16379 0.0
H159 H 0.47732 0.94833 0.17703 0.0
H160 H 0.53684 0.96118 0.20317 0.0
O161 O 0.60806 0.85099 0.10812 0.0
O162 O 0.61353 0.77616 0.12174 0.0
H163 H 0.58513 0.76046 0.22749 0.0
H164 H 0.54487 0.79317 0.25619 0.0
C165 C 0.54345 0.7801 0.23254 0.0
H166 H 0.50528 0.75558 0.2299 0.0
H167 H 0.66188 0.71521 0.16852 0.0
O168 O 0.49787 0.92402 0.11426 0.0
C169 C 0.63384 0.81137 0.10692 0.0
Co170 Co 0.03978 0.18068 0.62407 0.0
Co171 Co 0.01085 0.27915 0.65091 0.0
C172 C 0.10607 0.26921 0.60558 0.0
O173 O 0.09005 0.22684 0.604 0.0
O174 O 0.08332 0.29649 0.62531 0.0
C175 C 0.13429 0.12098 0.61241 0.0
O176 O 0.16348 0.15639 0.62432 0.0
C177 C 0.01672 0.36846 0.68558 0.0
C178 C 0.92066 0.38367 0.69208 0.0
C179 C 0.97742 0.40127 0.69807 0.0
N180 N 0.98438 0.33381 0.67278 0.0
N181 N 0.92703 0.3433 0.67679 0.0
C182 C 0.08365 0.3681 0.68712 0.0
H183 H 0.10187 0.39011 0.66858 0.0
H184 H 0.10085 0.33196 0.68415 0.0
H185 H 0.09929 0.38243 0.70909 0.0
C186 C 0.04212 0.1538 0.68744 0.0
N187 N 0.03799 0.18698 0.66604 0.0
N188 N 0.02605 0.22767 0.67856 0.0
C189 C 0.02254 0.22123 0.70894 0.0
C190 C 0.03268 0.17404 0.71541 0.0
C191 C 0.05226 0.10302 0.68087 0.0
H192 H 0.02345 0.09192 0.66171 0.0
H193 H 0.09968 0.09787 0.67415 0.0
H194 H 0.04284 0.08068 0.70085 0.0
O195 O 0.96005 0.18789 0.60662 0.0
O196 O 0.94394 0.26126 0.62136 0.0
H197 H 0.96231 0.27357 0.72511 0.0
H198 H 0.00569 0.24515 0.75456 0.0
C199 C 0.00675 0.25879 0.73103 0.0
H200 H 0.04009 0.28748 0.72937 0.0
H201 H 0.89208 0.32212 0.66904 0.0
O202 O 0.07729 0.12154 0.61208 0.0
C203 C 0.92848 0.22495 0.60617 0.0
Co204 Co 0.53581 0.18015 0.93076 0.0
Co205 Co 0.55002 0.2823 0.90633 0.0
C206 C 0.45725 0.26171 0.95127 0.0
O207 O 0.47927 0.22094 0.95129 0.0
O208 O 0.47627 0.2924 0.93261 0.0
C209 C 0.44847 0.11372 0.9394 0.0
O210 O 0.41705 0.14704 0.92647 0.0
C211 C 0.53778 0.37312 0.87234 0.0
C212 C 0.63219 0.39617 0.87177 0.0
C213 C 0.57513 0.40966 0.86302 0.0
N214 N 0.57154 0.33996 0.88592 0.0
N215 N 0.62791 0.3541 0.88526 0.0
C216 C 0.47095 0.37107 0.87018 0.0
H217 H 0.45257 0.34451 0.88592 0.0
H218 H 0.45796 0.36115 0.84682 0.0
H219 H 0.45131 0.40589 0.87515 0.0
C220 C 0.53486 0.15687 0.86697 0.0
N221 N 0.53655 0.18897 0.88909 0.0
N222 N 0.54107 0.2312 0.87744 0.0
C223 C 0.54183 0.22679 0.84684 0.0
C224 C 0.53769 0.17938 0.8394 0.0
C225 C 0.53223 0.10516 0.8723 0.0
H226 H 0.56069 0.0957 0.89194 0.0
H227 H 0.48533 0.09504 0.87744 0.0
H228 H 0.54716 0.08522 0.85213 0.0
O229 O 0.61394 0.19259 0.94868 0.0
O230 O 0.61816 0.26788 0.93597 0.0
H231 H 0.58743 0.28824 0.83164 0.0
H232 H 0.55276 0.25433 0.80163 0.0
C233 C 0.54795 0.26678 0.8253 0.0
H234 H 0.5077 0.28932 0.82706 0.0
H235 H 0.66355 0.33529 0.89449 0.0
O236 O 0.50507 0.11809 0.94135 0.0
C237 C 0.63912 0.23245 0.95031 0.0
Co238 Co 0.0547 0.8598 0.43256 0.0
Co239 Co 0.02452 0.75967 0.40773 0.0
C240 C 0.12986 0.77519 0.44807 0.0
O241 O 0.11517 0.81792 0.44894 0.0
O242 O 0.09958 0.74594 0.4325 0.0
C243 C 0.14247 0.92808 0.44054 0.0
O244 O 0.17553 0.89578 0.42762 0.0
C245 C 0.03199 0.67007 0.37252 0.0
C246 C 0.93739 0.64758 0.37359 0.0
C247 C 0.99363 0.63393 0.36361 0.0
N248 N 0.99963 0.7031 0.38704 0.0
N249 N 0.94309 0.68934 0.38735 0.0
C250 C 0.09863 0.67197 0.36905 0.0
H251 H 0.11841 0.69814 0.38458 0.0
H252 H 0.10982 0.68244 0.34555 0.0
H253 H 0.11849 0.63701 0.37336 0.0
C254 C 0.04765 0.88509 0.36893 0.0
N255 N 0.04605 0.85262 0.39087 0.0
N256 N 0.03448 0.81122 0.37919 0.0
C257 C 0.0285 0.81659 0.3488 0.0
C258 C 0.03703 0.86368 0.34148 0.0
C259 C 0.05689 0.9363 0.37437 0.0
H260 H 0.03094 0.94749 0.39451 0.0
H261 H 0.10509 0.94286 0.37878 0.0
H262 H 0.04303 0.95757 0.35456 0.0
O263 O 0.97895 0.84803 0.45388 0.0
O264 O 0.95898 0.77587 0.43802 0.0
H265 H 0.97284 0.75928 0.33554 0.0
H266 H 0.00579 0.79131 0.30416 0.0
C267 C 0.01345 0.77787 0.32742 0.0
H268 H 0.05083 0.75235 0.32709 0.0
H269 H 0.9084 0.70811 0.3975 0.0
O270 O 0.08623 0.92181 0.44294 0.0
C271 C 0.94626 0.81152 0.45436 0.0
H272 H 0.38025 0.33788 0.95659 0.0
H273 H 0.43038 0.20808 0.99992 0.0
H274 H 0.30393 0.35018 0.99592 0.0
H275 H 0.35762 0.22112 0.03907 0.0
H276 H 0.18169 0.22766 0.08827 0.0
H277 H 0.2557 0.2185 0.04839 0.0
H278 H 0.28618 0.36785 0.04801 0.0
H279 H 0.20984 0.37709 0.08707 0.0
C280 C 0.37534 0.31223 0.97447 0.0
C281 C 0.41119 0.27185 0.97477 0.0
C282 C 0.33187 0.31931 0.99714 0.0
C283 C 0.32387 0.28636 1.02068 0.0
C284 C 0.36084 0.24669 1.02106 0.0
C285 C 0.40326 0.23942 0.99848 0.0
C286 C 0.20467 0.2585 0.07997 0.0
C287 C 0.19 0.30303 0.09108 0.0
C288 C 0.24733 0.25332 0.057 0.0
C289 C 0.27742 0.29247 0.04481 0.0
C290 C 0.26344 0.33697 0.05636 0.0
C291 C 0.22011 0.3422 0.07908 0.0
H292 H 0.40507 0.66242 0.57134 0.0
H293 H 0.37208 0.80635 0.59608 0.0
H294 H 0.33028 0.66826 0.53126 0.0
H295 H 0.29669 0.81182 0.5563 0.0
H296 H 0.2268 0.8275 0.46184 0.0
H297 H 0.30025 0.81409 0.50128 0.0
H298 H 0.22211 0.67865 0.51926 0.0
H299 H 0.14783 0.69225 0.47904 0.0
C300 C 0.38138 0.69518 0.56854 0.0
C301 C 0.3952 0.73411 0.58687 0.0
C302 C 0.33827 0.69838 0.54556 0.0
C303 C 0.30805 0.74065 0.54022 0.0
C304 C 0.32006 0.77897 0.55936 0.0
C305 C 0.36301 0.77575 0.58237 0.0
C306 C 0.22561 0.7945 0.47385 0.0
C307 C 0.18112 0.76108 0.46742 0.0
C308 C 0.26746 0.78703 0.49675 0.0
C309 C 0.26618 0.74586 0.51406 0.0
C310 C 0.22413 0.7109 0.50644 0.0
C311 C 0.18187 0.71846 0.48328 0.0
H312 H 0.43146 0.82759 0.05557 0.0
H313 H 0.37198 0.70493 0.10432 0.0
H314 H 0.35806 0.81355 1.01683 0.0
H315 H 0.29526 0.69159 0.06525 0.0
H316 H 0.19972 0.66052 0.97467 0.0
H317 H 0.27657 0.66991 1.01347 0.0
H318 H 0.25558 0.81998 1.00827 0.0
H319 H 0.18083 0.81058 0.96875 0.0
C320 C 0.40219 0.79761 0.05825 0.0
C321 C 0.40748 0.76758 0.08342 0.0
C322 C 0.35947 0.78978 0.03591 0.0
C323 C 0.31967 0.75193 0.03795 0.0
C324 C 0.32535 0.72106 0.06281 0.0
C325 C 0.36908 0.72871 0.08529 0.0
C326 C 0.21211 0.69557 0.98156 0.0
C327 C 0.18444 0.73486 0.96831 0.0
C328 C 0.25574 0.7009 1.00412 0.0
C329 C 0.27259 0.74566 1.01418 0.0
C330 C 0.24488 0.7849 1.00079 0.0
C331 C 0.20182 0.77958 0.97804 0.0
H332 H 0.36331 0.23533 0.46414 0.0
H333 H 0.39245 0.38013 0.48795 0.0
H334 H 0.28327 0.23062 0.5014 0.0
H335 H 0.31106 0.37576 0.52471 0.0
H336 H 0.2028 0.32961 0.61123 0.0
H337 H 0.2821 0.34232 0.57333 0.0
H338 H 0.18403 0.25702 0.50954 0.0
H339 H 0.10713 0.24352 0.54722 0.0
C340 C 0.35219 0.26636 0.47701 0.0
C341 C 0.38433 0.30811 0.47283 0.0
C342 C 0.30601 0.26377 0.4984 0.0
C343 C 0.29023 0.30296 0.51606 0.0
C344 C 0.32226 0.34478 0.51181 0.0
C345 C 0.36868 0.34732 0.49049 0.0
C346 C 0.19805 0.31444 0.5889 0.0
C347 C 0.14917 0.28527 0.58227 0.0
C348 C 0.24341 0.32153 0.56718 0.0
C349 C 0.24021 0.29979 0.5385 0.0
C350 C 0.18921 0.2731 0.53157 0.0
C351 C 0.1447 0.26575 0.55315 0.0
H352 H 0.67808 0.72967 0.08391 0.0
H353 H 0.70188 0.87945 0.07976 0.0
H354 H 0.75228 0.71995 0.0442 0.0
H355 H 0.77843 0.8697 0.04081 0.0
H356 H 0.87371 0.83578 0.94985 0.0
H357 H 0.7971 0.84939 0.98893 0.0
H358 H 0.85451 0.72421 0.03551 0.0
H359 H 0.92755 0.70988 0.9967 0.0
C360 C 0.70011 0.76051 0.07499 0.0
C361 C 0.68424 0.80527 0.08526 0.0
C362 C 0.74288 0.75501 0.05212 0.0
C363 C 0.77191 0.79406 0.03919 0.0
C364 C 0.75658 0.83885 0.0498 0.0
C365 C 0.71313 0.84438 0.07244 0.0
C366 C 0.86956 0.8113 0.96844 0.0
C367 C 0.90641 0.77151 0.96978 0.0
C368 C 0.82593 0.81912 0.99095 0.0
C369 C 0.81879 0.78751 1.01532 0.0
C370 C 0.85698 0.74863 1.01681 0.0
C371 C 0.89954 0.74062 0.99441 0.0
H372 H 0.85788 0.30063 0.59241 0.0
H373 H 0.88314 0.15459 0.57067 0.0
H374 H 0.78391 0.30687 0.55203 0.0
H375 H 0.80988 0.16119 0.52995 0.0
H376 H 0.63148 0.18982 0.4752 0.0
H377 H 0.70341 0.17496 0.51628 0.0
H378 H 0.79028 0.30673 0.49706 0.0
H379 H 0.71892 0.32145 0.45678 0.0
C380 C 0.84725 0.2697 0.57931 0.0
C381 C 0.87705 0.22726 0.58474 0.0
C382 C 0.8052 0.27336 0.55591 0.0
C383 C 0.79177 0.23471 0.53731 0.0
C384 C 0.81912 0.19163 0.54377 0.0
C385 C 0.8613 0.18796 0.56714 0.0
C386 C 0.66704 0.21483 0.47931 0.0
C387 C 0.66935 0.25689 0.46288 0.0
C388 C 0.70791 0.20659 0.50298 0.0
C389 C 0.7516 0.24032 0.51053 0.0
C390 C 0.75612 0.2807 0.49258 0.0
C391 C 0.71558 0.28887 0.46918 0.0
H392 H 0.87956 0.20466 0.10664 0.0
H393 H 0.9307 0.33364 0.06251 0.0
H394 H 0.8032 0.192 0.06736 0.0
H395 H 0.85793 0.32024 1.02341 0.0
H396 H 0.68193 0.31391 0.97443 0.0
H397 H 0.75597 0.32318 1.01426 0.0
H398 H 0.78516 0.17371 1.01532 0.0
H399 H 0.70875 0.16437 0.97628 0.0
C400 C 0.87486 0.23005 0.0886 0.0
C401 C 0.91097 0.27033 0.08807 0.0
C402 C 0.83138 0.22276 0.06595 0.0
C403 C 0.82364 0.25541 0.04222 0.0
C404 C 0.86092 0.29493 0.04159 0.0
C405 C 0.90335 0.30241 0.06414 0.0
C406 C 0.70461 0.28305 0.98287 0.0
C407 C 0.68957 0.23847 0.97194 0.0
C408 C 0.7473 0.28829 1.00581 0.0
C409 C 0.77708 0.24917 1.01815 0.0
C410 C 0.76268 0.20459 1.00683 0.0
C411 C 0.71931 0.1993 0.98413 0.0
H412 H 0.64905 0.85063 0.58474 0.0
H413 H 0.72632 0.71444 0.60056 0.0
H414 H 0.72336 0.86463 0.54457 0.0
H415 H 0.79986 0.72831 0.56123 0.0
H416 H 0.87154 0.73753 0.46654 0.0
H417 H 0.79617 0.73177 0.50629 0.0
H418 H 0.83159 0.87461 0.53249 0.0
H419 H 0.90639 0.88076 0.4924 0.0
C420 C 0.68271 0.82427 0.58021 0.0
C421 C 0.68146 0.78131 0.59567 0.0
C422 C 0.72501 0.83208 0.55709 0.0
C423 C 0.76661 0.79703 0.54911 0.0
C424 C 0.76741 0.75547 0.56603 0.0
C425 C 0.72551 0.74773 0.58888 0.0
C426 C 0.8629 0.76792 0.48049 0.0
C427 C 0.8956 0.80943 0.47631 0.0
C428 C 0.81995 0.76453 0.5035 0.0
C429 C 0.80847 0.80254 0.52296 0.0
C430 C 0.83918 0.84472 0.51794 0.0
C431 C 0.88229 0.8481 0.49496 0.0
H432 H 0.13072 0.39999 0.25459 0.0
H433 H 0.93852 0.38719 0.25538 0.0
H434 H 0.12498 0.46161 0.29301 0.0
H435 H 0.93199 0.44908 0.2933 0.0
H436 H 0.93651 0.55061 0.3712 0.0
H437 H 0.951 0.4778 0.34348 0.0
H438 H 0.09269 0.54248 0.29164 0.0
H439 H 0.07813 0.61515 0.31932 0.0
C440 C 0.08744 0.40908 0.264 0.0
C441 C 0.03515 0.38814 0.25266 0.0
C442 C 0.08394 0.44499 0.28555 0.0
C443 C 0.02795 0.4609 0.2961 0.0
C444 C 0.97594 0.43759 0.28607 0.0
C445 C 0.97955 0.40179 0.26449 0.0
C446 C 0.97121 0.54921 0.35408 0.0
C447 C 0.00669 0.58882 0.3479 0.0
C448 C 0.97942 0.50738 0.33811 0.0
C449 C 0.02315 0.50394 0.31529 0.0
C450 C 0.05945 0.54332 0.30949 0.0
C451 C 0.05124 0.58521 0.32552 0.0
H452 H 0.44088 0.64185 0.75082 0.0
H453 H 0.63271 0.65562 0.75581 0.0
H454 H 0.44379 0.58061 0.78968 0.0
H455 H 0.63653 0.59414 0.79401 0.0
H456 H 0.62963 0.49367 0.87142 0.0
H457 H 0.61484 0.56622 0.8435 0.0
H458 H 0.47568 0.50007 0.7907 0.0
H459 H 0.49015 0.4277 0.81893 0.0
C460 C 0.48338 0.63301 0.7612 0.0
C461 C 0.53643 0.6542 0.75098 0.0
C462 C 0.48531 0.59732 0.78302 0.0
C463 C 0.54047 0.58188 0.79493 0.0
C464 C 0.5931 0.6053 0.78583 0.0
C465 C 0.59105 0.64085 0.76405 0.0
C466 C 0.59531 0.49475 0.85409 0.0
C467 C 0.56073 0.45479 0.8477 0.0
C468 C 0.58697 0.53641 0.83797 0.0
C469 C 0.54418 0.53928 0.81465 0.0
C470 C 0.50831 0.49966 0.80883 0.0
C471 C 0.5165 0.45795 0.82513 0.0
H472 H 0.9076 0.44124 0.74119 0.0
H473 H 0.07276 0.46342 0.69229 0.0
H474 H 0.92305 0.51401 0.7684 0.0
H475 H 0.0886 0.53639 0.71989 0.0
H476 H 0.1233 0.62692 0.80826 0.0
H477 H 0.11186 0.56431 0.77099 0.0
H478 H 0.92386 0.5979 0.76259 0.0
H479 H 0.93571 0.65981 0.80036 0.0
C480 C 0.94734 0.4616 0.73619 0.0
C481 C 0.98949 0.4456 0.71491 0.0
C482 C 0.95597 0.50372 0.75167 0.0
C483 C 0.00693 0.53149 0.74628 0.0
C484 C 0.04913 0.51573 0.72487 0.0
C485 C 0.04034 0.47345 0.70925 0.0
C486 C 0.08023 0.62213 0.79737 0.0
C487 C 0.03055 0.64854 0.80677 0.0
C488 C 0.07346 0.58602 0.77617 0.0
C489 C 0.01666 0.57535 0.76413 0.0
C490 C 0.96802 0.60445 0.77183 0.0
C491 C 0.97488 0.64053 0.79302 0.0
H492 H 0.6177 0.37925 0.29991 0.0
H493 H 0.43403 0.4179 0.31605 0.0
H494 H 0.62646 0.44148 0.2621 0.0
H495 H 0.44246 0.48074 0.27859 0.0
H496 H 0.4753 0.5796 0.19712 0.0
H497 H 0.45944 0.50756 0.22584 0.0
H498 H 0.63164 0.52571 0.26877 0.0
H499 H 0.64707 0.59761 0.24067 0.0
C500 C 0.57851 0.39993 0.29441 0.0
C501 C 0.52493 0.39334 0.31041 0.0
C502 C 0.58369 0.43612 0.27317 0.0
C503 C 0.53545 0.46677 0.26763 0.0
C504 C 0.4804 0.45777 0.28208 0.0
C505 C 0.47534 0.42157 0.30339 0.0
C506 C 0.50925 0.56892 0.21311 0.0
C507 C 0.56207 0.59529 0.21687 0.0
C508 C 0.50039 0.52716 0.22938 0.0
C509 C 0.54448 0.51041 0.24945 0.0
C510 C 0.59719 0.53679 0.25307 0.0
C511 C 0.60583 0.57841 0.23704 0.0
H512 H 0.43564 0.88083 0.25318 0.0
H513 H 0.62336 0.91327 0.24495 0.0
H514 H 0.4244 0.94271 0.291 0.0
H515 H 0.61254 0.97588 0.28226 0.0
H516 H 0.57468 0.07659 0.3612 0.0
H517 H 0.58998 1.00376 0.33337 0.0
H518 H 0.42388 0.02651 0.28546 0.0
H519 H 0.40893 0.09909 0.31294 0.0
C520 C 0.47496 0.90002 0.26044 0.0
C521 C 0.5305 0.89188 0.24661 0.0
C522 C 0.46846 0.93608 0.28167 0.0
C523 C 0.51733 0.96505 0.28931 0.0
C524 C 0.57398 0.95428 0.27714 0.0
C525 C 0.58039 0.91817 0.25592 0.0
C526 C 0.54203 0.06665 0.34432 0.0
C527 C 0.49114 0.09451 0.33893 0.0
C528 C 0.55051 0.02447 0.32856 0.0
C529 C 0.50799 1.00885 0.30726 0.0
C530 C 0.45704 0.03668 0.3021 0.0
C531 C 0.4487 0.07869 0.31773 0.0
H532 H 0.14865 0.94149 0.81289 0.0
H533 H 0.97841 0.96194 0.8575 0.0
H534 H 0.13465 1.01377 0.78507 0.0
H535 H 0.96401 0.03449 0.8291 0.0
H536 H 0.93939 0.12561 0.73946 0.0
H537 H 0.94659 0.06244 0.77675 0.0
H538 H 0.13242 0.09776 0.79192 0.0
H539 H 0.12491 0.16018 0.75422 0.0
C540 C 0.10805 0.96133 0.81682 0.0
C541 C 0.06429 0.94506 0.83721 0.0
C542 C 0.10024 1.00318 0.80096 0.0
C543 C 0.04844 0.03042 0.80498 0.0
C544 C 1.0043 1.01425 0.82526 0.0
C545 C 0.01229 0.97222 0.84134 0.0
C546 C 0.98092 0.121 0.7518 0.0
C547 C 0.03136 0.14813 0.74442 0.0
C548 C 0.98526 0.08461 0.77301 0.0
C549 C 0.04038 0.07437 0.78701 0.0
C550 C 0.08955 0.10403 0.78118 0.0
C551 C 0.08513 0.14035 0.76 0.0
H552 H 0.57951 0.92839 0.74331 0.0
H553 H 0.43721 0.99217 0.69162 0.0
H554 H 0.5941 1.00128 0.77077 0.0
H555 H 0.45175 0.0652 0.71909 0.0
H556 H 0.43923 0.15571 0.80723 0.0
H557 H 0.43287 0.09387 0.76929 0.0
H558 H 0.62594 0.08235 0.76922 0.0
H559 H 0.63152 0.14395 0.80768 0.0
C560 C 0.55248 0.95822 0.73711 0.0
C561 C 0.5077 0.95432 0.71487 0.0
C562 C 0.56072 1.00024 0.75299 0.0
C563 C 0.52422 0.03945 0.74719 0.0
C564 C 0.48031 0.03574 0.72447 0.0
C565 C 0.47207 0.99379 0.70865 0.0
C566 C 0.48029 0.14137 0.79802 0.0
C567 C 0.53588 0.15528 0.80978 0.0
C568 C 0.47679 0.10559 0.77643 0.0
C569 C 0.5289 0.08255 0.76631 0.0
C570 C 0.58485 0.09875 0.77675 0.0
C571 C 0.58824 0.13466 0.79832 0.0
H572 H 0.98888 0.11457 0.24399 0.0
H573 H 0.129 0.04918 0.19169 0.0
H574 H 0.97449 0.04207 0.27214 0.0
H575 H 0.11426 0.97652 0.2195 0.0
H576 H 0.13246 0.88746 0.30726 0.0
H577 H 0.13596 0.94887 0.26903 0.0
H578 H 0.94311 0.96131 0.27318 0.0
H579 H 0.94051 0.90012 0.31209 0.0
C580 C 0.01538 0.08441 0.23781 0.0
C581 C 0.05981 0.08778 0.21536 0.0
C582 C 0.00724 0.04264 0.25406 0.0
C583 C 0.04333 1.00316 0.24827 0.0
C584 C 0.08623 1.00622 0.22502 0.0
C585 C 0.09454 0.04794 0.20895 0.0
C586 C 0.09072 0.90197 0.29898 0.0
C587 C 0.03615 0.88833 0.31201 0.0
C588 C 0.09258 0.93748 0.27717 0.0
C589 C 0.03981 0.96058 0.26802 0.0
C590 C 0.98472 0.94485 0.27989 0.0
C591 C 0.98297 0.90918 0.30174 0.0
H592 H 0.9894 0.52503 0.95452 0.0
H593 H 0.84433 0.6202 0.97454 0.0
H594 H 0.96876 0.48274 1.00142 0.0
H595 H 0.82473 0.57811 1.02184 0.0
H596 H 0.84844 0.42034 0.08865 0.0
H597 H 0.82469 0.46204 0.0417 0.0
H598 H 0.97291 0.55575 0.0575 0.0
H599 H 0.99763 0.51385 0.10404 0.0
C600 C 0.95164 0.53565 0.96832 0.0
C601 C 0.91884 0.57594 0.96119 0.0
C602 C 0.93991 0.51159 0.99504 0.0
C603 C 0.89562 0.52779 1.01495 0.0
C604 C 0.85875 0.56513 1.00651 0.0
C605 C 0.86995 0.58893 0.97947 0.0
C606 C 0.87426 0.45115 0.0828 0.0
C607 C 0.92528 0.46379 0.09966 0.0
C608 C 0.86068 0.47473 0.05597 0.0
C609 C 0.89738 0.51151 0.04631 0.0
C610 C 0.9442 0.52733 0.06483 0.0
C611 C 0.95825 0.5035 0.09134 0.0
H612 H 0.7416 0.61786 0.58709 0.0
H613 H 0.58855 0.52982 0.6059 0.0
H614 H 0.76069 0.57372 0.54051 0.0
H615 H 0.60847 0.48558 0.55975 0.0
H616 H 0.58407 0.50984 0.45775 0.0
H617 H 0.60756 0.55279 0.50398 0.0
H618 H 0.75844 0.46209 0.52039 0.0
H619 H 0.73571 0.41917 0.47371 0.0
C620 C 0.71396 0.58768 0.58208 0.0
C621 C 0.6631 0.5774 0.59972 0.0
C622 C 0.72486 0.5627 0.55545 0.0
C623 C 0.68553 0.52699 0.54678 0.0
C624 C 0.6391 0.51326 0.56624 0.0
C625 C 0.62781 0.53841 0.59255 0.0
C626 C 0.62371 0.50033 0.47052 0.0
C627 C 0.65767 0.46106 0.46249 0.0
C628 C 0.63703 0.52474 0.49688 0.0
C629 C 0.68419 0.51 0.51554 0.0
C630 C 0.72204 0.47386 0.50607 0.0
C631 C 0.70908 0.4496 0.47939 0.0
H632 H 0.35151 0.13054 0.97457 0.0
H633 H 0.48135 0.02441 0.95143 0.0
H634 H 0.32366 0.0862 1.01988 0.0
H635 H 0.4515 0.97933 0.99606 0.0
H636 H 0.47231 1.0178 0.10408 0.0
H637 H 0.44637 0.0623 0.05862 0.0
H638 H 0.32516 0.95278 0.03101 0.0
H639 H 0.34902 0.90899 0.07712 0.0
C640 C 0.37169 0.09655 0.97829 0.0
C641 C 0.41872 0.08069 0.95977 0.0
C642 C 0.35572 0.07141 1.00415 0.0
C643 C 0.38538 0.02963 1.011 0.0
C644 C 0.42772 1.01134 0.99075 0.0
C645 C 0.44483 0.03702 0.96539 0.0
C646 C 0.43792 1.00446 0.08906 0.0
C647 C 0.41262 0.96026 0.0939 0.0
C648 C 0.42304 0.0298 0.06321 0.0
C649 C 0.38382 1.01063 0.04172 0.0
C650 C 0.35478 0.96823 0.04768 0.0
C651 C 0.36843 0.94341 0.07399 0.0
H652 H 0.10527 1.01693 0.4502 0.0
H653 H 0.24011 0.91633 0.47615 0.0
H654 H 0.13177 0.06514 0.49391 0.0
H655 H 0.26456 0.96372 0.52066 0.0
H656 H 0.10964 0.02944 0.60254 0.0
H657 H 0.14014 0.98438 0.55808 0.0
H658 H 0.25408 0.09795 0.52936 0.0
H659 H 0.22571 0.14243 0.57453 0.0
C660 C 0.14217 1.00624 0.46456 0.0
C661 C 0.17057 0.96314 0.46004 0.0
C662 C 0.15739 0.03371 0.48941 0.0
C663 C 0.20009 1.01777 0.51029 0.0
C664 C 0.23214 0.97669 0.50446 0.0
C665 C 0.21809 0.94979 0.47906 0.0
C666 C 0.1434 0.04372 0.58751 0.0
C667 C 0.16531 0.08916 0.59174 0.0
C668 C 0.16093 1.01805 0.56224 0.0
C669 C 0.1994 0.03802 0.54069 0.0
C670 C 0.22509 0.08189 0.54608 0.0
C671 C 0.20883 0.10712 0.57185 0.0
loop_
_geom_bond_atom_site_label_1
_geom_bond_atom_site_label_2
_geom_bond_distance
_geom_bond_site_symmetry_2
_ccdc_geom_bond_type
Co0 O3 1.970 1_455 S
Co0 N17 1.989 . S
Co0 O25 1.967 . S
Co0 O32 1.920 . S
Co1 O4 1.966 1_455 S
Co1 N10 2.022 . S
Co1 N18 1.993 . S
Co1 O26 1.941 . S
C2 O3 1.258 . S
C2 O4 1.263 . S
O3 Co0 1.970 1_655 S
O3 C2 1.258 . S
O4 Co1 1.966 1_655 S
O4 C2 1.263 . S
C5 O6 1.235 . S
C5 O32 1.289 1_655 S
O6 C5 1.235 . S
C7 C9 1.400 1_655 S
C7 N10 1.351 1_655 S
C7 C12 1.501 . S
C8 C9 1.387 . S
C8 N11 1.341 . S
C9 C7 1.400 1_455 S
C9 C8 1.387 . S
N10 Co1 2.022 . S
N10 C7 1.351 1_455 S
N10 N11 1.365 . S
N11 C8 1.341 . S
N11 N10 1.365 . S
N11 H31 0.862 . S
C12 C7 1.501 . S
C12 H13 0.961 . S
C12 H14 0.961 . S
C12 H15 0.960 . S
H13 C12 0.961 . S
H14 C12 0.961 . S
H15 C12 0.960 . S
C16 N17 1.342 . S
C16 C20 1.401 . S
C16 C21 1.499 . S
N17 Co0 1.989 . S
N17 C16 1.342 . S
N17 N18 1.388 . S
N18 Co1 1.993 . S
N18 N17 1.388 . S
N18 C19 1.346 . S
C19 N18 1.346 . S
C19 C20 1.396 . S
C19 C29 1.510 . S
C20 C16 1.401 . S
C20 C19 1.396 . S
C21 C16 1.499 . S
C21 H22 0.959 . S
C21 H23 0.960 . S
C21 H24 0.961 . S
H22 C21 0.959 . S
H23 C21 0.960 . S
H24 C21 0.961 . S
O25 Co0 1.967 . S
O25 C33 1.258 . S
O26 Co1 1.941 . S
O26 C33 1.266 . S
H27 C29 0.959 . S
H28 C29 0.961 1_655 S
C29 C19 1.510 . S
C29 H27 0.959 . S
C29 H28 0.961 1_455 S
C29 H30 0.960 . S
H30 C29 0.960 . S
H31 N11 0.862 . S
O32 Co0 1.920 . S
O32 C5 1.289 1_455 S
C33 O25 1.258 . S
C33 O26 1.266 . S
Co34 O37 1.970 . S
Co34 N51 1.989 . S
Co34 O59 1.967 . S
Co34 O66 1.920 . S
Co35 O38 1.966 . S
Co35 N44 2.022 . S
Co35 N52 1.993 . S
Co35 O60 1.941 . S
C36 O37 1.258 . S
C36 O38 1.263 . S
O37 Co34 1.970 . S
O37 C36 1.258 . S
O38 Co35 1.966 . S
O38 C36 1.263 . S
C39 O40 1.235 . S
C39 O66 1.289 . S
O40 C39 1.235 . S
C41 C43 1.400 . S
C41 N44 1.351 . S
C41 C46 1.501 . S
C42 C43 1.387 . S
C42 N45 1.341 . S
C43 C41 1.400 . S
C43 C42 1.387 . S
N44 Co35 2.022 . S
N44 C41 1.351 . S
N44 N45 1.365 . S
N45 C42 1.341 . S
N45 N44 1.365 . S
N45 H65 0.862 . S
C46 C41 1.501 . S
C46 H47 0.961 . S
C46 H48 0.961 . S
C46 H49 0.960 . S
H47 C46 0.961 . S
H48 C46 0.961 . S
H49 C46 0.960 . S
C50 N51 1.342 . S
C50 C54 1.401 . S
C50 C55 1.499 . S
N51 Co34 1.989 . S
N51 C50 1.342 . S
N51 N52 1.388 . S
N52 Co35 1.993 . S
N52 N51 1.388 . S
N52 C53 1.346 . S
C53 N52 1.346 . S
C53 C54 1.396 . S
C53 C63 1.510 . S
C54 C50 1.401 . S
C54 C53 1.396 . S
C55 C50 1.499 . S
C55 H56 0.959 . S
C55 H57 0.960 . S
C55 H58 0.961 . S
H56 C55 0.959 . S
H57 C55 0.960 . S
H58 C55 0.961 . S
O59 Co34 1.967 . S
O59 C67 1.258 . S
O60 Co35 1.941 . S
O60 C67 1.266 . S
H61 C63 0.959 . S
H62 C63 0.961 . S
C63 C53 1.510 . S
C63 H61 0.959 . S
C63 H62 0.961 . S
C63 H64 0.960 . S
H64 C63 0.960 . S
H65 N45 0.862 . S
O66 Co34 1.920 . S
O66 C39 1.289 . S
C67 O59 1.258 . S
C67 O60 1.266 . S
Co68 O71 1.970 1_455 S
Co68 N85 1.989 . S
Co68 O93 1.967 . S
Co68 O100 1.920 . S
Co69 O72 1.966 1_455 S
Co69 N78 2.022 . S
Co69 N86 1.993 . S
Co69 O94 1.941 . S
C70 O71 1.258 . S
C70 O72 1.263 . S
O71 Co68 1.970 1_655 S
O71 C70 1.258 . S
O72 Co69 1.966 1_655 S
O72 C70 1.263 . S
C73 O74 1.235 . S
C73 O100 1.289 1_655 S
O74 C73 1.235 . S
C75 C77 1.400 1_655 S
C75 N78 1.351 1_655 S
C75 C80 1.501 . S
C76 C77 1.387 . S
C76 N79 1.341 . S
C77 C75 1.400 1_455 S
C77 C76 1.387 . S
N78 Co69 2.022 . S
N78 C75 1.351 1_455 S
N78 N79 1.365 . S
N79 C76 1.341 . S
N79 N78 1.365 . S
N79 H99 0.862 . S
C80 C75 1.501 . S
C80 H81 0.961 . S
C80 H82 0.961 . S
C80 H83 0.960 . S
H81 C80 0.961 . S
H82 C80 0.961 . S
H83 C80 0.960 . S
C84 N85 1.342 . S
C84 C88 1.401 . S
C84 C89 1.499 . S
N85 Co68 1.989 . S
N85 C84 1.342 . S
N85 N86 1.388 . S
N86 Co69 1.993 . S
N86 N85 1.388 . S
N86 C87 1.346 . S
C87 N86 1.346 . S
C87 C88 1.396 . S
C87 C97 1.510 . S
C88 C84 1.401 . S
C88 C87 1.396 . S
C89 C84 1.499 . S
C89 H90 0.959 . S
C89 H91 0.960 . S
C89 H92 0.961 . S
H90 C89 0.959 . S
H91 C89 0.960 . S
H92 C89 0.961 . S
O93 Co68 1.967 . S
O93 C101 1.258 . S
O94 Co69 1.941 . S
O94 C101 1.266 . S
H95 C97 0.959 . S
H96 C97 0.961 1_655 S
C97 C87 1.510 . S
C97 H95 0.959 . S
C97 H96 0.961 1_455 S
C97 H98 0.960 . S
H98 C97 0.960 . S
H99 N79 0.862 . S
O100 Co68 1.920 . S
O100 C73 1.289 1_455 S
C101 O93 1.258 . S
C101 O94 1.266 . S
Co102 O105 1.970 . S
Co102 N119 1.989 . S
Co102 O127 1.967 . S
Co102 O134 1.920 . S
Co103 O106 1.966 . S
Co103 N112 2.022 . S
Co103 N120 1.993 . S
Co103 O128 1.941 . S
C104 O105 1.258 . S
C104 O106 1.263 . S
O105 Co102 1.970 . S
O105 C104 1.258 . S
O106 Co103 1.966 . S
O106 C104 1.263 . S
C107 O108 1.235 . S
C107 O134 1.289 . S
O108 C107 1.235 . S
C109 C111 1.400 . S
C109 N112 1.351 . S
C109 C114 1.501 . S
C110 C111 1.387 . S
C110 N113 1.341 . S
C111 C109 1.400 . S
C111 C110 1.387 . S
N112 Co103 2.022 . S
N112 C109 1.351 . S
N112 N113 1.365 . S
N113 C110 1.341 . S
N113 N112 1.365 . S
N113 H133 0.862 . S
C114 C109 1.501 . S
C114 H115 0.961 . S
C114 H116 0.961 . S
C114 H117 0.960 . S
H115 C114 0.961 . S
H116 C114 0.961 . S
H117 C114 0.960 . S
C118 N119 1.342 . S
C118 C122 1.401 . S
C118 C123 1.499 . S
N119 Co102 1.989 . S
N119 C118 1.342 . S
N119 N120 1.388 . S
N120 Co103 1.993 . S
N120 N119 1.388 . S
N120 C121 1.346 . S
C121 N120 1.346 . S
C121 C122 1.396 . S
C121 C131 1.510 . S
C122 C118 1.401 . S
C122 C121 1.396 . S
C123 C118 1.499 . S
C123 H124 0.959 . S
C123 H125 0.960 . S
C123 H126 0.961 . S
H124 C123 0.959 . S
H125 C123 0.960 . S
H126 C123 0.961 . S
O127 Co102 1.967 . S
O127 C135 1.258 . S
O128 Co103 1.941 . S
O128 C135 1.266 . S
H129 C131 0.959 . S
H130 C131 0.961 . S
C131 C121 1.510 . S
C131 H129 0.959 . S
C131 H130 0.961 . S
C131 H132 0.960 . S
H132 C131 0.960 . S
H133 N113 0.862 . S
O134 Co102 1.920 . S
O134 C107 1.289 . S
C135 O127 1.258 . S
C135 O128 1.266 . S
Co136 O139 1.970 . S
Co136 N153 1.989 . S
Co136 O161 1.967 . S
Co136 O168 1.920 . S
Co137 O140 1.966 . S
Co137 N146 2.022 . S
Co137 N154 1.993 . S
Co137 O162 1.941 . S
C138 O139 1.258 . S
C138 O140 1.263 . S
O139 Co136 1.970 . S
O139 C138 1.258 . S
O140 Co137 1.966 . S
O140 C138 1.263 . S
C141 O142 1.235 . S
C141 O168 1.289 . S
O142 C141 1.235 . S
C143 C145 1.400 . S
C143 N146 1.351 . S
C143 C148 1.501 . S
C144 C145 1.387 . S
C144 N147 1.341 . S
C145 C143 1.400 . S
C145 C144 1.387 . S
N146 Co137 2.022 . S
N146 C143 1.351 . S
N146 N147 1.365 . S
N147 C144 1.341 . S
N147 N146 1.365 . S
N147 H167 0.862 . S
C148 C143 1.501 . S
C148 H149 0.961 . S
C148 H150 0.961 . S
C148 H151 0.960 . S
H149 C148 0.961 . S
H150 C148 0.961 . S
H151 C148 0.960 . S
C152 N153 1.342 . S
C152 C156 1.401 . S
C152 C157 1.499 . S
N153 Co136 1.989 . S
N153 C152 1.342 . S
N153 N154 1.388 . S
N154 Co137 1.993 . S
N154 N153 1.388 . S
N154 C155 1.346 . S
C155 N154 1.346 . S
C155 C156 1.396 . S
C155 C165 1.510 . S
C156 C152 1.401 . S
C156 C155 1.396 . S
C157 C152 1.499 . S
C157 H158 0.959 . S
C157 H159 0.960 . S
C157 H160 0.961 . S
H158 C157 0.959 . S
H159 C157 0.960 . S
H160 C157 0.961 . S
O161 Co136 1.967 . S
O161 C169 1.258 . S
O162 Co137 1.941 . S
O162 C169 1.266 . S
H163 C165 0.959 . S
H164 C165 0.961 . S
C165 C155 1.510 . S
C165 H163 0.959 . S
C165 H164 0.961 . S
C165 H166 0.960 . S
H166 C165 0.960 . S
H167 N147 0.862 . S
O168 Co136 1.920 . S
O168 C141 1.289 . S
C169 O161 1.258 . S
C169 O162 1.266 . S
Co170 O173 1.970 . S
Co170 N187 1.989 . S
Co170 O195 1.967 1_455 S
Co170 O202 1.920 . S
Co171 O174 1.966 . S
Co171 N180 2.022 . S
Co171 N188 1.993 . S
Co171 O196 1.941 1_455 S
C172 O173 1.258 . S
C172 O174 1.263 . S
O173 Co170 1.970 . S
O173 C172 1.258 . S
O174 Co171 1.966 . S
O174 C172 1.263 . S
C175 O176 1.235 . S
C175 O202 1.289 . S
O176 C175 1.235 . S
C177 C179 1.400 . S
C177 N180 1.351 . S
C177 C182 1.501 . S
C178 C179 1.387 1_655 S
C178 N181 1.341 . S
C179 C177 1.400 . S
C179 C178 1.387 1_455 S
N180 Co171 2.022 . S
N180 C177 1.351 . S
N180 N181 1.365 1_455 S
N181 C178 1.341 . S
N181 N180 1.365 1_655 S
N181 H201 0.862 . S
C182 C177 1.501 . S
C182 H183 0.961 . S
C182 H184 0.961 . S
C182 H185 0.960 . S
H183 C182 0.961 . S
H184 C182 0.961 . S
H185 C182 0.960 . S
C186 N187 1.342 . S
C186 C190 1.401 . S
C186 C191 1.499 . S
N187 Co170 1.989 . S
N187 C186 1.342 . S
N187 N188 1.388 . S
N188 Co171 1.993 . S
N188 N187 1.388 . S
N188 C189 1.346 . S
C189 N188 1.346 . S
C189 C190 1.396 . S
C189 C199 1.510 . S
C190 C186 1.401 . S
C190 C189 1.396 . S
C191 C186 1.499 . S
C191 H192 0.959 . S
C191 H193 0.960 . S
C191 H194 0.961 1_455 S
H192 C191 0.959 . S
H193 C191 0.960 . S
H194 C191 0.961 1_655 S
O195 Co170 1.967 1_655 S
O195 C203 1.258 . S
O196 Co171 1.941 1_655 S
O196 C203 1.266 . S
H197 C199 0.959 1_655 S
H198 C199 0.961 . S
C199 C189 1.510 . S
C199 H197 0.959 1_455 S
C199 H198 0.961 . S
C199 H200 0.960 . S
H200 C199 0.960 . S
H201 N181 0.862 . S
O202 Co170 1.920 . S
O202 C175 1.289 . S
C203 O195 1.258 . S
C203 O196 1.266 . S
Co204 O207 1.970 . S
Co204 N221 1.989 . S
Co204 O229 1.967 . S
Co204 O236 1.920 . S
Co205 O208 1.966 . S
Co205 N214 2.022 . S
Co205 N222 1.993 . S
Co205 O230 1.941 . S
C206 O207 1.258 . S
C206 O208 1.263 . S
O207 Co204 1.970 . S
O207 C206 1.258 . S
O208 Co205 1.966 . S
O208 C206 1.263 . S
C209 O210 1.235 . S
C209 O236 1.289 . S
O210 C209 1.235 . S
C211 C213 1.400 . S
C211 N214 1.351 . S
C211 C216 1.501 . S
C212 C213 1.387 . S
C212 N215 1.341 . S
C213 C211 1.400 . S
C213 C212 1.387 . S
N214 Co205 2.022 . S
N214 C211 1.351 . S
N214 N215 1.365 . S
N215 C212 1.341 . S
N215 N214 1.365 . S
N215 H235 0.862 . S
C216 C211 1.501 . S
C216 H217 0.961 . S
C216 H218 0.961 . S
C216 H219 0.960 . S
H217 C216 0.961 . S
H218 C216 0.961 . S
H219 C216 0.960 . S
C220 N221 1.342 . S
C220 C224 1.401 . S
C220 C225 1.499 . S
N221 Co204 1.989 . S
N221 C220 1.342 . S
N221 N222 1.388 . S
N222 Co205 1.993 . S
N222 N221 1.388 . S
N222 C223 1.346 . S
C223 N222 1.346 . S
C223 C224 1.396 . S
C223 C233 1.510 . S
C224 C220 1.401 . S
C224 C223 1.396 . S
C225 C220 1.499 . S
C225 H226 0.959 . S
C225 H227 0.960 . S
C225 H228 0.961 . S
H226 C225 0.959 . S
H227 C225 0.960 . S
H228 C225 0.961 . S
O229 Co204 1.967 . S
O229 C237 1.258 . S
O230 Co205 1.941 . S
O230 C237 1.266 . S
H231 C233 0.959 . S
H232 C233 0.961 . S
C233 C223 1.510 . S
C233 H231 0.959 . S
C233 H232 0.961 . S
C233 H234 0.960 . S
H234 C233 0.960 . S
H235 N215 0.862 . S
O236 Co204 1.920 . S
O236 C209 1.289 . S
C237 O229 1.258 . S
C237 O230 1.266 . S
Co238 O241 1.970 . S
Co238 N255 1.989 . S
Co238 O263 1.967 1_455 S
Co238 O270 1.920 . S
Co239 O242 1.966 . S
Co239 N248 2.022 . S
Co239 N256 1.993 . S
Co239 O264 1.941 1_455 S
C240 O241 1.258 . S
C240 O242 1.263 . S
O241 Co238 1.970 . S
O241 C240 1.258 . S
O242 Co239 1.966 . S
O242 C240 1.263 . S
C243 O244 1.235 . S
C243 O270 1.289 . S
O244 C243 1.235 . S
C245 C247 1.400 . S
C245 N248 1.351 . S
C245 C250 1.501 . S
C246 C247 1.387 1_655 S
C246 N249 1.341 . S
C247 C245 1.400 . S
C247 C246 1.387 1_455 S
N248 Co239 2.022 . S
N248 C245 1.351 . S
N248 N249 1.365 1_455 S
N249 C246 1.341 . S
N249 N248 1.365 1_655 S
N249 H269 0.862 . S
C250 C245 1.501 . S
C250 H251 0.961 . S
C250 H252 0.961 . S
C250 H253 0.960 . S
H251 C250 0.961 . S
H252 C250 0.961 . S
H253 C250 0.960 . S
C254 N255 1.342 . S
C254 C258 1.401 . S
C254 C259 1.499 . S
N255 Co238 1.989 . S
N255 C254 1.342 . S
N255 N256 1.388 . S
N256 Co239 1.993 . S
N256 N255 1.388 . S
N256 C257 1.346 . S
C257 N256 1.346 . S
C257 C258 1.396 . S
C257 C267 1.510 . S
C258 C254 1.401 . S
C258 C257 1.396 . S
C259 C254 1.499 . S
C259 H260 0.959 . S
C259 H261 0.960 . S
C259 H262 0.961 1_455 S
H260 C259 0.959 . S
H261 C259 0.960 . S
H262 C259 0.961 1_655 S
O263 Co238 1.967 1_655 S
O263 C271 1.258 . S
O264 Co239 1.941 1_655 S
O264 C271 1.266 . S
H265 C267 0.959 1_655 S
H266 C267 0.961 . S
C267 C257 1.510 . S
C267 H265 0.959 1_455 S
C267 H266 0.961 . S
C267 H268 0.960 . S
H268 C267 0.960 . S
H269 N249 0.862 . S
O270 Co238 1.920 . S
O270 C243 1.289 . S
C271 O263 1.258 . S
C271 O264 1.266 . S
H272 C280 0.950 . S
H273 C285 0.950 . S
H274 C282 0.950 . S
H275 C284 0.950 . S
H276 C286 0.950 . S
H277 C288 0.950 . S
H278 C290 0.950 . S
H279 C291 0.950 . S
C280 H272 0.950 . S
C280 C281 1.386 . S
C280 C282 1.391 . S
C281 C280 1.386 . S
C281 C285 1.393 . S
C282 H274 0.950 . S
C282 C280 1.391 . S
C282 C283 1.400 . S
C283 C282 1.400 . S
C283 C284 1.398 . S
C283 C289 1.491 1_556 S
C284 H275 0.950 . S
C284 C283 1.398 . S
C284 C285 1.391 . S
C285 H273 0.950 . S
C285 C281 1.393 . S
C285 C284 1.391 . S
C286 H276 0.950 . S
C286 C287 1.386 . S
C286 C288 1.391 . S
C287 C286 1.386 . S
C287 C291 1.393 . S
C288 H277 0.950 . S
C288 C286 1.391 . S
C288 C289 1.400 . S
C289 C283 1.491 1_554 S
C289 C288 1.400 . S
C289 C290 1.398 . S
C290 H278 0.950 . S
C290 C289 1.398 . S
C290 C291 1.391 . S
C291 H279 0.950 . S
C291 C287 1.393 . S
C291 C290 1.391 . S
H292 C300 0.950 . S
H293 C305 0.950 . S
H294 C302 0.950 . S
H295 C304 0.950 . S
H296 C306 0.950 . S
H297 C308 0.950 . S
H298 C310 0.950 . S
H299 C311 0.950 . S
C300 H292 0.950 . S
C300 C301 1.386 . S
C300 C302 1.391 . S
C301 C300 1.386 . S
C301 C305 1.393 . S
C302 H294 0.950 . S
C302 C300 1.391 . S
C302 C303 1.400 . S
C303 C302 1.400 . S
C303 C304 1.398 . S
C303 C309 1.491 . S
C304 H295 0.950 . S
C304 C303 1.398 . S
C304 C305 1.391 . S
C305 H293 0.950 . S
C305 C301 1.393 . S
C305 C304 1.391 . S
C306 H296 0.950 . S
C306 C307 1.386 . S
C306 C308 1.391 . S
C307 C306 1.386 . S
C307 C311 1.393 . S
C308 H297 0.950 . S
C308 C306 1.391 . S
C308 C309 1.400 . S
C309 C303 1.491 . S
C309 C308 1.400 . S
C309 C310 1.398 . S
C310 H298 0.950 . S
C310 C309 1.398 . S
C310 C311 1.391 . S
C311 H299 0.950 . S
C311 C307 1.393 . S
C311 C310 1.391 . S
H312 C320 0.950 . S
H313 C325 0.950 . S
H314 C322 0.950 1_556 S
H315 C324 0.950 . S
H316 C326 0.950 . S
H317 C328 0.950 1_554 S
H318 C330 0.950 . S
H319 C331 0.950 . S
C320 H312 0.950 . S
C320 C321 1.386 . S
C320 C322 1.391 . S
C321 C320 1.386 . S
C321 C325 1.393 . S
C322 H314 0.950 1_554 S
C322 C320 1.391 . S
C322 C323 1.400 . S
C323 C322 1.400 . S
C323 C324 1.398 . S
C323 C329 1.491 1_554 S
C324 H315 0.950 . S
C324 C323 1.398 . S
C324 C325 1.391 . S
C325 H313 0.950 . S
C325 C321 1.393 . S
C325 C324 1.391 . S
C326 H316 0.950 . S
C326 C327 1.386 . S
C326 C328 1.391 . S
C327 C326 1.386 . S
C327 C331 1.393 . S
C328 H317 0.950 1_556 S
C328 C326 1.391 . S
C328 C329 1.400 . S
C329 C323 1.491 1_556 S
C329 C328 1.400 . S
C329 C330 1.398 . S
C330 H318 0.950 . S
C330 C329 1.398 . S
C330 C331 1.391 . S
C331 H319 0.950 . S
C331 C327 1.393 . S
C331 C330 1.391 . S
H332 C340 0.950 . S
H333 C345 0.950 . S
H334 C342 0.950 . S
H335 C344 0.950 . S
H336 C346 0.950 . S
H337 C348 0.950 . S
H338 C350 0.950 . S
H339 C351 0.950 . S
C340 H332 0.950 . S
C340 C341 1.386 . S
C340 C342 1.391 . S
C341 C340 1.386 . S
C341 C345 1.393 . S
C342 H334 0.950 . S
C342 C340 1.391 . S
C342 C343 1.400 . S
C343 C342 1.400 . S
C343 C344 1.398 . S
C343 C349 1.491 . S
C344 H335 0.950 . S
C344 C343 1.398 . S
C344 C345 1.391 . S
C345 H333 0.950 . S
C345 C341 1.393 . S
C345 C344 1.391 . S
C346 H336 0.950 . S
C346 C347 1.386 . S
C346 C348 1.391 . S
C347 C346 1.386 . S
C347 C351 1.393 . S
C348 H337 0.950 . S
C348 C346 1.391 . S
C348 C349 1.400 . S
C349 C343 1.491 . S
C349 C348 1.400 . S
C349 C350 1.398 . S
C350 H338 0.950 . S
C350 C349 1.398 . S
C350 C351 1.391 . S
C351 H339 0.950 . S
C351 C347 1.393 . S
C351 C350 1.391 . S
H352 C360 0.950 . S
H353 C365 0.950 . S
H354 C362 0.950 . S
H355 C364 0.950 . S
H356 C366 0.950 . S
H357 C368 0.950 . S
H358 C370 0.950 . S
H359 C371 0.950 . S
C360 H352 0.950 . S
C360 C361 1.386 . S
C360 C362 1.391 . S
C361 C360 1.386 . S
C361 C365 1.393 . S
C362 H354 0.950 . S
C362 C360 1.391 . S
C362 C363 1.400 . S
C363 C362 1.400 . S
C363 C364 1.398 . S
C363 C369 1.491 1_554 S
C364 H355 0.950 . S
C364 C363 1.398 . S
C364 C365 1.391 . S
C365 H353 0.950 . S
C365 C361 1.393 . S
C365 C364 1.391 . S
C366 H356 0.950 . S
C366 C367 1.386 . S
C366 C368 1.391 . S
C367 C366 1.386 . S
C367 C371 1.393 . S
C368 H357 0.950 . S
C368 C366 1.391 . S
C368 C369 1.400 . S
C369 C363 1.491 1_556 S
C369 C368 1.400 . S
C369 C370 1.398 . S
C370 H358 0.950 . S
C370 C369 1.398 . S
C370 C371 1.391 . S
C371 H359 0.950 . S
C371 C367 1.393 . S
C371 C370 1.391 . S
H372 C380 0.950 . S
H373 C385 0.950 . S
H374 C382 0.950 . S
H375 C384 0.950 . S
H376 C386 0.950 . S
H377 C388 0.950 . S
H378 C390 0.950 . S
H379 C391 0.950 . S
C380 H372 0.950 . S
C380 C381 1.386 . S
C380 C382 1.391 . S
C381 C380 1.386 . S
C381 C385 1.393 . S
C382 H374 0.950 . S
C382 C380 1.391 . S
C382 C383 1.400 . S
C383 C382 1.400 . S
C383 C384 1.398 . S
C383 C389 1.491 . S
C384 H375 0.950 . S
C384 C383 1.398 . S
C384 C385 1.391 . S
C385 H373 0.950 . S
C385 C381 1.393 . S
C385 C384 1.391 . S
C386 H376 0.950 . S
C386 C387 1.386 . S
C386 C388 1.391 . S
C387 C386 1.386 . S
C387 C391 1.393 . S
C388 H377 0.950 . S
C388 C386 1.391 . S
C388 C389 1.400 . S
C389 C383 1.491 . S
C389 C388 1.400 . S
C389 C390 1.398 . S
C390 H378 0.950 . S
C390 C389 1.398 . S
C390 C391 1.391 . S
C391 H379 0.950 . S
C391 C387 1.393 . S
C391 C390 1.391 . S
H392 C400 0.950 . S
H393 C405 0.950 . S
H394 C402 0.950 . S
H395 C404 0.950 . S
H396 C406 0.950 . S
H397 C408 0.950 . S
H398 C410 0.950 . S
H399 C411 0.950 . S
C400 H392 0.950 . S
C400 C401 1.386 . S
C400 C402 1.391 . S
C401 C400 1.386 . S
C401 C405 1.393 . S
C402 H394 0.950 . S
C402 C400 1.391 . S
C402 C403 1.400 . S
C403 C402 1.400 . S
C403 C404 1.398 . S
C403 C409 1.491 1_554 S
C404 H395 0.950 . S
C404 C403 1.398 . S
C404 C405 1.391 . S
C405 H393 0.950 . S
C405 C401 1.393 . S
C405 C404 1.391 . S
C406 H396 0.950 . S
C406 C407 1.386 . S
C406 C408 1.391 . S
C407 C406 1.386 . S
C407 C411 1.393 . S
C408 H397 0.950 . S
C408 C406 1.391 . S
C408 C409 1.400 . S
C409 C403 1.491 1_556 S
C409 C408 1.400 . S
C409 C410 1.398 . S
C410 H398 0.950 . S
C410 C409 1.398 . S
C410 C411 1.391 . S
C411 H399 0.950 . S
C411 C407 1.393 . S
C411 C410 1.391 . S
H412 C420 0.950 . S
H413 C425 0.950 . S
H414 C422 0.950 . S
H415 C424 0.950 . S
H416 C426 0.950 . S
H417 C428 0.950 . S
H418 C430 0.950 . S
H419 C431 0.950 . S
C420 H412 0.950 . S
C420 C421 1.386 . S
C420 C422 1.391 . S
C421 C420 1.386 . S
C421 C425 1.393 . S
C422 H414 0.950 . S
C422 C420 1.391 . S
C422 C423 1.400 . S
C423 C422 1.400 . S
C423 C424 1.398 . S
C423 C429 1.491 . S
C424 H415 0.950 . S
C424 C423 1.398 . S
C424 C425 1.391 . S
C425 H413 0.950 . S
C425 C421 1.393 . S
C425 C424 1.391 . S
C426 H416 0.950 . S
C426 C427 1.386 . S
C426 C428 1.391 . S
C427 C426 1.386 . S
C427 C431 1.393 . S
C428 H417 0.950 . S
C428 C426 1.391 . S
C428 C429 1.400 . S
C429 C423 1.491 . S
C429 C428 1.400 . S
C429 C430 1.398 . S
C430 H418 0.950 . S
C430 C429 1.398 . S
C430 C431 1.391 . S
C431 H419 0.950 . S
C431 C427 1.393 . S
C431 C430 1.391 . S
H432 C440 0.950 . S
H433 C445 0.950 . S
H434 C442 0.950 . S
H435 C444 0.950 . S
H436 C446 0.950 . S
H437 C448 0.950 . S
H438 C450 0.950 . S
H439 C451 0.950 . S
C440 H432 0.950 . S
C440 C441 1.386 . S
C440 C442 1.391 . S
C441 C440 1.386 . S
C441 C445 1.393 . S
C442 H434 0.950 . S
C442 C440 1.391 . S
C442 C443 1.400 . S
C443 C442 1.400 . S
C443 C444 1.398 . S
C443 C449 1.491 . S
C444 H435 0.950 . S
C444 C443 1.398 . S
C444 C445 1.391 . S
C445 H433 0.950 . S
C445 C441 1.393 . S
C445 C444 1.391 . S
C446 H436 0.950 . S
C446 C447 1.386 . S
C446 C448 1.391 . S
C447 C446 1.386 . S
C447 C451 1.393 . S
C448 H437 0.950 . S
C448 C446 1.391 . S
C448 C449 1.400 . S
C449 C443 1.491 . S
C449 C448 1.400 . S
C449 C450 1.398 . S
C450 H438 0.950 . S
C450 C449 1.398 . S
C450 C451 1.391 . S
C451 H439 0.950 . S
C451 C447 1.393 . S
C451 C450 1.391 . S
H452 C460 0.950 . S
H453 C465 0.950 . S
H454 C462 0.950 . S
H455 C464 0.950 . S
H456 C466 0.950 . S
H457 C468 0.950 . S
H458 C470 0.950 . S
H459 C471 0.950 . S
C460 H452 0.950 . S
C460 C461 1.386 . S
C460 C462 1.391 . S
C461 C460 1.386 . S
C461 C465 1.393 . S
C462 H454 0.950 . S
C462 C460 1.391 . S
C462 C463 1.400 . S
C463 C462 1.400 . S
C463 C464 1.398 . S
C463 C469 1.491 . S
C464 H455 0.950 . S
C464 C463 1.398 . S
C464 C465 1.391 . S
C465 H453 0.950 . S
C465 C461 1.393 . S
C465 C464 1.391 . S
C466 H456 0.950 . S
C466 C467 1.386 . S
C466 C468 1.391 . S
C467 C466 1.386 . S
C467 C471 1.393 . S
C468 H457 0.950 . S
C468 C466 1.391 . S
C468 C469 1.400 . S
C469 C463 1.491 . S
C469 C468 1.400 . S
C469 C470 1.398 . S
C470 H458 0.950 . S
C470 C469 1.398 . S
C470 C471 1.391 . S
C471 H459 0.950 . S
C471 C467 1.393 . S
C471 C470 1.391 . S
H472 C480 0.950 . S
H473 C485 0.950 . S
H474 C482 0.950 . S
H475 C484 0.950 . S
H476 C486 0.950 . S
H477 C488 0.950 . S
H478 C490 0.950 . S
H479 C491 0.950 . S
C480 H472 0.950 . S
C480 C481 1.386 . S
C480 C482 1.391 . S
C481 C480 1.386 . S
C481 C485 1.393 . S
C482 H474 0.950 . S
C482 C480 1.391 . S
C482 C483 1.400 . S
C483 C482 1.400 . S
C483 C484 1.398 . S
C483 C489 1.491 . S
C484 H475 0.950 . S
C484 C483 1.398 . S
C484 C485 1.391 . S
C485 H473 0.950 . S
C485 C481 1.393 . S
C485 C484 1.391 . S
C486 H476 0.950 . S
C486 C487 1.386 . S
C486 C488 1.391 . S
C487 C486 1.386 . S
C487 C491 1.393 . S
C488 H477 0.950 . S
C488 C486 1.391 . S
C488 C489 1.400 . S
C489 C483 1.491 . S
C489 C488 1.400 . S
C489 C490 1.398 . S
C490 H478 0.950 . S
C490 C489 1.398 . S
C490 C491 1.391 . S
C491 H479 0.950 . S
C491 C487 1.393 . S
C491 C490 1.391 . S
H492 C500 0.950 . S
H493 C505 0.950 . S
H494 C502 0.950 . S
H495 C504 0.950 . S
H496 C506 0.950 . S
H497 C508 0.950 . S
H498 C510 0.950 . S
H499 C511 0.950 . S
C500 H492 0.950 . S
C500 C501 1.386 . S
C500 C502 1.391 . S
C501 C500 1.386 . S
C501 C505 1.393 . S
C502 H494 0.950 . S
C502 C500 1.391 . S
C502 C503 1.400 . S
C503 C502 1.400 . S
C503 C504 1.398 . S
C503 C509 1.491 . S
C504 H495 0.950 . S
C504 C503 1.398 . S
C504 C505 1.391 . S
C505 H493 0.950 . S
C505 C501 1.393 . S
C505 C504 1.391 . S
C506 H496 0.950 . S
C506 C507 1.386 . S
C506 C508 1.391 . S
C507 C506 1.386 . S
C507 C511 1.393 . S
C508 H497 0.950 . S
C508 C506 1.391 . S
C508 C509 1.400 . S
C509 C503 1.491 . S
C509 C508 1.400 . S
C509 C510 1.398 . S
C510 H498 0.950 . S
C510 C509 1.398 . S
C510 C511 1.391 . S
C511 H499 0.950 . S
C511 C507 1.393 . S
C511 C510 1.391 . S
H512 C520 0.950 . S
H513 C525 0.950 . S
H514 C522 0.950 . S
H515 C524 0.950 . S
H516 C526 0.950 . S
H517 C528 0.950 . S
H518 C530 0.950 . S
H519 C531 0.950 . S
C520 H512 0.950 . S
C520 C521 1.386 . S
C520 C522 1.391 1_565 S
C521 C520 1.386 . S
C521 C525 1.393 . S
C522 H514 0.950 . S
C522 C520 1.391 1_545 S
C522 C523 1.400 . S
C523 C522 1.400 . S
C523 C524 1.398 1_545 S
C523 C529 1.491 . S
C524 H515 0.950 . S
C524 C523 1.398 1_565 S
C524 C525 1.391 . S
C525 H513 0.950 . S
C525 C521 1.393 . S
C525 C524 1.391 . S
C526 H516 0.950 . S
C526 C527 1.386 . S
C526 C528 1.391 . S
C527 C526 1.386 . S
C527 C531 1.393 . S
C528 H517 0.950 . S
C528 C526 1.391 . S
C528 C529 1.400 . S
C529 C523 1.491 . S
C529 C528 1.400 . S
C529 C530 1.398 . S
C530 H518 0.950 . S
C530 C529 1.398 . S
C530 C531 1.391 . S
C531 H519 0.950 . S
C531 C527 1.393 . S
C531 C530 1.391 . S
H532 C540 0.950 . S
H533 C545 0.950 . S
H534 C542 0.950 . S
H535 C544 0.950 . S
H536 C546 0.950 . S
H537 C548 0.950 . S
H538 C550 0.950 1_565 S
H539 C551 0.950 . S
C540 H532 0.950 . S
C540 C541 1.386 1_455 S
C540 C542 1.391 . S
C541 C540 1.386 1_655 S
C541 C545 1.393 . S
C542 H534 0.950 . S
C542 C540 1.391 . S
C542 C543 1.400 1_455 S
C543 C542 1.400 1_655 S
C543 C544 1.398 . S
C543 C549 1.491 1_655 S
C544 H535 0.950 . S
C544 C543 1.398 . S
C544 C545 1.391 . S
C545 H533 0.950 . S
C545 C541 1.393 . S
C545 C544 1.391 . S
C546 H536 0.950 . S
C546 C547 1.386 1_655 S
C546 C548 1.391 . S
C547 C546 1.386 1_455 S
C547 C551 1.393 . S
C548 H537 0.950 . S
C548 C546 1.391 . S
C548 C549 1.400 1_645 S
C549 C543 1.491 1_455 S
C549 C548 1.400 1_465 S
C549 C550 1.398 1_565 S
C550 H538 0.950 1_545 S
C550 C549 1.398 1_545 S
C550 C551 1.391 . S
C551 H539 0.950 . S
C551 C547 1.393 . S
C551 C550 1.391 . S
H552 C560 0.950 . S
H553 C565 0.950 . S
H554 C562 0.950 . S
H555 C564 0.950 . S
H556 C566 0.950 . S
H557 C568 0.950 . S
H558 C570 0.950 1_565 S
H559 C571 0.950 . S
C560 H552 0.950 . S
C560 C561 1.386 . S
C560 C562 1.391 . S
C561 C560 1.386 . S
C561 C565 1.393 . S
C562 H554 0.950 . S
C562 C560 1.391 . S
C562 C563 1.400 . S
C563 C562 1.400 . S
C563 C564 1.398 . S
C563 C569 1.491 . S
C564 H555 0.950 . S
C564 C563 1.398 . S
C564 C565 1.391 . S
C565 H553 0.950 . S
C565 C561 1.393 . S
C565 C564 1.391 . S
C566 H556 0.950 . S
C566 C567 1.386 . S
C566 C568 1.391 . S
C567 C566 1.386 . S
C567 C571 1.393 . S
C568 H557 0.950 . S
C568 C566 1.391 . S
C568 C569 1.400 1_545 S
C569 C563 1.491 . S
C569 C568 1.400 1_565 S
C569 C570 1.398 1_565 S
C570 H558 0.950 1_545 S
C570 C569 1.398 1_545 S
C570 C571 1.391 . S
C571 H559 0.950 . S
C571 C567 1.393 . S
C571 C570 1.391 . S
H572 C580 0.950 . S
H573 C585 0.950 . S
H574 C582 0.950 . S
H575 C584 0.950 . S
H576 C586 0.950 . S
H577 C588 0.950 . S
H578 C590 0.950 1_545 S
H579 C591 0.950 . S
C580 H572 0.950 . S
C580 C581 1.386 . S
C580 C582 1.391 . S
C581 C580 1.386 . S
C581 C585 1.393 1_655 S
C582 H574 0.950 . S
C582 C580 1.391 . S
C582 C583 1.400 . S
C583 C582 1.400 . S
C583 C584 1.398 1_655 S
C583 C589 1.489 1_655 S
C584 H575 0.950 . S
C584 C583 1.398 1_455 S
C584 C585 1.391 . S
C585 H573 0.950 . S
C585 C581 1.393 1_455 S
C585 C584 1.391 . S
C586 H576 0.950 . S
C586 C587 1.386 . S
C586 C588 1.391 . S
C587 C586 1.386 . S
C587 C591 1.393 1_455 S
C588 H577 0.950 . S
C588 C586 1.391 . S
C588 C589 1.416 1_565 S
C589 C583 1.489 1_455 S
C589 C588 1.416 1_545 S
C589 C590 1.384 1_445 S
C590 H578 0.950 1_565 S
C590 C589 1.384 1_665 S
C590 C591 1.391 . S
C591 H579 0.950 . S
C591 C587 1.393 1_655 S
C591 C590 1.391 . S
H592 C600 0.950 . S
H593 C605 0.950 . S
H594 C602 0.950 . S
H595 C604 0.950 1_554 S
H596 C606 0.950 . S
H597 C608 0.950 . S
H598 C610 0.950 1_556 S
H599 C611 0.950 . S
C600 H592 0.950 . S
C600 C601 1.386 1_455 S
C600 C602 1.391 . S
C601 C600 1.386 1_655 S
C601 C605 1.393 . S
C602 H594 0.950 . S
C602 C600 1.391 . S
C602 C603 1.400 1_455 S
C603 C602 1.400 1_655 S
C603 C604 1.398 . S
C603 C609 1.491 1_556 S
C604 H595 0.950 1_556 S
C604 C603 1.398 . S
C604 C605 1.391 . S
C605 H593 0.950 . S
C605 C601 1.393 . S
C605 C604 1.391 . S
C606 H596 0.950 . S
C606 C607 1.386 . S
C606 C608 1.391 . S
C607 C606 1.386 . S
C607 C611 1.393 1_655 S
C608 H597 0.950 . S
C608 C606 1.391 . S
C608 C609 1.400 . S
C609 C603 1.491 1_554 S
C609 C608 1.400 . S
C609 C610 1.398 1_655 S
C610 H598 0.950 1_554 S
C610 C609 1.398 1_455 S
C610 C611 1.391 . S
C611 H599 0.950 . S
C611 C607 1.393 1_455 S
C611 C610 1.391 . S
H612 C620 0.950 . S
H613 C625 0.950 . S
H614 C622 0.950 . S
H615 C624 0.950 . S
H616 C626 0.950 . S
H617 C628 0.950 . S
H618 C630 0.950 . S
H619 C631 0.950 . S
C620 H612 0.950 . S
C620 C621 1.386 . S
C620 C622 1.391 . S
C621 C620 1.386 . S
C621 C625 1.393 . S
C622 H614 0.950 . S
C622 C620 1.391 . S
C622 C623 1.400 . S
C623 C622 1.400 . S
C623 C624 1.398 . S
C623 C629 1.491 . S
C624 H615 0.950 . S
C624 C623 1.398 . S
C624 C625 1.391 . S
C625 H613 0.950 . S
C625 C621 1.393 . S
C625 C624 1.391 . S
C626 H616 0.950 . S
C626 C627 1.386 . S
C626 C628 1.391 . S
C627 C626 1.386 . S
C627 C631 1.393 . S
C628 H617 0.950 . S
C628 C626 1.391 . S
C628 C629 1.400 . S
C629 C623 1.491 . S
C629 C628 1.400 . S
C629 C630 1.398 . S
C630 H618 0.950 . S
C630 C629 1.398 . S
C630 C631 1.391 . S
C631 H619 0.950 . S
C631 C627 1.393 . S
C631 C630 1.391 . S
H632 C640 0.950 . S
H633 C645 0.950 . S
H634 C642 0.950 . S
H635 C644 0.950 . S
H636 C646 0.950 . S
H637 C648 0.950 . S
H638 C650 0.950 . S
H639 C651 0.950 . S
C640 H632 0.950 . S
C640 C641 1.386 . S
C640 C642 1.391 . S
C641 C640 1.386 . S
C641 C645 1.393 . S
C642 H634 0.950 . S
C642 C640 1.391 . S
C642 C643 1.400 . S
C643 C642 1.400 . S
C643 C644 1.398 . S
C643 C649 1.491 1_546 S
C644 H635 0.950 . S
C644 C643 1.398 . S
C644 C645 1.391 . S
C645 H633 0.950 . S
C645 C641 1.393 . S
C645 C644 1.391 . S
C646 H636 0.950 . S
C646 C647 1.386 . S
C646 C648 1.391 . S
C647 C646 1.386 . S
C647 C651 1.393 . S
C648 H637 0.950 . S
C648 C646 1.391 . S
C648 C649 1.400 . S
C649 C643 1.491 1_564 S
C649 C648 1.400 . S
C649 C650 1.398 . S
C650 H638 0.950 . S
C650 C649 1.398 . S
C650 C651 1.391 . S
C651 H639 0.950 . S
C651 C647 1.393 . S
C651 C650 1.391 . S
H652 C660 0.950 . S
H653 C665 0.950 . S
H654 C662 0.950 1_545 S
H655 C664 0.950 . S
H656 C666 0.950 . S
H657 C668 0.950 1_565 S
H658 C670 0.950 . S
H659 C671 0.950 . S
C660 H652 0.950 . S
C660 C661 1.386 . S
C660 C662 1.391 . S
C661 C660 1.386 . S
C661 C665 1.393 . S
C662 H654 0.950 1_565 S
C662 C660 1.391 . S
C662 C663 1.400 . S
C663 C662 1.400 . S
C663 C664 1.398 . S
C663 C669 1.491 1_565 S
C664 H655 0.950 . S
C664 C663 1.398 . S
C664 C665 1.391 . S
C665 H653 0.950 . S
C665 C661 1.393 . S
C665 C664 1.391 . S
C666 H656 0.950 . S
C666 C667 1.386 . S
C666 C668 1.391 . S
C667 C666 1.386 . S
C667 C671 1.393 . S
C668 H657 0.950 1_545 S
C668 C666 1.391 . S
C668 C669 1.400 . S
C669 C663 1.491 1_545 S
C669 C668 1.400 . S
C669 C670 1.398 . S
C670 H658 0.950 . S
C670 C669 1.398 . S
C670 C671 1.391 . S
C671 H659 0.950 . S
C671 C667 1.393 . S
C671 C670 1.391 . S
C281 C206 1.581 . S
C287 C33 1.617 . S
C301 C67 1.612 . S
C307 C240 1.571 . S
C321 C138 1.589 . S
C327 C101 1.618 . S
C341 C135 1.616 . S
C347 C172 1.587 . S
C361 C169 1.608 . S
C367 C70 1.570 . S
C381 C203 1.614 . S
C387 C104 1.584 . S
C401 C2 1.578 . S
C407 C237 1.616 . S
C421 C36 1.580 . S
C427 C271 1.617 . S
C441 C20 1.978 . S
C447 C247 1.892 . S
C461 C54 1.976 . S
C467 C213 1.881 . S
C481 C179 1.893 . S
C487 C88 1.979 . S
C501 C122 1.985 . S
C507 C145 1.891 . S
C521 C156 1.982 . S
C527 C111 1.893 . S
C541 C77 1.891 1_655 S
C547 C190 1.985 . S
C561 C43 1.878 . S
C567 C224 1.976 . S
C581 C9 1.878 1_655 S
C587 C258 1.976 . S
C601 C73 0.182 . S
C607 C5 0.141 . S
C621 C39 0.190 . S
C627 C107 0.228 . S
C641 C209 0.216 . S
C647 C141 0.223 . S
C661 C243 0.198 . S
C667 C175 0.145 . S
