# Generated by pormake.
# Topology tzs, (4)-cn, num edge types: 1
# Building blocks:
#     Node 0, Type 0, BuildingBlock: CEKHIL_clean_sbu_0, # of connection points: 4
#     Node 1, Type 0, BuildingBlock: CEKHIL_clean_sbu_0, # of connection points: 4
#     Node 2, Type 0, BuildingBlock: CEKHIL_clean_sbu_0, # of connection points: 4
#     Node 3, Type 0, BuildingBlock: CEKHIL_clean_sbu_0, # of connection points: 4
#     Node 4, Type 0, BuildingBlock: CEKHIL_clean_sbu_0, # of connection points: 4
#     Node 5, Type 0, BuildingBlock: CEKHIL_clean_sbu_0, # of connection points: 4
#     Node 6, Type 0, BuildingBlock: CEKHIL_clean_sbu_0, # of connection points: 4
#     Node 7, Type 0, BuildingBlock: CEKHIL_clean_sbu_0, # of connection points: 4
#     Node 8, Type 0, BuildingBlock: CEKHIL_clean_sbu_0, # of connection points: 4
#     Node 9, Type 0, BuildingBlock: CEKHIL_clean_sbu_0, # of connection points: 4
#     Node 10, Type 0, BuildingBlock: CEKHIL_clean_sbu_0, # of connection points: 4
#     Node 11, Type 0, BuildingBlock: CEKHIL_clean_sbu_0, # of connection points: 4
#     Node 12, Type 0, BuildingBlock: CEKHIL_clean_sbu_0, # of connection points: 4
#     Node 13, Type 0, BuildingBlock: CEKHIL_clean_sbu_0, # of connection points: 4
#     Node 14, Type 0, BuildingBlock: CEKHIL_clean_sbu_0, # of connection points: 4
#     Node 15, Type 0, BuildingBlock: CEKHIL_clean_sbu_0, # of connection points: 4
#     Edge 16, Type (0, 0), BuildingBlock: TEMPAE_clean_linker_10, # of connection points: 2
#     Edge 17, Type (0, 0), BuildingBlock: TEMPAE_clean_linker_10, # of connection points: 2
#     Edge 18, Type (0, 0), BuildingBlock: TEMPAE_clean_linker_10, # of connection points: 2
#     Edge 19, Type (0, 0), BuildingBlock: TEMPAE_clean_linker_10, # of connection points: 2
#     Edge 20, Type (0, 0), BuildingBlock: TEMPAE_clean_linker_10, # of connection points: 2
#     Edge 21, Type (0, 0), BuildingBlock: TEMPAE_clean_linker_10, # of connection points: 2
#     Edge 22, Type (0, 0), BuildingBlock: TEMPAE_clean_linker_10, # of connection points: 2
#     Edge 23, Type (0, 0), BuildingBlock: TEMPAE_clean_linker_10, # of connection points: 2
#     Edge 24, Type (0, 0), BuildingBlock: TEMPAE_clean_linker_10, # of connection points: 2
#     Edge 25, Type (0, 0), BuildingBlock: TEMPAE_clean_linker_10, # of connection points: 2
#     Edge 26, Type (0, 0), BuildingBlock: TEMPAE_clean_linker_10, # of connection points: 2
#     Edge 27, Type (0, 0), BuildingBlock: TEMPAE_clean_linker_10, # of connection points: 2
#     Edge 28, Type (0, 0), BuildingBlock: TEMPAE_clean_linker_10, # of connection points: 2
#     Edge 29, Type (0, 0), BuildingBlock: TEMPAE_clean_linker_10, # of connection points: 2
#     Edge 30, Type (0, 0), BuildingBlock: TEMPAE_clean_linker_10, # of connection points: 2
#     Edge 31, Type (0, 0), BuildingBlock: TEMPAE_clean_linker_10, # of connection points: 2
#     Edge 32, Type (0, 0), BuildingBlock: TEMPAE_clean_linker_10, # of connection points: 2
#     Edge 33, Type (0, 0), BuildingBlock: TEMPAE_clean_linker_10, # of connection points: 2
#     Edge 34, Type (0, 0), BuildingBlock: TEMPAE_clean_linker_10, # of connection points: 2
#     Edge 35, Type (0, 0), BuildingBlock: TEMPAE_clean_linker_10, # of connection points: 2
#     Edge 36, Type (0, 0), BuildingBlock: TEMPAE_clean_linker_10, # of connection points: 2
#     Edge 37, Type (0, 0), BuildingBlock: TEMPAE_clean_linker_10, # of connection points: 2
#     Edge 38, Type (0, 0), BuildingBlock: TEMPAE_clean_linker_10, # of connection points: 2
#     Edge 39, Type (0, 0), BuildingBlock: TEMPAE_clean_linker_10, # of connection points: 2
#     Edge 40, Type (0, 0), BuildingBlock: TEMPAE_clean_linker_10, # of connection points: 2
#     Edge 41, Type (0, 0), BuildingBlock: TEMPAE_clean_linker_10, # of connection points: 2
#     Edge 42, Type (0, 0), BuildingBlock: TEMPAE_clean_linker_10, # of connection points: 2
#     Edge 43, Type (0, 0), BuildingBlock: TEMPAE_clean_linker_10, # of connection points: 2
#     Edge 44, Type (0, 0), BuildingBlock: TEMPAE_clean_linker_10, # of connection points: 2
#     Edge 45, Type (0, 0), BuildingBlock: TEMPAE_clean_linker_10, # of connection points: 2
#     Edge 46, Type (0, 0), BuildingBlock: TEMPAE_clean_linker_10, # of connection points: 2
#     Edge 47, Type (0, 0), BuildingBlock: TEMPAE_clean_linker_10, # of connection points: 2
# Relax obj value: 0.124
# Max RMSD: 0.119
# Mean RMSD: 0.119
data_MOF--net-tzs--node1-CEKHIL_clean_sbu_0--edge1-TEMPAE_clean_linker_10
_symmetry_space_group_name_H-M    P1
_symmetry_Int_Tables_number       1
_symmetry_cell_setting            triclinic
loop_
_symmetry_equiv_pos_as_xyz
'x, y, z'
_cell_length_a     48.645425
_cell_length_b     48.666062
_cell_length_c     39.558141
_cell_angle_alpha  89.951246
_cell_angle_beta   89.982351
_cell_angle_gamma 90.008093
loop_
_atom_site_label
_atom_site_type_symbol
_atom_site_fract_x
_atom_site_fract_y
_atom_site_fract_z
_atom_type_partial_charge
Co0 Co 0.14462 0.34777 0.19867 0.0
O1 O 0.15583 0.3096 0.19938 0.0
O2 O 0.18163 0.34438 0.21624 0.0
C3 C 0.10265 0.34084 0.22138 0.0
O4 O 0.14044 0.38951 0.20408 0.0
Co5 Co 0.0938 0.36914 0.15877 0.0
O6 O 0.09945 0.40357 0.18441 0.0
C7 C 0.14504 0.35448 0.12247 0.0
C8 C 0.17894 0.31801 0.21216 0.0
C9 C 0.12187 0.40817 0.20004 0.0
O10 O 0.15839 0.35125 0.15038 0.0
O11 O 0.1193 0.35975 0.121 0.0
O12 O 0.12404 0.34289 0.24093 0.0
O13 O 0.10743 0.34136 0.1894 0.0
Co14 Co 0.66076 0.14617 0.19718 0.0
O15 O 0.69884 0.15717 0.20088 0.0
O16 O 0.66328 0.18303 0.21529 0.0
C17 C 0.66607 0.10408 0.22002 0.0
O18 O 0.61886 0.14206 0.19911 0.0
Co19 Co 0.64192 0.09613 0.15439 0.0
O20 O 0.6057 0.10186 0.17641 0.0
C21 C 0.6646 0.14575 0.1218 0.0
C22 C 0.68979 0.18024 0.21303 0.0
C23 C 0.60036 0.12378 0.19277 0.0
O24 O 0.66025 0.15999 0.14877 0.0
O25 O 0.66151 0.11966 0.12051 0.0
O26 O 0.66312 0.12532 0.23963 0.0
O27 O 0.6675 0.10914 0.18816 0.0
Co28 Co 0.861 0.65783 0.19631 0.0
O29 O 0.8497 0.69598 0.19508 0.0
O30 O 0.82301 0.66132 0.21025 0.0
C31 C 0.90123 0.6651 0.223 0.0
O32 O 0.86494 0.61617 0.20318 0.0
Co33 Co 0.91423 0.63621 0.16163 0.0
O34 O 0.90654 0.60159 0.18607 0.0
C35 C 0.86555 0.65064 0.12031 0.0
C36 C 0.82594 0.68765 0.20606 0.0
C37 C 0.88346 0.59731 0.20037 0.0
O38 O 0.8504 0.65364 0.14687 0.0
O39 O 0.89138 0.6458 0.12144 0.0
O40 O 0.8786 0.66345 0.24036 0.0
O41 O 0.89871 0.66412 0.19065 0.0
Co42 Co 0.34419 0.85931 0.1945 0.0
O43 O 0.3057 0.84958 0.19794 0.0
O44 O 0.34022 0.82337 0.21484 0.0
C45 C 0.34003 0.90274 0.2141 0.0
O46 O 0.38619 0.86228 0.19736 0.0
Co47 Co 0.36539 0.90674 0.14849 0.0
O48 O 0.40109 0.90065 0.1715 0.0
C49 C 0.34142 0.85653 0.11913 0.0
C50 C 0.31384 0.82675 0.21176 0.0
C51 C 0.40542 0.8795 0.18979 0.0
O52 O 0.34509 0.84336 0.14708 0.0
O53 O 0.34536 0.8824 0.11605 0.0
O54 O 0.34139 0.88229 0.23529 0.0
O55 O 0.33912 0.89602 0.18269 0.0
Co56 Co 0.14325 0.6559 0.31193 0.0
O57 O 0.15354 0.69435 0.3113 0.0
O58 O 0.17891 0.66044 0.29103 0.0
C59 C 0.09968 0.66203 0.29352 0.0
O60 O 0.13974 0.61413 0.30572 0.0
Co61 Co 0.09581 0.63241 0.35621 0.0
O62 O 0.10034 0.59884 0.32862 0.0
C63 C 0.14845 0.649 0.38774 0.0
C64 C 0.17597 0.68664 0.29619 0.0
C65 C 0.1218 0.59501 0.31079 0.0
O66 O 0.16007 0.65216 0.35867 0.0
O67 O 0.12303 0.64305 0.39161 0.0
O68 O 0.11988 0.66124 0.27198 0.0
O69 O 0.10663 0.66094 0.32489 0.0
Co70 Co 0.35075 0.14455 0.30117 0.0
O71 O 0.31246 0.1555 0.30146 0.0
O72 O 0.34685 0.18149 0.28364 0.0
C73 C 0.34396 0.10266 0.27856 0.0
O74 O 0.39252 0.14068 0.29472 0.0
Co75 Co 0.37308 0.09412 0.34109 0.0
O76 O 0.40755 0.10049 0.3158 0.0
C77 C 0.35744 0.14496 0.37733 0.0
C78 C 0.32057 0.17864 0.28842 0.0
C79 C 0.4116 0.1226 0.29929 0.0
O80 O 0.35463 0.15833 0.34936 0.0
O81 O 0.36277 0.11925 0.37886 0.0
O82 O 0.34525 0.12411 0.25903 0.0
O83 O 0.34494 0.10726 0.31056 0.0
Co84 Co 0.86103 0.35031 0.31212 0.0
O85 O 0.85075 0.31194 0.30982 0.0
O86 O 0.82466 0.3465 0.29287 0.0
C87 C 0.90381 0.34471 0.29131 0.0
O88 O 0.86433 0.39223 0.30791 0.0
Co89 Co 0.90962 0.37231 0.35513 0.0
O90 O 0.9047 0.40662 0.3289 0.0
C91 C 0.85819 0.3543 0.38839 0.0
C92 C 0.82779 0.32013 0.29641 0.0
C93 C 0.88264 0.41105 0.31245 0.0
O94 O 0.84568 0.35224 0.35977 0.0
O95 O 0.88368 0.36024 0.39138 0.0
O96 O 0.88301 0.34672 0.27079 0.0
O97 O 0.89803 0.34461 0.32307 0.0
Co98 Co 0.65413 0.85982 0.29923 0.0
O99 O 0.6926 0.84962 0.29764 0.0
O100 O 0.65845 0.8243 0.27789 0.0
C101 C 0.66009 0.90344 0.28122 0.0
O102 O 0.61225 0.86322 0.29399 0.0
Co103 Co 0.63107 0.90675 0.34429 0.0
O104 O 0.5972 0.90256 0.31711 0.0
C105 C 0.64893 0.85424 0.37508 0.0
C106 C 0.68472 0.82723 0.28262 0.0
C107 C 0.59318 0.88116 0.29926 0.0
O108 O 0.65128 0.84267 0.34589 0.0
O109 O 0.64299 0.87961 0.37923 0.0
O110 O 0.65863 0.8835 0.25941 0.0
O111 O 0.65947 0.89632 0.31255 0.0
Co112 Co 0.84973 0.64462 0.80296 0.0
O113 O 0.81127 0.65432 0.79969 0.0
O114 O 0.84586 0.68161 0.78572 0.0
C115 C 0.84595 0.60282 0.77922 0.0
O116 O 0.89174 0.64198 0.80054 0.0
Co117 Co 0.87043 0.59493 0.84519 0.0
O118 O 0.90668 0.60276 0.82428 0.0
C119 C 0.8461 0.64329 0.87841 0.0
C120 C 0.81946 0.67785 0.78785 0.0
C121 C 0.91105 0.6247 0.8075 0.0
O122 O 0.85008 0.65784 0.8516 0.0
O123 O 0.84994 0.6173 0.87944 0.0
O124 O 0.84762 0.62449 0.7601 0.0
O125 O 0.84455 0.60716 0.81125 0.0
Co126 Co 0.36561 0.85007 0.80497 0.0
O127 O 0.35564 0.81151 0.80676 0.0
O128 O 0.32877 0.84487 0.78803 0.0
C129 C 0.40775 0.84419 0.78218 0.0
O130 O 0.36818 0.89173 0.79678 0.0
Co131 Co 0.41534 0.87504 0.84387 0.0
O132 O 0.40799 0.90843 0.81687 0.0
C133 C 0.3654 0.85806 0.88098 0.0
C134 C 0.33227 0.8188 0.79357 0.0
C135 C 0.38578 0.9114 0.80029 0.0
O136 O 0.35193 0.85477 0.85317 0.0
O137 O 0.391 0.86399 0.8821 0.0
O138 O 0.3861 0.84375 0.76292 0.0
O139 O 0.40314 0.84595 0.81416 0.0
Co140 Co 0.15912 0.36042 0.80712 0.0
O141 O 0.19767 0.35092 0.80465 0.0
O142 O 0.16341 0.32397 0.78857 0.0
C143 C 0.163 0.4029 0.78515 0.0
O144 O 0.11715 0.36301 0.80375 0.0
Co145 Co 0.13762 0.40873 0.85122 0.0
O146 O 0.10162 0.40103 0.8297 0.0
C147 C 0.16117 0.35928 0.88272 0.0
C148 C 0.18974 0.32769 0.79176 0.0
C149 C 0.09761 0.3798 0.81151 0.0
O150 O 0.15788 0.34571 0.85505 0.0
O151 O 0.15719 0.38518 0.8851 0.0
O152 O 0.16208 0.38173 0.76518 0.0
O153 O 0.16385 0.39769 0.81704 0.0
Co154 Co 0.6433 0.15554 0.80527 0.0
O155 O 0.65368 0.19394 0.80562 0.0
O156 O 0.68112 0.15972 0.79102 0.0
C157 C 0.6028 0.16153 0.77881 0.0
O158 O 0.64038 0.11373 0.79933 0.0
Co159 Co 0.59091 0.13295 0.84077 0.0
O160 O 0.59891 0.09856 0.81602 0.0
C161 C 0.63929 0.1495 0.8814 0.0
C162 C 0.6776 0.18602 0.79474 0.0
C163 C 0.62214 0.09458 0.802 0.0
O164 O 0.65424 0.15231 0.85465 0.0
O165 O 0.61359 0.14394 0.88059 0.0
O166 O 0.62535 0.16017 0.76126 0.0
O167 O 0.60551 0.161 0.81115 0.0
Co168 Co 0.84945 0.35809 0.70144 0.0
O169 O 0.81084 0.34844 0.70287 0.0
O170 O 0.84457 0.32297 0.72352 0.0
C171 C 0.84458 0.40217 0.71841 0.0
O172 O 0.89131 0.36107 0.7069 0.0
Co173 Co 0.87308 0.40388 0.65463 0.0
O174 O 0.90708 0.39927 0.68151 0.0
C175 C 0.8535 0.35145 0.62576 0.0
C176 C 0.81837 0.32614 0.71845 0.0
C177 C 0.9107 0.37842 0.70049 0.0
O178 O 0.85237 0.34017 0.65525 0.0
O179 O 0.85906 0.37682 0.62084 0.0
O180 O 0.84493 0.38245 0.74064 0.0
O181 O 0.84503 0.39445 0.6873 0.0
Co182 Co 0.6488 0.84819 0.6879 0.0
O183 O 0.65873 0.80965 0.68865 0.0
O184 O 0.68453 0.84349 0.70833 0.0
C185 C 0.60542 0.84292 0.70701 0.0
O186 O 0.64571 0.89002 0.69399 0.0
Co187 Co 0.6018 0.87184 0.64309 0.0
O188 O 0.60735 0.90602 0.66922 0.0
C189 C 0.65331 0.85233 0.61197 0.0
C190 C 0.68132 0.8173 0.70348 0.0
C191 C 0.62841 0.90951 0.68784 0.0
O192 O 0.66538 0.85146 0.64097 0.0
O193 O 0.62779 0.8577 0.6081 0.0
O194 O 0.62587 0.84305 0.72818 0.0
O195 O 0.61194 0.84375 0.67545 0.0
Co196 Co 0.16051 0.64644 0.70111 0.0
O197 O 0.19916 0.65581 0.70289 0.0
O198 O 0.16543 0.68205 0.72194 0.0
C199 C 0.16485 0.60279 0.71987 0.0
O200 O 0.11853 0.64373 0.70593 0.0
Co201 Co 0.13751 0.59988 0.65517 0.0
O202 O 0.10323 0.605 0.6814 0.0
C203 C 0.15853 0.65124 0.62519 0.0
C204 C 0.19167 0.67849 0.71754 0.0
C205 C 0.09928 0.62615 0.69974 0.0
O206 O 0.15827 0.6633 0.65421 0.0
O207 O 0.15336 0.62571 0.62105 0.0
O208 O 0.16445 0.62305 0.74131 0.0
O209 O 0.16487 0.60975 0.68846 0.0
Co210 Co 0.36039 0.15792 0.69069 0.0
O211 O 0.35143 0.19653 0.69421 0.0
O212 O 0.32488 0.16247 0.71181 0.0
C213 C 0.40415 0.16133 0.70932 0.0
O214 O 0.36259 0.11595 0.69367 0.0
Co215 Co 0.40656 0.13574 0.6436 0.0
O216 O 0.40004 0.10014 0.66668 0.0
C217 C 0.35609 0.16008 0.6153 0.0
C218 C 0.32866 0.18877 0.70851 0.0
C219 C 0.37917 0.09634 0.68561 0.0
O220 O 0.34355 0.15724 0.6438 0.0
O221 O 0.38176 0.15544 0.61131 0.0
O222 O 0.38397 0.1603 0.73091 0.0
O223 O 0.39706 0.16232 0.67801 0.0
C224 C 0.27522 0.20251 0.29457 0.0
C225 C 0.3007 0.20022 0.27825 0.0
C226 C 0.2559 0.22242 0.28452 0.0
C227 C 0.26181 0.23987 0.25673 0.0
C228 C 0.28751 0.23752 0.24009 0.0
C229 C 0.3068 0.21802 0.25139 0.0
C230 C 0.22912 0.22474 0.30361 0.0
C231 C 0.29438 0.25514 0.20981 0.0
C232 C 0.20048 0.27123 0.2107 0.0
C233 C 0.2007 0.29837 0.22264 0.0
C234 C 0.2205 0.25216 0.22113 0.0
C235 C 0.24092 0.2602 0.24469 0.0
C236 C 0.24119 0.28757 0.25687 0.0
C237 C 0.22129 0.30639 0.24542 0.0
C238 C 0.21977 0.22338 0.20693 0.0
C239 C 0.26221 0.29686 0.28251 0.0
H240 H 0.2705 0.18888 0.31548 0.0
H241 H 0.32638 0.21614 0.2385 0.0
H242 H 0.22612 0.24616 0.31248 0.0
H243 H 0.21169 0.21976 0.28661 0.0
H244 H 0.22831 0.21075 0.3258 0.0
H245 H 0.31515 0.25067 0.19954 0.0
H246 H 0.27899 0.2517 0.18954 0.0
H247 H 0.29339 0.2772 0.21674 0.0
H248 H 0.18471 0.26491 0.19298 0.0
H249 H 0.22147 0.32727 0.25495 0.0
H250 H 0.21635 0.20836 0.2276 0.0
H251 H 0.23984 0.21835 0.1951 0.0
H252 H 0.20331 0.22072 0.18775 0.0
H253 H 0.26068 0.28398 0.3056 0.0
H254 H 0.25949 0.31874 0.28975 0.0
H255 H 0.28325 0.29414 0.27224 0.0
C256 C 0.80818 0.27252 0.29426 0.0
C257 C 0.80653 0.3003 0.28498 0.0
C258 C 0.78858 0.25336 0.283 0.0
C259 C 0.76702 0.26206 0.26142 0.0
C260 C 0.76522 0.2901 0.25201 0.0
C261 C 0.78485 0.30891 0.26413 0.0
C262 C 0.791 0.22378 0.29413 0.0
C263 C 0.74285 0.30016 0.22862 0.0
C264 C 0.73372 0.20643 0.20746 0.0
C265 C 0.7089 0.20193 0.22456 0.0
C266 C 0.75241 0.22652 0.21859 0.0
C267 C 0.74663 0.24171 0.24831 0.0
C268 C 0.72162 0.23704 0.2658 0.0
C269 C 0.70281 0.21756 0.25333 0.0
C270 C 0.77837 0.23146 0.19855 0.0
C271 C 0.71504 0.25212 0.29814 0.0
H272 H 0.8248 0.26571 0.31048 0.0
H273 H 0.78349 0.33031 0.25671 0.0
H274 H 0.77159 0.21704 0.30634 0.0
H275 H 0.79434 0.21038 0.27183 0.0
H276 H 0.80821 0.22056 0.31216 0.0
H277 H 0.74435 0.32257 0.2236 0.0
H278 H 0.74405 0.28904 0.20418 0.0
H279 H 0.72237 0.29574 0.23967 0.0
H280 H 0.73835 0.19445 0.18508 0.0
H281 H 0.68373 0.21388 0.26675 0.0
H282 H 0.79659 0.22615 0.2141 0.0
H283 H 0.7801 0.25354 0.19184 0.0
H284 H 0.77902 0.21913 0.17494 0.0
H285 H 0.73123 0.24795 0.31723 0.0
H286 H 0.69484 0.24598 0.30885 0.0
H287 H 0.71486 0.2746 0.29359 0.0
C288 C 0.78357 0.69995 0.23871 0.0
C289 C 0.8039 0.70737 0.21527 0.0
C290 C 0.76379 0.71906 0.24968 0.0
C291 C 0.76385 0.74606 0.23622 0.0
C292 C 0.78385 0.75338 0.21175 0.0
C293 C 0.80386 0.73408 0.20193 0.0
C294 C 0.74327 0.71056 0.27637 0.0
C295 C 0.78426 0.78168 0.19611 0.0
C296 C 0.69807 0.78821 0.2447 0.0
C297 C 0.70477 0.80625 0.27107 0.0
C298 C 0.71719 0.76878 0.2328 0.0
C299 C 0.74338 0.7668 0.24828 0.0
C300 C 0.75005 0.78469 0.27533 0.0
C301 C 0.73082 0.80444 0.28606 0.0
C302 C 0.70948 0.75062 0.20337 0.0
C303 C 0.77745 0.78285 0.29312 0.0
H304 H 0.78365 0.67942 0.24934 0.0
H305 H 0.81945 0.73989 0.18369 0.0
H306 H 0.74551 0.7239 0.29894 0.0
H307 H 0.72202 0.7133 0.26679 0.0
H308 H 0.74593 0.68881 0.28428 0.0
H309 H 0.80009 0.78362 0.176 0.0
H310 H 0.76385 0.78651 0.18508 0.0
H311 H 0.78847 0.7973 0.21584 0.0
H312 H 0.67804 0.78967 0.23284 0.0
H313 H 0.73604 0.81823 0.30659 0.0
H314 H 0.71028 0.72872 0.21107 0.0
H315 H 0.72451 0.75337 0.18252 0.0
H316 H 0.68856 0.75517 0.19358 0.0
H317 H 0.7806 0.76173 0.30297 0.0
H318 H 0.77908 0.79756 0.31449 0.0
H319 H 0.79432 0.7871 0.275 0.0
C320 C 0.26703 0.80524 0.21137 0.0
C321 C 0.29398 0.80581 0.22392 0.0
C322 C 0.24796 0.78558 0.2228 0.0
C323 C 0.25581 0.76644 0.24805 0.0
C324 C 0.28295 0.76711 0.26102 0.0
C325 C 0.3018 0.78654 0.24849 0.0
C326 C 0.21947 0.78518 0.20769 0.0
C327 C 0.29199 0.74752 0.28847 0.0
C328 C 0.19821 0.73304 0.29903 0.0
C329 C 0.19681 0.7068 0.28454 0.0
C330 C 0.21763 0.75246 0.28785 0.0
C331 C 0.23561 0.74574 0.26088 0.0
C332 C 0.23413 0.7193 0.24602 0.0
C333 C 0.21501 0.70004 0.25832 0.0
C334 C 0.21896 0.78015 0.30495 0.0
C335 C 0.25243 0.7115 0.21673 0.0
H336 H 0.26092 0.81999 0.19224 0.0
H337 H 0.32254 0.78701 0.25846 0.0
H338 H 0.21509 0.7646 0.19689 0.0
H339 H 0.20393 0.78902 0.22766 0.0
H340 H 0.21688 0.80084 0.1875 0.0
H341 H 0.31359 0.75111 0.29642 0.0
H342 H 0.27844 0.74973 0.31087 0.0
H343 H 0.29006 0.726 0.27955 0.0
H344 H 0.1843 0.73832 0.31943 0.0
H345 H 0.21387 0.67986 0.24684 0.0
H346 H 0.21421 0.79663 0.28647 0.0
H347 H 0.24007 0.78395 0.31449 0.0
H348 H 0.20433 0.78178 0.32643 0.0
H349 H 0.24923 0.72601 0.19544 0.0
H350 H 0.24842 0.69029 0.20761 0.0
H351 H 0.27433 0.71303 0.22427 0.0
C352 C 0.72025 0.80408 0.74141 0.0
C353 C 0.70203 0.79714 0.71531 0.0
C354 C 0.73937 0.78493 0.75386 0.0
C355 C 0.74084 0.75841 0.73925 0.0
C356 C 0.72279 0.75146 0.71245 0.0
C357 C 0.70335 0.77078 0.70112 0.0
C358 C 0.75772 0.79296 0.78301 0.0
C359 C 0.72412 0.72366 0.69562 0.0
C360 C 0.80729 0.71819 0.75157 0.0
C361 C 0.79962 0.69892 0.7762 0.0
C362 C 0.78829 0.73742 0.73901 0.0
C363 C 0.76118 0.73792 0.7521 0.0
C364 C 0.75352 0.71886 0.77753 0.0
C365 C 0.77272 0.69932 0.78889 0.0
C366 C 0.79709 0.7569 0.71132 0.0
C367 C 0.72509 0.71917 0.79283 0.0
H368 H 0.71915 0.82435 0.75267 0.0
H369 H 0.68939 0.76538 0.68083 0.0
H370 H 0.75472 0.77848 0.80438 0.0
H371 H 0.77961 0.79159 0.77533 0.0
H372 H 0.75359 0.81416 0.79207 0.0
H373 H 0.70938 0.72183 0.6743 0.0
H374 H 0.7452 0.71989 0.68592 0.0
H375 H 0.71955 0.70729 0.71431 0.0
H376 H 0.828 0.71777 0.74146 0.0
H377 H 0.76675 0.68454 0.80805 0.0
H378 H 0.79503 0.77846 0.72003 0.0
H379 H 0.78349 0.75443 0.68902 0.0
H380 H 0.8187 0.75342 0.70329 0.0
H381 H 0.72059 0.73981 0.80338 0.0
H382 H 0.72271 0.70367 0.81326 0.0
H383 H 0.7095 0.71501 0.77303 0.0
C384 C 0.23877 0.69929 0.7157 0.0
C385 C 0.21207 0.69911 0.7291 0.0
C386 C 0.2583 0.71876 0.72637 0.0
C387 C 0.25119 0.73811 0.75166 0.0
C388 C 0.22435 0.73775 0.7656 0.0
C389 C 0.20503 0.71849 0.75385 0.0
C390 C 0.28644 0.71882 0.71027 0.0
C391 C 0.21609 0.75761 0.79309 0.0
C392 C 0.31023 0.7724 0.79909 0.0
C393 C 0.3111 0.79838 0.78379 0.0
C394 C 0.29048 0.75278 0.78941 0.0
C395 C 0.27169 0.75901 0.7631 0.0
C396 C 0.27265 0.78519 0.74745 0.0
C397 C 0.29207 0.80466 0.7583 0.0
C398 C 0.2897 0.72541 0.80735 0.0
C399 C 0.25348 0.79247 0.71878 0.0
H400 H 0.24429 0.68445 0.69645 0.0
H401 H 0.18449 0.71831 0.76449 0.0
H402 H 0.29055 0.73918 0.69864 0.0
H403 H 0.30243 0.71539 0.72979 0.0
H404 H 0.28857 0.70276 0.69051 0.0
H405 H 0.19478 0.754 0.80217 0.0
H406 H 0.23037 0.75576 0.81485 0.0
H407 H 0.21759 0.77902 0.78363 0.0
H408 H 0.32481 0.76752 0.81892 0.0
H409 H 0.29281 0.82463 0.74617 0.0
H410 H 0.29401 0.70862 0.78917 0.0
H411 H 0.26886 0.72172 0.81785 0.0
H412 H 0.30489 0.72421 0.82826 0.0
H413 H 0.25611 0.77761 0.69776 0.0
H414 H 0.25716 0.81353 0.70892 0.0
H415 H 0.23182 0.79101 0.72733 0.0
C416 C 0.20307 0.28869 0.7541 0.0
C417 C 0.2098 0.30678 0.78037 0.0
C418 C 0.2223 0.26953 0.74197 0.0
C419 C 0.2486 0.26783 0.75721 0.0
C420 C 0.25526 0.28568 0.78429 0.0
C421 C 0.23592 0.30525 0.79518 0.0
C422 C 0.21464 0.25142 0.71246 0.0
C423 C 0.28275 0.28404 0.80186 0.0
C424 C 0.2886 0.20128 0.74513 0.0
C425 C 0.30812 0.20892 0.72078 0.0
C426 C 0.26937 0.22033 0.75754 0.0
C427 C 0.26919 0.2475 0.74468 0.0
C428 C 0.28865 0.25522 0.71974 0.0
C429 C 0.30809 0.23593 0.70841 0.0
C430 C 0.24941 0.21144 0.78468 0.0
C431 C 0.28877 0.28378 0.70481 0.0
H432 H 0.18296 0.29001 0.74239 0.0
H433 H 0.24111 0.31912 0.81564 0.0
H434 H 0.22947 0.25451 0.69147 0.0
H435 H 0.21581 0.22949 0.71995 0.0
H436 H 0.19359 0.25572 0.70294 0.0
H437 H 0.2843 0.29859 0.82341 0.0
H438 H 0.28623 0.26288 0.81141 0.0
H439 H 0.29949 0.28867 0.78368 0.0
H440 H 0.28867 0.18048 0.75496 0.0
H441 H 0.32304 0.2419 0.68944 0.0
H442 H 0.22801 0.21351 0.77539 0.0
H443 H 0.25148 0.22498 0.8071 0.0
H444 H 0.25276 0.18982 0.79273 0.0
H445 H 0.26838 0.28843 0.69361 0.0
H446 H 0.30474 0.28629 0.68496 0.0
H447 H 0.29252 0.29917 0.72495 0.0
C448 C 0.72009 0.19874 0.76261 0.0
C449 C 0.69926 0.20609 0.78539 0.0
C450 C 0.7397 0.21806 0.7517 0.0
C451 C 0.73891 0.24523 0.76453 0.0
C452 C 0.71835 0.25253 0.78826 0.0
C453 C 0.69856 0.23299 0.79806 0.0
C454 C 0.76087 0.20956 0.72582 0.0
C455 C 0.71716 0.28104 0.80322 0.0
C456 C 0.80438 0.28791 0.75718 0.0
C457 C 0.7981 0.30546 0.73013 0.0
C458 C 0.78517 0.26854 0.769 0.0
C459 C 0.75934 0.26609 0.75273 0.0
C460 C 0.75308 0.28352 0.72505 0.0
C461 C 0.77237 0.30326 0.71441 0.0
C462 C 0.79241 0.2509 0.79912 0.0
C463 C 0.72609 0.28113 0.70644 0.0
H464 H 0.7206 0.17805 0.75251 0.0
H465 H 0.68258 0.23875 0.81579 0.0
H466 H 0.759 0.22267 0.70297 0.0
H467 H 0.78187 0.21261 0.73606 0.0
H468 H 0.75862 0.18771 0.71817 0.0
H469 H 0.70081 0.28303 0.82267 0.0
H470 H 0.73722 0.28629 0.81491 0.0
H471 H 0.71326 0.29633 0.78298 0.0
H472 H 0.82417 0.28969 0.76958 0.0
H473 H 0.7675 0.31666 0.69335 0.0
H474 H 0.79219 0.2289 0.79186 0.0
H475 H 0.77682 0.25364 0.81932 0.0
H476 H 0.81299 0.25593 0.80961 0.0
H477 H 0.72345 0.25988 0.69681 0.0
H478 H 0.7247 0.29564 0.6848 0.0
H479 H 0.70877 0.28528 0.72394 0.0
C480 C 0.19297 0.35263 0.93061 0.0
C481 C 0.16858 0.34514 0.91424 0.0
C482 C 0.19627 0.34832 0.96546 0.0
C483 C 0.17425 0.33705 0.98429 0.0
C484 C 0.15101 0.3264 0.96702 0.0
C485 C 0.14846 0.33057 0.932 0.0
C486 C 0.2218 0.35902 0.9826 0.0
C487 C 0.1272 0.3139 0.98603 0.0
C488 C 0.1733 0.32854 0.08022 0.0
C489 C 0.15911 0.3524 0.08961 0.0
C490 C 0.17996 0.32365 0.04604 0.0
C491 C 0.17208 0.34309 0.02112 0.0
C492 C 0.15967 0.36813 0.03116 0.0
C493 C 0.15334 0.3724 0.06522 0.0
C494 C 0.19365 0.29696 0.03655 0.0
C495 C 0.15124 0.38974 0.0057 0.0
H496 H 0.20851 0.36398 0.91674 0.0
H497 H 0.1295 0.32502 0.91929 0.0
H498 H 0.21758 0.37972 0.99314 0.0
H499 H 0.22799 0.34545 0.00382 0.0
H500 H 0.23922 0.36082 0.96455 0.0
H501 H 0.11313 0.30248 0.96896 0.0
H502 H 0.13465 0.29974 0.006 0.0
H503 H 0.11531 0.33049 0.99856 0.0
H504 H 0.17747 0.31292 0.0991 0.0
H505 H 0.14238 0.39085 0.07262 0.0
H506 H 0.20829 0.29986 0.01532 0.0
H507 H 0.17776 0.28208 0.02823 0.0
H508 H 0.20478 0.28785 0.05836 0.0
H509 H 0.16906 0.39572 0.98982 0.0
H510 H 0.14295 0.40854 0.01793 0.0
H511 H 0.13521 0.3813 0.98866 0.0
C512 C 0.64128 0.13605 0.94159 0.0
C513 C 0.65149 0.15252 0.9154 0.0
C514 C 0.64879 0.14064 0.97519 0.0
C515 C 0.66696 0.16246 0.98309 0.0
C516 C 0.67827 0.1786 0.95664 0.0
C517 C 0.67043 0.17337 0.9229 0.0
C518 C 0.6366 0.12241 0.00234 0.0
C519 C 0.6976 0.20207 0.96397 0.0
C520 C 0.65413 0.17817 0.07477 0.0
C521 C 0.67193 0.15909 0.08961 0.0
C522 C 0.65474 0.18267 0.03962 0.0
C523 C 0.67354 0.16765 0.01932 0.0
C524 C 0.6941 0.15159 0.03508 0.0
C525 C 0.6929 0.14734 0.07008 0.0
C526 C 0.63296 0.20059 0.02386 0.0
C527 C 0.71494 0.13573 0.01465 0.0
H528 H 0.6268 0.11977 0.93579 0.0
H529 H 0.6781 0.18633 0.90269 0.0
H530 H 0.65323 0.11251 0.01717 0.0
H531 H 0.62415 0.13494 0.02008 0.0
H532 H 0.62324 0.10603 0.99175 0.0
H533 H 0.70874 0.20886 0.94091 0.0
H534 H 0.68564 0.21975 0.97381 0.0
H535 H 0.71283 0.19631 0.98361 0.0
H536 H 0.6379 0.18725 0.08987 0.0
H537 H 0.70684 0.13273 0.08173 0.0
H538 H 0.61617 0.18742 0.01395 0.0
H539 H 0.6415 0.21247 0.00234 0.0
H540 H 0.624 0.2151 0.04254 0.0
H541 H 0.70512 0.11691 0.00442 0.0
H542 H 0.7328 0.12942 0.03034 0.0
H543 H 0.72245 0.14806 0.99293 0.0
C544 C 0.81667 0.64461 0.92926 0.0
C545 C 0.83824 0.65625 0.91062 0.0
C546 C 0.81435 0.6491 0.96414 0.0
C547 C 0.83452 0.66507 0.98078 0.0
C548 C 0.85421 0.67967 0.96129 0.0
C549 C 0.85583 0.6751 0.92622 0.0
C550 C 0.79252 0.63379 0.98365 0.0
C551 C 0.8758 0.6973 0.97796 0.0
C552 C 0.83506 0.67324 0.077 0.0
C553 C 0.85349 0.65235 0.0861 0.0
C554 C 0.82798 0.6775 0.04279 0.0
C555 C 0.83959 0.6604 0.0175 0.0
C556 C 0.85704 0.63843 0.02707 0.0
C557 C 0.86374 0.63476 0.06111 0.0
C558 C 0.80922 0.70103 0.03369 0.0
C559 C 0.86954 0.61924 0.00122 0.0
H560 H 0.80294 0.63013 0.91704 0.0
H561 H 0.87256 0.68402 0.91179 0.0
H562 H 0.80162 0.6149 0.99471 0.0
H563 H 0.78446 0.64646 0.00475 0.0
H564 H 0.77513 0.62764 0.96711 0.0
H565 H 0.88594 0.71125 0.95954 0.0
H566 H 0.86668 0.70976 0.99857 0.0
H567 H 0.89176 0.68386 0.98932 0.0
H568 H 0.82734 0.68705 0.09629 0.0
H569 H 0.87782 0.61846 0.06818 0.0
H570 H 0.79452 0.695 0.01358 0.0
H571 H 0.82171 0.71833 0.0238 0.0
H572 H 0.79748 0.70848 0.05598 0.0
H573 H 0.85312 0.60929 0.98612 0.0
H574 H 0.88224 0.60287 0.01304 0.0
H575 H 0.88274 0.63103 0.98351 0.0
C576 C 0.31104 0.8521 0.06969 0.0
C577 C 0.33371 0.84217 0.08783 0.0
C578 C 0.30931 0.84868 0.03457 0.0
C579 C 0.33103 0.83539 0.01732 0.0
C580 C 0.35181 0.82186 0.03624 0.0
C581 C 0.35295 0.82548 0.0715 0.0
C582 C 0.28642 0.86287 0.01567 0.0
C583 C 0.37503 0.80692 0.01894 0.0
C584 C 0.33474 0.83195 0.92082 0.0
C585 C 0.35171 0.85459 0.91403 0.0
C586 C 0.32692 0.82563 0.9543 0.0
C587 C 0.3363 0.84245 0.98121 0.0
C588 C 0.35204 0.86624 0.97393 0.0
C589 C 0.35954 0.87191 0.94055 0.0
C590 C 0.30996 0.80026 0.96096 0.0
C591 C 0.36215 0.88517 0.00158 0.0
H592 H 0.29614 0.86504 0.08245 0.0
H593 H 0.37057 0.81796 0.08551 0.0
H594 H 0.29371 0.88329 0.0069 0.0
H595 H 0.28015 0.85092 0.99309 0.0
H596 H 0.26816 0.86609 0.03208 0.0
H597 H 0.38582 0.79278 0.03657 0.0
H598 H 0.36739 0.79498 0.997 0.0
H599 H 0.39015 0.82215 0.00939 0.0
H600 H 0.32894 0.81835 0.90034 0.0
H601 H 0.37256 0.8895 0.93525 0.0
H602 H 0.29369 0.80446 0.97991 0.0
H603 H 0.32337 0.78392 0.97145 0.0
H604 H 0.30023 0.79236 0.9375 0.0
H605 H 0.34459 0.89269 0.01689 0.0
H606 H 0.37338 0.90326 0.99143 0.0
H607 H 0.37614 0.87381 0.01878 0.0
C608 C 0.19146 0.66437 0.58057 0.0
C609 C 0.16496 0.66656 0.5942 0.0
C610 C 0.19592 0.6675 0.54566 0.0
C611 C 0.17321 0.67241 0.52412 0.0
C612 C 0.14708 0.67802 0.53849 0.0
C613 C 0.14325 0.67487 0.57345 0.0
C614 C 0.22424 0.66222 0.5316 0.0
C615 C 0.12233 0.68377 0.5166 0.0
C616 C 0.17312 0.67931 0.42834 0.0
C617 C 0.16403 0.65302 0.4192 0.0
C618 C 0.17867 0.68566 0.46242 0.0
C619 C 0.17485 0.66521 0.48753 0.0
C620 C 0.16841 0.63796 0.47765 0.0
C621 C 0.16296 0.63228 0.44363 0.0
C622 C 0.18611 0.71477 0.47168 0.0
C623 C 0.16453 0.61528 0.50335 0.0
H624 H 0.20819 0.65755 0.59664 0.0
H625 H 0.1227 0.67612 0.58399 0.0
H626 H 0.22565 0.64052 0.52316 0.0
H627 H 0.22844 0.67553 0.50941 0.0
H628 H 0.24039 0.66573 0.55098 0.0
H629 H 0.10476 0.69181 0.53157 0.0
H630 H 0.12746 0.69884 0.49653 0.0
H631 H 0.11574 0.66447 0.50404 0.0
H632 H 0.17355 0.69547 0.40945 0.0
H633 H 0.15573 0.61202 0.43645 0.0
H634 H 0.20055 0.71532 0.49338 0.0
H635 H 0.16722 0.726 0.47916 0.0
H636 H 0.19552 0.72578 0.44996 0.0
H637 H 0.18231 0.6144 0.52084 0.0
H638 H 0.16211 0.59482 0.49126 0.0
H639 H 0.1459 0.61949 0.51869 0.0
C640 C 0.34851 0.19278 0.56872 0.0
C641 C 0.34113 0.16812 0.58462 0.0
C642 C 0.34506 0.19619 0.53375 0.0
C643 C 0.33458 0.17412 0.51439 0.0
C644 C 0.32356 0.1508 0.53116 0.0
C645 C 0.32706 0.14803 0.56627 0.0
C646 C 0.35617 0.22179 0.51714 0.0
C647 C 0.31164 0.12703 0.51159 0.0
C648 C 0.32997 0.1732 0.41806 0.0
C649 C 0.35414 0.15891 0.41011 0.0
C650 C 0.3237 0.17983 0.45189 0.0
C651 C 0.34207 0.1719 0.47796 0.0
C652 C 0.36747 0.1594 0.46944 0.0
C653 C 0.37308 0.15301 0.43569 0.0
C654 C 0.29663 0.19351 0.45975 0.0
C655 C 0.38805 0.151 0.49617 0.0
H656 H 0.35954 0.20827 0.58302 0.0
H657 H 0.32161 0.12886 0.57857 0.0
H658 H 0.37729 0.21772 0.50777 0.0
H659 H 0.34336 0.22786 0.49517 0.0
H660 H 0.35715 0.23921 0.53523 0.0
H661 H 0.2995 0.1131 0.52811 0.0
H662 H 0.29828 0.13452 0.49082 0.0
H663 H 0.32862 0.115 0.50008 0.0
H664 H 0.31516 0.17746 0.39826 0.0
H665 H 0.39177 0.14196 0.42942 0.0
H666 H 0.29857 0.20797 0.48129 0.0
H667 H 0.28137 0.17758 0.46686 0.0
H668 H 0.28854 0.20482 0.43747 0.0
H669 H 0.39328 0.16879 0.51244 0.0
H670 H 0.40737 0.14283 0.48507 0.0
H671 H 0.37899 0.13488 0.51261 0.0
C672 C 0.84315 0.36994 0.44453 0.0
C673 C 0.84352 0.34911 0.42024 0.0
C674 C 0.83873 0.36389 0.47871 0.0
C675 C 0.83499 0.33618 0.48888 0.0
C676 C 0.83266 0.3154 0.46397 0.0
C677 C 0.83705 0.32213 0.42975 0.0
C678 C 0.84093 0.38688 0.50422 0.0
C679 C 0.82818 0.28574 0.47355 0.0
C680 C 0.86956 0.32951 0.57342 0.0
C681 C 0.8477 0.3355 0.59512 0.0
C682 C 0.86515 0.32612 0.53864 0.0
C683 C 0.83823 0.32919 0.52538 0.0
C684 C 0.81572 0.33172 0.54786 0.0
C685 C 0.82076 0.33503 0.58263 0.0
C686 C 0.88977 0.32289 0.51574 0.0
C687 C 0.78667 0.3343 0.53496 0.0
H688 H 0.84846 0.39073 0.43707 0.0
H689 H 0.8378 0.30595 0.41094 0.0
H690 H 0.82362 0.38597 0.52244 0.0
H691 H 0.86029 0.38463 0.51879 0.0
H692 H 0.84092 0.40745 0.49201 0.0
H693 H 0.81953 0.2738 0.45212 0.0
H694 H 0.84817 0.27639 0.48062 0.0
H695 H 0.8142 0.28389 0.4956 0.0
H696 H 0.8904 0.33029 0.58311 0.0
H697 H 0.80387 0.34008 0.59943 0.0
H698 H 0.89411 0.34278 0.50304 0.0
H699 H 0.88564 0.30743 0.49581 0.0
H700 H 0.90843 0.31659 0.52997 0.0
H701 H 0.78294 0.35582 0.52686 0.0
H702 H 0.77146 0.32909 0.55492 0.0
H703 H 0.78322 0.32081 0.51277 0.0
C704 C 0.66957 0.81901 0.56934 0.0
C705 C 0.66847 0.84622 0.58079 0.0
C706 C 0.67254 0.81317 0.53471 0.0
C707 C 0.67412 0.83514 0.51129 0.0
C708 C 0.67642 0.86248 0.52342 0.0
C709 C 0.67335 0.86768 0.55808 0.0
C710 C 0.67077 0.78374 0.52304 0.0
C711 C 0.67863 0.88658 0.49951 0.0
C712 C 0.68131 0.83295 0.41586 0.0
C713 C 0.65418 0.83873 0.4063 0.0
C714 C 0.68809 0.82882 0.4501 0.0
C715 C 0.66721 0.83074 0.47497 0.0
C716 C 0.6394 0.83344 0.46474 0.0
C717 C 0.63329 0.83757 0.43051 0.0
C718 C 0.71786 0.82529 0.45975 0.0
C719 C 0.61631 0.83513 0.49021 0.0
H720 H 0.66536 0.80242 0.58694 0.0
H721 H 0.67209 0.88872 0.56698 0.0
H722 H 0.64925 0.77903 0.51577 0.0
H723 H 0.68397 0.78017 0.50059 0.0
H724 H 0.67689 0.76927 0.54343 0.0
H725 H 0.68417 0.90586 0.51291 0.0
H726 H 0.69427 0.88255 0.47973 0.0
H727 H 0.65859 0.88973 0.48666 0.0
H728 H 0.69754 0.83428 0.39712 0.0
H729 H 0.61237 0.84236 0.42303 0.0
H730 H 0.72008 0.81163 0.48205 0.0
H731 H 0.72666 0.84561 0.46644 0.0
H732 H 0.73005 0.81673 0.43846 0.0
H733 H 0.61795 0.81826 0.50896 0.0
H734 H 0.59577 0.834 0.47801 0.0
H735 H 0.61773 0.85486 0.50416 0.0
C736 C 0.14542 0.56305 0.26977 0.0
C737 C 0.12584 0.56737 0.29532 0.0
C738 C 0.14787 0.53732 0.25368 0.0
C739 C 0.13049 0.51534 0.26352 0.0
C740 C 0.11133 0.51937 0.29 0.0
C741 C 0.10919 0.54524 0.30543 0.0
C742 C 0.16846 0.53392 0.22544 0.0
C743 C 0.0925 0.4965 0.30149 0.0
C744 C 0.11037 0.45831 0.20279 0.0
C745 C 0.12627 0.43612 0.21434 0.0
C746 C 0.11254 0.48446 0.21754 0.0
C747 C 0.13082 0.48861 0.2449 0.0
C748 C 0.1476 0.46657 0.25603 0.0
C749 C 0.14524 0.44063 0.24049 0.0
C750 C 0.09449 0.50741 0.20457 0.0
C751 C 0.16721 0.47007 0.28527 0.0
H752 H 0.15838 0.57994 0.2617 0.0
H753 H 0.09414 0.54816 0.32531 0.0
H754 H 0.18166 0.51573 0.23019 0.0
H755 H 0.15746 0.53025 0.2013 0.0
H756 H 0.18179 0.55228 0.22241 0.0
H757 H 0.07996 0.50241 0.32381 0.0
H758 H 0.07838 0.49076 0.28064 0.0
H759 H 0.10467 0.47796 0.30801 0.0
H760 H 0.09586 0.45519 0.18235 0.0
H761 H 0.15759 0.42364 0.24965 0.0
H762 H 0.10705 0.52589 0.19897 0.0
H763 H 0.07935 0.51323 0.22428 0.0
H764 H 0.0831 0.50151 0.18134 0.0
H765 H 0.18048 0.48832 0.28122 0.0
H766 H 0.1805 0.45176 0.28896 0.0
H767 H 0.15537 0.47365 0.30883 0.0
C768 C 0.55055 0.11029 0.19546 0.0
C769 C 0.57191 0.12774 0.20597 0.0
C770 C 0.52411 0.11215 0.20961 0.0
C771 C 0.51876 0.13179 0.23518 0.0
C772 C 0.53993 0.15006 0.24518 0.0
C773 C 0.56619 0.14789 0.23039 0.0
C774 C 0.50212 0.0924 0.19796 0.0
C775 C 0.53517 0.17118 0.27248 0.0
C776 C 0.44346 0.14524 0.25732 0.0
C777 C 0.43939 0.12703 0.28442 0.0
C778 C 0.46932 0.14755 0.24146 0.0
C779 C 0.49173 0.13154 0.25322 0.0
C780 C 0.48794 0.11393 0.28135 0.0
C781 C 0.46189 0.11179 0.29641 0.0
C782 C 0.47244 0.16642 0.21141 0.0
C783 C 0.51128 0.09674 0.29505 0.0
H784 H 0.55456 0.09477 0.17647 0.0
H785 H 0.58247 0.16147 0.2388 0.0
H786 H 0.4966 0.0783 0.21896 0.0
H787 H 0.48322 0.10378 0.19084 0.0
H788 H 0.50886 0.07987 0.17602 0.0
H789 H 0.55291 0.18537 0.27537 0.0
H790 H 0.51652 0.18346 0.26683 0.0
H791 H 0.53161 0.16064 0.29697 0.0
H792 H 0.42622 0.15703 0.24777 0.0
H793 H 0.45911 0.09785 0.31753 0.0
H794 H 0.47683 0.15408 0.18846 0.0
H795 H 0.49009 0.1805 0.21519 0.0
H796 H 0.45366 0.17886 0.20679 0.0
H797 H 0.51785 0.08159 0.27572 0.0
H798 H 0.50544 0.08542 0.31838 0.0
H799 H 0.52928 0.10994 0.30075 0.0
C800 C 0.8935 0.54691 0.20322 0.0
C801 C 0.87845 0.56958 0.215 0.0
C802 C 0.89111 0.52098 0.21853 0.0
C803 C 0.87354 0.51756 0.24677 0.0
C804 C 0.85758 0.54012 0.25815 0.0
C805 C 0.86007 0.56582 0.24197 0.0
C806 C 0.90819 0.49746 0.20518 0.0
C807 C 0.83881 0.53743 0.28835 0.0
C808 C 0.85805 0.44363 0.27307 0.0
C809 C 0.87843 0.4389 0.29756 0.0
C810 C 0.85557 0.46938 0.25703 0.0
C811 C 0.87375 0.491 0.2658 0.0
C812 C 0.89366 0.48662 0.29135 0.0
C813 C 0.89581 0.4607 0.30677 0.0
C814 C 0.83417 0.47315 0.2298 0.0
C815 C 0.91333 0.5091 0.30173 0.0
H816 H 0.90753 0.54951 0.18216 0.0
H817 H 0.84845 0.58322 0.25135 0.0
H818 H 0.92377 0.49147 0.2243 0.0
H819 H 0.89503 0.47924 0.20051 0.0
H820 H 0.91901 0.50283 0.18134 0.0
H821 H 0.82602 0.55607 0.29223 0.0
H822 H 0.82506 0.51941 0.28537 0.0
H823 H 0.85129 0.53393 0.31144 0.0
H824 H 0.84453 0.42699 0.26569 0.0
H825 H 0.91149 0.45745 0.32581 0.0
H826 H 0.84447 0.47616 0.20505 0.0
H827 H 0.82172 0.4918 0.23482 0.0
H828 H 0.82016 0.45519 0.22784 0.0
H829 H 0.92706 0.51426 0.28025 0.0
H830 H 0.92626 0.50306 0.32365 0.0
H831 H 0.90181 0.52801 0.30839 0.0
C832 C 0.54352 0.89433 0.29345 0.0
C833 C 0.56545 0.87721 0.28391 0.0
C834 C 0.51758 0.89215 0.27813 0.0
C835 C 0.51326 0.87245 0.25236 0.0
C836 C 0.53505 0.85465 0.24306 0.0
C837 C 0.56085 0.85718 0.25899 0.0
C838 C 0.49492 0.91144 0.28903 0.0
C839 C 0.53134 0.83345 0.21561 0.0
C840 C 0.43829 0.85726 0.23081 0.0
C841 C 0.43359 0.87538 0.20376 0.0
C842 C 0.46435 0.85532 0.24617 0.0
C843 C 0.48634 0.87172 0.23408 0.0
C844 C 0.48201 0.88916 0.20591 0.0
C845 C 0.45576 0.89086 0.19124 0.0
C846 C 0.46804 0.83656 0.27623 0.0
C847 C 0.50489 0.90683 0.19196 0.0
H848 H 0.54665 0.90976 0.3128 0.0
H849 H 0.57757 0.84385 0.25134 0.0
H850 H 0.48907 0.92496 0.26761 0.0
H851 H 0.47637 0.89959 0.29635 0.0
H852 H 0.50112 0.92459 0.31068 0.0
H853 H 0.54967 0.82005 0.21275 0.0
H854 H 0.5132 0.82037 0.22114 0.0
H855 H 0.52738 0.84389 0.19114 0.0
H856 H 0.42137 0.84523 0.24077 0.0
H857 H 0.45253 0.90475 0.17018 0.0
H858 H 0.47189 0.84904 0.29921 0.0
H859 H 0.4862 0.82311 0.27253 0.0
H860 H 0.44971 0.82345 0.28076 0.0
H861 H 0.51089 0.92245 0.21099 0.0
H862 H 0.49882 0.91762 0.16835 0.0
H863 H 0.52332 0.89411 0.18667 0.0
C864 C 0.87153 0.56075 0.7631 0.0
C865 C 0.84653 0.57471 0.76603 0.0
C866 C 0.87211 0.53257 0.75544 0.0
C867 C 0.84704 0.51823 0.75069 0.0
C868 C 0.82175 0.53255 0.75307 0.0
C869 C 0.82182 0.56067 0.76094 0.0
C870 C 0.89946 0.51805 0.75311 0.0
C871 C 0.79462 0.51807 0.74794 0.0
C872 C 0.84713 0.45141 0.70146 0.0
C873 C 0.8457 0.43169 0.72733 0.0
C874 C 0.84795 0.47956 0.70876 0.0
C875 C 0.84719 0.48833 0.74281 0.0
C876 C 0.84594 0.46856 0.76913 0.0
C877 C 0.84524 0.44041 0.76106 0.0
C878 C 0.84935 0.49995 0.67998 0.0
C879 C 0.84507 0.47718 0.80576 0.0
H880 H 0.89057 0.57172 0.76764 0.0
H881 H 0.80254 0.57158 0.76388 0.0
H882 H 0.90052 0.50151 0.77239 0.0
H883 H 0.90166 0.50816 0.728 0.0
H884 H 0.91706 0.53225 0.75701 0.0
H885 H 0.77684 0.53228 0.75009 0.0
H886 H 0.7941 0.50827 0.72263 0.0
H887 H 0.79224 0.50148 0.76697 0.0
H888 H 0.8475 0.44488 0.67528 0.0
H889 H 0.84416 0.42527 0.78113 0.0
H890 H 0.86763 0.51336 0.68292 0.0
H891 H 0.83096 0.51343 0.68044 0.0
H892 H 0.85045 0.48973 0.65491 0.0
H893 H 0.86325 0.49003 0.8118 0.0
H894 H 0.84467 0.4593 0.82323 0.0
H895 H 0.82654 0.48992 0.81045 0.0
C896 C 0.56791 0.82826 0.74612 0.0
C897 C 0.57646 0.84334 0.71788 0.0
C898 C 0.54001 0.82735 0.75533 0.0
C899 C 0.52054 0.84281 0.73662 0.0
C900 C 0.52928 0.85854 0.7085 0.0
C901 C 0.55705 0.85813 0.69906 0.0
C902 C 0.53134 0.80968 0.78485 0.0
C903 C 0.50942 0.87623 0.68879 0.0
C904 C 0.44406 0.82686 0.74298 0.0
C905 C 0.436 0.84476 0.7688 0.0
C906 C 0.47168 0.82562 0.73254 0.0
C907 C 0.49124 0.84355 0.74734 0.0
C908 C 0.48283 0.86238 0.77252 0.0
C909 C 0.45546 0.86225 0.7835 0.0
C910 C 0.48008 0.80463 0.70643 0.0
C911 C 0.50271 0.88268 0.78792 0.0
H912 H 0.58292 0.81656 0.76039 0.0
H913 H 0.56365 0.86988 0.67728 0.0
H914 H 0.523 0.82277 0.80536 0.0
H915 H 0.51469 0.79547 0.77698 0.0
H916 H 0.54866 0.7974 0.79518 0.0
H917 H 0.51968 0.88771 0.66804 0.0
H918 H 0.49292 0.86334 0.67775 0.0
H919 H 0.49942 0.89122 0.70598 0.0
H920 H 0.42901 0.81309 0.73197 0.0
H921 H 0.44928 0.8761 0.80347 0.0
H922 H 0.49617 0.79096 0.71707 0.0
H923 H 0.48911 0.81501 0.68408 0.0
H924 H 0.4625 0.7918 0.69794 0.0
H925 H 0.5189 0.87157 0.80216 0.0
H926 H 0.49239 0.89727 0.80538 0.0
H927 H 0.51311 0.89462 0.7677 0.0
C928 C 0.13814 0.44673 0.77583 0.0
C929 C 0.16226 0.4313 0.77282 0.0
C930 C 0.13782 0.47477 0.76756 0.0
C931 C 0.16237 0.48763 0.75656 0.0
C932 C 0.18678 0.47194 0.75333 0.0
C933 C 0.18638 0.44384 0.76139 0.0
C934 C 0.11128 0.49066 0.77078 0.0
C935 C 0.2134 0.48495 0.74191 0.0
C936 C 0.15814 0.55344 0.70549 0.0
C937 C 0.16353 0.57356 0.73 0.0
C938 C 0.15727 0.52549 0.71395 0.0
C939 C 0.16239 0.51735 0.74767 0.0
C940 C 0.1678 0.53753 0.77263 0.0
C941 C 0.16809 0.56549 0.76353 0.0
C942 C 0.15098 0.50468 0.6867 0.0
C943 C 0.17365 0.52955 0.8088 0.0
H944 H 0.11956 0.43689 0.78484 0.0
H945 H 0.20508 0.43179 0.75964 0.0
H946 H 0.11385 0.50762 0.78923 0.0
H947 H 0.10587 0.50012 0.74613 0.0
H948 H 0.09391 0.47748 0.77914 0.0
H949 H 0.23061 0.46996 0.74114 0.0
H950 H 0.21084 0.49397 0.71634 0.0
H951 H 0.21903 0.50195 0.75924 0.0
H952 H 0.15454 0.55948 0.67951 0.0
H953 H 0.17236 0.58095 0.78252 0.0
H954 H 0.13299 0.49202 0.69416 0.0
H955 H 0.16866 0.49052 0.68354 0.0
H956 H 0.14654 0.51449 0.66193 0.0
H957 H 0.15609 0.51778 0.81931 0.0
H958 H 0.17744 0.5477 0.82516 0.0
H959 H 0.19195 0.51595 0.8098 0.0
C960 C 0.45374 0.16315 0.69399 0.0
C961 C 0.43349 0.16021 0.71904 0.0
C962 C 0.48176 0.16271 0.70214 0.0
C963 C 0.48983 0.15908 0.73617 0.0
C964 C 0.46953 0.15569 0.76158 0.0
C965 C 0.44153 0.1564 0.75271 0.0
C966 C 0.50272 0.16663 0.67436 0.0
C967 C 0.47741 0.15154 0.79813 0.0
C968 C 0.56333 0.13654 0.75376 0.0
C969 C 0.57537 0.16137 0.76359 0.0
C970 C 0.53542 0.13543 0.74474 0.0
C971 C 0.51951 0.15982 0.74522 0.0
C972 C 0.53199 0.18509 0.75421 0.0
C973 C 0.55975 0.18546 0.76375 0.0
C974 C 0.52278 0.10807 0.7357 0.0
C975 C 0.51589 0.21161 0.75442 0.0
H976 H 0.44771 0.16612 0.66787 0.0
H977 H 0.42597 0.15402 0.77212 0.0
H978 H 0.51509 0.18535 0.67938 0.0
H979 H 0.51714 0.14898 0.6738 0.0
H980 H 0.49305 0.16866 0.64904 0.0
H981 H 0.45923 0.14809 0.8146 0.0
H982 H 0.49143 0.13367 0.80052 0.0
H983 H 0.48868 0.16983 0.80749 0.0
H984 H 0.57548 0.11787 0.75435 0.0
H985 H 0.56918 0.20452 0.77197 0.0
H986 H 0.5135 0.10907 0.71012 0.0
H987 H 0.50601 0.10314 0.75373 0.0
H988 H 0.53805 0.0911 0.7362 0.0
H989 H 0.50635 0.21511 0.72931 0.0
H990 H 0.52894 0.22963 0.76073 0.0
H991 H 0.49898 0.21029 0.77317 0.0
C992 C 0.64853 0.06293 0.76335 0.0
C993 C 0.62778 0.06688 0.78755 0.0
C994 C 0.65208 0.0373 0.74737 0.0
C995 C 0.63466 0.01502 0.75599 0.0
C996 C 0.61452 0.01859 0.78147 0.0
C997 C 0.61125 0.04442 0.79675 0.0
C998 C 0.67369 0.03441 0.72022 0.0
C999 C 0.59566 0.99538 0.79174 0.0
C1000 C 0.61683 0.95958 0.69209 0.0
C1001 C 0.63238 0.93708 0.70351 0.0
C1002 C 0.6183 0.98525 0.70812 0.0
C1003 C 0.63562 0.9887 0.73655 0.0
C1004 C 0.65211 0.96641 0.74758 0.0
C1005 C 0.65037 0.94089 0.73087 0.0
C1006 C 0.6005 0.00847 0.69528 0.0
C1007 C 0.67078 0.9692 0.77784 0.0
H1008 H 0.66139 0.08012 0.756 0.0
H1009 H 0.59534 0.04708 0.81565 0.0
H1010 H 0.68655 0.01598 0.72494 0.0
H1011 H 0.66357 0.03154 0.69535 0.0
H1012 H 0.68728 0.05272 0.7187 0.0
H1013 H 0.58266 1.00079 0.81384 0.0
H1014 H 0.58198 0.98999 0.7703 0.0
H1015 H 0.60781 0.97678 0.79805 0.0
H1016 H 0.60304 0.95705 0.6708 0.0
H1017 H 0.66246 0.9237 0.73996 0.0
H1018 H 0.61316 0.02707 0.69076 0.0
H1019 H 0.58489 0.01383 0.71464 0.0
H1020 H 0.58967 0.00308 0.67147 0.0
H1021 H 0.68405 0.98762 0.77517 0.0
H1022 H 0.68407 0.95086 0.78138 0.0
H1023 H 0.65821 0.97207 0.80097 0.0
C1024 C 0.94386 0.64801 0.76738 0.0
C1025 C 0.9393 0.62965 0.79422 0.0
C1026 C 0.96999 0.65053 0.75233 0.0
C1027 C 0.99221 0.63454 0.7646 0.0
C1028 C 0.98801 0.61697 0.79269 0.0
C1029 C 0.96166 0.61462 0.80699 0.0
C1030 C 0.97351 0.66937 0.72231 0.0
C1031 C 0.01113 0.59975 0.80685 0.0
C1032 C 0.0497 0.61265 0.70531 0.0
C1033 C 0.07144 0.63001 0.71487 0.0
C1034 C 0.02373 0.61451 0.72062 0.0
C1035 C 0.01916 0.63417 0.74637 0.0
C1036 C 0.04071 0.65227 0.75562 0.0
C1037 C 0.06657 0.65002 0.73974 0.0
C1038 C 1.00135 0.59487 0.70978 0.0
C1039 C 0.03669 0.67349 0.78297 0.0
H1040 H 0.92676 0.65967 0.75722 0.0
H1041 H 0.95849 0.60056 0.82789 0.0
H1042 H 0.99155 0.68299 0.72599 0.0
H1043 H 0.97744 0.65695 0.69931 0.0
H1044 H 0.95505 0.68231 0.71784 0.0
H1045 H 0.00516 0.58901 0.83054 0.0
H1046 H 0.0174 0.58411 0.78797 0.0
H1047 H 0.02935 0.61278 0.81207 0.0
H1048 H 0.05302 0.59721 0.68601 0.0
H1049 H 0.08314 0.66354 0.7474 0.0
H1050 H 0.98264 0.60645 0.70242 0.0
H1051 H 0.99567 0.58132 0.73124 0.0
H1052 H 0.00773 0.58177 0.68818 0.0
H1053 H 0.01833 0.68625 0.77744 0.0
H1054 H 0.05481 0.6872 0.78572 0.0
H1055 H 0.03294 0.66306 0.8075 0.0
C1056 C 0.38817 0.04559 0.68597 0.0
C1057 C 0.37474 0.06842 0.70003 0.0
C1058 C 0.38664 0.01955 0.70123 0.0
C1059 C 0.37158 0.01619 0.73159 0.0
C1060 C 0.357 0.03885 0.74517 0.0
C1061 C 0.35863 0.06465 0.72914 0.0
C1062 C 0.40224 0.99591 0.68564 0.0
C1063 C 0.34085 0.03622 0.77759 0.0
C1064 C 0.35849 0.94272 0.76186 0.0
C1065 C 0.3806 0.93862 0.78413 0.0
C1066 C 0.3548 0.96805 0.74513 0.0
C1067 C 0.37362 0.98981 0.75082 0.0
C1068 C 0.3955 0.986 0.77392 0.0
C1069 C 0.39872 0.96058 0.79018 0.0
C1070 C 0.3312 0.97131 0.72071 0.0
C1071 C 0.41601 0.00862 0.7809 0.0
H1072 H 0.40043 0.04815 0.6633 0.0
H1073 H 0.3482 0.08212 0.74027 0.0
H1074 H 0.41961 0.99006 0.70234 0.0
H1075 H 0.38873 0.97767 0.68316 0.0
H1076 H 0.41062 1.00115 0.66031 0.0
H1077 H 0.32829 0.05479 0.78286 0.0
H1078 H 0.32707 0.01808 0.77655 0.0
H1079 H 0.35521 0.03301 0.79901 0.0
H1080 H 0.34436 0.92598 0.75694 0.0
H1081 H 0.41581 0.95787 0.80743 0.0
H1082 H 0.33931 0.97432 0.69475 0.0
H1083 H 0.31898 0.98983 0.72714 0.0
H1084 H 0.31735 0.95315 0.72069 0.0
H1085 H 0.42744 0.01365 0.75742 0.0
H1086 H 0.4311 0.00284 0.80075 0.0
H1087 H 0.40518 0.02755 0.78904 0.0
C1088 C 0.0648 0.35563 0.77213 0.0
C1089 C 0.0695 0.37519 0.79759 0.0
C1090 C 0.03884 0.35311 0.75667 0.0
C1091 C 0.01699 0.37046 0.76695 0.0
C1092 C 0.02132 0.38943 0.79354 0.0
C1093 C 0.04743 0.3916 0.80843 0.0
C1094 C 0.03511 0.33265 0.72838 0.0
C1095 C 0.99859 0.40822 0.80547 0.0
C1096 C 0.96067 0.39056 0.70511 0.0
C1097 C 0.93834 0.37455 0.71607 0.0
C1098 C 0.9865 0.38871 0.72075 0.0
C1099 C 0.99028 0.3705 0.74828 0.0
C1100 C 0.96809 0.35371 0.75897 0.0
C1101 C 0.94242 0.35587 0.74269 0.0
C1102 C 0.0096 0.40687 0.70834 0.0
C1103 C 0.97124 0.3341 0.78828 0.0
H1104 H 0.08162 0.34284 0.76349 0.0
H1105 H 0.05065 0.40665 0.82821 0.0
H1106 H 0.01668 0.31976 0.73302 0.0
H1107 H 0.03171 0.34377 0.70425 0.0
H1108 H 0.05326 0.31901 0.72539 0.0
H1109 H 0.00463 0.42033 0.82807 0.0
H1110 H 0.993 0.42273 0.78493 0.0
H1111 H 0.97992 0.39613 0.81167 0.0
H1112 H 0.95793 0.40492 0.68442 0.0
H1113 H 0.92536 0.34342 0.75143 0.0
H1114 H 0.02799 0.39429 0.70241 0.0
H1115 H 0.01554 0.42156 0.72849 0.0
H1116 H 0.00381 0.41876 0.68543 0.0
H1117 H 0.98929 0.32055 0.78428 0.0
H1118 H 0.95272 0.32109 0.79198 0.0
H1119 H 0.97502 0.34588 0.81184 0.0
C1120 C 0.36838 0.06073 0.2595 0.0
C1121 C 0.34364 0.07444 0.26572 0.0
C1122 C 0.36859 0.03253 0.25198 0.0
C1123 C 0.34339 0.01796 0.2504 0.0
C1124 C 0.31831 0.03201 0.25615 0.0
C1125 C 0.31878 0.06011 0.26408 0.0
C1126 C 0.39574 0.01827 0.2462 0.0
C1127 C 0.29102 0.01731 0.25422 0.0
C1128 C 0.34048 0.95236 0.19903 0.0
C1129 C 0.34129 0.932 0.22417 0.0
C1130 C 0.3414 0.98032 0.20726 0.0
C1131 C 0.34314 0.98825 0.24155 0.0
C1132 C 0.34414 0.96784 0.26715 0.0
C1133 C 0.34319 0.93987 0.25814 0.0
C1134 C 0.34026 1.00139 0.17921 0.0
C1135 C 0.34605 0.97559 0.30401 0.0
H1136 H 0.38758 0.07192 0.26132 0.0
H1137 H 0.29975 0.07084 0.26951 0.0
H1138 H 0.3982 1.00118 0.26453 0.0
H1139 H 0.39622 0.00915 0.22051 0.0
H1140 H 0.41349 0.03247 0.24886 0.0
H1141 H 0.2734 0.03127 0.25916 0.0
H1142 H 0.28838 0.00803 0.22882 0.0
H1143 H 0.29046 1.00031 0.27291 0.0
H1144 H 0.33898 0.9465 0.17267 0.0
H1145 H 0.34386 0.92423 0.27764 0.0
H1146 H 0.35865 0.01485 0.18027 0.0
H1147 H 0.32196 0.01472 0.18251 0.0
H1148 H 0.33928 0.99179 0.15377 0.0
H1149 H 0.36451 0.98851 0.30833 0.0
H1150 H 0.34719 0.9573 0.32078 0.0
H1151 H 0.32787 0.988 0.31133 0.0
C1152 C 0.95134 0.32737 0.29789 0.0
C1153 C 0.93262 0.34369 0.28 0.0
C1154 C 0.9792 0.32666 0.28894 0.0
C1155 C 0.98874 0.34351 0.26223 0.0
C1156 C 0.96992 0.36039 0.24435 0.0
C1157 C 0.94188 0.3599 0.25308 0.0
C1158 C 0.99835 0.30765 0.30783 0.0
C1159 C 0.97946 0.37921 0.21637 0.0
C1160 C 0.06573 0.35778 0.26009 0.0
C1161 C 0.07418 0.34042 0.2339 0.0
C1162 C 0.03782 0.35946 0.26919 0.0
C1163 C 0.01827 0.34269 0.2524 0.0
C1164 C 0.027 0.32456 0.22659 0.0
C1165 C 0.05478 0.32405 0.21724 0.0
C1166 C 0.02916 0.37961 0.29615 0.0
C1167 C 0.00703 0.30566 0.20888 0.0
H1168 H 0.94407 0.31481 0.31871 0.0
H1169 H 0.92738 0.37283 0.23965 0.0
H1170 H 0.00849 0.29339 0.28985 0.0
H1171 H 0.01481 0.31968 0.32036 0.0
H1172 H 0.98748 0.29532 0.32734 0.0
H1173 H 0.9625 0.39205 0.20616 0.0
H1174 H 0.99597 0.39295 0.22584 0.0
H1175 H 0.98831 0.36697 0.19539 0.0
H1176 H 0.08075 0.37079 0.27247 0.0
H1177 H 0.06143 0.31068 0.1969 0.0
H1178 H 0.01952 0.36852 0.3176 0.0
H1179 H 0.01348 0.3939 0.28582 0.0
H1180 H 0.04673 0.39184 0.30591 0.0
H1181 H 0.99614 0.2927 0.22771 0.0
H1182 H 0.01739 0.29199 0.19034 0.0
H1183 H 0.99124 0.31789 0.19538 0.0
C1184 C 0.64789 0.94253 0.24277 0.0
C1185 C 0.66109 0.93274 0.2718 0.0
C1186 C 0.64758 0.97082 0.23533 0.0
C1187 C 0.66157 0.98944 0.25689 0.0
C1188 C 0.67531 0.97944 0.28591 0.0
C1189 C 0.67452 0.95129 0.29328 0.0
C1190 C 0.63211 0.98081 0.20462 0.0
C1191 C 0.69123 0.99842 0.30892 0.0
C1192 C 0.68476 0.0569 0.21821 0.0
C1193 C 0.666 0.07553 0.23215 0.0
C1194 C 0.68385 0.02894 0.22659 0.0
C1195 C 0.66294 0.01922 0.24843 0.0
C1196 C 0.64381 0.03801 0.2625 0.0
C1197 C 0.64586 0.06614 0.2546 0.0
C1198 C 0.70522 0.00981 0.21197 0.0
C1199 C 0.62078 0.0283 0.28513 0.0
H1200 H 0.6372 0.9282 0.22643 0.0
H1201 H 0.68481 0.94367 0.31571 0.0
H1202 H 0.61709 0.99686 0.21208 0.0
H1203 H 0.64659 0.99035 0.18641 0.0
H1204 H 0.62095 0.96395 0.19162 0.0
H1205 H 0.70108 0.98728 0.33024 0.0
H1206 H 0.70746 0.00919 0.2943 0.0
H1207 H 0.6774 0.01437 0.31945 0.0
H1208 H 0.70025 0.0643 0.20069 0.0
H1209 H 0.63103 0.08058 0.26475 0.0
H1210 H 0.69518 0.99422 0.1957 0.0
H1211 H 0.71586 0.99862 0.23262 0.0
H1212 H 0.72084 0.02091 0.19668 0.0
H1213 H 0.60815 0.01281 0.27162 0.0
H1214 H 0.60721 0.04541 0.29332 0.0
H1215 H 0.62931 0.01813 0.30791 0.0
C1216 C 0.06238 0.65981 0.24971 0.0
C1217 C 0.07036 0.66227 0.28358 0.0
C1218 C 0.0344 0.65988 0.24069 0.0
C1219 C 0.01407 0.6627 0.26616 0.0
C1220 C 0.02209 0.66522 0.30036 0.0
C1221 C 0.05009 0.66488 0.30864 0.0
C1222 C 0.02657 0.65694 0.20395 0.0
C1223 C 1.00109 0.6685 0.32821 0.0
C1224 C 0.94394 0.68918 0.23932 0.0
C1225 C 0.92857 0.66493 0.23848 0.0
C1226 C 0.97169 0.68884 0.24901 0.0
C1227 C 0.98439 0.66347 0.2571 0.0
C1228 C 0.96871 0.63893 0.25661 0.0
C1229 C 0.94083 0.64 0.24751 0.0
C1230 C 0.98754 0.7155 0.24988 0.0
C1231 C 0.98158 0.61146 0.26467 0.0
H1232 H 0.07795 0.6577 0.23028 0.0
H1233 H 0.05609 0.66686 0.33491 0.0
H1234 H 0.01281 0.63896 0.20066 0.0
H1235 H 0.01502 0.67537 0.19552 0.0
H1236 H 0.04479 0.65432 0.18732 0.0
H1237 H 0.01075 0.67018 0.35358 0.0
H1238 H 0.98855 0.68717 0.32364 0.0
H1239 H 0.98684 0.6507 0.32834 0.0
H1240 H 0.93436 0.70834 0.23173 0.0
H1241 H 0.92887 0.62124 0.24624 0.0
H1242 H 0.00443 0.71488 0.23105 0.0
H1243 H 0.99709 0.71837 0.2751 0.0
H1244 H 0.97431 0.73356 0.24434 0.0
H1245 H 0.99848 0.60718 0.24657 0.0
H1246 H 0.96648 0.59436 0.26341 0.0
H1247 H 0.99074 0.61186 0.29034 0.0
loop_
_geom_bond_atom_site_label_1
_geom_bond_atom_site_label_2
_geom_bond_distance
_geom_bond_site_symmetry_2
_ccdc_geom_bond_type
Co0 O1 2.216 . S
Co0 O2 2.091 . S
Co0 O4 2.004 . S
Co0 O10 2.021 . S
Co0 O12 2.137 . S
Co0 O13 2.244 . S
O1 Co0 2.216 . S
O1 C8 1.247 . S
O2 Co0 2.091 . S
O2 C8 1.261 . S
C3 O12 1.247 . S
C3 O13 1.272 . S
O4 Co0 2.004 . S
O4 C9 1.259 . S
Co5 O6 2.061 . S
Co5 O11 2.052 . S
Co5 O13 2.135 . S
O6 Co5 2.061 . S
O6 C9 1.235 . S
C7 O10 1.238 . S
C7 O11 1.241 . S
C8 O1 1.247 . S
C8 O2 1.261 . S
C9 O4 1.259 . S
C9 O6 1.235 . S
O10 Co0 2.021 . S
O10 C7 1.238 . S
O11 Co5 2.052 . S
O11 C7 1.241 . S
O12 Co0 2.137 . S
O12 C3 1.247 . S
O13 Co0 2.244 . S
O13 C3 1.272 . S
O13 Co5 2.135 . S
Co14 O15 2.216 . S
Co14 O16 2.091 . S
Co14 O18 2.004 . S
Co14 O24 2.021 . S
Co14 O26 2.137 . S
Co14 O27 2.244 . S
O15 Co14 2.216 . S
O15 C22 1.247 . S
O16 Co14 2.091 . S
O16 C22 1.261 . S
C17 O26 1.247 . S
C17 O27 1.272 . S
O18 Co14 2.004 . S
O18 C23 1.259 . S
Co19 O20 2.061 . S
Co19 O25 2.052 . S
Co19 O27 2.135 . S
O20 Co19 2.061 . S
O20 C23 1.235 . S
C21 O24 1.238 . S
C21 O25 1.241 . S
C22 O15 1.247 . S
C22 O16 1.261 . S
C23 O18 1.259 . S
C23 O20 1.235 . S
O24 Co14 2.021 . S
O24 C21 1.238 . S
O25 Co19 2.052 . S
O25 C21 1.241 . S
O26 Co14 2.137 . S
O26 C17 1.247 . S
O27 Co14 2.244 . S
O27 C17 1.272 . S
O27 Co19 2.135 . S
Co28 O29 2.216 . S
Co28 O30 2.091 . S
Co28 O32 2.004 . S
Co28 O38 2.021 . S
Co28 O40 2.137 . S
Co28 O41 2.244 . S
O29 Co28 2.216 . S
O29 C36 1.247 . S
O30 Co28 2.091 . S
O30 C36 1.261 . S
C31 O40 1.247 . S
C31 O41 1.272 . S
O32 Co28 2.004 . S
O32 C37 1.259 . S
Co33 O34 2.061 . S
Co33 O39 2.052 . S
Co33 O41 2.135 . S
O34 Co33 2.061 . S
O34 C37 1.235 . S
C35 O38 1.238 . S
C35 O39 1.241 . S
C36 O29 1.247 . S
C36 O30 1.261 . S
C37 O32 1.259 . S
C37 O34 1.235 . S
O38 Co28 2.021 . S
O38 C35 1.238 . S
O39 Co33 2.052 . S
O39 C35 1.241 . S
O40 Co28 2.137 . S
O40 C31 1.247 . S
O41 Co28 2.244 . S
O41 C31 1.272 . S
O41 Co33 2.135 . S
Co42 O43 2.216 . S
Co42 O44 2.091 . S
Co42 O46 2.004 . S
Co42 O52 2.021 . S
Co42 O54 2.137 . S
Co42 O55 2.244 . S
O43 Co42 2.216 . S
O43 C50 1.247 . S
O44 Co42 2.091 . S
O44 C50 1.261 . S
C45 O54 1.247 . S
C45 O55 1.272 . S
O46 Co42 2.004 . S
O46 C51 1.259 . S
Co47 O48 2.061 . S
Co47 O53 2.052 . S
Co47 O55 2.135 . S
O48 Co47 2.061 . S
O48 C51 1.235 . S
C49 O52 1.238 . S
C49 O53 1.241 . S
C50 O43 1.247 . S
C50 O44 1.261 . S
C51 O46 1.259 . S
C51 O48 1.235 . S
O52 Co42 2.021 . S
O52 C49 1.238 . S
O53 Co47 2.052 . S
O53 C49 1.241 . S
O54 Co42 2.137 . S
O54 C45 1.247 . S
O55 Co42 2.244 . S
O55 C45 1.272 . S
O55 Co47 2.135 . S
Co56 O57 2.216 . S
Co56 O58 2.091 . S
Co56 O60 2.004 . S
Co56 O66 2.021 . S
Co56 O68 2.137 . S
Co56 O69 2.244 . S
O57 Co56 2.216 . S
O57 C64 1.247 . S
O58 Co56 2.091 . S
O58 C64 1.261 . S
C59 O68 1.247 . S
C59 O69 1.272 . S
O60 Co56 2.004 . S
O60 C65 1.259 . S
Co61 O62 2.061 . S
Co61 O67 2.052 . S
Co61 O69 2.135 . S
O62 Co61 2.061 . S
O62 C65 1.235 . S
C63 O66 1.238 . S
C63 O67 1.241 . S
C64 O57 1.247 . S
C64 O58 1.261 . S
C65 O60 1.259 . S
C65 O62 1.235 . S
O66 Co56 2.021 . S
O66 C63 1.238 . S
O67 Co61 2.052 . S
O67 C63 1.241 . S
O68 Co56 2.137 . S
O68 C59 1.247 . S
O69 Co56 2.244 . S
O69 C59 1.272 . S
O69 Co61 2.135 . S
Co70 O71 2.216 . S
Co70 O72 2.091 . S
Co70 O74 2.004 . S
Co70 O80 2.021 . S
Co70 O82 2.137 . S
Co70 O83 2.244 . S
O71 Co70 2.216 . S
O71 C78 1.247 . S
O72 Co70 2.091 . S
O72 C78 1.261 . S
C73 O82 1.247 . S
C73 O83 1.272 . S
O74 Co70 2.004 . S
O74 C79 1.259 . S
Co75 O76 2.061 . S
Co75 O81 2.052 . S
Co75 O83 2.135 . S
O76 Co75 2.061 . S
O76 C79 1.235 . S
C77 O80 1.238 . S
C77 O81 1.241 . S
C78 O71 1.247 . S
C78 O72 1.261 . S
C79 O74 1.259 . S
C79 O76 1.235 . S
O80 Co70 2.021 . S
O80 C77 1.238 . S
O81 Co75 2.052 . S
O81 C77 1.241 . S
O82 Co70 2.137 . S
O82 C73 1.247 . S
O83 Co70 2.244 . S
O83 C73 1.272 . S
O83 Co75 2.135 . S
Co84 O85 2.216 . S
Co84 O86 2.091 . S
Co84 O88 2.004 . S
Co84 O94 2.021 . S
Co84 O96 2.137 . S
Co84 O97 2.244 . S
O85 Co84 2.216 . S
O85 C92 1.247 . S
O86 Co84 2.091 . S
O86 C92 1.261 . S
C87 O96 1.247 . S
C87 O97 1.272 . S
O88 Co84 2.004 . S
O88 C93 1.259 . S
Co89 O90 2.061 . S
Co89 O95 2.052 . S
Co89 O97 2.135 . S
O90 Co89 2.061 . S
O90 C93 1.235 . S
C91 O94 1.238 . S
C91 O95 1.241 . S
C92 O85 1.247 . S
C92 O86 1.261 . S
C93 O88 1.259 . S
C93 O90 1.235 . S
O94 Co84 2.021 . S
O94 C91 1.238 . S
O95 Co89 2.052 . S
O95 C91 1.241 . S
O96 Co84 2.137 . S
O96 C87 1.247 . S
O97 Co84 2.244 . S
O97 C87 1.272 . S
O97 Co89 2.135 . S
Co98 O99 2.216 . S
Co98 O100 2.091 . S
Co98 O102 2.004 . S
Co98 O108 2.021 . S
Co98 O110 2.137 . S
Co98 O111 2.244 . S
O99 Co98 2.216 . S
O99 C106 1.247 . S
O100 Co98 2.091 . S
O100 C106 1.261 . S
C101 O110 1.247 . S
C101 O111 1.272 . S
O102 Co98 2.004 . S
O102 C107 1.259 . S
Co103 O104 2.061 . S
Co103 O109 2.052 . S
Co103 O111 2.135 . S
O104 Co103 2.061 . S
O104 C107 1.235 . S
C105 O108 1.238 . S
C105 O109 1.241 . S
C106 O99 1.247 . S
C106 O100 1.261 . S
C107 O102 1.259 . S
C107 O104 1.235 . S
O108 Co98 2.021 . S
O108 C105 1.238 . S
O109 Co103 2.052 . S
O109 C105 1.241 . S
O110 Co98 2.137 . S
O110 C101 1.247 . S
O111 Co98 2.244 . S
O111 C101 1.272 . S
O111 Co103 2.135 . S
Co112 O113 2.216 . S
Co112 O114 2.091 . S
Co112 O116 2.004 . S
Co112 O122 2.021 . S
Co112 O124 2.137 . S
Co112 O125 2.244 . S
O113 Co112 2.216 . S
O113 C120 1.247 . S
O114 Co112 2.091 . S
O114 C120 1.261 . S
C115 O124 1.247 . S
C115 O125 1.272 . S
O116 Co112 2.004 . S
O116 C121 1.259 . S
Co117 O118 2.061 . S
Co117 O123 2.052 . S
Co117 O125 2.135 . S
O118 Co117 2.061 . S
O118 C121 1.235 . S
C119 O122 1.238 . S
C119 O123 1.241 . S
C120 O113 1.247 . S
C120 O114 1.261 . S
C121 O116 1.259 . S
C121 O118 1.235 . S
O122 Co112 2.021 . S
O122 C119 1.238 . S
O123 Co117 2.052 . S
O123 C119 1.241 . S
O124 Co112 2.137 . S
O124 C115 1.247 . S
O125 Co112 2.244 . S
O125 C115 1.272 . S
O125 Co117 2.135 . S
Co126 O127 2.216 . S
Co126 O128 2.091 . S
Co126 O130 2.004 . S
Co126 O136 2.021 . S
Co126 O138 2.137 . S
Co126 O139 2.244 . S
O127 Co126 2.216 . S
O127 C134 1.247 . S
O128 Co126 2.091 . S
O128 C134 1.261 . S
C129 O138 1.247 . S
C129 O139 1.272 . S
O130 Co126 2.004 . S
O130 C135 1.259 . S
Co131 O132 2.061 . S
Co131 O137 2.052 . S
Co131 O139 2.135 . S
O132 Co131 2.061 . S
O132 C135 1.235 . S
C133 O136 1.238 . S
C133 O137 1.241 . S
C134 O127 1.247 . S
C134 O128 1.261 . S
C135 O130 1.259 . S
C135 O132 1.235 . S
O136 Co126 2.021 . S
O136 C133 1.238 . S
O137 Co131 2.052 . S
O137 C133 1.241 . S
O138 Co126 2.137 . S
O138 C129 1.247 . S
O139 Co126 2.244 . S
O139 C129 1.272 . S
O139 Co131 2.135 . S
Co140 O141 2.216 . S
Co140 O142 2.091 . S
Co140 O144 2.004 . S
Co140 O150 2.021 . S
Co140 O152 2.137 . S
Co140 O153 2.244 . S
O141 Co140 2.216 . S
O141 C148 1.247 . S
O142 Co140 2.091 . S
O142 C148 1.261 . S
C143 O152 1.247 . S
C143 O153 1.272 . S
O144 Co140 2.004 . S
O144 C149 1.259 . S
Co145 O146 2.061 . S
Co145 O151 2.052 . S
Co145 O153 2.135 . S
O146 Co145 2.061 . S
O146 C149 1.235 . S
C147 O150 1.238 . S
C147 O151 1.241 . S
C148 O141 1.247 . S
C148 O142 1.261 . S
C149 O144 1.259 . S
C149 O146 1.235 . S
O150 Co140 2.021 . S
O150 C147 1.238 . S
O151 Co145 2.052 . S
O151 C147 1.241 . S
O152 Co140 2.137 . S
O152 C143 1.247 . S
O153 Co140 2.244 . S
O153 C143 1.272 . S
O153 Co145 2.135 . S
Co154 O155 2.216 . S
Co154 O156 2.091 . S
Co154 O158 2.004 . S
Co154 O164 2.021 . S
Co154 O166 2.137 . S
Co154 O167 2.244 . S
O155 Co154 2.216 . S
O155 C162 1.247 . S
O156 Co154 2.091 . S
O156 C162 1.261 . S
C157 O166 1.247 . S
C157 O167 1.272 . S
O158 Co154 2.004 . S
O158 C163 1.259 . S
Co159 O160 2.061 . S
Co159 O165 2.052 . S
Co159 O167 2.135 . S
O160 Co159 2.061 . S
O160 C163 1.235 . S
C161 O164 1.238 . S
C161 O165 1.241 . S
C162 O155 1.247 . S
C162 O156 1.261 . S
C163 O158 1.259 . S
C163 O160 1.235 . S
O164 Co154 2.021 . S
O164 C161 1.238 . S
O165 Co159 2.052 . S
O165 C161 1.241 . S
O166 Co154 2.137 . S
O166 C157 1.247 . S
O167 Co154 2.244 . S
O167 C157 1.272 . S
O167 Co159 2.135 . S
Co168 O169 2.216 . S
Co168 O170 2.091 . S
Co168 O172 2.004 . S
Co168 O178 2.021 . S
Co168 O180 2.137 . S
Co168 O181 2.244 . S
O169 Co168 2.216 . S
O169 C176 1.247 . S
O170 Co168 2.091 . S
O170 C176 1.261 . S
C171 O180 1.247 . S
C171 O181 1.272 . S
O172 Co168 2.004 . S
O172 C177 1.259 . S
Co173 O174 2.061 . S
Co173 O179 2.052 . S
Co173 O181 2.135 . S
O174 Co173 2.061 . S
O174 C177 1.235 . S
C175 O178 1.238 . S
C175 O179 1.241 . S
C176 O169 1.247 . S
C176 O170 1.261 . S
C177 O172 1.259 . S
C177 O174 1.235 . S
O178 Co168 2.021 . S
O178 C175 1.238 . S
O179 Co173 2.052 . S
O179 C175 1.241 . S
O180 Co168 2.137 . S
O180 C171 1.247 . S
O181 Co168 2.244 . S
O181 C171 1.272 . S
O181 Co173 2.135 . S
Co182 O183 2.216 . S
Co182 O184 2.091 . S
Co182 O186 2.004 . S
Co182 O192 2.021 . S
Co182 O194 2.137 . S
Co182 O195 2.244 . S
O183 Co182 2.216 . S
O183 C190 1.247 . S
O184 Co182 2.091 . S
O184 C190 1.261 . S
C185 O194 1.247 . S
C185 O195 1.272 . S
O186 Co182 2.004 . S
O186 C191 1.259 . S
Co187 O188 2.061 . S
Co187 O193 2.052 . S
Co187 O195 2.135 . S
O188 Co187 2.061 . S
O188 C191 1.235 . S
C189 O192 1.238 . S
C189 O193 1.241 . S
C190 O183 1.247 . S
C190 O184 1.261 . S
C191 O186 1.259 . S
C191 O188 1.235 . S
O192 Co182 2.021 . S
O192 C189 1.238 . S
O193 Co187 2.052 . S
O193 C189 1.241 . S
O194 Co182 2.137 . S
O194 C185 1.247 . S
O195 Co182 2.244 . S
O195 C185 1.272 . S
O195 Co187 2.135 . S
Co196 O197 2.216 . S
Co196 O198 2.091 . S
Co196 O200 2.004 . S
Co196 O206 2.021 . S
Co196 O208 2.137 . S
Co196 O209 2.244 . S
O197 Co196 2.216 . S
O197 C204 1.247 . S
O198 Co196 2.091 . S
O198 C204 1.261 . S
C199 O208 1.247 . S
C199 O209 1.272 . S
O200 Co196 2.004 . S
O200 C205 1.259 . S
Co201 O202 2.061 . S
Co201 O207 2.052 . S
Co201 O209 2.135 . S
O202 Co201 2.061 . S
O202 C205 1.235 . S
C203 O206 1.238 . S
C203 O207 1.241 . S
C204 O197 1.247 . S
C204 O198 1.261 . S
C205 O200 1.259 . S
C205 O202 1.235 . S
O206 Co196 2.021 . S
O206 C203 1.238 . S
O207 Co201 2.052 . S
O207 C203 1.241 . S
O208 Co196 2.137 . S
O208 C199 1.247 . S
O209 Co196 2.244 . S
O209 C199 1.272 . S
O209 Co201 2.135 . S
Co210 O211 2.216 . S
Co210 O212 2.091 . S
Co210 O214 2.004 . S
Co210 O220 2.021 . S
Co210 O222 2.137 . S
Co210 O223 2.244 . S
O211 Co210 2.216 . S
O211 C218 1.247 . S
O212 Co210 2.091 . S
O212 C218 1.261 . S
C213 O222 1.247 . S
C213 O223 1.272 . S
O214 Co210 2.004 . S
O214 C219 1.259 . S
Co215 O216 2.061 . S
Co215 O221 2.052 . S
Co215 O223 2.135 . S
O216 Co215 2.061 . S
O216 C219 1.235 . S
C217 O220 1.238 . S
C217 O221 1.241 . S
C218 O211 1.247 . S
C218 O212 1.261 . S
C219 O214 1.259 . S
C219 O216 1.235 . S
O220 Co210 2.021 . S
O220 C217 1.238 . S
O221 Co215 2.052 . S
O221 C217 1.241 . S
O222 Co210 2.137 . S
O222 C213 1.247 . S
O223 Co210 2.244 . S
O223 C213 1.272 . S
O223 Co215 2.135 . S
C224 C225 1.391 . S
C224 C226 1.394 . S
C224 H240 0.931 . S
C225 C224 1.391 . S
C225 C229 1.376 . S
C226 C224 1.394 . S
C226 C227 1.369 . S
C226 C230 1.531 . S
C227 C226 1.369 . S
C227 C228 1.410 . S
C227 C235 1.503 . S
C228 C227 1.410 . S
C228 C229 1.392 . S
C228 C231 1.511 . S
C229 C225 1.376 . S
C229 C228 1.392 . S
C229 H241 0.929 . S
C230 C226 1.531 . S
C230 H242 0.960 . S
C230 H243 0.962 . S
C230 H244 0.960 . S
C231 C228 1.511 . S
C231 H245 0.961 . S
C231 H246 0.961 . S
C231 H247 0.961 . S
C232 C233 1.370 . S
C232 C234 1.363 . S
C232 H248 0.931 . S
C233 C232 1.370 . S
C233 C237 1.408 . S
C234 C232 1.363 . S
C234 C235 1.370 . S
C234 C238 1.524 . S
C235 C227 1.503 . S
C235 C234 1.370 . S
C235 C236 1.403 . S
C236 C235 1.403 . S
C236 C237 1.404 . S
C236 C239 1.539 . S
C237 C233 1.408 . S
C237 C236 1.404 . S
C237 H249 0.930 . S
C238 C234 1.524 . S
C238 H250 0.956 . S
C238 H251 0.961 . S
C238 H252 0.961 . S
C239 C236 1.539 . S
C239 H253 0.958 . S
C239 H254 0.961 . S
C239 H255 0.960 . S
H240 C224 0.931 . S
H241 C229 0.929 . S
H242 C230 0.960 . S
H243 C230 0.962 . S
H244 C230 0.960 . S
H245 C231 0.961 . S
H246 C231 0.961 . S
H247 C231 0.961 . S
H248 C232 0.931 . S
H249 C237 0.930 . S
H250 C238 0.956 . S
H251 C238 0.961 . S
H252 C238 0.961 . S
H253 C239 0.958 . S
H254 C239 0.961 . S
H255 C239 0.960 . S
C256 C257 1.391 . S
C256 C258 1.394 . S
C256 H272 0.931 . S
C257 C256 1.391 . S
C257 C261 1.376 . S
C258 C256 1.394 . S
C258 C259 1.369 . S
C258 C262 1.531 . S
C259 C258 1.369 . S
C259 C260 1.410 . S
C259 C267 1.503 . S
C260 C259 1.410 . S
C260 C261 1.392 . S
C260 C263 1.511 . S
C261 C257 1.376 . S
C261 C260 1.392 . S
C261 H273 0.929 . S
C262 C258 1.531 . S
C262 H274 0.960 . S
C262 H275 0.962 . S
C262 H276 0.960 . S
C263 C260 1.511 . S
C263 H277 0.961 . S
C263 H278 0.961 . S
C263 H279 0.961 . S
C264 C265 1.370 . S
C264 C266 1.363 . S
C264 H280 0.931 . S
C265 C264 1.370 . S
C265 C269 1.408 . S
C266 C264 1.363 . S
C266 C267 1.370 . S
C266 C270 1.524 . S
C267 C259 1.503 . S
C267 C266 1.370 . S
C267 C268 1.403 . S
C268 C267 1.403 . S
C268 C269 1.404 . S
C268 C271 1.539 . S
C269 C265 1.408 . S
C269 C268 1.404 . S
C269 H281 0.930 . S
C270 C266 1.524 . S
C270 H282 0.956 . S
C270 H283 0.961 . S
C270 H284 0.961 . S
C271 C268 1.539 . S
C271 H285 0.958 . S
C271 H286 0.961 . S
C271 H287 0.960 . S
H272 C256 0.931 . S
H273 C261 0.929 . S
H274 C262 0.960 . S
H275 C262 0.962 . S
H276 C262 0.960 . S
H277 C263 0.961 . S
H278 C263 0.961 . S
H279 C263 0.961 . S
H280 C264 0.931 . S
H281 C269 0.930 . S
H282 C270 0.956 . S
H283 C270 0.961 . S
H284 C270 0.961 . S
H285 C271 0.958 . S
H286 C271 0.961 . S
H287 C271 0.960 . S
C288 C289 1.391 . S
C288 C290 1.394 . S
C288 H304 0.931 . S
C289 C288 1.391 . S
C289 C293 1.376 . S
C290 C288 1.394 . S
C290 C291 1.369 . S
C290 C294 1.531 . S
C291 C290 1.369 . S
C291 C292 1.410 . S
C291 C299 1.503 . S
C292 C291 1.410 . S
C292 C293 1.392 . S
C292 C295 1.511 . S
C293 C289 1.376 . S
C293 C292 1.392 . S
C293 H305 0.929 . S
C294 C290 1.531 . S
C294 H306 0.960 . S
C294 H307 0.962 . S
C294 H308 0.960 . S
C295 C292 1.511 . S
C295 H309 0.961 . S
C295 H310 0.961 . S
C295 H311 0.961 . S
C296 C297 1.370 . S
C296 C298 1.363 . S
C296 H312 0.931 . S
C297 C296 1.370 . S
C297 C301 1.408 . S
C298 C296 1.363 . S
C298 C299 1.370 . S
C298 C302 1.524 . S
C299 C291 1.503 . S
C299 C298 1.370 . S
C299 C300 1.403 . S
C300 C299 1.403 . S
C300 C301 1.404 . S
C300 C303 1.539 . S
C301 C297 1.408 . S
C301 C300 1.404 . S
C301 H313 0.930 . S
C302 C298 1.524 . S
C302 H314 0.956 . S
C302 H315 0.961 . S
C302 H316 0.961 . S
C303 C300 1.539 . S
C303 H317 0.958 . S
C303 H318 0.961 . S
C303 H319 0.960 . S
H304 C288 0.931 . S
H305 C293 0.929 . S
H306 C294 0.960 . S
H307 C294 0.962 . S
H308 C294 0.960 . S
H309 C295 0.961 . S
H310 C295 0.961 . S
H311 C295 0.961 . S
H312 C296 0.931 . S
H313 C301 0.930 . S
H314 C302 0.956 . S
H315 C302 0.961 . S
H316 C302 0.961 . S
H317 C303 0.958 . S
H318 C303 0.961 . S
H319 C303 0.960 . S
C320 C321 1.391 . S
C320 C322 1.394 . S
C320 H336 0.931 . S
C321 C320 1.391 . S
C321 C325 1.376 . S
C322 C320 1.394 . S
C322 C323 1.369 . S
C322 C326 1.531 . S
C323 C322 1.369 . S
C323 C324 1.410 . S
C323 C331 1.503 . S
C324 C323 1.410 . S
C324 C325 1.392 . S
C324 C327 1.511 . S
C325 C321 1.376 . S
C325 C324 1.392 . S
C325 H337 0.929 . S
C326 C322 1.531 . S
C326 H338 0.960 . S
C326 H339 0.962 . S
C326 H340 0.960 . S
C327 C324 1.511 . S
C327 H341 0.961 . S
C327 H342 0.961 . S
C327 H343 0.961 . S
C328 C329 1.370 . S
C328 C330 1.363 . S
C328 H344 0.931 . S
C329 C328 1.370 . S
C329 C333 1.408 . S
C330 C328 1.363 . S
C330 C331 1.370 . S
C330 C334 1.524 . S
C331 C323 1.503 . S
C331 C330 1.370 . S
C331 C332 1.403 . S
C332 C331 1.403 . S
C332 C333 1.404 . S
C332 C335 1.539 . S
C333 C329 1.408 . S
C333 C332 1.404 . S
C333 H345 0.930 . S
C334 C330 1.524 . S
C334 H346 0.956 . S
C334 H347 0.961 . S
C334 H348 0.961 . S
C335 C332 1.539 . S
C335 H349 0.958 . S
C335 H350 0.961 . S
C335 H351 0.960 . S
H336 C320 0.931 . S
H337 C325 0.929 . S
H338 C326 0.960 . S
H339 C326 0.962 . S
H340 C326 0.960 . S
H341 C327 0.961 . S
H342 C327 0.961 . S
H343 C327 0.961 . S
H344 C328 0.931 . S
H345 C333 0.930 . S
H346 C334 0.956 . S
H347 C334 0.961 . S
H348 C334 0.961 . S
H349 C335 0.958 . S
H350 C335 0.961 . S
H351 C335 0.960 . S
C352 C353 1.391 . S
C352 C354 1.394 . S
C352 H368 0.931 . S
C353 C352 1.391 . S
C353 C357 1.376 . S
C354 C352 1.394 . S
C354 C355 1.369 . S
C354 C358 1.531 . S
C355 C354 1.369 . S
C355 C356 1.410 . S
C355 C363 1.503 . S
C356 C355 1.410 . S
C356 C357 1.392 . S
C356 C359 1.511 . S
C357 C353 1.376 . S
C357 C356 1.392 . S
C357 H369 0.929 . S
C358 C354 1.531 . S
C358 H370 0.960 . S
C358 H371 0.962 . S
C358 H372 0.960 . S
C359 C356 1.511 . S
C359 H373 0.961 . S
C359 H374 0.961 . S
C359 H375 0.961 . S
C360 C361 1.370 . S
C360 C362 1.363 . S
C360 H376 0.931 . S
C361 C360 1.370 . S
C361 C365 1.408 . S
C362 C360 1.363 . S
C362 C363 1.370 . S
C362 C366 1.524 . S
C363 C355 1.503 . S
C363 C362 1.370 . S
C363 C364 1.403 . S
C364 C363 1.403 . S
C364 C365 1.404 . S
C364 C367 1.539 . S
C365 C361 1.408 . S
C365 C364 1.404 . S
C365 H377 0.930 . S
C366 C362 1.524 . S
C366 H378 0.956 . S
C366 H379 0.961 . S
C366 H380 0.961 . S
C367 C364 1.539 . S
C367 H381 0.958 . S
C367 H382 0.961 . S
C367 H383 0.960 . S
H368 C352 0.931 . S
H369 C357 0.929 . S
H370 C358 0.960 . S
H371 C358 0.962 . S
H372 C358 0.960 . S
H373 C359 0.961 . S
H374 C359 0.961 . S
H375 C359 0.961 . S
H376 C360 0.931 . S
H377 C365 0.930 . S
H378 C366 0.956 . S
H379 C366 0.961 . S
H380 C366 0.961 . S
H381 C367 0.958 . S
H382 C367 0.961 . S
H383 C367 0.960 . S
C384 C385 1.391 . S
C384 C386 1.394 . S
C384 H400 0.931 . S
C385 C384 1.391 . S
C385 C389 1.376 . S
C386 C384 1.394 . S
C386 C387 1.369 . S
C386 C390 1.531 . S
C387 C386 1.369 . S
C387 C388 1.410 . S
C387 C395 1.503 . S
C388 C387 1.410 . S
C388 C389 1.392 . S
C388 C391 1.511 . S
C389 C385 1.376 . S
C389 C388 1.392 . S
C389 H401 0.929 . S
C390 C386 1.531 . S
C390 H402 0.960 . S
C390 H403 0.962 . S
C390 H404 0.960 . S
C391 C388 1.511 . S
C391 H405 0.961 . S
C391 H406 0.961 . S
C391 H407 0.961 . S
C392 C393 1.370 . S
C392 C394 1.363 . S
C392 H408 0.931 . S
C393 C392 1.370 . S
C393 C397 1.408 . S
C394 C392 1.363 . S
C394 C395 1.370 . S
C394 C398 1.524 . S
C395 C387 1.503 . S
C395 C394 1.370 . S
C395 C396 1.403 . S
C396 C395 1.403 . S
C396 C397 1.404 . S
C396 C399 1.539 . S
C397 C393 1.408 . S
C397 C396 1.404 . S
C397 H409 0.930 . S
C398 C394 1.524 . S
C398 H410 0.956 . S
C398 H411 0.961 . S
C398 H412 0.961 . S
C399 C396 1.539 . S
C399 H413 0.958 . S
C399 H414 0.961 . S
C399 H415 0.960 . S
H400 C384 0.931 . S
H401 C389 0.929 . S
H402 C390 0.960 . S
H403 C390 0.962 . S
H404 C390 0.960 . S
H405 C391 0.961 . S
H406 C391 0.961 . S
H407 C391 0.961 . S
H408 C392 0.931 . S
H409 C397 0.930 . S
H410 C398 0.956 . S
H411 C398 0.961 . S
H412 C398 0.961 . S
H413 C399 0.958 . S
H414 C399 0.961 . S
H415 C399 0.960 . S
C416 C417 1.391 . S
C416 C418 1.394 . S
C416 H432 0.931 . S
C417 C416 1.391 . S
C417 C421 1.376 . S
C418 C416 1.394 . S
C418 C419 1.369 . S
C418 C422 1.531 . S
C419 C418 1.369 . S
C419 C420 1.410 . S
C419 C427 1.503 . S
C420 C419 1.410 . S
C420 C421 1.392 . S
C420 C423 1.511 . S
C421 C417 1.376 . S
C421 C420 1.392 . S
C421 H433 0.929 . S
C422 C418 1.531 . S
C422 H434 0.960 . S
C422 H435 0.962 . S
C422 H436 0.960 . S
C423 C420 1.511 . S
C423 H437 0.961 . S
C423 H438 0.961 . S
C423 H439 0.961 . S
C424 C425 1.370 . S
C424 C426 1.363 . S
C424 H440 0.931 . S
C425 C424 1.370 . S
C425 C429 1.408 . S
C426 C424 1.363 . S
C426 C427 1.370 . S
C426 C430 1.524 . S
C427 C419 1.503 . S
C427 C426 1.370 . S
C427 C428 1.403 . S
C428 C427 1.403 . S
C428 C429 1.404 . S
C428 C431 1.539 . S
C429 C425 1.408 . S
C429 C428 1.404 . S
C429 H441 0.930 . S
C430 C426 1.524 . S
C430 H442 0.956 . S
C430 H443 0.961 . S
C430 H444 0.961 . S
C431 C428 1.539 . S
C431 H445 0.958 . S
C431 H446 0.961 . S
C431 H447 0.960 . S
H432 C416 0.931 . S
H433 C421 0.929 . S
H434 C422 0.960 . S
H435 C422 0.962 . S
H436 C422 0.960 . S
H437 C423 0.961 . S
H438 C423 0.961 . S
H439 C423 0.961 . S
H440 C424 0.931 . S
H441 C429 0.930 . S
H442 C430 0.956 . S
H443 C430 0.961 . S
H444 C430 0.961 . S
H445 C431 0.958 . S
H446 C431 0.961 . S
H447 C431 0.960 . S
C448 C449 1.391 . S
C448 C450 1.394 . S
C448 H464 0.931 . S
C449 C448 1.391 . S
C449 C453 1.376 . S
C450 C448 1.394 . S
C450 C451 1.369 . S
C450 C454 1.531 . S
C451 C450 1.369 . S
C451 C452 1.410 . S
C451 C459 1.503 . S
C452 C451 1.410 . S
C452 C453 1.392 . S
C452 C455 1.511 . S
C453 C449 1.376 . S
C453 C452 1.392 . S
C453 H465 0.929 . S
C454 C450 1.531 . S
C454 H466 0.960 . S
C454 H467 0.962 . S
C454 H468 0.960 . S
C455 C452 1.511 . S
C455 H469 0.961 . S
C455 H470 0.961 . S
C455 H471 0.961 . S
C456 C457 1.370 . S
C456 C458 1.363 . S
C456 H472 0.931 . S
C457 C456 1.370 . S
C457 C461 1.408 . S
C458 C456 1.363 . S
C458 C459 1.370 . S
C458 C462 1.524 . S
C459 C451 1.503 . S
C459 C458 1.370 . S
C459 C460 1.403 . S
C460 C459 1.403 . S
C460 C461 1.404 . S
C460 C463 1.539 . S
C461 C457 1.408 . S
C461 C460 1.404 . S
C461 H473 0.930 . S
C462 C458 1.524 . S
C462 H474 0.956 . S
C462 H475 0.961 . S
C462 H476 0.961 . S
C463 C460 1.539 . S
C463 H477 0.958 . S
C463 H478 0.961 . S
C463 H479 0.960 . S
H464 C448 0.931 . S
H465 C453 0.929 . S
H466 C454 0.960 . S
H467 C454 0.962 . S
H468 C454 0.960 . S
H469 C455 0.961 . S
H470 C455 0.961 . S
H471 C455 0.961 . S
H472 C456 0.931 . S
H473 C461 0.930 . S
H474 C462 0.956 . S
H475 C462 0.961 . S
H476 C462 0.961 . S
H477 C463 0.958 . S
H478 C463 0.961 . S
H479 C463 0.960 . S
C480 C481 1.391 . S
C480 C482 1.394 . S
C480 H496 0.931 . S
C481 C480 1.391 . S
C481 C485 1.376 . S
C482 C480 1.394 . S
C482 C483 1.369 . S
C482 C486 1.531 . S
C483 C482 1.369 . S
C483 C484 1.410 . S
C483 C491 1.503 1_556 S
C484 C483 1.410 . S
C484 C485 1.392 . S
C484 C487 1.511 . S
C485 C481 1.376 . S
C485 C484 1.392 . S
C485 H497 0.929 . S
C486 C482 1.531 . S
C486 H498 0.960 1_556 S
C486 H499 0.962 . S
C486 H500 0.960 . S
C487 C484 1.511 . S
C487 H501 0.961 . S
C487 H502 0.961 . S
C487 H503 0.961 . S
C488 C489 1.370 . S
C488 C490 1.363 . S
C488 H504 0.931 . S
C489 C488 1.370 . S
C489 C493 1.408 . S
C490 C488 1.363 . S
C490 C491 1.370 . S
C490 C494 1.524 . S
C491 C483 1.503 1_554 S
C491 C490 1.370 . S
C491 C492 1.403 . S
C492 C491 1.403 . S
C492 C493 1.404 . S
C492 C495 1.539 . S
C493 C489 1.408 . S
C493 C492 1.404 . S
C493 H505 0.930 . S
C494 C490 1.524 . S
C494 H506 0.956 . S
C494 H507 0.961 1_554 S
C494 H508 0.961 . S
C495 C492 1.539 . S
C495 H509 0.958 . S
C495 H510 0.961 . S
C495 H511 0.978 . S
H496 C480 0.931 . S
H497 C485 0.929 . S
H498 C486 0.960 1_554 S
H499 C486 0.962 . S
H500 C486 0.960 . S
H501 C487 0.961 . S
H502 C487 0.961 . S
H503 C487 0.961 . S
H504 C488 0.931 . S
H505 C493 0.930 . S
H506 C494 0.956 . S
H507 C494 0.961 1_556 S
H508 C494 0.961 . S
H509 C495 0.958 . S
H510 C495 0.961 . S
H511 C495 0.978 . S
C512 C513 1.391 . S
C512 C514 1.394 . S
C512 H528 0.931 . S
C513 C512 1.391 . S
C513 C517 1.376 . S
C514 C512 1.394 . S
C514 C515 1.369 . S
C514 C518 1.531 . S
C515 C514 1.369 . S
C515 C516 1.410 . S
C515 C523 1.503 1_556 S
C516 C515 1.410 . S
C516 C517 1.392 . S
C516 C519 1.511 . S
C517 C513 1.376 . S
C517 C516 1.392 . S
C517 H529 0.929 . S
C518 C514 1.531 . S
C518 H530 0.960 1_556 S
C518 H531 0.962 . S
C518 H532 0.960 . S
C519 C516 1.511 . S
C519 H533 0.961 . S
C519 H534 0.961 1_556 S
C519 H535 0.961 . S
C520 C521 1.370 . S
C520 C522 1.363 . S
C520 H536 0.931 . S
C521 C520 1.370 . S
C521 C525 1.408 . S
C522 C520 1.363 . S
C522 C523 1.370 . S
C522 C526 1.524 . S
C523 C515 1.503 1_554 S
C523 C522 1.370 . S
C523 C524 1.403 . S
C524 C523 1.403 . S
C524 C525 1.404 . S
C524 C527 1.539 . S
C525 C521 1.408 . S
C525 C524 1.404 . S
C525 H537 0.930 . S
C526 C522 1.524 . S
C526 H538 0.956 . S
C526 H539 0.961 . S
C526 H540 0.961 . S
C527 C524 1.539 . S
C527 H541 0.958 . S
C527 H542 0.961 . S
C527 H543 0.960 1_554 S
H528 C512 0.931 . S
H529 C517 0.929 . S
H530 C518 0.960 1_554 S
H531 C518 0.962 . S
H532 C518 0.960 . S
H533 C519 0.961 . S
H534 C519 0.961 1_554 S
H535 C519 0.961 . S
H536 C520 0.931 . S
H537 C525 0.930 . S
H538 C526 0.956 . S
H539 C526 0.961 . S
H540 C526 0.961 . S
H541 C527 0.958 . S
H542 C527 0.961 . S
H543 C527 0.960 1_556 S
C544 C545 1.391 . S
C544 C546 1.394 . S
C544 H560 0.931 . S
C545 C544 1.391 . S
C545 C549 1.376 . S
C546 C544 1.394 . S
C546 C547 1.369 . S
C546 C550 1.531 . S
C547 C546 1.369 . S
C547 C548 1.410 . S
C547 C555 1.503 1_556 S
C548 C547 1.410 . S
C548 C549 1.392 . S
C548 C551 1.511 . S
C549 C545 1.376 . S
C549 C548 1.392 . S
C549 H561 0.929 . S
C550 C546 1.531 . S
C550 H562 0.960 1_556 S
C550 H563 0.962 . S
C550 H564 0.960 . S
C551 C548 1.511 . S
C551 H565 0.961 . S
C551 H566 0.961 . S
C551 H567 0.961 . S
C552 C553 1.370 . S
C552 C554 1.363 . S
C552 H568 0.931 . S
C553 C552 1.370 . S
C553 C557 1.408 . S
C554 C552 1.363 . S
C554 C555 1.370 . S
C554 C558 1.524 . S
C555 C547 1.503 1_554 S
C555 C554 1.370 . S
C555 C556 1.403 . S
C556 C555 1.403 . S
C556 C557 1.404 . S
C556 C559 1.539 . S
C557 C553 1.408 . S
C557 C556 1.404 . S
C557 H569 0.930 . S
C558 C554 1.524 . S
C558 H570 0.956 . S
C558 H571 0.961 1_554 S
C558 H572 0.961 . S
C559 C556 1.539 . S
C559 H573 0.958 . S
C559 H574 0.961 . S
C559 H575 0.960 1_554 S
H560 C544 0.931 . S
H561 C549 0.929 . S
H562 C550 0.960 1_554 S
H563 C550 0.962 . S
H564 C550 0.960 . S
H565 C551 0.961 . S
H566 C551 0.961 . S
H567 C551 0.961 . S
H568 C552 0.931 . S
H569 C557 0.930 . S
H570 C558 0.956 . S
H571 C558 0.961 1_556 S
H572 C558 0.961 . S
H573 C559 0.958 . S
H574 C559 0.961 . S
H575 C559 0.960 1_556 S
C576 C577 1.391 . S
C576 C578 1.394 . S
C576 H592 0.931 . S
C577 C576 1.391 . S
C577 C581 1.376 . S
C578 C576 1.394 . S
C578 C579 1.369 . S
C578 C582 1.531 . S
C579 C578 1.369 . S
C579 C580 1.410 . S
C579 C587 1.503 1_554 S
C580 C579 1.410 . S
C580 C581 1.392 . S
C580 C583 1.511 . S
C581 C577 1.376 . S
C581 C580 1.392 . S
C581 H593 0.929 . S
C582 C578 1.531 . S
C582 H594 0.960 1_554 S
C582 H595 0.962 . S
C582 H596 0.960 . S
C583 C580 1.511 . S
C583 H597 0.961 . S
C583 H598 0.982 . S
C583 H599 0.961 . S
C584 C585 1.370 . S
C584 C586 1.363 . S
C584 H600 0.931 . S
C585 C584 1.370 . S
C585 C589 1.408 . S
C586 C584 1.363 . S
C586 C587 1.370 . S
C586 C590 1.524 . S
C587 C579 1.503 1_556 S
C587 C586 1.370 . S
C587 C588 1.403 . S
C588 C587 1.403 . S
C588 C589 1.404 . S
C588 C591 1.539 . S
C589 C585 1.408 . S
C589 C588 1.404 . S
C589 H601 0.930 . S
C590 C586 1.524 . S
C590 H602 0.956 . S
C590 H603 0.960 1_556 S
C590 H604 0.961 . S
C591 C588 1.539 . S
C591 H605 0.958 . S
C591 H606 0.961 . S
C591 H607 0.960 1_556 S
H592 C576 0.931 . S
H593 C581 0.929 . S
H594 C582 0.960 1_556 S
H595 C582 0.962 . S
H596 C582 0.960 . S
H597 C583 0.961 . S
H598 C583 0.982 . S
H599 C583 0.961 . S
H600 C584 0.931 . S
H601 C589 0.930 . S
H602 C590 0.956 . S
H603 C590 0.960 1_554 S
H604 C590 0.961 . S
H605 C591 0.958 . S
H606 C591 0.961 . S
H607 C591 0.960 1_554 S
C608 C609 1.391 . S
C608 C610 1.394 . S
C608 H624 0.931 . S
C609 C608 1.391 . S
C609 C613 1.376 . S
C610 C608 1.394 . S
C610 C611 1.369 . S
C610 C614 1.531 . S
C611 C610 1.369 . S
C611 C612 1.410 . S
C611 C619 1.503 . S
C612 C611 1.410 . S
C612 C613 1.392 . S
C612 C615 1.511 . S
C613 C609 1.376 . S
C613 C612 1.392 . S
C613 H625 0.929 . S
C614 C610 1.531 . S
C614 H626 0.960 . S
C614 H627 0.962 . S
C614 H628 0.960 . S
C615 C612 1.511 . S
C615 H629 0.961 . S
C615 H630 0.961 . S
C615 H631 0.961 . S
C616 C617 1.370 . S
C616 C618 1.363 . S
C616 H632 0.931 . S
C617 C616 1.370 . S
C617 C621 1.408 . S
C618 C616 1.363 . S
C618 C619 1.370 . S
C618 C622 1.524 . S
C619 C611 1.503 . S
C619 C618 1.370 . S
C619 C620 1.403 . S
C620 C619 1.403 . S
C620 C621 1.404 . S
C620 C623 1.539 . S
C621 C617 1.408 . S
C621 C620 1.404 . S
C621 H633 0.930 . S
C622 C618 1.524 . S
C622 H634 0.956 . S
C622 H635 0.961 . S
C622 H636 0.961 . S
C623 C620 1.539 . S
C623 H637 0.958 . S
C623 H638 0.961 . S
C623 H639 0.960 . S
H624 C608 0.931 . S
H625 C613 0.929 . S
H626 C614 0.960 . S
H627 C614 0.962 . S
H628 C614 0.960 . S
H629 C615 0.961 . S
H630 C615 0.961 . S
H631 C615 0.961 . S
H632 C616 0.931 . S
H633 C621 0.930 . S
H634 C622 0.956 . S
H635 C622 0.961 . S
H636 C622 0.961 . S
H637 C623 0.958 . S
H638 C623 0.961 . S
H639 C623 0.960 . S
C640 C641 1.391 . S
C640 C642 1.394 . S
C640 H656 0.931 . S
C641 C640 1.391 . S
C641 C645 1.376 . S
C642 C640 1.394 . S
C642 C643 1.369 . S
C642 C646 1.531 . S
C643 C642 1.369 . S
C643 C644 1.410 . S
C643 C651 1.503 . S
C644 C643 1.410 . S
C644 C645 1.392 . S
C644 C647 1.511 . S
C645 C641 1.376 . S
C645 C644 1.392 . S
C645 H657 0.929 . S
C646 C642 1.531 . S
C646 H658 0.960 . S
C646 H659 0.962 . S
C646 H660 0.960 . S
C647 C644 1.511 . S
C647 H661 0.961 . S
C647 H662 0.961 . S
C647 H663 0.961 . S
C648 C649 1.370 . S
C648 C650 1.363 . S
C648 H664 0.931 . S
C649 C648 1.370 . S
C649 C653 1.408 . S
C650 C648 1.363 . S
C650 C651 1.370 . S
C650 C654 1.524 . S
C651 C643 1.503 . S
C651 C650 1.370 . S
C651 C652 1.403 . S
C652 C651 1.403 . S
C652 C653 1.404 . S
C652 C655 1.539 . S
C653 C649 1.408 . S
C653 C652 1.404 . S
C653 H665 0.930 . S
C654 C650 1.524 . S
C654 H666 0.956 . S
C654 H667 0.961 . S
C654 H668 0.961 . S
C655 C652 1.539 . S
C655 H669 0.958 . S
C655 H670 0.961 . S
C655 H671 0.960 . S
H656 C640 0.931 . S
H657 C645 0.929 . S
H658 C646 0.960 . S
H659 C646 0.962 . S
H660 C646 0.960 . S
H661 C647 0.961 . S
H662 C647 0.961 . S
H663 C647 0.961 . S
H664 C648 0.931 . S
H665 C653 0.930 . S
H666 C654 0.956 . S
H667 C654 0.961 . S
H668 C654 0.961 . S
H669 C655 0.958 . S
H670 C655 0.961 . S
H671 C655 0.960 . S
C672 C673 1.391 . S
C672 C674 1.394 . S
C672 H688 0.931 . S
C673 C672 1.391 . S
C673 C677 1.376 . S
C674 C672 1.394 . S
C674 C675 1.369 . S
C674 C678 1.531 . S
C675 C674 1.369 . S
C675 C676 1.410 . S
C675 C683 1.503 . S
C676 C675 1.410 . S
C676 C677 1.392 . S
C676 C679 1.511 . S
C677 C673 1.376 . S
C677 C676 1.392 . S
C677 H689 0.929 . S
C678 C674 1.531 . S
C678 H690 0.960 . S
C678 H691 0.962 . S
C678 H692 0.960 . S
C679 C676 1.511 . S
C679 H693 0.961 . S
C679 H694 0.961 . S
C679 H695 0.961 . S
C680 C681 1.370 . S
C680 C682 1.363 . S
C680 H696 0.931 . S
C681 C680 1.370 . S
C681 C685 1.408 . S
C682 C680 1.363 . S
C682 C683 1.370 . S
C682 C686 1.524 . S
C683 C675 1.503 . S
C683 C682 1.370 . S
C683 C684 1.403 . S
C684 C683 1.403 . S
C684 C685 1.404 . S
C684 C687 1.539 . S
C685 C681 1.408 . S
C685 C684 1.404 . S
C685 H697 0.930 . S
C686 C682 1.524 . S
C686 H698 0.956 . S
C686 H699 0.961 . S
C686 H700 0.961 . S
C687 C684 1.539 . S
C687 H701 0.958 . S
C687 H702 0.961 . S
C687 H703 0.960 . S
H688 C672 0.931 . S
H689 C677 0.929 . S
H690 C678 0.960 . S
H691 C678 0.962 . S
H692 C678 0.960 . S
H693 C679 0.961 . S
H694 C679 0.961 . S
H695 C679 0.961 . S
H696 C680 0.931 . S
H697 C685 0.930 . S
H698 C686 0.956 . S
H699 C686 0.961 . S
H700 C686 0.961 . S
H701 C687 0.958 . S
H702 C687 0.961 . S
H703 C687 0.960 . S
C704 C705 1.391 . S
C704 C706 1.394 . S
C704 H720 0.931 . S
C705 C704 1.391 . S
C705 C709 1.376 . S
C706 C704 1.394 . S
C706 C707 1.369 . S
C706 C710 1.531 . S
C707 C706 1.369 . S
C707 C708 1.410 . S
C707 C715 1.503 . S
C708 C707 1.410 . S
C708 C709 1.392 . S
C708 C711 1.511 . S
C709 C705 1.376 . S
C709 C708 1.392 . S
C709 H721 0.929 . S
C710 C706 1.531 . S
C710 H722 0.960 . S
C710 H723 0.962 . S
C710 H724 0.960 . S
C711 C708 1.511 . S
C711 H725 0.961 . S
C711 H726 0.961 . S
C711 H727 0.961 . S
C712 C713 1.370 . S
C712 C714 1.363 . S
C712 H728 0.931 . S
C713 C712 1.370 . S
C713 C717 1.408 . S
C714 C712 1.363 . S
C714 C715 1.370 . S
C714 C718 1.524 . S
C715 C707 1.503 . S
C715 C714 1.370 . S
C715 C716 1.403 . S
C716 C715 1.403 . S
C716 C717 1.404 . S
C716 C719 1.539 . S
C717 C713 1.408 . S
C717 C716 1.404 . S
C717 H729 0.930 . S
C718 C714 1.524 . S
C718 H730 0.956 . S
C718 H731 0.961 . S
C718 H732 0.961 . S
C719 C716 1.539 . S
C719 H733 0.958 . S
C719 H734 0.961 . S
C719 H735 0.960 . S
H720 C704 0.931 . S
H721 C709 0.929 . S
H722 C710 0.960 . S
H723 C710 0.962 . S
H724 C710 0.960 . S
H725 C711 0.961 . S
H726 C711 0.961 . S
H727 C711 0.961 . S
H728 C712 0.931 . S
H729 C717 0.930 . S
H730 C718 0.956 . S
H731 C718 0.961 . S
H732 C718 0.961 . S
H733 C719 0.958 . S
H734 C719 0.961 . S
H735 C719 0.960 . S
C736 C737 1.391 . S
C736 C738 1.394 . S
C736 H752 0.931 . S
C737 C736 1.391 . S
C737 C741 1.376 . S
C738 C736 1.394 . S
C738 C739 1.369 . S
C738 C742 1.531 . S
C739 C738 1.369 . S
C739 C740 1.410 . S
C739 C747 1.503 . S
C740 C739 1.410 . S
C740 C741 1.392 . S
C740 C743 1.511 . S
C741 C737 1.376 . S
C741 C740 1.392 . S
C741 H753 0.929 . S
C742 C738 1.531 . S
C742 H754 0.960 . S
C742 H755 0.962 . S
C742 H756 0.960 . S
C743 C740 1.511 . S
C743 H757 0.961 . S
C743 H758 0.961 . S
C743 H759 0.961 . S
C744 C745 1.370 . S
C744 C746 1.363 . S
C744 H760 0.931 . S
C745 C744 1.370 . S
C745 C749 1.408 . S
C746 C744 1.363 . S
C746 C747 1.370 . S
C746 C750 1.524 . S
C747 C739 1.503 . S
C747 C746 1.370 . S
C747 C748 1.403 . S
C748 C747 1.403 . S
C748 C749 1.404 . S
C748 C751 1.539 . S
C749 C745 1.408 . S
C749 C748 1.404 . S
C749 H761 0.930 . S
C750 C746 1.524 . S
C750 H762 0.956 . S
C750 H763 0.961 . S
C750 H764 0.961 . S
C751 C748 1.539 . S
C751 H765 0.958 . S
C751 H766 0.961 . S
C751 H767 0.960 . S
H752 C736 0.931 . S
H753 C741 0.929 . S
H754 C742 0.960 . S
H755 C742 0.962 . S
H756 C742 0.960 . S
H757 C743 0.961 . S
H758 C743 0.961 . S
H759 C743 0.961 . S
H760 C744 0.931 . S
H761 C749 0.930 . S
H762 C750 0.956 . S
H763 C750 0.961 . S
H764 C750 0.961 . S
H765 C751 0.958 . S
H766 C751 0.961 . S
H767 C751 0.960 . S
C768 C769 1.391 . S
C768 C770 1.394 . S
C768 H784 0.931 . S
C769 C768 1.391 . S
C769 C773 1.376 . S
C770 C768 1.394 . S
C770 C771 1.369 . S
C770 C774 1.531 . S
C771 C770 1.369 . S
C771 C772 1.410 . S
C771 C779 1.503 . S
C772 C771 1.410 . S
C772 C773 1.392 . S
C772 C775 1.511 . S
C773 C769 1.376 . S
C773 C772 1.392 . S
C773 H785 0.929 . S
C774 C770 1.531 . S
C774 H786 0.960 . S
C774 H787 0.962 . S
C774 H788 0.960 . S
C775 C772 1.511 . S
C775 H789 0.961 . S
C775 H790 0.961 . S
C775 H791 0.961 . S
C776 C777 1.370 . S
C776 C778 1.363 . S
C776 H792 0.931 . S
C777 C776 1.370 . S
C777 C781 1.408 . S
C778 C776 1.363 . S
C778 C779 1.370 . S
C778 C782 1.524 . S
C779 C771 1.503 . S
C779 C778 1.370 . S
C779 C780 1.403 . S
C780 C779 1.403 . S
C780 C781 1.404 . S
C780 C783 1.539 . S
C781 C777 1.408 . S
C781 C780 1.404 . S
C781 H793 0.930 . S
C782 C778 1.524 . S
C782 H794 0.956 . S
C782 H795 0.961 . S
C782 H796 0.961 . S
C783 C780 1.539 . S
C783 H797 0.958 . S
C783 H798 0.961 . S
C783 H799 0.960 . S
H784 C768 0.931 . S
H785 C773 0.929 . S
H786 C774 0.960 . S
H787 C774 0.962 . S
H788 C774 0.960 . S
H789 C775 0.961 . S
H790 C775 0.961 . S
H791 C775 0.961 . S
H792 C776 0.931 . S
H793 C781 0.930 . S
H794 C782 0.956 . S
H795 C782 0.961 . S
H796 C782 0.961 . S
H797 C783 0.958 . S
H798 C783 0.961 . S
H799 C783 0.960 . S
C800 C801 1.391 . S
C800 C802 1.394 . S
C800 H816 0.931 . S
C801 C800 1.391 . S
C801 C805 1.376 . S
C802 C800 1.394 . S
C802 C803 1.369 . S
C802 C806 1.531 . S
C803 C802 1.369 . S
C803 C804 1.410 . S
C803 C811 1.503 . S
C804 C803 1.410 . S
C804 C805 1.392 . S
C804 C807 1.511 . S
C805 C801 1.376 . S
C805 C804 1.392 . S
C805 H817 0.929 . S
C806 C802 1.531 . S
C806 H818 0.960 . S
C806 H819 0.962 . S
C806 H820 0.960 . S
C807 C804 1.511 . S
C807 H821 0.961 . S
C807 H822 0.961 . S
C807 H823 0.961 . S
C808 C809 1.370 . S
C808 C810 1.363 . S
C808 H824 0.931 . S
C809 C808 1.370 . S
C809 C813 1.408 . S
C810 C808 1.363 . S
C810 C811 1.370 . S
C810 C814 1.524 . S
C811 C803 1.503 . S
C811 C810 1.370 . S
C811 C812 1.403 . S
C812 C811 1.403 . S
C812 C813 1.404 . S
C812 C815 1.539 . S
C813 C809 1.408 . S
C813 C812 1.404 . S
C813 H825 0.930 . S
C814 C810 1.524 . S
C814 H826 0.956 . S
C814 H827 0.961 . S
C814 H828 0.961 . S
C815 C812 1.539 . S
C815 H829 0.958 . S
C815 H830 0.961 . S
C815 H831 0.960 . S
H816 C800 0.931 . S
H817 C805 0.929 . S
H818 C806 0.960 . S
H819 C806 0.962 . S
H820 C806 0.960 . S
H821 C807 0.961 . S
H822 C807 0.961 . S
H823 C807 0.961 . S
H824 C808 0.931 . S
H825 C813 0.930 . S
H826 C814 0.956 . S
H827 C814 0.961 . S
H828 C814 0.961 . S
H829 C815 0.958 . S
H830 C815 0.961 . S
H831 C815 0.960 . S
C832 C833 1.391 . S
C832 C834 1.394 . S
C832 H848 0.931 . S
C833 C832 1.391 . S
C833 C837 1.376 . S
C834 C832 1.394 . S
C834 C835 1.369 . S
C834 C838 1.531 . S
C835 C834 1.369 . S
C835 C836 1.410 . S
C835 C843 1.503 . S
C836 C835 1.410 . S
C836 C837 1.392 . S
C836 C839 1.511 . S
C837 C833 1.376 . S
C837 C836 1.392 . S
C837 H849 0.929 . S
C838 C834 1.531 . S
C838 H850 0.960 . S
C838 H851 0.962 . S
C838 H852 0.960 . S
C839 C836 1.511 . S
C839 H853 0.961 . S
C839 H854 0.961 . S
C839 H855 0.961 . S
C840 C841 1.370 . S
C840 C842 1.363 . S
C840 H856 0.931 . S
C841 C840 1.370 . S
C841 C845 1.408 . S
C842 C840 1.363 . S
C842 C843 1.370 . S
C842 C846 1.524 . S
C843 C835 1.503 . S
C843 C842 1.370 . S
C843 C844 1.403 . S
C844 C843 1.403 . S
C844 C845 1.404 . S
C844 C847 1.539 . S
C845 C841 1.408 . S
C845 C844 1.404 . S
C845 H857 0.930 . S
C846 C842 1.524 . S
C846 H858 0.956 . S
C846 H859 0.961 . S
C846 H860 0.961 . S
C847 C844 1.539 . S
C847 H861 0.958 . S
C847 H862 0.961 . S
C847 H863 0.960 . S
H848 C832 0.931 . S
H849 C837 0.929 . S
H850 C838 0.960 . S
H851 C838 0.962 . S
H852 C838 0.960 . S
H853 C839 0.961 . S
H854 C839 0.961 . S
H855 C839 0.961 . S
H856 C840 0.931 . S
H857 C845 0.930 . S
H858 C846 0.956 . S
H859 C846 0.961 . S
H860 C846 0.961 . S
H861 C847 0.958 . S
H862 C847 0.961 . S
H863 C847 0.960 . S
C864 C865 1.391 . S
C864 C866 1.394 . S
C864 H880 0.931 . S
C865 C864 1.391 . S
C865 C869 1.376 . S
C866 C864 1.394 . S
C866 C867 1.369 . S
C866 C870 1.531 . S
C867 C866 1.369 . S
C867 C868 1.410 . S
C867 C875 1.503 . S
C868 C867 1.410 . S
C868 C869 1.392 . S
C868 C871 1.511 . S
C869 C865 1.376 . S
C869 C868 1.392 . S
C869 H881 0.929 . S
C870 C866 1.531 . S
C870 H882 0.960 . S
C870 H883 0.962 . S
C870 H884 0.960 . S
C871 C868 1.511 . S
C871 H885 0.961 . S
C871 H886 0.961 . S
C871 H887 0.961 . S
C872 C873 1.370 . S
C872 C874 1.363 . S
C872 H888 0.931 . S
C873 C872 1.370 . S
C873 C877 1.408 . S
C874 C872 1.363 . S
C874 C875 1.370 . S
C874 C878 1.524 . S
C875 C867 1.503 . S
C875 C874 1.370 . S
C875 C876 1.403 . S
C876 C875 1.403 . S
C876 C877 1.404 . S
C876 C879 1.539 . S
C877 C873 1.408 . S
C877 C876 1.404 . S
C877 H889 0.930 . S
C878 C874 1.524 . S
C878 H890 0.956 . S
C878 H891 0.961 . S
C878 H892 0.961 . S
C879 C876 1.539 . S
C879 H893 0.958 . S
C879 H894 0.961 . S
C879 H895 0.960 . S
H880 C864 0.931 . S
H881 C869 0.929 . S
H882 C870 0.960 . S
H883 C870 0.962 . S
H884 C870 0.960 . S
H885 C871 0.961 . S
H886 C871 0.961 . S
H887 C871 0.961 . S
H888 C872 0.931 . S
H889 C877 0.930 . S
H890 C878 0.956 . S
H891 C878 0.961 . S
H892 C878 0.961 . S
H893 C879 0.958 . S
H894 C879 0.961 . S
H895 C879 0.960 . S
C896 C897 1.391 . S
C896 C898 1.394 . S
C896 H912 0.931 . S
C897 C896 1.391 . S
C897 C901 1.376 . S
C898 C896 1.394 . S
C898 C899 1.369 . S
C898 C902 1.531 . S
C899 C898 1.369 . S
C899 C900 1.410 . S
C899 C907 1.503 . S
C900 C899 1.410 . S
C900 C901 1.392 . S
C900 C903 1.511 . S
C901 C897 1.376 . S
C901 C900 1.392 . S
C901 H913 0.929 . S
C902 C898 1.531 . S
C902 H914 0.960 . S
C902 H915 0.962 . S
C902 H916 0.960 . S
C903 C900 1.511 . S
C903 H917 0.961 . S
C903 H918 0.961 . S
C903 H919 0.961 . S
C904 C905 1.370 . S
C904 C906 1.363 . S
C904 H920 0.931 . S
C905 C904 1.370 . S
C905 C909 1.408 . S
C906 C904 1.363 . S
C906 C907 1.370 . S
C906 C910 1.524 . S
C907 C899 1.503 . S
C907 C906 1.370 . S
C907 C908 1.403 . S
C908 C907 1.403 . S
C908 C909 1.404 . S
C908 C911 1.539 . S
C909 C905 1.408 . S
C909 C908 1.404 . S
C909 H921 0.930 . S
C910 C906 1.524 . S
C910 H922 0.956 . S
C910 H923 0.961 . S
C910 H924 0.961 . S
C911 C908 1.539 . S
C911 H925 0.958 . S
C911 H926 0.961 . S
C911 H927 0.960 . S
H912 C896 0.931 . S
H913 C901 0.929 . S
H914 C902 0.960 . S
H915 C902 0.962 . S
H916 C902 0.960 . S
H917 C903 0.961 . S
H918 C903 0.961 . S
H919 C903 0.961 . S
H920 C904 0.931 . S
H921 C909 0.930 . S
H922 C910 0.956 . S
H923 C910 0.961 . S
H924 C910 0.961 . S
H925 C911 0.958 . S
H926 C911 0.961 . S
H927 C911 0.960 . S
C928 C929 1.391 . S
C928 C930 1.394 . S
C928 H944 0.931 . S
C929 C928 1.391 . S
C929 C933 1.376 . S
C930 C928 1.394 . S
C930 C931 1.369 . S
C930 C934 1.531 . S
C931 C930 1.369 . S
C931 C932 1.410 . S
C931 C939 1.503 . S
C932 C931 1.410 . S
C932 C933 1.392 . S
C932 C935 1.511 . S
C933 C929 1.376 . S
C933 C932 1.392 . S
C933 H945 0.929 . S
C934 C930 1.531 . S
C934 H946 0.960 . S
C934 H947 0.962 . S
C934 H948 0.960 . S
C935 C932 1.511 . S
C935 H949 0.961 . S
C935 H950 0.961 . S
C935 H951 0.961 . S
C936 C937 1.370 . S
C936 C938 1.363 . S
C936 H952 0.931 . S
C937 C936 1.370 . S
C937 C941 1.408 . S
C938 C936 1.363 . S
C938 C939 1.370 . S
C938 C942 1.524 . S
C939 C931 1.503 . S
C939 C938 1.370 . S
C939 C940 1.403 . S
C940 C939 1.403 . S
C940 C941 1.404 . S
C940 C943 1.539 . S
C941 C937 1.408 . S
C941 C940 1.404 . S
C941 H953 0.930 . S
C942 C938 1.524 . S
C942 H954 0.956 . S
C942 H955 0.961 . S
C942 H956 0.961 . S
C943 C940 1.539 . S
C943 H957 0.958 . S
C943 H958 0.961 . S
C943 H959 0.960 . S
H944 C928 0.931 . S
H945 C933 0.929 . S
H946 C934 0.960 . S
H947 C934 0.962 . S
H948 C934 0.960 . S
H949 C935 0.961 . S
H950 C935 0.961 . S
H951 C935 0.961 . S
H952 C936 0.931 . S
H953 C941 0.930 . S
H954 C942 0.956 . S
H955 C942 0.961 . S
H956 C942 0.961 . S
H957 C943 0.958 . S
H958 C943 0.961 . S
H959 C943 0.960 . S
C960 C961 1.391 . S
C960 C962 1.394 . S
C960 H976 0.931 . S
C961 C960 1.391 . S
C961 C965 1.376 . S
C962 C960 1.394 . S
C962 C963 1.369 . S
C962 C966 1.531 . S
C963 C962 1.369 . S
C963 C964 1.410 . S
C963 C971 1.503 . S
C964 C963 1.410 . S
C964 C965 1.392 . S
C964 C967 1.511 . S
C965 C961 1.376 . S
C965 C964 1.392 . S
C965 H977 0.929 . S
C966 C962 1.531 . S
C966 H978 0.960 . S
C966 H979 0.962 . S
C966 H980 0.960 . S
C967 C964 1.511 . S
C967 H981 0.961 . S
C967 H982 0.961 . S
C967 H983 0.961 . S
C968 C969 1.370 . S
C968 C970 1.363 . S
C968 H984 0.931 . S
C969 C968 1.370 . S
C969 C973 1.408 . S
C970 C968 1.363 . S
C970 C971 1.370 . S
C970 C974 1.524 . S
C971 C963 1.503 . S
C971 C970 1.370 . S
C971 C972 1.403 . S
C972 C971 1.403 . S
C972 C973 1.404 . S
C972 C975 1.539 . S
C973 C969 1.408 . S
C973 C972 1.404 . S
C973 H985 0.930 . S
C974 C970 1.524 . S
C974 H986 0.956 . S
C974 H987 0.961 . S
C974 H988 0.961 . S
C975 C972 1.539 . S
C975 H989 0.958 . S
C975 H990 0.961 . S
C975 H991 0.960 . S
H976 C960 0.931 . S
H977 C965 0.929 . S
H978 C966 0.960 . S
H979 C966 0.962 . S
H980 C966 0.960 . S
H981 C967 0.961 . S
H982 C967 0.961 . S
H983 C967 0.961 . S
H984 C968 0.931 . S
H985 C973 0.930 . S
H986 C974 0.956 . S
H987 C974 0.961 . S
H988 C974 0.961 . S
H989 C975 0.958 . S
H990 C975 0.961 . S
H991 C975 0.960 . S
C992 C993 1.391 . S
C992 C994 1.394 . S
C992 H1008 0.931 . S
C993 C992 1.391 . S
C993 C997 1.376 . S
C994 C992 1.394 . S
C994 C995 1.369 . S
C994 C998 1.531 . S
C995 C994 1.369 . S
C995 C996 1.410 . S
C995 C1003 1.503 1_545 S
C996 C995 1.410 . S
C996 C997 1.392 . S
C996 C999 1.511 1_545 S
C997 C993 1.376 . S
C997 C996 1.392 . S
C997 H1009 0.929 . S
C998 C994 1.531 . S
C998 H1010 0.960 . S
C998 H1011 0.962 . S
C998 H1012 0.960 . S
C999 C996 1.511 1_565 S
C999 H1013 0.961 1_565 S
C999 H1014 0.961 . S
C999 H1015 0.961 . S
C1000 C1001 1.370 . S
C1000 C1002 1.363 . S
C1000 H1016 0.931 . S
C1001 C1000 1.370 . S
C1001 C1005 1.408 . S
C1002 C1000 1.363 . S
C1002 C1003 1.370 . S
C1002 C1006 1.524 . S
C1003 C995 1.503 1_565 S
C1003 C1002 1.370 . S
C1003 C1004 1.403 . S
C1004 C1003 1.403 . S
C1004 C1005 1.404 . S
C1004 C1007 1.539 . S
C1005 C1001 1.408 . S
C1005 C1004 1.404 . S
C1005 H1017 0.930 . S
C1006 C1002 1.524 . S
C1006 H1018 0.956 1_565 S
C1006 H1019 0.961 1_565 S
C1006 H1020 0.961 . S
C1007 C1004 1.539 . S
C1007 H1021 0.958 . S
C1007 H1022 0.961 . S
C1007 H1023 0.960 . S
H1008 C992 0.931 . S
H1009 C997 0.929 . S
H1010 C998 0.960 . S
H1011 C998 0.962 . S
H1012 C998 0.960 . S
H1013 C999 0.961 1_545 S
H1014 C999 0.961 . S
H1015 C999 0.961 . S
H1016 C1000 0.931 . S
H1017 C1005 0.930 . S
H1018 C1006 0.956 1_545 S
H1019 C1006 0.961 1_545 S
H1020 C1006 0.961 . S
H1021 C1007 0.958 . S
H1022 C1007 0.961 . S
H1023 C1007 0.960 . S
C1024 C1025 1.391 . S
C1024 C1026 1.394 . S
C1024 H1040 0.931 . S
C1025 C1024 1.391 . S
C1025 C1029 1.376 . S
C1026 C1024 1.394 . S
C1026 C1027 1.369 . S
C1026 C1030 1.531 . S
C1027 C1026 1.369 . S
C1027 C1028 1.410 . S
C1027 C1035 1.503 1_655 S
C1028 C1027 1.410 . S
C1028 C1029 1.392 . S
C1028 C1031 1.511 1_655 S
C1029 C1025 1.376 . S
C1029 C1028 1.392 . S
C1029 H1041 0.929 . S
C1030 C1026 1.531 . S
C1030 H1042 0.960 . S
C1030 H1043 0.962 . S
C1030 H1044 0.960 . S
C1031 C1028 1.511 1_455 S
C1031 H1045 0.956 1_455 S
C1031 H1046 0.961 . S
C1031 H1047 0.961 . S
C1032 C1033 1.370 . S
C1032 C1034 1.363 . S
C1032 H1048 0.931 . S
C1033 C1032 1.370 . S
C1033 C1037 1.408 . S
C1034 C1032 1.363 . S
C1034 C1035 1.370 . S
C1034 C1038 1.524 . S
C1035 C1027 1.503 1_455 S
C1035 C1034 1.370 . S
C1035 C1036 1.403 . S
C1036 C1035 1.403 . S
C1036 C1037 1.404 . S
C1036 C1039 1.539 . S
C1037 C1033 1.408 . S
C1037 C1036 1.404 . S
C1037 H1049 0.930 . S
C1038 C1034 1.524 . S
C1038 H1050 0.962 . S
C1038 H1051 0.961 . S
C1038 H1052 0.961 . S
C1039 C1036 1.539 . S
C1039 H1053 0.958 . S
C1039 H1054 0.961 . S
C1039 H1055 0.960 1_455 S
H1040 C1024 0.931 . S
H1041 C1029 0.929 . S
H1042 C1030 0.960 . S
H1043 C1030 0.962 . S
H1044 C1030 0.960 . S
H1045 C1031 0.956 1_655 S
H1046 C1031 0.961 . S
H1047 C1031 0.961 . S
H1048 C1032 0.931 . S
H1049 C1037 0.930 . S
H1050 C1038 0.962 . S
H1051 C1038 0.961 . S
H1052 C1038 0.961 . S
H1053 C1039 0.958 . S
H1054 C1039 0.961 . S
H1055 C1039 0.960 1_655 S
C1056 C1057 1.391 . S
C1056 C1058 1.394 . S
C1056 H1072 0.931 . S
C1057 C1056 1.391 . S
C1057 C1061 1.376 . S
C1058 C1056 1.394 . S
C1058 C1059 1.369 . S
C1058 C1062 1.531 1_545 S
C1059 C1058 1.369 . S
C1059 C1060 1.410 . S
C1059 C1067 1.503 1_545 S
C1060 C1059 1.410 . S
C1060 C1061 1.392 . S
C1060 C1063 1.511 . S
C1061 C1057 1.376 . S
C1061 C1060 1.392 . S
C1061 H1073 0.929 . S
C1062 C1058 1.531 1_565 S
C1062 H1074 0.960 . S
C1062 H1075 0.962 . S
C1062 H1076 0.956 1_565 S
C1063 C1060 1.511 . S
C1063 H1077 0.961 . S
C1063 H1078 0.961 . S
C1063 H1079 0.961 . S
C1064 C1065 1.370 . S
C1064 C1066 1.363 . S
C1064 H1080 0.931 . S
C1065 C1064 1.370 . S
C1065 C1069 1.408 . S
C1066 C1064 1.363 . S
C1066 C1067 1.370 . S
C1066 C1070 1.524 . S
C1067 C1059 1.503 1_565 S
C1067 C1066 1.370 . S
C1067 C1068 1.403 . S
C1068 C1067 1.403 . S
C1068 C1069 1.404 . S
C1068 C1071 1.539 . S
C1069 C1065 1.408 . S
C1069 C1068 1.404 . S
C1069 H1081 0.930 . S
C1070 C1066 1.524 . S
C1070 H1082 0.956 1_565 S
C1070 H1083 0.961 1_565 S
C1070 H1084 0.961 . S
C1071 C1068 1.539 . S
C1071 H1085 0.958 . S
C1071 H1086 0.961 . S
C1071 H1087 0.960 . S
H1072 C1056 0.931 . S
H1073 C1061 0.929 . S
H1074 C1062 0.960 . S
H1075 C1062 0.962 . S
H1076 C1062 0.956 1_545 S
H1077 C1063 0.961 . S
H1078 C1063 0.961 . S
H1079 C1063 0.961 . S
H1080 C1064 0.931 . S
H1081 C1069 0.930 . S
H1082 C1070 0.956 1_545 S
H1083 C1070 0.961 1_545 S
H1084 C1070 0.961 . S
H1085 C1071 0.958 . S
H1086 C1071 0.961 . S
H1087 C1071 0.960 . S
C1088 C1089 1.391 . S
C1088 C1090 1.394 . S
C1088 H1104 0.931 . S
C1089 C1088 1.391 . S
C1089 C1093 1.376 . S
C1090 C1088 1.394 . S
C1090 C1091 1.369 . S
C1090 C1094 1.531 . S
C1091 C1090 1.369 . S
C1091 C1092 1.410 . S
C1091 C1099 1.503 1_455 S
C1092 C1091 1.410 . S
C1092 C1093 1.392 . S
C1092 C1095 1.511 . S
C1093 C1089 1.376 . S
C1093 C1092 1.392 . S
C1093 H1105 0.929 . S
C1094 C1090 1.531 . S
C1094 H1106 0.952 1_455 S
C1094 H1107 0.962 . S
C1094 H1108 0.960 . S
C1095 C1092 1.511 . S
C1095 H1109 0.961 . S
C1095 H1110 0.961 1_455 S
C1095 H1111 0.961 1_455 S
C1096 C1097 1.370 . S
C1096 C1098 1.363 . S
C1096 H1112 0.931 . S
C1097 C1096 1.370 . S
C1097 C1101 1.408 . S
C1098 C1096 1.363 . S
C1098 C1099 1.370 . S
C1098 C1102 1.524 1_655 S
C1099 C1091 1.503 1_655 S
C1099 C1098 1.370 . S
C1099 C1100 1.403 . S
C1100 C1099 1.403 . S
C1100 C1101 1.404 . S
C1100 C1103 1.539 . S
C1101 C1097 1.408 . S
C1101 C1100 1.404 . S
C1101 H1113 0.930 . S
C1102 C1098 1.524 1_455 S
C1102 H1114 0.956 . S
C1102 H1115 0.961 . S
C1102 H1116 0.961 1_455 S
C1103 C1100 1.539 . S
C1103 H1117 0.958 . S
C1103 H1118 0.961 . S
C1103 H1119 0.960 . S
H1104 C1088 0.931 . S
H1105 C1093 0.929 . S
H1106 C1094 0.952 1_655 S
H1107 C1094 0.962 . S
H1108 C1094 0.960 . S
H1109 C1095 0.961 . S
H1110 C1095 0.961 1_655 S
H1111 C1095 0.961 1_655 S
H1112 C1096 0.931 . S
H1113 C1101 0.930 . S
H1114 C1102 0.956 . S
H1115 C1102 0.961 . S
H1116 C1102 0.961 1_655 S
H1117 C1103 0.958 . S
H1118 C1103 0.961 . S
H1119 C1103 0.960 . S
C1120 C1121 1.391 . S
C1120 C1122 1.394 . S
C1120 H1136 0.931 . S
C1121 C1120 1.391 . S
C1121 C1125 1.376 . S
C1122 C1120 1.394 . S
C1122 C1123 1.369 . S
C1122 C1126 1.531 . S
C1123 C1122 1.369 . S
C1123 C1124 1.410 . S
C1123 C1131 1.503 1_545 S
C1124 C1123 1.410 . S
C1124 C1125 1.392 . S
C1124 C1127 1.511 . S
C1125 C1121 1.376 . S
C1125 C1124 1.392 . S
C1125 H1137 0.929 . S
C1126 C1122 1.531 . S
C1126 H1138 0.960 1_545 S
C1126 H1139 0.962 . S
C1126 H1140 0.960 . S
C1127 C1124 1.511 . S
C1127 H1141 0.961 . S
C1127 H1142 0.961 . S
C1127 H1143 0.961 . S
C1128 C1129 1.370 . S
C1128 C1130 1.363 . S
C1128 H1144 0.931 . S
C1129 C1128 1.370 . S
C1129 C1133 1.408 . S
C1130 C1128 1.363 . S
C1130 C1131 1.370 . S
C1130 C1134 1.524 1_565 S
C1131 C1123 1.503 1_565 S
C1131 C1130 1.370 . S
C1131 C1132 1.403 . S
C1132 C1131 1.403 . S
C1132 C1133 1.404 . S
C1132 C1135 1.539 . S
C1133 C1129 1.408 . S
C1133 C1132 1.404 . S
C1133 H1145 0.930 . S
C1134 C1130 1.524 1_545 S
C1134 H1146 0.956 . S
C1134 H1147 0.961 . S
C1134 H1148 0.961 1_545 S
C1135 C1132 1.539 . S
C1135 H1149 0.958 . S
C1135 H1150 0.961 . S
C1135 H1151 0.960 . S
H1136 C1120 0.931 . S
H1137 C1125 0.929 . S
H1138 C1126 0.960 1_565 S
H1139 C1126 0.962 . S
H1140 C1126 0.960 . S
H1141 C1127 0.961 . S
H1142 C1127 0.961 . S
H1143 C1127 0.961 . S
H1144 C1128 0.931 . S
H1145 C1133 0.930 . S
H1146 C1134 0.956 . S
H1147 C1134 0.961 . S
H1148 C1134 0.961 1_565 S
H1149 C1135 0.958 . S
H1150 C1135 0.961 . S
H1151 C1135 0.960 . S
C1152 C1153 1.391 . S
C1152 C1154 1.394 . S
C1152 H1168 0.931 . S
C1153 C1152 1.391 . S
C1153 C1157 1.376 . S
C1154 C1152 1.394 . S
C1154 C1155 1.369 . S
C1154 C1158 1.531 . S
C1155 C1154 1.369 . S
C1155 C1156 1.410 . S
C1155 C1163 1.503 1_655 S
C1156 C1155 1.410 . S
C1156 C1157 1.392 . S
C1156 C1159 1.511 . S
C1157 C1153 1.376 . S
C1157 C1156 1.392 . S
C1157 H1169 0.929 . S
C1158 C1154 1.531 . S
C1158 H1170 0.960 1_655 S
C1158 H1171 0.962 1_655 S
C1158 H1172 0.960 . S
C1159 C1156 1.511 . S
C1159 H1173 0.961 . S
C1159 H1174 0.961 . S
C1159 H1175 0.961 . S
C1160 C1161 1.370 . S
C1160 C1162 1.363 . S
C1160 H1176 0.931 . S
C1161 C1160 1.370 . S
C1161 C1165 1.408 . S
C1162 C1160 1.363 . S
C1162 C1163 1.370 . S
C1162 C1166 1.524 . S
C1163 C1155 1.503 1_455 S
C1163 C1162 1.370 . S
C1163 C1164 1.403 . S
C1164 C1163 1.403 . S
C1164 C1165 1.404 . S
C1164 C1167 1.539 . S
C1165 C1161 1.408 . S
C1165 C1164 1.404 . S
C1165 H1177 0.930 . S
C1166 C1162 1.524 . S
C1166 H1178 0.956 . S
C1166 H1179 0.961 . S
C1166 H1180 0.961 . S
C1167 C1164 1.539 . S
C1167 H1181 0.958 . S
C1167 H1182 0.961 . S
C1167 H1183 0.960 1_455 S
H1168 C1152 0.931 . S
H1169 C1157 0.929 . S
H1170 C1158 0.960 1_455 S
H1171 C1158 0.962 1_455 S
H1172 C1158 0.960 . S
H1173 C1159 0.961 . S
H1174 C1159 0.961 . S
H1175 C1159 0.961 . S
H1176 C1160 0.931 . S
H1177 C1165 0.930 . S
H1178 C1166 0.956 . S
H1179 C1166 0.961 . S
H1180 C1166 0.961 . S
H1181 C1167 0.958 . S
H1182 C1167 0.961 . S
H1183 C1167 0.960 1_655 S
C1184 C1185 1.391 . S
C1184 C1186 1.394 . S
C1184 H1200 0.931 . S
C1185 C1184 1.391 . S
C1185 C1189 1.376 . S
C1186 C1184 1.394 . S
C1186 C1187 1.369 . S
C1186 C1190 1.531 . S
C1187 C1186 1.369 . S
C1187 C1188 1.410 . S
C1187 C1195 1.503 1_565 S
C1188 C1187 1.410 . S
C1188 C1189 1.392 . S
C1188 C1191 1.511 . S
C1189 C1185 1.376 . S
C1189 C1188 1.392 . S
C1189 H1201 0.929 . S
C1190 C1186 1.531 . S
C1190 H1202 0.960 . S
C1190 H1203 0.962 . S
C1190 H1204 0.960 . S
C1191 C1188 1.511 . S
C1191 H1205 0.961 . S
C1191 H1206 0.961 1_565 S
C1191 H1207 0.961 1_565 S
C1192 C1193 1.370 . S
C1192 C1194 1.363 . S
C1192 H1208 0.931 . S
C1193 C1192 1.370 . S
C1193 C1197 1.408 . S
C1194 C1192 1.363 . S
C1194 C1195 1.370 . S
C1194 C1198 1.524 . S
C1195 C1187 1.503 1_545 S
C1195 C1194 1.370 . S
C1195 C1196 1.403 . S
C1196 C1195 1.403 . S
C1196 C1197 1.404 . S
C1196 C1199 1.539 . S
C1197 C1193 1.408 . S
C1197 C1196 1.404 . S
C1197 H1209 0.930 . S
C1198 C1194 1.524 . S
C1198 H1210 0.956 1_545 S
C1198 H1211 0.961 1_545 S
C1198 H1212 0.961 . S
C1199 C1196 1.539 . S
C1199 H1213 0.958 . S
C1199 H1214 0.961 . S
C1199 H1215 0.960 . S
H1200 C1184 0.931 . S
H1201 C1189 0.929 . S
H1202 C1190 0.960 . S
H1203 C1190 0.962 . S
H1204 C1190 0.960 . S
H1205 C1191 0.961 . S
H1206 C1191 0.961 1_545 S
H1207 C1191 0.961 1_545 S
H1208 C1192 0.931 . S
H1209 C1197 0.930 . S
H1210 C1198 0.956 1_565 S
H1211 C1198 0.961 1_565 S
H1212 C1198 0.961 . S
H1213 C1199 0.958 . S
H1214 C1199 0.961 . S
H1215 C1199 0.960 . S
C1216 C1217 1.391 . S
C1216 C1218 1.394 . S
C1216 H1232 0.931 . S
C1217 C1216 1.391 . S
C1217 C1221 1.376 . S
C1218 C1216 1.394 . S
C1218 C1219 1.369 . S
C1218 C1222 1.531 . S
C1219 C1218 1.369 . S
C1219 C1220 1.410 . S
C1219 C1227 1.503 1_455 S
C1220 C1219 1.410 . S
C1220 C1221 1.392 . S
C1220 C1223 1.511 . S
C1221 C1217 1.376 . S
C1221 C1220 1.392 . S
C1221 H1233 0.929 . S
C1222 C1218 1.531 . S
C1222 H1234 0.960 . S
C1222 H1235 0.962 . S
C1222 H1236 0.960 . S
C1223 C1220 1.511 . S
C1223 H1237 0.961 . S
C1223 H1238 0.961 1_455 S
C1223 H1239 0.961 1_455 S
C1224 C1225 1.370 . S
C1224 C1226 1.363 . S
C1224 H1240 0.931 . S
C1225 C1224 1.370 . S
C1225 C1229 1.408 . S
C1226 C1224 1.363 . S
C1226 C1227 1.370 . S
C1226 C1230 1.524 . S
C1227 C1219 1.503 1_655 S
C1227 C1226 1.370 . S
C1227 C1228 1.403 . S
C1228 C1227 1.403 . S
C1228 C1229 1.404 . S
C1228 C1231 1.539 . S
C1229 C1225 1.408 . S
C1229 C1228 1.404 . S
C1229 H1241 0.930 . S
C1230 C1226 1.524 . S
C1230 H1242 0.956 . S
C1230 H1243 0.961 . S
C1230 H1244 0.961 . S
C1231 C1228 1.539 . S
C1231 H1245 0.958 . S
C1231 H1246 0.961 . S
C1231 H1247 0.935 1_655 S
H1232 C1216 0.931 . S
H1233 C1221 0.929 . S
H1234 C1222 0.960 . S
H1235 C1222 0.962 . S
H1236 C1222 0.960 . S
H1237 C1223 0.961 . S
H1238 C1223 0.961 1_655 S
H1239 C1223 0.961 1_655 S
H1240 C1224 0.931 . S
H1241 C1229 0.930 . S
H1242 C1230 0.956 . S
H1243 C1230 0.961 . S
H1244 C1230 0.961 . S
H1245 C1231 0.958 . S
H1246 C1231 0.961 . S
H1247 C1231 0.935 1_455 S
C225 C78 1.409 . S
C233 C8 1.426 . S
C257 C92 1.438 . S
C265 C22 1.424 . S
C289 C36 1.414 . S
C297 C106 1.433 . S
C321 C50 1.424 . S
C329 C64 1.420 . S
C353 C190 1.412 . S
C361 C120 1.432 . S
C385 C204 1.436 . S
C393 C134 1.422 . S
C417 C148 1.437 . S
C425 C218 1.428 . S
C449 C162 1.409 . S
C457 C176 1.431 . S
C481 C147 1.457 . S
C489 C7 1.479 . S
C513 C161 1.487 . S
C521 C21 1.486 . S
C545 C119 1.460 . S
C553 C35 1.478 . S
C577 C49 1.469 . S
C585 C133 1.480 . S
C609 C203 1.457 . S
C617 C63 1.479 . S
C641 C217 1.459 . S
C649 C77 1.478 . S
C673 C91 1.513 . S
C681 C175 1.498 . S
C705 C189 1.457 . S
C713 C105 1.480 . S
C737 C65 1.880 . S
C745 C9 1.881 . S
C769 C23 1.870 . S
C777 C79 1.880 . S
C801 C37 1.864 . S
C809 C93 1.876 . S
C833 C107 1.870 . S
C841 C51 1.880 . S
C865 C115 0.947 . S
C873 C171 0.961 . S
C897 C185 0.943 . S
C905 C129 0.948 . S
C929 C143 0.951 . S
C937 C199 0.962 . S
C961 C213 0.971 . S
C969 C157 0.964 . S
C993 C163 1.889 . S
C1001 C191 1.886 . S
C1025 C121 1.889 . S
C1033 C205 1.887 . S
C1057 C219 1.865 . S
C1065 C135 1.876 . S
C1089 C149 1.883 . S
C1097 C177 1.883 . S
C1121 C73 0.952 . S
C1129 C45 0.962 . S
C1153 C87 0.972 . S
C1161 C3 0.957 . S
C1185 C101 0.935 . S
C1193 C17 0.952 . S
C1217 C59 0.938 . S
C1225 C31 0.948 . S
