# Generated by pormake.
# Topology yfx, (5)-cn, num edge types: 1
# Building blocks:
#     Node 0, Type 0, BuildingBlock: BEQFEK_clean_sbu_0, # of connection points: 5
#     Node 1, Type 0, BuildingBlock: BEQFEK_clean_sbu_0, # of connection points: 5
#     Node 2, Type 0, BuildingBlock: BEQFEK_clean_sbu_0, # of connection points: 5
#     Node 3, Type 0, BuildingBlock: BEQFEK_clean_sbu_0, # of connection points: 5
#     Node 4, Type 0, BuildingBlock: BEQFEK_clean_sbu_0, # of connection points: 5
#     Node 5, Type 0, BuildingBlock: BEQFEK_clean_sbu_0, # of connection points: 5
#     Node 6, Type 0, BuildingBlock: BEQFEK_clean_sbu_0, # of connection points: 5
#     Node 7, Type 0, BuildingBlock: BEQFEK_clean_sbu_0, # of connection points: 5
#     Edge 8, Type (0, 0), BuildingBlock: UVAHIK_clean_linker_0, # of connection points: 2
#     Edge 9, Type (0, 0), BuildingBlock: UVAHIK_clean_linker_0, # of connection points: 2
#     Edge 10, Type (0, 0), BuildingBlock: UVAHIK_clean_linker_0, # of connection points: 2
#     Edge 11, Type (0, 0), BuildingBlock: UVAHIK_clean_linker_0, # of connection points: 2
#     Edge 12, Type (0, 0), BuildingBlock: UVAHIK_clean_linker_0, # of connection points: 2
#     Edge 13, Type (0, 0), BuildingBlock: UVAHIK_clean_linker_0, # of connection points: 2
#     Edge 14, Type (0, 0), BuildingBlock: UVAHIK_clean_linker_0, # of connection points: 2
#     Edge 15, Type (0, 0), BuildingBlock: UVAHIK_clean_linker_0, # of connection points: 2
#     Edge 16, Type (0, 0), BuildingBlock: UVAHIK_clean_linker_0, # of connection points: 2
#     Edge 17, Type (0, 0), BuildingBlock: UVAHIK_clean_linker_0, # of connection points: 2
#     Edge 18, Type (0, 0), BuildingBlock: UVAHIK_clean_linker_0, # of connection points: 2
#     Edge 19, Type (0, 0), BuildingBlock: UVAHIK_clean_linker_0, # of connection points: 2
#     Edge 20, Type (0, 0), BuildingBlock: UVAHIK_clean_linker_0, # of connection points: 2
#     Edge 21, Type (0, 0), BuildingBlock: UVAHIK_clean_linker_0, # of connection points: 2
#     Edge 22, Type (0, 0), BuildingBlock: UVAHIK_clean_linker_0, # of connection points: 2
#     Edge 23, Type (0, 0), BuildingBlock: UVAHIK_clean_linker_0, # of connection points: 2
#     Edge 24, Type (0, 0), BuildingBlock: UVAHIK_clean_linker_0, # of connection points: 2
#     Edge 25, Type (0, 0), BuildingBlock: UVAHIK_clean_linker_0, # of connection points: 2
#     Edge 26, Type (0, 0), BuildingBlock: UVAHIK_clean_linker_0, # of connection points: 2
#     Edge 27, Type (0, 0), BuildingBlock: UVAHIK_clean_linker_0, # of connection points: 2
# Relax obj value: 0.174
# Max RMSD: 0.155
# Mean RMSD: 0.155
data_MOF--net-yfx--node1-BEQFEK_clean_sbu_0--edge1-UVAHIK_clean_linker_0
_symmetry_space_group_name_H-M    P1
_symmetry_Int_Tables_number       1
_symmetry_cell_setting            triclinic
loop_
_symmetry_equiv_pos_as_xyz
'x, y, z'
_cell_length_a     49.489727
_cell_length_b     49.451011
_cell_length_c     28.681875
_cell_angle_alpha  90.018241
_cell_angle_beta   89.992111
_cell_angle_gamma 90.018658
loop_
_atom_site_label
_atom_site_type_symbol
_atom_site_fract_x
_atom_site_fract_y
_atom_site_fract_z
_atom_type_partial_charge
Co0 Co 0.24726 0.36486 0.00159 0.0
Co1 Co 0.18535 0.37348 0.02106 0.0
C2 C 0.20422 0.33472 0.94915 0.0
O3 O 0.22832 0.33968 0.96145 0.0
O4 O 0.18416 0.34738 0.96665 0.0
C5 C 0.295 0.35147 0.95022 0.0
O6 O 0.27783 0.34414 0.91766 0.0
C7 C 0.13028 0.39722 0.00941 0.0
C8 C 0.11701 0.39864 0.08286 0.0
C9 C 0.10923 0.40592 0.03816 0.0
N10 N 0.14959 0.38591 0.0363 0.0
N11 N 0.14128 0.3866 0.08004 0.0
C12 C 0.13169 0.39846 0.95733 0.0
H13 H 0.14552 0.38266 0.9438 0.0
H14 H 0.13962 0.41839 0.94624 0.0
H15 H 0.11126 0.39581 0.942 0.0
C16 C 0.24608 0.42283 0.98675 0.0
N17 N 0.23332 0.39951 0.99572 0.0
N18 N 0.20804 0.40428 0.00744 0.0
C19 C 0.20431 0.4314 0.00788 0.0
C20 C 0.22815 0.44379 0.99385 0.0
C21 C 0.27562 0.42489 0.97605 0.0
H22 H 0.28735 0.41663 0.00579 0.0
H23 H 0.28029 0.41239 0.94495 0.0
H24 H 0.282 0.44607 0.9696 0.0
O25 O 0.24378 0.35264 0.06545 0.0
O26 O 0.19942 0.35308 0.07741 0.0
H27 H 0.17081 0.43446 0.05513 0.0
H28 H 0.18387 0.4666 0.03515 0.0
C29 C 0.17942 0.44542 0.02489 0.0
H30 H 0.16422 0.44591 0.99661 0.0
H31 H 0.15258 0.37952 0.10826 0.0
O32 O 0.28619 0.36257 0.98718 0.0
C33 C 0.22341 0.34758 0.09081 0.0
Co34 Co 0.63505 0.24713 0.00568 0.0
Co35 Co 0.62432 0.18495 0.0196 0.0
C36 C 0.6632 0.20411 0.94897 0.0
O37 O 0.65914 0.22795 0.96369 0.0
O38 O 0.64985 0.18397 0.96462 0.0
C39 C 0.65149 0.29547 0.95896 0.0
O40 O 0.65923 0.27866 0.92613 0.0
C41 C 0.59806 0.13112 0.00645 0.0
C42 C 0.59473 0.1182 0.07992 0.0
C43 C 0.58725 0.11111 0.03502 0.0
N44 N 0.61085 0.14939 0.03357 0.0
N45 N 0.60928 0.1411 0.07726 0.0
C46 C 0.59396 0.13436 0.95511 0.0
H47 H 0.59817 0.1555 0.94427 0.0
H48 H 0.57305 0.12856 0.94526 0.0
H49 H 0.60806 0.12068 0.93646 0.0
C50 C 0.57694 0.2487 0.99347 0.0
N51 N 0.59982 0.23473 -1e-05 0.0
N52 N 0.59424 0.2091 0.00806 0.0
C53 C 0.56703 0.2062 0.00757 0.0
C54 C 0.55539 0.23117 0.99815 0.0
C55 C 0.57602 0.27841 0.98359 0.0
H56 H 0.58207 0.28967 0.0154 0.0
H57 H 0.59069 0.28335 0.95563 0.0
H58 H 0.55559 0.28505 0.97257 0.0
O59 O 0.64734 0.24164 0.06877 0.0
O60 O 0.64552 0.19698 0.07661 0.0
H61 H 0.5624 0.17076 0.04996 0.0
H62 H 0.53097 0.18546 0.03057 0.0
C63 C 0.55216 0.18096 0.0205 0.0
H64 H 0.55173 0.16715 0.99013 0.0
H65 H 0.61683 0.15191 0.10569 0.0
O66 O 0.63896 0.28636 0.9943 0.0
C67 C 0.65179 0.22036 0.09214 0.0
Co68 Co 0.7536 0.63415 0.97937 0.0
Co69 Co 0.81387 0.62811 0.01259 0.0
C70 C 0.79873 0.65461 0.9214 0.0
O71 O 0.77405 0.64923 0.92858 0.0
O72 O 0.81699 0.64871 0.95123 0.0
C73 C 0.70579 0.65159 0.9339 0.0
O74 O 0.72312 0.66359 0.90608 0.0
C75 C 0.86767 0.60217 0.00858 0.0
C76 C 0.88089 0.60597 0.08179 0.0
C77 C 0.88802 0.59452 0.03939 0.0
N78 N 0.8493 0.617 0.03206 0.0
N79 N 0.85767 0.61964 0.07555 0.0
C80 C 0.86406 0.59317 0.95917 0.0
H81 H 0.84272 0.59572 0.94808 0.0
H82 H 0.87031 0.57174 0.95506 0.0
H83 H 0.87707 0.60573 0.93628 0.0
C84 C 0.75307 0.576 0.99124 0.0
N85 N 0.76609 0.59974 0.99242 0.0
N86 N 0.79107 0.59628 0.00713 0.0
C87 C 0.79443 0.56966 0.0166 0.0
C88 C 0.77049 0.55616 0.00669 0.0
C89 C 0.72463 0.57262 0.97445 0.0
H90 H 0.71057 0.58051 0.00135 0.0
H91 H 0.7216 0.5846 0.94218 0.0
H92 H 0.71973 0.55111 0.96732 0.0
O93 O 0.757 0.6566 0.03455 0.0
O94 O 0.7986 0.65296 0.06222 0.0
H95 H 0.8277 0.57131 0.06451 0.0
H96 H 0.81426 0.53778 0.05495 0.0
C97 C 0.81908 0.55742 0.03813 0.0
H98 H 0.83434 0.55368 0.01063 0.0
H99 H 0.8468 0.62957 0.10161 0.0
O100 O 0.71456 0.63564 0.96518 0.0
C101 C 0.77468 0.66252 0.06488 0.0
Co102 Co 0.37351 0.74575 0.00534 0.0
Co103 Co 0.3761 0.80914 0.0153 0.0
C104 C 0.35003 0.78224 0.93284 0.0
O105 O 0.35579 0.75926 0.94981 0.0
O106 O 0.35616 0.80412 0.95405 0.0
C107 C 0.37055 0.69301 0.9646 0.0
O108 O 0.3704 0.7063 0.92497 0.0
C109 C 0.39753 0.86446 0.99607 0.0
C110 C 0.39167 0.88348 0.06499 0.0
C111 C 0.40255 0.88812 0.02116 0.0
N112 N 0.38487 0.84668 0.02434 0.0
N113 N 0.38116 0.85842 0.06521 0.0
C114 C 0.40349 0.85914 0.94573 0.0
H115 H 0.38937 0.84378 0.9316 0.0
H116 H 0.4243 0.85122 0.94188 0.0
H117 H 0.40187 0.87811 0.92522 0.0
C118 C 0.4317 0.75029 0.01241 0.0
N119 N 0.40716 0.76167 0.01154 0.0
N120 N 0.40915 0.78803 0.01734 0.0
C121 C 0.43563 0.79407 0.0232 0.0
C122 C 0.45059 0.77037 0.02012 0.0
C123 C 0.43671 0.72092 0.00308 0.0
H124 H 0.42958 0.70889 0.03332 0.0
H125 H 0.42496 0.71453 0.97208 0.0
H126 H 0.45838 0.71656 0.99677 0.0
O127 O 0.35211 0.75348 0.06028 0.0
O128 O 0.35125 0.79813 0.06811 0.0
H129 H 0.43253 0.83238 0.05808 0.0
H130 H 0.46662 0.81983 0.0519 0.0
C131 C 0.44659 0.82146 0.03469 0.0
H132 H 0.44923 0.8332 0.00218 0.0
H133 H 0.37221 0.84896 0.09387 0.0
O134 O 0.37429 0.7059 0.00236 0.0
C135 C 0.3444 0.77453 0.0817 0.0
Co136 Co 0.74539 0.86303 0.48988 0.0
Co137 Co 0.68446 0.87244 0.51754 0.0
C138 C 0.70035 0.83707 0.43718 0.0
O139 O 0.72511 0.84148 0.44553 0.0
O140 O 0.68153 0.84773 0.46144 0.0
C141 C 0.7932 0.84666 0.44114 0.0
O142 O 0.7761 0.83575 0.4116 0.0
C143 C 0.62963 0.89699 0.50927 0.0
C144 C 0.61748 0.89819 0.5833 0.0
C145 C 0.60911 0.90577 0.53905 0.0
N146 N 0.64923 0.88535 0.53512 0.0
N147 N 0.6416 0.88594 0.57923 0.0
C148 C 0.63032 0.89857 0.45716 0.0
H149 H 0.6437 0.88269 0.44269 0.0
H150 H 0.6384 0.91847 0.44619 0.0
H151 H 0.60966 0.8963 0.44263 0.0
C152 C 0.74522 0.92152 0.48155 0.0
N153 N 0.73239 0.8982 0.49037 0.0
N154 N 0.70755 0.90309 0.50458 0.0
C155 C 0.70425 0.93024 0.50674 0.0
C156 C 0.72785 0.94256 0.49144 0.0
C157 C 0.77415 0.92336 0.46666 0.0
H158 H 0.78719 0.9149 0.49454 0.0
H159 H 0.77721 0.91094 0.43488 0.0
H160 H 0.78036 0.94453 0.45961 0.0
O161 O 0.74252 0.84757 0.55205 0.0
O162 O 0.69923 0.85091 0.57176 0.0
H163 H 0.67167 0.93324 0.55583 0.0
H164 H 0.68446 0.96542 0.53547 0.0
C165 C 0.67974 0.94429 0.52525 0.0
H166 H 0.66401 0.9449 0.49783 0.0
H167 H 0.65324 0.87858 0.60681 0.0
O168 O 0.78423 0.86083 0.47472 0.0
C169 C 0.72337 0.84342 0.58055 0.0
Co170 Co 0.1314 0.7497 0.49114 0.0
Co171 Co 0.12466 0.68751 0.51282 0.0
C172 C 0.15059 0.70714 0.42476 0.0
O173 O 0.14636 0.73133 0.43749 0.0
O174 O 0.14398 0.68707 0.45039 0.0
C175 C 0.14892 0.79908 0.45112 0.0
O176 O 0.1621 0.78257 0.42339 0.0
C177 C 0.09921 0.63319 0.50509 0.0
C178 C 0.10234 0.61934 0.57807 0.0
C179 C 0.09144 0.6125 0.53516 0.0
N180 N 0.11359 0.65153 0.52953 0.0
N181 N 0.11586 0.64273 0.57284 0.0
C182 C 0.09074 0.637 0.45548 0.0
H183 H 0.09315 0.65846 0.44489 0.0
H184 H 0.06946 0.63047 0.45055 0.0
H185 H 0.10368 0.62426 0.43279 0.0
C186 C 0.07331 0.74987 0.50227 0.0
N187 N 0.09694 0.73669 0.50215 0.0
N188 N 0.09314 0.71092 0.51182 0.0
C189 C 0.06637 0.70714 0.51919 0.0
C190 C 0.05315 0.73168 0.51335 0.0
C191 C 0.07028 0.77903 0.48916 0.0
H192 H 0.08223 0.78323 0.45725 0.0
H193 H 0.04889 0.78457 0.48269 0.0
H194 H 0.07844 0.79182 0.51767 0.0
O195 O 0.15348 0.74386 0.54606 0.0
O196 O 0.15066 0.70014 0.56269 0.0
H197 H 0.03321 0.68465 0.54904 0.0
H198 H 0.05119 0.66786 0.503 0.0
C199 C 0.05354 0.68112 0.53385 0.0
H200 H 0.06637 0.67079 0.55997 0.0
H201 H 0.12538 0.65347 0.59952 0.0
O202 O 0.13275 0.7893 0.48115 0.0
C203 C 0.1597 0.72379 0.57137 0.0
Co204 Co 0.25225 0.13971 0.48729 0.0
Co205 Co 0.31266 0.12882 0.51467 0.0
C206 C 0.29645 0.15366 0.42246 0.0
O207 O 0.27165 0.15056 0.43218 0.0
O208 O 0.31509 0.14738 0.45137 0.0
C209 C 0.20613 0.16612 0.45813 0.0
O210 O 0.22493 0.1829 0.44365 0.0
C211 C 0.36525 0.10001 0.50915 0.0
C212 C 0.37918 0.1037 0.58201 0.0
C213 C 0.38556 0.09182 0.53964 0.0
N214 N 0.34761 0.11562 0.53281 0.0
N215 N 0.3564 0.11811 0.57608 0.0
C216 C 0.36106 0.09101 0.45989 0.0
H217 H 0.33973 0.09418 0.44921 0.0
H218 H 0.36663 0.06939 0.45587 0.0
H219 H 0.37429 0.10311 0.43665 0.0
C220 C 0.24697 0.08213 0.50473 0.0
N221 N 0.26195 0.10471 0.50338 0.0
N222 N 0.28716 0.09918 0.51454 0.0
C223 C 0.28878 0.07243 0.52409 0.0
C224 C 0.26339 0.06093 0.51817 0.0
C225 C 0.21797 0.08091 0.48995 0.0
H226 H 0.20529 0.09076 0.51697 0.0
H227 H 0.21533 0.09228 0.45694 0.0
H228 H 0.21096 0.05982 0.48475 0.0
O229 O 0.25972 0.16459 0.53817 0.0
O230 O 0.30125 0.15609 0.5631 0.0
H231 H 0.32453 0.07071 0.56622 0.0
H232 H 0.30859 0.03833 0.5564 0.0
C233 C 0.31366 0.05812 0.54036 0.0
H234 H 0.32712 0.05443 0.51017 0.0
H235 H 0.34615 0.12863 0.60221 0.0
O236 O 0.21321 0.14388 0.47663 0.0
C237 C 0.27905 0.16907 0.56613 0.0
Co238 Co 0.86272 0.25283 0.49656 0.0
Co239 Co 0.86991 0.31495 0.51753 0.0
C240 C 0.84596 0.29349 0.42739 0.0
O241 O 0.85055 0.26929 0.43958 0.0
O242 O 0.85113 0.31345 0.45431 0.0
C243 C 0.85461 0.20092 0.45369 0.0
O244 O 0.85218 0.21488 0.41496 0.0
C245 C 0.89594 0.36875 0.50419 0.0
C246 C 0.89008 0.38664 0.57396 0.0
C247 C 0.90218 0.39146 0.53112 0.0
N248 N 0.88143 0.35138 0.53048 0.0
N249 N 0.87779 0.36243 0.57192 0.0
C250 C 0.9027 0.36382 0.45403 0.0
H251 H 0.88831 0.34924 0.43842 0.0
H252 H 0.92325 0.35508 0.45125 0.0
H253 H 0.90222 0.38308 0.43416 0.0
C254 C 0.92054 0.25207 0.51348 0.0
N255 N 0.89703 0.26543 0.5111 0.0
N256 N 0.90083 0.29121 0.52055 0.0
C257 C 0.9273 0.29483 0.53059 0.0
C258 C 0.94053 0.27016 0.52631 0.0
C259 C 0.92381 0.22301 0.49985 0.0
H260 H 0.91606 0.20999 0.52838 0.0
H261 H 0.91172 0.2188 0.46812 0.0
H262 H 0.9452 0.21778 0.49276 0.0
O263 O 0.83725 0.26127 0.54617 0.0
O264 O 0.84315 0.30408 0.56708 0.0
H265 H 0.92565 0.33146 0.57059 0.0
H266 H 0.95909 0.3172 0.56483 0.0
C267 C 0.93963 0.32084 0.54664 0.0
H268 H 0.94359 0.33393 0.51609 0.0
H269 H 0.86755 0.35306 0.59936 0.0
O270 O 0.86089 0.21306 0.49119 0.0
C271 C 0.83139 0.28129 0.57191 0.0
C272 C 0.50946 0.22757 0.96304 0.0
C273 C 0.52661 0.23847 0.99708 0.0
C274 C 0.48327 0.23772 0.95767 0.0
C275 C 0.43049 0.27821 0.01597 0.0
H276 H 0.41055 0.29951 0.89043 0.0
C277 C 0.34143 0.34937 0.98406 0.0
C278 C 0.32325 0.34193 0.94868 0.0
C279 C 0.36651 0.33669 0.98768 0.0
C280 C 0.41569 0.29343 0.9256 0.0
H281 H 0.52995 0.26708 0.05385 0.0
H282 H 0.48419 0.28471 0.04493 0.0
H283 H 0.45241 0.27448 0.90341 0.0
H284 H 0.31782 0.31661 0.88757 0.0
H285 H 0.36158 0.29436 0.89413 0.0
H286 H 0.39394 0.29718 0.03832 0.0
C287 C 0.49076 0.26845 0.02229 0.0
C288 C 0.43959 0.27901 0.933 0.0
C289 C 0.51692 0.25849 0.02733 0.0
C290 C 0.33136 0.32279 0.91525 0.0
C291 C 0.35646 0.31003 0.91899 0.0
C292 C 0.40661 0.29253 0.00858 0.0
C293 C 0.4739 0.25864 0.98669 0.0
C294 C 0.44736 0.27156 0.97834 0.0
C295 C 0.37393 0.31627 0.95609 0.0
C296 C 0.39913 0.30063 0.9634 0.0
H297 H 0.51672 0.21211 0.93938 0.0
H298 H 0.47056 0.22961 0.93029 0.0
H299 H 0.43583 0.27242 0.05121 0.0
H300 H 0.33589 0.36426 0.01007 0.0
H301 H 0.37984 0.34243 0.01595 0.0
C302 C 0.68235 0.33139 0.92866 0.0
C303 C 0.6618 0.32349 0.95959 0.0
C304 C 0.69532 0.35627 0.93416 0.0
C305 C 0.70896 0.40756 0.02481 0.0
H306 H 0.73318 0.45093 0.92026 0.0
C307 C 0.74255 0.51877 0.03824 0.0
C308 C 0.76433 0.52719 0.01059 0.0
C309 C 0.73303 0.4923 0.0352 0.0
C310 C 0.72691 0.43878 0.94976 0.0
H311 H 0.63745 0.33619 0.01856 0.0
H312 H 0.65952 0.37993 0.02728 0.0
H313 H 0.70821 0.40925 0.90587 0.0
H314 H 0.79424 0.51479 0.95996 0.0
H315 H 0.77746 0.46816 0.95426 0.0
H316 H 0.72705 0.43762 0.06864 0.0
C317 C 0.66624 0.36655 -0.00028 0.0
C318 C 0.71253 0.41496 0.94155 0.0
C319 C 0.6534 0.34161 0.99443 0.0
C320 C 0.77749 0.5085 0.98174 0.0
C321 C 0.76776 0.48204 0.97823 0.0
C322 C 0.72313 0.4315 0.033 0.0
C323 C 0.68785 0.37384 0.97048 0.0
C324 C 0.70321 0.39917 0.97899 0.0
C325 C 0.74497 0.47395 0.00401 0.0
C326 C 0.7321 0.4474 0.99556 0.0
H327 H 0.68935 0.31786 0.90152 0.0
H328 H 0.71197 0.36116 0.91117 0.0
H329 H 0.70262 0.39556 0.05445 0.0
H330 H 0.73211 0.53306 0.06053 0.0
H331 H 0.71534 0.48667 0.05523 0.0
C332 C 0.66077 0.65341 0.97324 0.0
C333 C 0.67776 0.66169 0.93666 0.0
C334 C 0.63656 0.66699 0.98184 0.0
C335 C 0.58675 0.71427 0.93206 0.0
H336 H 0.57437 0.73292 0.06174 0.0
C337 C 0.49566 0.77874 0.98471 0.0
C338 C 0.48007 0.76684 0.01995 0.0
C339 C 0.52211 0.76994 0.97694 0.0
C340 C 0.57755 0.72784 0.02541 0.0
H341 H 0.68166 0.68928 0.87819 0.0
H342 H 0.63935 0.71287 0.89318 0.0
H343 H 0.61421 0.70669 0.04035 0.0
H344 H 0.48001 0.73844 0.07724 0.0
H345 H 0.52617 0.72304 0.06402 0.0
H346 H 0.54985 0.735 0.9172 0.0
C347 C 0.64483 0.69601 0.91535 0.0
C348 C 0.60024 0.71268 0.01319 0.0
C349 C 0.66908 0.68248 0.9068 0.0
C350 C 0.49186 0.74784 0.0499 0.0
C351 C 0.51826 0.7391 0.0423 0.0
C352 C 0.56402 0.7294 0.94429 0.0
C353 C 0.6288 0.68899 0.95391 0.0
C354 C 0.60488 0.70543 0.96648 0.0
C355 C 0.53326 0.74924 0.00453 0.0
C356 C 0.55901 0.73606 0.99118 0.0
H357 H 0.66675 0.63733 0.99671 0.0
H358 H 0.62426 0.66073 0.01116 0.0
H359 H 0.58975 0.70886 0.89582 0.0
H360 H 0.48678 0.7934 0.96118 0.0
H361 H 0.53338 0.77842 0.94806 0.0
C362 C 0.23978 0.48494 0.94916 0.0
C363 C 0.23496 0.47264 0.99234 0.0
C364 C 0.25252 0.51008 0.94705 0.0
C365 C 0.30174 0.5492 0.01286 0.0
H366 H 0.2844 0.60635 0.92536 0.0
C367 C 0.35668 0.65215 0.0099 0.0
C368 C 0.36039 0.66493 0.96659 0.0
C369 C 0.34227 0.62796 0.01291 0.0
C370 C 0.28973 0.59038 0.94949 0.0
H371 H 0.23848 0.47674 0.06712 0.0
H372 H 0.26064 0.52106 0.06372 0.0
H373 H 0.25432 0.56747 0.93255 0.0
H374 H 0.35365 0.6613 0.8921 0.0
H375 H 0.32901 0.61872 0.89731 0.0
H376 H 0.33733 0.57182 0.02936 0.0
C377 C 0.25464 0.51133 0.0315 0.0
C378 C 0.27239 0.56824 0.95383 0.0
C379 C 0.24172 0.48624 0.03355 0.0
C380 C 0.35099 0.65207 0.92603 0.0
C381 C 0.33662 0.62782 0.92905 0.0
C382 C 0.31914 0.57127 0.00838 0.0
C383 C 0.26091 0.52307 0.98817 0.0
C384 C 0.27825 0.54743 0.98552 0.0
C385 C 0.33138 0.61596 0.97267 0.0
C386 C 0.31337 0.59207 0.97656 0.0
H387 H 0.23509 0.47438 0.91705 0.0
H388 H 0.2573 0.5185 0.91319 0.0
H389 H 0.30706 0.53318 0.0369 0.0
H390 H 0.36372 0.66148 0.04184 0.0
H391 H 0.33853 0.61941 0.04707 0.0
C392 C 0.00681 0.72572 0.48152 0.0
C393 C 0.02406 0.73751 0.51449 0.0
C394 C 0.98081 0.73608 0.47493 0.0
C395 C 0.9456 0.80077 0.48801 0.0
H396 H 0.88133 0.75952 0.45779 0.0
C397 C 0.8395 0.84791 0.47566 0.0
C398 C 0.82169 0.83784 0.44168 0.0
C399 C 0.86485 0.83615 0.48194 0.0
C400 C 0.89924 0.77129 0.46552 0.0
H401 H 0.02754 0.76745 0.56913 0.0
H402 H 0.98185 0.78515 0.5587 0.0
H403 H 0.92292 0.73583 0.47865 0.0
H404 H 0.81721 0.80874 0.38553 0.0
H405 H 0.86169 0.78843 0.39621 0.0
H406 H 0.92202 0.8362 0.47496 0.0
C407 C 0.98847 0.76847 0.53702 0.0
C408 C 0.92297 0.75773 0.47769 0.0
C409 C 0.01443 0.75822 0.54338 0.0
C410 C 0.83041 0.81688 0.41219 0.0
C411 C 0.85576 0.80507 0.41857 0.0
C412 C 0.92192 0.8143 0.47589 0.0
C413 C 0.97183 0.75829 0.50141 0.0
C414 C 0.94634 0.77235 0.48936 0.0
C415 C 0.87292 0.81411 0.45435 0.0
C416 C 0.89846 0.79973 0.46471 0.0
H417 H 0.01407 0.70984 0.45871 0.0
H418 H 0.96846 0.72784 0.44718 0.0
H419 H 0.96347 0.81261 0.49568 0.0
H420 H 0.83343 0.8641 0.49887 0.0
H421 H 0.87758 0.84351 0.50993 0.0
C422 C 0.23363 0.02444 0.54827 0.0
C423 C 0.25556 0.03228 0.52047 0.0
C424 C 0.22273 0.99854 0.54401 0.0
C425 C 0.23453 0.93052 0.49303 0.0
H426 H 0.15617 0.92838 0.48847 0.0
C427 C 0.17775 0.83758 0.42485 0.0
C428 C 0.15697 0.8278 0.45369 0.0
C429 C 0.18882 0.86313 0.43249 0.0
C430 C 0.17804 0.92865 0.48998 0.0
H431 H 0.28431 0.01933 0.46828 0.0
H432 H 0.26513 0.97403 0.46013 0.0
H433 H 0.17906 0.97073 0.50669 0.0
H434 H 0.13024 0.8379 0.51111 0.0
H435 H 0.14954 0.88268 0.52422 0.0
H436 H 0.23341 0.88848 0.47549 0.0
C437 C 0.25648 0.98761 0.48571 0.0
C438 C 0.19119 0.95284 0.5007 0.0
C439 C 0.2675 0.01349 0.4903 0.0
C440 C 0.14629 0.84481 0.48838 0.0
C441 C 0.15732 0.87046 0.49589 0.0
C442 C 0.22137 0.90638 0.48202 0.0
C443 C 0.23345 0.98014 0.51152 0.0
C444 C 0.21959 0.95407 0.50227 0.0
C445 C 0.17924 0.8795 0.46891 0.0
C446 C 0.19302 0.90524 0.48021 0.0
H447 H 0.22426 0.03874 0.57189 0.0
H448 H 0.20541 0.99321 0.56519 0.0
H449 H 0.25639 0.93068 0.49457 0.0
H450 H 0.18628 0.82508 0.39755 0.0
H451 H 0.20533 0.86985 0.41056 0.0
C452 C 0.15885 0.16108 0.48762 0.0
C453 C 0.17776 0.17516 0.4603 0.0
C454 C 0.13319 0.17189 0.49537 0.0
C455 C 0.09765 0.23745 0.49547 0.0
H456 H 0.03354 0.19267 0.50364 0.0
C457 C 0.98805 0.27844 0.50152 0.0
C458 C 0.96962 0.26434 0.52957 0.0
C459 C 0.01461 0.2692 0.49712 0.0
C460 C 0.05135 0.20538 0.50212 0.0
H461 H 0.18409 0.21068 0.4173 0.0
H462 H 0.13906 0.22917 0.42984 0.0
H463 H 0.07668 0.17206 0.48359 0.0
H464 H 0.96458 0.23121 0.57806 0.0
H465 H 0.01108 0.21511 0.57078 0.0
H466 H 0.07207 0.27085 0.51332 0.0
C467 C 0.14432 0.21021 0.4464 0.0
C468 C 0.07604 0.19358 0.49051 0.0
C469 C 0.17003 0.19949 0.43889 0.0
C470 C 0.97851 0.24217 0.55587 0.0
C471 C 0.00498 0.2329 0.55145 0.0
C472 C 0.07289 0.24928 0.50684 0.0
C473 C 0.12586 0.19688 0.47568 0.0
C474 C 0.09948 0.20947 0.48706 0.0
C475 C 0.02299 0.24573 0.52073 0.0
C476 C 0.04952 0.23334 0.51038 0.0
H477 H 0.16424 0.14231 0.50471 0.0
H478 H 0.1195 0.16119 0.51835 0.0
H479 H 0.11543 0.25019 0.49394 0.0
H480 H 0.98148 0.29551 0.48075 0.0
H481 H 0.02805 0.27944 0.47312 0.0
C482 C 0.84383 0.15903 0.49875 0.0
C483 C 0.8453 0.17255 0.4557 0.0
C484 C 0.83108 0.13394 0.50213 0.0
C485 C 0.80727 0.07538 0.43466 0.0
H486 H 0.75509 0.06821 0.5349 0.0
C487 C 0.73705 0.98346 0.44437 0.0
C488 C 0.73438 0.97143 0.4883 0.0
C489 C 0.74851 0.00911 0.44017 0.0
C490 C 0.76974 0.06979 0.50698 0.0
H491 H 0.83596 0.16959 0.38196 0.0
H492 H 0.81385 0.12562 0.38789 0.0
H493 H 0.78166 0.10957 0.52799 0.0
H494 H 0.74069 0.97636 0.56236 0.0
H495 H 0.76106 0.02128 0.55535 0.0
H496 H 0.79572 0.03552 0.41395 0.0
C497 C 0.82248 0.13454 0.41901 0.0
C498 C 0.78499 0.09344 0.50308 0.0
C499 C 0.83512 0.15973 0.41564 0.0
C500 C 0.74223 0.98567 0.52826 0.0
C501 C 0.75388 0.01129 0.52412 0.0
C502 C 0.79214 0.05167 0.4387 0.0
C503 C 0.81971 0.12176 0.4625 0.0
C504 C 0.80393 0.09645 0.46692 0.0
C505 C 0.75783 0.02298 0.47987 0.0
C506 C 0.77318 0.04861 0.47488 0.0
H507 H 0.85162 0.16826 0.53027 0.0
H508 H 0.82967 0.12429 0.53594 0.0
H509 H 0.82191 0.07705 0.40673 0.0
H510 H 0.73129 0.97252 0.41317 0.0
H511 H 0.75078 0.01776 0.4057 0.0
C512 C 0.31735 0.19226 0.37985 0.0
C513 C 0.30213 0.16833 0.37893 0.0
C514 C 0.31364 0.21187 0.34512 0.0
C515 C 0.27678 0.22579 0.23294 0.0
H516 H 0.26743 0.29704 0.28723 0.0
C517 C 0.2138 0.30807 0.14217 0.0
C518 C 0.22844 0.33185 0.13351 0.0
C519 C 0.22361 0.289 0.17404 0.0
C520 C 0.27001 0.27724 0.27166 0.0
H521 H 0.27361 0.14467 0.33886 0.0
H522 H 0.26711 0.17838 0.27885 0.0
H523 H 0.28786 0.26103 0.33345 0.0
H524 H 0.26346 0.35543 0.15356 0.0
H525 H 0.27993 0.32267 0.21063 0.0
H526 H 0.25784 0.24193 0.17181 0.0
C527 C 0.28193 0.18242 0.3057 0.0
C528 C 0.28207 0.25665 0.29785 0.0
C529 C 0.28568 0.16295 0.34017 0.0
C530 C 0.25172 0.3373 0.15996 0.0
C531 C 0.26119 0.31854 0.19243 0.0
C532 C 0.26434 0.24624 0.20711 0.0
C533 C 0.29468 0.20777 0.30909 0.0
C534 C 0.28534 0.23053 0.27903 0.0
C535 C 0.24787 0.29374 0.1983 0.0
C536 C 0.26057 0.27206 0.2264 0.0
H537 H 0.32996 0.19699 0.40964 0.0
H538 H 0.32433 0.2309 0.34816 0.0
H539 H 0.27938 0.20614 0.21689 0.0
H540 H 0.19604 0.30325 0.12171 0.0
H541 H 0.21285 0.27009 0.17836 0.0
C542 C 0.69088 0.20849 0.14296 0.0
C543 C 0.66738 0.22369 0.13544 0.0
C544 C 0.70992 0.21703 0.17595 0.0
C545 C 0.73126 0.28047 0.23486 0.0
H546 H 0.77922 0.2325 0.3022 0.0
C547 C 0.80648 0.31106 0.38282 0.0
C548 C 0.83101 0.29683 0.38346 0.0
C549 C 0.78712 0.30536 0.34848 0.0
C550 C 0.76612 0.24615 0.28316 0.0
H551 H 0.64402 0.25812 0.15882 0.0
H552 H 0.67633 0.27213 0.21812 0.0
H553 H 0.74241 0.21352 0.25635 0.0
H554 H 0.85598 0.26807 0.34621 0.0
H555 H 0.82258 0.25858 0.28602 0.0
H556 H 0.75482 0.31311 0.26293 0.0
C557 C 0.68081 0.25436 0.19745 0.0
C558 C 0.745 0.23526 0.2569 0.0
C559 C 0.66208 0.2461 0.16404 0.0
C560 C 0.83716 0.27929 0.34643 0.0
C561 C 0.81794 0.2736 0.31235 0.0
C562 C 0.75222 0.29137 0.26165 0.0
C563 C 0.70555 0.24071 0.20234 0.0
C564 C 0.72735 0.25225 0.23218 0.0
C565 C 0.7922 0.28538 0.31462 0.0
C566 C 0.77001 0.27429 0.28567 0.0
H567 H 0.69559 0.1914 0.12077 0.0
H568 H 0.72877 0.20603 0.17854 0.0
H569 H 0.71846 0.29422 0.21553 0.0
H570 H 0.80114 0.32439 0.41136 0.0
H571 H 0.76743 0.31481 0.35085 0.0
C572 C 0.78399 0.68898 0.13892 0.0
C573 C 0.76609 0.68035 0.10389 0.0
C574 C 0.77481 0.70574 0.17521 0.0
C575 C 0.71867 0.75276 0.2043 0.0
H576 H 0.74111 0.74126 0.33215 0.0
C577 C 0.69857 0.82907 0.35257 0.0
C578 C 0.69463 0.81912 0.3978 0.0
C579 C 0.70375 0.81135 0.3157 0.0
C580 C 0.73434 0.74449 0.29669 0.0
H581 H 0.72432 0.68233 0.08027 0.0
H582 H 0.70865 0.71073 0.14293 0.0
H583 H 0.75924 0.71241 0.27054 0.0
H584 H 0.69195 0.78307 0.44014 0.0
H585 H 0.70005 0.7518 0.37539 0.0
H586 H 0.69346 0.78449 0.23033 0.0
C587 C 0.72983 0.70521 0.14219 0.0
C588 C 0.74511 0.72825 0.26129 0.0
C589 C 0.73891 0.68868 0.10623 0.0
C590 C 0.69417 0.7911 0.40521 0.0
C591 C 0.69939 0.7733 0.36834 0.0
C592 C 0.70789 0.76893 0.23962 0.0
C593 C 0.7476 0.71416 0.17698 0.0
C594 C 0.73732 0.73213 0.21467 0.0
C595 C 0.70535 0.7833 0.32356 0.0
C596 C 0.71556 0.76502 0.28627 0.0
H597 H 0.80501 0.6829 0.13824 0.0
H598 H 0.78906 0.71241 0.20145 0.0
H599 H 0.71247 0.75655 0.16869 0.0
H600 H 0.69988 0.85066 0.34647 0.0
H601 H 0.70849 0.8198 0.28186 0.0
C602 C 0.30308 0.78577 0.12853 0.0
C603 C 0.32662 0.77039 0.1223 0.0
C604 C 0.28358 0.7776 0.16113 0.0
C605 C 0.27218 0.73438 0.26436 0.0
H606 H 0.19908 0.7281 0.21703 0.0
C607 C 0.18893 0.68796 0.37856 0.0
C608 C 0.16545 0.70379 0.38067 0.0
C609 C 0.20779 0.69219 0.34277 0.0
C610 C 0.21935 0.72984 0.23093 0.0
H611 H 0.3492 0.73567 0.14692 0.0
H612 H 0.31571 0.72193 0.20436 0.0
H613 H 0.23431 0.74744 0.16772 0.0
H614 H 0.14193 0.73444 0.34522 0.0
H615 H 0.17438 0.74177 0.28331 0.0
H616 H 0.25727 0.71746 0.32793 0.0
C617 C 0.31204 0.74003 0.18406 0.0
C618 C 0.23947 0.74108 0.20274 0.0
C619 C 0.33119 0.74789 0.15114 0.0
C620 C 0.15987 0.72189 0.34421 0.0
C621 C 0.17855 0.72608 0.30862 0.0
C622 C 0.25202 0.72338 0.29273 0.0
C623 C 0.28766 0.75427 0.18843 0.0
C624 C 0.26607 0.74359 0.21924 0.0
C625 C 0.20333 0.71224 0.30862 0.0
C626 C 0.22528 0.7211 0.27651 0.0
H627 H 0.29901 0.80303 0.10636 0.0
H628 H 0.26504 0.78909 0.16419 0.0
H629 H 0.29252 0.73611 0.27802 0.0
H630 H 0.19379 0.67409 0.40655 0.0
H631 H 0.22646 0.68079 0.34323 0.0
C632 C 0.71568 0.8044 0.63417 0.0
C633 C 0.72996 0.82803 0.62298 0.0
C634 C 0.72616 0.78629 0.66706 0.0
C635 C 0.77163 0.77757 0.76557 0.0
H636 H 0.78542 0.70622 0.71477 0.0
C637 C 0.81819 0.69515 0.88166 0.0
C638 C 0.80451 0.67035 0.87899 0.0
C639 C 0.81468 0.71459 0.8465 0.0
C640 C 0.78153 0.72593 0.7298 0.0
H641 H 0.76523 0.85225 0.63903 0.0
H642 H 0.78283 0.82121 0.69813 0.0
H643 H 0.76373 0.74044 0.66645 0.0
H644 H 0.7788 0.64525 0.83595 0.0
H645 H 0.77251 0.67862 0.77551 0.0
H646 H 0.78809 0.7629 0.82966 0.0
C647 C 0.76387 0.81649 0.68107 0.0
C648 C 0.76907 0.74548 0.70204 0.0
C649 C 0.75378 0.83422 0.64744 0.0
C650 C 0.7897 0.66421 0.83864 0.0
C651 C 0.7861 0.68349 0.80385 0.0
C652 C 0.7836 0.75782 0.79378 0.0
C653 C 0.75069 0.79192 0.68991 0.0
C654 C 0.76371 0.77134 0.71985 0.0
C655 C 0.79741 0.70946 0.80834 0.0
C656 C 0.78837 0.73156 0.77649 0.0
H657 H 0.69751 0.79904 0.61522 0.0
H658 H 0.71561 0.76747 0.67357 0.0
H659 H 0.76785 0.79748 0.77991 0.0
H660 H 0.82948 0.70046 0.91269 0.0
H661 H 0.82426 0.73413 0.85059 0.0
C662 C 0.19629 0.70967 0.6272 0.0
C663 C 0.17767 0.72899 0.6115 0.0
C664 C 0.21525 0.71649 0.6616 0.0
C665 C 0.2473 0.77711 0.7162 0.0
H666 H 0.2724 0.7249 0.80701 0.0
C667 C 0.31401 0.80108 0.88006 0.0
C668 C 0.33464 0.78225 0.88873 0.0
C669 C 0.29565 0.79667 0.8435 0.0
C670 C 0.26566 0.73965 0.78164 0.0
H671 H 0.16306 0.76996 0.62134 0.0
H672 H 0.19505 0.7814 0.68222 0.0
H673 H 0.23777 0.71181 0.75107 0.0
H674 H 0.35395 0.7457 0.86341 0.0
H675 H 0.32217 0.73814 0.80022 0.0
H676 H 0.27496 0.80508 0.7479 0.0
C677 C 0.19601 0.7614 0.66695 0.0
C678 C 0.2459 0.73212 0.74942 0.0
C679 C 0.17747 0.75474 0.63228 0.0
C680 C 0.33792 0.76029 0.85812 0.0
C681 C 0.31968 0.75587 0.82203 0.0
C682 C 0.26685 0.78474 0.74888 0.0
C683 C 0.2156 0.74264 0.68135 0.0
C684 C 0.23652 0.75069 0.71608 0.0
C685 C 0.29777 0.77338 0.81545 0.0
C686 C 0.27639 0.76599 0.78161 0.0
H687 H 0.19695 0.68973 0.61157 0.0
H688 H 0.23015 0.70155 0.67155 0.0
H689 H 0.24098 0.79186 0.69054 0.0
H690 H 0.31099 0.81811 0.90324 0.0
H691 H 0.27894 0.81056 0.83891 0.0
C692 C 0.2548 0.20918 0.59735 0.0
C693 C 0.27407 0.18866 0.60405 0.0
C694 C 0.24623 0.22516 0.63453 0.0
C695 C 0.26195 0.24463 0.75655 0.0
H696 H 0.1852 0.2608 0.76098 0.0
C697 C 0.21513 0.28926 0.92021 0.0
C698 C 0.20095 0.31354 0.91368 0.0
C699 C 0.22083 0.27245 0.88253 0.0
C700 C 0.20666 0.25654 0.76003 0.0
H701 H 0.30033 0.16952 0.65454 0.0
H702 H 0.28501 0.1972 0.72016 0.0
H703 H 0.20367 0.23567 0.69495 0.0
H704 H 0.1799 0.33851 0.86358 0.0
H705 H 0.18951 0.30864 0.79702 0.0
H706 H 0.26479 0.26512 0.82204 0.0
C707 C 0.27676 0.20119 0.68589 0.0
C708 C 0.21734 0.24228 0.72213 0.0
C709 C 0.28561 0.18533 0.64835 0.0
C710 C 0.19042 0.31961 0.8695 0.0
C711 C 0.19615 0.30266 0.83149 0.0
C712 C 0.25123 0.25863 0.79457 0.0
C713 C 0.25644 0.22085 0.6796 0.0
C714 C 0.24516 0.23617 0.71988 0.0
C715 C 0.21256 0.27964 0.83744 0.0
C716 C 0.22347 0.26465 0.7968 0.0
H717 H 0.24575 0.21242 0.56341 0.0
H718 H 0.23119 0.24061 0.62801 0.0
H719 H 0.28348 0.24076 0.75568 0.0
H720 H 0.22359 0.2843 0.95399 0.0
H721 H 0.23302 0.25457 0.88828 0.0
C722 C 0.67824 0.19012 0.8692 0.0
C723 C 0.68416 0.20122 0.913 0.0
C724 C 0.69533 0.19532 0.83117 0.0
C725 C 0.76227 0.22543 0.79863 0.0
H726 H 0.72388 0.24871 0.68788 0.0
C727 C 0.81446 0.28751 0.65374 0.0
C728 C 0.81121 0.27662 0.6089 0.0
C729 C 0.79819 0.27837 0.69054 0.0
C730 C 0.73487 0.2422 0.71855 0.0
H731 H 0.7132 0.22456 0.95261 0.0
H732 H 0.74282 0.23348 0.8872 0.0
H733 H 0.69893 0.22796 0.75192 0.0
H734 H 0.7874 0.2492 0.56653 0.0
H735 H 0.75878 0.23382 0.6302 0.0
H736 H 0.79811 0.24033 0.76552 0.0
C737 C 0.72537 0.22068 0.88152 0.0
C738 C 0.72064 0.23001 0.75504 0.0
C739 C 0.70837 0.21558 0.91914 0.0
C740 C 0.79036 0.25788 0.60086 0.0
C741 C 0.77392 0.2491 0.63727 0.0
C742 C 0.77643 0.23785 0.76233 0.0
C743 C 0.71855 0.2116 0.83664 0.0
C744 C 0.73412 0.22164 0.79573 0.0
C745 C 0.77817 0.25861 0.68276 0.0
C746 C 0.76286 0.24651 0.72204 0.0
H747 H 0.65947 0.17932 0.86357 0.0
H748 H 0.68973 0.18766 0.79715 0.0
H749 H 0.77339 0.21891 0.82914 0.0
H750 H 0.83051 0.30183 0.66087 0.0
H751 H 0.80167 0.28624 0.72527 0.0
C752 C 0.91541 0.55582 0.06853 0.0
C753 C 0.91002 0.57447 0.03285 0.0
C754 C 0.93639 0.53714 0.06421 0.0
C755 C 0.9839 0.50527 0.97934 0.0
H756 H 0.02237 0.48731 0.09296 0.0
C757 C 0.08413 0.44167 0.99187 0.0
C758 C 0.0846 0.42209 0.02752 0.0
C759 C 0.06216 0.45945 0.98748 0.0
C760 C 0.01171 0.49196 0.06096 0.0
H761 H 0.92261 0.5883 0.9646 0.0
H762 H 0.95991 0.55599 0.95732 0.0
H763 H 0.98642 0.52065 0.09522 0.0
H764 H 0.06178 0.40531 0.08523 0.0
H765 H 0.02386 0.43637 0.07784 0.0
H766 H 0.01015 0.47679 0.94517 0.0
C767 C 0.94742 0.55536 0.98829 0.0
C768 C 0.99095 0.51103 0.06222 0.0
C769 C 0.92605 0.57392 0.99242 0.0
C770 C 0.06219 0.42016 0.05747 0.0
C771 C 0.04046 0.43801 0.05336 0.0
C772 C 0.00506 0.48634 0.978 0.0
C773 C 0.95304 0.53687 0.02442 0.0
C774 C 0.97633 0.51763 0.02168 0.0
C775 C 0.04047 0.45827 0.01907 0.0
C776 C 0.01883 0.47916 0.01903 0.0
H777 H 0.90319 0.55548 0.09987 0.0
H778 H 0.93945 0.52281 0.09225 0.0
H779 H 0.97308 0.50967 0.94744 0.0
H780 H 0.10126 0.4444 0.969 0.0
H781 H 0.06279 0.47503 0.96095 0.0
C782 C 0.5442 0.08733 0.05222 0.0
C783 C 0.56712 0.0899 0.02379 0.0
C784 C 0.52583 0.06634 0.04526 0.0
C785 C 0.5043 0.01178 0.96327 0.0
H786 H 0.47405 0.98209 0.07702 0.0
C787 C 0.4417 0.91095 0.98006 0.0
C788 C 0.41871 0.91249 0.00889 0.0
C789 C 0.45913 0.93321 0.97551 0.0
C790 C 0.48213 0.99028 0.04488 0.0
H791 H 0.58855 0.07291 0.96493 0.0
H792 H 0.55674 0.03532 0.95345 0.0
H793 H 0.50629 0.01892 0.08154 0.0
H794 H 0.3955 0.93903 0.05379 0.0
H795 H 0.42589 0.97752 0.04617 0.0
H796 H 0.48037 0.98209 0.92703 0.0
C797 C 0.55267 0.04995 0.98064 0.0
C798 C 0.50058 0.01155 0.04737 0.0
C799 C 0.57094 0.07141 0.9872 0.0
C800 C 0.41304 0.93709 0.03143 0.0
C801 C 0.43049 0.95914 0.02718 0.0
C802 C 0.48597 0.9901 0.96083 0.0
C803 C 0.53013 0.04684 0.0103 0.0
C804 C 0.51157 0.02304 0.00666 0.0
C805 C 0.4541 0.95725 0.00022 0.0
C806 C 0.47435 0.97948 0.00166 0.0
H807 H 0.54049 0.10158 0.0802 0.0
H808 H 0.50832 0.0653 0.06782 0.0
H809 H 0.51225 0.02009 0.93115 0.0
H810 H 0.44723 0.8922 0.96324 0.0
H811 H 0.47732 0.93111 0.95482 0.0
C812 C 0.41262 0.0529 0.56866 0.0
C813 C 0.40721 0.07145 0.53284 0.0
C814 C 0.4337 0.03433 0.5646 0.0
C815 C 0.48193 0.00274 0.48069 0.0
H816 H 0.52062 0.9864 0.59483 0.0
C817 C 0.58325 0.94131 0.49354 0.0
C818 C 0.58433 0.92193 0.52947 0.0
C819 C 0.56096 0.95869 0.48935 0.0
C820 C 0.5099 0.99057 0.5627 0.0
H821 H 0.41976 0.08511 0.46447 0.0
H822 H 0.45724 0.05296 0.45761 0.0
H823 H 0.48392 0.01893 0.59627 0.0
H824 H 0.56236 0.90529 0.58828 0.0
H825 H 0.52389 0.9357 0.58128 0.0
H826 H 0.50884 0.97462 0.4472 0.0
C827 C 0.4447 0.05235 0.48852 0.0
C828 C 0.48871 0.00919 0.56349 0.0
C829 C 0.42322 0.0708 0.49239 0.0
C830 C 0.56229 0.91997 0.56024 0.0
C831 C 0.54024 0.93744 0.55634 0.0
C832 C 0.50349 0.98427 0.47982 0.0
C833 C 0.45044 0.03408 0.52493 0.0
C834 C 0.47404 0.01522 0.52273 0.0
C835 C 0.53955 0.95736 0.52147 0.0
C836 C 0.51738 0.97768 0.52104 0.0
H837 H 0.40042 0.05266 0.60003 0.0
H838 H 0.43685 0.02014 0.59282 0.0
H839 H 0.47108 0.00672 0.44865 0.0
H840 H 0.60009 0.94415 0.47009 0.0
H841 H 0.5611 0.97404 0.46242 0.0
C842 C 0.07211 0.57375 0.48841 0.0
C843 C 0.07137 0.59065 0.52775 0.0
C844 C 0.05378 0.55216 0.48409 0.0
C845 C 0.00704 0.51045 0.55728 0.0
H846 H 0.97799 0.4867 0.43858 0.0
C847 C 0.916 0.43921 0.54679 0.0
C848 C 0.91972 0.41529 0.52099 0.0
C849 C 0.93421 0.46068 0.54301 0.0
C850 C 0.98609 0.49309 0.47189 0.0
H851 H 0.0502 0.59911 0.59219 0.0
H852 H 0.01779 0.56266 0.58395 0.0
H853 H 0.01036 0.52424 0.44093 0.0
H854 H 0.94602 0.39564 0.47064 0.0
H855 H 0.97708 0.43369 0.46268 0.0
H856 H 0.98217 0.47994 0.58828 0.0
C857 C 0.03303 0.56502 0.55719 0.0
C858 C 0.00473 0.51451 0.47331 0.0
C859 C 0.05153 0.58614 0.56182 0.0
C860 C 0.94175 0.41388 0.48994 0.0
C861 C 0.95982 0.43564 0.48566 0.0
C862 C 0.98817 0.48948 0.55588 0.0
C863 C 0.03417 0.5473 0.51881 0.0
C864 C 0.01523 0.52372 0.51618 0.0
C865 C 0.95656 0.45897 0.51304 0.0
C866 C 0.97728 0.48073 0.51331 0.0
H867 H 0.08735 0.57666 0.4618 0.0
H868 H 0.05549 0.53891 0.4542 0.0
H869 H 0.01523 0.51619 0.59085 0.0
H870 H 0.89931 0.44111 0.571 0.0
H871 H 0.93108 0.47853 0.56428 0.0
loop_
_geom_bond_atom_site_label_1
_geom_bond_atom_site_label_2
_geom_bond_distance
_geom_bond_site_symmetry_2
_ccdc_geom_bond_type
Co0 O3 1.970 1_554 S
Co0 N17 1.989 . S
Co0 O25 1.967 . S
Co0 O32 1.920 . S
Co1 O4 1.966 1_554 S
Co1 N10 2.022 . S
Co1 N18 1.993 . S
Co1 O26 1.941 . S
C2 O3 1.258 . S
C2 O4 1.263 . S
O3 Co0 1.970 1_556 S
O3 C2 1.258 . S
O4 Co1 1.966 1_556 S
O4 C2 1.263 . S
C5 O6 1.235 . S
C5 O32 1.289 1_556 S
O6 C5 1.235 . S
C7 C9 1.400 . S
C7 N10 1.351 1_556 S
C7 C12 1.501 . S
C8 C9 1.387 1_554 S
C8 N11 1.341 . S
C9 C7 1.400 . S
C9 C8 1.387 1_556 S
N10 Co1 2.022 . S
N10 C7 1.351 1_554 S
N10 N11 1.365 . S
N11 C8 1.341 . S
N11 N10 1.365 . S
N11 H31 0.862 . S
C12 C7 1.501 . S
C12 H13 0.961 . S
C12 H14 0.961 . S
C12 H15 0.960 . S
H13 C12 0.961 . S
H14 C12 0.961 . S
H15 C12 0.960 . S
C16 N17 1.342 . S
C16 C20 1.401 . S
C16 C21 1.499 . S
N17 Co0 1.989 . S
N17 C16 1.342 . S
N17 N18 1.388 . S
N18 Co1 1.993 . S
N18 N17 1.388 . S
N18 C19 1.346 . S
C19 N18 1.346 . S
C19 C20 1.396 . S
C19 C29 1.510 . S
C20 C16 1.401 . S
C20 C19 1.396 . S
C21 C16 1.499 . S
C21 H22 0.959 . S
C21 H23 0.960 1_554 S
C21 H24 0.961 . S
H22 C21 0.959 . S
H23 C21 0.960 1_556 S
H24 C21 0.961 . S
O25 Co0 1.967 . S
O25 C33 1.258 . S
O26 Co1 1.941 . S
O26 C33 1.266 . S
H27 C29 0.959 . S
H28 C29 0.961 1_556 S
C29 C19 1.510 . S
C29 H27 0.959 . S
C29 H28 0.961 1_554 S
C29 H30 0.960 . S
H30 C29 0.960 . S
H31 N11 0.862 . S
O32 Co0 1.920 . S
O32 C5 1.289 1_554 S
C33 O25 1.258 . S
C33 O26 1.266 . S
Co34 O37 1.970 1_554 S
Co34 N51 1.989 . S
Co34 O59 1.967 . S
Co34 O66 1.920 . S
Co35 O38 1.966 1_554 S
Co35 N44 2.022 . S
Co35 N52 1.993 . S
Co35 O60 1.941 . S
C36 O37 1.258 . S
C36 O38 1.263 . S
O37 Co34 1.970 1_556 S
O37 C36 1.258 . S
O38 Co35 1.966 1_556 S
O38 C36 1.263 . S
C39 O40 1.235 . S
C39 O66 1.289 1_556 S
O40 C39 1.235 . S
C41 C43 1.400 . S
C41 N44 1.351 1_556 S
C41 C46 1.501 . S
C42 C43 1.387 1_554 S
C42 N45 1.341 . S
C43 C41 1.400 . S
C43 C42 1.387 1_556 S
N44 Co35 2.022 . S
N44 C41 1.351 1_554 S
N44 N45 1.365 . S
N45 C42 1.341 . S
N45 N44 1.365 . S
N45 H65 0.862 . S
C46 C41 1.501 . S
C46 H47 0.961 . S
C46 H48 0.961 . S
C46 H49 0.960 . S
H47 C46 0.961 . S
H48 C46 0.961 . S
H49 C46 0.960 . S
C50 N51 1.342 . S
C50 C54 1.401 . S
C50 C55 1.499 . S
N51 Co34 1.989 . S
N51 C50 1.342 . S
N51 N52 1.388 . S
N52 Co35 1.993 . S
N52 N51 1.388 . S
N52 C53 1.346 . S
C53 N52 1.346 . S
C53 C54 1.396 . S
C53 C63 1.510 . S
C54 C50 1.401 . S
C54 C53 1.396 . S
C55 C50 1.499 . S
C55 H56 0.959 . S
C55 H57 0.960 1_554 S
C55 H58 0.961 . S
H56 C55 0.959 . S
H57 C55 0.960 1_556 S
H58 C55 0.961 . S
O59 Co34 1.967 . S
O59 C67 1.258 . S
O60 Co35 1.941 . S
O60 C67 1.266 . S
H61 C63 0.959 . S
H62 C63 0.961 1_556 S
C63 C53 1.510 . S
C63 H61 0.959 . S
C63 H62 0.961 1_554 S
C63 H64 0.960 . S
H64 C63 0.960 . S
H65 N45 0.862 . S
O66 Co34 1.920 . S
O66 C39 1.289 1_554 S
C67 O59 1.258 . S
C67 O60 1.266 . S
Co68 O71 1.970 1_554 S
Co68 N85 1.989 . S
Co68 O93 1.967 . S
Co68 O100 1.920 . S
Co69 O72 1.966 1_554 S
Co69 N78 2.022 . S
Co69 N86 1.993 . S
Co69 O94 1.941 . S
C70 O71 1.258 . S
C70 O72 1.263 . S
O71 Co68 1.970 1_556 S
O71 C70 1.258 . S
O72 Co69 1.966 1_556 S
O72 C70 1.263 . S
C73 O74 1.235 . S
C73 O100 1.289 1_556 S
O74 C73 1.235 . S
C75 C77 1.400 . S
C75 N78 1.351 1_556 S
C75 C80 1.501 . S
C76 C77 1.387 1_554 S
C76 N79 1.341 . S
C77 C75 1.400 . S
C77 C76 1.387 1_556 S
N78 Co69 2.022 . S
N78 C75 1.351 1_554 S
N78 N79 1.365 . S
N79 C76 1.341 . S
N79 N78 1.365 . S
N79 H99 0.862 . S
C80 C75 1.501 . S
C80 H81 0.961 . S
C80 H82 0.961 . S
C80 H83 0.960 . S
H81 C80 0.961 . S
H82 C80 0.961 . S
H83 C80 0.960 . S
C84 N85 1.342 . S
C84 C88 1.401 . S
C84 C89 1.499 . S
N85 Co68 1.989 . S
N85 C84 1.342 . S
N85 N86 1.388 . S
N86 Co69 1.993 . S
N86 N85 1.388 . S
N86 C87 1.346 . S
C87 N86 1.346 . S
C87 C88 1.396 . S
C87 C97 1.510 . S
C88 C84 1.401 . S
C88 C87 1.396 . S
C89 C84 1.499 . S
C89 H90 0.959 . S
C89 H91 0.960 1_554 S
C89 H92 0.961 . S
H90 C89 0.959 . S
H91 C89 0.960 1_556 S
H92 C89 0.961 . S
O93 Co68 1.967 . S
O93 C101 1.258 . S
O94 Co69 1.941 . S
O94 C101 1.266 . S
H95 C97 0.959 . S
H96 C97 0.961 1_556 S
C97 C87 1.510 . S
C97 H95 0.959 . S
C97 H96 0.961 1_554 S
C97 H98 0.960 . S
H98 C97 0.960 . S
H99 N79 0.862 . S
O100 Co68 1.920 . S
O100 C73 1.289 1_554 S
C101 O93 1.258 . S
C101 O94 1.266 . S
Co102 O105 1.970 1_554 S
Co102 N119 1.989 . S
Co102 O127 1.967 . S
Co102 O134 1.920 . S
Co103 O106 1.966 1_554 S
Co103 N112 2.022 . S
Co103 N120 1.993 . S
Co103 O128 1.941 . S
C104 O105 1.258 . S
C104 O106 1.263 . S
O105 Co102 1.970 1_556 S
O105 C104 1.258 . S
O106 Co103 1.966 1_556 S
O106 C104 1.263 . S
C107 O108 1.235 . S
C107 O134 1.289 1_556 S
O108 C107 1.235 . S
C109 C111 1.400 . S
C109 N112 1.351 1_556 S
C109 C114 1.501 . S
C110 C111 1.387 1_554 S
C110 N113 1.341 . S
C111 C109 1.400 . S
C111 C110 1.387 1_556 S
N112 Co103 2.022 . S
N112 C109 1.351 1_554 S
N112 N113 1.365 . S
N113 C110 1.341 . S
N113 N112 1.365 . S
N113 H133 0.862 . S
C114 C109 1.501 . S
C114 H115 0.961 . S
C114 H116 0.961 . S
C114 H117 0.960 . S
H115 C114 0.961 . S
H116 C114 0.961 . S
H117 C114 0.960 . S
C118 N119 1.342 . S
C118 C122 1.401 . S
C118 C123 1.499 . S
N119 Co102 1.989 . S
N119 C118 1.342 . S
N119 N120 1.388 . S
N120 Co103 1.993 . S
N120 N119 1.388 . S
N120 C121 1.346 . S
C121 N120 1.346 . S
C121 C122 1.396 . S
C121 C131 1.510 . S
C122 C118 1.401 . S
C122 C121 1.396 . S
C123 C118 1.499 . S
C123 H124 0.959 . S
C123 H125 0.960 1_554 S
C123 H126 0.961 . S
H124 C123 0.959 . S
H125 C123 0.960 1_556 S
H126 C123 0.961 . S
O127 Co102 1.967 . S
O127 C135 1.258 . S
O128 Co103 1.941 . S
O128 C135 1.266 . S
H129 C131 0.959 . S
H130 C131 0.961 1_556 S
C131 C121 1.510 . S
C131 H129 0.959 . S
C131 H130 0.961 1_554 S
C131 H132 0.960 . S
H132 C131 0.960 . S
H133 N113 0.862 . S
O134 Co102 1.920 . S
O134 C107 1.289 1_554 S
C135 O127 1.258 . S
C135 O128 1.266 . S
Co136 O139 1.970 . S
Co136 N153 1.989 . S
Co136 O161 1.967 . S
Co136 O168 1.920 . S
Co137 O140 1.966 . S
Co137 N146 2.022 . S
Co137 N154 1.993 . S
Co137 O162 1.941 . S
C138 O139 1.258 . S
C138 O140 1.263 . S
O139 Co136 1.970 . S
O139 C138 1.258 . S
O140 Co137 1.966 . S
O140 C138 1.263 . S
C141 O142 1.235 . S
C141 O168 1.289 . S
O142 C141 1.235 . S
C143 C145 1.400 . S
C143 N146 1.351 . S
C143 C148 1.501 . S
C144 C145 1.387 . S
C144 N147 1.341 . S
C145 C143 1.400 . S
C145 C144 1.387 . S
N146 Co137 2.022 . S
N146 C143 1.351 . S
N146 N147 1.365 . S
N147 C144 1.341 . S
N147 N146 1.365 . S
N147 H167 0.862 . S
C148 C143 1.501 . S
C148 H149 0.961 . S
C148 H150 0.961 . S
C148 H151 0.960 . S
H149 C148 0.961 . S
H150 C148 0.961 . S
H151 C148 0.960 . S
C152 N153 1.342 . S
C152 C156 1.401 . S
C152 C157 1.499 . S
N153 Co136 1.989 . S
N153 C152 1.342 . S
N153 N154 1.388 . S
N154 Co137 1.993 . S
N154 N153 1.388 . S
N154 C155 1.346 . S
C155 N154 1.346 . S
C155 C156 1.396 . S
C155 C165 1.510 . S
C156 C152 1.401 . S
C156 C155 1.396 . S
C157 C152 1.499 . S
C157 H158 0.959 . S
C157 H159 0.960 . S
C157 H160 0.961 . S
H158 C157 0.959 . S
H159 C157 0.960 . S
H160 C157 0.961 . S
O161 Co136 1.967 . S
O161 C169 1.258 . S
O162 Co137 1.941 . S
O162 C169 1.266 . S
H163 C165 0.959 . S
H164 C165 0.961 . S
C165 C155 1.510 . S
C165 H163 0.959 . S
C165 H164 0.961 . S
C165 H166 0.960 . S
H166 C165 0.960 . S
H167 N147 0.862 . S
O168 Co136 1.920 . S
O168 C141 1.289 . S
C169 O161 1.258 . S
C169 O162 1.266 . S
Co170 O173 1.970 . S
Co170 N187 1.989 . S
Co170 O195 1.967 . S
Co170 O202 1.920 . S
Co171 O174 1.966 . S
Co171 N180 2.022 . S
Co171 N188 1.993 . S
Co171 O196 1.941 . S
C172 O173 1.258 . S
C172 O174 1.263 . S
O173 Co170 1.970 . S
O173 C172 1.258 . S
O174 Co171 1.966 . S
O174 C172 1.263 . S
C175 O176 1.235 . S
C175 O202 1.289 . S
O176 C175 1.235 . S
C177 C179 1.400 . S
C177 N180 1.351 . S
C177 C182 1.501 . S
C178 C179 1.387 . S
C178 N181 1.341 . S
C179 C177 1.400 . S
C179 C178 1.387 . S
N180 Co171 2.022 . S
N180 C177 1.351 . S
N180 N181 1.365 . S
N181 C178 1.341 . S
N181 N180 1.365 . S
N181 H201 0.862 . S
C182 C177 1.501 . S
C182 H183 0.961 . S
C182 H184 0.961 . S
C182 H185 0.960 . S
H183 C182 0.961 . S
H184 C182 0.961 . S
H185 C182 0.960 . S
C186 N187 1.342 . S
C186 C190 1.401 . S
C186 C191 1.499 . S
N187 Co170 1.989 . S
N187 C186 1.342 . S
N187 N188 1.388 . S
N188 Co171 1.993 . S
N188 N187 1.388 . S
N188 C189 1.346 . S
C189 N188 1.346 . S
C189 C190 1.396 . S
C189 C199 1.510 . S
C190 C186 1.401 . S
C190 C189 1.396 . S
C191 C186 1.499 . S
C191 H192 0.959 . S
C191 H193 0.960 . S
C191 H194 0.961 . S
H192 C191 0.959 . S
H193 C191 0.960 . S
H194 C191 0.961 . S
O195 Co170 1.967 . S
O195 C203 1.258 . S
O196 Co171 1.941 . S
O196 C203 1.266 . S
H197 C199 0.959 . S
H198 C199 0.961 . S
C199 C189 1.510 . S
C199 H197 0.959 . S
C199 H198 0.961 . S
C199 H200 0.960 . S
H200 C199 0.960 . S
H201 N181 0.862 . S
O202 Co170 1.920 . S
O202 C175 1.289 . S
C203 O195 1.258 . S
C203 O196 1.266 . S
Co204 O207 1.970 . S
Co204 N221 1.989 . S
Co204 O229 1.967 . S
Co204 O236 1.920 . S
Co205 O208 1.966 . S
Co205 N214 2.022 . S
Co205 N222 1.993 . S
Co205 O230 1.941 . S
C206 O207 1.258 . S
C206 O208 1.263 . S
O207 Co204 1.970 . S
O207 C206 1.258 . S
O208 Co205 1.966 . S
O208 C206 1.263 . S
C209 O210 1.235 . S
C209 O236 1.289 . S
O210 C209 1.235 . S
C211 C213 1.400 . S
C211 N214 1.351 . S
C211 C216 1.501 . S
C212 C213 1.387 . S
C212 N215 1.341 . S
C213 C211 1.400 . S
C213 C212 1.387 . S
N214 Co205 2.022 . S
N214 C211 1.351 . S
N214 N215 1.365 . S
N215 C212 1.341 . S
N215 N214 1.365 . S
N215 H235 0.862 . S
C216 C211 1.501 . S
C216 H217 0.961 . S
C216 H218 0.961 . S
C216 H219 0.960 . S
H217 C216 0.961 . S
H218 C216 0.961 . S
H219 C216 0.960 . S
C220 N221 1.342 . S
C220 C224 1.401 . S
C220 C225 1.499 . S
N221 Co204 1.989 . S
N221 C220 1.342 . S
N221 N222 1.388 . S
N222 Co205 1.993 . S
N222 N221 1.388 . S
N222 C223 1.346 . S
C223 N222 1.346 . S
C223 C224 1.396 . S
C223 C233 1.510 . S
C224 C220 1.401 . S
C224 C223 1.396 . S
C225 C220 1.499 . S
C225 H226 0.959 . S
C225 H227 0.960 . S
C225 H228 0.961 . S
H226 C225 0.959 . S
H227 C225 0.960 . S
H228 C225 0.961 . S
O229 Co204 1.967 . S
O229 C237 1.258 . S
O230 Co205 1.941 . S
O230 C237 1.266 . S
H231 C233 0.959 . S
H232 C233 0.961 . S
C233 C223 1.510 . S
C233 H231 0.959 . S
C233 H232 0.961 . S
C233 H234 0.960 . S
H234 C233 0.960 . S
H235 N215 0.862 . S
O236 Co204 1.920 . S
O236 C209 1.289 . S
C237 O229 1.258 . S
C237 O230 1.266 . S
Co238 O241 1.970 . S
Co238 N255 1.989 . S
Co238 O263 1.967 . S
Co238 O270 1.920 . S
Co239 O242 1.966 . S
Co239 N248 2.022 . S
Co239 N256 1.993 . S
Co239 O264 1.941 . S
C240 O241 1.258 . S
C240 O242 1.263 . S
O241 Co238 1.970 . S
O241 C240 1.258 . S
O242 Co239 1.966 . S
O242 C240 1.263 . S
C243 O244 1.235 . S
C243 O270 1.289 . S
O244 C243 1.235 . S
C245 C247 1.400 . S
C245 N248 1.351 . S
C245 C250 1.501 . S
C246 C247 1.387 . S
C246 N249 1.341 . S
C247 C245 1.400 . S
C247 C246 1.387 . S
N248 Co239 2.022 . S
N248 C245 1.351 . S
N248 N249 1.365 . S
N249 C246 1.341 . S
N249 N248 1.365 . S
N249 H269 0.862 . S
C250 C245 1.501 . S
C250 H251 0.961 . S
C250 H252 0.961 . S
C250 H253 0.960 . S
H251 C250 0.961 . S
H252 C250 0.961 . S
H253 C250 0.960 . S
C254 N255 1.342 . S
C254 C258 1.401 . S
C254 C259 1.499 . S
N255 Co238 1.989 . S
N255 C254 1.342 . S
N255 N256 1.388 . S
N256 Co239 1.993 . S
N256 N255 1.388 . S
N256 C257 1.346 . S
C257 N256 1.346 . S
C257 C258 1.396 . S
C257 C267 1.510 . S
C258 C254 1.401 . S
C258 C257 1.396 . S
C259 C254 1.499 . S
C259 H260 0.959 . S
C259 H261 0.960 . S
C259 H262 0.961 . S
H260 C259 0.959 . S
H261 C259 0.960 . S
H262 C259 0.961 . S
O263 Co238 1.967 . S
O263 C271 1.258 . S
O264 Co239 1.941 . S
O264 C271 1.266 . S
H265 C267 0.959 . S
H266 C267 0.961 . S
C267 C257 1.510 . S
C267 H265 0.959 . S
C267 H266 0.961 . S
C267 H268 0.960 . S
H268 C267 0.960 . S
H269 N249 0.862 . S
O270 Co238 1.920 . S
O270 C243 1.289 . S
C271 O263 1.258 . S
C271 O264 1.266 . S
C272 C273 1.349 1_556 S
C272 C274 1.327 . S
C272 H297 0.950 . S
C273 C272 1.349 1_554 S
C273 C289 1.349 . S
C274 C272 1.327 . S
C274 C293 1.429 1_556 S
C274 H298 0.950 . S
C275 C292 1.574 . S
C275 C294 1.368 . S
C275 H299 0.949 . S
H276 C280 0.949 . S
C277 C278 1.349 1_554 S
C277 C279 1.327 . S
C277 H300 0.950 . S
C278 C277 1.349 1_556 S
C278 C290 1.349 . S
C279 C277 1.327 . S
C279 C295 1.429 1_554 S
C279 H301 0.950 . S
C280 H276 0.949 . S
C280 C288 1.574 . S
C280 C296 1.368 . S
H281 C289 0.950 . S
H282 C287 0.950 . S
H283 C288 0.949 . S
H284 C290 0.950 . S
H285 C291 0.950 . S
H286 C292 0.949 . S
C287 H282 0.950 . S
C287 C289 1.327 . S
C287 C293 1.429 . S
C288 C280 1.574 . S
C288 H283 0.949 . S
C288 C294 1.368 1_556 S
C289 C273 1.349 . S
C289 H281 0.950 . S
C289 C287 1.327 . S
C290 C278 1.349 . S
C290 H284 0.950 . S
C290 C291 1.327 . S
C291 H285 0.950 . S
C291 C290 1.327 . S
C291 C295 1.429 . S
C292 C275 1.574 . S
C292 H286 0.949 . S
C292 C296 1.368 1_554 S
C293 C274 1.429 1_554 S
C293 C287 1.429 . S
C293 C294 1.523 . S
C294 C275 1.368 . S
C294 C288 1.368 1_554 S
C294 C293 1.523 . S
C295 C279 1.429 1_556 S
C295 C291 1.429 . S
C295 C296 1.523 . S
C296 C280 1.368 . S
C296 C292 1.368 1_556 S
C296 C295 1.523 . S
H297 C272 0.950 . S
H298 C274 0.950 . S
H299 C275 0.949 . S
H300 C277 0.950 . S
H301 C279 0.950 . S
C302 C303 1.349 . S
C302 C304 1.327 . S
C302 H327 0.950 . S
C303 C302 1.349 . S
C303 C319 1.349 1_556 S
C304 C302 1.327 . S
C304 C323 1.429 . S
C304 H328 0.950 . S
C305 C322 1.574 . S
C305 C324 1.368 1_554 S
C305 H329 0.949 . S
H306 C310 0.949 . S
C307 C308 1.349 . S
C307 C309 1.327 . S
C307 H330 0.950 . S
C308 C307 1.349 . S
C308 C320 1.349 1_554 S
C309 C307 1.327 . S
C309 C325 1.429 . S
C309 H331 0.950 . S
C310 H306 0.949 . S
C310 C318 1.574 . S
C310 C326 1.368 1_556 S
H311 C319 0.950 . S
H312 C317 0.950 . S
H313 C318 0.949 . S
H314 C320 0.950 . S
H315 C321 0.950 . S
H316 C322 0.949 . S
C317 H312 0.950 . S
C317 C319 1.327 . S
C317 C323 1.429 1_554 S
C318 C310 1.574 . S
C318 H313 0.949 . S
C318 C324 1.368 . S
C319 C303 1.349 1_554 S
C319 H311 0.950 . S
C319 C317 1.327 . S
C320 C308 1.349 1_556 S
C320 H314 0.950 . S
C320 C321 1.327 . S
C321 H315 0.950 . S
C321 C320 1.327 . S
C321 C325 1.429 1_556 S
C322 C305 1.574 . S
C322 H316 0.949 . S
C322 C326 1.368 . S
C323 C304 1.429 . S
C323 C317 1.429 1_556 S
C323 C324 1.523 . S
C324 C305 1.368 1_556 S
C324 C318 1.368 . S
C324 C323 1.523 . S
C325 C309 1.429 . S
C325 C321 1.429 1_554 S
C325 C326 1.523 . S
C326 C310 1.368 1_554 S
C326 C322 1.368 . S
C326 C325 1.523 . S
H327 C302 0.950 . S
H328 C304 0.950 . S
H329 C305 0.949 . S
H330 C307 0.950 . S
H331 C309 0.950 . S
C332 C333 1.349 1_554 S
C332 C334 1.327 . S
C332 H357 0.950 . S
C333 C332 1.349 1_556 S
C333 C349 1.349 . S
C334 C332 1.327 . S
C334 C353 1.429 1_554 S
C334 H358 0.950 . S
C335 C352 1.574 . S
C335 C354 1.368 . S
C335 H359 0.949 . S
H336 C340 0.949 . S
C337 C338 1.349 1_556 S
C337 C339 1.327 . S
C337 H360 0.950 . S
C338 C337 1.349 1_554 S
C338 C350 1.349 . S
C339 C337 1.327 . S
C339 C355 1.429 1_556 S
C339 H361 0.950 . S
C340 H336 0.949 . S
C340 C348 1.574 . S
C340 C356 1.368 . S
H341 C349 0.950 . S
H342 C347 0.950 . S
H343 C348 0.949 . S
H344 C350 0.950 . S
H345 C351 0.950 . S
H346 C352 0.949 . S
C347 H342 0.950 . S
C347 C349 1.327 . S
C347 C353 1.429 . S
C348 C340 1.574 . S
C348 H343 0.949 . S
C348 C354 1.368 1_554 S
C349 C333 1.349 . S
C349 H341 0.950 . S
C349 C347 1.327 . S
C350 C338 1.349 . S
C350 H344 0.950 . S
C350 C351 1.327 . S
C351 H345 0.950 . S
C351 C350 1.327 . S
C351 C355 1.429 . S
C352 C335 1.574 . S
C352 H346 0.949 . S
C352 C356 1.368 1_556 S
C353 C334 1.429 1_556 S
C353 C347 1.429 . S
C353 C354 1.523 . S
C354 C335 1.368 . S
C354 C348 1.368 1_556 S
C354 C353 1.523 . S
C355 C339 1.429 1_554 S
C355 C351 1.429 . S
C355 C356 1.523 . S
C356 C340 1.368 . S
C356 C352 1.368 1_554 S
C356 C355 1.523 . S
H357 C332 0.950 . S
H358 C334 0.950 . S
H359 C335 0.949 . S
H360 C337 0.950 . S
H361 C339 0.950 . S
C362 C363 1.349 1_556 S
C362 C364 1.327 . S
C362 H387 0.950 . S
C363 C362 1.349 1_554 S
C363 C379 1.349 . S
C364 C362 1.327 . S
C364 C383 1.429 1_556 S
C364 H388 0.950 . S
C365 C382 1.574 . S
C365 C384 1.368 . S
C365 H389 0.949 . S
H366 C370 0.949 . S
C367 C368 1.349 1_554 S
C367 C369 1.327 . S
C367 H390 0.950 . S
C368 C367 1.349 1_556 S
C368 C380 1.349 . S
C369 C367 1.327 . S
C369 C385 1.429 1_554 S
C369 H391 0.950 . S
C370 H366 0.949 . S
C370 C378 1.574 . S
C370 C386 1.368 . S
H371 C379 0.950 . S
H372 C377 0.950 . S
H373 C378 0.949 . S
H374 C380 0.950 . S
H375 C381 0.950 . S
H376 C382 0.949 . S
C377 H372 0.950 . S
C377 C379 1.327 . S
C377 C383 1.429 . S
C378 C370 1.574 . S
C378 H373 0.949 . S
C378 C384 1.368 1_556 S
C379 C363 1.349 . S
C379 H371 0.950 . S
C379 C377 1.327 . S
C380 C368 1.349 . S
C380 H374 0.950 . S
C380 C381 1.327 . S
C381 H375 0.950 . S
C381 C380 1.327 . S
C381 C385 1.429 . S
C382 C365 1.574 . S
C382 H376 0.949 . S
C382 C386 1.368 1_554 S
C383 C364 1.429 1_554 S
C383 C377 1.429 . S
C383 C384 1.523 . S
C384 C365 1.368 . S
C384 C378 1.368 1_554 S
C384 C383 1.523 . S
C385 C369 1.429 1_556 S
C385 C381 1.429 . S
C385 C386 1.523 . S
C386 C370 1.368 . S
C386 C382 1.368 1_556 S
C386 C385 1.523 . S
H387 C362 0.950 . S
H388 C364 0.950 . S
H389 C365 0.949 . S
H390 C367 0.950 . S
H391 C369 0.950 . S
C392 C393 1.349 . S
C392 C394 1.327 1_455 S
C392 H417 0.950 . S
C393 C392 1.349 . S
C393 C409 1.349 . S
C394 C392 1.327 1_655 S
C394 C413 1.429 . S
C394 H418 0.950 . S
C395 C412 1.574 . S
C395 C414 1.368 . S
C395 H419 0.949 . S
H396 C400 0.949 . S
C397 C398 1.349 . S
C397 C399 1.327 . S
C397 H420 0.950 . S
C398 C397 1.349 . S
C398 C410 1.349 . S
C399 C397 1.327 . S
C399 C415 1.429 . S
C399 H421 0.950 . S
C400 H396 0.949 . S
C400 C408 1.574 . S
C400 C416 1.368 . S
H401 C409 0.950 . S
H402 C407 0.950 . S
H403 C408 0.949 . S
H404 C410 0.950 . S
H405 C411 0.950 . S
H406 C412 0.949 . S
C407 H402 0.950 . S
C407 C409 1.327 . S
C407 C413 1.429 1_455 S
C408 C400 1.574 . S
C408 H403 0.949 . S
C408 C414 1.368 . S
C409 C393 1.349 . S
C409 H401 0.950 . S
C409 C407 1.327 . S
C410 C398 1.349 . S
C410 H404 0.950 . S
C410 C411 1.327 . S
C411 H405 0.950 . S
C411 C410 1.327 . S
C411 C415 1.429 . S
C412 C395 1.574 . S
C412 H406 0.949 . S
C412 C416 1.368 . S
C413 C394 1.429 . S
C413 C407 1.429 1_655 S
C413 C414 1.523 . S
C414 C395 1.368 . S
C414 C408 1.368 . S
C414 C413 1.523 . S
C415 C399 1.429 . S
C415 C411 1.429 . S
C415 C416 1.523 . S
C416 C400 1.368 . S
C416 C412 1.368 . S
C416 C415 1.523 . S
H417 C392 0.950 . S
H418 C394 0.950 . S
H419 C395 0.949 . S
H420 C397 0.950 . S
H421 C399 0.950 . S
C422 C423 1.349 . S
C422 C424 1.327 . S
C422 H447 0.950 . S
C423 C422 1.349 . S
C423 C439 1.349 . S
C424 C422 1.327 . S
C424 C443 1.429 1_545 S
C424 H448 0.950 . S
C425 C442 1.574 . S
C425 C444 1.368 . S
C425 H449 0.949 . S
H426 C430 0.949 . S
C427 C428 1.349 . S
C427 C429 1.327 . S
C427 H450 0.950 . S
C428 C427 1.349 . S
C428 C440 1.349 . S
C429 C427 1.327 . S
C429 C445 1.429 . S
C429 H451 0.950 . S
C430 H426 0.949 . S
C430 C438 1.574 . S
C430 C446 1.368 . S
H431 C439 0.950 . S
H432 C437 0.950 1_565 S
H433 C438 0.949 . S
H434 C440 0.950 . S
H435 C441 0.950 . S
H436 C442 0.949 . S
C437 H432 0.950 1_545 S
C437 C439 1.327 . S
C437 C443 1.429 1_545 S
C438 C430 1.574 . S
C438 H433 0.949 . S
C438 C444 1.368 . S
C439 C423 1.349 . S
C439 H431 0.950 . S
C439 C437 1.327 . S
C440 C428 1.349 . S
C440 H434 0.950 . S
C440 C441 1.327 . S
C441 H435 0.950 . S
C441 C440 1.327 . S
C441 C445 1.429 . S
C442 C425 1.574 . S
C442 H436 0.949 . S
C442 C446 1.368 . S
C443 C424 1.429 1_565 S
C443 C437 1.429 1_565 S
C443 C444 1.523 . S
C444 C425 1.368 . S
C444 C438 1.368 . S
C444 C443 1.523 . S
C445 C429 1.429 . S
C445 C441 1.429 . S
C445 C446 1.523 . S
C446 C430 1.368 . S
C446 C442 1.368 . S
C446 C445 1.523 . S
H447 C422 0.950 . S
H448 C424 0.950 . S
H449 C425 0.949 . S
H450 C427 0.950 . S
H451 C429 0.950 . S
C452 C453 1.349 . S
C452 C454 1.327 . S
C452 H477 0.950 . S
C453 C452 1.349 . S
C453 C469 1.349 . S
C454 C452 1.327 . S
C454 C473 1.429 . S
C454 H478 0.950 . S
C455 C472 1.574 . S
C455 C474 1.368 . S
C455 H479 0.949 . S
H456 C460 0.949 . S
C457 C458 1.349 . S
C457 C459 1.327 . S
C457 H480 0.950 . S
C458 C457 1.349 . S
C458 C470 1.349 . S
C459 C457 1.327 . S
C459 C475 1.429 1_655 S
C459 H481 0.950 1_655 S
C460 H456 0.949 . S
C460 C468 1.574 . S
C460 C476 1.368 . S
H461 C469 0.950 . S
H462 C467 0.950 . S
H463 C468 0.949 . S
H464 C470 0.950 . S
H465 C471 0.950 1_455 S
H466 C472 0.949 . S
C467 H462 0.950 . S
C467 C469 1.327 . S
C467 C473 1.429 . S
C468 C460 1.574 . S
C468 H463 0.949 . S
C468 C474 1.368 . S
C469 C453 1.349 . S
C469 H461 0.950 . S
C469 C467 1.327 . S
C470 C458 1.349 . S
C470 H464 0.950 . S
C470 C471 1.327 . S
C471 H465 0.950 1_655 S
C471 C470 1.327 . S
C471 C475 1.429 1_655 S
C472 C455 1.574 . S
C472 H466 0.949 . S
C472 C476 1.368 . S
C473 C454 1.429 . S
C473 C467 1.429 . S
C473 C474 1.523 . S
C474 C455 1.368 . S
C474 C468 1.368 . S
C474 C473 1.523 . S
C475 C459 1.429 1_455 S
C475 C471 1.429 1_455 S
C475 C476 1.523 . S
C476 C460 1.368 . S
C476 C472 1.368 . S
C476 C475 1.523 . S
H477 C452 0.950 . S
H478 C454 0.950 . S
H479 C455 0.949 . S
H480 C457 0.950 . S
H481 C459 0.950 1_455 S
C482 C483 1.349 . S
C482 C484 1.327 . S
C482 H507 0.950 . S
C483 C482 1.349 . S
C483 C499 1.349 . S
C484 C482 1.327 . S
C484 C503 1.429 . S
C484 H508 0.950 . S
C485 C502 1.574 . S
C485 C504 1.368 . S
C485 H509 0.949 . S
H486 C490 0.949 . S
C487 C488 1.349 . S
C487 C489 1.327 . S
C487 H510 0.950 . S
C488 C487 1.349 . S
C488 C500 1.349 . S
C489 C487 1.327 . S
C489 C505 1.429 1_565 S
C489 H511 0.950 . S
C490 H486 0.949 . S
C490 C498 1.574 . S
C490 C506 1.368 . S
H491 C499 0.950 . S
H492 C497 0.950 . S
H493 C498 0.949 . S
H494 C500 0.950 . S
H495 C501 0.950 . S
H496 C502 0.949 . S
C497 H492 0.950 . S
C497 C499 1.327 . S
C497 C503 1.429 . S
C498 C490 1.574 . S
C498 H493 0.949 . S
C498 C504 1.368 . S
C499 C483 1.349 . S
C499 H491 0.950 . S
C499 C497 1.327 . S
C500 C488 1.349 . S
C500 H494 0.950 . S
C500 C501 1.327 1_565 S
C501 H495 0.950 . S
C501 C500 1.327 1_545 S
C501 C505 1.429 . S
C502 C485 1.574 . S
C502 H496 0.949 . S
C502 C506 1.368 . S
C503 C484 1.429 . S
C503 C497 1.429 . S
C503 C504 1.523 . S
C504 C485 1.368 . S
C504 C498 1.368 . S
C504 C503 1.523 . S
C505 C489 1.429 1_545 S
C505 C501 1.429 . S
C505 C506 1.523 . S
C506 C490 1.368 . S
C506 C502 1.368 . S
C506 C505 1.523 . S
H507 C482 0.950 . S
H508 C484 0.950 . S
H509 C485 0.949 . S
H510 C487 0.950 . S
H511 C489 0.950 . S
C512 C513 1.349 . S
C512 C514 1.327 . S
C512 H537 0.950 . S
C513 C512 1.349 . S
C513 C529 1.349 . S
C514 C512 1.327 . S
C514 C533 1.429 . S
C514 H538 0.950 . S
C515 C532 1.574 . S
C515 C534 1.368 . S
C515 H539 0.949 . S
H516 C520 0.949 . S
C517 C518 1.349 . S
C517 C519 1.327 . S
C517 H540 0.950 . S
C518 C517 1.349 . S
C518 C530 1.349 . S
C519 C517 1.327 . S
C519 C535 1.429 . S
C519 H541 0.950 . S
C520 H516 0.949 . S
C520 C528 1.574 . S
C520 C536 1.368 . S
H521 C529 0.950 . S
H522 C527 0.950 . S
H523 C528 0.949 . S
H524 C530 0.950 . S
H525 C531 0.950 . S
H526 C532 0.949 . S
C527 H522 0.950 . S
C527 C529 1.327 . S
C527 C533 1.429 . S
C528 C520 1.574 . S
C528 H523 0.949 . S
C528 C534 1.368 . S
C529 C513 1.349 . S
C529 H521 0.950 . S
C529 C527 1.327 . S
C530 C518 1.349 . S
C530 H524 0.950 . S
C530 C531 1.327 . S
C531 H525 0.950 . S
C531 C530 1.327 . S
C531 C535 1.429 . S
C532 C515 1.574 . S
C532 H526 0.949 . S
C532 C536 1.368 . S
C533 C514 1.429 . S
C533 C527 1.429 . S
C533 C534 1.523 . S
C534 C515 1.368 . S
C534 C528 1.368 . S
C534 C533 1.523 . S
C535 C519 1.429 . S
C535 C531 1.429 . S
C535 C536 1.523 . S
C536 C520 1.368 . S
C536 C532 1.368 . S
C536 C535 1.523 . S
H537 C512 0.950 . S
H538 C514 0.950 . S
H539 C515 0.949 . S
H540 C517 0.950 . S
H541 C519 0.950 . S
C542 C543 1.349 . S
C542 C544 1.327 . S
C542 H567 0.950 . S
C543 C542 1.349 . S
C543 C559 1.349 . S
C544 C542 1.327 . S
C544 C563 1.429 . S
C544 H568 0.950 . S
C545 C562 1.574 . S
C545 C564 1.368 . S
C545 H569 0.949 . S
H546 C550 0.949 . S
C547 C548 1.349 . S
C547 C549 1.327 . S
C547 H570 0.950 . S
C548 C547 1.349 . S
C548 C560 1.349 . S
C549 C547 1.327 . S
C549 C565 1.429 . S
C549 H571 0.950 . S
C550 H546 0.949 . S
C550 C558 1.574 . S
C550 C566 1.368 . S
H551 C559 0.950 . S
H552 C557 0.950 . S
H553 C558 0.949 . S
H554 C560 0.950 . S
H555 C561 0.950 . S
H556 C562 0.949 . S
C557 H552 0.950 . S
C557 C559 1.327 . S
C557 C563 1.429 . S
C558 C550 1.574 . S
C558 H553 0.949 . S
C558 C564 1.368 . S
C559 C543 1.349 . S
C559 H551 0.950 . S
C559 C557 1.327 . S
C560 C548 1.349 . S
C560 H554 0.950 . S
C560 C561 1.327 . S
C561 H555 0.950 . S
C561 C560 1.327 . S
C561 C565 1.429 . S
C562 C545 1.574 . S
C562 H556 0.949 . S
C562 C566 1.368 . S
C563 C544 1.429 . S
C563 C557 1.429 . S
C563 C564 1.523 . S
C564 C545 1.368 . S
C564 C558 1.368 . S
C564 C563 1.523 . S
C565 C549 1.429 . S
C565 C561 1.429 . S
C565 C566 1.523 . S
C566 C550 1.368 . S
C566 C562 1.368 . S
C566 C565 1.523 . S
H567 C542 0.950 . S
H568 C544 0.950 . S
H569 C545 0.949 . S
H570 C547 0.950 . S
H571 C549 0.950 . S
C572 C573 1.349 . S
C572 C574 1.327 . S
C572 H597 0.950 . S
C573 C572 1.349 . S
C573 C589 1.349 . S
C574 C572 1.327 . S
C574 C593 1.429 . S
C574 H598 0.950 . S
C575 C592 1.574 . S
C575 C594 1.368 . S
C575 H599 0.949 . S
H576 C580 0.949 . S
C577 C578 1.349 . S
C577 C579 1.327 . S
C577 H600 0.950 . S
C578 C577 1.349 . S
C578 C590 1.349 . S
C579 C577 1.327 . S
C579 C595 1.429 . S
C579 H601 0.950 . S
C580 H576 0.949 . S
C580 C588 1.574 . S
C580 C596 1.368 . S
H581 C589 0.950 . S
H582 C587 0.950 . S
H583 C588 0.949 . S
H584 C590 0.950 . S
H585 C591 0.950 . S
H586 C592 0.949 . S
C587 H582 0.950 . S
C587 C589 1.327 . S
C587 C593 1.429 . S
C588 C580 1.574 . S
C588 H583 0.949 . S
C588 C594 1.368 . S
C589 C573 1.349 . S
C589 H581 0.950 . S
C589 C587 1.327 . S
C590 C578 1.349 . S
C590 H584 0.950 . S
C590 C591 1.327 . S
C591 H585 0.950 . S
C591 C590 1.327 . S
C591 C595 1.429 . S
C592 C575 1.574 . S
C592 H586 0.949 . S
C592 C596 1.368 . S
C593 C574 1.429 . S
C593 C587 1.429 . S
C593 C594 1.523 . S
C594 C575 1.368 . S
C594 C588 1.368 . S
C594 C593 1.523 . S
C595 C579 1.429 . S
C595 C591 1.429 . S
C595 C596 1.523 . S
C596 C580 1.368 . S
C596 C592 1.368 . S
C596 C595 1.523 . S
H597 C572 0.950 . S
H598 C574 0.950 . S
H599 C575 0.949 . S
H600 C577 0.950 . S
H601 C579 0.950 . S
C602 C603 1.349 . S
C602 C604 1.327 . S
C602 H627 0.950 . S
C603 C602 1.349 . S
C603 C619 1.349 . S
C604 C602 1.327 . S
C604 C623 1.429 . S
C604 H628 0.950 . S
C605 C622 1.574 . S
C605 C624 1.368 . S
C605 H629 0.949 . S
H606 C610 0.949 . S
C607 C608 1.349 . S
C607 C609 1.327 . S
C607 H630 0.950 . S
C608 C607 1.349 . S
C608 C620 1.349 . S
C609 C607 1.327 . S
C609 C625 1.429 . S
C609 H631 0.950 . S
C610 H606 0.949 . S
C610 C618 1.574 . S
C610 C626 1.368 . S
H611 C619 0.950 . S
H612 C617 0.950 . S
H613 C618 0.949 . S
H614 C620 0.950 . S
H615 C621 0.950 . S
H616 C622 0.949 . S
C617 H612 0.950 . S
C617 C619 1.327 . S
C617 C623 1.429 . S
C618 C610 1.574 . S
C618 H613 0.949 . S
C618 C624 1.368 . S
C619 C603 1.349 . S
C619 H611 0.950 . S
C619 C617 1.327 . S
C620 C608 1.349 . S
C620 H614 0.950 . S
C620 C621 1.327 . S
C621 H615 0.950 . S
C621 C620 1.327 . S
C621 C625 1.429 . S
C622 C605 1.574 . S
C622 H616 0.949 . S
C622 C626 1.368 . S
C623 C604 1.429 . S
C623 C617 1.429 . S
C623 C624 1.523 . S
C624 C605 1.368 . S
C624 C618 1.368 . S
C624 C623 1.523 . S
C625 C609 1.429 . S
C625 C621 1.429 . S
C625 C626 1.523 . S
C626 C610 1.368 . S
C626 C622 1.368 . S
C626 C625 1.523 . S
H627 C602 0.950 . S
H628 C604 0.950 . S
H629 C605 0.949 . S
H630 C607 0.950 . S
H631 C609 0.950 . S
C632 C633 1.349 . S
C632 C634 1.327 . S
C632 H657 0.950 . S
C633 C632 1.349 . S
C633 C649 1.349 . S
C634 C632 1.327 . S
C634 C653 1.429 . S
C634 H658 0.950 . S
C635 C652 1.574 . S
C635 C654 1.368 . S
C635 H659 0.949 . S
H636 C640 0.949 . S
C637 C638 1.349 . S
C637 C639 1.327 . S
C637 H660 0.950 . S
C638 C637 1.349 . S
C638 C650 1.349 . S
C639 C637 1.327 . S
C639 C655 1.429 . S
C639 H661 0.950 . S
C640 H636 0.949 . S
C640 C648 1.574 . S
C640 C656 1.368 . S
H641 C649 0.950 . S
H642 C647 0.950 . S
H643 C648 0.949 . S
H644 C650 0.950 . S
H645 C651 0.950 . S
H646 C652 0.949 . S
C647 H642 0.950 . S
C647 C649 1.327 . S
C647 C653 1.429 . S
C648 C640 1.574 . S
C648 H643 0.949 . S
C648 C654 1.368 . S
C649 C633 1.349 . S
C649 H641 0.950 . S
C649 C647 1.327 . S
C650 C638 1.349 . S
C650 H644 0.950 . S
C650 C651 1.327 . S
C651 H645 0.950 . S
C651 C650 1.327 . S
C651 C655 1.429 . S
C652 C635 1.574 . S
C652 H646 0.949 . S
C652 C656 1.368 . S
C653 C634 1.429 . S
C653 C647 1.429 . S
C653 C654 1.523 . S
C654 C635 1.368 . S
C654 C648 1.368 . S
C654 C653 1.523 . S
C655 C639 1.429 . S
C655 C651 1.429 . S
C655 C656 1.523 . S
C656 C640 1.368 . S
C656 C652 1.368 . S
C656 C655 1.523 . S
H657 C632 0.950 . S
H658 C634 0.950 . S
H659 C635 0.949 . S
H660 C637 0.950 . S
H661 C639 0.950 . S
C662 C663 1.349 . S
C662 C664 1.327 . S
C662 H687 0.950 . S
C663 C662 1.349 . S
C663 C679 1.349 . S
C664 C662 1.327 . S
C664 C683 1.429 . S
C664 H688 0.950 . S
C665 C682 1.574 . S
C665 C684 1.368 . S
C665 H689 0.949 . S
H666 C670 0.949 . S
C667 C668 1.349 . S
C667 C669 1.327 . S
C667 H690 0.950 . S
C668 C667 1.349 . S
C668 C680 1.349 . S
C669 C667 1.327 . S
C669 C685 1.429 . S
C669 H691 0.950 . S
C670 H666 0.949 . S
C670 C678 1.574 . S
C670 C686 1.368 . S
H671 C679 0.950 . S
H672 C677 0.950 . S
H673 C678 0.949 . S
H674 C680 0.950 . S
H675 C681 0.950 . S
H676 C682 0.949 . S
C677 H672 0.950 . S
C677 C679 1.327 . S
C677 C683 1.429 . S
C678 C670 1.574 . S
C678 H673 0.949 . S
C678 C684 1.368 . S
C679 C663 1.349 . S
C679 H671 0.950 . S
C679 C677 1.327 . S
C680 C668 1.349 . S
C680 H674 0.950 . S
C680 C681 1.327 . S
C681 H675 0.950 . S
C681 C680 1.327 . S
C681 C685 1.429 . S
C682 C665 1.574 . S
C682 H676 0.949 . S
C682 C686 1.368 . S
C683 C664 1.429 . S
C683 C677 1.429 . S
C683 C684 1.523 . S
C684 C665 1.368 . S
C684 C678 1.368 . S
C684 C683 1.523 . S
C685 C669 1.429 . S
C685 C681 1.429 . S
C685 C686 1.523 . S
C686 C670 1.368 . S
C686 C682 1.368 . S
C686 C685 1.523 . S
H687 C662 0.950 . S
H688 C664 0.950 . S
H689 C665 0.949 . S
H690 C667 0.950 . S
H691 C669 0.950 . S
C692 C693 1.349 . S
C692 C694 1.327 . S
C692 H717 0.950 . S
C693 C692 1.349 . S
C693 C709 1.349 . S
C694 C692 1.327 . S
C694 C713 1.429 . S
C694 H718 0.950 . S
C695 C712 1.574 . S
C695 C714 1.368 . S
C695 H719 0.949 . S
H696 C700 0.949 . S
C697 C698 1.349 . S
C697 C699 1.327 . S
C697 H720 0.950 . S
C698 C697 1.349 . S
C698 C710 1.349 . S
C699 C697 1.327 . S
C699 C715 1.429 . S
C699 H721 0.950 . S
C700 H696 0.949 . S
C700 C708 1.574 . S
C700 C716 1.368 . S
H701 C709 0.950 . S
H702 C707 0.950 . S
H703 C708 0.949 . S
H704 C710 0.950 . S
H705 C711 0.950 . S
H706 C712 0.949 . S
C707 H702 0.950 . S
C707 C709 1.327 . S
C707 C713 1.429 . S
C708 C700 1.574 . S
C708 H703 0.949 . S
C708 C714 1.368 . S
C709 C693 1.349 . S
C709 H701 0.950 . S
C709 C707 1.327 . S
C710 C698 1.349 . S
C710 H704 0.950 . S
C710 C711 1.327 . S
C711 H705 0.950 . S
C711 C710 1.327 . S
C711 C715 1.429 . S
C712 C695 1.574 . S
C712 H706 0.949 . S
C712 C716 1.368 . S
C713 C694 1.429 . S
C713 C707 1.429 . S
C713 C714 1.523 . S
C714 C695 1.368 . S
C714 C708 1.368 . S
C714 C713 1.523 . S
C715 C699 1.429 . S
C715 C711 1.429 . S
C715 C716 1.523 . S
C716 C700 1.368 . S
C716 C712 1.368 . S
C716 C715 1.523 . S
H717 C692 0.950 . S
H718 C694 0.950 . S
H719 C695 0.949 . S
H720 C697 0.950 . S
H721 C699 0.950 . S
C722 C723 1.349 . S
C722 C724 1.327 . S
C722 H747 0.950 . S
C723 C722 1.349 . S
C723 C739 1.349 . S
C724 C722 1.327 . S
C724 C743 1.429 . S
C724 H748 0.950 . S
C725 C742 1.574 . S
C725 C744 1.368 . S
C725 H749 0.949 . S
H726 C730 0.949 . S
C727 C728 1.349 . S
C727 C729 1.327 . S
C727 H750 0.950 . S
C728 C727 1.349 . S
C728 C740 1.349 . S
C729 C727 1.327 . S
C729 C745 1.429 . S
C729 H751 0.950 . S
C730 H726 0.949 . S
C730 C738 1.574 . S
C730 C746 1.368 . S
H731 C739 0.950 . S
H732 C737 0.950 . S
H733 C738 0.949 . S
H734 C740 0.950 . S
H735 C741 0.950 . S
H736 C742 0.949 . S
C737 H732 0.950 . S
C737 C739 1.327 . S
C737 C743 1.429 . S
C738 C730 1.574 . S
C738 H733 0.949 . S
C738 C744 1.368 . S
C739 C723 1.349 . S
C739 H731 0.950 . S
C739 C737 1.327 . S
C740 C728 1.349 . S
C740 H734 0.950 . S
C740 C741 1.327 . S
C741 H735 0.950 . S
C741 C740 1.327 . S
C741 C745 1.429 . S
C742 C725 1.574 . S
C742 H736 0.949 . S
C742 C746 1.368 . S
C743 C724 1.429 . S
C743 C737 1.429 . S
C743 C744 1.523 . S
C744 C725 1.368 . S
C744 C738 1.368 . S
C744 C743 1.523 . S
C745 C729 1.429 . S
C745 C741 1.429 . S
C745 C746 1.523 . S
C746 C730 1.368 . S
C746 C742 1.368 . S
C746 C745 1.523 . S
H747 C722 0.950 . S
H748 C724 0.950 . S
H749 C725 0.949 . S
H750 C727 0.950 . S
H751 C729 0.950 . S
C752 C753 1.349 1_554 S
C752 C754 1.327 . S
C752 H777 0.950 . S
C753 C752 1.349 1_556 S
C753 C769 1.349 . S
C754 C752 1.327 . S
C754 C773 1.429 1_554 S
C754 H778 0.950 . S
C755 C772 1.574 1_655 S
C755 C774 1.368 . S
C755 H779 0.949 . S
H756 C760 0.949 . S
C757 C758 1.349 . S
C757 C759 1.327 . S
C757 H780 0.950 . S
C758 C757 1.349 . S
C758 C770 1.349 1_556 S
C759 C757 1.327 . S
C759 C775 1.429 . S
C759 H781 0.950 . S
C760 H756 0.949 . S
C760 C768 1.574 1_455 S
C760 C776 1.368 1_554 S
H761 C769 0.950 . S
H762 C767 0.950 . S
H763 C768 0.949 . S
H764 C770 0.950 . S
H765 C771 0.950 . S
H766 C772 0.949 . S
C767 H762 0.950 . S
C767 C769 1.327 . S
C767 C773 1.429 . S
C768 C760 1.574 1_655 S
C768 H763 0.949 . S
C768 C774 1.368 1_554 S
C769 C753 1.349 . S
C769 H761 0.950 . S
C769 C767 1.327 . S
C770 C758 1.349 1_554 S
C770 H764 0.950 . S
C770 C771 1.327 . S
C771 H765 0.950 . S
C771 C770 1.327 . S
C771 C775 1.429 1_554 S
C772 C755 1.574 1_455 S
C772 H766 0.949 . S
C772 C776 1.368 . S
C773 C754 1.429 1_556 S
C773 C767 1.429 . S
C773 C774 1.523 . S
C774 C755 1.368 . S
C774 C768 1.368 1_556 S
C774 C773 1.523 . S
C775 C759 1.429 . S
C775 C771 1.429 1_556 S
C775 C776 1.523 . S
C776 C760 1.368 1_556 S
C776 C772 1.368 . S
C776 C775 1.523 . S
H777 C752 0.950 . S
H778 C754 0.950 . S
H779 C755 0.949 . S
H780 C757 0.950 . S
H781 C759 0.950 . S
C782 C783 1.349 1_554 S
C782 C784 1.327 . S
C782 H807 0.950 . S
C783 C782 1.349 1_556 S
C783 C799 1.349 . S
C784 C782 1.327 . S
C784 C803 1.429 1_554 S
C784 H808 0.950 . S
C785 C802 1.574 1_545 S
C785 C804 1.368 . S
C785 H809 0.949 . S
H786 C790 0.949 . S
C787 C788 1.349 . S
C787 C789 1.327 . S
C787 H810 0.950 . S
C788 C787 1.349 . S
C788 C800 1.349 1_556 S
C789 C787 1.327 . S
C789 C805 1.429 . S
C789 H811 0.950 . S
C790 H786 0.949 . S
C790 C798 1.574 1_565 S
C790 C806 1.368 1_554 S
H791 C799 0.950 . S
H792 C797 0.950 . S
H793 C798 0.949 . S
H794 C800 0.950 . S
H795 C801 0.950 . S
H796 C802 0.949 . S
C797 H792 0.950 . S
C797 C799 1.327 . S
C797 C803 1.429 . S
C798 C790 1.574 1_545 S
C798 H793 0.949 . S
C798 C804 1.368 1_554 S
C799 C783 1.349 . S
C799 H791 0.950 . S
C799 C797 1.327 . S
C800 C788 1.349 1_554 S
C800 H794 0.950 . S
C800 C801 1.327 . S
C801 H795 0.950 . S
C801 C800 1.327 . S
C801 C805 1.429 1_554 S
C802 C785 1.574 1_565 S
C802 H796 0.949 . S
C802 C806 1.368 . S
C803 C784 1.429 1_556 S
C803 C797 1.429 . S
C803 C804 1.523 . S
C804 C785 1.368 . S
C804 C798 1.368 1_556 S
C804 C803 1.523 . S
C805 C789 1.429 . S
C805 C801 1.429 1_556 S
C805 C806 1.523 . S
C806 C790 1.368 1_556 S
C806 C802 1.368 . S
C806 C805 1.523 . S
H807 C782 0.950 . S
H808 C784 0.950 . S
H809 C785 0.949 . S
H810 C787 0.950 . S
H811 C789 0.950 . S
C812 C813 1.349 . S
C812 C814 1.327 . S
C812 H837 0.950 . S
C813 C812 1.349 . S
C813 C829 1.349 . S
C814 C812 1.327 . S
C814 C833 1.429 . S
C814 H838 0.950 . S
C815 C832 1.574 . S
C815 C834 1.368 . S
C815 H839 0.949 . S
H816 C820 0.949 . S
C817 C818 1.349 . S
C817 C819 1.327 . S
C817 H840 0.950 . S
C818 C817 1.349 . S
C818 C830 1.349 . S
C819 C817 1.327 . S
C819 C835 1.429 . S
C819 H841 0.950 . S
C820 H816 0.949 . S
C820 C828 1.574 . S
C820 C836 1.368 . S
H821 C829 0.950 . S
H822 C827 0.950 . S
H823 C828 0.949 . S
H824 C830 0.950 . S
H825 C831 0.950 . S
H826 C832 0.949 . S
C827 H822 0.950 . S
C827 C829 1.327 . S
C827 C833 1.429 . S
C828 C820 1.574 . S
C828 H823 0.949 . S
C828 C834 1.368 1_565 S
C829 C813 1.349 . S
C829 H821 0.950 . S
C829 C827 1.327 . S
C830 C818 1.349 . S
C830 H824 0.950 . S
C830 C831 1.327 . S
C831 H825 0.950 . S
C831 C830 1.327 . S
C831 C835 1.429 . S
C832 C815 1.574 . S
C832 H826 0.949 . S
C832 C836 1.368 1_545 S
C833 C814 1.429 . S
C833 C827 1.429 . S
C833 C834 1.523 . S
C834 C815 1.368 . S
C834 C828 1.368 1_545 S
C834 C833 1.523 . S
C835 C819 1.429 . S
C835 C831 1.429 . S
C835 C836 1.523 . S
C836 C820 1.368 . S
C836 C832 1.368 1_565 S
C836 C835 1.523 . S
H837 C812 0.950 . S
H838 C814 0.950 . S
H839 C815 0.949 . S
H840 C817 0.950 . S
H841 C819 0.950 . S
C842 C843 1.349 . S
C842 C844 1.327 . S
C842 H867 0.950 . S
C843 C842 1.349 . S
C843 C859 1.349 . S
C844 C842 1.327 . S
C844 C863 1.429 . S
C844 H868 0.950 . S
C845 C862 1.574 . S
C845 C864 1.368 1_655 S
C845 H869 0.949 . S
H846 C850 0.949 . S
C847 C848 1.349 . S
C847 C849 1.327 . S
C847 H870 0.950 . S
C848 C847 1.349 . S
C848 C860 1.349 . S
C849 C847 1.327 . S
C849 C865 1.429 . S
C849 H871 0.950 . S
C850 H846 0.949 . S
C850 C858 1.574 . S
C850 C866 1.368 1_455 S
H851 C859 0.950 . S
H852 C857 0.950 . S
H853 C858 0.949 . S
H854 C860 0.950 . S
H855 C861 0.950 . S
H856 C862 0.949 . S
C857 H852 0.950 . S
C857 C859 1.327 . S
C857 C863 1.429 . S
C858 C850 1.574 . S
C858 H853 0.949 . S
C858 C864 1.368 . S
C859 C843 1.349 . S
C859 H851 0.950 . S
C859 C857 1.327 . S
C860 C848 1.349 . S
C860 H854 0.950 . S
C860 C861 1.327 . S
C861 H855 0.950 . S
C861 C860 1.327 . S
C861 C865 1.429 . S
C862 C845 1.574 . S
C862 H856 0.949 . S
C862 C866 1.368 . S
C863 C844 1.429 . S
C863 C857 1.429 . S
C863 C864 1.523 . S
C864 C845 1.368 1_455 S
C864 C858 1.368 . S
C864 C863 1.523 . S
C865 C849 1.429 . S
C865 C861 1.429 . S
C865 C866 1.523 . S
C866 C850 1.368 1_655 S
C866 C862 1.368 . S
C866 C865 1.523 . S
H867 C842 0.950 . S
H868 C844 0.950 . S
H869 C845 0.949 . S
H870 C847 0.950 . S
H871 C849 0.950 . S
C273 C54 0.442 . S
C278 C5 0.398 . S
C303 C39 0.398 . S
C308 C88 0.442 . S
C333 C73 0.398 . S
C338 C122 0.442 . S
C363 C20 0.442 . S
C368 C107 0.398 . S
C393 C190 0.442 . S
C398 C141 0.398 . S
C423 C224 0.442 . S
C428 C175 0.398 . S
C453 C209 0.398 . S
C458 C258 0.442 . S
C483 C243 0.398 . S
C488 C156 0.442 . S
C513 C206 1.498 . S
C518 C33 1.519 . S
C543 C67 1.521 . S
C548 C240 1.496 . S
C573 C101 1.521 . S
C578 C138 1.496 . S
C603 C135 1.521 . S
C608 C172 1.496 . S
C633 C169 1.521 . S
C638 C70 1.500 . S
C663 C203 1.521 . S
C668 C104 1.500 . S
C693 C237 1.521 . S
C698 C2 1.500 . S
C723 C36 1.498 . S
C728 C271 1.523 . S
C753 C77 2.276 . S
C758 C9 2.276 . S
C783 C43 2.276 . S
C788 C111 2.276 . S
C813 C213 2.276 . S
C818 C145 2.276 . S
C843 C179 2.276 . S
C848 C247 2.276 . S
