# Generated by pormake.
# Topology rkf, (6)-cn, num edge types: 1
# Building blocks:
#     Node 0, Type 0, BuildingBlock: PAMTOO_clean_sbu_0, # of connection points: 6
#     Node 1, Type 0, BuildingBlock: PAMTOO_clean_sbu_0, # of connection points: 6
#     Node 2, Type 0, BuildingBlock: PAMTOO_clean_sbu_0, # of connection points: 6
#     Node 3, Type 0, BuildingBlock: PAMTOO_clean_sbu_0, # of connection points: 6
#     Node 4, Type 0, BuildingBlock: PAMTOO_clean_sbu_0, # of connection points: 6
#     Node 5, Type 0, BuildingBlock: PAMTOO_clean_sbu_0, # of connection points: 6
#     Edge 6, Type (0, 0), BuildingBlock: EZIPEK_clean_linker_0, # of connection points: 2
#     Edge 7, Type (0, 0), BuildingBlock: EZIPEK_clean_linker_0, # of connection points: 2
#     Edge 8, Type (0, 0), BuildingBlock: EZIPEK_clean_linker_0, # of connection points: 2
#     Edge 9, Type (0, 0), BuildingBlock: EZIPEK_clean_linker_0, # of connection points: 2
#     Edge 10, Type (0, 0), BuildingBlock: EZIPEK_clean_linker_0, # of connection points: 2
#     Edge 11, Type (0, 0), BuildingBlock: EZIPEK_clean_linker_0, # of connection points: 2
#     Edge 12, Type (0, 0), BuildingBlock: EZIPEK_clean_linker_0, # of connection points: 2
#     Edge 13, Type (0, 0), BuildingBlock: EZIPEK_clean_linker_0, # of connection points: 2
#     Edge 14, Type (0, 0), BuildingBlock: EZIPEK_clean_linker_0, # of connection points: 2
#     Edge 15, Type (0, 0), BuildingBlock: EZIPEK_clean_linker_0, # of connection points: 2
#     Edge 16, Type (0, 0), BuildingBlock: EZIPEK_clean_linker_0, # of connection points: 2
#     Edge 17, Type (0, 0), BuildingBlock: EZIPEK_clean_linker_0, # of connection points: 2
#     Edge 18, Type (0, 0), BuildingBlock: EZIPEK_clean_linker_0, # of connection points: 2
#     Edge 19, Type (0, 0), BuildingBlock: EZIPEK_clean_linker_0, # of connection points: 2
#     Edge 20, Type (0, 0), BuildingBlock: EZIPEK_clean_linker_0, # of connection points: 2
#     Edge 21, Type (0, 0), BuildingBlock: EZIPEK_clean_linker_0, # of connection points: 2
#     Edge 22, Type (0, 0), BuildingBlock: EZIPEK_clean_linker_0, # of connection points: 2
#     Edge 23, Type (0, 0), BuildingBlock: EZIPEK_clean_linker_0, # of connection points: 2
# Relax obj value: 1.156
# Max RMSD: 0.277
# Mean RMSD: 0.267
data_MOF--net-rkf--node1-PAMTOO_clean_sbu_0--edge1-EZIPEK_clean_linker_0
_symmetry_space_group_name_H-M    P1
_symmetry_Int_Tables_number       1
_symmetry_cell_setting            triclinic
loop_
_symmetry_equiv_pos_as_xyz
'x, y, z'
_cell_length_a     19.64122
_cell_length_b     19.571865
_cell_length_c     32.225429
_cell_angle_alpha  89.650073
_cell_angle_beta   90.491798
_cell_angle_gamma 119.34964
loop_
_atom_site_label
_atom_site_type_symbol
_atom_site_fract_x
_atom_site_fract_y
_atom_site_fract_z
_atom_type_partial_charge
Dy0 Dy 0.24156 0.96735 0.23897 0.0
Dy1 Dy 0.23681 0.12137 1.20155 0.0
C2 C 0.0819 0.96643 0.23445 0.0
O3 O 0.19205 0.93324 1.1723 0.0
O4 O 0.20645 0.04679 1.14348 0.0
O5 O 0.25375 0.86618 0.22345 0.0
O6 O 0.23473 0.88654 0.28693 0.0
O7 O 0.36471 0.16076 1.20403 0.0
O8 O 0.3678 0.05479 0.23407 0.0
O9 O 0.25913 0.1498 0.27029 0.0
O10 O 0.24392 0.03491 0.29821 0.0
O11 O 0.18663 0.19742 1.20714 0.0
O12 O 0.26867 0.21561 1.15777 0.0
C13 C 0.18487 0.97174 1.13996 0.0
O14 O 0.12173 0.93817 0.25277 0.0
O15 O 0.11318 0.02744 1.20965 0.0
C16 C 0.15262 0.76118 0.2607 0.0
C17 C -0.00907 0.67121 0.27397 0.0
C18 C 0.01893 0.69872 0.23405 0.0
C19 C 0.09943 0.74329 0.22738 0.0
C20 C 0.12451 0.72398 0.29898 0.0
C21 C 0.04422 0.6801 0.3057 0.0
C22 C 0.22848 0.8346 0.25981 0.0
C23 C 0.40256 0.12661 0.21954 0.0
C24 C 0.25329 0.10664 0.30319 0.0
C25 C 0.26607 0.32687 1.18372 0.0
C26 C 0.34317 0.49223 1.18358 0.0
C27 C 0.3826 0.45178 1.19649 0.0
C28 C 0.34447 0.36973 1.19627 0.0
C29 C 0.2244 0.36611 1.17516 0.0
C30 C 0.2622 0.44761 1.17503 0.0
C31 C 0.22769 0.24214 1.17657 0.0
H32 H -0.02113 0.69337 1.20934 0.0
H33 H 0.11914 0.77087 1.19737 0.0
H34 H 0.1639 0.73725 0.32521 0.0
H35 H 0.02406 0.66177 0.33707 0.0
H36 H 0.44366 0.48272 1.20487 0.0
H37 H 0.37706 0.33995 1.2041 0.0
H38 H 0.16335 0.33388 1.16634 0.0
H39 H 0.22837 0.47485 1.16503 0.0
Dy40 Dy 0.16727 0.30248 0.53797 0.0
Dy41 Dy 0.33725 0.32473 0.56398 0.0
C42 C 0.19015 0.16059 0.57589 0.0
O43 O 0.16326 0.31832 0.60675 0.0
O44 O 0.27829 0.3243 0.62657 0.0
O45 O 0.04271 0.2515 0.54675 0.0
O46 O 0.10044 0.33117 0.49522 0.0
O47 O 0.35082 0.42643 0.52694 0.0
O48 O 0.24648 0.42962 0.55191 0.0
O49 O 0.318 0.26671 0.49984 0.0
O50 O 0.20699 0.26877 0.47866 0.0
O51 O 0.44562 0.40807 0.59326 0.0
O52 O 0.43503 0.30336 0.56435 0.0
C53 C 0.21119 0.32177 0.63646 0.0
O54 O 0.14957 0.18387 0.55292 0.0
O55 O 0.2617 0.20633 0.58813 0.0
C56 C -0.00143 0.33968 0.52788 0.0
C57 C 0.93275 0.43916 0.5275 0.0
C58 C 0.88533 0.3572 0.52186 0.0
C59 C 0.91842 0.30836 0.52143 0.0
C60 C 0.0431 0.41752 0.54109 0.0
C61 C 0.01021 0.46659 0.54156 0.0
C62 C 0.03654 0.29377 0.51704 0.0
C63 C 0.31868 0.46683 0.53952 0.0
C64 C 0.26367 0.25226 0.47103 0.0
C65 C 0.50121 0.34101 0.62748 0.0
C66 C 0.52479 0.25937 0.69247 0.0
C67 C 0.58257 0.29627 0.66211 0.0
C68 C 0.57012 0.3361 0.62919 0.0
C69 C 0.4485 0.3121 0.66051 0.0
C70 C 0.46017 0.27155 0.69271 0.0
C71 C 0.47637 0.36251 0.58895 0.0
H72 H 0.82426 0.3311 0.51343 0.0
H73 H 0.88224 0.24733 0.51328 0.0
H74 H 0.10474 0.44193 0.54807 0.0
H75 H 0.04828 0.52763 0.5489 0.0
H76 H 0.63344 0.28839 0.66192 0.0
H77 H 0.61139 0.35825 0.60386 0.0
H78 H 0.39503 0.31524 0.65983 0.0
H79 H 0.41522 0.24402 0.71605 0.0
Dy80 Dy 0.10521 0.38275 0.90833 0.0
Dy81 Dy -0.02894 0.21037 0.8817 0.0
C82 C 0.13374 0.24426 0.91113 0.0
O83 O 0.13777 0.371 0.8407 0.0
O84 O 0.02645 0.26083 0.81928 0.0
O85 O 0.22689 0.47005 0.91283 0.0
O86 O 0.13755 0.49697 0.93306 0.0
O87 O 0.90908 0.28017 0.89089 0.0
O88 O 0.01464 0.39707 0.87405 0.0
O89 O 0.96166 0.2037 0.95216 0.0
O90 O 0.03035 0.33477 0.96762 0.0
O91 O 0.93037 0.08726 0.89187 0.0
O92 O 0.87751 0.12549 0.84391 0.0
C93 C 0.0964 0.32043 0.81075 0.0
O94 O 0.13561 0.29689 0.93614 0.0
O95 O 0.0913 0.22897 0.87777 0.0
C96 C 0.2517 0.54587 0.97278 0.0
C97 C 0.3217 0.59415 1.05111 0.0
C98 C 0.28268 0.51443 1.04064 0.0
C99 C 0.24786 0.49045 1.00178 0.0
C100 C 0.29023 0.62564 0.98315 0.0
C101 C 0.32514 0.64961 1.02228 0.0
C102 C 0.21197 0.51914 0.93274 0.0
C103 C 0.94017 0.35513 0.88196 0.0
C104 C -0.01728 0.26101 0.97931 0.0
C105 C 0.79736 0.00544 0.87612 0.0
C106 C 0.63425 0.91333 0.87724 0.0
C107 C 0.6731 -0.02423 0.90552 0.0
C108 C 0.75413 0.02242 0.90439 0.0
C109 C 0.76124 0.93522 0.85403 0.0
C110 C 0.68026 0.88864 0.85499 0.0
C111 C 0.87525 0.06599 0.8639 0.0
H112 H 0.27961 0.47078 1.06256 0.0
H113 H 0.21795 0.4286 0.99429 0.0
H114 H 0.29284 0.66902 0.96121 0.0
H115 H 0.35383 0.71079 1.03032 0.0
H116 H 0.64114 -0.00614 0.92556 0.0
H117 H 0.78204 0.07546 0.92272 0.0
H118 H 0.79454 0.9203 0.83286 0.0
H119 H 0.65447 0.83932 0.83396 0.0
Dy120 Dy 0.71916 0.07194 0.22134 0.0
Dy121 Dy 0.86912 0.21675 0.25472 0.0
C122 C 0.86591 0.05227 0.23988 0.0
O123 O 0.71766 0.0453 0.2913 0.0
O124 O 0.83353 0.14645 0.31424 0.0
O125 O 0.62841 0.96776 1.19293 0.0
O126 O 0.59912 0.04397 0.22902 0.0
O127 O 0.75931 0.22336 0.26579 0.0
O128 O 0.73644 0.18785 1.20191 0.0
O129 O 0.88966 0.22443 1.18399 0.0
O130 O 0.78847 0.10686 1.16077 0.0
O131 O 0.9286 0.34317 0.25231 0.0
O132 O -0.02528 0.28367 0.29055 0.0
C133 C 0.77061 0.07839 0.32121 0.0
O134 O 0.79033 0.01563 0.23336 0.0
O135 O 0.90843 0.12899 0.24372 0.0
C136 C 0.52509 -0.01503 1.16909 0.0
C137 C 0.45806 0.9231 1.09342 0.0
C138 C 0.52836 -0.00556 1.09466 0.0
C139 C 0.56232 0.02545 1.1329 0.0
C140 C 0.44571 0.92838 1.16749 0.0
C141 C 0.41064 0.89892 1.12882 0.0
C142 C 0.57388 -0.01534 1.20353 0.0
C143 C 0.72448 0.2245 0.23154 0.0
C144 C 0.85366 0.17391 1.15322 0.0
C145 C -0.02569 0.39494 0.31911 0.0
C146 C 0.94526 0.46431 0.38797 0.0
C147 C 0.94102 0.48946 0.3479 0.0
C148 C 0.95672 0.45599 0.31368 0.0
C149 C -0.01878 0.37191 0.35969 0.0
C150 C -0.03304 0.40654 0.39381 0.0
C151 C -0.02426 0.34973 0.28278 0.0
H152 H 0.56415 0.01675 1.06715 0.0
H153 H 0.62246 0.07181 1.13397 0.0
H154 H 0.41514 0.89846 1.19545 0.0
H155 H 0.35437 0.84594 1.12794 0.0
H156 H 0.92364 0.53336 0.34341 0.0
H157 H 0.95217 0.47553 0.28284 0.0
H158 H -0.00506 0.32532 0.36516 0.0
H159 H -0.02934 0.38668 0.4248 0.0
Dy160 Dy 0.73498 0.92001 0.58571 0.0
Dy161 Dy 0.76226 0.78499 0.54411 0.0
C162 C 0.90472 0.94209 0.57429 0.0
O163 O 0.72849 0.94069 0.5167 0.0
O164 O 0.78225 0.86951 0.48973 0.0
O165 O 0.77079 0.02519 0.62144 0.0
O166 O 0.65566 0.96571 0.59348 0.0
O167 O 0.63963 0.75502 0.53287 0.0
O168 O 0.62504 0.80463 0.59298 0.0
O169 O 0.76865 0.76569 0.61477 0.0
O170 O 0.77048 0.87488 0.64234 0.0
O171 O 0.71403 0.66109 0.53158 0.0
O172 O 0.83093 0.74548 0.51113 0.0
C173 C 0.75716 0.92106 0.48484 0.0
O174 O 0.86239 -0.02295 0.5712 0.0
O175 O 0.87499 0.86669 0.57145 0.0
C176 C 0.66453 0.00968 0.66217 0.0
C177 C 0.58947 0.9639 0.73912 0.0
C178 C 0.67059 -0.00411 0.73676 0.0
C179 C 0.70799 0.01897 0.69867 0.0
C180 C 0.58376 -0.01755 0.66512 0.0
C181 C 0.54638 0.95977 0.70348 0.0
C182 C 0.70053 0.01652 0.62122 0.0
C183 C 0.59489 0.75424 0.56257 0.0
C184 C 0.77961 0.81272 0.64693 0.0
C185 C 0.76111 0.63706 0.46858 0.0
C186 C 0.76554 0.60909 0.38366 0.0
C187 C 0.70408 0.61831 0.39943 0.0
C188 C 0.70249 0.63344 0.4418 0.0
C189 C 0.81716 0.61949 0.45335 0.0
C190 C 0.81952 0.60586 0.41124 0.0
C191 C 0.77476 0.67285 0.50983 0.0
H192 H 0.7046 0.00029 0.76431 0.0
H193 H 0.7703 0.04022 0.69769 0.0
H194 H 0.54894 -0.02515 0.63751 0.0
H195 H 0.48372 0.93572 0.70512 0.0
H196 H 0.66185 0.62089 0.37858 0.0
H197 H 0.65906 0.64765 0.45296 0.0
H198 H 0.86333 0.62317 0.47343 0.0
H199 H 0.86802 0.6001 0.39957 0.0
Dy200 Dy 0.03653 0.78635 0.87601 0.0
Dy201 Dy 0.87814 0.76515 0.91447 0.0
C202 C 0.02093 0.93783 0.90044 0.0
O203 O 0.07709 0.83249 0.9416 0.0
O204 O 0.95812 0.79205 0.97196 0.0
O205 O 0.14664 0.78599 0.87769 0.0
O206 O 0.10031 0.80231 0.81966 0.0
O207 O 0.85806 0.64508 0.89663 0.0
O208 O -0.01778 0.66635 0.90091 0.0
O209 O 0.87501 0.80847 0.84944 0.0
O210 O 0.94904 0.7607 0.82194 0.0
O211 O 0.80544 0.75987 0.96555 0.0
O212 O 0.75338 0.71378 0.90549 0.0
C213 C 0.03562 0.8262 0.975 0.0
O214 O 0.06305 0.90798 0.8864 0.0
O215 O 0.94661 0.89535 0.90989 0.0
C216 C 0.23483 0.87444 0.82919 0.0
C217 C 0.36628 0.0036 0.7959 0.0
C218 C 0.3059 0.01302 0.81286 0.0
C219 C 0.24076 0.94885 0.8297 0.0
C220 C 0.29731 0.86587 0.81503 0.0
C221 C 0.36304 0.93037 0.79865 0.0
C222 C 0.16037 0.80516 0.83871 0.0
C223 C 0.90762 0.6186 0.89886 0.0
C224 C 0.89871 0.78689 0.81645 0.0
C225 C 0.68631 0.75729 0.9489 0.0
C226 C 0.57775 0.79963 0.97712 0.0
C227 C 0.55187 0.72455 0.96097 0.0
C228 C 0.60605 0.70355 0.94684 0.0
C229 C 0.71163 0.83465 0.96128 0.0
C230 C 0.65749 0.85553 0.97557 0.0
C231 C 0.74162 0.72818 0.94325 0.0
H232 H 0.30725 0.06898 0.81101 0.0
H233 H 0.19302 0.95633 0.84083 0.0
H234 H 0.29336 0.80869 0.81437 0.0
H235 H 0.40773 0.92145 0.78468 0.0
H236 H 0.49075 0.68042 0.96272 0.0
H237 H 0.58564 0.64363 0.93718 0.0
H238 H 0.77333 0.87717 0.96271 0.0
H239 H 0.67843 0.91321 0.98885 0.0
C240 C 0.90039 0.95324 1.21363 0.0
C241 C 0.90448 0.00507 0.24543 0.0
C242 C -0.00106 -0.01772 0.28397 0.0
C243 C 0.00335 0.94225 0.24897 0.0
N244 N 0.93206 0.85202 1.19531 0.0
N245 N 0.93659 0.04711 0.31692 0.0
C246 C 0.94442 0.9146 0.21876 0.0
C247 C 0.94651 0.01203 0.28288 0.0
N248 N 0.86002 0.9454 1.17761 0.0
N249 N 0.04931 -0.00336 0.31645 0.0
H250 H 0.89986 0.07088 0.31669 0.0
H251 H 0.95983 0.04772 0.34613 0.0
H252 H 0.08472 0.9708 0.31839 0.0
H253 H 0.05644 0.03348 0.3412 0.0
H254 H 0.86209 0.91359 1.1523 0.0
H255 H 0.82943 -0.02462 1.1716 0.0
H256 H 0.88684 0.82559 1.17368 0.0
H257 H 0.96171 0.82133 1.20231 0.0
C258 C 0.01811 0.02574 0.62028 0.0
C259 C -0.01121 -0.01319 0.58166 0.0
C260 C 0.1209 0.02474 0.55994 0.0
C261 C 0.14787 0.08081 0.59139 0.0
N262 N 0.13425 0.11472 0.66027 0.0
N263 N 0.01176 0.94395 0.51522 0.0
C264 C 0.10012 0.07233 0.6253 0.0
C265 C 0.03988 -0.01735 0.55197 0.0
N266 N -0.032 0.01945 0.65109 0.0
N267 N 0.17412 0.0176 0.53626 0.0
H268 H 0.9527 0.91556 0.50715 0.0
H269 H 0.04756 0.94492 0.49132 0.0
H270 H 0.23375 0.05082 0.54301 0.0
H271 H 0.15928 -0.02484 0.51339 0.0
H272 H -0.0145 0.04625 0.67992 0.0
H273 H 0.90766 -0.01383 0.64798 0.0
H274 H 0.10432 0.11457 0.68675 0.0
H275 H 0.19496 0.14923 0.66251 0.0
C276 C 0.11968 0.073 0.87957 0.0
C277 C 0.06376 0.02269 0.90908 0.0
C278 C 0.10526 0.13402 0.95644 0.0
C279 C 0.1518 0.18313 0.92426 0.0
N280 N 0.23512 0.19899 0.86753 0.0
N281 N 0.02035 0.00184 0.98085 0.0
C282 C 0.17201 0.15107 0.89099 0.0
C283 C 0.06141 0.0519 0.94934 0.0
N284 N 0.1185 0.0485 0.83979 0.0
N285 N 0.1007 0.16729 0.99259 0.0
H286 H -0.01158 0.94138 0.97753 0.0
H287 H 0.02212 0.01936 1.01143 0.0
H288 H 0.13914 0.2263 0.99875 0.0
H289 H 0.06031 0.13772 1.01589 0.0
H290 H 0.15469 0.08526 0.81655 0.0
H291 H 0.07584 -0.006 0.82882 0.0
H292 H 0.25566 0.17865 0.84352 0.0
H293 H 0.27013 0.25806 0.87527 0.0
C294 C 0.44435 0.5944 1.1401 0.0
C295 C 0.38688 0.57665 1.17038 0.0
C296 C 0.3254 0.63185 1.12592 0.0
C297 C 0.36177 0.61708 1.0918 0.0
N298 N 0.46878 0.60189 1.06631 0.0
N299 N 0.31097 0.62693 1.20144 0.0
C300 C 0.42693 0.60579 1.09886 0.0
C301 C 0.34284 0.61562 1.16661 0.0
N302 N 0.51465 0.60183 1.15113 0.0
N303 N 0.27069 0.65449 1.11916 0.0
H304 H 0.32183 0.60992 0.23046 0.0
H305 H 0.27873 0.65614 1.20186 0.0
H306 H 0.25792 0.66698 1.08955 0.0
H307 H 0.23808 0.66074 1.14261 0.0
H308 H 0.56068 0.61915 1.13039 0.0
H309 H 0.52876 0.59981 1.18225 0.0
H310 H 0.51186 0.58581 1.06968 0.0
H311 H 0.45852 0.61326 1.03587 0.0
C312 C 0.84024 0.46086 0.48471 0.0
C313 C 0.90903 0.49554 0.50887 0.0
C314 C -0.01569 0.55774 0.4476 0.0
C315 C 0.92465 0.49546 0.42445 0.0
N316 N 0.78716 0.40208 0.41753 0.0
N317 N 0.01608 0.62647 0.51389 0.0
C318 C 0.84852 0.45278 0.44152 0.0
C319 C -0.0294 0.56247 0.49034 0.0
N320 N 0.76984 0.43004 0.50379 0.0
N321 N 0.05397 0.60779 0.42976 0.0
H322 H 0.00465 0.62698 0.54547 0.0
H323 H 0.06009 0.6787 0.50149 0.0
H324 H 0.06393 0.60519 0.39819 0.0
H325 H 0.10149 0.64974 0.44663 0.0
H326 H 0.71693 0.40591 0.48767 0.0
H327 H 0.7668 0.43397 0.53599 0.0
H328 H 0.73188 0.36482 0.42942 0.0
H329 H 0.7929 0.39699 0.38569 0.0
C330 C 0.52048 0.83173 0.83206 0.0
C331 C 0.55437 0.89303 0.86128 0.0
C332 C 0.55896 -0.01375 0.81094 0.0
C333 C 0.55152 0.93296 0.77937 0.0
N334 N 0.50567 0.79889 0.75851 0.0
N335 N 0.53108 -0.00321 0.883 0.0
C336 C 0.52289 0.85246 0.78937 0.0
C337 C 0.5462 0.95904 0.85223 0.0
N338 N 0.49726 0.75721 0.84499 0.0
N339 N 0.58288 0.06276 0.80194 0.0
H340 H 0.52014 -0.02532 0.91323 0.0
H341 H 0.52322 0.04494 0.87742 0.0
H342 H 0.59101 0.0838 0.7715 0.0
H343 H 0.59777 0.10499 0.82499 0.0
H344 H 0.47075 0.70827 0.82584 0.0
H345 H 0.50271 0.74545 0.87612 0.0
H346 H 0.49015 0.74056 0.76371 0.0
H347 H 0.50736 0.81351 0.72722 0.0
C348 C 0.49414 0.82115 1.07804 0.0
C349 C 0.45713 0.86432 1.06433 0.0
C350 C 0.47604 0.83902 0.99225 0.0
C351 C 0.52762 0.81251 1.00632 0.0
N352 N 0.58731 0.77815 1.06262 0.0
N353 N 0.40904 0.91179 1.0088 0.0
C354 C 0.53649 0.8028 1.04925 0.0
C355 C 0.44588 0.87146 1.02141 0.0
N356 N 0.48962 0.79816 1.11855 0.0
N357 N 0.45505 0.83178 0.95143 0.0
H358 H 0.38319 0.93236 1.02988 0.0
H359 H 0.40668 0.92698 0.978 0.0
H360 H 0.47544 0.80652 0.93006 0.0
H361 H 0.41219 0.84351 0.93982 0.0
H362 H 0.51351 0.76463 1.1299 0.0
H363 H 0.45308 0.80237 1.14013 0.0
H364 H 0.60591 0.78205 1.09329 0.0
H365 H 0.6146 0.75725 1.0428 0.0
C366 C 0.83549 0.69872 0.32654 0.0
C367 C 0.78682 0.62044 0.33916 0.0
C368 C 0.84884 0.57761 0.28765 0.0
C369 C 0.91175 0.65528 0.28616 0.0
N370 N 0.9644 0.79187 0.30334 0.0
N371 N 0.73755 0.48321 0.32772 0.0
C372 C 0.90383 0.71689 0.30419 0.0
C373 C 0.78894 0.55889 0.31738 0.0
N374 N 0.81888 0.75594 0.338 0.0
N375 N 0.84838 0.52229 0.26201 0.0
H376 H 0.69266 0.46959 0.3489 0.0
H377 H 0.74111 0.43529 0.31651 0.0
H378 H 0.8923 0.5364 0.24017 0.0
H379 H 0.80205 0.46514 0.26014 0.0
H380 H 0.85003 0.81346 0.32716 0.0
H381 H 0.76869 0.74368 0.35443 0.0
H382 H -0.03369 0.8358 0.32217 0.0
H383 H 0.01487 0.80852 0.28619 0.0
C384 C 0.42971 0.05744 0.72725 0.0
C385 C 0.42692 0.06792 0.77069 0.0
C386 C 0.52169 0.20765 0.76332 0.0
C387 C 0.5211 0.19679 0.71996 0.0
N388 N 0.50073 0.10889 0.6634 0.0
N389 N 0.48157 0.14846 0.83154 0.0
C390 C 0.48516 0.12043 0.70315 0.0
C391 C 0.47724 0.14171 0.7893 0.0
N392 N 0.37463 -0.00949 0.7082 0.0
N393 N 0.56106 0.28197 0.77886 0.0
H394 H 0.44875 0.10124 0.85121 0.0
H395 H 0.52158 0.19882 0.84716 0.0
H396 H 0.59646 0.3299 0.76005 0.0
H397 H 0.55725 0.29641 0.80945 0.0
H398 H 0.36921 -0.01601 0.67608 0.0
H399 H 0.32889 0.94427 0.72378 0.0
H400 H 0.47968 0.05351 0.65042 0.0
H401 H 0.5417 0.15404 0.64504 0.0
C402 C 0.52617 0.19465 0.26192 0.0
C403 C 0.48912 0.17196 0.2223 0.0
C404 C 0.61696 0.22477 1.18955 0.0
C405 C 0.65155 0.23095 0.22919 0.0
N406 N 0.64812 0.25898 0.30134 0.0
N407 N 0.49858 0.16585 1.14798 0.0
C408 C 0.60892 0.2272 0.26513 0.0
C409 C 0.53445 0.18883 1.18585 0.0
N410 N 0.48172 0.18346 0.29635 0.0
N411 N 0.66386 0.25541 1.1557 0.0
H412 H 0.43822 0.1397 1.14395 0.0
H413 H 0.52808 0.16773 1.12093 0.0
H414 H 0.72467 0.2864 1.1584 0.0
H415 H 0.64314 0.25821 1.12624 0.0
H416 H 0.50262 0.18993 0.32665 0.0
H417 H 0.4223 0.16558 0.2945 0.0
H418 H 0.6217 0.26176 0.32861 0.0
H419 H 0.7089 0.2916 0.30265 0.0
C420 C 0.40463 0.60429 0.51471 0.0
C421 C 0.37048 0.5514 0.54812 0.0
C422 C 0.47498 0.64096 0.59481 0.0
C423 C 0.51096 0.69319 0.56102 0.0
N424 N 0.49643 0.73697 0.4931 0.0
N425 N 0.35653 0.53267 0.62217 0.0
C426 C 0.47093 0.6789 0.52234 0.0
C427 C 0.39976 0.57466 0.58898 0.0
N428 N 0.37519 0.58205 0.47553 0.0
N429 N 0.51455 0.64998 0.63128 0.0
H430 H 0.30097 0.48441 0.61896 0.0
H431 H 0.37187 0.55126 0.65275 0.0
H432 H 0.57046 0.69593 0.63712 0.0
H433 H 0.49433 0.60783 0.65473 0.0
H434 H 0.40301 0.61396 0.44904 0.0
H435 H 0.32411 0.52942 0.46958 0.0
H436 H 0.46651 0.73231 0.4655 0.0
H437 H 0.54342 0.79293 0.49851 0.0
C438 C 0.88496 0.42081 0.92587 0.0
C439 C 0.89593 0.39842 0.88572 0.0
C440 C 0.87543 0.50195 0.85485 0.0
C441 C 0.88172 0.53389 0.89499 0.0
N442 N 0.88443 0.52214 0.96907 0.0
N443 N 0.89236 0.40967 0.81167 0.0
C444 C 0.88219 0.4917 0.93069 0.0
C445 C 0.88652 0.43568 0.85002 0.0
N446 N 0.87943 0.37531 0.95931 0.0
N447 N 0.86094 0.53656 0.82154 0.0
H448 H 0.89656 0.35892 0.80778 0.0
H449 H 0.8947 0.43845 0.78403 0.0
H450 H 0.85293 0.58519 0.82465 0.0
H451 H 0.85084 0.51412 0.79157 0.0
H452 H 0.86615 0.38467 0.98919 0.0
H453 H 0.88156 0.32357 0.95633 0.0
H454 H 0.89427 0.50013 0.99657 0.0
H455 H 0.87856 0.57189 0.97319 0.0
C456 C 0.22313 0.19212 0.35353 0.0
C457 C 0.25573 0.14155 0.34708 0.0
C458 C 0.28733 0.15669 0.42332 0.0
C459 C 0.26495 0.21595 0.42807 0.0
N460 N 0.23308 0.30407 0.39072 0.0
N461 N 0.33559 0.09162 0.37755 0.0
C462 C 0.23912 0.23749 0.39111 0.0
C463 C 0.29246 0.12837 0.38252 0.0
N464 N 0.17286 0.19458 0.32479 0.0
N465 N 0.30046 0.12376 0.45773 0.0
H466 H 0.34371 0.07238 0.34895 0.0
H467 H 0.37039 0.08804 0.40112 0.0
H468 H 0.29501 0.13937 0.48777 0.0
H469 H 0.30826 0.07484 0.45641 0.0
H470 H 0.15337 0.15832 0.29884 0.0
H471 H 0.14223 0.22475 0.32975 0.0
H472 H 0.22113 0.32609 0.36374 0.0
H473 H 0.25026 0.34274 0.41568 0.0
C474 C 0.10383 0.28478 0.69225 0.0
C475 C 0.18528 0.321 0.68227 0.0
C476 C 0.20995 0.34942 0.75844 0.0
C477 C 0.12963 0.32603 0.76635 0.0
N478 N 0.00578 0.2924 0.73395 0.0
N479 N 0.31643 0.40352 0.70889 0.0
C480 C 0.07856 0.30021 0.73117 0.0
C481 C 0.23849 0.35785 0.71625 0.0
N482 N 0.04924 0.23101 0.66594 0.0
N483 N 0.25917 0.35957 0.79085 0.0
H484 H 0.34045 0.41468 0.67937 0.0
H485 H 0.35608 0.43744 0.73191 0.0
H486 H 0.24106 0.34929 0.82161 0.0
H487 H 0.31566 0.36884 0.7867 0.0
H488 H -0.00983 0.19905 0.67349 0.0
H489 H 0.0637 0.20957 0.63993 0.0
H490 H -0.03121 0.27952 0.70828 0.0
H491 H -0.01327 0.3089 0.7602 0.0
C492 C 0.8676 0.20286 1.0319 0.0
C493 C 0.94991 0.2406 1.02416 0.0
C494 C -0.03242 0.22448 1.10005 0.0
C495 C 0.88663 0.19563 1.10845 0.0
N496 N 0.76401 0.17632 1.08105 0.0
N497 N 0.07878 0.29784 1.05461 0.0
C498 C 0.83793 0.18963 1.07387 0.0
C499 C -0.00019 0.25492 1.05945 0.0
N500 N 0.81656 0.17927 0.99919 0.0
N501 N 0.01368 0.21841 1.13014 0.0
H502 H 0.1048 0.31887 1.02591 0.0
H503 H 0.1179 0.31776 1.07952 0.0
H504 H -0.00723 0.19476 1.15941 0.0
H505 H 0.06984 0.22811 1.12438 0.0
H506 H 0.75653 0.14313 1.00259 0.0
H507 H 0.83433 0.19068 0.9684 0.0
H508 H 0.72797 0.17893 1.05792 0.0
H509 H 0.74217 0.17207 1.11085 0.0
C510 C 0.78541 0.07865 0.40132 0.0
C511 C 0.76299 0.03588 0.36324 0.0
C512 C 0.73126 0.9156 0.40523 0.0
C513 C 0.76165 0.96019 0.44232 0.0
N514 N 0.83717 0.08963 0.47117 0.0
N515 N 0.73308 0.91353 0.32998 0.0
C516 C 0.79399 0.04318 0.43899 0.0
C517 C 0.74076 0.95423 0.36556 0.0
N518 N 0.79563 0.15287 0.40234 0.0
N519 N 0.69058 0.83568 0.40764 0.0
H520 H 0.74213 0.93849 0.30062 0.0
H521 H 0.72628 0.85727 0.32987 0.0
H522 H 0.68087 0.80516 0.43555 0.0
H523 H 0.65997 0.80012 0.38259 0.0
H524 H 0.80491 0.18422 0.4298 0.0
H525 H 0.78587 0.17956 0.37662 0.0
H526 H 0.87089 0.15025 0.46833 0.0
H527 H 0.84729 0.06731 0.49857 0.0
C528 C 0.88501 0.8117 0.69595 0.0
C529 C 0.80734 0.79891 0.68983 0.0
C530 C 0.78631 0.76818 0.76566 0.0
C531 C 0.86681 0.7905 0.77259 0.0
N532 N -0.00417 0.85374 0.74299 0.0
N533 N 0.68836 0.777 0.72244 0.0
C534 C 0.91677 0.8174 0.73724 0.0
C535 C 0.75976 0.78143 0.72589 0.0
N536 N 0.92953 0.81846 0.6623 0.0
N537 N 0.73332 0.72951 0.79624 0.0
H538 H 0.66485 0.78148 0.69408 0.0
H539 H 0.65515 0.77452 0.74804 0.0
H540 H 0.74824 0.71274 0.82404 0.0
H541 H 0.67327 0.70563 0.7921 0.0
H542 H -0.01671 0.82014 0.66454 0.0
H543 H 0.90921 0.81382 0.63203 0.0
H544 H 0.03558 0.88212 0.7192 0.0
H545 H 0.02197 0.86421 0.77224 0.0
C546 C 0.14671 0.93629 1.02023 0.0
C547 C 0.07775 0.86067 1.01726 0.0
C548 C 0.07964 0.85577 1.09505 0.0
C549 C 0.15031 0.92966 1.09782 0.0
N550 N 0.26152 0.02636 1.06026 0.0
N551 N -0.00611 0.74098 1.0537 0.0
C552 C 0.18649 0.96566 1.05953 0.0
C553 C 0.04872 0.8186 1.0553 0.0
N554 N 0.17353 -0.01705 0.98588 0.0
N555 N 0.03951 0.82137 1.13039 0.0
H556 H -0.02731 0.71072 1.02587 0.0
H557 H -0.02379 0.70444 1.07963 0.0
H558 H 0.05958 0.84471 1.15967 0.0
H559 H -0.01664 0.77326 1.1304 0.0
H560 H 0.21626 0.04182 0.98716 0.0
H561 H 0.14848 0.96603 0.95665 0.0
H562 H 0.29481 0.04961 1.03361 0.0
H563 H 0.29379 0.0472 1.08764 0.0
loop_
_geom_bond_atom_site_label_1
_geom_bond_atom_site_label_2
_geom_bond_distance
_geom_bond_site_symmetry_2
_ccdc_geom_bond_type
Dy0 O3 2.307 1_554 S
Dy0 O5 2.395 . S
Dy0 O6 2.379 . S
Dy0 O8 2.339 . S
Dy0 O10 2.298 1_565 S
Dy0 O14 2.275 . S
Dy0 C22 2.738 . S
Dy1 O4 2.289 1_544 S
Dy1 O7 2.280 . S
Dy1 O9 2.323 . S
Dy1 O11 2.382 1_554 S
Dy1 O12 2.365 1_554 S
Dy1 O15 2.341 . S
Dy1 C31 2.723 1_554 S
C2 O14 1.254 1_545 S
C2 O15 1.257 . S
O3 Dy0 2.307 1_556 S
O3 C13 1.266 . S
O4 Dy1 2.289 1_566 S
O4 C13 1.236 . S
O5 Dy0 2.395 . S
O5 C22 1.255 . S
O6 Dy0 2.379 . S
O6 C22 1.249 . S
O7 Dy1 2.280 . S
O7 C23 1.254 1_545 S
O8 Dy0 2.339 . S
O8 C23 1.257 . S
O9 Dy1 2.323 . S
O9 C24 1.266 . S
O10 Dy0 2.298 1_545 S
O10 C24 1.236 . S
O11 Dy1 2.382 1_556 S
O11 C31 1.255 . S
O12 Dy1 2.365 1_556 S
O12 C31 1.249 . S
C13 O3 1.266 . S
C13 O4 1.236 . S
O14 Dy0 2.275 . S
O14 C2 1.254 1_565 S
O15 Dy1 2.341 . S
O15 C2 1.257 . S
C16 C19 1.344 . S
C16 C20 1.328 . S
C16 C22 1.516 . S
C17 C18 1.304 . S
C17 C21 1.323 . S
C18 C17 1.304 . S
C18 C19 1.371 . S
C18 H32 0.930 1_455 S
C19 C16 1.344 . S
C19 C18 1.371 . S
C19 H33 0.931 . S
C20 C16 1.328 . S
C20 C21 1.433 . S
C20 H34 0.931 . S
C21 C17 1.323 . S
C21 C20 1.433 . S
C21 H35 0.933 . S
C22 Dy0 2.738 . S
C22 O5 1.255 . S
C22 O6 1.249 . S
C22 C16 1.516 . S
C23 O7 1.254 1_565 S
C23 O8 1.257 . S
C24 O9 1.266 . S
C24 O10 1.236 . S
C25 C28 1.344 . S
C25 C29 1.328 . S
C25 C31 1.516 . S
C26 C27 1.304 . S
C26 C30 1.323 . S
C27 C26 1.304 . S
C27 C28 1.371 . S
C27 H36 0.930 . S
C28 C25 1.344 . S
C28 C27 1.371 . S
C28 H37 0.931 . S
C29 C25 1.328 . S
C29 C30 1.433 . S
C29 H38 0.931 . S
C30 C26 1.323 . S
C30 C29 1.433 . S
C30 H39 0.933 . S
C31 Dy1 2.723 1_556 S
C31 O11 1.255 . S
C31 O12 1.249 . S
C31 C25 1.516 . S
H32 C18 0.930 1_655 S
H33 C19 0.931 . S
H34 C20 0.931 . S
H35 C21 0.933 . S
H36 C27 0.930 . S
H37 C28 0.931 . S
H38 C29 0.931 . S
H39 C30 0.933 . S
Dy40 O43 2.307 . S
Dy40 O45 2.395 . S
Dy40 O46 2.379 . S
Dy40 O48 2.339 . S
Dy40 O50 2.298 . S
Dy40 O54 2.275 . S
Dy40 C62 2.738 . S
Dy41 O44 2.298 . S
Dy41 O47 2.275 . S
Dy41 O49 2.307 . S
Dy41 O51 2.395 . S
Dy41 O52 2.379 . S
Dy41 O55 2.339 . S
Dy41 C71 2.738 . S
C42 O54 1.254 . S
C42 O55 1.257 . S
O43 Dy40 2.307 . S
O43 C53 1.266 . S
O44 Dy41 2.298 . S
O44 C53 1.236 . S
O45 Dy40 2.395 . S
O45 C62 1.255 . S
O46 Dy40 2.379 . S
O46 C62 1.249 . S
O47 Dy41 2.275 . S
O47 C63 1.254 . S
O48 Dy40 2.339 . S
O48 C63 1.257 . S
O49 Dy41 2.307 . S
O49 C64 1.266 . S
O50 Dy40 2.298 . S
O50 C64 1.236 . S
O51 Dy41 2.395 . S
O51 C71 1.255 . S
O52 Dy41 2.379 . S
O52 C71 1.249 . S
C53 O43 1.266 . S
C53 O44 1.236 . S
O54 Dy40 2.275 . S
O54 C42 1.254 . S
O55 Dy41 2.339 . S
O55 C42 1.257 . S
C56 C59 1.344 . S
C56 C60 1.328 . S
C56 C62 1.516 . S
C57 C58 1.304 . S
C57 C61 1.323 . S
C58 C57 1.304 . S
C58 C59 1.371 . S
C58 H72 0.930 . S
C59 C56 1.344 . S
C59 C58 1.371 . S
C59 H73 0.931 . S
C60 C56 1.328 . S
C60 C61 1.433 . S
C60 H74 0.931 . S
C61 C57 1.323 . S
C61 C60 1.433 . S
C61 H75 0.933 . S
C62 Dy40 2.738 . S
C62 O45 1.255 . S
C62 O46 1.249 . S
C62 C56 1.516 . S
C63 O47 1.254 . S
C63 O48 1.257 . S
C64 O49 1.266 . S
C64 O50 1.236 . S
C65 C68 1.344 . S
C65 C69 1.328 . S
C65 C71 1.516 . S
C66 C67 1.304 . S
C66 C70 1.323 . S
C67 C66 1.304 . S
C67 C68 1.371 . S
C67 H76 0.930 . S
C68 C65 1.344 . S
C68 C67 1.371 . S
C68 H77 0.931 . S
C69 C65 1.328 . S
C69 C70 1.433 . S
C69 H78 0.931 . S
C70 C66 1.323 . S
C70 C69 1.433 . S
C70 H79 0.933 . S
C71 Dy41 2.738 . S
C71 O51 1.255 . S
C71 O52 1.249 . S
C71 C65 1.516 . S
H72 C58 0.930 . S
H73 C59 0.931 . S
H74 C60 0.931 . S
H75 C61 0.933 . S
H76 C67 0.930 . S
H77 C68 0.931 . S
H78 C69 0.931 . S
H79 C70 0.933 . S
Dy80 O83 2.307 . S
Dy80 O85 2.395 . S
Dy80 O86 2.379 . S
Dy80 O88 2.339 . S
Dy80 O90 2.298 . S
Dy80 O94 2.275 . S
Dy80 C102 2.738 . S
Dy81 O84 2.298 . S
Dy81 O87 2.275 . S
Dy81 O89 2.307 . S
Dy81 O91 2.395 1_455 S
Dy81 O92 2.379 1_455 S
Dy81 O95 2.339 . S
Dy81 C111 2.738 1_455 S
C82 O94 1.254 . S
C82 O95 1.257 . S
O83 Dy80 2.307 . S
O83 C93 1.266 . S
O84 Dy81 2.298 . S
O84 C93 1.236 . S
O85 Dy80 2.395 . S
O85 C102 1.255 . S
O86 Dy80 2.379 . S
O86 C102 1.249 . S
O87 Dy81 2.275 . S
O87 C103 1.254 . S
O88 Dy80 2.339 . S
O88 C103 1.257 . S
O89 Dy81 2.307 . S
O89 C104 1.266 . S
O90 Dy80 2.298 . S
O90 C104 1.236 . S
O91 Dy81 2.395 1_655 S
O91 C111 1.255 . S
O92 Dy81 2.379 1_655 S
O92 C111 1.249 . S
C93 O83 1.266 . S
C93 O84 1.236 . S
O94 Dy80 2.275 . S
O94 C82 1.254 . S
O95 Dy81 2.339 . S
O95 C82 1.257 . S
C96 C99 1.344 . S
C96 C100 1.328 . S
C96 C102 1.516 . S
C97 C98 1.304 . S
C97 C101 1.323 . S
C98 C97 1.304 . S
C98 C99 1.371 . S
C98 H112 0.930 . S
C99 C96 1.344 . S
C99 C98 1.371 . S
C99 H113 0.931 . S
C100 C96 1.328 . S
C100 C101 1.433 . S
C100 H114 0.931 . S
C101 C97 1.323 . S
C101 C100 1.433 . S
C101 H115 0.933 . S
C102 Dy80 2.738 . S
C102 O85 1.255 . S
C102 O86 1.249 . S
C102 C96 1.516 . S
C103 O87 1.254 . S
C103 O88 1.257 . S
C104 O89 1.266 . S
C104 O90 1.236 . S
C105 C108 1.344 . S
C105 C109 1.328 . S
C105 C111 1.516 . S
C106 C107 1.304 . S
C106 C110 1.323 . S
C107 C106 1.304 . S
C107 C108 1.371 . S
C107 H116 0.930 . S
C108 C105 1.344 . S
C108 C107 1.371 . S
C108 H117 0.931 . S
C109 C105 1.328 . S
C109 C110 1.433 . S
C109 H118 0.931 . S
C110 C106 1.323 . S
C110 C109 1.433 . S
C110 H119 0.933 . S
C111 Dy81 2.738 1_655 S
C111 O91 1.255 . S
C111 O92 1.249 . S
C111 C105 1.516 . S
H112 C98 0.930 . S
H113 C99 0.931 . S
H114 C100 0.931 . S
H115 C101 0.933 . S
H116 C107 0.930 . S
H117 C108 0.931 . S
H118 C109 0.931 . S
H119 C110 0.933 . S
Dy120 O123 2.307 1_556 S
Dy120 O125 2.395 1_545 S
Dy120 O126 2.379 1_545 S
Dy120 O128 2.339 1_556 S
Dy120 O130 2.298 . S
Dy120 O134 2.275 1_556 S
Dy120 C142 2.738 1_545 S
Dy121 O124 2.298 . S
Dy121 O127 2.275 . S
Dy121 O129 2.307 1_554 S
Dy121 O131 2.395 . S
Dy121 O132 2.379 . S
Dy121 O135 2.339 . S
Dy121 C151 2.738 . S
C122 O134 1.254 . S
C122 O135 1.257 . S
O123 Dy120 2.307 1_554 S
O123 C133 1.266 . S
O124 Dy121 2.298 . S
O124 C133 1.236 . S
O125 Dy120 2.395 1_565 S
O125 C142 1.255 . S
O126 Dy120 2.379 1_565 S
O126 C142 1.249 . S
O127 Dy121 2.275 . S
O127 C143 1.254 . S
O128 Dy120 2.339 1_554 S
O128 C143 1.257 . S
O129 Dy121 2.307 1_556 S
O129 C144 1.266 . S
O130 Dy120 2.298 . S
O130 C144 1.236 . S
O131 Dy121 2.395 . S
O131 C151 1.255 . S
O132 Dy121 2.379 . S
O132 C151 1.249 . S
C133 O123 1.266 . S
C133 O124 1.236 . S
O134 Dy120 2.275 1_554 S
O134 C122 1.254 . S
O135 Dy121 2.339 . S
O135 C122 1.257 . S
C136 C139 1.344 . S
C136 C140 1.328 . S
C136 C142 1.516 . S
C137 C138 1.304 . S
C137 C141 1.323 . S
C138 C137 1.304 . S
C138 C139 1.371 . S
C138 H152 0.930 . S
C139 C136 1.344 . S
C139 C138 1.371 . S
C139 H153 0.931 . S
C140 C136 1.328 . S
C140 C141 1.433 . S
C140 H154 0.931 . S
C141 C137 1.323 . S
C141 C140 1.433 . S
C141 H155 0.933 . S
C142 Dy120 2.738 1_565 S
C142 O125 1.255 . S
C142 O126 1.249 . S
C142 C136 1.516 . S
C143 O127 1.254 . S
C143 O128 1.257 . S
C144 O129 1.266 . S
C144 O130 1.236 . S
C145 C148 1.344 . S
C145 C149 1.328 . S
C145 C151 1.516 . S
C146 C147 1.304 . S
C146 C150 1.323 . S
C147 C146 1.304 . S
C147 C148 1.371 . S
C147 H156 0.930 . S
C148 C145 1.344 . S
C148 C147 1.371 . S
C148 H157 0.931 . S
C149 C145 1.328 . S
C149 C150 1.433 . S
C149 H158 0.931 . S
C150 C146 1.323 . S
C150 C149 1.433 . S
C150 H159 0.933 . S
C151 Dy121 2.738 . S
C151 O131 1.255 . S
C151 O132 1.249 . S
C151 C145 1.516 . S
H152 C138 0.930 . S
H153 C139 0.931 . S
H154 C140 0.931 . S
H155 C141 0.933 . S
H156 C147 0.930 . S
H157 C148 0.931 . S
H158 C149 0.931 . S
H159 C150 0.933 . S
Dy160 O163 2.307 . S
Dy160 O165 2.395 1_565 S
Dy160 O166 2.379 . S
Dy160 O168 2.339 . S
Dy160 O170 2.298 . S
Dy160 O174 2.275 . S
Dy160 C182 2.738 . S
Dy161 O164 2.298 . S
Dy161 O167 2.275 . S
Dy161 O169 2.307 . S
Dy161 O171 2.395 . S
Dy161 O172 2.379 . S
Dy161 O175 2.339 . S
Dy161 C191 2.738 . S
C162 O174 1.254 1_545 S
C162 O175 1.257 1_545 S
O163 Dy160 2.307 . S
O163 C173 1.266 . S
O164 Dy161 2.298 . S
O164 C173 1.236 . S
O165 Dy160 2.395 1_545 S
O165 C182 1.255 1_545 S
O166 Dy160 2.379 . S
O166 C182 1.249 . S
O167 Dy161 2.275 . S
O167 C183 1.254 . S
O168 Dy160 2.339 . S
O168 C183 1.257 . S
O169 Dy161 2.307 . S
O169 C184 1.266 . S
O170 Dy160 2.298 . S
O170 C184 1.236 . S
O171 Dy161 2.395 . S
O171 C191 1.255 . S
O172 Dy161 2.379 . S
O172 C191 1.249 . S
C173 O163 1.266 . S
C173 O164 1.236 . S
O174 Dy160 2.275 . S
O174 C162 1.254 1_565 S
O175 Dy161 2.339 . S
O175 C162 1.257 1_565 S
C176 C179 1.344 . S
C176 C180 1.328 1_545 S
C176 C182 1.516 1_545 S
C177 C178 1.304 . S
C177 C181 1.323 . S
C178 C177 1.304 . S
C178 C179 1.371 . S
C178 H192 0.930 . S
C179 C176 1.344 . S
C179 C178 1.371 . S
C179 H193 0.931 . S
C180 C176 1.328 1_565 S
C180 C181 1.433 1_565 S
C180 H194 0.931 . S
C181 C177 1.323 . S
C181 C180 1.433 1_545 S
C181 H195 0.933 . S
C182 Dy160 2.738 . S
C182 O165 1.255 1_565 S
C182 O166 1.249 . S
C182 C176 1.516 1_565 S
C183 O167 1.254 . S
C183 O168 1.257 . S
C184 O169 1.266 . S
C184 O170 1.236 . S
C185 C188 1.344 . S
C185 C189 1.328 . S
C185 C191 1.516 . S
C186 C187 1.304 . S
C186 C190 1.323 . S
C187 C186 1.304 . S
C187 C188 1.371 . S
C187 H196 0.930 . S
C188 C185 1.344 . S
C188 C187 1.371 . S
C188 H197 0.931 . S
C189 C185 1.328 . S
C189 C190 1.433 . S
C189 H198 0.931 . S
C190 C186 1.323 . S
C190 C189 1.433 . S
C190 H199 0.933 . S
C191 Dy161 2.738 . S
C191 O171 1.255 . S
C191 O172 1.249 . S
C191 C185 1.516 . S
H192 C178 0.930 . S
H193 C179 0.931 . S
H194 C180 0.931 . S
H195 C181 0.933 . S
H196 C187 0.930 . S
H197 C188 0.931 . S
H198 C189 0.931 . S
H199 C190 0.933 . S
Dy200 O203 2.307 . S
Dy200 O205 2.395 . S
Dy200 O206 2.379 . S
Dy200 O208 2.339 . S
Dy200 O210 2.298 1_455 S
Dy200 O214 2.275 . S
Dy200 C222 2.738 . S
Dy201 O204 2.298 1_655 S
Dy201 O207 2.275 . S
Dy201 O209 2.307 . S
Dy201 O211 2.395 . S
Dy201 O212 2.379 . S
Dy201 O215 2.339 . S
Dy201 C231 2.738 . S
C202 O214 1.254 . S
C202 O215 1.257 1_455 S
O203 Dy200 2.307 . S
O203 C213 1.266 . S
O204 Dy201 2.298 1_455 S
O204 C213 1.236 . S
O205 Dy200 2.395 . S
O205 C222 1.255 . S
O206 Dy200 2.379 . S
O206 C222 1.249 . S
O207 Dy201 2.275 . S
O207 C223 1.266 . S
O208 Dy200 2.339 . S
O208 C223 1.247 1_455 S
O209 Dy201 2.307 . S
O209 C224 1.266 . S
O210 Dy200 2.298 1_655 S
O210 C224 1.236 . S
O211 Dy201 2.395 . S
O211 C231 1.255 . S
O212 Dy201 2.379 . S
O212 C231 1.249 . S
C213 O203 1.266 . S
C213 O204 1.236 . S
O214 Dy200 2.275 . S
O214 C202 1.254 . S
O215 Dy201 2.339 . S
O215 C202 1.257 1_655 S
C216 C219 1.344 . S
C216 C220 1.328 . S
C216 C222 1.516 . S
C217 C218 1.304 1_565 S
C217 C221 1.323 . S
C218 C217 1.304 1_545 S
C218 C219 1.371 1_545 S
C218 H232 0.930 . S
C219 C216 1.344 . S
C219 C218 1.371 1_565 S
C219 H233 0.931 1_565 S
C220 C216 1.328 . S
C220 C221 1.433 . S
C220 H234 0.931 . S
C221 C217 1.323 . S
C221 C220 1.433 . S
C221 H235 0.933 . S
C222 Dy200 2.738 . S
C222 O205 1.255 . S
C222 O206 1.249 . S
C222 C216 1.516 . S
C223 O207 1.266 . S
C223 O208 1.247 1_655 S
C224 O209 1.266 . S
C224 O210 1.236 . S
C225 C228 1.344 . S
C225 C229 1.328 . S
C225 C231 1.516 . S
C226 C227 1.304 . S
C226 C230 1.323 . S
C227 C226 1.304 . S
C227 C228 1.371 . S
C227 H236 0.930 . S
C228 C225 1.344 . S
C228 C227 1.371 . S
C228 H237 0.931 . S
C229 C225 1.328 . S
C229 C230 1.433 . S
C229 H238 0.931 . S
C230 C226 1.323 . S
C230 C229 1.433 . S
C230 H239 0.933 . S
C231 Dy201 2.738 . S
C231 O211 1.255 . S
C231 O212 1.249 . S
C231 C225 1.516 . S
H232 C218 0.930 . S
H233 C219 0.931 1_545 S
H234 C220 0.931 . S
H235 C221 0.933 . S
H236 C227 0.930 . S
H237 C228 0.931 . S
H238 C229 0.931 . S
H239 C230 0.933 . S
C240 C241 1.363 . S
C240 C246 1.379 1_545 S
C240 N248 1.356 1_544 S
C241 C240 1.363 . S
C241 C247 1.363 1_655 S
C242 C243 1.363 . S
C242 C247 1.379 . S
C242 N249 1.356 . S
C243 C242 1.363 . S
C243 C246 1.363 1_445 S
N244 C246 1.356 . S
N244 H256 0.984 1_554 S
N244 H257 0.985 1_655 S
N245 C247 1.356 . S
N245 H250 0.984 1_455 S
N245 H251 0.985 . S
C246 C240 1.379 1_565 S
C246 C243 1.363 1_665 S
C246 N244 1.356 . S
C247 C241 1.363 1_455 S
C247 C242 1.379 . S
C247 N245 1.356 . S
N248 C240 1.356 1_566 S
N248 H254 0.984 . S
N248 H255 0.984 1_565 S
N249 C242 1.356 . S
N249 H252 0.984 . S
N249 H253 0.985 . S
H250 N245 0.984 1_655 S
H251 N245 0.985 . S
H252 N249 0.984 . S
H253 N249 0.985 . S
H254 N248 0.984 . S
H255 N248 0.984 1_545 S
H256 N244 0.984 1_556 S
H257 N244 0.985 1_455 S
C258 C259 1.363 . S
C258 C264 1.379 1_655 S
C258 N266 1.356 . S
C259 C258 1.363 . S
C259 C265 1.363 . S
C260 C261 1.363 . S
C260 C265 1.379 1_455 S
C260 N267 1.356 . S
C261 C260 1.363 . S
C261 C264 1.363 . S
N262 C264 1.356 . S
N262 H274 0.984 . S
N262 H275 0.985 . S
N263 C265 1.356 . S
N263 H268 0.984 1_545 S
N263 H269 0.985 1_545 S
C264 C258 1.379 1_455 S
C264 C261 1.363 . S
C264 N262 1.356 . S
C265 C259 1.363 . S
C265 C260 1.379 1_655 S
C265 N263 1.356 . S
N266 C258 1.356 . S
N266 H272 0.984 . S
N266 H273 0.984 . S
N267 C260 1.356 . S
N267 H270 0.984 . S
N267 H271 0.985 . S
H268 N263 0.984 1_565 S
H269 N263 0.985 1_565 S
H270 N267 0.984 . S
H271 N267 0.985 . S
H272 N266 0.984 . S
H273 N266 0.984 . S
H274 N262 0.984 . S
H275 N262 0.985 . S
C276 C277 1.363 . S
C276 C282 1.379 . S
C276 N284 1.356 . S
C277 C276 1.363 . S
C277 C283 1.363 . S
C278 C279 1.363 . S
C278 C283 1.379 . S
C278 N285 1.356 . S
C279 C278 1.363 . S
C279 C282 1.363 . S
N280 C282 1.356 . S
N280 H292 0.984 . S
N280 H293 0.985 . S
N281 C283 1.351 1_665 S
N281 H286 0.991 . S
N281 H287 0.978 1_565 S
C282 C276 1.379 . S
C282 C279 1.363 . S
C282 N280 1.356 . S
C283 C277 1.363 . S
C283 C278 1.379 . S
C283 N281 1.351 1_445 S
N284 C276 1.356 . S
N284 H290 0.984 . S
N284 H291 0.984 1_545 S
N285 C278 1.356 . S
N285 H288 0.984 . S
N285 H289 0.985 . S
H286 N281 0.991 . S
H287 N281 0.978 1_545 S
H288 N285 0.984 . S
H289 N285 0.985 . S
H290 N284 0.984 . S
H291 N284 0.984 1_565 S
H292 N280 0.984 . S
H293 N280 0.985 . S
C294 C295 1.363 . S
C294 C300 1.379 . S
C294 N302 1.356 . S
C295 C294 1.363 . S
C295 C301 1.363 . S
C296 C297 1.363 . S
C296 C301 1.379 . S
C296 N303 1.356 . S
C297 C296 1.363 . S
C297 C300 1.363 . S
N298 C300 1.356 . S
N298 H310 0.984 . S
N298 H311 0.985 . S
N299 C301 1.356 . S
N299 H304 0.984 . S
N299 H305 0.985 . S
C300 C294 1.379 . S
C300 C297 1.363 . S
C300 N298 1.356 . S
C301 C295 1.363 . S
C301 C296 1.379 . S
C301 N299 1.356 . S
N302 C294 1.356 . S
N302 H308 0.984 . S
N302 H309 0.984 . S
N303 C296 1.356 . S
N303 H306 0.984 . S
N303 H307 0.985 . S
H304 N299 0.984 . S
H305 N299 0.985 . S
H306 N303 0.984 . S
H307 N303 0.985 . S
H308 N302 0.984 . S
H309 N302 0.984 . S
H310 N298 0.984 . S
H311 N298 0.985 . S
C312 C313 1.363 . S
C312 C318 1.379 1_455 S
C312 N320 1.356 . S
C313 C312 1.363 . S
C313 C319 1.363 . S
C314 C315 1.363 . S
C314 C319 1.379 1_655 S
C314 N321 1.356 . S
C315 C314 1.363 . S
C315 C318 1.363 . S
N316 C318 1.356 . S
N316 H328 0.984 . S
N316 H329 0.985 . S
N317 C319 1.356 . S
N317 H322 0.984 . S
N317 H323 0.985 . S
C318 C312 1.379 1_655 S
C318 C315 1.363 . S
C318 N316 1.356 . S
C319 C313 1.363 . S
C319 C314 1.379 1_455 S
C319 N317 1.356 . S
N320 C312 1.356 . S
N320 H326 0.984 . S
N320 H327 0.984 . S
N321 C314 1.356 . S
N321 H324 0.984 . S
N321 H325 0.985 . S
H322 N317 0.984 . S
H323 N317 0.985 . S
H324 N321 0.984 . S
H325 N321 0.985 . S
H326 N320 0.984 . S
H327 N320 0.984 . S
H328 N316 0.984 . S
H329 N316 0.985 . S
C330 C331 1.363 . S
C330 C336 1.379 . S
C330 N338 1.356 . S
C331 C330 1.363 . S
C331 C337 1.363 . S
C332 C333 1.363 . S
C332 C337 1.379 . S
C332 N339 1.356 . S
C333 C332 1.363 . S
C333 C336 1.363 . S
N334 C336 1.356 . S
N334 H346 0.984 . S
N334 H347 0.985 . S
N335 C337 1.356 . S
N335 H340 0.984 . S
N335 H341 0.985 . S
C336 C330 1.379 . S
C336 C333 1.363 . S
C336 N334 1.356 . S
C337 C331 1.363 . S
C337 C332 1.379 . S
C337 N335 1.356 . S
N338 C330 1.356 . S
N338 H344 0.984 . S
N338 H345 0.984 . S
N339 C332 1.356 . S
N339 H342 0.984 . S
N339 H343 0.985 . S
H340 N335 0.984 . S
H341 N335 0.985 . S
H342 N339 0.984 . S
H343 N339 0.985 . S
H344 N338 0.984 . S
H345 N338 0.984 . S
H346 N334 0.984 . S
H347 N334 0.985 . S
C348 C349 1.363 . S
C348 C354 1.379 . S
C348 N356 1.356 . S
C349 C348 1.363 . S
C349 C355 1.363 . S
C350 C351 1.363 . S
C350 C355 1.379 . S
C350 N357 1.356 . S
C351 C350 1.363 . S
C351 C354 1.363 . S
N352 C354 1.356 . S
N352 H364 0.984 . S
N352 H365 0.985 . S
N353 C355 1.356 . S
N353 H358 0.984 . S
N353 H359 0.985 . S
C354 C348 1.379 . S
C354 C351 1.363 . S
C354 N352 1.356 . S
C355 C349 1.363 . S
C355 C350 1.379 . S
C355 N353 1.356 . S
N356 C348 1.356 . S
N356 H362 0.984 . S
N356 H363 0.984 . S
N357 C350 1.356 . S
N357 H360 0.984 . S
N357 H361 0.985 . S
H358 N353 0.984 . S
H359 N353 0.985 . S
H360 N357 0.984 . S
H361 N357 0.985 . S
H362 N356 0.984 . S
H363 N356 0.984 . S
H364 N352 0.984 . S
H365 N352 0.985 . S
C366 C367 1.363 . S
C366 C372 1.379 . S
C366 N374 1.356 . S
C367 C366 1.363 . S
C367 C373 1.363 . S
C368 C369 1.363 . S
C368 C373 1.379 . S
C368 N375 1.356 . S
C369 C368 1.363 . S
C369 C372 1.363 . S
N370 C372 1.356 1_455 S
N370 H382 0.984 . S
N370 H383 0.985 . S
N371 C373 1.356 . S
N371 H376 0.984 . S
N371 H377 0.985 . S
C372 C366 1.379 . S
C372 C369 1.363 . S
C372 N370 1.356 1_655 S
C373 C367 1.363 . S
C373 C368 1.379 . S
C373 N371 1.356 . S
N374 C366 1.356 . S
N374 H380 0.984 . S
N374 H381 0.984 . S
N375 C368 1.356 . S
N375 H378 0.984 1_655 S
N375 H379 0.985 . S
H376 N371 0.984 . S
H377 N371 0.985 . S
H378 N375 0.984 1_455 S
H379 N375 0.985 . S
H380 N374 0.984 . S
H381 N374 0.984 . S
H382 N370 0.984 . S
H383 N370 0.985 . S
C384 C385 1.363 . S
C384 C390 1.379 . S
C384 N392 1.356 . S
C385 C384 1.363 . S
C385 C391 1.363 . S
C386 C387 1.363 . S
C386 C391 1.379 . S
C386 N393 1.356 . S
C387 C386 1.363 . S
C387 C390 1.363 . S
N388 C390 1.356 . S
N388 H400 0.984 . S
N388 H401 0.985 . S
N389 C391 1.356 . S
N389 H394 0.984 1_545 S
N389 H395 0.985 . S
C390 C384 1.379 . S
C390 C387 1.363 . S
C390 N388 1.356 . S
C391 C385 1.363 . S
C391 C386 1.379 . S
C391 N389 1.356 . S
N392 C384 1.356 . S
N392 H398 0.984 . S
N392 H399 0.984 1_545 S
N393 C386 1.356 . S
N393 H396 0.984 . S
N393 H397 0.985 . S
H394 N389 0.984 1_565 S
H395 N389 0.985 . S
H396 N393 0.984 . S
H397 N393 0.985 . S
H398 N392 0.984 . S
H399 N392 0.984 1_565 S
H400 N388 0.984 . S
H401 N388 0.985 . S
C402 C403 1.363 . S
C402 C408 1.379 . S
C402 N410 1.356 . S
C403 C402 1.363 . S
C403 C409 1.363 1_554 S
C404 C405 1.363 . S
C404 C409 1.379 1_554 S
C404 N411 1.356 1_554 S
C405 C404 1.363 . S
C405 C408 1.363 . S
N406 C408 1.356 . S
N406 H418 0.984 . S
N406 H419 0.985 . S
N407 C409 1.356 1_565 S
N407 H412 0.984 . S
N407 H413 0.985 . S
C408 C402 1.379 . S
C408 C405 1.363 . S
C408 N406 1.356 . S
C409 C403 1.363 1_556 S
C409 C404 1.379 1_556 S
C409 N407 1.356 1_545 S
N410 C402 1.356 . S
N410 H416 0.984 . S
N410 H417 0.984 1_545 S
N411 C404 1.356 1_556 S
N411 H414 0.984 . S
N411 H415 0.985 . S
H412 N407 0.984 . S
H413 N407 0.985 . S
H414 N411 0.984 . S
H415 N411 0.985 . S
H416 N410 0.984 . S
H417 N410 0.984 1_565 S
H418 N406 0.984 . S
H419 N406 0.985 . S
C420 C421 1.363 . S
C420 C426 1.379 . S
C420 N428 1.356 . S
C421 C420 1.363 . S
C421 C427 1.363 . S
C422 C423 1.363 . S
C422 C427 1.379 . S
C422 N429 1.356 . S
C423 C422 1.363 . S
C423 C426 1.363 . S
N424 C426 1.356 . S
N424 H436 0.984 . S
N424 H437 0.985 . S
N425 C427 1.356 . S
N425 H430 0.984 . S
N425 H431 0.985 . S
C426 C420 1.379 . S
C426 C423 1.363 . S
C426 N424 1.356 . S
C427 C421 1.363 . S
C427 C422 1.379 . S
C427 N425 1.356 . S
N428 C420 1.356 . S
N428 H434 0.984 . S
N428 H435 0.984 . S
N429 C422 1.356 . S
N429 H432 0.984 . S
N429 H433 0.985 . S
H430 N425 0.984 . S
H431 N425 0.985 . S
H432 N429 0.984 . S
H433 N429 0.985 . S
H434 N428 0.984 . S
H435 N428 0.984 . S
H436 N424 0.984 . S
H437 N424 0.985 . S
C438 C439 1.363 . S
C438 C444 1.379 . S
C438 N446 1.356 . S
C439 C438 1.363 . S
C439 C445 1.363 . S
C440 C441 1.363 1_455 S
C440 C445 1.379 . S
C440 N447 1.356 . S
C441 C440 1.363 1_655 S
C441 C444 1.363 1_655 S
N442 C444 1.356 1_655 S
N442 H454 0.984 . S
N442 H455 0.985 . S
N443 C445 1.356 . S
N443 H448 0.984 . S
N443 H449 0.985 . S
C444 C438 1.379 . S
C444 C441 1.363 1_455 S
C444 N442 1.356 1_455 S
C445 C439 1.363 . S
C445 C440 1.379 . S
C445 N443 1.356 . S
N446 C438 1.356 . S
N446 H452 0.984 . S
N446 H453 0.984 . S
N447 C440 1.356 . S
N447 H450 0.984 1_455 S
N447 H451 0.985 . S
H448 N443 0.984 . S
H449 N443 0.985 . S
H450 N447 0.984 1_655 S
H451 N447 0.985 . S
H452 N446 0.984 . S
H453 N446 0.984 . S
H454 N442 0.984 . S
H455 N442 0.985 . S
C456 C457 1.363 . S
C456 C462 1.379 . S
C456 N464 1.356 . S
C457 C456 1.363 . S
C457 C463 1.363 . S
C458 C459 1.363 . S
C458 C463 1.379 . S
C458 N465 1.356 . S
C459 C458 1.363 . S
C459 C462 1.363 . S
N460 C462 1.356 . S
N460 H472 0.984 . S
N460 H473 0.985 . S
N461 C463 1.356 . S
N461 H466 0.984 . S
N461 H467 0.985 . S
C462 C456 1.379 . S
C462 C459 1.363 . S
C462 N460 1.356 . S
C463 C457 1.363 . S
C463 C458 1.379 . S
C463 N461 1.356 . S
N464 C456 1.356 . S
N464 H470 0.984 . S
N464 H471 0.984 . S
N465 C458 1.356 . S
N465 H468 0.984 . S
N465 H469 0.985 . S
H466 N461 0.984 . S
H467 N461 0.985 . S
H468 N465 0.984 . S
H469 N465 0.985 . S
H470 N464 0.984 . S
H471 N464 0.984 . S
H472 N460 0.984 . S
H473 N460 0.985 . S
C474 C475 1.363 . S
C474 C480 1.379 . S
C474 N482 1.356 . S
C475 C474 1.363 . S
C475 C481 1.363 . S
C476 C477 1.363 . S
C476 C481 1.379 . S
C476 N483 1.356 . S
C477 C476 1.363 . S
C477 C480 1.363 . S
N478 C480 1.356 . S
N478 H490 0.984 . S
N478 H491 0.985 . S
N479 C481 1.356 . S
N479 H484 0.984 . S
N479 H485 0.985 . S
C480 C474 1.379 . S
C480 C477 1.363 . S
C480 N478 1.356 . S
C481 C475 1.363 . S
C481 C476 1.379 . S
C481 N479 1.356 . S
N482 C474 1.356 . S
N482 H488 0.984 . S
N482 H489 0.984 . S
N483 C476 1.356 . S
N483 H486 0.984 . S
N483 H487 0.985 . S
H484 N479 0.984 . S
H485 N479 0.985 . S
H486 N483 0.984 . S
H487 N483 0.985 . S
H488 N482 0.984 . S
H489 N482 0.984 . S
H490 N478 0.984 . S
H491 N478 0.985 . S
C492 C493 1.363 . S
C492 C498 1.379 . S
C492 N500 1.356 . S
C493 C492 1.363 . S
C493 C499 1.363 . S
C494 C495 1.363 . S
C494 C499 1.379 . S
C494 N501 1.356 1_655 S
C495 C494 1.363 . S
C495 C498 1.363 . S
N496 C498 1.356 . S
N496 H508 0.984 . S
N496 H509 0.985 . S
N497 C499 1.356 1_455 S
N497 H502 0.984 . S
N497 H503 0.985 . S
C498 C492 1.379 . S
C498 C495 1.363 . S
C498 N496 1.356 . S
C499 C493 1.363 . S
C499 C494 1.379 . S
C499 N497 1.356 1_655 S
N500 C492 1.356 . S
N500 H506 0.984 . S
N500 H507 0.984 . S
N501 C494 1.356 1_455 S
N501 H504 0.983 1_455 S
N501 H505 0.986 . S
H502 N497 0.984 . S
H503 N497 0.985 . S
H504 N501 0.983 1_655 S
H505 N501 0.986 . S
H506 N500 0.984 . S
H507 N500 0.984 . S
H508 N496 0.984 . S
H509 N496 0.985 . S
C510 C511 1.363 1_545 S
C510 C516 1.379 . S
C510 N518 1.356 . S
C511 C510 1.363 1_565 S
C511 C517 1.363 . S
C512 C513 1.363 . S
C512 C517 1.379 . S
C512 N519 1.356 . S
C513 C512 1.363 . S
C513 C516 1.363 1_565 S
N514 C516 1.356 . S
N514 H526 0.984 . S
N514 H527 0.985 . S
N515 C517 1.356 . S
N515 H520 0.984 . S
N515 H521 0.985 . S
C516 C510 1.379 . S
C516 C513 1.363 1_545 S
C516 N514 1.356 . S
C517 C511 1.363 . S
C517 C512 1.379 . S
C517 N515 1.356 . S
N518 C510 1.356 . S
N518 H524 0.984 . S
N518 H525 0.984 . S
N519 C512 1.356 . S
N519 H522 0.984 . S
N519 H523 0.985 . S
H520 N515 0.984 . S
H521 N515 0.985 . S
H522 N519 0.984 . S
H523 N519 0.985 . S
H524 N518 0.984 . S
H525 N518 0.984 . S
H526 N514 0.984 . S
H527 N514 0.985 . S
C528 C529 1.363 . S
C528 C534 1.379 . S
C528 N536 1.356 . S
C529 C528 1.363 . S
C529 C535 1.363 . S
C530 C531 1.363 . S
C530 C535 1.379 . S
C530 N537 1.356 . S
C531 C530 1.363 . S
C531 C534 1.363 . S
N532 C534 1.356 . S
N532 H544 0.984 1_655 S
N532 H545 0.985 . S
N533 C535 1.356 . S
N533 H538 0.984 . S
N533 H539 0.985 . S
C534 C528 1.379 . S
C534 C531 1.363 . S
C534 N532 1.356 . S
C535 C529 1.363 . S
C535 C530 1.379 . S
C535 N533 1.356 . S
N536 C528 1.356 . S
N536 H542 0.984 . S
N536 H543 0.984 . S
N537 C530 1.356 . S
N537 H540 0.984 . S
N537 H541 0.985 . S
H538 N533 0.984 . S
H539 N533 0.985 . S
H540 N537 0.984 . S
H541 N537 0.985 . S
H542 N536 0.984 . S
H543 N536 0.984 . S
H544 N532 0.984 1_455 S
H545 N532 0.985 . S
C546 C547 1.363 . S
C546 C552 1.379 . S
C546 N554 1.356 . S
C547 C546 1.363 . S
C547 C553 1.363 . S
C548 C549 1.363 . S
C548 C553 1.379 . S
C548 N555 1.356 . S
C549 C548 1.363 . S
C549 C552 1.363 . S
N550 C552 1.356 . S
N550 H562 0.984 1_565 S
N550 H563 0.985 . S
N551 C553 1.356 . S
N551 H556 0.984 . S
N551 H557 0.985 1_455 S
C552 C546 1.379 . S
C552 C549 1.363 . S
C552 N550 1.356 . S
C553 C547 1.363 . S
C553 C548 1.379 . S
C553 N551 1.356 . S
N554 C546 1.356 . S
N554 H560 0.984 1_565 S
N554 H561 0.984 . S
N555 C548 1.356 . S
N555 H558 0.984 . S
N555 H559 0.985 1_455 S
H556 N551 0.984 . S
H557 N551 0.985 1_655 S
H558 N555 0.984 . S
H559 N555 0.985 1_655 S
H560 N554 0.984 1_545 S
H561 N554 0.984 . S
H562 N550 0.984 1_545 S
H563 N550 0.985 . S
C241 C122 1.404 . S
C243 C2 1.323 . S
C259 C162 1.324 . S
C261 C42 1.404 . S
C277 C202 1.404 1_545 S
C279 C82 1.324 . S
C295 C26 1.304 . S
C297 C97 1.101 . S
C313 C57 1.180 . S
C315 C146 1.099 . S
C331 C106 1.304 . S
C333 C177 1.103 . S
C349 C137 1.180 . S
C351 C226 1.100 . S
C367 C186 1.304 . S
C369 C17 1.103 1_655 S
C385 C217 1.180 1_545 S
C387 C66 1.099 . S
C403 C23 0.881 1_545 S
C405 C143 0.805 . S
C421 C63 0.803 . S
C423 C183 0.881 . S
C439 C103 0.882 . S
C441 C223 0.799 . S
C457 C24 4.294 . S
C459 C64 4.286 . S
C475 C53 4.168 . S
C477 C93 4.134 . S
C493 C104 4.295 1_655 S
C495 C144 4.287 . S
C511 C133 4.168 1_565 S
C513 C173 4.134 . S
C529 C184 4.295 . S
C531 C224 4.288 . S
C547 C213 4.168 . S
C549 C13 4.134 . S
