# Generated by pormake.
# Topology ukc, (4)-cn, num edge types: 1
# Building blocks:
#     Node 0, Type 0, BuildingBlock: UXUYUI_clean_sbu_0, # of connection points: 4
#     Node 1, Type 0, BuildingBlock: UXUYUI_clean_sbu_0, # of connection points: 4
#     Node 2, Type 0, BuildingBlock: UXUYUI_clean_sbu_0, # of connection points: 4
#     Node 3, Type 0, BuildingBlock: UXUYUI_clean_sbu_0, # of connection points: 4
#     Node 4, Type 0, BuildingBlock: UXUYUI_clean_sbu_0, # of connection points: 4
#     Node 5, Type 0, BuildingBlock: UXUYUI_clean_sbu_0, # of connection points: 4
#     Node 6, Type 0, BuildingBlock: UXUYUI_clean_sbu_0, # of connection points: 4
#     Node 7, Type 0, BuildingBlock: UXUYUI_clean_sbu_0, # of connection points: 4
#     Node 8, Type 0, BuildingBlock: UXUYUI_clean_sbu_0, # of connection points: 4
#     Node 9, Type 0, BuildingBlock: UXUYUI_clean_sbu_0, # of connection points: 4
#     Node 10, Type 0, BuildingBlock: UXUYUI_clean_sbu_0, # of connection points: 4
#     Node 11, Type 0, BuildingBlock: UXUYUI_clean_sbu_0, # of connection points: 4
#     Node 12, Type 0, BuildingBlock: UXUYUI_clean_sbu_0, # of connection points: 4
#     Node 13, Type 0, BuildingBlock: UXUYUI_clean_sbu_0, # of connection points: 4
#     Node 14, Type 0, BuildingBlock: UXUYUI_clean_sbu_0, # of connection points: 4
#     Node 15, Type 0, BuildingBlock: UXUYUI_clean_sbu_0, # of connection points: 4
#     Node 16, Type 0, BuildingBlock: UXUYUI_clean_sbu_0, # of connection points: 4
#     Node 17, Type 0, BuildingBlock: UXUYUI_clean_sbu_0, # of connection points: 4
#     Node 18, Type 0, BuildingBlock: UXUYUI_clean_sbu_0, # of connection points: 4
#     Node 19, Type 0, BuildingBlock: UXUYUI_clean_sbu_0, # of connection points: 4
#     Node 20, Type 0, BuildingBlock: UXUYUI_clean_sbu_0, # of connection points: 4
#     Node 21, Type 0, BuildingBlock: UXUYUI_clean_sbu_0, # of connection points: 4
#     Node 22, Type 0, BuildingBlock: UXUYUI_clean_sbu_0, # of connection points: 4
#     Node 23, Type 0, BuildingBlock: UXUYUI_clean_sbu_0, # of connection points: 4
#     Node 24, Type 0, BuildingBlock: UXUYUI_clean_sbu_0, # of connection points: 4
#     Node 25, Type 0, BuildingBlock: UXUYUI_clean_sbu_0, # of connection points: 4
#     Node 26, Type 0, BuildingBlock: UXUYUI_clean_sbu_0, # of connection points: 4
#     Node 27, Type 0, BuildingBlock: UXUYUI_clean_sbu_0, # of connection points: 4
#     Node 28, Type 0, BuildingBlock: UXUYUI_clean_sbu_0, # of connection points: 4
#     Node 29, Type 0, BuildingBlock: UXUYUI_clean_sbu_0, # of connection points: 4
#     Node 30, Type 0, BuildingBlock: UXUYUI_clean_sbu_0, # of connection points: 4
#     Node 31, Type 0, BuildingBlock: UXUYUI_clean_sbu_0, # of connection points: 4
#     Edge 32, Type (0, 0), BuildingBlock: XIVTED_clean_linker_0, # of connection points: 2
#     Edge 33, Type (0, 0), BuildingBlock: XIVTED_clean_linker_0, # of connection points: 2
#     Edge 34, Type (0, 0), BuildingBlock: XIVTED_clean_linker_0, # of connection points: 2
#     Edge 35, Type (0, 0), BuildingBlock: XIVTED_clean_linker_0, # of connection points: 2
#     Edge 36, Type (0, 0), BuildingBlock: XIVTED_clean_linker_0, # of connection points: 2
#     Edge 37, Type (0, 0), BuildingBlock: XIVTED_clean_linker_0, # of connection points: 2
#     Edge 38, Type (0, 0), BuildingBlock: XIVTED_clean_linker_0, # of connection points: 2
#     Edge 39, Type (0, 0), BuildingBlock: XIVTED_clean_linker_0, # of connection points: 2
#     Edge 40, Type (0, 0), BuildingBlock: XIVTED_clean_linker_0, # of connection points: 2
#     Edge 41, Type (0, 0), BuildingBlock: XIVTED_clean_linker_0, # of connection points: 2
#     Edge 42, Type (0, 0), BuildingBlock: XIVTED_clean_linker_0, # of connection points: 2
#     Edge 43, Type (0, 0), BuildingBlock: XIVTED_clean_linker_0, # of connection points: 2
#     Edge 44, Type (0, 0), BuildingBlock: XIVTED_clean_linker_0, # of connection points: 2
#     Edge 45, Type (0, 0), BuildingBlock: XIVTED_clean_linker_0, # of connection points: 2
#     Edge 46, Type (0, 0), BuildingBlock: XIVTED_clean_linker_0, # of connection points: 2
#     Edge 47, Type (0, 0), BuildingBlock: XIVTED_clean_linker_0, # of connection points: 2
#     Edge 48, Type (0, 0), BuildingBlock: XIVTED_clean_linker_0, # of connection points: 2
#     Edge 49, Type (0, 0), BuildingBlock: XIVTED_clean_linker_0, # of connection points: 2
#     Edge 50, Type (0, 0), BuildingBlock: XIVTED_clean_linker_0, # of connection points: 2
#     Edge 51, Type (0, 0), BuildingBlock: XIVTED_clean_linker_0, # of connection points: 2
#     Edge 52, Type (0, 0), BuildingBlock: XIVTED_clean_linker_0, # of connection points: 2
#     Edge 53, Type (0, 0), BuildingBlock: XIVTED_clean_linker_0, # of connection points: 2
#     Edge 54, Type (0, 0), BuildingBlock: XIVTED_clean_linker_0, # of connection points: 2
#     Edge 55, Type (0, 0), BuildingBlock: XIVTED_clean_linker_0, # of connection points: 2
#     Edge 56, Type (0, 0), BuildingBlock: XIVTED_clean_linker_0, # of connection points: 2
#     Edge 57, Type (0, 0), BuildingBlock: XIVTED_clean_linker_0, # of connection points: 2
#     Edge 58, Type (0, 0), BuildingBlock: XIVTED_clean_linker_0, # of connection points: 2
#     Edge 59, Type (0, 0), BuildingBlock: XIVTED_clean_linker_0, # of connection points: 2
#     Edge 60, Type (0, 0), BuildingBlock: XIVTED_clean_linker_0, # of connection points: 2
#     Edge 61, Type (0, 0), BuildingBlock: XIVTED_clean_linker_0, # of connection points: 2
#     Edge 62, Type (0, 0), BuildingBlock: XIVTED_clean_linker_0, # of connection points: 2
#     Edge 63, Type (0, 0), BuildingBlock: XIVTED_clean_linker_0, # of connection points: 2
#     Edge 64, Type (0, 0), BuildingBlock: XIVTED_clean_linker_0, # of connection points: 2
#     Edge 65, Type (0, 0), BuildingBlock: XIVTED_clean_linker_0, # of connection points: 2
#     Edge 66, Type (0, 0), BuildingBlock: XIVTED_clean_linker_0, # of connection points: 2
#     Edge 67, Type (0, 0), BuildingBlock: XIVTED_clean_linker_0, # of connection points: 2
#     Edge 68, Type (0, 0), BuildingBlock: XIVTED_clean_linker_0, # of connection points: 2
#     Edge 69, Type (0, 0), BuildingBlock: XIVTED_clean_linker_0, # of connection points: 2
#     Edge 70, Type (0, 0), BuildingBlock: XIVTED_clean_linker_0, # of connection points: 2
#     Edge 71, Type (0, 0), BuildingBlock: XIVTED_clean_linker_0, # of connection points: 2
#     Edge 72, Type (0, 0), BuildingBlock: XIVTED_clean_linker_0, # of connection points: 2
#     Edge 73, Type (0, 0), BuildingBlock: XIVTED_clean_linker_0, # of connection points: 2
#     Edge 74, Type (0, 0), BuildingBlock: XIVTED_clean_linker_0, # of connection points: 2
#     Edge 75, Type (0, 0), BuildingBlock: XIVTED_clean_linker_0, # of connection points: 2
#     Edge 76, Type (0, 0), BuildingBlock: XIVTED_clean_linker_0, # of connection points: 2
#     Edge 77, Type (0, 0), BuildingBlock: XIVTED_clean_linker_0, # of connection points: 2
#     Edge 78, Type (0, 0), BuildingBlock: XIVTED_clean_linker_0, # of connection points: 2
#     Edge 79, Type (0, 0), BuildingBlock: XIVTED_clean_linker_0, # of connection points: 2
#     Edge 80, Type (0, 0), BuildingBlock: XIVTED_clean_linker_0, # of connection points: 2
#     Edge 81, Type (0, 0), BuildingBlock: XIVTED_clean_linker_0, # of connection points: 2
#     Edge 82, Type (0, 0), BuildingBlock: XIVTED_clean_linker_0, # of connection points: 2
#     Edge 83, Type (0, 0), BuildingBlock: XIVTED_clean_linker_0, # of connection points: 2
#     Edge 84, Type (0, 0), BuildingBlock: XIVTED_clean_linker_0, # of connection points: 2
#     Edge 85, Type (0, 0), BuildingBlock: XIVTED_clean_linker_0, # of connection points: 2
#     Edge 86, Type (0, 0), BuildingBlock: XIVTED_clean_linker_0, # of connection points: 2
#     Edge 87, Type (0, 0), BuildingBlock: XIVTED_clean_linker_0, # of connection points: 2
#     Edge 88, Type (0, 0), BuildingBlock: XIVTED_clean_linker_0, # of connection points: 2
#     Edge 89, Type (0, 0), BuildingBlock: XIVTED_clean_linker_0, # of connection points: 2
#     Edge 90, Type (0, 0), BuildingBlock: XIVTED_clean_linker_0, # of connection points: 2
#     Edge 91, Type (0, 0), BuildingBlock: XIVTED_clean_linker_0, # of connection points: 2
#     Edge 92, Type (0, 0), BuildingBlock: XIVTED_clean_linker_0, # of connection points: 2
#     Edge 93, Type (0, 0), BuildingBlock: XIVTED_clean_linker_0, # of connection points: 2
#     Edge 94, Type (0, 0), BuildingBlock: XIVTED_clean_linker_0, # of connection points: 2
#     Edge 95, Type (0, 0), BuildingBlock: XIVTED_clean_linker_0, # of connection points: 2
# Relax obj value: 0.100
# Max RMSD: 0.121
# Mean RMSD: 0.120
data_MOF--net-ukc--node1-UXUYUI_clean_sbu_0--edge1-XIVTED_clean_linker_0
_symmetry_space_group_name_H-M    P1
_symmetry_Int_Tables_number       1
_symmetry_cell_setting            triclinic
loop_
_symmetry_equiv_pos_as_xyz
'x, y, z'
_cell_length_a     67.624476
_cell_length_b     67.629304
_cell_length_c     122.63021
_cell_angle_alpha  89.999304
_cell_angle_beta   90.001764
_cell_angle_gamma 90.001528
loop_
_atom_site_label
_atom_site_type_symbol
_atom_site_fract_x
_atom_site_fract_y
_atom_site_fract_z
_atom_type_partial_charge
Li0 Li 0.11704 0.38148 0.02908 0.0
Li1 Li 0.09853 0.38424 0.04687 0.0
Li2 Li 0.08645 0.36453 0.03248 0.0
Li3 Li 0.08379 0.39948 0.03038 0.0
C4 C 0.11217 0.34131 0.04148 0.0
N5 N 0.11123 0.30065 0.0435 0.0
C6 C 0.10321 0.33259 0.05056 0.0
C7 C 0.12074 0.32938 0.03347 0.0
C8 C 0.10285 0.31199 0.05142 0.0
C9 C 0.12011 0.30884 0.03464 0.0
C10 C 0.12137 0.42006 0.04196 0.0
C11 C 0.1264 0.45318 0.04873 0.0
N12 N 0.14568 0.44879 0.05074 0.0
C13 C 0.14129 0.41597 0.04398 0.0
C14 C 0.11389 0.43889 0.04424 0.0
C15 C 0.15332 0.43065 0.04847 0.0
C16 C 0.14639 0.39444 0.01432 0.0
N17 N 0.14246 0.38185 0.02268 0.0
C18 C 0.17592 0.37062 0.02288 0.0
C19 C 0.1567 0.37003 0.02698 0.0
C20 C 0.18058 0.38362 0.01431 0.0
C21 C 0.16546 0.39556 0.00998 0.0
H22 H 0.13476 0.40382 0.01116 0.0
H23 H 0.15318 0.36035 0.03372 0.0
C24 C 0.08715 0.37966 0.06898 0.0
N25 N 0.10232 0.38506 0.06233 0.0
C26 C 0.08998 0.37831 0.08022 0.0
C27 C 0.12419 0.38745 0.0776 0.0
C28 C 0.12064 0.38879 0.06641 0.0
C29 C 0.10874 0.38208 0.08466 0.0
H30 H 0.07298 0.37574 0.06555 0.0
H31 H 0.13269 0.39214 0.06096 0.0
C32 C 0.08646 0.37056 0.01057 0.0
N33 N 0.07163 0.3506 0.99272 0.0
C34 C 0.06608 0.36991 0.00874 0.0
C35 C 0.09933 0.36125 0.00329 0.0
C36 C 0.05886 0.35967 0.99968 0.0
C37 C 0.09153 0.3512 0.99431 0.0
C38 C 0.05852 0.39467 0.04767 0.0
C39 C 0.03863 0.38963 0.0491 0.0
C40 C 0.06582 0.412 0.05239 0.0
C41 C 0.02641 0.40202 0.05525 0.0
C42 C 0.05315 0.42398 0.05848 0.0
N43 N 0.03387 0.41879 0.05977 0.0
C44 C 0.05763 0.33705 0.03755 0.0
C45 C 0.07622 0.32706 0.02213 0.0
C46 C 0.04617 0.31999 0.03698 0.0
N47 N 0.0722 0.34038 0.03015 0.0
C48 C 0.06498 0.30978 0.02119 0.0
C49 C 0.04974 0.3061 0.02871 0.0
H50 H 0.05504 0.34759 0.044 0.0
H51 H 0.08828 0.32965 0.01654 0.0
C52 C 0.07717 0.4371 0.02062 0.0
N53 N 0.0685 0.42035 0.02444 0.0
C54 C 0.06568 0.45183 0.01573 0.0
C55 C 0.03665 0.43177 0.01889 0.0
C56 C 0.04867 0.41745 0.02366 0.0
C57 C 0.04511 0.44919 0.01474 0.0
H58 H 0.09303 0.43885 0.0212 0.0
H59 H 0.0422 0.40386 0.02661 0.0
O60 O 0.11222 0.36141 0.04036 0.0
O61 O 0.10942 0.406 0.03736 0.0
O62 O 0.09385 0.38052 0.01936 0.0
O63 O 0.07055 0.38277 0.04153 0.0
H64 H 0.09643 0.34163 0.0568 0.0
H65 H 0.12752 0.33591 0.02633 0.0
H66 H 0.09586 0.30502 0.05836 0.0
H67 H 0.12656 0.29942 0.02846 0.0
H68 H 0.12079 0.46778 0.05058 0.0
H69 H 0.14736 0.40153 0.04223 0.0
H70 H 0.09861 0.44249 0.04254 0.0
H71 H 0.16873 0.42762 0.05016 0.0
H72 H 0.18699 0.36094 0.02637 0.0
H73 H 0.16842 0.40598 0.00348 0.0
H74 H 0.0778 0.37363 0.08534 0.0
H75 H 0.1389 0.39039 0.0807 0.0
H76 H 0.05595 0.37703 0.01433 0.0
H77 H 0.11516 0.36171 0.00459 0.0
H78 H 0.04311 0.35891 0.9982 0.0
H79 H 0.10129 0.34384 0.98862 0.0
H80 H 0.03265 0.37637 0.04543 0.0
H81 H 0.08115 0.41604 0.05147 0.0
H82 H 0.01099 0.39831 0.0564 0.0
H83 H 0.05867 0.4374 0.06221 0.0
H84 H 0.0345 0.31781 0.0429 0.0
H85 H 0.06839 0.29927 0.0148 0.0
H86 H 0.07288 0.4649 0.01252 0.0
H87 H 0.02086 0.42919 0.01847 0.0
Li88 Li 0.86712 0.86752 0.28071 0.0
Li89 Li 0.86487 0.84943 0.298 0.0
Li90 Li 0.88589 0.83647 0.2826 0.0
Li91 Li 0.84987 0.83437 0.2818 0.0
C92 C 0.90313 0.87538 0.29135 0.0
N93 N 0.93209 0.90422 0.29162 0.0
C94 C 0.90577 0.8872 0.30059 0.0
C95 C 0.91546 0.87802 0.28232 0.0
C96 C 0.92042 0.90176 0.30055 0.0
C97 C 0.92996 0.89273 0.28259 0.0
C98 C 0.82885 0.86793 0.29566 0.0
C99 C 0.8005 0.86435 0.30744 0.0
N100 N 0.80068 0.88417 0.30931 0.0
C101 C 0.82857 0.88829 0.29758 0.0
C102 C 0.81455 0.85588 0.30052 0.0
C103 C 0.81428 0.89621 0.30456 0.0
C104 C 0.86005 0.89578 0.26413 0.0
N105 N 0.86654 0.89334 0.27453 0.0
C106 C 0.87175 0.92811 0.27642 0.0
C107 C 0.87208 0.90904 0.28073 0.0
C108 C 0.86525 0.93118 0.26567 0.0
C109 C 0.85927 0.91466 0.25951 0.0
H110 H 0.85536 0.88307 0.25945 0.0
H111 H 0.87655 0.90682 0.28909 0.0
C112 C 0.86803 0.83726 0.32 0.0
N113 N 0.8641 0.85292 0.31339 0.0
C114 C 0.86943 0.83986 0.33126 0.0
C115 C 0.86291 0.8747 0.32873 0.0
C116 C 0.86152 0.87139 0.31752 0.0
C117 C 0.8671 0.85883 0.33574 0.0
H118 H 0.87073 0.82285 0.31651 0.0
H119 H 0.85912 0.88372 0.31208 0.0
C120 C 0.87741 0.84106 0.26069 0.0
N121 N 0.89601 0.83367 0.24103 0.0
C122 C 0.87336 0.8237 0.25492 0.0
C123 C 0.89059 0.85487 0.25632 0.0
C124 C 0.88301 0.82016 0.24504 0.0
C125 C 0.89993 0.85081 0.2464 0.0
C126 C 0.86004 0.80429 0.29583 0.0
C127 C 0.86878 0.7865 0.29261 0.0
C128 C 0.84322 0.80393 0.30244 0.0
C129 C 0.86029 0.76862 0.29588 0.0
C130 C 0.83518 0.78576 0.30555 0.0
N131 N 0.84379 0.76862 0.30222 0.0
C132 C 0.92648 0.82758 0.28465 0.0
C133 C 0.90867 0.80587 0.2731 0.0
C134 C 0.94348 0.81608 0.28356 0.0
N135 N 0.90951 0.82229 0.27947 0.0
C136 C 0.92532 0.79389 0.27181 0.0
C137 C 0.94295 0.79876 0.27724 0.0
H138 H 0.92665 0.84031 0.28996 0.0
H139 H 0.89481 0.80152 0.26944 0.0
C140 C 0.81024 0.82599 0.27548 0.0
N141 N 0.82885 0.81854 0.27632 0.0
C142 C 0.79496 0.81434 0.27127 0.0
C143 C 0.81836 0.7877 0.26879 0.0
C144 C 0.83315 0.79987 0.273 0.0
C145 C 0.79895 0.79488 0.26788 0.0
H146 H 0.80728 0.84102 0.27802 0.0
H147 H 0.84816 0.79449 0.27347 0.0
O148 O 0.88868 0.86121 0.29121 0.0
O149 O 0.8427 0.85993 0.28882 0.0
O150 O 0.8681 0.84475 0.27039 0.0
O151 O 0.86803 0.82195 0.29262 0.0
H152 H 0.89654 0.88524 0.3077 0.0
H153 H 0.91403 0.86865 0.27524 0.0
H154 H 0.92252 0.9111 0.30762 0.0
H155 H 0.93956 0.89496 0.27565 0.0
H156 H 0.7894 0.85517 0.31128 0.0
H157 H 0.83935 0.89788 0.2938 0.0
H158 H 0.81416 0.84019 0.29889 0.0
H159 H 0.81401 0.91193 0.30619 0.0
H160 H 0.87669 0.94027 0.28148 0.0
H161 H 0.85377 0.91628 0.25127 0.0
H162 H 0.87306 0.8273 0.33636 0.0
H163 H 0.86099 0.88956 0.33185 0.0
H164 H 0.86299 0.81298 0.25808 0.0
H165 H 0.89343 0.86867 0.26046 0.0
H166 H 0.88014 0.80669 0.24056 0.0
H167 H 0.91023 0.86134 0.24296 0.0
H168 H 0.88191 0.78647 0.28758 0.0
H169 H 0.83656 0.81753 0.30523 0.0
H170 H 0.86683 0.75474 0.29338 0.0
H171 H 0.82212 0.78528 0.31065 0.0
H172 H 0.95679 0.82048 0.28784 0.0
H173 H 0.92411 0.78046 0.26704 0.0
H174 H 0.78019 0.82044 0.27074 0.0
H175 H 0.8222 0.77296 0.26607 0.0
Li176 Li 0.38352 0.61822 0.5303 0.0
Li177 Li 0.40089 0.61696 0.54776 0.0
Li178 Li 0.41453 0.63583 0.53189 0.0
Li179 Li 0.41605 0.59982 0.5319 0.0
C180 C 0.37396 0.65275 0.54057 0.0
N181 N 0.34099 0.67686 0.54105 0.0
C182 C 0.36262 0.65422 0.55006 0.0
C183 C 0.36868 0.66374 0.53137 0.0
C184 C 0.34597 0.66645 0.55013 0.0
C185 C 0.35191 0.67578 0.53176 0.0
C186 C 0.3832 0.57814 0.54444 0.0
C187 C 0.38851 0.54625 0.55277 0.0
N188 N 0.36882 0.54488 0.55488 0.0
C189 C 0.36297 0.57624 0.54653 0.0
C190 C 0.39604 0.56288 0.54744 0.0
C191 C 0.35601 0.55939 0.55189 0.0
C192 C 0.3554 0.6142 0.51327 0.0
N193 N 0.35774 0.61768 0.5241 0.0
C194 C 0.32278 0.62014 0.52654 0.0
C195 C 0.34191 0.6204 0.53076 0.0
C196 C 0.31977 0.61656 0.51537 0.0
C197 C 0.33647 0.61349 0.50871 0.0
H198 H 0.36824 0.61177 0.50819 0.0
H199 H 0.34413 0.62272 0.53938 0.0
C200 C 0.41093 0.62696 0.56932 0.0
N201 N 0.39721 0.61746 0.56315 0.0
C202 C 0.40819 0.62902 0.58054 0.0
C203 C 0.37711 0.61166 0.57887 0.0
C204 C 0.38048 0.60991 0.56768 0.0
C205 C 0.39101 0.62146 0.58545 0.0
H206 H 0.42388 0.63327 0.56549 0.0
H207 H 0.36942 0.60314 0.56257 0.0
C208 C 0.41386 0.62627 0.51093 0.0
N209 N 0.42963 0.64459 0.49277 0.0
C210 C 0.43219 0.62028 0.50683 0.0
C211 C 0.40342 0.64137 0.50571 0.0
C212 C 0.43995 0.62978 0.49767 0.0
C213 C 0.41168 0.65051 0.49656 0.0
C214 C 0.44346 0.61085 0.54871 0.0
C215 C 0.46231 0.61934 0.5485 0.0
C216 C 0.43972 0.59488 0.55563 0.0
C217 C 0.4772 0.61145 0.5551 0.0
C218 C 0.45498 0.58743 0.56211 0.0
N219 N 0.47326 0.59579 0.56171 0.0
C220 C 0.42339 0.67689 0.52886 0.0
C221 C 0.44897 0.65404 0.52486 0.0
C222 C 0.43616 0.69277 0.52694 0.0
N223 N 0.43007 0.65801 0.52791 0.0
C224 C 0.46222 0.66941 0.5229 0.0
C225 C 0.45598 0.68908 0.52414 0.0
H226 H 0.40838 0.67963 0.53148 0.0
H227 H 0.45389 0.63887 0.52427 0.0
C228 C 0.42234 0.56242 0.52207 0.0
N229 N 0.4314 0.57825 0.52672 0.0
C230 C 0.43359 0.54748 0.51721 0.0
C231 C 0.46321 0.56534 0.52217 0.0
C232 C 0.45142 0.57993 0.52687 0.0
C233 C 0.45434 0.54897 0.51709 0.0
H234 H 0.40636 0.56168 0.52188 0.0
H235 H 0.45827 0.59292 0.5303 0.0
O236 O 0.39019 0.64069 0.54032 0.0
O237 O 0.39022 0.59442 0.53904 0.0
O238 O 0.40614 0.61733 0.51999 0.0
O239 O 0.42872 0.61844 0.5423 0.0
H240 H 0.36657 0.64594 0.55729 0.0
H241 H 0.37737 0.6629 0.52399 0.0
H242 H 0.33699 0.66764 0.55741 0.0
H243 H 0.34759 0.68427 0.52467 0.0
H244 H 0.39831 0.53439 0.55518 0.0
H245 H 0.35275 0.58773 0.54413 0.0
H246 H 0.41164 0.56371 0.54558 0.0
H247 H 0.34041 0.55784 0.55364 0.0
H248 H 0.31051 0.62289 0.532 0.0
H249 H 0.33497 0.61029 0.5001 0.0
H250 H 0.41938 0.63656 0.5853 0.0
H251 H 0.36345 0.60599 0.58226 0.0
H252 H 0.44042 0.60856 0.51074 0.0
H253 H 0.38908 0.64596 0.50866 0.0
H254 H 0.45419 0.6254 0.49446 0.0
H255 H 0.4038 0.66228 0.49247 0.0
H256 H 0.46544 0.63186 0.5433 0.0
H257 H 0.42511 0.58855 0.55615 0.0
H258 H 0.49187 0.61782 0.55498 0.0
H259 H 0.45226 0.57509 0.56752 0.0
H260 H 0.43083 0.70772 0.52812 0.0
H261 H 0.4773 0.66592 0.52064 0.0
H262 H 0.4261 0.53527 0.51327 0.0
H263 H 0.47913 0.56703 0.52241 0.0
Li264 Li 0.64994 0.16503 0.78145 0.0
Li265 Li 0.61487 0.1638 0.78288 0.0
Li266 Li 0.63441 0.14993 0.79753 0.0
Li267 Li 0.6314 0.13248 0.77945 0.0
C268 C 0.64427 0.19295 0.79667 0.0
N269 N 0.66702 0.22388 0.80439 0.0
C270 C 0.64062 0.21227 0.79315 0.0
C271 C 0.65939 0.18941 0.80418 0.0
C272 C 0.65232 0.2277 0.79712 0.0
C273 C 0.67075 0.20522 0.80798 0.0
C274 C 0.61956 0.15999 0.76096 0.0
C275 C 0.5983 0.14857 0.74647 0.0
N276 N 0.59659 0.16746 0.74278 0.0
C277 C 0.61767 0.17927 0.75699 0.0
C278 C 0.60985 0.14449 0.75564 0.0
C279 C 0.60594 0.18275 0.7478 0.0
C280 C 0.69048 0.17435 0.77654 0.0
N281 N 0.67136 0.1805 0.77608 0.0
C282 C 0.68098 0.21056 0.76735 0.0
C283 C 0.66643 0.19815 0.77156 0.0
C284 C 0.70093 0.20482 0.76779 0.0
C285 C 0.70561 0.18639 0.77246 0.0
H286 H 0.694 0.16012 0.78003 0.0
H287 H 0.65113 0.20263 0.77125 0.0
C288 C 0.589 0.19449 0.78771 0.0
N289 N 0.59138 0.1793 0.78058 0.0
C290 C 0.57302 0.20736 0.78673 0.0
C291 C 0.56154 0.1883 0.77132 0.0
C292 C 0.5778 0.17575 0.77262 0.0
C293 C 0.55917 0.20455 0.77834 0.0
H294 H 0.59951 0.1966 0.79423 0.0
H295 H 0.57952 0.16323 0.76725 0.0
C296 C 0.66926 0.12807 0.79393 0.0
N297 N 0.69622 0.10616 0.80581 0.0
C298 C 0.66796 0.10743 0.79414 0.0
C299 C 0.68442 0.13753 0.79966 0.0
C300 C 0.6817 0.09663 0.80022 0.0
C301 C 0.69786 0.12621 0.80565 0.0
C302 C 0.5908 0.13827 0.79144 0.0
C303 C 0.58203 0.14708 0.80054 0.0
C304 C 0.5789 0.13053 0.78316 0.0
C305 C 0.56142 0.14805 0.80119 0.0
C306 C 0.55835 0.13176 0.78412 0.0
N307 N 0.55011 0.14044 0.79304 0.0
C308 C 0.62756 0.16053 0.81929 0.0
C309 C 0.64079 0.12831 0.8173 0.0
C310 C 0.62588 0.15794 0.83055 0.0
N311 N 0.63495 0.14583 0.81292 0.0
C312 C 0.6396 0.12516 0.82853 0.0
C313 C 0.63186 0.14001 0.83533 0.0
H314 H 0.62244 0.1741 0.81558 0.0
H315 H 0.64593 0.11657 0.81207 0.0
C316 C 0.64505 0.10255 0.76525 0.0
N317 N 0.63132 0.10707 0.77294 0.0
C318 C 0.64586 0.08352 0.76084 0.0
C319 C 0.61821 0.07431 0.77227 0.0
C320 C 0.61808 0.09344 0.77653 0.0
C321 C 0.63233 0.06904 0.76437 0.0
H322 H 0.65558 0.11367 0.76269 0.0
H323 H 0.60756 0.09735 0.7828 0.0
O324 O 0.63313 0.17761 0.79274 0.0
O325 O 0.63115 0.15621 0.76987 0.0
O326 O 0.65603 0.13887 0.78794 0.0
O327 O 0.61094 0.13766 0.79053 0.0
H328 H 0.62902 0.21531 0.7873 0.0
H329 H 0.66232 0.17461 0.80707 0.0
H330 H 0.64974 0.2427 0.79442 0.0
H331 H 0.68253 0.20266 0.81378 0.0
H332 H 0.59066 0.13673 0.74229 0.0
H333 H 0.62493 0.19147 0.76101 0.0
H334 H 0.61111 0.12948 0.75858 0.0
H335 H 0.60425 0.19762 0.74469 0.0
H336 H 0.67654 0.22439 0.76364 0.0
H337 H 0.72077 0.18138 0.77305 0.0
H338 H 0.57147 0.21932 0.79254 0.0
H339 H 0.55117 0.18551 0.76477 0.0
H340 H 0.65638 0.09982 0.78976 0.0
H341 H 0.6859 0.15344 0.79944 0.0
H342 H 0.68079 0.08067 0.80051 0.0
H343 H 0.70962 0.13335 0.81014 0.0
H344 H 0.59104 0.15326 0.80699 0.0
H345 H 0.58545 0.12396 0.77597 0.0
H346 H 0.55443 0.15491 0.80817 0.0
H347 H 0.54895 0.12594 0.77774 0.0
H348 H 0.61938 0.16966 0.83537 0.0
H349 H 0.64454 0.11115 0.83182 0.0
H350 H 0.65722 0.0801 0.75492 0.0
H351 H 0.60731 0.06381 0.77514 0.0
Li352 Li 0.08472 0.60119 0.46946 0.0
Li353 Li 0.08582 0.63711 0.46828 0.0
Li354 Li 0.09955 0.61553 0.45323 0.0
Li355 Li 0.11735 0.61881 0.47071 0.0
C356 C 0.0538 0.61049 0.45662 0.0
N357 N 0.01699 0.59386 0.4533 0.0
C358 C 0.03717 0.61848 0.46174 0.0
C359 C 0.0517 0.59424 0.44968 0.0
C360 C 0.01868 0.60981 0.45999 0.0
C361 C 0.03297 0.58598 0.44815 0.0
C362 C 0.09457 0.62995 0.49052 0.0
C363 C 0.10932 0.65409 0.50249 0.0
N364 N 0.09562 0.64968 0.51024 0.0
C365 C 0.08079 0.62548 0.49865 0.0
C366 C 0.10907 0.64422 0.49249 0.0
C367 C 0.0815 0.63569 0.50854 0.0
C368 C 0.07388 0.56107 0.47364 0.0
N369 N 0.06887 0.58036 0.47508 0.0
C370 C 0.03976 0.57115 0.48488 0.0
C371 C 0.05232 0.5856 0.48067 0.0
C372 C 0.04444 0.55109 0.48348 0.0
C373 C 0.06182 0.54609 0.47783 0.0
H374 H 0.08724 0.55732 0.46928 0.0
H375 H 0.04889 0.60107 0.48184 0.0
C376 C 0.07181 0.67455 0.46276 0.0
N377 N 0.07132 0.6607 0.47078 0.0
C378 C 0.05982 0.69129 0.4634 0.0
C379 C 0.04716 0.67934 0.48062 0.0
C380 C 0.05937 0.66277 0.47962 0.0
C381 C 0.04707 0.6937 0.47234 0.0
H382 H 0.08114 0.6723 0.4557 0.0
H383 H 0.05871 0.65123 0.48568 0.0
C384 C 0.11971 0.58077 0.45609 0.0
N385 N 0.1385 0.55402 0.44257 0.0
C386 C 0.14035 0.57956 0.45599 0.0
C387 C 0.10863 0.56823 0.44941 0.0
C388 C 0.14957 0.56597 0.44908 0.0
C389 C 0.1184 0.55486 0.4426 0.0
C390 C 0.12235 0.65588 0.45828 0.0
C391 C 0.134 0.6573 0.4489 0.0
C392 C 0.1224 0.67133 0.46585 0.0
C393 C 0.14581 0.67402 0.44734 0.0
C394 C 0.13439 0.68781 0.464 0.0
N395 N 0.14577 0.68879 0.45487 0.0
C396 C 0.08784 0.62085 0.43152 0.0
C397 C 0.12071 0.60928 0.43344 0.0
C398 C 0.09016 0.62235 0.42023 0.0
N399 N 0.10303 0.61449 0.43786 0.0
C400 C 0.12359 0.61025 0.42218 0.0
C401 C 0.1083 0.61715 0.4154 0.0
H402 H 0.07409 0.62537 0.43527 0.0
H403 H 0.1328 0.60493 0.43865 0.0
C404 C 0.14621 0.60875 0.48643 0.0
N405 N 0.14308 0.61886 0.47701 0.0
C406 C 0.16516 0.60779 0.49096 0.0
C407 C 0.17719 0.62786 0.47607 0.0
C408 C 0.15811 0.6282 0.47178 0.0
C409 C 0.18103 0.61741 0.48576 0.0
H410 H 0.13401 0.60121 0.49034 0.0
H411 H 0.15544 0.6357 0.46417 0.0
O412 O 0.07204 0.61864 0.45832 0.0
O413 O 0.09404 0.62007 0.48079 0.0
O414 O 0.11044 0.59398 0.4628 0.0
O415 O 0.11073 0.63958 0.45992 0.0
H416 H 0.03854 0.63114 0.46709 0.0
H417 H 0.06438 0.58809 0.44553 0.0
H418 H 0.00569 0.61574 0.46396 0.0
H419 H 0.03113 0.57334 0.44284 0.0
H420 H 0.12044 0.66521 0.50411 0.0
H421 H 0.06958 0.61433 0.49731 0.0
H422 H 0.12013 0.64754 0.4864 0.0
H423 H 0.07084 0.63248 0.51488 0.0
H424 H 0.02669 0.57565 0.48934 0.0
H425 H 0.06591 0.53079 0.47654 0.0
H426 H 0.06031 0.70208 0.45688 0.0
H427 H 0.0373 0.68045 0.48755 0.0
H428 H 0.14916 0.58907 0.46116 0.0
H429 H 0.09266 0.56883 0.44946 0.0
H430 H 0.16553 0.56494 0.44888 0.0
H431 H 0.11001 0.54513 0.43735 0.0
H432 H 0.13406 0.64555 0.44292 0.0
H433 H 0.11312 0.67076 0.47302 0.0
H434 H 0.15499 0.67525 0.44015 0.0
H435 H 0.1346 0.69986 0.4698 0.0
H436 H 0.07806 0.62815 0.41543 0.0
H437 H 0.13776 0.60585 0.41887 0.0
H438 H 0.16737 0.59926 0.49833 0.0
H439 H 0.18877 0.63577 0.47183 0.0
Li440 Li 0.63388 0.84872 0.70206 0.0
Li441 Li 0.63159 0.86677 0.71936 0.0
Li442 Li 0.64858 0.83341 0.71854 0.0
Li443 Li 0.61284 0.8366 0.71734 0.0
C444 C 0.67246 0.86565 0.70612 0.0
N445 N 0.70601 0.87968 0.6958 0.0
C446 C 0.67389 0.88559 0.70322 0.0
C447 C 0.68821 0.85289 0.70384 0.0
C448 C 0.69094 0.89239 0.69799 0.0
C449 C 0.705 0.86025 0.6986 0.0
C450 C 0.59972 0.87823 0.70746 0.0
C451 C 0.57709 0.90272 0.71445 0.0
N452 N 0.57903 0.91321 0.70505 0.0
C453 C 0.60144 0.88923 0.69785 0.0
C454 C 0.58738 0.88498 0.71581 0.0
C455 C 0.59087 0.90688 0.69679 0.0
C456 C 0.61708 0.84619 0.68164 0.0
N457 N 0.63434 0.8513 0.68656 0.0
C458 C 0.64817 0.86105 0.66944 0.0
C459 C 0.64987 0.85839 0.6807 0.0
C460 C 0.6303 0.85639 0.66416 0.0
C461 C 0.61469 0.84868 0.67042 0.0
H462 H 0.60495 0.84066 0.68652 0.0
H463 H 0.66355 0.86213 0.68469 0.0
C464 C 0.63405 0.8946 0.73665 0.0
N465 N 0.63242 0.8926 0.72566 0.0
C466 C 0.63463 0.91341 0.74138 0.0
C467 C 0.63182 0.92769 0.72339 0.0
C468 C 0.6315 0.90866 0.71902 0.0
C469 C 0.63347 0.93032 0.73472 0.0
H470 H 0.635 0.88159 0.74175 0.0
H471 H 0.63043 0.90676 0.71031 0.0
C472 C 0.63907 0.80637 0.70169 0.0
N473 N 0.65629 0.77636 0.6897 0.0
C474 C 0.63096 0.78736 0.70184 0.0
C475 C 0.65579 0.81015 0.69534 0.0
C476 C 0.63993 0.77236 0.69576 0.0
C477 C 0.66431 0.79479 0.68935 0.0
C478 C 0.61927 0.83722 0.73831 0.0
C479 C 0.62347 0.8187 0.74279 0.0
C480 C 0.6036 0.84838 0.74245 0.0
C481 C 0.6117 0.81151 0.75128 0.0
C482 C 0.59216 0.84068 0.75094 0.0
N483 N 0.59641 0.82254 0.75513 0.0
C484 C 0.68589 0.826 0.72822 0.0
C485 C 0.6664 0.79752 0.72486 0.0
C486 C 0.70085 0.8144 0.73279 0.0
N487 N 0.66919 0.81739 0.72429 0.0
C488 C 0.68089 0.78538 0.72941 0.0
C489 C 0.6984 0.79379 0.73347 0.0
H490 H 0.68753 0.8419 0.72787 0.0
H491 H 0.65275 0.79111 0.72195 0.0
C492 C 0.57114 0.83105 0.71926 0.0
N493 N 0.5892 0.82256 0.72057 0.0
C494 C 0.55398 0.81989 0.72077 0.0
C495 C 0.57435 0.79156 0.72506 0.0
C496 C 0.59108 0.80329 0.72351 0.0
C497 C 0.55544 0.79975 0.72353 0.0
H498 H 0.57004 0.84633 0.71679 0.0
H499 H 0.60566 0.7969 0.72439 0.0
O500 O 0.65595 0.85878 0.71136 0.0
O501 O 0.61002 0.86095 0.70866 0.0
O502 O 0.63053 0.82116 0.70767 0.0
O503 O 0.63035 0.84432 0.72984 0.0
H504 H 0.66194 0.89571 0.70491 0.0
H505 H 0.68752 0.83745 0.70608 0.0
H506 H 0.6922 0.90777 0.69568 0.0
H507 H 0.71724 0.85051 0.69676 0.0
H508 H 0.56757 0.90816 0.72088 0.0
H509 H 0.611 0.88435 0.69132 0.0
H510 H 0.58589 0.87671 0.72331 0.0
H511 H 0.59213 0.91557 0.68942 0.0
H512 H 0.66072 0.86669 0.66493 0.0
H513 H 0.60056 0.84512 0.66677 0.0
H514 H 0.63623 0.91466 0.75014 0.0
H515 H 0.63055 0.94018 0.71791 0.0
H516 H 0.61792 0.78418 0.70664 0.0
H517 H 0.66204 0.8248 0.69498 0.0
H518 H 0.63387 0.75756 0.69585 0.0
H519 H 0.67728 0.79753 0.68442 0.0
H520 H 0.63557 0.80989 0.73969 0.0
H521 H 0.60027 0.86282 0.73914 0.0
H522 H 0.6147 0.79714 0.75478 0.0
H523 H 0.57992 0.84911 0.75419 0.0
H524 H 0.71397 0.82152 0.73598 0.0
H525 H 0.67842 0.76957 0.72971 0.0
H526 H 0.53974 0.8269 0.71964 0.0
H527 H 0.57626 0.77607 0.72701 0.0
Li528 Li 0.41294 0.36341 0.96703 0.0
Li529 Li 0.41575 0.39895 0.96916 0.0
Li530 Li 0.3828 0.38295 0.96981 0.0
Li531 Li 0.4007 0.38573 0.95268 0.0
C532 C 0.41869 0.37734 0.9885 0.0
N533 N 0.4453 0.37353 0.00547 0.0
C534 C 0.43854 0.37312 0.98635 0.0
C535 C 0.41236 0.37958 0.99927 0.0
C536 C 0.45177 0.37126 0.99504 0.0
C537 C 0.42604 0.37761 0.00774 0.0
C538 C 0.44501 0.39035 0.95392 0.0
C539 C 0.46175 0.4171 0.94475 0.0
N540 N 0.47932 0.40775 0.94632 0.0
C541 C 0.46323 0.38095 0.95539 0.0
C542 C 0.44424 0.40853 0.94852 0.0
C543 C 0.48041 0.39001 0.95151 0.0
C544 C 0.43697 0.3328 0.9604 0.0
N545 N 0.42583 0.33877 0.969 0.0
C546 C 0.4359 0.31062 0.97939 0.0
C547 C 0.42487 0.32801 0.97835 0.0
C548 C 0.44798 0.30433 0.97071 0.0
C549 C 0.44828 0.31565 0.9611 0.0
H550 H 0.43737 0.34166 0.95306 0.0
H551 H 0.41579 0.33308 0.98505 0.0
C552 C 0.42252 0.43643 0.97878 0.0
N553 N 0.43157 0.41962 0.9753 0.0
C554 C 0.43362 0.45172 0.98344 0.0
C555 C 0.46309 0.43208 0.98083 0.0
C556 C 0.45144 0.41714 0.97637 0.0
C557 C 0.45422 0.44966 0.98441 0.0
H558 H 0.40667 0.43794 0.97796 0.0
H559 H 0.45833 0.40352 0.97388 0.0
C560 C 0.37803 0.34478 0.96141 0.0
N561 N 0.35882 0.30998 0.9666 0.0
C562 C 0.37051 0.3327 0.95315 0.0
C563 C 0.37579 0.33918 0.97231 0.0
C564 C 0.36084 0.31516 0.95594 0.0
C565 C 0.36603 0.32153 0.97477 0.0
C566 C 0.38274 0.42192 0.95587 0.0
C567 C 0.36282 0.42097 0.9529 0.0
C568 C 0.3942 0.43803 0.95254 0.0
C569 C 0.35481 0.43589 0.94637 0.0
C570 C 0.38564 0.45266 0.94603 0.0
N571 N 0.3663 0.45128 0.94309 0.0
C572 C 0.35412 0.39122 0.98601 0.0
C573 C 0.34171 0.37697 0.96973 0.0
C574 C 0.33506 0.39217 0.99039 0.0
N575 N 0.35703 0.3837 0.97587 0.0
C576 C 0.32246 0.37756 0.97379 0.0
C577 C 0.31889 0.3853 0.98424 0.0
H578 H 0.3666 0.39665 0.99065 0.0
H579 H 0.34445 0.37122 0.96164 0.0
C580 C 0.41229 0.38493 0.93039 0.0
N581 N 0.39674 0.38715 0.93731 0.0
C582 C 0.40914 0.3832 0.91919 0.0
C583 C 0.374 0.38601 0.92238 0.0
C584 C 0.37784 0.38763 0.93353 0.0
C585 C 0.38977 0.38344 0.91506 0.0
H586 H 0.42711 0.38366 0.93356 0.0
H587 H 0.36567 0.38837 0.93923 0.0
O588 O 0.40542 0.37923 0.98014 0.0
O589 O 0.42808 0.38185 0.95783 0.0
O590 O 0.38753 0.36198 0.95877 0.0
O591 O 0.39081 0.40751 0.96231 0.0
H592 H 0.4437 0.37128 0.97808 0.0
H593 H 0.39702 0.38281 0.00107 0.0
H594 H 0.46718 0.36801 0.99349 0.0
H595 H 0.42134 0.37932 0.01612 0.0
H596 H 0.46135 0.43118 0.94057 0.0
H597 H 0.46413 0.36692 0.95961 0.0
H598 H 0.43026 0.41583 0.94718 0.0
H599 H 0.49462 0.38295 0.95264 0.0
H600 H 0.43501 0.30224 0.9869 0.0
H601 H 0.45758 0.31164 0.95426 0.0
H602 H 0.42625 0.46509 0.9861 0.0
H603 H 0.47887 0.42975 0.98163 0.0
H604 H 0.37214 0.33686 0.94467 0.0
H605 H 0.38147 0.34835 0.97882 0.0
H606 H 0.35494 0.30566 0.94963 0.0
H607 H 0.36419 0.31701 0.98317 0.0
H608 H 0.35366 0.40878 0.95555 0.0
H609 H 0.40948 0.43934 0.95503 0.0
H610 H 0.33945 0.43524 0.94394 0.0
H611 H 0.39436 0.46517 0.94335 0.0
H612 H 0.333 0.39851 0.99842 0.0
H613 H 0.31053 0.37184 0.96881 0.0
H614 H 0.42174 0.38127 0.91384 0.0
H615 H 0.35881 0.38581 0.91958 0.0
Li616 Li 0.84988 0.16465 0.21773 0.0
Li617 Li 0.88576 0.16385 0.21675 0.0
Li618 Li 0.8646 0.14949 0.20163 0.0
Li619 Li 0.86754 0.13231 0.21934 0.0
C620 C 0.85833 0.19483 0.20444 0.0
N621 N 0.8398 0.23043 0.20034 0.0
C622 C 0.86422 0.21187 0.21 0.0
C623 C 0.84324 0.19591 0.19669 0.0
C624 C 0.8546 0.22973 0.20784 0.0
C625 C 0.83399 0.21404 0.19476 0.0
C626 C 0.8793 0.15472 0.23877 0.0
C627 C 0.9049 0.13969 0.24966 0.0
N628 N 0.90075 0.15249 0.25791 0.0
C629 C 0.87516 0.1676 0.24738 0.0
C630 C 0.89419 0.14056 0.23994 0.0
C631 C 0.88622 0.1663 0.25698 0.0
C632 C 0.80968 0.1769 0.22095 0.0
N633 N 0.82899 0.18063 0.22323 0.0
C634 C 0.82009 0.20865 0.23403 0.0
C635 C 0.83437 0.19604 0.22969 0.0
C636 C 0.8 0.20535 0.23175 0.0
C637 C 0.79486 0.18917 0.22512 0.0
H638 H 0.80575 0.16441 0.21591 0.0
H639 H 0.84985 0.19854 0.23144 0.0
C640 C 0.92341 0.17758 0.21144 0.0
N641 N 0.90919 0.17855 0.21924 0.0
C642 C 0.94017 0.18953 0.21214 0.0
C643 C 0.92742 0.20319 0.22895 0.0
C644 C 0.91085 0.19098 0.22791 0.0
C645 C 0.9422 0.20276 0.2209 0.0
H646 H 0.92148 0.16787 0.20452 0.0
H647 H 0.89902 0.19195 0.2338 0.0
C648 C 0.82934 0.12934 0.20478 0.0
N649 N 0.8018 0.11015 0.19194 0.0
C650 C 0.82766 0.10875 0.20519 0.0
C651 C 0.81694 0.14018 0.1979 0.0
C652 C 0.81366 0.09932 0.19861 0.0
C653 C 0.80314 0.1302 0.19145 0.0
C654 C 0.90414 0.12647 0.20648 0.0
C655 C 0.90376 0.11432 0.19726 0.0
C656 C 0.92073 0.12631 0.21328 0.0
C657 C 0.91983 0.10194 0.19511 0.0
C658 C 0.93651 0.11373 0.21085 0.0
N659 N 0.93573 0.10189 0.2019 0.0
C660 C 0.87418 0.15964 0.1803 0.0
C661 C 0.85655 0.12941 0.18142 0.0
C662 C 0.87664 0.15724 0.16907 0.0
N663 N 0.86434 0.14579 0.18622 0.0
C664 C 0.85835 0.12659 0.17019 0.0
C665 C 0.86875 0.14048 0.16391 0.0
H666 H 0.88056 0.17233 0.18436 0.0
H667 H 0.84957 0.11816 0.18631 0.0
C668 C 0.85835 0.10413 0.23562 0.0
N669 N 0.8676 0.10677 0.22589 0.0
C670 C 0.85747 0.08534 0.24035 0.0
C671 C 0.87579 0.07246 0.225 0.0
C672 C 0.87612 0.0914 0.22053 0.0
C673 C 0.86624 0.06914 0.23502 0.0
H674 H 0.85145 0.11659 0.23963 0.0
H675 H 0.88292 0.09371 0.2127 0.0
O676 O 0.86737 0.17716 0.20655 0.0
O677 O 0.8687 0.15595 0.22929 0.0
O678 O 0.84294 0.13879 0.21118 0.0
O679 O 0.88854 0.13875 0.20866 0.0
H680 H 0.87597 0.21127 0.21599 0.0
H681 H 0.83875 0.1829 0.1922 0.0
H682 H 0.85888 0.24303 0.21213 0.0
H683 H 0.82222 0.21509 0.18881 0.0
H684 H 0.91649 0.12882 0.25067 0.0
H685 H 0.86359 0.17857 0.24665 0.0
H686 H 0.89735 0.13026 0.23344 0.0
H687 H 0.88325 0.17625 0.26368 0.0
H688 H 0.82476 0.2207 0.23925 0.0
H689 H 0.77958 0.18613 0.22308 0.0
H690 H 0.95128 0.18864 0.2058 0.0
H691 H 0.92825 0.21341 0.23573 0.0
H692 H 0.83707 0.10013 0.2105 0.0
H693 H 0.818 0.15611 0.19751 0.0
H694 H 0.81223 0.0834 0.19882 0.0
H695 H 0.79349 0.1384 0.18606 0.0
H696 H 0.89111 0.11429 0.19187 0.0
H697 H 0.92155 0.13594 0.22031 0.0
H698 H 0.91966 0.09237 0.18804 0.0
H699 H 0.94941 0.11343 0.21607 0.0
H700 H 0.88474 0.16827 0.16449 0.0
H701 H 0.85237 0.11331 0.16651 0.0
H702 H 0.84967 0.0835 0.24799 0.0
H703 H 0.88301 0.06057 0.22063 0.0
Li704 Li 0.88248 0.61686 0.97081 0.0
Li705 Li 0.91376 0.60132 0.9684 0.0
Li706 Li 0.91284 0.63623 0.96707 0.0
Li707 Li 0.89858 0.61444 0.95215 0.0
C708 C 0.90204 0.63162 0.98899 0.0
N709 N 0.89269 0.65491 0.00678 0.0
C710 C 0.90598 0.62492 0.99955 0.0
C711 C 0.89341 0.65019 0.98748 0.0
C712 C 0.90112 0.6369 0.00844 0.0
C713 C 0.88879 0.66174 0.99657 0.0
C714 C 0.88382 0.57463 0.9652 0.0
C715 C 0.87766 0.54017 0.96151 0.0
N716 N 0.87557 0.53684 0.97239 0.0
C717 C 0.88159 0.5709 0.97634 0.0
C718 C 0.88184 0.55919 0.95771 0.0
C719 C 0.87742 0.55167 0.97981 0.0
C720 C 0.84145 0.61847 0.97022 0.0
N721 N 0.85691 0.61668 0.97723 0.0
C722 C 0.83484 0.61439 0.9924 0.0
C723 C 0.85399 0.61448 0.98813 0.0
C724 C 0.81857 0.61633 0.98535 0.0
C725 C 0.82207 0.61833 0.97411 0.0
H726 H 0.84424 0.62005 0.96157 0.0
H727 H 0.86647 0.61258 0.99352 0.0
C728 C 0.94004 0.58401 0.9831 0.0
N729 N 0.93009 0.58038 0.97369 0.0
C730 C 0.953 0.56995 0.98735 0.0
C731 C 0.94526 0.54859 0.97213 0.0
C732 C 0.93238 0.56308 0.96819 0.0
C733 C 0.95585 0.55198 0.98183 0.0
H734 H 0.9381 0.59799 0.98724 0.0
H735 H 0.92456 0.5607 0.96061 0.0
C736 C 0.87759 0.65415 0.95586 0.0
N737 N 0.85894 0.68746 0.94781 0.0
C738 C 0.88218 0.66121 0.94545 0.0
C739 C 0.86334 0.66392 0.96213 0.0
C740 C 0.87264 0.67811 0.94154 0.0
C741 C 0.85413 0.68077 0.95793 0.0
C742 C 0.94447 0.60922 0.95643 0.0
C743 C 0.95958 0.61555 0.96338 0.0
C744 C 0.94785 0.59342 0.94933 0.0
C745 C 0.97782 0.60587 0.96315 0.0
C746 C 0.96631 0.58415 0.94932 0.0
N747 N 0.98078 0.5905 0.95619 0.0
C748 C 0.93883 0.66248 0.97813 0.0
C749 C 0.9267 0.67399 0.96115 0.0
C750 C 0.95111 0.67901 0.97909 0.0
N751 N 0.92707 0.66024 0.96921 0.0
C752 C 0.93861 0.69077 0.9618 0.0
C753 C 0.95136 0.69327 0.97075 0.0
H754 H 0.93924 0.65107 0.9843 0.0
H755 H 0.91767 0.67164 0.95403 0.0
C756 C 0.8737 0.61402 0.93386 0.0
N757 N 0.89294 0.61335 0.93705 0.0
C758 C 0.86891 0.6153 0.92281 0.0
C759 C 0.90382 0.61453 0.91853 0.0
C760 C 0.90794 0.61359 0.92968 0.0
C761 C 0.8841 0.61565 0.915 0.0
H762 H 0.86211 0.61412 0.93995 0.0
H763 H 0.9231 0.61364 0.93245 0.0
O764 O 0.90653 0.61987 0.98025 0.0
O765 O 0.88828 0.59325 0.96164 0.0
O766 O 0.88653 0.63741 0.95976 0.0
O767 O 0.92636 0.6182 0.95676 0.0
H768 H 0.91258 0.61054 0.00087 0.0
H769 H 0.89047 0.6557 0.97939 0.0
H770 H 0.90403 0.63187 0.01666 0.0
H771 H 0.88212 0.67615 0.99551 0.0
H772 H 0.87613 0.52805 0.95582 0.0
H773 H 0.88332 0.58267 0.98224 0.0
H774 H 0.88362 0.56187 0.94906 0.0
H775 H 0.87574 0.54854 0.98841 0.0
H776 H 0.83277 0.61249 0.00109 0.0
H777 H 0.80996 0.62001 0.96841 0.0
H778 H 0.9606 0.57312 0.99492 0.0
H779 H 0.94721 0.53509 0.96751 0.0
H780 H 0.89314 0.65384 0.94047 0.0
H781 H 0.85934 0.65854 0.97014 0.0
H782 H 0.87613 0.68378 0.93352 0.0
H783 H 0.84312 0.6885 0.9627 0.0
H784 H 0.95717 0.62766 0.96898 0.0
H785 H 0.93622 0.58809 0.94403 0.0
H786 H 0.98961 0.61054 0.96853 0.0
H787 H 0.96909 0.57181 0.94392 0.0
H788 H 0.9609 0.68014 0.98605 0.0
H789 H 0.93811 0.70148 0.95524 0.0
H790 H 0.85353 0.61612 0.92038 0.0
H791 H 0.91593 0.6151 0.91276 0.0
Li792 Li 0.14786 0.16486 0.71977 0.0
Li793 Li 0.12974 0.1336 0.72036 0.0
Li794 Li 0.13198 0.1514 0.70333 0.0
Li795 Li 0.11211 0.16346 0.71886 0.0
C796 C 0.17037 0.13038 0.71564 0.0
N797 N 0.20313 0.11087 0.72371 0.0
C798 C 0.17276 0.12796 0.72689 0.0
C799 C 0.18459 0.12283 0.7085 0.0
C800 C 0.18944 0.11805 0.7308 0.0
C801 C 0.20107 0.11304 0.71274 0.0
C802 C 0.11925 0.16259 0.73995 0.0
C803 C 0.08997 0.16339 0.75121 0.0
N804 N 0.09826 0.1779 0.75737 0.0
C805 C 0.12758 0.17729 0.74652 0.0
C806 C 0.10041 0.15537 0.74243 0.0
C807 C 0.11671 0.18492 0.75524 0.0
C808 C 0.16314 0.19941 0.72846 0.0
N809 N 0.16897 0.1814 0.72473 0.0
C810 C 0.20277 0.18916 0.72855 0.0
C811 C 0.18842 0.17627 0.72446 0.0
C812 C 0.19706 0.20754 0.73286 0.0
C813 C 0.17695 0.2127 0.73265 0.0
H814 H 0.14764 0.20333 0.72829 0.0
H815 H 0.19291 0.16224 0.72112 0.0
C816 C 0.13704 0.09259 0.71992 0.0
N817 N 0.12979 0.10748 0.72619 0.0
C818 C 0.13717 0.07321 0.72383 0.0
C819 C 0.1224 0.08488 0.74058 0.0
C820 C 0.12263 0.10405 0.73637 0.0
C821 C 0.12974 0.06912 0.73429 0.0
H822 H 0.14271 0.09579 0.71187 0.0
H823 H 0.11703 0.11617 0.74119 0.0
C824 C 0.14105 0.19178 0.70333 0.0
N825 N 0.16277 0.21845 0.69119 0.0
C826 C 0.1342 0.21109 0.7019 0.0
C827 C 0.15898 0.18602 0.69862 0.0
C828 C 0.14539 0.22436 0.69573 0.0
C829 C 0.16973 0.19973 0.6925 0.0
C830 C 0.09951 0.12122 0.70914 0.0
C831 C 0.10461 0.10867 0.70053 0.0
C832 C 0.08611 0.11468 0.71704 0.0
C833 C 0.09645 0.08972 0.70004 0.0
C834 C 0.0783 0.0956 0.71629 0.0
N835 N 0.0836 0.08361 0.70788 0.0
C836 C 0.14273 0.1347 0.68293 0.0
C837 C 0.12268 0.1634 0.6821 0.0
C838 C 0.14161 0.13242 0.67162 0.0
N839 N 0.13299 0.14977 0.68791 0.0
C840 C 0.12148 0.16192 0.67078 0.0
C841 C 0.1306 0.14598 0.66537 0.0
H842 H 0.15069 0.124 0.6878 0.0
H843 H 0.11506 0.17522 0.68629 0.0
C844 C 0.09139 0.1973 0.7256 0.0
N845 N 0.08911 0.17841 0.72203 0.0
C846 C 0.07491 0.20949 0.72696 0.0
C847 C 0.05407 0.18235 0.72122 0.0
C848 C 0.07095 0.17073 0.71993 0.0
C849 C 0.05594 0.20215 0.72457 0.0
H850 H 0.10608 0.20304 0.72708 0.0
H851 H 0.06961 0.15574 0.71698 0.0
O852 O 0.15399 0.13966 0.71155 0.0
O853 O 0.12962 0.15506 0.7313 0.0
O854 O 0.13035 0.17873 0.70947 0.0
O855 O 0.10777 0.13967 0.70989 0.0
H856 H 0.16191 0.13366 0.73254 0.0
H857 H 0.1829 0.12452 0.69977 0.0
H858 H 0.1915 0.11607 0.73948 0.0
H859 H 0.21222 0.10714 0.70731 0.0
H860 H 0.07529 0.15808 0.75311 0.0
H861 H 0.14238 0.18259 0.745 0.0
H862 H 0.0938 0.14387 0.73753 0.0
H863 H 0.12297 0.19636 0.76035 0.0
H864 H 0.21812 0.18459 0.72854 0.0
H865 H 0.17194 0.2269 0.73565 0.0
H866 H 0.14325 0.06162 0.71875 0.0
H867 H 0.11629 0.08243 0.74863 0.0
H868 H 0.12039 0.21577 0.70555 0.0
H869 H 0.16458 0.17117 0.69969 0.0
H870 H 0.14027 0.23936 0.69455 0.0
H871 H 0.18362 0.1955 0.6888 0.0
H872 H 0.11489 0.11342 0.69433 0.0
H873 H 0.0819 0.12411 0.72375 0.0
H874 H 0.10038 0.07984 0.69345 0.0
H875 H 0.06804 0.09032 0.7224 0.0
H876 H 0.14869 0.11975 0.6679 0.0
H877 H 0.11325 0.17304 0.66634 0.0
H878 H 0.07709 0.22471 0.72942 0.0
H879 H 0.03974 0.17599 0.71942 0.0
Li880 Li 0.58403 0.39815 0.46842 0.0
Li881 Li 0.61589 0.38389 0.4703 0.0
Li882 Li 0.59891 0.38404 0.45237 0.0
Li883 Li 0.58635 0.36309 0.4678 0.0
C884 C 0.61601 0.42385 0.46561 0.0
N885 N 0.63114 0.4578 0.47497 0.0
C886 C 0.61447 0.42685 0.47686 0.0
C887 C 0.62525 0.43811 0.45912 0.0
C888 C 0.62221 0.44411 0.48143 0.0
C889 C 0.6328 0.45518 0.46401 0.0
C890 C 0.5982 0.36939 0.48916 0.0
C891 C 0.61438 0.34088 0.4969 0.0
N892 N 0.60934 0.34722 0.50706 0.0
C893 C 0.59316 0.3756 0.49966 0.0
C894 C 0.6089 0.35189 0.48775 0.0
C895 C 0.59894 0.3642 0.50861 0.0
C896 C 0.5556 0.41385 0.48235 0.0
N897 N 0.56703 0.41847 0.47361 0.0
C898 C 0.5531 0.45089 0.47279 0.0
C899 C 0.56607 0.43654 0.46879 0.0
C900 C 0.5411 0.44657 0.48186 0.0
C901 C 0.5425 0.42774 0.48664 0.0
H902 H 0.55666 0.39931 0.48597 0.0
H903 H 0.57525 0.43974 0.46179 0.0
C904 C 0.65682 0.38165 0.46935 0.0
N905 N 0.64169 0.38527 0.47636 0.0
C906 C 0.67631 0.3817 0.47306 0.0
C907 C 0.66436 0.39001 0.49107 0.0
C908 C 0.64505 0.38965 0.48702 0.0
C909 C 0.68027 0.38579 0.48408 0.0
H910 H 0.65369 0.37854 0.46087 0.0
H911 H 0.63277 0.39279 0.49239 0.0
C912 C 0.55526 0.39117 0.45487 0.0
N913 N 0.52283 0.41452 0.45015 0.0
C914 C 0.537 0.38725 0.45975 0.0
C915 C 0.557 0.40691 0.44755 0.0
C916 C 0.52079 0.39925 0.45728 0.0
C917 C 0.54044 0.41855 0.44527 0.0
C918 C 0.61977 0.34533 0.45542 0.0
C919 C 0.611 0.33739 0.44607 0.0
C920 C 0.63624 0.336 0.46 0.0
C921 C 0.61898 0.32031 0.44141 0.0
C922 C 0.64374 0.31893 0.45511 0.0
N923 N 0.63505 0.31152 0.44599 0.0
C924 C 0.62145 0.38955 0.43327 0.0
C925 C 0.58862 0.37848 0.43029 0.0
C926 C 0.62554 0.38837 0.42211 0.0
N927 N 0.60329 0.38447 0.4371 0.0
C928 C 0.59206 0.37707 0.4191 0.0
C929 C 0.61081 0.38179 0.41488 0.0
H930 H 0.63287 0.39407 0.43892 0.0
H931 H 0.57438 0.37433 0.43359 0.0
C932 C 0.55534 0.34092 0.47643 0.0
N933 N 0.57309 0.33901 0.47135 0.0
C934 C 0.54331 0.32441 0.47811 0.0
C935 C 0.5687 0.30404 0.47 0.0
C936 C 0.58017 0.32096 0.46843 0.0
C937 C 0.54973 0.3057 0.47461 0.0
H938 H 0.55028 0.35541 0.4789 0.0
H939 H 0.59452 0.31961 0.4647 0.0
O940 O 0.60858 0.40709 0.46089 0.0
O941 O 0.59277 0.38062 0.48038 0.0
O942 O 0.57147 0.37996 0.45741 0.0
O943 O 0.61229 0.36211 0.46009 0.0
H944 H 0.60734 0.41604 0.48202 0.0
H945 H 0.62656 0.43599 0.4504 0.0
H946 H 0.62111 0.44662 0.49012 0.0
H947 H 0.63999 0.46634 0.45909 0.0
H948 H 0.62266 0.32731 0.49593 0.0
H949 H 0.58494 0.38916 0.50088 0.0
H950 H 0.61295 0.34684 0.47971 0.0
H951 H 0.59517 0.36886 0.51679 0.0
H952 H 0.55233 0.4651 0.46876 0.0
H953 H 0.5338 0.42383 0.49373 0.0
H954 H 0.68816 0.37871 0.46736 0.0
H955 H 0.66678 0.39318 0.49963 0.0
H956 H 0.53534 0.37514 0.46542 0.0
H957 H 0.57108 0.41034 0.44381 0.0
H958 H 0.5066 0.39644 0.46104 0.0
H959 H 0.54161 0.43085 0.43967 0.0
H960 H 0.59803 0.34419 0.44254 0.0
H961 H 0.64308 0.34179 0.46731 0.0
H962 H 0.61234 0.31401 0.43417 0.0
H963 H 0.65647 0.31155 0.45859 0.0
H964 H 0.64026 0.39193 0.41924 0.0
H965 H 0.5802 0.37217 0.41382 0.0
H966 H 0.52881 0.32646 0.48169 0.0
H967 H 0.57451 0.28985 0.46745 0.0
Li968 Li 0.35062 0.83385 0.21956 0.0
Li969 Li 0.36809 0.86652 0.22044 0.0
Li970 Li 0.36632 0.84689 0.20281 0.0
Li971 Li 0.38536 0.83583 0.218 0.0
C972 C 0.32712 0.86866 0.21244 0.0
N973 N 0.29187 0.88891 0.21453 0.0
C974 C 0.32147 0.87627 0.22257 0.0
C975 C 0.31492 0.87138 0.20338 0.0
C976 C 0.30357 0.88647 0.22345 0.0
C977 C 0.29712 0.88163 0.2046 0.0
C978 C 0.38213 0.83926 0.23883 0.0
C979 C 0.411 0.84685 0.24959 0.0
N980 N 0.40958 0.82887 0.2545 0.0
C981 C 0.3809 0.8209 0.24401 0.0
C982 C 0.39727 0.85238 0.24165 0.0
C983 C 0.39495 0.8159 0.2519 0.0
C984 C 0.33495 0.79956 0.22827 0.0
N985 N 0.32955 0.81804 0.22508 0.0
C986 C 0.29602 0.81176 0.23018 0.0
C987 C 0.31048 0.82424 0.22583 0.0
C988 C 0.30126 0.7927 0.23374 0.0
C989 C 0.32102 0.78662 0.23266 0.0
H990 H 0.35016 0.79489 0.22737 0.0
H991 H 0.30639 0.83882 0.22311 0.0
C992 C 0.36883 0.9079 0.21899 0.0
N993 N 0.36776 0.89254 0.2261 0.0
C994 C 0.36864 0.92734 0.22283 0.0
C995 C 0.36624 0.91469 0.24123 0.0
C996 C 0.36632 0.89552 0.23703 0.0
C997 C 0.36745 0.9309 0.2341 0.0
H998 H 0.36989 0.905 0.21033 0.0
H999 H 0.36517 0.88299 0.24247 0.0
C1000 C 0.35578 0.80762 0.20262 0.0
N1001 N 0.33212 0.78334 0.19002 0.0
C1002 C 0.36226 0.78869 0.19974 0.0
C1003 C 0.33725 0.81418 0.19908 0.0
C1004 C 0.35009 0.77665 0.19336 0.0
C1005 C 0.32551 0.80169 0.19273 0.0
C1006 C 0.40778 0.86314 0.2064 0.0
C1007 C 0.41596 0.85035 0.19868 0.0
C1008 C 0.41918 0.87851 0.2107 0.0
C1009 C 0.43559 0.85305 0.19545 0.0
C1010 C 0.43874 0.88072 0.20726 0.0
N1011 N 0.44648 0.86804 0.19977 0.0
C1012 C 0.36076 0.86792 0.18325 0.0
C1013 C 0.37152 0.83484 0.18092 0.0
C1014 C 0.36205 0.87129 0.17202 0.0
N1015 N 0.36562 0.84997 0.18744 0.0
C1016 C 0.37276 0.83746 0.16967 0.0
C1017 C 0.36836 0.856 0.16506 0.0
H1018 H 0.35646 0.87978 0.18867 0.0
H1019 H 0.37577 0.82085 0.18446 0.0
C1020 C 0.40716 0.80148 0.22105 0.0
N1021 N 0.40899 0.82148 0.22139 0.0
C1022 C 0.42362 0.7894 0.22262 0.0
C1023 C 0.44352 0.81868 0.22528 0.0
C1024 C 0.42662 0.83021 0.2237 0.0
C1025 C 0.44218 0.79798 0.22458 0.0
H1026 H 0.39291 0.79491 0.21939 0.0
H1027 H 0.42766 0.84611 0.22424 0.0
O1028 O 0.34467 0.85885 0.21133 0.0
O1029 O 0.36882 0.84425 0.2309 0.0
O1030 O 0.36762 0.81946 0.20891 0.0
O1031 O 0.38865 0.86078 0.20971 0.0
H1032 H 0.33068 0.87412 0.22968 0.0
H1033 H 0.31914 0.8656 0.19548 0.0
H1034 H 0.29897 0.89241 0.23124 0.0
H1035 H 0.28749 0.88382 0.19766 0.0
H1036 H 0.42287 0.8568 0.2518 0.0
H1037 H 0.3693 0.81057 0.24193 0.0
H1038 H 0.39862 0.86653 0.23759 0.0
H1039 H 0.39423 0.8017 0.25594 0.0
H1040 H 0.28099 0.8171 0.23091 0.0
H1041 H 0.32564 0.77193 0.23509 0.0
H1042 H 0.36974 0.93942 0.21707 0.0
H1043 H 0.365 0.91681 0.24996 0.0
H1044 H 0.37657 0.78337 0.20237 0.0
H1045 H 0.3319 0.82871 0.2012 0.0
H1046 H 0.35494 0.76199 0.19107 0.0
H1047 H 0.31114 0.80658 0.18995 0.0
H1048 H 0.4073 0.83836 0.1953 0.0
H1049 H 0.41299 0.88853 0.21668 0.0
H1050 H 0.44217 0.84321 0.18952 0.0
H1051 H 0.44779 0.89249 0.21054 0.0
H1052 H 0.35879 0.88591 0.1689 0.0
H1053 H 0.37737 0.82511 0.16466 0.0
H1054 H 0.42191 0.77353 0.22194 0.0
H1055 H 0.45749 0.82589 0.22697 0.0
Li1056 Li 0.89978 0.3826 0.54661 0.0
Li1057 Li 0.91204 0.36211 0.53135 0.0
Li1058 Li 0.91308 0.39935 0.53014 0.0
Li1059 Li 0.88222 0.38112 0.52877 0.0
C1060 C 0.94357 0.38414 0.54637 0.0
N1061 N 0.97794 0.38977 0.55819 0.0
C1062 C 0.95467 0.36789 0.54988 0.0
C1063 C 0.95014 0.40326 0.54876 0.0
C1064 C 0.97194 0.37104 0.55588 0.0
C1065 C 0.9675 0.4058 0.55477 0.0
C1066 C 0.88405 0.34004 0.54153 0.0
C1067 C 0.87865 0.30672 0.53517 0.0
N1068 N 0.87941 0.30013 0.54564 0.0
C1069 C 0.88467 0.33296 0.55223 0.0
C1070 C 0.88091 0.32684 0.53293 0.0
C1071 C 0.88232 0.31272 0.55414 0.0
C1072 C 0.87925 0.38995 0.5662 0.0
N1073 N 0.8966 0.38316 0.56203 0.0
C1074 C 0.908 0.37443 0.57982 0.0
C1075 C 0.91091 0.37557 0.56858 0.0
C1076 C 0.89007 0.38094 0.58438 0.0
C1077 C 0.87567 0.38902 0.57741 0.0
H1078 H 0.86801 0.39565 0.56076 0.0
H1079 H 0.92438 0.36989 0.56507 0.0
C1080 C 0.93533 0.33742 0.51797 0.0
N1081 N 0.92674 0.33888 0.52797 0.0
C1082 C 0.94738 0.32125 0.51547 0.0
C1083 C 0.94103 0.30816 0.53348 0.0
C1084 C 0.92949 0.32475 0.53571 0.0
C1085 C 0.95029 0.3064 0.5233 0.0
H1086 H 0.93314 0.34902 0.51202 0.0
H1087 H 0.92314 0.32658 0.54373 0.0
C1088 C 0.8871 0.42313 0.54268 0.0
N1089 N 0.88569 0.46019 0.55215 0.0
C1090 C 0.87299 0.43692 0.53928 0.0
C1091 C 0.90031 0.42811 0.551 0.0
C1092 C 0.87257 0.45561 0.54413 0.0
C1093 C 0.89941 0.44693 0.55566 0.0
C1094 C 0.89652 0.38046 0.50895 0.0
C1095 C 0.89436 0.39861 0.50364 0.0
C1096 C 0.88905 0.36328 0.50415 0.0
C1097 C 0.8845 0.3993 0.49364 0.0
C1098 C 0.87926 0.36459 0.49415 0.0
N1099 N 0.87719 0.38242 0.48915 0.0
C1100 C 0.94733 0.41531 0.52141 0.0
C1101 C 0.92202 0.43922 0.52355 0.0
C1102 C 0.96001 0.42946 0.51698 0.0
N1103 N 0.9288 0.4204 0.52463 0.0
C1104 C 0.93423 0.45389 0.51919 0.0
C1105 C 0.95353 0.4491 0.51582 0.0
H1106 H 0.9522 0.40014 0.52222 0.0
H1107 H 0.90711 0.44285 0.52596 0.0
C1108 C 0.84495 0.36542 0.52264 0.0
N1109 N 0.85677 0.38164 0.52216 0.0
C1110 C 0.82603 0.36587 0.51809 0.0
C1111 C 0.83174 0.39978 0.5127 0.0
C1112 C 0.85059 0.39863 0.51731 0.0
C1113 C 0.81916 0.38326 0.5131 0.0
H1114 H 0.85006 0.35221 0.52668 0.0
H1115 H 0.86032 0.41131 0.51705 0.0
O1116 O 0.92673 0.38128 0.54037 0.0
O1117 O 0.88643 0.35979 0.53951 0.0
O1118 O 0.8877 0.4048 0.53796 0.0
O1119 O 0.90575 0.37955 0.51885 0.0
H1120 H 0.94993 0.353 0.54806 0.0
H1121 H 0.94209 0.41606 0.54592 0.0
H1122 H 0.98058 0.35859 0.5587 0.0
H1123 H 0.97271 0.42052 0.55669 0.0
H1124 H 0.87634 0.29633 0.52859 0.0
H1125 H 0.88698 0.34295 0.559 0.0
H1126 H 0.88045 0.33206 0.5246 0.0
H1127 H 0.88284 0.30703 0.56238 0.0
H1128 H 0.91964 0.36833 0.58487 0.0
H1129 H 0.86153 0.39396 0.58052 0.0
H1130 H 0.95442 0.32037 0.50755 0.0
H1131 H 0.94327 0.29716 0.53978 0.0
H1132 H 0.86253 0.43328 0.53292 0.0
H1133 H 0.91101 0.41751 0.5539 0.0
H1134 H 0.86181 0.46646 0.54153 0.0
H1135 H 0.90958 0.45097 0.5621 0.0
H1136 H 0.90005 0.41205 0.50727 0.0
H1137 H 0.89072 0.3491 0.50814 0.0
H1138 H 0.8826 0.41326 0.48946 0.0
H1139 H 0.8733 0.35143 0.49036 0.0
H1140 H 0.97459 0.42496 0.51431 0.0
H1141 H 0.92863 0.46884 0.51853 0.0
H1142 H 0.81671 0.3529 0.51871 0.0
H1143 H 0.8271 0.4134 0.50884 0.0
Li1144 Li 0.38693 0.16237 0.28326 0.0
Li1145 Li 0.36546 0.14912 0.29756 0.0
Li1146 Li 0.36679 0.1326 0.27937 0.0
Li1147 Li 0.34972 0.16411 0.28202 0.0
C1148 C 0.40554 0.1258 0.28938 0.0
N1149 N 0.44041 0.10479 0.28741 0.0
C1150 C 0.41641 0.12074 0.29867 0.0
C1151 C 0.41228 0.11992 0.27911 0.0
C1152 C 0.43405 0.1102 0.2975 0.0
C1153 C 0.42996 0.10936 0.27828 0.0
C1154 C 0.36818 0.1872 0.30215 0.0
C1155 C 0.35159 0.19981 0.31811 0.0
N1156 N 0.36913 0.20687 0.32189 0.0
C1157 C 0.38602 0.19473 0.30614 0.0
C1158 C 0.35079 0.1899 0.30812 0.0
C1159 C 0.3862 0.20459 0.31615 0.0
C1160 C 0.41065 0.1916 0.27352 0.0
N1161 N 0.41075 0.17646 0.2808 0.0
C1162 C 0.44376 0.18425 0.28619 0.0
C1163 C 0.42688 0.17252 0.28704 0.0
C1164 C 0.44398 0.20034 0.27893 0.0
C1165 C 0.42724 0.20375 0.2724 0.0
H1166 H 0.39745 0.1946 0.26882 0.0
H1167 H 0.42641 0.16076 0.29298 0.0
C1168 C 0.34897 0.13773 0.31817 0.0
N1169 N 0.36506 0.145 0.31286 0.0
C1170 C 0.34951 0.13498 0.32947 0.0
C1171 C 0.38309 0.14728 0.32955 0.0
C1172 C 0.38195 0.14963 0.31828 0.0
C1173 C 0.36672 0.1399 0.3353 0.0
H1174 H 0.33577 0.13406 0.31363 0.0
H1175 H 0.39457 0.15519 0.31382 0.0
C1176 C 0.37415 0.15588 0.25976 0.0
N1177 N 0.38377 0.15372 0.23788 0.0
C1178 C 0.35941 0.15756 0.25182 0.0
C1179 C 0.39384 0.15347 0.25655 0.0
C1180 C 0.36455 0.15632 0.24081 0.0
C1181 C 0.39839 0.15231 0.24546 0.0
C1182 C 0.32351 0.13623 0.2875 0.0
C1183 C 0.31589 0.12361 0.27951 0.0
C1184 C 0.3106 0.14706 0.2941 0.0
C1185 C 0.29542 0.12226 0.27815 0.0
C1186 C 0.29023 0.14533 0.29247 0.0
N1187 N 0.28313 0.13308 0.28459 0.0
C1188 C 0.3696 0.09165 0.27909 0.0
C1189 C 0.36317 0.10501 0.26159 0.0
C1190 C 0.36972 0.07251 0.27486 0.0
N1191 N 0.36648 0.10741 0.27244 0.0
C1192 C 0.36321 0.08611 0.25699 0.0
C1193 C 0.36656 0.06952 0.26365 0.0
H1194 H 0.37198 0.09401 0.28772 0.0
H1195 H 0.36044 0.11767 0.25647 0.0
C1196 C 0.32765 0.19936 0.2804 0.0
N1197 N 0.32858 0.18029 0.27694 0.0
C1198 C 0.31327 0.21213 0.27624 0.0
C1199 C 0.30095 0.18531 0.26512 0.0
C1200 C 0.31557 0.1731 0.26949 0.0
C1201 C 0.29981 0.2052 0.26839 0.0
H1202 H 0.33838 0.20482 0.28619 0.0
H1203 H 0.31676 0.15796 0.26676 0.0
O1204 O 0.38821 0.13611 0.29042 0.0
O1205 O 0.36777 0.17716 0.29247 0.0
O1206 O 0.36936 0.15726 0.27059 0.0
O1207 O 0.3435 0.13782 0.28892 0.0
H1208 H 0.41132 0.12495 0.3067 0.0
H1209 H 0.40382 0.1232 0.27188 0.0
H1210 H 0.44266 0.10629 0.30461 0.0
H1211 H 0.43533 0.10473 0.27037 0.0
H1212 H 0.33827 0.20187 0.32285 0.0
H1213 H 0.3996 0.19285 0.30161 0.0
H1214 H 0.33686 0.18427 0.30511 0.0
H1215 H 0.39991 0.21038 0.31938 0.0
H1216 H 0.45639 0.18096 0.29131 0.0
H1217 H 0.42664 0.21614 0.26682 0.0
H1218 H 0.33655 0.12933 0.33362 0.0
H1219 H 0.39675 0.15095 0.33369 0.0
H1220 H 0.34414 0.15963 0.25412 0.0
H1221 H 0.40555 0.15269 0.26252 0.0
H1222 H 0.35326 0.15745 0.23459 0.0
H1223 H 0.41356 0.15038 0.24287 0.0
H1224 H 0.32567 0.11506 0.27437 0.0
H1225 H 0.31626 0.15678 0.30036 0.0
H1226 H 0.28931 0.11265 0.27196 0.0
H1227 H 0.28007 0.15373 0.29746 0.0
H1228 H 0.372 0.06018 0.28035 0.0
H1229 H 0.36087 0.08456 0.2483 0.0
H1230 H 0.31314 0.2274 0.27888 0.0
H1231 H 0.29074 0.17926 0.25919 0.0
Li1232 Li 0.58521 0.63632 0.03264 0.0
Li1233 Li 0.59861 0.61495 0.0479 0.0
Li1234 Li 0.616 0.61709 0.02954 0.0
Li1235 Li 0.58468 0.60159 0.03159 0.0
C1236 C 0.61756 0.65423 0.04604 0.0
N1237 N 0.63104 0.68651 0.05767 0.0
C1238 C 0.60777 0.66023 0.05552 0.0
C1239 C 0.6342 0.66465 0.04247 0.0
C1240 C 0.61483 0.67658 0.06129 0.0
C1241 C 0.64077 0.68094 0.04846 0.0
C1242 C 0.55391 0.60805 0.04395 0.0
C1243 C 0.53496 0.58208 0.05248 0.0
N1244 N 0.51935 0.58652 0.04593 0.0
C1245 C 0.53764 0.61241 0.03734 0.0
C1246 C 0.55256 0.59278 0.0516 0.0
C1247 C 0.52033 0.60133 0.03844 0.0
C1248 C 0.55674 0.6581 0.02144 0.0
N1249 N 0.57111 0.65994 0.02913 0.0
C1250 C 0.56272 0.69389 0.03189 0.0
C1251 C 0.57451 0.67748 0.0342 0.0
C1252 C 0.54725 0.6922 0.0243 0.0
C1253 C 0.54451 0.67409 0.01892 0.0
H1254 H 0.55455 0.64405 0.0174 0.0
H1255 H 0.58608 0.67874 0.0402 0.0
C1256 C 0.62292 0.61273 0.06635 0.0
N1257 N 0.60374 0.6139 0.0631 0.0
C1258 C 0.62771 0.61364 0.07742 0.0
C1259 C 0.59286 0.61647 0.08158 0.0
C1260 C 0.58877 0.61579 0.07042 0.0
C1261 C 0.61256 0.61559 0.08518 0.0
H1262 H 0.63451 0.61154 0.0603 0.0
H1263 H 0.57371 0.61734 0.0676 0.0
C1264 C 0.59786 0.63233 0.01138 0.0
N1265 N 0.60859 0.65717 0.99448 0.0
C1266 C 0.59322 0.62739 0.00061 0.0
C1267 C 0.60798 0.64994 0.01354 0.0
C1268 C 0.59877 0.64013 0.99219 0.0
C1269 C 0.61326 0.66229 0.00489 0.0
C1270 C 0.61249 0.57432 0.03635 0.0
C1271 C 0.6159 0.56846 0.02559 0.0
C1272 C 0.61161 0.56015 0.04462 0.0
C1273 C 0.61814 0.54837 0.02325 0.0
C1274 C 0.61395 0.5402 0.04195 0.0
N1275 N 0.61712 0.53477 0.03141 0.0
C1276 C 0.65709 0.62026 0.03024 0.0
C1277 C 0.64471 0.61332 0.01257 0.0
C1278 C 0.67646 0.62035 0.02632 0.0
N1279 N 0.64172 0.61695 0.02334 0.0
C1280 C 0.66384 0.61338 0.00828 0.0
C1281 C 0.68007 0.61697 0.01518 0.0
H1282 H 0.65425 0.62278 0.03881 0.0
H1283 H 0.63227 0.61034 0.00729 0.0
C1284 C 0.56053 0.5837 0.01602 0.0
N1285 N 0.56865 0.58047 0.02599 0.0
C1286 C 0.54814 0.56961 0.0113 0.0
C1287 C 0.5523 0.5492 0.02731 0.0
C1288 C 0.56482 0.56361 0.03167 0.0
C1289 C 0.54385 0.55212 0.01697 0.0
H1290 H 0.56344 0.59738 0.01177 0.0
H1291 H 0.57119 0.56146 0.03966 0.0
O1292 O 0.61115 0.63803 0.04037 0.0
O1293 O 0.5711 0.61854 0.04287 0.0
O1294 O 0.59252 0.61984 0.01968 0.0
O1295 O 0.61005 0.59387 0.03879 0.0
H1296 H 0.59469 0.65253 0.0583 0.0
H1297 H 0.64192 0.66023 0.03514 0.0
H1298 H 0.60737 0.68142 0.06862 0.0
H1299 H 0.65362 0.68915 0.04579 0.0
H1300 H 0.53376 0.57014 0.05831 0.0
H1301 H 0.53841 0.62414 0.03137 0.0
H1302 H 0.56511 0.58893 0.05664 0.0
H1303 H 0.50767 0.60448 0.03334 0.0
H1304 H 0.56525 0.70755 0.03629 0.0
H1305 H 0.53294 0.67224 0.0129 0.0
H1306 H 0.64307 0.6129 0.07988 0.0
H1307 H 0.58081 0.61833 0.0873 0.0
H1308 H 0.58549 0.61378 0.99877 0.0
H1309 H 0.61174 0.65413 0.02176 0.0
H1310 H 0.59528 0.63645 0.98382 0.0
H1311 H 0.62108 0.67596 0.00645 0.0
H1312 H 0.61657 0.5793 0.0191 0.0
H1313 H 0.609 0.56452 0.05299 0.0
H1314 H 0.62065 0.54358 0.01495 0.0
H1315 H 0.61321 0.52903 0.04825 0.0
H1316 H 0.68848 0.62277 0.032 0.0
H1317 H 0.66584 0.61087 0.99963 0.0
H1318 H 0.54168 0.57255 0.00338 0.0
H1319 H 0.54939 0.53585 0.03192 0.0
Li1320 Li 0.13563 0.85041 0.79716 0.0
Li1321 Li 0.11373 0.83654 0.78239 0.0
Li1322 Li 0.1493 0.83634 0.78047 0.0
Li1323 Li 0.13179 0.86667 0.7785 0.0
C1324 C 0.14135 0.80473 0.79216 0.0
N1325 N 0.15923 0.76802 0.7918 0.0
C1326 C 0.13426 0.78997 0.78521 0.0
C1327 C 0.15746 0.80082 0.79896 0.0
C1328 C 0.14352 0.7715 0.78514 0.0
C1329 C 0.16631 0.78216 0.79865 0.0
C1330 C 0.09221 0.86435 0.79275 0.0
C1331 C 0.05866 0.87241 0.78779 0.0
N1332 N 0.05265 0.86776 0.79806 0.0
C1333 C 0.08574 0.85979 0.80328 0.0
C1334 C 0.0786 0.87084 0.78496 0.0
C1335 C 0.06566 0.86155 0.8058 0.0
C1336 C 0.13821 0.87323 0.81642 0.0
N1337 N 0.13729 0.85452 0.8124 0.0
C1338 C 0.13459 0.84119 0.83037 0.0
C1339 C 0.13567 0.83861 0.8191 0.0
C1340 C 0.13489 0.86037 0.83479 0.0
C1341 C 0.13705 0.87652 0.82766 0.0
H1342 H 0.13917 0.88561 0.81086 0.0
H1343 H 0.13462 0.82393 0.81566 0.0
C1344 C 0.08385 0.81602 0.77047 0.0
N1345 N 0.09027 0.82152 0.78053 0.0
C1346 C 0.06753 0.8035 0.7694 0.0
C1347 C 0.0648 0.80258 0.78904 0.0
C1348 C 0.08118 0.81503 0.78973 0.0
C1349 C 0.0579 0.79644 0.77878 0.0
H1350 H 0.09176 0.82083 0.76329 0.0
H1351 H 0.08696 0.81917 0.79762 0.0
C1352 C 0.17592 0.8644 0.78672 0.0
N1353 N 0.21641 0.86893 0.78525 0.0
C1354 C 0.1849 0.86676 0.77654 0.0
C1355 C 0.18748 0.86444 0.79616 0.0
C1356 C 0.20541 0.86898 0.77597 0.0
C1357 C 0.20795 0.86674 0.79525 0.0
C1358 C 0.12654 0.84999 0.75903 0.0
C1359 C 0.14207 0.85004 0.7515 0.0
C1360 C 0.10812 0.8576 0.75602 0.0
C1361 C 0.13891 0.85782 0.74109 0.0
C1362 C 0.10556 0.86527 0.74554 0.0
N1363 N 0.12088 0.86523 0.73836 0.0
C1364 C 0.16593 0.80942 0.76587 0.0
C1365 C 0.18795 0.81787 0.78014 0.0
C1366 C 0.17979 0.79647 0.76141 0.0
N1367 N 0.17028 0.82001 0.77498 0.0
C1368 C 0.20232 0.80514 0.77594 0.0
C1369 C 0.19834 0.79425 0.76642 0.0
H1370 H 0.15149 0.81077 0.76216 0.0
H1371 H 0.19083 0.82576 0.78762 0.0
C1372 C 0.11842 0.90579 0.7763 0.0
N1373 N 0.13069 0.89212 0.77179 0.0
C1374 C 0.11754 0.92494 0.77206 0.0
C1375 C 0.14188 0.9156 0.75858 0.0
C1376 C 0.14245 0.89671 0.76316 0.0
C1377 C 0.12939 0.93002 0.76309 0.0
H1378 H 0.10951 0.90193 0.78329 0.0
H1379 H 0.15251 0.88585 0.7599 0.0
O1380 O 0.13286 0.82307 0.79209 0.0
O1381 O 0.11179 0.86265 0.79013 0.0
O1382 O 0.15588 0.86225 0.78748 0.0
O1383 O 0.12932 0.84239 0.76926 0.0
H1384 H 0.12188 0.79282 0.77983 0.0
H1385 H 0.16328 0.81218 0.80429 0.0
H1386 H 0.13826 0.75996 0.77976 0.0
H1387 H 0.17888 0.77896 0.80381 0.0
H1388 H 0.04796 0.87737 0.78183 0.0
H1389 H 0.09607 0.85479 0.80943 0.0
H1390 H 0.0834 0.87472 0.77683 0.0
H1391 H 0.06042 0.85798 0.81389 0.0
H1392 H 0.13322 0.82829 0.83554 0.0
H1393 H 0.13709 0.89156 0.83067 0.0
H1394 H 0.06294 0.79886 0.76133 0.0
H1395 H 0.05774 0.79766 0.79649 0.0
H1396 H 0.17617 0.86652 0.76916 0.0
H1397 H 0.18071 0.86266 0.8041 0.0
H1398 H 0.21259 0.87068 0.76814 0.0
H1399 H 0.21711 0.86676 0.80248 0.0
H1400 H 0.15649 0.8444 0.75371 0.0
H1401 H 0.09593 0.85757 0.76171 0.0
H1402 H 0.15082 0.85804 0.73521 0.0
H1403 H 0.09139 0.87125 0.74312 0.0
H1404 H 0.17584 0.788 0.75424 0.0
H1405 H 0.2164 0.80391 0.78008 0.0
H1406 H 0.10768 0.93563 0.77575 0.0
H1407 H 0.1515 0.91903 0.75178 0.0
Li1408 Li 0.61587 0.88093 0.52909 0.0
Li1409 Li 0.59806 0.88281 0.54661 0.0
Li1410 Li 0.58515 0.86246 0.53157 0.0
Li1411 Li 0.58329 0.89832 0.53094 0.0
C1412 C 0.61096 0.83995 0.54262 0.0
N1413 N 0.61036 0.80044 0.54846 0.0
C1414 C 0.60539 0.83435 0.55316 0.0
C1415 C 0.61639 0.8254 0.53508 0.0
C1416 C 0.60516 0.81433 0.55594 0.0
C1417 C 0.61593 0.80553 0.53818 0.0
C1418 C 0.61843 0.91628 0.54534 0.0
C1419 C 0.61748 0.93927 0.56036 0.0
N1420 N 0.63751 0.9382 0.56117 0.0
C1421 C 0.63902 0.91548 0.54628 0.0
C1422 C 0.60756 0.92835 0.55238 0.0
C1423 C 0.64838 0.92665 0.55435 0.0
C1424 C 0.64692 0.89704 0.51648 0.0
N1425 N 0.64124 0.88128 0.52258 0.0
C1426 C 0.67285 0.8661 0.52038 0.0
C1427 C 0.6537 0.86596 0.52459 0.0
C1428 C 0.67937 0.88232 0.51416 0.0
C1429 C 0.66604 0.8979 0.51218 0.0
H1430 H 0.6367 0.9091 0.51513 0.0
H1431 H 0.64881 0.8537 0.52955 0.0
C1432 C 0.58582 0.88346 0.56867 0.0
N1433 N 0.60183 0.8838 0.56197 0.0
C1434 C 0.58833 0.88188 0.57993 0.0
C1435 C 0.62374 0.88155 0.5772 0.0
C1436 C 0.62054 0.88288 0.56598 0.0
C1437 C 0.60748 0.8807 0.58431 0.0
H1438 H 0.5711 0.88374 0.56524 0.0
H1439 H 0.63297 0.88253 0.56044 0.0
C1440 C 0.59512 0.87354 0.50893 0.0
N1441 N 0.60083 0.86054 0.48779 0.0
C1442 C 0.58453 0.88208 0.50035 0.0
C1443 C 0.60873 0.85851 0.50674 0.0
C1444 C 0.58758 0.87527 0.48972 0.0
C1445 C 0.61139 0.85212 0.49601 0.0
C1446 C 0.55192 0.88753 0.5423 0.0
C1447 C 0.53635 0.87821 0.53684 0.0
C1448 C 0.54829 0.90471 0.54831 0.0
C1449 C 0.5174 0.88636 0.53741 0.0
C1450 C 0.52913 0.91241 0.54867 0.0
N1451 N 0.51421 0.90316 0.54325 0.0
C1452 C 0.5635 0.82924 0.53736 0.0
C1453 C 0.56661 0.83254 0.5182 0.0
C1454 C 0.55216 0.81219 0.53612 0.0
N1455 N 0.57068 0.83889 0.52849 0.0
C1456 C 0.55507 0.81565 0.51657 0.0
C1457 C 0.54776 0.80524 0.52562 0.0
H1458 H 0.56631 0.83502 0.54543 0.0
H1459 H 0.57198 0.84066 0.51124 0.0
C1460 C 0.57156 0.93854 0.52754 0.0
N1461 N 0.56743 0.91925 0.52544 0.0
C1462 C 0.5597 0.95348 0.52313 0.0
C1463 C 0.53957 0.92834 0.51458 0.0
C1464 C 0.55187 0.91396 0.51908 0.0
C1465 C 0.54347 0.94845 0.5165 0.0
H1466 H 0.58418 0.94233 0.53254 0.0
H1467 H 0.54904 0.89849 0.51748 0.0
O1468 O 0.61107 0.85951 0.53968 0.0
O1469 O 0.60898 0.90531 0.53756 0.0
O1470 O 0.59233 0.8801 0.51937 0.0
O1471 O 0.57064 0.87994 0.54172 0.0
H1472 H 0.60102 0.84527 0.55911 0.0
H1473 H 0.62083 0.82933 0.52691 0.0
H1474 H 0.60076 0.80982 0.56405 0.0
H1475 H 0.61999 0.79414 0.5324 0.0
H1476 H 0.60925 0.94859 0.56591 0.0
H1477 H 0.64766 0.9062 0.54089 0.0
H1478 H 0.59164 0.92916 0.55175 0.0
H1479 H 0.6643 0.92611 0.5552 0.0
H1480 H 0.68242 0.8536 0.52198 0.0
H1481 H 0.67045 0.91083 0.50758 0.0
H1482 H 0.57542 0.88131 0.58515 0.0
H1483 H 0.63873 0.88035 0.58025 0.0
H1484 H 0.57406 0.89385 0.50187 0.0
H1485 H 0.61715 0.85188 0.51325 0.0
H1486 H 0.57943 0.8817 0.48301 0.0
H1487 H 0.62186 0.84047 0.49422 0.0
H1488 H 0.5389 0.86495 0.53212 0.0
H1489 H 0.56016 0.91209 0.55259 0.0
H1490 H 0.50523 0.87937 0.53318 0.0
H1491 H 0.52613 0.92575 0.55324 0.0
H1492 H 0.54645 0.80481 0.54331 0.0
H1493 H 0.55193 0.81075 0.50834 0.0
H1494 H 0.56345 0.96877 0.52472 0.0
H1495 H 0.52707 0.92369 0.50969 0.0
Li1496 Li 0.3685 0.36682 0.78072 0.0
Li1497 Li 0.36497 0.34848 0.79777 0.0
Li1498 Li 0.38656 0.3351 0.78276 0.0
Li1499 Li 0.35059 0.33423 0.78158 0.0
C1500 C 0.40604 0.37143 0.79165 0.0
N1501 N 0.4397 0.39462 0.79226 0.0
C1502 C 0.40959 0.38387 0.80054 0.0
C1503 C 0.41984 0.37051 0.78318 0.0
C1504 C 0.42662 0.39557 0.80067 0.0
C1505 C 0.4367 0.38241 0.78361 0.0
C1506 C 0.33135 0.36867 0.79593 0.0
C1507 C 0.30671 0.36645 0.81009 0.0
N1508 N 0.3073 0.38644 0.81129 0.0
C1509 C 0.33156 0.38921 0.79721 0.0
C1510 C 0.31868 0.35721 0.80234 0.0
C1511 C 0.31935 0.39791 0.80505 0.0
C1512 C 0.36062 0.39582 0.76466 0.0
N1513 N 0.36877 0.39272 0.77464 0.0
C1514 C 0.37633 0.42707 0.77642 0.0
C1515 C 0.37639 0.40788 0.78058 0.0
C1516 C 0.36811 0.43078 0.7661 0.0
C1517 C 0.36019 0.41482 0.76019 0.0
H1518 H 0.35431 0.38353 0.76021 0.0
H1519 H 0.38221 0.40516 0.78863 0.0
C1520 C 0.36351 0.33619 0.81988 0.0
N1521 N 0.36331 0.35211 0.81312 0.0
C1522 C 0.36412 0.33886 0.83117 0.0
C1523 C 0.36392 0.37423 0.82831 0.0
C1524 C 0.36338 0.37087 0.81709 0.0
C1525 C 0.3646 0.3581 0.83551 0.0
H1526 H 0.3637 0.32143 0.81651 0.0
H1527 H 0.36363 0.38325 0.81152 0.0
C1528 C 0.37843 0.344 0.76037 0.0
N1529 N 0.39588 0.34425 0.73998 0.0
C1530 C 0.37326 0.32975 0.75262 0.0
C1531 C 0.39218 0.35862 0.75765 0.0
C1532 C 0.38234 0.33005 0.74238 0.0
C1533 C 0.40091 0.35844 0.74733 0.0
C1534 C 0.36011 0.30237 0.79345 0.0
C1535 C 0.36969 0.28628 0.78863 0.0
C1536 C 0.3425 0.29935 0.79917 0.0
C1537 C 0.36128 0.26747 0.78944 0.0
C1538 C 0.33454 0.28032 0.7998 0.0
N1539 N 0.34401 0.26491 0.79495 0.0
C1540 C 0.42476 0.32128 0.7873 0.0
C1541 C 0.41119 0.30854 0.77093 0.0
C1542 C 0.44166 0.30967 0.78602 0.0
N1543 N 0.41 0.32054 0.7798 0.0
C1544 C 0.42778 0.29658 0.76935 0.0
C1545 C 0.44323 0.29695 0.777 0.0
H1546 H 0.4232 0.33058 0.79442 0.0
H1547 H 0.399 0.30772 0.76527 0.0
C1548 C 0.31048 0.32431 0.77671 0.0
N1549 N 0.32972 0.31883 0.77562 0.0
C1550 C 0.29549 0.31284 0.77205 0.0
C1551 C 0.32044 0.29035 0.76531 0.0
C1552 C 0.33489 0.30226 0.77005 0.0
C1553 C 0.30042 0.29563 0.7662 0.0
H1554 H 0.3068 0.33769 0.78109 0.0
H1555 H 0.35031 0.29829 0.76929 0.0
O1556 O 0.38944 0.35981 0.79144 0.0
O1557 O 0.3434 0.35987 0.78839 0.0
O1558 O 0.36955 0.34398 0.77042 0.0
O1559 O 0.36798 0.32095 0.7926 0.0
H1560 H 0.39928 0.38459 0.80726 0.0
H1561 H 0.41778 0.36048 0.77643 0.0
H1562 H 0.42946 0.40537 0.80746 0.0
H1563 H 0.44746 0.38185 0.77709 0.0
H1564 H 0.29693 0.35774 0.81516 0.0
H1565 H 0.34114 0.39833 0.79227 0.0
H1566 H 0.31813 0.34135 0.80135 0.0
H1567 H 0.31946 0.41377 0.80618 0.0
H1568 H 0.38274 0.43885 0.78125 0.0
H1569 H 0.35339 0.41702 0.75229 0.0
H1570 H 0.36447 0.32601 0.83644 0.0
H1571 H 0.3646 0.38929 0.83127 0.0
H1572 H 0.36242 0.31852 0.75448 0.0
H1573 H 0.39589 0.37018 0.76336 0.0
H1574 H 0.37857 0.319 0.73635 0.0
H1575 H 0.41161 0.36965 0.74514 0.0
H1576 H 0.3834 0.28829 0.78424 0.0
H1577 H 0.33502 0.31157 0.80306 0.0
H1578 H 0.36848 0.25491 0.78569 0.0
H1579 H 0.32085 0.27781 0.80414 0.0
H1580 H 0.45304 0.31014 0.79222 0.0
H1581 H 0.42841 0.28702 0.76227 0.0
H1582 H 0.28027 0.31761 0.77284 0.0
H1583 H 0.32494 0.27708 0.76104 0.0
Li1584 Li 0.88346 0.11844 0.02861 0.0
Li1585 Li 0.90039 0.11467 0.04619 0.0
Li1586 Li 0.91517 0.13609 0.03131 0.0
Li1587 Li 0.91544 0.1002 0.03002 0.0
C1588 C 0.87667 0.15401 0.04116 0.0
N1589 N 0.84989 0.18417 0.04487 0.0
C1590 C 0.86267 0.15233 0.04949 0.0
C1591 C 0.87733 0.17126 0.03488 0.0
C1592 C 0.84917 0.16766 0.05119 0.0
C1593 C 0.8636 0.18628 0.03683 0.0
C1594 C 0.88128 0.07945 0.04317 0.0
C1595 C 0.88459 0.0545 0.05711 0.0
N1596 N 0.86471 0.05146 0.05682 0.0
C1597 C 0.8609 0.07599 0.04296 0.0
C1598 C 0.89324 0.06854 0.05025 0.0
C1599 C 0.8528 0.06181 0.04993 0.0
C1600 C 0.85527 0.11578 0.01136 0.0
N1601 N 0.8578 0.11918 0.0222 0.0
C1602 C 0.82296 0.12301 0.02467 0.0
C1603 C 0.8421 0.12245 0.02888 0.0
C1604 C 0.81988 0.11995 0.01347 0.0
C1605 C 0.83634 0.1162 0.00679 0.0
H1606 H 0.86791 0.11265 0.00626 0.0
H1607 H 0.8444 0.12416 0.03753 0.0
C1608 C 0.91105 0.12125 0.06792 0.0
N1609 N 0.89644 0.1137 0.06155 0.0
C1610 C 0.90841 0.12293 0.07917 0.0
C1611 C 0.87591 0.10855 0.07716 0.0
C1612 C 0.87908 0.10741 0.06594 0.0
C1613 C 0.89056 0.1167 0.08396 0.0
H1614 H 0.92454 0.12655 0.06419 0.0
H1615 H 0.86742 0.10204 0.0607 0.0
C1616 C 0.90643 0.13054 0.00927 0.0
N1617 N 0.90547 0.15291 0.99041 0.0
C1618 C 0.91871 0.12573 0.00049 0.0
C1619 C 0.89353 0.14659 0.0084 0.0
C1620 C 0.91806 0.13726 0.99104 0.0
C1621 C 0.89328 0.15775 0.99882 0.0
C1622 C 0.94643 0.10877 0.04278 0.0
C1623 C 0.96246 0.11512 0.0365 0.0
C1624 C 0.94915 0.09394 0.05057 0.0
C1625 C 0.98091 0.10622 0.03797 0.0
C1626 C 0.96784 0.08541 0.0518 0.0
N1627 N 0.98319 0.09165 0.04551 0.0
C1628 C 0.9296 0.17324 0.03691 0.0
C1629 C 0.94291 0.16084 0.02039 0.0
C1630 C 0.9421 0.18961 0.03646 0.0
N1631 N 0.93032 0.15924 0.02898 0.0
C1632 C 0.95573 0.17698 0.01962 0.0
C1633 C 0.95566 0.19146 0.02784 0.0
H1634 H 0.91967 0.17138 0.04375 0.0
H1635 H 0.94363 0.14919 0.01437 0.0
C1636 C 0.92758 0.05998 0.02674 0.0
N1637 N 0.93106 0.07927 0.02429 0.0
C1638 C 0.93948 0.04515 0.02227 0.0
C1639 C 0.95808 0.07034 0.01276 0.0
C1640 C 0.94591 0.08464 0.01745 0.0
C1641 C 0.95493 0.05028 0.01514 0.0
H1642 H 0.91551 0.05607 0.03208 0.0
H1643 H 0.94836 0.1001 0.01567 0.0
O1644 O 0.89015 0.1392 0.03946 0.0
O1645 O 0.88942 0.09342 0.03647 0.0
O1646 O 0.90709 0.11956 0.01864 0.0
O1647 O 0.92819 0.11713 0.04137 0.0
H1648 H 0.86207 0.13923 0.05452 0.0
H1649 H 0.88844 0.17318 0.02863 0.0
H1650 H 0.83813 0.16644 0.05754 0.0
H1651 H 0.8639 0.19966 0.032 0.0
H1652 H 0.89367 0.04602 0.06266 0.0
H1653 H 0.85143 0.08417 0.03747 0.0
H1654 H 0.90903 0.07096 0.05048 0.0
H1655 H 0.83705 0.05903 0.04988 0.0
H1656 H 0.81066 0.1254 0.03017 0.0
H1657 H 0.83465 0.11376 0.99811 0.0
H1658 H 0.92001 0.12968 0.08398 0.0
H1659 H 0.862 0.10331 0.08044 0.0
H1660 H 0.92867 0.11326 0.00096 0.0
H1661 H 0.88361 0.1502 0.015 0.0
H1662 H 0.92754 0.13376 0.98421 0.0
H1663 H 0.88335 0.17021 0.99806 0.0
H1664 H 0.96062 0.12665 0.03048 0.0
H1665 H 0.93701 0.08914 0.05566 0.0
H1666 H 0.9934 0.11087 0.0331 0.0
H1667 H 0.97015 0.07386 0.05777 0.0
H1668 H 0.94138 0.20054 0.04291 0.0
H1669 H 0.96615 0.17766 0.01292 0.0
H1670 H 0.93642 0.02984 0.02422 0.0
H1671 H 0.96998 0.07496 0.00743 0.0
Li1672 Li 0.11238 0.66313 0.28279 0.0
Li1673 Li 0.14835 0.66405 0.28141 0.0
Li1674 Li 0.13023 0.63154 0.27986 0.0
Li1675 Li 0.1337 0.64894 0.2977 0.0
C1676 C 0.11991 0.65544 0.26024 0.0
N1677 N 0.10146 0.65585 0.24015 0.0
C1678 C 0.12515 0.66958 0.25245 0.0
C1679 C 0.10551 0.64134 0.25777 0.0
C1680 C 0.11558 0.6696 0.24235 0.0
C1681 C 0.09629 0.64183 0.24757 0.0
C1682 C 0.1401 0.69349 0.29609 0.0
C1683 C 0.1648 0.71014 0.30687 0.0
N1684 N 0.15833 0.72783 0.30297 0.0
C1685 C 0.13355 0.71181 0.29226 0.0
C1686 C 0.15572 0.69262 0.30352 0.0
C1687 C 0.14302 0.72901 0.2958 0.0
C1688 C 0.07538 0.67796 0.28863 0.0
N1689 N 0.089 0.67805 0.28049 0.0
C1690 C 0.07043 0.70227 0.27065 0.0
C1691 C 0.08688 0.68989 0.2716 0.0
C1692 C 0.05622 0.70265 0.27901 0.0
C1693 C 0.05873 0.69006 0.28802 0.0
H1694 H 0.07771 0.66882 0.29575 0.0
H1695 H 0.09826 0.69028 0.26544 0.0
C1696 C 0.1882 0.67363 0.27573 0.0
N1697 N 0.16909 0.67983 0.27573 0.0
C1698 C 0.20298 0.68551 0.27119 0.0
C1699 C 0.17804 0.7098 0.26669 0.0
C1700 C 0.16379 0.69744 0.27127 0.0
C1701 C 0.19796 0.70387 0.26657 0.0
H1702 H 0.19194 0.65935 0.2791 0.0
H1703 H 0.14841 0.7018 0.2712 0.0
C1704 C 0.09227 0.62871 0.29308 0.0
N1705 N 0.05677 0.61037 0.29776 0.0
C1706 C 0.08943 0.61956 0.30318 0.0
C1707 C 0.07703 0.62859 0.28537 0.0
C1708 C 0.07138 0.61035 0.30538 0.0
C1709 C 0.0592 0.61923 0.28789 0.0
C1710 C 0.16934 0.62847 0.29376 0.0
C1711 C 0.16983 0.6078 0.29392 0.0
C1712 C 0.18368 0.63919 0.29945 0.0
C1713 C 0.1846 0.5982 0.29986 0.0
C1714 C 0.1982 0.62903 0.30531 0.0
N1715 N 0.19835 0.60892 0.30539 0.0
C1716 C 0.14401 0.60168 0.26582 0.0
C1717 C 0.11639 0.59245 0.27657 0.0
C1718 C 0.14501 0.58272 0.26133 0.0
N1719 N 0.12992 0.6061 0.27333 0.0
C1720 C 0.11671 0.57342 0.27221 0.0
C1721 C 0.13129 0.56822 0.26456 0.0
H1722 H 0.15471 0.6128 0.2635 0.0
H1723 H 0.10546 0.5962 0.28262 0.0
C1724 C 0.12323 0.6584 0.31893 0.0
N1725 N 0.13425 0.64537 0.31308 0.0
C1726 C 0.12104 0.65603 0.33018 0.0
C1727 C 0.14198 0.62711 0.32922 0.0
C1728 C 0.14349 0.62985 0.31797 0.0
C1729 C 0.13043 0.64016 0.33543 0.0
H1730 H 0.11574 0.67039 0.3148 0.0
H1731 H 0.15154 0.61924 0.31316 0.0
O1732 O 0.12922 0.6552 0.27014 0.0
O1733 O 0.13107 0.67651 0.29267 0.0
O1734 O 0.10986 0.63782 0.29081 0.0
O1735 O 0.15504 0.6381 0.28794 0.0
H1736 H 0.13641 0.6805 0.2542 0.0
H1737 H 0.10157 0.63004 0.26361 0.0
H1738 H 0.1194 0.68053 0.23627 0.0
H1739 H 0.08508 0.63102 0.24555 0.0
H1740 H 0.17697 0.7097 0.3126 0.0
H1741 H 0.12136 0.71271 0.28655 0.0
H1742 H 0.16073 0.67856 0.30669 0.0
H1743 H 0.1382 0.7433 0.29286 0.0
H1744 H 0.06929 0.71201 0.26367 0.0
H1745 H 0.04808 0.68977 0.29461 0.0
H1746 H 0.21808 0.68019 0.27111 0.0
H1747 H 0.17349 0.72389 0.26334 0.0
H1748 H 0.10107 0.61953 0.30923 0.0
H1749 H 0.07885 0.63584 0.27759 0.0
H1750 H 0.06899 0.60318 0.31316 0.0
H1751 H 0.04727 0.61905 0.28202 0.0
H1752 H 0.15885 0.59927 0.28955 0.0
H1753 H 0.18363 0.65518 0.29933 0.0
H1754 H 0.18512 0.58222 0.30009 0.0
H1755 H 0.20936 0.63714 0.30977 0.0
H1756 H 0.15669 0.57937 0.25558 0.0
H1757 H 0.10561 0.56291 0.27483 0.0
H1758 H 0.11203 0.66641 0.33471 0.0
H1759 H 0.14916 0.61451 0.33297 0.0
Li1760 Li 0.58519 0.13665 0.96869 0.0
Li1761 Li 0.58465 0.10053 0.96958 0.0
Li1762 Li 0.61635 0.1194 0.97076 0.0
Li1763 Li 0.5995 0.11636 0.95324 0.0
C1764 C 0.58786 0.12906 0.99027 0.0
N1765 N 0.57572 0.14897 0.00878 0.0
C1766 C 0.57368 0.12069 0.99716 0.0
C1767 C 0.59603 0.14744 0.99287 0.0
C1768 C 0.5677 0.13101 0.00646 0.0
C1769 C 0.58966 0.15731 0.00224 0.0
C1770 C 0.55418 0.11222 0.95441 0.0
C1771 C 0.53513 0.09485 0.9408 0.0
N1772 N 0.51817 0.10115 0.94565 0.0
C1773 C 0.53656 0.11879 0.95913 0.0
C1774 C 0.55346 0.10038 0.94507 0.0
C1775 C 0.51851 0.11293 0.95463 0.0
C1776 C 0.57366 0.17587 0.96531 0.0
N1777 N 0.56981 0.15962 0.97146 0.0
C1778 C 0.54163 0.17533 0.97942 0.0
C1779 C 0.55426 0.15909 0.97849 0.0
C1780 C 0.54485 0.19206 0.97288 0.0
C1781 C 0.56129 0.19235 0.96589 0.0
H1782 H 0.58595 0.17576 0.95966 0.0
H1783 H 0.55116 0.14577 0.98304 0.0
C1784 C 0.57691 0.06063 0.97626 0.0
N1785 N 0.56932 0.07914 0.97514 0.0
C1786 C 0.56538 0.04548 0.98071 0.0
C1787 C 0.53875 0.06891 0.98312 0.0
C1788 C 0.55069 0.0835 0.97853 0.0
C1789 C 0.54606 0.0496 0.98425 0.0
H1790 H 0.59199 0.05765 0.97386 0.0
H1791 H 0.54528 0.09848 0.97793 0.0
C1792 C 0.62673 0.15162 0.95933 0.0
N1793 N 0.66132 0.17315 0.95768 0.0
C1794 C 0.64052 0.14713 0.95121 0.0
C1795 C 0.63038 0.16726 0.9665 0.0
C1796 C 0.65796 0.15814 0.95054 0.0
C1797 C 0.648 0.17791 0.96557 0.0
C1798 C 0.61367 0.0776 0.95667 0.0
C1799 C 0.63269 0.06969 0.9557 0.0
C1800 C 0.59775 0.06797 0.95173 0.0
C1801 C 0.63547 0.05237 0.94968 0.0
C1802 C 0.60112 0.05068 0.94579 0.0
N1803 N 0.61976 0.04331 0.94488 0.0
C1804 C 0.64528 0.12461 0.9875 0.0
C1805 C 0.65745 0.11575 0.97005 0.0
C1806 C 0.66449 0.12509 0.99169 0.0
N1807 N 0.64218 0.1201 0.97683 0.0
C1808 C 0.67686 0.1161 0.97387 0.0
C1809 C 0.6806 0.12079 0.98484 0.0
H1810 H 0.63288 0.12768 0.99277 0.0
H1811 H 0.65453 0.1121 0.96162 0.0
C1812 C 0.59155 0.12936 0.93222 0.0
N1813 N 0.60282 0.11623 0.93785 0.0
C1814 C 0.5941 0.13169 0.92101 0.0
C1815 C 0.61962 0.10668 0.92153 0.0
C1816 C 0.61669 0.10496 0.93277 0.0
C1817 C 0.6084 0.12036 0.91554 0.0
H1818 H 0.58081 0.1383 0.93652 0.0
H1819 H 0.62592 0.09508 0.93744 0.0
O1820 O 0.59374 0.11925 0.98107 0.0
O1821 O 0.57201 0.11806 0.95862 0.0
O1822 O 0.60967 0.14086 0.96019 0.0
O1823 O 0.61077 0.09472 0.9624 0.0
H1824 H 0.56738 0.10636 0.99537 0.0
H1825 H 0.60711 0.15404 0.98768 0.0
H1826 H 0.55668 0.12474 0.01184 0.0
H1827 H 0.59579 0.1716 0.00431 0.0
H1828 H 0.53438 0.08562 0.93361 0.0
H1829 H 0.53679 0.12822 0.96625 0.0
H1830 H 0.5669 0.09565 0.94107 0.0
H1831 H 0.50477 0.11777 0.95828 0.0
H1832 H 0.52894 0.17443 0.98478 0.0
H1833 H 0.56432 0.20504 0.96076 0.0
H1834 H 0.57168 0.03085 0.98163 0.0
H1835 H 0.52393 0.0727 0.98573 0.0
H1836 H 0.6379 0.13513 0.94557 0.0
H1837 H 0.6197 0.17119 0.97269 0.0
H1838 H 0.66884 0.15472 0.94436 0.0
H1839 H 0.65105 0.18999 0.9711 0.0
H1840 H 0.64519 0.07687 0.95953 0.0
H1841 H 0.58291 0.07363 0.95262 0.0
H1842 H 0.65012 0.04613 0.94882 0.0
H1843 H 0.5889 0.04308 0.94194 0.0
H1844 H 0.66665 0.12846 0.00024 0.0
H1845 H 0.68881 0.11293 0.96826 0.0
H1846 H 0.58505 0.1423 0.91667 0.0
H1847 H 0.63102 0.0979 0.91764 0.0
Li1848 Li 0.13338 0.34859 0.20258 0.0
Li1849 Li 0.13142 0.36636 0.21933 0.0
Li1850 Li 0.15011 0.33395 0.21826 0.0
Li1851 Li 0.11312 0.33582 0.21731 0.0
C1852 C 0.17059 0.36493 0.20404 0.0
N1853 N 0.20054 0.37579 0.18992 0.0
C1854 C 0.16949 0.38283 0.19837 0.0
C1855 C 0.18697 0.3526 0.20257 0.0
C1856 C 0.18476 0.38803 0.19125 0.0
C1857 C 0.20195 0.35835 0.19539 0.0
C1858 C 0.09811 0.37704 0.20954 0.0
C1859 C 0.07444 0.39757 0.21894 0.0
N1860 N 0.07543 0.41098 0.21069 0.0
C1861 C 0.09883 0.39098 0.20113 0.0
C1862 C 0.08575 0.38031 0.2185 0.0
C1863 C 0.08727 0.40805 0.20187 0.0
C1864 C 0.11484 0.35327 0.18258 0.0
N1865 N 0.13317 0.35111 0.18696 0.0
C1866 C 0.14788 0.35348 0.16926 0.0
C1867 C 0.14953 0.35054 0.18051 0.0
C1868 C 0.12916 0.35662 0.16458 0.0
C1869 C 0.11247 0.35608 0.1714 0.0
H1870 H 0.10198 0.35289 0.18781 0.0
H1871 H 0.16388 0.34784 0.18401 0.0
C1872 C 0.13208 0.39396 0.23681 0.0
N1873 N 0.13187 0.39197 0.22579 0.0
C1874 C 0.13259 0.41277 0.24154 0.0
C1875 C 0.13259 0.42702 0.22347 0.0
C1876 C 0.13236 0.408 0.21912 0.0
C1877 C 0.13279 0.42967 0.23484 0.0
H1878 H 0.13204 0.38096 0.24194 0.0
H1879 H 0.13243 0.40604 0.2104 0.0
C1880 C 0.13157 0.31085 0.19846 0.0
N1881 N 0.13079 0.29226 0.17842 0.0
C1882 C 0.1135 0.30604 0.19361 0.0
C1883 C 0.14925 0.30615 0.19315 0.0
C1884 C 0.11342 0.29665 0.18346 0.0
C1885 C 0.14854 0.29676 0.18302 0.0
C1886 C 0.12255 0.33517 0.2386 0.0
C1887 C 0.1299 0.31733 0.24268 0.0
C1888 C 0.10649 0.34426 0.24372 0.0
C1889 C 0.12083 0.30871 0.25175 0.0
C1890 C 0.09782 0.33516 0.25276 0.0
N1891 N 0.1051 0.31772 0.25655 0.0
C1892 C 0.18468 0.32711 0.23063 0.0
C1893 C 0.17213 0.29922 0.22117 0.0
C1894 C 0.19966 0.31562 0.23526 0.0
N1895 N 0.17133 0.31873 0.22376 0.0
C1896 C 0.18688 0.28721 0.22557 0.0
C1897 C 0.20083 0.29536 0.23278 0.0
H1898 H 0.18353 0.34266 0.23259 0.0
H1899 H 0.16106 0.29289 0.21585 0.0
C1900 C 0.07207 0.32795 0.21694 0.0
N1901 N 0.08987 0.32111 0.22044 0.0
C1902 C 0.05514 0.31631 0.21805 0.0
C1903 C 0.07513 0.29088 0.22644 0.0
C1904 C 0.0917 0.30296 0.2251 0.0
C1905 C 0.0566 0.2974 0.22273 0.0
H1906 H 0.07109 0.34213 0.21294 0.0
H1907 H 0.10614 0.29756 0.22741 0.0
O1908 O 0.15596 0.3597 0.21117 0.0
O1909 O 0.10944 0.36029 0.20902 0.0
O1910 O 0.13194 0.32058 0.20822 0.0
O1911 O 0.13114 0.34377 0.22968 0.0
H1912 H 0.1569 0.39249 0.19935 0.0
H1913 H 0.18808 0.33869 0.20686 0.0
H1914 H 0.18405 0.40179 0.18677 0.0
H1915 H 0.21468 0.34893 0.19415 0.0
H1916 H 0.06486 0.40031 0.22584 0.0
H1917 H 0.10846 0.38885 0.19419 0.0
H1918 H 0.08491 0.36964 0.22503 0.0
H1919 H 0.08778 0.41902 0.19546 0.0
H1920 H 0.16117 0.35365 0.16434 0.0
H1921 H 0.09769 0.35777 0.16814 0.0
H1922 H 0.1331 0.414 0.25034 0.0
H1923 H 0.13239 0.43951 0.21795 0.0
H1924 H 0.0997 0.30971 0.1976 0.0
H1925 H 0.16335 0.30998 0.19676 0.0
H1926 H 0.09955 0.29292 0.17958 0.0
H1927 H 0.16209 0.29314 0.17878 0.0
H1928 H 0.14235 0.31011 0.23884 0.0
H1929 H 0.1008 0.3582 0.24077 0.0
H1930 H 0.12629 0.29484 0.25495 0.0
H1931 H 0.08532 0.34199 0.25678 0.0
H1932 H 0.21021 0.32252 0.24071 0.0
H1933 H 0.18702 0.27161 0.22359 0.0
H1934 H 0.04113 0.32189 0.21508 0.0
H1935 H 0.07697 0.27626 0.22989 0.0
Li1936 Li 0.91508 0.90029 0.46943 0.0
Li1937 Li 0.91267 0.86338 0.46856 0.0
Li1938 Li 0.90042 0.88356 0.45369 0.0
Li1939 Li 0.88244 0.88201 0.47039 0.0
C1940 C 0.93837 0.88161 0.44987 0.0
N1941 N 0.95779 0.88108 0.43007 0.0
C1942 C 0.9428 0.8636 0.44484 0.0
C1943 C 0.9439 0.89934 0.44488 0.0
C1944 C 0.95261 0.86365 0.43482 0.0
C1945 C 0.95369 0.89876 0.43486 0.0
C1946 C 0.91323 0.8723 0.48964 0.0
C1947 C 0.91335 0.84602 0.50293 0.0
N1948 N 0.93047 0.85326 0.50717 0.0
C1949 C 0.93074 0.87959 0.49418 0.0
C1950 C 0.90437 0.85548 0.4941 0.0
C1951 C 0.93925 0.86972 0.50302 0.0
C1952 C 0.92244 0.9363 0.48054 0.0
N1953 N 0.93083 0.92116 0.47492 0.0
C1954 C 0.96312 0.93436 0.47794 0.0
C1955 C 0.95072 0.91995 0.47352 0.0
C1956 C 0.95497 0.9502 0.48384 0.0
C1957 C 0.93429 0.95112 0.48506 0.0
H1958 H 0.90656 0.93678 0.48155 0.0
H1959 H 0.95697 0.90753 0.46916 0.0
C1960 C 0.92031 0.82218 0.46866 0.0
N1961 N 0.9273 0.84015 0.47177 0.0
C1962 C 0.93207 0.80534 0.46981 0.0
C1963 C 0.95787 0.82578 0.47751 0.0
C1964 C 0.94567 0.84224 0.47612 0.0
C1965 C 0.95121 0.80707 0.47416 0.0
H1966 H 0.9059 0.821 0.46492 0.0
H1967 H 0.95112 0.85681 0.47816 0.0
C1968 C 0.88528 0.92122 0.45485 0.0
N1969 N 0.87644 0.95147 0.44049 0.0
C1970 C 0.86747 0.92105 0.44906 0.0
C1971 C 0.89859 0.93681 0.45333 0.0
C1972 C 0.86328 0.93646 0.44183 0.0
C1973 C 0.89384 0.95196 0.44604 0.0
C1974 C 0.87087 0.84957 0.46025 0.0
C1975 C 0.85718 0.85208 0.45182 0.0
C1976 C 0.8666 0.83656 0.46879 0.0
C1977 C 0.83939 0.84159 0.4521 0.0
C1978 C 0.84863 0.82637 0.46879 0.0
N1979 N 0.83551 0.82908 0.46052 0.0
C1980 C 0.89586 0.86472 0.43376 0.0
C1981 C 0.89946 0.89929 0.4315 0.0
C1982 C 0.89322 0.8622 0.42257 0.0
N1983 N 0.89834 0.88308 0.43805 0.0
C1984 C 0.89673 0.89748 0.42025 0.0
C1985 C 0.89321 0.87876 0.41566 0.0
H1986 H 0.89581 0.85195 0.43906 0.0
H1987 H 0.90244 0.91363 0.43494 0.0
C1988 C 0.85442 0.88116 0.48774 0.0
N1989 N 0.8567 0.88267 0.47676 0.0
C1990 C 0.83552 0.88155 0.49236 0.0
C1991 C 0.82173 0.88502 0.47428 0.0
C1992 C 0.84085 0.88478 0.47005 0.0
C1993 C 0.81881 0.88346 0.48559 0.0
H1994 H 0.86728 0.87978 0.49292 0.0
H1995 H 0.84301 0.88605 0.46137 0.0
O1996 O 0.92824 0.88188 0.4595 0.0
O1997 O 0.90483 0.88159 0.48088 0.0
O1998 O 0.88949 0.90647 0.46213 0.0
O1999 O 0.88834 0.85982 0.46016 0.0
H2000 H 0.93851 0.84976 0.44859 0.0
H2001 H 0.94043 0.91339 0.44865 0.0
H2002 H 0.95605 0.84984 0.43079 0.0
H2003 H 0.95796 0.91237 0.43086 0.0
H2004 H 0.9067 0.83292 0.50642 0.0
H2005 H 0.93777 0.89262 0.49087 0.0
H2006 H 0.89073 0.84976 0.49076 0.0
H2007 H 0.95286 0.87513 0.50657 0.0
H2008 H 0.97896 0.9328 0.47695 0.0
H2009 H 0.92733 0.96316 0.48942 0.0
H2010 H 0.92638 0.79117 0.46714 0.0
H2011 H 0.97266 0.82783 0.48069 0.0
H2012 H 0.85706 0.90907 0.45004 0.0
H2013 H 0.9125 0.93718 0.45764 0.0
H2014 H 0.84958 0.93646 0.43728 0.0
H2015 H 0.90402 0.96408 0.44477 0.0
H2016 H 0.86006 0.86229 0.44522 0.0
H2017 H 0.87702 0.83437 0.47535 0.0
H2018 H 0.82861 0.84349 0.44567 0.0
H2019 H 0.84512 0.81631 0.47536 0.0
H2020 H 0.89124 0.8474 0.41939 0.0
H2021 H 0.89697 0.91068 0.41525 0.0
H2022 H 0.83406 0.88063 0.50113 0.0
H2023 H 0.80938 0.88616 0.4687 0.0
Li2024 Li 0.35005 0.66388 0.7192 0.0
Li2025 Li 0.38553 0.66402 0.7182 0.0
Li2026 Li 0.36523 0.65045 0.70337 0.0
Li2027 Li 0.36814 0.63222 0.72053 0.0
C2028 C 0.35825 0.69615 0.70887 0.0
N2029 N 0.33991 0.73256 0.71042 0.0
C2030 C 0.36622 0.7109 0.71554 0.0
C2031 C 0.34097 0.69995 0.70297 0.0
C2032 C 0.35674 0.72921 0.7162 0.0
C2033 C 0.33191 0.71843 0.70387 0.0
C2034 C 0.37961 0.65094 0.73991 0.0
C2035 C 0.40641 0.6337 0.74874 0.0
N2036 N 0.40063 0.64136 0.75849 0.0
C2037 C 0.37386 0.65855 0.75002 0.0
C2038 C 0.39595 0.63835 0.73926 0.0
C2039 C 0.38472 0.65358 0.75931 0.0
C2040 C 0.30995 0.67722 0.72117 0.0
N2041 N 0.32868 0.67866 0.72511 0.0
C2042 C 0.31872 0.70323 0.73797 0.0
C2043 C 0.33325 0.69123 0.73337 0.0
C2044 C 0.29926 0.70229 0.73401 0.0
C2045 C 0.29492 0.68905 0.7255 0.0
H2046 H 0.30671 0.66704 0.71462 0.0
H2047 H 0.34834 0.69216 0.73626 0.0
C2048 C 0.4155 0.68924 0.71178 0.0
N2049 N 0.40872 0.67968 0.72078 0.0
C2050 C 0.43152 0.70213 0.71249 0.0
C2051 C 0.43325 0.69555 0.73181 0.0
C2052 C 0.41719 0.68267 0.73072 0.0
C2053 C 0.44054 0.7056 0.72262 0.0
H2054 H 0.40811 0.68724 0.70405 0.0
H2055 H 0.41127 0.6756 0.73788 0.0
C2056 C 0.33363 0.62854 0.70419 0.0
N2057 N 0.31459 0.6089 0.68745 0.0
C2058 C 0.33571 0.60808 0.70306 0.0
C2059 C 0.32173 0.63899 0.69686 0.0
C2060 C 0.32598 0.59842 0.69454 0.0
C2061 C 0.31228 0.6288 0.68843 0.0
C2062 C 0.40774 0.63808 0.70563 0.0
C2063 C 0.41194 0.64896 0.69621 0.0
C2064 C 0.4226 0.6266 0.7104 0.0
C2065 C 0.43097 0.64834 0.6918 0.0
C2066 C 0.44145 0.62637 0.70574 0.0
N2067 N 0.44522 0.63716 0.69662 0.0
C2068 C 0.36047 0.66183 0.68118 0.0
C2069 C 0.36903 0.62827 0.68413 0.0
C2070 C 0.36141 0.65915 0.66991 0.0
N2071 N 0.36434 0.6465 0.68801 0.0
C2072 C 0.37015 0.62492 0.67292 0.0
C2073 C 0.36655 0.64055 0.66564 0.0
H2074 H 0.35711 0.67625 0.68448 0.0
H2075 H 0.37239 0.61645 0.68978 0.0
C2076 C 0.35724 0.60257 0.73554 0.0
N2077 N 0.36884 0.60666 0.72679 0.0
C2078 C 0.357 0.58355 0.73998 0.0
C2079 C 0.38076 0.57345 0.72633 0.0
C2080 C 0.38049 0.59263 0.72215 0.0
C2081 C 0.3688 0.56864 0.73533 0.0
H2082 H 0.34802 0.61405 0.73899 0.0
H2083 H 0.3894 0.59631 0.71512 0.0
O2084 O 0.36704 0.67795 0.70832 0.0
O2085 O 0.36886 0.65535 0.73078 0.0
O2086 O 0.34335 0.63831 0.71236 0.0
O2087 O 0.38916 0.63844 0.71008 0.0
H2088 H 0.37943 0.70818 0.72027 0.0
H2089 H 0.33442 0.68863 0.69789 0.0
H2090 H 0.3627 0.74073 0.72137 0.0
H2091 H 0.31845 0.72152 0.69942 0.0
H2092 H 0.41912 0.62402 0.74835 0.0
H2093 H 0.36112 0.66816 0.75068 0.0
H2094 H 0.40054 0.63231 0.73152 0.0
H2095 H 0.38047 0.65939 0.76719 0.0
H2096 H 0.32277 0.71343 0.7444 0.0
H2097 H 0.28006 0.68773 0.72229 0.0
H2098 H 0.43669 0.70938 0.70515 0.0
H2099 H 0.43948 0.69806 0.73983 0.0
H2100 H 0.34483 0.59975 0.70866 0.0
H2101 H 0.32009 0.65484 0.69756 0.0
H2102 H 0.32753 0.58261 0.69354 0.0
H2103 H 0.30317 0.63672 0.68265 0.0
H2104 H 0.40074 0.65805 0.69242 0.0
H2105 H 0.41965 0.61789 0.71762 0.0
H2106 H 0.43443 0.6568 0.68456 0.0
H2107 H 0.45308 0.61758 0.70938 0.0
H2108 H 0.35833 0.67157 0.66459 0.0
H2109 H 0.37447 0.61043 0.67002 0.0
H2110 H 0.34735 0.58047 0.74682 0.0
H2111 H 0.39028 0.56253 0.72257 0.0
Li2112 Li 0.3823 0.1196 0.47139 0.0
Li2113 Li 0.41306 0.10084 0.46953 0.0
Li2114 Li 0.41246 0.13766 0.46792 0.0
Li2115 Li 0.39931 0.11722 0.45311 0.0
C2116 C 0.39944 0.11987 0.49119 0.0
N2117 N 0.38503 0.1174 0.51223 0.0
C2118 C 0.40032 0.10196 0.49687 0.0
C2119 C 0.39145 0.13657 0.49625 0.0
C2120 C 0.39291 0.10101 0.50749 0.0
C2121 C 0.38416 0.135 0.50688 0.0
C2122 C 0.38278 0.07672 0.45967 0.0
C2123 C 0.38538 0.04838 0.4478 0.0
N2124 N 0.37349 0.03796 0.45466 0.0
C2125 C 0.37041 0.06579 0.46654 0.0
C2126 C 0.39017 0.06801 0.45017 0.0
C2127 C 0.36596 0.04619 0.46389 0.0
C2128 C 0.34357 0.13368 0.47435 0.0
N2129 N 0.35686 0.12021 0.47809 0.0
C2130 C 0.33287 0.10687 0.49038 0.0
C2131 C 0.35188 0.10691 0.48593 0.0
C2132 C 0.31878 0.12055 0.48664 0.0
C2133 C 0.32439 0.13415 0.47854 0.0
H2134 H 0.34774 0.14383 0.46795 0.0
H2135 H 0.36257 0.09611 0.48864 0.0
C2136 C 0.44685 0.0856 0.47893 0.0
N2137 N 0.42901 0.07978 0.47496 0.0
C2138 C 0.45983 0.07181 0.48344 0.0
C2139 C 0.43593 0.04616 0.47963 0.0
C2140 C 0.42336 0.06048 0.47523 0.0
C2141 C 0.45441 0.05178 0.48386 0.0
H2142 H 0.45093 0.10106 0.47861 0.0
H2143 H 0.4091 0.05613 0.47215 0.0
C2144 C 0.385 0.16039 0.45895 0.0
N2145 N 0.38225 0.20089 0.45644 0.0
C2146 C 0.38754 0.16894 0.44867 0.0
C2147 C 0.38082 0.17241 0.46793 0.0
C2148 C 0.38615 0.18946 0.44758 0.0
C2149 C 0.37957 0.19286 0.46651 0.0
C2150 C 0.441 0.11094 0.45202 0.0
C2151 C 0.45562 0.12352 0.44791 0.0
C2152 C 0.44133 0.09088 0.4493 0.0
C2153 C 0.47012 0.11587 0.44098 0.0
C2154 C 0.4561 0.08379 0.44236 0.0
N2155 N 0.47005 0.09633 0.43836 0.0
C2156 C 0.43342 0.1668 0.48027 0.0
C2157 C 0.43367 0.17051 0.46105 0.0
C2158 C 0.44625 0.1829 0.48144 0.0
N2159 N 0.42761 0.16089 0.47017 0.0
C2160 C 0.44635 0.18667 0.46183 0.0
C2161 C 0.45316 0.19285 0.47211 0.0
H2162 H 0.42857 0.15867 0.48738 0.0
H2163 H 0.42901 0.1653 0.45312 0.0
C2164 C 0.37875 0.10886 0.43351 0.0
N2165 N 0.39555 0.11673 0.43778 0.0
C2166 C 0.37491 0.1104 0.42234 0.0
C2167 C 0.4058 0.12798 0.42021 0.0
C2168 C 0.40903 0.12609 0.43139 0.0
C2169 C 0.38841 0.12035 0.41556 0.0
H2170 H 0.36807 0.10189 0.43883 0.0
H2171 H 0.42196 0.13274 0.43503 0.0
O2172 O 0.40658 0.12109 0.48078 0.0
O2173 O 0.38717 0.09597 0.46211 0.0
O2174 O 0.38655 0.14036 0.46022 0.0
O2175 O 0.42671 0.11824 0.45881 0.0
H2176 H 0.40649 0.0889 0.49309 0.0
H2177 H 0.39086 0.15058 0.49202 0.0
H2178 H 0.39338 0.08722 0.51196 0.0
H2179 H 0.37784 0.14778 0.51088 0.0
H2180 H 0.39107 0.04145 0.4405 0.0
H2181 H 0.36443 0.0723 0.47387 0.0
H2182 H 0.3994 0.07632 0.44462 0.0
H2183 H 0.35651 0.03753 0.46916 0.0
H2184 H 0.32928 0.09623 0.49667 0.0
H2185 H 0.31394 0.14472 0.47526 0.0
H2186 H 0.47403 0.07675 0.48649 0.0
H2187 H 0.43107 0.03091 0.47991 0.0
H2188 H 0.39065 0.15985 0.44162 0.0
H2189 H 0.37865 0.166 0.47592 0.0
H2190 H 0.38819 0.19629 0.43968 0.0
H2191 H 0.37646 0.20235 0.4734 0.0
H2192 H 0.45572 0.13905 0.45001 0.0
H2193 H 0.43045 0.08085 0.45259 0.0
H2194 H 0.48144 0.12547 0.43769 0.0
H2195 H 0.4565 0.06829 0.44018 0.0
H2196 H 0.45127 0.18702 0.48951 0.0
H2197 H 0.45098 0.19408 0.45443 0.0
H2198 H 0.36119 0.10454 0.41913 0.0
H2199 H 0.4167 0.13559 0.41529 0.0
Li2200 Li 0.64861 0.66431 0.21919 0.0
Li2201 Li 0.62967 0.63345 0.22073 0.0
Li2202 Li 0.63316 0.65066 0.20244 0.0
Li2203 Li 0.61226 0.66378 0.21696 0.0
C2204 C 0.67266 0.6317 0.21076 0.0
N2205 N 0.71069 0.61732 0.20844 0.0
C2206 C 0.68147 0.62096 0.2192 0.0
C2207 C 0.68311 0.6349 0.20108 0.0
C2208 C 0.70073 0.61388 0.21788 0.0
C2209 C 0.70235 0.62758 0.20008 0.0
C2210 C 0.6279 0.65108 0.2406 0.0
C2211 C 0.61145 0.63502 0.25564 0.0
N2212 N 0.62781 0.63782 0.26191 0.0
C2213 C 0.64452 0.65387 0.2472 0.0
C2214 C 0.61119 0.64167 0.24485 0.0
C2215 C 0.64418 0.64704 0.25795 0.0
C2216 C 0.66428 0.69877 0.22772 0.0
N2217 N 0.66959 0.68011 0.22484 0.0
C2218 C 0.7027 0.68583 0.23087 0.0
C2219 C 0.68839 0.6735 0.22627 0.0
C2220 C 0.69761 0.70516 0.23401 0.0
C2221 C 0.67812 0.71163 0.23231 0.0
H2222 H 0.64917 0.70358 0.22655 0.0
H2223 H 0.69235 0.65867 0.22394 0.0
C2224 C 0.61719 0.59396 0.22225 0.0
N2225 N 0.62851 0.60781 0.2273 0.0
C2226 C 0.61622 0.5747 0.22632 0.0
C2227 C 0.6385 0.58429 0.24078 0.0
C2228 C 0.63913 0.60332 0.2364 0.0
C2229 C 0.62702 0.56964 0.2357 0.0
H2230 H 0.60904 0.59784 0.21497 0.0
H2231 H 0.64833 0.6144 0.24018 0.0
C2232 C 0.64207 0.69161 0.20184 0.0
N2233 N 0.66232 0.71886 0.18931 0.0
C2234 C 0.63277 0.70905 0.19851 0.0
C2235 C 0.6617 0.6881 0.19887 0.0
C2236 C 0.64324 0.72262 0.19215 0.0
C2237 C 0.67169 0.70204 0.19252 0.0
C2238 C 0.58964 0.6377 0.20745 0.0
C2239 C 0.58191 0.64399 0.19747 0.0
C2240 C 0.57688 0.63134 0.2157 0.0
C2241 C 0.56143 0.64401 0.19595 0.0
C2242 C 0.55649 0.6316 0.21386 0.0
N2243 N 0.54926 0.63789 0.20411 0.0
C2244 C 0.63999 0.62812 0.1836 0.0
C2245 C 0.63032 0.66121 0.18008 0.0
C2246 C 0.64003 0.62387 0.17245 0.0
N2247 N 0.63512 0.64652 0.18717 0.0
C2248 C 0.63037 0.65767 0.16886 0.0
C2249 C 0.63506 0.63873 0.16494 0.0
H2250 H 0.64348 0.61666 0.18945 0.0
H2251 H 0.62589 0.67552 0.18311 0.0
C2252 C 0.58068 0.68118 0.2291 0.0
N2253 N 0.58903 0.67902 0.21909 0.0
C2254 C 0.56444 0.69371 0.2305 0.0
C2255 C 0.56568 0.70135 0.21124 0.0
C2256 C 0.58184 0.68869 0.21023 0.0
C2257 C 0.5569 0.70419 0.22151 0.0
H2258 H 0.5869 0.67356 0.23604 0.0
H2259 H 0.58888 0.68675 0.20238 0.0
O2260 O 0.65371 0.63855 0.21184 0.0
O2261 O 0.62793 0.65775 0.23008 0.0
O2262 O 0.63197 0.67817 0.20804 0.0
O2263 O 0.6096 0.63791 0.20917 0.0
H2264 H 0.67367 0.61838 0.22674 0.0
H2265 H 0.67646 0.64289 0.19438 0.0
H2266 H 0.70777 0.60567 0.22439 0.0
H2267 H 0.71062 0.63002 0.19265 0.0
H2268 H 0.59867 0.62762 0.25902 0.0
H2269 H 0.65755 0.66117 0.24406 0.0
H2270 H 0.59822 0.63938 0.23985 0.0
H2271 H 0.65695 0.64905 0.26315 0.0
H2272 H 0.71762 0.68032 0.23191 0.0
H2273 H 0.67347 0.72631 0.23472 0.0
H2274 H 0.60705 0.56392 0.22219 0.0
H2275 H 0.6473 0.58096 0.24793 0.0
H2276 H 0.6176 0.71204 0.20079 0.0
H2277 H 0.66918 0.67485 0.20152 0.0
H2278 H 0.63621 0.73614 0.18947 0.0
H2279 H 0.68689 0.6995 0.19017 0.0
H2280 H 0.59161 0.64896 0.19101 0.0
H2281 H 0.58266 0.62634 0.22345 0.0
H2282 H 0.55522 0.64894 0.18829 0.0
H2283 H 0.54643 0.6268 0.22018 0.0
H2284 H 0.64378 0.60909 0.16974 0.0
H2285 H 0.62609 0.66942 0.16335 0.0
H2286 H 0.55826 0.69564 0.23857 0.0
H2287 H 0.56017 0.70891 0.20407 0.0
Li2288 Li 0.08594 0.89806 0.96874 0.0
Li2289 Li 0.11712 0.88221 0.97089 0.0
Li2290 Li 0.10125 0.88431 0.95255 0.0
Li2291 Li 0.08713 0.86251 0.96745 0.0
C2292 C 0.11894 0.9227 0.9668 0.0
N2293 N 0.13406 0.95603 0.97681 0.0
C2294 C 0.11768 0.92483 0.97812 0.0
C2295 C 0.12786 0.93752 0.96057 0.0
C2296 C 0.12544 0.94178 0.98302 0.0
C2297 C 0.13542 0.95427 0.96578 0.0
C2298 C 0.09659 0.86999 0.98998 0.0
C2299 C 0.107 0.8415 0.00031 0.0
N2300 N 0.10366 0.85162 0.00971 0.0
C2301 C 0.09313 0.88007 0.99974 0.0
C2302 C 0.10348 0.85052 0.99024 0.0
C2303 C 0.09685 0.87054 0.00964 0.0
C2304 C 0.05704 0.91355 0.98239 0.0
N2305 N 0.06943 0.9186 0.97413 0.0
C2306 C 0.05737 0.95179 0.97429 0.0
C2307 C 0.0698 0.93723 0.96999 0.0
C2308 C 0.04445 0.94704 0.9829 0.0
C2309 C 0.04434 0.92757 0.98689 0.0
H2310 H 0.05694 0.89853 0.98541 0.0
H2311 H 0.07973 0.94079 0.96336 0.0
C2312 C 0.15819 0.87965 0.97061 0.0
N2313 N 0.14264 0.8822 0.97749 0.0
C2314 C 0.17748 0.87923 0.97465 0.0
C2315 C 0.16445 0.88436 0.99278 0.0
C2316 C 0.14541 0.88477 0.98838 0.0
C2317 C 0.18084 0.88148 0.9859 0.0
H2318 H 0.15555 0.87792 0.96196 0.0
H2319 H 0.13292 0.8872 0.99367 0.0
C2320 C 0.05634 0.89099 0.95579 0.0
N2321 N 0.02193 0.91254 0.95335 0.0
C2322 C 0.0393 0.88555 0.9615 0.0
C2323 C 0.05587 0.9073 0.94879 0.0
C2324 C 0.02205 0.89666 0.96017 0.0
C2325 C 0.03833 0.91802 0.94768 0.0
C2326 C 0.12312 0.84437 0.95749 0.0
C2327 C 0.12192 0.83659 0.94695 0.0
C2328 C 0.13474 0.83485 0.96532 0.0
C2329 C 0.13214 0.8192 0.94447 0.0
C2330 C 0.14474 0.81751 0.96252 0.0
N2331 N 0.14323 0.8101 0.95225 0.0
C2332 C 0.12405 0.88939 0.93338 0.0
C2333 C 0.09071 0.87977 0.93063 0.0
C2334 C 0.12781 0.88808 0.92218 0.0
N2335 N 0.10578 0.8851 0.93734 0.0
C2336 C 0.09378 0.87833 0.91942 0.0
C2337 C 0.11261 0.88221 0.91505 0.0
H2338 H 0.13582 0.89331 0.93895 0.0
H2339 H 0.07639 0.87623 0.93404 0.0
C2340 C 0.05884 0.8383 0.97772 0.0
N2341 N 0.07293 0.83868 0.96981 0.0
C2342 C 0.04651 0.82185 0.97885 0.0
C2343 C 0.06386 0.8063 0.9639 0.0
C2344 C 0.07574 0.82307 0.96302 0.0
C2345 C 0.0487 0.80568 0.97174 0.0
H2346 H 0.05675 0.85108 0.9829 0.0
H2347 H 0.08677 0.82386 0.95668 0.0
O2348 O 0.11128 0.90637 0.96176 0.0
O2349 O 0.09306 0.87922 0.98025 0.0
O2350 O 0.07352 0.88069 0.95723 0.0
O2351 O 0.1133 0.86146 0.96002 0.0
H2352 H 0.11071 0.9136 0.98307 0.0
H2353 H 0.12888 0.9361 0.9518 0.0
H2354 H 0.12456 0.94363 0.99177 0.0
H2355 H 0.14234 0.96587 0.96106 0.0
H2356 H 0.11235 0.82644 0.00063 0.0
H2357 H 0.08776 0.89515 0.99966 0.0
H2358 H 0.10593 0.84242 0.98278 0.0
H2359 H 0.09433 0.8782 0.01726 0.0
H2360 H 0.0581 0.96664 0.97102 0.0
H2361 H 0.03438 0.92311 0.99335 0.0
H2362 H 0.18962 0.87739 0.96899 0.0
H2363 H 0.16626 0.88602 0.0015 0.0
H2364 H 0.03947 0.87301 0.96698 0.0
H2365 H 0.069 0.91178 0.94439 0.0
H2366 H 0.00878 0.8927 0.96458 0.0
H2367 H 0.03777 0.93075 0.94235 0.0
H2368 H 0.11307 0.84381 0.94077 0.0
H2369 H 0.13619 0.84084 0.97346 0.0
H2370 H 0.13126 0.81295 0.93637 0.0
H2371 H 0.15376 0.80998 0.96851 0.0
H2372 H 0.1426 0.89098 0.91921 0.0
H2373 H 0.08154 0.87404 0.91423 0.0
H2374 H 0.03488 0.82216 0.98491 0.0
H2375 H 0.0663 0.79409 0.95835 0.0
Li2376 Li 0.86781 0.36687 0.72083 0.0
Li2377 Li 0.85015 0.33638 0.71881 0.0
Li2378 Li 0.88574 0.33664 0.71693 0.0
Li2379 Li 0.86409 0.3506 0.70215 0.0
C2380 C 0.87101 0.34952 0.74045 0.0
N2381 N 0.87287 0.36341 0.76161 0.0
C2382 C 0.85429 0.34875 0.74715 0.0
C2383 C 0.88868 0.35726 0.74453 0.0
C2384 C 0.85554 0.35586 0.75782 0.0
C2385 C 0.88931 0.36425 0.75524 0.0
C2386 C 0.82386 0.36546 0.71228 0.0
C2387 C 0.79227 0.36845 0.70332 0.0
N2388 N 0.7836 0.37207 0.71313 0.0
C2389 C 0.81468 0.36928 0.72227 0.0
C2390 C 0.81263 0.36508 0.70272 0.0
C2391 C 0.79429 0.37255 0.72253 0.0
C2392 C 0.8809 0.40606 0.72267 0.0
N2393 N 0.86902 0.39239 0.72748 0.0
C2394 C 0.85851 0.41606 0.74076 0.0
C2395 C 0.85778 0.39708 0.73631 0.0
C2396 C 0.87061 0.43047 0.73593 0.0
C2397 C 0.88191 0.42529 0.72677 0.0
H2398 H 0.88941 0.40211 0.71553 0.0
H2399 H 0.848 0.38623 0.73982 0.0
C2400 C 0.83515 0.30735 0.73249 0.0
N2401 N 0.8294 0.31987 0.72441 0.0
C2402 C 0.82172 0.29411 0.73709 0.0
C2403 C 0.79659 0.3067 0.72493 0.0
C2404 C 0.81061 0.3195 0.72044 0.0
C2405 C 0.80212 0.29381 0.73337 0.0
H2406 H 0.8503 0.30758 0.73532 0.0
H2407 H 0.80651 0.32884 0.71368 0.0
C2408 C 0.90765 0.36441 0.70721 0.0
N2409 N 0.94771 0.36746 0.70315 0.0
C2410 C 0.91506 0.36037 0.69681 0.0
C2411 C 0.92056 0.37017 0.71552 0.0
C2412 C 0.93537 0.36196 0.69493 0.0
C2413 C 0.94078 0.37157 0.71331 0.0
C2414 C 0.85766 0.30515 0.70674 0.0
C2415 C 0.86536 0.28926 0.71267 0.0
C2416 C 0.84043 0.30263 0.70061 0.0
C2417 C 0.85557 0.27107 0.7124 0.0
C2418 C 0.83108 0.28421 0.70056 0.0
N2419 N 0.83877 0.26895 0.70641 0.0
C2420 C 0.91563 0.3165 0.72897 0.0
C2421 C 0.91817 0.31491 0.70971 0.0
C2422 C 0.93189 0.30392 0.73012 0.0
N2423 N 0.90914 0.32166 0.71888 0.0
C2424 C 0.9345 0.30242 0.71048 0.0
C2425 C 0.94141 0.29651 0.72078 0.0
H2426 H 0.90783 0.32164 0.73612 0.0
H2427 H 0.91238 0.31891 0.70179 0.0
C2428 C 0.8635 0.3736 0.68296 0.0
N2429 N 0.86269 0.35485 0.68692 0.0
C2430 C 0.86498 0.37687 0.67173 0.0
C2431 C 0.86419 0.3415 0.66892 0.0
C2432 C 0.86285 0.33892 0.68019 0.0
C2433 C 0.86568 0.36066 0.66455 0.0
H2434 H 0.86369 0.38596 0.68856 0.0
H2435 H 0.86255 0.32417 0.68357 0.0
O2436 O 0.87013 0.3425 0.73 0.0
O2437 O 0.84379 0.36233 0.71181 0.0
O2438 O 0.88784 0.36278 0.70925 0.0
O2439 O 0.8667 0.32321 0.70716 0.0
H2440 H 0.84043 0.343 0.74411 0.0
H2441 H 0.90176 0.35788 0.73948 0.0
H2442 H 0.8427 0.35544 0.76308 0.0
H2443 H 0.90288 0.37033 0.7585 0.0
H2444 H 0.78336 0.36817 0.696 0.0
H2445 H 0.82315 0.36943 0.72974 0.0
H2446 H 0.81957 0.36218 0.69492 0.0
H2447 H 0.78695 0.37541 0.73021 0.0
H2448 H 0.84932 0.41956 0.74773 0.0
H2449 H 0.89147 0.43597 0.72283 0.0
H2450 H 0.82656 0.28441 0.74359 0.0
H2451 H 0.78167 0.30661 0.7217 0.0
H2452 H 0.90525 0.35591 0.69029 0.0
H2453 H 0.91502 0.37352 0.72358 0.0
H2454 H 0.94134 0.35879 0.68693 0.0
H2455 H 0.95096 0.37595 0.71968 0.0
H2456 H 0.87863 0.29103 0.71751 0.0
H2457 H 0.83417 0.31487 0.69608 0.0
H2458 H 0.8613 0.25867 0.71698 0.0
H2459 H 0.81765 0.28207 0.69591 0.0
H2460 H 0.93651 0.2995 0.73822 0.0
H2461 H 0.94149 0.29728 0.70306 0.0
H2462 H 0.86636 0.39189 0.66877 0.0
H2463 H 0.86437 0.32857 0.66372 0.0
Li2464 Li 0.40157 0.88123 0.04727 0.0
Li2465 Li 0.41428 0.86128 0.03198 0.0
Li2466 Li 0.41532 0.89787 0.03122 0.0
Li2467 Li 0.38397 0.88058 0.0295 0.0
C2468 C 0.44191 0.89071 0.04788 0.0
N2469 N 0.46767 0.9129 0.06036 0.0
C2470 C 0.46135 0.88433 0.04945 0.0
C2471 C 0.43557 0.9084 0.05263 0.0
C2472 C 0.47415 0.89574 0.0558 0.0
C2473 C 0.44882 0.91941 0.05892 0.0
C2474 C 0.37991 0.84071 0.03936 0.0
C2475 C 0.36397 0.81487 0.02907 0.0
N2476 N 0.36198 0.80407 0.03837 0.0
C2477 C 0.37758 0.82945 0.04883 0.0
C2478 C 0.37296 0.83346 0.02941 0.0
C2479 C 0.36853 0.81092 0.04815 0.0
C2480 C 0.38051 0.88672 0.06685 0.0
N2481 N 0.39809 0.88084 0.06258 0.0
C2482 C 0.4099 0.87157 0.0802 0.0
C2483 C 0.41268 0.87337 0.06898 0.0
C2484 C 0.39172 0.87709 0.08488 0.0
C2485 C 0.37697 0.88494 0.07804 0.0
H2486 H 0.36906 0.89231 0.06151 0.0
H2487 H 0.42639 0.86847 0.06534 0.0
C2488 C 0.44107 0.83843 0.01982 0.0
N2489 N 0.42846 0.83799 0.02844 0.0
C2490 C 0.45301 0.82212 0.0175 0.0
C2491 C 0.43856 0.80513 0.03291 0.0
C2492 C 0.42702 0.82182 0.03498 0.0
C2493 C 0.45193 0.80523 0.02414 0.0
H2494 H 0.44216 0.85165 0.01488 0.0
H2495 H 0.41736 0.82208 0.04198 0.0
C2496 C 0.38112 0.92095 0.03582 0.0
N2497 N 0.36318 0.95566 0.02928 0.0
C2498 C 0.37884 0.9251 0.02473 0.0
C2499 C 0.37427 0.93441 0.04359 0.0
C2500 C 0.36972 0.94273 0.02158 0.0
C2501 C 0.36524 0.95189 0.04012 0.0
C2502 C 0.40538 0.87701 0.00887 0.0
C2503 C 0.40735 0.89351 0.00209 0.0
C2504 C 0.40152 0.85848 0.0043 0.0
C2505 C 0.40503 0.89124 0.99084 0.0
C2506 C 0.3993 0.85683 0.99301 0.0
N2507 N 0.40106 0.87311 0.98657 0.0
C2508 C 0.44704 0.91299 0.01983 0.0
C2509 C 0.42831 0.93817 0.02843 0.0
C2510 C 0.46005 0.92696 0.01553 0.0
N2511 N 0.43149 0.91879 0.02606 0.0
C2512 C 0.44087 0.95268 0.02421 0.0
C2513 C 0.457 0.94717 0.01763 0.0
H2514 H 0.44931 0.89743 0.01821 0.0
H2515 H 0.41607 0.9424 0.03358 0.0
C2516 C 0.34295 0.87789 0.03052 0.0
N2517 N 0.35804 0.88065 0.02336 0.0
C2518 C 0.32338 0.87776 0.02688 0.0
C2519 C 0.33522 0.88328 0.00854 0.0
C2520 C 0.35454 0.88343 0.01255 0.0
C2521 C 0.31933 0.88043 0.01574 0.0
H2522 H 0.34617 0.87577 0.03908 0.0
H2523 H 0.36664 0.88596 0.00701 0.0
O2524 O 0.42928 0.87974 0.04161 0.0
O2525 O 0.38881 0.85883 0.03991 0.0
O2526 O 0.39007 0.90385 0.03912 0.0
O2527 O 0.40758 0.87898 0.0199 0.0
H2528 H 0.46647 0.87068 0.0458 0.0
H2529 H 0.4206 0.91362 0.05148 0.0
H2530 H 0.48924 0.89098 0.0571 0.0
H2531 H 0.44412 0.93312 0.06264 0.0
H2532 H 0.35853 0.80905 0.02142 0.0
H2533 H 0.38283 0.83494 0.0566 0.0
H2534 H 0.37437 0.84212 0.02205 0.0
H2535 H 0.36671 0.80199 0.0554 0.0
H2536 H 0.42185 0.86577 0.08512 0.0
H2537 H 0.36262 0.8891 0.08121 0.0
H2538 H 0.4631 0.82276 0.01065 0.0
H2539 H 0.43756 0.79258 0.03837 0.0
H2540 H 0.38411 0.91485 0.01864 0.0
H2541 H 0.37596 0.93139 0.05221 0.0
H2542 H 0.36787 0.94614 0.01303 0.0
H2543 H 0.3599 0.96248 0.04604 0.0
H2544 H 0.41057 0.90793 0.00547 0.0
H2545 H 0.40035 0.84548 0.0094 0.0
H2546 H 0.40639 0.9039 0.9855 0.0
H2547 H 0.39624 0.84259 0.98937 0.0
H2548 H 0.47248 0.92191 0.01072 0.0
H2549 H 0.4378 0.96806 0.02599 0.0
H2550 H 0.31157 0.87536 0.0327 0.0
H2551 H 0.33273 0.88571 -8e-05 0.0
Li2552 Li 0.88707 0.66307 0.78249 0.0
Li2553 Li 0.86664 0.65026 0.79767 0.0
Li2554 Li 0.87009 0.63298 0.78021 0.0
Li2555 Li 0.85155 0.66446 0.78083 0.0
C2556 C 0.90029 0.62091 0.79188 0.0
N2557 N 0.91791 0.58406 0.79296 0.0
C2558 C 0.89702 0.60865 0.80088 0.0
C2559 C 0.91277 0.6145 0.78351 0.0
C2560 C 0.90602 0.59007 0.80126 0.0
C2561 C 0.92146 0.5958 0.78417 0.0
C2562 C 0.85718 0.6903 0.79826 0.0
C2563 C 0.82753 0.69724 0.8085 0.0
N2564 N 0.83479 0.71543 0.81102 0.0
C2565 C 0.86434 0.70905 0.80095 0.0
C2566 C 0.83862 0.68432 0.80205 0.0
C2567 C 0.8528 0.72155 0.80741 0.0
C2568 C 0.90791 0.69754 0.77707 0.0
N2569 N 0.91018 0.67816 0.77971 0.0
C2570 C 0.94532 0.68155 0.77971 0.0
C2571 C 0.92838 0.66998 0.78097 0.0
C2572 C 0.94347 0.70176 0.77722 0.0
C2573 C 0.92444 0.70966 0.77573 0.0
H2574 H 0.8932 0.70366 0.77624 0.0
H2575 H 0.92975 0.65459 0.78319 0.0
C2576 C 0.85508 0.63068 0.81692 0.0
N2577 N 0.86413 0.64715 0.81298 0.0
C2578 C 0.85464 0.62705 0.82812 0.0
C2579 C 0.87198 0.65787 0.83103 0.0
C2580 C 0.87239 0.66075 0.81976 0.0
C2581 C 0.86333 0.64067 0.83531 0.0
H2582 H 0.84884 0.62003 0.81131 0.0
H2583 H 0.87971 0.67359 0.81639 0.0
C2584 C 0.88126 0.66405 0.76156 0.0
N2585 N 0.9033 0.68274 0.7456 0.0
C2586 C 0.87428 0.68138 0.75668 0.0
C2587 C 0.89933 0.65607 0.75819 0.0
C2588 C 0.88566 0.69064 0.74866 0.0
C2589 C 0.91029 0.66578 0.75015 0.0
C2590 C 0.82814 0.62964 0.7868 0.0
C2591 C 0.82419 0.62111 0.77664 0.0
C2592 C 0.81418 0.62818 0.79516 0.0
C2593 C 0.80628 0.61123 0.77503 0.0
C2594 C 0.79643 0.61822 0.79321 0.0
N2595 N 0.79289 0.61001 0.78327 0.0
C2596 C 0.86445 0.59179 0.78079 0.0
C2597 C 0.87658 0.60376 0.7639 0.0
C2598 C 0.86461 0.57241 0.77688 0.0
N2599 N 0.87044 0.60693 0.7743 0.0
C2600 C 0.87707 0.5846 0.75967 0.0
C2601 C 0.87103 0.56858 0.76618 0.0
H2602 H 0.85951 0.59481 0.78902 0.0
H2603 H 0.88114 0.61609 0.7589 0.0
C2604 C 0.83383 0.70018 0.77471 0.0
N2605 N 0.83021 0.68044 0.77549 0.0
C2606 C 0.81947 0.71297 0.77059 0.0
C2607 C 0.79771 0.68498 0.7682 0.0
C2608 C 0.81252 0.67273 0.77236 0.0
C2609 C 0.80113 0.7054 0.76721 0.0
H2610 H 0.84807 0.70597 0.77714 0.0
H2611 H 0.80988 0.65709 0.77294 0.0
O2612 O 0.89128 0.63902 0.79126 0.0
O2613 O 0.8683 0.67801 0.79187 0.0
O2614 O 0.87047 0.65496 0.76957 0.0
O2615 O 0.84573 0.63903 0.78866 0.0
H2616 H 0.88763 0.61338 0.8075 0.0
H2617 H 0.91553 0.62374 0.77649 0.0
H2618 H 0.90352 0.58041 0.80816 0.0
H2619 H 0.93098 0.5906 0.77769 0.0
H2620 H 0.81314 0.69281 0.81148 0.0
H2621 H 0.87866 0.7139 0.79805 0.0
H2622 H 0.8328 0.66989 0.80002 0.0
H2623 H 0.85815 0.73611 0.80955 0.0
H2624 H 0.9597 0.67479 0.78081 0.0
H2625 H 0.92229 0.7252 0.77396 0.0
H2626 H 0.84778 0.61364 0.83113 0.0
H2627 H 0.87903 0.6686 0.83631 0.0
H2628 H 0.86023 0.68763 0.75905 0.0
H2629 H 0.90496 0.64267 0.76182 0.0
H2630 H 0.88047 0.70411 0.74487 0.0
H2631 H 0.92438 0.65986 0.74755 0.0
H2632 H 0.83469 0.62235 0.77002 0.0
H2633 H 0.817 0.63471 0.80306 0.0
H2634 H 0.803 0.60461 0.76721 0.0
H2635 H 0.78547 0.617 0.7996 0.0
H2636 H 0.8595 0.56062 0.78215 0.0
H2637 H 0.88236 0.58237 0.75143 0.0
H2638 H 0.82269 0.72863 0.7701 0.0
H2639 H 0.7839 0.67845 0.76555 0.0
Li2640 Li 0.08504 0.13997 0.5321 0.0
Li2641 Li 0.0975 0.11982 0.54757 0.0
Li2642 Li 0.11528 0.12124 0.5296 0.0
Li2643 Li 0.0845 0.10276 0.53111 0.0
C2644 C 0.11298 0.16237 0.54234 0.0
N2645 N 0.11793 0.20221 0.54651 0.0
C2646 C 0.11108 0.1696 0.55297 0.0
C2647 C 0.11758 0.17537 0.53385 0.0
C2648 C 0.1136 0.1898 0.5549 0.0
C2649 C 0.11996 0.19547 0.53612 0.0
C2650 C 0.0543 0.11737 0.54765 0.0
C2651 C 0.03339 0.09503 0.55776 0.0
N2652 N 0.02152 0.11045 0.56055 0.0
C2653 C 0.04182 0.13298 0.55056 0.0
C2654 C 0.05001 0.09822 0.55123 0.0
C2655 C 0.02535 0.12918 0.55711 0.0
C2656 C 0.0617 0.16428 0.51855 0.0
N2657 N 0.07023 0.16301 0.52858 0.0
C2658 C 0.05566 0.19368 0.53394 0.0
C2659 C 0.06728 0.17719 0.53627 0.0
C2660 C 0.0465 0.19525 0.52372 0.0
C2661 C 0.04956 0.18033 0.51596 0.0
H2662 H 0.06401 0.15261 0.51266 0.0
H2663 H 0.07351 0.17546 0.54431 0.0
C2664 C 0.12003 0.11781 0.56667 0.0
N2665 N 0.10116 0.11962 0.56298 0.0
C2666 C 0.12417 0.11958 0.57779 0.0
C2667 C 0.0893 0.12438 0.58113 0.0
C2668 C 0.08588 0.12274 0.56996 0.0
C2669 C 0.1087 0.1232 0.5852 0.0
H2670 H 0.13194 0.11559 0.56091 0.0
H2671 H 0.07105 0.12444 0.56691 0.0
C2672 C 0.10012 0.12263 0.50959 0.0
N2673 N 0.11748 0.12308 0.48921 0.0
C2674 C 0.10137 0.10524 0.50348 0.0
C2675 C 0.10745 0.1403 0.50529 0.0
C2676 C 0.11026 0.10576 0.4932 0.0
C2677 C 0.11625 0.14021 0.49499 0.0
C2678 C 0.11163 0.07884 0.54258 0.0
C2679 C 0.12451 0.06581 0.53731 0.0
C2680 C 0.10091 0.07239 0.55165 0.0
C2681 C 0.12612 0.04637 0.54106 0.0
C2682 C 0.10293 0.05284 0.55515 0.0
N2683 N 0.11536 0.04033 0.54982 0.0
C2684 C 0.15354 0.13621 0.52584 0.0
C2685 C 0.14658 0.10638 0.51647 0.0
C2686 C 0.17265 0.13659 0.52158 0.0
N2687 N 0.14092 0.12133 0.52319 0.0
C2688 C 0.16556 0.10619 0.51198 0.0
C2689 C 0.17892 0.12144 0.51454 0.0
H2690 H 0.14888 0.14764 0.53142 0.0
H2691 H 0.13638 0.09453 0.51464 0.0
C2692 C 0.04934 0.08427 0.52494 0.0
N2693 N 0.06915 0.08121 0.52579 0.0
C2694 C 0.03705 0.06953 0.52078 0.0
C2695 C 0.06583 0.0489 0.5181 0.0
C2696 C 0.07756 0.06402 0.5224 0.0
C2697 C 0.04527 0.05157 0.51727 0.0
H2698 H 0.0431 0.09832 0.52736 0.0
H2699 H 0.09339 0.06216 0.52282 0.0
O2700 O 0.11052 0.14264 0.54028 0.0
O2701 O 0.07052 0.12087 0.54127 0.0
O2702 O 0.09167 0.12238 0.51972 0.0
O2703 O 0.10994 0.09793 0.53901 0.0
H2704 H 0.10756 0.15976 0.55964 0.0
H2705 H 0.11923 0.17001 0.5256 0.0
H2706 H 0.11208 0.19562 0.56308 0.0
H2707 H 0.12343 0.20572 0.52962 0.0
H2708 H 0.02991 0.08028 0.56059 0.0
H2709 H 0.04486 0.14787 0.54783 0.0
H2710 H 0.05928 0.0859 0.54891 0.0
H2711 H 0.01561 0.14114 0.55946 0.0
H2712 H 0.05327 0.20474 0.54019 0.0
H2713 H 0.04258 0.18105 0.50802 0.0
H2714 H 0.1394 0.1188 0.58049 0.0
H2715 H 0.07682 0.12678 0.58651 0.0
H2716 H 0.09569 0.09146 0.50668 0.0
H2717 H 0.10636 0.15392 0.50987 0.0
H2718 H 0.11145 0.09239 0.48841 0.0
H2719 H 0.12209 0.15376 0.49158 0.0
H2720 H 0.13308 0.07063 0.53035 0.0
H2721 H 0.09123 0.08238 0.55598 0.0
H2722 H 0.13592 0.03608 0.537 0.0
H2723 H 0.09466 0.04763 0.56214 0.0
H2724 H 0.18255 0.1484 0.52398 0.0
H2725 H 0.16969 0.09428 0.50653 0.0
H2726 H 0.02134 0.07236 0.52007 0.0
H2727 H 0.07276 0.03527 0.51546 0.0
Li2728 Li 0.63668 0.35022 0.29734 0.0
Li2729 Li 0.61415 0.3352 0.28298 0.0
Li2730 Li 0.64979 0.33665 0.28043 0.0
Li2731 Li 0.63122 0.36655 0.27918 0.0
C2732 C 0.64515 0.30526 0.29256 0.0
N2733 N 0.66705 0.27079 0.29251 0.0
C2734 C 0.63845 0.28875 0.28679 0.0
C2735 C 0.66292 0.30423 0.29836 0.0
C2736 C 0.64975 0.27146 0.28686 0.0
C2737 C 0.67379 0.28667 0.29822 0.0
C2738 C 0.59407 0.37056 0.28907 0.0
C2739 C 0.56689 0.379 0.27724 0.0
N2740 N 0.55866 0.38979 0.28542 0.0
C2741 C 0.58538 0.38173 0.29737 0.0
C2742 C 0.58478 0.36914 0.27893 0.0
C2743 C 0.56745 0.39133 0.29537 0.0
C2744 C 0.63736 0.37324 0.31647 0.0
N2745 N 0.63881 0.35451 0.31254 0.0
C2746 C 0.63881 0.3413 0.3306 0.0
C2747 C 0.63975 0.33866 0.31933 0.0
C2748 C 0.6366 0.36042 0.33493 0.0
C2749 C 0.63626 0.37657 0.32771 0.0
H2750 H 0.63631 0.38553 0.31085 0.0
H2751 H 0.64056 0.3239 0.31598 0.0
C2752 C 0.58897 0.30767 0.27262 0.0
N2753 N 0.59088 0.32009 0.28127 0.0
C2754 C 0.57248 0.29531 0.27181 0.0
C2755 C 0.56015 0.30915 0.28867 0.0
C2756 C 0.57688 0.32116 0.28918 0.0
C2757 C 0.55792 0.29576 0.27999 0.0
H2758 H 0.60053 0.30699 0.26654 0.0
H2759 H 0.57891 0.33111 0.296 0.0
C2760 C 0.67544 0.36732 0.28748 0.0
N2761 N 0.71498 0.3775 0.28763 0.0
C2762 C 0.68397 0.37621 0.27833 0.0
C2763 C 0.68688 0.36397 0.29679 0.0
C2764 C 0.70403 0.38114 0.27854 0.0
C2765 C 0.70689 0.36913 0.29668 0.0
C2766 C 0.63075 0.34672 0.259 0.0
C2767 C 0.649 0.35284 0.25486 0.0
C2768 C 0.61465 0.3445 0.25196 0.0
C2769 C 0.65079 0.35686 0.24373 0.0
C2770 C 0.61702 0.34868 0.24088 0.0
N2771 N 0.63489 0.35473 0.23703 0.0
C2772 C 0.66535 0.30881 0.26597 0.0
C2773 C 0.68983 0.32193 0.27773 0.0
C2774 C 0.6792 0.29628 0.26112 0.0
N2775 N 0.67084 0.32136 0.27409 0.0
C2776 C 0.70421 0.30977 0.27306 0.0
C2777 C 0.69894 0.29668 0.26466 0.0
H2778 H 0.65009 0.30832 0.26335 0.0
H2779 H 0.69381 0.33139 0.28444 0.0
C2780 C 0.63903 0.40683 0.27801 0.0
N2781 N 0.62927 0.39209 0.27273 0.0
C2782 C 0.63858 0.42611 0.27397 0.0
C2783 C 0.6179 0.41479 0.25916 0.0
C2784 C 0.6187 0.3957 0.26351 0.0
C2785 C 0.62793 0.43031 0.26441 0.0
H2786 H 0.64721 0.40356 0.28537 0.0
H2787 H 0.61074 0.38386 0.25957 0.0
O2788 O 0.63459 0.3225 0.29233 0.0
O2789 O 0.61152 0.36093 0.29094 0.0
O2790 O 0.65581 0.36255 0.28749 0.0
O2791 O 0.62863 0.34261 0.26985 0.0
H2792 H 0.62477 0.28935 0.28223 0.0
H2793 H 0.66842 0.31698 0.30275 0.0
H2794 H 0.64481 0.25859 0.28238 0.0
H2795 H 0.68764 0.2857 0.30259 0.0
H2796 H 0.55954 0.37804 0.26942 0.0
H2797 H 0.5924 0.3829 0.30528 0.0
H2798 H 0.59128 0.36048 0.27244 0.0
H2799 H 0.56052 0.4 0.30172 0.0
H2800 H 0.63942 0.32844 0.33585 0.0
H2801 H 0.63431 0.39153 0.33066 0.0
H2802 H 0.57151 0.28505 0.26505 0.0
H2803 H 0.54917 0.31022 0.29507 0.0
H2804 H 0.67519 0.37941 0.27118 0.0
H2805 H 0.68041 0.3573 0.30397 0.0
H2806 H 0.71087 0.38793 0.2715 0.0
H2807 H 0.71598 0.36649 0.30379 0.0
H2808 H 0.66166 0.35433 0.26017 0.0
H2809 H 0.60043 0.33972 0.25504 0.0
H2810 H 0.66482 0.36161 0.24041 0.0
H2811 H 0.60467 0.34712 0.23535 0.0
H2812 H 0.67452 0.28647 0.25464 0.0
H2813 H 0.71918 0.31027 0.27618 0.0
H2814 H 0.6467 0.43755 0.27822 0.0
H2815 H 0.60926 0.41741 0.25187 0.0
H2816 H 0.99192 0.55807 0.99156 0.0
H2817 H 0.01356 0.4431 0.00109 0.0
H2818 H 0.95176 0.51155 0.98199 0.0
H2819 H 0.04794 0.48972 0.0159 0.0
H2820 H 0.99229 0.46797 0.99275 0.0
H2821 H 0.0141 0.53322 0.99924 0.0
C2822 C 0.98769 0.54264 0.99111 0.0
C2823 C 0.96983 0.53694 0.98617 0.0
C2824 C 0.00449 0.47277 0.99782 0.0
C2825 C 0.99538 0.50836 0.99482 0.0
C2826 C 0.0166 0.45856 0.00265 0.0
C2827 C 0.03251 0.46428 0.00931 0.0
C2828 C 0.00831 0.49291 0.99959 0.0
C2829 C 0.03597 0.48459 0.01077 0.0
C2830 C 0.00044 0.52846 0.99545 0.0
C2831 C 0.96542 0.51667 0.98562 0.0
N2832 N 0.02395 0.49816 0.00598 0.0
N2833 N 0.97808 0.50313 0.9899 0.0
H2834 H 0.72544 0.69561 0.24937 0.0
H2835 H 0.76961 0.80529 0.25351 0.0
H2836 H 0.70346 0.74485 0.23054 0.0
H2837 H 0.7923 0.7555 0.27163 0.0
H2838 H 0.74451 0.78373 0.24547 0.0
H2839 H 0.74962 0.71755 0.25786 0.0
C2840 C 0.72578 0.71102 0.24696 0.0
C2841 C 0.71243 0.71837 0.23919 0.0
C2842 C 0.75495 0.77753 0.25122 0.0
C2843 C 0.73997 0.74367 0.249 0.0
C2844 C 0.76921 0.78987 0.25587 0.0
C2845 C 0.78313 0.78219 0.26324 0.0
C2846 C 0.75456 0.75736 0.25397 0.0
C2847 C 0.78206 0.76201 0.26587 0.0
C2848 C 0.73952 0.72357 0.25187 0.0
C2849 C 0.71333 0.73857 0.23656 0.0
N2850 N 0.76806 0.75031 0.26124 0.0
N2851 N 0.72688 0.7505 0.24143 0.0
H2852 H 0.5037 0.44109 0.49009 0.0
H2853 H 0.48761 0.55517 0.50478 0.0
H2854 H 0.54726 0.4865 0.48411 0.0
H2855 H 0.44921 0.5086 0.51628 0.0
H2856 H 0.50822 0.53047 0.49585 0.0
H2857 H 0.48214 0.46589 0.49836 0.0
C2858 C 0.50878 0.45625 0.49054 0.0
C2859 C 0.52742 0.46166 0.48644 0.0
C2860 C 0.4953 0.52564 0.50033 0.0
C2861 C 0.50263 0.49019 0.49578 0.0
C2862 C 0.48356 0.53974 0.50551 0.0
C2863 C 0.46671 0.53398 0.51141 0.0
C2864 C 0.49015 0.50557 0.50097 0.0
C2865 C 0.46196 0.51377 0.51177 0.0
C2866 C 0.49641 0.47042 0.49522 0.0
C2867 C 0.53297 0.48164 0.48704 0.0
N2868 N 0.47364 0.50029 0.50664 0.0
N2869 N 0.52066 0.49515 0.49164 0.0
H2870 H 0.80639 0.25438 0.73781 0.0
H2871 H 0.70286 0.24534 0.76863 0.0
H2872 H 0.76476 0.30247 0.74036 0.0
H2873 H 0.73475 0.19444 0.75665 0.0
H2874 H 0.72746 0.26681 0.76021 0.0
H2875 H 0.78224 0.23244 0.74655 0.0
C2876 C 0.79217 0.2603 0.74023 0.0
C2877 C 0.78752 0.28024 0.73837 0.0
C2878 C 0.72906 0.25094 0.75942 0.0
C2879 C 0.75997 0.25535 0.74839 0.0
C2880 C 0.71497 0.23863 0.76419 0.0
C2881 C 0.71655 0.21798 0.76327 0.0
C2882 C 0.74504 0.2426 0.75376 0.0
C2883 C 0.73296 0.21023 0.75767 0.0
C2884 C 0.7784 0.24778 0.74517 0.0
C2885 C 0.76884 0.28715 0.74157 0.0
N2886 N 0.74655 0.22255 0.75312 0.0
N2887 N 0.75579 0.27475 0.74648 0.0
H2888 H 0.94368 0.47933 0.50186 0.0
H2889 H 0.05495 0.51748 0.49454 0.0
H2890 H 0.99358 0.45364 0.51866 0.0
H2891 H 0.00401 0.54936 0.48272 0.0
H2892 H 0.0329 0.49248 0.50231 0.0
H2893 H 0.96572 0.504 0.49388 0.0
C2894 C 0.95923 0.47894 0.50395 0.0
C2895 C 0.96674 0.46435 0.51097 0.0
C2896 C 0.02655 0.50495 0.49802 0.0
C2897 C 0.99215 0.49241 0.50169 0.0
C2898 C 0.03913 0.51914 0.49352 0.0
C2899 C 0.0313 0.53554 0.488 0.0
C2900 C 0.00598 0.50708 0.49692 0.0
C2901 C 0.01067 0.53708 0.48703 0.0
C2902 C 0.97184 0.49297 0.49933 0.0
C2903 C 0.98714 0.46439 0.51317 0.0
N2904 N 0.99873 0.52302 0.49143 0.0
N2905 N 0.99911 0.47818 0.50855 0.0
H2906 H 0.73867 0.79633 0.73112 0.0
H2907 H 0.76099 0.70445 0.77051 0.0
H2908 H 0.69329 0.76248 0.74737 0.0
H2909 H 0.8063 0.73651 0.75313 0.0
H2910 H 0.73603 0.72599 0.76239 0.0
H2911 H 0.76376 0.7752 0.73952 0.0
C2912 C 0.73399 0.78452 0.7365 0.0
C2913 C 0.71384 0.78115 0.73853 0.0
C2914 C 0.75143 0.72833 0.76035 0.0
C2915 C 0.74248 0.75681 0.74811 0.0
C2916 C 0.76569 0.71597 0.76495 0.0
C2917 C 0.7858 0.71864 0.7625 0.0
C2918 C 0.75727 0.74352 0.75323 0.0
C2919 C 0.79102 0.73405 0.75537 0.0
C2920 C 0.74832 0.77239 0.74125 0.0
C2921 C 0.70863 0.76545 0.74545 0.0
N2922 N 0.77685 0.74587 0.75098 0.0
N2923 N 0.72285 0.75389 0.75 0.0
H2924 H 0.44761 0.47097 0.00308 0.0
H2925 H 0.54439 0.5378 0.99616 0.0
H2926 H 0.4889 0.46449 0.97651 0.0
H2927 H 0.51308 0.53242 0.02666 0.0
H2928 H 0.52199 0.51349 0.98808 0.0
H2929 H 0.46918 0.49629 0.0111 0.0
C2930 C 0.46114 0.475 0.9989 0.0
C2931 C 0.46654 0.46561 0.98915 0.0
C2932 C 0.52003 0.51759 0.99655 0.0
C2933 C 0.49121 0.49442 0.99823 0.0
C2934 C 0.53274 0.53152 0.00114 0.0
C2935 C 0.53057 0.5371 0.01209 0.0
C2936 C 0.50488 0.50931 0.00291 0.0
C2937 C 0.51536 0.52837 0.01822 0.0
C2938 C 0.47349 0.48931 0.00351 0.0
C2939 C 0.4843 0.47123 0.9841 0.0
N2940 N 0.50301 0.51496 0.01353 0.0
N2941 N 0.49597 0.48529 0.98869 0.0
H2942 H 0.76338 0.19542 0.23981 0.0
H2943 H 0.73687 0.30564 0.25859 0.0
H2944 H 0.80142 0.24568 0.23419 0.0
H2945 H 0.69508 0.25745 0.25944 0.0
H2946 H 0.76133 0.28347 0.25046 0.0
H2947 H 0.73858 0.21757 0.24761 0.0
C2948 C 0.76648 0.21112 0.24013 0.0
C2949 C 0.78457 0.21866 0.23634 0.0
C2950 C 0.7468 0.27775 0.2524 0.0
C2951 C 0.75631 0.24409 0.24542 0.0
C2952 C 0.73287 0.29037 0.2571 0.0
C2953 C 0.7139 0.28339 0.25969 0.0
C2954 C 0.7418 0.25793 0.25034 0.0
C2955 C 0.70945 0.26351 0.25746 0.0
C2956 C 0.75234 0.22375 0.24465 0.0
C2957 C 0.78785 0.23912 0.23716 0.0
N2958 N 0.72331 0.25147 0.25295 0.0
N2959 N 0.77389 0.25109 0.24162 0.0
H2960 H 0.30171 0.27723 0.74629 0.0
H2961 H 0.19374 0.22963 0.7515 0.0
H2962 H 0.26367 0.28591 0.77416 0.0
H2963 H 0.2342 0.21642 0.72527 0.0
H2964 H 0.21842 0.25174 0.75943 0.0
H2965 H 0.27653 0.25614 0.73808 0.0
C2966 C 0.2881 0.27463 0.75072 0.0
C2967 C 0.28489 0.28329 0.76098 0.0
C2968 C 0.22191 0.24402 0.75194 0.0
C2969 C 0.25581 0.2593 0.75152 0.0
C2970 C 0.20777 0.23149 0.74736 0.0
C2971 C 0.2119 0.22116 0.73769 0.0
C2972 C 0.24032 0.24632 0.7468 0.0
C2973 C 0.23046 0.2239 0.7328 0.0
C2974 C 0.27367 0.26266 0.74599 0.0
C2975 C 0.26674 0.27972 0.7662 0.0
N2976 N 0.24396 0.23623 0.7374 0.0
N2977 N 0.25292 0.26797 0.76142 0.0
H2978 H 0.195 0.72604 0.2479 0.0
H2979 H 0.30544 0.76818 0.25139 0.0
H2980 H 0.23589 0.71089 0.27362 0.0
H2981 H 0.26293 0.78665 0.22719 0.0
H2982 H 0.28062 0.74614 0.25925 0.0
H2983 H 0.22004 0.74757 0.23991 0.0
C2984 C 0.20921 0.72731 0.25192 0.0
C2985 C 0.21328 0.71669 0.2615 0.0
C2986 C 0.27671 0.75502 0.25222 0.0
C2987 C 0.24218 0.74117 0.25227 0.0
C2988 C 0.29092 0.76752 0.24769 0.0
C2989 C 0.28628 0.77929 0.2386 0.0
C2990 C 0.2577 0.7542 0.24763 0.0
C2991 C 0.2671 0.77804 0.23427 0.0
C2992 C 0.22355 0.73954 0.24731 0.0
C2993 C 0.23214 0.71863 0.26618 0.0
N2994 N 0.25354 0.76571 0.23881 0.0
N2995 N 0.24587 0.73065 0.26153 0.0
H2996 H 0.27796 0.23447 0.27823 0.0
H2997 H 0.2227 0.26608 0.22314 0.0
H2998 H 0.28844 0.20706 0.24696 0.0
H2999 H 0.21382 0.29552 0.25398 0.0
H3000 H 0.2468 0.24428 0.2318 0.0
H3001 H 0.25447 0.25703 0.26957 0.0
C3002 C 0.27538 0.23323 0.26954 0.0
C3003 C 0.28517 0.21879 0.26333 0.0
C3004 C 0.23963 0.25554 0.23668 0.0
C3005 C 0.25818 0.24448 0.25337 0.0
C3006 C 0.2258 0.26794 0.23175 0.0
C3007 C 0.21617 0.28262 0.23785 0.0
C3008 C 0.24387 0.25775 0.24783 0.0
C3009 C 0.22102 0.28454 0.24894 0.0
C3010 C 0.2619 0.24607 0.26461 0.0
C3011 C 0.28102 0.21772 0.25212 0.0
N3012 N 0.23447 0.2722 0.25358 0.0
N3013 N 0.26787 0.23038 0.24751 0.0
H3014 H 0.22376 0.76958 0.7774 0.0
H3015 H 0.27051 0.72302 0.72315 0.0
H3016 H 0.20693 0.78735 0.74487 0.0
H3017 H 0.29266 0.71116 0.7555 0.0
H3018 H 0.24566 0.74508 0.73102 0.0
H3019 H 0.24805 0.74694 0.76957 0.0
C3020 C 0.22525 0.76884 0.76861 0.0
C3021 C 0.21327 0.78045 0.7618 0.0
C3022 C 0.25595 0.73764 0.7364 0.0
C3023 C 0.24088 0.75428 0.75277 0.0
C3024 C 0.27005 0.72494 0.73192 0.0
C3025 C 0.2837 0.71525 0.73868 0.0
C3026 C 0.25543 0.74062 0.74774 0.0
C3027 C 0.28258 0.71851 0.74998 0.0
C3028 C 0.23905 0.7558 0.76415 0.0
C3029 C 0.21563 0.77853 0.75046 0.0
N3030 N 0.26869 0.7309 0.75414 0.0
N3031 N 0.22914 0.7657 0.74631 0.0
H3032 H 0.52669 0.94858 0.49612 0.0
H3033 H 0.47643 0.055 0.50255 0.0
H3034 H 0.53134 0.98383 0.52538 0.0
H3035 H 0.46309 0.01465 0.4763 0.0
H3036 H 0.4986 0.03024 0.51043 0.0
H3037 H 0.50516 0.97366 0.48821 0.0
C3038 C 0.52311 0.96153 0.50093 0.0
C3039 C 0.53078 0.96397 0.51149 0.0
C3040 C 0.4908 0.0268 0.50295 0.0
C3041 C 0.50632 0.993 0.50234 0.0
C3042 C 0.47825 0.04097 0.49841 0.0
C3043 C 0.46789 0.03689 0.48874 0.0
C3044 C 0.49315 0.00845 0.49775 0.0
C3045 C 0.47061 0.01835 0.48382 0.0
C3046 C 0.51087 0.97591 0.49636 0.0
C3047 C 0.52596 0.98135 0.51718 0.0
N3048 N 0.48301 0.00485 0.48836 0.0
N3049 N 0.51404 0.99519 0.51254 0.0
H3050 H 0.03465 0.95212 0.00443 0.0
H3051 H 0.96791 0.0479 0.99403 0.0
H3052 H 0.02407 0.97671 0.97246 0.0
H3053 H 0.97106 0.01764 0.02497 0.0
H3054 H 0.98967 0.02286 0.98613 0.0
H3055 H 0.01246 0.97679 0.01221 0.0
C3056 C 0.02758 0.96262 0.99902 0.0
C3057 C 0.03122 0.96225 0.98774 0.0
C3058 C 0.98557 0.02166 0.99464 0.0
C3059 C 0.00596 0.99079 0.99667 0.0
C3060 C 0.97324 0.03601 0.99917 0.0
C3061 C 0.96771 0.03488 0.01019 0.0
C3062 C 0.99256 0.00612 0.00117 0.0
C3063 C 0.97481 0.01898 0.01642 0.0
C3064 C 0.01497 0.97678 0.00349 0.0
C3065 C 0.02193 0.97654 0.9812 0.0
N3066 N 0.98693 0.00527 0.01183 0.0
N3067 N 0.00974 0.99023 0.98576 0.0
H3068 H 0.5408 0.01139 0.9774 0.0
H3069 H 0.4699 0.98183 0.02699 0.0
H3070 H 0.52316 0.05231 0.00259 0.0
H3071 H 0.47511 0.94715 0.99755 0.0
H3072 H 0.49187 0.00656 0.01903 0.0
H3073 H 0.51961 0.98613 0.98568 0.0
C3074 C 0.53255 0.01501 0.98471 0.0
C3075 C 0.53366 0.03399 0.98929 0.0
C3076 C 0.48819 0.99352 0.01432 0.0
C3077 C 0.5094 0.00524 0.99878 0.0
C3078 C 0.47554 0.97943 0.01884 0.0
C3079 C 0.47054 0.96232 0.01295 0.0
C3080 C 0.49607 0.99048 0.00386 0.0
C3081 C 0.47873 0.9599 0.00249 0.0
C3082 C 0.52038 0.00065 0.98939 0.0
C3083 C 0.52253 0.03794 0.99871 0.0
N3084 N 0.49109 0.97379 0.9983 0.0
N3085 N 0.5109 0.02369 0.00315 0.0
H3086 H 0.05216 0.0291 0.49906 0.0
H3087 H 0.95084 0.9685 0.50372 0.0
H3088 H 0.00916 0.03874 0.52451 0.0
H3089 H 0.98898 0.9665 0.4755 0.0
H3090 H 0.97282 0.99294 0.51195 0.0
H3091 H 0.03029 0.00432 0.49096 0.0
C3092 C 0.03819 0.02588 0.503 0.0
C3093 C 0.03247 0.03601 0.51247 0.0
C3094 C 0.97635 0.98717 0.50395 0.0
C3095 C 0.00728 0.0078 0.5032 0.0
C3096 C 0.96373 0.9733 0.4992 0.0
C3097 C 0.96801 0.96539 0.48887 0.0
C3098 C 0.99347 0.99317 0.49837 0.0
C3099 C 0.98519 0.97193 0.48353 0.0
C3100 C 0.02564 0.01185 0.49832 0.0
C3101 C 0.01406 0.03144 0.51713 0.0
N3102 N 0.99729 0.9854 0.48835 0.0
N3103 N 0.00214 0.01765 0.51246 0.0
H3104 H 0.97642 0.20619 0.04514 0.0
H3105 H 0.03348 0.28883 0.01054 0.0
H3106 H 0.96869 0.21363 0.01043 0.0
H3107 H 0.03821 0.28205 0.04543 0.0
H3108 H 0.01144 0.26006 0.00997 0.0
H3109 H 0.00037 0.23305 0.0451 0.0
C3110 C 0.97964 0.21359 0.03751 0.0
C3111 C 0.97035 0.20777 0.02779 0.0
C3112 C 0.01737 0.26484 0.01774 0.0
C3113 C 0.9981 0.23846 0.02765 0.0
C3114 C 0.03004 0.28117 0.01806 0.0
C3115 C 0.03754 0.28793 0.02806 0.0
C3116 C 0.01227 0.2552 0.02749 0.0
C3117 C 0.03248 0.27756 0.03756 0.0
C3118 C 0.99346 0.22885 0.03747 0.0
C3119 C 0.97554 0.21758 0.01811 0.0
N3120 N 0.02013 0.26178 0.03705 0.0
N3121 N 0.98903 0.23251 0.01829 0.0
H3122 H 0.04137 0.72479 0.29576 0.0
H3123 H 0.95773 0.77763 0.25986 0.0
H3124 H 0.03317 0.71314 0.26144 0.0
H3125 H 0.96721 0.78851 0.29416 0.0
H3126 H 0.98533 0.75416 0.26006 0.0
H3127 H 0.01413 0.74828 0.29514 0.0
C3128 C 0.03372 0.72704 0.2881 0.0
C3129 C 0.03949 0.71685 0.27865 0.0
C3130 C 0.9814 0.76177 0.26752 0.0
C3131 C 0.00836 0.74407 0.27784 0.0
C3132 C 0.96561 0.77511 0.26742 0.0
C3133 C 0.96018 0.78514 0.277 0.0
C3134 C 0.99176 0.75838 0.27727 0.0
C3135 C 0.97104 0.78142 0.28653 0.0
C3136 C 0.01823 0.7406 0.28773 0.0
C3137 C 0.0293 0.72076 0.26891 0.0
N3138 N 0.98625 0.76833 0.28643 0.0
N3139 N 0.01419 0.73404 0.26875 0.0
H3140 H 0.49346 0.69038 0.53237 0.0
H3141 H 0.51627 0.80034 0.51182 0.0
H3142 H 0.45137 0.72524 0.51419 0.0
H3143 H 0.55059 0.76991 0.53627 0.0
H3144 H 0.49446 0.77145 0.5105 0.0
H3145 H 0.51671 0.71791 0.53173 0.0
C3146 C 0.48919 0.70376 0.52812 0.0
C3147 C 0.47044 0.70551 0.52331 0.0
C3148 C 0.50682 0.77109 0.51612 0.0
C3149 C 0.49696 0.73722 0.52266 0.0
C3150 C 0.51932 0.78749 0.51682 0.0
C3151 C 0.53518 0.7875 0.52421 0.0
C3152 C 0.51035 0.75455 0.52277 0.0
C3153 C 0.53838 0.77058 0.53057 0.0
C3154 C 0.50242 0.71953 0.52784 0.0
C3155 C 0.4656 0.72334 0.51809 0.0
N3156 N 0.52608 0.75479 0.5297 0.0
N3157 N 0.47879 0.73853 0.5179 0.0
H3158 H 0.5598 0.24485 0.7803 0.0
H3159 H 0.44342 0.25796 0.77088 0.0
H3160 H 0.52041 0.19624 0.77332 0.0
H3161 H 0.48232 0.30531 0.7807 0.0
H3162 H 0.47181 0.23564 0.77011 0.0
H3163 H 0.53193 0.2676 0.77904 0.0
C3164 C 0.54527 0.23894 0.77853 0.0
C3165 C 0.54243 0.21856 0.77702 0.0
C3166 C 0.47415 0.25094 0.77238 0.0
C3167 C 0.51041 0.24462 0.77544 0.0
C3168 C 0.45797 0.26373 0.77275 0.0
C3169 C 0.46049 0.28354 0.77589 0.0
C3170 C 0.49302 0.258 0.77515 0.0
C3171 C 0.47965 0.2901 0.77838 0.0
C3172 C 0.52936 0.25197 0.77775 0.0
C3173 C 0.52332 0.21183 0.77449 0.0
N3174 N 0.49516 0.27736 0.77798 0.0
N3175 N 0.50802 0.22483 0.77383 0.0
H3176 H 0.97639 0.79577 0.49059 0.0
H3177 H 0.02465 0.70832 0.45566 0.0
H3178 H 0.95698 0.77924 0.45834 0.0
H3179 H 0.0371 0.71709 0.48984 0.0
H3180 H 0.00108 0.73557 0.45633 0.0
H3181 H -0.00022 0.76807 0.49038 0.0
C3182 C 0.97703 0.78628 0.48349 0.0
C3183 C 0.96469 0.78977 0.47448 0.0
C3184 C 0.00894 0.73156 0.46369 0.0
C3185 C 0.99141 0.75818 0.47416 0.0
C3186 C 0.02254 0.7161 0.4633 0.0
C3187 C 0.03295 0.71049 0.4727 0.0
C3188 C 0.00574 0.74161 0.47355 0.0
C3189 C 0.0293 0.72086 0.48242 0.0
C3190 C 0.99032 0.77046 0.48338 0.0
C3191 C 0.96601 0.77695 0.46551 0.0
N3192 N 0.01604 0.73598 0.48259 0.0
N3193 N 0.97919 0.76181 0.46556 0.0
H3194 H 0.52238 0.80107 0.71061 0.0
H3195 H 0.47398 0.70309 0.73534 0.0
H3196 H 0.54762 0.76923 0.73778 0.0
H3197 H 0.4447 0.74117 0.71214 0.0
H3198 H 0.50123 0.72682 0.73636 0.0
H3199 H 0.4939 0.77907 0.71107 0.0
C3200 C 0.52185 0.78963 0.71678 0.0
C3201 C 0.5375 0.78706 0.72418 0.0
C3202 C 0.4888 0.72999 0.73107 0.0
C3203 C 0.50496 0.76144 0.72459 0.0
C3204 C 0.47319 0.71648 0.73052 0.0
C3205 C 0.45705 0.72002 0.72358 0.0
C3206 C 0.48831 0.74714 0.72462 0.0
C3207 C 0.45699 0.73756 0.71743 0.0
C3208 C 0.5056 0.77695 0.71698 0.0
C3209 C 0.53608 0.77163 0.73182 0.0
N3210 N 0.47239 0.75038 0.71807 0.0
N3211 N 0.52015 0.75935 0.73179 0.0
H3212 H 0.52893 0.21036 0.95515 0.0
H3213 H 0.46862 0.29119 0.98867 0.0
H3214 H 0.5276 0.21083 0.99032 0.0
H3215 H 0.45666 0.27681 0.95499 0.0
H3216 H 0.49158 0.26327 0.98955 0.0
H3217 H 0.50442 0.23684 0.95492 0.0
C3218 C 0.52358 0.21617 0.96283 0.0
C3219 C 0.53037 0.20849 0.97277 0.0
C3220 C 0.48381 0.2662 0.982 0.0
C3221 C 0.50217 0.2387 0.97258 0.0
C3222 C 0.4706 0.28206 0.9815 0.0
C3223 C 0.46077 0.28652 0.9717 0.0
C3224 C 0.48737 0.25484 0.97262 0.0
C3225 C 0.4642 0.27428 0.96264 0.0
C3226 C 0.50945 0.23116 0.9627 0.0
C3227 C 0.52267 0.21633 0.98248 0.0
N3228 N 0.47731 0.25913 0.9633 0.0
N3229 N 0.50904 0.23111 0.98216 0.0
H3230 H 0.04433 0.27321 0.23941 0.0
H3231 H 0.95786 0.22411 0.20409 0.0
H3232 H 0.02953 0.29091 0.2066 0.0
H3233 H 0.96479 0.21352 0.23858 0.0
H3234 H 0.98539 0.24734 0.20475 0.0
H3235 H 0.01634 0.25015 0.23922 0.0
C3236 C 0.03517 0.27226 0.23219 0.0
C3237 C 0.03922 0.28404 0.22302 0.0
C3238 C 0.98091 0.23996 0.21219 0.0
C3239 C 0.0073 0.2577 0.22273 0.0
C3240 C 0.96529 0.22656 0.2118 0.0
C3241 C 0.95908 0.21676 0.22129 0.0
C3242 C 0.99055 0.24359 0.22213 0.0
C3243 C 0.96902 0.22084 0.23109 0.0
C3244 C 0.01918 0.25917 0.2321 0.0
C3245 C 0.0268 0.28232 0.2139 0.0
N3246 N 0.98433 0.2339 0.23126 0.0
N3247 N 0.01149 0.26935 0.21397 0.0
H3248 H 0.97237 0.7088 0.95372 0.0
H3249 H 0.03189 0.7876 0.98964 0.0
H3250 H 0.96326 0.71565 0.98837 0.0
H3251 H 0.03299 0.78551 0.95445 0.0
H3252 H 0.00798 0.76038 0.98965 0.0
H3253 H 0.99586 0.736 0.95413 0.0
C3254 C 0.97513 0.71616 0.96141 0.0
C3255 C 0.96562 0.71 0.97101 0.0
C3256 C 0.01351 0.76589 0.98194 0.0
C3257 C 0.99298 0.74106 0.97157 0.0
C3258 C 0.02711 0.78147 0.98192 0.0
C3259 C 0.03459 0.78883 0.97203 0.0
C3260 C 0.00738 0.75759 0.972 0.0
C3261 C 0.02799 0.78012 0.96229 0.0
C3262 C 0.9887 0.73163 0.96166 0.0
C3263 C 0.97032 0.71979 0.98078 0.0
N3264 N 0.01481 0.76501 0.96253 0.0
N3265 N 0.98367 0.73485 0.98082 0.0
H3266 H 0.94815 0.26379 0.70821 0.0
H3267 H 0.04695 0.23135 0.73943 0.0
H3268 H 0.97205 0.29608 0.73557 0.0
H3269 H 0.02509 0.20342 0.71015 0.0
H3270 H 0.01878 0.25408 0.73894 0.0
H3271 H 0.97544 0.24046 0.70956 0.0
C3272 C 0.95923 0.26608 0.71446 0.0
C3273 C 0.95788 0.28208 0.72171 0.0
C3274 C 0.02013 0.24291 0.73266 0.0
C3275 C 0.98913 0.2551 0.72343 0.0
C3276 C 0.03624 0.22997 0.73291 0.0
C3277 C 0.03841 0.2154 0.72483 0.0
C3278 C 0.0061 0.24129 0.72426 0.0
C3279 C 0.02391 0.21416 0.71666 0.0
C3280 C 0.97476 0.25264 0.71528 0.0
C3281 C 0.97243 0.28392 0.72984 0.0
N3282 N 0.00845 0.22695 0.71657 0.0
N3283 N 0.98749 0.27062 0.73045 0.0
H3284 H 0.52316 0.29545 0.49073 0.0
H3285 H 0.4849 0.19957 0.45881 0.0
H3286 H 0.54535 0.27638 0.45943 0.0
H3287 H 0.45568 0.22263 0.48741 0.0
H3288 H 0.50881 0.22636 0.45987 0.0
H3289 H 0.49996 0.26763 0.4906 0.0
C3290 C 0.5232 0.28544 0.48384 0.0
C3291 C 0.5363 0.28829 0.47508 0.0
C3292 C 0.49717 0.22561 0.46592 0.0
C3293 C 0.50989 0.25637 0.47493 0.0
C3294 C 0.4834 0.21036 0.46528 0.0
C3295 C 0.46805 0.20895 0.47295 0.0
C3296 C 0.49575 0.23962 0.47433 0.0
C3297 C 0.46728 0.22309 0.48134 0.0
C3298 C 0.50998 0.26953 0.48379 0.0
C3299 C 0.53582 0.27465 0.46645 0.0
N3300 N 0.4809 0.23789 0.48179 0.0
N3301 N 0.52283 0.25936 0.46659 0.0
H3302 H 0.4786 0.80472 0.21558 0.0
H3303 H 0.52318 0.70006 0.2338 0.0
H3304 H 0.44653 0.76243 0.23513 0.0
H3305 H 0.55305 0.74088 0.21233 0.0
H3306 H 0.49599 0.72371 0.2356 0.0
H3307 H 0.50715 0.78264 0.21565 0.0
C3308 C 0.47765 0.7909 0.22001 0.0
C3309 C 0.46011 0.78539 0.22532 0.0
C3310 C 0.50851 0.72749 0.23051 0.0
C3311 C 0.49268 0.75986 0.2253 0.0
C3312 C 0.52407 0.71403 0.22952 0.0
C3313 C 0.54036 0.71843 0.22284 0.0
C3314 C 0.50927 0.74552 0.22482 0.0
C3315 C 0.54064 0.7367 0.21741 0.0
C3316 C 0.49391 0.77822 0.21998 0.0
C3317 C 0.45966 0.76715 0.23079 0.0
N3318 N 0.52533 0.74954 0.21851 0.0
N3319 N 0.47567 0.75501 0.23061 0.0
H3320 H 0.94253 0.267 0.52543 0.0
H3321 H 0.05424 0.23471 0.52541 0.0
H3322 H 0.98874 0.30795 0.51668 0.0
H3323 H 0.00796 0.19343 0.51729 0.0
H3324 H 0.03057 0.26198 0.52344 0.0
H3325 H 0.96617 0.23965 0.52367 0.0
C3326 C 0.95763 0.27015 0.52303 0.0
C3327 C 0.96378 0.28966 0.52119 0.0
C3328 C 0.02567 0.24697 0.52195 0.0
C3329 C 0.99084 0.25868 0.51937 0.0
C3330 C 0.03912 0.23147 0.52311 0.0
C3331 C 0.03295 0.2119 0.5215 0.0
C3332 C 0.00585 0.24278 0.51944 0.0
C3333 C 0.01324 0.20837 0.51853 0.0
C3334 C 0.97105 0.2546 0.522 0.0
C3335 C 0.98346 0.29306 0.5181 0.0
N3336 N 0.00028 0.22367 0.51775 0.0
N3337 N 0.99641 0.27773 0.51745 0.0
H3338 H 0.46117 0.21829 0.26115 0.0
H3339 H 0.54151 0.2758 0.29715 0.0
H3340 H 0.46555 0.21409 0.2962 0.0
H3341 H 0.5359 0.28356 0.26234 0.0
H3342 H 0.51393 0.25271 0.29675 0.0
H3343 H 0.48881 0.2417 0.2612 0.0
C3344 C 0.46792 0.2223 0.26885 0.0
C3345 C 0.46107 0.21412 0.27868 0.0
C3346 C 0.51867 0.25946 0.28919 0.0
C3347 C 0.49273 0.2408 0.27879 0.0
C3348 C 0.53437 0.27279 0.28942 0.0
C3349 C 0.54099 0.28177 0.27977 0.0
C3350 C 0.50947 0.25496 0.27923 0.0
C3351 C 0.53141 0.27688 0.26996 0.0
C3352 C 0.48373 0.2356 0.26887 0.0
C3353 C 0.47052 0.21971 0.2884 0.0
N3354 N 0.51611 0.26381 0.26995 0.0
N3355 N 0.48582 0.23268 0.2882 0.0
H3356 H 0.44309 0.76571 0.02488 0.0
H3357 H 0.55603 0.7316 0.02199 0.0
H3358 H 0.49154 0.80609 0.01956 0.0
H3359 H 0.50693 0.69085 0.02266 0.0
H3360 H 0.53265 0.75907 0.02053 0.0
H3361 H 0.46618 0.738 0.02351 0.0
C3362 C 0.45859 0.76873 0.02338 0.0
C3363 C 0.46543 0.78824 0.02239 0.0
C3364 C 0.52699 0.74411 0.0209 0.0
C3365 C 0.49196 0.75662 0.02083 0.0
C3366 C 0.54033 0.72844 0.02178 0.0
C3367 C 0.53341 0.70891 0.0225 0.0
C3368 C 0.50658 0.74026 0.02083 0.0
C3369 C 0.51292 0.70565 0.02204 0.0
C3370 C 0.47175 0.75291 0.02255 0.0
C3371 C 0.48561 0.79129 0.0203 0.0
N3372 N 0.50023 0.72117 0.02134 0.0
N3373 N 0.49819 0.77566 0.01968 0.0
H3374 H 0.97574 0.7011 0.79067 0.0
H3375 H 0.02722 0.79615 0.76404 0.0
H3376 H 0.95147 0.73224 0.76301 0.0
H3377 H 0.05082 0.76398 0.79152 0.0
H3378 H -4e-05 0.77239 0.763 0.0
H3379 H 0.00401 0.72338 0.79053 0.0
C3380 C 0.97645 0.71248 0.78447 0.0
C3381 C 0.96118 0.71475 0.77682 0.0
C3382 C 0.01112 0.77055 0.76925 0.0
C3383 C 0.99347 0.74065 0.77674 0.0
C3384 C 0.02673 0.78406 0.76982 0.0
C3385 C 0.04127 0.78216 0.77793 0.0
C3386 C 0.01006 0.75501 0.77683 0.0
C3387 C 0.03976 0.76629 0.78527 0.0
C3388 C 0.99256 0.72533 0.78445 0.0
C3389 C 0.96278 0.73007 0.76914 0.0
N3390 N 0.02445 0.75338 0.78455 0.0
N3391 N 0.97862 0.74247 0.7693 0.0
H3392 H 0.28455 0.39429 0.97336 0.0
H3393 H 0.21534 0.38203 0.02583 0.0
H3394 H 0.30648 0.37831 0.00523 0.0
H3395 H 0.19276 0.38806 0.99306 0.0
H3396 H 0.24895 0.38309 0.01863 0.0
H3397 H 0.25097 0.39453 0.98065 0.0
C3398 C 0.28233 0.39074 0.98188 0.0
C3399 C 0.29843 0.38615 0.98867 0.0
C3400 C 0.23664 0.38418 0.01301 0.0
C3401 C 0.25994 0.38669 0.9971 0.0
C3402 C 0.21742 0.38346 0.01711 0.0
C3403 C 0.20113 0.38481 0.01004 0.0
C3404 C 0.23969 0.38634 0.00175 0.0
C3405 C 0.20482 0.38714 0.99884 0.0
C3406 C 0.26313 0.39098 0.98605 0.0
C3407 C 0.29461 0.38213 0.99971 0.0
N3408 N 0.2237 0.3878 0.99505 0.0
N3409 N 0.27577 0.38245 0.00357 0.0
H3410 H 0.86795 0.05814 0.25663 0.0
H3411 H 0.87309 0.94264 0.24457 0.0
H3412 H 0.86234 0.03371 0.22422 0.0
H3413 H 0.85617 0.96619 0.27597 0.0
H3414 H 0.87246 0.97609 0.23712 0.0
H3415 H 0.86684 0.02465 0.26408 0.0
C3416 C 0.86634 0.04582 0.25107 0.0
C3417 C 0.86531 0.04887 0.23974 0.0
C3418 C 0.86884 0.97389 0.24563 0.0
C3419 C 0.86446 0.01044 0.24825 0.0
C3420 C 0.86908 0.95476 0.2499 0.0
C3421 C 0.86469 0.95147 0.26095 0.0
C3422 C 0.8644 0.98992 0.25247 0.0
C3423 C 0.86003 0.96795 0.26747 0.0
C3424 C 0.86581 0.02669 0.25534 0.0
C3425 C 0.86361 0.03217 0.23297 0.0
N3426 N 0.8601 0.98645 0.26314 0.0
N3427 N 0.86334 0.01371 0.23732 0.0
H3428 H 0.19262 0.61668 0.50731 0.0
H3429 H 0.30723 0.6288 0.49508 0.0
H3430 H 0.21629 0.61593 0.47457 0.0
H3431 H 0.28556 0.60311 0.52506 0.0
H3432 H 0.27364 0.62809 0.48781 0.0
H3433 H 0.22634 0.61555 0.51444 0.0
C3434 C 0.20481 0.61613 0.5016 0.0
C3435 C 0.20146 0.61647 0.49029 0.0
C3436 C 0.27631 0.62257 0.49597 0.0
C3437 C 0.24014 0.61567 0.49846 0.0
C3438 C 0.29552 0.62286 0.50013 0.0
C3439 C 0.29939 0.61603 0.51074 0.0
C3440 C 0.26074 0.61569 0.50251 0.0
C3441 C 0.28337 0.60893 0.51693 0.0
C3442 C 0.22407 0.61559 0.5057 0.0
C3443 C 0.21802 0.61614 0.48334 0.0
N3444 N 0.26476 0.60906 0.51275 0.0
N3445 N 0.23661 0.61589 0.48753 0.0
H3446 H 0.64112 0.05703 0.74348 0.0
H3447 H 0.61706 0.94323 0.75399 0.0
H3448 H 0.62524 0.03409 0.77517 0.0
H3449 H 0.65088 0.96377 0.72633 0.0
H3450 H 0.6174 0.97677 0.76138 0.0
H3451 H 0.6422 0.02326 0.73648 0.0
C3452 C 0.63799 0.04494 0.749 0.0
C3453 C 0.63306 0.04853 0.75995 0.0
C3454 C 0.62478 0.97388 0.75371 0.0
C3455 C 0.6339 0.00977 0.75189 0.0
C3456 C 0.6247 0.9547 0.7495 0.0
C3457 C 0.63391 0.95057 0.73948 0.0
C3458 C 0.63398 0.98914 0.74782 0.0
C3459 C 0.64324 0.96623 0.73397 0.0
C3460 C 0.63852 0.02565 0.74497 0.0
C3461 C 0.62875 0.03217 0.76663 0.0
N3462 N 0.64295 0.98481 0.73818 0.0
N3463 N 0.62921 0.01354 0.76248 0.0
H3464 H 0.71095 0.64114 0.02106 0.0
H3465 H 0.7863 0.59692 0.97713 0.0
H3466 H 0.69616 0.59313 0.99932 0.0
H3467 H 0.80421 0.63542 0.00339 0.0
H3468 H 0.75254 0.59715 0.98429 0.0
H3469 H 0.74465 0.64082 0.01395 0.0
C3470 C 0.71478 0.63044 0.01484 0.0
C3471 C 0.70061 0.6171 0.01082 0.0
C3472 C 0.76386 0.60552 0.9885 0.0
C3473 C 0.7392 0.61692 0.0025 0.0
C3474 C 0.7831 0.60549 0.98438 0.0
C3475 C 0.79808 0.61618 0.98967 0.0
C3476 C 0.75951 0.61645 0.99793 0.0
C3477 C 0.79315 0.62682 0.99912 0.0
C3478 C 0.73403 0.63035 0.01075 0.0
C3479 C 0.70643 0.60388 0.00258 0.0
N3480 N 0.77428 0.62675 0.00292 0.0
N3481 N 0.72524 0.60414 0.99869 0.0
H3482 H 0.12819 0.94154 0.74168 0.0
H3483 H 0.13742 0.05682 0.75521 0.0
H3484 H 0.13022 0.96485 0.77441 0.0
H3485 H 0.12209 0.03453 0.7233 0.0
H3486 H 0.13702 0.02306 0.76221 0.0
H3487 H 0.12835 0.97537 0.73457 0.0
C3488 C 0.12872 0.95379 0.74736 0.0
C3489 C 0.12915 0.95041 0.75865 0.0
C3490 C 0.13371 0.02556 0.75368 0.0
C3491 C 0.12935 0.9891 0.75059 0.0
C3492 C 0.13383 0.04487 0.74968 0.0
C3493 C 0.12972 0.0486 0.73864 0.0
C3494 C 0.12956 0.00979 0.7466 0.0
C3495 C 0.12561 0.03239 0.73183 0.0
C3496 C 0.12871 0.97308 0.74331 0.0
C3497 C 0.12963 0.96681 0.76565 0.0
N3498 N 0.12566 0.01371 0.73592 0.0
N3499 N 0.1298 0.98544 0.76151 0.0
H3500 H 0.79224 0.41335 0.515 0.0
H3501 H 0.70914 0.35865 0.47962 0.0
H3502 H 0.7998 0.35536 0.50091 0.0
H3503 H 0.69829 0.412 0.49797 0.0
H3504 H 0.74311 0.35831 0.48639 0.0
H3505 H 0.75852 0.41429 0.5078 0.0
C3506 C 0.78685 0.40087 0.51032 0.0
C3507 C 0.79885 0.38424 0.50856 0.0
C3508 C 0.73331 0.37009 0.48895 0.0
C3509 C 0.76023 0.38516 0.50037 0.0
C3510 C 0.71395 0.37036 0.48504 0.0
C3511 C 0.70087 0.3854 0.48822 0.0
C3512 C 0.73974 0.38505 0.49605 0.0
C3513 C 0.70782 0.40003 0.49539 0.0
C3514 C 0.76756 0.40136 0.50628 0.0
C3515 C 0.79099 0.36838 0.50257 0.0
N3516 N 0.7268 0.39952 0.49903 0.0
N3517 N 0.7722 0.36925 0.49868 0.0
H3518 H 0.34259 0.0542 0.24763 0.0
H3519 H 0.38805 0.94524 0.2516 0.0
H3520 H 0.39088 0.0385 0.26899 0.0
H3521 H 0.34724 0.96318 0.22642 0.0
H3522 H 0.38795 0.97899 0.2587 0.0
H3523 H 0.34303 0.02068 0.24021 0.0
C3524 C 0.35338 0.04378 0.25072 0.0
C3525 C 0.36671 0.04923 0.25897 0.0
C3526 C 0.37904 0.97557 0.25161 0.0
C3527 C 0.36707 0.0107 0.25061 0.0
C3528 C 0.37899 0.95628 0.24759 0.0
C3529 C 0.36761 0.95139 0.23842 0.0
C3530 C 0.3675 0.9901 0.24646 0.0
C3531 C 0.35637 0.96636 0.23345 0.0
C3532 C 0.35355 0.0246 0.24651 0.0
C3533 C 0.38011 0.03493 0.26277 0.0
N3534 N 0.35654 0.98502 0.23757 0.0
N3535 N 0.37992 0.01634 0.25857 0.0
H3536 H 0.80426 0.86233 0.50302 0.0
H3537 H 0.6926 0.89717 0.49458 0.0
H3538 H 0.78679 0.90524 0.47876 0.0
H3539 H 0.71335 0.86917 0.5241 0.0
H3540 H 0.72659 0.89815 0.48789 0.0
H3541 H 0.77056 0.86258 0.51017 0.0
C3542 C 0.79344 0.87193 0.49924 0.0
C3543 C 0.79847 0.88375 0.49023 0.0
C3544 C 0.72368 0.89183 0.49584 0.0
C3545 C 0.7597 0.88377 0.49828 0.0
C3546 C 0.70427 0.89134 0.4997 0.0
C3547 C 0.7 0.88304 0.50994 0.0
C3548 C 0.73897 0.88382 0.50221 0.0
C3549 C 0.71579 0.87538 0.51609 0.0
C3550 C 0.77415 0.87197 0.5033 0.0
C3551 C 0.7836 0.89559 0.48557 0.0
N3552 N 0.73453 0.8759 0.51211 0.0
N3553 N 0.7649 0.89523 0.48962 0.0
H3554 H 0.36999 0.53368 0.72396 0.0
H3555 H 0.36097 0.4655 0.77702 0.0
H3556 H 0.36671 0.55679 0.75674 0.0
H3557 H 0.37415 0.44271 0.74493 0.0
H3558 H 0.36107 0.49895 0.76958 0.0
H3559 H 0.36966 0.50018 0.73135 0.0
C3560 C 0.36934 0.53175 0.73272 0.0
C3561 C 0.36846 0.54815 0.73973 0.0
C3562 C 0.36395 0.48664 0.76417 0.0
C3563 C 0.36775 0.50973 0.74824 0.0
C3564 C 0.364 0.46751 0.76842 0.0
C3565 C 0.36767 0.4512 0.76161 0.0
C3566 C 0.3675 0.48956 0.753 0.0
C3567 C 0.37104 0.45477 0.75048 0.0
C3568 C 0.36903 0.51258 0.73693 0.0
C3569 C 0.36718 0.54464 0.751 0.0
N3570 N 0.37089 0.47355 0.74653 0.0
N3571 N 0.36687 0.52583 0.7549 0.0
H3572 H 0.8038 0.09518 0.99813 0.0
H3573 H 0.69729 0.14701 0.99925 0.0
H3574 H 0.78963 0.14543 0.01839 0.0
H3575 H 0.71084 0.09513 0.98015 0.0
H3576 H 0.7312 0.14706 0.00612 0.0
H3577 H 0.77008 0.09562 0.99099 0.0
C3578 C 0.79364 0.10641 0.00102 0.0
C3579 C 0.79956 0.12028 0.00888 0.0
C3580 C 0.72676 0.13567 0.00042 0.0
C3581 C 0.76084 0.12074 0.00083 0.0
C3582 C 0.70735 0.13557 0.99654 0.0
C3583 C 0.70117 0.12104 0.9891 0.0
C3584 C 0.74012 0.12115 0.99684 0.0
C3585 C 0.71499 0.10678 0.98575 0.0
C3586 C 0.77434 0.10657 0.99699 0.0
C3587 C 0.78565 0.13429 0.01244 0.0
N3588 N 0.73379 0.10719 0.98965 0.0
N3589 N 0.76695 0.13415 0.00839 0.0
H3590 H 0.14115 0.55629 0.2438 0.0
H3591 H 0.11461 0.44299 0.25353 0.0
H3592 H 0.12371 0.5333 0.27523 0.0
H3593 H 0.15187 0.46271 0.22705 0.0
H3594 H 0.11501 0.47649 0.26095 0.0
H3595 H 0.14235 0.52251 0.23677 0.0
C3596 C 0.1377 0.54419 0.24926 0.0
C3597 C 0.13226 0.54775 0.26014 0.0
C3598 C 0.12313 0.47342 0.25353 0.0
C3599 C 0.13325 0.50905 0.25205 0.0
C3600 C 0.12301 0.45426 0.24931 0.0
C3601 C 0.13318 0.44991 0.23961 0.0
C3602 C 0.13329 0.48845 0.24797 0.0
C3603 C 0.14347 0.46535 0.23442 0.0
C3604 C 0.13831 0.52491 0.24522 0.0
C3605 C 0.1276 0.53139 0.26674 0.0
N3606 N 0.14316 0.48392 0.23862 0.0
N3607 N 0.12812 0.51279 0.26258 0.0
H3608 H 0.20075 0.15307 0.50737 0.0
H3609 H 0.29574 0.08841 0.49173 0.0
H3610 H 0.20382 0.08977 0.51162 0.0
H3611 H 0.29481 0.15224 0.49126 0.0
H3612 H 0.26175 0.08846 0.49846 0.0
H3613 H 0.23478 0.15289 0.50075 0.0
C3614 C 0.20859 0.13913 0.50695 0.0
C3615 C 0.19938 0.12141 0.5101 0.0
C3616 C 0.269 0.10245 0.4969 0.0
C3617 C 0.23837 0.12108 0.5024 0.0
C3618 C 0.28847 0.10245 0.49313 0.0
C3619 C 0.29821 0.12036 0.49093 0.0
C3620 C 0.25912 0.12049 0.49847 0.0
C3621 C 0.28784 0.13807 0.49269 0.0
C3622 C 0.22801 0.13903 0.50312 0.0
C3623 C 0.2102 0.10376 0.50917 0.0
N3624 N 0.26888 0.13768 0.49635 0.0
N3625 N 0.22911 0.10405 0.50542 0.0
H3626 H 0.63029 0.44213 0.24303 0.0
H3627 H 0.6249 0.55775 0.25705 0.0
H3628 H 0.62419 0.46513 0.27569 0.0
H3629 H 0.62831 0.5348 0.22427 0.0
H3630 H 0.62491 0.52391 0.26404 0.0
H3631 H 0.62958 0.47593 0.23598 0.0
C3632 C 0.62866 0.45428 0.24872 0.0
C3633 C 0.62731 0.45076 0.25998 0.0
C3634 C 0.62562 0.52626 0.25531 0.0
C3635 C 0.62668 0.48955 0.25197 0.0
C3636 C 0.62571 0.54559 0.25132 0.0
C3637 C 0.62661 0.54913 0.24005 0.0
C3638 C 0.62651 0.5103 0.248 0.0
C3639 C 0.62736 0.53277 0.23301 0.0
C3640 C 0.62836 0.47359 0.24469 0.0
C3641 C 0.62555 0.46713 0.26697 0.0
N3642 N 0.62734 0.51409 0.23709 0.0
N3643 N 0.62528 0.48578 0.26285 0.0
H3644 H 0.21176 0.85781 0.97952 0.0
H3645 H 0.28682 0.89834 0.02473 0.0
H3646 H 0.19663 0.90364 0.00258 0.0
H3647 H 0.30483 0.86228 0.99745 0.0
H3648 H 0.25296 0.89825 0.01769 0.0
H3649 H 0.24532 0.85735 0.98682 0.0
C3650 C 0.21549 0.86788 0.98607 0.0
C3651 C 0.20128 0.88085 0.99039 0.0
C3652 C 0.26432 0.89037 0.01324 0.0
C3653 C 0.2397 0.88012 0.99894 0.0
C3654 C 0.28362 0.89031 0.01729 0.0
C3655 C 0.29868 0.88033 0.01165 0.0
C3656 C 0.25999 0.88024 0.00354 0.0
C3657 C 0.29373 0.87036 0.00199 0.0
C3658 C 0.23465 0.86752 0.99028 0.0
C3659 C 0.20695 0.89321 0.99907 0.0
N3660 N 0.27482 0.87053 0.99825 0.0
N3661 N 0.2257 0.89253 0.00305 0.0
H3662 H 0.86874 0.46513 0.72449 0.0
H3663 H 0.88091 0.5343 0.77692 0.0
H3664 H 0.87339 0.44231 0.75724 0.0
H3665 H 0.8618 0.55592 0.7455 0.0
H3666 H 0.88085 0.50068 0.76965 0.0
H3667 H 0.86915 0.49877 0.7318 0.0
C3668 C 0.86998 0.46722 0.73322 0.0
C3669 C 0.87106 0.45093 0.74027 0.0
C3670 C 0.87665 0.5128 0.76436 0.0
C3671 C 0.87146 0.48935 0.74871 0.0
C3672 C 0.87658 0.53201 0.76852 0.0
C3673 C 0.87131 0.54804 0.76184 0.0
C3674 C 0.87156 0.50955 0.75341 0.0
C3675 C 0.86626 0.54412 0.75093 0.0
C3676 C 0.87008 0.48641 0.73739 0.0
C3677 C 0.87236 0.45447 0.75153 0.0
N3678 N 0.86653 0.5253 0.74706 0.0
N3679 N 0.8726 0.47331 0.7554 0.0
H3680 H 0.08549 0.3944 0.10161 0.0
H3681 H 0.14997 0.34051 0.14743 0.0
H3682 H 0.13994 0.36365 0.09464 0.0
H3683 H 0.10335 0.38218 0.15463 0.0
H3684 H 0.1458 0.34755 0.12802 0.0
H3685 H 0.09085 0.38861 0.12107 0.0
C3686 C 0.09859 0.38644 0.10419 0.0
C3687 C 0.1123 0.3795 0.0965 0.0
C3688 C 0.13652 0.35517 0.13386 0.0
C3689 C 0.11852 0.37279 0.11875 0.0
C3690 C 0.13895 0.35122 0.14496 0.0
C3691 C 0.12695 0.3607 0.15272 0.0
C3692 C 0.12191 0.36859 0.13047 0.0
C3693 C 0.11269 0.37421 0.14897 0.0
C3694 C 0.10168 0.38322 0.11529 0.0
C3695 C 0.12911 0.36944 0.1003 0.0
N3696 N 0.11054 0.37769 0.13813 0.0
N3697 N 0.13169 0.36628 0.11115 0.0
H3698 H 0.91016 0.89876 0.39848 0.0
H3699 H 0.8535 0.83631 0.35274 0.0
H3700 H 0.86707 0.8535 0.40574 0.0
H3701 H 0.88749 0.88879 0.3457 0.0
H3702 H 0.85963 0.84139 0.37219 0.0
H3703 H 0.90315 0.89457 0.37907 0.0
C3704 C 0.89915 0.88803 0.39602 0.0
C3705 C 0.88925 0.87643 0.4038 0.0
C3706 C 0.86567 0.85185 0.3664 0.0
C3707 C 0.88137 0.87136 0.38155 0.0
C3708 C 0.86225 0.8489 0.3553 0.0
C3709 C 0.86998 0.86216 0.3476 0.0
C3710 C 0.87705 0.86808 0.36983 0.0
C3711 C 0.88105 0.87834 0.35137 0.0
C3712 C 0.89522 0.88558 0.38492 0.0
C3713 C 0.87536 0.86252 0.40007 0.0
N3714 N 0.88434 0.88079 0.36222 0.0
N3715 N 0.87188 0.86035 0.38923 0.0
H3716 H 0.35584 0.60851 0.65316 0.0
H3717 H 0.39848 0.65446 0.59775 0.0
H3718 H 0.38328 0.66601 0.65091 0.0
H3719 H 0.37477 0.59535 0.60012 0.0
H3720 H 0.3921 0.6592 0.61714 0.0
H3721 H 0.36157 0.60371 0.63365 0.0
C3722 C 0.36309 0.62012 0.64858 0.0
C3723 C 0.36908 0.6377 0.6537 0.0
C3724 C 0.3883 0.64517 0.61343 0.0
C3725 C 0.37557 0.63235 0.63134 0.0
C3726 C 0.39207 0.6424 0.60236 0.0
C3727 C 0.38726 0.62443 0.59728 0.0
C3728 C 0.37961 0.62988 0.61952 0.0
C3729 C 0.37857 0.60951 0.60366 0.0
C3730 C 0.36629 0.6174 0.63742 0.0
C3731 C 0.37814 0.65234 0.6473 0.0
N3732 N 0.37505 0.61256 0.61444 0.0
N3733 N 0.38114 0.64931 0.63648 0.0
H3734 H 0.62144 0.10555 0.8458 0.0
H3735 H 0.61167 0.15534 0.90451 0.0
H3736 H 0.63618 0.16664 0.85214 0.0
H3737 H 0.61365 0.09217 0.89973 0.0
H3738 H 0.61793 0.16004 0.88504 0.0
H3739 H 0.6164 0.10053 0.8653 0.0
C3740 C 0.62384 0.11789 0.85126 0.0
C3741 C 0.62929 0.13658 0.84725 0.0
C3742 C 0.61703 0.14515 0.88825 0.0
C3743 C 0.62303 0.13097 0.86962 0.0
C3744 C 0.61331 0.14246 0.89934 0.0
C3745 C 0.61207 0.12333 0.90373 0.0
C3746 C 0.61935 0.12859 0.88146 0.0
C3747 C 0.61462 0.10717 0.89669 0.0
C3748 C 0.62082 0.11501 0.86241 0.0
C3749 C 0.63168 0.15206 0.85478 0.0
N3750 N 0.61804 0.11016 0.88589 0.0
N3751 N 0.62846 0.14892 0.86558 0.0
H3752 H 0.15865 0.63259 0.35085 0.0
H3753 H 0.08158 0.61196 0.39867 0.0
H3754 H 0.09571 0.63978 0.34678 0.0
H3755 H 0.14235 0.62838 0.40477 0.0
H3756 H 0.08694 0.61769 0.37924 0.0
H3757 H 0.15342 0.62642 0.37035 0.0
C3758 C 0.14375 0.63284 0.35408 0.0
C3759 C 0.12759 0.63678 0.34725 0.0
C3760 C 0.09907 0.62 0.38486 0.0
C3761 C 0.12149 0.62957 0.36942 0.0
C3762 C 0.09603 0.61682 0.39598 0.0
C3763 C 0.11151 0.61972 0.40346 0.0
C3764 C 0.11779 0.62588 0.38114 0.0
C3765 C 0.13003 0.6256 0.39936 0.0
C3766 C 0.14078 0.6294 0.36518 0.0
C3767 C 0.10857 0.63702 0.35182 0.0
N3768 N 0.13266 0.62843 0.38849 0.0
N3769 N 0.10602 0.63334 0.36262 0.0
H3770 H 0.64431 0.88746 0.65194 0.0
H3771 H 0.58814 0.85464 0.59756 0.0
H3772 H 0.61028 0.83364 0.64924 0.0
H3773 H 0.63384 0.89915 0.59793 0.0
H3774 H 0.59392 0.84866 0.61696 0.0
H3775 H 0.639 0.89353 0.63252 0.0
C3776 C 0.63588 0.8768 0.64727 0.0
C3777 C 0.62773 0.85999 0.65228 0.0
C3778 C 0.60268 0.85975 0.61281 0.0
C3779 C 0.62128 0.86711 0.63006 0.0
C3780 C 0.59928 0.86328 0.60176 0.0
C3781 C 0.61049 0.87746 0.59615 0.0
C3782 C 0.61729 0.87059 0.61833 0.0
C3783 C 0.62496 0.888 0.60195 0.0
C3784 C 0.63276 0.88037 0.63618 0.0
C3785 C 0.6166 0.84695 0.6458 0.0
N3786 N 0.6279 0.88441 0.61274 0.0
N3787 N 0.61366 0.85082 0.63505 0.0
H3788 H 0.34637 0.38588 0.84842 0.0
H3789 H 0.40776 0.35632 0.90182 0.0
H3790 H 0.38854 0.33802 0.8497 0.0
H3791 H 0.36295 0.40177 0.90158 0.0
H3792 H 0.4011 0.34986 0.88261 0.0
H3793 H 0.35218 0.39217 0.86781 0.0
C3794 C 0.35683 0.37668 0.85278 0.0
C3795 C 0.36698 0.36139 0.84742 0.0
C3796 C 0.39271 0.36126 0.88674 0.0
C3797 C 0.37368 0.3685 0.86961 0.0
C3798 C 0.39663 0.36508 0.8977 0.0
C3799 C 0.38599 0.37971 0.90331 0.0
C3800 C 0.37805 0.37217 0.88129 0.0
C3801 C 0.37142 0.39027 0.89759 0.0
C3802 C 0.36009 0.38024 0.86385 0.0
C3803 C 0.38018 0.34979 0.85351 0.0
N3804 N 0.36791 0.38633 0.88688 0.0
N3805 N 0.38321 0.35364 0.86425 0.0
H3806 H 0.90358 0.14261 0.15273 0.0
H3807 H 0.8556 0.12603 0.09425 0.0
H3808 H 0.84148 0.13043 0.14839 0.0
H3809 H 0.9172 0.11401 0.10091 0.0
H3810 H 0.85015 0.13126 0.11369 0.0
H3811 H 0.90893 0.13629 0.13328 0.0
C3812 C 0.89107 0.13872 0.14765 0.0
C3813 C 0.87205 0.13707 0.15213 0.0
C3814 C 0.86483 0.12739 0.11088 0.0
C3815 C 0.87804 0.12987 0.12994 0.0
C3816 C 0.86797 0.12425 0.09977 0.0
C3817 C 0.88692 0.11947 0.09585 0.0
C3818 C 0.88077 0.12607 0.11815 0.0
C3819 C 0.90241 0.11796 0.10346 0.0
C3820 C 0.89414 0.13499 0.13659 0.0
C3821 C 0.85637 0.13176 0.14524 0.0
N3822 N 0.89901 0.12136 0.11423 0.0
N3823 N 0.85968 0.12847 0.13446 0.0
H3824 H 0.8544 0.66544 0.85227 0.0
H3825 H 0.89892 0.59453 0.89783 0.0
H3826 H 0.87498 0.60646 0.84521 0.0
H3827 H 0.85913 0.64239 0.90551 0.0
H3828 H 0.89248 0.59992 0.8784 0.0
H3829 H 0.85808 0.65862 0.87181 0.0
C3830 C 0.85962 0.65104 0.85486 0.0
C3831 C 0.86437 0.63647 0.84715 0.0
C3832 C 0.88504 0.60914 0.88434 0.0
C3833 C 0.86879 0.62864 0.8694 0.0
C3834 C 0.88879 0.60613 0.89541 0.0
C3835 C 0.87953 0.61803 0.90326 0.0
C3836 C 0.87222 0.62438 0.8811 0.0
C3837 C 0.86643 0.63279 0.89971 0.0
C3838 C 0.86164 0.64713 0.86598 0.0
C3839 C 0.87099 0.61802 0.85091 0.0
N3840 N 0.8633 0.63568 0.88887 0.0
N3841 N 0.87318 0.61469 0.86177 0.0
H3842 H 0.13658 0.10511 0.59827 0.0
H3843 H 0.09769 0.15432 0.65307 0.0
H3844 H 0.0902 0.14902 0.59911 0.0
H3845 H 0.15682 0.13056 0.65031 0.0
H3846 H 0.09307 0.14925 0.63362 0.0
H3847 H 0.1427 0.11106 0.61768 0.0
C3848 C 0.12774 0.11605 0.60248 0.0
C3849 C 0.11274 0.12646 0.597 0.0
C3850 C 0.10709 0.14523 0.63727 0.0
C3851 C 0.11948 0.13304 0.61925 0.0
C3852 C 0.10984 0.14826 0.6484 0.0
C3853 C 0.12779 0.14306 0.65342 0.0
C3854 C 0.12223 0.13663 0.63106 0.0
C3855 C 0.14265 0.13461 0.64688 0.0
C3856 C 0.13122 0.11937 0.61357 0.0
C3857 C 0.1016 0.14026 0.60298 0.0
N3858 N 0.13951 0.13159 0.63604 0.0
N3859 N 0.10513 0.14305 0.61377 0.0
H3860 H 0.63263 0.40575 0.40129 0.0
H3861 H 0.61475 0.33751 0.34884 0.0
H3862 H 0.599 0.3515 0.40159 0.0
H3863 H 0.6509 0.39012 0.34817 0.0
H3864 H 0.60905 0.34261 0.36822 0.0
H3865 H 0.63962 0.40057 0.3819 0.0
C3866 C 0.62677 0.39273 0.3973 0.0
C3867 C 0.61512 0.37909 0.40308 0.0
C3868 C 0.61829 0.35304 0.36387 0.0
C3869 C 0.62297 0.37314 0.38089 0.0
C3870 C 0.62169 0.35004 0.35278 0.0
C3871 C 0.63346 0.36332 0.34684 0.0
C3872 C 0.62662 0.3695 0.36912 0.0
C3873 C 0.64161 0.37958 0.35239 0.0
C3874 C 0.6307 0.38982 0.38622 0.0
C3875 C 0.60775 0.3626 0.39744 0.0
N3876 N 0.63804 0.38221 0.36322 0.0
N3877 N 0.6118 0.3601 0.38669 0.0
H3878 H 0.40469 0.84659 0.0978 0.0
H3879 H 0.34627 0.87941 0.15121 0.0
H3880 H 0.37003 0.90023 0.09905 0.0
H3881 H 0.39714 0.84076 0.15171 0.0
H3882 H 0.35177 0.885 0.13172 0.0
H3883 H 0.39893 0.84183 0.11721 0.0
C3884 C 0.39602 0.85751 0.10215 0.0
C3885 C 0.38803 0.87398 0.09673 0.0
C3886 C 0.36168 0.87529 0.13614 0.0
C3887 C 0.38095 0.86824 0.11901 0.0
C3888 C 0.35862 0.87214 0.14728 0.0
C3889 C 0.37118 0.85948 0.15317 0.0
C3890 C 0.37728 0.86557 0.13082 0.0
C3891 C 0.38676 0.85027 0.14753 0.0
C3892 C 0.39264 0.85468 0.11324 0.0
C3893 C 0.37637 0.88722 0.10282 0.0
N3894 N 0.3893 0.85344 0.13669 0.0
N3895 N 0.37315 0.88404 0.11363 0.0
H3896 H 0.8886 0.33844 0.65081 0.0
H3897 H 0.8706 0.40631 0.5983 0.0
H3898 H 0.85061 0.38976 0.65117 0.0
H3899 H 0.90044 0.34987 0.59753 0.0
H3900 H 0.86415 0.40152 0.61777 0.0
H3901 H 0.89415 0.34341 0.6314 0.0
C3902 C 0.88123 0.35066 0.6468 0.0
C3903 C 0.86896 0.3636 0.65266 0.0
C3904 C 0.87212 0.39021 0.61332 0.0
C3905 C 0.87563 0.36962 0.63036 0.0
C3906 C 0.87574 0.39289 0.6022 0.0
C3907 C 0.88617 0.37852 0.59624 0.0
C3908 C 0.87901 0.37306 0.61855 0.0
C3909 C 0.89268 0.36155 0.60179 0.0
C3910 C 0.88454 0.35357 0.6357 0.0
C3911 C 0.8603 0.37949 0.64702 0.0
N3912 N 0.88901 0.35932 0.6126 0.0
N3913 N 0.8638 0.38206 0.63618 0.0
H3914 H 0.35383 0.10848 0.34758 0.0
H3915 H 0.39479 0.15381 0.40354 0.0
H3916 H 0.3823 0.16536 0.35031 0.0
H3917 H 0.3718 0.09446 0.40085 0.0
H3918 H 0.38821 0.1589 0.38422 0.0
H3919 H 0.35778 0.10385 0.36729 0.0
C3920 C 0.36074 0.12006 0.35234 0.0
C3921 C 0.36787 0.13728 0.34729 0.0
C3922 C 0.3846 0.14474 0.38783 0.0
C3923 C 0.37256 0.13203 0.36979 0.0
C3924 C 0.38848 0.14177 0.39887 0.0
C3925 C 0.38406 0.12359 0.40382 0.0
C3926 C 0.37617 0.12945 0.38164 0.0
C3927 C 0.37538 0.10874 0.39739 0.0
C3928 C 0.3631 0.11736 0.36357 0.0
C3929 C 0.37687 0.15173 0.35384 0.0
N3930 N 0.37179 0.11197 0.38661 0.0
N3931 N 0.37898 0.14876 0.36472 0.0
H3932 H 0.64914 0.6608 0.14788 0.0
H3933 H 0.59509 0.59648 0.10231 0.0
H3934 H 0.61775 0.60683 0.1551 0.0
H3935 H 0.64049 0.63913 0.09476 0.0
H3936 H 0.60191 0.60109 0.12176 0.0
H3937 H 0.64495 0.6542 0.12838 0.0
C3938 C 0.64143 0.64753 0.14535 0.0
C3939 C 0.63376 0.63434 0.15311 0.0
C3940 C 0.61048 0.60934 0.11585 0.0
C3941 C 0.62882 0.62677 0.13085 0.0
C3942 C 0.60652 0.60679 0.10477 0.0
C3943 C 0.61724 0.61746 0.09694 0.0
C3944 C 0.62505 0.62289 0.11913 0.0
C3945 C 0.63201 0.6305 0.10054 0.0
C3946 C 0.63912 0.64373 0.13423 0.0
C3947 C 0.62403 0.61729 0.14939 0.0
N3948 N 0.63537 0.63298 0.11138 0.0
N3949 N 0.62169 0.61408 0.13853 0.0
H3950 H 0.11007 0.84026 0.84853 0.0
H3951 H 0.13553 0.90496 0.90135 0.0
H3952 H 0.15275 0.88775 0.84824 0.0
H3953 H 0.0986 0.85289 0.90173 0.0
H3954 H 0.14153 0.89971 0.88187 0.0
H3955 H 0.10516 0.84548 0.86797 0.0
C3956 C 0.11859 0.85168 0.85256 0.0
C3957 C 0.13198 0.86347 0.84671 0.0
C3958 C 0.13211 0.88946 0.88623 0.0
C3959 C 0.1261 0.86981 0.86906 0.0
C3960 C 0.12874 0.89239 0.89737 0.0
C3961 C 0.11644 0.87942 0.9032 0.0
C3962 C 0.12312 0.87343 0.88089 0.0
C3963 C 0.10788 0.86351 0.89755 0.0
C3964 C 0.11566 0.85475 0.86368 0.0
C3965 C 0.14216 0.8784 0.85238 0.0
N3966 N 0.11136 0.861 0.88674 0.0
N3967 N 0.13901 0.88114 0.86324 0.0
loop_
_geom_bond_atom_site_label_1
_geom_bond_atom_site_label_2
_geom_bond_distance
_geom_bond_site_symmetry_2
_ccdc_geom_bond_type
Li0 N17 1.990 . S
Li0 O60 1.956 . S
Li0 O61 1.970 . S
Li0 O62 1.961 . S
Li1 N25 1.990 . S
Li1 O60 1.970 . S
Li1 O61 1.956 . S
Li1 O63 1.961 . S
Li2 N47 1.990 . S
Li2 O60 1.961 . S
Li2 O62 1.956 . S
Li2 O63 1.970 . S
Li3 N53 1.990 . S
Li3 O61 1.961 . S
Li3 O62 1.970 . S
Li3 O63 1.956 . S
C4 C6 1.348 . S
C4 C7 1.356 . S
C4 O60 1.325 . S
N5 C8 1.314 . S
N5 C9 1.279 . S
C6 C4 1.348 . S
C6 C8 1.353 . S
C6 H64 0.929 . S
C7 C4 1.356 . S
C7 C9 1.358 . S
C7 H65 0.930 . S
C8 N5 1.314 . S
C8 C6 1.353 . S
C8 H66 0.930 . S
C9 N5 1.279 . S
C9 C7 1.358 . S
C9 H67 0.930 . S
C10 C13 1.348 . S
C10 C14 1.356 . S
C10 O61 1.325 . S
C11 N12 1.279 . S
C11 C14 1.358 . S
C11 H68 0.930 . S
N12 C11 1.279 . S
N12 C15 1.314 . S
C13 C10 1.348 . S
C13 C15 1.353 . S
C13 H69 0.929 . S
C14 C10 1.356 . S
C14 C11 1.358 . S
C14 H70 0.930 . S
C15 N12 1.314 . S
C15 C13 1.353 . S
C15 H71 0.930 . S
C16 N17 1.314 . S
C16 C21 1.353 . S
C16 H22 0.930 . S
N17 Li0 1.990 . S
N17 C16 1.314 . S
N17 C19 1.279 . S
C18 C19 1.358 . S
C18 C20 1.356 . S
C18 H72 0.930 . S
C19 N17 1.279 . S
C19 C18 1.358 . S
C19 H23 0.930 . S
C20 C18 1.356 . S
C20 C21 1.348 . S
C21 C16 1.353 . S
C21 C20 1.348 . S
C21 H73 0.882 1_554 S
H22 C16 0.930 . S
H23 C19 0.930 . S
C24 N25 1.314 . S
C24 C26 1.353 . S
C24 H30 0.930 . S
N25 Li1 1.990 . S
N25 C24 1.314 . S
N25 C28 1.279 . S
C26 C24 1.353 . S
C26 C29 1.348 . S
C26 H74 0.929 . S
C27 C28 1.358 . S
C27 C29 1.356 . S
C27 H75 0.930 . S
C28 N25 1.279 . S
C28 C27 1.358 . S
C28 H31 0.930 . S
C29 C26 1.348 . S
C29 C27 1.356 . S
H30 C24 0.930 . S
H31 C28 0.930 . S
C32 C34 1.348 . S
C32 C35 1.356 . S
C32 O62 1.325 . S
N33 C36 1.314 . S
N33 C37 1.279 . S
C34 C32 1.348 . S
C34 C36 1.353 1_554 S
C34 H76 0.929 . S
C35 C32 1.356 . S
C35 C37 1.358 1_554 S
C35 H77 0.930 . S
C36 N33 1.314 . S
C36 C34 1.353 1_556 S
C36 H78 0.930 . S
C37 N33 1.279 . S
C37 C35 1.358 1_556 S
C37 H79 0.930 . S
C38 C39 1.348 . S
C38 C40 1.356 . S
C38 O63 1.325 . S
C39 C38 1.348 . S
C39 C41 1.353 . S
C39 H80 0.929 . S
C40 C38 1.356 . S
C40 C42 1.358 . S
C40 H81 0.930 . S
C41 C39 1.353 . S
C41 N43 1.314 . S
C41 H82 0.930 . S
C42 C40 1.358 . S
C42 N43 1.279 . S
C42 H83 0.930 . S
N43 C41 1.314 . S
N43 C42 1.279 . S
C44 C46 1.353 . S
C44 N47 1.314 . S
C44 H50 0.930 . S
C45 N47 1.279 . S
C45 C48 1.358 . S
C45 H51 0.930 . S
C46 C44 1.353 . S
C46 C49 1.348 . S
C46 H84 0.929 . S
N47 Li2 1.990 . S
N47 C44 1.314 . S
N47 C45 1.279 . S
C48 C45 1.358 . S
C48 C49 1.356 . S
C48 H85 0.930 . S
C49 C46 1.348 . S
C49 C48 1.356 . S
H50 C44 0.930 . S
H51 C45 0.930 . S
C52 N53 1.314 . S
C52 C54 1.353 . S
C52 H58 0.930 . S
N53 Li3 1.990 . S
N53 C52 1.314 . S
N53 C56 1.279 . S
C54 C52 1.353 . S
C54 C57 1.348 . S
C54 H86 0.929 . S
C55 C56 1.358 . S
C55 C57 1.356 . S
C55 H87 0.930 . S
C56 N53 1.279 . S
C56 C55 1.358 . S
C56 H59 0.930 . S
C57 C54 1.348 . S
C57 C55 1.356 . S
H58 C52 0.930 . S
H59 C56 0.930 . S
O60 Li0 1.956 . S
O60 Li1 1.970 . S
O60 Li2 1.961 . S
O60 C4 1.325 . S
O61 Li0 1.970 . S
O61 Li1 1.956 . S
O61 Li3 1.961 . S
O61 C10 1.325 . S
O62 Li0 1.961 . S
O62 Li2 1.956 . S
O62 Li3 1.970 . S
O62 C32 1.325 . S
O63 Li1 1.961 . S
O63 Li2 1.970 . S
O63 Li3 1.956 . S
O63 C38 1.325 . S
H64 C6 0.929 . S
H65 C7 0.930 . S
H66 C8 0.930 . S
H67 C9 0.930 . S
H68 C11 0.930 . S
H69 C13 0.929 . S
H70 C14 0.930 . S
H71 C15 0.930 . S
H72 C18 0.930 . S
H73 C21 0.882 1_556 S
H74 C26 0.929 . S
H75 C27 0.930 . S
H76 C34 0.929 . S
H77 C35 0.930 . S
H78 C36 0.930 . S
H79 C37 0.930 . S
H80 C39 0.929 . S
H81 C40 0.930 . S
H82 C41 0.930 . S
H83 C42 0.930 . S
H84 C46 0.929 . S
H85 C48 0.930 . S
H86 C54 0.929 . S
H87 C55 0.930 . S
Li88 N105 1.990 . S
Li88 O148 1.956 . S
Li88 O149 1.970 . S
Li88 O150 1.961 . S
Li89 N113 1.990 . S
Li89 O148 1.970 . S
Li89 O149 1.956 . S
Li89 O151 1.961 . S
Li90 N135 1.990 . S
Li90 O148 1.961 . S
Li90 O150 1.956 . S
Li90 O151 1.970 . S
Li91 N141 1.990 . S
Li91 O149 1.961 . S
Li91 O150 1.970 . S
Li91 O151 1.956 . S
C92 C94 1.348 . S
C92 C95 1.356 . S
C92 O148 1.325 . S
N93 C96 1.314 . S
N93 C97 1.279 . S
C94 C92 1.348 . S
C94 C96 1.353 . S
C94 H152 0.929 . S
C95 C92 1.356 . S
C95 C97 1.358 . S
C95 H153 0.930 . S
C96 N93 1.314 . S
C96 C94 1.353 . S
C96 H154 0.930 . S
C97 N93 1.279 . S
C97 C95 1.358 . S
C97 H155 0.930 . S
C98 C101 1.348 . S
C98 C102 1.356 . S
C98 O149 1.325 . S
C99 N100 1.279 . S
C99 C102 1.358 . S
C99 H156 0.930 . S
N100 C99 1.279 . S
N100 C103 1.314 . S
C101 C98 1.348 . S
C101 C103 1.353 . S
C101 H157 0.929 . S
C102 C98 1.356 . S
C102 C99 1.358 . S
C102 H158 0.930 . S
C103 N100 1.314 . S
C103 C101 1.353 . S
C103 H159 0.930 . S
C104 N105 1.314 . S
C104 C109 1.353 . S
C104 H110 0.930 . S
N105 Li88 1.990 . S
N105 C104 1.314 . S
N105 C107 1.279 . S
C106 C107 1.358 . S
C106 C108 1.356 . S
C106 H160 0.930 . S
C107 N105 1.279 . S
C107 C106 1.358 . S
C107 H111 0.930 . S
C108 C106 1.356 . S
C108 C109 1.348 . S
C109 C104 1.353 . S
C109 C108 1.348 . S
C109 H161 0.929 . S
H110 C104 0.930 . S
H111 C107 0.930 . S
C112 N113 1.314 . S
C112 C114 1.353 . S
C112 H118 0.930 . S
N113 Li89 1.990 . S
N113 C112 1.314 . S
N113 C116 1.279 . S
C114 C112 1.353 . S
C114 C117 1.348 . S
C114 H162 0.929 . S
C115 C116 1.358 . S
C115 C117 1.356 . S
C115 H163 0.930 . S
C116 N113 1.279 . S
C116 C115 1.358 . S
C116 H119 0.930 . S
C117 C114 1.348 . S
C117 C115 1.356 . S
H118 C112 0.930 . S
H119 C116 0.930 . S
C120 C122 1.348 . S
C120 C123 1.356 . S
C120 O150 1.325 . S
N121 C124 1.314 . S
N121 C125 1.279 . S
C122 C120 1.348 . S
C122 C124 1.353 . S
C122 H164 0.929 . S
C123 C120 1.356 . S
C123 C125 1.358 . S
C123 H165 0.930 . S
C124 N121 1.314 . S
C124 C122 1.353 . S
C124 H166 0.930 . S
C125 N121 1.279 . S
C125 C123 1.358 . S
C125 H167 0.930 . S
C126 C127 1.348 . S
C126 C128 1.356 . S
C126 O151 1.325 . S
C127 C126 1.348 . S
C127 C129 1.353 . S
C127 H168 0.929 . S
C128 C126 1.356 . S
C128 C130 1.358 . S
C128 H169 0.930 . S
C129 C127 1.353 . S
C129 N131 1.314 . S
C129 H170 0.930 . S
C130 C128 1.358 . S
C130 N131 1.279 . S
C130 H171 0.930 . S
N131 C129 1.314 . S
N131 C130 1.279 . S
C132 C134 1.353 . S
C132 N135 1.314 . S
C132 H138 0.930 . S
C133 N135 1.279 . S
C133 C136 1.358 . S
C133 H139 0.930 . S
C134 C132 1.353 . S
C134 C137 1.348 . S
C134 H172 0.929 . S
N135 Li90 1.990 . S
N135 C132 1.314 . S
N135 C133 1.279 . S
C136 C133 1.358 . S
C136 C137 1.356 . S
C136 H173 0.930 . S
C137 C134 1.348 . S
C137 C136 1.356 . S
H138 C132 0.930 . S
H139 C133 0.930 . S
C140 N141 1.314 . S
C140 C142 1.353 . S
C140 H146 0.930 . S
N141 Li91 1.990 . S
N141 C140 1.314 . S
N141 C144 1.279 . S
C142 C140 1.353 . S
C142 C145 1.348 . S
C142 H174 0.929 . S
C143 C144 1.358 . S
C143 C145 1.356 . S
C143 H175 0.930 . S
C144 N141 1.279 . S
C144 C143 1.358 . S
C144 H147 0.930 . S
C145 C142 1.348 . S
C145 C143 1.356 . S
H146 C140 0.930 . S
H147 C144 0.930 . S
O148 Li88 1.956 . S
O148 Li89 1.970 . S
O148 Li90 1.961 . S
O148 C92 1.325 . S
O149 Li88 1.970 . S
O149 Li89 1.956 . S
O149 Li91 1.961 . S
O149 C98 1.325 . S
O150 Li88 1.961 . S
O150 Li90 1.956 . S
O150 Li91 1.970 . S
O150 C120 1.325 . S
O151 Li89 1.961 . S
O151 Li90 1.970 . S
O151 Li91 1.956 . S
O151 C126 1.325 . S
H152 C94 0.929 . S
H153 C95 0.930 . S
H154 C96 0.930 . S
H155 C97 0.930 . S
H156 C99 0.930 . S
H157 C101 0.929 . S
H158 C102 0.930 . S
H159 C103 0.930 . S
H160 C106 0.930 . S
H161 C109 0.929 . S
H162 C114 0.929 . S
H163 C115 0.930 . S
H164 C122 0.929 . S
H165 C123 0.930 . S
H166 C124 0.930 . S
H167 C125 0.930 . S
H168 C127 0.929 . S
H169 C128 0.930 . S
H170 C129 0.930 . S
H171 C130 0.930 . S
H172 C134 0.929 . S
H173 C136 0.930 . S
H174 C142 0.929 . S
H175 C143 0.930 . S
Li176 N193 1.990 . S
Li176 O236 1.956 . S
Li176 O237 1.970 . S
Li176 O238 1.961 . S
Li177 N201 1.990 . S
Li177 O236 1.970 . S
Li177 O237 1.956 . S
Li177 O239 1.961 . S
Li178 N223 1.990 . S
Li178 O236 1.961 . S
Li178 O238 1.956 . S
Li178 O239 1.970 . S
Li179 N229 1.990 . S
Li179 O237 1.961 . S
Li179 O238 1.970 . S
Li179 O239 1.956 . S
C180 C182 1.348 . S
C180 C183 1.356 . S
C180 O236 1.325 . S
N181 C184 1.314 . S
N181 C185 1.279 . S
C182 C180 1.348 . S
C182 C184 1.353 . S
C182 H240 0.929 . S
C183 C180 1.356 . S
C183 C185 1.358 . S
C183 H241 0.930 . S
C184 N181 1.314 . S
C184 C182 1.353 . S
C184 H242 0.930 . S
C185 N181 1.279 . S
C185 C183 1.358 . S
C185 H243 0.930 . S
C186 C189 1.348 . S
C186 C190 1.356 . S
C186 O237 1.325 . S
C187 N188 1.279 . S
C187 C190 1.358 . S
C187 H244 0.930 . S
N188 C187 1.279 . S
N188 C191 1.314 . S
C189 C186 1.348 . S
C189 C191 1.353 . S
C189 H245 0.929 . S
C190 C186 1.356 . S
C190 C187 1.358 . S
C190 H246 0.930 . S
C191 N188 1.314 . S
C191 C189 1.353 . S
C191 H247 0.930 . S
C192 N193 1.314 . S
C192 C197 1.353 . S
C192 H198 0.930 . S
N193 Li176 1.990 . S
N193 C192 1.314 . S
N193 C195 1.279 . S
C194 C195 1.358 . S
C194 C196 1.356 . S
C194 H248 0.930 . S
C195 N193 1.279 . S
C195 C194 1.358 . S
C195 H199 0.930 . S
C196 C194 1.356 . S
C196 C197 1.348 . S
C197 C192 1.353 . S
C197 C196 1.348 . S
C197 H249 0.929 . S
H198 C192 0.930 . S
H199 C195 0.930 . S
C200 N201 1.314 . S
C200 C202 1.353 . S
C200 H206 0.930 . S
N201 Li177 1.990 . S
N201 C200 1.314 . S
N201 C204 1.279 . S
C202 C200 1.353 . S
C202 C205 1.348 . S
C202 H250 0.929 . S
C203 C204 1.358 . S
C203 C205 1.356 . S
C203 H251 0.930 . S
C204 N201 1.279 . S
C204 C203 1.358 . S
C204 H207 0.930 . S
C205 C202 1.348 . S
C205 C203 1.356 . S
H206 C200 0.930 . S
H207 C204 0.930 . S
C208 C210 1.348 . S
C208 C211 1.356 . S
C208 O238 1.325 . S
N209 C212 1.314 . S
N209 C213 1.279 . S
C210 C208 1.348 . S
C210 C212 1.353 . S
C210 H252 0.929 . S
C211 C208 1.356 . S
C211 C213 1.358 . S
C211 H253 0.930 . S
C212 N209 1.314 . S
C212 C210 1.353 . S
C212 H254 0.930 . S
C213 N209 1.279 . S
C213 C211 1.358 . S
C213 H255 0.930 . S
C214 C215 1.348 . S
C214 C216 1.356 . S
C214 O239 1.325 . S
C215 C214 1.348 . S
C215 C217 1.353 . S
C215 H256 0.929 . S
C216 C214 1.356 . S
C216 C218 1.358 . S
C216 H257 0.930 . S
C217 C215 1.353 . S
C217 N219 1.314 . S
C217 H258 0.930 . S
C218 C216 1.358 . S
C218 N219 1.279 . S
C218 H259 0.930 . S
N219 C217 1.314 . S
N219 C218 1.279 . S
C220 C222 1.353 . S
C220 N223 1.314 . S
C220 H226 0.930 . S
C221 N223 1.279 . S
C221 C224 1.358 . S
C221 H227 0.930 . S
C222 C220 1.353 . S
C222 C225 1.348 . S
C222 H260 0.929 . S
N223 Li178 1.990 . S
N223 C220 1.314 . S
N223 C221 1.279 . S
C224 C221 1.358 . S
C224 C225 1.356 . S
C224 H261 0.930 . S
C225 C222 1.348 . S
C225 C224 1.356 . S
H226 C220 0.930 . S
H227 C221 0.930 . S
C228 N229 1.314 . S
C228 C230 1.353 . S
C228 H234 0.930 . S
N229 Li179 1.990 . S
N229 C228 1.314 . S
N229 C232 1.279 . S
C230 C228 1.353 . S
C230 C233 1.348 . S
C230 H262 0.929 . S
C231 C232 1.358 . S
C231 C233 1.356 . S
C231 H263 0.930 . S
C232 N229 1.279 . S
C232 C231 1.358 . S
C232 H235 0.930 . S
C233 C230 1.348 . S
C233 C231 1.356 . S
H234 C228 0.930 . S
H235 C232 0.930 . S
O236 Li176 1.956 . S
O236 Li177 1.970 . S
O236 Li178 1.961 . S
O236 C180 1.325 . S
O237 Li176 1.970 . S
O237 Li177 1.956 . S
O237 Li179 1.961 . S
O237 C186 1.325 . S
O238 Li176 1.961 . S
O238 Li178 1.956 . S
O238 Li179 1.970 . S
O238 C208 1.325 . S
O239 Li177 1.961 . S
O239 Li178 1.970 . S
O239 Li179 1.956 . S
O239 C214 1.325 . S
H240 C182 0.929 . S
H241 C183 0.930 . S
H242 C184 0.930 . S
H243 C185 0.930 . S
H244 C187 0.930 . S
H245 C189 0.929 . S
H246 C190 0.930 . S
H247 C191 0.930 . S
H248 C194 0.930 . S
H249 C197 0.929 . S
H250 C202 0.929 . S
H251 C203 0.930 . S
H252 C210 0.929 . S
H253 C211 0.930 . S
H254 C212 0.930 . S
H255 C213 0.930 . S
H256 C215 0.929 . S
H257 C216 0.930 . S
H258 C217 0.930 . S
H259 C218 0.930 . S
H260 C222 0.929 . S
H261 C224 0.930 . S
H262 C230 0.929 . S
H263 C231 0.930 . S
Li264 N281 1.990 . S
Li264 O324 1.956 . S
Li264 O325 1.970 . S
Li264 O326 1.961 . S
Li265 N289 1.990 . S
Li265 O324 1.970 . S
Li265 O325 1.956 . S
Li265 O327 1.961 . S
Li266 N311 1.990 . S
Li266 O324 1.961 . S
Li266 O326 1.956 . S
Li266 O327 1.970 . S
Li267 N317 1.990 . S
Li267 O325 1.961 . S
Li267 O326 1.970 . S
Li267 O327 1.956 . S
C268 C270 1.348 . S
C268 C271 1.356 . S
C268 O324 1.325 . S
N269 C272 1.314 . S
N269 C273 1.279 . S
C270 C268 1.348 . S
C270 C272 1.353 . S
C270 H328 0.929 . S
C271 C268 1.356 . S
C271 C273 1.358 . S
C271 H329 0.930 . S
C272 N269 1.314 . S
C272 C270 1.353 . S
C272 H330 0.930 . S
C273 N269 1.279 . S
C273 C271 1.358 . S
C273 H331 0.930 . S
C274 C277 1.348 . S
C274 C278 1.356 . S
C274 O325 1.325 . S
C275 N276 1.279 . S
C275 C278 1.358 . S
C275 H332 0.930 . S
N276 C275 1.279 . S
N276 C279 1.314 . S
C277 C274 1.348 . S
C277 C279 1.353 . S
C277 H333 0.929 . S
C278 C274 1.356 . S
C278 C275 1.358 . S
C278 H334 0.930 . S
C279 N276 1.314 . S
C279 C277 1.353 . S
C279 H335 0.930 . S
C280 N281 1.314 . S
C280 C285 1.353 . S
C280 H286 0.930 . S
N281 Li264 1.990 . S
N281 C280 1.314 . S
N281 C283 1.279 . S
C282 C283 1.358 . S
C282 C284 1.356 . S
C282 H336 0.930 . S
C283 N281 1.279 . S
C283 C282 1.358 . S
C283 H287 0.930 . S
C284 C282 1.356 . S
C284 C285 1.348 . S
C285 C280 1.353 . S
C285 C284 1.348 . S
C285 H337 0.929 . S
H286 C280 0.930 . S
H287 C283 0.930 . S
C288 N289 1.314 . S
C288 C290 1.353 . S
C288 H294 0.930 . S
N289 Li265 1.990 . S
N289 C288 1.314 . S
N289 C292 1.279 . S
C290 C288 1.353 . S
C290 C293 1.348 . S
C290 H338 0.929 . S
C291 C292 1.358 . S
C291 C293 1.356 . S
C291 H339 0.930 . S
C292 N289 1.279 . S
C292 C291 1.358 . S
C292 H295 0.930 . S
C293 C290 1.348 . S
C293 C291 1.356 . S
H294 C288 0.930 . S
H295 C292 0.930 . S
C296 C298 1.348 . S
C296 C299 1.356 . S
C296 O326 1.325 . S
N297 C300 1.314 . S
N297 C301 1.279 . S
C298 C296 1.348 . S
C298 C300 1.353 . S
C298 H340 0.929 . S
C299 C296 1.356 . S
C299 C301 1.358 . S
C299 H341 0.930 . S
C300 N297 1.314 . S
C300 C298 1.353 . S
C300 H342 0.930 . S
C301 N297 1.279 . S
C301 C299 1.358 . S
C301 H343 0.930 . S
C302 C303 1.348 . S
C302 C304 1.356 . S
C302 O327 1.325 . S
C303 C302 1.348 . S
C303 C305 1.353 . S
C303 H344 0.929 . S
C304 C302 1.356 . S
C304 C306 1.358 . S
C304 H345 0.930 . S
C305 C303 1.353 . S
C305 N307 1.314 . S
C305 H346 0.930 . S
C306 C304 1.358 . S
C306 N307 1.279 . S
C306 H347 0.930 . S
N307 C305 1.314 . S
N307 C306 1.279 . S
C308 C310 1.353 . S
C308 N311 1.314 . S
C308 H314 0.930 . S
C309 N311 1.279 . S
C309 C312 1.358 . S
C309 H315 0.930 . S
C310 C308 1.353 . S
C310 C313 1.348 . S
C310 H348 0.929 . S
N311 Li266 1.990 . S
N311 C308 1.314 . S
N311 C309 1.279 . S
C312 C309 1.358 . S
C312 C313 1.356 . S
C312 H349 0.930 . S
C313 C310 1.348 . S
C313 C312 1.356 . S
H314 C308 0.930 . S
H315 C309 0.930 . S
C316 N317 1.314 . S
C316 C318 1.353 . S
C316 H322 0.930 . S
N317 Li267 1.990 . S
N317 C316 1.314 . S
N317 C320 1.279 . S
C318 C316 1.353 . S
C318 C321 1.348 . S
C318 H350 0.929 . S
C319 C320 1.358 . S
C319 C321 1.356 . S
C319 H351 0.930 . S
C320 N317 1.279 . S
C320 C319 1.358 . S
C320 H323 0.930 . S
C321 C318 1.348 . S
C321 C319 1.356 . S
H322 C316 0.930 . S
H323 C320 0.930 . S
O324 Li264 1.956 . S
O324 Li265 1.970 . S
O324 Li266 1.961 . S
O324 C268 1.325 . S
O325 Li264 1.970 . S
O325 Li265 1.956 . S
O325 Li267 1.961 . S
O325 C274 1.325 . S
O326 Li264 1.961 . S
O326 Li266 1.956 . S
O326 Li267 1.970 . S
O326 C296 1.325 . S
O327 Li265 1.961 . S
O327 Li266 1.970 . S
O327 Li267 1.956 . S
O327 C302 1.325 . S
H328 C270 0.929 . S
H329 C271 0.930 . S
H330 C272 0.930 . S
H331 C273 0.930 . S
H332 C275 0.930 . S
H333 C277 0.929 . S
H334 C278 0.930 . S
H335 C279 0.930 . S
H336 C282 0.930 . S
H337 C285 0.929 . S
H338 C290 0.929 . S
H339 C291 0.930 . S
H340 C298 0.929 . S
H341 C299 0.930 . S
H342 C300 0.930 . S
H343 C301 0.930 . S
H344 C303 0.929 . S
H345 C304 0.930 . S
H346 C305 0.930 . S
H347 C306 0.930 . S
H348 C310 0.929 . S
H349 C312 0.930 . S
H350 C318 0.929 . S
H351 C319 0.930 . S
Li352 N369 1.990 . S
Li352 O412 1.956 . S
Li352 O413 1.970 . S
Li352 O414 1.961 . S
Li353 N377 1.990 . S
Li353 O412 1.970 . S
Li353 O413 1.956 . S
Li353 O415 1.961 . S
Li354 N399 1.990 . S
Li354 O412 1.961 . S
Li354 O414 1.956 . S
Li354 O415 1.970 . S
Li355 N405 1.990 . S
Li355 O413 1.961 . S
Li355 O414 1.970 . S
Li355 O415 1.956 . S
C356 C358 1.348 . S
C356 C359 1.356 . S
C356 O412 1.325 . S
N357 C360 1.314 . S
N357 C361 1.279 . S
C358 C356 1.348 . S
C358 C360 1.353 . S
C358 H416 0.929 . S
C359 C356 1.356 . S
C359 C361 1.358 . S
C359 H417 0.930 . S
C360 N357 1.314 . S
C360 C358 1.353 . S
C360 H418 0.930 . S
C361 N357 1.279 . S
C361 C359 1.358 . S
C361 H419 0.930 . S
C362 C365 1.348 . S
C362 C366 1.356 . S
C362 O413 1.325 . S
C363 N364 1.279 . S
C363 C366 1.358 . S
C363 H420 0.930 . S
N364 C363 1.279 . S
N364 C367 1.314 . S
C365 C362 1.348 . S
C365 C367 1.353 . S
C365 H421 0.929 . S
C366 C362 1.356 . S
C366 C363 1.358 . S
C366 H422 0.930 . S
C367 N364 1.314 . S
C367 C365 1.353 . S
C367 H423 0.930 . S
C368 N369 1.314 . S
C368 C373 1.353 . S
C368 H374 0.930 . S
N369 Li352 1.990 . S
N369 C368 1.314 . S
N369 C371 1.279 . S
C370 C371 1.358 . S
C370 C372 1.356 . S
C370 H424 0.930 . S
C371 N369 1.279 . S
C371 C370 1.358 . S
C371 H375 0.930 . S
C372 C370 1.356 . S
C372 C373 1.348 . S
C373 C368 1.353 . S
C373 C372 1.348 . S
C373 H425 0.929 . S
H374 C368 0.930 . S
H375 C371 0.930 . S
C376 N377 1.314 . S
C376 C378 1.353 . S
C376 H382 0.930 . S
N377 Li353 1.990 . S
N377 C376 1.314 . S
N377 C380 1.279 . S
C378 C376 1.353 . S
C378 C381 1.348 . S
C378 H426 0.929 . S
C379 C380 1.358 . S
C379 C381 1.356 . S
C379 H427 0.930 . S
C380 N377 1.279 . S
C380 C379 1.358 . S
C380 H383 0.930 . S
C381 C378 1.348 . S
C381 C379 1.356 . S
H382 C376 0.930 . S
H383 C380 0.930 . S
C384 C386 1.348 . S
C384 C387 1.356 . S
C384 O414 1.325 . S
N385 C388 1.314 . S
N385 C389 1.279 . S
C386 C384 1.348 . S
C386 C388 1.353 . S
C386 H428 0.929 . S
C387 C384 1.356 . S
C387 C389 1.358 . S
C387 H429 0.930 . S
C388 N385 1.314 . S
C388 C386 1.353 . S
C388 H430 0.930 . S
C389 N385 1.279 . S
C389 C387 1.358 . S
C389 H431 0.930 . S
C390 C391 1.348 . S
C390 C392 1.356 . S
C390 O415 1.325 . S
C391 C390 1.348 . S
C391 C393 1.353 . S
C391 H432 0.929 . S
C392 C390 1.356 . S
C392 C394 1.358 . S
C392 H433 0.930 . S
C393 C391 1.353 . S
C393 N395 1.314 . S
C393 H434 0.930 . S
C394 C392 1.358 . S
C394 N395 1.279 . S
C394 H435 0.930 . S
N395 C393 1.314 . S
N395 C394 1.279 . S
C396 C398 1.353 . S
C396 N399 1.314 . S
C396 H402 0.930 . S
C397 N399 1.279 . S
C397 C400 1.358 . S
C397 H403 0.930 . S
C398 C396 1.353 . S
C398 C401 1.348 . S
C398 H436 0.929 . S
N399 Li354 1.990 . S
N399 C396 1.314 . S
N399 C397 1.279 . S
C400 C397 1.358 . S
C400 C401 1.356 . S
C400 H437 0.930 . S
C401 C398 1.348 . S
C401 C400 1.356 . S
H402 C396 0.930 . S
H403 C397 0.930 . S
C404 N405 1.314 . S
C404 C406 1.353 . S
C404 H410 0.930 . S
N405 Li355 1.990 . S
N405 C404 1.314 . S
N405 C408 1.279 . S
C406 C404 1.353 . S
C406 C409 1.348 . S
C406 H438 0.929 . S
C407 C408 1.358 . S
C407 C409 1.356 . S
C407 H439 0.930 . S
C408 N405 1.279 . S
C408 C407 1.358 . S
C408 H411 0.930 . S
C409 C406 1.348 . S
C409 C407 1.356 . S
H410 C404 0.930 . S
H411 C408 0.930 . S
O412 Li352 1.956 . S
O412 Li353 1.970 . S
O412 Li354 1.961 . S
O412 C356 1.325 . S
O413 Li352 1.970 . S
O413 Li353 1.956 . S
O413 Li355 1.961 . S
O413 C362 1.325 . S
O414 Li352 1.961 . S
O414 Li354 1.956 . S
O414 Li355 1.970 . S
O414 C384 1.325 . S
O415 Li353 1.961 . S
O415 Li354 1.970 . S
O415 Li355 1.956 . S
O415 C390 1.325 . S
H416 C358 0.929 . S
H417 C359 0.930 . S
H418 C360 0.930 . S
H419 C361 0.930 . S
H420 C363 0.930 . S
H421 C365 0.929 . S
H422 C366 0.930 . S
H423 C367 0.930 . S
H424 C370 0.930 . S
H425 C373 0.929 . S
H426 C378 0.929 . S
H427 C379 0.930 . S
H428 C386 0.929 . S
H429 C387 0.930 . S
H430 C388 0.930 . S
H431 C389 0.930 . S
H432 C391 0.929 . S
H433 C392 0.930 . S
H434 C393 0.930 . S
H435 C394 0.930 . S
H436 C398 0.929 . S
H437 C400 0.930 . S
H438 C406 0.929 . S
H439 C407 0.930 . S
Li440 N457 1.990 . S
Li440 O500 1.956 . S
Li440 O501 1.970 . S
Li440 O502 1.961 . S
Li441 N465 1.990 . S
Li441 O500 1.970 . S
Li441 O501 1.956 . S
Li441 O503 1.961 . S
Li442 N487 1.990 . S
Li442 O500 1.961 . S
Li442 O502 1.956 . S
Li442 O503 1.970 . S
Li443 N493 1.990 . S
Li443 O501 1.961 . S
Li443 O502 1.970 . S
Li443 O503 1.956 . S
C444 C446 1.348 . S
C444 C447 1.356 . S
C444 O500 1.325 . S
N445 C448 1.314 . S
N445 C449 1.279 . S
C446 C444 1.348 . S
C446 C448 1.353 . S
C446 H504 0.929 . S
C447 C444 1.356 . S
C447 C449 1.358 . S
C447 H505 0.930 . S
C448 N445 1.314 . S
C448 C446 1.353 . S
C448 H506 0.930 . S
C449 N445 1.279 . S
C449 C447 1.358 . S
C449 H507 0.930 . S
C450 C453 1.348 . S
C450 C454 1.356 . S
C450 O501 1.325 . S
C451 N452 1.279 . S
C451 C454 1.358 . S
C451 H508 0.930 . S
N452 C451 1.279 . S
N452 C455 1.314 . S
C453 C450 1.348 . S
C453 C455 1.353 . S
C453 H509 0.929 . S
C454 C450 1.356 . S
C454 C451 1.358 . S
C454 H510 0.930 . S
C455 N452 1.314 . S
C455 C453 1.353 . S
C455 H511 0.930 . S
C456 N457 1.314 . S
C456 C461 1.353 . S
C456 H462 0.930 . S
N457 Li440 1.990 . S
N457 C456 1.314 . S
N457 C459 1.279 . S
C458 C459 1.358 . S
C458 C460 1.356 . S
C458 H512 0.930 . S
C459 N457 1.279 . S
C459 C458 1.358 . S
C459 H463 0.930 . S
C460 C458 1.356 . S
C460 C461 1.348 . S
C461 C456 1.353 . S
C461 C460 1.348 . S
C461 H513 0.929 . S
H462 C456 0.930 . S
H463 C459 0.930 . S
C464 N465 1.314 . S
C464 C466 1.353 . S
C464 H470 0.930 . S
N465 Li441 1.990 . S
N465 C464 1.314 . S
N465 C468 1.279 . S
C466 C464 1.353 . S
C466 C469 1.348 . S
C466 H514 0.929 . S
C467 C468 1.358 . S
C467 C469 1.356 . S
C467 H515 0.930 . S
C468 N465 1.279 . S
C468 C467 1.358 . S
C468 H471 0.930 . S
C469 C466 1.348 . S
C469 C467 1.356 . S
H470 C464 0.930 . S
H471 C468 0.930 . S
C472 C474 1.348 . S
C472 C475 1.356 . S
C472 O502 1.325 . S
N473 C476 1.314 . S
N473 C477 1.279 . S
C474 C472 1.348 . S
C474 C476 1.353 . S
C474 H516 0.929 . S
C475 C472 1.356 . S
C475 C477 1.358 . S
C475 H517 0.930 . S
C476 N473 1.314 . S
C476 C474 1.353 . S
C476 H518 0.930 . S
C477 N473 1.279 . S
C477 C475 1.358 . S
C477 H519 0.930 . S
C478 C479 1.348 . S
C478 C480 1.356 . S
C478 O503 1.325 . S
C479 C478 1.348 . S
C479 C481 1.353 . S
C479 H520 0.929 . S
C480 C478 1.356 . S
C480 C482 1.358 . S
C480 H521 0.930 . S
C481 C479 1.353 . S
C481 N483 1.314 . S
C481 H522 0.930 . S
C482 C480 1.358 . S
C482 N483 1.279 . S
C482 H523 0.930 . S
N483 C481 1.314 . S
N483 C482 1.279 . S
C484 C486 1.353 . S
C484 N487 1.314 . S
C484 H490 0.930 . S
C485 N487 1.279 . S
C485 C488 1.358 . S
C485 H491 0.930 . S
C486 C484 1.353 . S
C486 C489 1.348 . S
C486 H524 0.929 . S
N487 Li442 1.990 . S
N487 C484 1.314 . S
N487 C485 1.279 . S
C488 C485 1.358 . S
C488 C489 1.356 . S
C488 H525 0.930 . S
C489 C486 1.348 . S
C489 C488 1.356 . S
H490 C484 0.930 . S
H491 C485 0.930 . S
C492 N493 1.314 . S
C492 C494 1.353 . S
C492 H498 0.930 . S
N493 Li443 1.990 . S
N493 C492 1.314 . S
N493 C496 1.279 . S
C494 C492 1.353 . S
C494 C497 1.348 . S
C494 H526 0.929 . S
C495 C496 1.358 . S
C495 C497 1.356 . S
C495 H527 0.930 . S
C496 N493 1.279 . S
C496 C495 1.358 . S
C496 H499 0.930 . S
C497 C494 1.348 . S
C497 C495 1.356 . S
H498 C492 0.930 . S
H499 C496 0.930 . S
O500 Li440 1.956 . S
O500 Li441 1.970 . S
O500 Li442 1.961 . S
O500 C444 1.325 . S
O501 Li440 1.970 . S
O501 Li441 1.956 . S
O501 Li443 1.961 . S
O501 C450 1.325 . S
O502 Li440 1.961 . S
O502 Li442 1.956 . S
O502 Li443 1.970 . S
O502 C472 1.325 . S
O503 Li441 1.961 . S
O503 Li442 1.970 . S
O503 Li443 1.956 . S
O503 C478 1.325 . S
H504 C446 0.929 . S
H505 C447 0.930 . S
H506 C448 0.930 . S
H507 C449 0.930 . S
H508 C451 0.930 . S
H509 C453 0.929 . S
H510 C454 0.930 . S
H511 C455 0.930 . S
H512 C458 0.930 . S
H513 C461 0.929 . S
H514 C466 0.929 . S
H515 C467 0.930 . S
H516 C474 0.929 . S
H517 C475 0.930 . S
H518 C476 0.930 . S
H519 C477 0.930 . S
H520 C479 0.929 . S
H521 C480 0.930 . S
H522 C481 0.930 . S
H523 C482 0.930 . S
H524 C486 0.929 . S
H525 C488 0.930 . S
H526 C494 0.929 . S
H527 C495 0.930 . S
Li528 N545 1.990 . S
Li528 O588 1.956 . S
Li528 O589 1.970 . S
Li528 O590 1.961 . S
Li529 N553 1.990 . S
Li529 O588 1.970 . S
Li529 O589 1.956 . S
Li529 O591 1.961 . S
Li530 N575 1.990 . S
Li530 O588 1.961 . S
Li530 O590 1.956 . S
Li530 O591 1.970 . S
Li531 N581 1.990 . S
Li531 O589 1.961 . S
Li531 O590 1.970 . S
Li531 O591 1.956 . S
C532 C534 1.348 . S
C532 C535 1.356 . S
C532 O588 1.325 . S
N533 C536 1.314 . S
N533 C537 1.279 . S
C534 C532 1.348 . S
C534 C536 1.353 1_556 S
C534 H592 0.929 . S
C535 C532 1.356 . S
C535 C537 1.358 1_556 S
C535 H593 0.930 . S
C536 N533 1.314 . S
C536 C534 1.353 1_554 S
C536 H594 0.930 . S
C537 N533 1.279 . S
C537 C535 1.358 1_554 S
C537 H595 0.930 . S
C538 C541 1.348 . S
C538 C542 1.356 . S
C538 O589 1.325 . S
C539 N540 1.279 . S
C539 C542 1.358 . S
C539 H596 0.930 . S
N540 C539 1.279 . S
N540 C543 1.314 . S
C541 C538 1.348 . S
C541 C543 1.353 . S
C541 H597 0.929 . S
C542 C538 1.356 . S
C542 C539 1.358 . S
C542 H598 0.930 . S
C543 N540 1.314 . S
C543 C541 1.353 . S
C543 H599 0.930 . S
C544 N545 1.314 . S
C544 C549 1.353 . S
C544 H550 0.930 . S
N545 Li528 1.990 . S
N545 C544 1.314 . S
N545 C547 1.279 . S
C546 C547 1.358 . S
C546 C548 1.356 . S
C546 H600 0.930 . S
C547 N545 1.279 . S
C547 C546 1.358 . S
C547 H551 0.930 . S
C548 C546 1.356 . S
C548 C549 1.348 . S
C549 C544 1.353 . S
C549 C548 1.348 . S
C549 H601 0.929 . S
H550 C544 0.930 . S
H551 C547 0.930 . S
C552 N553 1.314 . S
C552 C554 1.353 . S
C552 H558 0.930 . S
N553 Li529 1.990 . S
N553 C552 1.314 . S
N553 C556 1.279 . S
C554 C552 1.353 . S
C554 C557 1.348 . S
C554 H602 0.929 . S
C555 C556 1.358 . S
C555 C557 1.356 . S
C555 H603 0.930 . S
C556 N553 1.279 . S
C556 C555 1.358 . S
C556 H559 0.930 . S
C557 C554 1.348 . S
C557 C555 1.356 . S
H558 C552 0.930 . S
H559 C556 0.930 . S
C560 C562 1.348 . S
C560 C563 1.356 . S
C560 O590 1.325 . S
N561 C564 1.314 . S
N561 C565 1.279 . S
C562 C560 1.348 . S
C562 C564 1.353 . S
C562 H604 0.929 . S
C563 C560 1.356 . S
C563 C565 1.358 . S
C563 H605 0.930 . S
C564 N561 1.314 . S
C564 C562 1.353 . S
C564 H606 0.930 . S
C565 N561 1.279 . S
C565 C563 1.358 . S
C565 H607 0.930 . S
C566 C567 1.348 . S
C566 C568 1.356 . S
C566 O591 1.325 . S
C567 C566 1.348 . S
C567 C569 1.353 . S
C567 H608 0.929 . S
C568 C566 1.356 . S
C568 C570 1.358 . S
C568 H609 0.930 . S
C569 C567 1.353 . S
C569 N571 1.314 . S
C569 H610 0.930 . S
C570 C568 1.358 . S
C570 N571 1.279 . S
C570 H611 0.930 . S
N571 C569 1.314 . S
N571 C570 1.279 . S
C572 C574 1.353 . S
C572 N575 1.314 . S
C572 H578 0.930 . S
C573 N575 1.279 . S
C573 C576 1.358 . S
C573 H579 0.930 . S
C574 C572 1.353 . S
C574 C577 1.348 . S
C574 H612 0.882 1_556 S
N575 Li530 1.990 . S
N575 C572 1.314 . S
N575 C573 1.279 . S
C576 C573 1.358 . S
C576 C577 1.356 . S
C576 H613 0.930 . S
C577 C574 1.348 . S
C577 C576 1.356 . S
H578 C572 0.930 . S
H579 C573 0.930 . S
C580 N581 1.314 . S
C580 C582 1.353 . S
C580 H586 0.930 . S
N581 Li531 1.990 . S
N581 C580 1.314 . S
N581 C584 1.279 . S
C582 C580 1.353 . S
C582 C585 1.348 . S
C582 H614 0.929 . S
C583 C584 1.358 . S
C583 C585 1.356 . S
C583 H615 0.930 . S
C584 N581 1.279 . S
C584 C583 1.358 . S
C584 H587 0.930 . S
C585 C582 1.348 . S
C585 C583 1.356 . S
H586 C580 0.930 . S
H587 C584 0.930 . S
O588 Li528 1.956 . S
O588 Li529 1.970 . S
O588 Li530 1.961 . S
O588 C532 1.325 . S
O589 Li528 1.970 . S
O589 Li529 1.956 . S
O589 Li531 1.961 . S
O589 C538 1.325 . S
O590 Li528 1.961 . S
O590 Li530 1.956 . S
O590 Li531 1.970 . S
O590 C560 1.325 . S
O591 Li529 1.961 . S
O591 Li530 1.970 . S
O591 Li531 1.956 . S
O591 C566 1.325 . S
H592 C534 0.929 . S
H593 C535 0.930 . S
H594 C536 0.930 . S
H595 C537 0.930 . S
H596 C539 0.930 . S
H597 C541 0.929 . S
H598 C542 0.930 . S
H599 C543 0.930 . S
H600 C546 0.930 . S
H601 C549 0.929 . S
H602 C554 0.929 . S
H603 C555 0.930 . S
H604 C562 0.929 . S
H605 C563 0.930 . S
H606 C564 0.930 . S
H607 C565 0.930 . S
H608 C567 0.929 . S
H609 C568 0.930 . S
H610 C569 0.930 . S
H611 C570 0.930 . S
H612 C574 0.882 1_554 S
H613 C576 0.930 . S
H614 C582 0.929 . S
H615 C583 0.930 . S
Li616 N633 1.990 . S
Li616 O676 1.956 . S
Li616 O677 1.970 . S
Li616 O678 1.961 . S
Li617 N641 1.990 . S
Li617 O676 1.970 . S
Li617 O677 1.956 . S
Li617 O679 1.961 . S
Li618 N663 1.990 . S
Li618 O676 1.961 . S
Li618 O678 1.956 . S
Li618 O679 1.970 . S
Li619 N669 1.990 . S
Li619 O677 1.961 . S
Li619 O678 1.970 . S
Li619 O679 1.956 . S
C620 C622 1.348 . S
C620 C623 1.356 . S
C620 O676 1.325 . S
N621 C624 1.314 . S
N621 C625 1.279 . S
C622 C620 1.348 . S
C622 C624 1.353 . S
C622 H680 0.929 . S
C623 C620 1.356 . S
C623 C625 1.358 . S
C623 H681 0.930 . S
C624 N621 1.314 . S
C624 C622 1.353 . S
C624 H682 0.930 . S
C625 N621 1.279 . S
C625 C623 1.358 . S
C625 H683 0.930 . S
C626 C629 1.348 . S
C626 C630 1.356 . S
C626 O677 1.325 . S
C627 N628 1.279 . S
C627 C630 1.358 . S
C627 H684 0.930 . S
N628 C627 1.279 . S
N628 C631 1.314 . S
C629 C626 1.348 . S
C629 C631 1.353 . S
C629 H685 0.929 . S
C630 C626 1.356 . S
C630 C627 1.358 . S
C630 H686 0.930 . S
C631 N628 1.314 . S
C631 C629 1.353 . S
C631 H687 0.930 . S
C632 N633 1.314 . S
C632 C637 1.353 . S
C632 H638 0.930 . S
N633 Li616 1.990 . S
N633 C632 1.314 . S
N633 C635 1.279 . S
C634 C635 1.358 . S
C634 C636 1.356 . S
C634 H688 0.930 . S
C635 N633 1.279 . S
C635 C634 1.358 . S
C635 H639 0.930 . S
C636 C634 1.356 . S
C636 C637 1.348 . S
C637 C632 1.353 . S
C637 C636 1.348 . S
C637 H689 0.929 . S
H638 C632 0.930 . S
H639 C635 0.930 . S
C640 N641 1.314 . S
C640 C642 1.353 . S
C640 H646 0.930 . S
N641 Li617 1.990 . S
N641 C640 1.314 . S
N641 C644 1.279 . S
C642 C640 1.353 . S
C642 C645 1.348 . S
C642 H690 0.929 . S
C643 C644 1.358 . S
C643 C645 1.356 . S
C643 H691 0.930 . S
C644 N641 1.279 . S
C644 C643 1.358 . S
C644 H647 0.930 . S
C645 C642 1.348 . S
C645 C643 1.356 . S
H646 C640 0.930 . S
H647 C644 0.930 . S
C648 C650 1.348 . S
C648 C651 1.356 . S
C648 O678 1.325 . S
N649 C652 1.314 . S
N649 C653 1.279 . S
C650 C648 1.348 . S
C650 C652 1.353 . S
C650 H692 0.929 . S
C651 C648 1.356 . S
C651 C653 1.358 . S
C651 H693 0.930 . S
C652 N649 1.314 . S
C652 C650 1.353 . S
C652 H694 0.930 . S
C653 N649 1.279 . S
C653 C651 1.358 . S
C653 H695 0.930 . S
C654 C655 1.348 . S
C654 C656 1.356 . S
C654 O679 1.325 . S
C655 C654 1.348 . S
C655 C657 1.353 . S
C655 H696 0.929 . S
C656 C654 1.356 . S
C656 C658 1.358 . S
C656 H697 0.930 . S
C657 C655 1.353 . S
C657 N659 1.314 . S
C657 H698 0.930 . S
C658 C656 1.358 . S
C658 N659 1.279 . S
C658 H699 0.930 . S
N659 C657 1.314 . S
N659 C658 1.279 . S
C660 C662 1.353 . S
C660 N663 1.314 . S
C660 H666 0.930 . S
C661 N663 1.279 . S
C661 C664 1.358 . S
C661 H667 0.930 . S
C662 C660 1.353 . S
C662 C665 1.348 . S
C662 H700 0.929 . S
N663 Li618 1.990 . S
N663 C660 1.314 . S
N663 C661 1.279 . S
C664 C661 1.358 . S
C664 C665 1.356 . S
C664 H701 0.930 . S
C665 C662 1.348 . S
C665 C664 1.356 . S
H666 C660 0.930 . S
H667 C661 0.930 . S
C668 N669 1.314 . S
C668 C670 1.353 . S
C668 H674 0.930 . S
N669 Li619 1.990 . S
N669 C668 1.314 . S
N669 C672 1.279 . S
C670 C668 1.353 . S
C670 C673 1.348 . S
C670 H702 0.929 . S
C671 C672 1.358 . S
C671 C673 1.356 . S
C671 H703 0.930 . S
C672 N669 1.279 . S
C672 C671 1.358 . S
C672 H675 0.930 . S
C673 C670 1.348 . S
C673 C671 1.356 . S
H674 C668 0.930 . S
H675 C672 0.930 . S
O676 Li616 1.956 . S
O676 Li617 1.970 . S
O676 Li618 1.961 . S
O676 C620 1.325 . S
O677 Li616 1.970 . S
O677 Li617 1.956 . S
O677 Li619 1.961 . S
O677 C626 1.325 . S
O678 Li616 1.961 . S
O678 Li618 1.956 . S
O678 Li619 1.970 . S
O678 C648 1.325 . S
O679 Li617 1.961 . S
O679 Li618 1.970 . S
O679 Li619 1.956 . S
O679 C654 1.325 . S
H680 C622 0.929 . S
H681 C623 0.930 . S
H682 C624 0.930 . S
H683 C625 0.930 . S
H684 C627 0.930 . S
H685 C629 0.929 . S
H686 C630 0.930 . S
H687 C631 0.930 . S
H688 C634 0.930 . S
H689 C637 0.929 . S
H690 C642 0.929 . S
H691 C643 0.930 . S
H692 C650 0.929 . S
H693 C651 0.930 . S
H694 C652 0.930 . S
H695 C653 0.930 . S
H696 C655 0.929 . S
H697 C656 0.930 . S
H698 C657 0.930 . S
H699 C658 0.930 . S
H700 C662 0.929 . S
H701 C664 0.930 . S
H702 C670 0.929 . S
H703 C671 0.930 . S
Li704 N721 1.990 . S
Li704 O764 1.956 . S
Li704 O765 1.970 . S
Li704 O766 1.961 . S
Li705 N729 1.990 . S
Li705 O764 1.970 . S
Li705 O765 1.956 . S
Li705 O767 1.961 . S
Li706 N751 1.990 . S
Li706 O764 1.961 . S
Li706 O766 1.956 . S
Li706 O767 1.970 . S
Li707 N757 1.990 . S
Li707 O765 1.961 . S
Li707 O766 1.970 . S
Li707 O767 1.956 . S
C708 C710 1.348 . S
C708 C711 1.356 . S
C708 O764 1.325 . S
N709 C712 1.314 . S
N709 C713 1.279 . S
C710 C708 1.348 . S
C710 C712 1.353 1_556 S
C710 H768 0.929 . S
C711 C708 1.356 . S
C711 C713 1.358 1_556 S
C711 H769 0.930 . S
C712 N709 1.314 . S
C712 C710 1.353 1_554 S
C712 H770 0.930 . S
C713 N709 1.279 . S
C713 C711 1.358 1_554 S
C713 H771 0.930 . S
C714 C717 1.348 . S
C714 C718 1.356 . S
C714 O765 1.325 . S
C715 N716 1.279 . S
C715 C718 1.358 . S
C715 H772 0.930 . S
N716 C715 1.279 . S
N716 C719 1.314 . S
C717 C714 1.348 . S
C717 C719 1.353 . S
C717 H773 0.929 . S
C718 C714 1.356 . S
C718 C715 1.358 . S
C718 H774 0.930 . S
C719 N716 1.314 . S
C719 C717 1.353 . S
C719 H775 0.930 . S
C720 N721 1.314 . S
C720 C725 1.353 . S
C720 H726 0.930 . S
N721 Li704 1.990 . S
N721 C720 1.314 . S
N721 C723 1.279 . S
C722 C723 1.358 . S
C722 C724 1.356 . S
C722 H776 0.930 1_556 S
C723 N721 1.279 . S
C723 C722 1.358 . S
C723 H727 0.930 . S
C724 C722 1.356 . S
C724 C725 1.348 . S
C725 C720 1.353 . S
C725 C724 1.348 . S
C725 H777 0.929 . S
H726 C720 0.930 . S
H727 C723 0.930 . S
C728 N729 1.314 . S
C728 C730 1.353 . S
C728 H734 0.930 . S
N729 Li705 1.990 . S
N729 C728 1.314 . S
N729 C732 1.279 . S
C730 C728 1.353 . S
C730 C733 1.348 . S
C730 H778 0.929 . S
C731 C732 1.358 . S
C731 C733 1.356 . S
C731 H779 0.930 . S
C732 N729 1.279 . S
C732 C731 1.358 . S
C732 H735 0.930 . S
C733 C730 1.348 . S
C733 C731 1.356 . S
H734 C728 0.930 . S
H735 C732 0.930 . S
C736 C738 1.348 . S
C736 C739 1.356 . S
C736 O766 1.325 . S
N737 C740 1.314 . S
N737 C741 1.279 . S
C738 C736 1.348 . S
C738 C740 1.353 . S
C738 H780 0.929 . S
C739 C736 1.356 . S
C739 C741 1.358 . S
C739 H781 0.930 . S
C740 N737 1.314 . S
C740 C738 1.353 . S
C740 H782 0.930 . S
C741 N737 1.279 . S
C741 C739 1.358 . S
C741 H783 0.930 . S
C742 C743 1.348 . S
C742 C744 1.356 . S
C742 O767 1.325 . S
C743 C742 1.348 . S
C743 C745 1.353 . S
C743 H784 0.929 . S
C744 C742 1.356 . S
C744 C746 1.358 . S
C744 H785 0.930 . S
C745 C743 1.353 . S
C745 N747 1.314 . S
C745 H786 0.930 . S
C746 C744 1.358 . S
C746 N747 1.279 . S
C746 H787 0.930 . S
N747 C745 1.314 . S
N747 C746 1.279 . S
C748 C750 1.353 . S
C748 N751 1.314 . S
C748 H754 0.930 . S
C749 N751 1.279 . S
C749 C752 1.358 . S
C749 H755 0.930 . S
C750 C748 1.353 . S
C750 C753 1.348 . S
C750 H788 0.929 . S
N751 Li706 1.990 . S
N751 C748 1.314 . S
N751 C749 1.279 . S
C752 C749 1.358 . S
C752 C753 1.356 . S
C752 H789 0.930 . S
C753 C750 1.348 . S
C753 C752 1.356 . S
H754 C748 0.930 . S
H755 C749 0.930 . S
C756 N757 1.314 . S
C756 C758 1.353 . S
C756 H762 0.930 . S
N757 Li707 1.990 . S
N757 C756 1.314 . S
N757 C760 1.279 . S
C758 C756 1.353 . S
C758 C761 1.348 . S
C758 H790 0.929 . S
C759 C760 1.358 . S
C759 C761 1.356 . S
C759 H791 0.930 . S
C760 N757 1.279 . S
C760 C759 1.358 . S
C760 H763 0.930 . S
C761 C758 1.348 . S
C761 C759 1.356 . S
H762 C756 0.930 . S
H763 C760 0.930 . S
O764 Li704 1.956 . S
O764 Li705 1.970 . S
O764 Li706 1.961 . S
O764 C708 1.325 . S
O765 Li704 1.970 . S
O765 Li705 1.956 . S
O765 Li707 1.961 . S
O765 C714 1.325 . S
O766 Li704 1.961 . S
O766 Li706 1.956 . S
O766 Li707 1.970 . S
O766 C736 1.325 . S
O767 Li705 1.961 . S
O767 Li706 1.970 . S
O767 Li707 1.956 . S
O767 C742 1.325 . S
H768 C710 0.929 . S
H769 C711 0.930 . S
H770 C712 0.930 . S
H771 C713 0.930 . S
H772 C715 0.930 . S
H773 C717 0.929 . S
H774 C718 0.930 . S
H775 C719 0.930 . S
H776 C722 0.930 1_554 S
H777 C725 0.929 . S
H778 C730 0.929 . S
H779 C731 0.930 . S
H780 C738 0.929 . S
H781 C739 0.930 . S
H782 C740 0.930 . S
H783 C741 0.930 . S
H784 C743 0.929 . S
H785 C744 0.930 . S
H786 C745 0.930 . S
H787 C746 0.930 . S
H788 C750 0.929 . S
H789 C752 0.930 . S
H790 C758 0.929 . S
H791 C759 0.930 . S
Li792 N809 1.990 . S
Li792 O852 1.956 . S
Li792 O853 1.970 . S
Li792 O854 1.961 . S
Li793 N817 1.990 . S
Li793 O852 1.970 . S
Li793 O853 1.956 . S
Li793 O855 1.961 . S
Li794 N839 1.990 . S
Li794 O852 1.961 . S
Li794 O854 1.956 . S
Li794 O855 1.970 . S
Li795 N845 1.990 . S
Li795 O853 1.961 . S
Li795 O854 1.970 . S
Li795 O855 1.956 . S
C796 C798 1.348 . S
C796 C799 1.356 . S
C796 O852 1.325 . S
N797 C800 1.314 . S
N797 C801 1.279 . S
C798 C796 1.348 . S
C798 C800 1.353 . S
C798 H856 0.929 . S
C799 C796 1.356 . S
C799 C801 1.358 . S
C799 H857 0.930 . S
C800 N797 1.314 . S
C800 C798 1.353 . S
C800 H858 0.930 . S
C801 N797 1.279 . S
C801 C799 1.358 . S
C801 H859 0.930 . S
C802 C805 1.348 . S
C802 C806 1.356 . S
C802 O853 1.325 . S
C803 N804 1.279 . S
C803 C806 1.358 . S
C803 H860 0.930 . S
N804 C803 1.279 . S
N804 C807 1.314 . S
C805 C802 1.348 . S
C805 C807 1.353 . S
C805 H861 0.929 . S
C806 C802 1.356 . S
C806 C803 1.358 . S
C806 H862 0.930 . S
C807 N804 1.314 . S
C807 C805 1.353 . S
C807 H863 0.930 . S
C808 N809 1.314 . S
C808 C813 1.353 . S
C808 H814 0.930 . S
N809 Li792 1.990 . S
N809 C808 1.314 . S
N809 C811 1.279 . S
C810 C811 1.358 . S
C810 C812 1.356 . S
C810 H864 0.930 . S
C811 N809 1.279 . S
C811 C810 1.358 . S
C811 H815 0.930 . S
C812 C810 1.356 . S
C812 C813 1.348 . S
C813 C808 1.353 . S
C813 C812 1.348 . S
C813 H865 0.929 . S
H814 C808 0.930 . S
H815 C811 0.930 . S
C816 N817 1.314 . S
C816 C818 1.353 . S
C816 H822 0.930 . S
N817 Li793 1.990 . S
N817 C816 1.314 . S
N817 C820 1.279 . S
C818 C816 1.353 . S
C818 C821 1.348 . S
C818 H866 0.929 . S
C819 C820 1.358 . S
C819 C821 1.356 . S
C819 H867 0.930 . S
C820 N817 1.279 . S
C820 C819 1.358 . S
C820 H823 0.930 . S
C821 C818 1.348 . S
C821 C819 1.356 . S
H822 C816 0.930 . S
H823 C820 0.930 . S
C824 C826 1.348 . S
C824 C827 1.356 . S
C824 O854 1.325 . S
N825 C828 1.314 . S
N825 C829 1.279 . S
C826 C824 1.348 . S
C826 C828 1.353 . S
C826 H868 0.929 . S
C827 C824 1.356 . S
C827 C829 1.358 . S
C827 H869 0.930 . S
C828 N825 1.314 . S
C828 C826 1.353 . S
C828 H870 0.930 . S
C829 N825 1.279 . S
C829 C827 1.358 . S
C829 H871 0.930 . S
C830 C831 1.348 . S
C830 C832 1.356 . S
C830 O855 1.325 . S
C831 C830 1.348 . S
C831 C833 1.353 . S
C831 H872 0.929 . S
C832 C830 1.356 . S
C832 C834 1.358 . S
C832 H873 0.930 . S
C833 C831 1.353 . S
C833 N835 1.314 . S
C833 H874 0.930 . S
C834 C832 1.358 . S
C834 N835 1.279 . S
C834 H875 0.930 . S
N835 C833 1.314 . S
N835 C834 1.279 . S
C836 C838 1.353 . S
C836 N839 1.314 . S
C836 H842 0.930 . S
C837 N839 1.279 . S
C837 C840 1.358 . S
C837 H843 0.930 . S
C838 C836 1.353 . S
C838 C841 1.348 . S
C838 H876 0.929 . S
N839 Li794 1.990 . S
N839 C836 1.314 . S
N839 C837 1.279 . S
C840 C837 1.358 . S
C840 C841 1.356 . S
C840 H877 0.930 . S
C841 C838 1.348 . S
C841 C840 1.356 . S
H842 C836 0.930 . S
H843 C837 0.930 . S
C844 N845 1.314 . S
C844 C846 1.353 . S
C844 H850 0.930 . S
N845 Li795 1.990 . S
N845 C844 1.314 . S
N845 C848 1.279 . S
C846 C844 1.353 . S
C846 C849 1.348 . S
C846 H878 0.929 . S
C847 C848 1.358 . S
C847 C849 1.356 . S
C847 H879 0.930 . S
C848 N845 1.279 . S
C848 C847 1.358 . S
C848 H851 0.930 . S
C849 C846 1.348 . S
C849 C847 1.356 . S
H850 C844 0.930 . S
H851 C848 0.930 . S
O852 Li792 1.956 . S
O852 Li793 1.970 . S
O852 Li794 1.961 . S
O852 C796 1.325 . S
O853 Li792 1.970 . S
O853 Li793 1.956 . S
O853 Li795 1.961 . S
O853 C802 1.325 . S
O854 Li792 1.961 . S
O854 Li794 1.956 . S
O854 Li795 1.970 . S
O854 C824 1.325 . S
O855 Li793 1.961 . S
O855 Li794 1.970 . S
O855 Li795 1.956 . S
O855 C830 1.325 . S
H856 C798 0.929 . S
H857 C799 0.930 . S
H858 C800 0.930 . S
H859 C801 0.930 . S
H860 C803 0.930 . S
H861 C805 0.929 . S
H862 C806 0.930 . S
H863 C807 0.930 . S
H864 C810 0.930 . S
H865 C813 0.929 . S
H866 C818 0.929 . S
H867 C819 0.930 . S
H868 C826 0.929 . S
H869 C827 0.930 . S
H870 C828 0.930 . S
H871 C829 0.930 . S
H872 C831 0.929 . S
H873 C832 0.930 . S
H874 C833 0.930 . S
H875 C834 0.930 . S
H876 C838 0.929 . S
H877 C840 0.930 . S
H878 C846 0.929 . S
H879 C847 0.930 . S
Li880 N897 1.990 . S
Li880 O940 1.956 . S
Li880 O941 1.970 . S
Li880 O942 1.961 . S
Li881 N905 1.990 . S
Li881 O940 1.970 . S
Li881 O941 1.956 . S
Li881 O943 1.961 . S
Li882 N927 1.990 . S
Li882 O940 1.961 . S
Li882 O942 1.956 . S
Li882 O943 1.970 . S
Li883 N933 1.990 . S
Li883 O941 1.961 . S
Li883 O942 1.970 . S
Li883 O943 1.956 . S
C884 C886 1.348 . S
C884 C887 1.356 . S
C884 O940 1.325 . S
N885 C888 1.314 . S
N885 C889 1.279 . S
C886 C884 1.348 . S
C886 C888 1.353 . S
C886 H944 0.929 . S
C887 C884 1.356 . S
C887 C889 1.358 . S
C887 H945 0.930 . S
C888 N885 1.314 . S
C888 C886 1.353 . S
C888 H946 0.930 . S
C889 N885 1.279 . S
C889 C887 1.358 . S
C889 H947 0.930 . S
C890 C893 1.348 . S
C890 C894 1.356 . S
C890 O941 1.325 . S
C891 N892 1.279 . S
C891 C894 1.358 . S
C891 H948 0.930 . S
N892 C891 1.279 . S
N892 C895 1.314 . S
C893 C890 1.348 . S
C893 C895 1.353 . S
C893 H949 0.929 . S
C894 C890 1.356 . S
C894 C891 1.358 . S
C894 H950 0.930 . S
C895 N892 1.314 . S
C895 C893 1.353 . S
C895 H951 0.930 . S
C896 N897 1.314 . S
C896 C901 1.353 . S
C896 H902 0.930 . S
N897 Li880 1.990 . S
N897 C896 1.314 . S
N897 C899 1.279 . S
C898 C899 1.358 . S
C898 C900 1.356 . S
C898 H952 0.930 . S
C899 N897 1.279 . S
C899 C898 1.358 . S
C899 H903 0.930 . S
C900 C898 1.356 . S
C900 C901 1.348 . S
C901 C896 1.353 . S
C901 C900 1.348 . S
C901 H953 0.929 . S
H902 C896 0.930 . S
H903 C899 0.930 . S
C904 N905 1.314 . S
C904 C906 1.353 . S
C904 H910 0.930 . S
N905 Li881 1.990 . S
N905 C904 1.314 . S
N905 C908 1.279 . S
C906 C904 1.353 . S
C906 C909 1.348 . S
C906 H954 0.929 . S
C907 C908 1.358 . S
C907 C909 1.356 . S
C907 H955 0.930 . S
C908 N905 1.279 . S
C908 C907 1.358 . S
C908 H911 0.930 . S
C909 C906 1.348 . S
C909 C907 1.356 . S
H910 C904 0.930 . S
H911 C908 0.930 . S
C912 C914 1.348 . S
C912 C915 1.356 . S
C912 O942 1.325 . S
N913 C916 1.314 . S
N913 C917 1.279 . S
C914 C912 1.348 . S
C914 C916 1.353 . S
C914 H956 0.929 . S
C915 C912 1.356 . S
C915 C917 1.358 . S
C915 H957 0.930 . S
C916 N913 1.314 . S
C916 C914 1.353 . S
C916 H958 0.930 . S
C917 N913 1.279 . S
C917 C915 1.358 . S
C917 H959 0.930 . S
C918 C919 1.348 . S
C918 C920 1.356 . S
C918 O943 1.325 . S
C919 C918 1.348 . S
C919 C921 1.353 . S
C919 H960 0.929 . S
C920 C918 1.356 . S
C920 C922 1.358 . S
C920 H961 0.930 . S
C921 C919 1.353 . S
C921 N923 1.314 . S
C921 H962 0.930 . S
C922 C920 1.358 . S
C922 N923 1.279 . S
C922 H963 0.930 . S
N923 C921 1.314 . S
N923 C922 1.279 . S
C924 C926 1.353 . S
C924 N927 1.314 . S
C924 H930 0.930 . S
C925 N927 1.279 . S
C925 C928 1.358 . S
C925 H931 0.930 . S
C926 C924 1.353 . S
C926 C929 1.348 . S
C926 H964 0.929 . S
N927 Li882 1.990 . S
N927 C924 1.314 . S
N927 C925 1.279 . S
C928 C925 1.358 . S
C928 C929 1.356 . S
C928 H965 0.930 . S
C929 C926 1.348 . S
C929 C928 1.356 . S
H930 C924 0.930 . S
H931 C925 0.930 . S
C932 N933 1.314 . S
C932 C934 1.353 . S
C932 H938 0.930 . S
N933 Li883 1.990 . S
N933 C932 1.314 . S
N933 C936 1.279 . S
C934 C932 1.353 . S
C934 C937 1.348 . S
C934 H966 0.929 . S
C935 C936 1.358 . S
C935 C937 1.356 . S
C935 H967 0.930 . S
C936 N933 1.279 . S
C936 C935 1.358 . S
C936 H939 0.930 . S
C937 C934 1.348 . S
C937 C935 1.356 . S
H938 C932 0.930 . S
H939 C936 0.930 . S
O940 Li880 1.956 . S
O940 Li881 1.970 . S
O940 Li882 1.961 . S
O940 C884 1.325 . S
O941 Li880 1.970 . S
O941 Li881 1.956 . S
O941 Li883 1.961 . S
O941 C890 1.325 . S
O942 Li880 1.961 . S
O942 Li882 1.956 . S
O942 Li883 1.970 . S
O942 C912 1.325 . S
O943 Li881 1.961 . S
O943 Li882 1.970 . S
O943 Li883 1.956 . S
O943 C918 1.325 . S
H944 C886 0.929 . S
H945 C887 0.930 . S
H946 C888 0.930 . S
H947 C889 0.930 . S
H948 C891 0.930 . S
H949 C893 0.929 . S
H950 C894 0.930 . S
H951 C895 0.930 . S
H952 C898 0.930 . S
H953 C901 0.929 . S
H954 C906 0.929 . S
H955 C907 0.930 . S
H956 C914 0.929 . S
H957 C915 0.930 . S
H958 C916 0.930 . S
H959 C917 0.930 . S
H960 C919 0.929 . S
H961 C920 0.930 . S
H962 C921 0.930 . S
H963 C922 0.930 . S
H964 C926 0.929 . S
H965 C928 0.930 . S
H966 C934 0.929 . S
H967 C935 0.930 . S
Li968 N985 1.990 . S
Li968 O1028 1.956 . S
Li968 O1029 1.970 . S
Li968 O1030 1.961 . S
Li969 N993 1.990 . S
Li969 O1028 1.970 . S
Li969 O1029 1.956 . S
Li969 O1031 1.961 . S
Li970 N1015 1.990 . S
Li970 O1028 1.961 . S
Li970 O1030 1.956 . S
Li970 O1031 1.970 . S
Li971 N1021 1.990 . S
Li971 O1029 1.961 . S
Li971 O1030 1.970 . S
Li971 O1031 1.956 . S
C972 C974 1.348 . S
C972 C975 1.356 . S
C972 O1028 1.325 . S
N973 C976 1.314 . S
N973 C977 1.279 . S
C974 C972 1.348 . S
C974 C976 1.353 . S
C974 H1032 0.929 . S
C975 C972 1.356 . S
C975 C977 1.358 . S
C975 H1033 0.930 . S
C976 N973 1.314 . S
C976 C974 1.353 . S
C976 H1034 0.930 . S
C977 N973 1.279 . S
C977 C975 1.358 . S
C977 H1035 0.930 . S
C978 C981 1.348 . S
C978 C982 1.356 . S
C978 O1029 1.325 . S
C979 N980 1.279 . S
C979 C982 1.358 . S
C979 H1036 0.930 . S
N980 C979 1.279 . S
N980 C983 1.314 . S
C981 C978 1.348 . S
C981 C983 1.353 . S
C981 H1037 0.929 . S
C982 C978 1.356 . S
C982 C979 1.358 . S
C982 H1038 0.930 . S
C983 N980 1.314 . S
C983 C981 1.353 . S
C983 H1039 0.930 . S
C984 N985 1.314 . S
C984 C989 1.353 . S
C984 H990 0.930 . S
N985 Li968 1.990 . S
N985 C984 1.314 . S
N985 C987 1.279 . S
C986 C987 1.358 . S
C986 C988 1.356 . S
C986 H1040 0.930 . S
C987 N985 1.279 . S
C987 C986 1.358 . S
C987 H991 0.930 . S
C988 C986 1.356 . S
C988 C989 1.348 . S
C989 C984 1.353 . S
C989 C988 1.348 . S
C989 H1041 0.929 . S
H990 C984 0.930 . S
H991 C987 0.930 . S
C992 N993 1.314 . S
C992 C994 1.353 . S
C992 H998 0.930 . S
N993 Li969 1.990 . S
N993 C992 1.314 . S
N993 C996 1.279 . S
C994 C992 1.353 . S
C994 C997 1.348 . S
C994 H1042 0.929 . S
C995 C996 1.358 . S
C995 C997 1.356 . S
C995 H1043 0.930 . S
C996 N993 1.279 . S
C996 C995 1.358 . S
C996 H999 0.930 . S
C997 C994 1.348 . S
C997 C995 1.356 . S
H998 C992 0.930 . S
H999 C996 0.930 . S
C1000 C1002 1.348 . S
C1000 C1003 1.356 . S
C1000 O1030 1.325 . S
N1001 C1004 1.314 . S
N1001 C1005 1.279 . S
C1002 C1000 1.348 . S
C1002 C1004 1.353 . S
C1002 H1044 0.929 . S
C1003 C1000 1.356 . S
C1003 C1005 1.358 . S
C1003 H1045 0.930 . S
C1004 N1001 1.314 . S
C1004 C1002 1.353 . S
C1004 H1046 0.930 . S
C1005 N1001 1.279 . S
C1005 C1003 1.358 . S
C1005 H1047 0.930 . S
C1006 C1007 1.348 . S
C1006 C1008 1.356 . S
C1006 O1031 1.325 . S
C1007 C1006 1.348 . S
C1007 C1009 1.353 . S
C1007 H1048 0.929 . S
C1008 C1006 1.356 . S
C1008 C1010 1.358 . S
C1008 H1049 0.930 . S
C1009 C1007 1.353 . S
C1009 N1011 1.314 . S
C1009 H1050 0.930 . S
C1010 C1008 1.358 . S
C1010 N1011 1.279 . S
C1010 H1051 0.930 . S
N1011 C1009 1.314 . S
N1011 C1010 1.279 . S
C1012 C1014 1.353 . S
C1012 N1015 1.314 . S
C1012 H1018 0.930 . S
C1013 N1015 1.279 . S
C1013 C1016 1.358 . S
C1013 H1019 0.930 . S
C1014 C1012 1.353 . S
C1014 C1017 1.348 . S
C1014 H1052 0.929 . S
N1015 Li970 1.990 . S
N1015 C1012 1.314 . S
N1015 C1013 1.279 . S
C1016 C1013 1.358 . S
C1016 C1017 1.356 . S
C1016 H1053 0.930 . S
C1017 C1014 1.348 . S
C1017 C1016 1.356 . S
H1018 C1012 0.930 . S
H1019 C1013 0.930 . S
C1020 N1021 1.314 . S
C1020 C1022 1.353 . S
C1020 H1026 0.930 . S
N1021 Li971 1.990 . S
N1021 C1020 1.314 . S
N1021 C1024 1.279 . S
C1022 C1020 1.353 . S
C1022 C1025 1.348 . S
C1022 H1054 0.929 . S
C1023 C1024 1.358 . S
C1023 C1025 1.356 . S
C1023 H1055 0.930 . S
C1024 N1021 1.279 . S
C1024 C1023 1.358 . S
C1024 H1027 0.930 . S
C1025 C1022 1.348 . S
C1025 C1023 1.356 . S
H1026 C1020 0.930 . S
H1027 C1024 0.930 . S
O1028 Li968 1.956 . S
O1028 Li969 1.970 . S
O1028 Li970 1.961 . S
O1028 C972 1.325 . S
O1029 Li968 1.970 . S
O1029 Li969 1.956 . S
O1029 Li971 1.961 . S
O1029 C978 1.325 . S
O1030 Li968 1.961 . S
O1030 Li970 1.956 . S
O1030 Li971 1.970 . S
O1030 C1000 1.325 . S
O1031 Li969 1.961 . S
O1031 Li970 1.970 . S
O1031 Li971 1.956 . S
O1031 C1006 1.325 . S
H1032 C974 0.929 . S
H1033 C975 0.930 . S
H1034 C976 0.930 . S
H1035 C977 0.930 . S
H1036 C979 0.930 . S
H1037 C981 0.929 . S
H1038 C982 0.930 . S
H1039 C983 0.930 . S
H1040 C986 0.930 . S
H1041 C989 0.929 . S
H1042 C994 0.929 . S
H1043 C995 0.930 . S
H1044 C1002 0.929 . S
H1045 C1003 0.930 . S
H1046 C1004 0.930 . S
H1047 C1005 0.930 . S
H1048 C1007 0.929 . S
H1049 C1008 0.930 . S
H1050 C1009 0.930 . S
H1051 C1010 0.930 . S
H1052 C1014 0.929 . S
H1053 C1016 0.930 . S
H1054 C1022 0.929 . S
H1055 C1023 0.930 . S
Li1056 N1073 1.990 . S
Li1056 O1116 1.956 . S
Li1056 O1117 1.970 . S
Li1056 O1118 1.961 . S
Li1057 N1081 1.990 . S
Li1057 O1116 1.970 . S
Li1057 O1117 1.956 . S
Li1057 O1119 1.961 . S
Li1058 N1103 1.990 . S
Li1058 O1116 1.961 . S
Li1058 O1118 1.956 . S
Li1058 O1119 1.970 . S
Li1059 N1109 1.990 . S
Li1059 O1117 1.961 . S
Li1059 O1118 1.970 . S
Li1059 O1119 1.956 . S
C1060 C1062 1.348 . S
C1060 C1063 1.356 . S
C1060 O1116 1.325 . S
N1061 C1064 1.314 . S
N1061 C1065 1.279 . S
C1062 C1060 1.348 . S
C1062 C1064 1.353 . S
C1062 H1120 0.929 . S
C1063 C1060 1.356 . S
C1063 C1065 1.358 . S
C1063 H1121 0.930 . S
C1064 N1061 1.314 . S
C1064 C1062 1.353 . S
C1064 H1122 0.930 . S
C1065 N1061 1.279 . S
C1065 C1063 1.358 . S
C1065 H1123 0.930 . S
C1066 C1069 1.348 . S
C1066 C1070 1.356 . S
C1066 O1117 1.325 . S
C1067 N1068 1.279 . S
C1067 C1070 1.358 . S
C1067 H1124 0.930 . S
N1068 C1067 1.279 . S
N1068 C1071 1.314 . S
C1069 C1066 1.348 . S
C1069 C1071 1.353 . S
C1069 H1125 0.929 . S
C1070 C1066 1.356 . S
C1070 C1067 1.358 . S
C1070 H1126 0.930 . S
C1071 N1068 1.314 . S
C1071 C1069 1.353 . S
C1071 H1127 0.930 . S
C1072 N1073 1.314 . S
C1072 C1077 1.353 . S
C1072 H1078 0.930 . S
N1073 Li1056 1.990 . S
N1073 C1072 1.314 . S
N1073 C1075 1.279 . S
C1074 C1075 1.358 . S
C1074 C1076 1.356 . S
C1074 H1128 0.930 . S
C1075 N1073 1.279 . S
C1075 C1074 1.358 . S
C1075 H1079 0.930 . S
C1076 C1074 1.356 . S
C1076 C1077 1.348 . S
C1077 C1072 1.353 . S
C1077 C1076 1.348 . S
C1077 H1129 0.929 . S
H1078 C1072 0.930 . S
H1079 C1075 0.930 . S
C1080 N1081 1.314 . S
C1080 C1082 1.353 . S
C1080 H1086 0.930 . S
N1081 Li1057 1.990 . S
N1081 C1080 1.314 . S
N1081 C1084 1.279 . S
C1082 C1080 1.353 . S
C1082 C1085 1.348 . S
C1082 H1130 0.929 . S
C1083 C1084 1.358 . S
C1083 C1085 1.356 . S
C1083 H1131 0.930 . S
C1084 N1081 1.279 . S
C1084 C1083 1.358 . S
C1084 H1087 0.930 . S
C1085 C1082 1.348 . S
C1085 C1083 1.356 . S
H1086 C1080 0.930 . S
H1087 C1084 0.930 . S
C1088 C1090 1.348 . S
C1088 C1091 1.356 . S
C1088 O1118 1.325 . S
N1089 C1092 1.314 . S
N1089 C1093 1.279 . S
C1090 C1088 1.348 . S
C1090 C1092 1.353 . S
C1090 H1132 0.929 . S
C1091 C1088 1.356 . S
C1091 C1093 1.358 . S
C1091 H1133 0.930 . S
C1092 N1089 1.314 . S
C1092 C1090 1.353 . S
C1092 H1134 0.930 . S
C1093 N1089 1.279 . S
C1093 C1091 1.358 . S
C1093 H1135 0.930 . S
C1094 C1095 1.348 . S
C1094 C1096 1.356 . S
C1094 O1119 1.325 . S
C1095 C1094 1.348 . S
C1095 C1097 1.353 . S
C1095 H1136 0.929 . S
C1096 C1094 1.356 . S
C1096 C1098 1.358 . S
C1096 H1137 0.930 . S
C1097 C1095 1.353 . S
C1097 N1099 1.314 . S
C1097 H1138 0.930 . S
C1098 C1096 1.358 . S
C1098 N1099 1.279 . S
C1098 H1139 0.930 . S
N1099 C1097 1.314 . S
N1099 C1098 1.279 . S
C1100 C1102 1.353 . S
C1100 N1103 1.314 . S
C1100 H1106 0.930 . S
C1101 N1103 1.279 . S
C1101 C1104 1.358 . S
C1101 H1107 0.930 . S
C1102 C1100 1.353 . S
C1102 C1105 1.348 . S
C1102 H1140 0.929 . S
N1103 Li1058 1.990 . S
N1103 C1100 1.314 . S
N1103 C1101 1.279 . S
C1104 C1101 1.358 . S
C1104 C1105 1.356 . S
C1104 H1141 0.930 . S
C1105 C1102 1.348 . S
C1105 C1104 1.356 . S
H1106 C1100 0.930 . S
H1107 C1101 0.930 . S
C1108 N1109 1.314 . S
C1108 C1110 1.353 . S
C1108 H1114 0.930 . S
N1109 Li1059 1.990 . S
N1109 C1108 1.314 . S
N1109 C1112 1.279 . S
C1110 C1108 1.353 . S
C1110 C1113 1.348 . S
C1110 H1142 0.929 . S
C1111 C1112 1.358 . S
C1111 C1113 1.356 . S
C1111 H1143 0.930 . S
C1112 N1109 1.279 . S
C1112 C1111 1.358 . S
C1112 H1115 0.930 . S
C1113 C1110 1.348 . S
C1113 C1111 1.356 . S
H1114 C1108 0.930 . S
H1115 C1112 0.930 . S
O1116 Li1056 1.956 . S
O1116 Li1057 1.970 . S
O1116 Li1058 1.961 . S
O1116 C1060 1.325 . S
O1117 Li1056 1.970 . S
O1117 Li1057 1.956 . S
O1117 Li1059 1.961 . S
O1117 C1066 1.325 . S
O1118 Li1056 1.961 . S
O1118 Li1058 1.956 . S
O1118 Li1059 1.970 . S
O1118 C1088 1.325 . S
O1119 Li1057 1.961 . S
O1119 Li1058 1.970 . S
O1119 Li1059 1.956 . S
O1119 C1094 1.325 . S
H1120 C1062 0.929 . S
H1121 C1063 0.930 . S
H1122 C1064 0.930 . S
H1123 C1065 0.930 . S
H1124 C1067 0.930 . S
H1125 C1069 0.929 . S
H1126 C1070 0.930 . S
H1127 C1071 0.930 . S
H1128 C1074 0.930 . S
H1129 C1077 0.929 . S
H1130 C1082 0.929 . S
H1131 C1083 0.930 . S
H1132 C1090 0.929 . S
H1133 C1091 0.930 . S
H1134 C1092 0.930 . S
H1135 C1093 0.930 . S
H1136 C1095 0.929 . S
H1137 C1096 0.930 . S
H1138 C1097 0.930 . S
H1139 C1098 0.930 . S
H1140 C1102 0.929 . S
H1141 C1104 0.930 . S
H1142 C1110 0.929 . S
H1143 C1111 0.930 . S
Li1144 N1161 1.990 . S
Li1144 O1204 1.956 . S
Li1144 O1205 1.970 . S
Li1144 O1206 1.961 . S
Li1145 N1169 1.990 . S
Li1145 O1204 1.970 . S
Li1145 O1205 1.956 . S
Li1145 O1207 1.961 . S
Li1146 N1191 1.990 . S
Li1146 O1204 1.961 . S
Li1146 O1206 1.956 . S
Li1146 O1207 1.970 . S
Li1147 N1197 1.990 . S
Li1147 O1205 1.961 . S
Li1147 O1206 1.970 . S
Li1147 O1207 1.956 . S
C1148 C1150 1.348 . S
C1148 C1151 1.356 . S
C1148 O1204 1.325 . S
N1149 C1152 1.314 . S
N1149 C1153 1.279 . S
C1150 C1148 1.348 . S
C1150 C1152 1.353 . S
C1150 H1208 0.929 . S
C1151 C1148 1.356 . S
C1151 C1153 1.358 . S
C1151 H1209 0.930 . S
C1152 N1149 1.314 . S
C1152 C1150 1.353 . S
C1152 H1210 0.930 . S
C1153 N1149 1.279 . S
C1153 C1151 1.358 . S
C1153 H1211 0.930 . S
C1154 C1157 1.348 . S
C1154 C1158 1.356 . S
C1154 O1205 1.325 . S
C1155 N1156 1.279 . S
C1155 C1158 1.358 . S
C1155 H1212 0.930 . S
N1156 C1155 1.279 . S
N1156 C1159 1.314 . S
C1157 C1154 1.348 . S
C1157 C1159 1.353 . S
C1157 H1213 0.929 . S
C1158 C1154 1.356 . S
C1158 C1155 1.358 . S
C1158 H1214 0.930 . S
C1159 N1156 1.314 . S
C1159 C1157 1.353 . S
C1159 H1215 0.930 . S
C1160 N1161 1.314 . S
C1160 C1165 1.353 . S
C1160 H1166 0.930 . S
N1161 Li1144 1.990 . S
N1161 C1160 1.314 . S
N1161 C1163 1.279 . S
C1162 C1163 1.358 . S
C1162 C1164 1.356 . S
C1162 H1216 0.930 . S
C1163 N1161 1.279 . S
C1163 C1162 1.358 . S
C1163 H1167 0.930 . S
C1164 C1162 1.356 . S
C1164 C1165 1.348 . S
C1165 C1160 1.353 . S
C1165 C1164 1.348 . S
C1165 H1217 0.929 . S
H1166 C1160 0.930 . S
H1167 C1163 0.930 . S
C1168 N1169 1.314 . S
C1168 C1170 1.353 . S
C1168 H1174 0.930 . S
N1169 Li1145 1.990 . S
N1169 C1168 1.314 . S
N1169 C1172 1.279 . S
C1170 C1168 1.353 . S
C1170 C1173 1.348 . S
C1170 H1218 0.929 . S
C1171 C1172 1.358 . S
C1171 C1173 1.356 . S
C1171 H1219 0.930 . S
C1172 N1169 1.279 . S
C1172 C1171 1.358 . S
C1172 H1175 0.930 . S
C1173 C1170 1.348 . S
C1173 C1171 1.356 . S
H1174 C1168 0.930 . S
H1175 C1172 0.930 . S
C1176 C1178 1.348 . S
C1176 C1179 1.356 . S
C1176 O1206 1.325 . S
N1177 C1180 1.314 . S
N1177 C1181 1.279 . S
C1178 C1176 1.348 . S
C1178 C1180 1.353 . S
C1178 H1220 0.929 . S
C1179 C1176 1.356 . S
C1179 C1181 1.358 . S
C1179 H1221 0.930 . S
C1180 N1177 1.314 . S
C1180 C1178 1.353 . S
C1180 H1222 0.930 . S
C1181 N1177 1.279 . S
C1181 C1179 1.358 . S
C1181 H1223 0.930 . S
C1182 C1183 1.348 . S
C1182 C1184 1.356 . S
C1182 O1207 1.325 . S
C1183 C1182 1.348 . S
C1183 C1185 1.353 . S
C1183 H1224 0.929 . S
C1184 C1182 1.356 . S
C1184 C1186 1.358 . S
C1184 H1225 0.930 . S
C1185 C1183 1.353 . S
C1185 N1187 1.314 . S
C1185 H1226 0.930 . S
C1186 C1184 1.358 . S
C1186 N1187 1.279 . S
C1186 H1227 0.930 . S
N1187 C1185 1.314 . S
N1187 C1186 1.279 . S
C1188 C1190 1.353 . S
C1188 N1191 1.314 . S
C1188 H1194 0.930 . S
C1189 N1191 1.279 . S
C1189 C1192 1.358 . S
C1189 H1195 0.930 . S
C1190 C1188 1.353 . S
C1190 C1193 1.348 . S
C1190 H1228 0.929 . S
N1191 Li1146 1.990 . S
N1191 C1188 1.314 . S
N1191 C1189 1.279 . S
C1192 C1189 1.358 . S
C1192 C1193 1.356 . S
C1192 H1229 0.930 . S
C1193 C1190 1.348 . S
C1193 C1192 1.356 . S
H1194 C1188 0.930 . S
H1195 C1189 0.930 . S
C1196 N1197 1.314 . S
C1196 C1198 1.353 . S
C1196 H1202 0.930 . S
N1197 Li1147 1.990 . S
N1197 C1196 1.314 . S
N1197 C1200 1.279 . S
C1198 C1196 1.353 . S
C1198 C1201 1.348 . S
C1198 H1230 0.929 . S
C1199 C1200 1.358 . S
C1199 C1201 1.356 . S
C1199 H1231 0.930 . S
C1200 N1197 1.279 . S
C1200 C1199 1.358 . S
C1200 H1203 0.930 . S
C1201 C1198 1.348 . S
C1201 C1199 1.356 . S
H1202 C1196 0.930 . S
H1203 C1200 0.930 . S
O1204 Li1144 1.956 . S
O1204 Li1145 1.970 . S
O1204 Li1146 1.961 . S
O1204 C1148 1.325 . S
O1205 Li1144 1.970 . S
O1205 Li1145 1.956 . S
O1205 Li1147 1.961 . S
O1205 C1154 1.325 . S
O1206 Li1144 1.961 . S
O1206 Li1146 1.956 . S
O1206 Li1147 1.970 . S
O1206 C1176 1.325 . S
O1207 Li1145 1.961 . S
O1207 Li1146 1.970 . S
O1207 Li1147 1.956 . S
O1207 C1182 1.325 . S
H1208 C1150 0.929 . S
H1209 C1151 0.930 . S
H1210 C1152 0.930 . S
H1211 C1153 0.930 . S
H1212 C1155 0.930 . S
H1213 C1157 0.929 . S
H1214 C1158 0.930 . S
H1215 C1159 0.930 . S
H1216 C1162 0.930 . S
H1217 C1165 0.929 . S
H1218 C1170 0.929 . S
H1219 C1171 0.930 . S
H1220 C1178 0.929 . S
H1221 C1179 0.930 . S
H1222 C1180 0.930 . S
H1223 C1181 0.930 . S
H1224 C1183 0.929 . S
H1225 C1184 0.930 . S
H1226 C1185 0.930 . S
H1227 C1186 0.930 . S
H1228 C1190 0.929 . S
H1229 C1192 0.930 . S
H1230 C1198 0.929 . S
H1231 C1199 0.930 . S
Li1232 N1249 1.990 . S
Li1232 O1292 1.956 . S
Li1232 O1293 1.970 . S
Li1232 O1294 1.961 . S
Li1233 N1257 1.990 . S
Li1233 O1292 1.970 . S
Li1233 O1293 1.956 . S
Li1233 O1295 1.961 . S
Li1234 N1279 1.990 . S
Li1234 O1292 1.961 . S
Li1234 O1294 1.956 . S
Li1234 O1295 1.970 . S
Li1235 N1285 1.990 . S
Li1235 O1293 1.961 . S
Li1235 O1294 1.970 . S
Li1235 O1295 1.956 . S
C1236 C1238 1.348 . S
C1236 C1239 1.356 . S
C1236 O1292 1.325 . S
N1237 C1240 1.314 . S
N1237 C1241 1.279 . S
C1238 C1236 1.348 . S
C1238 C1240 1.353 . S
C1238 H1296 0.929 . S
C1239 C1236 1.356 . S
C1239 C1241 1.358 . S
C1239 H1297 0.930 . S
C1240 N1237 1.314 . S
C1240 C1238 1.353 . S
C1240 H1298 0.930 . S
C1241 N1237 1.279 . S
C1241 C1239 1.358 . S
C1241 H1299 0.930 . S
C1242 C1245 1.348 . S
C1242 C1246 1.356 . S
C1242 O1293 1.325 . S
C1243 N1244 1.279 . S
C1243 C1246 1.358 . S
C1243 H1300 0.930 . S
N1244 C1243 1.279 . S
N1244 C1247 1.314 . S
C1245 C1242 1.348 . S
C1245 C1247 1.353 . S
C1245 H1301 0.929 . S
C1246 C1242 1.356 . S
C1246 C1243 1.358 . S
C1246 H1302 0.930 . S
C1247 N1244 1.314 . S
C1247 C1245 1.353 . S
C1247 H1303 0.930 . S
C1248 N1249 1.314 . S
C1248 C1253 1.353 . S
C1248 H1254 0.930 . S
N1249 Li1232 1.990 . S
N1249 C1248 1.314 . S
N1249 C1251 1.279 . S
C1250 C1251 1.358 . S
C1250 C1252 1.356 . S
C1250 H1304 0.930 . S
C1251 N1249 1.279 . S
C1251 C1250 1.358 . S
C1251 H1255 0.930 . S
C1252 C1250 1.356 . S
C1252 C1253 1.348 . S
C1253 C1248 1.353 . S
C1253 C1252 1.348 . S
C1253 H1305 0.929 . S
H1254 C1248 0.930 . S
H1255 C1251 0.930 . S
C1256 N1257 1.314 . S
C1256 C1258 1.353 . S
C1256 H1262 0.930 . S
N1257 Li1233 1.990 . S
N1257 C1256 1.314 . S
N1257 C1260 1.279 . S
C1258 C1256 1.353 . S
C1258 C1261 1.348 . S
C1258 H1306 0.929 . S
C1259 C1260 1.358 . S
C1259 C1261 1.356 . S
C1259 H1307 0.930 . S
C1260 N1257 1.279 . S
C1260 C1259 1.358 . S
C1260 H1263 0.930 . S
C1261 C1258 1.348 . S
C1261 C1259 1.356 . S
H1262 C1256 0.930 . S
H1263 C1260 0.930 . S
C1264 C1266 1.348 . S
C1264 C1267 1.356 . S
C1264 O1294 1.325 . S
N1265 C1268 1.314 . S
N1265 C1269 1.279 . S
C1266 C1264 1.348 . S
C1266 C1268 1.353 1_554 S
C1266 H1308 0.929 . S
C1267 C1264 1.356 . S
C1267 C1269 1.358 1_554 S
C1267 H1309 0.930 . S
C1268 N1265 1.314 . S
C1268 C1266 1.353 1_556 S
C1268 H1310 0.930 . S
C1269 N1265 1.279 . S
C1269 C1267 1.358 1_556 S
C1269 H1311 0.930 . S
C1270 C1271 1.348 . S
C1270 C1272 1.356 . S
C1270 O1295 1.325 . S
C1271 C1270 1.348 . S
C1271 C1273 1.353 . S
C1271 H1312 0.929 . S
C1272 C1270 1.356 . S
C1272 C1274 1.358 . S
C1272 H1313 0.930 . S
C1273 C1271 1.353 . S
C1273 N1275 1.314 . S
C1273 H1314 0.930 . S
C1274 C1272 1.358 . S
C1274 N1275 1.279 . S
C1274 H1315 0.930 . S
N1275 C1273 1.314 . S
N1275 C1274 1.279 . S
C1276 C1278 1.353 . S
C1276 N1279 1.314 . S
C1276 H1282 0.930 . S
C1277 N1279 1.279 . S
C1277 C1280 1.358 . S
C1277 H1283 0.930 . S
C1278 C1276 1.353 . S
C1278 C1281 1.348 . S
C1278 H1316 0.929 . S
N1279 Li1234 1.990 . S
N1279 C1276 1.314 . S
N1279 C1277 1.279 . S
C1280 C1277 1.358 . S
C1280 C1281 1.356 . S
C1280 H1317 0.930 1_554 S
C1281 C1278 1.348 . S
C1281 C1280 1.356 . S
H1282 C1276 0.930 . S
H1283 C1277 0.930 . S
C1284 N1285 1.314 . S
C1284 C1286 1.353 . S
C1284 H1290 0.930 . S
N1285 Li1235 1.990 . S
N1285 C1284 1.314 . S
N1285 C1288 1.279 . S
C1286 C1284 1.353 . S
C1286 C1289 1.348 . S
C1286 H1318 0.929 . S
C1287 C1288 1.358 . S
C1287 C1289 1.356 . S
C1287 H1319 0.930 . S
C1288 N1285 1.279 . S
C1288 C1287 1.358 . S
C1288 H1291 0.930 . S
C1289 C1286 1.348 . S
C1289 C1287 1.356 . S
H1290 C1284 0.930 . S
H1291 C1288 0.930 . S
O1292 Li1232 1.956 . S
O1292 Li1233 1.970 . S
O1292 Li1234 1.961 . S
O1292 C1236 1.325 . S
O1293 Li1232 1.970 . S
O1293 Li1233 1.956 . S
O1293 Li1235 1.961 . S
O1293 C1242 1.325 . S
O1294 Li1232 1.961 . S
O1294 Li1234 1.956 . S
O1294 Li1235 1.970 . S
O1294 C1264 1.325 . S
O1295 Li1233 1.961 . S
O1295 Li1234 1.970 . S
O1295 Li1235 1.956 . S
O1295 C1270 1.325 . S
H1296 C1238 0.929 . S
H1297 C1239 0.930 . S
H1298 C1240 0.930 . S
H1299 C1241 0.930 . S
H1300 C1243 0.930 . S
H1301 C1245 0.929 . S
H1302 C1246 0.930 . S
H1303 C1247 0.930 . S
H1304 C1250 0.930 . S
H1305 C1253 0.929 . S
H1306 C1258 0.929 . S
H1307 C1259 0.930 . S
H1308 C1266 0.929 . S
H1309 C1267 0.930 . S
H1310 C1268 0.930 . S
H1311 C1269 0.930 . S
H1312 C1271 0.929 . S
H1313 C1272 0.930 . S
H1314 C1273 0.930 . S
H1315 C1274 0.930 . S
H1316 C1278 0.929 . S
H1317 C1280 0.930 1_556 S
H1318 C1286 0.929 . S
H1319 C1287 0.930 . S
Li1320 N1337 1.990 . S
Li1320 O1380 1.956 . S
Li1320 O1381 1.970 . S
Li1320 O1382 1.961 . S
Li1321 N1345 1.990 . S
Li1321 O1380 1.970 . S
Li1321 O1381 1.956 . S
Li1321 O1383 1.961 . S
Li1322 N1367 1.990 . S
Li1322 O1380 1.961 . S
Li1322 O1382 1.956 . S
Li1322 O1383 1.970 . S
Li1323 N1373 1.990 . S
Li1323 O1381 1.961 . S
Li1323 O1382 1.970 . S
Li1323 O1383 1.956 . S
C1324 C1326 1.348 . S
C1324 C1327 1.356 . S
C1324 O1380 1.325 . S
N1325 C1328 1.314 . S
N1325 C1329 1.279 . S
C1326 C1324 1.348 . S
C1326 C1328 1.353 . S
C1326 H1384 0.929 . S
C1327 C1324 1.356 . S
C1327 C1329 1.358 . S
C1327 H1385 0.930 . S
C1328 N1325 1.314 . S
C1328 C1326 1.353 . S
C1328 H1386 0.930 . S
C1329 N1325 1.279 . S
C1329 C1327 1.358 . S
C1329 H1387 0.930 . S
C1330 C1333 1.348 . S
C1330 C1334 1.356 . S
C1330 O1381 1.325 . S
C1331 N1332 1.279 . S
C1331 C1334 1.358 . S
C1331 H1388 0.930 . S
N1332 C1331 1.279 . S
N1332 C1335 1.314 . S
C1333 C1330 1.348 . S
C1333 C1335 1.353 . S
C1333 H1389 0.929 . S
C1334 C1330 1.356 . S
C1334 C1331 1.358 . S
C1334 H1390 0.930 . S
C1335 N1332 1.314 . S
C1335 C1333 1.353 . S
C1335 H1391 0.930 . S
C1336 N1337 1.314 . S
C1336 C1341 1.353 . S
C1336 H1342 0.930 . S
N1337 Li1320 1.990 . S
N1337 C1336 1.314 . S
N1337 C1339 1.279 . S
C1338 C1339 1.358 . S
C1338 C1340 1.356 . S
C1338 H1392 0.930 . S
C1339 N1337 1.279 . S
C1339 C1338 1.358 . S
C1339 H1343 0.930 . S
C1340 C1338 1.356 . S
C1340 C1341 1.348 . S
C1341 C1336 1.353 . S
C1341 C1340 1.348 . S
C1341 H1393 0.929 . S
H1342 C1336 0.930 . S
H1343 C1339 0.930 . S
C1344 N1345 1.314 . S
C1344 C1346 1.353 . S
C1344 H1350 0.930 . S
N1345 Li1321 1.990 . S
N1345 C1344 1.314 . S
N1345 C1348 1.279 . S
C1346 C1344 1.353 . S
C1346 C1349 1.348 . S
C1346 H1394 0.929 . S
C1347 C1348 1.358 . S
C1347 C1349 1.356 . S
C1347 H1395 0.930 . S
C1348 N1345 1.279 . S
C1348 C1347 1.358 . S
C1348 H1351 0.930 . S
C1349 C1346 1.348 . S
C1349 C1347 1.356 . S
H1350 C1344 0.930 . S
H1351 C1348 0.930 . S
C1352 C1354 1.348 . S
C1352 C1355 1.356 . S
C1352 O1382 1.325 . S
N1353 C1356 1.314 . S
N1353 C1357 1.279 . S
C1354 C1352 1.348 . S
C1354 C1356 1.353 . S
C1354 H1396 0.929 . S
C1355 C1352 1.356 . S
C1355 C1357 1.358 . S
C1355 H1397 0.930 . S
C1356 N1353 1.314 . S
C1356 C1354 1.353 . S
C1356 H1398 0.930 . S
C1357 N1353 1.279 . S
C1357 C1355 1.358 . S
C1357 H1399 0.930 . S
C1358 C1359 1.348 . S
C1358 C1360 1.356 . S
C1358 O1383 1.325 . S
C1359 C1358 1.348 . S
C1359 C1361 1.353 . S
C1359 H1400 0.929 . S
C1360 C1358 1.356 . S
C1360 C1362 1.358 . S
C1360 H1401 0.930 . S
C1361 C1359 1.353 . S
C1361 N1363 1.314 . S
C1361 H1402 0.930 . S
C1362 C1360 1.358 . S
C1362 N1363 1.279 . S
C1362 H1403 0.930 . S
N1363 C1361 1.314 . S
N1363 C1362 1.279 . S
C1364 C1366 1.353 . S
C1364 N1367 1.314 . S
C1364 H1370 0.930 . S
C1365 N1367 1.279 . S
C1365 C1368 1.358 . S
C1365 H1371 0.930 . S
C1366 C1364 1.353 . S
C1366 C1369 1.348 . S
C1366 H1404 0.929 . S
N1367 Li1322 1.990 . S
N1367 C1364 1.314 . S
N1367 C1365 1.279 . S
C1368 C1365 1.358 . S
C1368 C1369 1.356 . S
C1368 H1405 0.930 . S
C1369 C1366 1.348 . S
C1369 C1368 1.356 . S
H1370 C1364 0.930 . S
H1371 C1365 0.930 . S
C1372 N1373 1.314 . S
C1372 C1374 1.353 . S
C1372 H1378 0.930 . S
N1373 Li1323 1.990 . S
N1373 C1372 1.314 . S
N1373 C1376 1.279 . S
C1374 C1372 1.353 . S
C1374 C1377 1.348 . S
C1374 H1406 0.929 . S
C1375 C1376 1.358 . S
C1375 C1377 1.356 . S
C1375 H1407 0.930 . S
C1376 N1373 1.279 . S
C1376 C1375 1.358 . S
C1376 H1379 0.930 . S
C1377 C1374 1.348 . S
C1377 C1375 1.356 . S
H1378 C1372 0.930 . S
H1379 C1376 0.930 . S
O1380 Li1320 1.956 . S
O1380 Li1321 1.970 . S
O1380 Li1322 1.961 . S
O1380 C1324 1.325 . S
O1381 Li1320 1.970 . S
O1381 Li1321 1.956 . S
O1381 Li1323 1.961 . S
O1381 C1330 1.325 . S
O1382 Li1320 1.961 . S
O1382 Li1322 1.956 . S
O1382 Li1323 1.970 . S
O1382 C1352 1.325 . S
O1383 Li1321 1.961 . S
O1383 Li1322 1.970 . S
O1383 Li1323 1.956 . S
O1383 C1358 1.325 . S
H1384 C1326 0.929 . S
H1385 C1327 0.930 . S
H1386 C1328 0.930 . S
H1387 C1329 0.930 . S
H1388 C1331 0.930 . S
H1389 C1333 0.929 . S
H1390 C1334 0.930 . S
H1391 C1335 0.930 . S
H1392 C1338 0.930 . S
H1393 C1341 0.929 . S
H1394 C1346 0.929 . S
H1395 C1347 0.930 . S
H1396 C1354 0.929 . S
H1397 C1355 0.930 . S
H1398 C1356 0.930 . S
H1399 C1357 0.930 . S
H1400 C1359 0.929 . S
H1401 C1360 0.930 . S
H1402 C1361 0.930 . S
H1403 C1362 0.930 . S
H1404 C1366 0.929 . S
H1405 C1368 0.930 . S
H1406 C1374 0.929 . S
H1407 C1375 0.930 . S
Li1408 N1425 1.990 . S
Li1408 O1468 1.956 . S
Li1408 O1469 1.970 . S
Li1408 O1470 1.961 . S
Li1409 N1433 1.990 . S
Li1409 O1468 1.970 . S
Li1409 O1469 1.956 . S
Li1409 O1471 1.961 . S
Li1410 N1455 1.990 . S
Li1410 O1468 1.961 . S
Li1410 O1470 1.956 . S
Li1410 O1471 1.970 . S
Li1411 N1461 1.990 . S
Li1411 O1469 1.961 . S
Li1411 O1470 1.970 . S
Li1411 O1471 1.956 . S
C1412 C1414 1.348 . S
C1412 C1415 1.356 . S
C1412 O1468 1.325 . S
N1413 C1416 1.314 . S
N1413 C1417 1.279 . S
C1414 C1412 1.348 . S
C1414 C1416 1.353 . S
C1414 H1472 0.929 . S
C1415 C1412 1.356 . S
C1415 C1417 1.358 . S
C1415 H1473 0.930 . S
C1416 N1413 1.314 . S
C1416 C1414 1.353 . S
C1416 H1474 0.930 . S
C1417 N1413 1.279 . S
C1417 C1415 1.358 . S
C1417 H1475 0.930 . S
C1418 C1421 1.348 . S
C1418 C1422 1.356 . S
C1418 O1469 1.325 . S
C1419 N1420 1.279 . S
C1419 C1422 1.358 . S
C1419 H1476 0.930 . S
N1420 C1419 1.279 . S
N1420 C1423 1.314 . S
C1421 C1418 1.348 . S
C1421 C1423 1.353 . S
C1421 H1477 0.929 . S
C1422 C1418 1.356 . S
C1422 C1419 1.358 . S
C1422 H1478 0.930 . S
C1423 N1420 1.314 . S
C1423 C1421 1.353 . S
C1423 H1479 0.930 . S
C1424 N1425 1.314 . S
C1424 C1429 1.353 . S
C1424 H1430 0.930 . S
N1425 Li1408 1.990 . S
N1425 C1424 1.314 . S
N1425 C1427 1.279 . S
C1426 C1427 1.358 . S
C1426 C1428 1.356 . S
C1426 H1480 0.930 . S
C1427 N1425 1.279 . S
C1427 C1426 1.358 . S
C1427 H1431 0.930 . S
C1428 C1426 1.356 . S
C1428 C1429 1.348 . S
C1429 C1424 1.353 . S
C1429 C1428 1.348 . S
C1429 H1481 0.929 . S
H1430 C1424 0.930 . S
H1431 C1427 0.930 . S
C1432 N1433 1.314 . S
C1432 C1434 1.353 . S
C1432 H1438 0.930 . S
N1433 Li1409 1.990 . S
N1433 C1432 1.314 . S
N1433 C1436 1.279 . S
C1434 C1432 1.353 . S
C1434 C1437 1.348 . S
C1434 H1482 0.929 . S
C1435 C1436 1.358 . S
C1435 C1437 1.356 . S
C1435 H1483 0.930 . S
C1436 N1433 1.279 . S
C1436 C1435 1.358 . S
C1436 H1439 0.930 . S
C1437 C1434 1.348 . S
C1437 C1435 1.356 . S
H1438 C1432 0.930 . S
H1439 C1436 0.930 . S
C1440 C1442 1.348 . S
C1440 C1443 1.356 . S
C1440 O1470 1.325 . S
N1441 C1444 1.314 . S
N1441 C1445 1.279 . S
C1442 C1440 1.348 . S
C1442 C1444 1.353 . S
C1442 H1484 0.929 . S
C1443 C1440 1.356 . S
C1443 C1445 1.358 . S
C1443 H1485 0.930 . S
C1444 N1441 1.314 . S
C1444 C1442 1.353 . S
C1444 H1486 0.930 . S
C1445 N1441 1.279 . S
C1445 C1443 1.358 . S
C1445 H1487 0.930 . S
C1446 C1447 1.348 . S
C1446 C1448 1.356 . S
C1446 O1471 1.325 . S
C1447 C1446 1.348 . S
C1447 C1449 1.353 . S
C1447 H1488 0.929 . S
C1448 C1446 1.356 . S
C1448 C1450 1.358 . S
C1448 H1489 0.930 . S
C1449 C1447 1.353 . S
C1449 N1451 1.314 . S
C1449 H1490 0.930 . S
C1450 C1448 1.358 . S
C1450 N1451 1.279 . S
C1450 H1491 0.930 . S
N1451 C1449 1.314 . S
N1451 C1450 1.279 . S
C1452 C1454 1.353 . S
C1452 N1455 1.314 . S
C1452 H1458 0.930 . S
C1453 N1455 1.279 . S
C1453 C1456 1.358 . S
C1453 H1459 0.930 . S
C1454 C1452 1.353 . S
C1454 C1457 1.348 . S
C1454 H1492 0.929 . S
N1455 Li1410 1.990 . S
N1455 C1452 1.314 . S
N1455 C1453 1.279 . S
C1456 C1453 1.358 . S
C1456 C1457 1.356 . S
C1456 H1493 0.930 . S
C1457 C1454 1.348 . S
C1457 C1456 1.356 . S
H1458 C1452 0.930 . S
H1459 C1453 0.930 . S
C1460 N1461 1.314 . S
C1460 C1462 1.353 . S
C1460 H1466 0.930 . S
N1461 Li1411 1.990 . S
N1461 C1460 1.314 . S
N1461 C1464 1.279 . S
C1462 C1460 1.353 . S
C1462 C1465 1.348 . S
C1462 H1494 0.929 . S
C1463 C1464 1.358 . S
C1463 C1465 1.356 . S
C1463 H1495 0.930 . S
C1464 N1461 1.279 . S
C1464 C1463 1.358 . S
C1464 H1467 0.930 . S
C1465 C1462 1.348 . S
C1465 C1463 1.356 . S
H1466 C1460 0.930 . S
H1467 C1464 0.930 . S
O1468 Li1408 1.956 . S
O1468 Li1409 1.970 . S
O1468 Li1410 1.961 . S
O1468 C1412 1.325 . S
O1469 Li1408 1.970 . S
O1469 Li1409 1.956 . S
O1469 Li1411 1.961 . S
O1469 C1418 1.325 . S
O1470 Li1408 1.961 . S
O1470 Li1410 1.956 . S
O1470 Li1411 1.970 . S
O1470 C1440 1.325 . S
O1471 Li1409 1.961 . S
O1471 Li1410 1.970 . S
O1471 Li1411 1.956 . S
O1471 C1446 1.325 . S
H1472 C1414 0.929 . S
H1473 C1415 0.930 . S
H1474 C1416 0.930 . S
H1475 C1417 0.930 . S
H1476 C1419 0.930 . S
H1477 C1421 0.929 . S
H1478 C1422 0.930 . S
H1479 C1423 0.930 . S
H1480 C1426 0.930 . S
H1481 C1429 0.929 . S
H1482 C1434 0.929 . S
H1483 C1435 0.930 . S
H1484 C1442 0.929 . S
H1485 C1443 0.930 . S
H1486 C1444 0.930 . S
H1487 C1445 0.930 . S
H1488 C1447 0.929 . S
H1489 C1448 0.930 . S
H1490 C1449 0.930 . S
H1491 C1450 0.930 . S
H1492 C1454 0.929 . S
H1493 C1456 0.930 . S
H1494 C1462 0.929 . S
H1495 C1463 0.930 . S
Li1496 N1513 1.990 . S
Li1496 O1556 1.956 . S
Li1496 O1557 1.970 . S
Li1496 O1558 1.961 . S
Li1497 N1521 1.990 . S
Li1497 O1556 1.970 . S
Li1497 O1557 1.956 . S
Li1497 O1559 1.961 . S
Li1498 N1543 1.990 . S
Li1498 O1556 1.961 . S
Li1498 O1558 1.956 . S
Li1498 O1559 1.970 . S
Li1499 N1549 1.990 . S
Li1499 O1557 1.961 . S
Li1499 O1558 1.970 . S
Li1499 O1559 1.956 . S
C1500 C1502 1.348 . S
C1500 C1503 1.356 . S
C1500 O1556 1.325 . S
N1501 C1504 1.314 . S
N1501 C1505 1.279 . S
C1502 C1500 1.348 . S
C1502 C1504 1.353 . S
C1502 H1560 0.929 . S
C1503 C1500 1.356 . S
C1503 C1505 1.358 . S
C1503 H1561 0.930 . S
C1504 N1501 1.314 . S
C1504 C1502 1.353 . S
C1504 H1562 0.930 . S
C1505 N1501 1.279 . S
C1505 C1503 1.358 . S
C1505 H1563 0.930 . S
C1506 C1509 1.348 . S
C1506 C1510 1.356 . S
C1506 O1557 1.325 . S
C1507 N1508 1.279 . S
C1507 C1510 1.358 . S
C1507 H1564 0.930 . S
N1508 C1507 1.279 . S
N1508 C1511 1.314 . S
C1509 C1506 1.348 . S
C1509 C1511 1.353 . S
C1509 H1565 0.929 . S
C1510 C1506 1.356 . S
C1510 C1507 1.358 . S
C1510 H1566 0.930 . S
C1511 N1508 1.314 . S
C1511 C1509 1.353 . S
C1511 H1567 0.930 . S
C1512 N1513 1.314 . S
C1512 C1517 1.353 . S
C1512 H1518 0.930 . S
N1513 Li1496 1.990 . S
N1513 C1512 1.314 . S
N1513 C1515 1.279 . S
C1514 C1515 1.358 . S
C1514 C1516 1.356 . S
C1514 H1568 0.930 . S
C1515 N1513 1.279 . S
C1515 C1514 1.358 . S
C1515 H1519 0.930 . S
C1516 C1514 1.356 . S
C1516 C1517 1.348 . S
C1517 C1512 1.353 . S
C1517 C1516 1.348 . S
C1517 H1569 0.929 . S
H1518 C1512 0.930 . S
H1519 C1515 0.930 . S
C1520 N1521 1.314 . S
C1520 C1522 1.353 . S
C1520 H1526 0.930 . S
N1521 Li1497 1.990 . S
N1521 C1520 1.314 . S
N1521 C1524 1.279 . S
C1522 C1520 1.353 . S
C1522 C1525 1.348 . S
C1522 H1570 0.929 . S
C1523 C1524 1.358 . S
C1523 C1525 1.356 . S
C1523 H1571 0.930 . S
C1524 N1521 1.279 . S
C1524 C1523 1.358 . S
C1524 H1527 0.930 . S
C1525 C1522 1.348 . S
C1525 C1523 1.356 . S
H1526 C1520 0.930 . S
H1527 C1524 0.930 . S
C1528 C1530 1.348 . S
C1528 C1531 1.356 . S
C1528 O1558 1.325 . S
N1529 C1532 1.314 . S
N1529 C1533 1.279 . S
C1530 C1528 1.348 . S
C1530 C1532 1.353 . S
C1530 H1572 0.929 . S
C1531 C1528 1.356 . S
C1531 C1533 1.358 . S
C1531 H1573 0.930 . S
C1532 N1529 1.314 . S
C1532 C1530 1.353 . S
C1532 H1574 0.930 . S
C1533 N1529 1.279 . S
C1533 C1531 1.358 . S
C1533 H1575 0.930 . S
C1534 C1535 1.348 . S
C1534 C1536 1.356 . S
C1534 O1559 1.325 . S
C1535 C1534 1.348 . S
C1535 C1537 1.353 . S
C1535 H1576 0.929 . S
C1536 C1534 1.356 . S
C1536 C1538 1.358 . S
C1536 H1577 0.930 . S
C1537 C1535 1.353 . S
C1537 N1539 1.314 . S
C1537 H1578 0.930 . S
C1538 C1536 1.358 . S
C1538 N1539 1.279 . S
C1538 H1579 0.930 . S
N1539 C1537 1.314 . S
N1539 C1538 1.279 . S
C1540 C1542 1.353 . S
C1540 N1543 1.314 . S
C1540 H1546 0.930 . S
C1541 N1543 1.279 . S
C1541 C1544 1.358 . S
C1541 H1547 0.930 . S
C1542 C1540 1.353 . S
C1542 C1545 1.348 . S
C1542 H1580 0.929 . S
N1543 Li1498 1.990 . S
N1543 C1540 1.314 . S
N1543 C1541 1.279 . S
C1544 C1541 1.358 . S
C1544 C1545 1.356 . S
C1544 H1581 0.930 . S
C1545 C1542 1.348 . S
C1545 C1544 1.356 . S
H1546 C1540 0.930 . S
H1547 C1541 0.930 . S
C1548 N1549 1.314 . S
C1548 C1550 1.353 . S
C1548 H1554 0.930 . S
N1549 Li1499 1.990 . S
N1549 C1548 1.314 . S
N1549 C1552 1.279 . S
C1550 C1548 1.353 . S
C1550 C1553 1.348 . S
C1550 H1582 0.929 . S
C1551 C1552 1.358 . S
C1551 C1553 1.356 . S
C1551 H1583 0.930 . S
C1552 N1549 1.279 . S
C1552 C1551 1.358 . S
C1552 H1555 0.930 . S
C1553 C1550 1.348 . S
C1553 C1551 1.356 . S
H1554 C1548 0.930 . S
H1555 C1552 0.930 . S
O1556 Li1496 1.956 . S
O1556 Li1497 1.970 . S
O1556 Li1498 1.961 . S
O1556 C1500 1.325 . S
O1557 Li1496 1.970 . S
O1557 Li1497 1.956 . S
O1557 Li1499 1.961 . S
O1557 C1506 1.325 . S
O1558 Li1496 1.961 . S
O1558 Li1498 1.956 . S
O1558 Li1499 1.970 . S
O1558 C1528 1.325 . S
O1559 Li1497 1.961 . S
O1559 Li1498 1.970 . S
O1559 Li1499 1.956 . S
O1559 C1534 1.325 . S
H1560 C1502 0.929 . S
H1561 C1503 0.930 . S
H1562 C1504 0.930 . S
H1563 C1505 0.930 . S
H1564 C1507 0.930 . S
H1565 C1509 0.929 . S
H1566 C1510 0.930 . S
H1567 C1511 0.930 . S
H1568 C1514 0.930 . S
H1569 C1517 0.929 . S
H1570 C1522 0.929 . S
H1571 C1523 0.930 . S
H1572 C1530 0.929 . S
H1573 C1531 0.930 . S
H1574 C1532 0.930 . S
H1575 C1533 0.930 . S
H1576 C1535 0.929 . S
H1577 C1536 0.930 . S
H1578 C1537 0.930 . S
H1579 C1538 0.930 . S
H1580 C1542 0.929 . S
H1581 C1544 0.930 . S
H1582 C1550 0.929 . S
H1583 C1551 0.930 . S
Li1584 N1601 1.990 . S
Li1584 O1644 1.956 . S
Li1584 O1645 1.970 . S
Li1584 O1646 1.961 . S
Li1585 N1609 1.990 . S
Li1585 O1644 1.970 . S
Li1585 O1645 1.956 . S
Li1585 O1647 1.961 . S
Li1586 N1631 1.990 . S
Li1586 O1644 1.961 . S
Li1586 O1646 1.956 . S
Li1586 O1647 1.970 . S
Li1587 N1637 1.990 . S
Li1587 O1645 1.961 . S
Li1587 O1646 1.970 . S
Li1587 O1647 1.956 . S
C1588 C1590 1.348 . S
C1588 C1591 1.356 . S
C1588 O1644 1.325 . S
N1589 C1592 1.314 . S
N1589 C1593 1.279 . S
C1590 C1588 1.348 . S
C1590 C1592 1.353 . S
C1590 H1648 0.929 . S
C1591 C1588 1.356 . S
C1591 C1593 1.358 . S
C1591 H1649 0.930 . S
C1592 N1589 1.314 . S
C1592 C1590 1.353 . S
C1592 H1650 0.930 . S
C1593 N1589 1.279 . S
C1593 C1591 1.358 . S
C1593 H1651 0.930 . S
C1594 C1597 1.348 . S
C1594 C1598 1.356 . S
C1594 O1645 1.325 . S
C1595 N1596 1.279 . S
C1595 C1598 1.358 . S
C1595 H1652 0.930 . S
N1596 C1595 1.279 . S
N1596 C1599 1.314 . S
C1597 C1594 1.348 . S
C1597 C1599 1.353 . S
C1597 H1653 0.929 . S
C1598 C1594 1.356 . S
C1598 C1595 1.358 . S
C1598 H1654 0.930 . S
C1599 N1596 1.314 . S
C1599 C1597 1.353 . S
C1599 H1655 0.930 . S
C1600 N1601 1.314 . S
C1600 C1605 1.353 . S
C1600 H1606 0.930 . S
N1601 Li1584 1.990 . S
N1601 C1600 1.314 . S
N1601 C1603 1.279 . S
C1602 C1603 1.358 . S
C1602 C1604 1.356 . S
C1602 H1656 0.930 . S
C1603 N1601 1.279 . S
C1603 C1602 1.358 . S
C1603 H1607 0.930 . S
C1604 C1602 1.356 . S
C1604 C1605 1.348 . S
C1605 C1600 1.353 . S
C1605 C1604 1.348 . S
C1605 H1657 0.882 1_554 S
H1606 C1600 0.930 . S
H1607 C1603 0.930 . S
C1608 N1609 1.314 . S
C1608 C1610 1.353 . S
C1608 H1614 0.930 . S
N1609 Li1585 1.990 . S
N1609 C1608 1.314 . S
N1609 C1612 1.279 . S
C1610 C1608 1.353 . S
C1610 C1613 1.348 . S
C1610 H1658 0.929 . S
C1611 C1612 1.358 . S
C1611 C1613 1.356 . S
C1611 H1659 0.930 . S
C1612 N1609 1.279 . S
C1612 C1611 1.358 . S
C1612 H1615 0.930 . S
C1613 C1610 1.348 . S
C1613 C1611 1.356 . S
H1614 C1608 0.930 . S
H1615 C1612 0.930 . S
C1616 C1618 1.348 . S
C1616 C1619 1.356 . S
C1616 O1646 1.325 . S
N1617 C1620 1.314 . S
N1617 C1621 1.279 . S
C1618 C1616 1.348 . S
C1618 C1620 1.353 1_554 S
C1618 H1660 0.929 . S
C1619 C1616 1.356 . S
C1619 C1621 1.358 1_554 S
C1619 H1661 0.930 . S
C1620 N1617 1.314 . S
C1620 C1618 1.353 1_556 S
C1620 H1662 0.930 . S
C1621 N1617 1.279 . S
C1621 C1619 1.358 1_556 S
C1621 H1663 0.930 . S
C1622 C1623 1.348 . S
C1622 C1624 1.356 . S
C1622 O1647 1.325 . S
C1623 C1622 1.348 . S
C1623 C1625 1.353 . S
C1623 H1664 0.929 . S
C1624 C1622 1.356 . S
C1624 C1626 1.358 . S
C1624 H1665 0.930 . S
C1625 C1623 1.353 . S
C1625 N1627 1.314 . S
C1625 H1666 0.930 . S
C1626 C1624 1.358 . S
C1626 N1627 1.279 . S
C1626 H1667 0.930 . S
N1627 C1625 1.314 . S
N1627 C1626 1.279 . S
C1628 C1630 1.353 . S
C1628 N1631 1.314 . S
C1628 H1634 0.930 . S
C1629 N1631 1.279 . S
C1629 C1632 1.358 . S
C1629 H1635 0.930 . S
C1630 C1628 1.353 . S
C1630 C1633 1.348 . S
C1630 H1668 0.929 . S
N1631 Li1586 1.990 . S
N1631 C1628 1.314 . S
N1631 C1629 1.279 . S
C1632 C1629 1.358 . S
C1632 C1633 1.356 . S
C1632 H1669 0.930 . S
C1633 C1630 1.348 . S
C1633 C1632 1.356 . S
H1634 C1628 0.930 . S
H1635 C1629 0.930 . S
C1636 N1637 1.314 . S
C1636 C1638 1.353 . S
C1636 H1642 0.930 . S
N1637 Li1587 1.990 . S
N1637 C1636 1.314 . S
N1637 C1640 1.279 . S
C1638 C1636 1.353 . S
C1638 C1641 1.348 . S
C1638 H1670 0.929 . S
C1639 C1640 1.358 . S
C1639 C1641 1.356 . S
C1639 H1671 0.930 . S
C1640 N1637 1.279 . S
C1640 C1639 1.358 . S
C1640 H1643 0.930 . S
C1641 C1638 1.348 . S
C1641 C1639 1.356 . S
H1642 C1636 0.930 . S
H1643 C1640 0.930 . S
O1644 Li1584 1.956 . S
O1644 Li1585 1.970 . S
O1644 Li1586 1.961 . S
O1644 C1588 1.325 . S
O1645 Li1584 1.970 . S
O1645 Li1585 1.956 . S
O1645 Li1587 1.961 . S
O1645 C1594 1.325 . S
O1646 Li1584 1.961 . S
O1646 Li1586 1.956 . S
O1646 Li1587 1.970 . S
O1646 C1616 1.325 . S
O1647 Li1585 1.961 . S
O1647 Li1586 1.970 . S
O1647 Li1587 1.956 . S
O1647 C1622 1.325 . S
H1648 C1590 0.929 . S
H1649 C1591 0.930 . S
H1650 C1592 0.930 . S
H1651 C1593 0.930 . S
H1652 C1595 0.930 . S
H1653 C1597 0.929 . S
H1654 C1598 0.930 . S
H1655 C1599 0.930 . S
H1656 C1602 0.930 . S
H1657 C1605 0.882 1_556 S
H1658 C1610 0.929 . S
H1659 C1611 0.930 . S
H1660 C1618 0.929 . S
H1661 C1619 0.930 . S
H1662 C1620 0.930 . S
H1663 C1621 0.930 . S
H1664 C1623 0.929 . S
H1665 C1624 0.930 . S
H1666 C1625 0.930 . S
H1667 C1626 0.930 . S
H1668 C1630 0.929 . S
H1669 C1632 0.930 . S
H1670 C1638 0.929 . S
H1671 C1639 0.930 . S
Li1672 N1689 1.990 . S
Li1672 O1732 1.956 . S
Li1672 O1733 1.970 . S
Li1672 O1734 1.961 . S
Li1673 N1697 1.990 . S
Li1673 O1732 1.970 . S
Li1673 O1733 1.956 . S
Li1673 O1735 1.961 . S
Li1674 N1719 1.990 . S
Li1674 O1732 1.961 . S
Li1674 O1734 1.956 . S
Li1674 O1735 1.970 . S
Li1675 N1725 1.990 . S
Li1675 O1733 1.961 . S
Li1675 O1734 1.970 . S
Li1675 O1735 1.956 . S
C1676 C1678 1.348 . S
C1676 C1679 1.356 . S
C1676 O1732 1.325 . S
N1677 C1680 1.314 . S
N1677 C1681 1.279 . S
C1678 C1676 1.348 . S
C1678 C1680 1.353 . S
C1678 H1736 0.929 . S
C1679 C1676 1.356 . S
C1679 C1681 1.358 . S
C1679 H1737 0.930 . S
C1680 N1677 1.314 . S
C1680 C1678 1.353 . S
C1680 H1738 0.930 . S
C1681 N1677 1.279 . S
C1681 C1679 1.358 . S
C1681 H1739 0.930 . S
C1682 C1685 1.348 . S
C1682 C1686 1.356 . S
C1682 O1733 1.325 . S
C1683 N1684 1.279 . S
C1683 C1686 1.358 . S
C1683 H1740 0.930 . S
N1684 C1683 1.279 . S
N1684 C1687 1.314 . S
C1685 C1682 1.348 . S
C1685 C1687 1.353 . S
C1685 H1741 0.929 . S
C1686 C1682 1.356 . S
C1686 C1683 1.358 . S
C1686 H1742 0.930 . S
C1687 N1684 1.314 . S
C1687 C1685 1.353 . S
C1687 H1743 0.930 . S
C1688 N1689 1.314 . S
C1688 C1693 1.353 . S
C1688 H1694 0.930 . S
N1689 Li1672 1.990 . S
N1689 C1688 1.314 . S
N1689 C1691 1.279 . S
C1690 C1691 1.358 . S
C1690 C1692 1.356 . S
C1690 H1744 0.930 . S
C1691 N1689 1.279 . S
C1691 C1690 1.358 . S
C1691 H1695 0.930 . S
C1692 C1690 1.356 . S
C1692 C1693 1.348 . S
C1693 C1688 1.353 . S
C1693 C1692 1.348 . S
C1693 H1745 0.929 . S
H1694 C1688 0.930 . S
H1695 C1691 0.930 . S
C1696 N1697 1.314 . S
C1696 C1698 1.353 . S
C1696 H1702 0.930 . S
N1697 Li1673 1.990 . S
N1697 C1696 1.314 . S
N1697 C1700 1.279 . S
C1698 C1696 1.353 . S
C1698 C1701 1.348 . S
C1698 H1746 0.929 . S
C1699 C1700 1.358 . S
C1699 C1701 1.356 . S
C1699 H1747 0.930 . S
C1700 N1697 1.279 . S
C1700 C1699 1.358 . S
C1700 H1703 0.930 . S
C1701 C1698 1.348 . S
C1701 C1699 1.356 . S
H1702 C1696 0.930 . S
H1703 C1700 0.930 . S
C1704 C1706 1.348 . S
C1704 C1707 1.356 . S
C1704 O1734 1.325 . S
N1705 C1708 1.314 . S
N1705 C1709 1.279 . S
C1706 C1704 1.348 . S
C1706 C1708 1.353 . S
C1706 H1748 0.929 . S
C1707 C1704 1.356 . S
C1707 C1709 1.358 . S
C1707 H1749 0.930 . S
C1708 N1705 1.314 . S
C1708 C1706 1.353 . S
C1708 H1750 0.930 . S
C1709 N1705 1.279 . S
C1709 C1707 1.358 . S
C1709 H1751 0.930 . S
C1710 C1711 1.348 . S
C1710 C1712 1.356 . S
C1710 O1735 1.325 . S
C1711 C1710 1.348 . S
C1711 C1713 1.353 . S
C1711 H1752 0.929 . S
C1712 C1710 1.356 . S
C1712 C1714 1.358 . S
C1712 H1753 0.930 . S
C1713 C1711 1.353 . S
C1713 N1715 1.314 . S
C1713 H1754 0.930 . S
C1714 C1712 1.358 . S
C1714 N1715 1.279 . S
C1714 H1755 0.930 . S
N1715 C1713 1.314 . S
N1715 C1714 1.279 . S
C1716 C1718 1.353 . S
C1716 N1719 1.314 . S
C1716 H1722 0.930 . S
C1717 N1719 1.279 . S
C1717 C1720 1.358 . S
C1717 H1723 0.930 . S
C1718 C1716 1.353 . S
C1718 C1721 1.348 . S
C1718 H1756 0.929 . S
N1719 Li1674 1.990 . S
N1719 C1716 1.314 . S
N1719 C1717 1.279 . S
C1720 C1717 1.358 . S
C1720 C1721 1.356 . S
C1720 H1757 0.930 . S
C1721 C1718 1.348 . S
C1721 C1720 1.356 . S
H1722 C1716 0.930 . S
H1723 C1717 0.930 . S
C1724 N1725 1.314 . S
C1724 C1726 1.353 . S
C1724 H1730 0.930 . S
N1725 Li1675 1.990 . S
N1725 C1724 1.314 . S
N1725 C1728 1.279 . S
C1726 C1724 1.353 . S
C1726 C1729 1.348 . S
C1726 H1758 0.929 . S
C1727 C1728 1.358 . S
C1727 C1729 1.356 . S
C1727 H1759 0.930 . S
C1728 N1725 1.279 . S
C1728 C1727 1.358 . S
C1728 H1731 0.930 . S
C1729 C1726 1.348 . S
C1729 C1727 1.356 . S
H1730 C1724 0.930 . S
H1731 C1728 0.930 . S
O1732 Li1672 1.956 . S
O1732 Li1673 1.970 . S
O1732 Li1674 1.961 . S
O1732 C1676 1.325 . S
O1733 Li1672 1.970 . S
O1733 Li1673 1.956 . S
O1733 Li1675 1.961 . S
O1733 C1682 1.325 . S
O1734 Li1672 1.961 . S
O1734 Li1674 1.956 . S
O1734 Li1675 1.970 . S
O1734 C1704 1.325 . S
O1735 Li1673 1.961 . S
O1735 Li1674 1.970 . S
O1735 Li1675 1.956 . S
O1735 C1710 1.325 . S
H1736 C1678 0.929 . S
H1737 C1679 0.930 . S
H1738 C1680 0.930 . S
H1739 C1681 0.930 . S
H1740 C1683 0.930 . S
H1741 C1685 0.929 . S
H1742 C1686 0.930 . S
H1743 C1687 0.930 . S
H1744 C1690 0.930 . S
H1745 C1693 0.929 . S
H1746 C1698 0.929 . S
H1747 C1699 0.930 . S
H1748 C1706 0.929 . S
H1749 C1707 0.930 . S
H1750 C1708 0.930 . S
H1751 C1709 0.930 . S
H1752 C1711 0.929 . S
H1753 C1712 0.930 . S
H1754 C1713 0.930 . S
H1755 C1714 0.930 . S
H1756 C1718 0.929 . S
H1757 C1720 0.930 . S
H1758 C1726 0.929 . S
H1759 C1727 0.930 . S
Li1760 N1777 1.990 . S
Li1760 O1820 1.956 . S
Li1760 O1821 1.970 . S
Li1760 O1822 1.961 . S
Li1761 N1785 1.990 . S
Li1761 O1820 1.970 . S
Li1761 O1821 1.956 . S
Li1761 O1823 1.961 . S
Li1762 N1807 1.990 . S
Li1762 O1820 1.961 . S
Li1762 O1822 1.956 . S
Li1762 O1823 1.970 . S
Li1763 N1813 1.990 . S
Li1763 O1821 1.961 . S
Li1763 O1822 1.970 . S
Li1763 O1823 1.956 . S
C1764 C1766 1.348 . S
C1764 C1767 1.356 . S
C1764 O1820 1.325 . S
N1765 C1768 1.314 . S
N1765 C1769 1.279 . S
C1766 C1764 1.348 . S
C1766 C1768 1.353 1_556 S
C1766 H1824 0.929 . S
C1767 C1764 1.356 . S
C1767 C1769 1.358 1_556 S
C1767 H1825 0.930 . S
C1768 N1765 1.314 . S
C1768 C1766 1.353 1_554 S
C1768 H1826 0.930 . S
C1769 N1765 1.279 . S
C1769 C1767 1.358 1_554 S
C1769 H1827 0.930 . S
C1770 C1773 1.348 . S
C1770 C1774 1.356 . S
C1770 O1821 1.325 . S
C1771 N1772 1.279 . S
C1771 C1774 1.358 . S
C1771 H1828 0.930 . S
N1772 C1771 1.279 . S
N1772 C1775 1.314 . S
C1773 C1770 1.348 . S
C1773 C1775 1.353 . S
C1773 H1829 0.929 . S
C1774 C1770 1.356 . S
C1774 C1771 1.358 . S
C1774 H1830 0.930 . S
C1775 N1772 1.314 . S
C1775 C1773 1.353 . S
C1775 H1831 0.930 . S
C1776 N1777 1.314 . S
C1776 C1781 1.353 . S
C1776 H1782 0.930 . S
N1777 Li1760 1.990 . S
N1777 C1776 1.314 . S
N1777 C1779 1.279 . S
C1778 C1779 1.358 . S
C1778 C1780 1.356 . S
C1778 H1832 0.930 . S
C1779 N1777 1.279 . S
C1779 C1778 1.358 . S
C1779 H1783 0.930 . S
C1780 C1778 1.356 . S
C1780 C1781 1.348 . S
C1781 C1776 1.353 . S
C1781 C1780 1.348 . S
C1781 H1833 0.929 . S
H1782 C1776 0.930 . S
H1783 C1779 0.930 . S
C1784 N1785 1.314 . S
C1784 C1786 1.353 . S
C1784 H1790 0.930 . S
N1785 Li1761 1.990 . S
N1785 C1784 1.314 . S
N1785 C1788 1.279 . S
C1786 C1784 1.353 . S
C1786 C1789 1.348 . S
C1786 H1834 0.929 . S
C1787 C1788 1.358 . S
C1787 C1789 1.356 . S
C1787 H1835 0.930 . S
C1788 N1785 1.279 . S
C1788 C1787 1.358 . S
C1788 H1791 0.930 . S
C1789 C1786 1.348 . S
C1789 C1787 1.356 . S
H1790 C1784 0.930 . S
H1791 C1788 0.930 . S
C1792 C1794 1.348 . S
C1792 C1795 1.356 . S
C1792 O1822 1.325 . S
N1793 C1796 1.314 . S
N1793 C1797 1.279 . S
C1794 C1792 1.348 . S
C1794 C1796 1.353 . S
C1794 H1836 0.929 . S
C1795 C1792 1.356 . S
C1795 C1797 1.358 . S
C1795 H1837 0.930 . S
C1796 N1793 1.314 . S
C1796 C1794 1.353 . S
C1796 H1838 0.930 . S
C1797 N1793 1.279 . S
C1797 C1795 1.358 . S
C1797 H1839 0.930 . S
C1798 C1799 1.348 . S
C1798 C1800 1.356 . S
C1798 O1823 1.325 . S
C1799 C1798 1.348 . S
C1799 C1801 1.353 . S
C1799 H1840 0.929 . S
C1800 C1798 1.356 . S
C1800 C1802 1.358 . S
C1800 H1841 0.930 . S
C1801 C1799 1.353 . S
C1801 N1803 1.314 . S
C1801 H1842 0.930 . S
C1802 C1800 1.358 . S
C1802 N1803 1.279 . S
C1802 H1843 0.930 . S
N1803 C1801 1.314 . S
N1803 C1802 1.279 . S
C1804 C1806 1.353 . S
C1804 N1807 1.314 . S
C1804 H1810 0.930 . S
C1805 N1807 1.279 . S
C1805 C1808 1.358 . S
C1805 H1811 0.930 . S
C1806 C1804 1.353 . S
C1806 C1809 1.348 . S
C1806 H1844 0.882 1_556 S
N1807 Li1762 1.990 . S
N1807 C1804 1.314 . S
N1807 C1805 1.279 . S
C1808 C1805 1.358 . S
C1808 C1809 1.356 . S
C1808 H1845 0.930 . S
C1809 C1806 1.348 . S
C1809 C1808 1.356 . S
H1810 C1804 0.930 . S
H1811 C1805 0.930 . S
C1812 N1813 1.314 . S
C1812 C1814 1.353 . S
C1812 H1818 0.930 . S
N1813 Li1763 1.990 . S
N1813 C1812 1.314 . S
N1813 C1816 1.279 . S
C1814 C1812 1.353 . S
C1814 C1817 1.348 . S
C1814 H1846 0.929 . S
C1815 C1816 1.358 . S
C1815 C1817 1.356 . S
C1815 H1847 0.930 . S
C1816 N1813 1.279 . S
C1816 C1815 1.358 . S
C1816 H1819 0.930 . S
C1817 C1814 1.348 . S
C1817 C1815 1.356 . S
H1818 C1812 0.930 . S
H1819 C1816 0.930 . S
O1820 Li1760 1.956 . S
O1820 Li1761 1.970 . S
O1820 Li1762 1.961 . S
O1820 C1764 1.325 . S
O1821 Li1760 1.970 . S
O1821 Li1761 1.956 . S
O1821 Li1763 1.961 . S
O1821 C1770 1.325 . S
O1822 Li1760 1.961 . S
O1822 Li1762 1.956 . S
O1822 Li1763 1.970 . S
O1822 C1792 1.325 . S
O1823 Li1761 1.961 . S
O1823 Li1762 1.970 . S
O1823 Li1763 1.956 . S
O1823 C1798 1.325 . S
H1824 C1766 0.929 . S
H1825 C1767 0.930 . S
H1826 C1768 0.930 . S
H1827 C1769 0.930 . S
H1828 C1771 0.930 . S
H1829 C1773 0.929 . S
H1830 C1774 0.930 . S
H1831 C1775 0.930 . S
H1832 C1778 0.930 . S
H1833 C1781 0.929 . S
H1834 C1786 0.929 . S
H1835 C1787 0.930 . S
H1836 C1794 0.929 . S
H1837 C1795 0.930 . S
H1838 C1796 0.930 . S
H1839 C1797 0.930 . S
H1840 C1799 0.929 . S
H1841 C1800 0.930 . S
H1842 C1801 0.930 . S
H1843 C1802 0.930 . S
H1844 C1806 0.882 1_554 S
H1845 C1808 0.930 . S
H1846 C1814 0.929 . S
H1847 C1815 0.930 . S
Li1848 N1865 1.990 . S
Li1848 O1908 1.956 . S
Li1848 O1909 1.970 . S
Li1848 O1910 1.961 . S
Li1849 N1873 1.990 . S
Li1849 O1908 1.970 . S
Li1849 O1909 1.956 . S
Li1849 O1911 1.961 . S
Li1850 N1895 1.990 . S
Li1850 O1908 1.961 . S
Li1850 O1910 1.956 . S
Li1850 O1911 1.970 . S
Li1851 N1901 1.990 . S
Li1851 O1909 1.961 . S
Li1851 O1910 1.970 . S
Li1851 O1911 1.956 . S
C1852 C1854 1.348 . S
C1852 C1855 1.356 . S
C1852 O1908 1.325 . S
N1853 C1856 1.314 . S
N1853 C1857 1.279 . S
C1854 C1852 1.348 . S
C1854 C1856 1.353 . S
C1854 H1912 0.929 . S
C1855 C1852 1.356 . S
C1855 C1857 1.358 . S
C1855 H1913 0.930 . S
C1856 N1853 1.314 . S
C1856 C1854 1.353 . S
C1856 H1914 0.930 . S
C1857 N1853 1.279 . S
C1857 C1855 1.358 . S
C1857 H1915 0.930 . S
C1858 C1861 1.348 . S
C1858 C1862 1.356 . S
C1858 O1909 1.325 . S
C1859 N1860 1.279 . S
C1859 C1862 1.358 . S
C1859 H1916 0.930 . S
N1860 C1859 1.279 . S
N1860 C1863 1.314 . S
C1861 C1858 1.348 . S
C1861 C1863 1.353 . S
C1861 H1917 0.929 . S
C1862 C1858 1.356 . S
C1862 C1859 1.358 . S
C1862 H1918 0.930 . S
C1863 N1860 1.314 . S
C1863 C1861 1.353 . S
C1863 H1919 0.930 . S
C1864 N1865 1.314 . S
C1864 C1869 1.353 . S
C1864 H1870 0.930 . S
N1865 Li1848 1.990 . S
N1865 C1864 1.314 . S
N1865 C1867 1.279 . S
C1866 C1867 1.358 . S
C1866 C1868 1.356 . S
C1866 H1920 0.930 . S
C1867 N1865 1.279 . S
C1867 C1866 1.358 . S
C1867 H1871 0.930 . S
C1868 C1866 1.356 . S
C1868 C1869 1.348 . S
C1869 C1864 1.353 . S
C1869 C1868 1.348 . S
C1869 H1921 0.929 . S
H1870 C1864 0.930 . S
H1871 C1867 0.930 . S
C1872 N1873 1.314 . S
C1872 C1874 1.353 . S
C1872 H1878 0.930 . S
N1873 Li1849 1.990 . S
N1873 C1872 1.314 . S
N1873 C1876 1.279 . S
C1874 C1872 1.353 . S
C1874 C1877 1.348 . S
C1874 H1922 0.929 . S
C1875 C1876 1.358 . S
C1875 C1877 1.356 . S
C1875 H1923 0.930 . S
C1876 N1873 1.279 . S
C1876 C1875 1.358 . S
C1876 H1879 0.930 . S
C1877 C1874 1.348 . S
C1877 C1875 1.356 . S
H1878 C1872 0.930 . S
H1879 C1876 0.930 . S
C1880 C1882 1.348 . S
C1880 C1883 1.356 . S
C1880 O1910 1.325 . S
N1881 C1884 1.314 . S
N1881 C1885 1.279 . S
C1882 C1880 1.348 . S
C1882 C1884 1.353 . S
C1882 H1924 0.929 . S
C1883 C1880 1.356 . S
C1883 C1885 1.358 . S
C1883 H1925 0.930 . S
C1884 N1881 1.314 . S
C1884 C1882 1.353 . S
C1884 H1926 0.930 . S
C1885 N1881 1.279 . S
C1885 C1883 1.358 . S
C1885 H1927 0.930 . S
C1886 C1887 1.348 . S
C1886 C1888 1.356 . S
C1886 O1911 1.325 . S
C1887 C1886 1.348 . S
C1887 C1889 1.353 . S
C1887 H1928 0.929 . S
C1888 C1886 1.356 . S
C1888 C1890 1.358 . S
C1888 H1929 0.930 . S
C1889 C1887 1.353 . S
C1889 N1891 1.314 . S
C1889 H1930 0.930 . S
C1890 C1888 1.358 . S
C1890 N1891 1.279 . S
C1890 H1931 0.930 . S
N1891 C1889 1.314 . S
N1891 C1890 1.279 . S
C1892 C1894 1.353 . S
C1892 N1895 1.314 . S
C1892 H1898 0.930 . S
C1893 N1895 1.279 . S
C1893 C1896 1.358 . S
C1893 H1899 0.930 . S
C1894 C1892 1.353 . S
C1894 C1897 1.348 . S
C1894 H1932 0.929 . S
N1895 Li1850 1.990 . S
N1895 C1892 1.314 . S
N1895 C1893 1.279 . S
C1896 C1893 1.358 . S
C1896 C1897 1.356 . S
C1896 H1933 0.930 . S
C1897 C1894 1.348 . S
C1897 C1896 1.356 . S
H1898 C1892 0.930 . S
H1899 C1893 0.930 . S
C1900 N1901 1.314 . S
C1900 C1902 1.353 . S
C1900 H1906 0.930 . S
N1901 Li1851 1.990 . S
N1901 C1900 1.314 . S
N1901 C1904 1.279 . S
C1902 C1900 1.353 . S
C1902 C1905 1.348 . S
C1902 H1934 0.929 . S
C1903 C1904 1.358 . S
C1903 C1905 1.356 . S
C1903 H1935 0.930 . S
C1904 N1901 1.279 . S
C1904 C1903 1.358 . S
C1904 H1907 0.930 . S
C1905 C1902 1.348 . S
C1905 C1903 1.356 . S
H1906 C1900 0.930 . S
H1907 C1904 0.930 . S
O1908 Li1848 1.956 . S
O1908 Li1849 1.970 . S
O1908 Li1850 1.961 . S
O1908 C1852 1.325 . S
O1909 Li1848 1.970 . S
O1909 Li1849 1.956 . S
O1909 Li1851 1.961 . S
O1909 C1858 1.325 . S
O1910 Li1848 1.961 . S
O1910 Li1850 1.956 . S
O1910 Li1851 1.970 . S
O1910 C1880 1.325 . S
O1911 Li1849 1.961 . S
O1911 Li1850 1.970 . S
O1911 Li1851 1.956 . S
O1911 C1886 1.325 . S
H1912 C1854 0.929 . S
H1913 C1855 0.930 . S
H1914 C1856 0.930 . S
H1915 C1857 0.930 . S
H1916 C1859 0.930 . S
H1917 C1861 0.929 . S
H1918 C1862 0.930 . S
H1919 C1863 0.930 . S
H1920 C1866 0.930 . S
H1921 C1869 0.929 . S
H1922 C1874 0.929 . S
H1923 C1875 0.930 . S
H1924 C1882 0.929 . S
H1925 C1883 0.930 . S
H1926 C1884 0.930 . S
H1927 C1885 0.930 . S
H1928 C1887 0.929 . S
H1929 C1888 0.930 . S
H1930 C1889 0.930 . S
H1931 C1890 0.930 . S
H1932 C1894 0.929 . S
H1933 C1896 0.930 . S
H1934 C1902 0.929 . S
H1935 C1903 0.930 . S
Li1936 N1953 1.990 . S
Li1936 O1996 1.956 . S
Li1936 O1997 1.970 . S
Li1936 O1998 1.961 . S
Li1937 N1961 1.990 . S
Li1937 O1996 1.970 . S
Li1937 O1997 1.956 . S
Li1937 O1999 1.961 . S
Li1938 N1983 1.990 . S
Li1938 O1996 1.961 . S
Li1938 O1998 1.956 . S
Li1938 O1999 1.970 . S
Li1939 N1989 1.990 . S
Li1939 O1997 1.961 . S
Li1939 O1998 1.970 . S
Li1939 O1999 1.956 . S
C1940 C1942 1.348 . S
C1940 C1943 1.356 . S
C1940 O1996 1.325 . S
N1941 C1944 1.314 . S
N1941 C1945 1.279 . S
C1942 C1940 1.348 . S
C1942 C1944 1.353 . S
C1942 H2000 0.929 . S
C1943 C1940 1.356 . S
C1943 C1945 1.358 . S
C1943 H2001 0.930 . S
C1944 N1941 1.314 . S
C1944 C1942 1.353 . S
C1944 H2002 0.930 . S
C1945 N1941 1.279 . S
C1945 C1943 1.358 . S
C1945 H2003 0.930 . S
C1946 C1949 1.348 . S
C1946 C1950 1.356 . S
C1946 O1997 1.325 . S
C1947 N1948 1.279 . S
C1947 C1950 1.358 . S
C1947 H2004 0.930 . S
N1948 C1947 1.279 . S
N1948 C1951 1.314 . S
C1949 C1946 1.348 . S
C1949 C1951 1.353 . S
C1949 H2005 0.929 . S
C1950 C1946 1.356 . S
C1950 C1947 1.358 . S
C1950 H2006 0.930 . S
C1951 N1948 1.314 . S
C1951 C1949 1.353 . S
C1951 H2007 0.930 . S
C1952 N1953 1.314 . S
C1952 C1957 1.353 . S
C1952 H1958 0.930 . S
N1953 Li1936 1.990 . S
N1953 C1952 1.314 . S
N1953 C1955 1.279 . S
C1954 C1955 1.358 . S
C1954 C1956 1.356 . S
C1954 H2008 0.930 . S
C1955 N1953 1.279 . S
C1955 C1954 1.358 . S
C1955 H1959 0.930 . S
C1956 C1954 1.356 . S
C1956 C1957 1.348 . S
C1957 C1952 1.353 . S
C1957 C1956 1.348 . S
C1957 H2009 0.929 . S
H1958 C1952 0.930 . S
H1959 C1955 0.930 . S
C1960 N1961 1.314 . S
C1960 C1962 1.353 . S
C1960 H1966 0.930 . S
N1961 Li1937 1.990 . S
N1961 C1960 1.314 . S
N1961 C1964 1.279 . S
C1962 C1960 1.353 . S
C1962 C1965 1.348 . S
C1962 H2010 0.929 . S
C1963 C1964 1.358 . S
C1963 C1965 1.356 . S
C1963 H2011 0.930 . S
C1964 N1961 1.279 . S
C1964 C1963 1.358 . S
C1964 H1967 0.930 . S
C1965 C1962 1.348 . S
C1965 C1963 1.356 . S
H1966 C1960 0.930 . S
H1967 C1964 0.930 . S
C1968 C1970 1.348 . S
C1968 C1971 1.356 . S
C1968 O1998 1.325 . S
N1969 C1972 1.314 . S
N1969 C1973 1.279 . S
C1970 C1968 1.348 . S
C1970 C1972 1.353 . S
C1970 H2012 0.929 . S
C1971 C1968 1.356 . S
C1971 C1973 1.358 . S
C1971 H2013 0.930 . S
C1972 N1969 1.314 . S
C1972 C1970 1.353 . S
C1972 H2014 0.930 . S
C1973 N1969 1.279 . S
C1973 C1971 1.358 . S
C1973 H2015 0.930 . S
C1974 C1975 1.348 . S
C1974 C1976 1.356 . S
C1974 O1999 1.325 . S
C1975 C1974 1.348 . S
C1975 C1977 1.353 . S
C1975 H2016 0.929 . S
C1976 C1974 1.356 . S
C1976 C1978 1.358 . S
C1976 H2017 0.930 . S
C1977 C1975 1.353 . S
C1977 N1979 1.314 . S
C1977 H2018 0.930 . S
C1978 C1976 1.358 . S
C1978 N1979 1.279 . S
C1978 H2019 0.930 . S
N1979 C1977 1.314 . S
N1979 C1978 1.279 . S
C1980 C1982 1.353 . S
C1980 N1983 1.314 . S
C1980 H1986 0.930 . S
C1981 N1983 1.279 . S
C1981 C1984 1.358 . S
C1981 H1987 0.930 . S
C1982 C1980 1.353 . S
C1982 C1985 1.348 . S
C1982 H2020 0.929 . S
N1983 Li1938 1.990 . S
N1983 C1980 1.314 . S
N1983 C1981 1.279 . S
C1984 C1981 1.358 . S
C1984 C1985 1.356 . S
C1984 H2021 0.930 . S
C1985 C1982 1.348 . S
C1985 C1984 1.356 . S
H1986 C1980 0.930 . S
H1987 C1981 0.930 . S
C1988 N1989 1.314 . S
C1988 C1990 1.353 . S
C1988 H1994 0.930 . S
N1989 Li1939 1.990 . S
N1989 C1988 1.314 . S
N1989 C1992 1.279 . S
C1990 C1988 1.353 . S
C1990 C1993 1.348 . S
C1990 H2022 0.929 . S
C1991 C1992 1.358 . S
C1991 C1993 1.356 . S
C1991 H2023 0.930 . S
C1992 N1989 1.279 . S
C1992 C1991 1.358 . S
C1992 H1995 0.930 . S
C1993 C1990 1.348 . S
C1993 C1991 1.356 . S
H1994 C1988 0.930 . S
H1995 C1992 0.930 . S
O1996 Li1936 1.956 . S
O1996 Li1937 1.970 . S
O1996 Li1938 1.961 . S
O1996 C1940 1.325 . S
O1997 Li1936 1.970 . S
O1997 Li1937 1.956 . S
O1997 Li1939 1.961 . S
O1997 C1946 1.325 . S
O1998 Li1936 1.961 . S
O1998 Li1938 1.956 . S
O1998 Li1939 1.970 . S
O1998 C1968 1.325 . S
O1999 Li1937 1.961 . S
O1999 Li1938 1.970 . S
O1999 Li1939 1.956 . S
O1999 C1974 1.325 . S
H2000 C1942 0.929 . S
H2001 C1943 0.930 . S
H2002 C1944 0.930 . S
H2003 C1945 0.930 . S
H2004 C1947 0.930 . S
H2005 C1949 0.929 . S
H2006 C1950 0.930 . S
H2007 C1951 0.930 . S
H2008 C1954 0.930 . S
H2009 C1957 0.929 . S
H2010 C1962 0.929 . S
H2011 C1963 0.930 . S
H2012 C1970 0.929 . S
H2013 C1971 0.930 . S
H2014 C1972 0.930 . S
H2015 C1973 0.930 . S
H2016 C1975 0.929 . S
H2017 C1976 0.930 . S
H2018 C1977 0.930 . S
H2019 C1978 0.930 . S
H2020 C1982 0.929 . S
H2021 C1984 0.930 . S
H2022 C1990 0.929 . S
H2023 C1991 0.930 . S
Li2024 N2041 1.990 . S
Li2024 O2084 1.956 . S
Li2024 O2085 1.970 . S
Li2024 O2086 1.961 . S
Li2025 N2049 1.990 . S
Li2025 O2084 1.970 . S
Li2025 O2085 1.956 . S
Li2025 O2087 1.961 . S
Li2026 N2071 1.990 . S
Li2026 O2084 1.961 . S
Li2026 O2086 1.956 . S
Li2026 O2087 1.970 . S
Li2027 N2077 1.990 . S
Li2027 O2085 1.961 . S
Li2027 O2086 1.970 . S
Li2027 O2087 1.956 . S
C2028 C2030 1.348 . S
C2028 C2031 1.356 . S
C2028 O2084 1.325 . S
N2029 C2032 1.314 . S
N2029 C2033 1.279 . S
C2030 C2028 1.348 . S
C2030 C2032 1.353 . S
C2030 H2088 0.929 . S
C2031 C2028 1.356 . S
C2031 C2033 1.358 . S
C2031 H2089 0.930 . S
C2032 N2029 1.314 . S
C2032 C2030 1.353 . S
C2032 H2090 0.930 . S
C2033 N2029 1.279 . S
C2033 C2031 1.358 . S
C2033 H2091 0.930 . S
C2034 C2037 1.348 . S
C2034 C2038 1.356 . S
C2034 O2085 1.325 . S
C2035 N2036 1.279 . S
C2035 C2038 1.358 . S
C2035 H2092 0.930 . S
N2036 C2035 1.279 . S
N2036 C2039 1.314 . S
C2037 C2034 1.348 . S
C2037 C2039 1.353 . S
C2037 H2093 0.929 . S
C2038 C2034 1.356 . S
C2038 C2035 1.358 . S
C2038 H2094 0.930 . S
C2039 N2036 1.314 . S
C2039 C2037 1.353 . S
C2039 H2095 0.930 . S
C2040 N2041 1.314 . S
C2040 C2045 1.353 . S
C2040 H2046 0.930 . S
N2041 Li2024 1.990 . S
N2041 C2040 1.314 . S
N2041 C2043 1.279 . S
C2042 C2043 1.358 . S
C2042 C2044 1.356 . S
C2042 H2096 0.930 . S
C2043 N2041 1.279 . S
C2043 C2042 1.358 . S
C2043 H2047 0.930 . S
C2044 C2042 1.356 . S
C2044 C2045 1.348 . S
C2045 C2040 1.353 . S
C2045 C2044 1.348 . S
C2045 H2097 0.929 . S
H2046 C2040 0.930 . S
H2047 C2043 0.930 . S
C2048 N2049 1.314 . S
C2048 C2050 1.353 . S
C2048 H2054 0.930 . S
N2049 Li2025 1.990 . S
N2049 C2048 1.314 . S
N2049 C2052 1.279 . S
C2050 C2048 1.353 . S
C2050 C2053 1.348 . S
C2050 H2098 0.929 . S
C2051 C2052 1.358 . S
C2051 C2053 1.356 . S
C2051 H2099 0.930 . S
C2052 N2049 1.279 . S
C2052 C2051 1.358 . S
C2052 H2055 0.930 . S
C2053 C2050 1.348 . S
C2053 C2051 1.356 . S
H2054 C2048 0.930 . S
H2055 C2052 0.930 . S
C2056 C2058 1.348 . S
C2056 C2059 1.356 . S
C2056 O2086 1.325 . S
N2057 C2060 1.314 . S
N2057 C2061 1.279 . S
C2058 C2056 1.348 . S
C2058 C2060 1.353 . S
C2058 H2100 0.929 . S
C2059 C2056 1.356 . S
C2059 C2061 1.358 . S
C2059 H2101 0.930 . S
C2060 N2057 1.314 . S
C2060 C2058 1.353 . S
C2060 H2102 0.930 . S
C2061 N2057 1.279 . S
C2061 C2059 1.358 . S
C2061 H2103 0.930 . S
C2062 C2063 1.348 . S
C2062 C2064 1.356 . S
C2062 O2087 1.325 . S
C2063 C2062 1.348 . S
C2063 C2065 1.353 . S
C2063 H2104 0.929 . S
C2064 C2062 1.356 . S
C2064 C2066 1.358 . S
C2064 H2105 0.930 . S
C2065 C2063 1.353 . S
C2065 N2067 1.314 . S
C2065 H2106 0.930 . S
C2066 C2064 1.358 . S
C2066 N2067 1.279 . S
C2066 H2107 0.930 . S
N2067 C2065 1.314 . S
N2067 C2066 1.279 . S
C2068 C2070 1.353 . S
C2068 N2071 1.314 . S
C2068 H2074 0.930 . S
C2069 N2071 1.279 . S
C2069 C2072 1.358 . S
C2069 H2075 0.930 . S
C2070 C2068 1.353 . S
C2070 C2073 1.348 . S
C2070 H2108 0.929 . S
N2071 Li2026 1.990 . S
N2071 C2068 1.314 . S
N2071 C2069 1.279 . S
C2072 C2069 1.358 . S
C2072 C2073 1.356 . S
C2072 H2109 0.930 . S
C2073 C2070 1.348 . S
C2073 C2072 1.356 . S
H2074 C2068 0.930 . S
H2075 C2069 0.930 . S
C2076 N2077 1.314 . S
C2076 C2078 1.353 . S
C2076 H2082 0.930 . S
N2077 Li2027 1.990 . S
N2077 C2076 1.314 . S
N2077 C2080 1.279 . S
C2078 C2076 1.353 . S
C2078 C2081 1.348 . S
C2078 H2110 0.929 . S
C2079 C2080 1.358 . S
C2079 C2081 1.356 . S
C2079 H2111 0.930 . S
C2080 N2077 1.279 . S
C2080 C2079 1.358 . S
C2080 H2083 0.930 . S
C2081 C2078 1.348 . S
C2081 C2079 1.356 . S
H2082 C2076 0.930 . S
H2083 C2080 0.930 . S
O2084 Li2024 1.956 . S
O2084 Li2025 1.970 . S
O2084 Li2026 1.961 . S
O2084 C2028 1.325 . S
O2085 Li2024 1.970 . S
O2085 Li2025 1.956 . S
O2085 Li2027 1.961 . S
O2085 C2034 1.325 . S
O2086 Li2024 1.961 . S
O2086 Li2026 1.956 . S
O2086 Li2027 1.970 . S
O2086 C2056 1.325 . S
O2087 Li2025 1.961 . S
O2087 Li2026 1.970 . S
O2087 Li2027 1.956 . S
O2087 C2062 1.325 . S
H2088 C2030 0.929 . S
H2089 C2031 0.930 . S
H2090 C2032 0.930 . S
H2091 C2033 0.930 . S
H2092 C2035 0.930 . S
H2093 C2037 0.929 . S
H2094 C2038 0.930 . S
H2095 C2039 0.930 . S
H2096 C2042 0.930 . S
H2097 C2045 0.929 . S
H2098 C2050 0.929 . S
H2099 C2051 0.930 . S
H2100 C2058 0.929 . S
H2101 C2059 0.930 . S
H2102 C2060 0.930 . S
H2103 C2061 0.930 . S
H2104 C2063 0.929 . S
H2105 C2064 0.930 . S
H2106 C2065 0.930 . S
H2107 C2066 0.930 . S
H2108 C2070 0.929 . S
H2109 C2072 0.930 . S
H2110 C2078 0.929 . S
H2111 C2079 0.930 . S
Li2112 N2129 1.990 . S
Li2112 O2172 1.956 . S
Li2112 O2173 1.970 . S
Li2112 O2174 1.961 . S
Li2113 N2137 1.990 . S
Li2113 O2172 1.970 . S
Li2113 O2173 1.956 . S
Li2113 O2175 1.961 . S
Li2114 N2159 1.990 . S
Li2114 O2172 1.961 . S
Li2114 O2174 1.956 . S
Li2114 O2175 1.970 . S
Li2115 N2165 1.990 . S
Li2115 O2173 1.961 . S
Li2115 O2174 1.970 . S
Li2115 O2175 1.956 . S
C2116 C2118 1.348 . S
C2116 C2119 1.356 . S
C2116 O2172 1.325 . S
N2117 C2120 1.314 . S
N2117 C2121 1.279 . S
C2118 C2116 1.348 . S
C2118 C2120 1.353 . S
C2118 H2176 0.929 . S
C2119 C2116 1.356 . S
C2119 C2121 1.358 . S
C2119 H2177 0.930 . S
C2120 N2117 1.314 . S
C2120 C2118 1.353 . S
C2120 H2178 0.930 . S
C2121 N2117 1.279 . S
C2121 C2119 1.358 . S
C2121 H2179 0.930 . S
C2122 C2125 1.348 . S
C2122 C2126 1.356 . S
C2122 O2173 1.325 . S
C2123 N2124 1.279 . S
C2123 C2126 1.358 . S
C2123 H2180 0.930 . S
N2124 C2123 1.279 . S
N2124 C2127 1.314 . S
C2125 C2122 1.348 . S
C2125 C2127 1.353 . S
C2125 H2181 0.929 . S
C2126 C2122 1.356 . S
C2126 C2123 1.358 . S
C2126 H2182 0.930 . S
C2127 N2124 1.314 . S
C2127 C2125 1.353 . S
C2127 H2183 0.930 . S
C2128 N2129 1.314 . S
C2128 C2133 1.353 . S
C2128 H2134 0.930 . S
N2129 Li2112 1.990 . S
N2129 C2128 1.314 . S
N2129 C2131 1.279 . S
C2130 C2131 1.358 . S
C2130 C2132 1.356 . S
C2130 H2184 0.930 . S
C2131 N2129 1.279 . S
C2131 C2130 1.358 . S
C2131 H2135 0.930 . S
C2132 C2130 1.356 . S
C2132 C2133 1.348 . S
C2133 C2128 1.353 . S
C2133 C2132 1.348 . S
C2133 H2185 0.929 . S
H2134 C2128 0.930 . S
H2135 C2131 0.930 . S
C2136 N2137 1.314 . S
C2136 C2138 1.353 . S
C2136 H2142 0.930 . S
N2137 Li2113 1.990 . S
N2137 C2136 1.314 . S
N2137 C2140 1.279 . S
C2138 C2136 1.353 . S
C2138 C2141 1.348 . S
C2138 H2186 0.929 . S
C2139 C2140 1.358 . S
C2139 C2141 1.356 . S
C2139 H2187 0.930 . S
C2140 N2137 1.279 . S
C2140 C2139 1.358 . S
C2140 H2143 0.930 . S
C2141 C2138 1.348 . S
C2141 C2139 1.356 . S
H2142 C2136 0.930 . S
H2143 C2140 0.930 . S
C2144 C2146 1.348 . S
C2144 C2147 1.356 . S
C2144 O2174 1.325 . S
N2145 C2148 1.314 . S
N2145 C2149 1.279 . S
C2146 C2144 1.348 . S
C2146 C2148 1.353 . S
C2146 H2188 0.929 . S
C2147 C2144 1.356 . S
C2147 C2149 1.358 . S
C2147 H2189 0.930 . S
C2148 N2145 1.314 . S
C2148 C2146 1.353 . S
C2148 H2190 0.930 . S
C2149 N2145 1.279 . S
C2149 C2147 1.358 . S
C2149 H2191 0.930 . S
C2150 C2151 1.348 . S
C2150 C2152 1.356 . S
C2150 O2175 1.325 . S
C2151 C2150 1.348 . S
C2151 C2153 1.353 . S
C2151 H2192 0.929 . S
C2152 C2150 1.356 . S
C2152 C2154 1.358 . S
C2152 H2193 0.930 . S
C2153 C2151 1.353 . S
C2153 N2155 1.314 . S
C2153 H2194 0.930 . S
C2154 C2152 1.358 . S
C2154 N2155 1.279 . S
C2154 H2195 0.930 . S
N2155 C2153 1.314 . S
N2155 C2154 1.279 . S
C2156 C2158 1.353 . S
C2156 N2159 1.314 . S
C2156 H2162 0.930 . S
C2157 N2159 1.279 . S
C2157 C2160 1.358 . S
C2157 H2163 0.930 . S
C2158 C2156 1.353 . S
C2158 C2161 1.348 . S
C2158 H2196 0.929 . S
N2159 Li2114 1.990 . S
N2159 C2156 1.314 . S
N2159 C2157 1.279 . S
C2160 C2157 1.358 . S
C2160 C2161 1.356 . S
C2160 H2197 0.930 . S
C2161 C2158 1.348 . S
C2161 C2160 1.356 . S
H2162 C2156 0.930 . S
H2163 C2157 0.930 . S
C2164 N2165 1.314 . S
C2164 C2166 1.353 . S
C2164 H2170 0.930 . S
N2165 Li2115 1.990 . S
N2165 C2164 1.314 . S
N2165 C2168 1.279 . S
C2166 C2164 1.353 . S
C2166 C2169 1.348 . S
C2166 H2198 0.929 . S
C2167 C2168 1.358 . S
C2167 C2169 1.356 . S
C2167 H2199 0.930 . S
C2168 N2165 1.279 . S
C2168 C2167 1.358 . S
C2168 H2171 0.930 . S
C2169 C2166 1.348 . S
C2169 C2167 1.356 . S
H2170 C2164 0.930 . S
H2171 C2168 0.930 . S
O2172 Li2112 1.956 . S
O2172 Li2113 1.970 . S
O2172 Li2114 1.961 . S
O2172 C2116 1.325 . S
O2173 Li2112 1.970 . S
O2173 Li2113 1.956 . S
O2173 Li2115 1.961 . S
O2173 C2122 1.325 . S
O2174 Li2112 1.961 . S
O2174 Li2114 1.956 . S
O2174 Li2115 1.970 . S
O2174 C2144 1.325 . S
O2175 Li2113 1.961 . S
O2175 Li2114 1.970 . S
O2175 Li2115 1.956 . S
O2175 C2150 1.325 . S
H2176 C2118 0.929 . S
H2177 C2119 0.930 . S
H2178 C2120 0.930 . S
H2179 C2121 0.930 . S
H2180 C2123 0.930 . S
H2181 C2125 0.929 . S
H2182 C2126 0.930 . S
H2183 C2127 0.930 . S
H2184 C2130 0.930 . S
H2185 C2133 0.929 . S
H2186 C2138 0.929 . S
H2187 C2139 0.930 . S
H2188 C2146 0.929 . S
H2189 C2147 0.930 . S
H2190 C2148 0.930 . S
H2191 C2149 0.930 . S
H2192 C2151 0.929 . S
H2193 C2152 0.930 . S
H2194 C2153 0.930 . S
H2195 C2154 0.930 . S
H2196 C2158 0.929 . S
H2197 C2160 0.930 . S
H2198 C2166 0.929 . S
H2199 C2167 0.930 . S
Li2200 N2217 1.990 . S
Li2200 O2260 1.956 . S
Li2200 O2261 1.970 . S
Li2200 O2262 1.961 . S
Li2201 N2225 1.990 . S
Li2201 O2260 1.970 . S
Li2201 O2261 1.956 . S
Li2201 O2263 1.961 . S
Li2202 N2247 1.990 . S
Li2202 O2260 1.961 . S
Li2202 O2262 1.956 . S
Li2202 O2263 1.970 . S
Li2203 N2253 1.990 . S
Li2203 O2261 1.961 . S
Li2203 O2262 1.970 . S
Li2203 O2263 1.956 . S
C2204 C2206 1.348 . S
C2204 C2207 1.356 . S
C2204 O2260 1.325 . S
N2205 C2208 1.314 . S
N2205 C2209 1.279 . S
C2206 C2204 1.348 . S
C2206 C2208 1.353 . S
C2206 H2264 0.929 . S
C2207 C2204 1.356 . S
C2207 C2209 1.358 . S
C2207 H2265 0.930 . S
C2208 N2205 1.314 . S
C2208 C2206 1.353 . S
C2208 H2266 0.930 . S
C2209 N2205 1.279 . S
C2209 C2207 1.358 . S
C2209 H2267 0.930 . S
C2210 C2213 1.348 . S
C2210 C2214 1.356 . S
C2210 O2261 1.325 . S
C2211 N2212 1.279 . S
C2211 C2214 1.358 . S
C2211 H2268 0.930 . S
N2212 C2211 1.279 . S
N2212 C2215 1.314 . S
C2213 C2210 1.348 . S
C2213 C2215 1.353 . S
C2213 H2269 0.929 . S
C2214 C2210 1.356 . S
C2214 C2211 1.358 . S
C2214 H2270 0.930 . S
C2215 N2212 1.314 . S
C2215 C2213 1.353 . S
C2215 H2271 0.930 . S
C2216 N2217 1.314 . S
C2216 C2221 1.353 . S
C2216 H2222 0.930 . S
N2217 Li2200 1.990 . S
N2217 C2216 1.314 . S
N2217 C2219 1.279 . S
C2218 C2219 1.358 . S
C2218 C2220 1.356 . S
C2218 H2272 0.930 . S
C2219 N2217 1.279 . S
C2219 C2218 1.358 . S
C2219 H2223 0.930 . S
C2220 C2218 1.356 . S
C2220 C2221 1.348 . S
C2221 C2216 1.353 . S
C2221 C2220 1.348 . S
C2221 H2273 0.929 . S
H2222 C2216 0.930 . S
H2223 C2219 0.930 . S
C2224 N2225 1.314 . S
C2224 C2226 1.353 . S
C2224 H2230 0.930 . S
N2225 Li2201 1.990 . S
N2225 C2224 1.314 . S
N2225 C2228 1.279 . S
C2226 C2224 1.353 . S
C2226 C2229 1.348 . S
C2226 H2274 0.929 . S
C2227 C2228 1.358 . S
C2227 C2229 1.356 . S
C2227 H2275 0.930 . S
C2228 N2225 1.279 . S
C2228 C2227 1.358 . S
C2228 H2231 0.930 . S
C2229 C2226 1.348 . S
C2229 C2227 1.356 . S
H2230 C2224 0.930 . S
H2231 C2228 0.930 . S
C2232 C2234 1.348 . S
C2232 C2235 1.356 . S
C2232 O2262 1.325 . S
N2233 C2236 1.314 . S
N2233 C2237 1.279 . S
C2234 C2232 1.348 . S
C2234 C2236 1.353 . S
C2234 H2276 0.929 . S
C2235 C2232 1.356 . S
C2235 C2237 1.358 . S
C2235 H2277 0.930 . S
C2236 N2233 1.314 . S
C2236 C2234 1.353 . S
C2236 H2278 0.930 . S
C2237 N2233 1.279 . S
C2237 C2235 1.358 . S
C2237 H2279 0.930 . S
C2238 C2239 1.348 . S
C2238 C2240 1.356 . S
C2238 O2263 1.325 . S
C2239 C2238 1.348 . S
C2239 C2241 1.353 . S
C2239 H2280 0.929 . S
C2240 C2238 1.356 . S
C2240 C2242 1.358 . S
C2240 H2281 0.930 . S
C2241 C2239 1.353 . S
C2241 N2243 1.314 . S
C2241 H2282 0.930 . S
C2242 C2240 1.358 . S
C2242 N2243 1.279 . S
C2242 H2283 0.930 . S
N2243 C2241 1.314 . S
N2243 C2242 1.279 . S
C2244 C2246 1.353 . S
C2244 N2247 1.314 . S
C2244 H2250 0.930 . S
C2245 N2247 1.279 . S
C2245 C2248 1.358 . S
C2245 H2251 0.930 . S
C2246 C2244 1.353 . S
C2246 C2249 1.348 . S
C2246 H2284 0.929 . S
N2247 Li2202 1.990 . S
N2247 C2244 1.314 . S
N2247 C2245 1.279 . S
C2248 C2245 1.358 . S
C2248 C2249 1.356 . S
C2248 H2285 0.930 . S
C2249 C2246 1.348 . S
C2249 C2248 1.356 . S
H2250 C2244 0.930 . S
H2251 C2245 0.930 . S
C2252 N2253 1.314 . S
C2252 C2254 1.353 . S
C2252 H2258 0.930 . S
N2253 Li2203 1.990 . S
N2253 C2252 1.314 . S
N2253 C2256 1.279 . S
C2254 C2252 1.353 . S
C2254 C2257 1.348 . S
C2254 H2286 0.929 . S
C2255 C2256 1.358 . S
C2255 C2257 1.356 . S
C2255 H2287 0.930 . S
C2256 N2253 1.279 . S
C2256 C2255 1.358 . S
C2256 H2259 0.930 . S
C2257 C2254 1.348 . S
C2257 C2255 1.356 . S
H2258 C2252 0.930 . S
H2259 C2256 0.930 . S
O2260 Li2200 1.956 . S
O2260 Li2201 1.970 . S
O2260 Li2202 1.961 . S
O2260 C2204 1.325 . S
O2261 Li2200 1.970 . S
O2261 Li2201 1.956 . S
O2261 Li2203 1.961 . S
O2261 C2210 1.325 . S
O2262 Li2200 1.961 . S
O2262 Li2202 1.956 . S
O2262 Li2203 1.970 . S
O2262 C2232 1.325 . S
O2263 Li2201 1.961 . S
O2263 Li2202 1.970 . S
O2263 Li2203 1.956 . S
O2263 C2238 1.325 . S
H2264 C2206 0.929 . S
H2265 C2207 0.930 . S
H2266 C2208 0.930 . S
H2267 C2209 0.930 . S
H2268 C2211 0.930 . S
H2269 C2213 0.929 . S
H2270 C2214 0.930 . S
H2271 C2215 0.930 . S
H2272 C2218 0.930 . S
H2273 C2221 0.929 . S
H2274 C2226 0.929 . S
H2275 C2227 0.930 . S
H2276 C2234 0.929 . S
H2277 C2235 0.930 . S
H2278 C2236 0.930 . S
H2279 C2237 0.930 . S
H2280 C2239 0.929 . S
H2281 C2240 0.930 . S
H2282 C2241 0.930 . S
H2283 C2242 0.930 . S
H2284 C2246 0.929 . S
H2285 C2248 0.930 . S
H2286 C2254 0.929 . S
H2287 C2255 0.930 . S
Li2288 N2305 1.990 . S
Li2288 O2348 1.956 . S
Li2288 O2349 1.970 . S
Li2288 O2350 1.961 . S
Li2289 N2313 1.990 . S
Li2289 O2348 1.970 . S
Li2289 O2349 1.956 . S
Li2289 O2351 1.961 . S
Li2290 N2335 1.990 . S
Li2290 O2348 1.961 . S
Li2290 O2350 1.956 . S
Li2290 O2351 1.970 . S
Li2291 N2341 1.990 . S
Li2291 O2349 1.961 . S
Li2291 O2350 1.970 . S
Li2291 O2351 1.956 . S
C2292 C2294 1.348 . S
C2292 C2295 1.356 . S
C2292 O2348 1.325 . S
N2293 C2296 1.314 . S
N2293 C2297 1.279 . S
C2294 C2292 1.348 . S
C2294 C2296 1.353 . S
C2294 H2352 0.929 . S
C2295 C2292 1.356 . S
C2295 C2297 1.358 . S
C2295 H2353 0.930 . S
C2296 N2293 1.314 . S
C2296 C2294 1.353 . S
C2296 H2354 0.930 . S
C2297 N2293 1.279 . S
C2297 C2295 1.358 . S
C2297 H2355 0.930 . S
C2298 C2301 1.348 . S
C2298 C2302 1.356 . S
C2298 O2349 1.325 . S
C2299 N2300 1.279 . S
C2299 C2302 1.358 1_554 S
C2299 H2356 0.930 . S
N2300 C2299 1.279 . S
N2300 C2303 1.314 . S
C2301 C2298 1.348 . S
C2301 C2303 1.353 1_556 S
C2301 H2357 0.929 . S
C2302 C2298 1.356 . S
C2302 C2299 1.358 1_556 S
C2302 H2358 0.930 . S
C2303 N2300 1.314 . S
C2303 C2301 1.353 1_554 S
C2303 H2359 0.930 . S
C2304 N2305 1.314 . S
C2304 C2309 1.353 . S
C2304 H2310 0.930 . S
N2305 Li2288 1.990 . S
N2305 C2304 1.314 . S
N2305 C2307 1.279 . S
C2306 C2307 1.358 . S
C2306 C2308 1.356 . S
C2306 H2360 0.930 . S
C2307 N2305 1.279 . S
C2307 C2306 1.358 . S
C2307 H2311 0.930 . S
C2308 C2306 1.356 . S
C2308 C2309 1.348 . S
C2309 C2304 1.353 . S
C2309 C2308 1.348 . S
C2309 H2361 0.929 . S
H2310 C2304 0.930 . S
H2311 C2307 0.930 . S
C2312 N2313 1.314 . S
C2312 C2314 1.353 . S
C2312 H2318 0.930 . S
N2313 Li2289 1.990 . S
N2313 C2312 1.314 . S
N2313 C2316 1.279 . S
C2314 C2312 1.353 . S
C2314 C2317 1.348 . S
C2314 H2362 0.929 . S
C2315 C2316 1.358 . S
C2315 C2317 1.356 . S
C2315 H2363 0.930 1_556 S
C2316 N2313 1.279 . S
C2316 C2315 1.358 . S
C2316 H2319 0.930 . S
C2317 C2314 1.348 . S
C2317 C2315 1.356 . S
H2318 C2312 0.930 . S
H2319 C2316 0.930 . S
C2320 C2322 1.348 . S
C2320 C2323 1.356 . S
C2320 O2350 1.325 . S
N2321 C2324 1.314 . S
N2321 C2325 1.279 . S
C2322 C2320 1.348 . S
C2322 C2324 1.353 . S
C2322 H2364 0.929 . S
C2323 C2320 1.356 . S
C2323 C2325 1.358 . S
C2323 H2365 0.930 . S
C2324 N2321 1.314 . S
C2324 C2322 1.353 . S
C2324 H2366 0.930 . S
C2325 N2321 1.279 . S
C2325 C2323 1.358 . S
C2325 H2367 0.930 . S
C2326 C2327 1.348 . S
C2326 C2328 1.356 . S
C2326 O2351 1.325 . S
C2327 C2326 1.348 . S
C2327 C2329 1.353 . S
C2327 H2368 0.929 . S
C2328 C2326 1.356 . S
C2328 C2330 1.358 . S
C2328 H2369 0.930 . S
C2329 C2327 1.353 . S
C2329 N2331 1.314 . S
C2329 H2370 0.930 . S
C2330 C2328 1.358 . S
C2330 N2331 1.279 . S
C2330 H2371 0.930 . S
N2331 C2329 1.314 . S
N2331 C2330 1.279 . S
C2332 C2334 1.353 . S
C2332 N2335 1.314 . S
C2332 H2338 0.930 . S
C2333 N2335 1.279 . S
C2333 C2336 1.358 . S
C2333 H2339 0.930 . S
C2334 C2332 1.353 . S
C2334 C2337 1.348 . S
C2334 H2372 0.929 . S
N2335 Li2290 1.990 . S
N2335 C2332 1.314 . S
N2335 C2333 1.279 . S
C2336 C2333 1.358 . S
C2336 C2337 1.356 . S
C2336 H2373 0.930 . S
C2337 C2334 1.348 . S
C2337 C2336 1.356 . S
H2338 C2332 0.930 . S
H2339 C2333 0.930 . S
C2340 N2341 1.314 . S
C2340 C2342 1.353 . S
C2340 H2346 0.930 . S
N2341 Li2291 1.990 . S
N2341 C2340 1.314 . S
N2341 C2344 1.279 . S
C2342 C2340 1.353 . S
C2342 C2345 1.348 . S
C2342 H2374 0.929 . S
C2343 C2344 1.358 . S
C2343 C2345 1.356 . S
C2343 H2375 0.930 . S
C2344 N2341 1.279 . S
C2344 C2343 1.358 . S
C2344 H2347 0.930 . S
C2345 C2342 1.348 . S
C2345 C2343 1.356 . S
H2346 C2340 0.930 . S
H2347 C2344 0.930 . S
O2348 Li2288 1.956 . S
O2348 Li2289 1.970 . S
O2348 Li2290 1.961 . S
O2348 C2292 1.325 . S
O2349 Li2288 1.970 . S
O2349 Li2289 1.956 . S
O2349 Li2291 1.961 . S
O2349 C2298 1.325 . S
O2350 Li2288 1.961 . S
O2350 Li2290 1.956 . S
O2350 Li2291 1.970 . S
O2350 C2320 1.325 . S
O2351 Li2289 1.961 . S
O2351 Li2290 1.970 . S
O2351 Li2291 1.956 . S
O2351 C2326 1.325 . S
H2352 C2294 0.929 . S
H2353 C2295 0.930 . S
H2354 C2296 0.930 . S
H2355 C2297 0.930 . S
H2356 C2299 0.930 . S
H2357 C2301 0.929 . S
H2358 C2302 0.930 . S
H2359 C2303 0.930 . S
H2360 C2306 0.930 . S
H2361 C2309 0.929 . S
H2362 C2314 0.929 . S
H2363 C2315 0.930 1_554 S
H2364 C2322 0.929 . S
H2365 C2323 0.930 . S
H2366 C2324 0.930 . S
H2367 C2325 0.930 . S
H2368 C2327 0.929 . S
H2369 C2328 0.930 . S
H2370 C2329 0.930 . S
H2371 C2330 0.930 . S
H2372 C2334 0.929 . S
H2373 C2336 0.930 . S
H2374 C2342 0.929 . S
H2375 C2343 0.930 . S
Li2376 N2393 1.990 . S
Li2376 O2436 1.956 . S
Li2376 O2437 1.970 . S
Li2376 O2438 1.961 . S
Li2377 N2401 1.990 . S
Li2377 O2436 1.970 . S
Li2377 O2437 1.956 . S
Li2377 O2439 1.961 . S
Li2378 N2423 1.990 . S
Li2378 O2436 1.961 . S
Li2378 O2438 1.956 . S
Li2378 O2439 1.970 . S
Li2379 N2429 1.990 . S
Li2379 O2437 1.961 . S
Li2379 O2438 1.970 . S
Li2379 O2439 1.956 . S
C2380 C2382 1.348 . S
C2380 C2383 1.356 . S
C2380 O2436 1.325 . S
N2381 C2384 1.314 . S
N2381 C2385 1.279 . S
C2382 C2380 1.348 . S
C2382 C2384 1.353 . S
C2382 H2440 0.929 . S
C2383 C2380 1.356 . S
C2383 C2385 1.358 . S
C2383 H2441 0.930 . S
C2384 N2381 1.314 . S
C2384 C2382 1.353 . S
C2384 H2442 0.930 . S
C2385 N2381 1.279 . S
C2385 C2383 1.358 . S
C2385 H2443 0.930 . S
C2386 C2389 1.348 . S
C2386 C2390 1.356 . S
C2386 O2437 1.325 . S
C2387 N2388 1.279 . S
C2387 C2390 1.358 . S
C2387 H2444 0.930 . S
N2388 C2387 1.279 . S
N2388 C2391 1.314 . S
C2389 C2386 1.348 . S
C2389 C2391 1.353 . S
C2389 H2445 0.929 . S
C2390 C2386 1.356 . S
C2390 C2387 1.358 . S
C2390 H2446 0.930 . S
C2391 N2388 1.314 . S
C2391 C2389 1.353 . S
C2391 H2447 0.930 . S
C2392 N2393 1.314 . S
C2392 C2397 1.353 . S
C2392 H2398 0.930 . S
N2393 Li2376 1.990 . S
N2393 C2392 1.314 . S
N2393 C2395 1.279 . S
C2394 C2395 1.358 . S
C2394 C2396 1.356 . S
C2394 H2448 0.930 . S
C2395 N2393 1.279 . S
C2395 C2394 1.358 . S
C2395 H2399 0.930 . S
C2396 C2394 1.356 . S
C2396 C2397 1.348 . S
C2397 C2392 1.353 . S
C2397 C2396 1.348 . S
C2397 H2449 0.929 . S
H2398 C2392 0.930 . S
H2399 C2395 0.930 . S
C2400 N2401 1.314 . S
C2400 C2402 1.353 . S
C2400 H2406 0.930 . S
N2401 Li2377 1.990 . S
N2401 C2400 1.314 . S
N2401 C2404 1.279 . S
C2402 C2400 1.353 . S
C2402 C2405 1.348 . S
C2402 H2450 0.929 . S
C2403 C2404 1.358 . S
C2403 C2405 1.356 . S
C2403 H2451 0.930 . S
C2404 N2401 1.279 . S
C2404 C2403 1.358 . S
C2404 H2407 0.930 . S
C2405 C2402 1.348 . S
C2405 C2403 1.356 . S
H2406 C2400 0.930 . S
H2407 C2404 0.930 . S
C2408 C2410 1.348 . S
C2408 C2411 1.356 . S
C2408 O2438 1.325 . S
N2409 C2412 1.314 . S
N2409 C2413 1.279 . S
C2410 C2408 1.348 . S
C2410 C2412 1.353 . S
C2410 H2452 0.929 . S
C2411 C2408 1.356 . S
C2411 C2413 1.358 . S
C2411 H2453 0.930 . S
C2412 N2409 1.314 . S
C2412 C2410 1.353 . S
C2412 H2454 0.930 . S
C2413 N2409 1.279 . S
C2413 C2411 1.358 . S
C2413 H2455 0.930 . S
C2414 C2415 1.348 . S
C2414 C2416 1.356 . S
C2414 O2439 1.325 . S
C2415 C2414 1.348 . S
C2415 C2417 1.353 . S
C2415 H2456 0.929 . S
C2416 C2414 1.356 . S
C2416 C2418 1.358 . S
C2416 H2457 0.930 . S
C2417 C2415 1.353 . S
C2417 N2419 1.314 . S
C2417 H2458 0.930 . S
C2418 C2416 1.358 . S
C2418 N2419 1.279 . S
C2418 H2459 0.930 . S
N2419 C2417 1.314 . S
N2419 C2418 1.279 . S
C2420 C2422 1.353 . S
C2420 N2423 1.314 . S
C2420 H2426 0.930 . S
C2421 N2423 1.279 . S
C2421 C2424 1.358 . S
C2421 H2427 0.930 . S
C2422 C2420 1.353 . S
C2422 C2425 1.348 . S
C2422 H2460 0.929 . S
N2423 Li2378 1.990 . S
N2423 C2420 1.314 . S
N2423 C2421 1.279 . S
C2424 C2421 1.358 . S
C2424 C2425 1.356 . S
C2424 H2461 0.930 . S
C2425 C2422 1.348 . S
C2425 C2424 1.356 . S
H2426 C2420 0.930 . S
H2427 C2421 0.930 . S
C2428 N2429 1.314 . S
C2428 C2430 1.353 . S
C2428 H2434 0.930 . S
N2429 Li2379 1.990 . S
N2429 C2428 1.314 . S
N2429 C2432 1.279 . S
C2430 C2428 1.353 . S
C2430 C2433 1.348 . S
C2430 H2462 0.929 . S
C2431 C2432 1.358 . S
C2431 C2433 1.356 . S
C2431 H2463 0.930 . S
C2432 N2429 1.279 . S
C2432 C2431 1.358 . S
C2432 H2435 0.930 . S
C2433 C2430 1.348 . S
C2433 C2431 1.356 . S
H2434 C2428 0.930 . S
H2435 C2432 0.930 . S
O2436 Li2376 1.956 . S
O2436 Li2377 1.970 . S
O2436 Li2378 1.961 . S
O2436 C2380 1.325 . S
O2437 Li2376 1.970 . S
O2437 Li2377 1.956 . S
O2437 Li2379 1.961 . S
O2437 C2386 1.325 . S
O2438 Li2376 1.961 . S
O2438 Li2378 1.956 . S
O2438 Li2379 1.970 . S
O2438 C2408 1.325 . S
O2439 Li2377 1.961 . S
O2439 Li2378 1.970 . S
O2439 Li2379 1.956 . S
O2439 C2414 1.325 . S
H2440 C2382 0.929 . S
H2441 C2383 0.930 . S
H2442 C2384 0.930 . S
H2443 C2385 0.930 . S
H2444 C2387 0.930 . S
H2445 C2389 0.929 . S
H2446 C2390 0.930 . S
H2447 C2391 0.930 . S
H2448 C2394 0.930 . S
H2449 C2397 0.929 . S
H2450 C2402 0.929 . S
H2451 C2403 0.930 . S
H2452 C2410 0.929 . S
H2453 C2411 0.930 . S
H2454 C2412 0.930 . S
H2455 C2413 0.930 . S
H2456 C2415 0.929 . S
H2457 C2416 0.930 . S
H2458 C2417 0.930 . S
H2459 C2418 0.930 . S
H2460 C2422 0.929 . S
H2461 C2424 0.930 . S
H2462 C2430 0.929 . S
H2463 C2431 0.930 . S
Li2464 N2481 1.990 . S
Li2464 O2524 1.956 . S
Li2464 O2525 1.970 . S
Li2464 O2526 1.961 . S
Li2465 N2489 1.990 . S
Li2465 O2524 1.970 . S
Li2465 O2525 1.956 . S
Li2465 O2527 1.961 . S
Li2466 N2511 1.990 . S
Li2466 O2524 1.961 . S
Li2466 O2526 1.956 . S
Li2466 O2527 1.970 . S
Li2467 N2517 1.990 . S
Li2467 O2525 1.961 . S
Li2467 O2526 1.970 . S
Li2467 O2527 1.956 . S
C2468 C2470 1.348 . S
C2468 C2471 1.356 . S
C2468 O2524 1.325 . S
N2469 C2472 1.314 . S
N2469 C2473 1.279 . S
C2470 C2468 1.348 . S
C2470 C2472 1.353 . S
C2470 H2528 0.929 . S
C2471 C2468 1.356 . S
C2471 C2473 1.358 . S
C2471 H2529 0.930 . S
C2472 N2469 1.314 . S
C2472 C2470 1.353 . S
C2472 H2530 0.930 . S
C2473 N2469 1.279 . S
C2473 C2471 1.358 . S
C2473 H2531 0.930 . S
C2474 C2477 1.348 . S
C2474 C2478 1.356 . S
C2474 O2525 1.325 . S
C2475 N2476 1.279 . S
C2475 C2478 1.358 . S
C2475 H2532 0.930 . S
N2476 C2475 1.279 . S
N2476 C2479 1.314 . S
C2477 C2474 1.348 . S
C2477 C2479 1.353 . S
C2477 H2533 0.929 . S
C2478 C2474 1.356 . S
C2478 C2475 1.358 . S
C2478 H2534 0.930 . S
C2479 N2476 1.314 . S
C2479 C2477 1.353 . S
C2479 H2535 0.930 . S
C2480 N2481 1.314 . S
C2480 C2485 1.353 . S
C2480 H2486 0.930 . S
N2481 Li2464 1.990 . S
N2481 C2480 1.314 . S
N2481 C2483 1.279 . S
C2482 C2483 1.358 . S
C2482 C2484 1.356 . S
C2482 H2536 0.930 . S
C2483 N2481 1.279 . S
C2483 C2482 1.358 . S
C2483 H2487 0.930 . S
C2484 C2482 1.356 . S
C2484 C2485 1.348 . S
C2485 C2480 1.353 . S
C2485 C2484 1.348 . S
C2485 H2537 0.929 . S
H2486 C2480 0.930 . S
H2487 C2483 0.930 . S
C2488 N2489 1.314 . S
C2488 C2490 1.353 . S
C2488 H2494 0.930 . S
N2489 Li2465 1.990 . S
N2489 C2488 1.314 . S
N2489 C2492 1.279 . S
C2490 C2488 1.353 . S
C2490 C2493 1.348 . S
C2490 H2538 0.929 . S
C2491 C2492 1.358 . S
C2491 C2493 1.356 . S
C2491 H2539 0.930 . S
C2492 N2489 1.279 . S
C2492 C2491 1.358 . S
C2492 H2495 0.930 . S
C2493 C2490 1.348 . S
C2493 C2491 1.356 . S
H2494 C2488 0.930 . S
H2495 C2492 0.930 . S
C2496 C2498 1.348 . S
C2496 C2499 1.356 . S
C2496 O2526 1.325 . S
N2497 C2500 1.314 . S
N2497 C2501 1.279 . S
C2498 C2496 1.348 . S
C2498 C2500 1.353 . S
C2498 H2540 0.929 . S
C2499 C2496 1.356 . S
C2499 C2501 1.358 . S
C2499 H2541 0.930 . S
C2500 N2497 1.314 . S
C2500 C2498 1.353 . S
C2500 H2542 0.930 . S
C2501 N2497 1.279 . S
C2501 C2499 1.358 . S
C2501 H2543 0.930 . S
C2502 C2503 1.348 . S
C2502 C2504 1.356 . S
C2502 O2527 1.325 . S
C2503 C2502 1.348 . S
C2503 C2505 1.353 1_554 S
C2503 H2544 0.929 . S
C2504 C2502 1.356 . S
C2504 C2506 1.358 1_554 S
C2504 H2545 0.930 . S
C2505 C2503 1.353 1_556 S
C2505 N2507 1.314 . S
C2505 H2546 0.930 . S
C2506 C2504 1.358 1_556 S
C2506 N2507 1.279 . S
C2506 H2547 0.930 . S
N2507 C2505 1.314 . S
N2507 C2506 1.279 . S
C2508 C2510 1.353 . S
C2508 N2511 1.314 . S
C2508 H2514 0.930 . S
C2509 N2511 1.279 . S
C2509 C2512 1.358 . S
C2509 H2515 0.930 . S
C2510 C2508 1.353 . S
C2510 C2513 1.348 . S
C2510 H2548 0.929 . S
N2511 Li2466 1.990 . S
N2511 C2508 1.314 . S
N2511 C2509 1.279 . S
C2512 C2509 1.358 . S
C2512 C2513 1.356 . S
C2512 H2549 0.930 . S
C2513 C2510 1.348 . S
C2513 C2512 1.356 . S
H2514 C2508 0.930 . S
H2515 C2509 0.930 . S
C2516 N2517 1.314 . S
C2516 C2518 1.353 . S
C2516 H2522 0.930 . S
N2517 Li2467 1.990 . S
N2517 C2516 1.314 . S
N2517 C2520 1.279 . S
C2518 C2516 1.353 . S
C2518 C2521 1.348 . S
C2518 H2550 0.929 . S
C2519 C2520 1.358 . S
C2519 C2521 1.356 . S
C2519 H2551 0.930 1_554 S
C2520 N2517 1.279 . S
C2520 C2519 1.358 . S
C2520 H2523 0.930 . S
C2521 C2518 1.348 . S
C2521 C2519 1.356 . S
H2522 C2516 0.930 . S
H2523 C2520 0.930 . S
O2524 Li2464 1.956 . S
O2524 Li2465 1.970 . S
O2524 Li2466 1.961 . S
O2524 C2468 1.325 . S
O2525 Li2464 1.970 . S
O2525 Li2465 1.956 . S
O2525 Li2467 1.961 . S
O2525 C2474 1.325 . S
O2526 Li2464 1.961 . S
O2526 Li2466 1.956 . S
O2526 Li2467 1.970 . S
O2526 C2496 1.325 . S
O2527 Li2465 1.961 . S
O2527 Li2466 1.970 . S
O2527 Li2467 1.956 . S
O2527 C2502 1.325 . S
H2528 C2470 0.929 . S
H2529 C2471 0.930 . S
H2530 C2472 0.930 . S
H2531 C2473 0.930 . S
H2532 C2475 0.930 . S
H2533 C2477 0.929 . S
H2534 C2478 0.930 . S
H2535 C2479 0.930 . S
H2536 C2482 0.930 . S
H2537 C2485 0.929 . S
H2538 C2490 0.929 . S
H2539 C2491 0.930 . S
H2540 C2498 0.929 . S
H2541 C2499 0.930 . S
H2542 C2500 0.930 . S
H2543 C2501 0.930 . S
H2544 C2503 0.929 . S
H2545 C2504 0.930 . S
H2546 C2505 0.930 . S
H2547 C2506 0.930 . S
H2548 C2510 0.929 . S
H2549 C2512 0.930 . S
H2550 C2518 0.929 . S
H2551 C2519 0.930 1_556 S
Li2552 N2569 1.990 . S
Li2552 O2612 1.956 . S
Li2552 O2613 1.970 . S
Li2552 O2614 1.961 . S
Li2553 N2577 1.990 . S
Li2553 O2612 1.970 . S
Li2553 O2613 1.956 . S
Li2553 O2615 1.961 . S
Li2554 N2599 1.990 . S
Li2554 O2612 1.961 . S
Li2554 O2614 1.956 . S
Li2554 O2615 1.970 . S
Li2555 N2605 1.990 . S
Li2555 O2613 1.961 . S
Li2555 O2614 1.970 . S
Li2555 O2615 1.956 . S
C2556 C2558 1.348 . S
C2556 C2559 1.356 . S
C2556 O2612 1.325 . S
N2557 C2560 1.314 . S
N2557 C2561 1.279 . S
C2558 C2556 1.348 . S
C2558 C2560 1.353 . S
C2558 H2616 0.929 . S
C2559 C2556 1.356 . S
C2559 C2561 1.358 . S
C2559 H2617 0.930 . S
C2560 N2557 1.314 . S
C2560 C2558 1.353 . S
C2560 H2618 0.930 . S
C2561 N2557 1.279 . S
C2561 C2559 1.358 . S
C2561 H2619 0.930 . S
C2562 C2565 1.348 . S
C2562 C2566 1.356 . S
C2562 O2613 1.325 . S
C2563 N2564 1.279 . S
C2563 C2566 1.358 . S
C2563 H2620 0.930 . S
N2564 C2563 1.279 . S
N2564 C2567 1.314 . S
C2565 C2562 1.348 . S
C2565 C2567 1.353 . S
C2565 H2621 0.929 . S
C2566 C2562 1.356 . S
C2566 C2563 1.358 . S
C2566 H2622 0.930 . S
C2567 N2564 1.314 . S
C2567 C2565 1.353 . S
C2567 H2623 0.930 . S
C2568 N2569 1.314 . S
C2568 C2573 1.353 . S
C2568 H2574 0.930 . S
N2569 Li2552 1.990 . S
N2569 C2568 1.314 . S
N2569 C2571 1.279 . S
C2570 C2571 1.358 . S
C2570 C2572 1.356 . S
C2570 H2624 0.930 . S
C2571 N2569 1.279 . S
C2571 C2570 1.358 . S
C2571 H2575 0.930 . S
C2572 C2570 1.356 . S
C2572 C2573 1.348 . S
C2573 C2568 1.353 . S
C2573 C2572 1.348 . S
C2573 H2625 0.929 . S
H2574 C2568 0.930 . S
H2575 C2571 0.930 . S
C2576 N2577 1.314 . S
C2576 C2578 1.353 . S
C2576 H2582 0.930 . S
N2577 Li2553 1.990 . S
N2577 C2576 1.314 . S
N2577 C2580 1.279 . S
C2578 C2576 1.353 . S
C2578 C2581 1.348 . S
C2578 H2626 0.929 . S
C2579 C2580 1.358 . S
C2579 C2581 1.356 . S
C2579 H2627 0.930 . S
C2580 N2577 1.279 . S
C2580 C2579 1.358 . S
C2580 H2583 0.930 . S
C2581 C2578 1.348 . S
C2581 C2579 1.356 . S
H2582 C2576 0.930 . S
H2583 C2580 0.930 . S
C2584 C2586 1.348 . S
C2584 C2587 1.356 . S
C2584 O2614 1.325 . S
N2585 C2588 1.314 . S
N2585 C2589 1.279 . S
C2586 C2584 1.348 . S
C2586 C2588 1.353 . S
C2586 H2628 0.929 . S
C2587 C2584 1.356 . S
C2587 C2589 1.358 . S
C2587 H2629 0.930 . S
C2588 N2585 1.314 . S
C2588 C2586 1.353 . S
C2588 H2630 0.930 . S
C2589 N2585 1.279 . S
C2589 C2587 1.358 . S
C2589 H2631 0.930 . S
C2590 C2591 1.348 . S
C2590 C2592 1.356 . S
C2590 O2615 1.325 . S
C2591 C2590 1.348 . S
C2591 C2593 1.353 . S
C2591 H2632 0.929 . S
C2592 C2590 1.356 . S
C2592 C2594 1.358 . S
C2592 H2633 0.930 . S
C2593 C2591 1.353 . S
C2593 N2595 1.314 . S
C2593 H2634 0.930 . S
C2594 C2592 1.358 . S
C2594 N2595 1.279 . S
C2594 H2635 0.930 . S
N2595 C2593 1.314 . S
N2595 C2594 1.279 . S
C2596 C2598 1.353 . S
C2596 N2599 1.314 . S
C2596 H2602 0.930 . S
C2597 N2599 1.279 . S
C2597 C2600 1.358 . S
C2597 H2603 0.930 . S
C2598 C2596 1.353 . S
C2598 C2601 1.348 . S
C2598 H2636 0.929 . S
N2599 Li2554 1.990 . S
N2599 C2596 1.314 . S
N2599 C2597 1.279 . S
C2600 C2597 1.358 . S
C2600 C2601 1.356 . S
C2600 H2637 0.930 . S
C2601 C2598 1.348 . S
C2601 C2600 1.356 . S
H2602 C2596 0.930 . S
H2603 C2597 0.930 . S
C2604 N2605 1.314 . S
C2604 C2606 1.353 . S
C2604 H2610 0.930 . S
N2605 Li2555 1.990 . S
N2605 C2604 1.314 . S
N2605 C2608 1.279 . S
C2606 C2604 1.353 . S
C2606 C2609 1.348 . S
C2606 H2638 0.929 . S
C2607 C2608 1.358 . S
C2607 C2609 1.356 . S
C2607 H2639 0.930 . S
C2608 N2605 1.279 . S
C2608 C2607 1.358 . S
C2608 H2611 0.930 . S
C2609 C2606 1.348 . S
C2609 C2607 1.356 . S
H2610 C2604 0.930 . S
H2611 C2608 0.930 . S
O2612 Li2552 1.956 . S
O2612 Li2553 1.970 . S
O2612 Li2554 1.961 . S
O2612 C2556 1.325 . S
O2613 Li2552 1.970 . S
O2613 Li2553 1.956 . S
O2613 Li2555 1.961 . S
O2613 C2562 1.325 . S
O2614 Li2552 1.961 . S
O2614 Li2554 1.956 . S
O2614 Li2555 1.970 . S
O2614 C2584 1.325 . S
O2615 Li2553 1.961 . S
O2615 Li2554 1.970 . S
O2615 Li2555 1.956 . S
O2615 C2590 1.325 . S
H2616 C2558 0.929 . S
H2617 C2559 0.930 . S
H2618 C2560 0.930 . S
H2619 C2561 0.930 . S
H2620 C2563 0.930 . S
H2621 C2565 0.929 . S
H2622 C2566 0.930 . S
H2623 C2567 0.930 . S
H2624 C2570 0.930 . S
H2625 C2573 0.929 . S
H2626 C2578 0.929 . S
H2627 C2579 0.930 . S
H2628 C2586 0.929 . S
H2629 C2587 0.930 . S
H2630 C2588 0.930 . S
H2631 C2589 0.930 . S
H2632 C2591 0.929 . S
H2633 C2592 0.930 . S
H2634 C2593 0.930 . S
H2635 C2594 0.930 . S
H2636 C2598 0.929 . S
H2637 C2600 0.930 . S
H2638 C2606 0.929 . S
H2639 C2607 0.930 . S
Li2640 N2657 1.990 . S
Li2640 O2700 1.956 . S
Li2640 O2701 1.970 . S
Li2640 O2702 1.961 . S
Li2641 N2665 1.990 . S
Li2641 O2700 1.970 . S
Li2641 O2701 1.956 . S
Li2641 O2703 1.961 . S
Li2642 N2687 1.990 . S
Li2642 O2700 1.961 . S
Li2642 O2702 1.956 . S
Li2642 O2703 1.970 . S
Li2643 N2693 1.990 . S
Li2643 O2701 1.961 . S
Li2643 O2702 1.970 . S
Li2643 O2703 1.956 . S
C2644 C2646 1.348 . S
C2644 C2647 1.356 . S
C2644 O2700 1.325 . S
N2645 C2648 1.314 . S
N2645 C2649 1.279 . S
C2646 C2644 1.348 . S
C2646 C2648 1.353 . S
C2646 H2704 0.929 . S
C2647 C2644 1.356 . S
C2647 C2649 1.358 . S
C2647 H2705 0.930 . S
C2648 N2645 1.314 . S
C2648 C2646 1.353 . S
C2648 H2706 0.930 . S
C2649 N2645 1.279 . S
C2649 C2647 1.358 . S
C2649 H2707 0.930 . S
C2650 C2653 1.348 . S
C2650 C2654 1.356 . S
C2650 O2701 1.325 . S
C2651 N2652 1.279 . S
C2651 C2654 1.358 . S
C2651 H2708 0.930 . S
N2652 C2651 1.279 . S
N2652 C2655 1.314 . S
C2653 C2650 1.348 . S
C2653 C2655 1.353 . S
C2653 H2709 0.929 . S
C2654 C2650 1.356 . S
C2654 C2651 1.358 . S
C2654 H2710 0.930 . S
C2655 N2652 1.314 . S
C2655 C2653 1.353 . S
C2655 H2711 0.930 . S
C2656 N2657 1.314 . S
C2656 C2661 1.353 . S
C2656 H2662 0.930 . S
N2657 Li2640 1.990 . S
N2657 C2656 1.314 . S
N2657 C2659 1.279 . S
C2658 C2659 1.358 . S
C2658 C2660 1.356 . S
C2658 H2712 0.930 . S
C2659 N2657 1.279 . S
C2659 C2658 1.358 . S
C2659 H2663 0.930 . S
C2660 C2658 1.356 . S
C2660 C2661 1.348 . S
C2661 C2656 1.353 . S
C2661 C2660 1.348 . S
C2661 H2713 0.929 . S
H2662 C2656 0.930 . S
H2663 C2659 0.930 . S
C2664 N2665 1.314 . S
C2664 C2666 1.353 . S
C2664 H2670 0.930 . S
N2665 Li2641 1.990 . S
N2665 C2664 1.314 . S
N2665 C2668 1.279 . S
C2666 C2664 1.353 . S
C2666 C2669 1.348 . S
C2666 H2714 0.929 . S
C2667 C2668 1.358 . S
C2667 C2669 1.356 . S
C2667 H2715 0.930 . S
C2668 N2665 1.279 . S
C2668 C2667 1.358 . S
C2668 H2671 0.930 . S
C2669 C2666 1.348 . S
C2669 C2667 1.356 . S
H2670 C2664 0.930 . S
H2671 C2668 0.930 . S
C2672 C2674 1.348 . S
C2672 C2675 1.356 . S
C2672 O2702 1.325 . S
N2673 C2676 1.314 . S
N2673 C2677 1.279 . S
C2674 C2672 1.348 . S
C2674 C2676 1.353 . S
C2674 H2716 0.929 . S
C2675 C2672 1.356 . S
C2675 C2677 1.358 . S
C2675 H2717 0.930 . S
C2676 N2673 1.314 . S
C2676 C2674 1.353 . S
C2676 H2718 0.930 . S
C2677 N2673 1.279 . S
C2677 C2675 1.358 . S
C2677 H2719 0.930 . S
C2678 C2679 1.348 . S
C2678 C2680 1.356 . S
C2678 O2703 1.325 . S
C2679 C2678 1.348 . S
C2679 C2681 1.353 . S
C2679 H2720 0.929 . S
C2680 C2678 1.356 . S
C2680 C2682 1.358 . S
C2680 H2721 0.930 . S
C2681 C2679 1.353 . S
C2681 N2683 1.314 . S
C2681 H2722 0.930 . S
C2682 C2680 1.358 . S
C2682 N2683 1.279 . S
C2682 H2723 0.930 . S
N2683 C2681 1.314 . S
N2683 C2682 1.279 . S
C2684 C2686 1.353 . S
C2684 N2687 1.314 . S
C2684 H2690 0.930 . S
C2685 N2687 1.279 . S
C2685 C2688 1.358 . S
C2685 H2691 0.930 . S
C2686 C2684 1.353 . S
C2686 C2689 1.348 . S
C2686 H2724 0.929 . S
N2687 Li2642 1.990 . S
N2687 C2684 1.314 . S
N2687 C2685 1.279 . S
C2688 C2685 1.358 . S
C2688 C2689 1.356 . S
C2688 H2725 0.930 . S
C2689 C2686 1.348 . S
C2689 C2688 1.356 . S
H2690 C2684 0.930 . S
H2691 C2685 0.930 . S
C2692 N2693 1.314 . S
C2692 C2694 1.353 . S
C2692 H2698 0.930 . S
N2693 Li2643 1.990 . S
N2693 C2692 1.314 . S
N2693 C2696 1.279 . S
C2694 C2692 1.353 . S
C2694 C2697 1.348 . S
C2694 H2726 0.929 . S
C2695 C2696 1.358 . S
C2695 C2697 1.356 . S
C2695 H2727 0.930 . S
C2696 N2693 1.279 . S
C2696 C2695 1.358 . S
C2696 H2699 0.930 . S
C2697 C2694 1.348 . S
C2697 C2695 1.356 . S
H2698 C2692 0.930 . S
H2699 C2696 0.930 . S
O2700 Li2640 1.956 . S
O2700 Li2641 1.970 . S
O2700 Li2642 1.961 . S
O2700 C2644 1.325 . S
O2701 Li2640 1.970 . S
O2701 Li2641 1.956 . S
O2701 Li2643 1.961 . S
O2701 C2650 1.325 . S
O2702 Li2640 1.961 . S
O2702 Li2642 1.956 . S
O2702 Li2643 1.970 . S
O2702 C2672 1.325 . S
O2703 Li2641 1.961 . S
O2703 Li2642 1.970 . S
O2703 Li2643 1.956 . S
O2703 C2678 1.325 . S
H2704 C2646 0.929 . S
H2705 C2647 0.930 . S
H2706 C2648 0.930 . S
H2707 C2649 0.930 . S
H2708 C2651 0.930 . S
H2709 C2653 0.929 . S
H2710 C2654 0.930 . S
H2711 C2655 0.930 . S
H2712 C2658 0.930 . S
H2713 C2661 0.929 . S
H2714 C2666 0.929 . S
H2715 C2667 0.930 . S
H2716 C2674 0.929 . S
H2717 C2675 0.930 . S
H2718 C2676 0.930 . S
H2719 C2677 0.930 . S
H2720 C2679 0.929 . S
H2721 C2680 0.930 . S
H2722 C2681 0.930 . S
H2723 C2682 0.930 . S
H2724 C2686 0.929 . S
H2725 C2688 0.930 . S
H2726 C2694 0.929 . S
H2727 C2695 0.930 . S
Li2728 N2745 1.990 . S
Li2728 O2788 1.956 . S
Li2728 O2789 1.970 . S
Li2728 O2790 1.961 . S
Li2729 N2753 1.990 . S
Li2729 O2788 1.970 . S
Li2729 O2789 1.956 . S
Li2729 O2791 1.961 . S
Li2730 N2775 1.990 . S
Li2730 O2788 1.961 . S
Li2730 O2790 1.956 . S
Li2730 O2791 1.970 . S
Li2731 N2781 1.990 . S
Li2731 O2789 1.961 . S
Li2731 O2790 1.970 . S
Li2731 O2791 1.956 . S
C2732 C2734 1.348 . S
C2732 C2735 1.356 . S
C2732 O2788 1.325 . S
N2733 C2736 1.314 . S
N2733 C2737 1.279 . S
C2734 C2732 1.348 . S
C2734 C2736 1.353 . S
C2734 H2792 0.929 . S
C2735 C2732 1.356 . S
C2735 C2737 1.358 . S
C2735 H2793 0.930 . S
C2736 N2733 1.314 . S
C2736 C2734 1.353 . S
C2736 H2794 0.930 . S
C2737 N2733 1.279 . S
C2737 C2735 1.358 . S
C2737 H2795 0.930 . S
C2738 C2741 1.348 . S
C2738 C2742 1.356 . S
C2738 O2789 1.325 . S
C2739 N2740 1.279 . S
C2739 C2742 1.358 . S
C2739 H2796 0.930 . S
N2740 C2739 1.279 . S
N2740 C2743 1.314 . S
C2741 C2738 1.348 . S
C2741 C2743 1.353 . S
C2741 H2797 0.929 . S
C2742 C2738 1.356 . S
C2742 C2739 1.358 . S
C2742 H2798 0.930 . S
C2743 N2740 1.314 . S
C2743 C2741 1.353 . S
C2743 H2799 0.930 . S
C2744 N2745 1.314 . S
C2744 C2749 1.353 . S
C2744 H2750 0.930 . S
N2745 Li2728 1.990 . S
N2745 C2744 1.314 . S
N2745 C2747 1.279 . S
C2746 C2747 1.358 . S
C2746 C2748 1.356 . S
C2746 H2800 0.930 . S
C2747 N2745 1.279 . S
C2747 C2746 1.358 . S
C2747 H2751 0.930 . S
C2748 C2746 1.356 . S
C2748 C2749 1.348 . S
C2749 C2744 1.353 . S
C2749 C2748 1.348 . S
C2749 H2801 0.929 . S
H2750 C2744 0.930 . S
H2751 C2747 0.930 . S
C2752 N2753 1.314 . S
C2752 C2754 1.353 . S
C2752 H2758 0.930 . S
N2753 Li2729 1.990 . S
N2753 C2752 1.314 . S
N2753 C2756 1.279 . S
C2754 C2752 1.353 . S
C2754 C2757 1.348 . S
C2754 H2802 0.929 . S
C2755 C2756 1.358 . S
C2755 C2757 1.356 . S
C2755 H2803 0.930 . S
C2756 N2753 1.279 . S
C2756 C2755 1.358 . S
C2756 H2759 0.930 . S
C2757 C2754 1.348 . S
C2757 C2755 1.356 . S
H2758 C2752 0.930 . S
H2759 C2756 0.930 . S
C2760 C2762 1.348 . S
C2760 C2763 1.356 . S
C2760 O2790 1.325 . S
N2761 C2764 1.314 . S
N2761 C2765 1.279 . S
C2762 C2760 1.348 . S
C2762 C2764 1.353 . S
C2762 H2804 0.929 . S
C2763 C2760 1.356 . S
C2763 C2765 1.358 . S
C2763 H2805 0.930 . S
C2764 N2761 1.314 . S
C2764 C2762 1.353 . S
C2764 H2806 0.930 . S
C2765 N2761 1.279 . S
C2765 C2763 1.358 . S
C2765 H2807 0.930 . S
C2766 C2767 1.348 . S
C2766 C2768 1.356 . S
C2766 O2791 1.325 . S
C2767 C2766 1.348 . S
C2767 C2769 1.353 . S
C2767 H2808 0.929 . S
C2768 C2766 1.356 . S
C2768 C2770 1.358 . S
C2768 H2809 0.930 . S
C2769 C2767 1.353 . S
C2769 N2771 1.314 . S
C2769 H2810 0.930 . S
C2770 C2768 1.358 . S
C2770 N2771 1.279 . S
C2770 H2811 0.930 . S
N2771 C2769 1.314 . S
N2771 C2770 1.279 . S
C2772 C2774 1.353 . S
C2772 N2775 1.314 . S
C2772 H2778 0.930 . S
C2773 N2775 1.279 . S
C2773 C2776 1.358 . S
C2773 H2779 0.930 . S
C2774 C2772 1.353 . S
C2774 C2777 1.348 . S
C2774 H2812 0.929 . S
N2775 Li2730 1.990 . S
N2775 C2772 1.314 . S
N2775 C2773 1.279 . S
C2776 C2773 1.358 . S
C2776 C2777 1.356 . S
C2776 H2813 0.930 . S
C2777 C2774 1.348 . S
C2777 C2776 1.356 . S
H2778 C2772 0.930 . S
H2779 C2773 0.930 . S
C2780 N2781 1.314 . S
C2780 C2782 1.353 . S
C2780 H2786 0.930 . S
N2781 Li2731 1.990 . S
N2781 C2780 1.314 . S
N2781 C2784 1.279 . S
C2782 C2780 1.353 . S
C2782 C2785 1.348 . S
C2782 H2814 0.929 . S
C2783 C2784 1.358 . S
C2783 C2785 1.356 . S
C2783 H2815 0.930 . S
C2784 N2781 1.279 . S
C2784 C2783 1.358 . S
C2784 H2787 0.930 . S
C2785 C2782 1.348 . S
C2785 C2783 1.356 . S
H2786 C2780 0.930 . S
H2787 C2784 0.930 . S
O2788 Li2728 1.956 . S
O2788 Li2729 1.970 . S
O2788 Li2730 1.961 . S
O2788 C2732 1.325 . S
O2789 Li2728 1.970 . S
O2789 Li2729 1.956 . S
O2789 Li2731 1.961 . S
O2789 C2738 1.325 . S
O2790 Li2728 1.961 . S
O2790 Li2730 1.956 . S
O2790 Li2731 1.970 . S
O2790 C2760 1.325 . S
O2791 Li2729 1.961 . S
O2791 Li2730 1.970 . S
O2791 Li2731 1.956 . S
O2791 C2766 1.325 . S
H2792 C2734 0.929 . S
H2793 C2735 0.930 . S
H2794 C2736 0.930 . S
H2795 C2737 0.930 . S
H2796 C2739 0.930 . S
H2797 C2741 0.929 . S
H2798 C2742 0.930 . S
H2799 C2743 0.930 . S
H2800 C2746 0.930 . S
H2801 C2749 0.929 . S
H2802 C2754 0.929 . S
H2803 C2755 0.930 . S
H2804 C2762 0.929 . S
H2805 C2763 0.930 . S
H2806 C2764 0.930 . S
H2807 C2765 0.930 . S
H2808 C2767 0.929 . S
H2809 C2768 0.930 . S
H2810 C2769 0.930 . S
H2811 C2770 0.930 . S
H2812 C2774 0.929 . S
H2813 C2776 0.930 . S
H2814 C2782 0.929 . S
H2815 C2783 0.930 . S
H2816 C2822 0.930 . S
H2817 C2826 0.930 . S
H2818 C2831 0.929 . S
H2819 C2829 0.929 . S
H2820 C2824 0.929 1_655 S
H2821 C2830 0.875 1_455 S
C2822 H2816 0.930 . S
C2822 C2823 1.367 . S
C2822 C2830 1.416 . S
C2823 C2822 1.367 . S
C2823 C2831 1.433 . S
C2824 H2820 0.929 1_455 S
C2824 C2826 1.378 . S
C2824 C2828 1.350 . S
C2825 C2828 1.463 1_656 S
C2825 C2830 1.367 . S
C2825 N2833 1.427 . S
C2826 H2817 0.930 . S
C2826 C2824 1.378 . S
C2826 C2827 1.367 . S
C2827 C2826 1.367 . S
C2827 C2829 1.433 . S
C2828 C2824 1.350 . S
C2828 C2825 1.463 1_454 S
C2828 N2832 1.427 . S
C2829 H2819 0.929 . S
C2829 C2827 1.433 . S
C2829 N2832 1.384 . S
C2830 H2821 0.875 1_655 S
C2830 C2822 1.416 . S
C2830 C2825 1.367 . S
C2831 H2818 0.929 . S
C2831 C2823 1.433 . S
C2831 N2833 1.384 . S
N2832 C2828 1.427 . S
N2832 C2829 1.384 . S
N2833 C2825 1.427 . S
N2833 C2831 1.384 . S
H2834 C2840 0.930 . S
H2835 C2844 0.930 . S
H2836 C2849 0.929 . S
H2837 C2847 0.929 . S
H2838 C2842 0.929 . S
H2839 C2848 0.929 . S
C2840 H2834 0.930 . S
C2840 C2841 1.367 . S
C2840 C2848 1.378 . S
C2841 C2840 1.367 . S
C2841 C2849 1.433 . S
C2842 H2838 0.929 . S
C2842 C2844 1.378 . S
C2842 C2846 1.350 . S
C2843 C2846 1.463 . S
C2843 C2848 1.350 . S
C2843 N2851 1.427 . S
C2844 H2835 0.930 . S
C2844 C2842 1.378 . S
C2844 C2845 1.367 . S
C2845 C2844 1.367 . S
C2845 C2847 1.433 . S
C2846 C2842 1.350 . S
C2846 C2843 1.463 . S
C2846 N2850 1.427 . S
C2847 H2837 0.929 . S
C2847 C2845 1.433 . S
C2847 N2850 1.384 . S
C2848 H2839 0.929 . S
C2848 C2840 1.378 . S
C2848 C2843 1.350 . S
C2849 H2836 0.929 . S
C2849 C2841 1.433 . S
C2849 N2851 1.384 . S
N2850 C2846 1.427 . S
N2850 C2847 1.384 . S
N2851 C2843 1.427 . S
N2851 C2849 1.384 . S
H2852 C2858 0.930 . S
H2853 C2862 0.930 . S
H2854 C2867 0.929 . S
H2855 C2865 0.929 . S
H2856 C2860 0.929 . S
H2857 C2866 0.929 . S
C2858 H2852 0.930 . S
C2858 C2859 1.367 . S
C2858 C2866 1.378 . S
C2859 C2858 1.367 . S
C2859 C2867 1.433 . S
C2860 H2856 0.929 . S
C2860 C2862 1.378 . S
C2860 C2864 1.350 . S
C2861 C2864 1.463 . S
C2861 C2866 1.350 . S
C2861 N2869 1.427 . S
C2862 H2853 0.930 . S
C2862 C2860 1.378 . S
C2862 C2863 1.367 . S
C2863 C2862 1.367 . S
C2863 C2865 1.433 . S
C2864 C2860 1.350 . S
C2864 C2861 1.463 . S
C2864 N2868 1.427 . S
C2865 H2855 0.929 . S
C2865 C2863 1.433 . S
C2865 N2868 1.384 . S
C2866 H2857 0.929 . S
C2866 C2858 1.378 . S
C2866 C2861 1.350 . S
C2867 H2854 0.929 . S
C2867 C2859 1.433 . S
C2867 N2869 1.384 . S
N2868 C2864 1.427 . S
N2868 C2865 1.384 . S
N2869 C2861 1.427 . S
N2869 C2867 1.384 . S
H2870 C2876 0.930 . S
H2871 C2880 0.930 . S
H2872 C2885 0.929 . S
H2873 C2883 0.929 . S
H2874 C2878 0.929 . S
H2875 C2884 0.929 . S
C2876 H2870 0.930 . S
C2876 C2877 1.367 . S
C2876 C2884 1.378 . S
C2877 C2876 1.367 . S
C2877 C2885 1.433 . S
C2878 H2874 0.929 . S
C2878 C2880 1.378 . S
C2878 C2882 1.350 . S
C2879 C2882 1.463 . S
C2879 C2884 1.350 . S
C2879 N2887 1.427 . S
C2880 H2871 0.930 . S
C2880 C2878 1.378 . S
C2880 C2881 1.367 . S
C2881 C2880 1.367 . S
C2881 C2883 1.433 . S
C2882 C2878 1.350 . S
C2882 C2879 1.463 . S
C2882 N2886 1.427 . S
C2883 H2873 0.929 . S
C2883 C2881 1.433 . S
C2883 N2886 1.384 . S
C2884 H2875 0.929 . S
C2884 C2876 1.378 . S
C2884 C2879 1.350 . S
C2885 H2872 0.929 . S
C2885 C2877 1.433 . S
C2885 N2887 1.384 . S
N2886 C2882 1.427 . S
N2886 C2883 1.384 . S
N2887 C2879 1.427 . S
N2887 C2885 1.384 . S
H2888 C2894 0.930 . S
H2889 C2898 0.930 . S
H2890 C2903 0.929 . S
H2891 C2901 0.929 . S
H2892 C2896 0.929 . S
H2893 C2902 0.929 . S
C2894 H2888 0.930 . S
C2894 C2895 1.367 . S
C2894 C2902 1.378 . S
C2895 C2894 1.367 . S
C2895 C2903 1.433 . S
C2896 H2892 0.929 . S
C2896 C2898 1.378 . S
C2896 C2900 1.350 . S
C2897 C2900 1.463 1_655 S
C2897 C2902 1.350 . S
C2897 N2905 1.427 . S
C2898 H2889 0.930 . S
C2898 C2896 1.378 . S
C2898 C2899 1.367 . S
C2899 C2898 1.367 . S
C2899 C2901 1.433 . S
C2900 C2896 1.350 . S
C2900 C2897 1.463 1_455 S
C2900 N2904 1.427 . S
C2901 H2891 0.929 . S
C2901 C2899 1.433 . S
C2901 N2904 1.384 . S
C2902 H2893 0.929 . S
C2902 C2894 1.378 . S
C2902 C2897 1.350 . S
C2903 H2890 0.929 . S
C2903 C2895 1.433 . S
C2903 N2905 1.384 . S
N2904 C2900 1.427 . S
N2904 C2901 1.384 . S
N2905 C2897 1.427 . S
N2905 C2903 1.384 . S
H2906 C2912 0.930 . S
H2907 C2916 0.930 . S
H2908 C2921 0.929 . S
H2909 C2919 0.929 . S
H2910 C2914 0.929 . S
H2911 C2920 0.929 . S
C2912 H2906 0.930 . S
C2912 C2913 1.367 . S
C2912 C2920 1.378 . S
C2913 C2912 1.367 . S
C2913 C2921 1.433 . S
C2914 H2910 0.929 . S
C2914 C2916 1.378 . S
C2914 C2918 1.350 . S
C2915 C2918 1.463 . S
C2915 C2920 1.350 . S
C2915 N2923 1.427 . S
C2916 H2907 0.930 . S
C2916 C2914 1.378 . S
C2916 C2917 1.367 . S
C2917 C2916 1.367 . S
C2917 C2919 1.433 . S
C2918 C2914 1.350 . S
C2918 C2915 1.463 . S
C2918 N2922 1.427 . S
C2919 H2909 0.929 . S
C2919 C2917 1.433 . S
C2919 N2922 1.384 . S
C2920 H2911 0.929 . S
C2920 C2912 1.378 . S
C2920 C2915 1.350 . S
C2921 H2908 0.929 . S
C2921 C2913 1.433 . S
C2921 N2923 1.384 . S
N2922 C2918 1.427 . S
N2922 C2919 1.384 . S
N2923 C2915 1.427 . S
N2923 C2921 1.384 . S
H2924 C2930 0.943 . S
H2925 C2934 0.948 . S
H2926 C2939 0.929 . S
H2927 C2937 0.929 . S
H2928 C2932 0.929 . S
H2929 C2938 0.929 . S
C2930 H2924 0.943 . S
C2930 C2931 1.346 1_554 S
C2930 C2938 1.386 . S
C2931 C2930 1.346 1_556 S
C2931 C2939 1.433 . S
C2932 H2928 0.929 . S
C2932 C2934 1.389 . S
C2932 C2936 1.350 1_556 S
C2933 C2936 1.463 1_556 S
C2933 C2938 1.350 1_556 S
C2933 N2941 1.427 . S
C2934 H2925 0.948 . S
C2934 C2932 1.389 . S
C2934 C2935 1.338 1_556 S
C2935 C2934 1.338 1_554 S
C2935 C2937 1.433 . S
C2936 C2932 1.350 1_554 S
C2936 C2933 1.463 1_554 S
C2936 N2940 1.427 . S
C2937 H2927 0.929 . S
C2937 C2935 1.433 . S
C2937 N2940 1.384 . S
C2938 H2929 0.929 . S
C2938 C2930 1.386 . S
C2938 C2933 1.350 1_554 S
C2939 H2926 0.929 . S
C2939 C2931 1.433 . S
C2939 N2941 1.384 . S
N2940 C2936 1.427 . S
N2940 C2937 1.384 . S
N2941 C2933 1.427 . S
N2941 C2939 1.384 . S
H2942 C2948 0.930 . S
H2943 C2952 0.930 . S
H2944 C2957 0.929 . S
H2945 C2955 0.929 . S
H2946 C2950 0.929 . S
H2947 C2956 0.929 . S
C2948 H2942 0.930 . S
C2948 C2949 1.367 . S
C2948 C2956 1.378 . S
C2949 C2948 1.367 . S
C2949 C2957 1.433 . S
C2950 H2946 0.929 . S
C2950 C2952 1.378 . S
C2950 C2954 1.350 . S
C2951 C2954 1.463 . S
C2951 C2956 1.350 . S
C2951 N2959 1.427 . S
C2952 H2943 0.930 . S
C2952 C2950 1.378 . S
C2952 C2953 1.367 . S
C2953 C2952 1.367 . S
C2953 C2955 1.433 . S
C2954 C2950 1.350 . S
C2954 C2951 1.463 . S
C2954 N2958 1.427 . S
C2955 H2945 0.929 . S
C2955 C2953 1.433 . S
C2955 N2958 1.384 . S
C2956 H2947 0.929 . S
C2956 C2948 1.378 . S
C2956 C2951 1.350 . S
C2957 H2944 0.929 . S
C2957 C2949 1.433 . S
C2957 N2959 1.384 . S
N2958 C2954 1.427 . S
N2958 C2955 1.384 . S
N2959 C2951 1.427 . S
N2959 C2957 1.384 . S
H2960 C2966 0.930 . S
H2961 C2970 0.930 . S
H2962 C2975 0.929 . S
H2963 C2973 0.929 . S
H2964 C2968 0.929 . S
H2965 C2974 0.929 . S
C2966 H2960 0.930 . S
C2966 C2967 1.367 . S
C2966 C2974 1.378 . S
C2967 C2966 1.367 . S
C2967 C2975 1.433 . S
C2968 H2964 0.929 . S
C2968 C2970 1.378 . S
C2968 C2972 1.350 . S
C2969 C2972 1.463 . S
C2969 C2974 1.350 . S
C2969 N2977 1.427 . S
C2970 H2961 0.930 . S
C2970 C2968 1.378 . S
C2970 C2971 1.367 . S
C2971 C2970 1.367 . S
C2971 C2973 1.433 . S
C2972 C2968 1.350 . S
C2972 C2969 1.463 . S
C2972 N2976 1.427 . S
C2973 H2963 0.929 . S
C2973 C2971 1.433 . S
C2973 N2976 1.384 . S
C2974 H2965 0.929 . S
C2974 C2966 1.378 . S
C2974 C2969 1.350 . S
C2975 H2962 0.929 . S
C2975 C2967 1.433 . S
C2975 N2977 1.384 . S
N2976 C2972 1.427 . S
N2976 C2973 1.384 . S
N2977 C2969 1.427 . S
N2977 C2975 1.384 . S
H2978 C2984 0.930 . S
H2979 C2988 0.930 . S
H2980 C2993 0.929 . S
H2981 C2991 0.929 . S
H2982 C2986 0.929 . S
H2983 C2992 0.929 . S
C2984 H2978 0.930 . S
C2984 C2985 1.367 . S
C2984 C2992 1.378 . S
C2985 C2984 1.367 . S
C2985 C2993 1.433 . S
C2986 H2982 0.929 . S
C2986 C2988 1.378 . S
C2986 C2990 1.350 . S
C2987 C2990 1.463 . S
C2987 C2992 1.350 . S
C2987 N2995 1.427 . S
C2988 H2979 0.930 . S
C2988 C2986 1.378 . S
C2988 C2989 1.367 . S
C2989 C2988 1.367 . S
C2989 C2991 1.433 . S
C2990 C2986 1.350 . S
C2990 C2987 1.463 . S
C2990 N2994 1.427 . S
C2991 H2981 0.929 . S
C2991 C2989 1.433 . S
C2991 N2994 1.384 . S
C2992 H2983 0.929 . S
C2992 C2984 1.378 . S
C2992 C2987 1.350 . S
C2993 H2980 0.929 . S
C2993 C2985 1.433 . S
C2993 N2995 1.384 . S
N2994 C2990 1.427 . S
N2994 C2991 1.384 . S
N2995 C2987 1.427 . S
N2995 C2993 1.384 . S
H2996 C3002 0.930 . S
H2997 C3006 0.930 . S
H2998 C3011 0.929 . S
H2999 C3009 0.929 . S
H3000 C3004 0.929 . S
H3001 C3010 0.929 . S
C3002 H2996 0.930 . S
C3002 C3003 1.367 . S
C3002 C3010 1.378 . S
C3003 C3002 1.367 . S
C3003 C3011 1.433 . S
C3004 H3000 0.929 . S
C3004 C3006 1.378 . S
C3004 C3008 1.350 . S
C3005 C3008 1.463 . S
C3005 C3010 1.350 . S
C3005 N3013 1.427 . S
C3006 H2997 0.930 . S
C3006 C3004 1.378 . S
C3006 C3007 1.367 . S
C3007 C3006 1.367 . S
C3007 C3009 1.433 . S
C3008 C3004 1.350 . S
C3008 C3005 1.463 . S
C3008 N3012 1.427 . S
C3009 H2999 0.929 . S
C3009 C3007 1.433 . S
C3009 N3012 1.384 . S
C3010 H3001 0.929 . S
C3010 C3002 1.378 . S
C3010 C3005 1.350 . S
C3011 H2998 0.929 . S
C3011 C3003 1.433 . S
C3011 N3013 1.384 . S
N3012 C3008 1.427 . S
N3012 C3009 1.384 . S
N3013 C3005 1.427 . S
N3013 C3011 1.384 . S
H3014 C3020 0.930 . S
H3015 C3024 0.930 . S
H3016 C3029 0.929 . S
H3017 C3027 0.929 . S
H3018 C3022 0.929 . S
H3019 C3028 0.929 . S
C3020 H3014 0.930 . S
C3020 C3021 1.367 . S
C3020 C3028 1.378 . S
C3021 C3020 1.367 . S
C3021 C3029 1.433 . S
C3022 H3018 0.929 . S
C3022 C3024 1.378 . S
C3022 C3026 1.350 . S
C3023 C3026 1.463 . S
C3023 C3028 1.350 . S
C3023 N3031 1.427 . S
C3024 H3015 0.930 . S
C3024 C3022 1.378 . S
C3024 C3025 1.367 . S
C3025 C3024 1.367 . S
C3025 C3027 1.433 . S
C3026 C3022 1.350 . S
C3026 C3023 1.463 . S
C3026 N3030 1.427 . S
C3027 H3017 0.929 . S
C3027 C3025 1.433 . S
C3027 N3030 1.384 . S
C3028 H3019 0.929 . S
C3028 C3020 1.378 . S
C3028 C3023 1.350 . S
C3029 H3016 0.929 . S
C3029 C3021 1.433 . S
C3029 N3031 1.384 . S
N3030 C3026 1.427 . S
N3030 C3027 1.384 . S
N3031 C3023 1.427 . S
N3031 C3029 1.384 . S
H3032 C3038 0.930 . S
H3033 C3042 0.930 . S
H3034 C3047 0.929 . S
H3035 C3045 0.929 . S
H3036 C3040 0.929 . S
H3037 C3046 0.929 . S
C3038 H3032 0.930 . S
C3038 C3039 1.367 . S
C3038 C3046 1.378 . S
C3039 C3038 1.367 . S
C3039 C3047 1.433 . S
C3040 H3036 0.929 . S
C3040 C3042 1.378 . S
C3040 C3044 1.350 . S
C3041 C3044 1.463 1_565 S
C3041 C3046 1.350 . S
C3041 N3049 1.414 1_565 S
C3042 H3033 0.930 . S
C3042 C3040 1.378 . S
C3042 C3043 1.367 . S
C3043 C3042 1.367 . S
C3043 C3045 1.433 . S
C3044 C3040 1.350 . S
C3044 C3041 1.463 1_545 S
C3044 N3048 1.419 1_545 S
C3045 H3035 0.929 . S
C3045 C3043 1.433 . S
C3045 N3048 1.369 1_545 S
C3046 H3037 0.929 . S
C3046 C3038 1.378 . S
C3046 C3041 1.350 . S
C3047 H3034 0.929 . S
C3047 C3039 1.433 . S
C3047 N3049 1.361 1_565 S
N3048 C3044 1.419 1_565 S
N3048 C3045 1.369 1_565 S
N3049 C3041 1.414 1_545 S
N3049 C3047 1.361 1_545 S
H3050 C3056 0.930 1_554 S
H3051 C3060 0.930 1_556 S
H3052 C3065 0.929 . S
H3053 C3063 0.929 . S
H3054 C3058 0.929 . S
H3055 C3064 0.929 . S
C3056 H3050 0.930 1_556 S
C3056 C3057 1.367 . S
C3056 C3064 1.378 1_556 S
C3057 C3056 1.367 . S
C3057 C3065 1.433 . S
C3058 H3054 0.929 . S
C3058 C3060 1.378 1_556 S
C3058 C3062 1.350 1_556 S
C3059 C3062 1.463 1_466 S
C3059 C3064 1.350 1_556 S
C3059 N3067 1.427 . S
C3060 H3051 0.930 1_554 S
C3060 C3058 1.378 1_554 S
C3060 C3061 1.367 . S
C3061 C3060 1.367 . S
C3061 C3063 1.433 . S
C3062 C3058 1.350 1_554 S
C3062 C3059 1.463 1_644 S
C3062 N3066 1.427 . S
C3063 H3053 0.929 . S
C3063 C3061 1.433 . S
C3063 N3066 1.384 . S
C3064 H3055 0.929 . S
C3064 C3056 1.378 1_554 S
C3064 C3059 1.350 1_554 S
C3065 H3052 0.929 . S
C3065 C3057 1.433 . S
C3065 N3067 1.384 . S
N3066 C3062 1.427 . S
N3066 C3063 1.384 . S
N3067 C3059 1.427 . S
N3067 C3065 1.384 . S
H3068 C3074 0.930 . S
H3069 C3078 0.930 . S
H3070 C3083 0.929 . S
H3071 C3081 0.929 . S
H3072 C3076 0.960 . S
H3073 C3082 0.973 . S
C3074 H3068 0.930 . S
C3074 C3075 1.367 . S
C3074 C3082 1.349 1_545 S
C3075 C3074 1.367 . S
C3075 C3083 1.433 . S
C3076 H3072 0.960 . S
C3076 C3078 1.358 1_545 S
C3076 C3080 1.339 1_545 S
C3077 C3080 1.463 1_546 S
C3077 C3082 1.334 1_545 S
C3077 N3085 1.427 . S
C3078 H3069 0.930 . S
C3078 C3076 1.358 1_565 S
C3078 C3079 1.367 . S
C3079 C3078 1.367 . S
C3079 C3081 1.433 . S
C3080 C3076 1.339 1_565 S
C3080 C3077 1.463 1_564 S
C3080 N3084 1.427 . S
C3081 H3071 0.929 . S
C3081 C3079 1.433 . S
C3081 N3084 1.384 . S
C3082 H3073 0.973 . S
C3082 C3074 1.349 1_565 S
C3082 C3077 1.334 1_565 S
C3083 H3070 0.929 . S
C3083 C3075 1.433 . S
C3083 N3085 1.384 . S
N3084 C3080 1.427 . S
N3084 C3081 1.384 . S
N3085 C3077 1.427 . S
N3085 C3083 1.384 . S
H3086 C3092 0.930 . S
H3087 C3096 0.930 . S
H3088 C3101 0.929 . S
H3089 C3099 0.929 . S
H3090 C3094 0.929 . S
H3091 C3100 0.929 . S
C3092 H3086 0.930 . S
C3092 C3093 1.367 . S
C3092 C3100 1.378 . S
C3093 C3092 1.367 . S
C3093 C3101 1.433 . S
C3094 H3090 0.929 . S
C3094 C3096 1.378 . S
C3094 C3098 1.350 . S
C3095 C3098 1.463 1_445 S
C3095 C3100 1.350 . S
C3095 N3103 1.427 . S
C3096 H3087 0.930 . S
C3096 C3094 1.378 . S
C3096 C3097 1.367 . S
C3097 C3096 1.367 . S
C3097 C3099 1.433 . S
C3098 C3094 1.350 . S
C3098 C3095 1.463 1_665 S
C3098 N3102 1.427 . S
C3099 H3089 0.929 . S
C3099 C3097 1.433 . S
C3099 N3102 1.384 . S
C3100 H3091 0.929 . S
C3100 C3092 1.378 . S
C3100 C3095 1.350 . S
C3101 H3088 0.929 . S
C3101 C3093 1.433 . S
C3101 N3103 1.384 . S
N3102 C3098 1.427 . S
N3102 C3099 1.384 . S
N3103 C3095 1.427 . S
N3103 C3101 1.384 . S
H3104 C3110 0.930 . S
H3105 C3114 0.930 . S
H3106 C3119 0.929 . S
H3107 C3117 0.929 . S
H3108 C3112 0.929 1_655 S
H3109 C3118 0.929 1_455 S
C3110 H3104 0.930 . S
C3110 C3111 1.367 . S
C3110 C3118 1.378 . S
C3111 C3110 1.367 . S
C3111 C3119 1.433 . S
C3112 H3108 0.929 1_455 S
C3112 C3114 1.378 . S
C3112 C3116 1.350 . S
C3113 C3116 1.463 1_655 S
C3113 C3118 1.350 . S
C3113 N3121 1.427 . S
C3114 H3105 0.930 . S
C3114 C3112 1.378 . S
C3114 C3115 1.367 . S
C3115 C3114 1.367 . S
C3115 C3117 1.433 . S
C3116 C3112 1.350 . S
C3116 C3113 1.463 1_455 S
C3116 N3120 1.427 . S
C3117 H3107 0.929 . S
C3117 C3115 1.433 . S
C3117 N3120 1.384 . S
C3118 H3109 0.929 1_655 S
C3118 C3110 1.378 . S
C3118 C3113 1.350 . S
C3119 H3106 0.929 . S
C3119 C3111 1.433 . S
C3119 N3121 1.384 . S
N3120 C3116 1.427 . S
N3120 C3117 1.384 . S
N3121 C3113 1.427 . S
N3121 C3119 1.384 . S
H3122 C3128 0.930 . S
H3123 C3132 0.930 . S
H3124 C3137 0.929 . S
H3125 C3135 0.929 . S
H3126 C3130 0.929 . S
H3127 C3136 0.929 . S
C3128 H3122 0.930 . S
C3128 C3129 1.367 . S
C3128 C3136 1.378 . S
C3129 C3128 1.367 . S
C3129 C3137 1.433 . S
C3130 H3126 0.929 . S
C3130 C3132 1.378 . S
C3130 C3134 1.350 . S
C3131 C3134 1.463 1_455 S
C3131 C3136 1.350 . S
C3131 N3139 1.427 . S
C3132 H3123 0.930 . S
C3132 C3130 1.378 . S
C3132 C3133 1.367 . S
C3133 C3132 1.367 . S
C3133 C3135 1.433 . S
C3134 C3130 1.350 . S
C3134 C3131 1.463 1_655 S
C3134 N3138 1.427 . S
C3135 H3125 0.929 . S
C3135 C3133 1.433 . S
C3135 N3138 1.384 . S
C3136 H3127 0.929 . S
C3136 C3128 1.378 . S
C3136 C3131 1.350 . S
C3137 H3124 0.929 . S
C3137 C3129 1.433 . S
C3137 N3139 1.384 . S
N3138 C3134 1.427 . S
N3138 C3135 1.384 . S
N3139 C3131 1.427 . S
N3139 C3137 1.384 . S
H3140 C3146 0.930 . S
H3141 C3150 0.930 . S
H3142 C3155 0.929 . S
H3143 C3153 0.929 . S
H3144 C3148 0.929 . S
H3145 C3154 0.929 . S
C3146 H3140 0.930 . S
C3146 C3147 1.367 . S
C3146 C3154 1.378 . S
C3147 C3146 1.367 . S
C3147 C3155 1.433 . S
C3148 H3144 0.929 . S
C3148 C3150 1.378 . S
C3148 C3152 1.350 . S
C3149 C3152 1.463 . S
C3149 C3154 1.350 . S
C3149 N3157 1.427 . S
C3150 H3141 0.930 . S
C3150 C3148 1.378 . S
C3150 C3151 1.367 . S
C3151 C3150 1.367 . S
C3151 C3153 1.433 . S
C3152 C3148 1.350 . S
C3152 C3149 1.463 . S
C3152 N3156 1.427 . S
C3153 H3143 0.929 . S
C3153 C3151 1.433 . S
C3153 N3156 1.384 . S
C3154 H3145 0.929 . S
C3154 C3146 1.378 . S
C3154 C3149 1.350 . S
C3155 H3142 0.929 . S
C3155 C3147 1.433 . S
C3155 N3157 1.384 . S
N3156 C3152 1.427 . S
N3156 C3153 1.384 . S
N3157 C3149 1.427 . S
N3157 C3155 1.384 . S
H3158 C3164 0.930 . S
H3159 C3168 0.930 . S
H3160 C3173 0.929 . S
H3161 C3171 0.929 . S
H3162 C3166 0.929 . S
H3163 C3172 0.929 . S
C3164 H3158 0.930 . S
C3164 C3165 1.367 . S
C3164 C3172 1.378 . S
C3165 C3164 1.367 . S
C3165 C3173 1.433 . S
C3166 H3162 0.929 . S
C3166 C3168 1.378 . S
C3166 C3170 1.350 . S
C3167 C3170 1.463 . S
C3167 C3172 1.350 . S
C3167 N3175 1.427 . S
C3168 H3159 0.930 . S
C3168 C3166 1.378 . S
C3168 C3169 1.367 . S
C3169 C3168 1.367 . S
C3169 C3171 1.433 . S
C3170 C3166 1.350 . S
C3170 C3167 1.463 . S
C3170 N3174 1.427 . S
C3171 H3161 0.929 . S
C3171 C3169 1.433 . S
C3171 N3174 1.384 . S
C3172 H3163 0.929 . S
C3172 C3164 1.378 . S
C3172 C3167 1.350 . S
C3173 H3160 0.929 . S
C3173 C3165 1.433 . S
C3173 N3175 1.384 . S
N3174 C3170 1.427 . S
N3174 C3171 1.384 . S
N3175 C3167 1.427 . S
N3175 C3173 1.384 . S
H3176 C3182 0.930 . S
H3177 C3186 0.930 . S
H3178 C3191 0.929 . S
H3179 C3189 0.929 . S
H3180 C3184 0.929 . S
H3181 C3190 0.929 . S
C3182 H3176 0.930 . S
C3182 C3183 1.367 . S
C3182 C3190 1.378 . S
C3183 C3182 1.367 . S
C3183 C3191 1.433 . S
C3184 H3180 0.929 . S
C3184 C3186 1.378 . S
C3184 C3188 1.350 . S
C3185 C3188 1.463 1_655 S
C3185 C3190 1.350 . S
C3185 N3193 1.427 . S
C3186 H3177 0.930 . S
C3186 C3184 1.378 . S
C3186 C3187 1.367 . S
C3187 C3186 1.367 . S
C3187 C3189 1.433 . S
C3188 C3184 1.350 . S
C3188 C3185 1.463 1_455 S
C3188 N3192 1.427 . S
C3189 H3179 0.929 . S
C3189 C3187 1.433 . S
C3189 N3192 1.384 . S
C3190 H3181 0.929 . S
C3190 C3182 1.378 . S
C3190 C3185 1.350 . S
C3191 H3178 0.929 . S
C3191 C3183 1.433 . S
C3191 N3193 1.384 . S
N3192 C3188 1.427 . S
N3192 C3189 1.384 . S
N3193 C3185 1.427 . S
N3193 C3191 1.384 . S
H3194 C3200 0.930 . S
H3195 C3204 0.930 . S
H3196 C3209 0.929 . S
H3197 C3207 0.929 . S
H3198 C3202 0.929 . S
H3199 C3208 0.929 . S
C3200 H3194 0.930 . S
C3200 C3201 1.367 . S
C3200 C3208 1.378 . S
C3201 C3200 1.367 . S
C3201 C3209 1.433 . S
C3202 H3198 0.929 . S
C3202 C3204 1.378 . S
C3202 C3206 1.350 . S
C3203 C3206 1.463 . S
C3203 C3208 1.350 . S
C3203 N3211 1.427 . S
C3204 H3195 0.930 . S
C3204 C3202 1.378 . S
C3204 C3205 1.367 . S
C3205 C3204 1.367 . S
C3205 C3207 1.433 . S
C3206 C3202 1.350 . S
C3206 C3203 1.463 . S
C3206 N3210 1.427 . S
C3207 H3197 0.929 . S
C3207 C3205 1.433 . S
C3207 N3210 1.384 . S
C3208 H3199 0.929 . S
C3208 C3200 1.378 . S
C3208 C3203 1.350 . S
C3209 H3196 0.929 . S
C3209 C3201 1.433 . S
C3209 N3211 1.384 . S
N3210 C3206 1.427 . S
N3210 C3207 1.384 . S
N3211 C3203 1.427 . S
N3211 C3209 1.384 . S
H3212 C3218 0.930 . S
H3213 C3222 0.930 . S
H3214 C3227 0.929 . S
H3215 C3225 0.929 . S
H3216 C3220 0.929 . S
H3217 C3226 0.929 . S
C3218 H3212 0.930 . S
C3218 C3219 1.367 . S
C3218 C3226 1.378 . S
C3219 C3218 1.367 . S
C3219 C3227 1.433 . S
C3220 H3216 0.929 . S
C3220 C3222 1.378 . S
C3220 C3224 1.350 . S
C3221 C3224 1.463 . S
C3221 C3226 1.350 . S
C3221 N3229 1.427 . S
C3222 H3213 0.930 . S
C3222 C3220 1.378 . S
C3222 C3223 1.367 . S
C3223 C3222 1.367 . S
C3223 C3225 1.433 . S
C3224 C3220 1.350 . S
C3224 C3221 1.463 . S
C3224 N3228 1.427 . S
C3225 H3215 0.929 . S
C3225 C3223 1.433 . S
C3225 N3228 1.384 . S
C3226 H3217 0.929 . S
C3226 C3218 1.378 . S
C3226 C3221 1.350 . S
C3227 H3214 0.929 . S
C3227 C3219 1.433 . S
C3227 N3229 1.384 . S
N3228 C3224 1.427 . S
N3228 C3225 1.384 . S
N3229 C3221 1.427 . S
N3229 C3227 1.384 . S
H3230 C3236 0.930 . S
H3231 C3240 0.930 . S
H3232 C3245 0.929 . S
H3233 C3243 0.929 . S
H3234 C3238 0.929 . S
H3235 C3244 0.929 . S
C3236 H3230 0.930 . S
C3236 C3237 1.367 . S
C3236 C3244 1.378 . S
C3237 C3236 1.367 . S
C3237 C3245 1.433 . S
C3238 H3234 0.929 . S
C3238 C3240 1.378 . S
C3238 C3242 1.350 . S
C3239 C3242 1.463 1_455 S
C3239 C3244 1.350 . S
C3239 N3247 1.427 . S
C3240 H3231 0.930 . S
C3240 C3238 1.378 . S
C3240 C3241 1.367 . S
C3241 C3240 1.367 . S
C3241 C3243 1.433 . S
C3242 C3238 1.350 . S
C3242 C3239 1.463 1_655 S
C3242 N3246 1.427 . S
C3243 H3233 0.929 . S
C3243 C3241 1.433 . S
C3243 N3246 1.384 . S
C3244 H3235 0.929 . S
C3244 C3236 1.378 . S
C3244 C3239 1.350 . S
C3245 H3232 0.929 . S
C3245 C3237 1.433 . S
C3245 N3247 1.384 . S
N3246 C3242 1.427 . S
N3246 C3243 1.384 . S
N3247 C3239 1.427 . S
N3247 C3245 1.384 . S
H3248 C3254 0.930 . S
H3249 C3258 0.930 . S
H3250 C3263 0.929 . S
H3251 C3261 0.929 . S
H3252 C3256 0.929 . S
H3253 C3262 0.929 . S
C3254 H3248 0.930 . S
C3254 C3255 1.367 . S
C3254 C3262 1.378 . S
C3255 C3254 1.367 . S
C3255 C3263 1.433 . S
C3256 H3252 0.929 . S
C3256 C3258 1.378 . S
C3256 C3260 1.350 . S
C3257 C3260 1.463 1_655 S
C3257 C3262 1.350 . S
C3257 N3265 1.427 . S
C3258 H3249 0.930 . S
C3258 C3256 1.378 . S
C3258 C3259 1.367 . S
C3259 C3258 1.367 . S
C3259 C3261 1.433 . S
C3260 C3256 1.350 . S
C3260 C3257 1.463 1_455 S
C3260 N3264 1.427 . S
C3261 H3251 0.929 . S
C3261 C3259 1.433 . S
C3261 N3264 1.384 . S
C3262 H3253 0.929 . S
C3262 C3254 1.378 . S
C3262 C3257 1.350 . S
C3263 H3250 0.929 . S
C3263 C3255 1.433 . S
C3263 N3265 1.384 . S
N3264 C3260 1.427 . S
N3264 C3261 1.384 . S
N3265 C3257 1.427 . S
N3265 C3263 1.384 . S
H3266 C3272 0.930 . S
H3267 C3276 0.930 . S
H3268 C3281 0.929 . S
H3269 C3279 0.929 . S
H3270 C3274 0.929 . S
H3271 C3280 0.929 . S
C3272 H3266 0.930 . S
C3272 C3273 1.367 . S
C3272 C3280 1.378 . S
C3273 C3272 1.367 . S
C3273 C3281 1.433 . S
C3274 H3270 0.929 . S
C3274 C3276 1.378 . S
C3274 C3278 1.350 . S
C3275 C3278 1.463 1_655 S
C3275 C3280 1.350 . S
C3275 N3283 1.427 . S
C3276 H3267 0.930 . S
C3276 C3274 1.378 . S
C3276 C3277 1.367 . S
C3277 C3276 1.367 . S
C3277 C3279 1.433 . S
C3278 C3274 1.350 . S
C3278 C3275 1.463 1_455 S
C3278 N3282 1.427 . S
C3279 H3269 0.929 . S
C3279 C3277 1.433 . S
C3279 N3282 1.384 . S
C3280 H3271 0.929 . S
C3280 C3272 1.378 . S
C3280 C3275 1.350 . S
C3281 H3268 0.929 . S
C3281 C3273 1.433 . S
C3281 N3283 1.384 . S
N3282 C3278 1.427 . S
N3282 C3279 1.384 . S
N3283 C3275 1.427 . S
N3283 C3281 1.384 . S
H3284 C3290 0.930 . S
H3285 C3294 0.930 . S
H3286 C3299 0.929 . S
H3287 C3297 0.929 . S
H3288 C3292 0.929 . S
H3289 C3298 0.929 . S
C3290 H3284 0.930 . S
C3290 C3291 1.367 . S
C3290 C3298 1.378 . S
C3291 C3290 1.367 . S
C3291 C3299 1.433 . S
C3292 H3288 0.929 . S
C3292 C3294 1.378 . S
C3292 C3296 1.350 . S
C3293 C3296 1.463 . S
C3293 C3298 1.350 . S
C3293 N3301 1.427 . S
C3294 H3285 0.930 . S
C3294 C3292 1.378 . S
C3294 C3295 1.367 . S
C3295 C3294 1.367 . S
C3295 C3297 1.433 . S
C3296 C3292 1.350 . S
C3296 C3293 1.463 . S
C3296 N3300 1.427 . S
C3297 H3287 0.929 . S
C3297 C3295 1.433 . S
C3297 N3300 1.384 . S
C3298 H3289 0.929 . S
C3298 C3290 1.378 . S
C3298 C3293 1.350 . S
C3299 H3286 0.929 . S
C3299 C3291 1.433 . S
C3299 N3301 1.384 . S
N3300 C3296 1.427 . S
N3300 C3297 1.384 . S
N3301 C3293 1.427 . S
N3301 C3299 1.384 . S
H3302 C3308 0.930 . S
H3303 C3312 0.930 . S
H3304 C3317 0.929 . S
H3305 C3315 0.929 . S
H3306 C3310 0.929 . S
H3307 C3316 0.929 . S
C3308 H3302 0.930 . S
C3308 C3309 1.367 . S
C3308 C3316 1.378 . S
C3309 C3308 1.367 . S
C3309 C3317 1.433 . S
C3310 H3306 0.929 . S
C3310 C3312 1.378 . S
C3310 C3314 1.350 . S
C3311 C3314 1.463 . S
C3311 C3316 1.350 . S
C3311 N3319 1.427 . S
C3312 H3303 0.930 . S
C3312 C3310 1.378 . S
C3312 C3313 1.367 . S
C3313 C3312 1.367 . S
C3313 C3315 1.433 . S
C3314 C3310 1.350 . S
C3314 C3311 1.463 . S
C3314 N3318 1.427 . S
C3315 H3305 0.929 . S
C3315 C3313 1.433 . S
C3315 N3318 1.384 . S
C3316 H3307 0.929 . S
C3316 C3308 1.378 . S
C3316 C3311 1.350 . S
C3317 H3304 0.929 . S
C3317 C3309 1.433 . S
C3317 N3319 1.384 . S
N3318 C3314 1.427 . S
N3318 C3315 1.384 . S
N3319 C3311 1.427 . S
N3319 C3317 1.384 . S
H3320 C3326 0.930 . S
H3321 C3330 0.930 . S
H3322 C3335 0.929 . S
H3323 C3333 0.929 . S
H3324 C3328 0.929 . S
H3325 C3334 0.929 . S
C3326 H3320 0.930 . S
C3326 C3327 1.367 . S
C3326 C3334 1.378 . S
C3327 C3326 1.367 . S
C3327 C3335 1.433 . S
C3328 H3324 0.929 . S
C3328 C3330 1.378 . S
C3328 C3332 1.350 . S
C3329 C3332 1.463 1_655 S
C3329 C3334 1.350 . S
C3329 N3337 1.427 . S
C3330 H3321 0.930 . S
C3330 C3328 1.378 . S
C3330 C3331 1.367 . S
C3331 C3330 1.367 . S
C3331 C3333 1.433 . S
C3332 C3328 1.350 . S
C3332 C3329 1.463 1_455 S
C3332 N3336 1.427 . S
C3333 H3323 0.929 . S
C3333 C3331 1.433 . S
C3333 N3336 1.384 . S
C3334 H3325 0.929 . S
C3334 C3326 1.378 . S
C3334 C3329 1.350 . S
C3335 H3322 0.929 . S
C3335 C3327 1.433 . S
C3335 N3337 1.384 . S
N3336 C3332 1.427 . S
N3336 C3333 1.384 . S
N3337 C3329 1.427 . S
N3337 C3335 1.384 . S
H3338 C3344 0.930 . S
H3339 C3348 0.930 . S
H3340 C3353 0.929 . S
H3341 C3351 0.929 . S
H3342 C3346 0.929 . S
H3343 C3352 0.929 . S
C3344 H3338 0.930 . S
C3344 C3345 1.367 . S
C3344 C3352 1.378 . S
C3345 C3344 1.367 . S
C3345 C3353 1.433 . S
C3346 H3342 0.929 . S
C3346 C3348 1.378 . S
C3346 C3350 1.350 . S
C3347 C3350 1.463 . S
C3347 C3352 1.350 . S
C3347 N3355 1.427 . S
C3348 H3339 0.930 . S
C3348 C3346 1.378 . S
C3348 C3349 1.367 . S
C3349 C3348 1.367 . S
C3349 C3351 1.433 . S
C3350 C3346 1.350 . S
C3350 C3347 1.463 . S
C3350 N3354 1.427 . S
C3351 H3341 0.929 . S
C3351 C3349 1.433 . S
C3351 N3354 1.384 . S
C3352 H3343 0.929 . S
C3352 C3344 1.378 . S
C3352 C3347 1.350 . S
C3353 H3340 0.929 . S
C3353 C3345 1.433 . S
C3353 N3355 1.384 . S
N3354 C3350 1.427 . S
N3354 C3351 1.384 . S
N3355 C3347 1.427 . S
N3355 C3353 1.384 . S
H3356 C3362 0.930 . S
H3357 C3366 0.930 . S
H3358 C3371 0.929 . S
H3359 C3369 0.929 . S
H3360 C3364 0.929 . S
H3361 C3370 0.929 . S
C3362 H3356 0.930 . S
C3362 C3363 1.367 . S
C3362 C3370 1.378 . S
C3363 C3362 1.367 . S
C3363 C3371 1.433 . S
C3364 H3360 0.929 . S
C3364 C3366 1.378 . S
C3364 C3368 1.350 . S
C3365 C3368 1.463 . S
C3365 C3370 1.350 . S
C3365 N3373 1.427 . S
C3366 H3357 0.930 . S
C3366 C3364 1.378 . S
C3366 C3367 1.367 . S
C3367 C3366 1.367 . S
C3367 C3369 1.433 . S
C3368 C3364 1.350 . S
C3368 C3365 1.463 . S
C3368 N3372 1.427 . S
C3369 H3359 0.929 . S
C3369 C3367 1.433 . S
C3369 N3372 1.384 . S
C3370 H3361 0.929 . S
C3370 C3362 1.378 . S
C3370 C3365 1.350 . S
C3371 H3358 0.929 . S
C3371 C3363 1.433 . S
C3371 N3373 1.384 . S
N3372 C3368 1.427 . S
N3372 C3369 1.384 . S
N3373 C3365 1.427 . S
N3373 C3371 1.384 . S
H3374 C3380 0.930 . S
H3375 C3384 0.930 . S
H3376 C3389 0.929 . S
H3377 C3387 0.929 . S
H3378 C3382 0.929 . S
H3379 C3388 0.929 . S
C3380 H3374 0.930 . S
C3380 C3381 1.367 . S
C3380 C3388 1.378 . S
C3381 C3380 1.367 . S
C3381 C3389 1.433 . S
C3382 H3378 0.929 . S
C3382 C3384 1.378 . S
C3382 C3386 1.350 . S
C3383 C3386 1.463 1_655 S
C3383 C3388 1.350 . S
C3383 N3391 1.427 . S
C3384 H3375 0.930 . S
C3384 C3382 1.378 . S
C3384 C3385 1.367 . S
C3385 C3384 1.367 . S
C3385 C3387 1.433 . S
C3386 C3382 1.350 . S
C3386 C3383 1.463 1_455 S
C3386 N3390 1.427 . S
C3387 H3377 0.929 . S
C3387 C3385 1.433 . S
C3387 N3390 1.384 . S
C3388 H3379 0.929 . S
C3388 C3380 1.378 . S
C3388 C3383 1.350 . S
C3389 H3376 0.929 . S
C3389 C3381 1.433 . S
C3389 N3391 1.384 . S
N3390 C3386 1.427 . S
N3390 C3387 1.384 . S
N3391 C3383 1.427 . S
N3391 C3389 1.384 . S
H3392 C3398 0.930 . S
H3393 C3402 0.930 . S
H3394 C3407 0.929 . S
H3395 C3405 0.929 . S
H3396 C3400 0.929 . S
H3397 C3406 0.929 . S
C3398 H3392 0.930 . S
C3398 C3399 1.367 . S
C3398 C3406 1.378 . S
C3399 C3398 1.367 . S
C3399 C3407 1.433 1_556 S
C3400 H3396 0.929 . S
C3400 C3402 1.378 . S
C3400 C3404 1.350 . S
C3401 C3404 1.463 1_556 S
C3401 C3406 1.350 . S
C3401 N3409 1.427 1_556 S
C3402 H3393 0.930 . S
C3402 C3400 1.378 . S
C3402 C3403 1.367 . S
C3403 C3402 1.367 . S
C3403 C3405 1.433 1_554 S
C3404 C3400 1.350 . S
C3404 C3401 1.463 1_554 S
C3404 N3408 1.427 1_554 S
C3405 H3395 0.929 . S
C3405 C3403 1.433 1_556 S
C3405 N3408 1.384 . S
C3406 H3397 0.929 . S
C3406 C3398 1.378 . S
C3406 C3401 1.350 . S
C3407 H3394 0.929 . S
C3407 C3399 1.433 1_554 S
C3407 N3409 1.384 . S
N3408 C3404 1.427 1_556 S
N3408 C3405 1.384 . S
N3409 C3401 1.427 1_554 S
N3409 C3407 1.384 . S
H3410 C3416 0.930 . S
H3411 C3420 0.930 . S
H3412 C3425 0.929 . S
H3413 C3423 0.929 . S
H3414 C3418 0.929 . S
H3415 C3424 0.929 . S
C3416 H3410 0.930 . S
C3416 C3417 1.367 . S
C3416 C3424 1.378 . S
C3417 C3416 1.367 . S
C3417 C3425 1.433 . S
C3418 H3414 0.929 . S
C3418 C3420 1.378 . S
C3418 C3422 1.350 . S
C3419 C3422 1.463 1_545 S
C3419 C3424 1.350 . S
C3419 N3427 1.427 . S
C3420 H3411 0.930 . S
C3420 C3418 1.378 . S
C3420 C3421 1.367 . S
C3421 C3420 1.367 . S
C3421 C3423 1.433 . S
C3422 C3418 1.350 . S
C3422 C3419 1.463 1_565 S
C3422 N3426 1.427 . S
C3423 H3413 0.929 . S
C3423 C3421 1.433 . S
C3423 N3426 1.384 . S
C3424 H3415 0.929 . S
C3424 C3416 1.378 . S
C3424 C3419 1.350 . S
C3425 H3412 0.929 . S
C3425 C3417 1.433 . S
C3425 N3427 1.384 . S
N3426 C3422 1.427 . S
N3426 C3423 1.384 . S
N3427 C3419 1.427 . S
N3427 C3425 1.384 . S
H3428 C3434 0.930 . S
H3429 C3438 0.930 . S
H3430 C3443 0.929 . S
H3431 C3441 0.929 . S
H3432 C3436 0.929 . S
H3433 C3442 0.929 . S
C3434 H3428 0.930 . S
C3434 C3435 1.367 . S
C3434 C3442 1.378 . S
C3435 C3434 1.367 . S
C3435 C3443 1.433 . S
C3436 H3432 0.929 . S
C3436 C3438 1.378 . S
C3436 C3440 1.350 . S
C3437 C3440 1.463 . S
C3437 C3442 1.350 . S
C3437 N3445 1.427 . S
C3438 H3429 0.930 . S
C3438 C3436 1.378 . S
C3438 C3439 1.367 . S
C3439 C3438 1.367 . S
C3439 C3441 1.433 . S
C3440 C3436 1.350 . S
C3440 C3437 1.463 . S
C3440 N3444 1.427 . S
C3441 H3431 0.929 . S
C3441 C3439 1.433 . S
C3441 N3444 1.384 . S
C3442 H3433 0.929 . S
C3442 C3434 1.378 . S
C3442 C3437 1.350 . S
C3443 H3430 0.929 . S
C3443 C3435 1.433 . S
C3443 N3445 1.384 . S
N3444 C3440 1.427 . S
N3444 C3441 1.384 . S
N3445 C3437 1.427 . S
N3445 C3443 1.384 . S
H3446 C3452 0.930 . S
H3447 C3456 0.930 . S
H3448 C3461 0.929 . S
H3449 C3459 0.929 . S
H3450 C3454 0.929 . S
H3451 C3460 0.929 . S
C3452 H3446 0.930 . S
C3452 C3453 1.367 . S
C3452 C3460 1.378 . S
C3453 C3452 1.367 . S
C3453 C3461 1.433 . S
C3454 H3450 0.929 . S
C3454 C3456 1.378 . S
C3454 C3458 1.350 . S
C3455 C3458 1.463 1_545 S
C3455 C3460 1.350 . S
C3455 N3463 1.427 . S
C3456 H3447 0.930 . S
C3456 C3454 1.378 . S
C3456 C3457 1.367 . S
C3457 C3456 1.367 . S
C3457 C3459 1.433 . S
C3458 C3454 1.350 . S
C3458 C3455 1.463 1_565 S
C3458 N3462 1.427 . S
C3459 H3449 0.929 . S
C3459 C3457 1.433 . S
C3459 N3462 1.384 . S
C3460 H3451 0.929 . S
C3460 C3452 1.378 . S
C3460 C3455 1.350 . S
C3461 H3448 0.929 . S
C3461 C3453 1.433 . S
C3461 N3463 1.384 . S
N3462 C3458 1.427 . S
N3462 C3459 1.384 . S
N3463 C3455 1.427 . S
N3463 C3461 1.384 . S
H3464 C3470 0.930 . S
H3465 C3474 0.930 . S
H3466 C3479 0.929 . S
H3467 C3477 0.929 . S
H3468 C3472 0.929 . S
H3469 C3478 0.929 . S
C3470 H3464 0.930 . S
C3470 C3471 1.367 . S
C3470 C3478 1.378 . S
C3471 C3470 1.367 . S
C3471 C3479 1.433 1_554 S
C3472 H3468 0.929 . S
C3472 C3474 1.378 . S
C3472 C3476 1.350 . S
C3473 C3476 1.463 1_554 S
C3473 C3478 1.350 . S
C3473 N3481 1.427 1_554 S
C3474 H3465 0.930 . S
C3474 C3472 1.378 . S
C3474 C3475 1.367 . S
C3475 C3474 1.367 . S
C3475 C3477 1.433 1_556 S
C3476 C3472 1.350 . S
C3476 C3473 1.463 1_556 S
C3476 N3480 1.427 1_556 S
C3477 H3467 0.929 . S
C3477 C3475 1.433 1_554 S
C3477 N3480 1.384 . S
C3478 H3469 0.929 . S
C3478 C3470 1.378 . S
C3478 C3473 1.350 . S
C3479 H3466 0.929 . S
C3479 C3471 1.433 1_556 S
C3479 N3481 1.384 . S
N3480 C3476 1.427 1_554 S
N3480 C3477 1.384 . S
N3481 C3473 1.427 1_556 S
N3481 C3479 1.384 . S
H3482 C3488 0.930 . S
H3483 C3492 0.930 . S
H3484 C3497 0.929 . S
H3485 C3495 0.929 . S
H3486 C3490 0.929 . S
H3487 C3496 0.929 . S
C3488 H3482 0.930 . S
C3488 C3489 1.367 . S
C3488 C3496 1.378 . S
C3489 C3488 1.367 . S
C3489 C3497 1.433 . S
C3490 H3486 0.929 . S
C3490 C3492 1.378 . S
C3490 C3494 1.350 . S
C3491 C3494 1.463 1_565 S
C3491 C3496 1.350 . S
C3491 N3499 1.427 . S
C3492 H3483 0.930 . S
C3492 C3490 1.378 . S
C3492 C3493 1.367 . S
C3493 C3492 1.367 . S
C3493 C3495 1.433 . S
C3494 C3490 1.350 . S
C3494 C3491 1.463 1_545 S
C3494 N3498 1.427 . S
C3495 H3485 0.929 . S
C3495 C3493 1.433 . S
C3495 N3498 1.384 . S
C3496 H3487 0.929 . S
C3496 C3488 1.378 . S
C3496 C3491 1.350 . S
C3497 H3484 0.929 . S
C3497 C3489 1.433 . S
C3497 N3499 1.384 . S
N3498 C3494 1.427 . S
N3498 C3495 1.384 . S
N3499 C3491 1.427 . S
N3499 C3497 1.384 . S
H3500 C3506 0.930 . S
H3501 C3510 0.930 . S
H3502 C3515 0.929 . S
H3503 C3513 0.929 . S
H3504 C3508 0.929 . S
H3505 C3514 0.929 . S
C3506 H3500 0.930 . S
C3506 C3507 1.367 . S
C3506 C3514 1.378 . S
C3507 C3506 1.367 . S
C3507 C3515 1.433 . S
C3508 H3504 0.929 . S
C3508 C3510 1.378 . S
C3508 C3512 1.350 . S
C3509 C3512 1.463 . S
C3509 C3514 1.350 . S
C3509 N3517 1.427 . S
C3510 H3501 0.930 . S
C3510 C3508 1.378 . S
C3510 C3511 1.367 . S
C3511 C3510 1.367 . S
C3511 C3513 1.433 . S
C3512 C3508 1.350 . S
C3512 C3509 1.463 . S
C3512 N3516 1.427 . S
C3513 H3503 0.929 . S
C3513 C3511 1.433 . S
C3513 N3516 1.384 . S
C3514 H3505 0.929 . S
C3514 C3506 1.378 . S
C3514 C3509 1.350 . S
C3515 H3502 0.929 . S
C3515 C3507 1.433 . S
C3515 N3517 1.384 . S
N3516 C3512 1.427 . S
N3516 C3513 1.384 . S
N3517 C3509 1.427 . S
N3517 C3515 1.384 . S
H3518 C3524 0.930 . S
H3519 C3528 0.930 . S
H3520 C3533 0.929 . S
H3521 C3531 0.929 . S
H3522 C3526 0.929 . S
H3523 C3532 0.929 . S
C3524 H3518 0.930 . S
C3524 C3525 1.367 . S
C3524 C3532 1.378 . S
C3525 C3524 1.367 . S
C3525 C3533 1.433 . S
C3526 H3522 0.929 . S
C3526 C3528 1.378 . S
C3526 C3530 1.350 . S
C3527 C3530 1.463 1_545 S
C3527 C3532 1.350 . S
C3527 N3535 1.427 . S
C3528 H3519 0.930 . S
C3528 C3526 1.378 . S
C3528 C3529 1.367 . S
C3529 C3528 1.367 . S
C3529 C3531 1.433 . S
C3530 C3526 1.350 . S
C3530 C3527 1.463 1_565 S
C3530 N3534 1.427 . S
C3531 H3521 0.929 . S
C3531 C3529 1.433 . S
C3531 N3534 1.384 . S
C3532 H3523 0.929 . S
C3532 C3524 1.378 . S
C3532 C3527 1.350 . S
C3533 H3520 0.929 . S
C3533 C3525 1.433 . S
C3533 N3535 1.384 . S
N3534 C3530 1.427 . S
N3534 C3531 1.384 . S
N3535 C3527 1.427 . S
N3535 C3533 1.384 . S
H3536 C3542 0.930 . S
H3537 C3546 0.930 . S
H3538 C3551 0.929 . S
H3539 C3549 0.929 . S
H3540 C3544 0.929 . S
H3541 C3550 0.929 . S
C3542 H3536 0.930 . S
C3542 C3543 1.367 . S
C3542 C3550 1.378 . S
C3543 C3542 1.367 . S
C3543 C3551 1.433 . S
C3544 H3540 0.929 . S
C3544 C3546 1.378 . S
C3544 C3548 1.350 . S
C3545 C3548 1.463 . S
C3545 C3550 1.350 . S
C3545 N3553 1.427 . S
C3546 H3537 0.930 . S
C3546 C3544 1.378 . S
C3546 C3547 1.367 . S
C3547 C3546 1.367 . S
C3547 C3549 1.433 . S
C3548 C3544 1.350 . S
C3548 C3545 1.463 . S
C3548 N3552 1.427 . S
C3549 H3539 0.929 . S
C3549 C3547 1.433 . S
C3549 N3552 1.384 . S
C3550 H3541 0.929 . S
C3550 C3542 1.378 . S
C3550 C3545 1.350 . S
C3551 H3538 0.929 . S
C3551 C3543 1.433 . S
C3551 N3553 1.384 . S
N3552 C3548 1.427 . S
N3552 C3549 1.384 . S
N3553 C3545 1.427 . S
N3553 C3551 1.384 . S
H3554 C3560 0.930 . S
H3555 C3564 0.930 . S
H3556 C3569 0.929 . S
H3557 C3567 0.929 . S
H3558 C3562 0.929 . S
H3559 C3568 0.929 . S
C3560 H3554 0.930 . S
C3560 C3561 1.367 . S
C3560 C3568 1.378 . S
C3561 C3560 1.367 . S
C3561 C3569 1.433 . S
C3562 H3558 0.929 . S
C3562 C3564 1.378 . S
C3562 C3566 1.350 . S
C3563 C3566 1.463 . S
C3563 C3568 1.350 . S
C3563 N3571 1.427 . S
C3564 H3555 0.930 . S
C3564 C3562 1.378 . S
C3564 C3565 1.367 . S
C3565 C3564 1.367 . S
C3565 C3567 1.433 . S
C3566 C3562 1.350 . S
C3566 C3563 1.463 . S
C3566 N3570 1.427 . S
C3567 H3557 0.929 . S
C3567 C3565 1.433 . S
C3567 N3570 1.384 . S
C3568 H3559 0.929 . S
C3568 C3560 1.378 . S
C3568 C3563 1.350 . S
C3569 H3556 0.929 . S
C3569 C3561 1.433 . S
C3569 N3571 1.384 . S
N3570 C3566 1.427 . S
N3570 C3567 1.384 . S
N3571 C3563 1.427 . S
N3571 C3569 1.384 . S
H3572 C3578 0.930 . S
H3573 C3582 0.930 . S
H3574 C3587 0.929 . S
H3575 C3585 0.929 . S
H3576 C3580 0.929 . S
H3577 C3586 0.929 . S
C3578 H3572 0.930 . S
C3578 C3579 1.367 1_556 S
C3578 C3586 1.378 . S
C3579 C3578 1.367 1_554 S
C3579 C3587 1.433 . S
C3580 H3576 0.929 . S
C3580 C3582 1.378 . S
C3580 C3584 1.350 1_554 S
C3581 C3584 1.463 1_554 S
C3581 C3586 1.350 1_554 S
C3581 N3589 1.427 . S
C3582 H3573 0.930 . S
C3582 C3580 1.378 . S
C3582 C3583 1.367 1_554 S
C3583 C3582 1.367 1_556 S
C3583 C3585 1.433 . S
C3584 C3580 1.350 1_556 S
C3584 C3581 1.463 1_556 S
C3584 N3588 1.427 . S
C3585 H3575 0.929 . S
C3585 C3583 1.433 . S
C3585 N3588 1.384 . S
C3586 H3577 0.929 . S
C3586 C3578 1.378 . S
C3586 C3581 1.350 1_556 S
C3587 H3574 0.929 . S
C3587 C3579 1.433 . S
C3587 N3589 1.384 . S
N3588 C3584 1.427 . S
N3588 C3585 1.384 . S
N3589 C3581 1.427 . S
N3589 C3587 1.384 . S
H3590 C3596 0.930 . S
H3591 C3600 0.930 . S
H3592 C3605 0.929 . S
H3593 C3603 0.929 . S
H3594 C3598 0.929 . S
H3595 C3604 0.929 . S
C3596 H3590 0.930 . S
C3596 C3597 1.367 . S
C3596 C3604 1.378 . S
C3597 C3596 1.367 . S
C3597 C3605 1.433 . S
C3598 H3594 0.929 . S
C3598 C3600 1.378 . S
C3598 C3602 1.350 . S
C3599 C3602 1.463 . S
C3599 C3604 1.350 . S
C3599 N3607 1.427 . S
C3600 H3591 0.930 . S
C3600 C3598 1.378 . S
C3600 C3601 1.367 . S
C3601 C3600 1.367 . S
C3601 C3603 1.433 . S
C3602 C3598 1.350 . S
C3602 C3599 1.463 . S
C3602 N3606 1.427 . S
C3603 H3593 0.929 . S
C3603 C3601 1.433 . S
C3603 N3606 1.384 . S
C3604 H3595 0.929 . S
C3604 C3596 1.378 . S
C3604 C3599 1.350 . S
C3605 H3592 0.929 . S
C3605 C3597 1.433 . S
C3605 N3607 1.384 . S
N3606 C3602 1.427 . S
N3606 C3603 1.384 . S
N3607 C3599 1.427 . S
N3607 C3605 1.384 . S
H3608 C3614 0.930 . S
H3609 C3618 0.930 . S
H3610 C3623 0.929 . S
H3611 C3621 0.929 . S
H3612 C3616 0.929 . S
H3613 C3622 0.929 . S
C3614 H3608 0.930 . S
C3614 C3615 1.367 . S
C3614 C3622 1.378 . S
C3615 C3614 1.367 . S
C3615 C3623 1.433 . S
C3616 H3612 0.929 . S
C3616 C3618 1.378 . S
C3616 C3620 1.350 . S
C3617 C3620 1.463 . S
C3617 C3622 1.350 . S
C3617 N3625 1.427 . S
C3618 H3609 0.930 . S
C3618 C3616 1.378 . S
C3618 C3619 1.367 . S
C3619 C3618 1.367 . S
C3619 C3621 1.433 . S
C3620 C3616 1.350 . S
C3620 C3617 1.463 . S
C3620 N3624 1.427 . S
C3621 H3611 0.929 . S
C3621 C3619 1.433 . S
C3621 N3624 1.384 . S
C3622 H3613 0.929 . S
C3622 C3614 1.378 . S
C3622 C3617 1.350 . S
C3623 H3610 0.929 . S
C3623 C3615 1.433 . S
C3623 N3625 1.384 . S
N3624 C3620 1.427 . S
N3624 C3621 1.384 . S
N3625 C3617 1.427 . S
N3625 C3623 1.384 . S
H3626 C3632 0.930 . S
H3627 C3636 0.930 . S
H3628 C3641 0.929 . S
H3629 C3639 0.929 . S
H3630 C3634 0.929 . S
H3631 C3640 0.929 . S
C3632 H3626 0.930 . S
C3632 C3633 1.367 . S
C3632 C3640 1.378 . S
C3633 C3632 1.367 . S
C3633 C3641 1.433 . S
C3634 H3630 0.929 . S
C3634 C3636 1.378 . S
C3634 C3638 1.350 . S
C3635 C3638 1.463 . S
C3635 C3640 1.350 . S
C3635 N3643 1.427 . S
C3636 H3627 0.930 . S
C3636 C3634 1.378 . S
C3636 C3637 1.367 . S
C3637 C3636 1.367 . S
C3637 C3639 1.433 . S
C3638 C3634 1.350 . S
C3638 C3635 1.463 . S
C3638 N3642 1.427 . S
C3639 H3629 0.929 . S
C3639 C3637 1.433 . S
C3639 N3642 1.384 . S
C3640 H3631 0.929 . S
C3640 C3632 1.378 . S
C3640 C3635 1.350 . S
C3641 H3628 0.929 . S
C3641 C3633 1.433 . S
C3641 N3643 1.384 . S
N3642 C3638 1.427 . S
N3642 C3639 1.384 . S
N3643 C3635 1.427 . S
N3643 C3641 1.384 . S
H3644 C3650 0.930 . S
H3645 C3654 0.930 . S
H3646 C3659 0.925 1_554 S
H3647 C3657 0.925 1_556 S
H3648 C3652 0.929 . S
H3649 C3658 0.929 . S
C3650 H3644 0.930 . S
C3650 C3651 1.367 . S
C3650 C3658 1.378 . S
C3651 C3650 1.367 . S
C3651 C3659 1.433 . S
C3652 H3648 0.929 . S
C3652 C3654 1.378 . S
C3652 C3656 1.350 . S
C3653 C3656 1.463 1_556 S
C3653 C3658 1.350 . S
C3653 N3661 1.427 1_556 S
C3654 H3645 0.930 . S
C3654 C3652 1.378 . S
C3654 C3655 1.367 . S
C3655 C3654 1.367 . S
C3655 C3657 1.433 . S
C3656 C3652 1.350 . S
C3656 C3653 1.463 1_554 S
C3656 N3660 1.427 1_554 S
C3657 H3647 0.925 1_554 S
C3657 C3655 1.433 . S
C3657 N3660 1.384 1_554 S
C3658 H3649 0.929 . S
C3658 C3650 1.378 . S
C3658 C3653 1.350 . S
C3659 H3646 0.925 1_556 S
C3659 C3651 1.433 . S
C3659 N3661 1.384 1_556 S
N3660 C3656 1.427 1_556 S
N3660 C3657 1.384 1_556 S
N3661 C3653 1.427 1_554 S
N3661 C3659 1.384 1_554 S
H3662 C3668 0.930 . S
H3663 C3672 0.930 . S
H3664 C3677 0.929 . S
H3665 C3675 0.929 . S
H3666 C3670 0.929 . S
H3667 C3676 0.929 . S
C3668 H3662 0.930 . S
C3668 C3669 1.367 . S
C3668 C3676 1.378 . S
C3669 C3668 1.367 . S
C3669 C3677 1.433 . S
C3670 H3666 0.929 . S
C3670 C3672 1.378 . S
C3670 C3674 1.350 . S
C3671 C3674 1.463 . S
C3671 C3676 1.350 . S
C3671 N3679 1.427 . S
C3672 H3663 0.930 . S
C3672 C3670 1.378 . S
C3672 C3673 1.367 . S
C3673 C3672 1.367 . S
C3673 C3675 1.433 . S
C3674 C3670 1.350 . S
C3674 C3671 1.463 . S
C3674 N3678 1.427 . S
C3675 H3665 0.929 . S
C3675 C3673 1.433 . S
C3675 N3678 1.384 . S
C3676 H3667 0.929 . S
C3676 C3668 1.378 . S
C3676 C3671 1.350 . S
C3677 H3664 0.929 . S
C3677 C3669 1.433 . S
C3677 N3679 1.384 . S
N3678 C3674 1.427 . S
N3678 C3675 1.384 . S
N3679 C3671 1.427 . S
N3679 C3677 1.384 . S
H3680 C3686 0.930 . S
H3681 C3690 0.930 . S
H3682 C3695 0.929 . S
H3683 C3693 0.929 . S
H3684 C3688 0.929 . S
H3685 C3694 0.929 . S
C3686 H3680 0.930 . S
C3686 C3687 1.367 . S
C3686 C3694 1.378 . S
C3687 C3686 1.367 . S
C3687 C3695 1.433 . S
C3688 H3684 0.929 . S
C3688 C3690 1.378 . S
C3688 C3692 1.350 . S
C3689 C3692 1.463 . S
C3689 C3694 1.350 . S
C3689 N3697 1.427 . S
C3690 H3681 0.930 . S
C3690 C3688 1.378 . S
C3690 C3691 1.367 . S
C3691 C3690 1.367 . S
C3691 C3693 1.433 . S
C3692 C3688 1.350 . S
C3692 C3689 1.463 . S
C3692 N3696 1.427 . S
C3693 H3683 0.929 . S
C3693 C3691 1.433 . S
C3693 N3696 1.384 . S
C3694 H3685 0.929 . S
C3694 C3686 1.378 . S
C3694 C3689 1.350 . S
C3695 H3682 0.929 . S
C3695 C3687 1.433 . S
C3695 N3697 1.384 . S
N3696 C3692 1.427 . S
N3696 C3693 1.384 . S
N3697 C3689 1.427 . S
N3697 C3695 1.384 . S
H3698 C3704 0.930 . S
H3699 C3708 0.930 . S
H3700 C3713 0.929 . S
H3701 C3711 0.929 . S
H3702 C3706 0.929 . S
H3703 C3712 0.929 . S
C3704 H3698 0.930 . S
C3704 C3705 1.367 . S
C3704 C3712 1.378 . S
C3705 C3704 1.367 . S
C3705 C3713 1.433 . S
C3706 H3702 0.929 . S
C3706 C3708 1.378 . S
C3706 C3710 1.350 . S
C3707 C3710 1.463 . S
C3707 C3712 1.350 . S
C3707 N3715 1.427 . S
C3708 H3699 0.930 . S
C3708 C3706 1.378 . S
C3708 C3709 1.367 . S
C3709 C3708 1.367 . S
C3709 C3711 1.433 . S
C3710 C3706 1.350 . S
C3710 C3707 1.463 . S
C3710 N3714 1.427 . S
C3711 H3701 0.929 . S
C3711 C3709 1.433 . S
C3711 N3714 1.384 . S
C3712 H3703 0.929 . S
C3712 C3704 1.378 . S
C3712 C3707 1.350 . S
C3713 H3700 0.929 . S
C3713 C3705 1.433 . S
C3713 N3715 1.384 . S
N3714 C3710 1.427 . S
N3714 C3711 1.384 . S
N3715 C3707 1.427 . S
N3715 C3713 1.384 . S
H3716 C3722 0.930 . S
H3717 C3726 0.930 . S
H3718 C3731 0.929 . S
H3719 C3729 0.929 . S
H3720 C3724 0.929 . S
H3721 C3730 0.929 . S
C3722 H3716 0.930 . S
C3722 C3723 1.367 . S
C3722 C3730 1.378 . S
C3723 C3722 1.367 . S
C3723 C3731 1.433 . S
C3724 H3720 0.929 . S
C3724 C3726 1.378 . S
C3724 C3728 1.350 . S
C3725 C3728 1.463 . S
C3725 C3730 1.350 . S
C3725 N3733 1.427 . S
C3726 H3717 0.930 . S
C3726 C3724 1.378 . S
C3726 C3727 1.367 . S
C3727 C3726 1.367 . S
C3727 C3729 1.433 . S
C3728 C3724 1.350 . S
C3728 C3725 1.463 . S
C3728 N3732 1.427 . S
C3729 H3719 0.929 . S
C3729 C3727 1.433 . S
C3729 N3732 1.384 . S
C3730 H3721 0.929 . S
C3730 C3722 1.378 . S
C3730 C3725 1.350 . S
C3731 H3718 0.929 . S
C3731 C3723 1.433 . S
C3731 N3733 1.384 . S
N3732 C3728 1.427 . S
N3732 C3729 1.384 . S
N3733 C3725 1.427 . S
N3733 C3731 1.384 . S
H3734 C3740 0.930 . S
H3735 C3744 0.930 . S
H3736 C3749 0.929 . S
H3737 C3747 0.929 . S
H3738 C3742 0.929 . S
H3739 C3748 0.929 . S
C3740 H3734 0.930 . S
C3740 C3741 1.367 . S
C3740 C3748 1.378 . S
C3741 C3740 1.367 . S
C3741 C3749 1.433 . S
C3742 H3738 0.929 . S
C3742 C3744 1.378 . S
C3742 C3746 1.350 . S
C3743 C3746 1.463 . S
C3743 C3748 1.350 . S
C3743 N3751 1.427 . S
C3744 H3735 0.930 . S
C3744 C3742 1.378 . S
C3744 C3745 1.367 . S
C3745 C3744 1.367 . S
C3745 C3747 1.433 . S
C3746 C3742 1.350 . S
C3746 C3743 1.463 . S
C3746 N3750 1.427 . S
C3747 H3737 0.929 . S
C3747 C3745 1.433 . S
C3747 N3750 1.384 . S
C3748 H3739 0.929 . S
C3748 C3740 1.378 . S
C3748 C3743 1.350 . S
C3749 H3736 0.929 . S
C3749 C3741 1.433 . S
C3749 N3751 1.384 . S
N3750 C3746 1.427 . S
N3750 C3747 1.384 . S
N3751 C3743 1.427 . S
N3751 C3749 1.384 . S
H3752 C3758 0.930 . S
H3753 C3762 0.930 . S
H3754 C3767 0.929 . S
H3755 C3765 0.929 . S
H3756 C3760 0.929 . S
H3757 C3766 0.929 . S
C3758 H3752 0.930 . S
C3758 C3759 1.367 . S
C3758 C3766 1.378 . S
C3759 C3758 1.367 . S
C3759 C3767 1.433 . S
C3760 H3756 0.929 . S
C3760 C3762 1.378 . S
C3760 C3764 1.350 . S
C3761 C3764 1.463 . S
C3761 C3766 1.350 . S
C3761 N3769 1.427 . S
C3762 H3753 0.930 . S
C3762 C3760 1.378 . S
C3762 C3763 1.367 . S
C3763 C3762 1.367 . S
C3763 C3765 1.433 . S
C3764 C3760 1.350 . S
C3764 C3761 1.463 . S
C3764 N3768 1.427 . S
C3765 H3755 0.929 . S
C3765 C3763 1.433 . S
C3765 N3768 1.384 . S
C3766 H3757 0.929 . S
C3766 C3758 1.378 . S
C3766 C3761 1.350 . S
C3767 H3754 0.929 . S
C3767 C3759 1.433 . S
C3767 N3769 1.384 . S
N3768 C3764 1.427 . S
N3768 C3765 1.384 . S
N3769 C3761 1.427 . S
N3769 C3767 1.384 . S
H3770 C3776 0.930 . S
H3771 C3780 0.930 . S
H3772 C3785 0.929 . S
H3773 C3783 0.929 . S
H3774 C3778 0.929 . S
H3775 C3784 0.929 . S
C3776 H3770 0.930 . S
C3776 C3777 1.367 . S
C3776 C3784 1.378 . S
C3777 C3776 1.367 . S
C3777 C3785 1.433 . S
C3778 H3774 0.929 . S
C3778 C3780 1.378 . S
C3778 C3782 1.350 . S
C3779 C3782 1.463 . S
C3779 C3784 1.350 . S
C3779 N3787 1.427 . S
C3780 H3771 0.930 . S
C3780 C3778 1.378 . S
C3780 C3781 1.367 . S
C3781 C3780 1.367 . S
C3781 C3783 1.433 . S
C3782 C3778 1.350 . S
C3782 C3779 1.463 . S
C3782 N3786 1.427 . S
C3783 H3773 0.929 . S
C3783 C3781 1.433 . S
C3783 N3786 1.384 . S
C3784 H3775 0.929 . S
C3784 C3776 1.378 . S
C3784 C3779 1.350 . S
C3785 H3772 0.929 . S
C3785 C3777 1.433 . S
C3785 N3787 1.384 . S
N3786 C3782 1.427 . S
N3786 C3783 1.384 . S
N3787 C3779 1.427 . S
N3787 C3785 1.384 . S
H3788 C3794 0.930 . S
H3789 C3798 0.930 . S
H3790 C3803 0.929 . S
H3791 C3801 0.929 . S
H3792 C3796 0.929 . S
H3793 C3802 0.929 . S
C3794 H3788 0.930 . S
C3794 C3795 1.367 . S
C3794 C3802 1.378 . S
C3795 C3794 1.367 . S
C3795 C3803 1.433 . S
C3796 H3792 0.929 . S
C3796 C3798 1.378 . S
C3796 C3800 1.350 . S
C3797 C3800 1.463 . S
C3797 C3802 1.350 . S
C3797 N3805 1.427 . S
C3798 H3789 0.930 . S
C3798 C3796 1.378 . S
C3798 C3799 1.367 . S
C3799 C3798 1.367 . S
C3799 C3801 1.433 . S
C3800 C3796 1.350 . S
C3800 C3797 1.463 . S
C3800 N3804 1.427 . S
C3801 H3791 0.929 . S
C3801 C3799 1.433 . S
C3801 N3804 1.384 . S
C3802 H3793 0.929 . S
C3802 C3794 1.378 . S
C3802 C3797 1.350 . S
C3803 H3790 0.929 . S
C3803 C3795 1.433 . S
C3803 N3805 1.384 . S
N3804 C3800 1.427 . S
N3804 C3801 1.384 . S
N3805 C3797 1.427 . S
N3805 C3803 1.384 . S
H3806 C3812 0.930 . S
H3807 C3816 0.930 . S
H3808 C3821 0.929 . S
H3809 C3819 0.929 . S
H3810 C3814 0.929 . S
H3811 C3820 0.929 . S
C3812 H3806 0.930 . S
C3812 C3813 1.367 . S
C3812 C3820 1.378 . S
C3813 C3812 1.367 . S
C3813 C3821 1.433 . S
C3814 H3810 0.929 . S
C3814 C3816 1.378 . S
C3814 C3818 1.350 . S
C3815 C3818 1.463 . S
C3815 C3820 1.350 . S
C3815 N3823 1.427 . S
C3816 H3807 0.930 . S
C3816 C3814 1.378 . S
C3816 C3817 1.367 . S
C3817 C3816 1.367 . S
C3817 C3819 1.433 . S
C3818 C3814 1.350 . S
C3818 C3815 1.463 . S
C3818 N3822 1.427 . S
C3819 H3809 0.929 . S
C3819 C3817 1.433 . S
C3819 N3822 1.384 . S
C3820 H3811 0.929 . S
C3820 C3812 1.378 . S
C3820 C3815 1.350 . S
C3821 H3808 0.929 . S
C3821 C3813 1.433 . S
C3821 N3823 1.384 . S
N3822 C3818 1.427 . S
N3822 C3819 1.384 . S
N3823 C3815 1.427 . S
N3823 C3821 1.384 . S
H3824 C3830 0.930 . S
H3825 C3834 0.930 . S
H3826 C3839 0.929 . S
H3827 C3837 0.929 . S
H3828 C3832 0.929 . S
H3829 C3838 0.929 . S
C3830 H3824 0.930 . S
C3830 C3831 1.367 . S
C3830 C3838 1.378 . S
C3831 C3830 1.367 . S
C3831 C3839 1.433 . S
C3832 H3828 0.929 . S
C3832 C3834 1.378 . S
C3832 C3836 1.350 . S
C3833 C3836 1.463 . S
C3833 C3838 1.350 . S
C3833 N3841 1.427 . S
C3834 H3825 0.930 . S
C3834 C3832 1.378 . S
C3834 C3835 1.367 . S
C3835 C3834 1.367 . S
C3835 C3837 1.433 . S
C3836 C3832 1.350 . S
C3836 C3833 1.463 . S
C3836 N3840 1.427 . S
C3837 H3827 0.929 . S
C3837 C3835 1.433 . S
C3837 N3840 1.384 . S
C3838 H3829 0.929 . S
C3838 C3830 1.378 . S
C3838 C3833 1.350 . S
C3839 H3826 0.929 . S
C3839 C3831 1.433 . S
C3839 N3841 1.384 . S
N3840 C3836 1.427 . S
N3840 C3837 1.384 . S
N3841 C3833 1.427 . S
N3841 C3839 1.384 . S
H3842 C3848 0.930 . S
H3843 C3852 0.930 . S
H3844 C3857 0.929 . S
H3845 C3855 0.929 . S
H3846 C3850 0.929 . S
H3847 C3856 0.929 . S
C3848 H3842 0.930 . S
C3848 C3849 1.367 . S
C3848 C3856 1.378 . S
C3849 C3848 1.367 . S
C3849 C3857 1.433 . S
C3850 H3846 0.929 . S
C3850 C3852 1.378 . S
C3850 C3854 1.350 . S
C3851 C3854 1.463 . S
C3851 C3856 1.350 . S
C3851 N3859 1.427 . S
C3852 H3843 0.930 . S
C3852 C3850 1.378 . S
C3852 C3853 1.367 . S
C3853 C3852 1.367 . S
C3853 C3855 1.433 . S
C3854 C3850 1.350 . S
C3854 C3851 1.463 . S
C3854 N3858 1.427 . S
C3855 H3845 0.929 . S
C3855 C3853 1.433 . S
C3855 N3858 1.384 . S
C3856 H3847 0.929 . S
C3856 C3848 1.378 . S
C3856 C3851 1.350 . S
C3857 H3844 0.929 . S
C3857 C3849 1.433 . S
C3857 N3859 1.384 . S
N3858 C3854 1.427 . S
N3858 C3855 1.384 . S
N3859 C3851 1.427 . S
N3859 C3857 1.384 . S
H3860 C3866 0.930 . S
H3861 C3870 0.930 . S
H3862 C3875 0.929 . S
H3863 C3873 0.929 . S
H3864 C3868 0.929 . S
H3865 C3874 0.929 . S
C3866 H3860 0.930 . S
C3866 C3867 1.367 . S
C3866 C3874 1.378 . S
C3867 C3866 1.367 . S
C3867 C3875 1.433 . S
C3868 H3864 0.929 . S
C3868 C3870 1.378 . S
C3868 C3872 1.350 . S
C3869 C3872 1.463 . S
C3869 C3874 1.350 . S
C3869 N3877 1.427 . S
C3870 H3861 0.930 . S
C3870 C3868 1.378 . S
C3870 C3871 1.367 . S
C3871 C3870 1.367 . S
C3871 C3873 1.433 . S
C3872 C3868 1.350 . S
C3872 C3869 1.463 . S
C3872 N3876 1.427 . S
C3873 H3863 0.929 . S
C3873 C3871 1.433 . S
C3873 N3876 1.384 . S
C3874 H3865 0.929 . S
C3874 C3866 1.378 . S
C3874 C3869 1.350 . S
C3875 H3862 0.929 . S
C3875 C3867 1.433 . S
C3875 N3877 1.384 . S
N3876 C3872 1.427 . S
N3876 C3873 1.384 . S
N3877 C3869 1.427 . S
N3877 C3875 1.384 . S
H3878 C3884 0.930 . S
H3879 C3888 0.930 . S
H3880 C3893 0.929 . S
H3881 C3891 0.929 . S
H3882 C3886 0.929 . S
H3883 C3892 0.929 . S
C3884 H3878 0.930 . S
C3884 C3885 1.367 . S
C3884 C3892 1.378 . S
C3885 C3884 1.367 . S
C3885 C3893 1.433 . S
C3886 H3882 0.929 . S
C3886 C3888 1.378 . S
C3886 C3890 1.350 . S
C3887 C3890 1.463 . S
C3887 C3892 1.350 . S
C3887 N3895 1.427 . S
C3888 H3879 0.930 . S
C3888 C3886 1.378 . S
C3888 C3889 1.367 . S
C3889 C3888 1.367 . S
C3889 C3891 1.433 . S
C3890 C3886 1.350 . S
C3890 C3887 1.463 . S
C3890 N3894 1.427 . S
C3891 H3881 0.929 . S
C3891 C3889 1.433 . S
C3891 N3894 1.384 . S
C3892 H3883 0.929 . S
C3892 C3884 1.378 . S
C3892 C3887 1.350 . S
C3893 H3880 0.929 . S
C3893 C3885 1.433 . S
C3893 N3895 1.384 . S
N3894 C3890 1.427 . S
N3894 C3891 1.384 . S
N3895 C3887 1.427 . S
N3895 C3893 1.384 . S
H3896 C3902 0.930 . S
H3897 C3906 0.930 . S
H3898 C3911 0.929 . S
H3899 C3909 0.929 . S
H3900 C3904 0.929 . S
H3901 C3910 0.929 . S
C3902 H3896 0.930 . S
C3902 C3903 1.367 . S
C3902 C3910 1.378 . S
C3903 C3902 1.367 . S
C3903 C3911 1.433 . S
C3904 H3900 0.929 . S
C3904 C3906 1.378 . S
C3904 C3908 1.350 . S
C3905 C3908 1.463 . S
C3905 C3910 1.350 . S
C3905 N3913 1.427 . S
C3906 H3897 0.930 . S
C3906 C3904 1.378 . S
C3906 C3907 1.367 . S
C3907 C3906 1.367 . S
C3907 C3909 1.433 . S
C3908 C3904 1.350 . S
C3908 C3905 1.463 . S
C3908 N3912 1.427 . S
C3909 H3899 0.929 . S
C3909 C3907 1.433 . S
C3909 N3912 1.384 . S
C3910 H3901 0.929 . S
C3910 C3902 1.378 . S
C3910 C3905 1.350 . S
C3911 H3898 0.929 . S
C3911 C3903 1.433 . S
C3911 N3913 1.384 . S
N3912 C3908 1.427 . S
N3912 C3909 1.384 . S
N3913 C3905 1.427 . S
N3913 C3911 1.384 . S
H3914 C3920 0.930 . S
H3915 C3924 0.930 . S
H3916 C3929 0.929 . S
H3917 C3927 0.929 . S
H3918 C3922 0.929 . S
H3919 C3928 0.929 . S
C3920 H3914 0.930 . S
C3920 C3921 1.367 . S
C3920 C3928 1.378 . S
C3921 C3920 1.367 . S
C3921 C3929 1.433 . S
C3922 H3918 0.929 . S
C3922 C3924 1.378 . S
C3922 C3926 1.350 . S
C3923 C3926 1.463 . S
C3923 C3928 1.350 . S
C3923 N3931 1.427 . S
C3924 H3915 0.930 . S
C3924 C3922 1.378 . S
C3924 C3925 1.367 . S
C3925 C3924 1.367 . S
C3925 C3927 1.433 . S
C3926 C3922 1.350 . S
C3926 C3923 1.463 . S
C3926 N3930 1.427 . S
C3927 H3917 0.929 . S
C3927 C3925 1.433 . S
C3927 N3930 1.384 . S
C3928 H3919 0.929 . S
C3928 C3920 1.378 . S
C3928 C3923 1.350 . S
C3929 H3916 0.929 . S
C3929 C3921 1.433 . S
C3929 N3931 1.384 . S
N3930 C3926 1.427 . S
N3930 C3927 1.384 . S
N3931 C3923 1.427 . S
N3931 C3929 1.384 . S
H3932 C3938 0.930 . S
H3933 C3942 0.930 . S
H3934 C3947 0.929 . S
H3935 C3945 0.929 . S
H3936 C3940 0.929 . S
H3937 C3946 0.929 . S
C3938 H3932 0.930 . S
C3938 C3939 1.367 . S
C3938 C3946 1.378 . S
C3939 C3938 1.367 . S
C3939 C3947 1.433 . S
C3940 H3936 0.929 . S
C3940 C3942 1.378 . S
C3940 C3944 1.350 . S
C3941 C3944 1.463 . S
C3941 C3946 1.350 . S
C3941 N3949 1.427 . S
C3942 H3933 0.930 . S
C3942 C3940 1.378 . S
C3942 C3943 1.367 . S
C3943 C3942 1.367 . S
C3943 C3945 1.433 . S
C3944 C3940 1.350 . S
C3944 C3941 1.463 . S
C3944 N3948 1.427 . S
C3945 H3935 0.929 . S
C3945 C3943 1.433 . S
C3945 N3948 1.384 . S
C3946 H3937 0.929 . S
C3946 C3938 1.378 . S
C3946 C3941 1.350 . S
C3947 H3934 0.929 . S
C3947 C3939 1.433 . S
C3947 N3949 1.384 . S
N3948 C3944 1.427 . S
N3948 C3945 1.384 . S
N3949 C3941 1.427 . S
N3949 C3947 1.384 . S
H3950 C3956 0.930 . S
H3951 C3960 0.930 . S
H3952 C3965 0.929 . S
H3953 C3963 0.929 . S
H3954 C3958 0.929 . S
H3955 C3964 0.929 . S
C3956 H3950 0.930 . S
C3956 C3957 1.367 . S
C3956 C3964 1.378 . S
C3957 C3956 1.367 . S
C3957 C3965 1.433 . S
C3958 H3954 0.929 . S
C3958 C3960 1.378 . S
C3958 C3962 1.350 . S
C3959 C3962 1.463 . S
C3959 C3964 1.350 . S
C3959 N3967 1.427 . S
C3960 H3951 0.930 . S
C3960 C3958 1.378 . S
C3960 C3961 1.367 . S
C3961 C3960 1.367 . S
C3961 C3963 1.433 . S
C3962 C3958 1.350 . S
C3962 C3959 1.463 . S
C3962 N3966 1.427 . S
C3963 H3953 0.929 . S
C3963 C3961 1.433 . S
C3963 N3966 1.384 . S
C3964 H3955 0.929 . S
C3964 C3956 1.378 . S
C3964 C3959 1.350 . S
C3965 H3952 0.929 . S
C3965 C3957 1.433 . S
C3965 N3967 1.384 . S
N3966 C3962 1.427 . S
N3966 C3963 1.384 . S
N3967 C3959 1.427 . S
N3967 C3965 1.384 . S
C2823 C733 1.567 . S
C2827 C57 1.565 . S
C2841 C2220 1.572 . S
C2845 C145 1.569 . S
C2859 C900 1.568 . S
C2863 C233 1.565 . S
C2877 C2405 1.569 . S
C2881 C284 1.566 . S
C2895 C1105 1.572 . S
C2899 C372 1.569 . S
C2913 C489 1.570 . S
C2917 C2609 1.572 . S
C2931 C557 1.567 . S
C2935 C1289 1.570 . S
C2949 C636 1.571 . S
C2953 C2777 1.573 . S
C2967 C1553 1.565 . S
C2971 C812 1.568 . S
C2985 C1701 1.564 . S
C2989 C988 1.567 . S
C3003 C1201 1.570 . S
C3007 C1897 1.567 . S
C3021 C1369 1.572 . S
C3025 C2044 1.570 . S
C3039 C1465 1.565 . S
C3043 C2141 1.568 . S
C3057 C2308 1.568 . S
C3061 C1641 1.566 . S
C3075 C1789 1.571 . S
C3079 C2513 1.573 . S
C3093 C2697 1.570 . S
C3097 C1956 1.568 . S
C3111 C1633 1.100 . S
C3115 C49 1.103 . S
C3129 C1692 1.102 . S
C3133 C137 1.108 . S
C3147 C225 1.100 . S
C3151 C1457 1.103 . S
C3165 C293 1.100 . S
C3169 C1545 1.103 . S
C3183 C1965 1.108 . S
C3187 C381 1.102 . S
C3201 C497 1.102 . S
C3205 C2053 1.109 . S
C3219 C1780 1.100 . S
C3223 C548 1.105 . S
C3237 C1905 1.110 . S
C3241 C645 1.104 . S
C3255 C753 1.095 . S
C3259 C2345 1.102 . S
C3273 C2425 1.095 . S
C3277 C849 1.103 . S
C3291 C937 1.100 . S
C3295 C2161 1.094 . S
C3309 C1025 1.098 . S
C3313 C2257 1.105 . S
C3327 C1085 1.103 . S
C3331 C2660 1.104 . S
C3345 C1164 1.102 . S
C3349 C2757 1.095 . S
C3363 C2493 1.101 . S
C3367 C1252 1.105 . S
C3381 C2572 1.096 . S
C3385 C1349 1.103 . S
C3399 C577 1.339 . S
C3403 C20 1.339 . S
C3417 C673 1.345 . S
C3421 C108 1.345 . S
C3435 C409 1.346 . S
C3439 C196 1.346 . S
C3453 C321 1.346 . S
C3457 C469 1.346 . S
C3471 C1281 1.338 . S
C3475 C724 1.338 . S
C3489 C1377 1.344 . S
C3493 C821 1.344 . S
C3507 C1113 1.341 . S
C3511 C909 1.342 . S
C3525 C1193 1.344 . S
C3529 C997 1.344 . S
C3543 C1993 1.346 . S
C3547 C1428 1.346 . S
C3561 C2081 1.339 . S
C3565 C1516 1.339 . S
C3579 C1604 1.345 . S
C3583 C1809 1.345 . S
C3597 C1721 1.346 . S
C3601 C1877 1.346 . S
C3615 C2689 1.342 . S
C3619 C2132 1.341 . S
C3633 C2785 1.344 . S
C3637 C2229 1.344 . S
C3651 C2317 1.340 . S
C3655 C2521 1.340 . S
C3669 C2396 1.338 . S
C3673 C2601 1.338 . S
C3687 C29 1.561 . S
C3691 C1868 1.561 . S
C3705 C1985 1.562 . S
C3709 C117 1.560 . S
C3723 C2073 1.560 . S
C3727 C205 1.557 . S
C3741 C313 1.559 . S
C3745 C1817 1.556 . S
C3759 C1729 1.562 . S
C3763 C401 1.559 . S
C3777 C460 1.559 . S
C3781 C1437 1.556 . S
C3795 C1525 1.560 . S
C3799 C585 1.557 . S
C3813 C665 1.555 . S
C3817 C1613 1.556 . S
C3831 C2581 1.569 . S
C3835 C761 1.570 . S
C3849 C2669 1.569 . S
C3853 C841 1.565 . S
C3867 C929 1.570 . S
C3871 C2748 1.566 . S
C3885 C2484 1.564 . S
C3889 C1017 1.568 . S
C3903 C2433 1.565 . S
C3907 C1076 1.569 . S
C3921 C1173 1.567 . S
C3925 C2169 1.563 . S
C3939 C2249 1.569 . S
C3943 C1261 1.570 . S
C3957 C1340 1.565 . S
C3961 C2337 1.569 . S
