# Generated by pormake.
# Topology und, (4)-cn, num edge types: 1
# Building blocks:
#     Node 0, Type 0, BuildingBlock: NAHDIM_clean_sbu_0, # of connection points: 4
#     Node 1, Type 0, BuildingBlock: NAHDIM_clean_sbu_0, # of connection points: 4
#     Node 2, Type 0, BuildingBlock: NAHDIM_clean_sbu_0, # of connection points: 4
#     Node 3, Type 0, BuildingBlock: NAHDIM_clean_sbu_0, # of connection points: 4
#     Node 4, Type 0, BuildingBlock: NAHDIM_clean_sbu_0, # of connection points: 4
#     Node 5, Type 0, BuildingBlock: NAHDIM_clean_sbu_0, # of connection points: 4
#     Node 6, Type 0, BuildingBlock: NAHDIM_clean_sbu_0, # of connection points: 4
#     Node 7, Type 0, BuildingBlock: NAHDIM_clean_sbu_0, # of connection points: 4
#     Node 8, Type 0, BuildingBlock: NAHDIM_clean_sbu_0, # of connection points: 4
#     Node 9, Type 0, BuildingBlock: NAHDIM_clean_sbu_0, # of connection points: 4
#     Node 10, Type 0, BuildingBlock: NAHDIM_clean_sbu_0, # of connection points: 4
#     Node 11, Type 0, BuildingBlock: NAHDIM_clean_sbu_0, # of connection points: 4
#     Node 12, Type 0, BuildingBlock: NAHDIM_clean_sbu_0, # of connection points: 4
#     Node 13, Type 0, BuildingBlock: NAHDIM_clean_sbu_0, # of connection points: 4
#     Node 14, Type 0, BuildingBlock: NAHDIM_clean_sbu_0, # of connection points: 4
#     Node 15, Type 0, BuildingBlock: NAHDIM_clean_sbu_0, # of connection points: 4
#     Edge 16, Type (0, 0), BuildingBlock: XUDNAN_clean_linker_2, # of connection points: 2
#     Edge 17, Type (0, 0), BuildingBlock: XUDNAN_clean_linker_2, # of connection points: 2
#     Edge 18, Type (0, 0), BuildingBlock: XUDNAN_clean_linker_2, # of connection points: 2
#     Edge 19, Type (0, 0), BuildingBlock: XUDNAN_clean_linker_2, # of connection points: 2
#     Edge 20, Type (0, 0), BuildingBlock: XUDNAN_clean_linker_2, # of connection points: 2
#     Edge 21, Type (0, 0), BuildingBlock: XUDNAN_clean_linker_2, # of connection points: 2
#     Edge 22, Type (0, 0), BuildingBlock: XUDNAN_clean_linker_2, # of connection points: 2
#     Edge 23, Type (0, 0), BuildingBlock: XUDNAN_clean_linker_2, # of connection points: 2
#     Edge 24, Type (0, 0), BuildingBlock: XUDNAN_clean_linker_2, # of connection points: 2
#     Edge 25, Type (0, 0), BuildingBlock: XUDNAN_clean_linker_2, # of connection points: 2
#     Edge 26, Type (0, 0), BuildingBlock: XUDNAN_clean_linker_2, # of connection points: 2
#     Edge 27, Type (0, 0), BuildingBlock: XUDNAN_clean_linker_2, # of connection points: 2
#     Edge 28, Type (0, 0), BuildingBlock: XUDNAN_clean_linker_2, # of connection points: 2
#     Edge 29, Type (0, 0), BuildingBlock: XUDNAN_clean_linker_2, # of connection points: 2
#     Edge 30, Type (0, 0), BuildingBlock: XUDNAN_clean_linker_2, # of connection points: 2
#     Edge 31, Type (0, 0), BuildingBlock: XUDNAN_clean_linker_2, # of connection points: 2
#     Edge 32, Type (0, 0), BuildingBlock: XUDNAN_clean_linker_2, # of connection points: 2
#     Edge 33, Type (0, 0), BuildingBlock: XUDNAN_clean_linker_2, # of connection points: 2
#     Edge 34, Type (0, 0), BuildingBlock: XUDNAN_clean_linker_2, # of connection points: 2
#     Edge 35, Type (0, 0), BuildingBlock: XUDNAN_clean_linker_2, # of connection points: 2
#     Edge 36, Type (0, 0), BuildingBlock: XUDNAN_clean_linker_2, # of connection points: 2
#     Edge 37, Type (0, 0), BuildingBlock: XUDNAN_clean_linker_2, # of connection points: 2
#     Edge 38, Type (0, 0), BuildingBlock: XUDNAN_clean_linker_2, # of connection points: 2
#     Edge 39, Type (0, 0), BuildingBlock: XUDNAN_clean_linker_2, # of connection points: 2
#     Edge 40, Type (0, 0), BuildingBlock: XUDNAN_clean_linker_2, # of connection points: 2
#     Edge 41, Type (0, 0), BuildingBlock: XUDNAN_clean_linker_2, # of connection points: 2
#     Edge 42, Type (0, 0), BuildingBlock: XUDNAN_clean_linker_2, # of connection points: 2
#     Edge 43, Type (0, 0), BuildingBlock: XUDNAN_clean_linker_2, # of connection points: 2
#     Edge 44, Type (0, 0), BuildingBlock: XUDNAN_clean_linker_2, # of connection points: 2
#     Edge 45, Type (0, 0), BuildingBlock: XUDNAN_clean_linker_2, # of connection points: 2
#     Edge 46, Type (0, 0), BuildingBlock: XUDNAN_clean_linker_2, # of connection points: 2
#     Edge 47, Type (0, 0), BuildingBlock: XUDNAN_clean_linker_2, # of connection points: 2
# Relax obj value: 0.114
# Max RMSD: 0.175
# Mean RMSD: 0.175
data_MOF--net-und--node1-NAHDIM_clean_sbu_0--edge1-XUDNAN_clean_linker_2
_symmetry_space_group_name_H-M    P1
_symmetry_Int_Tables_number       1
_symmetry_cell_setting            triclinic
loop_
_symmetry_equiv_pos_as_xyz
'x, y, z'
_cell_length_a     59.867809
_cell_length_b     59.844856
_cell_length_c     21.405713
_cell_angle_alpha  89.945617
_cell_angle_beta   90.072285
_cell_angle_gamma 96.790464
loop_
_atom_site_label
_atom_site_type_symbol
_atom_site_fract_x
_atom_site_fract_y
_atom_site_fract_z
_atom_type_partial_charge
C0 C 0.20146 0.37572 0.13912 0.0
O1 O 0.22076 0.38203 0.1669 0.0
O2 O 0.23888 0.33428 0.16678 0.0
Zn3 Zn 0.23045 0.34861 0.08698 0.0
O4 O 0.253 0.37484 0.06347 0.0
C5 C 0.22839 0.3044 0.03402 0.0
O6 O 0.22214 0.29828 0.09091 0.0
O7 O 0.20053 0.36005 0.09883 0.0
C8 C 0.27059 0.37206 0.0327 0.0
O9 O 0.27467 0.35155 0.01883 0.0
C10 C 0.25512 0.34065 0.20323 0.0
O11 O 0.26828 0.3593 0.19117 0.0
O12 O 0.23086 0.32519 0.01997 0.0
C13 C 0.87032 0.06215 0.25652 0.0
O14 O 0.87046 0.04537 0.21703 0.0
O15 O 0.9238 0.04236 0.23359 0.0
Zn16 Zn 0.90374 0.03881 0.30876 0.0
O17 O 0.88521 0.00851 0.31209 0.0
C18 C 0.94136 0.05323 0.39252 0.0
O19 O 0.9491 0.06661 0.34679 0.0
O20 O 0.88334 0.06302 0.30363 0.0
C21 C 0.89316 0.9922 0.33891 0.0
O22 O 0.91402 0.995 0.35917 0.0
C23 C 0.9415 0.03287 0.22621 0.0
O24 O 0.94707 0.01862 0.26856 0.0
O25 O 0.92243 0.04141 0.38659 0.0
C26 C 0.30859 0.65905 0.52087 0.0
O27 O 0.29125 0.66037 0.55767 0.0
O28 O 0.28438 0.71251 0.51005 0.0
Zn29 Zn 0.28377 0.68705 0.44831 0.0
O30 O 0.25391 0.66762 0.45015 0.0
C31 C 0.28458 0.72075 0.35205 0.0
O32 O 0.28589 0.73435 0.40034 0.0
O33 O 0.30922 0.66902 0.4683 0.0
C34 C 0.23667 0.67735 0.43757 0.0
O35 O 0.23912 0.69926 0.42917 0.0
C36 C 0.27116 0.71312 0.55619 0.0
O37 O 0.25625 0.6957 0.56782 0.0
O38 O 0.28552 0.69986 0.36091 0.0
C39 C 0.6006 0.97341 0.66965 0.0
O40 O 0.59601 0.98443 0.619 0.0
O41 O 0.55103 0.99577 0.63996 0.0
Zn42 Zn 0.57094 0.00202 0.71475 0.0
O43 O 0.59011 0.03194 0.71339 0.0
C44 C 0.53863 0.01954 0.78386 0.0
O45 O 0.54191 0.03323 0.73589 0.0
O46 O 0.59124 0.97776 0.72075 0.0
C47 C 0.60225 0.0349 0.76214 0.0
O48 O 0.60167 0.01849 0.80316 0.0
C49 C 0.54615 0.00992 0.5995 0.0
O50 O 0.55554 0.03087 0.60286 0.0
O51 O 0.55011 0.00302 0.78783 0.0
C52 C 0.76393 0.6413 0.92468 0.0
O53 O 0.74645 0.64265 0.88827 0.0
O54 O 0.7345 0.687 0.91178 0.0
Zn55 Zn 0.73986 0.67057 0.99091 0.0
O56 O 0.7117 0.65132 0.01665 0.0
C57 C 0.75475 0.71383 0.0442 0.0
O58 O 0.76147 0.71853 0.98678 0.0
O59 O 0.76517 0.65199 0.97609 0.0
C60 C 0.71195 0.63868 0.06429 0.0
O61 O 0.73107 0.63741 0.09354 0.0
C62 C 0.71682 0.69644 0.90391 0.0
O63 O 0.70116 0.69434 0.94718 0.0
O64 O 0.74655 0.69385 0.05771 0.0
C65 C 0.08811 0.98541 0.85007 0.0
O66 O 0.06699 0.98593 0.86608 0.0
O67 O 0.06585 0.03585 0.89297 0.0
Zn68 Zn 0.08381 0.03087 0.81636 0.0
O69 O 0.10604 0.05812 0.80031 0.0
C70 C 0.05962 0.0414 0.70432 0.0
O71 O 0.074 0.05975 0.70337 0.0
O72 O 0.09909 0.00298 0.82707 0.0
C73 C 0.12216 0.05788 0.76188 0.0
O74 O 0.1251 0.03898 0.73359 0.0
C75 C 0.05382 0.05195 0.89131 0.0
O76 O 0.05505 0.06522 0.8422 0.0
O77 O 0.06137 0.02664 0.74623 0.0
C78 C 0.73011 0.3829 0.46522 0.0
O79 O 0.74639 0.3891 0.42548 0.0
O80 O 0.76215 0.34012 0.41701 0.0
Zn81 Zn 0.76239 0.35505 0.50133 0.0
O82 O 0.78873 0.37867 0.51306 0.0
C83 C 0.75265 0.31589 0.58726 0.0
O84 O 0.73371 0.3104 0.55689 0.0
O85 O 0.73326 0.36846 0.50693 0.0
C86 C 0.80804 0.37184 0.51442 0.0
O87 O 0.80981 0.3508 0.49977 0.0
C88 C 0.76516 0.31969 0.40849 0.0
O89 O 0.77101 0.30772 0.45594 0.0
O90 O 0.76565 0.33318 0.57087 0.0
C91 C 0.37747 0.0565 0.29921 0.0
O92 O 0.37299 0.0376 0.33047 0.0
O93 O 0.41747 0.01753 0.28729 0.0
Zn94 Zn 0.39764 0.0271 0.21925 0.0
O95 O 0.3708 0.0045 0.20067 0.0
C96 C 0.43294 0.02112 0.1331 0.0
O97 O 0.43748 0.00633 0.17519 0.0
O98 O 0.38761 0.05625 0.24718 0.0
C99 C 0.37298 0.98583 0.17446 0.0
O100 O 0.39323 0.98069 0.16205 0.0
C101 C 0.41739 -0.00145 0.31383 0.0
O102 O 0.4021 0.98187 0.29861 0.0
O103 O 0.41641 0.03228 0.1417 0.0
C104 C 0.71332 0.87324 0.56468 0.0
O105 O 0.72853 0.86546 0.60036 0.0
O106 O 0.72953 0.8217 0.54973 0.0
Zn107 Zn 0.73434 0.84613 0.4854 0.0
O108 O 0.76538 0.86293 0.48661 0.0
C109 C 0.72321 0.81233 0.39029 0.0
O110 O 0.71588 0.79975 0.43801 0.0
O111 O 0.71228 0.86768 0.5073 0.0
C112 C 0.76746 0.87905 0.44753 0.0
O113 O 0.7498 0.88303 0.41465 0.0
C114 C 0.74213 0.80723 0.56693 0.0
O115 O 0.76209 0.80717 0.54158 0.0
O116 O 0.73014 0.83297 0.39922 0.0
C117 C 0.41035 0.56228 0.71534 0.0
O118 O 0.42882 0.55534 0.69345 0.0
O119 O 0.42498 0.50846 0.71975 0.0
Zn120 Zn 0.41039 0.52271 0.79192 0.0
O121 O 0.38348 0.50309 0.82602 0.0
C122 C 0.45403 0.53295 0.84971 0.0
O123 O 0.4601 0.53917 0.79273 0.0
O124 O 0.40017 0.55168 0.76053 0.0
C125 C 0.38047 0.48174 0.82255 0.0
O126 O 0.39504 0.47114 0.79207 0.0
C127 C 0.4388 0.4941 0.72718 0.0
O128 O 0.44207 0.48628 0.78341 0.0
O129 O 0.43334 0.52704 0.86112 0.0
C130 C 0.77337 0.16933 0.08894 0.0
O131 O 0.77089 0.18988 0.1067 0.0
O132 O 0.73005 0.20052 0.06689 0.0
Zn133 Zn 0.73859 0.17823 0.00362 0.0
O134 O 0.71191 0.15747 0.97318 0.0
C135 C 0.76784 0.21102 0.93151 0.0
O136 O 0.77893 0.21478 0.98416 0.0
O137 O 0.76159 0.16059 0.0437 0.0
C138 C 0.69989 0.16421 0.92955 0.0
O139 O 0.70426 0.18497 0.90912 0.0
C140 C 0.72544 0.22004 0.05222 0.0
O141 O 0.72298 0.22505 0.99304 0.0
O142 O 0.75136 0.19562 0.92927 0.0
C143 C 0.09377 0.47656 0.27795 0.0
O144 O 0.07197 0.47623 0.27017 0.0
O145 O 0.06251 0.52371 0.28573 0.0
Zn146 Zn 0.09062 0.52022 0.33447 0.0
O147 O 0.11295 0.54795 0.3309 0.0
C148 C 0.06186 0.50651 0.43625 0.0
O149 O 0.05003 0.49596 0.39114 0.0
O150 O 0.10482 0.49334 0.30474 0.0
C151 C 0.10645 0.56695 0.3427 0.0
O152 O 0.08492 0.56818 0.35172 0.0
C153 C 0.06067 0.52471 0.22678 0.0
O154 O 0.07867 0.52459 0.19182 0.0
O155 O 0.08108 0.51686 0.42374 0.0
C156 C 0.32075 0.17974 0.52835 0.0
O157 O 0.32247 0.20141 0.51647 0.0
O158 O 0.2812 0.21707 0.54696 0.0
Zn159 Zn 0.28291 0.18989 0.6011 0.0
O160 O 0.25296 0.17095 0.60492 0.0
C161 C 0.2936 0.22105 0.70156 0.0
O162 O 0.29895 0.23514 0.65539 0.0
O163 O 0.30575 0.17123 0.56622 0.0
C164 C 0.23696 0.17939 0.63161 0.0
O165 O 0.24024 0.20045 0.65016 0.0
C166 C 0.2678 0.21836 0.50152 0.0
O167 O 0.25346 0.2008 0.48687 0.0
O168 O 0.28894 0.20023 0.68954 0.0
C169 C 0.596 0.45145 0.33825 0.0
O170 O 0.57502 0.44763 0.35712 0.0
O171 O 0.559 0.48975 0.36246 0.0
Zn172 Zn 0.58032 0.49149 0.28933 0.0
O173 O 0.59845 0.52193 0.2812 0.0
C174 C 0.54284 0.48507 0.2004 0.0
O175 O 0.53001 0.48301 0.25026 0.0
O176 O 0.60199 0.46873 0.30498 0.0
C177 C 0.59004 0.53726 0.2511 0.0
O178 O 0.56898 0.53362 0.23283 0.0
C179 C 0.54479 0.50292 0.3778 0.0
O180 O 0.54279 0.52085 0.3438 0.0
O181 O 0.56408 0.48658 0.20681 0.0
C182 C 0.19091 0.87117 0.90479 0.0
O183 O 0.20995 0.87826 0.8767 0.0
O184 O 0.23035 0.8301 0.87328 0.0
Zn185 Zn 0.22064 0.84365 0.95296 0.0
O186 O 0.24182 0.87041 0.97974 0.0
C187 C 0.2206 0.79945 0.00578 0.0
O188 O 0.21605 0.79311 0.94796 0.0
O189 O 0.19038 0.85448 0.94178 0.0
C190 C 0.26148 0.86894 0.00043 0.0
O191 O 0.26916 0.84926 0.0013 0.0
C192 C 0.24736 0.83671 0.83984 0.0
O193 O 0.26004 0.85543 0.85419 0.0
O194 O 0.2215 0.82018 0.01981 0.0
C195 C 0.89148 0.55426 0.86887 0.0
O196 O 0.90431 0.55521 0.91883 0.0
O197 O 0.9326 0.51489 0.90598 0.0
Zn198 Zn 0.91633 0.51744 0.82487 0.0
O199 O 0.89986 0.48814 0.79574 0.0
C200 C 0.95969 0.53489 0.7752 0.0
O201 O 0.96358 0.54237 0.83232 0.0
O202 O 0.89435 0.54027 0.82585 0.0
C203 C 0.91076 0.47344 0.77108 0.0
O204 O 0.93286 0.47651 0.77226 0.0
C205 C 0.92586 0.51121 0.96162 0.0
O206 O 0.90421 0.50772 0.9735 0.0
O207 O 0.94024 0.52544 0.7609 0.0
H208 H 0.2337 0.299 0.23076 0.0
H209 H 0.28714 0.34913 0.29512 0.0
H210 H 0.29552 0.32361 0.38088 0.0
H211 H 0.2146 0.27845 0.38286 0.0
H212 H 0.20911 0.24968 0.35684 0.0
H213 H 0.20677 0.27237 0.30276 0.0
H214 H 0.23512 0.25631 0.22861 0.0
H215 H 0.23761 0.23362 0.28247 0.0
H216 H 0.26239 0.25153 0.25797 0.0
H217 H 0.29862 0.29206 0.45748 0.0
H218 H 0.29652 0.25696 0.51879 0.0
H219 H 0.24127 0.22756 0.40229 0.0
C220 C 0.24704 0.30478 0.26315 0.0
C221 C 0.25973 0.32611 0.25641 0.0
C222 C 0.27718 0.33288 0.2995 0.0
C223 C 0.28204 0.31852 0.34832 0.0
C224 C 0.2693 0.29751 0.35314 0.0
C225 C 0.25216 0.29069 0.3117 0.0
C226 C 0.24143 0.26705 0.32562 0.0
C227 C 0.2165 0.26689 0.34307 0.0
C228 C 0.24433 0.2512 0.27039 0.0
C229 C 0.25531 0.2615 0.38131 0.0
C230 C 0.27123 0.27932 0.39665 0.0
C231 C 0.28618 0.27804 0.44601 0.0
C232 C 0.28485 0.25801 0.4805 0.0
C233 C 0.26872 0.23949 0.46533 0.0
C234 C 0.25376 0.24139 0.41512 0.0
H235 H 0.98288 0.07543 0.4225 0.0
H236 H 0.93237 0.02193 0.48479 0.0
H237 H 0.95743 0.01288 0.57 0.0
H238 H 0.03064 0.04696 0.45203 0.0
H239 H 0.04818 0.07151 0.47971 0.0
H240 H 0.02607 0.07451 0.42431 0.0
H241 H 0.00897 0.10198 0.49906 0.0
H242 H 0.03118 0.09927 0.5544 0.0
H243 H 0.00221 0.09335 0.5782 0.0
H244 H 0.98843 0.00814 0.64466 0.0
H245 H 0.02238 0.01031 0.7107 0.0
H246 H 0.05252 0.06746 0.60226 0.0
C247 C 0.977 0.06197 0.45444 0.0
C248 C 0.95567 0.0494 0.44687 0.0
C249 C 0.94861 0.03188 0.48966 0.0
C250 C 0.96275 0.02652 0.53813 0.0
C251 C 0.98382 0.03893 0.54353 0.0
C252 C 0.99085 0.05648 0.50347 0.0
C253 C 0.01432 0.06716 0.51991 0.0
C254 C 0.03077 0.06489 0.46576 0.0
C255 C 0.01415 0.0919 0.53905 0.0
C256 C 0.0194 0.05273 0.57512 0.0
C257 C 0.00162 0.03647 0.58764 0.0
C258 C 0.00244 0.02089 0.63566 0.0
C259 C 0.02184 0.0222 0.67269 0.0
C260 C 0.04008 0.03908 0.66171 0.0
C261 C 0.03884 0.05441 0.61192 0.0
H262 H 0.2423 0.72206 0.64976 0.0
H263 H 0.30102 0.75136 0.54662 0.0
H264 H 0.30094 0.78667 0.6061 0.0
H265 H 0.21473 0.77191 0.65592 0.0
H266 H 0.20395 0.76651 0.73376 0.0
H267 H 0.20886 0.74339 0.68384 0.0
H268 H 0.23473 0.72879 0.7681 0.0
H269 H 0.22978 0.75178 0.81842 0.0
H270 H 0.25815 0.74741 0.79816 0.0
H271 H 0.29445 0.81888 0.67752 0.0
H272 H 0.2823 0.84506 0.7566 0.0
H273 H 0.2275 0.79459 0.81024 0.0
C274 C 0.25523 0.73583 0.63986 0.0
C275 C 0.27169 0.73392 0.59364 0.0
C276 C 0.28824 0.75242 0.5819 0.0
C277 C 0.28833 0.77256 0.61535 0.0
C278 C 0.27173 0.77396 0.6602 0.0
C279 C 0.25552 0.75607 0.67255 0.0
C280 C 0.23949 0.76189 0.72289 0.0
C281 C 0.21533 0.76087 0.69756 0.0
C282 C 0.24062 0.74656 0.78028 0.0
C283 C 0.24924 0.78582 0.73702 0.0
C284 C 0.26783 0.79252 0.7005 0.0
C285 C 0.27986 0.81384 0.70629 0.0
C286 C 0.27283 0.8286 0.7512 0.0
C287 C 0.25392 0.82193 0.78945 0.0
C288 C 0.24194 0.80032 0.78153 0.0
H289 H 0.46702 0.99736 0.09649 0.0
H290 H 0.43025 0.05259 0.04127 0.0
H291 H 0.45363 0.05827 0.94638 0.0
H292 H 0.52142 0.02177 0.04333 0.0
H293 H 0.52962 0.99541 0.01631 0.0
H294 H 0.51011 0.99577 0.08018 0.0
H295 H 0.48117 0.96802 0.02037 0.0
H296 H 0.50058 0.96756 0.95633 0.0
H297 H 0.4727 0.97504 0.94262 0.0
H298 H 0.4809 0.05806 0.85838 0.0
H299 H 0.50988 0.05161 0.78114 0.0
H300 H 0.52866 0.99613 0.89297 0.0
C301 C 0.46389 0.01069 0.06455 0.0
C302 C 0.44685 0.02458 0.07629 0.0
C303 C 0.44322 0.04175 0.03319 0.0
C304 C 0.45642 0.04513 0.97924 0.0
C305 C 0.47308 0.03114 0.96914 0.0
C306 C 0.47683 0.01423 0.01043 0.0
C307 C 0.49564 0.00139 0.98821 0.0
C308 C 0.51537 0.00374 0.03478 0.0
C309 C 0.487 0.97653 0.97616 0.0
C310 C 0.5019 0.01375 0.92789 0.0
C311 C 0.48871 0.03088 0.91794 0.0
C312 C 0.49134 0.0447 0.86558 0.0
C313 C 0.50787 0.04089 0.82202 0.0
C314 C 0.52153 0.02334 0.83101 0.0
C315 C 0.51846 0.00964 0.88476 0.0
H316 H 0.23604 0.8083 0.12473 0.0
H317 H 0.22313 0.7544 0.98903 0.0
H318 H 0.23978 0.72861 0.061 0.0
H319 H 0.28915 0.79437 0.17613 0.0
H320 H 0.28482 0.80145 0.25669 0.0
H321 H 0.27118 0.81549 0.19554 0.0
H322 H 0.23227 0.80338 0.24601 0.0
H323 H 0.24583 0.78963 0.30786 0.0
H324 H 0.22389 0.77403 0.26246 0.0
H325 H 0.25869 0.70896 0.14734 0.0
H326 H 0.27569 0.69628 0.24447 0.0
H327 H 0.2766 0.76346 0.32171 0.0
C328 C 0.23644 0.79101 0.11031 0.0
C329 C 0.22823 0.78336 0.05127 0.0
C330 C 0.22924 0.76063 0.03414 0.0
C331 C 0.23877 0.74588 0.07455 0.0
C332 C 0.2472 0.75414 0.13179 0.0
C333 C 0.24594 0.77612 0.14985 0.0
C334 C 0.25621 0.78088 0.21373 0.0
C335 C 0.27655 0.79913 0.21027 0.0
C336 C 0.23849 0.78735 0.26026 0.0
C337 C 0.26342 0.75812 0.22894 0.0
C338 C 0.25819 0.74293 0.18105 0.0
C339 C 0.26289 0.72071 0.18513 0.0
C340 C 0.27265 0.7137 0.24036 0.0
C341 C 0.27754 0.72888 0.29068 0.0
C342 C 0.27322 0.75146 0.28406 0.0
H343 H 0.45005 0.03046 0.35712 0.0
H344 H 0.42605 0.95924 0.37067 0.0
H345 H 0.4577 0.95401 0.4416 0.0
H346 H 0.50905 0.02486 0.35683 0.0
H347 H 0.51648 0.04978 0.40311 0.0
H348 H 0.4921 0.0478 0.35313 0.0
H349 H 0.46708 0.05554 0.44763 0.0
H350 H 0.4914 0.05775 0.49779 0.0
H351 H 0.46715 0.03804 0.51622 0.0
H352 H 0.49188 0.95682 0.5113 0.0
H353 H 0.52475 0.96759 0.57896 0.0
H354 H 0.52607 0.03706 0.51872 0.0
C355 C 0.45137 0.01372 0.3749 0.0
C356 C 0.43559 0.99522 0.3583 0.0
C357 C 0.43793 0.97365 0.38287 0.0
C358 C 0.45589 0.97051 0.42292 0.0
C359 C 0.47126 0.98912 0.43775 0.0
C360 C 0.46909 0.01031 0.41474 0.0
C361 C 0.48754 0.02765 0.43869 0.0
C362 C 0.50216 0.03813 0.38471 0.0
C363 C 0.4777 0.04581 0.47739 0.0
C364 C 0.50043 0.01294 0.47927 0.0
C365 C 0.49086 0.99075 0.47783 0.0
C366 C 0.49954 0.97413 0.51268 0.0
C367 C 0.51823 0.98044 0.55091 0.0
C368 C 0.528 0.00319 0.55411 0.0
C369 C 0.51911 0.01952 0.51699 0.0
H370 H 0.2914 0.26493 0.73392 0.0
H371 H 0.28013 0.19673 0.80641 0.0
H372 H 0.26255 0.21075 0.90064 0.0
H373 H 0.30248 0.29363 0.88564 0.0
H374 H 0.28797 0.31701 0.86223 0.0
H375 H 0.30208 0.30182 0.80462 0.0
H376 H 0.26488 0.29467 0.74181 0.0
H377 H 0.25053 0.30937 0.79982 0.0
H378 H 0.24004 0.28084 0.77929 0.0
H379 H 0.24316 0.23177 0.98237 0.0
H380 H 0.22618 0.25873 0.0496 0.0
H381 H 0.24939 0.3128 0.92135 0.0
C382 C 0.28583 0.25298 0.7703 0.0
C383 C 0.28724 0.22973 0.76286 0.0
C384 C 0.27936 0.21464 0.81123 0.0
C385 C 0.26926 0.22242 0.86482 0.0
C386 C 0.26726 0.24532 0.86933 0.0
C387 C 0.2756 0.26042 0.82378 0.0
C388 C 0.27029 0.28398 0.83815 0.0
C389 C 0.292 0.30005 0.84828 0.0
C390 C 0.25556 0.29271 0.7867 0.0
C391 C 0.25731 0.2797 0.89838 0.0
C392 C 0.25582 0.25734 0.91578 0.0
C393 C 0.24437 0.24936 0.96946 0.0
C394 C 0.23466 0.26478 0.00711 0.0
C395 C 0.23637 0.28786 0.99067 0.0
C396 C 0.24764 0.29526 0.9351 0.0
H397 H 0.04539 0.02595 0.99639 0.0
H398 H 0.02355 0.08269 0.89617 0.0
H399 H 0.9929 0.08429 0.97225 0.0
H400 H 0.99133 -0.00103 0.032 0.0
H401 H -0.00141 0.9898 0.10884 0.0
H402 H 0.01979 0.99387 0.049 0.0
H403 H 0.04456 0.02159 0.12059 0.0
H404 H 0.02353 0.01743 0.18095 0.0
H405 H 0.03293 0.04543 0.15335 0.0
H406 H 0.96327 0.07823 0.05432 0.0
H407 H 0.93778 0.06644 0.14161 0.0
H408 H 0.97911 0.01397 0.18988 0.0
C409 C 0.03436 0.03891 0.9909 0.0
C410 C 0.03687 0.0542 0.9403 0.0
C411 C 0.02199 0.07082 0.9346 0.0
C412 C 0.00451 0.07186 0.97752 0.0
C413 C 0.00222 0.05625 0.02604 0.0
C414 C 0.01685 0.04024 0.03342 0.0
C415 C 0.01035 0.02515 0.08893 0.0
C416 C 0.00468 0.00049 0.06843 0.0
C417 C 0.02895 0.02755 0.13892 0.0
C418 C 0.98958 0.03499 0.11102 0.0
C419 C 0.98521 0.05291 0.07402 0.0
C420 C 0.96661 0.06435 0.08399 0.0
C421 C 0.95218 0.05744 0.13356 0.0
C422 C 0.95647 0.0393 0.17269 0.0
C423 C 0.97543 0.02795 0.16101 0.0
H424 H 0.74926 0.70943 0.81689 0.0
H425 H 0.68085 0.71813 0.87023 0.0
H426 H 0.67937 0.74599 0.7856 0.0
H427 H 0.76695 0.76627 0.78626 0.0
H428 H 0.78445 0.76123 0.72052 0.0
H429 H 0.7795 0.7404 0.78117 0.0
H430 H 0.76453 0.71045 0.69919 0.0
H431 H 0.7696 0.73116 0.6381 0.0
H432 H 0.74197 0.71596 0.64767 0.0
H433 H 0.68619 0.77457 0.70094 0.0
H434 H 0.70046 0.8018 0.62013 0.0
H435 H 0.7647 0.77477 0.62194 0.0
C436 C 0.73381 0.71688 0.81015 0.0
C437 C 0.71511 0.71155 0.85001 0.0
C438 C 0.69534 0.72192 0.84015 0.0
C439 C 0.69433 0.73773 0.79219 0.0
C440 C 0.71322 0.7429 0.75457 0.0
C441 C 0.73255 0.73273 0.76273 0.0
C442 C 0.75089 0.74215 0.718 0.0
C443 C 0.77167 0.75317 0.75363 0.0
C444 C 0.75711 0.72384 0.67307 0.0
C445 C 0.73897 0.75953 0.68411 0.0
C446 C 0.71722 0.75955 0.70571 0.0
C447 C 0.70311 0.77459 0.68323 0.0
C448 C 0.71144 0.79005 0.63741 0.0
C449 C 0.73373 0.79042 0.61457 0.0
C450 C 0.74758 0.77483 0.63816 0.0
H451 H 0.76423 0.27504 0.37867 0.0
H452 H 0.75192 0.33961 0.30147 0.0
H453 H 0.73867 0.32089 0.20326 0.0
H454 H 0.78406 0.25198 0.23591 0.0
H455 H 0.77082 0.22394 0.25212 0.0
H456 H 0.77975 0.24265 0.31556 0.0
H457 H 0.7393 0.23701 0.36068 0.0
H458 H 0.73018 0.21854 0.29688 0.0
H459 H 0.71603 0.24292 0.31228 0.0
H460 H 0.72636 0.295 0.11371 0.0
H461 H 0.71819 0.26414 0.03739 0.0
H462 H 0.73787 0.21667 0.17469 0.0
C463 C 0.75896 0.28531 0.34096 0.0
C464 C 0.75916 0.30881 0.34777 0.0
C465 C 0.75198 0.32158 0.29733 0.0
C466 C 0.74433 0.3111 0.24143 0.0
C467 C 0.74393 0.28785 0.23678 0.0
C468 C 0.75122 0.27513 0.285 0.0
C469 C 0.74913 0.25043 0.26813 0.0
C470 C 0.77232 0.24175 0.2679 0.0
C471 C 0.73268 0.23641 0.31211 0.0
C472 C 0.73958 0.25124 0.20281 0.0
C473 C 0.73664 0.27295 0.18558 0.0
C474 C 0.72854 0.27791 0.12671 0.0
C475 C 0.72386 0.26027 0.08378 0.0
C476 C 0.72729 0.23797 0.10006 0.0
C477 C 0.73485 0.23346 0.16085 0.0
H478 H 0.74121 0.21375 0.82861 0.0
H479 H 0.80264 0.24472 0.91628 0.0
H480 H 0.80641 0.27391 0.83393 0.0
H481 H 0.75799 0.2257 0.66564 0.0
H482 H 0.73015 0.23133 0.6434 0.0
H483 H 0.73374 0.21161 0.70523 0.0
H484 H 0.71083 0.23426 0.77973 0.0
H485 H 0.70736 0.25419 0.7185 0.0
H486 H 0.71967 0.26378 0.79205 0.0
H487 H 0.80197 0.30105 0.74692 0.0
H488 H 0.79012 0.32414 0.66047 0.0
H489 H 0.73093 0.27586 0.63126 0.0
C490 C 0.75576 0.22635 0.82985 0.0
C491 C 0.77175 0.22687 0.87865 0.0
C492 C 0.79027 0.24393 0.87915 0.0
C493 C 0.79254 0.26056 0.8326 0.0
C494 C 0.77615 0.25985 0.7861 0.0
C495 C 0.75817 0.24313 0.7842 0.0
C496 C 0.7421 0.24696 0.73162 0.0
C497 C 0.74094 0.22776 0.68363 0.0
C498 C 0.71861 0.24998 0.75702 0.0
C499 C 0.75366 0.2687 0.70475 0.0
C500 C 0.77336 0.27573 0.73655 0.0
C501 C 0.78668 0.29562 0.72137 0.0
C502 C 0.77974 0.30865 0.67224 0.0
C503 C 0.75956 0.30182 0.63902 0.0
C504 C 0.74642 0.28153 0.65564 0.0
H505 H 0.73793 0.7101 0.16313 0.0
H506 H 0.76767 0.75895 0.02786 0.0
H507 H 0.76142 0.78974 0.10018 0.0
H508 H 0.69477 0.74157 0.21495 0.0
H509 H 0.69634 0.73303 0.29546 0.0
H510 H 0.70389 0.71474 0.23418 0.0
H511 H 0.74311 0.71344 0.28461 0.0
H512 H 0.73556 0.73142 0.34658 0.0
H513 H 0.76058 0.73941 0.30119 0.0
H514 H 0.75096 0.81519 0.18633 0.0
H515 H 0.73973 0.83329 0.28312 0.0
H516 H 0.71646 0.76755 0.36063 0.0
C517 C 0.74339 0.72724 0.14887 0.0
C518 C 0.75333 0.73211 0.08984 0.0
C519 C 0.76009 0.7548 0.07294 0.0
C520 C 0.75652 0.77241 0.11355 0.0
C521 C 0.74617 0.76702 0.17076 0.0
C522 C 0.7399 0.74498 0.18863 0.0
C523 C 0.72907 0.74366 0.25253 0.0
C524 C 0.70457 0.7326 0.24903 0.0
C525 C 0.74291 0.73126 0.29897 0.0
C526 C 0.73024 0.76842 0.26793 0.0
C527 C 0.74007 0.78163 0.2201 0.0
C528 C 0.74325 0.80502 0.22412 0.0
C529 C 0.73673 0.81514 0.27918 0.0
C530 C 0.72717 0.80185 0.32944 0.0
C531 C 0.72356 0.77821 0.32298 0.0
H532 H 0.49844 0.48722 0.17149 0.0
H533 H 0.56554 0.49591 0.0914 0.0
H534 H 0.55021 0.51007 0.99403 0.0
H535 H 0.46878 0.46919 0.02742 0.0
H536 H 0.44501 0.48388 0.04571 0.0
H537 H 0.46124 0.47336 0.10773 0.0
H538 H 0.46774 0.51341 0.15538 0.0
H539 H 0.45187 0.52413 0.0929 0.0
H540 H 0.48028 0.53651 0.10814 0.0
H541 H 0.52796 0.52538 0.90764 0.0
H542 H 0.49974 0.53711 0.83421 0.0
H543 H 0.44718 0.51825 0.97051 0.0
C544 C 0.50988 0.49173 0.13316 0.0
C545 C 0.5332 0.4904 0.13918 0.0
C546 C 0.54759 0.49666 0.08793 0.0
C547 C 0.53907 0.50484 0.03248 0.0
C548 C 0.51611 0.50657 0.02884 0.0
C549 C 0.50166 0.49989 0.07743 0.0
C550 C 0.47771 0.50363 0.06171 0.0
C551 C 0.46228 0.48118 0.06056 0.0
C552 C 0.4689 0.52042 0.10725 0.0
C553 C 0.48099 0.51359 0.99686 0.0
C554 C 0.50328 0.51525 0.97889 0.0
C555 C 0.51043 0.52405 0.92105 0.0
C556 C 0.49428 0.5308 0.8798 0.0
C557 C 0.47123 0.52862 0.89652 0.0
C558 C 0.46465 0.5202 0.9563 0.0
H559 H 0.0181 0.49425 0.4695 0.0
H560 H 0.08151 0.52769 0.53951 0.0
H561 H 0.06233 0.53853 0.63499 0.0
H562 H 0.98478 0.53485 0.51892 0.0
H563 H 0.96078 0.51522 0.53992 0.0
H564 H 0.97976 0.508 0.48012 0.0
H565 H 0.98634 0.47174 0.5404 0.0
H566 H 0.96704 0.47863 0.59989 0.0
H567 H 0.99521 0.47374 0.62091 0.0
H568 H 0.0356 0.54782 0.71971 0.0
H569 H 0.00376 0.5528 0.78984 0.0
H570 H 0.95814 0.51413 0.66146 0.0
C571 C 0.02809 0.50342 0.50543 0.0
C572 C 0.05131 0.51006 0.49715 0.0
C573 C 0.0637 0.52234 0.54499 0.0
C574 C 0.05295 0.52863 0.59929 0.0
C575 C 0.02987 0.52248 0.60493 0.0
C576 C 0.01764 0.50994 0.55958 0.0
C577 C 0.99289 0.50628 0.57549 0.0
C578 C 0.97873 0.51672 0.52565 0.0
C579 C 0.98491 0.48111 0.58474 0.0
C580 C 0.99304 0.519 0.63644 0.0
C581 C 0.01451 0.52814 0.65291 0.0
C582 C 0.01872 0.54066 0.70743 0.0
C583 C 0.00053 0.5435 0.74675 0.0
C584 C 0.97846 0.53396 0.731 0.0
C585 C 0.97476 0.52179 0.67471 0.0
H586 H 0.04994 0.52629 0.10218 0.0
H587 H 0.0201 0.52052 0.2872 0.0
H588 H 0.98224 0.51639 0.24006 0.0
H589 H 0.00824 0.55835 0.03316 0.0
H590 H 0.00883 0.54439 0.9587 0.0
H591 H 0.03356 0.54759 0.0074 0.0
H592 H 0.03492 0.50446 0.00388 0.0
H593 H 0.01012 0.50114 0.95557 0.0
H594 H 0.01061 0.48577 0.02791 0.0
H595 H 0.9474 0.51154 0.17217 0.0
H596 H 0.91856 0.50806 0.08855 0.0
H597 H 0.97155 0.51713 0.94923 0.0
C598 C 0.03547 0.52434 0.13285 0.0
C599 C 0.03803 0.52373 0.19835 0.0
C600 C 0.0186 0.5211 0.23681 0.0
C601 C 0.99699 0.51869 0.21052 0.0
C602 C 0.99506 0.51906 0.14573 0.0
C603 C 0.01378 0.52199 0.10744 0.0
C604 C 0.00712 0.52163 0.03924 0.0
C605 C 0.0149 0.54434 0.0078 0.0
C606 C 0.01623 0.50208 0.00464 0.0
C607 C 0.98179 0.5178 0.04521 0.0
C608 C 0.9751 0.51637 0.1069 0.0
C609 C 0.95243 0.51272 0.12363 0.0
C610 C 0.93618 0.51069 0.07589 0.0
C611 C 0.94275 0.51234 0.01237 0.0
C612 C 0.96589 0.51582 0.99727 0.0
H613 H 0.4454 0.51702 0.61682 0.0
H614 H 0.46674 0.46113 0.72175 0.0
H615 H 0.49511 0.45623 0.64071 0.0
H616 H 0.45402 0.4948 0.45952 0.0
H617 H 0.46427 0.52219 0.42908 0.0
H618 H 0.44409 0.51962 0.49181 0.0
H619 H 0.47101 0.54699 0.5588 0.0
H620 H 0.49139 0.54946 0.49669 0.0
H621 H 0.49926 0.54066 0.57338 0.0
H622 H 0.52267 0.45907 0.55241 0.0
H623 H 0.54736 0.469 0.46213 0.0
H624 H 0.50873 0.52388 0.41647 0.0
C625 C 0.45566 0.50339 0.6221 0.0
C626 C 0.45375 0.4893 0.67533 0.0
C627 C 0.46785 0.47202 0.68115 0.0
C628 C 0.48399 0.46911 0.6354 0.0
C629 C 0.48582 0.48367 0.58433 0.0
C630 C 0.47198 0.50041 0.57727 0.0
C631 C 0.47834 0.51472 0.52017 0.0
C632 C 0.45903 0.5127 0.47231 0.0
C633 C 0.48542 0.53941 0.53838 0.0
C634 C 0.49814 0.50361 0.49667 0.0
C635 C 0.50205 0.48563 0.53407 0.0
C636 C 0.51968 0.47301 0.52252 0.0
C637 C 0.53365 0.47884 0.47117 0.0
C638 C 0.52999 0.49724 0.43219 0.0
C639 C 0.51198 0.50975 0.44535 0.0
H640 H 0.13788 0.47052 0.29563 0.0
H641 H 0.07657 0.44098 0.20461 0.0
H642 H 0.0971 0.41116 0.16033 0.0
H643 H 0.17528 0.46117 0.17294 0.0
H644 H 0.19758 0.45478 0.2242 0.0
H645 H 0.17779 0.47318 0.25021 0.0
H646 H 0.16802 0.44756 0.34648 0.0
H647 H 0.18784 0.42909 0.32085 0.0
H648 H 0.15897 0.41803 0.33502 0.0
H649 H 0.12515 0.3854 0.12245 0.0
H650 H 0.15796 0.36545 0.09708 0.0
H651 H 0.20011 0.41207 0.21492 0.0
C652 C 0.12869 0.45773 0.26668 0.0
C653 C 0.10562 0.45809 0.25353 0.0
C654 C 0.09424 0.44101 0.21545 0.0
C655 C 0.10576 0.42402 0.19004 0.0
C656 C 0.12858 0.42431 0.20353 0.0
C657 C 0.13985 0.44067 0.24129 0.0
C658 C 0.16438 0.43747 0.24826 0.0
C659 C 0.17965 0.45786 0.22234 0.0
C660 C 0.17013 0.43275 0.31671 0.0
C661 C 0.16527 0.41688 0.20796 0.0
C662 C 0.1445 0.40948 0.18249 0.0
C663 C 0.14146 0.39098 0.14247 0.0
C664 C 0.16018 0.37978 0.12826 0.0
C665 C 0.18157 0.38715 0.15416 0.0
C666 C 0.18398 0.40591 0.19459 0.0
H667 H 0.77556 0.91663 0.37508 0.0
H668 H 0.80873 0.87246 0.49604 0.0
H669 H 0.84523 0.89531 0.47574 0.0
H670 H 0.81992 0.92672 0.26061 0.0
H671 H 0.81564 0.95576 0.24943 0.0
H672 H 0.79238 0.93543 0.27167 0.0
H673 H 0.78488 0.95963 0.36812 0.0
H674 H 0.80799 0.98009 0.34594 0.0
H675 H 0.80737 0.96761 0.42269 0.0
H676 H 0.87793 0.92355 0.4433 0.0
H677 H 0.90383 0.95612 0.40692 0.0
H678 H 0.84871 0.98166 0.30818 0.0
C679 C 0.79049 0.91165 0.39718 0.0
C680 C 0.78933 0.89273 0.43702 0.0
C681 C 0.80924 0.88692 0.46537 0.0
C682 C 0.83004 0.89972 0.45389 0.0
C683 C 0.83056 0.91823 0.41405 0.0
C684 C 0.81127 0.92423 0.38644 0.0
C685 C 0.81613 0.94534 0.34746 0.0
C686 C 0.8107 0.94051 0.27819 0.0
C687 C 0.80334 0.96428 0.37258 0.0
C688 C 0.84118 0.95047 0.35795 0.0
C689 C 0.84925 0.93454 0.39597 0.0
C690 C 0.87181 0.93607 0.41333 0.0
C691 C 0.88639 0.95462 0.3923 0.0
C692 C 0.8783 0.97145 0.35468 0.0
C693 C 0.85546 0.96906 0.33661 0.0
H694 H 0.31062 0.63356 0.62658 0.0
H695 H 0.34891 0.65661 0.46187 0.0
H696 H 0.38026 0.63633 0.49749 0.0
H697 H 0.35756 0.63693 0.7346 0.0
H698 H 0.34666 0.6118 0.77622 0.0
H699 H 0.32763 0.62887 0.73906 0.0
H700 H 0.30964 0.59423 0.67658 0.0
H701 H 0.3285 0.57704 0.71382 0.0
H702 H 0.32734 0.57851 0.62979 0.0
H703 H 0.40705 0.6128 0.55008 0.0
H704 H 0.4264 0.58615 0.61234 0.0
H705 H 0.37033 0.57837 0.74217 0.0
C706 C 0.32563 0.63446 0.59805 0.0
C707 C 0.32733 0.64673 0.54147 0.0
C708 C 0.34722 0.64732 0.50537 0.0
C709 C 0.36515 0.63593 0.52535 0.0
C710 C 0.36292 0.62405 0.58148 0.0
C711 C 0.34362 0.62316 0.61716 0.0
C712 C 0.34509 0.60852 0.67439 0.0
C713 C 0.34418 0.62236 0.73462 0.0
C714 C 0.32655 0.58838 0.67355 0.0
C715 C 0.36814 0.60107 0.665 0.0
C716 C 0.37824 0.61037 0.61146 0.0
C717 C 0.39935 0.60549 0.59224 0.0
C718 C 0.41022 0.59035 0.62803 0.0
C719 C 0.39992 0.58017 0.68224 0.0
C720 C 0.37874 0.58595 0.70126 0.0
H721 H 0.6871 0.11993 0.95877 0.0
H722 H 0.67433 0.17237 0.82763 0.0
H723 H 0.64798 0.14503 0.76963 0.0
H724 H 0.6867 0.07585 0.84812 0.0
H725 H 0.67285 0.05454 0.89898 0.0
H726 H 0.69002 0.07842 0.93163 0.0
H727 H 0.65645 0.08793 -0.00098 0.0
H728 H 0.63924 0.06394 0.96702 0.0
H729 H 0.6301 0.09152 0.96168 0.0
H730 H 0.62409 0.11135 0.72337 0.0
H731 H 0.603 0.0745 0.69645 0.0
H732 H 0.63159 0.04467 0.85856 0.0
C733 C 0.67862 0.12575 0.91822 0.0
C734 C 0.68279 0.1483 0.89778 0.0
C735 C 0.67137 0.15519 0.84432 0.0
C736 C 0.65641 0.13977 0.81092 0.0
C737 C 0.65299 0.11758 0.83175 0.0
C738 C 0.66363 0.11064 0.88447 0.0
C739 C 0.65723 0.08583 0.89686 0.0
C740 C 0.67794 0.07291 0.89368 0.0
C741 C 0.64502 0.0821 0.95987 0.0
C742 C 0.64143 0.07986 0.84265 0.0
C743 C 0.63921 0.09834 0.80548 0.0
C744 C 0.62563 0.09677 0.7523 0.0
C745 C 0.6138 0.07578 0.73724 0.0
C746 C 0.61563 0.05674 0.7754 0.0
C747 C 0.62977 0.0589 0.82846 0.0
H748 H 0.15204 0.568 0.35739 0.0
H749 H 0.09839 0.61086 0.35349 0.0
H750 H 0.12586 0.64377 0.3786 0.0
H751 H 0.18139 0.59458 0.48727 0.0
H752 H 0.20897 0.59158 0.45707 0.0
H753 H 0.18534 0.57156 0.43578 0.0
H754 H 0.1935 0.57952 0.31846 0.0
H755 H 0.21729 0.59941 0.33937 0.0
H756 H 0.19546 0.60805 0.28994 0.0
H757 H 0.15912 0.67189 0.40502 0.0
H758 H 0.19586 0.69333 0.42976 0.0
H759 H 0.22746 0.63175 0.42015 0.0
C760 C 0.14609 0.58434 0.36104 0.0
C761 C 0.12308 0.5869 0.35313 0.0
C762 C 0.11594 0.60853 0.35921 0.0
C763 C 0.13141 0.62731 0.37353 0.0
C764 C 0.1539 0.62412 0.38202 0.0
C765 C 0.16123 0.6032 0.37592 0.0
C766 C 0.18621 0.60422 0.38885 0.0
C767 C 0.19073 0.58962 0.44562 0.0
C768 C 0.19885 0.5974 0.33069 0.0
C769 C 0.1918 0.62901 0.40312 0.0
C770 C 0.17294 0.64021 0.39873 0.0
C771 C 0.17399 0.6633 0.40872 0.0
C772 C 0.19493 0.67532 0.42282 0.0
C773 C 0.21449 0.6642 0.42719 0.0
C774 C 0.21278 0.64069 0.4178 0.0
H775 H 0.61843 0.95617 0.56532 0.0
H776 H 0.62011 0.95363 0.768 0.0
H777 H 0.64905 0.92746 0.76289 0.0
H778 H 0.62522 0.89753 0.53987 0.0
H779 H 0.64251 0.9033 0.47153 0.0
H780 H 0.6217 0.92151 0.49137 0.0
H781 H 0.65252 0.9558 0.49126 0.0
H782 H 0.67344 0.93769 0.47171 0.0
H783 H 0.67702 0.95533 0.54006 0.0
H784 H 0.67886 0.90305 0.73563 0.0
H785 H 0.7061 0.88024 0.68847 0.0
H786 H 0.68414 0.8979 0.50332 0.0
C787 C 0.62481 0.95005 0.60869 0.0
C788 C 0.61708 0.95696 0.6671 0.0
C789 C 0.62577 0.9485 0.72275 0.0
C790 C 0.64223 0.93369 0.72031 0.0
C791 C 0.64962 0.9274 0.6619 0.0
C792 C 0.64107 0.93515 0.6071 0.0
C793 C 0.65184 0.9258 0.55037 0.0
C794 C 0.63427 0.91116 0.51098 0.0
C795 C 0.66445 0.94479 0.51106 0.0
C796 C 0.66797 0.91171 0.58183 0.0
C797 C 0.66648 0.91295 0.64616 0.0
C798 C 0.68009 0.90183 0.68534 0.0
C799 C 0.69556 0.88898 0.65805 0.0
C800 C 0.69719 0.88725 0.59221 0.0
C801 C 0.68317 0.89879 0.55376 0.0
H802 H 0.37096 0.43588 0.83271 0.0
H803 H 0.34746 0.49868 0.89 0.0
H804 H 0.31715 0.47744 0.95124 0.0
H805 H 0.31613 0.40396 0.81712 0.0
H806 H 0.32527 0.37837 0.847 0.0
H807 H 0.34489 0.39857 0.80684 0.0
H808 H 0.37154 0.40036 0.9027 0.0
H809 H 0.35193 0.38029 0.94332 0.0
H810 H 0.36106 0.40721 0.97837 0.0
H811 H 0.28983 0.44948 0.00763 0.0
H812 H 0.26647 0.4166 0.05227 0.0
H813 H 0.30789 0.37209 0.95837 0.0
C814 C 0.35936 0.44519 0.85776 0.0
C815 C 0.36159 0.46896 0.85649 0.0
C816 C 0.3461 0.48048 0.8902 0.0
C817 C 0.32884 0.46857 0.92523 0.0
C818 C 0.3273 0.44517 0.92605 0.0
C819 C 0.34206 0.43359 0.89301 0.0
C820 C 0.33677 0.40842 0.90196 0.0
C821 C 0.33038 0.39664 0.83951 0.0
C822 C 0.3565 0.39849 0.93347 0.0
C823 C 0.31671 0.40767 0.94519 0.0
C824 C 0.31156 0.42905 0.95862 0.0
C825 C 0.29367 0.43264 0.99742 0.0
C826 C 0.28053 0.41386 0.02262 0.0
C827 C 0.28535 0.39176 0.00885 0.0
C828 C 0.3038 0.38874 0.96996 0.0
H829 H 0.78452 0.12717 0.06151 0.0
H830 H 0.79746 0.18206 0.1942 0.0
H831 H 0.82285 0.16021 0.25326 0.0
H832 H 0.78449 0.08203 0.17274 0.0
H833 H 0.79843 0.06438 0.12107 0.0
H834 H 0.78106 0.08424 0.08935 0.0
H835 H 0.81448 0.10213 0.02209 0.0
H836 H 0.83191 0.08226 0.05338 0.0
H837 H 0.84079 0.11203 0.05949 0.0
H838 H 0.84678 0.13237 0.29817 0.0
H839 H 0.86874 0.10106 0.32315 0.0
H840 H 0.8404 0.06461 0.16063 0.0
C841 C 0.79269 0.13461 0.10297 0.0
C842 C 0.78898 0.15632 0.12322 0.0
C843 C 0.80005 0.16546 0.17765 0.0
C844 C 0.81447 0.15317 0.21167 0.0
C845 C 0.81767 0.13178 0.1906 0.0
C846 C 0.80719 0.12261 0.13738 0.0
C847 C 0.8138 0.09943 0.12421 0.0
C848 C 0.79321 0.08146 0.12703 0.0
C849 C 0.82597 0.09895 0.06105 0.0
C850 C 0.82968 0.09705 0.17825 0.0
C851 C 0.8316 0.11583 0.21619 0.0
C852 C 0.84542 0.11756 0.26883 0.0
C853 C 0.85779 0.09968 0.28269 0.0
C854 C 0.8563 0.0804 0.24387 0.0
C855 C 0.84191 0.0791 0.19129 0.0
H856 H 0.80071 0.6315 0.99231 0.0
H857 H 0.76814 0.62149 0.81136 0.0
H858 H 0.7983 0.59983 0.77633 0.0
H859 H 0.85823 0.6374 0.93556 0.0
H860 H 0.86856 0.6222 0.00014 0.0
H861 H 0.8448 0.63769 0.01086 0.0
H862 H 0.82101 0.60157 0.0512 0.0
H863 H 0.8447 0.58601 0.04084 0.0
H864 H 0.81826 0.57657 0.00356 0.0
H865 H 0.83116 0.57874 0.76117 0.0
H866 H 0.86428 0.55809 0.76796 0.0
H867 H 0.87578 0.58132 0.95885 0.0
C868 C 0.79999 0.62484 0.94524 0.0
C869 C 0.78208 0.62822 0.90454 0.0
C870 C 0.78166 0.6191 0.84344 0.0
C871 C 0.79875 0.60683 0.82297 0.0
C872 C 0.81615 0.60381 0.86415 0.0
C873 C 0.8169 0.61244 0.92405 0.0
C874 C 0.83716 0.60606 0.95946 0.0
C875 C 0.85313 0.62709 0.97755 0.0
C876 C 0.82984 0.5917 0.01717 0.0
C877 C 0.84754 0.59236 0.91016 0.0
C878 C 0.83518 0.59142 0.85547 0.0
C879 C 0.84104 0.57938 0.80365 0.0
C880 C 0.85989 0.5677 0.80803 0.0
C881 C 0.87266 0.56808 0.86393 0.0
C882 C 0.86648 0.58082 0.91536 0.0
H883 H 0.22638 0.13416 0.60979 0.0
H884 H 0.2007 0.19189 0.69452 0.0
H885 H 0.16787 0.16717 0.73406 0.0
H886 H 0.17141 0.10432 0.56509 0.0
H887 H 0.17993 0.07711 0.58268 0.0
H888 H 0.20046 0.09966 0.55683 0.0
H889 H 0.22432 0.09458 0.65582 0.0
H890 H 0.20377 0.0722 0.68232 0.0
H891 H 0.21168 0.09618 0.73184 0.0
H892 H 0.13953 0.13595 0.77143 0.0
H893 H 0.1163 0.10052 0.79902 0.0
H894 H 0.16022 0.06309 0.68928 0.0
C895 C 0.21366 0.14169 0.63571 0.0
C896 C 0.21611 0.16498 0.64899 0.0
C897 C 0.19918 0.17411 0.68359 0.0
C898 C 0.18047 0.16021 0.70634 0.0
C899 C 0.17888 0.13725 0.69374 0.0
C900 C 0.19487 0.12806 0.65871 0.0
C901 C 0.18957 0.10274 0.65377 0.0
C902 C 0.18507 0.09554 0.58554 0.0
C903 C 0.20846 0.09073 0.68268 0.0
C904 C 0.1683 0.09909 0.69249 0.0
C905 C 0.16241 0.11922 0.71499 0.0
C906 C 0.14384 0.12009 0.7536 0.0
C907 C 0.13082 0.09985 0.76924 0.0
C908 C 0.13642 0.07902 0.74625 0.0
C909 C 0.15543 0.07873 0.70735 0.0
H910 H 0.71908 0.41579 0.38592 0.0
H911 H 0.69077 0.368 0.52572 0.0
H912 H 0.65311 0.37962 0.50627 0.0
H913 H 0.68439 0.4595 0.4229 0.0
H914 H 0.68197 0.46795 0.34255 0.0
H915 H 0.70661 0.45596 0.36834 0.0
H916 H 0.69998 0.42551 0.28211 0.0
H917 H 0.67518 0.43725 0.25649 0.0
H918 H 0.67336 0.408 0.27835 0.0
H919 H 0.61838 0.39562 0.46892 0.0
H920 H 0.58956 0.41686 0.42253 0.0
H921 H 0.64086 0.45453 0.3083 0.0
C922 C 0.705 0.40784 0.41278 0.0
C923 C 0.70786 0.39096 0.4573 0.0
C924 C 0.689 0.38102 0.49151 0.0
C925 C 0.66753 0.38744 0.4806 0.0
C926 C 0.66527 0.40387 0.43561 0.0
C927 C 0.68353 0.4141 0.40273 0.0
C928 C 0.67662 0.43148 0.35738 0.0
C929 C 0.68808 0.45512 0.37381 0.0
C930 C 0.68158 0.42517 0.28957 0.0
C931 C 0.65158 0.42938 0.36973 0.0
C932 C 0.64534 0.41328 0.41473 0.0
C933 C 0.62308 0.40832 0.43379 0.0
C934 C 0.60682 0.42042 0.40695 0.0
C935 C 0.61293 0.43738 0.36178 0.0
C936 C 0.63561 0.44167 0.34263 0.0
H937 H 0.37129 0.9423 0.13333 0.0
H938 H 0.32946 0.99544 0.16902 0.0
H939 H 0.29643 0.97121 0.12833 0.0
H940 H 0.34547 0.92275 0.99099 0.0
H941 H 0.34734 0.89342 0.00654 0.0
H942 H 0.36766 0.91465 0.04002 0.0
H943 H 0.35808 0.89888 0.15085 0.0
H944 H 0.33784 0.87749 0.11766 0.0
H945 H 0.3293 0.89595 0.17729 0.0
H946 H 0.26854 0.94221 0.0784 0.0
H947 H 0.24677 0.90907 0.03033 0.0
H948 H 0.3064 0.87419 0.03068 0.0
C949 C 0.35516 0.9488 0.13295 0.0
C950 C 0.35295 0.97079 0.15415 0.0
C951 C 0.33154 0.97863 0.15316 0.0
C952 C 0.31269 0.96503 0.12996 0.0
C953 C 0.31552 0.94357 0.10859 0.0
C954 C 0.33613 0.93537 0.11058 0.0
C955 C 0.33457 0.91165 0.08499 0.0
C956 C 0.34965 0.91057 0.0272 0.0
C957 C 0.34028 0.89501 0.13573 0.0
C958 C 0.30989 0.9079 0.06761 0.0
C959 C 0.29926 0.92658 0.08132 0.0
C960 C 0.27662 0.9274 0.06792 0.0
C961 C 0.26444 0.90853 0.04036 0.0
C962 C 0.27488 0.88902 0.02697 0.0
C963 C 0.29793 0.8888 0.04074 0.0
H964 H 0.80733 0.41091 0.58063 0.0
H965 H 0.85214 0.36396 0.51526 0.0
H966 H 0.88342 0.3847 0.57452 0.0
H967 H 0.84837 0.46121 0.5793 0.0
H968 H 0.83719 0.47228 0.64943 0.0
H969 H 0.81896 0.45466 0.59797 0.0
H970 H 0.80721 0.42792 0.69062 0.0
H971 H 0.82568 0.44525 0.74211 0.0
H972 H 0.82854 0.41573 0.73425 0.0
H973 H 0.90942 0.40973 0.64453 0.0
H974 H 0.92856 0.43816 0.71629 0.0
H975 H 0.8662 0.46772 0.73821 0.0
C976 C 0.82382 0.40523 0.57769 0.0
C977 C 0.82734 0.38589 0.54298 0.0
C978 C 0.84908 0.3788 0.54134 0.0
C979 C 0.86694 0.39043 0.57497 0.0
C980 C 0.86273 0.40905 0.61014 0.0
C981 C 0.84174 0.4165 0.61139 0.0
C982 C 0.84142 0.43646 0.65458 0.0
C983 C 0.83618 0.45739 0.61813 0.0
C984 C 0.82472 0.431 0.70858 0.0
C985 C 0.86548 0.43902 0.67768 0.0
C986 C 0.87753 0.42311 0.65141 0.0
C987 C 0.90016 0.42229 0.66535 0.0
C988 C 0.91086 0.43845 0.70635 0.0
C989 C 0.89887 0.4551 0.73314 0.0
C990 C 0.87581 0.45511 0.71902 0.0
H991 H 0.32049 0.13405 0.53943 0.0
H992 H 0.35032 0.19189 0.43334 0.0
H993 H 0.36892 0.16668 0.36452 0.0
H994 H 0.36861 0.10153 0.52839 0.0
H995 H 0.35086 0.07514 0.52137 0.0
H996 H 0.34128 0.09795 0.5648 0.0
H997 H 0.3055 0.09552 0.49565 0.0
H998 H 0.31508 0.07289 0.45158 0.0
H999 H 0.30839 0.09786 0.41199 0.0
H1000 H 0.38179 0.13498 0.30231 0.0
H1001 H 0.39016 0.09918 0.25559 0.0
H1002 H 0.35229 0.06225 0.40342 0.0
C1003 C 0.33122 0.14148 0.50238 0.0
C1004 C 0.33395 0.16496 0.4918 0.0
C1005 C 0.34803 0.17397 0.44252 0.0
C1006 C 0.35864 0.15979 0.40306 0.0
C1007 C 0.35512 0.13668 0.41386 0.0
C1008 C 0.34197 0.12761 0.46274 0.0
C1009 C 0.34039 0.10218 0.4632 0.0
C1010 C 0.35092 0.09371 0.52299 0.0
C1011 C 0.31588 0.09149 0.4551 0.0
C1012 C 0.35438 0.09835 0.40627 0.0
C1013 C 0.36274 0.11845 0.37845 0.0
C1014 C 0.37553 0.11913 0.32402 0.0
C1015 C 0.3801 0.09871 0.29769 0.0
C1016 C 0.37193 0.07793 0.32595 0.0
C1017 C 0.35888 0.07785 0.38089 0.0
H1018 H 0.63573 0.54723 0.2661 0.0
H1019 H 0.57751 0.57162 0.17993 0.0
H1020 H 0.60239 0.6014 0.12653 0.0
H1021 H 0.66898 0.60314 0.28626 0.0
H1022 H 0.69507 0.59225 0.26861 0.0
H1023 H 0.67247 0.57441 0.30534 0.0
H1024 H 0.67383 0.54527 0.21637 0.0
H1025 H 0.69617 0.56312 0.17889 0.0
H1026 H 0.6707 0.55397 0.13648 0.0
H1027 H 0.63358 0.62566 0.07342 0.0
H1028 H 0.66902 0.64498 0.03093 0.0
H1029 H 0.70698 0.60532 0.15288 0.0
C1030 C 0.62815 0.55915 0.23721 0.0
C1031 C 0.60465 0.55708 0.22726 0.0
C1032 C 0.59545 0.57288 0.18844 0.0
C1033 C 0.60944 0.58986 0.15779 0.0
C1034 C 0.63258 0.59094 0.16691 0.0
C1035 C 0.64187 0.57624 0.20636 0.0
C1036 C 0.66733 0.58038 0.20568 0.0
C1037 C 0.6765 0.58801 0.27032 0.0
C1038 C 0.6776 0.55944 0.18299 0.0
C1039 C 0.67087 0.59933 0.15851 0.0
C1040 C 0.65061 0.60518 0.13681 0.0
C1041 C 0.64956 0.62146 0.09069 0.0
C1042 C 0.66978 0.63223 0.06657 0.0
C1043 C 0.69076 0.62671 0.08876 0.0
C1044 C 0.69122 0.61005 0.13538 0.0
H1045 H 0.18963 0.911 0.84372 0.0
H1046 H 0.14808 0.86029 0.95057 0.0
H1047 H 0.11632 0.88317 0.94358 0.0
H1048 H 0.17046 0.95787 0.91563 0.0
H1049 H 0.17147 0.97471 0.84561 0.0
H1050 H 0.19013 0.95345 0.85444 0.0
H1051 H 0.17536 0.93491 0.7506 0.0
H1052 H 0.1567 0.9562 0.74126 0.0
H1053 H 0.14559 0.92686 0.74056 0.0
H1054 H 0.08975 0.91271 0.92885 0.0
H1055 H 0.07074 0.94651 0.90905 0.0
H1056 H 0.13044 0.97785 0.81405 0.0
C1057 C 0.17377 0.90448 0.86493 0.0
C1058 C 0.17129 0.88379 0.89744 0.0
C1059 C 0.15033 0.87606 0.92524 0.0
C1060 C 0.13221 0.88893 0.92144 0.0
C1061 C 0.13538 0.90944 0.88976 0.0
C1062 C 0.15565 0.91712 0.86195 0.0
C1063 C 0.1552 0.94021 0.83346 0.0
C1064 C 0.17285 0.95757 0.86414 0.0
C1065 C 0.15839 0.93949 0.76224 0.0
C1066 C 0.13157 0.94449 0.85025 0.0
C1067 C 0.12031 0.9265 0.88223 0.0
C1068 C 0.09837 0.92684 0.90357 0.0
C1069 C 0.08773 0.94612 0.89212 0.0
C1070 C 0.09911 0.96484 0.86005 0.0
C1071 C 0.12127 0.96384 0.83867 0.0
loop_
_geom_bond_atom_site_label_1
_geom_bond_atom_site_label_2
_geom_bond_distance
_geom_bond_site_symmetry_2
_ccdc_geom_bond_type
C0 O1 1.160 . S
C0 O7 1.185 . S
O1 C0 1.160 . S
O2 Zn3 1.899 . S
O2 C10 1.284 . S
Zn3 O2 1.899 . S
Zn3 O4 2.032 . S
Zn3 O7 2.086 . S
Zn3 O12 1.977 1_554 S
O4 Zn3 2.032 . S
O4 C8 1.278 1_554 S
C5 O6 1.203 . S
C5 O12 1.267 . S
O6 C5 1.203 . S
O7 C0 1.185 . S
O7 Zn3 2.086 . S
C8 O4 1.278 1_556 S
C8 O9 1.211 . S
O9 C8 1.211 . S
C10 O2 1.284 . S
C10 O11 1.273 . S
O11 C10 1.273 . S
O12 Zn3 1.977 1_556 S
O12 C5 1.267 . S
C13 O14 1.160 . S
C13 O20 1.185 . S
O14 C13 1.160 . S
O15 Zn16 1.899 . S
O15 C23 1.284 . S
Zn16 O15 1.899 . S
Zn16 O17 2.032 . S
Zn16 O20 2.086 . S
Zn16 O25 1.977 . S
O17 Zn16 2.032 . S
O17 C21 1.278 1_545 S
C18 O19 1.203 . S
C18 O25 1.267 . S
O19 C18 1.203 . S
O20 C13 1.185 . S
O20 Zn16 2.086 . S
C21 O17 1.278 1_565 S
C21 O22 1.211 . S
O22 C21 1.211 . S
C23 O15 1.284 . S
C23 O24 1.273 1_545 S
O24 C23 1.273 1_565 S
O25 Zn16 1.977 . S
O25 C18 1.267 . S
C26 O27 1.160 . S
C26 O33 1.185 . S
O27 C26 1.160 . S
O28 Zn29 1.899 . S
O28 C36 1.284 . S
Zn29 O28 1.899 . S
Zn29 O30 2.032 . S
Zn29 O33 2.086 . S
Zn29 O38 1.977 . S
O30 Zn29 2.032 . S
O30 C34 1.278 . S
C31 O32 1.203 . S
C31 O38 1.267 . S
O32 C31 1.203 . S
O33 C26 1.185 . S
O33 Zn29 2.086 . S
C34 O30 1.278 . S
C34 O35 1.211 . S
O35 C34 1.211 . S
C36 O28 1.284 . S
C36 O37 1.273 . S
O37 C36 1.273 . S
O38 Zn29 1.977 . S
O38 C31 1.267 . S
C39 O40 1.160 . S
C39 O46 1.185 . S
O40 C39 1.160 . S
O41 Zn42 1.899 . S
O41 C49 1.284 . S
Zn42 O41 1.899 . S
Zn42 O43 2.032 . S
Zn42 O46 2.086 1_545 S
Zn42 O51 1.977 . S
O43 Zn42 2.032 . S
O43 C47 1.278 . S
C44 O45 1.203 . S
C44 O51 1.267 . S
O45 C44 1.203 . S
O46 C39 1.185 . S
O46 Zn42 2.086 1_565 S
C47 O43 1.278 . S
C47 O48 1.211 . S
O48 C47 1.211 . S
C49 O41 1.284 . S
C49 O50 1.273 . S
O50 C49 1.273 . S
O51 Zn42 1.977 . S
O51 C44 1.267 . S
C52 O53 1.160 . S
C52 O59 1.185 1_556 S
O53 C52 1.160 . S
O54 Zn55 1.899 1_556 S
O54 C62 1.284 . S
Zn55 O54 1.899 1_554 S
Zn55 O56 2.032 . S
Zn55 O59 2.086 . S
Zn55 O64 1.977 . S
O56 Zn55 2.032 . S
O56 C60 1.278 . S
C57 O58 1.203 . S
C57 O64 1.267 . S
O58 C57 1.203 . S
O59 C52 1.185 1_554 S
O59 Zn55 2.086 . S
C60 O56 1.278 . S
C60 O61 1.211 . S
O61 C60 1.211 . S
C62 O54 1.284 . S
C62 O63 1.273 . S
O63 C62 1.273 . S
O64 Zn55 1.977 . S
O64 C57 1.267 . S
C65 O66 1.160 . S
C65 O72 1.185 . S
O66 C65 1.160 . S
O67 Zn68 1.899 . S
O67 C75 1.284 . S
Zn68 O67 1.899 . S
Zn68 O69 2.032 . S
Zn68 O72 2.086 1_545 S
Zn68 O77 1.977 . S
O69 Zn68 2.032 . S
O69 C73 1.278 . S
C70 O71 1.203 . S
C70 O77 1.267 . S
O71 C70 1.203 . S
O72 C65 1.185 . S
O72 Zn68 2.086 1_565 S
C73 O69 1.278 . S
C73 O74 1.211 . S
O74 C73 1.211 . S
C75 O67 1.284 . S
C75 O76 1.273 . S
O76 C75 1.273 . S
O77 Zn68 1.977 . S
O77 C70 1.267 . S
C78 O79 1.160 . S
C78 O85 1.185 . S
O79 C78 1.160 . S
O80 Zn81 1.899 . S
O80 C88 1.284 . S
Zn81 O80 1.899 . S
Zn81 O82 2.032 . S
Zn81 O85 2.086 . S
Zn81 O90 1.977 . S
O82 Zn81 2.032 . S
O82 C86 1.278 . S
C83 O84 1.203 . S
C83 O90 1.267 . S
O84 C83 1.203 . S
O85 C78 1.185 . S
O85 Zn81 2.086 . S
C86 O82 1.278 . S
C86 O87 1.211 . S
O87 C86 1.211 . S
C88 O80 1.284 . S
C88 O89 1.273 . S
O89 C88 1.273 . S
O90 Zn81 1.977 . S
O90 C83 1.267 . S
C91 O92 1.160 . S
C91 O98 1.185 . S
O92 C91 1.160 . S
O93 Zn94 1.899 . S
O93 C101 1.284 . S
Zn94 O93 1.899 . S
Zn94 O95 2.032 . S
Zn94 O98 2.086 . S
Zn94 O103 1.977 . S
O95 Zn94 2.032 . S
O95 C99 1.278 1_545 S
C96 O97 1.203 . S
C96 O103 1.267 . S
O97 C96 1.203 . S
O98 C91 1.185 . S
O98 Zn94 2.086 . S
C99 O95 1.278 1_565 S
C99 O100 1.211 . S
O100 C99 1.211 . S
C101 O93 1.284 . S
C101 O102 1.273 1_545 S
O102 C101 1.273 1_565 S
O103 Zn94 1.977 . S
O103 C96 1.267 . S
C104 O105 1.160 . S
C104 O111 1.185 . S
O105 C104 1.160 . S
O106 Zn107 1.899 . S
O106 C114 1.284 . S
Zn107 O106 1.899 . S
Zn107 O108 2.032 . S
Zn107 O111 2.086 . S
Zn107 O116 1.977 . S
O108 Zn107 2.032 . S
O108 C112 1.278 . S
C109 O110 1.203 . S
C109 O116 1.267 . S
O110 C109 1.203 . S
O111 C104 1.185 . S
O111 Zn107 2.086 . S
C112 O108 1.278 . S
C112 O113 1.211 . S
O113 C112 1.211 . S
C114 O106 1.284 . S
C114 O115 1.273 . S
O115 C114 1.273 . S
O116 Zn107 1.977 . S
O116 C109 1.267 . S
C117 O118 1.160 . S
C117 O124 1.185 . S
O118 C117 1.160 . S
O119 Zn120 1.899 . S
O119 C127 1.284 . S
Zn120 O119 1.899 . S
Zn120 O121 2.032 . S
Zn120 O124 2.086 . S
Zn120 O129 1.977 . S
O121 Zn120 2.032 . S
O121 C125 1.278 . S
C122 O123 1.203 . S
C122 O129 1.267 . S
O123 C122 1.203 . S
O124 C117 1.185 . S
O124 Zn120 2.086 . S
C125 O121 1.278 . S
C125 O126 1.211 . S
O126 C125 1.211 . S
C127 O119 1.284 . S
C127 O128 1.273 . S
O128 C127 1.273 . S
O129 Zn120 1.977 . S
O129 C122 1.267 . S
C130 O131 1.160 . S
C130 O137 1.185 . S
O131 C130 1.160 . S
O132 Zn133 1.899 . S
O132 C140 1.284 . S
Zn133 O132 1.899 . S
Zn133 O134 2.032 . S
Zn133 O137 2.086 . S
Zn133 O142 1.977 1_554 S
O134 Zn133 2.032 . S
O134 C138 1.278 1_554 S
C135 O136 1.203 . S
C135 O142 1.267 . S
O136 C135 1.203 . S
O137 C130 1.185 . S
O137 Zn133 2.086 . S
C138 O134 1.278 1_556 S
C138 O139 1.211 . S
O139 C138 1.211 . S
C140 O132 1.284 . S
C140 O141 1.273 . S
O141 C140 1.273 . S
O142 Zn133 1.977 1_556 S
O142 C135 1.267 . S
C143 O144 1.160 . S
C143 O150 1.185 . S
O144 C143 1.160 . S
O145 Zn146 1.899 . S
O145 C153 1.284 . S
Zn146 O145 1.899 . S
Zn146 O147 2.032 . S
Zn146 O150 2.086 . S
Zn146 O155 1.977 . S
O147 Zn146 2.032 . S
O147 C151 1.278 . S
C148 O149 1.203 . S
C148 O155 1.267 . S
O149 C148 1.203 . S
O150 C143 1.185 . S
O150 Zn146 2.086 . S
C151 O147 1.278 . S
C151 O152 1.211 . S
O152 C151 1.211 . S
C153 O145 1.284 . S
C153 O154 1.273 . S
O154 C153 1.273 . S
O155 Zn146 1.977 . S
O155 C148 1.267 . S
C156 O157 1.160 . S
C156 O163 1.185 . S
O157 C156 1.160 . S
O158 Zn159 1.899 . S
O158 C166 1.284 . S
Zn159 O158 1.899 . S
Zn159 O160 2.032 . S
Zn159 O163 2.086 . S
Zn159 O168 1.977 . S
O160 Zn159 2.032 . S
O160 C164 1.278 . S
C161 O162 1.203 . S
C161 O168 1.267 . S
O162 C161 1.203 . S
O163 C156 1.185 . S
O163 Zn159 2.086 . S
C164 O160 1.278 . S
C164 O165 1.211 . S
O165 C164 1.211 . S
C166 O158 1.284 . S
C166 O167 1.273 . S
O167 C166 1.273 . S
O168 Zn159 1.977 . S
O168 C161 1.267 . S
C169 O170 1.160 . S
C169 O176 1.185 . S
O170 C169 1.160 . S
O171 Zn172 1.899 . S
O171 C179 1.284 . S
Zn172 O171 1.899 . S
Zn172 O173 2.032 . S
Zn172 O176 2.086 . S
Zn172 O181 1.977 . S
O173 Zn172 2.032 . S
O173 C177 1.278 . S
C174 O175 1.203 . S
C174 O181 1.267 . S
O175 C174 1.203 . S
O176 C169 1.185 . S
O176 Zn172 2.086 . S
C177 O173 1.278 . S
C177 O178 1.211 . S
O178 C177 1.211 . S
C179 O171 1.284 . S
C179 O180 1.273 . S
O180 C179 1.273 . S
O181 Zn172 1.977 . S
O181 C174 1.267 . S
C182 O183 1.160 . S
C182 O189 1.185 1_556 S
O183 C182 1.160 . S
O184 Zn185 1.899 1_556 S
O184 C192 1.284 . S
Zn185 O184 1.899 1_554 S
Zn185 O186 2.032 . S
Zn185 O189 2.086 . S
Zn185 O194 1.977 . S
O186 Zn185 2.032 . S
O186 C190 1.278 . S
C187 O188 1.203 . S
C187 O194 1.267 . S
O188 C187 1.203 . S
O189 C182 1.185 1_554 S
O189 Zn185 2.086 . S
C190 O186 1.278 . S
C190 O191 1.211 . S
O191 C190 1.211 . S
C192 O184 1.284 . S
C192 O193 1.273 . S
O193 C192 1.273 . S
O194 Zn185 1.977 . S
O194 C187 1.267 . S
C195 O196 1.160 . S
C195 O202 1.185 . S
O196 C195 1.160 . S
O197 Zn198 1.899 . S
O197 C205 1.284 . S
Zn198 O197 1.899 . S
Zn198 O199 2.032 . S
Zn198 O202 2.086 . S
Zn198 O207 1.977 . S
O199 Zn198 2.032 . S
O199 C203 1.278 . S
C200 O201 1.203 . S
C200 O207 1.267 . S
O201 C200 1.203 . S
O202 C195 1.185 . S
O202 Zn198 2.086 . S
C203 O199 1.278 . S
C203 O204 1.211 . S
O204 C203 1.211 . S
C205 O197 1.284 . S
C205 O206 1.273 . S
O206 C205 1.273 . S
O207 Zn198 1.977 . S
O207 C200 1.267 . S
H208 C220 0.930 . S
H209 C222 0.930 . S
H210 C223 0.930 . S
H211 C227 0.959 . S
H212 C227 0.959 . S
H213 C227 0.961 . S
H214 C228 0.960 . S
H215 C228 0.961 . S
H216 C228 0.959 . S
H217 C231 0.929 . S
H218 C232 0.931 . S
H219 C234 0.930 . S
C220 H208 0.930 . S
C220 C221 1.399 . S
C220 C225 1.399 . S
C221 C220 1.399 . S
C221 C222 1.376 . S
C222 H209 0.930 . S
C222 C221 1.376 . S
C222 C223 1.388 . S
C223 H210 0.930 . S
C223 C222 1.388 . S
C223 C224 1.390 . S
C224 C223 1.390 . S
C224 C225 1.394 . S
C224 C230 1.465 . S
C225 C220 1.399 . S
C225 C224 1.394 . S
C225 C226 1.516 . S
C226 C225 1.516 . S
C226 C227 1.502 . S
C226 C228 1.561 . S
C226 C229 1.526 . S
C227 H211 0.959 . S
C227 H212 0.959 . S
C227 H213 0.961 . S
C227 C226 1.502 . S
C228 H214 0.960 . S
C228 H215 0.961 . S
C228 H216 0.959 . S
C228 C226 1.561 . S
C229 C226 1.526 . S
C229 C230 1.396 . S
C229 C234 1.390 . S
C230 C224 1.465 . S
C230 C229 1.396 . S
C230 C231 1.399 . S
C231 H217 0.929 . S
C231 C230 1.399 . S
C231 C232 1.385 . S
C232 H218 0.931 . S
C232 C231 1.385 . S
C232 C233 1.389 . S
C233 C232 1.389 . S
C233 C234 1.387 . S
C234 H219 0.930 . S
C234 C229 1.390 . S
C234 C233 1.387 . S
H235 C247 0.930 . S
H236 C249 0.930 1_565 S
H237 C250 0.930 . S
H238 C254 0.959 . S
H239 C254 0.959 . S
H240 C254 0.961 . S
H241 C255 0.960 1_655 S
H242 C255 0.961 . S
H243 C255 0.959 1_655 S
H244 C258 0.929 1_655 S
H245 C259 0.931 . S
H246 C261 0.930 . S
C247 H235 0.930 . S
C247 C248 1.399 . S
C247 C252 1.399 . S
C248 C247 1.399 . S
C248 C249 1.376 . S
C249 H236 0.930 1_545 S
C249 C248 1.376 . S
C249 C250 1.388 1_545 S
C250 H237 0.930 . S
C250 C249 1.388 1_565 S
C250 C251 1.390 1_565 S
C251 C250 1.390 1_545 S
C251 C252 1.394 . S
C251 C257 1.465 1_655 S
C252 C247 1.399 . S
C252 C251 1.394 . S
C252 C253 1.516 1_655 S
C253 C252 1.516 1_455 S
C253 C254 1.502 . S
C253 C255 1.561 . S
C253 C256 1.526 . S
C254 H238 0.959 . S
C254 H239 0.959 . S
C254 H240 0.961 . S
C254 C253 1.502 . S
C255 H241 0.960 1_455 S
C255 H242 0.961 . S
C255 H243 0.959 1_455 S
C255 C253 1.561 . S
C256 C253 1.526 . S
C256 C257 1.396 . S
C256 C261 1.390 . S
C257 C251 1.465 1_455 S
C257 C256 1.396 . S
C257 C258 1.399 1_545 S
C258 H244 0.929 1_455 S
C258 C257 1.399 1_565 S
C258 C259 1.385 . S
C259 H245 0.931 . S
C259 C258 1.385 . S
C259 C260 1.389 1_565 S
C260 C259 1.389 1_545 S
C260 C261 1.387 . S
C261 H246 0.930 . S
C261 C256 1.390 . S
C261 C260 1.387 . S
H262 C274 0.930 . S
H263 C276 0.930 . S
H264 C277 0.930 . S
H265 C281 0.959 . S
H266 C281 0.959 . S
H267 C281 0.961 . S
H268 C282 0.960 . S
H269 C282 0.961 . S
H270 C282 0.959 . S
H271 C285 0.929 . S
H272 C286 0.931 . S
H273 C288 0.930 . S
C274 H262 0.930 . S
C274 C275 1.399 . S
C274 C279 1.399 . S
C275 C274 1.399 . S
C275 C276 1.376 . S
C276 H263 0.930 . S
C276 C275 1.376 . S
C276 C277 1.388 . S
C277 H264 0.930 . S
C277 C276 1.388 . S
C277 C278 1.390 . S
C278 C277 1.390 . S
C278 C279 1.394 . S
C278 C284 1.465 . S
C279 C274 1.399 . S
C279 C278 1.394 . S
C279 C280 1.516 . S
C280 C279 1.516 . S
C280 C281 1.502 . S
C280 C282 1.561 . S
C280 C283 1.526 . S
C281 H265 0.959 . S
C281 H266 0.959 . S
C281 H267 0.961 . S
C281 C280 1.502 . S
C282 H268 0.960 . S
C282 H269 0.961 . S
C282 H270 0.959 . S
C282 C280 1.561 . S
C283 C280 1.526 . S
C283 C284 1.396 . S
C283 C288 1.390 . S
C284 C278 1.465 . S
C284 C283 1.396 . S
C284 C285 1.399 . S
C285 H271 0.929 . S
C285 C284 1.399 . S
C285 C286 1.385 . S
C286 H272 0.931 . S
C286 C285 1.385 . S
C286 C287 1.389 . S
C287 C286 1.389 . S
C287 C288 1.387 . S
C288 H273 0.930 . S
C288 C283 1.390 . S
C288 C287 1.387 . S
H289 C301 0.930 . S
H290 C303 0.930 . S
H291 C304 0.930 1_556 S
H292 C308 0.959 . S
H293 C308 0.959 . S
H294 C308 0.961 . S
H295 C309 0.960 . S
H296 C309 0.961 . S
H297 C309 0.959 . S
H298 C312 0.929 . S
H299 C313 0.931 . S
H300 C315 0.930 . S
C301 H289 0.930 . S
C301 C302 1.399 . S
C301 C306 1.399 . S
C302 C301 1.399 . S
C302 C303 1.376 . S
C303 H290 0.930 . S
C303 C302 1.376 . S
C303 C304 1.388 . S
C304 H291 0.930 1_554 S
C304 C303 1.388 . S
C304 C305 1.390 . S
C305 C304 1.390 . S
C305 C306 1.394 . S
C305 C311 1.465 1_554 S
C306 C301 1.399 . S
C306 C305 1.394 . S
C306 C307 1.516 . S
C307 C306 1.516 . S
C307 C308 1.502 . S
C307 C309 1.561 1_545 S
C307 C310 1.526 . S
C308 H292 0.959 . S
C308 H293 0.959 . S
C308 H294 0.961 . S
C308 C307 1.502 . S
C309 H295 0.960 . S
C309 H296 0.961 . S
C309 H297 0.959 . S
C309 C307 1.561 1_565 S
C310 C307 1.526 . S
C310 C311 1.396 1_554 S
C310 C315 1.390 1_554 S
C311 C305 1.465 1_556 S
C311 C310 1.396 1_556 S
C311 C312 1.399 . S
C312 H298 0.929 . S
C312 C311 1.399 . S
C312 C313 1.385 . S
C313 H299 0.931 . S
C313 C312 1.385 . S
C313 C314 1.389 . S
C314 C313 1.389 . S
C314 C315 1.387 . S
C315 H300 0.930 . S
C315 C310 1.390 1_556 S
C315 C314 1.387 . S
H316 C328 0.930 . S
H317 C330 0.930 . S
H318 C331 0.930 . S
H319 C335 0.959 . S
H320 C335 0.959 . S
H321 C335 0.961 . S
H322 C336 0.960 . S
H323 C336 0.961 . S
H324 C336 0.959 . S
H325 C339 0.929 . S
H326 C340 0.931 . S
H327 C342 0.930 . S
C328 H316 0.930 . S
C328 C329 1.399 . S
C328 C333 1.399 . S
C329 C328 1.399 . S
C329 C330 1.376 . S
C330 H317 0.930 . S
C330 C329 1.376 . S
C330 C331 1.388 . S
C331 H318 0.930 . S
C331 C330 1.388 . S
C331 C332 1.390 . S
C332 C331 1.390 . S
C332 C333 1.394 . S
C332 C338 1.465 . S
C333 C328 1.399 . S
C333 C332 1.394 . S
C333 C334 1.516 . S
C334 C333 1.516 . S
C334 C335 1.502 . S
C334 C336 1.561 . S
C334 C337 1.526 . S
C335 H319 0.959 . S
C335 H320 0.959 . S
C335 H321 0.961 . S
C335 C334 1.502 . S
C336 H322 0.960 . S
C336 H323 0.961 . S
C336 H324 0.959 . S
C336 C334 1.561 . S
C337 C334 1.526 . S
C337 C338 1.396 . S
C337 C342 1.390 . S
C338 C332 1.465 . S
C338 C337 1.396 . S
C338 C339 1.399 . S
C339 H325 0.929 . S
C339 C338 1.399 . S
C339 C340 1.385 . S
C340 H326 0.931 . S
C340 C339 1.385 . S
C340 C341 1.389 . S
C341 C340 1.389 . S
C341 C342 1.387 . S
C342 H327 0.930 . S
C342 C337 1.390 . S
C342 C341 1.387 . S
H343 C355 0.930 . S
H344 C357 0.930 . S
H345 C358 0.930 . S
H346 C362 0.959 . S
H347 C362 0.959 . S
H348 C362 0.961 . S
H349 C363 0.960 . S
H350 C363 0.961 . S
H351 C363 0.959 . S
H352 C366 0.929 . S
H353 C367 0.931 1_565 S
H354 C369 0.930 . S
C355 H343 0.930 . S
C355 C356 1.399 . S
C355 C360 1.399 . S
C356 C355 1.399 . S
C356 C357 1.376 1_545 S
C357 H344 0.930 . S
C357 C356 1.376 1_565 S
C357 C358 1.388 . S
C358 H345 0.930 . S
C358 C357 1.388 . S
C358 C359 1.390 1_565 S
C359 C358 1.390 1_545 S
C359 C360 1.394 . S
C359 C365 1.465 . S
C360 C355 1.399 . S
C360 C359 1.394 . S
C360 C361 1.516 . S
C361 C360 1.516 . S
C361 C362 1.502 . S
C361 C363 1.561 . S
C361 C364 1.526 . S
C362 H346 0.959 . S
C362 H347 0.959 . S
C362 H348 0.961 . S
C362 C361 1.502 . S
C363 H349 0.960 . S
C363 H350 0.961 . S
C363 H351 0.959 . S
C363 C361 1.561 . S
C364 C361 1.526 . S
C364 C365 1.396 . S
C364 C369 1.390 . S
C365 C359 1.465 . S
C365 C364 1.396 . S
C365 C366 1.399 1_545 S
C366 H352 0.929 . S
C366 C365 1.399 1_565 S
C366 C367 1.385 1_565 S
C367 H353 0.931 1_545 S
C367 C366 1.385 1_545 S
C367 C368 1.389 . S
C368 C367 1.389 . S
C368 C369 1.387 . S
C369 H354 0.930 . S
C369 C364 1.390 . S
C369 C368 1.387 . S
H370 C382 0.930 . S
H371 C384 0.930 . S
H372 C385 0.930 . S
H373 C389 0.959 . S
H374 C389 0.959 . S
H375 C389 0.961 . S
H376 C390 0.960 . S
H377 C390 0.961 . S
H378 C390 0.959 . S
H379 C393 0.929 . S
H380 C394 0.931 . S
H381 C396 0.930 . S
C382 H370 0.930 . S
C382 C383 1.399 . S
C382 C387 1.399 . S
C383 C382 1.399 . S
C383 C384 1.376 . S
C384 H371 0.930 . S
C384 C383 1.376 . S
C384 C385 1.388 . S
C385 H372 0.930 . S
C385 C384 1.388 . S
C385 C386 1.390 . S
C386 C385 1.390 . S
C386 C387 1.394 . S
C386 C392 1.465 . S
C387 C382 1.399 . S
C387 C386 1.394 . S
C387 C388 1.516 . S
C388 C387 1.516 . S
C388 C389 1.502 . S
C388 C390 1.561 . S
C388 C391 1.526 . S
C389 H373 0.959 . S
C389 H374 0.959 . S
C389 H375 0.961 . S
C389 C388 1.502 . S
C390 H376 0.960 . S
C390 H377 0.961 . S
C390 H378 0.959 . S
C390 C388 1.561 . S
C391 C388 1.526 . S
C391 C392 1.396 . S
C391 C396 1.390 . S
C392 C386 1.465 . S
C392 C391 1.396 . S
C392 C393 1.399 . S
C393 H379 0.929 . S
C393 C392 1.399 . S
C393 C394 1.385 . S
C394 H380 0.931 . S
C394 C393 1.385 . S
C394 C395 1.389 . S
C395 C394 1.389 . S
C395 C396 1.387 . S
C396 H381 0.930 . S
C396 C391 1.390 . S
C396 C395 1.387 . S
H397 C409 0.930 1_565 S
H398 C411 0.930 . S
H399 C412 0.930 1_554 S
H400 C416 0.959 . S
H401 C416 0.959 . S
H402 C416 0.961 . S
H403 C417 0.960 . S
H404 C417 0.961 1_655 S
H405 C417 0.959 . S
H406 C420 0.929 . S
H407 C421 0.931 . S
H408 C423 0.915 1_565 S
C409 H397 0.930 1_545 S
C409 C410 1.399 . S
C409 C414 1.399 . S
C410 C409 1.399 . S
C410 C411 1.376 . S
C411 H398 0.930 . S
C411 C410 1.376 . S
C411 C412 1.388 . S
C412 H399 0.930 1_556 S
C412 C411 1.388 . S
C412 C413 1.390 1_556 S
C413 C412 1.390 1_554 S
C413 C414 1.394 1_554 S
C413 C419 1.465 1_455 S
C414 C409 1.399 . S
C414 C413 1.394 1_556 S
C414 C415 1.516 1_446 S
C415 C414 1.516 1_664 S
C415 C416 1.502 1_554 S
C415 C417 1.561 1_655 S
C415 C418 1.526 1_565 S
C416 H400 0.959 . S
C416 H401 0.959 . S
C416 H402 0.961 . S
C416 C415 1.502 1_556 S
C417 H403 0.960 . S
C417 H404 0.961 1_455 S
C417 H405 0.959 . S
C417 C415 1.561 1_455 S
C418 C415 1.526 1_545 S
C418 C419 1.396 . S
C418 C423 1.393 . S
C419 C413 1.465 1_655 S
C419 C418 1.396 . S
C419 C420 1.399 . S
C420 H406 0.929 . S
C420 C419 1.399 . S
C420 C421 1.385 . S
C421 H407 0.931 . S
C421 C420 1.385 . S
C421 C422 1.389 . S
C422 C421 1.389 . S
C422 C423 1.399 . S
C423 H408 0.915 1_545 S
C423 C418 1.393 . S
C423 C422 1.399 . S
H424 C436 0.930 . S
H425 C438 0.930 . S
H426 C439 0.930 . S
H427 C443 0.959 . S
H428 C443 0.959 . S
H429 C443 0.961 . S
H430 C444 0.960 . S
H431 C444 0.961 . S
H432 C444 0.959 . S
H433 C447 0.929 . S
H434 C448 0.931 . S
H435 C450 0.930 . S
C436 H424 0.930 . S
C436 C437 1.399 . S
C436 C441 1.399 . S
C437 C436 1.399 . S
C437 C438 1.376 . S
C438 H425 0.930 . S
C438 C437 1.376 . S
C438 C439 1.388 . S
C439 H426 0.930 . S
C439 C438 1.388 . S
C439 C440 1.390 . S
C440 C439 1.390 . S
C440 C441 1.394 . S
C440 C446 1.465 . S
C441 C436 1.399 . S
C441 C440 1.394 . S
C441 C442 1.516 . S
C442 C441 1.516 . S
C442 C443 1.502 . S
C442 C444 1.561 . S
C442 C445 1.526 . S
C443 H427 0.959 . S
C443 H428 0.959 . S
C443 H429 0.961 . S
C443 C442 1.502 . S
C444 H430 0.960 . S
C444 H431 0.961 . S
C444 H432 0.959 . S
C444 C442 1.561 . S
C445 C442 1.526 . S
C445 C446 1.396 . S
C445 C450 1.390 . S
C446 C440 1.465 . S
C446 C445 1.396 . S
C446 C447 1.399 . S
C447 H433 0.929 . S
C447 C446 1.399 . S
C447 C448 1.385 . S
C448 H434 0.931 . S
C448 C447 1.385 . S
C448 C449 1.389 . S
C449 C448 1.389 . S
C449 C450 1.387 . S
C450 H435 0.930 . S
C450 C445 1.390 . S
C450 C449 1.387 . S
H451 C463 0.930 . S
H452 C465 0.930 . S
H453 C466 0.930 . S
H454 C470 0.959 . S
H455 C470 0.959 . S
H456 C470 0.961 . S
H457 C471 0.960 . S
H458 C471 0.961 . S
H459 C471 0.959 . S
H460 C474 0.929 . S
H461 C475 0.931 . S
H462 C477 0.930 . S
C463 H451 0.930 . S
C463 C464 1.399 . S
C463 C468 1.399 . S
C464 C463 1.399 . S
C464 C465 1.376 . S
C465 H452 0.930 . S
C465 C464 1.376 . S
C465 C466 1.388 . S
C466 H453 0.930 . S
C466 C465 1.388 . S
C466 C467 1.390 . S
C467 C466 1.390 . S
C467 C468 1.394 . S
C467 C473 1.465 . S
C468 C463 1.399 . S
C468 C467 1.394 . S
C468 C469 1.516 . S
C469 C468 1.516 . S
C469 C470 1.502 . S
C469 C471 1.561 . S
C469 C472 1.526 . S
C470 H454 0.959 . S
C470 H455 0.959 . S
C470 H456 0.961 . S
C470 C469 1.502 . S
C471 H457 0.960 . S
C471 H458 0.961 . S
C471 H459 0.959 . S
C471 C469 1.561 . S
C472 C469 1.526 . S
C472 C473 1.396 . S
C472 C477 1.390 . S
C473 C467 1.465 . S
C473 C472 1.396 . S
C473 C474 1.399 . S
C474 H460 0.929 . S
C474 C473 1.399 . S
C474 C475 1.385 . S
C475 H461 0.931 . S
C475 C474 1.385 . S
C475 C476 1.389 . S
C476 C475 1.389 . S
C476 C477 1.387 . S
C477 H462 0.930 . S
C477 C472 1.390 . S
C477 C476 1.387 . S
H478 C490 0.930 . S
H479 C492 0.930 . S
H480 C493 0.930 . S
H481 C497 0.959 . S
H482 C497 0.959 . S
H483 C497 0.961 . S
H484 C498 0.960 . S
H485 C498 0.961 . S
H486 C498 0.959 . S
H487 C501 0.929 . S
H488 C502 0.931 . S
H489 C504 0.930 . S
C490 H478 0.930 . S
C490 C491 1.399 . S
C490 C495 1.399 . S
C491 C490 1.399 . S
C491 C492 1.376 . S
C492 H479 0.930 . S
C492 C491 1.376 . S
C492 C493 1.388 . S
C493 H480 0.930 . S
C493 C492 1.388 . S
C493 C494 1.390 . S
C494 C493 1.390 . S
C494 C495 1.394 . S
C494 C500 1.465 . S
C495 C490 1.399 . S
C495 C494 1.394 . S
C495 C496 1.516 . S
C496 C495 1.516 . S
C496 C497 1.502 . S
C496 C498 1.561 . S
C496 C499 1.526 . S
C497 H481 0.959 . S
C497 H482 0.959 . S
C497 H483 0.961 . S
C497 C496 1.502 . S
C498 H484 0.960 . S
C498 H485 0.961 . S
C498 H486 0.959 . S
C498 C496 1.561 . S
C499 C496 1.526 . S
C499 C500 1.396 . S
C499 C504 1.390 . S
C500 C494 1.465 . S
C500 C499 1.396 . S
C500 C501 1.399 . S
C501 H487 0.929 . S
C501 C500 1.399 . S
C501 C502 1.385 . S
C502 H488 0.931 . S
C502 C501 1.385 . S
C502 C503 1.389 . S
C503 C502 1.389 . S
C503 C504 1.387 . S
C504 H489 0.930 . S
C504 C499 1.390 . S
C504 C503 1.387 . S
H505 C517 0.930 . S
H506 C519 0.930 . S
H507 C520 0.930 . S
H508 C524 0.959 . S
H509 C524 0.959 . S
H510 C524 0.961 . S
H511 C525 0.960 . S
H512 C525 0.961 . S
H513 C525 0.959 . S
H514 C528 0.929 . S
H515 C529 0.931 . S
H516 C531 0.930 . S
C517 H505 0.930 . S
C517 C518 1.399 . S
C517 C522 1.399 . S
C518 C517 1.399 . S
C518 C519 1.376 . S
C519 H506 0.930 . S
C519 C518 1.376 . S
C519 C520 1.388 . S
C520 H507 0.930 . S
C520 C519 1.388 . S
C520 C521 1.390 . S
C521 C520 1.390 . S
C521 C522 1.394 . S
C521 C527 1.465 . S
C522 C517 1.399 . S
C522 C521 1.394 . S
C522 C523 1.516 . S
C523 C522 1.516 . S
C523 C524 1.502 . S
C523 C525 1.561 . S
C523 C526 1.526 . S
C524 H508 0.959 . S
C524 H509 0.959 . S
C524 H510 0.961 . S
C524 C523 1.502 . S
C525 H511 0.960 . S
C525 H512 0.961 . S
C525 H513 0.959 . S
C525 C523 1.561 . S
C526 C523 1.526 . S
C526 C527 1.396 . S
C526 C531 1.390 . S
C527 C521 1.465 . S
C527 C526 1.396 . S
C527 C528 1.399 . S
C528 H514 0.929 . S
C528 C527 1.399 . S
C528 C529 1.385 . S
C529 H515 0.931 . S
C529 C528 1.385 . S
C529 C530 1.389 . S
C530 C529 1.389 . S
C530 C531 1.387 . S
C531 H516 0.930 . S
C531 C526 1.390 . S
C531 C530 1.387 . S
H532 C544 0.930 . S
H533 C546 0.930 . S
H534 C547 0.930 1_556 S
H535 C551 0.959 . S
H536 C551 0.959 . S
H537 C551 0.961 . S
H538 C552 0.960 . S
H539 C552 0.961 . S
H540 C552 0.959 . S
H541 C555 0.929 . S
H542 C556 0.931 . S
H543 C558 0.930 . S
C544 H532 0.930 . S
C544 C545 1.399 . S
C544 C549 1.399 . S
C545 C544 1.399 . S
C545 C546 1.376 . S
C546 H533 0.930 . S
C546 C545 1.376 . S
C546 C547 1.388 . S
C547 H534 0.930 1_554 S
C547 C546 1.388 . S
C547 C548 1.390 . S
C548 C547 1.390 . S
C548 C549 1.394 . S
C548 C554 1.465 1_554 S
C549 C544 1.399 . S
C549 C548 1.394 . S
C549 C550 1.516 . S
C550 C549 1.516 . S
C550 C551 1.502 . S
C550 C552 1.561 . S
C550 C553 1.540 . S
C551 H535 0.959 . S
C551 H536 0.959 . S
C551 H537 0.961 . S
C551 C550 1.502 . S
C552 H538 0.960 . S
C552 H539 0.961 . S
C552 H540 0.959 . S
C552 C550 1.561 . S
C553 C550 1.540 . S
C553 C554 1.390 1_554 S
C553 C558 1.381 1_554 S
C554 C548 1.465 1_556 S
C554 C553 1.390 1_556 S
C554 C555 1.399 . S
C555 H541 0.929 . S
C555 C554 1.399 . S
C555 C556 1.385 . S
C556 H542 0.931 . S
C556 C555 1.385 . S
C556 C557 1.389 . S
C557 C556 1.389 . S
C557 C558 1.387 . S
C558 H543 0.930 . S
C558 C553 1.381 1_556 S
C558 C557 1.387 . S
H559 C571 0.930 . S
H560 C573 0.930 . S
H561 C574 0.930 . S
H562 C578 0.959 . S
H563 C578 0.959 . S
H564 C578 0.961 . S
H565 C579 0.960 . S
H566 C579 0.961 . S
H567 C579 0.959 . S
H568 C582 0.950 . S
H569 C583 0.931 . S
H570 C585 0.930 . S
C571 H559 0.930 . S
C571 C572 1.399 . S
C571 C576 1.399 . S
C572 C571 1.399 . S
C572 C573 1.376 . S
C573 H560 0.930 . S
C573 C572 1.376 . S
C573 C574 1.388 . S
C574 H561 0.930 . S
C574 C573 1.388 . S
C574 C575 1.390 . S
C575 C574 1.390 . S
C575 C576 1.394 . S
C575 C581 1.465 1_455 S
C576 C571 1.399 . S
C576 C575 1.394 . S
C576 C577 1.516 1_455 S
C577 C576 1.516 1_655 S
C577 C578 1.502 . S
C577 C579 1.561 . S
C577 C580 1.526 . S
C578 H562 0.959 . S
C578 H563 0.959 . S
C578 H564 0.961 . S
C578 C577 1.502 . S
C579 H565 0.960 . S
C579 H566 0.961 . S
C579 H567 0.959 . S
C579 C577 1.561 . S
C580 C577 1.526 . S
C580 C581 1.396 . S
C580 C585 1.390 . S
C581 C575 1.465 1_655 S
C581 C580 1.396 . S
C581 C582 1.401 1_655 S
C582 H568 0.950 . S
C582 C581 1.401 1_455 S
C582 C583 1.362 1_455 S
C583 H569 0.931 . S
C583 C582 1.362 1_655 S
C583 C584 1.389 . S
C584 C583 1.389 . S
C584 C585 1.387 . S
C585 H570 0.930 . S
C585 C580 1.390 . S
C585 C584 1.387 . S
H586 C598 0.930 . S
H587 C600 0.930 . S
H588 C601 0.930 . S
H589 C605 0.959 . S
H590 C605 0.959 . S
H591 C605 0.961 . S
H592 C606 0.960 1_554 S
H593 C606 0.961 1_655 S
H594 C606 0.959 . S
H595 C609 0.929 . S
H596 C610 0.931 . S
H597 C612 0.930 . S
C598 H586 0.930 . S
C598 C599 1.399 . S
C598 C603 1.399 . S
C599 C598 1.399 . S
C599 C600 1.376 . S
C600 H587 0.930 . S
C600 C599 1.376 . S
C600 C601 1.388 . S
C601 H588 0.930 . S
C601 C600 1.388 . S
C601 C602 1.390 . S
C602 C601 1.390 . S
C602 C603 1.394 . S
C602 C608 1.465 1_454 S
C603 C598 1.399 . S
C603 C602 1.394 . S
C603 C604 1.516 1_455 S
C604 C603 1.516 1_655 S
C604 C605 1.502 . S
C604 C606 1.561 1_654 S
C604 C607 1.526 1_554 S
C605 H589 0.959 . S
C605 H590 0.959 . S
C605 H591 0.961 . S
C605 C604 1.502 . S
C606 H592 0.960 1_556 S
C606 H593 0.961 1_455 S
C606 H594 0.959 . S
C606 C604 1.561 1_456 S
C607 C604 1.526 1_556 S
C607 C608 1.396 . S
C607 C612 1.390 . S
C608 C602 1.465 1_656 S
C608 C607 1.396 . S
C608 C609 1.399 . S
C609 H595 0.929 . S
C609 C608 1.399 . S
C609 C610 1.385 . S
C610 H596 0.931 . S
C610 C609 1.385 . S
C610 C611 1.389 . S
C611 C610 1.389 . S
C611 C612 1.387 . S
C612 H597 0.930 . S
C612 C607 1.390 . S
C612 C611 1.387 . S
H613 C625 0.930 . S
H614 C627 0.930 . S
H615 C628 0.930 . S
H616 C632 0.959 . S
H617 C632 0.959 . S
H618 C632 0.961 . S
H619 C633 0.960 . S
H620 C633 0.961 . S
H621 C633 0.959 . S
H622 C636 0.929 . S
H623 C637 0.931 . S
H624 C639 0.930 . S
C625 H613 0.930 . S
C625 C626 1.399 . S
C625 C630 1.399 . S
C626 C625 1.399 . S
C626 C627 1.376 . S
C627 H614 0.930 . S
C627 C626 1.376 . S
C627 C628 1.388 . S
C628 H615 0.930 . S
C628 C627 1.388 . S
C628 C629 1.390 . S
C629 C628 1.390 . S
C629 C630 1.394 . S
C629 C635 1.465 . S
C630 C625 1.399 . S
C630 C629 1.394 . S
C630 C631 1.516 . S
C631 C630 1.516 . S
C631 C632 1.502 . S
C631 C633 1.561 . S
C631 C634 1.526 . S
C632 H616 0.959 . S
C632 H617 0.959 . S
C632 H618 0.961 . S
C632 C631 1.502 . S
C633 H619 0.960 . S
C633 H620 0.961 . S
C633 H621 0.959 . S
C633 C631 1.561 . S
C634 C631 1.526 . S
C634 C635 1.396 . S
C634 C639 1.390 . S
C635 C629 1.465 . S
C635 C634 1.396 . S
C635 C636 1.399 . S
C636 H622 0.929 . S
C636 C635 1.399 . S
C636 C637 1.385 . S
C637 H623 0.931 . S
C637 C636 1.385 . S
C637 C638 1.389 . S
C638 C637 1.389 . S
C638 C639 1.387 . S
C639 H624 0.930 . S
C639 C634 1.390 . S
C639 C638 1.387 . S
H640 C652 0.930 . S
H641 C654 0.930 . S
H642 C655 0.930 . S
H643 C659 0.959 . S
H644 C659 0.959 . S
H645 C659 0.961 . S
H646 C660 0.960 . S
H647 C660 0.961 . S
H648 C660 0.959 . S
H649 C663 0.929 . S
H650 C664 0.931 1_556 S
H651 C666 0.930 . S
C652 H640 0.930 . S
C652 C653 1.399 . S
C652 C657 1.399 . S
C653 C652 1.399 . S
C653 C654 1.376 . S
C654 H641 0.930 . S
C654 C653 1.376 . S
C654 C655 1.388 . S
C655 H642 0.930 . S
C655 C654 1.388 . S
C655 C656 1.390 . S
C656 C655 1.390 . S
C656 C657 1.394 . S
C656 C662 1.465 . S
C657 C652 1.399 . S
C657 C656 1.394 . S
C657 C658 1.516 . S
C658 C657 1.516 . S
C658 C659 1.502 . S
C658 C660 1.561 . S
C658 C661 1.526 . S
C659 H643 0.959 . S
C659 H644 0.959 . S
C659 H645 0.961 . S
C659 C658 1.502 . S
C660 H646 0.960 . S
C660 H647 0.961 . S
C660 H648 0.959 . S
C660 C658 1.561 . S
C661 C658 1.526 . S
C661 C662 1.396 . S
C661 C666 1.390 . S
C662 C656 1.465 . S
C662 C661 1.396 . S
C662 C663 1.399 . S
C663 H649 0.929 . S
C663 C662 1.399 . S
C663 C664 1.385 . S
C664 H650 0.931 1_554 S
C664 C663 1.385 . S
C664 C665 1.389 . S
C665 C664 1.389 . S
C665 C666 1.387 . S
C666 H651 0.930 . S
C666 C661 1.390 . S
C666 C665 1.387 . S
H667 C679 0.930 . S
H668 C681 0.930 . S
H669 C682 0.930 . S
H670 C686 0.959 . S
H671 C686 0.959 . S
H672 C686 0.961 . S
H673 C687 0.960 . S
H674 C687 0.961 . S
H675 C687 0.959 . S
H676 C690 0.929 . S
H677 C691 0.931 . S
H678 C693 0.930 . S
C679 H667 0.930 . S
C679 C680 1.399 . S
C679 C684 1.399 . S
C680 C679 1.399 . S
C680 C681 1.376 . S
C681 H668 0.930 . S
C681 C680 1.376 . S
C681 C682 1.388 . S
C682 H669 0.930 . S
C682 C681 1.388 . S
C682 C683 1.390 . S
C683 C682 1.390 . S
C683 C684 1.394 . S
C683 C689 1.465 . S
C684 C679 1.399 . S
C684 C683 1.394 . S
C684 C685 1.516 . S
C685 C684 1.516 . S
C685 C686 1.502 . S
C685 C687 1.561 . S
C685 C688 1.526 . S
C686 H670 0.959 . S
C686 H671 0.959 . S
C686 H672 0.961 . S
C686 C685 1.502 . S
C687 H673 0.960 . S
C687 H674 0.961 . S
C687 H675 0.959 . S
C687 C685 1.561 . S
C688 C685 1.526 . S
C688 C689 1.396 . S
C688 C693 1.390 . S
C689 C683 1.465 . S
C689 C688 1.396 . S
C689 C690 1.399 . S
C690 H676 0.929 . S
C690 C689 1.399 . S
C690 C691 1.385 . S
C691 H677 0.931 . S
C691 C690 1.385 . S
C691 C692 1.389 . S
C692 C691 1.389 . S
C692 C693 1.387 . S
C693 H678 0.930 . S
C693 C688 1.390 . S
C693 C692 1.387 . S
H694 C706 0.930 . S
H695 C708 0.930 . S
H696 C709 0.930 . S
H697 C713 0.959 . S
H698 C713 0.959 . S
H699 C713 0.961 . S
H700 C714 0.960 . S
H701 C714 0.961 . S
H702 C714 0.959 . S
H703 C717 0.929 . S
H704 C718 0.931 . S
H705 C720 0.930 . S
C706 H694 0.930 . S
C706 C707 1.399 . S
C706 C711 1.399 . S
C707 C706 1.399 . S
C707 C708 1.376 . S
C708 H695 0.930 . S
C708 C707 1.376 . S
C708 C709 1.388 . S
C709 H696 0.930 . S
C709 C708 1.388 . S
C709 C710 1.390 . S
C710 C709 1.390 . S
C710 C711 1.394 . S
C710 C716 1.465 . S
C711 C706 1.399 . S
C711 C710 1.394 . S
C711 C712 1.516 . S
C712 C711 1.516 . S
C712 C713 1.502 . S
C712 C714 1.561 . S
C712 C715 1.526 . S
C713 H697 0.959 . S
C713 H698 0.959 . S
C713 H699 0.961 . S
C713 C712 1.502 . S
C714 H700 0.960 . S
C714 H701 0.961 . S
C714 H702 0.959 . S
C714 C712 1.561 . S
C715 C712 1.526 . S
C715 C716 1.396 . S
C715 C720 1.390 . S
C716 C710 1.465 . S
C716 C715 1.396 . S
C716 C717 1.399 . S
C717 H703 0.929 . S
C717 C716 1.399 . S
C717 C718 1.385 . S
C718 H704 0.931 . S
C718 C717 1.385 . S
C718 C719 1.389 . S
C719 C718 1.389 . S
C719 C720 1.387 . S
C720 H705 0.930 . S
C720 C715 1.390 . S
C720 C719 1.387 . S
H721 C733 0.930 1_554 S
H722 C735 0.930 . S
H723 C736 0.930 . S
H724 C740 0.959 . S
H725 C740 0.959 1_554 S
H726 C740 0.961 1_554 S
H727 C741 0.960 . S
H728 C741 0.961 . S
H729 C741 0.959 1_556 S
H730 C744 0.929 . S
H731 C745 0.931 . S
H732 C747 0.930 . S
C733 H721 0.930 1_556 S
C733 C734 1.399 . S
C733 C738 1.399 . S
C734 C733 1.399 . S
C734 C735 1.376 . S
C735 H722 0.930 . S
C735 C734 1.376 . S
C735 C736 1.388 . S
C736 H723 0.930 . S
C736 C735 1.388 . S
C736 C737 1.390 . S
C737 C736 1.390 . S
C737 C738 1.394 . S
C737 C743 1.465 . S
C738 C733 1.399 . S
C738 C737 1.394 . S
C738 C739 1.516 . S
C739 C738 1.516 . S
C739 C740 1.502 . S
C739 C741 1.561 1_556 S
C739 C742 1.526 . S
C740 H724 0.959 . S
C740 H725 0.959 1_556 S
C740 H726 0.961 1_556 S
C740 C739 1.502 . S
C741 H727 0.960 . S
C741 H728 0.961 . S
C741 H729 0.959 1_554 S
C741 C739 1.561 1_554 S
C742 C739 1.526 . S
C742 C743 1.396 . S
C742 C747 1.390 . S
C743 C737 1.465 . S
C743 C742 1.396 . S
C743 C744 1.399 . S
C744 H730 0.929 . S
C744 C743 1.399 . S
C744 C745 1.385 . S
C745 H731 0.931 . S
C745 C744 1.385 . S
C745 C746 1.389 . S
C746 C745 1.389 . S
C746 C747 1.387 . S
C747 H732 0.930 . S
C747 C742 1.390 . S
C747 C746 1.387 . S
H748 C760 0.930 . S
H749 C762 0.930 . S
H750 C763 0.930 . S
H751 C767 0.959 . S
H752 C767 0.959 . S
H753 C767 0.961 . S
H754 C768 0.960 . S
H755 C768 0.961 . S
H756 C768 0.959 . S
H757 C771 0.929 . S
H758 C772 0.931 . S
H759 C774 0.930 . S
C760 H748 0.930 . S
C760 C761 1.399 . S
C760 C765 1.399 . S
C761 C760 1.399 . S
C761 C762 1.376 . S
C762 H749 0.930 . S
C762 C761 1.376 . S
C762 C763 1.388 . S
C763 H750 0.930 . S
C763 C762 1.388 . S
C763 C764 1.390 . S
C764 C763 1.390 . S
C764 C765 1.394 . S
C764 C770 1.465 . S
C765 C760 1.399 . S
C765 C764 1.394 . S
C765 C766 1.516 . S
C766 C765 1.516 . S
C766 C767 1.502 . S
C766 C768 1.561 . S
C766 C769 1.526 . S
C767 H751 0.959 . S
C767 H752 0.959 . S
C767 H753 0.961 . S
C767 C766 1.502 . S
C768 H754 0.960 . S
C768 H755 0.961 . S
C768 H756 0.959 . S
C768 C766 1.561 . S
C769 C766 1.526 . S
C769 C770 1.396 . S
C769 C774 1.390 . S
C770 C764 1.465 . S
C770 C769 1.396 . S
C770 C771 1.399 . S
C771 H757 0.929 . S
C771 C770 1.399 . S
C771 C772 1.385 . S
C772 H758 0.931 . S
C772 C771 1.385 . S
C772 C773 1.389 . S
C773 C772 1.389 . S
C773 C774 1.387 . S
C774 H759 0.930 . S
C774 C769 1.390 . S
C774 C773 1.387 . S
H775 C787 0.930 . S
H776 C789 0.930 . S
H777 C790 0.930 . S
H778 C794 0.959 . S
H779 C794 0.959 . S
H780 C794 0.961 . S
H781 C795 0.960 . S
H782 C795 0.961 . S
H783 C795 0.959 . S
H784 C798 0.929 . S
H785 C799 0.931 . S
H786 C801 0.930 . S
C787 H775 0.930 . S
C787 C788 1.399 . S
C787 C792 1.399 . S
C788 C787 1.399 . S
C788 C789 1.376 . S
C789 H776 0.930 . S
C789 C788 1.376 . S
C789 C790 1.388 . S
C790 H777 0.930 . S
C790 C789 1.388 . S
C790 C791 1.390 . S
C791 C790 1.390 . S
C791 C792 1.394 . S
C791 C797 1.465 . S
C792 C787 1.399 . S
C792 C791 1.394 . S
C792 C793 1.516 . S
C793 C792 1.516 . S
C793 C794 1.502 . S
C793 C795 1.561 . S
C793 C796 1.526 . S
C794 H778 0.959 . S
C794 H779 0.959 . S
C794 H780 0.961 . S
C794 C793 1.502 . S
C795 H781 0.960 . S
C795 H782 0.961 . S
C795 H783 0.959 . S
C795 C793 1.561 . S
C796 C793 1.526 . S
C796 C797 1.396 . S
C796 C801 1.390 . S
C797 C791 1.465 . S
C797 C796 1.396 . S
C797 C798 1.399 . S
C798 H784 0.929 . S
C798 C797 1.399 . S
C798 C799 1.385 . S
C799 H785 0.931 . S
C799 C798 1.385 . S
C799 C800 1.389 . S
C800 C799 1.389 . S
C800 C801 1.387 . S
C801 H786 0.930 . S
C801 C796 1.390 . S
C801 C800 1.387 . S
H802 C814 0.930 . S
H803 C816 0.930 . S
H804 C817 0.930 . S
H805 C821 0.959 . S
H806 C821 0.959 . S
H807 C821 0.961 . S
H808 C822 0.960 . S
H809 C822 0.961 1_554 S
H810 C822 0.959 1_554 S
H811 C825 0.929 . S
H812 C826 0.931 . S
H813 C828 0.930 . S
C814 H802 0.930 . S
C814 C815 1.399 . S
C814 C819 1.399 . S
C815 C814 1.399 . S
C815 C816 1.376 . S
C816 H803 0.930 . S
C816 C815 1.376 . S
C816 C817 1.388 . S
C817 H804 0.930 . S
C817 C816 1.388 . S
C817 C818 1.390 . S
C818 C817 1.390 . S
C818 C819 1.394 . S
C818 C824 1.465 . S
C819 C814 1.399 . S
C819 C818 1.394 . S
C819 C820 1.516 . S
C820 C819 1.516 . S
C820 C821 1.502 . S
C820 C822 1.561 . S
C820 C823 1.526 . S
C821 H805 0.959 . S
C821 H806 0.959 . S
C821 H807 0.961 . S
C821 C820 1.502 . S
C822 H808 0.960 . S
C822 H809 0.961 1_556 S
C822 H810 0.959 1_556 S
C822 C820 1.561 . S
C823 C820 1.526 . S
C823 C824 1.396 . S
C823 C828 1.390 . S
C824 C818 1.465 . S
C824 C823 1.396 . S
C824 C825 1.399 . S
C825 H811 0.929 . S
C825 C824 1.399 . S
C825 C826 1.385 . S
C826 H812 0.931 . S
C826 C825 1.385 . S
C826 C827 1.389 . S
C827 C826 1.389 . S
C827 C828 1.387 . S
C828 H813 0.930 . S
C828 C823 1.390 . S
C828 C827 1.387 . S
H829 C841 0.930 . S
H830 C843 0.930 . S
H831 C844 0.930 . S
H832 C848 0.959 . S
H833 C848 0.959 . S
H834 C848 0.961 . S
H835 C849 0.960 . S
H836 C849 0.961 . S
H837 C849 0.959 . S
H838 C852 0.929 . S
H839 C853 0.931 . S
H840 C855 0.930 . S
C841 H829 0.930 . S
C841 C842 1.399 . S
C841 C846 1.399 . S
C842 C841 1.399 . S
C842 C843 1.376 . S
C843 H830 0.930 . S
C843 C842 1.376 . S
C843 C844 1.388 . S
C844 H831 0.930 . S
C844 C843 1.388 . S
C844 C845 1.390 . S
C845 C844 1.390 . S
C845 C846 1.394 . S
C845 C851 1.465 . S
C846 C841 1.399 . S
C846 C845 1.394 . S
C846 C847 1.516 . S
C847 C846 1.516 . S
C847 C848 1.502 . S
C847 C849 1.561 . S
C847 C850 1.526 . S
C848 H832 0.959 . S
C848 H833 0.959 . S
C848 H834 0.961 . S
C848 C847 1.502 . S
C849 H835 0.960 . S
C849 H836 0.961 . S
C849 H837 0.959 . S
C849 C847 1.561 . S
C850 C847 1.526 . S
C850 C851 1.396 . S
C850 C855 1.390 . S
C851 C845 1.465 . S
C851 C850 1.396 . S
C851 C852 1.399 . S
C852 H838 0.929 . S
C852 C851 1.399 . S
C852 C853 1.385 . S
C853 H839 0.931 . S
C853 C852 1.385 . S
C853 C854 1.389 . S
C854 C853 1.389 . S
C854 C855 1.387 . S
C855 H840 0.930 . S
C855 C850 1.390 . S
C855 C854 1.387 . S
H856 C868 0.930 1_554 S
H857 C870 0.930 . S
H858 C871 0.930 . S
H859 C875 0.959 . S
H860 C875 0.959 1_554 S
H861 C875 0.961 1_554 S
H862 C876 0.960 . S
H863 C876 0.961 . S
H864 C876 0.959 1_556 S
H865 C879 0.929 . S
H866 C880 0.931 . S
H867 C882 0.930 . S
C868 H856 0.930 1_556 S
C868 C869 1.399 . S
C868 C873 1.399 . S
C869 C868 1.399 . S
C869 C870 1.376 . S
C870 H857 0.930 . S
C870 C869 1.376 . S
C870 C871 1.388 . S
C871 H858 0.930 . S
C871 C870 1.388 . S
C871 C872 1.390 . S
C872 C871 1.390 . S
C872 C873 1.394 . S
C872 C878 1.465 . S
C873 C868 1.399 . S
C873 C872 1.394 . S
C873 C874 1.516 . S
C874 C873 1.516 . S
C874 C875 1.502 . S
C874 C876 1.561 1_556 S
C874 C877 1.526 . S
C875 H859 0.959 . S
C875 H860 0.959 1_556 S
C875 H861 0.961 1_556 S
C875 C874 1.502 . S
C876 H862 0.960 . S
C876 H863 0.961 . S
C876 H864 0.959 1_554 S
C876 C874 1.561 1_554 S
C877 C874 1.526 . S
C877 C878 1.396 . S
C877 C882 1.390 . S
C878 C872 1.465 . S
C878 C877 1.396 . S
C878 C879 1.399 . S
C879 H865 0.929 . S
C879 C878 1.399 . S
C879 C880 1.385 . S
C880 H866 0.931 . S
C880 C879 1.385 . S
C880 C881 1.389 . S
C881 C880 1.389 . S
C881 C882 1.387 . S
C882 H867 0.930 . S
C882 C877 1.390 . S
C882 C881 1.387 . S
H883 C895 0.930 . S
H884 C897 0.930 . S
H885 C898 0.930 . S
H886 C902 0.959 . S
H887 C902 0.959 . S
H888 C902 0.961 . S
H889 C903 0.960 . S
H890 C903 0.961 . S
H891 C903 0.959 . S
H892 C906 0.929 . S
H893 C907 0.931 . S
H894 C909 0.930 . S
C895 H883 0.930 . S
C895 C896 1.399 . S
C895 C900 1.399 . S
C896 C895 1.399 . S
C896 C897 1.376 . S
C897 H884 0.930 . S
C897 C896 1.376 . S
C897 C898 1.388 . S
C898 H885 0.930 . S
C898 C897 1.388 . S
C898 C899 1.390 . S
C899 C898 1.390 . S
C899 C900 1.394 . S
C899 C905 1.465 . S
C900 C895 1.399 . S
C900 C899 1.394 . S
C900 C901 1.516 . S
C901 C900 1.516 . S
C901 C902 1.502 . S
C901 C903 1.561 . S
C901 C904 1.526 . S
C902 H886 0.959 . S
C902 H887 0.959 . S
C902 H888 0.961 . S
C902 C901 1.502 . S
C903 H889 0.960 . S
C903 H890 0.961 . S
C903 H891 0.959 . S
C903 C901 1.561 . S
C904 C901 1.526 . S
C904 C905 1.396 . S
C904 C909 1.390 . S
C905 C899 1.465 . S
C905 C904 1.396 . S
C905 C906 1.399 . S
C906 H892 0.929 . S
C906 C905 1.399 . S
C906 C907 1.385 . S
C907 H893 0.931 . S
C907 C906 1.385 . S
C907 C908 1.389 . S
C908 C907 1.389 . S
C908 C909 1.387 . S
C909 H894 0.930 . S
C909 C904 1.390 . S
C909 C908 1.387 . S
H910 C922 0.930 . S
H911 C924 0.930 . S
H912 C925 0.930 . S
H913 C929 0.959 . S
H914 C929 0.959 . S
H915 C929 0.961 . S
H916 C930 0.960 . S
H917 C930 0.961 . S
H918 C930 0.959 . S
H919 C933 0.929 . S
H920 C934 0.931 . S
H921 C936 0.930 . S
C922 H910 0.930 . S
C922 C923 1.399 . S
C922 C927 1.399 . S
C923 C922 1.399 . S
C923 C924 1.376 . S
C924 H911 0.930 . S
C924 C923 1.376 . S
C924 C925 1.388 . S
C925 H912 0.930 . S
C925 C924 1.388 . S
C925 C926 1.390 . S
C926 C925 1.390 . S
C926 C927 1.394 . S
C926 C932 1.465 . S
C927 C922 1.399 . S
C927 C926 1.394 . S
C927 C928 1.516 . S
C928 C927 1.516 . S
C928 C929 1.502 . S
C928 C930 1.561 . S
C928 C931 1.526 . S
C929 H913 0.959 . S
C929 H914 0.959 . S
C929 H915 0.961 . S
C929 C928 1.502 . S
C930 H916 0.960 . S
C930 H917 0.961 . S
C930 H918 0.959 . S
C930 C928 1.561 . S
C931 C928 1.526 . S
C931 C932 1.396 . S
C931 C936 1.390 . S
C932 C926 1.465 . S
C932 C931 1.396 . S
C932 C933 1.399 . S
C933 H919 0.929 . S
C933 C932 1.399 . S
C933 C934 1.385 . S
C934 H920 0.931 . S
C934 C933 1.385 . S
C934 C935 1.389 . S
C935 C934 1.389 . S
C935 C936 1.387 . S
C936 H921 0.930 . S
C936 C931 1.390 . S
C936 C935 1.387 . S
H937 C949 0.930 . S
H938 C951 0.930 . S
H939 C952 0.930 . S
H940 C956 0.959 . S
H941 C956 0.959 . S
H942 C956 0.961 . S
H943 C957 0.960 . S
H944 C957 0.961 . S
H945 C957 0.959 . S
H946 C960 0.929 . S
H947 C961 0.931 . S
H948 C963 0.930 . S
C949 H937 0.930 . S
C949 C950 1.399 . S
C949 C954 1.399 . S
C950 C949 1.399 . S
C950 C951 1.376 . S
C951 H938 0.930 . S
C951 C950 1.376 . S
C951 C952 1.388 . S
C952 H939 0.930 . S
C952 C951 1.388 . S
C952 C953 1.390 . S
C953 C952 1.390 . S
C953 C954 1.394 . S
C953 C959 1.465 . S
C954 C949 1.399 . S
C954 C953 1.394 . S
C954 C955 1.516 . S
C955 C954 1.516 . S
C955 C956 1.502 . S
C955 C957 1.561 . S
C955 C958 1.526 . S
C956 H940 0.959 . S
C956 H941 0.959 . S
C956 H942 0.961 . S
C956 C955 1.502 . S
C957 H943 0.960 . S
C957 H944 0.961 . S
C957 H945 0.959 . S
C957 C955 1.561 . S
C958 C955 1.526 . S
C958 C959 1.396 . S
C958 C963 1.390 . S
C959 C953 1.465 . S
C959 C958 1.396 . S
C959 C960 1.399 . S
C960 H946 0.929 . S
C960 C959 1.399 . S
C960 C961 1.385 . S
C961 H947 0.931 . S
C961 C960 1.385 . S
C961 C962 1.389 . S
C962 C961 1.389 . S
C962 C963 1.387 . S
C963 H948 0.930 . S
C963 C958 1.390 . S
C963 C962 1.387 . S
H964 C976 0.930 . S
H965 C978 0.930 . S
H966 C979 0.930 . S
H967 C983 0.959 . S
H968 C983 0.959 . S
H969 C983 0.961 . S
H970 C984 0.960 . S
H971 C984 0.961 . S
H972 C984 0.959 . S
H973 C987 0.929 . S
H974 C988 0.931 . S
H975 C990 0.930 . S
C976 H964 0.930 . S
C976 C977 1.399 . S
C976 C981 1.399 . S
C977 C976 1.399 . S
C977 C978 1.376 . S
C978 H965 0.930 . S
C978 C977 1.376 . S
C978 C979 1.388 . S
C979 H966 0.930 . S
C979 C978 1.388 . S
C979 C980 1.390 . S
C980 C979 1.390 . S
C980 C981 1.394 . S
C980 C986 1.465 . S
C981 C976 1.399 . S
C981 C980 1.394 . S
C981 C982 1.516 . S
C982 C981 1.516 . S
C982 C983 1.502 . S
C982 C984 1.561 . S
C982 C985 1.526 . S
C983 H967 0.959 . S
C983 H968 0.959 . S
C983 H969 0.961 . S
C983 C982 1.502 . S
C984 H970 0.960 . S
C984 H971 0.961 . S
C984 H972 0.959 . S
C984 C982 1.561 . S
C985 C982 1.526 . S
C985 C986 1.396 . S
C985 C990 1.390 . S
C986 C980 1.465 . S
C986 C985 1.396 . S
C986 C987 1.399 . S
C987 H973 0.929 . S
C987 C986 1.399 . S
C987 C988 1.385 . S
C988 H974 0.931 . S
C988 C987 1.385 . S
C988 C989 1.389 . S
C989 C988 1.389 . S
C989 C990 1.387 . S
C990 H975 0.930 . S
C990 C985 1.390 . S
C990 C989 1.387 . S
H991 C1003 0.930 . S
H992 C1005 0.930 . S
H993 C1006 0.930 . S
H994 C1010 0.959 . S
H995 C1010 0.959 . S
H996 C1010 0.961 . S
H997 C1011 0.960 . S
H998 C1011 0.961 . S
H999 C1011 0.959 . S
H1000 C1014 0.929 . S
H1001 C1015 0.931 . S
H1002 C1017 0.930 . S
C1003 H991 0.930 . S
C1003 C1004 1.399 . S
C1003 C1008 1.399 . S
C1004 C1003 1.399 . S
C1004 C1005 1.376 . S
C1005 H992 0.930 . S
C1005 C1004 1.376 . S
C1005 C1006 1.388 . S
C1006 H993 0.930 . S
C1006 C1005 1.388 . S
C1006 C1007 1.390 . S
C1007 C1006 1.390 . S
C1007 C1008 1.394 . S
C1007 C1013 1.465 . S
C1008 C1003 1.399 . S
C1008 C1007 1.394 . S
C1008 C1009 1.516 . S
C1009 C1008 1.516 . S
C1009 C1010 1.502 . S
C1009 C1011 1.561 . S
C1009 C1012 1.526 . S
C1010 H994 0.959 . S
C1010 H995 0.959 . S
C1010 H996 0.961 . S
C1010 C1009 1.502 . S
C1011 H997 0.960 . S
C1011 H998 0.961 . S
C1011 H999 0.959 . S
C1011 C1009 1.561 . S
C1012 C1009 1.526 . S
C1012 C1013 1.396 . S
C1012 C1017 1.390 . S
C1013 C1007 1.465 . S
C1013 C1012 1.396 . S
C1013 C1014 1.399 . S
C1014 H1000 0.929 . S
C1014 C1013 1.399 . S
C1014 C1015 1.385 . S
C1015 H1001 0.931 . S
C1015 C1014 1.385 . S
C1015 C1016 1.389 . S
C1016 C1015 1.389 . S
C1016 C1017 1.387 . S
C1017 H1002 0.930 . S
C1017 C1012 1.390 . S
C1017 C1016 1.387 . S
H1018 C1030 0.930 . S
H1019 C1032 0.930 . S
H1020 C1033 0.930 . S
H1021 C1037 0.959 . S
H1022 C1037 0.959 . S
H1023 C1037 0.961 . S
H1024 C1038 0.960 . S
H1025 C1038 0.961 . S
H1026 C1038 0.959 . S
H1027 C1041 0.929 . S
H1028 C1042 0.931 1_556 S
H1029 C1044 0.930 . S
C1030 H1018 0.930 . S
C1030 C1031 1.399 . S
C1030 C1035 1.399 . S
C1031 C1030 1.399 . S
C1031 C1032 1.376 . S
C1032 H1019 0.930 . S
C1032 C1031 1.376 . S
C1032 C1033 1.388 . S
C1033 H1020 0.930 . S
C1033 C1032 1.388 . S
C1033 C1034 1.390 . S
C1034 C1033 1.390 . S
C1034 C1035 1.394 . S
C1034 C1040 1.465 . S
C1035 C1030 1.399 . S
C1035 C1034 1.394 . S
C1035 C1036 1.516 . S
C1036 C1035 1.516 . S
C1036 C1037 1.502 . S
C1036 C1038 1.561 . S
C1036 C1039 1.526 . S
C1037 H1021 0.959 . S
C1037 H1022 0.959 . S
C1037 H1023 0.961 . S
C1037 C1036 1.502 . S
C1038 H1024 0.960 . S
C1038 H1025 0.961 . S
C1038 H1026 0.959 . S
C1038 C1036 1.561 . S
C1039 C1036 1.526 . S
C1039 C1040 1.396 . S
C1039 C1044 1.390 . S
C1040 C1034 1.465 . S
C1040 C1039 1.396 . S
C1040 C1041 1.399 . S
C1041 H1027 0.929 . S
C1041 C1040 1.399 . S
C1041 C1042 1.385 . S
C1042 H1028 0.931 1_554 S
C1042 C1041 1.385 . S
C1042 C1043 1.389 . S
C1043 C1042 1.389 . S
C1043 C1044 1.387 . S
C1044 H1029 0.930 . S
C1044 C1039 1.390 . S
C1044 C1043 1.387 . S
H1045 C1057 0.930 . S
H1046 C1059 0.930 . S
H1047 C1060 0.930 . S
H1048 C1064 0.959 . S
H1049 C1064 0.959 . S
H1050 C1064 0.961 . S
H1051 C1065 0.960 . S
H1052 C1065 0.961 . S
H1053 C1065 0.959 . S
H1054 C1068 0.929 . S
H1055 C1069 0.931 . S
H1056 C1071 0.930 . S
C1057 H1045 0.930 . S
C1057 C1058 1.399 . S
C1057 C1062 1.399 . S
C1058 C1057 1.399 . S
C1058 C1059 1.376 1_556 S
C1059 H1046 0.930 . S
C1059 C1058 1.376 1_554 S
C1059 C1060 1.388 . S
C1060 H1047 0.930 . S
C1060 C1059 1.388 . S
C1060 C1061 1.390 1_554 S
C1061 C1060 1.390 1_556 S
C1061 C1062 1.394 . S
C1061 C1067 1.465 . S
C1062 C1057 1.399 . S
C1062 C1061 1.394 . S
C1062 C1063 1.516 . S
C1063 C1062 1.516 . S
C1063 C1064 1.502 . S
C1063 C1065 1.561 . S
C1063 C1066 1.526 . S
C1064 H1048 0.959 . S
C1064 H1049 0.959 . S
C1064 H1050 0.961 . S
C1064 C1063 1.502 . S
C1065 H1051 0.960 . S
C1065 H1052 0.961 . S
C1065 H1053 0.959 . S
C1065 C1063 1.561 . S
C1066 C1063 1.526 . S
C1066 C1067 1.396 . S
C1066 C1071 1.390 . S
C1067 C1061 1.465 . S
C1067 C1066 1.396 . S
C1067 C1068 1.399 . S
C1068 H1054 0.929 . S
C1068 C1067 1.399 . S
C1068 C1069 1.385 . S
C1069 H1055 0.931 . S
C1069 C1068 1.385 . S
C1069 C1070 1.389 . S
C1070 C1069 1.389 . S
C1070 C1071 1.387 . S
C1071 H1056 0.930 . S
C1071 C1066 1.390 . S
C1071 C1070 1.387 . S
C221 C10 1.265 . S
C233 C166 1.268 . S
C248 C18 1.012 . S
C260 C70 1.057 . S
C275 C36 1.262 . S
C287 C192 1.273 . S
C302 C96 1.043 . S
C314 C44 0.988 . S
C329 C187 1.047 . S
C341 C31 1.023 . S
C356 C101 1.273 . S
C368 C49 1.263 . S
C383 C161 0.982 . S
C395 C5 1.048 . S
C410 C75 1.273 . S
C422 C23 1.263 . S
C437 C62 1.269 . S
C449 C114 1.268 . S
C464 C88 1.269 . S
C476 C140 1.265 . S
C491 C135 0.965 . S
C503 C83 1.068 . S
C518 C57 0.994 . S
C530 C109 1.071 . S
C545 C174 1.072 . S
C557 C122 0.964 . S
C572 C148 1.030 . S
C584 C200 1.040 . S
C599 C153 1.268 . S
C611 C205 1.269 . S
C626 C127 1.263 . S
C638 C179 1.270 . S
C653 C143 1.383 . S
C665 C0 1.464 . S
C680 C112 1.491 . S
C692 C21 1.415 . S
C707 C26 1.440 . S
C719 C117 1.402 . S
C734 C138 1.412 . S
C746 C47 1.488 . S
C761 C151 1.494 . S
C773 C34 1.410 . S
C788 C39 1.461 . S
C800 C104 1.385 . S
C815 C125 1.455 . S
C827 C8 1.453 . S
C842 C130 1.415 . S
C854 C13 1.442 . S
C869 C52 1.394 . S
C881 C195 1.463 . S
C896 C164 1.409 . S
C908 C73 1.486 . S
C923 C78 1.434 . S
C935 C169 1.401 . S
C950 C99 1.469 . S
C962 C190 1.464 . S
C977 C86 1.409 . S
C989 C203 1.480 . S
C1004 C156 1.383 . S
C1016 C91 1.463 . S
C1031 C177 1.425 . S
C1043 C60 1.493 . S
C1058 C182 1.459 . S
C1070 C65 1.384 . S
