# Generated by pormake.
# Topology twf-e, (6)-cn, num edge types: 1
# Building blocks:
#     Node 0, Type 0, BuildingBlock: BETDEL_clean_sbu_0, # of connection points: 6
#     Node 1, Type 0, BuildingBlock: BETDEL_clean_sbu_0, # of connection points: 6
#     Node 2, Type 0, BuildingBlock: BETDEL_clean_sbu_0, # of connection points: 6
#     Node 3, Type 0, BuildingBlock: BETDEL_clean_sbu_0, # of connection points: 6
#     Node 4, Type 0, BuildingBlock: BETDEL_clean_sbu_0, # of connection points: 6
#     Node 5, Type 0, BuildingBlock: BETDEL_clean_sbu_0, # of connection points: 6
#     Node 6, Type 0, BuildingBlock: BETDEL_clean_sbu_0, # of connection points: 6
#     Node 7, Type 0, BuildingBlock: BETDEL_clean_sbu_0, # of connection points: 6
#     Node 8, Type 0, BuildingBlock: BETDEL_clean_sbu_0, # of connection points: 6
#     Node 9, Type 0, BuildingBlock: BETDEL_clean_sbu_0, # of connection points: 6
#     Node 10, Type 0, BuildingBlock: BETDEL_clean_sbu_0, # of connection points: 6
#     Node 11, Type 0, BuildingBlock: BETDEL_clean_sbu_0, # of connection points: 6
#     Node 12, Type 0, BuildingBlock: BETDEL_clean_sbu_0, # of connection points: 6
#     Node 13, Type 0, BuildingBlock: BETDEL_clean_sbu_0, # of connection points: 6
#     Node 14, Type 0, BuildingBlock: BETDEL_clean_sbu_0, # of connection points: 6
#     Node 15, Type 0, BuildingBlock: BETDEL_clean_sbu_0, # of connection points: 6
#     Node 16, Type 0, BuildingBlock: BETDEL_clean_sbu_0, # of connection points: 6
#     Node 17, Type 0, BuildingBlock: BETDEL_clean_sbu_0, # of connection points: 6
#     Node 18, Type 0, BuildingBlock: BETDEL_clean_sbu_0, # of connection points: 6
#     Node 19, Type 0, BuildingBlock: BETDEL_clean_sbu_0, # of connection points: 6
#     Node 20, Type 0, BuildingBlock: BETDEL_clean_sbu_0, # of connection points: 6
#     Node 21, Type 0, BuildingBlock: BETDEL_clean_sbu_0, # of connection points: 6
#     Node 22, Type 0, BuildingBlock: BETDEL_clean_sbu_0, # of connection points: 6
#     Node 23, Type 0, BuildingBlock: BETDEL_clean_sbu_0, # of connection points: 6
#     Node 24, Type 0, BuildingBlock: BETDEL_clean_sbu_0, # of connection points: 6
#     Node 25, Type 0, BuildingBlock: BETDEL_clean_sbu_0, # of connection points: 6
#     Node 26, Type 0, BuildingBlock: BETDEL_clean_sbu_0, # of connection points: 6
#     Node 27, Type 0, BuildingBlock: BETDEL_clean_sbu_0, # of connection points: 6
#     Node 28, Type 0, BuildingBlock: BETDEL_clean_sbu_0, # of connection points: 6
#     Node 29, Type 0, BuildingBlock: BETDEL_clean_sbu_0, # of connection points: 6
#     Node 30, Type 0, BuildingBlock: BETDEL_clean_sbu_0, # of connection points: 6
#     Node 31, Type 0, BuildingBlock: BETDEL_clean_sbu_0, # of connection points: 6
#     Node 32, Type 0, BuildingBlock: BETDEL_clean_sbu_0, # of connection points: 6
#     Node 33, Type 0, BuildingBlock: BETDEL_clean_sbu_0, # of connection points: 6
#     Node 34, Type 0, BuildingBlock: BETDEL_clean_sbu_0, # of connection points: 6
#     Node 35, Type 0, BuildingBlock: BETDEL_clean_sbu_0, # of connection points: 6
#     Node 36, Type 0, BuildingBlock: BETDEL_clean_sbu_0, # of connection points: 6
#     Node 37, Type 0, BuildingBlock: BETDEL_clean_sbu_0, # of connection points: 6
#     Node 38, Type 0, BuildingBlock: BETDEL_clean_sbu_0, # of connection points: 6
#     Node 39, Type 0, BuildingBlock: BETDEL_clean_sbu_0, # of connection points: 6
#     Node 40, Type 0, BuildingBlock: BETDEL_clean_sbu_0, # of connection points: 6
#     Node 41, Type 0, BuildingBlock: BETDEL_clean_sbu_0, # of connection points: 6
#     Node 42, Type 0, BuildingBlock: BETDEL_clean_sbu_0, # of connection points: 6
#     Node 43, Type 0, BuildingBlock: BETDEL_clean_sbu_0, # of connection points: 6
#     Node 44, Type 0, BuildingBlock: BETDEL_clean_sbu_0, # of connection points: 6
#     Node 45, Type 0, BuildingBlock: BETDEL_clean_sbu_0, # of connection points: 6
#     Node 46, Type 0, BuildingBlock: BETDEL_clean_sbu_0, # of connection points: 6
#     Node 47, Type 0, BuildingBlock: BETDEL_clean_sbu_0, # of connection points: 6
#     Edge 48, Type (0, 0), BuildingBlock: AJUNOK_clean_linker_0, # of connection points: 2
#     Edge 49, Type (0, 0), BuildingBlock: AJUNOK_clean_linker_0, # of connection points: 2
#     Edge 50, Type (0, 0), BuildingBlock: AJUNOK_clean_linker_0, # of connection points: 2
#     Edge 51, Type (0, 0), BuildingBlock: AJUNOK_clean_linker_0, # of connection points: 2
#     Edge 52, Type (0, 0), BuildingBlock: AJUNOK_clean_linker_0, # of connection points: 2
#     Edge 53, Type (0, 0), BuildingBlock: AJUNOK_clean_linker_0, # of connection points: 2
#     Edge 54, Type (0, 0), BuildingBlock: AJUNOK_clean_linker_0, # of connection points: 2
#     Edge 55, Type (0, 0), BuildingBlock: AJUNOK_clean_linker_0, # of connection points: 2
#     Edge 56, Type (0, 0), BuildingBlock: AJUNOK_clean_linker_0, # of connection points: 2
#     Edge 57, Type (0, 0), BuildingBlock: AJUNOK_clean_linker_0, # of connection points: 2
#     Edge 58, Type (0, 0), BuildingBlock: AJUNOK_clean_linker_0, # of connection points: 2
#     Edge 59, Type (0, 0), BuildingBlock: AJUNOK_clean_linker_0, # of connection points: 2
#     Edge 60, Type (0, 0), BuildingBlock: AJUNOK_clean_linker_0, # of connection points: 2
#     Edge 61, Type (0, 0), BuildingBlock: AJUNOK_clean_linker_0, # of connection points: 2
#     Edge 62, Type (0, 0), BuildingBlock: AJUNOK_clean_linker_0, # of connection points: 2
#     Edge 63, Type (0, 0), BuildingBlock: AJUNOK_clean_linker_0, # of connection points: 2
#     Edge 64, Type (0, 0), BuildingBlock: AJUNOK_clean_linker_0, # of connection points: 2
#     Edge 65, Type (0, 0), BuildingBlock: AJUNOK_clean_linker_0, # of connection points: 2
#     Edge 66, Type (0, 0), BuildingBlock: AJUNOK_clean_linker_0, # of connection points: 2
#     Edge 67, Type (0, 0), BuildingBlock: AJUNOK_clean_linker_0, # of connection points: 2
#     Edge 68, Type (0, 0), BuildingBlock: AJUNOK_clean_linker_0, # of connection points: 2
#     Edge 69, Type (0, 0), BuildingBlock: AJUNOK_clean_linker_0, # of connection points: 2
#     Edge 70, Type (0, 0), BuildingBlock: AJUNOK_clean_linker_0, # of connection points: 2
#     Edge 71, Type (0, 0), BuildingBlock: AJUNOK_clean_linker_0, # of connection points: 2
#     Edge 72, Type (0, 0), BuildingBlock: AJUNOK_clean_linker_0, # of connection points: 2
#     Edge 73, Type (0, 0), BuildingBlock: AJUNOK_clean_linker_0, # of connection points: 2
#     Edge 74, Type (0, 0), BuildingBlock: AJUNOK_clean_linker_0, # of connection points: 2
#     Edge 75, Type (0, 0), BuildingBlock: AJUNOK_clean_linker_0, # of connection points: 2
#     Edge 76, Type (0, 0), BuildingBlock: AJUNOK_clean_linker_0, # of connection points: 2
#     Edge 77, Type (0, 0), BuildingBlock: AJUNOK_clean_linker_0, # of connection points: 2
#     Edge 78, Type (0, 0), BuildingBlock: AJUNOK_clean_linker_0, # of connection points: 2
#     Edge 79, Type (0, 0), BuildingBlock: AJUNOK_clean_linker_0, # of connection points: 2
#     Edge 80, Type (0, 0), BuildingBlock: AJUNOK_clean_linker_0, # of connection points: 2
#     Edge 81, Type (0, 0), BuildingBlock: AJUNOK_clean_linker_0, # of connection points: 2
#     Edge 82, Type (0, 0), BuildingBlock: AJUNOK_clean_linker_0, # of connection points: 2
#     Edge 83, Type (0, 0), BuildingBlock: AJUNOK_clean_linker_0, # of connection points: 2
#     Edge 84, Type (0, 0), BuildingBlock: AJUNOK_clean_linker_0, # of connection points: 2
#     Edge 85, Type (0, 0), BuildingBlock: AJUNOK_clean_linker_0, # of connection points: 2
#     Edge 86, Type (0, 0), BuildingBlock: AJUNOK_clean_linker_0, # of connection points: 2
#     Edge 87, Type (0, 0), BuildingBlock: AJUNOK_clean_linker_0, # of connection points: 2
#     Edge 88, Type (0, 0), BuildingBlock: AJUNOK_clean_linker_0, # of connection points: 2
#     Edge 89, Type (0, 0), BuildingBlock: AJUNOK_clean_linker_0, # of connection points: 2
#     Edge 90, Type (0, 0), BuildingBlock: AJUNOK_clean_linker_0, # of connection points: 2
#     Edge 91, Type (0, 0), BuildingBlock: AJUNOK_clean_linker_0, # of connection points: 2
#     Edge 92, Type (0, 0), BuildingBlock: AJUNOK_clean_linker_0, # of connection points: 2
#     Edge 93, Type (0, 0), BuildingBlock: AJUNOK_clean_linker_0, # of connection points: 2
#     Edge 94, Type (0, 0), BuildingBlock: AJUNOK_clean_linker_0, # of connection points: 2
#     Edge 95, Type (0, 0), BuildingBlock: AJUNOK_clean_linker_0, # of connection points: 2
#     Edge 96, Type (0, 0), BuildingBlock: AJUNOK_clean_linker_0, # of connection points: 2
#     Edge 97, Type (0, 0), BuildingBlock: AJUNOK_clean_linker_0, # of connection points: 2
#     Edge 98, Type (0, 0), BuildingBlock: AJUNOK_clean_linker_0, # of connection points: 2
#     Edge 99, Type (0, 0), BuildingBlock: AJUNOK_clean_linker_0, # of connection points: 2
#     Edge 100, Type (0, 0), BuildingBlock: AJUNOK_clean_linker_0, # of connection points: 2
#     Edge 101, Type (0, 0), BuildingBlock: AJUNOK_clean_linker_0, # of connection points: 2
#     Edge 102, Type (0, 0), BuildingBlock: AJUNOK_clean_linker_0, # of connection points: 2
#     Edge 103, Type (0, 0), BuildingBlock: AJUNOK_clean_linker_0, # of connection points: 2
#     Edge 104, Type (0, 0), BuildingBlock: AJUNOK_clean_linker_0, # of connection points: 2
#     Edge 105, Type (0, 0), BuildingBlock: AJUNOK_clean_linker_0, # of connection points: 2
#     Edge 106, Type (0, 0), BuildingBlock: AJUNOK_clean_linker_0, # of connection points: 2
#     Edge 107, Type (0, 0), BuildingBlock: AJUNOK_clean_linker_0, # of connection points: 2
#     Edge 108, Type (0, 0), BuildingBlock: AJUNOK_clean_linker_0, # of connection points: 2
#     Edge 109, Type (0, 0), BuildingBlock: AJUNOK_clean_linker_0, # of connection points: 2
#     Edge 110, Type (0, 0), BuildingBlock: AJUNOK_clean_linker_0, # of connection points: 2
#     Edge 111, Type (0, 0), BuildingBlock: AJUNOK_clean_linker_0, # of connection points: 2
#     Edge 112, Type (0, 0), BuildingBlock: AJUNOK_clean_linker_0, # of connection points: 2
#     Edge 113, Type (0, 0), BuildingBlock: AJUNOK_clean_linker_0, # of connection points: 2
#     Edge 114, Type (0, 0), BuildingBlock: AJUNOK_clean_linker_0, # of connection points: 2
#     Edge 115, Type (0, 0), BuildingBlock: AJUNOK_clean_linker_0, # of connection points: 2
#     Edge 116, Type (0, 0), BuildingBlock: AJUNOK_clean_linker_0, # of connection points: 2
#     Edge 117, Type (0, 0), BuildingBlock: AJUNOK_clean_linker_0, # of connection points: 2
#     Edge 118, Type (0, 0), BuildingBlock: AJUNOK_clean_linker_0, # of connection points: 2
#     Edge 119, Type (0, 0), BuildingBlock: AJUNOK_clean_linker_0, # of connection points: 2
#     Edge 120, Type (0, 0), BuildingBlock: AJUNOK_clean_linker_0, # of connection points: 2
#     Edge 121, Type (0, 0), BuildingBlock: AJUNOK_clean_linker_0, # of connection points: 2
#     Edge 122, Type (0, 0), BuildingBlock: AJUNOK_clean_linker_0, # of connection points: 2
#     Edge 123, Type (0, 0), BuildingBlock: AJUNOK_clean_linker_0, # of connection points: 2
#     Edge 124, Type (0, 0), BuildingBlock: AJUNOK_clean_linker_0, # of connection points: 2
#     Edge 125, Type (0, 0), BuildingBlock: AJUNOK_clean_linker_0, # of connection points: 2
#     Edge 126, Type (0, 0), BuildingBlock: AJUNOK_clean_linker_0, # of connection points: 2
#     Edge 127, Type (0, 0), BuildingBlock: AJUNOK_clean_linker_0, # of connection points: 2
#     Edge 128, Type (0, 0), BuildingBlock: AJUNOK_clean_linker_0, # of connection points: 2
#     Edge 129, Type (0, 0), BuildingBlock: AJUNOK_clean_linker_0, # of connection points: 2
#     Edge 130, Type (0, 0), BuildingBlock: AJUNOK_clean_linker_0, # of connection points: 2
#     Edge 131, Type (0, 0), BuildingBlock: AJUNOK_clean_linker_0, # of connection points: 2
#     Edge 132, Type (0, 0), BuildingBlock: AJUNOK_clean_linker_0, # of connection points: 2
#     Edge 133, Type (0, 0), BuildingBlock: AJUNOK_clean_linker_0, # of connection points: 2
#     Edge 134, Type (0, 0), BuildingBlock: AJUNOK_clean_linker_0, # of connection points: 2
#     Edge 135, Type (0, 0), BuildingBlock: AJUNOK_clean_linker_0, # of connection points: 2
#     Edge 136, Type (0, 0), BuildingBlock: AJUNOK_clean_linker_0, # of connection points: 2
#     Edge 137, Type (0, 0), BuildingBlock: AJUNOK_clean_linker_0, # of connection points: 2
#     Edge 138, Type (0, 0), BuildingBlock: AJUNOK_clean_linker_0, # of connection points: 2
#     Edge 139, Type (0, 0), BuildingBlock: AJUNOK_clean_linker_0, # of connection points: 2
#     Edge 140, Type (0, 0), BuildingBlock: AJUNOK_clean_linker_0, # of connection points: 2
#     Edge 141, Type (0, 0), BuildingBlock: AJUNOK_clean_linker_0, # of connection points: 2
#     Edge 142, Type (0, 0), BuildingBlock: AJUNOK_clean_linker_0, # of connection points: 2
#     Edge 143, Type (0, 0), BuildingBlock: AJUNOK_clean_linker_0, # of connection points: 2
#     Edge 144, Type (0, 0), BuildingBlock: AJUNOK_clean_linker_0, # of connection points: 2
#     Edge 145, Type (0, 0), BuildingBlock: AJUNOK_clean_linker_0, # of connection points: 2
#     Edge 146, Type (0, 0), BuildingBlock: AJUNOK_clean_linker_0, # of connection points: 2
#     Edge 147, Type (0, 0), BuildingBlock: AJUNOK_clean_linker_0, # of connection points: 2
#     Edge 148, Type (0, 0), BuildingBlock: AJUNOK_clean_linker_0, # of connection points: 2
#     Edge 149, Type (0, 0), BuildingBlock: AJUNOK_clean_linker_0, # of connection points: 2
#     Edge 150, Type (0, 0), BuildingBlock: AJUNOK_clean_linker_0, # of connection points: 2
#     Edge 151, Type (0, 0), BuildingBlock: AJUNOK_clean_linker_0, # of connection points: 2
#     Edge 152, Type (0, 0), BuildingBlock: AJUNOK_clean_linker_0, # of connection points: 2
#     Edge 153, Type (0, 0), BuildingBlock: AJUNOK_clean_linker_0, # of connection points: 2
#     Edge 154, Type (0, 0), BuildingBlock: AJUNOK_clean_linker_0, # of connection points: 2
#     Edge 155, Type (0, 0), BuildingBlock: AJUNOK_clean_linker_0, # of connection points: 2
#     Edge 156, Type (0, 0), BuildingBlock: AJUNOK_clean_linker_0, # of connection points: 2
#     Edge 157, Type (0, 0), BuildingBlock: AJUNOK_clean_linker_0, # of connection points: 2
#     Edge 158, Type (0, 0), BuildingBlock: AJUNOK_clean_linker_0, # of connection points: 2
#     Edge 159, Type (0, 0), BuildingBlock: AJUNOK_clean_linker_0, # of connection points: 2
#     Edge 160, Type (0, 0), BuildingBlock: AJUNOK_clean_linker_0, # of connection points: 2
#     Edge 161, Type (0, 0), BuildingBlock: AJUNOK_clean_linker_0, # of connection points: 2
#     Edge 162, Type (0, 0), BuildingBlock: AJUNOK_clean_linker_0, # of connection points: 2
#     Edge 163, Type (0, 0), BuildingBlock: AJUNOK_clean_linker_0, # of connection points: 2
#     Edge 164, Type (0, 0), BuildingBlock: AJUNOK_clean_linker_0, # of connection points: 2
#     Edge 165, Type (0, 0), BuildingBlock: AJUNOK_clean_linker_0, # of connection points: 2
#     Edge 166, Type (0, 0), BuildingBlock: AJUNOK_clean_linker_0, # of connection points: 2
#     Edge 167, Type (0, 0), BuildingBlock: AJUNOK_clean_linker_0, # of connection points: 2
#     Edge 168, Type (0, 0), BuildingBlock: AJUNOK_clean_linker_0, # of connection points: 2
#     Edge 169, Type (0, 0), BuildingBlock: AJUNOK_clean_linker_0, # of connection points: 2
#     Edge 170, Type (0, 0), BuildingBlock: AJUNOK_clean_linker_0, # of connection points: 2
#     Edge 171, Type (0, 0), BuildingBlock: AJUNOK_clean_linker_0, # of connection points: 2
#     Edge 172, Type (0, 0), BuildingBlock: AJUNOK_clean_linker_0, # of connection points: 2
#     Edge 173, Type (0, 0), BuildingBlock: AJUNOK_clean_linker_0, # of connection points: 2
#     Edge 174, Type (0, 0), BuildingBlock: AJUNOK_clean_linker_0, # of connection points: 2
#     Edge 175, Type (0, 0), BuildingBlock: AJUNOK_clean_linker_0, # of connection points: 2
#     Edge 176, Type (0, 0), BuildingBlock: AJUNOK_clean_linker_0, # of connection points: 2
#     Edge 177, Type (0, 0), BuildingBlock: AJUNOK_clean_linker_0, # of connection points: 2
#     Edge 178, Type (0, 0), BuildingBlock: AJUNOK_clean_linker_0, # of connection points: 2
#     Edge 179, Type (0, 0), BuildingBlock: AJUNOK_clean_linker_0, # of connection points: 2
#     Edge 180, Type (0, 0), BuildingBlock: AJUNOK_clean_linker_0, # of connection points: 2
#     Edge 181, Type (0, 0), BuildingBlock: AJUNOK_clean_linker_0, # of connection points: 2
#     Edge 182, Type (0, 0), BuildingBlock: AJUNOK_clean_linker_0, # of connection points: 2
#     Edge 183, Type (0, 0), BuildingBlock: AJUNOK_clean_linker_0, # of connection points: 2
#     Edge 184, Type (0, 0), BuildingBlock: AJUNOK_clean_linker_0, # of connection points: 2
#     Edge 185, Type (0, 0), BuildingBlock: AJUNOK_clean_linker_0, # of connection points: 2
#     Edge 186, Type (0, 0), BuildingBlock: AJUNOK_clean_linker_0, # of connection points: 2
#     Edge 187, Type (0, 0), BuildingBlock: AJUNOK_clean_linker_0, # of connection points: 2
#     Edge 188, Type (0, 0), BuildingBlock: AJUNOK_clean_linker_0, # of connection points: 2
#     Edge 189, Type (0, 0), BuildingBlock: AJUNOK_clean_linker_0, # of connection points: 2
#     Edge 190, Type (0, 0), BuildingBlock: AJUNOK_clean_linker_0, # of connection points: 2
#     Edge 191, Type (0, 0), BuildingBlock: AJUNOK_clean_linker_0, # of connection points: 2
# Relax obj value: 0.675
# Max RMSD: 0.229
# Mean RMSD: 0.213
data_MOF--net-twf-e--node1-BETDEL_clean_sbu_0--edge1-AJUNOK_clean_linker_0
_symmetry_space_group_name_H-M    P1
_symmetry_Int_Tables_number       1
_symmetry_cell_setting            triclinic
loop_
_symmetry_equiv_pos_as_xyz
'x, y, z'
_cell_length_a     45.391837
_cell_length_b     45.360945
_cell_length_c     45.375394
_cell_angle_alpha  88.88152
_cell_angle_beta   89.988749
_cell_angle_gamma 90.745076
loop_
_atom_site_label
_atom_site_type_symbol
_atom_site_fract_x
_atom_site_fract_y
_atom_site_fract_z
_atom_type_partial_charge
Dy0 Dy 0.0187 0.20289 0.40262 0.0
C1 C 0.08075 0.29296 0.39888 0.0
C2 C 0.97692 0.15913 0.39466 0.0
Dy3 Dy 0.0512 0.24134 0.40249 0.0
O4 O 0.9774 0.1783 0.4151 0.0
O5 O 1.00056 0.16245 0.37873 0.0
O6 O 1.00398 0.20538 0.45036 0.0
O7 O 0.04846 0.21263 0.44315 0.0
C8 C 0.02852 0.21126 0.46333 0.0
C9 C 0.03623 0.24439 0.3444 0.0
O10 O 0.0868 0.20765 0.40877 0.0
O11 O 0.05638 0.1746 0.38871 0.0
O12 O 0.09206 0.26773 0.39354 0.0
O13 O 0.055 0.28965 0.41066 0.0
O14 O 0.06252 0.24037 0.35419 0.0
O15 O 0.01853 0.23848 0.36589 0.0
O16 O 0.98479 0.23599 0.39398 0.0
O17 O 1.01249 0.26275 0.42389 0.0
C18 C 0.08304 0.18142 0.39759 0.0
C19 C 0.98667 0.25779 0.41194 0.0
Dy20 Dy 0.84594 0.02343 0.39945 0.0
C21 C 0.76557 0.0892 0.38672 0.0
C22 C 0.89264 0.9853 0.40057 0.0
Dy23 Dy 0.81249 0.05401 0.39578 0.0
O24 O 0.89239 1.01048 0.38651 0.0
O25 O 0.86757 0.98113 0.41341 0.0
O26 O 0.84004 1.01131 0.44799 0.0
O27 O 0.83679 0.05555 0.43859 0.0
C28 C 0.83656 0.03649 0.45998 0.0
C29 C 0.81068 0.04045 0.33786 0.0
O30 O 0.85042 0.08645 0.40095 0.0
O31 O 0.87783 0.05428 0.37829 0.0
O32 O 0.79265 0.09646 0.38216 0.0
O33 O 0.76425 0.0642 0.40101 0.0
O34 O 0.81644 0.06627 0.34773 0.0
O35 O 0.81441 0.02197 0.35936 0.0
O36 O 0.81582 0.98819 0.38626 0.0
O37 O 0.789 0.01398 0.41631 0.0
C38 C 0.87515 0.08093 0.38736 0.0
C39 C 0.79351 0.98849 0.40384 0.0
Dy40 Dy 0.03302 0.85894 0.40715 0.0
C41 C 0.95321 0.82407 0.38539 0.0
C42 C 0.06979 0.90706 0.39855 0.0
Dy43 Dy 1.00808 0.83392 0.40602 0.0
O44 O 0.07611 0.87994 0.39351 0.0
O45 O 0.04332 0.90822 0.40915 0.0
O46 O 0.0523 0.86 0.45444 0.0
O47 O 1.01064 0.8412 0.45274 0.0
C48 C 0.0312 0.84869 0.47043 0.0
C49 C 0.02381 0.80477 0.35882 0.0
O50 O 0.98119 0.87266 0.42257 0.0
O51 O 1.00423 0.89349 0.38687 0.0
O52 O 0.97063 0.84501 0.37579 0.0
O53 O 0.96586 0.80865 0.40671 0.0
O54 O 1.01092 0.79234 0.38179 0.0
O55 O 0.02993 0.83272 0.36321 0.0
O56 O 0.07079 0.83428 0.39294 0.0
O57 O 0.04631 0.80759 0.42507 0.0
C58 C 0.98272 0.89557 0.40507 0.0
C59 C 0.07111 0.81209 0.41067 0.0
Dy60 Dy 0.20795 0.04052 0.40665 0.0
C61 C 0.21374 0.9399 0.42132 0.0
C62 C 0.17439 0.09058 0.39568 0.0
Dy63 Dy 0.2221 0.99729 0.40321 0.0
O64 O 0.16998 0.06475 0.38473 0.0
O65 O 0.19812 0.08942 0.41157 0.0
O66 O 0.22 0.05678 0.45199 0.0
O67 O 0.20701 1.01242 0.4488 0.0
C68 C 0.21454 0.03275 0.4671 0.0
C69 C 0.25122 1.01042 0.35246 0.0
O70 O 0.1842 0.98927 0.37372 0.0
O71 O 0.16396 0.01627 0.40674 0.0
O72 O 0.1947 0.96062 0.42346 0.0
O73 O 0.23688 0.95062 0.4078 0.0
O74 O 0.2561 0.98792 0.36995 0.0
O75 O 0.22987 0.02682 0.36262 0.0
O76 O 0.25528 0.05095 0.39857 0.0
O77 O 0.2639 1.00967 0.42374 0.0
C78 C 0.16002 0.99709 0.38609 0.0
C79 C 0.27424 0.03435 0.41271 0.0
Dy80 Dy 0.01446 0.85488 0.66737 0.0
C81 C 0.08272 0.77211 0.67367 0.0
C82 C 0.97352 0.89917 0.67002 0.0
Dy83 Dy 0.04792 0.82072 0.67028 0.0
O84 O 0.97232 0.87636 0.65364 0.0
O85 O 0.99778 0.8984 0.68514 0.0
O86 O 1.00015 0.84742 0.61998 0.0
O87 O 0.04502 0.84635 0.6272 0.0
C88 C 0.02515 0.84466 0.60687 0.0
C89 C 0.03349 0.81799 0.72829 0.0
O90 O 0.08145 0.8576 0.66313 0.0
O91 O 0.04849 0.88751 0.68208 0.0
O92 O 0.08875 0.79769 0.68416 0.0
O93 O 0.05828 0.77406 0.65894 0.0
O94 O 0.05954 0.82349 0.71822 0.0
O95 O 0.01522 0.82209 0.70694 0.0
O96 O 0.98092 0.82175 0.67953 0.0
O97 O 1.00982 0.79463 0.65209 0.0
C98 C 0.0756 0.88362 0.67362 0.0
C99 C 0.98358 0.79885 0.6632 0.0
Dy100 Dy 0.20647 0.02453 0.66558 0.0
C101 C 0.26392 0.11278 0.64606 0.0
C102 C 0.16446 0.97953 0.67264 0.0
Dy103 Dy 0.23933 0.0605 0.66162 0.0
O104 O 0.19131 0.97659 0.66373 0.0
O105 O 0.16059 1.00719 0.67819 0.0
O106 O 0.21839 1.00605 0.61986 0.0
O107 O 0.21235 0.05048 0.62183 0.0
C108 C 0.21697 0.02982 0.60368 0.0
C109 C 0.25904 0.04963 0.71567 0.0
O110 O 0.20399 0.09136 0.67371 0.0
O111 O 0.16955 0.05607 0.67347 0.0
O112 O 0.24849 0.10788 0.66941 0.0
O113 O 0.26681 0.08859 0.63145 0.0
O114 O 0.27479 0.05998 0.69393 0.0
O115 O 0.23178 0.04279 0.70746 0.0
O116 O 0.24011 0.99796 0.68732 0.0
O117 O 0.26875 0.02189 0.65484 0.0
C118 C 0.17634 0.084 0.67581 0.0
C119 C 0.26518 0.99988 0.67383 0.0
Dy120 Dy 0.0408 0.21129 0.65925 0.0
C121 C 0.9427 0.22136 0.65765 0.0
C122 C 0.08688 0.17519 0.67549 0.0
Dy123 Dy 1.00213 0.22975 0.66181 0.0
O124 O 0.08892 0.1989 0.6592 0.0
O125 O 0.05981 0.17183 0.6839 0.0
O126 O 0.05983 0.21277 0.61324 0.0
O127 O 0.01346 0.21141 0.61673 0.0
C128 C 0.0354 0.21199 0.59846 0.0
C129 C 0.01932 0.26459 0.70639 0.0
O130 O 0.99193 0.19256 0.69412 0.0
O131 O 0.01371 0.16885 0.66028 0.0
O132 O 0.96238 0.20337 0.64903 0.0
O133 O 0.95551 0.24564 0.66599 0.0
O134 O 1.00046 0.27164 0.68589 0.0
O135 O 0.0306 0.2386 0.70131 0.0
O136 O 0.0594 0.25636 0.65491 0.0
O137 O 0.01935 0.26298 0.62881 0.0
C138 C 0.99546 0.16708 0.68228 0.0
C139 C 0.04656 0.27114 0.63377 0.0
Dy140 Dy 0.83233 0.07883 0.66015 0.0
C141 C 0.88538 0.99114 0.66768 0.0
C142 C 0.83898 0.13653 0.64279 0.0
Dy143 Dy 0.85014 0.0391 0.65635 0.0
O144 O 0.85927 0.11694 0.64271 0.0
O145 O 0.81491 0.12451 0.65356 0.0
O146 O 0.79702 0.08468 0.69352 0.0
O147 O 0.8266 0.04835 0.70025 0.0
C148 C 0.80368 0.06215 0.71042 0.0
C149 C 0.84046 0.04443 0.59606 0.0
O150 O 0.80514 0.02234 0.66547 0.0
O151 O 0.79289 0.06057 0.63778 0.0
O152 O 0.86196 0.99125 0.65141 0.0
O153 O 0.8892 0.01713 0.67836 0.0
O154 O 0.83886 0.02048 0.61202 0.0
O155 O 0.84656 0.066 0.61347 0.0
O156 O 0.87067 0.09099 0.68907 0.0
O157 O 0.89369 0.06432 0.65757 0.0
C158 C 0.78521 0.03495 0.64908 0.0
C159 C 0.89593 0.08396 0.67802 0.0
Dy160 Dy 0.39502 1.00868 0.20691 0.0
C161 C 0.39611 0.03601 0.30325 0.0
C162 C 0.39517 0.97733 0.15559 0.0
Dy163 Dy 0.39452 0.02911 0.2439 0.0
O164 O 0.40609 0.96945 0.18061 0.0
O165 O 0.38374 1.00334 0.15801 0.0
O166 O 0.44333 0.99246 0.21106 0.0
O167 O 0.43744 0.0357 0.22055 0.0
C168 C 0.45759 0.01634 0.21749 0.0
C169 C 0.336 0.02579 0.24838 0.0
O170 O 0.40268 0.07033 0.21517 0.0
O171 O 0.37887 0.04652 0.18038 0.0
O172 O 0.3928 0.05693 0.28358 0.0
O173 O 0.40215 1.01214 0.28971 0.0
O174 O 0.35086 0.05022 0.24934 0.0
O175 O 0.35258 1.00585 0.23688 0.0
O176 O 0.37648 0.96717 0.22483 0.0
O177 O 0.40908 0.98315 0.25614 0.0
C178 C 0.39007 0.07128 0.18908 0.0
C179 C 0.39317 0.96096 0.24685 0.0
Dy180 Dy 0.0366 0.40737 0.21467 0.0
C181 C 0.94035 0.39343 0.24184 0.0
C182 C 0.08317 0.40165 0.17638 0.0
Dy183 Dy 0.99968 0.39938 0.2361 0.0
O184 O 0.08341 0.41702 0.20013 0.0
O185 O 0.05737 0.3894 0.17347 0.0
O186 O 0.0519 0.45355 0.2263 0.0
O187 O 1.00637 0.44729 0.22168 0.0
C188 C 0.02684 0.46696 0.22565 0.0
C189 C 0.01633 0.34857 0.26083 0.0
O190 O 0.98476 0.37824 0.19375 0.0
O191 O 1.01191 0.41132 0.1715 0.0
O192 O 0.95543 0.38465 0.21987 0.0
O193 O 0.95742 0.40764 0.25998 0.0
O194 O 0.99648 0.3658 0.27119 0.0
O195 O 0.02851 0.35992 0.23663 0.0
O196 O 0.06257 0.39361 0.25294 0.0
O197 O 0.02477 0.41095 0.27752 0.0
C198 C 0.99059 0.39232 0.1692 0.0
C199 C 0.05168 0.40075 0.27813 0.0
Dy200 Dy 0.65476 0.0476 0.20997 0.0
C201 C 0.67604 0.95945 0.2713 0.0
C202 C 0.66239 0.09382 0.16992 0.0
Dy203 Dy 0.66111 1.00815 0.2388 0.0
O204 O 0.6717 0.06725 0.16643 0.0
O205 O 0.64891 0.09492 0.19497 0.0
O206 O 0.60622 0.05845 0.21333 0.0
O207 O 0.61626 0.01363 0.2156 0.0
C208 C 0.59467 0.03229 0.21573 0.0
C209 C 0.71696 0.03117 0.24182 0.0
O210 O 0.64908 0.9815 0.20036 0.0
O211 O 0.6723 0.01687 0.17538 0.0
O212 O 0.68332 0.96487 0.24428 0.0
O213 O 0.65849 0.98017 0.27995 0.0
O214 O 0.71008 1.00617 0.23058 0.0
O215 O 0.69311 0.04592 0.24252 0.0
O216 O 0.66047 0.07118 0.25206 0.0
O217 O 0.64055 0.03202 0.27491 0.0
C218 C 0.66178 0.98987 0.17595 0.0
C219 C 0.6458 0.0604 0.27465 0.0
Dy220 Dy 0.01319 0.66553 0.21391 0.0
C221 C 0.07349 0.6287 0.29059 0.0
C222 C 0.97518 0.67177 0.16682 0.0
Dy223 Dy 0.04326 0.6603 0.25065 0.0
O224 O 0.97057 0.65612 0.19047 0.0
O225 O 1.00107 0.68408 0.1685 0.0
O226 O 0.99513 0.61825 0.22463 0.0
O227 O 0.03949 0.62301 0.2196 0.0
C228 C 0.01924 0.60338 0.22312 0.0
C229 C 0.04017 0.71826 0.26122 0.0
O230 O 0.07896 0.65967 0.21595 0.0
O231 O 0.04902 0.68122 0.18364 0.0
O232 O 0.08135 0.65441 0.28045 0.0
O233 O 0.04547 0.62581 0.28591 0.0
O234 O 0.06331 0.70236 0.2653 0.0
O235 O 0.02006 0.70358 0.24716 0.0
O236 O 0.97951 0.68521 0.24145 0.0
O237 O 0.99929 0.65374 0.27338 0.0
C238 C 0.07539 0.67221 0.18999 0.0
C239 C 0.9769 0.67043 0.26594 0.0
Dy240 Dy 0.40159 0.07534 0.85922 0.0
C241 C 0.42215 0.03663 0.76505 0.0
C242 C 0.40111 0.11083 0.90874 0.0
Dy243 Dy 0.40384 0.05122 0.81994 0.0
O244 O 0.38812 0.08515 0.90689 0.0
O245 O 0.41468 0.11606 0.88415 0.0
O246 O 0.44982 0.09076 0.84778 0.0
O247 O 0.44231 0.04679 0.84901 0.0
C248 C 0.46313 0.06565 0.84648 0.0
C249 C 0.34538 0.04988 0.8157 0.0
O250 O 0.40747 1.01102 0.8502 0.0
O251 O 0.38688 0.03656 0.88605 0.0
O252 O 0.3993 0.02627 0.77882 0.0
O253 O 0.43516 0.05543 0.78186 0.0
O254 O 0.36196 0.02717 0.81267 0.0
O255 O 0.36064 0.07154 0.82701 0.0
O256 O 0.3804 0.11418 0.83982 0.0
O257 O 0.40886 0.09862 0.80427 0.0
C258 C 0.39561 1.01115 0.87666 0.0
C259 C 0.39304 0.11992 0.81501 0.0
Dy260 Dy 1.01055 0.40608 0.84865 0.0
C261 C 0.10889 0.38843 0.819 0.0
C262 C 0.96138 0.3942 0.88299 0.0
Dy263 Dy 0.0523 0.40371 0.82688 0.0
O264 O 0.96344 0.41415 0.86226 0.0
O265 O 0.98583 0.37977 0.88397 0.0
O266 O 0.99544 0.45303 0.84563 0.0
O267 O 0.04102 0.44675 0.85016 0.0
C268 C 0.02063 0.46647 0.84765 0.0
C269 C 0.02862 0.34909 0.81053 0.0
O270 O 0.07032 0.41978 0.8692 0.0
O271 O 0.03778 0.38929 0.88789 0.0
O272 O 0.09332 0.3817 0.84197 0.0
O273 O 0.09385 0.40503 0.80047 0.0
O274 O 0.05291 0.35337 0.82457 0.0
O275 O 0.01469 0.37338 0.81189 0.0
O276 O 0.99906 0.40545 0.80091 0.0
O277 O 0.03869 0.43221 0.78957 0.0
C278 C 0.0616 0.40499 0.89222 0.0
C279 C 1.01111 0.42615 0.78398 0.0
Dy280 Dy 0.65939 0.01557 0.82594 0.0
C281 C 0.66784 0.09828 0.89204 0.0
C282 C 0.64066 0.96027 0.81392 0.0
Dy283 Dy 0.65898 0.05417 0.85136 0.0
O284 O 0.64147 0.97133 0.83986 0.0
O285 O 0.64879 0.9798 0.79418 0.0
O286 O 0.69553 1.00844 0.79465 0.0
O287 O 0.70266 0.0416 0.82769 0.0
C288 C 0.71348 0.02847 0.80442 0.0
C289 C 0.59854 0.05176 0.83842 0.0
O290 O 0.67765 0.07629 0.81155 0.0
O291 O 0.64862 0.04488 0.78793 0.0
O292 O 0.65478 0.10122 0.86683 0.0
O293 O 0.67665 0.07132 0.89478 0.0
O294 O 0.61554 0.0749 0.83722 0.0
O295 O 0.61524 0.02968 0.84462 0.0
O296 O 0.68195 0.99164 0.86279 0.0
O297 O 0.65981 0.02294 0.89139 0.0
C298 C 0.66592 0.06826 0.78664 0.0
C299 C 0.67361 0.99797 0.88927 0.0
Dy300 Dy 0.04083 0.66268 0.86233 0.0
C301 C 0.96855 0.66735 0.7823 0.0
C302 C 0.08011 0.67025 0.908 0.0
Dy303 Dy 1.00633 0.66394 0.8282 0.0
O304 O 0.08349 0.65391 0.8854 0.0
O305 O 0.05475 0.68292 0.90604 0.0
O306 O 0.05516 0.61495 0.85852 0.0
O307 O 1.0103 0.62186 0.85463 0.0
C308 C 0.03021 0.60183 0.85424 0.0
C309 C 0.02135 0.72221 0.82423 0.0
O310 O 0.97336 0.66119 0.86528 0.0
O311 O 1.00809 0.6791 0.89465 0.0
O312 O 0.96121 0.66836 0.80962 0.0
O313 O 0.99592 0.6603 0.77996 0.0
O314 O 0.99563 0.71195 0.83091 0.0
O315 O 0.03948 0.70087 0.8279 0.0
O316 O 0.07416 0.671 0.82828 0.0
O317 O 0.04305 0.64285 0.80309 0.0
C318 C 0.98046 0.67234 0.89071 0.0
C319 C 0.06992 0.65342 0.80645 0.0
Dy320 Dy 0.19608 0.4123 0.02391 0.0
C321 C 0.26832 0.45766 0.07355 0.0
C322 C 0.14761 0.4087 0.98691 0.0
Dy323 Dy 0.23155 0.41843 0.04995 0.0
O324 O 0.17176 0.42333 0.98191 0.0
O325 O 0.1497 0.39546 1.01246 0.0
O326 O 0.2062 0.46012 1.00573 0.0
O327 O 0.19975 0.45531 0.04959 0.0
C328 C 0.20268 0.47524 0.02947 0.0
C329 C 0.25003 0.36263 0.05011 0.0
O330 O 0.20066 0.41274 0.08881 0.0
O331 O 0.16541 0.39705 0.05895 0.0
O332 O 0.26037 0.43294 0.08615 0.0
O333 O 0.262 0.45683 0.04577 0.0
O334 O 0.259 0.38284 0.06794 0.0
O335 O 0.22854 0.37228 0.03311 0.0
O336 O 0.21878 0.38999 0.98876 0.0
O337 O 0.25163 0.4223 1.0042 0.0
C338 C 0.17387 0.4023 0.08566 0.0
C339 C 0.24317 0.40386 0.98385 0.0
Dy340 Dy 0.20783 0.67228 0.05377 0.0
C341 C 0.27664 0.67355 0.96913 0.0
C342 C 0.16745 0.67643 0.09936 0.0
Dy343 Dy 0.23765 0.67529 0.01499 0.0
O344 O 0.19096 0.66067 0.09947 0.0
O345 O 0.16621 0.69076 0.07437 0.0
O346 O 0.21373 0.62368 0.06698 0.0
O347 O 0.21132 0.63286 0.02226 0.0
C348 C 0.21298 0.61152 0.04142 0.0
C349 C 0.24182 0.73345 0.02711 0.0
O350 O 0.19869 0.66601 0.98751 0.0
O351 O 0.17208 0.68678 0.02217 0.0
O352 O 0.24915 0.68012 0.9673 0.0
O353 O 0.28253 0.66949 0.99683 0.0
O354 O 0.23365 0.72289 1.00224 0.0
O355 O 0.23931 0.71254 0.04676 0.0
O356 O 0.24845 0.68301 0.07895 0.0
O357 O 0.27227 0.65783 0.04503 0.0
C358 C 0.17371 0.67717 0.99525 0.0
C359 C 0.27262 0.67015 0.07082 0.0
Dy360 Dy 0.39472 0.21795 0.06588 0.0
C361 C 0.41474 0.3076 0.01509 0.0
C362 C 0.39644 0.16831 0.10238 0.0
Dy363 Dy 0.39608 0.25599 0.04069 0.0
O364 O 0.38151 0.1705 0.07798 0.0
O365 O 0.4103 0.19296 0.10642 0.0
O366 O 0.44237 0.23049 0.08184 0.0
O367 O 0.4362 0.22852 0.03774 0.0
C368 C 0.45661 0.23105 0.05697 0.0
C369 C 0.33767 0.26191 0.04122 0.0
O370 O 0.40095 0.22445 1.00218 0.0
O371 O 0.38176 0.18819 0.0297 0.0
O372 O 0.38921 0.29548 1.01221 0.0
O373 O 0.42667 0.29497 0.03794 0.0
O374 O 0.35374 0.26484 0.01776 0.0
O375 O 0.35294 0.24898 0.06206 0.0
O376 O 0.37098 0.23591 0.10317 0.0
O377 O 0.39987 0.27232 0.08768 0.0
C378 C 0.39089 0.19708 1.00385 0.0
C379 C 0.38291 0.26101 0.10872 0.0
Dy380 Dy 0.83607 0.41075 0.07537 0.0
C381 C 0.88165 0.40264 0.98278 0.0
C382 C 0.8403 0.41596 0.1354 0.0
Dy383 Dy 0.85161 0.41577 0.03389 0.0
O384 O 0.85966 0.42546 0.11645 0.0
O385 O 0.81839 0.40458 0.12106 0.0
O386 O 0.79758 0.38028 0.08032 0.0
O387 O 0.82779 0.37184 0.04523 0.0
C388 C 0.8036 0.36314 0.05865 0.0
C389 C 0.84558 0.47583 0.03764 0.0
O390 O 0.80392 0.41257 0.02365 0.0
O391 O 0.79698 0.43675 0.06482 0.0
O392 O 0.85959 0.42025 0.98474 0.0
O393 O 0.88722 0.39189 1.00883 0.0
O394 O 0.84315 0.46053 0.01394 0.0
O395 O 0.85048 0.45801 0.06 0.0
O396 O 0.87449 0.38197 0.08475 0.0
O397 O 0.89545 0.41682 0.05904 0.0
C398 C 0.78621 0.42785 0.04 0.0
C399 C 0.89896 0.39538 0.07828 0.0
Dy400 Dy 0.65517 0.86536 0.03652 0.0
C401 C 0.63722 0.80232 0.95358 0.0
C402 C 0.66434 0.90465 0.08147 0.0
Dy403 Dy 0.65482 0.8368 0.99794 0.0
O404 O 0.6777 0.90565 0.05623 0.0
O405 O 0.6468 0.88203 0.08216 0.0
O406 O 0.6067 0.86093 0.04971 0.0
O407 O 0.6153 0.86521 1.00508 0.0
C408 C 0.59438 0.86186 0.0241 0.0
C409 C 0.7118 0.82524 1.01259 0.0
O410 O 0.65521 0.87698 0.96861 0.0
O411 O 0.6715 0.90276 1.00647 0.0
O412 O 0.63664 0.7947 0.98115 0.0
O413 O 0.6547 0.82478 0.95089 0.0
O414 O 0.70243 0.83285 0.9868 0.0
O415 O 0.69093 0.82967 0.03134 0.0
O416 O 0.65602 0.82508 0.06446 0.0
O417 O 0.62909 0.80701 0.02821 0.0
C418 C 0.66575 0.90184 0.97823 0.0
C419 C 0.63639 0.80581 0.05606 0.0
Dy420 Dy 0.82536 0.67506 0.99086 0.0
C421 C 0.8845 0.68319 0.0768 0.0
C422 C 0.81986 0.66549 0.93191 0.0
Dy423 Dy 0.84647 0.67254 0.03076 0.0
O424 O 0.84306 0.66053 0.94749 0.0
O425 O 0.79908 0.67441 0.94904 0.0
O426 O 0.78856 0.70659 0.98869 0.0
O427 O 0.82397 0.71658 0.01835 0.0
C428 C 0.79848 0.72509 1.00781 0.0
C429 C 0.83907 0.61192 0.02858 0.0
O430 O 0.80169 0.67957 0.04816 0.0
O431 O 0.78839 0.65099 1.01171 0.0
O432 O 0.88745 0.6938 0.05025 0.0
O433 O 0.86018 0.66807 0.07833 0.0
O434 O 0.83745 0.62794 0.05182 0.0
O435 O 0.84275 0.62947 1.00579 0.0
O436 O 0.86406 0.69995 0.97239 0.0
O437 O 0.88773 0.67098 1.00274 0.0
C438 C 0.78169 0.66214 0.03706 0.0
C439 C 0.88899 0.68825 0.97953 0.0
Dy440 Dy 0.39848 0.86496 1.00063 0.0
C441 C 0.3967 0.78483 0.07695 0.0
C442 C 0.39376 0.91024 0.95909 0.0
Dy443 Dy 0.3983 0.82964 0.03701 0.0
O444 O 0.40651 0.8853 0.95539 0.0
O445 O 0.38314 0.91048 0.98565 0.0
O446 O 0.44588 0.8581 0.98529 0.0
O447 O 0.43941 0.85679 0.03028 0.0
C448 C 0.45936 0.8556 1.01027 0.0
C449 C 0.33924 0.82839 0.02777 0.0
O450 O 0.40873 0.86757 0.06599 0.0
O451 O 0.38378 0.89628 0.03491 0.0
O452 O 0.39012 0.81169 0.08212 0.0
O453 O 0.40781 0.78279 0.05076 0.0
O454 O 0.35173 0.83305 0.0527 0.0
O455 O 0.35888 0.83263 1.00745 0.0
O456 O 0.38394 0.83079 0.97027 0.0
O457 O 0.41133 0.80166 0.9992 0.0
C458 C 0.39564 0.89265 0.06085 0.0
C459 C 0.3977 0.80611 0.97403 0.0
Dy460 Dy 0.65477 0.22657 0.0282 0.0
C461 C 0.64105 0.28598 0.12166 0.0
C462 C 0.66491 0.18742 0.98339 0.0
Dy463 Dy 0.65296 0.25971 0.06989 0.0
O464 O 0.64941 0.21117 0.98122 0.0
O465 O 0.67532 0.18538 1.00996 0.0
O466 O 0.60597 0.2287 0.01553 0.0
O467 O 0.615 0.22891 0.0598 0.0
C468 C 0.59358 0.23081 0.04111 0.0
C469 C 0.71131 0.26595 0.05502 0.0
O470 O 0.651 0.21708 0.0953 0.0
O471 O 0.67322 0.19274 0.05964 0.0
O472 O 0.66612 0.27567 0.11423 0.0
O473 O 0.62711 0.29096 0.09704 0.0
O474 O 0.70102 0.25993 0.08092 0.0
O475 O 0.68984 0.26304 0.03663 0.0
O476 O 0.66632 0.26877 1.00555 0.0
O477 O 0.63548 0.29084 0.03555 0.0
C478 C 0.66466 0.19357 0.08705 0.0
C479 C 0.64694 0.28939 1.00904 0.0
Dy480 Dy 0.50189 0.6974 0.8946 0.0
C481 C 0.54453 0.79162 0.89756 0.0
C482 C 0.46421 0.64977 0.89228 0.0
Dy483 Dy 0.52882 0.73411 0.893 0.0
O484 O 0.46065 0.6733 0.90715 0.0
O485 O 0.48959 0.65126 0.87905 0.0
O486 O 0.4878 0.7024 0.94307 0.0
O487 O 0.53189 0.7084 0.93489 0.0
C488 C 0.51277 0.70759 0.95566 0.0
C489 C 0.52094 0.73775 0.83461 0.0
O490 O 0.56723 0.70251 0.89774 0.0
O491 O 0.53751 0.66846 0.87914 0.0
O492 O 0.56211 0.77039 0.89098 0.0
O493 O 0.51921 0.78055 0.9045 0.0
O494 O 0.54635 0.73779 0.84732 0.0
O495 O 0.50118 0.72862 0.85334 0.0
O496 O 0.46295 0.72226 0.88054 0.0
O497 O 0.4864 0.75182 0.91048 0.0
C498 C 0.5641 0.6759 0.887 0.0
C499 C 0.46201 0.74519 0.89674 0.0
Dy500 Dy 0.34658 0.49924 0.89548 0.0
C501 C 0.26856 0.57042 0.91116 0.0
C502 C 0.39321 0.4607 0.89214 0.0
Dy503 Dy 0.31118 0.53135 0.89761 0.0
O504 O 0.36869 0.45618 0.90599 0.0
O505 O 0.39248 0.48664 0.87962 0.0
O506 O 0.33845 0.48613 0.94461 0.0
O507 O 0.34297 0.53003 0.93527 0.0
C508 C 0.34091 0.51161 0.95685 0.0
C509 C 0.30688 0.52641 0.83859 0.0
O510 O 0.34842 0.56342 0.90213 0.0
O511 O 0.37672 0.53375 0.87657 0.0
O512 O 0.28292 0.56962 0.88685 0.0
O513 O 0.27411 0.54624 0.92571 0.0
O514 O 0.31012 0.55083 0.85234 0.0
O515 O 0.31289 0.50484 0.85675 0.0
O516 O 0.31608 0.46439 0.88158 0.0
O517 O 0.28555 0.49001 0.9092 0.0
C518 C 0.37267 0.55977 0.88725 0.0
C519 C 0.29142 0.46534 0.89581 0.0
Dy520 Dy 0.54703 0.34385 0.9025 0.0
C521 C 0.46555 0.27006 0.9104 0.0
C522 C 0.58993 0.38755 0.89515 0.0
Dy523 Dy 0.50936 0.30947 0.90015 0.0
O524 O 0.59206 0.36376 0.91114 0.0
O525 O 0.56415 0.38752 0.88283 0.0
O526 O 0.55942 0.33803 0.95117 0.0
O527 O 0.51486 0.33677 0.94172 0.0
C528 C 0.53367 0.33546 0.96324 0.0
C529 C 0.52646 0.30702 0.84287 0.0
O530 O 0.47928 0.34685 0.90741 0.0
O531 O 0.51294 0.37593 0.88583 0.0
O532 O 0.46446 0.29171 0.89166 0.0
O533 O 0.49327 0.26487 0.91439 0.0
O534 O 0.50011 0.31234 0.85165 0.0
O535 O 0.54386 0.31028 0.86503 0.0
O536 O 0.57418 0.30497 0.89355 0.0
O537 O 0.54195 0.27983 0.92059 0.0
C538 C 0.48585 0.37232 0.89521 0.0
C539 C 0.56935 0.28333 0.9123 0.0
Dy540 Dy 0.70272 0.54683 0.89738 0.0
C541 C 0.77356 0.48764 0.94305 0.0
C542 C 0.65837 0.58816 0.89029 0.0
Dy543 Dy 0.73858 0.51458 0.90401 0.0
O544 O 0.68307 0.59199 0.90391 0.0
O545 O 0.65781 0.56151 0.88026 0.0
O546 O 0.71267 0.56248 0.94499 0.0
O547 O 0.70499 0.51878 0.93924 0.0
C548 C 0.70863 0.53774 0.95927 0.0
C549 C 0.75471 0.51823 0.84751 0.0
O550 O 0.70536 0.47831 0.89957 0.0
O551 O 0.67109 0.51041 0.88499 0.0
O552 O 0.76277 0.47533 0.91976 0.0
O553 O 0.76971 0.51582 0.94128 0.0
O554 O 0.76161 0.4971 0.8658 0.0
O555 O 0.73543 0.53619 0.85886 0.0
O556 O 0.73466 0.57839 0.87788 0.0
O557 O 0.76627 0.55564 0.90773 0.0
C558 C 0.67845 0.48302 0.89066 0.0
C559 C 0.76044 0.57799 0.89015 0.0
Dy560 Dy 0.50888 0.34518 0.1606 0.0
C561 C 0.56433 0.25579 0.17677 0.0
C562 C 0.47063 0.39141 0.15871 0.0
Dy563 Dy 0.53598 0.30774 0.16512 0.0
O564 O 0.46786 0.36698 0.14494 0.0
O565 O 0.49537 0.3914 0.17315 0.0
O566 O 0.49351 0.33686 0.11329 0.0
O567 O 0.53792 0.33129 0.12081 0.0
C568 C 0.51828 0.33212 0.10018 0.0
C569 C 0.52595 0.31092 0.22368 0.0
O570 O 0.57336 0.34111 0.15623 0.0
O571 O 0.54457 0.37534 0.17453 0.0
O572 O 0.54589 0.26014 0.15504 0.0
O573 O 0.56863 0.28069 0.18905 0.0
O574 O 0.55167 0.31354 0.21178 0.0
O575 O 0.50713 0.31614 0.20315 0.0
O576 O 0.47328 0.32011 0.18192 0.0
O577 O 0.49169 0.28609 0.15381 0.0
C578 C 0.57077 0.36811 0.16606 0.0
C579 C 0.469 0.29553 0.16876 0.0
Dy580 Dy 0.70125 0.50881 0.15561 0.0
C581 C 0.77415 0.58579 0.13018 0.0
C582 C 0.66074 0.46249 0.16172 0.0
Dy583 Dy 0.73535 0.54623 0.15268 0.0
O584 O 0.68596 0.46166 0.14864 0.0
O585 O 0.65745 0.48891 0.17173 0.0
O586 O 0.71024 0.49497 0.10777 0.0
O587 O 0.70524 0.539 0.11464 0.0
C588 C 0.70873 0.52032 0.09431 0.0
C589 C 0.74033 0.54054 0.21177 0.0
O590 O 0.69812 0.57678 0.14741 0.0
O591 O 0.66843 0.5435 0.16922 0.0
O592 O 0.75676 0.59029 0.15207 0.0
O593 O 0.77345 0.55797 0.12424 0.0
O594 O 0.73984 0.56516 0.19707 0.0
O595 O 0.73251 0.51906 0.19481 0.0
O596 O 0.73879 0.48207 0.17236 0.0
O597 O 0.76846 0.51141 0.14555 0.0
C598 C 0.67281 0.5708 0.15972 0.0
C599 C 0.76487 0.48716 0.16109 0.0
Dy600 Dy 0.53749 0.70157 0.15149 0.0
C601 C 0.4396 0.71917 0.15262 0.0
C602 C 0.58349 0.66306 0.16169 0.0
Dy603 Dy 0.49955 0.72099 0.15659 0.0
O604 O 0.58444 0.68669 0.1452 0.0
O605 O 0.55756 0.66094 0.17351 0.0
O606 O 0.55305 0.70943 0.10418 0.0
O607 O 0.50754 0.70482 0.11043 0.0
C608 C 0.52785 0.70849 0.09074 0.0
C609 C 0.51717 0.75232 0.20323 0.0
O610 O 0.48764 0.68133 0.18553 0.0
O611 O 0.51127 0.65892 0.1516 0.0
O612 O 0.45687 0.69792 0.14639 0.0
O613 O 0.45535 0.74236 0.15888 0.0
O614 O 0.49706 0.7601 0.18435 0.0
O615 O 0.52898 0.72704 0.19576 0.0
O616 O 0.56009 0.7443 0.15575 0.0
O617 O 0.52177 0.75653 0.12894 0.0
C618 C 0.49219 0.6564 0.17275 0.0
C619 C 0.54864 0.76314 0.1374 0.0
Dy620 Dy 0.33571 0.56439 0.15821 0.0
C621 C 0.37839 0.47818 0.16535 0.0
C622 C 0.34625 0.62356 0.14798 0.0
Dy623 Dy 0.34624 0.52733 0.15179 0.0
O624 O 0.32541 0.61214 0.16428 0.0
O625 O 0.3618 0.60227 0.13806 0.0
O626 O 0.29921 0.57167 0.19107 0.0
O627 O 0.32115 0.53071 0.19463 0.0
C628 C 0.30044 0.54673 0.20556 0.0
C629 C 0.34296 0.52858 0.09205 0.0
O630 O 0.29702 0.52139 0.15054 0.0
O631 O 0.29467 0.56727 0.13402 0.0
O632 O 0.35573 0.47903 0.14803 0.0
O633 O 0.38253 0.50394 0.17649 0.0
O634 O 0.33904 0.50532 0.10874 0.0
O635 O 0.3467 0.55165 0.1087 0.0
O636 O 0.37384 0.57266 0.18826 0.0
O637 O 0.39108 0.55173 0.15032 0.0
C638 C 0.28109 0.54255 0.1388 0.0
C639 C 0.39722 0.56773 0.17317 0.0
Dy640 Dy 0.90185 0.51649 0.70523 0.0
C641 C 0.89876 0.61637 0.7204 0.0
C642 C 0.8884 0.46956 0.66954 0.0
Dy643 Dy 0.89725 0.55638 0.72445 0.0
O644 O 0.90547 0.46869 0.69245 0.0
O645 O 0.8778 0.49583 0.66683 0.0
O646 O 0.94856 0.50021 0.70846 0.0
O647 O 0.94294 0.54646 0.70647 0.0
C648 C 0.96214 0.52556 0.70784 0.0
C649 C 0.85117 0.53641 0.75656 0.0
O650 O 0.86785 0.56632 0.68582 0.0
O651 O 0.90201 0.54343 0.66295 0.0
O652 O 0.89198 0.60106 0.744 0.0
O653 O 0.90733 0.59884 0.70028 0.0
O654 O 0.87005 0.55642 0.7647 0.0
O655 O 0.85837 0.52563 0.7309 0.0
O656 O 0.90078 0.50005 0.75115 0.0
O657 O 0.92876 0.53878 0.75796 0.0
C658 C 0.8807 0.56205 0.66079 0.0
C659 C 0.92212 0.5118 0.76623 0.0
Dy660 Dy 0.53573 0.89432 0.70173 0.0
C661 C 0.4609 0.92689 0.76472 0.0
C662 C 0.57941 0.88788 0.65956 0.0
Dy663 Dy 0.49841 0.89559 0.73259 0.0
O664 O 0.58261 0.90019 0.68487 0.0
O665 O 0.55227 0.87902 0.65726 0.0
O666 O 0.55168 0.94083 0.71538 0.0
O667 O 0.50813 0.93581 0.70487 0.0
C668 C 0.52747 0.95525 0.71173 0.0
C669 C 0.5044 0.83894 0.748 0.0
O670 O 0.46703 0.88832 0.69526 0.0
O671 O 0.50484 0.88521 0.66414 0.0
O672 O 0.45318 0.90809 0.745 0.0
O673 O 0.4884 0.92288 0.77104 0.0
O674 O 0.48232 0.85528 0.75456 0.0
O675 O 0.52292 0.85248 0.73 0.0
O676 O 0.56282 0.87569 0.7375 0.0
O677 O 0.53522 0.90501 0.76399 0.0
C678 C 0.47636 0.88496 0.66835 0.0
C679 C 0.55912 0.88935 0.76203 0.0
Dy680 Dy 0.15799 0.54757 0.70199 0.0
C681 C 0.163 0.4623 0.77272 0.0
C682 C 0.16588 0.59247 0.66014 0.0
Dy683 Dy 0.1576 0.50915 0.7359 0.0
O684 O 0.17353 0.56526 0.65689 0.0
O685 O 0.15427 0.59474 0.68592 0.0
O686 O 0.1104 0.56144 0.70665 0.0
O687 O 0.11715 0.51658 0.70825 0.0
C688 C 0.09715 0.53632 0.70972 0.0
C689 C 0.21598 0.52401 0.73925 0.0
O690 O 0.14769 0.48211 0.69665 0.0
O691 O 0.17554 0.51385 0.67109 0.0
O692 O 0.15152 0.4871 0.78054 0.0
O693 O 0.16787 0.46245 0.74488 0.0
O694 O 0.20574 0.49874 0.73177 0.0
O695 O 0.1947 0.54229 0.73659 0.0
O696 O 0.16663 0.57504 0.74037 0.0
O697 O 0.13714 0.54302 0.76437 0.0
C698 C 0.16298 0.4878 0.67287 0.0
C699 C 0.14865 0.56967 0.76219 0.0
Dy700 Dy 0.51559 0.15345 0.70845 0.0
C701 C 0.5917 0.13512 0.77331 0.0
C702 C 0.47626 0.16272 0.66341 0.0
Dy703 Dy 0.54369 0.15007 0.74282 0.0
O704 O 0.47035 0.15052 0.68874 0.0
O705 O 0.50411 0.16951 0.66224 0.0
O706 O 0.49537 0.10649 0.71555 0.0
O707 O 0.54023 0.1097 0.71639 0.0
C708 C 0.51911 0.09095 0.71731 0.0
C709 C 0.53245 0.20327 0.76251 0.0
O710 O 0.57995 0.16001 0.70949 0.0
O711 O 0.54794 0.16251 0.6728 0.0
O712 O 0.58768 0.1603 0.76057 0.0
O713 O 0.56737 0.1196 0.773 0.0
O714 O 0.53901 0.18065 0.77898 0.0
O715 O 0.52972 0.19617 0.73454 0.0
O716 O 0.48298 0.17475 0.73538 0.0
O717 O 0.50038 0.1412 0.76641 0.0
C718 C 0.57521 0.16339 0.68122 0.0
C719 C 0.47961 0.16012 0.75967 0.0
Dy720 Dy 0.89311 0.55258 0.34843 0.0
C721 C 0.88508 0.47397 0.27799 0.0
C722 C 0.88658 0.59467 0.39143 0.0
Dy723 Dy 0.89327 0.52135 0.31168 0.0
O724 O 0.89314 0.56719 0.39633 0.0
O725 O 0.88357 0.59877 0.36335 0.0
O726 O 0.94164 0.56802 0.34399 0.0
O727 O 0.93458 0.52403 0.33727 0.0
C728 C 0.95485 0.54386 0.33789 0.0
C729 C 0.8404 0.54221 0.29715 0.0
O730 O 0.89127 0.48771 0.34951 0.0
O731 O 0.87587 0.52078 0.3815 0.0
O732 O 0.87191 0.47848 0.30254 0.0
O733 O 0.90517 0.49424 0.27267 0.0
O734 O 0.86181 0.53861 0.27896 0.0
O735 O 0.84953 0.53819 0.3244 0.0
O736 O 0.87925 0.58583 0.31642 0.0
O737 O 0.91321 0.56294 0.29137 0.0
C738 C 0.88097 0.49342 0.37583 0.0
C739 C 0.89807 0.5871 0.2953 0.0
Dy740 Dy 0.51243 0.89634 0.34637 0.0
C741 C 0.58604 0.91223 0.27062 0.0
C742 C 0.47078 0.89406 0.38972 0.0
Dy743 Dy 0.54366 0.89925 0.3117 0.0
O744 O 0.46815 0.90648 0.36412 0.0
O745 O 0.49634 0.88159 0.39176 0.0
O746 O 0.4973 0.94431 0.34251 0.0
O747 O 0.54205 0.93801 0.3422 0.0
C748 C 0.52231 0.95818 0.34323 0.0
C749 C 0.53439 0.84047 0.30315 0.0
O750 O 0.57687 0.89704 0.34884 0.0
O751 O 0.54361 0.87708 0.37904 0.0
O752 O 0.57487 0.88674 0.27628 0.0
O753 O 0.56939 0.93117 0.28331 0.0
O754 O 0.56 0.8532 0.30492 0.0
O755 O 0.51482 0.85862 0.31254 0.0
O756 O 0.47906 0.88111 0.31535 0.0
O757 O 0.50315 0.91239 0.28573 0.0
C758 C 0.57093 0.88471 0.3745 0.0
C759 C 0.47896 0.89711 0.29146 0.0
Dy760 Dy 0.15559 0.49895 0.32803 0.0
C761 C 0.16442 0.58673 0.37751 0.0
C762 C 0.13927 0.44148 0.33802 0.0
Dy763 Dy 0.15109 0.53852 0.3437 0.0
O764 O 0.13738 0.46243 0.35662 0.0
O765 O 0.15095 0.45198 0.31366 0.0
O766 O 0.18823 0.49156 0.29234 0.0
O767 O 0.1946 0.53 0.31877 0.0
C768 C 0.20466 0.51488 0.29664 0.0
C769 C 0.09069 0.53466 0.33681 0.0
O770 O 0.15818 0.55222 0.29734 0.0
O771 O 0.13163 0.51279 0.28788 0.0
O772 O 0.14779 0.58686 0.35427 0.0
O773 O 0.17459 0.56044 0.38163 0.0
O774 O 0.10644 0.55869 0.33716 0.0
O775 O 0.10808 0.51223 0.33954 0.0
O776 O 0.18433 0.48801 0.36717 0.0
O777 O 0.15146 0.51455 0.38802 0.0
C778 C 0.14152 0.53836 0.27855 0.0
C779 C 0.1723 0.49547 0.39181 0.0
Dy780 Dy 0.53242 0.15604 0.3619 0.0
C781 C 0.44691 0.12657 0.31319 0.0
C782 C 0.57163 0.16794 0.407 0.0
Dy783 Dy 0.49682 0.15288 0.33122 0.0
O784 O 0.57494 0.17588 0.37961 0.0
O785 O 0.547 0.15361 0.40964 0.0
O786 O 0.55196 0.10969 0.35676 0.0
O787 O 0.50673 0.11228 0.35913 0.0
C788 C 0.52802 0.09386 0.35708 0.0
C789 C 0.51296 0.20482 0.30631 0.0
O790 O 0.46504 0.17334 0.36173 0.0
O791 O 0.49954 0.17056 0.39621 0.0
O792 O 0.47102 0.12851 0.29791 0.0
O793 O 0.44878 0.14452 0.33479 0.0
O794 O 0.49857 0.18384 0.29352 0.0
O795 O 0.51924 0.19758 0.33376 0.0
O796 O 0.56351 0.1593 0.32452 0.0
O797 O 0.52942 0.13224 0.30265 0.0
C798 C 0.47227 0.17652 0.38918 0.0
C799 C 0.5567 0.1415 0.30341 0.0
Dy800 Dy 0.70295 0.89899 0.51056 0.0
C801 C 0.76563 0.9369 0.58325 0.0
C802 C 0.65933 0.89138 0.46837 0.0
Dy803 Dy 0.73573 0.90304 0.54554 0.0
O804 O 0.68313 0.90712 0.46545 0.0
O805 O 0.65918 0.87957 0.49465 0.0
O806 O 0.71318 0.94685 0.49428 0.0
O807 O 0.70569 0.94057 0.53826 0.0
C808 C 0.71063 0.96073 0.5188 0.0
C809 C 0.75731 0.84939 0.53663 0.0
O810 O 0.70029 0.89141 0.57853 0.0
O811 O 0.66729 0.88644 0.54256 0.0
O812 O 0.75024 0.91373 0.59087 0.0
O813 O 0.76764 0.93896 0.5548 0.0
O814 O 0.76657 0.86785 0.55609 0.0
O815 O 0.7341 0.85923 0.52221 0.0
O816 O 0.73581 0.88327 0.47964 0.0
O817 O 0.7621 0.91522 0.50523 0.0
C818 C 0.67304 0.88618 0.57071 0.0
C819 C 0.75901 0.89994 0.48112 0.0
Dy820 Dy 0.70566 0.1556 0.54429 0.0
C821 C 0.72917 0.16235 0.44571 0.0
C822 C 0.66675 0.16236 0.59062 0.0
Dy823 Dy 0.72761 0.16185 0.50542 0.0
O824 O 0.69088 0.14738 0.59164 0.0
O825 O 0.66399 0.17366 0.56436 0.0
O826 O 0.71909 0.10872 0.55781 0.0
O827 O 0.70918 0.11611 0.51362 0.0
C828 C 0.716 0.09595 0.53262 0.0
C829 C 0.75255 0.21245 0.51977 0.0
O830 O 0.68733 0.18674 0.49178 0.0
O831 O 0.66309 0.15484 0.51881 0.0
O832 O 0.71233 0.17805 0.46141 0.0
O833 O 0.74567 0.14594 0.46271 0.0
O834 O 0.76347 0.19382 0.50144 0.0
O835 O 0.7282 0.20212 0.53255 0.0
O836 O 0.74494 0.16906 0.56852 0.0
O837 O 0.76899 0.15052 0.53064 0.0
C838 C 0.66215 0.17422 0.49751 0.0
C839 C 0.76988 0.16153 0.55719 0.0
Dy840 Dy 0.90114 0.70894 0.54033 0.0
C841 C 0.90864 0.797 0.46676 0.0
C842 C 0.89135 0.65911 0.57555 0.0
Dy843 Dy 0.90282 0.75043 0.50537 0.0
O844 O 0.88858 0.68613 0.58347 0.0
O845 O 0.89973 0.65916 0.54828 0.0
O846 O 0.94892 0.71444 0.55603 0.0
O847 O 0.94171 0.72116 0.51165 0.0
C848 C 0.96194 0.72144 0.5315 0.0
C849 C 0.84433 0.75023 0.51781 0.0
O850 O 0.90005 0.71416 0.47174 0.0
O851 O 0.87987 0.68296 0.50513 0.0
O852 O 0.88933 0.79485 0.48738 0.0
O853 O 0.92664 0.77529 0.46963 0.0
O854 O 0.8553 0.74871 0.49158 0.0
O855 O 0.86514 0.7444 0.53634 0.0
O856 O 0.89065 0.74056 0.57401 0.0
O857 O 0.91983 0.77101 0.54729 0.0
C858 C 0.88713 0.68869 0.47785 0.0
C859 C 0.90763 0.76374 0.57288 0.0
Dy860 Dy 0.3232 0.91184 0.56241 0.0
C861 C 0.38699 0.9091 0.48402 0.0
C862 C 0.31946 0.91915 0.62133 0.0
Dy863 Dy 0.34719 0.91702 0.5282 0.0
O864 O 0.34303 0.9227 0.60585 0.0
O865 O 0.29711 0.91383 0.60419 0.0
O866 O 0.28796 0.87829 0.56631 0.0
O867 O 0.32393 0.87089 0.53596 0.0
C868 C 0.29914 0.86046 0.54731 0.0
C869 C 0.33862 0.9777 0.53319 0.0
O870 O 0.30996 0.9033 0.50098 0.0
O871 O 0.28487 0.92691 0.53444 0.0
O872 O 0.36316 0.92428 0.4819 0.0
O873 O 0.38928 0.89808 0.51043 0.0
O874 O 0.34078 0.96323 0.509 0.0
O875 O 0.33911 0.95889 0.55483 0.0
O876 O 0.35974 0.88323 0.58049 0.0
O877 O 0.38826 0.91347 0.55581 0.0
C878 C 0.28498 0.91404 0.5088 0.0
C879 C 0.38641 0.89325 0.57632 0.0
Dy880 Dy 0.14597 0.3656 0.53338 0.0
C881 C 0.14153 0.3625 0.43695 0.0
C882 C 0.16114 0.4004 0.58045 0.0
Dy883 Dy 0.14826 0.34913 0.4954 0.0
O884 O 0.14332 0.37789 0.58141 0.0
O885 O 0.1715 0.40326 0.55399 0.0
O886 O 0.10023 0.36049 0.55322 0.0
O887 O 0.10258 0.36437 0.50706 0.0
C888 C 0.08485 0.36149 0.52918 0.0
C889 C 0.19357 0.31415 0.50782 0.0
O890 O 0.18182 0.38551 0.48677 0.0
O891 O 0.14804 0.40937 0.50828 0.0
O892 O 0.13333 0.37872 0.45831 0.0
O893 O 0.15052 0.33728 0.44763 0.0
O894 O 0.17293 0.3086 0.48862 0.0
O895 O 0.18827 0.33857 0.52198 0.0
O896 O 0.14867 0.32077 0.55227 0.0
O897 O 0.11928 0.31315 0.51505 0.0
C898 C 0.17058 0.41121 0.49073 0.0
C899 C 0.12768 0.3046 0.54142 0.0
Dy900 Dy 0.31426 0.16982 0.50048 0.0
C901 C 0.38509 0.18243 0.57589 0.0
C902 C 0.28644 0.13169 0.46562 0.0
Dy903 Dy 0.34294 0.17624 0.533 0.0
O904 O 0.3016 0.15438 0.45615 0.0
O905 O 0.28257 0.13331 0.49383 0.0
O906 O 0.28116 0.20153 0.48618 0.0
O907 O 0.31436 0.2165 0.51682 0.0
C908 C 0.28994 0.22297 0.50264 0.0
C909 C 0.33713 0.11372 0.53224 0.0
O910 O 0.31175 0.20041 0.55979 0.0
O911 O 0.28494 0.1651 0.54064 0.0
O912 O 0.35848 0.17267 0.57996 0.0
O913 O 0.38852 0.18984 0.54836 0.0
O914 O 0.33037 0.13053 0.55394 0.0
O915 O 0.34312 0.13158 0.51094 0.0
O916 O 0.34981 0.18077 0.46695 0.0
O917 O 0.38102 0.18774 0.50365 0.0
C918 C 0.28737 0.18553 0.56066 0.0
C919 C 0.37677 0.18663 0.47537 0.0
Dy920 Dy 0.89003 0.35997 0.51205 0.0
C921 C 0.88438 0.27515 0.58535 0.0
C922 C 0.88263 0.40391 0.46979 0.0
Dy923 Dy 0.88958 0.3219 0.54789 0.0
O924 O 0.90023 0.38194 0.46834 0.0
O925 O 0.86886 0.40239 0.4949 0.0
O926 O 0.93747 0.35643 0.49736 0.0
O927 O 0.93001 0.3512 0.54232 0.0
C928 C 0.95026 0.35186 0.52235 0.0
C929 C 0.83191 0.31993 0.53157 0.0
O930 O 0.89893 0.35665 0.58038 0.0
O931 O 0.87636 0.38837 0.55001 0.0
O932 O 0.89769 0.27443 0.56009 0.0
O933 O 0.87765 0.30183 0.59136 0.0
O934 O 0.84109 0.32514 0.55779 0.0
O935 O 0.85385 0.32447 0.51419 0.0
O936 O 0.88249 0.32416 0.48096 0.0
O937 O 0.91023 0.29727 0.51177 0.0
C938 C 0.88675 0.3823 0.57643 0.0
C939 C 0.89953 0.30166 0.48529 0.0
Dy940 Dy 0.15901 0.718 0.51092 0.0
C941 C 0.14057 0.78956 0.58917 0.0
C942 C 0.16409 0.67609 0.4679 0.0
Dy943 Dy 0.15609 0.75241 0.54637 0.0
O944 O 0.14813 0.69934 0.4667 0.0
O945 O 0.17741 0.67516 0.49322 0.0
O946 O 0.11178 0.72796 0.49535 0.0
O947 O 0.11757 0.72219 0.53979 0.0
C948 C 0.0977 0.72637 0.52011 0.0
C949 C 0.2151 0.75712 0.5396 0.0
O950 O 0.15354 0.71371 0.57801 0.0
O951 O 0.17372 0.6847 0.54468 0.0
O952 O 0.16702 0.78204 0.58329 0.0
O953 O 0.12511 0.78452 0.56578 0.0
O954 O 0.20177 0.75231 0.56441 0.0
O955 O 0.1966 0.75233 0.51858 0.0
O956 O 0.1761 0.75202 0.48042 0.0
O957 O 0.14603 0.78004 0.50607 0.0
C958 C 0.16546 0.68843 0.57189 0.0
C959 C 0.16064 0.77578 0.48154 0.0
C960 C 1.00728 0.20893 0.54794 0.0
C961 C 0.03409 0.21076 0.56393 0.0
C962 C 1.00611 0.20893 0.51623 0.0
C963 C 0.03158 0.21092 0.49776 0.0
H964 H 0.98671 0.20772 0.56003 0.0
H965 H 0.9846 0.20761 0.50601 0.0
S966 S 0.10779 0.21656 0.52741 0.0
N967 N 0.08724 0.21461 0.55747 0.0
N968 N 0.08481 0.21501 0.49923 0.0
C969 C 0.05853 0.21276 0.51341 0.0
C970 C 0.05979 0.21254 0.54574 0.0
C971 C 0.84108 0.06922 0.54185 0.0
C972 C 0.83983 0.04395 0.56116 0.0
C973 C 0.83979 0.06752 0.50985 0.0
C974 C 0.83739 0.04029 0.49461 0.0
H975 H 0.84314 0.0907 0.55152 0.0
H976 H 0.84092 0.08786 0.49701 0.0
S977 S 0.83364 0.96707 0.53362 0.0
N978 N 0.8363 0.99053 0.56083 0.0
N979 N 0.8338 0.98739 0.50311 0.0
C980 C 0.83618 0.01508 0.51382 0.0
C981 C 0.83742 0.01684 0.54599 0.0
C982 C 0.0544 0.85016 0.5557 0.0
C983 C 0.02789 0.845 0.57202 0.0
C984 C 0.05543 0.85135 0.52369 0.0
C985 C 0.03019 0.84703 0.50528 0.0
H986 H 0.07469 0.85371 0.56773 0.0
H987 H 0.07654 0.85566 0.51324 0.0
S988 S 0.95507 0.83245 0.53553 0.0
N989 N 0.9755 0.83548 0.56544 0.0
N990 N 0.97773 0.83708 0.50733 0.0
C991 C 1.00381 0.84148 0.52134 0.0
C992 C 1.00264 0.84066 0.55369 0.0
C993 C 0.21478 1.00497 0.55138 0.0
C994 C 0.21499 0.03093 0.5688 0.0
C995 C 0.2134 1.00538 0.51946 0.0
C996 C 0.2125 0.03179 0.50201 0.0
H997 H 0.21589 0.98372 0.56258 0.0
H998 H 0.21384 0.98461 0.50827 0.0
S999 S 0.21213 0.10648 0.53529 0.0
N1000 N 0.21361 0.08419 0.56446 0.0
N1001 N 0.21129 0.08509 0.50627 0.0
C1002 C 0.21221 0.05787 0.5192 0.0
C1003 C 0.21348 0.05743 0.55164 0.0
C1004 C 0.53963 0.05077 0.21067 0.0
C1005 C 0.55979 0.02675 0.21395 0.0
C1006 C 0.50775 0.04773 0.21226 0.0
C1007 C 0.49266 0.02017 0.21625 0.0
H1008 H 0.54868 0.07285 0.20793 0.0
H1009 H 0.49476 0.06752 0.21019 0.0
S1010 S 0.53305 0.94907 0.22326 0.0
N1011 N 0.5602 0.97358 0.22019 0.0
N1012 N 0.50208 0.96777 0.22169 0.0
C1013 C 0.51244 0.99583 0.21832 0.0
C1014 C 0.54497 0.99901 0.21742 0.0
C1015 C 0.99806 0.5496 0.23346 0.0
C1016 C 0.02135 0.56855 0.22288 0.0
C1017 C 0.99933 0.51768 0.23375 0.0
C1018 C 0.02422 0.5018 0.22381 0.0
H1019 H 0.97836 0.55959 0.242 0.0
H1020 H 0.98062 0.50534 0.24252 0.0
S1021 S 0.0903 0.53946 0.19045 0.0
N1022 N 0.06933 0.56736 0.19957 0.0
N1023 N 0.07221 0.50917 0.2009 0.0
C1024 C 0.04736 0.52052 0.21256 0.0
C1025 C 0.04584 0.55295 0.21187 0.0
C1026 C 0.54936 0.08147 0.84009 0.0
C1027 C 0.56374 0.05366 0.84023 0.0
C1028 C 0.51786 0.08482 0.84206 0.0
C1029 C 0.49753 0.06068 0.84422 0.0
H1030 H 0.56275 0.10137 0.83857 0.0
H1031 H 0.50931 0.107 0.84187 0.0
S1032 S 0.52185 0.98237 0.84389 0.0
N1033 N 0.55336 1.00101 0.8418 0.0
N1034 N 0.49547 1.00712 0.84515 0.0
C1035 C 0.51143 0.03261 0.84388 0.0
C1036 C 0.54371 0.02919 0.84202 0.0
C1037 C 0.05201 0.5486 0.8536 0.0
C1038 C 0.02683 0.56726 0.85368 0.0
C1039 C 0.0503 0.51683 0.85235 0.0
C1040 C 0.02315 0.50093 0.85107 0.0
H1041 H 0.07373 0.55874 0.85417 0.0
H1042 H 0.07065 0.50466 0.85191 0.0
S1043 S 0.94997 0.53794 0.85103 0.0
N1044 N 0.97352 0.56595 0.8525 0.0
N1045 N 0.97004 0.50783 0.85057 0.0
C1046 C 0.99778 0.51934 0.85161 0.0
C1047 C 0.99961 0.55166 0.85271 0.0
C1048 C 0.2011 0.55727 0.06122 0.0
C1049 C 0.20759 0.57707 0.03702 0.0
C1050 C 0.19875 0.52546 0.05877 0.0
C1051 C 0.20284 0.51028 0.03188 0.0
H1052 H 0.19856 0.56641 0.08291 0.0
H1053 H 0.19452 0.51254 0.07867 0.0
S1054 S 0.21398 0.55058 0.96016 0.0
N1055 N 0.21374 0.57764 0.984 0.0
N1056 N 0.20969 0.51958 0.97947 0.0
C1057 C 0.2074 0.52992 1.0072 0.0
C1058 C 0.2096 0.56235 1.00968 0.0
C1059 C 0.54376 0.23808 0.07237 0.0
C1060 C 0.55858 0.22985 0.046 0.0
C1061 C 0.51187 0.23835 0.07561 0.0
C1062 C 0.49155 0.23074 0.05275 0.0
H1063 H 0.55678 0.24503 0.09091 0.0
H1064 H 0.50302 0.24505 0.09657 0.0
S1065 S 0.51697 0.20612 0.97917 0.0
N1066 N 0.54822 0.21299 0.99653 0.0
N1067 N 0.49032 0.2136 1.00256 0.0
C1068 C 0.50598 0.2224 0.02638 0.0
C1069 C 0.53839 0.222 0.02309 0.0
C1070 C 0.84371 0.55847 1.0061 0.0
C1071 C 0.84213 0.57718 0.03083 0.0
C1072 C 0.84568 0.52671 1.00876 0.0
C1073 C 0.84623 0.5107 0.0363 0.0
H1074 H 0.84297 0.56836 0.98421 0.0
H1075 H 0.8461 0.5144 0.98856 0.0
S1076 S 0.84438 0.54805 0.10853 0.0
N1077 N 0.84261 0.5758 0.0845 0.0
N1078 N 0.84609 0.51776 0.08902 0.0
C1079 C 0.84548 0.52916 0.06116 0.0
C1080 C 0.84339 0.56148 0.05853 0.0
C1081 C 0.5406 0.85246 0.04309 0.0
C1082 C 0.55997 0.86167 0.01974 0.0
C1083 C 0.50895 0.85095 0.04031 0.0
C1084 C 0.49383 0.85852 0.01386 0.0
H1085 H 0.55006 0.84585 0.06406 0.0
H1086 H 0.49622 0.84326 0.05918 0.0
S1087 S 0.53276 0.88666 0.94616 0.0
N1088 N 0.56012 0.88027 0.96934 0.0
N1089 N 0.50213 0.87737 0.96394 0.0
C1090 C 0.51291 0.86843 0.9905 0.0
C1091 C 0.54516 0.87005 0.99342 0.0
C1092 C 0.49351 0.7039 1.01015 0.0
C1093 C 0.51752 0.70786 0.99004 0.0
C1094 C 0.49669 0.70413 0.0418 0.0
C1095 C 0.52424 0.70833 0.05617 0.0
H1096 H 0.4716 0.70052 1.00131 0.0
H1097 H 0.47711 0.70091 0.05518 0.0
S1098 S 0.59466 0.72105 0.01492 0.0
N1099 N 0.57021 0.71702 0.98827 0.0
N1100 N 0.57625 0.71738 0.04622 0.0
C1101 C 0.54842 0.71261 0.0363 0.0
C1102 C 0.54512 0.71239 1.00407 0.0
C1103 C 0.33196 0.49617 1.01207 0.0
C1104 C 0.34393 0.5168 0.9912 0.0
C1105 C 0.33323 0.50001 0.04349 0.0
C1106 C 0.34479 0.52572 0.05728 0.0
H1107 H 0.32114 0.47647 1.00406 0.0
H1108 H 0.32376 0.48266 0.0573 0.0
S1109 S 0.38833 0.58224 0.01462 0.0
N1110 N 0.37573 0.56035 0.98857 0.0
N1111 N 0.37472 0.56925 0.04619 0.0
C1112 C 0.35899 0.54556 0.03691 0.0
C1113 C 0.35929 0.54073 1.00471 0.0
C1114 C 0.55223 0.33014 0.01846 0.0
C1115 C 0.5288 0.33622 0.99818 0.0
C1116 C 0.54907 0.32813 0.05024 0.0
C1117 C 0.52235 0.33417 0.06522 0.0
H1118 H 0.57405 0.32799 1.00967 0.0
H1119 H 0.56823 0.32237 0.06323 0.0
S1120 S 0.45753 0.36527 0.02508 0.0
N1121 N 0.47986 0.35674 0.99785 0.0
N1122 N 0.47397 0.35467 0.05591 0.0
C1123 C 0.49955 0.34377 0.04547 0.0
C1124 C 0.50269 0.34476 1.01295 0.0
C1125 C 0.71155 0.55677 0.01372 0.0
C1126 C 0.70651 0.53328 0.99376 0.0
C1127 C 0.71093 0.55298 0.04543 0.0
C1128 C 0.70601 0.52521 0.05991 0.0
H1129 H 0.71645 0.57857 1.00475 0.0
H1130 H 0.71518 0.57205 0.05878 0.0
S1131 S 0.68622 0.4571 0.01913 0.0
N1132 N 0.69237 0.48161 0.99235 0.0
N1133 N 0.69219 0.4744 0.05032 0.0
C1134 C 0.69944 0.5019 0.04021 0.0
C1135 C 0.69954 0.50588 1.00798 0.0
C1136 C 0.01537 0.5042 0.70309 0.0
C1137 C 0.99658 0.52887 0.70701 0.0
C1138 C 0.04714 0.50619 0.70388 0.0
C1139 C 0.06269 0.53305 0.70874 0.0
H1140 H 1.00539 0.48275 0.69962 0.0
H1141 H 0.0596 0.48631 0.7007 0.0
S1142 S 0.02516 0.60385 0.72387 0.0
N1143 N 0.99734 0.5809 0.71795 0.0
N1144 N 0.05542 0.58465 0.71957 0.0
C1145 C 0.0441 0.55772 0.71305 0.0
C1146 C 1.01187 0.55571 0.71211 0.0
C1147 C 0.54623 1.00803 0.72642 0.0
C1148 C 0.52471 0.98991 0.71234 0.0
C1149 C 0.54453 0.03976 0.72768 0.0
C1150 C 0.52108 0.05631 0.71506 0.0
H1151 H 0.5648 0.99749 0.73701 0.0
H1152 H 0.56176 0.05141 0.73931 0.0
S1153 S 0.45982 0.02117 0.67296 0.0
N1154 N 0.47968 0.99263 0.68371 0.0
N1155 N 0.47632 0.05074 0.68631 0.0
C1156 C 0.49962 0.03853 0.7005 0.0
C1157 C 0.50147 1.00619 0.69904 0.0
C1158 C 1.0088 0.56145 0.35021 0.0
C1159 C 0.9894 0.53989 0.33814 0.0
C1160 C 0.04048 0.55911 0.35002 0.0
C1161 C 0.05585 0.53499 0.33779 0.0
H1162 H 0.99939 0.58074 0.36004 0.0
H1163 H 0.05319 0.57682 0.35967 0.0
S1164 S 0.01677 0.475 0.29821 0.0
N1165 N 0.98935 0.49481 0.31059 0.0
N1166 N 0.04762 0.49074 0.3097 0.0
C1167 C 0.03679 0.51374 0.32473 0.0
C1168 C 1.00437 0.51609 0.32506 0.0
C1169 C 0.55157 0.04183 0.34771 0.0
C1170 C 0.52719 0.05874 0.35752 0.0
C1171 C 0.55058 1.01015 0.34369 0.0
C1172 C 0.52547 0.99222 0.35065 0.0
H1173 H 0.5717 0.05348 0.34174 0.0
H1174 H 0.56965 0.9998 0.33424 0.0
S1175 S 0.46079 0.02216 0.39085 0.0
N1176 N 0.48031 0.05223 0.38256 0.0
N1177 N 0.47881 0.99426 0.37682 0.0
C1178 C 0.50261 1.0083 0.36469 0.0
C1179 C 0.50338 0.04066 0.3679 0.0
C1180 C 0.7092 1.00956 0.54986 0.0
C1181 C 0.71134 0.99531 0.52227 0.0
C1182 C 0.71095 0.04122 0.5529 0.0
C1183 C 0.71421 0.06147 0.52857 0.0
H1184 H 0.70643 0.99606 0.56963 0.0
H1185 H 0.70948 0.04993 0.57489 0.0
S1186 S 0.72053 0.03683 0.45105 0.0
N1187 N 0.7172 1.00546 0.46988 0.0
N1188 N 0.71929 0.06339 0.4754 0.0
C1189 C 0.71595 0.04751 0.50086 0.0
C1190 C 0.71479 0.01529 0.49782 0.0
C1191 C 0.04774 0.719 0.5499 0.0
C1192 C 0.06298 0.72521 0.52302 0.0
C1193 C 0.01597 0.71786 0.55213 0.0
C1194 C 0.99654 0.72269 0.52774 0.0
H1195 H 0.06048 0.71481 0.56966 0.0
H1196 H 1.00647 0.71302 0.57361 0.0
S1197 S 0.02383 0.74101 0.4521 0.0
N1198 N 0.05455 0.73713 0.47125 0.0
N1199 N 0.99646 0.73487 0.47553 0.0
C1200 C 1.01146 0.72917 0.50083 0.0
C1201 C 0.0438 0.73042 0.49852 0.0
C1202 C 0.35114 0.03026 0.51039 0.0
C1203 C 0.34079 1.0124 0.53467 0.0
C1204 C 0.35071 0.06215 0.50989 0.0
C1205 C 0.33981 0.07902 0.53362 0.0
H1206 H 0.35894 0.01943 0.49088 0.0
H1207 H 0.35823 0.07367 0.49011 0.0
S1208 S 0.31353 0.04437 0.60427 0.0
N1209 N 0.32184 0.01556 0.58436 0.0
N1210 N 0.32083 0.07391 0.58353 0.0
C1211 C 0.33092 0.06145 0.5586 0.0
C1212 C 0.3315 0.02899 0.55913 0.0
C1213 C 0.03446 0.35904 0.50134 0.0
C1214 C 0.05037 0.36014 0.52818 0.0
C1215 C 1.0029 0.35648 0.50012 0.0
C1216 C 0.98451 0.35464 0.52563 0.0
H1217 H 0.04657 0.35976 0.48081 0.0
H1218 H 0.99277 0.35568 0.47855 0.0
S1219 S 0.01412 0.35569 0.60205 0.0
N1220 N 0.04407 0.35878 0.58144 0.0
N1221 N 0.98598 0.3538 0.57903 0.0
C1222 C 1.00008 0.35563 0.55268 0.0
C1223 C 0.03232 0.35841 0.55395 0.0
C1224 C 1.00338 0.28225 0.31619 0.0
C1225 C 0.03078 0.26806 0.31959 0.0
C1226 C 0.99919 0.30668 0.29621 0.0
C1227 C 0.02185 0.31891 0.2777 0.0
H1228 H 0.98501 0.27511 0.32991 0.0
H1229 H 0.97766 0.3167 0.29589 0.0
S1230 S 0.09827 0.29065 0.27723 0.0
N1231 N 0.08138 0.26883 0.30165 0.0
N1232 N 0.07325 0.3139 0.26475 0.0
C1233 C 0.04922 0.30456 0.28026 0.0
C1234 C 0.05365 0.27966 0.30083 0.0
C1235 C 0.77464 0.06228 0.29888 0.0
C1236 C 0.78831 0.03708 0.31201 0.0
C1237 C 0.75224 0.06048 0.27661 0.0
C1238 C 0.74219 0.03334 0.26513 0.0
H1239 H 0.7808 0.08401 0.3064 0.0
H1240 H 0.74266 0.08076 0.26835 0.0
S1241 S 0.76963 0.96012 0.29164 0.0
N1242 N 0.78868 0.98374 0.31159 0.0
N1243 N 0.74837 0.98016 0.26979 0.0
C1244 C 0.75592 1.00792 0.27786 0.0
C1245 C 0.77826 1.00979 0.30102 0.0
C1246 C 1.00433 0.7681 0.32055 0.0
C1247 C 0.02738 0.78718 0.33018 0.0
C1248 C 1.00771 0.74783 0.29701 0.0
C1249 C 0.03474 0.74446 0.28191 0.0
H1250 H 0.98335 0.76829 0.33194 0.0
H1251 H 0.98929 0.73346 0.29176 0.0
S1252 S 0.10268 0.78829 0.29814 0.0
N1253 N 0.07839 0.8011 0.32165 0.0
N1254 N 0.08522 0.76283 0.27899 0.0
C1255 C 0.0579 0.76365 0.29111 0.0
C1256 C 0.05417 0.78487 0.31459 0.0
C1257 C 0.30643 0.99382 0.2875 0.0
C1258 C 0.31058 0.02069 0.27142 0.0
C1259 C 0.28687 0.99092 0.31241 0.0
C1260 C 0.26953 0.01446 0.32327 0.0
H1261 H 0.31944 0.97496 0.28165 0.0
H1262 H 0.28587 0.96973 0.32379 0.0
S1263 S 0.2712 0.08984 0.2896 0.0
N1264 N 0.29462 0.07165 0.26906 0.0
N1265 N 0.25837 0.06594 0.31453 0.0
C1266 C 0.2729 0.04124 0.30698 0.0
C1267 C 0.29307 0.04434 0.28178 0.0
C1268 C 0.05181 0.76031 0.79178 0.0
C1269 C 0.02438 0.74813 0.80115 0.0
C1270 C 0.05419 0.78319 0.76949 0.0
C1271 C 0.02942 0.7954 0.7544 0.0
H1272 H 0.07184 0.75196 0.80163 0.0
H1273 H 0.07609 0.79095 0.76353 0.0
S1274 S 0.95218 0.77118 0.76897 0.0
N1275 N 0.97149 0.75082 0.79232 0.0
N1276 N 0.9763 0.79223 0.75088 0.0
C1277 C 1.00193 0.78336 0.76344 0.0
C1278 C 0.99939 0.76042 0.78642 0.0
C1279 C 0.30341 0.02549 0.78564 0.0
C1280 C 0.31765 0.05181 0.79546 0.0
C1281 C 0.28207 0.02494 0.76225 0.0
C1282 C 0.27315 0.05074 0.74681 0.0
H1283 H 0.31 1.00453 0.79518 0.0
H1284 H 0.27405 1.00373 0.75489 0.0
S1285 S 0.30245 0.12591 0.76296 0.0
N1286 N 0.31975 0.10472 0.78722 0.0
N1287 N 0.28074 0.10379 0.74396 0.0
C1288 C 0.28649 0.07729 0.757 0.0
C1289 C 0.30809 0.07787 0.78094 0.0
C1290 C 1.00477 0.32869 0.76229 0.0
C1291 C 0.02557 0.32576 0.78545 0.0
C1292 C 1.00327 0.30898 0.73787 0.0
C1293 C 0.02225 0.28439 0.73437 0.0
H1294 H 0.98959 0.3469 0.76261 0.0
H1295 H 0.98675 0.31339 0.72121 0.0
S1296 S 0.08107 0.26567 0.78844 0.0
N1297 N 0.06602 0.29524 0.80258 0.0
N1298 N 0.06284 0.25882 0.75774 0.0
C1299 C 0.043 0.28092 0.75754 0.0
C1300 C 0.04471 0.30121 0.78244 0.0
C1301 C 0.76782 0.07458 0.75328 0.0
C1302 C 0.78461 0.05335 0.73799 0.0
C1303 C 0.74726 0.06698 0.77646 0.0
C1304 C 0.74103 0.03743 0.78549 0.0
H1305 H 0.77014 0.09761 0.74687 0.0
H1306 H 0.73498 0.08448 0.78632 0.0
S1307 S 0.77873 0.97272 0.75379 0.0
N1308 N 0.79378 1.00095 0.7355 0.0
N1309 N 0.75471 0.98678 0.77681 0.0
C1310 C 0.75801 0.01605 0.77069 0.0
C1311 C 0.77966 0.02386 0.74781 0.0
C1312 C 0.29558 0.29525 0.02011 0.0
C1313 C 0.31121 0.28357 0.04504 0.0
C1314 C 0.27459 0.31885 0.02172 0.0
C1315 C 0.26789 0.33321 0.0484 0.0
H1316 H 0.30032 0.2866 0.99857 0.0
H1317 H 0.26471 0.3269 1.00144 0.0
S1318 S 0.30195 0.31225 0.12068 0.0
N1319 N 0.31709 0.28911 0.09767 0.0
N1320 N 0.27933 0.33275 0.10075 0.0
C1321 C 0.28302 0.32142 0.07353 0.0
C1322 C 0.30395 0.2971 0.07192 0.0
C1323 C 0.30096 0.79264 0.05313 0.0
C1324 C 0.3127 0.80599 0.02675 0.0
C1325 C 0.27829 0.77013 0.05345 0.0
C1326 C 0.265 0.75946 0.02739 0.0
H1327 H 0.30995 0.79913 0.07416 0.0
H1328 H 0.27135 0.7608 0.07451 0.0
S1329 S 0.28695 0.78622 0.95188 0.0
N1330 N 0.3086 0.80564 0.97362 0.0
N1331 N 0.26634 0.76508 0.97385 0.0
C1332 C 0.27628 0.77297 1.00084 0.0
C1333 C 0.29973 0.7955 1.00058 0.0
C1334 C 0.7644 0.33197 0.02991 0.0
C1335 C 0.78465 0.33492 0.0537 0.0
C1336 C 0.74197 0.30912 0.02919 0.0
C1337 C 0.73817 0.2877 0.0523 0.0
H1338 H 0.76485 0.34842 1.01229 0.0
H1339 H 0.72662 0.30913 1.01092 0.0
S1340 S 0.78564 0.28466 0.11937 0.0
N1341 N 0.79894 0.31343 0.10065 0.0
N1342 N 0.75847 0.27125 0.09926 0.0
C1343 C 0.75897 0.29009 0.07561 0.0
C1344 C 0.78144 0.3133 0.07637 0.0
C1345 C 0.77437 0.77231 0.9879 0.0
C1346 C 0.78172 0.7543 1.0126 0.0
C1347 C 0.75351 0.79559 0.98908 0.0
C1348 C 0.73731 0.80245 0.01487 0.0
H1349 H 0.78427 0.76773 0.96678 0.0
H1350 H 0.74918 0.80768 0.96876 0.0
S1351 S 0.74709 0.76222 0.08645 0.0
N1352 N 0.77053 0.74579 0.06442 0.0
N1353 N 0.73114 0.78836 0.06642 0.0
C1354 C 0.74466 0.78495 0.04007 0.0
C1355 C 0.76656 0.76137 0.03896 0.0
C1356 C 0.48844 0.77325 0.80326 0.0
C1357 C 0.51588 0.75969 0.80846 0.0
C1358 C 0.48507 0.79735 0.78273 0.0
C1359 C 0.50877 0.80973 0.76572 0.0
H1360 H 0.46948 0.76611 0.81614 0.0
H1361 H 0.46348 0.80709 0.78096 0.0
S1362 S 0.58536 0.7821 0.76948 0.0
N1363 N 0.56735 0.7605 0.79328 0.0
N1364 N 0.56083 0.80502 0.7555 0.0
C1365 C 0.53609 0.79572 0.76989 0.0
C1366 C 0.53962 0.77117 0.79087 0.0
C1367 C 0.25409 0.49932 0.77473 0.0
C1368 C 0.24102 0.52546 0.76279 0.0
C1369 C 0.27541 0.49937 0.79821 0.0
C1370 C 0.28574 0.52566 0.81132 0.0
H1371 H 0.24719 0.47815 0.76632 0.0
H1372 H 0.28352 0.47842 0.80642 0.0
S1373 S 0.25964 0.60065 0.7885 0.0
N1374 N 0.24088 0.57852 0.76674 0.0
N1375 N 0.28064 0.57913 0.80913 0.0
C1376 C 0.27324 0.55201 0.79909 0.0
C1377 C 0.25122 0.55182 0.77556 0.0
C1378 C 0.55526 0.23968 0.79885 0.0
C1379 C 0.53347 0.23389 0.77702 0.0
C1380 C 0.55412 0.26406 0.81835 0.0
C1381 C 0.53072 0.28437 0.81796 0.0
H1382 H 0.57312 0.22429 0.80177 0.0
H1383 H 0.57111 0.26602 0.83498 0.0
S1384 S 0.46761 0.28037 0.76536 0.0
N1385 N 0.48775 0.2518 0.75642 0.0
N1386 N 0.4852 0.29682 0.79252 0.0
C1387 C 0.50913 0.27938 0.79567 0.0
C1388 C 0.51054 0.25462 0.77554 0.0
C1389 C 0.78939 0.49956 0.8065 0.0
C1390 C 0.77452 0.52351 0.81974 0.0
C1391 C 0.81215 0.50334 0.78462 0.0
C1392 C 0.82237 0.5315 0.77481 0.0
H1393 H 0.78403 0.47729 0.8139 0.0
H1394 H 0.82299 0.48393 0.77665 0.0
S1395 S 0.79159 0.60212 0.80133 0.0
N1396 N 0.77202 0.57682 0.81957 0.0
N1397 N 0.81472 0.58401 0.78042 0.0
C1398 C 0.80735 0.55561 0.78744 0.0
C1399 C 0.78368 0.5517 0.8091 0.0
C1400 C 0.49281 0.24438 0.27021 0.0
C1401 C 0.51544 0.23535 0.2901 0.0
C1402 C 0.49542 0.26947 0.25064 0.0
C1403 C 0.5212 0.28738 0.24886 0.0
H1404 H 0.47276 0.23125 0.26909 0.0
H1405 H 0.47736 0.27398 0.2357 0.0
S1406 S 0.58789 0.27405 0.29514 0.0
N1407 N 0.56492 0.24749 0.30619 0.0
N1408 N 0.57024 0.29347 0.26966 0.0
C1409 C 0.54394 0.27892 0.26893 0.0
C1410 C 0.54103 0.25353 0.28927 0.0
C1411 C 0.77074 0.56476 0.25317 0.0
C1412 C 0.76101 0.53854 0.2391 0.0
C1413 C 0.79399 0.56542 0.27451 0.0
C1414 C 0.80906 0.53982 0.28401 0.0
H1415 H 0.76131 0.58563 0.24643 0.0
H1416 H 0.8015 0.58667 0.28224 0.0
S1417 S 0.79279 0.46484 0.25544 0.0
N1418 N 0.76881 0.4858 0.23774 0.0
N1419 N 0.81169 0.48699 0.27712 0.0
C1420 C 0.79885 0.51326 0.27099 0.0
C1421 C 0.7752 0.51258 0.2491 0.0
C1422 C 0.54882 0.7764 0.24611 0.0
C1423 C 0.52142 0.77115 0.23181 0.0
C1424 C 0.55244 0.7976 0.26935 0.0
C1425 C 0.52897 0.81496 0.28058 0.0
H1426 H 0.56809 0.76497 0.23849 0.0
H1427 H 0.57436 0.80089 0.2782 0.0
S1428 S 0.45221 0.80976 0.25217 0.0
N1429 N 0.47004 0.78577 0.23213 0.0
N1430 N 0.47681 0.82388 0.27486 0.0
C1431 C 0.50141 0.80924 0.26703 0.0
C1432 C 0.49777 0.78809 0.24321 0.0
C1433 C 0.26306 0.55953 0.24743 0.0
C1434 C 0.27823 0.53796 0.23089 0.0
C1435 C 0.24086 0.55231 0.26929 0.0
C1436 C 0.23141 0.5229 0.27586 0.0
H1437 H 0.2682 0.58261 0.24325 0.0
H1438 H 0.23021 0.57022 0.28038 0.0
S1439 S 0.26255 0.45748 0.23873 0.0
N1440 N 0.28115 0.48537 0.22348 0.0
N1441 N 0.23977 0.47201 0.26268 0.0
C1442 C 0.24635 0.50118 0.25936 0.0
C1443 C 0.2694 0.50852 0.23767 0.0
C1444 C 0.79509 0.81056 0.55429 0.0
C1445 C 0.77543 0.82078 0.53186 0.0
C1446 C 0.81573 0.78725 0.55033 0.0
C1447 C 0.81876 0.77229 0.5234 0.0
H1448 H 0.79515 0.82133 0.57538 0.0
H1449 H 0.83029 0.7817 0.56845 0.0
S1450 S 0.77312 0.7893 0.45685 0.0
N1451 N 0.76082 0.81271 0.48129 0.0
N1452 N 0.79896 0.7699 0.47364 0.0
C1453 C 0.79884 0.78181 0.50085 0.0
C1454 C 0.77757 0.80548 0.50505 0.0
C1455 C 0.78988 0.28463 0.55078 0.0
C1456 C 0.80804 0.29551 0.52713 0.0
C1457 C 0.77054 0.25937 0.54838 0.0
C1458 C 0.76826 0.243 0.52218 0.0
H1459 H 0.79127 0.29522 0.57192 0.0
H1460 H 0.7583 0.25195 0.56765 0.0
S1461 S 0.80907 0.26258 0.4528 0.0
N1462 N 0.82049 0.28784 0.47602 0.0
N1463 N 0.78532 0.24153 0.47134 0.0
C1464 C 0.78554 0.25439 0.49815 0.0
C1465 C 0.80493 0.28005 0.50059 0.0
C1466 C 0.24681 0.79956 0.51451 0.0
C1467 C 0.24108 0.77989 0.5387 0.0
C1468 C 0.26737 0.82395 0.51625 0.0
C1469 C 0.28371 0.83032 0.54217 0.0
H1470 H 0.23421 0.79709 0.49444 0.0
H1471 H 0.26916 0.8389 0.49754 0.0
S1472 S 0.27835 0.78572 0.61162 0.0
N1473 N 0.25532 0.76872 0.58927 0.0
N1474 N 0.29241 0.81378 0.59239 0.0
C1475 C 0.27871 0.81036 0.56604 0.0
C1476 C 0.25812 0.78556 0.5643 0.0
C1477 C 0.22753 0.27777 0.48265 0.0
C1478 C 0.22173 0.29473 0.50792 0.0
C1479 C 0.2505 0.25679 0.48117 0.0
C1480 C 0.27004 0.25061 0.50479 0.0
H1481 H 0.21354 0.28018 0.46345 0.0
H1482 H 0.25231 0.24443 0.46107 0.0
S1483 S 0.26578 0.28818 0.57696 0.0
N1484 N 0.23885 0.30356 0.55776 0.0
N1485 N 0.28154 0.26425 0.55509 0.0
C1486 C 0.26529 0.26784 0.53024 0.0
C1487 C 0.24155 0.28963 0.53175 0.0
C1488 C 0.10347 0.13295 0.38095 0.0
C1489 C 0.10764 0.15961 0.39599 0.0
C1490 C 0.12552 0.11139 0.38013 0.0
C1491 C 0.15281 0.11531 0.39444 0.0
H1492 H 0.08279 0.12845 0.3699 0.0
H1493 H 0.12081 0.09113 0.3687 0.0
S1494 S 0.17554 0.18122 0.43648 0.0
N1495 N 0.14187 0.18881 0.42507 0.0
N1496 N 0.18297 0.14829 0.4237 0.0
C1497 C 0.15757 0.14202 0.40913 0.0
C1498 C 0.13514 0.16411 0.40986 0.0
C1499 C 0.9538 0.11075 0.3806 0.0
C1500 C 0.95088 0.14018 0.38888 0.0
C1501 C 0.92896 0.09193 0.37918 0.0
C1502 C 0.90042 0.10201 0.38589 0.0
H1503 H 0.97543 0.1019 0.37647 0.0
H1504 H 0.93234 0.06906 0.37379 0.0
S1505 S 0.88082 0.17874 0.40345 0.0
N1506 N 0.91703 0.17956 0.39998 0.0
N1507 N 0.87064 0.14427 0.39767 0.0
C1508 C 0.89719 0.13186 0.39245 0.0
C1509 C 0.92236 0.15092 0.39384 0.0
C1510 C 0.93758 0.91933 0.42452 0.0
C1511 C 0.96141 0.92003 0.40475 0.0
C1512 C 0.91566 0.94075 0.42304 0.0
C1513 C 0.9171 0.96414 0.40222 0.0
H1514 H 0.93539 0.90165 0.44079 0.0
H1515 H 0.8973 0.93882 0.43826 0.0
S1516 S 0.97644 0.9778 0.34737 0.0
N1517 N 0.9861 0.9471 0.36478 0.0
N1518 N 0.94521 0.98785 0.36266 0.0
C1519 C 0.94147 0.96595 0.38323 0.0
C1520 C 0.9636 0.94381 0.38438 0.0
C1521 C 0.11056 0.98026 0.40539 0.0
C1522 C 0.13347 0.97768 0.38465 0.0
C1523 C 0.08889 0.95799 0.40892 0.0
C1524 C 0.0898 0.93228 0.39217 0.0
H1525 H 0.11021 0.99882 0.42005 0.0
H1526 H 0.07233 0.96018 0.42591 0.0
S1527 S 0.14212 0.9168 0.33183 0.0
N1528 N 0.15311 0.94898 0.34447 0.0
N1529 N 0.11317 0.907 0.35189 0.0
C1530 C 0.11133 0.93034 0.37013 0.0
C1531 C 0.13293 0.95313 0.3661 0.0
C1532 C 0.14881 0.92647 0.66582 0.0
C1533 C 0.14171 0.9553 0.67429 0.0
C1534 C 0.12755 0.90347 0.66595 0.0
C1535 C 0.09817 0.90816 0.67465 0.0
H1536 H 0.17098 0.92165 0.65871 0.0
H1537 H 0.13422 0.88185 0.65896 0.0
S1538 S 0.06825 0.97957 0.69938 0.0
N1539 N 0.10319 0.98708 0.69198 0.0
N1540 N 0.06343 0.94425 0.69241 0.0
C1541 C 0.09092 0.93688 0.68353 0.0
C1542 C 0.11257 0.96027 0.68331 0.0
C1543 C 0.10305 0.12324 0.68618 0.0
C1544 C 0.11027 0.15282 0.67885 0.0
C1545 C 0.12446 0.101 0.68566 0.0
C1546 C 0.15395 0.10764 0.67826 0.0
H1547 H 0.08048 0.11702 0.69132 0.0
H1548 H 0.11776 0.07845 0.69069 0.0
S1549 S 0.18428 0.18219 0.65861 0.0
N1550 N 0.14899 0.18768 0.66484 0.0
N1551 N 0.1892 0.14657 0.66431 0.0
C1552 C 0.1615 0.13744 0.67184 0.0
C1553 C 0.13969 0.15983 0.67202 0.0
C1554 C 0.9723 0.11911 0.66585 0.0
C1555 C 0.97279 0.1428 0.68555 0.0
C1556 C 0.94816 0.09921 0.66464 0.0
C1557 C 0.92333 0.10212 0.683 0.0
H1558 H 0.99011 0.11667 0.65023 0.0
H1559 H 0.94844 0.0822 0.64822 0.0
S1560 S 0.91472 0.15851 0.74059 0.0
N1561 N 0.94704 0.1664 0.72553 0.0
N1562 N 0.90198 0.12937 0.72319 0.0
C1563 C 0.92427 0.12473 0.70389 0.0
C1564 C 0.94886 0.1449 0.70519 0.0
C1565 C 0.95472 0.94823 0.68609 0.0
C1566 C 0.95033 0.92185 0.67085 0.0
C1567 C 0.9332 0.9703 0.6857 0.0
C1568 C 0.90655 0.96664 0.67018 0.0
H1569 H 0.9751 0.95211 0.6979 0.0
H1570 H 0.93775 0.99059 0.69714 0.0
S1571 S 0.88365 0.90083 0.62818 0.0
N1572 N 0.91674 0.89284 0.64083 0.0
N1573 N 0.87655 0.93407 0.64027 0.0
C1574 C 0.90161 0.94002 0.65558 0.0
C1575 C 0.92346 0.91769 0.65585 0.0
C1576 C 0.36958 0.10088 0.14671 0.0
C1577 C 0.39157 0.09717 0.16839 0.0
C1578 C 0.37152 0.12352 0.12508 0.0
C1579 C 0.39572 0.14318 0.12403 0.0
H1580 H 0.35062 0.08613 0.14646 0.0
H1581 H 0.35377 0.12583 0.1093 0.0
S1582 S 0.46129 0.14032 0.17293 0.0
N1583 N 0.4394 0.11375 0.18591 0.0
N1584 N 0.4436 0.15549 0.14477 0.0
C1585 C 0.41833 0.13911 0.14496 0.0
C1586 C 0.41611 0.11637 0.16728 0.0
C1587 C 0.96992 0.41289 0.12107 0.0
C1588 C 0.97061 0.39023 0.14286 0.0
C1589 C 0.94783 0.41364 0.09902 0.0
C1590 C 0.92555 0.39171 0.09774 0.0
H1591 H 0.98567 0.43099 0.12189 0.0
H1592 H 0.94742 0.43231 0.08378 0.0
S1593 S 0.91955 0.32564 0.14728 0.0
N1594 N 0.94842 0.34394 0.15987 0.0
N1595 N 0.90752 0.34517 0.1188 0.0
C1596 C 0.92716 0.36806 0.11833 0.0
C1597 C 0.94946 0.36737 0.14073 0.0
C1598 C 0.65163 0.94053 0.1548 0.0
C1599 C 0.6641 0.96898 0.1512 0.0
C1600 C 0.65261 0.91991 0.13233 0.0
C1601 C 0.66614 0.92667 0.10516 0.0
H1602 H 0.64063 0.93403 0.17513 0.0
H1603 H 0.64232 0.8985 0.13628 0.0
S1604 S 0.70224 0.99784 0.08406 0.0
N1605 N 0.69067 1.00278 0.11812 0.0
N1606 N 0.69248 0.96379 0.07569 0.0
C1607 C 0.67908 0.95484 0.10116 0.0
C1608 C 0.67802 0.97605 0.12419 0.0
C1609 C 0.09924 0.69501 0.14459 0.0
C1610 C 0.09961 0.67378 0.16772 0.0
C1611 C 0.12137 0.69608 0.12275 0.0
C1612 C 0.14467 0.67588 0.12309 0.0
H1613 H 0.08169 0.71094 0.14334 0.0
H1614 H 0.12013 0.71276 0.1054 0.0
S1615 S 0.154 0.61387 0.17671 0.0
N1616 N 0.12428 0.63081 0.18823 0.0
N1617 N 0.1656 0.63284 0.14747 0.0
C1618 C 0.14504 0.65432 0.14584 0.0
C1619 C 0.12262 0.65327 0.16806 0.0
C1620 C 0.38043 0.98598 0.92423 0.0
C1621 C 0.39411 0.98441 0.89637 0.0
C1622 C 0.37997 0.96182 0.94412 0.0
C1623 C 0.3932 0.93501 0.93707 0.0
H1624 H 0.3702 1.0062 0.93098 0.0
H1625 H 0.36949 0.96433 0.96536 0.0
S1626 S 0.43154 0.91888 0.86695 0.0
N1627 N 0.42087 0.95336 0.86274 0.0
N1628 N 0.42002 0.90809 0.90001 0.0
C1629 C 0.40659 0.9329 0.90916 0.0
C1630 C 0.40704 0.95752 0.88886 0.0
C1631 C 0.10487 0.38288 0.96155 0.0
C1632 C 0.12207 0.40849 0.96631 0.0
C1633 C 0.08366 0.38197 0.93865 0.0
C1634 C 0.07892 0.40673 0.92008 0.0
H1635 H 0.1089 0.36304 0.97451 0.0
H1636 H 0.07214 0.36141 0.93449 0.0
S1637 S 0.11419 0.48061 0.92739 0.0
N1638 N 0.13015 0.46003 0.95302 0.0
N1639 N 0.09033 0.45863 0.91093 0.0
C1640 C 0.09449 0.43295 0.92626 0.0
C1641 C 0.11607 0.43375 0.9491 0.0
C1642 C 0.65615 0.17052 0.93172 0.0
C1643 C 0.66792 0.16504 0.95998 0.0
C1644 C 0.65695 0.14911 0.90971 0.0
C1645 C 0.66944 0.12125 0.91507 0.0
H1646 H 0.64582 0.19141 0.92663 0.0
H1647 H 0.64717 0.15427 0.88848 0.0
S1648 S 0.70372 0.09588 0.98521 0.0
N1649 N 0.69299 0.12976 0.99189 0.0
N1650 N 0.69432 0.08957 0.95071 0.0
C1651 C 0.68175 0.11565 0.94306 0.0
C1652 C 0.68103 0.13751 0.96545 0.0
C1653 C 0.92895 0.68443 0.90594 0.0
C1654 C 0.95803 0.67761 0.91394 0.0
C1655 C 0.90733 0.68953 0.92737 0.0
C1656 C 0.91358 0.68708 0.95778 0.0
H1657 H 0.92284 0.68599 0.88289 0.0
H1658 H 0.88524 0.69441 0.9199 0.0
S1659 S 0.9865 0.6704 0.99045 0.0
N1660 N 0.99228 0.66988 0.95451 0.0
N1661 N 0.95125 0.67798 0.99469 0.0
C1662 C 0.94263 0.68053 0.9661 0.0
C1663 C 0.96492 0.67618 0.94424 0.0
C1664 C 0.12508 0.3858 0.1062 0.0
C1665 C 0.15262 0.39972 0.11056 0.0
C1666 C 0.10311 0.38583 0.12795 0.0
C1667 C 0.10768 0.39996 0.15489 0.0
H1668 H 0.12013 0.37527 0.08553 0.0
H1669 H 0.08211 0.37532 0.12327 0.0
S1670 S 0.17629 0.43846 0.17809 0.0
N1671 N 0.1836 0.427 0.14459 0.0
N1672 N 0.14225 0.42721 0.18534 0.0
C1673 C 0.13538 0.41323 0.15998 0.0
C1674 C 0.15787 0.41304 0.13787 0.0
C1675 C 0.15351 0.66478 0.94619 0.0
C1676 C 0.14883 0.67718 0.97398 0.0
C1677 C 0.13107 0.66306 0.92533 0.0
C1678 C 0.10284 0.67382 0.93104 0.0
H1679 H 0.17474 0.65595 0.94033 0.0
H1680 H 0.13605 0.65309 0.90443 0.0
S1681 S 0.07862 0.70869 1.00002 0.0
N1682 N 0.11355 0.70067 1.00609 0.0
N1683 N 0.07112 0.69761 0.96631 0.0
C1684 C 0.09764 0.68668 0.95848 0.0
C1685 C 0.12068 0.68829 0.98008 0.0
C1686 C 0.37798 0.14827 0.98034 0.0
C1687 C 0.39296 0.17582 0.97888 0.0
C1688 C 0.38079 0.12719 0.95796 0.0
C1689 C 0.39894 0.13256 0.93321 0.0
H1690 H 0.36389 0.14288 0.99899 0.0
H1691 H 0.36858 0.10659 0.96005 0.0
S1692 S 0.44439 0.20007 0.91937 0.0
N1693 N 0.42746 0.20651 0.95074 0.0
N1694 N 0.43292 0.16718 0.90921 0.0
C1695 C 0.41428 0.15981 0.93167 0.0
C1696 C 0.41125 0.18132 0.95428 0.0
C1697 C 0.94279 0.37664 0.93242 0.0
C1698 C 0.93831 0.39323 0.90628 0.0
C1699 C 0.9238 0.37907 0.95674 0.0
C1700 C 0.89952 0.39804 0.95581 0.0
H1701 H 0.96179 0.36257 0.9346 0.0
H1702 H 0.92872 0.36661 0.97671 0.0
S1703 S 0.87664 0.44442 0.89168 0.0
N1704 N 0.9067 0.42793 0.88035 0.0
N1705 N 0.87098 0.43229 0.92579 0.0
C1706 C 0.89401 0.41369 0.92932 0.0
C1707 C 0.9134 0.41132 0.90463 0.0
C1708 C 0.67721 0.94497 0.90591 0.0
C1709 C 0.67442 0.97483 0.9135 0.0
C1710 C 0.67493 0.92198 0.92708 0.0
C1711 C 0.67044 0.92749 0.95718 0.0
H1712 H 0.68016 0.93905 0.8831 0.0
H1713 H 0.67644 0.8995 0.91961 0.0
S1714 S 0.66347 1.0017 0.98947 0.0
N1715 N 0.66777 1.00863 0.95381 0.0
N1716 N 0.66454 0.96544 0.99374 0.0
C1717 C 0.66874 0.95727 0.96543 0.0
C1718 C 0.67041 0.98084 0.94362 0.0
C1719 C 0.92691 0.65878 0.14447 0.0
C1720 C 0.95312 0.67557 0.143 0.0
C1721 C 0.90454 0.66238 0.12357 0.0
C1722 C 0.9077 0.68243 0.09976 0.0
H1723 H 0.9237 0.64235 0.16179 0.0
H1724 H 0.88489 0.64868 0.12576 0.0
S1725 S 0.97273 0.73079 0.08467 0.0
N1726 N 0.98131 0.71277 0.11543 0.0
N1727 N 0.93957 0.71881 0.07528 0.0
C1728 C 0.93404 0.69907 0.09755 0.0
C1729 C 0.95673 0.69574 0.11929 0.0
C1730 C 0.40892 0.93016 0.13338 0.0
C1731 C 0.39523 0.95767 0.12993 0.0
C1732 C 0.4089 0.90969 0.11086 0.0
C1733 C 0.39522 0.91567 0.08367 0.0
H1734 H 0.41967 0.92408 0.15389 0.0
H1735 H 0.41965 0.88884 0.11504 0.0
S1736 S 0.35692 0.98493 0.06286 0.0
N1737 N 0.36806 0.99027 0.09704 0.0
N1738 N 0.36804 0.95163 0.0542 0.0
C1739 C 0.38171 0.94331 0.07959 0.0
C1740 C 0.38172 0.96434 0.10282 0.0
C1741 C 0.66994 0.13906 0.09834 0.0
C1742 C 0.66779 0.16824 0.10817 0.0
C1743 C 0.66919 0.11489 0.11842 0.0
C1744 C 0.66604 0.11913 0.14893 0.0
H1745 H 0.67115 0.1348 0.07496 0.0
H1746 H 0.67 0.09276 0.10993 0.0
S1747 S 0.66483 0.191 0.18632 0.0
N1748 N 0.66631 0.19982 0.15088 0.0
N1749 N 0.66426 0.15465 0.18814 0.0
C1750 C 0.66543 0.14815 0.15905 0.0
C1751 C 0.66647 0.17263 0.1388 0.0
C1752 C 0.6161 0.66001 0.89903 0.0
C1753 C 0.58858 0.65399 0.88594 0.0
C1754 C 0.63855 0.63876 0.89998 0.0
C1755 C 0.63455 0.61058 0.88784 0.0
H1756 H 0.62021 0.68111 0.90912 0.0
H1757 H 0.65915 0.64442 0.91065 0.0
S1758 S 0.5672 0.58378 0.85001 0.0
N1759 N 0.55914 0.61761 0.85973 0.0
N1760 N 0.60116 0.57815 0.86164 0.0
C1761 C 0.60742 0.60444 0.87421 0.0
C1762 C 0.58455 0.62598 0.87324 0.0
C1763 C 0.42467 0.5771 0.87747 0.0
C1764 C 0.39551 0.58325 0.88589 0.0
C1765 C 0.44703 0.5988 0.87894 0.0
C1766 C 0.44085 0.62715 0.88901 0.0
H1767 H 0.43043 0.55522 0.87046 0.0
H1768 H 0.46932 0.59317 0.87289 0.0
S1769 S 0.36744 0.65529 0.91038 0.0
N1770 N 0.36138 0.62047 0.9023 0.0
N1771 N 0.40301 0.66089 0.90503 0.0
C1772 C 0.41156 0.63378 0.89633 0.0
C1773 C 0.38897 0.61191 0.89477 0.0
C1774 C 0.41332 0.41153 0.90574 0.0
C1775 C 0.41761 0.43915 0.8917 0.0
C1776 C 0.4355 0.3904 0.90653 0.0
C1777 C 0.46318 0.39579 0.89333 0.0
H1778 H 0.39256 0.40607 0.91639 0.0
H1779 H 0.43082 0.36964 0.91786 0.0
S1780 S 0.48595 0.46486 0.85382 0.0
N1781 N 0.45174 0.47101 0.86429 0.0
N1782 N 0.49369 0.43118 0.86576 0.0
C1783 C 0.46792 0.4234 0.87917 0.0
C1784 C 0.4451 0.44506 0.87833 0.0
C1785 C 0.60705 0.43855 0.87867 0.0
C1786 C 0.61298 0.41123 0.89265 0.0
C1787 C 0.62834 0.46155 0.8776 0.0
C1788 C 0.65653 0.45803 0.89016 0.0
H1789 H 0.58562 0.4424 0.86893 0.0
H1790 H 0.62255 0.48231 0.86708 0.0
S1791 S 0.68312 0.39045 0.92915 0.0
N1792 N 0.64917 0.38197 0.91913 0.0
N1793 N 0.68898 0.42453 0.91698 0.0
C1794 C 0.66276 0.43053 0.9038 0.0
C1795 C 0.64108 0.40736 0.90508 0.0
C1796 C 0.58969 0.41902 0.17734 0.0
C1797 C 0.59509 0.39083 0.16587 0.0
C1798 C 0.61107 0.44176 0.17629 0.0
C1799 C 0.63891 0.43751 0.16368 0.0
H1800 H 0.56852 0.42383 0.18701 0.0
H1801 H 0.60552 0.46299 0.18513 0.0
S1802 S 0.66506 0.36777 0.13143 0.0
N1803 N 0.63103 0.35991 0.14219 0.0
N1804 N 0.67115 0.40252 0.14013 0.0
C1805 C 0.64493 0.40933 0.15256 0.0
C1806 C 0.6231 0.38607 0.1537 0.0
C1807 C 0.60099 0.61178 0.1749 0.0
C1808 C 0.60691 0.64033 0.16329 0.0
C1809 C 0.62229 0.58935 0.17404 0.0
C1810 C 0.65038 0.59467 0.16164 0.0
H1811 H 0.5795 0.60649 0.1841 0.0
H1812 H 0.61655 0.56766 0.18281 0.0
S1813 S 0.67727 0.66646 0.12969 0.0
N1814 N 0.64317 0.67293 0.14005 0.0
N1815 N 0.68304 0.63157 0.13851 0.0
C1816 C 0.65666 0.6235 0.15063 0.0
C1817 C 0.635 0.64609 0.15143 0.0
C1818 C 0.4249 0.61002 0.19616 0.0
C1819 C 0.42439 0.58675 0.17594 0.0
C1820 C 0.44771 0.63143 0.19609 0.0
C1821 C 0.4713 0.63054 0.17595 0.0
H1822 H 0.40678 0.61261 0.21139 0.0
H1823 H 0.44614 0.64952 0.21122 0.0
S1824 S 0.4823 0.57244 0.12046 0.0
N1825 N 0.45092 0.56296 0.13669 0.0
N1826 N 0.49381 0.60274 0.13672 0.0
C1827 C 0.47198 0.6064 0.15675 0.0
C1828 C 0.44859 0.58469 0.15671 0.0
C1829 C 0.42714 0.45832 0.18111 0.0
C1830 C 0.40042 0.45454 0.16577 0.0
C1831 C 0.45004 0.438 0.17857 0.0
C1832 C 0.44701 0.41338 0.16046 0.0
H1833 H 0.43064 0.47743 0.19469 0.0
H1834 H 0.47024 0.44168 0.19074 0.0
S1835 S 0.38117 0.39322 0.11608 0.0
N1836 N 0.37201 0.42393 0.13247 0.0
N1837 N 0.41502 0.3862 0.12716 0.0
C1838 C 0.42025 0.40924 0.14525 0.0
C1839 C 0.39692 0.42968 0.1481 0.0
C1840 C 0.86744 0.61241 0.64195 0.0
C1841 C 0.87931 0.58449 0.6364 0.0
C1842 C 0.87107 0.63612 0.62188 0.0
C1843 C 0.88611 0.63284 0.59507 0.0
H1844 H 0.85652 0.61652 0.66267 0.0
H1845 H 0.86246 0.65739 0.62774 0.0
S1846 S 0.91875 0.56371 0.5684 0.0
N1847 N 0.9052 0.55456 0.60116 0.0
N1848 N 0.91111 0.59892 0.563 0.0
C1849 C 0.89664 0.6047 0.58841 0.0
C1850 C 0.89344 0.58061 0.60915 0.0
C1851 C 0.40354 0.87777 0.62685 0.0
C1852 C 0.41059 0.88737 0.59795 0.0
C1853 C 0.42509 0.87615 0.64909 0.0
C1854 C 0.45485 0.88345 0.64337 0.0
H1855 H 0.38089 0.87271 0.63279 0.0
H1856 H 0.41818 0.86971 0.67117 0.0
S1857 S 0.48543 0.90743 0.5707 0.0
N1858 N 0.44982 0.90283 0.56445 0.0
N1859 N 0.49044 0.899 0.60591 0.0
C1860 C 0.46248 0.89168 0.61419 0.0
C1861 C 0.44037 0.89387 0.59162 0.0
C1862 C 0.15166 0.41628 0.63186 0.0
C1863 C 0.16472 0.4221 0.60426 0.0
C1864 C 0.1518 0.4375 0.6539 0.0
C1865 C 0.1649 0.46556 0.64928 0.0
H1866 H 0.14067 0.39532 0.63634 0.0
H1867 H 0.14106 0.4319 0.67462 0.0
S1868 S 0.2029 0.49158 0.58097 0.0
N1869 N 0.19187 0.45767 0.57362 0.0
N1870 N 0.19207 0.49765 0.61504 0.0
C1871 C 0.1787 0.47146 0.62197 0.0
C1872 C 0.17863 0.44971 0.59949 0.0
C1873 C 0.59383 0.17408 0.62991 0.0
C1874 C 0.59973 0.16554 0.65932 0.0
C1875 C 0.61586 0.17378 0.60812 0.0
C1876 C 0.64461 0.16443 0.61467 0.0
H1877 H 0.57186 0.18071 0.6235 0.0
H1878 H 0.61005 0.18018 0.58576 0.0
S1879 S 0.67211 0.14097 0.68836 0.0
N1880 N 0.6371 0.14862 0.69397 0.0
N1881 N 0.67814 0.14742 0.65291 0.0
C1882 C 0.65104 0.15637 0.64404 0.0
C1883 C 0.62873 0.15712 0.66638 0.0
C1884 C 0.89186 0.42118 0.41806 0.0
C1885 C 0.87959 0.42652 0.44594 0.0
C1886 C 0.89114 0.44246 0.39522 0.0
C1887 C 0.87846 0.47019 0.3994 0.0
H1888 H 0.90247 0.40042 0.41386 0.0
H1889 H 0.9014 0.43736 0.3744 0.0
S1890 S 0.84202 0.49469 0.46798 0.0
N1891 N 0.85322 0.46101 0.47613 0.0
N1892 N 0.85213 0.50132 0.43348 0.0
C1893 C 0.8654 0.47555 0.42702 0.0
C1894 C 0.86589 0.45366 0.4502 0.0
C1895 C 0.62036 0.89933 0.39445 0.0
C1896 C 0.59352 0.88385 0.39849 0.0
C1897 C 0.64113 0.90154 0.41722 0.0
C1898 C 0.63649 0.88796 0.44498 0.0
H1899 H 0.62517 0.91062 0.37373 0.0
H1900 H 0.66087 0.91448 0.41308 0.0
S1901 S 0.57014 0.84443 0.46733 0.0
N1902 N 0.56344 0.85458 0.43283 0.0
N1903 N 0.60299 0.85821 0.47531 0.0
C1904 C 0.60999 0.87201 0.44937 0.0
C1905 C 0.58847 0.87006 0.42623 0.0
C1906 C 0.18134 0.60631 0.4261 0.0
C1907 C 0.16683 0.61093 0.39896 0.0
C1908 C 0.18098 0.62768 0.44817 0.0
C1909 C 0.16598 0.65435 0.44393 0.0
H1910 H 0.19242 0.58572 0.43065 0.0
H1911 H 0.19193 0.62297 0.46891 0.0
S1912 S 0.1261 0.67796 0.3761 0.0
N1913 N 0.13831 0.64482 0.36862 0.0
N1914 N 0.13749 0.68477 0.40987 0.0
C1915 C 0.15215 0.65957 0.41654 0.0
C1916 C 0.15262 0.63791 0.39411 0.0
C1917 C 0.41927 0.18477 0.40276 0.0
C1918 C 0.44907 0.18312 0.41159 0.0
C1919 C 0.3963 0.18716 0.42338 0.0
C1920 C 0.40187 0.18823 0.45385 0.0
H1921 H 0.41342 0.18318 0.37974 0.0
H1922 H 0.37381 0.18729 0.41528 0.0
S1923 S 0.47607 0.18694 0.48865 0.0
N1924 N 0.48288 0.18437 0.45305 0.0
N1925 N 0.43991 0.18912 0.49169 0.0
C1926 C 0.43167 0.18793 0.46297 0.0
C1927 C 0.4551 0.1853 0.44189 0.0
C1928 C 0.63241 0.89181 0.64404 0.0
C1929 C 0.60293 0.88527 0.63682 0.0
C1930 C 0.65498 0.89083 0.62283 0.0
C1931 C 0.64905 0.88358 0.59331 0.0
H1932 H 0.63814 0.89807 0.66626 0.0
H1933 H 0.67716 0.89667 0.62955 0.0
S1934 S 0.57544 0.86378 0.56315 0.0
N1935 N 0.56907 0.87039 0.59823 0.0
N1936 N 0.61122 0.86893 0.55831 0.0
C1937 C 0.61965 0.87644 0.58593 0.0
C1938 C 0.5967 0.87718 0.60766 0.0
C1939 C 0.59021 0.15676 0.458 0.0
C1940 C 0.59325 0.17251 0.43108 0.0
C1941 C 0.61179 0.15864 0.48017 0.0
C1942 C 0.63704 0.17668 0.47645 0.0
H1943 H 0.57155 0.14199 0.46158 0.0
H1944 H 0.60915 0.14503 0.4999 0.0
S1945 S 0.6535 0.22516 0.41123 0.0
N1946 N 0.62229 0.20828 0.40275 0.0
N1947 N 0.66216 0.21288 0.44455 0.0
C1948 C 0.63933 0.19393 0.45026 0.0
C1949 C 0.61765 0.19154 0.42753 0.0
C1950 C 0.89513 0.61363 0.44259 0.0
C1951 C 0.8847 0.61833 0.41371 0.0
C1952 C 0.89519 0.63641 0.46326 0.0
C1953 C 0.88504 0.66486 0.45582 0.0
H1954 H 0.90385 0.59237 0.44914 0.0
H1955 H 0.90399 0.63191 0.48506 0.0
S1956 S 0.851 0.68721 0.38481 0.0
N1957 N 0.86105 0.65281 0.37982 0.0
N1958 N 0.86119 0.69534 0.4187 0.0
C1959 C 0.87351 0.66952 0.42746 0.0
C1960 C 0.87331 0.64632 0.40643 0.0
C1961 C 0.43146 0.88527 0.4631 0.0
C1962 C 0.40818 0.90526 0.45995 0.0
C1963 C 0.45171 0.88139 0.44018 0.0
C1964 C 0.44916 0.89739 0.41351 0.0
H1965 H 0.43402 0.87251 0.48335 0.0
H1966 H 0.4694 0.86584 0.44334 0.0
S1967 S 0.39321 0.95399 0.39519 0.0
N1968 N 0.38443 0.94204 0.42866 0.0
N1969 N 0.42243 0.93505 0.38583 0.0
C1970 C 0.42616 0.91772 0.41032 0.0
C1971 C 0.40564 0.92159 0.43351 0.0
C1972 C 0.1935 0.4522 0.41996 0.0
C1973 C 0.17577 0.47749 0.41969 0.0
C1974 C 0.19326 0.432 0.44395 0.0
C1975 C 0.17523 0.43606 0.46884 0.0
H1976 H 0.20669 0.44713 0.40086 0.0
H1977 H 0.20621 0.41223 0.44222 0.0
S1978 S 0.12747 0.50053 0.48098 0.0
N1979 N 0.14183 0.50685 0.44797 0.0
N1980 N 0.1413 0.46895 0.49281 0.0
C1981 C 0.15883 0.46219 0.46969 0.0
C1982 C 0.15911 0.48283 0.44524 0.0
C1983 C 0.40221 0.16667 0.62561 0.0
C1984 C 0.40874 0.18004 0.59814 0.0
C1985 C 0.42433 0.16119 0.64634 0.0
C1986 C 0.45387 0.16901 0.64059 0.0
H1987 H 0.37989 0.1597 0.63096 0.0
H1988 H 0.41819 0.15041 0.66698 0.0
S1989 S 0.48255 0.20535 0.57232 0.0
N1990 N 0.44682 0.20148 0.56635 0.0
N1991 N 0.48851 0.19142 0.60567 0.0
C1992 C 0.46074 0.18286 0.61342 0.0
C1993 C 0.43813 0.18835 0.59213 0.0
C1994 C 0.87277 0.43152 0.59693 0.0
C1995 C 0.88575 0.4037 0.60101 0.0
C1996 C 0.87273 0.4523 0.61958 0.0
C1997 C 0.88575 0.44615 0.64718 0.0
H1998 H 0.86292 0.43751 0.57595 0.0
H1999 H 0.86308 0.47365 0.61514 0.0
S2000 S 0.92142 0.37622 0.66995 0.0
N2001 N 0.91098 0.37085 0.63561 0.0
N2002 N 0.91096 0.4099 0.6777 0.0
C2003 C 0.89815 0.41825 0.65182 0.0
C2004 C 0.89814 0.39705 0.62889 0.0
C2005 C 0.17313 0.61179 0.60796 0.0
C2006 C 0.16816 0.61711 0.638 0.0
C2007 C 0.17291 0.63498 0.58675 0.0
C2008 C 0.16778 0.66439 0.59478 0.0
H2009 H 0.17645 0.58948 0.60066 0.0
H2010 H 0.1761 0.62968 0.5638 0.0
S2011 S 0.15719 0.6903 0.67118 0.0
N2012 N 0.16028 0.65424 0.67494 0.0
N2013 N 0.16022 0.69754 0.63552 0.0
C2014 C 0.16398 0.67001 0.62496 0.0
C2015 C 0.16408 0.64647 0.64642 0.0
C2016 C 0.12434 0.32143 0.38189 0.0
C2017 C 0.09507 0.32103 0.39207 0.0
C2018 C 0.14227 0.34592 0.3875 0.0
C2019 C 0.1314 0.36704 0.40667 0.0
H2020 H 0.1343 0.30181 0.37327 0.0
H2021 H 0.16582 0.34388 0.38441 0.0
S2022 S 0.05357 0.3846 0.41909 0.0
N2023 N 0.05323 0.35072 0.40639 0.0
N2024 N 0.08835 0.39583 0.41804 0.0
C2025 C 0.10106 0.37202 0.40585 0.0
C2026 C 0.08229 0.34763 0.40015 0.0
C2027 C 0.70496 0.12684 0.41556 0.0
C2028 C 0.72066 0.15369 0.41651 0.0
C2029 C 0.71569 0.10436 0.39822 0.0
C2030 C 0.74151 0.10967 0.38203 0.0
H2031 H 0.68912 0.12105 0.43268 0.0
H2032 H 0.70777 0.08205 0.4024 0.0
S2033 S 0.77535 0.18189 0.36272 0.0
N2034 N 0.7525 0.18841 0.39013 0.0
N2035 N 0.77096 0.14659 0.35521 0.0
C2036 C 0.74945 0.13894 0.37486 0.0
C2037 C 0.73951 0.16139 0.39338 0.0
C2038 C 0.91048 0.84715 0.40161 0.0
C2039 C 0.92119 0.82556 0.38267 0.0
C2040 C 0.90321 0.83841 0.43062 0.0
C2041 C 0.90112 0.80819 0.4375 0.0
H2042 H 0.9158 0.87009 0.39714 0.0
H2043 H 0.90278 0.85464 0.4478 0.0
S2044 S 0.90096 0.74726 0.38443 0.0
N2045 N 0.91123 0.77673 0.36494 0.0
N2046 N 0.89406 0.75881 0.41804 0.0
C2047 C 0.89954 0.78814 0.41422 0.0
C2048 C 0.90827 0.79773 0.38559 0.0
C2049 C 0.21136 0.92727 0.47355 0.0
C2050 C 0.21734 0.91778 0.44478 0.0
C2051 C 0.23255 0.92398 0.49577 0.0
C2052 C 0.25914 0.90998 0.48972 0.0
H2053 H 0.1931 0.94182 0.47754 0.0
H2054 H 0.22936 0.93477 0.51658 0.0
S2055 S 0.27655 0.86819 0.42224 0.0
N2056 N 0.24506 0.88451 0.41483 0.0
N2057 N 0.28499 0.87743 0.45624 0.0
C2058 C 0.26153 0.89429 0.46323 0.0
C2059 C 0.23993 0.89774 0.44094 0.0
C2060 C 0.09966 0.73737 0.64039 0.0
C2061 C 0.10589 0.75104 0.66703 0.0
C2062 C 0.10914 0.75205 0.61469 0.0
C2063 C 0.13003 0.77549 0.61632 0.0
H2064 H 0.08148 0.72174 0.63895 0.0
H2065 H 0.09988 0.74525 0.59389 0.0
S2066 S 0.17408 0.79272 0.68258 0.0
N2067 N 0.14747 0.77032 0.69467 0.0
N2068 N 0.16898 0.79683 0.64664 0.0
C2069 C 0.14486 0.77922 0.64318 0.0
C2070 C 0.13379 0.76446 0.66881 0.0
C2071 C 0.24149 0.14382 0.60842 0.0
C2072 C 0.26228 0.14084 0.63108 0.0
C2073 C 0.2451 0.16589 0.58705 0.0
C2074 C 0.27033 0.18388 0.58776 0.0
H2075 H 0.22434 0.12729 0.60556 0.0
H2076 H 0.23161 0.16502 0.56737 0.0
S2077 S 0.32136 0.19336 0.65069 0.0
N2078 N 0.30155 0.16357 0.65923 0.0
N2079 N 0.30823 0.20587 0.61891 0.0
C2080 C 0.28613 0.18597 0.61436 0.0
C2081 C 0.28269 0.16332 0.63599 0.0
C2082 C 0.89372 0.24174 0.65805 0.0
C2083 C 0.91184 0.21881 0.64921 0.0
C2084 C 0.87899 0.25817 0.63656 0.0
C2085 C 0.88236 0.25101 0.60676 0.0
H2086 H 0.89613 0.2509 0.67981 0.0
H2087 H 0.8697 0.27904 0.64278 0.0
S2088 S 0.91091 0.18155 0.5776 0.0
N2089 N 0.91919 0.18062 0.61307 0.0
N2090 N 0.89273 0.21247 0.5719 0.0
C2091 C 0.89232 0.223 0.59972 0.0
C2092 C 0.90639 0.20591 0.62185 0.0
C2093 C 0.7676 0.01667 0.60277 0.0
C2094 C 0.76545 0.0153 0.63357 0.0
C2095 C 0.76881 0.99085 0.58688 0.0
C2096 C 0.76596 0.96318 0.60112 0.0
H2097 H 0.77261 0.03731 0.59129 0.0
H2098 H 0.77251 0.99273 0.56332 0.0
S2099 S 0.74881 0.94927 0.68004 0.0
N2100 N 0.75305 0.98542 0.67686 0.0
N2101 N 0.75369 0.9364 0.64661 0.0
C2102 C 0.75887 0.96194 0.63121 0.0
C2103 C 0.75815 0.9883 0.64743 0.0
C2104 C 0.39684 0.0673 0.34422 0.0
C2105 C 0.40949 0.04269 0.33131 0.0
C2106 C 0.40874 0.09521 0.33735 0.0
C2107 C 0.43472 0.0976 0.32045 0.0
H2108 H 0.3749 0.06567 0.35354 0.0
H2109 H 0.39699 0.11469 0.34385 0.0
S2110 S 0.482 0.03553 0.29856 0.0
N2111 N 0.4545 0.01988 0.31678 0.0
N2112 N 0.47672 0.07137 0.30016 0.0
C2113 C 0.4512 0.07189 0.31578 0.0
C2114 C 0.43951 0.04412 0.32515 0.0
C2115 C 0.90109 0.42054 0.22088 0.0
C2116 C 0.90886 0.39758 0.24043 0.0
C2117 C 0.88923 0.44605 0.23243 0.0
C2118 C 0.88202 0.44661 0.26241 0.0
H2119 H 0.91085 0.42203 0.19908 0.0
H2120 H 0.88936 0.46613 0.21909 0.0
S2121 S 0.88049 0.38371 0.3155 0.0
N2122 N 0.89693 0.37122 0.28583 0.0
N2123 N 0.87096 0.41788 0.30713 0.0
C2124 C 0.88051 0.42006 0.27876 0.0
C2125 C 0.89416 0.39492 0.26732 0.0
C2126 C 0.65748 0.92793 0.30868 0.0
C2127 C 0.67554 0.92934 0.28377 0.0
C2128 C 0.62736 0.92384 0.30362 0.0
C2129 C 0.61743 0.91425 0.2758 0.0
H2130 H 0.66433 0.9387 0.3287 0.0
H2131 H 0.61206 0.92983 0.32068 0.0
S2132 S 0.66499 0.88425 0.21782 0.0
N2133 N 0.68796 0.90031 0.24107 0.0
N2134 N 0.63147 0.88855 0.23133 0.0
C2135 C 0.63825 0.90324 0.25625 0.0
C2136 C 0.66854 0.90904 0.2618 0.0
C2137 C 0.07789 0.57654 0.27655 0.0
C2138 C 0.09147 0.60424 0.28065 0.0
C2139 C 0.09359 0.5534 0.26476 0.0
C2140 C 0.12381 0.55692 0.25929 0.0
H2141 H 0.05529 0.57235 0.28325 0.0
H2142 H 0.0835 0.5316 0.26553 0.0
S2143 S 0.16629 0.62662 0.25452 0.0
N2144 N 0.13456 0.63545 0.26954 0.0
N2145 N 0.16323 0.5913 0.24677 0.0
C2146 C 0.13509 0.58562 0.2557 0.0
C2147 C 0.11981 0.6092 0.2686 0.0
C2148 C 0.46568 1.00915 0.76003 0.0
C2149 C 0.43852 0.01642 0.74742 0.0
C2150 C 0.47139 0.98006 0.7678 0.0
C2151 C 0.45164 0.95727 0.76017 0.0
H2152 H 0.4802 0.02613 0.76859 0.0
H2153 H 0.49145 0.97558 0.77992 0.0
S2154 S 0.3845 0.96539 0.71418 0.0
N2155 N 0.39669 0.99943 0.71894 0.0
N2156 N 0.40806 0.9438 0.73164 0.0
C2157 C 0.42739 0.96419 0.74212 0.0
C2158 C 0.42154 0.99403 0.73477 0.0
C2159 C 0.15304 0.3839 0.79155 0.0
C2160 C 0.14086 0.38788 0.81945 0.0
C2161 C 0.16471 0.40848 0.77658 0.0
C2162 C 0.16586 0.43581 0.79076 0.0
H2163 H 0.14679 0.3648 0.77889 0.0
H2164 H 0.16841 0.40699 0.75306 0.0
S2165 S 0.15906 0.44733 0.87074 0.0
N2166 N 0.14753 0.41305 0.86576 0.0
N2167 N 0.16877 0.46045 0.83785 0.0
C2168 C 0.16347 0.43625 0.82143 0.0
C2169 C 0.15248 0.41074 0.83638 0.0
C2170 C 0.64444 0.08234 0.74143 0.0
C2171 C 0.66789 0.08782 0.76056 0.0
C2172 C 0.61849 0.09741 0.74682 0.0
C2173 C 0.61895 0.12125 0.76638 0.0
H2174 H 0.64319 0.06189 0.72952 0.0
H2175 H 0.59824 0.08997 0.73662 0.0
S2176 S 0.68594 0.15999 0.7921 0.0
N2177 N 0.69772 0.12873 0.7784 0.0
N2178 N 0.64975 0.15982 0.78769 0.0
C2179 C 0.6462 0.13364 0.77404 0.0
C2180 C 0.67185 0.11728 0.76856 0.0
C2181 C 0.91773 0.67328 0.76501 0.0
C2182 C 0.94779 0.67088 0.7582 0.0
C2183 C 0.89673 0.66244 0.74551 0.0
C2184 C 0.90637 0.64763 0.72057 0.0
H2185 H 0.91064 0.67932 0.78686 0.0
H2186 H 0.87436 0.65922 0.75344 0.0
S2187 S 0.97968 0.65361 0.68578 0.0
N2188 N 0.98425 0.66664 0.71925 0.0
N2189 N 0.94416 0.64579 0.68275 0.0
C2190 C 0.93444 0.65463 0.70944 0.0
C2191 C 0.95601 0.66546 0.72912 0.0
C2192 C 0.24781 0.48288 0.11672 0.0
C2193 C 0.26188 0.4847 0.08896 0.0
C2194 C 0.24207 0.50841 0.13217 0.0
C2195 C 0.25513 0.53484 0.12216 0.0
H2196 H 0.24207 0.46186 0.12704 0.0
H2197 H 0.23476 0.50612 0.15485 0.0
S2198 S 0.27597 0.55331 0.04546 0.0
N2199 N 0.27306 0.51699 0.04669 0.0
N2200 N 0.26717 0.56447 0.07869 0.0
C2201 C 0.26063 0.53809 0.09201 0.0
C2202 C 0.26495 0.51256 0.07523 0.0
C2203 C 0.27324 0.65194 0.92062 0.0
C2204 C 0.28859 0.65372 0.94746 0.0
C2205 C 0.26462 0.62448 0.90986 0.0
C2206 C 0.27099 0.59849 0.92584 0.0
H2207 H 0.26468 0.67168 0.91008 0.0
H2208 H 0.25253 0.62353 0.88929 0.0
S2209 S 0.31615 0.59294 0.99352 0.0
N2210 N 0.31748 0.62803 0.98426 0.0
N2211 N 0.29606 0.57675 0.96824 0.0
C2212 C 0.28889 0.60037 0.95097 0.0
C2213 C 0.30028 0.62797 0.95974 0.0
C2214 C 0.45718 0.29064 0.98821 0.0
C2215 C 0.43137 0.30734 0.98771 0.0
C2216 C 0.46533 0.27462 0.96405 0.0
C2217 C 0.44955 0.27648 0.93741 0.0
H2218 H 0.46988 0.28763 1.00825 0.0
H2219 H 0.48535 0.26208 0.96596 0.0
S2220 S 0.3825 0.32055 0.92354 0.0
N2221 N 0.39127 0.32705 0.95815 0.0
N2222 N 0.40761 0.29765 0.91152 0.0
C2223 C 0.42446 0.29433 0.93611 0.0
C2224 C 0.41591 0.3105 0.96105 0.0
C2225 C 0.75324 0.4294 0.99938 0.0
C2226 C 0.76233 0.44294 0.0254 0.0
C2227 C 0.7588 0.44361 0.97247 0.0
C2228 C 0.76981 0.47278 0.97153 0.0
H2229 H 0.74821 0.40597 0.99943 0.0
H2230 H 0.75511 0.43141 0.95249 0.0
S2231 S 0.77612 0.52232 0.03532 0.0
N2232 N 0.76875 0.48949 0.04996 0.0
N2233 N 0.77715 0.51784 0.99933 0.0
C2234 C 0.77097 0.48852 0.99791 0.0
C2235 C 0.7659 0.47351 0.02509 0.0
C2236 C 0.60874 0.82025 0.91095 0.0
C2237 C 0.60902 0.8064 0.93902 0.0
C2238 C 0.58206 0.82775 0.89774 0.0
C2239 C 0.55587 0.81788 0.91106 0.0
H2240 H 0.62906 0.82471 0.89903 0.0
H2241 H 0.58214 0.83482 0.87478 0.0
S2242 S 0.54399 0.79433 0.98812 0.0
N2243 N 0.57994 0.79312 0.98303 0.0
N2244 N 0.53054 0.80824 0.95717 0.0
C2245 C 0.55578 0.81302 0.94148 0.0
C2246 C 0.58235 0.8043 0.95509 0.0
C2247 C 0.76417 0.61478 0.05375 0.0
C2248 C 0.76377 0.64527 0.05784 0.0
C2249 C 0.77051 0.5961 0.0773 0.0
C2250 C 0.77343 0.60697 0.10594 0.0
H2251 H 0.76436 0.60563 0.03185 0.0
H2252 H 0.77296 0.57293 0.0729 0.0
S2253 S 0.7612 0.68376 0.12889 0.0
N2254 N 0.75805 0.68479 0.09263 0.0
N2255 N 0.76788 0.64903 0.13792 0.0
C2256 C 0.76764 0.63676 0.11083 0.0
C2257 C 0.76195 0.6559 0.08657 0.0
C2258 C 0.39973 0.73193 0.09053 0.0
C2259 C 0.39276 0.76079 0.09829 0.0
C2260 C 0.40647 0.71125 0.1126 0.0
C2261 C 0.40956 0.72087 0.14169 0.0
H2262 H 0.40309 0.72628 0.06769 0.0
H2263 H 0.41608 0.69065 0.10597 0.0
S2264 S 0.37733 0.78722 0.17341 0.0
N2265 N 0.37562 0.79268 0.13734 0.0
N2266 N 0.39133 0.75406 0.1784 0.0
C2267 C 0.39419 0.7458 0.14994 0.0
C2268 C 0.38621 0.76662 0.12787 0.0
C2269 C 0.60745 0.2435 0.13048 0.0
C2270 C 0.62585 0.26582 0.14226 0.0
C2271 C 0.59183 0.22394 0.14897 0.0
C2272 C 0.58775 0.23352 0.17754 0.0
H2273 H 0.60379 0.24216 0.10733 0.0
H2274 H 0.57589 0.20908 0.13917 0.0
S2275 S 0.64583 0.26995 0.22104 0.0
N2276 N 0.65253 0.28044 0.18648 0.0
N2277 N 0.61774 0.24631 0.22009 0.0
C2278 C 0.61345 0.24524 0.19055 0.0
C2279 C 0.6317 0.26413 0.17259 0.0
C2280 C 0.94145 0.81002 0.63133 0.0
C2281 C 0.95801 0.78886 0.64702 0.0
C2282 C 0.92387 0.80189 0.60761 0.0
C2283 C 0.92132 0.77227 0.60033 0.0
H2284 H 0.94404 0.83322 0.63558 0.0
H2285 H 0.91325 0.81877 0.59432 0.0
S2286 S 0.95511 0.7083 0.6389 0.0
N2287 N 0.96836 0.73735 0.65604 0.0
N2288 N 0.93241 0.72127 0.61361 0.0
C2289 C 0.93482 0.75066 0.61828 0.0
C2290 C 0.95396 0.75915 0.64127 0.0
C2291 C 0.31505 0.981 0.66719 0.0
C2292 C 0.28597 0.97597 0.67642 0.0
C2293 C 0.33079 0.95808 0.65506 0.0
C2294 C 0.31653 0.93089 0.65056 0.0
H2295 H 0.32411 1.0032 0.66565 0.0
H2296 H 0.35137 0.96354 0.64398 0.0
S2297 S 0.24686 0.90401 0.68379 0.0
N2298 N 0.24856 0.93948 0.6913 0.0
N2299 N 0.27762 0.89694 0.66595 0.0
C2300 C 0.29094 0.92393 0.66632 0.0
C2301 C 0.27535 0.94685 0.67972 0.0
C2302 C 0.09586 0.28523 0.61519 0.0
C2303 C 0.06549 0.28279 0.60968 0.0
C2304 C 0.11604 0.28877 0.59229 0.0
C2305 C 0.1068 0.29115 0.56279 0.0
H2306 H 0.10436 0.28354 0.63747 0.0
H2307 H 0.13914 0.29098 0.598 0.0
S2308 S 0.02976 0.28482 0.53598 0.0
N2309 N 0.02701 0.28182 0.57221 0.0
N2310 N 0.06526 0.28927 0.52894 0.0
C2311 C 0.07652 0.28829 0.55669 0.0
C2312 C 0.05578 0.28439 0.58018 0.0
C2313 C 0.84305 0.14752 0.59068 0.0
C2314 C 0.8374 0.15842 0.619 0.0
C2315 C 0.82239 0.15148 0.56816 0.0
C2316 C 0.79698 0.16757 0.57359 0.0
H2317 H 0.85999 0.13126 0.58753 0.0
H2318 H 0.82445 0.13907 0.54815 0.0
S2319 S 0.78326 0.21474 0.63802 0.0
N2320 N 0.81259 0.19541 0.6471 0.0
N2321 N 0.77449 0.20486 0.60426 0.0
C2322 C 0.79609 0.18522 0.59883 0.0
C2323 C 0.81672 0.18053 0.62176 0.0
C2324 C 0.95363 0.29825 0.42478 0.0
C2325 C 0.95995 0.2682 0.42545 0.0
C2326 C 0.93063 0.30878 0.44181 0.0
C2327 C 0.91452 0.28947 0.46056 0.0
H2328 H 0.96726 0.31369 0.41214 0.0
H2329 H 0.9273 0.33236 0.44238 0.0
S2330 S 0.92124 0.20892 0.46852 0.0
N2331 N 0.94639 0.21907 0.44395 0.0
N2332 N 0.90458 0.23954 0.47755 0.0
C2333 C 0.91942 0.25939 0.46006 0.0
C2334 C 0.94201 0.24853 0.44206 0.0
C2335 C 0.80652 0.95029 0.44023 0.0
C2336 C 0.78652 0.96095 0.41909 0.0
C2337 C 0.79976 0.92575 0.45765 0.0
C2338 C 0.77277 0.91123 0.45426 0.0
H2339 H 0.82695 0.96144 0.44459 0.0
H2340 H 0.81411 0.92031 0.47603 0.0
S2341 S 0.71964 0.9227 0.39304 0.0
N2342 N 0.74359 0.95024 0.38933 0.0
N2343 N 0.73055 0.90293 0.42195 0.0
C2344 C 0.75523 0.91822 0.4295 0.0
C2345 C 0.76204 0.94373 0.41201 0.0
C2346 C 0.10903 0.77531 0.42108 0.0
C2347 C 0.09924 0.80416 0.42272 0.0
C2348 C 0.13444 0.76726 0.43612 0.0
C2349 C 0.14891 0.78751 0.45447 0.0
H2350 H 0.09639 0.75879 0.40943 0.0
H2351 H 0.14034 0.74429 0.43634 0.0
S2352 S 0.13631 0.86729 0.45912 0.0
N2353 N 0.11003 0.85474 0.43738 0.0
N2354 N 0.15607 0.83827 0.46838 0.0
C2355 C 0.14162 0.81707 0.45303 0.0
C2356 C 0.11672 0.82569 0.43667 0.0
C2357 C 0.30296 0.10191 0.42381 0.0
C2358 C 0.29105 0.10315 0.4524 0.0
C2359 C 0.30851 0.07472 0.41122 0.0
C2360 C 0.29934 0.04884 0.42615 0.0
H2361 H 0.30684 0.12183 0.41074 0.0
H2362 H 0.31358 0.07424 0.38789 0.0
S2363 S 0.28104 0.0399 0.50473 0.0
N2364 N 0.28012 0.07574 0.49807 0.0
N2365 N 0.29202 0.02509 0.4738 0.0
C2366 C 0.29597 0.04975 0.45666 0.0
C2367 C 0.28919 0.07698 0.46953 0.0
C2368 C 0.59936 0.92572 0.822 0.0
C2369 C 0.62568 0.93283 0.80713 0.0
C2370 C 0.57856 0.90721 0.80902 0.0
C2371 C 0.58411 0.89516 0.78135 0.0
H2372 H 0.59322 0.93728 0.84171 0.0
H2373 H 0.5569 0.90514 0.81897 0.0
S2374 S 0.65415 0.89968 0.73924 0.0
N2375 N 0.65929 0.92157 0.76749 0.0
N2376 N 0.62079 0.88529 0.74359 0.0
C2377 C 0.61258 0.89784 0.76924 0.0
C2378 C 0.63333 0.91737 0.78201 0.0
C2379 C 0.09657 0.63248 0.76479 0.0
C2380 C 0.09483 0.63743 0.79496 0.0
C2381 C 0.11621 0.6119 0.75422 0.0
C2382 C 0.13299 0.59446 0.77377 0.0
H2383 H 0.08211 0.64387 0.74949 0.0
H2384 H 0.11709 0.60871 0.73074 0.0
S2385 S 0.13952 0.60205 0.85417 0.0
N2386 N 0.11511 0.62685 0.8438 0.0
N2387 N 0.14944 0.58545 0.82375 0.0
C2388 C 0.13273 0.60026 0.80367 0.0
C2389 C 0.11413 0.62251 0.81434 0.0
C2390 C 0.42608 0.15963 0.82203 0.0
C2391 C 0.40085 0.14997 0.80685 0.0
C2392 C 0.45244 0.16375 0.80657 0.0
C2393 C 0.4523 0.16271 0.7758 0.0
H2394 H 0.42729 0.15717 0.84576 0.0
H2395 H 0.47296 0.16584 0.8186 0.0
S2396 S 0.38694 0.15742 0.72715 0.0
N2397 N 0.37404 0.15191 0.76087 0.0
N2398 N 0.42264 0.16385 0.73094 0.0
C2399 C 0.42523 0.16219 0.76076 0.0
C2400 C 0.39903 0.1562 0.77676 0.0
C2401 C 0.96109 0.44069 0.77202 0.0
C2402 C 0.99086 0.44909 0.77396 0.0
C2403 C 0.93895 0.46125 0.77401 0.0
C2404 C 0.94548 0.49155 0.77553 0.0
H2405 H 0.95467 0.41763 0.77081 0.0
H2406 H 0.91638 0.45326 0.77273 0.0
S2407 S 0.0202 0.52549 0.77995 0.0
N2408 N 0.02614 0.48976 0.77776 0.0
N2409 N 0.98405 0.5292 0.77902 0.0
C2410 C 0.97524 0.50056 0.77696 0.0
C2411 C 0.99803 0.47925 0.77598 0.0
C2412 C 0.63152 0.10958 0.29167 0.0
C2413 C 0.62425 0.0798 0.28733 0.0
C2414 C 0.60938 0.13043 0.29491 0.0
C2415 C 0.57954 0.12218 0.29239 0.0
H2416 H 0.65437 0.11681 0.29193 0.0
H2417 H 0.6156 0.15298 0.29969 0.0
S2418 S 0.54986 0.04707 0.27909 0.0
N2419 N 0.58561 0.04297 0.28145 0.0
N2420 N 0.54425 0.08247 0.28308 0.0
C2421 C 0.57231 0.09261 0.28669 0.0
C2422 C 0.5946 0.07127 0.28568 0.0
C2423 C 0.94678 0.6521 0.3062 0.0
C2424 C 0.94786 0.66391 0.27763 0.0
C2425 C 0.92835 0.6282 0.31232 0.0
C2426 C 0.91128 0.61569 0.28984 0.0
H2427 H 0.96304 0.65845 0.32248 0.0
H2428 H 0.92932 0.61833 0.33409 0.0
S2429 S 0.89488 0.6493 0.21731 0.0
N2430 N 0.92161 0.67005 0.23097 0.0
N2431 N 0.88802 0.62316 0.24231 0.0
C2432 C 0.90754 0.63119 0.26344 0.0
C2433 C 0.92548 0.65636 0.25755 0.0
C2434 C 0.42847 0.92425 0.23352 0.0
C2435 C 0.40423 0.93153 0.25112 0.0
C2436 C 0.45243 0.9099 0.24596 0.0
C2437 C 0.45157 0.9012 0.2756 0.0
H2438 H 0.43128 0.93371 0.21171 0.0
H2439 H 0.47256 0.90823 0.23329 0.0
S2440 S 0.38769 0.90439 0.32645 0.0
N2441 N 0.37715 0.92233 0.29633 0.0
N2442 N 0.42114 0.89243 0.31942 0.0
C2443 C 0.4248 0.90248 0.29122 0.0
C2444 C 0.40102 0.91831 0.27885 0.0
C2445 C 0.09834 0.38533 0.30077 0.0
C2446 C 0.07027 0.39774 0.30443 0.0
C2447 C 0.12213 0.39521 0.31741 0.0
C2448 C 0.11789 0.41722 0.33801 0.0
H2449 H 0.10299 0.37147 0.28219 0.0
H2450 H 0.14418 0.38945 0.31063 0.0
S2451 S 0.04624 0.44266 0.36677 0.0
N2452 N 0.03758 0.42219 0.33824 0.0
N2453 N 0.08249 0.44147 0.3696 0.0
C2454 C 0.08894 0.42313 0.34723 0.0
C2455 C 0.06474 0.41318 0.33011 0.0
C2456 C 0.78584 0.6555 0.89198 0.0
C2457 C 0.81391 0.65114 0.90407 0.0
C2458 C 0.76909 0.63123 0.8833 0.0
C2459 C 0.7807 0.60279 0.88623 0.0
H2460 H 0.77489 0.67641 0.8944 0.0
H2461 H 0.74596 0.6344 0.87842 0.0
S2462 S 0.85829 0.58348 0.90061 0.0
N2463 N 0.85668 0.61931 0.90619 0.0
N2464 N 0.82477 0.57318 0.89056 0.0
C2465 C 0.81092 0.59955 0.89096 0.0
C2466 C 0.82805 0.62436 0.89915 0.0
C2467 C 0.84227 0.45961 0.16376 0.0
C2468 C 0.83595 0.42924 0.16418 0.0
C2469 C 0.81882 0.47927 0.16417 0.0
C2470 C 0.78994 0.46866 0.16904 0.0
H2471 H 0.86343 0.46777 0.15579 0.0
H2472 H 0.823 0.5022 0.1583 0.0
S2473 S 0.76905 0.39312 0.19445 0.0
N2474 N 0.80432 0.39119 0.18572 0.0
N2475 N 0.75978 0.42785 0.18861 0.0
C2476 C 0.78606 0.43954 0.17962 0.0
C2477 C 0.81009 0.41988 0.17852 0.0
C2478 C 0.58604 0.78759 0.06796 0.0
C2479 C 0.61482 0.79416 0.07761 0.0
C2480 C 0.56348 0.78095 0.08792 0.0
C2481 C 0.56903 0.77991 0.11831 0.0
H2482 H 0.58063 0.78789 0.04475 0.0
H2483 H 0.54204 0.77487 0.07928 0.0
S2484 S 0.63984 0.79723 0.1553 0.0
N2485 N 0.64714 0.80104 0.11976 0.0
N2486 N 0.60467 0.78765 0.15749 0.0
C2487 C 0.59737 0.78739 0.12843 0.0
C2488 C 0.62034 0.79449 0.10806 0.0
C2489 C 0.32482 0.65704 0.07986 0.0
C2490 C 0.29874 0.66979 0.08987 0.0
C2491 C 0.34646 0.64826 0.09995 0.0
C2492 C 0.34124 0.65038 0.13039 0.0
H2493 H 0.32734 0.65122 0.05695 0.0
H2494 H 0.36431 0.63499 0.09187 0.0
S2495 S 0.28383 0.69442 0.16587 0.0
N2496 N 0.2746 0.69415 0.13067 0.0
N2497 N 0.31476 0.67577 0.16847 0.0
C2498 C 0.31908 0.66917 0.13972 0.0
C2499 C 0.29732 0.67877 0.11935 0.0
C2500 C 0.39239 0.30035 0.14143 0.0
C2501 C 0.38577 0.27042 0.13886 0.0
C2502 C 0.41942 0.30848 0.1532 0.0
C2503 C 0.43885 0.2868 0.16376 0.0
H2504 H 0.38018 0.31666 0.12882 0.0
H2505 H 0.42616 0.33133 0.15128 0.0
S2506 S 0.41938 0.2095 0.18172 0.0
N2507 N 0.39128 0.222 0.16218 0.0
N2508 N 0.44335 0.23713 0.1839 0.0
C2509 C 0.42832 0.25824 0.16884 0.0
C2510 C 0.40036 0.25032 0.15749 0.0
C2511 C 0.23457 0.42379 0.9346 0.0
C2512 C 0.25289 0.40782 0.95383 0.0
C2513 C 0.24665 0.43921 0.91065 0.0
C2514 C 0.27699 0.43821 0.9055 0.0
H2515 H 0.21178 0.42768 0.94022 0.0
H2516 H 0.23312 0.45504 0.89886 0.0
S2517 S 0.3313 0.39057 0.94363 0.0
N2518 N 0.30049 0.38587 0.96262 0.0
N2519 N 0.32315 0.41316 0.91589 0.0
C2520 C 0.29403 0.41735 0.92096 0.0
C2521 C 0.28198 0.40267 0.94606 0.0
C2522 C 0.59854 0.28349 0.98767 0.0
C2523 C 0.62763 0.29318 0.98384 0.0
C2524 C 0.58135 0.2753 0.9641 0.0
C2525 C 0.59162 0.27923 0.93512 0.0
H2526 H 0.58909 0.28079 1.00943 0.0
H2527 H 0.55893 0.26825 0.96887 0.0
S2528 S 0.66692 0.30322 0.9128 0.0
N2529 N 0.66726 0.30415 0.9492 0.0
N2530 N 0.63334 0.29235 0.90353 0.0
C2531 C 0.62091 0.2888 0.93063 0.0
C2532 C 0.63908 0.29554 0.95518 0.0
C2533 C 0.41213 0.80151 0.92249 0.0
C2534 C 0.40299 0.78776 0.94901 0.0
C2535 C 0.42823 0.78583 0.90208 0.0
C2536 C 0.43445 0.75614 0.90759 0.0
H2537 H 0.4102 0.82515 0.91922 0.0
H2538 H 0.43867 0.79771 0.88384 0.0
S2539 S 0.40793 0.70901 0.96997 0.0
N2540 N 0.39593 0.7423 0.9772 0.0
N2541 N 0.42522 0.71227 0.93803 0.0
C2542 C 0.42122 0.74129 0.93166 0.0
C2543 C 0.40562 0.75738 0.9528 0.0
loop_
_geom_bond_atom_site_label_1
_geom_bond_atom_site_label_2
_geom_bond_distance
_geom_bond_site_symmetry_2
_ccdc_geom_bond_type
Dy0 O4 2.398 . S
Dy0 O5 2.491 . S
Dy0 O6 2.403 . S
Dy0 O7 2.664 1_655 S
Dy0 O11 2.326 1_655 S
Dy0 O15 2.310 . S
Dy0 O16 2.351 . S
C1 O12 1.185 . S
C1 O13 1.355 . S
C2 O4 1.185 . S
C2 O5 1.355 . S
Dy3 O7 2.310 . S
Dy3 O10 2.351 . S
Dy3 O12 2.398 . S
Dy3 O13 2.491 . S
Dy3 O14 2.403 . S
Dy3 O15 2.664 1_455 S
Dy3 O17 2.326 1_455 S
O4 Dy0 2.398 . S
O4 C2 1.185 . S
O5 Dy0 2.491 . S
O5 C2 1.355 . S
O6 Dy0 2.403 . S
O6 C8 1.254 . S
O7 Dy0 2.664 1_455 S
O7 Dy3 2.310 . S
O7 C8 1.268 1_455 S
C8 O6 1.254 . S
C8 O7 1.268 1_655 S
C9 O14 1.254 . S
C9 O15 1.268 1_455 S
O10 Dy3 2.351 . S
O10 C18 1.249 . S
O11 Dy0 2.326 1_455 S
O11 C18 1.267 . S
O12 C1 1.185 . S
O12 Dy3 2.398 . S
O13 C1 1.355 . S
O13 Dy3 2.491 . S
O14 Dy3 2.403 . S
O14 C9 1.254 . S
O15 Dy0 2.310 . S
O15 Dy3 2.664 1_655 S
O15 C9 1.268 1_655 S
O16 Dy0 2.351 . S
O16 C19 1.249 . S
O17 Dy3 2.326 1_655 S
O17 C19 1.267 . S
C18 O10 1.249 . S
C18 O11 1.267 . S
C19 O16 1.249 . S
C19 O17 1.267 . S
Dy20 O24 2.398 . S
Dy20 O25 2.491 . S
Dy20 O26 2.403 . S
Dy20 O27 2.664 1_565 S
Dy20 O31 2.326 1_565 S
Dy20 O35 2.310 1_565 S
Dy20 O36 2.351 . S
C21 O32 1.185 . S
C21 O33 1.355 . S
C22 O24 1.185 . S
C22 O25 1.355 . S
Dy23 O27 2.310 . S
Dy23 O30 2.351 . S
Dy23 O32 2.398 . S
Dy23 O33 2.491 . S
Dy23 O34 2.403 . S
Dy23 O35 2.664 . S
Dy23 O37 2.326 . S
O24 Dy20 2.398 . S
O24 C22 1.185 . S
O25 Dy20 2.491 . S
O25 C22 1.355 . S
O26 Dy20 2.403 . S
O26 C28 1.254 1_565 S
O27 Dy20 2.664 1_545 S
O27 Dy23 2.310 . S
O27 C28 1.268 . S
C28 O26 1.254 1_545 S
C28 O27 1.268 . S
C29 O34 1.254 . S
C29 O35 1.268 . S
O30 Dy23 2.351 . S
O30 C38 1.249 . S
O31 Dy20 2.326 1_545 S
O31 C38 1.267 . S
O32 C21 1.185 . S
O32 Dy23 2.398 . S
O33 C21 1.355 . S
O33 Dy23 2.491 . S
O34 Dy23 2.403 . S
O34 C29 1.254 . S
O35 Dy20 2.310 1_545 S
O35 Dy23 2.664 . S
O35 C29 1.268 . S
O36 Dy20 2.351 . S
O36 C39 1.249 . S
O37 Dy23 2.326 . S
O37 C39 1.267 1_545 S
C38 O30 1.249 . S
C38 O31 1.267 . S
C39 O36 1.249 . S
C39 O37 1.267 1_565 S
Dy40 O44 2.398 . S
Dy40 O45 2.491 . S
Dy40 O46 2.403 . S
Dy40 O47 2.664 . S
Dy40 O51 2.326 . S
Dy40 O55 2.310 . S
Dy40 O56 2.351 . S
C41 O52 1.185 . S
C41 O53 1.355 . S
C42 O44 1.185 . S
C42 O45 1.355 . S
Dy43 O47 2.310 1_655 S
Dy43 O50 2.351 . S
Dy43 O52 2.398 . S
Dy43 O53 2.491 . S
Dy43 O54 2.403 . S
Dy43 O55 2.664 1_655 S
Dy43 O57 2.326 1_655 S
O44 Dy40 2.398 . S
O44 C42 1.185 . S
O45 Dy40 2.491 . S
O45 C42 1.355 . S
O46 Dy40 2.403 . S
O46 C48 1.254 . S
O47 Dy40 2.664 . S
O47 Dy43 2.310 1_455 S
O47 C48 1.268 . S
C48 O46 1.254 . S
C48 O47 1.268 . S
C49 O54 1.254 1_455 S
C49 O55 1.268 . S
O50 Dy43 2.351 . S
O50 C58 1.249 . S
O51 Dy40 2.326 . S
O51 C58 1.267 1_455 S
O52 C41 1.185 . S
O52 Dy43 2.398 . S
O53 C41 1.355 . S
O53 Dy43 2.491 . S
O54 Dy43 2.403 . S
O54 C49 1.254 1_655 S
O55 Dy40 2.310 . S
O55 Dy43 2.664 1_455 S
O55 C49 1.268 . S
O56 Dy40 2.351 . S
O56 C59 1.249 . S
O57 Dy43 2.326 1_455 S
O57 C59 1.267 . S
C58 O50 1.249 . S
C58 O51 1.267 1_655 S
C59 O56 1.249 . S
C59 O57 1.267 . S
Dy60 O64 2.398 . S
Dy60 O65 2.491 . S
Dy60 O66 2.403 . S
Dy60 O67 2.664 . S
Dy60 O71 2.326 . S
Dy60 O75 2.310 . S
Dy60 O76 2.351 . S
C61 O72 1.185 . S
C61 O73 1.355 . S
C62 O64 1.185 . S
C62 O65 1.355 . S
Dy63 O67 2.310 1_565 S
Dy63 O70 2.351 . S
Dy63 O72 2.398 . S
Dy63 O73 2.491 . S
Dy63 O74 2.403 . S
Dy63 O75 2.664 1_565 S
Dy63 O77 2.326 1_565 S
O64 Dy60 2.398 . S
O64 C62 1.185 . S
O65 Dy60 2.491 . S
O65 C62 1.355 . S
O66 Dy60 2.403 . S
O66 C68 1.254 . S
O67 Dy60 2.664 . S
O67 Dy63 2.310 1_545 S
O67 C68 1.268 . S
C68 O66 1.254 . S
C68 O67 1.268 . S
C69 O74 1.254 1_545 S
C69 O75 1.268 . S
O70 Dy63 2.351 . S
O70 C78 1.249 . S
O71 Dy60 2.326 . S
O71 C78 1.267 1_545 S
O72 C61 1.185 . S
O72 Dy63 2.398 . S
O73 C61 1.355 . S
O73 Dy63 2.491 . S
O74 Dy63 2.403 . S
O74 C69 1.254 1_565 S
O75 Dy60 2.310 . S
O75 Dy63 2.664 1_545 S
O75 C69 1.268 . S
O76 Dy60 2.351 . S
O76 C79 1.249 . S
O77 Dy63 2.326 1_545 S
O77 C79 1.267 . S
C78 O70 1.249 . S
C78 O71 1.267 1_565 S
C79 O76 1.249 . S
C79 O77 1.267 . S
Dy80 O84 2.398 . S
Dy80 O85 2.491 . S
Dy80 O86 2.403 . S
Dy80 O87 2.664 1_655 S
Dy80 O91 2.326 1_655 S
Dy80 O95 2.310 1_655 S
Dy80 O96 2.351 . S
C81 O92 1.185 . S
C81 O93 1.355 . S
C82 O84 1.185 . S
C82 O85 1.355 . S
Dy83 O87 2.310 . S
Dy83 O90 2.351 . S
Dy83 O92 2.398 . S
Dy83 O93 2.491 . S
Dy83 O94 2.403 . S
Dy83 O95 2.664 . S
Dy83 O97 2.326 . S
O84 Dy80 2.398 . S
O84 C82 1.185 . S
O85 Dy80 2.491 . S
O85 C82 1.355 . S
O86 Dy80 2.403 . S
O86 C88 1.254 1_655 S
O87 Dy80 2.664 1_455 S
O87 Dy83 2.310 . S
O87 C88 1.268 . S
C88 O86 1.254 1_455 S
C88 O87 1.268 . S
C89 O94 1.254 . S
C89 O95 1.268 . S
O90 Dy83 2.351 . S
O90 C98 1.249 . S
O91 Dy80 2.326 1_455 S
O91 C98 1.267 . S
O92 C81 1.185 . S
O92 Dy83 2.398 . S
O93 C81 1.355 . S
O93 Dy83 2.491 . S
O94 Dy83 2.403 . S
O94 C89 1.254 . S
O95 Dy80 2.310 1_455 S
O95 Dy83 2.664 . S
O95 C89 1.268 . S
O96 Dy80 2.351 . S
O96 C99 1.249 . S
O97 Dy83 2.326 . S
O97 C99 1.267 1_455 S
C98 O90 1.249 . S
C98 O91 1.267 . S
C99 O96 1.249 . S
C99 O97 1.267 1_655 S
Dy100 O104 2.398 . S
Dy100 O105 2.491 . S
Dy100 O106 2.404 1_565 S
Dy100 O107 2.664 1_565 S
Dy100 O111 2.326 1_565 S
Dy100 O115 2.310 1_565 S
Dy100 O116 2.351 . S
C101 O112 1.185 . S
C101 O113 1.355 . S
C102 O104 1.185 . S
C102 O105 1.355 . S
Dy103 O107 2.310 . S
Dy103 O110 2.351 . S
Dy103 O112 2.398 . S
Dy103 O113 2.491 . S
Dy103 O114 2.403 . S
Dy103 O115 2.664 . S
Dy103 O117 2.326 . S
O104 Dy100 2.398 . S
O104 C102 1.185 . S
O105 Dy100 2.491 . S
O105 C102 1.355 . S
O106 Dy100 2.404 1_545 S
O106 C108 1.252 . S
O107 Dy100 2.664 1_545 S
O107 Dy103 2.310 . S
O107 C108 1.268 . S
C108 O106 1.252 . S
C108 O107 1.268 . S
C109 O114 1.254 . S
C109 O115 1.268 . S
O110 Dy103 2.351 . S
O110 C118 1.249 . S
O111 Dy100 2.326 1_545 S
O111 C118 1.267 . S
O112 C101 1.185 . S
O112 Dy103 2.398 . S
O113 C101 1.355 . S
O113 Dy103 2.491 . S
O114 Dy103 2.403 . S
O114 C109 1.254 . S
O115 Dy100 2.310 1_545 S
O115 Dy103 2.664 . S
O115 C109 1.268 . S
O116 Dy100 2.351 . S
O116 C119 1.249 . S
O117 Dy103 2.326 . S
O117 C119 1.267 1_545 S
C118 O110 1.249 . S
C118 O111 1.267 . S
C119 O116 1.249 . S
C119 O117 1.267 1_565 S
Dy120 O124 2.398 . S
Dy120 O125 2.491 . S
Dy120 O126 2.403 . S
Dy120 O127 2.664 . S
Dy120 O131 2.326 . S
Dy120 O135 2.310 . S
Dy120 O136 2.351 . S
C121 O132 1.185 . S
C121 O133 1.355 . S
C122 O124 1.185 . S
C122 O125 1.355 . S
Dy123 O127 2.310 1_655 S
Dy123 O130 2.351 . S
Dy123 O132 2.398 . S
Dy123 O133 2.491 . S
Dy123 O134 2.403 . S
Dy123 O135 2.664 1_655 S
Dy123 O137 2.326 1_655 S
O124 Dy120 2.398 . S
O124 C122 1.185 . S
O125 Dy120 2.491 . S
O125 C122 1.355 . S
O126 Dy120 2.403 . S
O126 C128 1.254 . S
O127 Dy120 2.664 . S
O127 Dy123 2.310 1_455 S
O127 C128 1.268 . S
C128 O126 1.254 . S
C128 O127 1.268 . S
C129 O134 1.254 1_455 S
C129 O135 1.268 . S
O130 Dy123 2.351 . S
O130 C138 1.249 . S
O131 Dy120 2.326 . S
O131 C138 1.267 1_455 S
O132 C121 1.185 . S
O132 Dy123 2.398 . S
O133 C121 1.355 . S
O133 Dy123 2.491 . S
O134 Dy123 2.403 . S
O134 C129 1.254 1_655 S
O135 Dy120 2.310 . S
O135 Dy123 2.664 1_455 S
O135 C129 1.268 . S
O136 Dy120 2.351 . S
O136 C139 1.249 . S
O137 Dy123 2.326 1_455 S
O137 C139 1.267 . S
C138 O130 1.249 . S
C138 O131 1.267 1_655 S
C139 O136 1.249 . S
C139 O137 1.267 . S
Dy140 O144 2.398 . S
Dy140 O145 2.491 . S
Dy140 O146 2.403 . S
Dy140 O147 2.664 . S
Dy140 O151 2.326 . S
Dy140 O155 2.310 . S
Dy140 O156 2.351 . S
C141 O152 1.185 . S
C141 O153 1.350 1_565 S
C142 O144 1.185 . S
C142 O145 1.355 . S
Dy143 O147 2.310 . S
Dy143 O150 2.351 1_545 S
Dy143 O152 2.398 1_545 S
Dy143 O153 2.493 . S
Dy143 O154 2.403 . S
Dy143 O155 2.664 . S
Dy143 O157 2.326 . S
O144 Dy140 2.398 . S
O144 C142 1.185 . S
O145 Dy140 2.491 . S
O145 C142 1.355 . S
O146 Dy140 2.403 . S
O146 C148 1.254 . S
O147 Dy140 2.664 . S
O147 Dy143 2.310 . S
O147 C148 1.268 . S
C148 O146 1.254 . S
C148 O147 1.268 . S
C149 O154 1.254 . S
C149 O155 1.268 . S
O150 Dy143 2.351 1_565 S
O150 C158 1.249 1_565 S
O151 Dy140 2.326 . S
O151 C158 1.267 . S
O152 C141 1.185 . S
O152 Dy143 2.398 1_565 S
O153 C141 1.350 1_545 S
O153 Dy143 2.493 . S
O154 Dy143 2.403 . S
O154 C149 1.254 . S
O155 Dy140 2.310 . S
O155 Dy143 2.664 . S
O155 C149 1.268 . S
O156 Dy140 2.351 . S
O156 C159 1.249 . S
O157 Dy143 2.326 . S
O157 C159 1.267 . S
C158 O150 1.249 1_545 S
C158 O151 1.267 . S
C159 O156 1.249 . S
C159 O157 1.267 . S
Dy160 O164 2.398 . S
Dy160 O165 2.491 . S
Dy160 O166 2.403 . S
Dy160 O167 2.664 1_565 S
Dy160 O171 2.326 1_565 S
Dy160 O175 2.310 1_565 S
Dy160 O176 2.351 . S
C161 O172 1.185 . S
C161 O173 1.355 . S
C162 O164 1.185 . S
C162 O165 1.355 . S
Dy163 O167 2.310 . S
Dy163 O170 2.351 . S
Dy163 O172 2.398 . S
Dy163 O173 2.491 . S
Dy163 O174 2.403 . S
Dy163 O175 2.664 . S
Dy163 O177 2.326 . S
O164 Dy160 2.398 . S
O164 C162 1.185 . S
O165 Dy160 2.491 . S
O165 C162 1.355 . S
O166 Dy160 2.403 . S
O166 C168 1.254 1_565 S
O167 Dy160 2.664 1_545 S
O167 Dy163 2.310 . S
O167 C168 1.268 . S
C168 O166 1.254 1_545 S
C168 O167 1.268 . S
C169 O174 1.254 . S
C169 O175 1.268 . S
O170 Dy163 2.351 . S
O170 C178 1.249 . S
O171 Dy160 2.326 1_545 S
O171 C178 1.267 . S
O172 C161 1.185 . S
O172 Dy163 2.398 . S
O173 C161 1.355 . S
O173 Dy163 2.491 . S
O174 Dy163 2.403 . S
O174 C169 1.254 . S
O175 Dy160 2.310 1_545 S
O175 Dy163 2.664 . S
O175 C169 1.268 . S
O176 Dy160 2.351 . S
O176 C179 1.249 . S
O177 Dy163 2.326 . S
O177 C179 1.267 1_545 S
C178 O170 1.249 . S
C178 O171 1.267 . S
C179 O176 1.249 . S
C179 O177 1.267 1_565 S
Dy180 O184 2.398 . S
Dy180 O185 2.491 . S
Dy180 O186 2.403 . S
Dy180 O187 2.664 . S
Dy180 O191 2.326 . S
Dy180 O195 2.310 . S
Dy180 O196 2.351 . S
C181 O192 1.185 . S
C181 O193 1.355 . S
C182 O184 1.185 . S
C182 O185 1.355 . S
Dy183 O187 2.310 1_655 S
Dy183 O190 2.351 . S
Dy183 O192 2.398 . S
Dy183 O193 2.491 . S
Dy183 O194 2.403 . S
Dy183 O195 2.664 1_655 S
Dy183 O197 2.326 1_655 S
O184 Dy180 2.398 . S
O184 C182 1.185 . S
O185 Dy180 2.491 . S
O185 C182 1.355 . S
O186 Dy180 2.403 . S
O186 C188 1.254 . S
O187 Dy180 2.664 . S
O187 Dy183 2.310 1_455 S
O187 C188 1.268 . S
C188 O186 1.254 . S
C188 O187 1.268 . S
C189 O194 1.241 1_455 S
C189 O195 1.275 . S
O190 Dy183 2.351 . S
O190 C198 1.249 . S
O191 Dy180 2.326 . S
O191 C198 1.267 1_455 S
O192 C181 1.185 . S
O192 Dy183 2.398 . S
O193 C181 1.355 . S
O193 Dy183 2.491 . S
O194 Dy183 2.403 . S
O194 C189 1.241 1_655 S
O195 Dy180 2.310 . S
O195 Dy183 2.664 1_455 S
O195 C189 1.275 . S
O196 Dy180 2.351 . S
O196 C199 1.249 . S
O197 Dy183 2.326 1_455 S
O197 C199 1.267 . S
C198 O190 1.249 . S
C198 O191 1.267 1_655 S
C199 O196 1.249 . S
C199 O197 1.267 . S
Dy200 O204 2.398 . S
Dy200 O205 2.491 . S
Dy200 O206 2.403 . S
Dy200 O207 2.664 . S
Dy200 O211 2.326 . S
Dy200 O215 2.310 . S
Dy200 O216 2.351 . S
C201 O212 1.185 . S
C201 O213 1.355 . S
C202 O204 1.185 . S
C202 O205 1.355 . S
Dy203 O207 2.310 1_565 S
Dy203 O210 2.351 . S
Dy203 O212 2.398 . S
Dy203 O213 2.491 . S
Dy203 O214 2.403 1_565 S
Dy203 O215 2.664 1_565 S
Dy203 O217 2.326 1_565 S
O204 Dy200 2.398 . S
O204 C202 1.185 . S
O205 Dy200 2.491 . S
O205 C202 1.355 . S
O206 Dy200 2.403 . S
O206 C208 1.254 . S
O207 Dy200 2.664 . S
O207 Dy203 2.310 1_545 S
O207 C208 1.268 . S
C208 O206 1.254 . S
C208 O207 1.268 . S
C209 O214 1.254 . S
C209 O215 1.268 . S
O210 Dy203 2.351 . S
O210 C218 1.241 1_565 S
O211 Dy200 2.326 . S
O211 C218 1.280 . S
O212 C201 1.185 . S
O212 Dy203 2.398 . S
O213 C201 1.355 . S
O213 Dy203 2.491 . S
O214 Dy203 2.403 1_545 S
O214 C209 1.254 . S
O215 Dy200 2.310 . S
O215 Dy203 2.664 1_545 S
O215 C209 1.268 . S
O216 Dy200 2.351 . S
O216 C219 1.249 . S
O217 Dy203 2.326 1_545 S
O217 C219 1.267 . S
C218 O210 1.241 1_545 S
C218 O211 1.280 . S
C219 O216 1.249 . S
C219 O217 1.267 . S
Dy220 O224 2.398 . S
Dy220 O225 2.491 . S
Dy220 O226 2.403 . S
Dy220 O227 2.664 1_655 S
Dy220 O231 2.326 1_655 S
Dy220 O235 2.310 1_655 S
Dy220 O236 2.351 . S
C221 O232 1.185 . S
C221 O233 1.355 . S
C222 O224 1.185 . S
C222 O225 1.355 . S
Dy223 O227 2.310 . S
Dy223 O230 2.351 . S
Dy223 O232 2.398 . S
Dy223 O233 2.491 . S
Dy223 O234 2.403 . S
Dy223 O235 2.664 . S
Dy223 O237 2.326 . S
O224 Dy220 2.398 . S
O224 C222 1.185 . S
O225 Dy220 2.491 . S
O225 C222 1.355 . S
O226 Dy220 2.403 . S
O226 C228 1.254 1_655 S
O227 Dy220 2.664 1_455 S
O227 Dy223 2.310 . S
O227 C228 1.268 . S
C228 O226 1.254 1_455 S
C228 O227 1.268 . S
C229 O234 1.254 . S
C229 O235 1.268 . S
O230 Dy223 2.351 . S
O230 C238 1.249 . S
O231 Dy220 2.326 1_455 S
O231 C238 1.267 . S
O232 C221 1.185 . S
O232 Dy223 2.398 . S
O233 C221 1.355 . S
O233 Dy223 2.491 . S
O234 Dy223 2.403 . S
O234 C229 1.254 . S
O235 Dy220 2.310 1_455 S
O235 Dy223 2.664 . S
O235 C229 1.268 . S
O236 Dy220 2.351 . S
O236 C239 1.249 . S
O237 Dy223 2.326 . S
O237 C239 1.267 1_455 S
C238 O230 1.249 . S
C238 O231 1.267 . S
C239 O236 1.249 . S
C239 O237 1.267 1_655 S
Dy240 O244 2.398 . S
Dy240 O245 2.491 . S
Dy240 O246 2.403 . S
Dy240 O247 2.664 . S
Dy240 O251 2.326 . S
Dy240 O255 2.310 . S
Dy240 O256 2.351 . S
C241 O252 1.185 . S
C241 O253 1.355 . S
C242 O244 1.185 . S
C242 O245 1.355 . S
Dy243 O247 2.310 1_565 S
Dy243 O250 2.351 . S
Dy243 O252 2.398 . S
Dy243 O253 2.491 . S
Dy243 O254 2.403 1_565 S
Dy243 O255 2.664 1_565 S
Dy243 O257 2.326 1_565 S
O244 Dy240 2.398 . S
O244 C242 1.185 . S
O245 Dy240 2.491 . S
O245 C242 1.355 . S
O246 Dy240 2.403 . S
O246 C248 1.254 . S
O247 Dy240 2.664 . S
O247 Dy243 2.310 1_545 S
O247 C248 1.268 . S
C248 O246 1.254 . S
C248 O247 1.268 . S
C249 O254 1.254 . S
C249 O255 1.268 . S
O250 Dy243 2.351 . S
O250 C258 1.249 . S
O251 Dy240 2.326 . S
O251 C258 1.267 1_545 S
O252 C241 1.185 . S
O252 Dy243 2.398 . S
O253 C241 1.355 . S
O253 Dy243 2.491 . S
O254 Dy243 2.403 1_545 S
O254 C249 1.254 . S
O255 Dy240 2.310 . S
O255 Dy243 2.664 1_545 S
O255 C249 1.268 . S
O256 Dy240 2.351 . S
O256 C259 1.249 . S
O257 Dy243 2.326 1_545 S
O257 C259 1.267 . S
C258 O250 1.249 . S
C258 O251 1.267 1_565 S
C259 O256 1.249 . S
C259 O257 1.267 . S
Dy260 O264 2.398 . S
Dy260 O265 2.491 . S
Dy260 O266 2.403 . S
Dy260 O267 2.664 1_655 S
Dy260 O271 2.326 1_655 S
Dy260 O275 2.310 1_655 S
Dy260 O276 2.351 . S
C261 O272 1.185 . S
C261 O273 1.355 . S
C262 O264 1.185 . S
C262 O265 1.355 . S
Dy263 O267 2.310 . S
Dy263 O270 2.351 . S
Dy263 O272 2.398 . S
Dy263 O273 2.491 . S
Dy263 O274 2.403 . S
Dy263 O275 2.664 . S
Dy263 O277 2.326 . S
O264 Dy260 2.398 . S
O264 C262 1.185 . S
O265 Dy260 2.491 . S
O265 C262 1.355 . S
O266 Dy260 2.403 . S
O266 C268 1.254 1_655 S
O267 Dy260 2.664 1_455 S
O267 Dy263 2.310 . S
O267 C268 1.268 . S
C268 O266 1.254 1_455 S
C268 O267 1.268 . S
C269 O274 1.254 . S
C269 O275 1.268 . S
O270 Dy263 2.351 . S
O270 C278 1.249 . S
O271 Dy260 2.326 1_455 S
O271 C278 1.267 . S
O272 C261 1.185 . S
O272 Dy263 2.398 . S
O273 C261 1.355 . S
O273 Dy263 2.491 . S
O274 Dy263 2.403 . S
O274 C269 1.254 . S
O275 Dy260 2.310 1_455 S
O275 Dy263 2.664 . S
O275 C269 1.268 . S
O276 Dy260 2.351 . S
O276 C279 1.249 . S
O277 Dy263 2.326 . S
O277 C279 1.267 1_455 S
C278 O270 1.249 . S
C278 O271 1.267 . S
C279 O276 1.249 . S
C279 O277 1.267 1_655 S
Dy280 O284 2.398 . S
Dy280 O285 2.491 . S
Dy280 O286 2.403 . S
Dy280 O287 2.664 1_565 S
Dy280 O291 2.326 1_565 S
Dy280 O295 2.310 . S
Dy280 O296 2.351 . S
C281 O292 1.185 . S
C281 O293 1.355 . S
C282 O284 1.185 . S
C282 O285 1.355 . S
Dy283 O287 2.310 . S
Dy283 O290 2.351 . S
Dy283 O292 2.398 . S
Dy283 O293 2.491 . S
Dy283 O294 2.403 . S
Dy283 O295 2.664 1_545 S
Dy283 O297 2.326 1_545 S
O284 Dy280 2.398 . S
O284 C282 1.185 . S
O285 Dy280 2.491 . S
O285 C282 1.355 . S
O286 Dy280 2.403 . S
O286 C288 1.254 . S
O287 Dy280 2.664 1_545 S
O287 Dy283 2.310 . S
O287 C288 1.268 1_545 S
C288 O286 1.254 . S
C288 O287 1.268 1_565 S
C289 O294 1.254 . S
C289 O295 1.268 1_545 S
O290 Dy283 2.351 . S
O290 C298 1.249 . S
O291 Dy280 2.326 1_545 S
O291 C298 1.267 . S
O292 C281 1.185 . S
O292 Dy283 2.398 . S
O293 C281 1.355 . S
O293 Dy283 2.491 . S
O294 Dy283 2.403 . S
O294 C289 1.254 . S
O295 Dy280 2.310 . S
O295 Dy283 2.664 1_565 S
O295 C289 1.268 1_565 S
O296 Dy280 2.351 . S
O296 C299 1.249 . S
O297 Dy283 2.326 1_565 S
O297 C299 1.267 . S
C298 O290 1.249 . S
C298 O291 1.267 . S
C299 O296 1.249 . S
C299 O297 1.267 . S
Dy300 O304 2.398 . S
Dy300 O305 2.491 . S
Dy300 O306 2.403 . S
Dy300 O307 2.664 . S
Dy300 O311 2.326 . S
Dy300 O315 2.310 . S
Dy300 O316 2.351 . S
C301 O312 1.185 . S
C301 O313 1.355 . S
C302 O304 1.185 . S
C302 O305 1.355 . S
Dy303 O307 2.310 1_655 S
Dy303 O310 2.351 . S
Dy303 O312 2.398 . S
Dy303 O313 2.491 . S
Dy303 O314 2.403 . S
Dy303 O315 2.664 1_655 S
Dy303 O317 2.326 1_655 S
O304 Dy300 2.398 . S
O304 C302 1.185 . S
O305 Dy300 2.491 . S
O305 C302 1.355 . S
O306 Dy300 2.403 . S
O306 C308 1.254 . S
O307 Dy300 2.664 . S
O307 Dy303 2.310 1_455 S
O307 C308 1.268 . S
C308 O306 1.254 . S
C308 O307 1.268 . S
C309 O314 1.254 1_455 S
C309 O315 1.268 . S
O310 Dy303 2.351 . S
O310 C318 1.249 . S
O311 Dy300 2.326 . S
O311 C318 1.267 1_455 S
O312 C301 1.185 . S
O312 Dy303 2.398 . S
O313 C301 1.355 . S
O313 Dy303 2.491 . S
O314 Dy303 2.403 . S
O314 C309 1.254 1_655 S
O315 Dy300 2.310 . S
O315 Dy303 2.664 1_455 S
O315 C309 1.268 . S
O316 Dy300 2.351 . S
O316 C319 1.249 . S
O317 Dy303 2.326 1_455 S
O317 C319 1.267 . S
C318 O310 1.249 . S
C318 O311 1.267 1_655 S
C319 O316 1.249 . S
C319 O317 1.267 . S
Dy320 O324 2.398 . S
Dy320 O325 2.491 . S
Dy320 O326 2.403 . S
Dy320 O327 2.664 1_556 S
Dy320 O331 2.326 1_556 S
Dy320 O335 2.310 1_556 S
Dy320 O336 2.351 . S
C321 O332 1.185 . S
C321 O333 1.355 . S
C322 O324 1.185 . S
C322 O325 1.355 . S
Dy323 O327 2.310 . S
Dy323 O330 2.351 . S
Dy323 O332 2.398 . S
Dy323 O333 2.491 . S
Dy323 O334 2.403 . S
Dy323 O335 2.664 . S
Dy323 O337 2.326 . S
O324 Dy320 2.398 . S
O324 C322 1.185 . S
O325 Dy320 2.491 . S
O325 C322 1.355 . S
O326 Dy320 2.403 . S
O326 C328 1.254 1_556 S
O327 Dy320 2.664 1_554 S
O327 Dy323 2.310 . S
O327 C328 1.268 . S
C328 O326 1.254 1_554 S
C328 O327 1.268 . S
C329 O334 1.254 . S
C329 O335 1.268 . S
O330 Dy323 2.351 . S
O330 C338 1.249 . S
O331 Dy320 2.326 1_554 S
O331 C338 1.267 . S
O332 C321 1.185 . S
O332 Dy323 2.398 . S
O333 C321 1.355 . S
O333 Dy323 2.491 . S
O334 Dy323 2.403 . S
O334 C329 1.254 . S
O335 Dy320 2.310 1_554 S
O335 Dy323 2.664 . S
O335 C329 1.268 . S
O336 Dy320 2.351 . S
O336 C339 1.249 . S
O337 Dy323 2.326 . S
O337 C339 1.267 1_554 S
C338 O330 1.249 . S
C338 O331 1.267 . S
C339 O336 1.249 . S
C339 O337 1.267 1_556 S
Dy340 O344 2.398 . S
Dy340 O345 2.491 . S
Dy340 O346 2.403 . S
Dy340 O347 2.664 . S
Dy340 O351 2.326 . S
Dy340 O355 2.310 . S
Dy340 O356 2.351 . S
C341 O352 1.185 . S
C341 O353 1.355 . S
C342 O344 1.185 . S
C342 O345 1.355 . S
Dy343 O347 2.310 1_556 S
Dy343 O350 2.351 . S
Dy343 O352 2.398 . S
Dy343 O353 2.491 . S
Dy343 O354 2.403 . S
Dy343 O355 2.664 1_556 S
Dy343 O357 2.326 1_556 S
O344 Dy340 2.398 . S
O344 C342 1.185 . S
O345 Dy340 2.491 . S
O345 C342 1.355 . S
O346 Dy340 2.403 . S
O346 C348 1.254 . S
O347 Dy340 2.664 . S
O347 Dy343 2.310 1_554 S
O347 C348 1.268 . S
C348 O346 1.254 . S
C348 O347 1.268 . S
C349 O354 1.254 1_554 S
C349 O355 1.268 . S
O350 Dy343 2.351 . S
O350 C358 1.249 . S
O351 Dy340 2.326 . S
O351 C358 1.267 1_554 S
O352 C341 1.185 . S
O352 Dy343 2.398 . S
O353 C341 1.355 . S
O353 Dy343 2.491 . S
O354 Dy343 2.403 . S
O354 C349 1.254 1_556 S
O355 Dy340 2.310 . S
O355 Dy343 2.664 1_554 S
O355 C349 1.268 . S
O356 Dy340 2.351 . S
O356 C359 1.249 . S
O357 Dy343 2.326 1_554 S
O357 C359 1.267 . S
C358 O350 1.249 . S
C358 O351 1.267 1_556 S
C359 O356 1.249 . S
C359 O357 1.267 . S
Dy360 O364 2.398 . S
Dy360 O365 2.491 . S
Dy360 O366 2.403 . S
Dy360 O367 2.664 . S
Dy360 O371 2.326 . S
Dy360 O375 2.310 . S
Dy360 O376 2.351 . S
C361 O372 1.185 . S
C361 O373 1.355 . S
C362 O364 1.185 . S
C362 O365 1.355 . S
Dy363 O367 2.310 1_556 S
Dy363 O370 2.351 . S
Dy363 O372 2.398 . S
Dy363 O373 2.491 . S
Dy363 O374 2.403 1_556 S
Dy363 O375 2.664 1_556 S
Dy363 O377 2.326 1_556 S
O364 Dy360 2.398 . S
O364 C362 1.185 . S
O365 Dy360 2.491 . S
O365 C362 1.355 . S
O366 Dy360 2.403 . S
O366 C368 1.254 . S
O367 Dy360 2.664 . S
O367 Dy363 2.310 1_554 S
O367 C368 1.268 . S
C368 O366 1.254 . S
C368 O367 1.268 . S
C369 O374 1.254 . S
C369 O375 1.268 . S
O370 Dy363 2.351 . S
O370 C378 1.249 1_556 S
O371 Dy360 2.326 . S
O371 C378 1.267 . S
O372 C361 1.185 . S
O372 Dy363 2.398 . S
O373 C361 1.355 . S
O373 Dy363 2.491 . S
O374 Dy363 2.403 1_554 S
O374 C369 1.254 . S
O375 Dy360 2.310 . S
O375 Dy363 2.664 1_554 S
O375 C369 1.268 . S
O376 Dy360 2.351 . S
O376 C379 1.249 . S
O377 Dy363 2.326 1_554 S
O377 C379 1.267 . S
C378 O370 1.249 1_554 S
C378 O371 1.267 . S
C379 O376 1.249 . S
C379 O377 1.267 . S
Dy380 O384 2.398 . S
Dy380 O385 2.491 . S
Dy380 O386 2.403 . S
Dy380 O387 2.664 . S
Dy380 O391 2.326 . S
Dy380 O395 2.310 . S
Dy380 O396 2.351 . S
C381 O392 1.185 . S
C381 O393 1.355 . S
C382 O384 1.185 . S
C382 O385 1.355 . S
Dy383 O387 2.310 1_556 S
Dy383 O390 2.351 . S
Dy383 O392 2.398 . S
Dy383 O393 2.491 . S
Dy383 O394 2.403 1_556 S
Dy383 O395 2.664 1_556 S
Dy383 O397 2.326 1_556 S
O384 Dy380 2.398 . S
O384 C382 1.185 . S
O385 Dy380 2.491 . S
O385 C382 1.355 . S
O386 Dy380 2.403 . S
O386 C388 1.254 . S
O387 Dy380 2.664 . S
O387 Dy383 2.310 1_554 S
O387 C388 1.268 . S
C388 O386 1.254 . S
C388 O387 1.268 . S
C389 O394 1.254 . S
C389 O395 1.268 . S
O390 Dy383 2.351 . S
O390 C398 1.245 1_556 S
O391 Dy380 2.326 . S
O391 C398 1.274 . S
O392 C381 1.185 . S
O392 Dy383 2.398 . S
O393 C381 1.355 . S
O393 Dy383 2.491 . S
O394 Dy383 2.403 1_554 S
O394 C389 1.254 . S
O395 Dy380 2.310 . S
O395 Dy383 2.664 1_554 S
O395 C389 1.268 . S
O396 Dy380 2.351 . S
O396 C399 1.249 . S
O397 Dy383 2.326 1_554 S
O397 C399 1.267 . S
C398 O390 1.245 1_554 S
C398 O391 1.274 . S
C399 O396 1.249 . S
C399 O397 1.267 . S
Dy400 O404 2.398 . S
Dy400 O405 2.491 . S
Dy400 O406 2.403 . S
Dy400 O407 2.664 . S
Dy400 O411 2.326 . S
Dy400 O415 2.310 . S
Dy400 O416 2.351 . S
C401 O412 1.185 . S
C401 O413 1.355 . S
C402 O404 1.185 . S
C402 O405 1.355 . S
Dy403 O407 2.310 1_556 S
Dy403 O410 2.351 . S
Dy403 O412 2.398 . S
Dy403 O413 2.491 . S
Dy403 O414 2.403 . S
Dy403 O415 2.664 1_556 S
Dy403 O417 2.326 1_556 S
O404 Dy400 2.398 . S
O404 C402 1.185 . S
O405 Dy400 2.491 . S
O405 C402 1.355 . S
O406 Dy400 2.403 . S
O406 C408 1.254 . S
O407 Dy400 2.664 . S
O407 Dy403 2.310 1_554 S
O407 C408 1.268 . S
C408 O406 1.254 . S
C408 O407 1.268 . S
C409 O414 1.254 1_554 S
C409 O415 1.268 . S
O410 Dy403 2.351 . S
O410 C418 1.249 . S
O411 Dy400 2.326 . S
O411 C418 1.267 1_554 S
O412 C401 1.185 . S
O412 Dy403 2.398 . S
O413 C401 1.355 . S
O413 Dy403 2.491 . S
O414 Dy403 2.403 . S
O414 C409 1.254 1_556 S
O415 Dy400 2.310 . S
O415 Dy403 2.664 1_554 S
O415 C409 1.268 . S
O416 Dy400 2.351 . S
O416 C419 1.249 . S
O417 Dy403 2.326 1_554 S
O417 C419 1.267 . S
C418 O410 1.249 . S
C418 O411 1.267 1_556 S
C419 O416 1.249 . S
C419 O417 1.267 . S
Dy420 O424 2.398 . S
Dy420 O425 2.491 . S
Dy420 O426 2.403 . S
Dy420 O427 2.664 1_556 S
Dy420 O431 2.326 1_556 S
Dy420 O435 2.289 1_556 S
Dy420 O436 2.351 . S
C421 O432 1.185 . S
C421 O433 1.355 . S
C422 O424 1.185 . S
C422 O425 1.355 . S
Dy423 O427 2.310 . S
Dy423 O430 2.351 . S
Dy423 O432 2.398 . S
Dy423 O433 2.491 . S
Dy423 O434 2.403 . S
Dy423 O435 2.687 . S
Dy423 O437 2.339 . S
O424 Dy420 2.398 . S
O424 C422 1.185 . S
O425 Dy420 2.491 . S
O425 C422 1.355 . S
O426 Dy420 2.403 . S
O426 C428 1.254 . S
O427 Dy420 2.664 1_554 S
O427 Dy423 2.310 . S
O427 C428 1.268 1_554 S
C428 O426 1.254 . S
C428 O427 1.268 1_556 S
C429 O434 1.254 . S
C429 O435 1.280 . S
O430 Dy423 2.351 . S
O430 C438 1.249 . S
O431 Dy420 2.326 1_554 S
O431 C438 1.267 . S
O432 C421 1.185 . S
O432 Dy423 2.398 . S
O433 C421 1.355 . S
O433 Dy423 2.491 . S
O434 Dy423 2.403 . S
O434 C429 1.254 . S
O435 Dy420 2.289 1_554 S
O435 Dy423 2.687 . S
O435 C429 1.280 . S
O436 Dy420 2.351 . S
O436 C439 1.249 . S
O437 Dy423 2.339 . S
O437 C439 1.252 1_554 S
C438 O430 1.249 . S
C438 O431 1.267 . S
C439 O436 1.249 . S
C439 O437 1.252 1_556 S
Dy440 O444 2.398 . S
Dy440 O445 2.491 . S
Dy440 O446 2.403 . S
Dy440 O447 2.664 1_556 S
Dy440 O451 2.326 1_556 S
Dy440 O455 2.310 . S
Dy440 O456 2.351 . S
C441 O452 1.185 . S
C441 O453 1.355 . S
C442 O444 1.185 . S
C442 O445 1.355 . S
Dy443 O447 2.310 . S
Dy443 O450 2.351 . S
Dy443 O452 2.398 . S
Dy443 O453 2.491 . S
Dy443 O454 2.403 . S
Dy443 O455 2.664 1_554 S
Dy443 O457 2.326 1_554 S
O444 Dy440 2.398 . S
O444 C442 1.185 . S
O445 Dy440 2.491 . S
O445 C442 1.355 . S
O446 Dy440 2.403 . S
O446 C448 1.254 . S
O447 Dy440 2.664 1_554 S
O447 Dy443 2.310 . S
O447 C448 1.268 1_554 S
C448 O446 1.254 . S
C448 O447 1.268 1_556 S
C449 O454 1.254 . S
C449 O455 1.268 1_554 S
O450 Dy443 2.351 . S
O450 C458 1.249 . S
O451 Dy440 2.326 1_554 S
O451 C458 1.267 . S
O452 C441 1.185 . S
O452 Dy443 2.398 . S
O453 C441 1.355 . S
O453 Dy443 2.491 . S
O454 Dy443 2.403 . S
O454 C449 1.254 . S
O455 Dy440 2.310 . S
O455 Dy443 2.664 1_556 S
O455 C449 1.268 1_556 S
O456 Dy440 2.351 . S
O456 C459 1.249 . S
O457 Dy443 2.326 1_556 S
O457 C459 1.267 . S
C458 O450 1.249 . S
C458 O451 1.267 . S
C459 O456 1.249 . S
C459 O457 1.267 . S
Dy460 O464 2.398 . S
Dy460 O465 2.491 . S
Dy460 O466 2.403 . S
Dy460 O467 2.664 1_556 S
Dy460 O471 2.326 1_556 S
Dy460 O475 2.310 1_556 S
Dy460 O476 2.351 . S
C461 O472 1.185 . S
C461 O473 1.355 . S
C462 O464 1.185 . S
C462 O465 1.355 . S
Dy463 O467 2.310 . S
Dy463 O470 2.351 . S
Dy463 O472 2.398 . S
Dy463 O473 2.491 . S
Dy463 O474 2.403 . S
Dy463 O475 2.664 . S
Dy463 O477 2.326 . S
O464 Dy460 2.398 . S
O464 C462 1.185 . S
O465 Dy460 2.491 . S
O465 C462 1.355 . S
O466 Dy460 2.403 . S
O466 C468 1.254 1_556 S
O467 Dy460 2.664 1_554 S
O467 Dy463 2.310 . S
O467 C468 1.268 . S
C468 O466 1.254 1_554 S
C468 O467 1.268 . S
C469 O474 1.254 . S
C469 O475 1.268 . S
O470 Dy463 2.351 . S
O470 C478 1.249 . S
O471 Dy460 2.326 1_554 S
O471 C478 1.267 . S
O472 C461 1.185 . S
O472 Dy463 2.398 . S
O473 C461 1.355 . S
O473 Dy463 2.491 . S
O474 Dy463 2.403 . S
O474 C469 1.254 . S
O475 Dy460 2.310 1_554 S
O475 Dy463 2.664 . S
O475 C469 1.268 . S
O476 Dy460 2.351 . S
O476 C479 1.249 . S
O477 Dy463 2.326 . S
O477 C479 1.267 1_554 S
C478 O470 1.249 . S
C478 O471 1.267 . S
C479 O476 1.249 . S
C479 O477 1.267 1_556 S
Dy480 O484 2.398 . S
Dy480 O485 2.491 . S
Dy480 O486 2.403 . S
Dy480 O487 2.664 . S
Dy480 O491 2.326 . S
Dy480 O495 2.310 . S
Dy480 O496 2.351 . S
C481 O492 1.185 . S
C481 O493 1.355 . S
C482 O484 1.185 . S
C482 O485 1.355 . S
Dy483 O487 2.310 . S
Dy483 O490 2.351 . S
Dy483 O492 2.398 . S
Dy483 O493 2.491 . S
Dy483 O494 2.403 . S
Dy483 O495 2.664 . S
Dy483 O497 2.326 . S
O484 Dy480 2.398 . S
O484 C482 1.185 . S
O485 Dy480 2.491 . S
O485 C482 1.355 . S
O486 Dy480 2.403 . S
O486 C488 1.254 . S
O487 Dy480 2.664 . S
O487 Dy483 2.310 . S
O487 C488 1.268 . S
C488 O486 1.254 . S
C488 O487 1.268 . S
C489 O494 1.254 . S
C489 O495 1.268 . S
O490 Dy483 2.351 . S
O490 C498 1.249 . S
O491 Dy480 2.326 . S
O491 C498 1.267 . S
O492 C481 1.185 . S
O492 Dy483 2.398 . S
O493 C481 1.355 . S
O493 Dy483 2.491 . S
O494 Dy483 2.403 . S
O494 C489 1.254 . S
O495 Dy480 2.310 . S
O495 Dy483 2.664 . S
O495 C489 1.268 . S
O496 Dy480 2.351 . S
O496 C499 1.249 . S
O497 Dy483 2.326 . S
O497 C499 1.267 . S
C498 O490 1.249 . S
C498 O491 1.267 . S
C499 O496 1.249 . S
C499 O497 1.267 . S
Dy500 O504 2.398 . S
Dy500 O505 2.491 . S
Dy500 O506 2.403 . S
Dy500 O507 2.664 . S
Dy500 O511 2.326 . S
Dy500 O515 2.310 . S
Dy500 O516 2.351 . S
C501 O512 1.185 . S
C501 O513 1.355 . S
C502 O504 1.185 . S
C502 O505 1.355 . S
Dy503 O507 2.310 . S
Dy503 O510 2.351 . S
Dy503 O512 2.398 . S
Dy503 O513 2.491 . S
Dy503 O514 2.403 . S
Dy503 O515 2.664 . S
Dy503 O517 2.326 . S
O504 Dy500 2.398 . S
O504 C502 1.185 . S
O505 Dy500 2.491 . S
O505 C502 1.355 . S
O506 Dy500 2.403 . S
O506 C508 1.254 . S
O507 Dy500 2.664 . S
O507 Dy503 2.310 . S
O507 C508 1.268 . S
C508 O506 1.254 . S
C508 O507 1.268 . S
C509 O514 1.254 . S
C509 O515 1.268 . S
O510 Dy503 2.351 . S
O510 C518 1.249 . S
O511 Dy500 2.326 . S
O511 C518 1.267 . S
O512 C501 1.185 . S
O512 Dy503 2.398 . S
O513 C501 1.355 . S
O513 Dy503 2.491 . S
O514 Dy503 2.403 . S
O514 C509 1.254 . S
O515 Dy500 2.310 . S
O515 Dy503 2.664 . S
O515 C509 1.268 . S
O516 Dy500 2.351 . S
O516 C519 1.249 . S
O517 Dy503 2.326 . S
O517 C519 1.267 . S
C518 O510 1.249 . S
C518 O511 1.267 . S
C519 O516 1.249 . S
C519 O517 1.267 . S
Dy520 O524 2.398 . S
Dy520 O525 2.491 . S
Dy520 O526 2.403 . S
Dy520 O527 2.664 . S
Dy520 O531 2.326 . S
Dy520 O535 2.310 . S
Dy520 O536 2.351 . S
C521 O532 1.185 . S
C521 O533 1.355 . S
C522 O524 1.185 . S
C522 O525 1.355 . S
Dy523 O527 2.310 . S
Dy523 O530 2.351 . S
Dy523 O532 2.398 . S
Dy523 O533 2.491 . S
Dy523 O534 2.403 . S
Dy523 O535 2.664 . S
Dy523 O537 2.326 . S
O524 Dy520 2.398 . S
O524 C522 1.185 . S
O525 Dy520 2.491 . S
O525 C522 1.355 . S
O526 Dy520 2.403 . S
O526 C528 1.254 . S
O527 Dy520 2.664 . S
O527 Dy523 2.310 . S
O527 C528 1.268 . S
C528 O526 1.254 . S
C528 O527 1.268 . S
C529 O534 1.254 . S
C529 O535 1.268 . S
O530 Dy523 2.351 . S
O530 C538 1.249 . S
O531 Dy520 2.326 . S
O531 C538 1.267 . S
O532 C521 1.185 . S
O532 Dy523 2.398 . S
O533 C521 1.355 . S
O533 Dy523 2.491 . S
O534 Dy523 2.403 . S
O534 C529 1.254 . S
O535 Dy520 2.310 . S
O535 Dy523 2.664 . S
O535 C529 1.268 . S
O536 Dy520 2.351 . S
O536 C539 1.249 . S
O537 Dy523 2.326 . S
O537 C539 1.267 . S
C538 O530 1.249 . S
C538 O531 1.267 . S
C539 O536 1.249 . S
C539 O537 1.267 . S
Dy540 O544 2.398 . S
Dy540 O545 2.491 . S
Dy540 O546 2.403 . S
Dy540 O547 2.664 . S
Dy540 O551 2.326 . S
Dy540 O555 2.310 . S
Dy540 O556 2.351 . S
C541 O552 1.185 . S
C541 O553 1.355 . S
C542 O544 1.185 . S
C542 O545 1.355 . S
Dy543 O547 2.310 . S
Dy543 O550 2.351 . S
Dy543 O552 2.398 . S
Dy543 O553 2.491 . S
Dy543 O554 2.403 . S
Dy543 O555 2.664 . S
Dy543 O557 2.326 . S
O544 Dy540 2.398 . S
O544 C542 1.185 . S
O545 Dy540 2.491 . S
O545 C542 1.355 . S
O546 Dy540 2.403 . S
O546 C548 1.254 . S
O547 Dy540 2.664 . S
O547 Dy543 2.310 . S
O547 C548 1.268 . S
C548 O546 1.254 . S
C548 O547 1.268 . S
C549 O554 1.254 . S
C549 O555 1.268 . S
O550 Dy543 2.351 . S
O550 C558 1.249 . S
O551 Dy540 2.326 . S
O551 C558 1.267 . S
O552 C541 1.185 . S
O552 Dy543 2.398 . S
O553 C541 1.355 . S
O553 Dy543 2.491 . S
O554 Dy543 2.403 . S
O554 C549 1.254 . S
O555 Dy540 2.310 . S
O555 Dy543 2.664 . S
O555 C549 1.268 . S
O556 Dy540 2.351 . S
O556 C559 1.249 . S
O557 Dy543 2.326 . S
O557 C559 1.267 . S
C558 O550 1.249 . S
C558 O551 1.267 . S
C559 O556 1.249 . S
C559 O557 1.267 . S
Dy560 O564 2.398 . S
Dy560 O565 2.491 . S
Dy560 O566 2.403 . S
Dy560 O567 2.664 . S
Dy560 O571 2.326 . S
Dy560 O575 2.310 . S
Dy560 O576 2.351 . S
C561 O572 1.185 . S
C561 O573 1.355 . S
C562 O564 1.185 . S
C562 O565 1.355 . S
Dy563 O567 2.310 . S
Dy563 O570 2.351 . S
Dy563 O572 2.398 . S
Dy563 O573 2.491 . S
Dy563 O574 2.403 . S
Dy563 O575 2.664 . S
Dy563 O577 2.326 . S
O564 Dy560 2.398 . S
O564 C562 1.185 . S
O565 Dy560 2.491 . S
O565 C562 1.355 . S
O566 Dy560 2.403 . S
O566 C568 1.254 . S
O567 Dy560 2.664 . S
O567 Dy563 2.310 . S
O567 C568 1.268 . S
C568 O566 1.254 . S
C568 O567 1.268 . S
C569 O574 1.254 . S
C569 O575 1.268 . S
O570 Dy563 2.351 . S
O570 C578 1.249 . S
O571 Dy560 2.326 . S
O571 C578 1.267 . S
O572 C561 1.185 . S
O572 Dy563 2.398 . S
O573 C561 1.355 . S
O573 Dy563 2.491 . S
O574 Dy563 2.403 . S
O574 C569 1.254 . S
O575 Dy560 2.310 . S
O575 Dy563 2.664 . S
O575 C569 1.268 . S
O576 Dy560 2.351 . S
O576 C579 1.249 . S
O577 Dy563 2.326 . S
O577 C579 1.267 . S
C578 O570 1.249 . S
C578 O571 1.267 . S
C579 O576 1.249 . S
C579 O577 1.267 . S
Dy580 O584 2.398 . S
Dy580 O585 2.491 . S
Dy580 O586 2.403 . S
Dy580 O587 2.664 . S
Dy580 O591 2.326 . S
Dy580 O595 2.310 . S
Dy580 O596 2.351 . S
C581 O592 1.185 . S
C581 O593 1.355 . S
C582 O584 1.185 . S
C582 O585 1.355 . S
Dy583 O587 2.310 . S
Dy583 O590 2.351 . S
Dy583 O592 2.398 . S
Dy583 O593 2.491 . S
Dy583 O594 2.403 . S
Dy583 O595 2.664 . S
Dy583 O597 2.326 . S
O584 Dy580 2.398 . S
O584 C582 1.185 . S
O585 Dy580 2.491 . S
O585 C582 1.355 . S
O586 Dy580 2.403 . S
O586 C588 1.254 . S
O587 Dy580 2.664 . S
O587 Dy583 2.310 . S
O587 C588 1.268 . S
C588 O586 1.254 . S
C588 O587 1.268 . S
C589 O594 1.254 . S
C589 O595 1.268 . S
O590 Dy583 2.351 . S
O590 C598 1.249 . S
O591 Dy580 2.326 . S
O591 C598 1.267 . S
O592 C581 1.185 . S
O592 Dy583 2.398 . S
O593 C581 1.355 . S
O593 Dy583 2.491 . S
O594 Dy583 2.403 . S
O594 C589 1.254 . S
O595 Dy580 2.310 . S
O595 Dy583 2.664 . S
O595 C589 1.268 . S
O596 Dy580 2.351 . S
O596 C599 1.249 . S
O597 Dy583 2.326 . S
O597 C599 1.267 . S
C598 O590 1.249 . S
C598 O591 1.267 . S
C599 O596 1.249 . S
C599 O597 1.267 . S
Dy600 O604 2.398 . S
Dy600 O605 2.491 . S
Dy600 O606 2.403 . S
Dy600 O607 2.664 . S
Dy600 O611 2.326 . S
Dy600 O615 2.310 . S
Dy600 O616 2.351 . S
C601 O612 1.185 . S
C601 O613 1.355 . S
C602 O604 1.185 . S
C602 O605 1.355 . S
Dy603 O607 2.310 . S
Dy603 O610 2.351 . S
Dy603 O612 2.398 . S
Dy603 O613 2.491 . S
Dy603 O614 2.403 . S
Dy603 O615 2.664 . S
Dy603 O617 2.326 . S
O604 Dy600 2.398 . S
O604 C602 1.185 . S
O605 Dy600 2.491 . S
O605 C602 1.355 . S
O606 Dy600 2.403 . S
O606 C608 1.254 . S
O607 Dy600 2.664 . S
O607 Dy603 2.310 . S
O607 C608 1.268 . S
C608 O606 1.254 . S
C608 O607 1.268 . S
C609 O614 1.254 . S
C609 O615 1.268 . S
O610 Dy603 2.351 . S
O610 C618 1.249 . S
O611 Dy600 2.326 . S
O611 C618 1.267 . S
O612 C601 1.185 . S
O612 Dy603 2.398 . S
O613 C601 1.355 . S
O613 Dy603 2.491 . S
O614 Dy603 2.403 . S
O614 C609 1.254 . S
O615 Dy600 2.310 . S
O615 Dy603 2.664 . S
O615 C609 1.268 . S
O616 Dy600 2.351 . S
O616 C619 1.249 . S
O617 Dy603 2.326 . S
O617 C619 1.267 . S
C618 O610 1.249 . S
C618 O611 1.267 . S
C619 O616 1.249 . S
C619 O617 1.267 . S
Dy620 O624 2.398 . S
Dy620 O625 2.491 . S
Dy620 O626 2.403 . S
Dy620 O627 2.664 . S
Dy620 O631 2.326 . S
Dy620 O635 2.310 . S
Dy620 O636 2.351 . S
C621 O632 1.185 . S
C621 O633 1.355 . S
C622 O624 1.185 . S
C622 O625 1.355 . S
Dy623 O627 2.310 . S
Dy623 O630 2.351 . S
Dy623 O632 2.398 . S
Dy623 O633 2.491 . S
Dy623 O634 2.403 . S
Dy623 O635 2.664 . S
Dy623 O637 2.326 . S
O624 Dy620 2.398 . S
O624 C622 1.185 . S
O625 Dy620 2.491 . S
O625 C622 1.355 . S
O626 Dy620 2.403 . S
O626 C628 1.254 . S
O627 Dy620 2.664 . S
O627 Dy623 2.310 . S
O627 C628 1.268 . S
C628 O626 1.254 . S
C628 O627 1.268 . S
C629 O634 1.254 . S
C629 O635 1.268 . S
O630 Dy623 2.351 . S
O630 C638 1.249 . S
O631 Dy620 2.326 . S
O631 C638 1.267 . S
O632 C621 1.185 . S
O632 Dy623 2.398 . S
O633 C621 1.355 . S
O633 Dy623 2.491 . S
O634 Dy623 2.403 . S
O634 C629 1.254 . S
O635 Dy620 2.310 . S
O635 Dy623 2.664 . S
O635 C629 1.268 . S
O636 Dy620 2.351 . S
O636 C639 1.249 . S
O637 Dy623 2.326 . S
O637 C639 1.267 . S
C638 O630 1.249 . S
C638 O631 1.267 . S
C639 O636 1.249 . S
C639 O637 1.267 . S
Dy640 O644 2.398 . S
Dy640 O645 2.491 . S
Dy640 O646 2.403 . S
Dy640 O647 2.664 . S
Dy640 O651 2.326 . S
Dy640 O655 2.310 . S
Dy640 O656 2.351 . S
C641 O652 1.185 . S
C641 O653 1.355 . S
C642 O644 1.185 . S
C642 O645 1.355 . S
Dy643 O647 2.310 . S
Dy643 O650 2.351 . S
Dy643 O652 2.398 . S
Dy643 O653 2.491 . S
Dy643 O654 2.403 . S
Dy643 O655 2.664 . S
Dy643 O657 2.326 . S
O644 Dy640 2.398 . S
O644 C642 1.185 . S
O645 Dy640 2.491 . S
O645 C642 1.355 . S
O646 Dy640 2.403 . S
O646 C648 1.254 . S
O647 Dy640 2.664 . S
O647 Dy643 2.310 . S
O647 C648 1.268 . S
C648 O646 1.254 . S
C648 O647 1.268 . S
C649 O654 1.254 . S
C649 O655 1.268 . S
O650 Dy643 2.351 . S
O650 C658 1.249 . S
O651 Dy640 2.326 . S
O651 C658 1.267 . S
O652 C641 1.185 . S
O652 Dy643 2.398 . S
O653 C641 1.355 . S
O653 Dy643 2.491 . S
O654 Dy643 2.403 . S
O654 C649 1.254 . S
O655 Dy640 2.310 . S
O655 Dy643 2.664 . S
O655 C649 1.268 . S
O656 Dy640 2.351 . S
O656 C659 1.249 . S
O657 Dy643 2.326 . S
O657 C659 1.267 . S
C658 O650 1.249 . S
C658 O651 1.267 . S
C659 O656 1.249 . S
C659 O657 1.267 . S
Dy660 O664 2.398 . S
Dy660 O665 2.491 . S
Dy660 O666 2.403 . S
Dy660 O667 2.664 . S
Dy660 O671 2.326 . S
Dy660 O675 2.310 . S
Dy660 O676 2.351 . S
C661 O672 1.185 . S
C661 O673 1.355 . S
C662 O664 1.185 . S
C662 O665 1.355 . S
Dy663 O667 2.310 . S
Dy663 O670 2.351 . S
Dy663 O672 2.398 . S
Dy663 O673 2.491 . S
Dy663 O674 2.403 . S
Dy663 O675 2.664 . S
Dy663 O677 2.326 . S
O664 Dy660 2.398 . S
O664 C662 1.185 . S
O665 Dy660 2.491 . S
O665 C662 1.355 . S
O666 Dy660 2.403 . S
O666 C668 1.254 . S
O667 Dy660 2.664 . S
O667 Dy663 2.310 . S
O667 C668 1.268 . S
C668 O666 1.254 . S
C668 O667 1.268 . S
C669 O674 1.254 . S
C669 O675 1.268 . S
O670 Dy663 2.351 . S
O670 C678 1.249 . S
O671 Dy660 2.326 . S
O671 C678 1.267 . S
O672 C661 1.185 . S
O672 Dy663 2.398 . S
O673 C661 1.355 . S
O673 Dy663 2.491 . S
O674 Dy663 2.403 . S
O674 C669 1.254 . S
O675 Dy660 2.310 . S
O675 Dy663 2.664 . S
O675 C669 1.268 . S
O676 Dy660 2.351 . S
O676 C679 1.249 . S
O677 Dy663 2.326 . S
O677 C679 1.267 . S
C678 O670 1.249 . S
C678 O671 1.267 . S
C679 O676 1.249 . S
C679 O677 1.267 . S
Dy680 O684 2.398 . S
Dy680 O685 2.491 . S
Dy680 O686 2.403 . S
Dy680 O687 2.664 . S
Dy680 O691 2.326 . S
Dy680 O695 2.310 . S
Dy680 O696 2.351 . S
C681 O692 1.185 . S
C681 O693 1.355 . S
C682 O684 1.185 . S
C682 O685 1.355 . S
Dy683 O687 2.310 . S
Dy683 O690 2.351 . S
Dy683 O692 2.398 . S
Dy683 O693 2.491 . S
Dy683 O694 2.403 . S
Dy683 O695 2.664 . S
Dy683 O697 2.326 . S
O684 Dy680 2.398 . S
O684 C682 1.185 . S
O685 Dy680 2.491 . S
O685 C682 1.355 . S
O686 Dy680 2.403 . S
O686 C688 1.254 . S
O687 Dy680 2.664 . S
O687 Dy683 2.310 . S
O687 C688 1.268 . S
C688 O686 1.254 . S
C688 O687 1.268 . S
C689 O694 1.254 . S
C689 O695 1.268 . S
O690 Dy683 2.351 . S
O690 C698 1.249 . S
O691 Dy680 2.326 . S
O691 C698 1.267 . S
O692 C681 1.185 . S
O692 Dy683 2.398 . S
O693 C681 1.355 . S
O693 Dy683 2.491 . S
O694 Dy683 2.403 . S
O694 C689 1.254 . S
O695 Dy680 2.310 . S
O695 Dy683 2.664 . S
O695 C689 1.268 . S
O696 Dy680 2.351 . S
O696 C699 1.249 . S
O697 Dy683 2.326 . S
O697 C699 1.267 . S
C698 O690 1.249 . S
C698 O691 1.267 . S
C699 O696 1.249 . S
C699 O697 1.267 . S
Dy700 O704 2.398 . S
Dy700 O705 2.491 . S
Dy700 O706 2.403 . S
Dy700 O707 2.664 . S
Dy700 O711 2.326 . S
Dy700 O715 2.310 . S
Dy700 O716 2.351 . S
C701 O712 1.185 . S
C701 O713 1.355 . S
C702 O704 1.185 . S
C702 O705 1.355 . S
Dy703 O707 2.310 . S
Dy703 O710 2.351 . S
Dy703 O712 2.398 . S
Dy703 O713 2.491 . S
Dy703 O714 2.403 . S
Dy703 O715 2.664 . S
Dy703 O717 2.326 . S
O704 Dy700 2.398 . S
O704 C702 1.185 . S
O705 Dy700 2.491 . S
O705 C702 1.355 . S
O706 Dy700 2.403 . S
O706 C708 1.254 . S
O707 Dy700 2.664 . S
O707 Dy703 2.310 . S
O707 C708 1.268 . S
C708 O706 1.254 . S
C708 O707 1.268 . S
C709 O714 1.254 . S
C709 O715 1.268 . S
O710 Dy703 2.351 . S
O710 C718 1.249 . S
O711 Dy700 2.326 . S
O711 C718 1.267 . S
O712 C701 1.185 . S
O712 Dy703 2.398 . S
O713 C701 1.355 . S
O713 Dy703 2.491 . S
O714 Dy703 2.403 . S
O714 C709 1.254 . S
O715 Dy700 2.310 . S
O715 Dy703 2.664 . S
O715 C709 1.268 . S
O716 Dy700 2.351 . S
O716 C719 1.249 . S
O717 Dy703 2.326 . S
O717 C719 1.267 . S
C718 O710 1.249 . S
C718 O711 1.267 . S
C719 O716 1.249 . S
C719 O717 1.267 . S
Dy720 O724 2.398 . S
Dy720 O725 2.491 . S
Dy720 O726 2.403 . S
Dy720 O727 2.664 . S
Dy720 O731 2.326 . S
Dy720 O735 2.310 . S
Dy720 O736 2.351 . S
C721 O732 1.185 . S
C721 O733 1.355 . S
C722 O724 1.185 . S
C722 O725 1.355 . S
Dy723 O727 2.310 . S
Dy723 O730 2.351 . S
Dy723 O732 2.398 . S
Dy723 O733 2.491 . S
Dy723 O734 2.403 . S
Dy723 O735 2.664 . S
Dy723 O737 2.326 . S
O724 Dy720 2.398 . S
O724 C722 1.185 . S
O725 Dy720 2.491 . S
O725 C722 1.355 . S
O726 Dy720 2.403 . S
O726 C728 1.254 . S
O727 Dy720 2.664 . S
O727 Dy723 2.310 . S
O727 C728 1.268 . S
C728 O726 1.254 . S
C728 O727 1.268 . S
C729 O734 1.254 . S
C729 O735 1.268 . S
O730 Dy723 2.351 . S
O730 C738 1.249 . S
O731 Dy720 2.326 . S
O731 C738 1.267 . S
O732 C721 1.185 . S
O732 Dy723 2.398 . S
O733 C721 1.355 . S
O733 Dy723 2.491 . S
O734 Dy723 2.403 . S
O734 C729 1.254 . S
O735 Dy720 2.310 . S
O735 Dy723 2.664 . S
O735 C729 1.268 . S
O736 Dy720 2.351 . S
O736 C739 1.249 . S
O737 Dy723 2.326 . S
O737 C739 1.267 . S
C738 O730 1.249 . S
C738 O731 1.267 . S
C739 O736 1.249 . S
C739 O737 1.267 . S
Dy740 O744 2.398 . S
Dy740 O745 2.491 . S
Dy740 O746 2.403 . S
Dy740 O747 2.664 . S
Dy740 O751 2.326 . S
Dy740 O755 2.310 . S
Dy740 O756 2.351 . S
C741 O752 1.185 . S
C741 O753 1.355 . S
C742 O744 1.185 . S
C742 O745 1.355 . S
Dy743 O747 2.310 . S
Dy743 O750 2.351 . S
Dy743 O752 2.398 . S
Dy743 O753 2.491 . S
Dy743 O754 2.403 . S
Dy743 O755 2.664 . S
Dy743 O757 2.326 . S
O744 Dy740 2.398 . S
O744 C742 1.185 . S
O745 Dy740 2.491 . S
O745 C742 1.355 . S
O746 Dy740 2.403 . S
O746 C748 1.254 . S
O747 Dy740 2.664 . S
O747 Dy743 2.310 . S
O747 C748 1.268 . S
C748 O746 1.254 . S
C748 O747 1.268 . S
C749 O754 1.254 . S
C749 O755 1.268 . S
O750 Dy743 2.351 . S
O750 C758 1.249 . S
O751 Dy740 2.326 . S
O751 C758 1.267 . S
O752 C741 1.185 . S
O752 Dy743 2.398 . S
O753 C741 1.355 . S
O753 Dy743 2.491 . S
O754 Dy743 2.403 . S
O754 C749 1.254 . S
O755 Dy740 2.310 . S
O755 Dy743 2.664 . S
O755 C749 1.268 . S
O756 Dy740 2.351 . S
O756 C759 1.249 . S
O757 Dy743 2.326 . S
O757 C759 1.267 . S
C758 O750 1.249 . S
C758 O751 1.267 . S
C759 O756 1.249 . S
C759 O757 1.267 . S
Dy760 O764 2.398 . S
Dy760 O765 2.491 . S
Dy760 O766 2.403 . S
Dy760 O767 2.664 . S
Dy760 O771 2.326 . S
Dy760 O775 2.310 . S
Dy760 O776 2.351 . S
C761 O772 1.185 . S
C761 O773 1.355 . S
C762 O764 1.185 . S
C762 O765 1.355 . S
Dy763 O767 2.310 . S
Dy763 O770 2.351 . S
Dy763 O772 2.398 . S
Dy763 O773 2.491 . S
Dy763 O774 2.403 . S
Dy763 O775 2.664 . S
Dy763 O777 2.326 . S
O764 Dy760 2.398 . S
O764 C762 1.185 . S
O765 Dy760 2.491 . S
O765 C762 1.355 . S
O766 Dy760 2.403 . S
O766 C768 1.254 . S
O767 Dy760 2.664 . S
O767 Dy763 2.310 . S
O767 C768 1.268 . S
C768 O766 1.254 . S
C768 O767 1.268 . S
C769 O774 1.254 . S
C769 O775 1.268 . S
O770 Dy763 2.351 . S
O770 C778 1.249 . S
O771 Dy760 2.326 . S
O771 C778 1.267 . S
O772 C761 1.185 . S
O772 Dy763 2.398 . S
O773 C761 1.355 . S
O773 Dy763 2.491 . S
O774 Dy763 2.403 . S
O774 C769 1.254 . S
O775 Dy760 2.310 . S
O775 Dy763 2.664 . S
O775 C769 1.268 . S
O776 Dy760 2.351 . S
O776 C779 1.249 . S
O777 Dy763 2.326 . S
O777 C779 1.267 . S
C778 O770 1.249 . S
C778 O771 1.267 . S
C779 O776 1.249 . S
C779 O777 1.267 . S
Dy780 O784 2.398 . S
Dy780 O785 2.491 . S
Dy780 O786 2.403 . S
Dy780 O787 2.664 . S
Dy780 O791 2.326 . S
Dy780 O795 2.310 . S
Dy780 O796 2.351 . S
C781 O792 1.185 . S
C781 O793 1.355 . S
C782 O784 1.185 . S
C782 O785 1.355 . S
Dy783 O787 2.310 . S
Dy783 O790 2.351 . S
Dy783 O792 2.398 . S
Dy783 O793 2.491 . S
Dy783 O794 2.403 . S
Dy783 O795 2.664 . S
Dy783 O797 2.326 . S
O784 Dy780 2.398 . S
O784 C782 1.185 . S
O785 Dy780 2.491 . S
O785 C782 1.355 . S
O786 Dy780 2.403 . S
O786 C788 1.254 . S
O787 Dy780 2.664 . S
O787 Dy783 2.310 . S
O787 C788 1.268 . S
C788 O786 1.254 . S
C788 O787 1.268 . S
C789 O794 1.254 . S
C789 O795 1.268 . S
O790 Dy783 2.351 . S
O790 C798 1.249 . S
O791 Dy780 2.326 . S
O791 C798 1.267 . S
O792 C781 1.185 . S
O792 Dy783 2.398 . S
O793 C781 1.355 . S
O793 Dy783 2.491 . S
O794 Dy783 2.403 . S
O794 C789 1.254 . S
O795 Dy780 2.310 . S
O795 Dy783 2.664 . S
O795 C789 1.268 . S
O796 Dy780 2.351 . S
O796 C799 1.249 . S
O797 Dy783 2.326 . S
O797 C799 1.267 . S
C798 O790 1.249 . S
C798 O791 1.267 . S
C799 O796 1.249 . S
C799 O797 1.267 . S
Dy800 O804 2.398 . S
Dy800 O805 2.491 . S
Dy800 O806 2.403 . S
Dy800 O807 2.664 . S
Dy800 O811 2.326 . S
Dy800 O815 2.310 . S
Dy800 O816 2.351 . S
C801 O812 1.185 . S
C801 O813 1.355 . S
C802 O804 1.185 . S
C802 O805 1.355 . S
Dy803 O807 2.310 . S
Dy803 O810 2.351 . S
Dy803 O812 2.398 . S
Dy803 O813 2.491 . S
Dy803 O814 2.403 . S
Dy803 O815 2.664 . S
Dy803 O817 2.326 . S
O804 Dy800 2.398 . S
O804 C802 1.185 . S
O805 Dy800 2.491 . S
O805 C802 1.355 . S
O806 Dy800 2.403 . S
O806 C808 1.254 . S
O807 Dy800 2.664 . S
O807 Dy803 2.310 . S
O807 C808 1.268 . S
C808 O806 1.254 . S
C808 O807 1.268 . S
C809 O814 1.254 . S
C809 O815 1.268 . S
O810 Dy803 2.351 . S
O810 C818 1.249 . S
O811 Dy800 2.326 . S
O811 C818 1.267 . S
O812 C801 1.185 . S
O812 Dy803 2.398 . S
O813 C801 1.355 . S
O813 Dy803 2.491 . S
O814 Dy803 2.403 . S
O814 C809 1.254 . S
O815 Dy800 2.310 . S
O815 Dy803 2.664 . S
O815 C809 1.268 . S
O816 Dy800 2.351 . S
O816 C819 1.249 . S
O817 Dy803 2.326 . S
O817 C819 1.267 . S
C818 O810 1.249 . S
C818 O811 1.267 . S
C819 O816 1.249 . S
C819 O817 1.267 . S
Dy820 O824 2.398 . S
Dy820 O825 2.491 . S
Dy820 O826 2.403 . S
Dy820 O827 2.664 . S
Dy820 O831 2.326 . S
Dy820 O835 2.310 . S
Dy820 O836 2.351 . S
C821 O832 1.185 . S
C821 O833 1.355 . S
C822 O824 1.185 . S
C822 O825 1.355 . S
Dy823 O827 2.310 . S
Dy823 O830 2.351 . S
Dy823 O832 2.398 . S
Dy823 O833 2.491 . S
Dy823 O834 2.403 . S
Dy823 O835 2.664 . S
Dy823 O837 2.326 . S
O824 Dy820 2.398 . S
O824 C822 1.185 . S
O825 Dy820 2.491 . S
O825 C822 1.355 . S
O826 Dy820 2.403 . S
O826 C828 1.254 . S
O827 Dy820 2.664 . S
O827 Dy823 2.310 . S
O827 C828 1.268 . S
C828 O826 1.254 . S
C828 O827 1.268 . S
C829 O834 1.254 . S
C829 O835 1.268 . S
O830 Dy823 2.351 . S
O830 C838 1.249 . S
O831 Dy820 2.326 . S
O831 C838 1.267 . S
O832 C821 1.185 . S
O832 Dy823 2.398 . S
O833 C821 1.355 . S
O833 Dy823 2.491 . S
O834 Dy823 2.403 . S
O834 C829 1.254 . S
O835 Dy820 2.310 . S
O835 Dy823 2.664 . S
O835 C829 1.268 . S
O836 Dy820 2.351 . S
O836 C839 1.249 . S
O837 Dy823 2.326 . S
O837 C839 1.267 . S
C838 O830 1.249 . S
C838 O831 1.267 . S
C839 O836 1.249 . S
C839 O837 1.267 . S
Dy840 O844 2.398 . S
Dy840 O845 2.491 . S
Dy840 O846 2.403 . S
Dy840 O847 2.664 . S
Dy840 O851 2.326 . S
Dy840 O855 2.310 . S
Dy840 O856 2.351 . S
C841 O852 1.185 . S
C841 O853 1.355 . S
C842 O844 1.185 . S
C842 O845 1.355 . S
Dy843 O847 2.310 . S
Dy843 O850 2.351 . S
Dy843 O852 2.398 . S
Dy843 O853 2.491 . S
Dy843 O854 2.403 . S
Dy843 O855 2.664 . S
Dy843 O857 2.326 . S
O844 Dy840 2.398 . S
O844 C842 1.185 . S
O845 Dy840 2.491 . S
O845 C842 1.355 . S
O846 Dy840 2.403 . S
O846 C848 1.254 . S
O847 Dy840 2.664 . S
O847 Dy843 2.310 . S
O847 C848 1.268 . S
C848 O846 1.254 . S
C848 O847 1.268 . S
C849 O854 1.254 . S
C849 O855 1.268 . S
O850 Dy843 2.351 . S
O850 C858 1.249 . S
O851 Dy840 2.326 . S
O851 C858 1.267 . S
O852 C841 1.185 . S
O852 Dy843 2.398 . S
O853 C841 1.355 . S
O853 Dy843 2.491 . S
O854 Dy843 2.403 . S
O854 C849 1.254 . S
O855 Dy840 2.310 . S
O855 Dy843 2.664 . S
O855 C849 1.268 . S
O856 Dy840 2.351 . S
O856 C859 1.249 . S
O857 Dy843 2.326 . S
O857 C859 1.267 . S
C858 O850 1.249 . S
C858 O851 1.267 . S
C859 O856 1.249 . S
C859 O857 1.267 . S
Dy860 O864 2.398 . S
Dy860 O865 2.491 . S
Dy860 O866 2.403 . S
Dy860 O867 2.664 . S
Dy860 O871 2.326 . S
Dy860 O875 2.310 . S
Dy860 O876 2.351 . S
C861 O872 1.185 . S
C861 O873 1.355 . S
C862 O864 1.185 . S
C862 O865 1.355 . S
Dy863 O867 2.310 . S
Dy863 O870 2.351 . S
Dy863 O872 2.398 . S
Dy863 O873 2.491 . S
Dy863 O874 2.403 . S
Dy863 O875 2.664 . S
Dy863 O877 2.326 . S
O864 Dy860 2.398 . S
O864 C862 1.185 . S
O865 Dy860 2.491 . S
O865 C862 1.355 . S
O866 Dy860 2.403 . S
O866 C868 1.254 . S
O867 Dy860 2.664 . S
O867 Dy863 2.310 . S
O867 C868 1.268 . S
C868 O866 1.254 . S
C868 O867 1.268 . S
C869 O874 1.254 . S
C869 O875 1.268 . S
O870 Dy863 2.351 . S
O870 C878 1.249 . S
O871 Dy860 2.326 . S
O871 C878 1.267 . S
O872 C861 1.185 . S
O872 Dy863 2.398 . S
O873 C861 1.355 . S
O873 Dy863 2.491 . S
O874 Dy863 2.403 . S
O874 C869 1.254 . S
O875 Dy860 2.310 . S
O875 Dy863 2.664 . S
O875 C869 1.268 . S
O876 Dy860 2.351 . S
O876 C879 1.249 . S
O877 Dy863 2.326 . S
O877 C879 1.267 . S
C878 O870 1.249 . S
C878 O871 1.267 . S
C879 O876 1.249 . S
C879 O877 1.267 . S
Dy880 O884 2.398 . S
Dy880 O885 2.491 . S
Dy880 O886 2.403 . S
Dy880 O887 2.664 . S
Dy880 O891 2.326 . S
Dy880 O895 2.310 . S
Dy880 O896 2.351 . S
C881 O892 1.185 . S
C881 O893 1.355 . S
C882 O884 1.185 . S
C882 O885 1.355 . S
Dy883 O887 2.310 . S
Dy883 O890 2.351 . S
Dy883 O892 2.398 . S
Dy883 O893 2.491 . S
Dy883 O894 2.403 . S
Dy883 O895 2.664 . S
Dy883 O897 2.326 . S
O884 Dy880 2.398 . S
O884 C882 1.185 . S
O885 Dy880 2.491 . S
O885 C882 1.355 . S
O886 Dy880 2.403 . S
O886 C888 1.254 . S
O887 Dy880 2.664 . S
O887 Dy883 2.310 . S
O887 C888 1.268 . S
C888 O886 1.254 . S
C888 O887 1.268 . S
C889 O894 1.254 . S
C889 O895 1.268 . S
O890 Dy883 2.351 . S
O890 C898 1.249 . S
O891 Dy880 2.326 . S
O891 C898 1.267 . S
O892 C881 1.185 . S
O892 Dy883 2.398 . S
O893 C881 1.355 . S
O893 Dy883 2.491 . S
O894 Dy883 2.403 . S
O894 C889 1.254 . S
O895 Dy880 2.310 . S
O895 Dy883 2.664 . S
O895 C889 1.268 . S
O896 Dy880 2.351 . S
O896 C899 1.249 . S
O897 Dy883 2.326 . S
O897 C899 1.267 . S
C898 O890 1.249 . S
C898 O891 1.267 . S
C899 O896 1.249 . S
C899 O897 1.267 . S
Dy900 O904 2.398 . S
Dy900 O905 2.491 . S
Dy900 O906 2.403 . S
Dy900 O907 2.664 . S
Dy900 O911 2.326 . S
Dy900 O915 2.310 . S
Dy900 O916 2.351 . S
C901 O912 1.185 . S
C901 O913 1.355 . S
C902 O904 1.185 . S
C902 O905 1.355 . S
Dy903 O907 2.310 . S
Dy903 O910 2.351 . S
Dy903 O912 2.398 . S
Dy903 O913 2.491 . S
Dy903 O914 2.403 . S
Dy903 O915 2.664 . S
Dy903 O917 2.326 . S
O904 Dy900 2.398 . S
O904 C902 1.185 . S
O905 Dy900 2.491 . S
O905 C902 1.355 . S
O906 Dy900 2.403 . S
O906 C908 1.254 . S
O907 Dy900 2.664 . S
O907 Dy903 2.310 . S
O907 C908 1.268 . S
C908 O906 1.254 . S
C908 O907 1.268 . S
C909 O914 1.254 . S
C909 O915 1.268 . S
O910 Dy903 2.351 . S
O910 C918 1.249 . S
O911 Dy900 2.326 . S
O911 C918 1.267 . S
O912 C901 1.185 . S
O912 Dy903 2.398 . S
O913 C901 1.355 . S
O913 Dy903 2.491 . S
O914 Dy903 2.403 . S
O914 C909 1.254 . S
O915 Dy900 2.310 . S
O915 Dy903 2.664 . S
O915 C909 1.268 . S
O916 Dy900 2.351 . S
O916 C919 1.249 . S
O917 Dy903 2.326 . S
O917 C919 1.267 . S
C918 O910 1.249 . S
C918 O911 1.267 . S
C919 O916 1.249 . S
C919 O917 1.267 . S
Dy920 O924 2.398 . S
Dy920 O925 2.491 . S
Dy920 O926 2.403 . S
Dy920 O927 2.664 . S
Dy920 O931 2.326 . S
Dy920 O935 2.310 . S
Dy920 O936 2.351 . S
C921 O932 1.185 . S
C921 O933 1.355 . S
C922 O924 1.185 . S
C922 O925 1.355 . S
Dy923 O927 2.310 . S
Dy923 O930 2.351 . S
Dy923 O932 2.398 . S
Dy923 O933 2.491 . S
Dy923 O934 2.403 . S
Dy923 O935 2.664 . S
Dy923 O937 2.326 . S
O924 Dy920 2.398 . S
O924 C922 1.185 . S
O925 Dy920 2.491 . S
O925 C922 1.355 . S
O926 Dy920 2.403 . S
O926 C928 1.254 . S
O927 Dy920 2.664 . S
O927 Dy923 2.310 . S
O927 C928 1.268 . S
C928 O926 1.254 . S
C928 O927 1.268 . S
C929 O934 1.254 . S
C929 O935 1.268 . S
O930 Dy923 2.351 . S
O930 C938 1.249 . S
O931 Dy920 2.326 . S
O931 C938 1.267 . S
O932 C921 1.185 . S
O932 Dy923 2.398 . S
O933 C921 1.355 . S
O933 Dy923 2.491 . S
O934 Dy923 2.403 . S
O934 C929 1.254 . S
O935 Dy920 2.310 . S
O935 Dy923 2.664 . S
O935 C929 1.268 . S
O936 Dy920 2.351 . S
O936 C939 1.249 . S
O937 Dy923 2.326 . S
O937 C939 1.267 . S
C938 O930 1.249 . S
C938 O931 1.267 . S
C939 O936 1.249 . S
C939 O937 1.267 . S
Dy940 O944 2.398 . S
Dy940 O945 2.491 . S
Dy940 O946 2.403 . S
Dy940 O947 2.664 . S
Dy940 O951 2.326 . S
Dy940 O955 2.310 . S
Dy940 O956 2.351 . S
C941 O952 1.185 . S
C941 O953 1.355 . S
C942 O944 1.185 . S
C942 O945 1.355 . S
Dy943 O947 2.310 . S
Dy943 O950 2.351 . S
Dy943 O952 2.398 . S
Dy943 O953 2.491 . S
Dy943 O954 2.403 . S
Dy943 O955 2.664 . S
Dy943 O957 2.326 . S
O944 Dy940 2.398 . S
O944 C942 1.185 . S
O945 Dy940 2.491 . S
O945 C942 1.355 . S
O946 Dy940 2.403 . S
O946 C948 1.254 . S
O947 Dy940 2.664 . S
O947 Dy943 2.310 . S
O947 C948 1.268 . S
C948 O946 1.254 . S
C948 O947 1.268 . S
C949 O954 1.254 . S
C949 O955 1.268 . S
O950 Dy943 2.351 . S
O950 C958 1.249 . S
O951 Dy940 2.326 . S
O951 C958 1.267 . S
O952 C941 1.185 . S
O952 Dy943 2.398 . S
O953 C941 1.355 . S
O953 Dy943 2.491 . S
O954 Dy943 2.403 . S
O954 C949 1.254 . S
O955 Dy940 2.310 . S
O955 Dy943 2.664 . S
O955 C949 1.268 . S
O956 Dy940 2.351 . S
O956 C959 1.249 . S
O957 Dy943 2.326 . S
O957 C959 1.267 . S
C958 O950 1.249 . S
C958 O951 1.267 . S
C959 O956 1.249 . S
C959 O957 1.267 . S
C960 C961 1.369 1_655 S
C960 C962 1.419 . S
C960 H964 0.930 . S
C961 C960 1.369 1_455 S
C961 C970 1.429 . S
C962 C960 1.419 . S
C962 C963 1.363 1_655 S
C962 H965 0.929 . S
C963 C962 1.363 1_455 S
C963 C969 1.428 . S
H964 C960 0.930 . S
H965 C962 0.929 . S
S966 N967 1.613 . S
S966 N968 1.610 . S
N967 S966 1.613 . S
N967 C970 1.350 . S
N968 S966 1.610 . S
N968 C969 1.351 . S
C969 C963 1.428 . S
C969 N968 1.351 . S
C969 C970 1.434 . S
C970 C961 1.429 . S
C970 N967 1.350 . S
C970 C969 1.434 . S
C971 C972 1.369 . S
C971 C973 1.419 . S
C971 H975 0.930 . S
C972 C971 1.369 . S
C972 C981 1.429 . S
C973 C971 1.419 . S
C973 C974 1.363 . S
C973 H976 0.929 . S
C974 C973 1.363 . S
C974 C980 1.428 . S
H975 C971 0.930 . S
H976 C973 0.929 . S
S977 N978 1.613 . S
S977 N979 1.610 . S
N978 S977 1.613 . S
N978 C981 1.350 1_565 S
N979 S977 1.610 . S
N979 C980 1.351 1_565 S
C980 C974 1.428 . S
C980 N979 1.351 1_545 S
C980 C981 1.434 . S
C981 C972 1.429 . S
C981 N978 1.350 1_545 S
C981 C980 1.434 . S
C982 C983 1.369 . S
C982 C984 1.419 . S
C982 H986 0.930 . S
C983 C982 1.369 . S
C983 C992 1.429 . S
C984 C982 1.419 . S
C984 C985 1.363 . S
C984 H987 0.929 . S
C985 C984 1.363 . S
C985 C991 1.428 . S
H986 C982 0.930 . S
H987 C984 0.929 . S
S988 N989 1.613 . S
S988 N990 1.610 . S
N989 S988 1.613 . S
N989 C992 1.350 1_655 S
N990 S988 1.610 . S
N990 C991 1.351 1_655 S
C991 C985 1.428 . S
C991 N990 1.351 1_455 S
C991 C992 1.434 . S
C992 C983 1.429 . S
C992 N989 1.350 1_455 S
C992 C991 1.434 . S
C993 C994 1.369 . S
C993 C995 1.419 . S
C993 H997 0.930 . S
C994 C993 1.369 . S
C994 C1003 1.429 . S
C995 C993 1.419 . S
C995 C996 1.363 . S
C995 H998 0.929 . S
C996 C995 1.363 . S
C996 C1002 1.428 . S
H997 C993 0.930 . S
H998 C995 0.929 . S
S999 N1000 1.613 . S
S999 N1001 1.610 . S
N1000 S999 1.613 . S
N1000 C1003 1.350 . S
N1001 S999 1.610 . S
N1001 C1002 1.351 . S
C1002 C996 1.428 . S
C1002 N1001 1.351 . S
C1002 C1003 1.434 . S
C1003 C994 1.429 . S
C1003 N1000 1.350 . S
C1003 C1002 1.434 . S
C1004 C1005 1.369 . S
C1004 C1006 1.419 . S
C1004 H1008 0.930 . S
C1005 C1004 1.369 . S
C1005 C1014 1.429 . S
C1006 C1004 1.419 . S
C1006 C1007 1.363 . S
C1006 H1009 0.929 . S
C1007 C1006 1.363 . S
C1007 C1013 1.428 . S
H1008 C1004 0.930 . S
H1009 C1006 0.929 . S
S1010 N1011 1.605 1_565 S
S1010 N1012 1.610 . S
N1011 S1010 1.605 1_545 S
N1011 C1014 1.358 . S
N1012 S1010 1.610 . S
N1012 C1013 1.351 1_565 S
C1013 C1007 1.428 . S
C1013 N1012 1.351 1_545 S
C1013 C1014 1.434 . S
C1014 C1005 1.429 . S
C1014 N1011 1.358 . S
C1014 C1013 1.434 . S
C1015 C1016 1.369 1_655 S
C1015 C1017 1.419 . S
C1015 H1019 0.930 . S
C1016 C1015 1.369 1_455 S
C1016 C1025 1.429 . S
C1017 C1015 1.419 . S
C1017 C1018 1.363 1_655 S
C1017 H1020 0.929 . S
C1018 C1017 1.363 1_455 S
C1018 C1024 1.428 . S
H1019 C1015 0.930 . S
H1020 C1017 0.929 . S
S1021 N1022 1.613 . S
S1021 N1023 1.610 . S
N1022 S1021 1.613 . S
N1022 C1025 1.350 . S
N1023 S1021 1.610 . S
N1023 C1024 1.351 . S
C1024 C1018 1.428 . S
C1024 N1023 1.351 . S
C1024 C1025 1.434 . S
C1025 C1016 1.429 . S
C1025 N1022 1.350 . S
C1025 C1024 1.434 . S
C1026 C1027 1.369 . S
C1026 C1028 1.419 . S
C1026 H1030 0.930 . S
C1027 C1026 1.369 . S
C1027 C1036 1.429 1_545 S
C1028 C1026 1.419 . S
C1028 C1029 1.363 . S
C1028 H1031 0.929 . S
C1029 C1028 1.363 . S
C1029 C1035 1.428 1_545 S
H1030 C1026 0.930 . S
H1031 C1028 0.929 . S
S1032 N1033 1.613 . S
S1032 N1034 1.610 . S
N1033 S1032 1.613 . S
N1033 C1036 1.350 . S
N1034 S1032 1.610 . S
N1034 C1035 1.351 . S
C1035 C1029 1.428 1_565 S
C1035 N1034 1.351 . S
C1035 C1036 1.434 . S
C1036 C1027 1.429 1_565 S
C1036 N1033 1.350 . S
C1036 C1035 1.434 . S
C1037 C1038 1.369 . S
C1037 C1039 1.419 . S
C1037 H1041 0.930 . S
C1038 C1037 1.369 . S
C1038 C1047 1.429 . S
C1039 C1037 1.419 . S
C1039 C1040 1.363 . S
C1039 H1042 0.929 . S
C1040 C1039 1.363 . S
C1040 C1046 1.428 . S
H1041 C1037 0.930 . S
H1042 C1039 0.929 . S
S1043 N1044 1.613 . S
S1043 N1045 1.610 . S
N1044 S1043 1.613 . S
N1044 C1047 1.350 1_655 S
N1045 S1043 1.610 . S
N1045 C1046 1.351 1_655 S
C1046 C1040 1.428 . S
C1046 N1045 1.351 1_455 S
C1046 C1047 1.434 . S
C1047 C1038 1.429 . S
C1047 N1044 1.350 1_455 S
C1047 C1046 1.434 . S
C1048 C1049 1.369 . S
C1048 C1050 1.419 . S
C1048 H1052 0.930 . S
C1049 C1048 1.369 . S
C1049 C1058 1.429 1_554 S
C1050 C1048 1.419 . S
C1050 C1051 1.363 . S
C1050 H1053 0.929 . S
C1051 C1050 1.363 . S
C1051 C1057 1.428 1_554 S
H1052 C1048 0.930 . S
H1053 C1050 0.929 . S
S1054 N1055 1.613 . S
S1054 N1056 1.610 . S
N1055 S1054 1.613 . S
N1055 C1058 1.350 . S
N1056 S1054 1.610 . S
N1056 C1057 1.351 . S
C1057 C1051 1.428 1_556 S
C1057 N1056 1.351 . S
C1057 C1058 1.434 . S
C1058 C1049 1.429 1_556 S
C1058 N1055 1.350 . S
C1058 C1057 1.434 . S
C1059 C1060 1.369 . S
C1059 C1061 1.419 . S
C1059 H1063 0.930 . S
C1060 C1059 1.369 . S
C1060 C1069 1.429 . S
C1061 C1059 1.419 . S
C1061 C1062 1.363 . S
C1061 H1064 0.929 . S
C1062 C1061 1.363 . S
C1062 C1068 1.428 . S
H1063 C1059 0.930 . S
H1064 C1061 0.929 . S
S1065 N1066 1.613 . S
S1065 N1067 1.610 . S
N1066 S1065 1.613 . S
N1066 C1069 1.350 . S
N1067 S1065 1.610 . S
N1067 C1068 1.351 . S
C1068 C1062 1.428 . S
C1068 N1067 1.351 . S
C1068 C1069 1.434 . S
C1069 C1060 1.429 . S
C1069 N1066 1.350 . S
C1069 C1068 1.434 . S
C1070 C1071 1.369 1_556 S
C1070 C1072 1.419 . S
C1070 H1074 0.930 . S
C1071 C1070 1.369 1_554 S
C1071 C1080 1.429 . S
C1072 C1070 1.419 . S
C1072 C1073 1.363 1_556 S
C1072 H1075 0.929 . S
C1073 C1072 1.363 1_554 S
C1073 C1079 1.428 . S
H1074 C1070 0.930 . S
H1075 C1072 0.929 . S
S1076 N1077 1.613 . S
S1076 N1078 1.610 . S
N1077 S1076 1.613 . S
N1077 C1080 1.350 . S
N1078 S1076 1.610 . S
N1078 C1079 1.351 . S
C1079 C1073 1.428 . S
C1079 N1078 1.351 . S
C1079 C1080 1.434 . S
C1080 C1071 1.429 . S
C1080 N1077 1.350 . S
C1080 C1079 1.434 . S
C1081 C1082 1.369 . S
C1081 C1083 1.419 . S
C1081 H1085 0.930 . S
C1082 C1081 1.369 . S
C1082 C1091 1.429 1_554 S
C1083 C1081 1.419 . S
C1083 C1084 1.363 . S
C1083 H1086 0.929 . S
C1084 C1083 1.363 . S
C1084 C1090 1.428 1_554 S
H1085 C1081 0.930 . S
H1086 C1083 0.929 . S
S1087 N1088 1.613 . S
S1087 N1089 1.610 . S
N1088 S1087 1.613 . S
N1088 C1091 1.350 . S
N1089 S1087 1.610 . S
N1089 C1090 1.351 . S
C1090 C1084 1.428 1_556 S
C1090 N1089 1.351 . S
C1090 C1091 1.434 . S
C1091 C1082 1.429 1_556 S
C1091 N1088 1.350 . S
C1091 C1090 1.434 . S
C1092 C1093 1.369 . S
C1092 C1094 1.419 1_556 S
C1092 H1096 0.930 . S
C1093 C1092 1.369 . S
C1093 C1102 1.429 . S
C1094 C1092 1.419 1_554 S
C1094 C1095 1.363 . S
C1094 H1097 0.929 . S
C1095 C1094 1.363 . S
C1095 C1101 1.428 . S
H1096 C1092 0.930 . S
H1097 C1094 0.929 . S
S1098 N1099 1.613 1_554 S
S1098 N1100 1.610 . S
N1099 S1098 1.613 1_556 S
N1099 C1102 1.350 . S
N1100 S1098 1.610 . S
N1100 C1101 1.351 . S
C1101 C1095 1.428 . S
C1101 N1100 1.351 . S
C1101 C1102 1.434 1_554 S
C1102 C1093 1.429 . S
C1102 N1099 1.350 . S
C1102 C1101 1.434 1_556 S
C1103 C1104 1.369 1_554 S
C1103 C1105 1.419 . S
C1103 H1107 0.930 1_554 S
C1104 C1103 1.369 1_556 S
C1104 C1113 1.429 . S
C1105 C1103 1.419 . S
C1105 C1106 1.363 . S
C1105 H1108 0.929 . S
C1106 C1105 1.363 . S
C1106 C1112 1.428 . S
H1107 C1103 0.930 1_556 S
H1108 C1105 0.929 . S
S1109 N1110 1.613 1_554 S
S1109 N1111 1.610 . S
N1110 S1109 1.613 1_556 S
N1110 C1113 1.350 . S
N1111 S1109 1.610 . S
N1111 C1112 1.351 . S
C1112 C1106 1.428 . S
C1112 N1111 1.351 . S
C1112 C1113 1.434 1_554 S
C1113 C1104 1.429 . S
C1113 N1110 1.350 . S
C1113 C1112 1.434 1_556 S
C1114 C1115 1.369 1_554 S
C1114 C1116 1.419 . S
C1114 H1118 0.946 . S
C1115 C1114 1.369 1_556 S
C1115 C1124 1.429 1_556 S
C1116 C1114 1.419 . S
C1116 C1117 1.363 . S
C1116 H1119 0.929 . S
C1117 C1116 1.363 . S
C1117 C1123 1.428 . S
H1118 C1114 0.946 . S
H1119 C1116 0.929 . S
S1120 N1121 1.613 1_554 S
S1120 N1122 1.610 . S
N1121 S1120 1.613 1_556 S
N1121 C1124 1.350 1_556 S
N1122 S1120 1.610 . S
N1122 C1123 1.351 . S
C1123 C1117 1.428 . S
C1123 N1122 1.351 . S
C1123 C1124 1.434 . S
C1124 C1115 1.429 1_554 S
C1124 N1121 1.350 1_554 S
C1124 C1123 1.434 . S
C1125 C1126 1.363 1_554 S
C1125 C1127 1.430 . S
C1125 H1129 0.924 1_554 S
C1126 C1125 1.363 1_556 S
C1126 C1135 1.429 1_556 S
C1127 C1125 1.430 . S
C1127 C1128 1.363 . S
C1127 H1130 0.929 . S
C1128 C1127 1.363 . S
C1128 C1134 1.428 . S
H1129 C1125 0.924 1_556 S
H1130 C1127 0.929 . S
S1131 N1132 1.613 1_554 S
S1131 N1133 1.610 . S
N1132 S1131 1.613 1_556 S
N1132 C1135 1.350 1_556 S
N1133 S1131 1.610 . S
N1133 C1134 1.351 . S
C1134 C1128 1.428 . S
C1134 N1133 1.351 . S
C1134 C1135 1.434 . S
C1135 C1126 1.429 1_554 S
C1135 N1132 1.350 1_554 S
C1135 C1134 1.434 . S
C1136 C1137 1.369 . S
C1136 C1138 1.419 1_655 S
C1136 H1140 0.930 . S
C1137 C1136 1.369 . S
C1137 C1146 1.429 . S
C1138 C1136 1.419 1_455 S
C1138 C1139 1.363 . S
C1138 H1141 0.929 . S
C1139 C1138 1.363 . S
C1139 C1145 1.428 . S
H1140 C1136 0.930 . S
H1141 C1138 0.929 . S
S1142 N1143 1.613 1_455 S
S1142 N1144 1.610 . S
N1143 S1142 1.613 1_655 S
N1143 C1146 1.350 . S
N1144 S1142 1.610 . S
N1144 C1145 1.351 . S
C1145 C1139 1.428 . S
C1145 N1144 1.351 . S
C1145 C1146 1.434 1_455 S
C1146 C1137 1.429 . S
C1146 N1143 1.350 . S
C1146 C1145 1.434 1_655 S
C1147 C1148 1.369 . S
C1147 C1149 1.419 1_565 S
C1147 H1151 0.930 . S
C1148 C1147 1.369 . S
C1148 C1157 1.429 1_565 S
C1149 C1147 1.419 1_545 S
C1149 C1150 1.363 . S
C1149 H1152 0.929 . S
C1150 C1149 1.363 . S
C1150 C1156 1.428 . S
H1151 C1147 0.930 . S
H1152 C1149 0.929 . S
S1153 N1154 1.613 1_545 S
S1153 N1155 1.610 . S
N1154 S1153 1.613 1_565 S
N1154 C1157 1.350 1_565 S
N1155 S1153 1.610 . S
N1155 C1156 1.351 . S
C1156 C1150 1.428 . S
C1156 N1155 1.351 . S
C1156 C1157 1.434 . S
C1157 C1148 1.429 1_545 S
C1157 N1154 1.350 1_545 S
C1157 C1156 1.434 . S
C1158 C1159 1.371 1_455 S
C1158 C1160 1.416 . S
C1158 H1162 0.931 1_455 S
C1159 C1158 1.371 1_655 S
C1159 C1168 1.429 . S
C1160 C1158 1.416 . S
C1160 C1161 1.363 . S
C1160 H1163 0.929 . S
C1161 C1160 1.363 . S
C1161 C1167 1.428 . S
H1162 C1158 0.931 1_655 S
H1163 C1160 0.929 . S
S1164 N1165 1.613 1_455 S
S1164 N1166 1.610 . S
N1165 S1164 1.613 1_655 S
N1165 C1168 1.350 . S
N1166 S1164 1.610 . S
N1166 C1167 1.351 . S
C1167 C1161 1.428 . S
C1167 N1166 1.351 . S
C1167 C1168 1.434 1_455 S
C1168 C1159 1.429 . S
C1168 N1165 1.350 . S
C1168 C1167 1.434 1_655 S
C1169 C1170 1.369 . S
C1169 C1171 1.419 . S
C1169 H1173 0.930 . S
C1170 C1169 1.369 . S
C1170 C1179 1.429 . S
C1171 C1169 1.419 . S
C1171 C1172 1.363 1_545 S
C1171 H1174 0.929 1_545 S
C1172 C1171 1.363 1_565 S
C1172 C1178 1.428 . S
H1173 C1169 0.930 . S
H1174 C1171 0.929 1_565 S
S1175 N1176 1.613 . S
S1175 N1177 1.610 1_545 S
N1176 S1175 1.613 . S
N1176 C1179 1.350 . S
N1177 S1175 1.610 1_565 S
N1177 C1178 1.351 . S
C1178 C1172 1.428 . S
C1178 N1177 1.351 . S
C1178 C1179 1.434 1_565 S
C1179 C1170 1.429 . S
C1179 N1176 1.350 . S
C1179 C1178 1.434 1_545 S
C1180 C1181 1.369 . S
C1180 C1182 1.419 . S
C1180 H1184 0.930 . S
C1181 C1180 1.369 . S
C1181 C1190 1.428 . S
C1182 C1180 1.419 . S
C1182 C1183 1.363 . S
C1182 H1185 0.929 . S
C1183 C1182 1.363 . S
C1183 C1189 1.428 . S
H1184 C1180 0.930 . S
H1185 C1182 0.929 . S
S1186 N1187 1.613 . S
S1186 N1188 1.610 . S
N1187 S1186 1.613 . S
N1187 C1190 1.350 . S
N1188 S1186 1.610 . S
N1188 C1189 1.351 . S
C1189 C1183 1.428 . S
C1189 N1188 1.351 . S
C1189 C1190 1.434 . S
C1190 C1181 1.428 . S
C1190 N1187 1.350 . S
C1190 C1189 1.434 . S
C1191 C1192 1.369 . S
C1191 C1193 1.415 1_455 S
C1191 H1195 0.930 . S
C1192 C1191 1.369 . S
C1192 C1201 1.429 . S
C1193 C1191 1.415 1_655 S
C1193 C1194 1.365 . S
C1193 H1196 0.931 . S
C1194 C1193 1.365 . S
C1194 C1200 1.428 1_655 S
H1195 C1191 0.930 . S
H1196 C1193 0.931 . S
S1197 N1198 1.613 . S
S1197 N1199 1.610 1_455 S
N1198 S1197 1.613 . S
N1198 C1201 1.350 . S
N1199 S1197 1.610 1_655 S
N1199 C1200 1.351 1_655 S
C1200 C1194 1.428 1_455 S
C1200 N1199 1.351 1_455 S
C1200 C1201 1.434 . S
C1201 C1192 1.429 . S
C1201 N1198 1.350 . S
C1201 C1200 1.434 . S
C1202 C1203 1.369 1_545 S
C1202 C1204 1.419 . S
C1202 H1206 0.930 1_545 S
C1203 C1202 1.369 1_565 S
C1203 C1212 1.429 1_565 S
C1204 C1202 1.419 . S
C1204 C1205 1.363 . S
C1204 H1207 0.929 . S
C1205 C1204 1.363 . S
C1205 C1211 1.428 . S
H1206 C1202 0.930 1_565 S
H1207 C1204 0.929 . S
S1208 N1209 1.613 . S
S1208 N1210 1.610 . S
N1209 S1208 1.613 . S
N1209 C1212 1.350 . S
N1210 S1208 1.610 . S
N1210 C1211 1.351 . S
C1211 C1205 1.428 . S
C1211 N1210 1.351 . S
C1211 C1212 1.434 . S
C1212 C1203 1.429 1_545 S
C1212 N1209 1.350 . S
C1212 C1211 1.434 . S
C1213 C1214 1.369 . S
C1213 C1215 1.419 1_455 S
C1213 H1217 0.930 . S
C1214 C1213 1.369 . S
C1214 C1223 1.429 . S
C1215 C1213 1.419 1_655 S
C1215 C1216 1.363 . S
C1215 H1218 0.929 . S
C1216 C1215 1.363 . S
C1216 C1222 1.428 . S
H1217 C1213 0.930 . S
H1218 C1215 0.929 . S
S1219 N1220 1.613 . S
S1219 N1221 1.610 1_455 S
N1220 S1219 1.613 . S
N1220 C1223 1.350 . S
N1221 S1219 1.610 1_655 S
N1221 C1222 1.351 . S
C1222 C1216 1.428 . S
C1222 N1221 1.351 . S
C1222 C1223 1.434 1_655 S
C1223 C1214 1.429 . S
C1223 N1220 1.350 . S
C1223 C1222 1.434 1_455 S
C1224 C1225 1.369 1_655 S
C1224 C1226 1.419 . S
C1224 H1228 0.930 . S
C1225 C1224 1.369 1_455 S
C1225 C1234 1.429 . S
C1226 C1224 1.419 . S
C1226 C1227 1.363 1_655 S
C1226 H1229 0.929 . S
C1227 C1226 1.363 1_455 S
C1227 C1233 1.428 . S
H1228 C1224 0.930 . S
H1229 C1226 0.929 . S
S1230 N1231 1.613 . S
S1230 N1232 1.610 . S
N1231 S1230 1.613 . S
N1231 C1234 1.350 . S
N1232 S1230 1.610 . S
N1232 C1233 1.351 . S
C1233 C1227 1.428 . S
C1233 N1232 1.351 . S
C1233 C1234 1.434 . S
C1234 C1225 1.429 . S
C1234 N1231 1.350 . S
C1234 C1233 1.434 . S
C1235 C1236 1.369 . S
C1235 C1237 1.419 . S
C1235 H1239 0.930 . S
C1236 C1235 1.369 . S
C1236 C1245 1.429 . S
C1237 C1235 1.419 . S
C1237 C1238 1.363 . S
C1237 H1240 0.929 . S
C1238 C1237 1.363 . S
C1238 C1244 1.428 . S
H1239 C1235 0.930 . S
H1240 C1237 0.929 . S
S1241 N1242 1.613 . S
S1241 N1243 1.626 . S
N1242 S1241 1.613 . S
N1242 C1245 1.350 1_565 S
N1243 S1241 1.626 . S
N1243 C1244 1.334 1_565 S
C1244 C1238 1.428 . S
C1244 N1243 1.334 1_545 S
C1244 C1245 1.434 . S
C1245 C1236 1.429 . S
C1245 N1242 1.350 1_545 S
C1245 C1244 1.434 . S
C1246 C1247 1.369 1_655 S
C1246 C1248 1.419 . S
C1246 H1250 0.930 . S
C1247 C1246 1.369 1_455 S
C1247 C1256 1.429 . S
C1248 C1246 1.419 . S
C1248 C1249 1.363 1_655 S
C1248 H1251 0.929 . S
C1249 C1248 1.363 1_455 S
C1249 C1255 1.428 . S
H1250 C1246 0.930 . S
H1251 C1248 0.929 . S
S1252 N1253 1.613 . S
S1252 N1254 1.610 . S
N1253 S1252 1.613 . S
N1253 C1256 1.350 . S
N1254 S1252 1.610 . S
N1254 C1255 1.351 . S
C1255 C1249 1.428 . S
C1255 N1254 1.351 . S
C1255 C1256 1.434 . S
C1256 C1247 1.429 . S
C1256 N1253 1.350 . S
C1256 C1255 1.434 . S
C1257 C1258 1.369 . S
C1257 C1259 1.419 . S
C1257 H1261 0.930 1_545 S
C1258 C1257 1.369 . S
C1258 C1267 1.429 . S
C1259 C1257 1.419 . S
C1259 C1260 1.363 . S
C1259 H1262 0.929 1_545 S
C1260 C1259 1.363 . S
C1260 C1266 1.428 . S
H1261 C1257 0.930 1_565 S
H1262 C1259 0.929 1_565 S
S1263 N1264 1.613 . S
S1263 N1265 1.610 . S
N1264 S1263 1.613 . S
N1264 C1267 1.350 . S
N1265 S1263 1.610 . S
N1265 C1266 1.351 . S
C1266 C1260 1.428 . S
C1266 N1265 1.351 . S
C1266 C1267 1.434 . S
C1267 C1258 1.429 . S
C1267 N1264 1.350 . S
C1267 C1266 1.434 . S
C1268 C1269 1.369 . S
C1268 C1270 1.419 . S
C1268 H1272 0.930 . S
C1269 C1268 1.369 . S
C1269 C1278 1.429 . S
C1270 C1268 1.419 . S
C1270 C1271 1.363 . S
C1270 H1273 0.929 . S
C1271 C1270 1.363 . S
C1271 C1277 1.428 . S
H1272 C1268 0.930 . S
H1273 C1270 0.929 . S
S1274 N1275 1.612 1_655 S
S1274 N1276 1.609 1_655 S
N1275 S1274 1.612 1_455 S
N1275 C1278 1.350 . S
N1276 S1274 1.609 1_455 S
N1276 C1277 1.351 . S
C1277 C1271 1.428 . S
C1277 N1276 1.351 . S
C1277 C1278 1.434 . S
C1278 C1269 1.429 . S
C1278 N1275 1.350 . S
C1278 C1277 1.434 . S
C1279 C1280 1.369 . S
C1279 C1281 1.419 . S
C1279 H1283 0.930 . S
C1280 C1279 1.369 . S
C1280 C1289 1.429 . S
C1281 C1279 1.419 . S
C1281 C1282 1.363 . S
C1281 H1284 0.929 . S
C1282 C1281 1.363 . S
C1282 C1288 1.428 . S
H1283 C1279 0.930 . S
H1284 C1281 0.929 . S
S1285 N1286 1.613 . S
S1285 N1287 1.610 . S
N1286 S1285 1.613 . S
N1286 C1289 1.350 . S
N1287 S1285 1.610 . S
N1287 C1288 1.351 . S
C1288 C1282 1.428 . S
C1288 N1287 1.351 . S
C1288 C1289 1.434 . S
C1289 C1280 1.429 . S
C1289 N1286 1.350 . S
C1289 C1288 1.434 . S
C1290 C1291 1.369 . S
C1290 C1292 1.419 . S
C1290 H1294 0.930 . S
C1291 C1290 1.369 . S
C1291 C1300 1.429 . S
C1292 C1290 1.419 . S
C1292 C1293 1.363 . S
C1292 H1295 0.929 . S
C1293 C1292 1.363 . S
C1293 C1299 1.428 . S
H1294 C1290 0.930 . S
H1295 C1292 0.929 . S
S1296 N1297 1.613 . S
S1296 N1298 1.610 . S
N1297 S1296 1.613 . S
N1297 C1300 1.350 . S
N1298 S1296 1.610 . S
N1298 C1299 1.351 . S
C1299 C1293 1.428 . S
C1299 N1298 1.351 . S
C1299 C1300 1.434 . S
C1300 C1291 1.429 . S
C1300 N1297 1.350 . S
C1300 C1299 1.434 . S
C1301 C1302 1.369 . S
C1301 C1303 1.419 . S
C1301 H1305 0.930 . S
C1302 C1301 1.369 . S
C1302 C1311 1.429 . S
C1303 C1301 1.419 . S
C1303 C1304 1.363 . S
C1303 H1306 0.929 . S
C1304 C1303 1.363 . S
C1304 C1310 1.428 . S
H1305 C1301 0.930 . S
H1306 C1303 0.929 . S
S1307 N1308 1.613 1_565 S
S1307 N1309 1.610 . S
N1308 S1307 1.613 1_545 S
N1308 C1311 1.350 . S
N1309 S1307 1.610 . S
N1309 C1310 1.351 1_565 S
C1310 C1304 1.428 . S
C1310 N1309 1.351 1_545 S
C1310 C1311 1.434 . S
C1311 C1302 1.429 . S
C1311 N1308 1.350 . S
C1311 C1310 1.434 . S
C1312 C1313 1.369 . S
C1312 C1314 1.419 1_554 S
C1312 H1316 0.930 1_554 S
C1313 C1312 1.369 . S
C1313 C1322 1.429 . S
C1314 C1312 1.419 1_556 S
C1314 C1315 1.363 1_556 S
C1314 H1317 0.929 . S
C1315 C1314 1.363 1_554 S
C1315 C1321 1.428 . S
H1316 C1312 0.930 1_556 S
H1317 C1314 0.929 . S
S1318 N1319 1.613 . S
S1318 N1320 1.610 . S
N1319 S1318 1.613 . S
N1319 C1322 1.350 . S
N1320 S1318 1.610 . S
N1320 C1321 1.351 . S
C1321 C1315 1.428 . S
C1321 N1320 1.351 . S
C1321 C1322 1.434 . S
C1322 C1313 1.429 . S
C1322 N1319 1.350 . S
C1322 C1321 1.434 . S
C1323 C1324 1.369 . S
C1323 C1325 1.419 . S
C1323 H1327 0.930 . S
C1324 C1323 1.369 . S
C1324 C1333 1.429 1_554 S
C1325 C1323 1.419 . S
C1325 C1326 1.363 . S
C1325 H1328 0.929 . S
C1326 C1325 1.363 . S
C1326 C1332 1.428 1_554 S
H1327 C1323 0.930 . S
H1328 C1325 0.929 . S
S1329 N1330 1.613 . S
S1329 N1331 1.610 . S
N1330 S1329 1.613 . S
N1330 C1333 1.350 . S
N1331 S1329 1.610 . S
N1331 C1332 1.351 . S
C1332 C1326 1.428 1_556 S
C1332 N1331 1.351 . S
C1332 C1333 1.434 . S
C1333 C1324 1.429 1_556 S
C1333 N1330 1.350 . S
C1333 C1332 1.434 . S
C1334 C1335 1.369 . S
C1334 C1336 1.419 . S
C1334 H1338 0.930 . S
C1335 C1334 1.369 . S
C1335 C1344 1.429 . S
C1336 C1334 1.419 . S
C1336 C1337 1.363 . S
C1336 H1339 0.929 1_554 S
C1337 C1336 1.363 . S
C1337 C1343 1.428 . S
H1338 C1334 0.930 . S
H1339 C1336 0.929 1_556 S
S1340 N1341 1.613 . S
S1340 N1342 1.610 . S
N1341 S1340 1.613 . S
N1341 C1344 1.350 . S
N1342 S1340 1.610 . S
N1342 C1343 1.351 . S
C1343 C1337 1.428 . S
C1343 N1342 1.351 . S
C1343 C1344 1.434 . S
C1344 C1335 1.429 . S
C1344 N1341 1.350 . S
C1344 C1343 1.434 . S
C1345 C1346 1.369 1_556 S
C1345 C1347 1.419 . S
C1345 H1349 0.930 . S
C1346 C1345 1.369 1_554 S
C1346 C1355 1.429 . S
C1347 C1345 1.419 . S
C1347 C1348 1.363 1_556 S
C1347 H1350 0.929 . S
C1348 C1347 1.363 1_554 S
C1348 C1354 1.428 . S
H1349 C1345 0.930 . S
H1350 C1347 0.929 . S
S1351 N1352 1.613 . S
S1351 N1353 1.610 . S
N1352 S1351 1.613 . S
N1352 C1355 1.350 . S
N1353 S1351 1.610 . S
N1353 C1354 1.351 . S
C1354 C1348 1.428 . S
C1354 N1353 1.351 . S
C1354 C1355 1.434 . S
C1355 C1346 1.429 . S
C1355 N1352 1.350 . S
C1355 C1354 1.434 . S
C1356 C1357 1.369 . S
C1356 C1358 1.419 . S
C1356 H1360 0.930 . S
C1357 C1356 1.369 . S
C1357 C1366 1.429 . S
C1358 C1356 1.419 . S
C1358 C1359 1.363 . S
C1358 H1361 0.929 . S
C1359 C1358 1.363 . S
C1359 C1365 1.428 . S
H1360 C1356 0.930 . S
H1361 C1358 0.929 . S
S1362 N1363 1.613 . S
S1362 N1364 1.610 . S
N1363 S1362 1.613 . S
N1363 C1366 1.350 . S
N1364 S1362 1.610 . S
N1364 C1365 1.351 . S
C1365 C1359 1.428 . S
C1365 N1364 1.351 . S
C1365 C1366 1.434 . S
C1366 C1357 1.429 . S
C1366 N1363 1.350 . S
C1366 C1365 1.434 . S
C1367 C1368 1.369 . S
C1367 C1369 1.419 . S
C1367 H1371 0.930 . S
C1368 C1367 1.369 . S
C1368 C1377 1.429 . S
C1369 C1367 1.419 . S
C1369 C1370 1.363 . S
C1369 H1372 0.929 . S
C1370 C1369 1.363 . S
C1370 C1376 1.428 . S
H1371 C1367 0.930 . S
H1372 C1369 0.929 . S
S1373 N1374 1.613 . S
S1373 N1375 1.610 . S
N1374 S1373 1.613 . S
N1374 C1377 1.350 . S
N1375 S1373 1.610 . S
N1375 C1376 1.351 . S
C1376 C1370 1.428 . S
C1376 N1375 1.351 . S
C1376 C1377 1.434 . S
C1377 C1368 1.429 . S
C1377 N1374 1.350 . S
C1377 C1376 1.434 . S
C1378 C1379 1.369 . S
C1378 C1380 1.419 . S
C1378 H1382 0.930 . S
C1379 C1378 1.369 . S
C1379 C1388 1.429 . S
C1380 C1378 1.419 . S
C1380 C1381 1.363 . S
C1380 H1383 0.929 . S
C1381 C1380 1.363 . S
C1381 C1387 1.428 . S
H1382 C1378 0.930 . S
H1383 C1380 0.929 . S
S1384 N1385 1.613 . S
S1384 N1386 1.610 . S
N1385 S1384 1.613 . S
N1385 C1388 1.350 . S
N1386 S1384 1.610 . S
N1386 C1387 1.351 . S
C1387 C1381 1.428 . S
C1387 N1386 1.351 . S
C1387 C1388 1.434 . S
C1388 C1379 1.429 . S
C1388 N1385 1.350 . S
C1388 C1387 1.434 . S
C1389 C1390 1.369 . S
C1389 C1391 1.419 . S
C1389 H1393 0.930 . S
C1390 C1389 1.369 . S
C1390 C1399 1.429 . S
C1391 C1389 1.419 . S
C1391 C1392 1.363 . S
C1391 H1394 0.929 . S
C1392 C1391 1.363 . S
C1392 C1398 1.428 . S
H1393 C1389 0.930 . S
H1394 C1391 0.929 . S
S1395 N1396 1.613 . S
S1395 N1397 1.610 . S
N1396 S1395 1.613 . S
N1396 C1399 1.350 . S
N1397 S1395 1.610 . S
N1397 C1398 1.351 . S
C1398 C1392 1.428 . S
C1398 N1397 1.351 . S
C1398 C1399 1.434 . S
C1399 C1390 1.429 . S
C1399 N1396 1.350 . S
C1399 C1398 1.434 . S
C1400 C1401 1.369 . S
C1400 C1402 1.419 . S
C1400 H1404 0.930 . S
C1401 C1400 1.369 . S
C1401 C1410 1.429 . S
C1402 C1400 1.419 . S
C1402 C1403 1.363 . S
C1402 H1405 0.929 . S
C1403 C1402 1.363 . S
C1403 C1409 1.428 . S
H1404 C1400 0.930 . S
H1405 C1402 0.929 . S
S1406 N1407 1.613 . S
S1406 N1408 1.610 . S
N1407 S1406 1.613 . S
N1407 C1410 1.350 . S
N1408 S1406 1.610 . S
N1408 C1409 1.351 . S
C1409 C1403 1.428 . S
C1409 N1408 1.351 . S
C1409 C1410 1.434 . S
C1410 C1401 1.429 . S
C1410 N1407 1.350 . S
C1410 C1409 1.434 . S
C1411 C1412 1.369 . S
C1411 C1413 1.419 . S
C1411 H1415 0.930 . S
C1412 C1411 1.369 . S
C1412 C1421 1.429 . S
C1413 C1411 1.419 . S
C1413 C1414 1.363 . S
C1413 H1416 0.929 . S
C1414 C1413 1.363 . S
C1414 C1420 1.428 . S
H1415 C1411 0.930 . S
H1416 C1413 0.929 . S
S1417 N1418 1.613 . S
S1417 N1419 1.610 . S
N1418 S1417 1.613 . S
N1418 C1421 1.350 . S
N1419 S1417 1.610 . S
N1419 C1420 1.351 . S
C1420 C1414 1.428 . S
C1420 N1419 1.351 . S
C1420 C1421 1.434 . S
C1421 C1412 1.429 . S
C1421 N1418 1.350 . S
C1421 C1420 1.434 . S
C1422 C1423 1.369 . S
C1422 C1424 1.419 . S
C1422 H1426 0.930 . S
C1423 C1422 1.369 . S
C1423 C1432 1.429 . S
C1424 C1422 1.419 . S
C1424 C1425 1.363 . S
C1424 H1427 0.929 . S
C1425 C1424 1.363 . S
C1425 C1431 1.428 . S
H1426 C1422 0.930 . S
H1427 C1424 0.929 . S
S1428 N1429 1.613 . S
S1428 N1430 1.610 . S
N1429 S1428 1.613 . S
N1429 C1432 1.350 . S
N1430 S1428 1.610 . S
N1430 C1431 1.351 . S
C1431 C1425 1.428 . S
C1431 N1430 1.351 . S
C1431 C1432 1.434 . S
C1432 C1423 1.429 . S
C1432 N1429 1.350 . S
C1432 C1431 1.434 . S
C1433 C1434 1.369 . S
C1433 C1435 1.419 . S
C1433 H1437 0.930 . S
C1434 C1433 1.369 . S
C1434 C1443 1.429 . S
C1435 C1433 1.419 . S
C1435 C1436 1.363 . S
C1435 H1438 0.929 . S
C1436 C1435 1.363 . S
C1436 C1442 1.428 . S
H1437 C1433 0.930 . S
H1438 C1435 0.929 . S
S1439 N1440 1.613 . S
S1439 N1441 1.610 . S
N1440 S1439 1.613 . S
N1440 C1443 1.350 . S
N1441 S1439 1.610 . S
N1441 C1442 1.351 . S
C1442 C1436 1.428 . S
C1442 N1441 1.351 . S
C1442 C1443 1.434 . S
C1443 C1434 1.429 . S
C1443 N1440 1.350 . S
C1443 C1442 1.434 . S
C1444 C1445 1.369 . S
C1444 C1446 1.419 . S
C1444 H1448 0.930 . S
C1445 C1444 1.369 . S
C1445 C1454 1.429 . S
C1446 C1444 1.419 . S
C1446 C1447 1.363 . S
C1446 H1449 0.929 . S
C1447 C1446 1.363 . S
C1447 C1453 1.428 . S
H1448 C1444 0.930 . S
H1449 C1446 0.929 . S
S1450 N1451 1.613 . S
S1450 N1452 1.610 . S
N1451 S1450 1.613 . S
N1451 C1454 1.350 . S
N1452 S1450 1.610 . S
N1452 C1453 1.351 . S
C1453 C1447 1.428 . S
C1453 N1452 1.351 . S
C1453 C1454 1.434 . S
C1454 C1445 1.429 . S
C1454 N1451 1.350 . S
C1454 C1453 1.434 . S
C1455 C1456 1.369 . S
C1455 C1457 1.419 . S
C1455 H1459 0.930 . S
C1456 C1455 1.369 . S
C1456 C1465 1.429 . S
C1457 C1455 1.419 . S
C1457 C1458 1.363 . S
C1457 H1460 0.929 . S
C1458 C1457 1.363 . S
C1458 C1464 1.428 . S
H1459 C1455 0.930 . S
H1460 C1457 0.929 . S
S1461 N1462 1.613 . S
S1461 N1463 1.610 . S
N1462 S1461 1.613 . S
N1462 C1465 1.350 . S
N1463 S1461 1.610 . S
N1463 C1464 1.351 . S
C1464 C1458 1.428 . S
C1464 N1463 1.351 . S
C1464 C1465 1.434 . S
C1465 C1456 1.429 . S
C1465 N1462 1.350 . S
C1465 C1464 1.434 . S
C1466 C1467 1.369 . S
C1466 C1468 1.419 . S
C1466 H1470 0.930 . S
C1467 C1466 1.369 . S
C1467 C1476 1.429 . S
C1468 C1466 1.419 . S
C1468 C1469 1.363 . S
C1468 H1471 0.929 . S
C1469 C1468 1.363 . S
C1469 C1475 1.428 . S
H1470 C1466 0.930 . S
H1471 C1468 0.929 . S
S1472 N1473 1.613 . S
S1472 N1474 1.610 . S
N1473 S1472 1.613 . S
N1473 C1476 1.350 . S
N1474 S1472 1.610 . S
N1474 C1475 1.351 . S
C1475 C1469 1.428 . S
C1475 N1474 1.351 . S
C1475 C1476 1.434 . S
C1476 C1467 1.429 . S
C1476 N1473 1.350 . S
C1476 C1475 1.434 . S
C1477 C1478 1.369 . S
C1477 C1479 1.419 . S
C1477 H1481 0.930 . S
C1478 C1477 1.369 . S
C1478 C1487 1.429 . S
C1479 C1477 1.419 . S
C1479 C1480 1.363 . S
C1479 H1482 0.929 . S
C1480 C1479 1.363 . S
C1480 C1486 1.428 . S
H1481 C1477 0.930 . S
H1482 C1479 0.929 . S
S1483 N1484 1.613 . S
S1483 N1485 1.610 . S
N1484 S1483 1.613 . S
N1484 C1487 1.350 . S
N1485 S1483 1.610 . S
N1485 C1486 1.351 . S
C1486 C1480 1.428 . S
C1486 N1485 1.351 . S
C1486 C1487 1.434 . S
C1487 C1478 1.429 . S
C1487 N1484 1.350 . S
C1487 C1486 1.434 . S
C1488 C1489 1.369 . S
C1488 C1490 1.419 . S
C1488 H1492 0.930 . S
C1489 C1488 1.369 . S
C1489 C1498 1.429 . S
C1490 C1488 1.419 . S
C1490 C1491 1.363 . S
C1490 H1493 0.929 . S
C1491 C1490 1.363 . S
C1491 C1497 1.428 . S
H1492 C1488 0.930 . S
H1493 C1490 0.929 . S
S1494 N1495 1.613 . S
S1494 N1496 1.610 . S
N1495 S1494 1.613 . S
N1495 C1498 1.350 . S
N1496 S1494 1.610 . S
N1496 C1497 1.351 . S
C1497 C1491 1.428 . S
C1497 N1496 1.351 . S
C1497 C1498 1.434 . S
C1498 C1489 1.429 . S
C1498 N1495 1.350 . S
C1498 C1497 1.434 . S
C1499 C1500 1.369 . S
C1499 C1501 1.419 . S
C1499 H1503 0.930 . S
C1500 C1499 1.369 . S
C1500 C1509 1.429 . S
C1501 C1499 1.419 . S
C1501 C1502 1.363 . S
C1501 H1504 0.929 . S
C1502 C1501 1.363 . S
C1502 C1508 1.428 . S
H1503 C1499 0.930 . S
H1504 C1501 0.929 . S
S1505 N1506 1.613 . S
S1505 N1507 1.610 . S
N1506 S1505 1.613 . S
N1506 C1509 1.350 . S
N1507 S1505 1.610 . S
N1507 C1508 1.351 . S
C1508 C1502 1.428 . S
C1508 N1507 1.351 . S
C1508 C1509 1.434 . S
C1509 C1500 1.429 . S
C1509 N1506 1.350 . S
C1509 C1508 1.434 . S
C1510 C1511 1.369 . S
C1510 C1512 1.419 . S
C1510 H1514 0.930 . S
C1511 C1510 1.369 . S
C1511 C1520 1.429 . S
C1512 C1510 1.419 . S
C1512 C1513 1.363 . S
C1512 H1515 0.929 . S
C1513 C1512 1.363 . S
C1513 C1519 1.428 . S
H1514 C1510 0.930 . S
H1515 C1512 0.929 . S
S1516 N1517 1.613 1_655 S
S1516 N1518 1.610 . S
N1517 S1516 1.613 1_455 S
N1517 C1520 1.350 1_455 S
N1518 S1516 1.610 . S
N1518 C1519 1.351 . S
C1519 C1513 1.428 . S
C1519 N1518 1.351 . S
C1519 C1520 1.434 . S
C1520 C1511 1.429 . S
C1520 N1517 1.350 1_655 S
C1520 C1519 1.434 . S
C1521 C1522 1.369 . S
C1521 C1523 1.419 . S
C1521 H1525 0.930 . S
C1522 C1521 1.369 . S
C1522 C1531 1.429 . S
C1523 C1521 1.419 . S
C1523 C1524 1.363 . S
C1523 H1526 0.929 . S
C1524 C1523 1.363 . S
C1524 C1530 1.428 . S
H1525 C1521 0.930 . S
H1526 C1523 0.929 . S
S1527 N1528 1.613 . S
S1527 N1529 1.610 . S
N1528 S1527 1.613 . S
N1528 C1531 1.350 . S
N1529 S1527 1.610 . S
N1529 C1530 1.351 . S
C1530 C1524 1.428 . S
C1530 N1529 1.351 . S
C1530 C1531 1.434 . S
C1531 C1522 1.429 . S
C1531 N1528 1.350 . S
C1531 C1530 1.434 . S
C1532 C1533 1.369 . S
C1532 C1534 1.419 . S
C1532 H1536 0.930 . S
C1533 C1532 1.369 . S
C1533 C1542 1.429 . S
C1534 C1532 1.419 . S
C1534 C1535 1.363 . S
C1534 H1537 0.929 . S
C1535 C1534 1.363 . S
C1535 C1541 1.428 . S
H1536 C1532 0.930 . S
H1537 C1534 0.929 . S
S1538 N1539 1.613 . S
S1538 N1540 1.610 . S
N1539 S1538 1.613 . S
N1539 C1542 1.350 . S
N1540 S1538 1.610 . S
N1540 C1541 1.351 . S
C1541 C1535 1.428 . S
C1541 N1540 1.351 . S
C1541 C1542 1.434 . S
C1542 C1533 1.429 . S
C1542 N1539 1.350 . S
C1542 C1541 1.434 . S
C1543 C1544 1.369 . S
C1543 C1545 1.419 . S
C1543 H1547 0.930 . S
C1544 C1543 1.369 . S
C1544 C1553 1.429 . S
C1545 C1543 1.419 . S
C1545 C1546 1.363 . S
C1545 H1548 0.929 . S
C1546 C1545 1.363 . S
C1546 C1552 1.428 . S
H1547 C1543 0.930 . S
H1548 C1545 0.929 . S
S1549 N1550 1.613 . S
S1549 N1551 1.610 . S
N1550 S1549 1.613 . S
N1550 C1553 1.350 . S
N1551 S1549 1.610 . S
N1551 C1552 1.351 . S
C1552 C1546 1.428 . S
C1552 N1551 1.351 . S
C1552 C1553 1.434 . S
C1553 C1544 1.429 . S
C1553 N1550 1.350 . S
C1553 C1552 1.434 . S
C1554 C1555 1.369 . S
C1554 C1556 1.419 . S
C1554 H1558 0.930 . S
C1555 C1554 1.369 . S
C1555 C1564 1.429 . S
C1556 C1554 1.419 . S
C1556 C1557 1.363 . S
C1556 H1559 0.929 . S
C1557 C1556 1.363 . S
C1557 C1563 1.428 . S
H1558 C1554 0.930 . S
H1559 C1556 0.929 . S
S1560 N1561 1.613 . S
S1560 N1562 1.610 . S
N1561 S1560 1.613 . S
N1561 C1564 1.350 . S
N1562 S1560 1.610 . S
N1562 C1563 1.351 . S
C1563 C1557 1.428 . S
C1563 N1562 1.351 . S
C1563 C1564 1.434 . S
C1564 C1555 1.429 . S
C1564 N1561 1.350 . S
C1564 C1563 1.434 . S
C1565 C1566 1.369 . S
C1565 C1567 1.419 . S
C1565 H1569 0.930 . S
C1566 C1565 1.369 . S
C1566 C1575 1.429 . S
C1567 C1565 1.419 . S
C1567 C1568 1.363 . S
C1567 H1570 0.929 . S
C1568 C1567 1.363 . S
C1568 C1574 1.428 . S
H1569 C1565 0.930 . S
H1570 C1567 0.929 . S
S1571 N1572 1.613 . S
S1571 N1573 1.610 . S
N1572 S1571 1.613 . S
N1572 C1575 1.350 . S
N1573 S1571 1.610 . S
N1573 C1574 1.351 . S
C1574 C1568 1.428 . S
C1574 N1573 1.351 . S
C1574 C1575 1.434 . S
C1575 C1566 1.429 . S
C1575 N1572 1.350 . S
C1575 C1574 1.434 . S
C1576 C1577 1.369 . S
C1576 C1578 1.419 . S
C1576 H1580 0.930 . S
C1577 C1576 1.369 . S
C1577 C1586 1.429 . S
C1578 C1576 1.419 . S
C1578 C1579 1.363 . S
C1578 H1581 0.929 . S
C1579 C1578 1.363 . S
C1579 C1585 1.428 . S
H1580 C1576 0.930 . S
H1581 C1578 0.929 . S
S1582 N1583 1.613 . S
S1582 N1584 1.610 . S
N1583 S1582 1.613 . S
N1583 C1586 1.350 . S
N1584 S1582 1.610 . S
N1584 C1585 1.351 . S
C1585 C1579 1.428 . S
C1585 N1584 1.351 . S
C1585 C1586 1.434 . S
C1586 C1577 1.429 . S
C1586 N1583 1.350 . S
C1586 C1585 1.434 . S
C1587 C1588 1.369 . S
C1587 C1589 1.419 . S
C1587 H1591 0.930 . S
C1588 C1587 1.369 . S
C1588 C1597 1.429 . S
C1589 C1587 1.419 . S
C1589 C1590 1.363 . S
C1589 H1592 0.929 . S
C1590 C1589 1.363 . S
C1590 C1596 1.428 . S
H1591 C1587 0.930 . S
H1592 C1589 0.929 . S
S1593 N1594 1.613 . S
S1593 N1595 1.610 . S
N1594 S1593 1.613 . S
N1594 C1597 1.350 . S
N1595 S1593 1.610 . S
N1595 C1596 1.351 . S
C1596 C1590 1.428 . S
C1596 N1595 1.351 . S
C1596 C1597 1.434 . S
C1597 C1588 1.429 . S
C1597 N1594 1.350 . S
C1597 C1596 1.434 . S
C1598 C1599 1.369 . S
C1598 C1600 1.419 . S
C1598 H1602 0.930 . S
C1599 C1598 1.369 . S
C1599 C1608 1.429 . S
C1600 C1598 1.419 . S
C1600 C1601 1.363 . S
C1600 H1603 0.929 . S
C1601 C1600 1.363 . S
C1601 C1607 1.428 . S
H1602 C1598 0.930 . S
H1603 C1600 0.929 . S
S1604 N1605 1.613 . S
S1604 N1606 1.610 1_545 S
N1605 S1604 1.613 . S
N1605 C1608 1.350 1_545 S
N1606 S1604 1.610 1_565 S
N1606 C1607 1.351 . S
C1607 C1601 1.428 . S
C1607 N1606 1.351 . S
C1607 C1608 1.434 . S
C1608 C1599 1.429 . S
C1608 N1605 1.350 1_565 S
C1608 C1607 1.434 . S
C1609 C1610 1.369 . S
C1609 C1611 1.419 . S
C1609 H1613 0.930 . S
C1610 C1609 1.369 . S
C1610 C1619 1.429 . S
C1611 C1609 1.419 . S
C1611 C1612 1.363 . S
C1611 H1614 0.929 . S
C1612 C1611 1.363 . S
C1612 C1618 1.428 . S
H1613 C1609 0.930 . S
H1614 C1611 0.929 . S
S1615 N1616 1.613 . S
S1615 N1617 1.610 . S
N1616 S1615 1.613 . S
N1616 C1619 1.350 . S
N1617 S1615 1.610 . S
N1617 C1618 1.351 . S
C1618 C1612 1.428 . S
C1618 N1617 1.351 . S
C1618 C1619 1.434 . S
C1619 C1610 1.429 . S
C1619 N1616 1.350 . S
C1619 C1618 1.434 . S
C1620 C1621 1.369 . S
C1620 C1622 1.419 . S
C1620 H1624 0.930 1_565 S
C1621 C1620 1.369 . S
C1621 C1630 1.429 . S
C1622 C1620 1.419 . S
C1622 C1623 1.363 . S
C1622 H1625 0.929 . S
C1623 C1622 1.363 . S
C1623 C1629 1.428 . S
H1624 C1620 0.930 1_545 S
H1625 C1622 0.929 . S
S1626 N1627 1.613 . S
S1626 N1628 1.610 . S
N1627 S1626 1.613 . S
N1627 C1630 1.350 . S
N1628 S1626 1.610 . S
N1628 C1629 1.351 . S
C1629 C1623 1.428 . S
C1629 N1628 1.351 . S
C1629 C1630 1.434 . S
C1630 C1621 1.429 . S
C1630 N1627 1.350 . S
C1630 C1629 1.434 . S
C1631 C1632 1.369 . S
C1631 C1633 1.419 . S
C1631 H1635 0.930 . S
C1632 C1631 1.369 . S
C1632 C1641 1.429 . S
C1633 C1631 1.419 . S
C1633 C1634 1.363 . S
C1633 H1636 0.929 . S
C1634 C1633 1.363 . S
C1634 C1640 1.428 . S
H1635 C1631 0.930 . S
H1636 C1633 0.929 . S
S1637 N1638 1.613 . S
S1637 N1639 1.610 . S
N1638 S1637 1.613 . S
N1638 C1641 1.350 . S
N1639 S1637 1.610 . S
N1639 C1640 1.351 . S
C1640 C1634 1.428 . S
C1640 N1639 1.351 . S
C1640 C1641 1.434 . S
C1641 C1632 1.429 . S
C1641 N1638 1.350 . S
C1641 C1640 1.434 . S
C1642 C1643 1.369 . S
C1642 C1644 1.419 . S
C1642 H1646 0.930 . S
C1643 C1642 1.369 . S
C1643 C1652 1.429 . S
C1644 C1642 1.419 . S
C1644 C1645 1.363 . S
C1644 H1647 0.929 . S
C1645 C1644 1.363 . S
C1645 C1651 1.428 . S
H1646 C1642 0.930 . S
H1647 C1644 0.929 . S
S1648 N1649 1.613 . S
S1648 N1650 1.610 . S
N1649 S1648 1.613 . S
N1649 C1652 1.350 . S
N1650 S1648 1.610 . S
N1650 C1651 1.351 . S
C1651 C1645 1.428 . S
C1651 N1650 1.351 . S
C1651 C1652 1.434 . S
C1652 C1643 1.429 . S
C1652 N1649 1.350 . S
C1652 C1651 1.434 . S
C1653 C1654 1.369 . S
C1653 C1655 1.419 . S
C1653 H1657 0.930 . S
C1654 C1653 1.369 . S
C1654 C1663 1.429 . S
C1655 C1653 1.419 . S
C1655 C1656 1.363 . S
C1655 H1658 0.929 . S
C1656 C1655 1.363 . S
C1656 C1662 1.428 . S
H1657 C1653 0.930 . S
H1658 C1655 0.929 . S
S1659 N1660 1.613 . S
S1659 N1661 1.610 . S
N1660 S1659 1.613 . S
N1660 C1663 1.350 . S
N1661 S1659 1.610 . S
N1661 C1662 1.351 . S
C1662 C1656 1.428 . S
C1662 N1661 1.351 . S
C1662 C1663 1.434 . S
C1663 C1654 1.429 . S
C1663 N1660 1.350 . S
C1663 C1662 1.434 . S
C1664 C1665 1.369 . S
C1664 C1666 1.419 . S
C1664 H1668 0.930 . S
C1665 C1664 1.369 . S
C1665 C1674 1.429 . S
C1666 C1664 1.419 . S
C1666 C1667 1.363 . S
C1666 H1669 0.929 . S
C1667 C1666 1.363 . S
C1667 C1673 1.428 . S
H1668 C1664 0.930 . S
H1669 C1666 0.929 . S
S1670 N1671 1.613 . S
S1670 N1672 1.610 . S
N1671 S1670 1.613 . S
N1671 C1674 1.350 . S
N1672 S1670 1.610 . S
N1672 C1673 1.351 . S
C1673 C1667 1.428 . S
C1673 N1672 1.351 . S
C1673 C1674 1.434 . S
C1674 C1665 1.429 . S
C1674 N1671 1.350 . S
C1674 C1673 1.434 . S
C1675 C1676 1.369 . S
C1675 C1677 1.419 . S
C1675 H1679 0.930 . S
C1676 C1675 1.369 . S
C1676 C1685 1.429 . S
C1677 C1675 1.419 . S
C1677 C1678 1.363 . S
C1677 H1680 0.929 . S
C1678 C1677 1.363 . S
C1678 C1684 1.428 . S
H1679 C1675 0.930 . S
H1680 C1677 0.929 . S
S1681 N1682 1.613 . S
S1681 N1683 1.610 . S
N1682 S1681 1.613 . S
N1682 C1685 1.350 . S
N1683 S1681 1.610 . S
N1683 C1684 1.351 . S
C1684 C1678 1.428 . S
C1684 N1683 1.351 . S
C1684 C1685 1.434 . S
C1685 C1676 1.429 . S
C1685 N1682 1.350 . S
C1685 C1684 1.434 . S
C1686 C1687 1.369 . S
C1686 C1688 1.419 . S
C1686 H1690 0.930 1_556 S
C1687 C1686 1.369 . S
C1687 C1696 1.429 . S
C1688 C1686 1.419 . S
C1688 C1689 1.363 . S
C1688 H1691 0.929 . S
C1689 C1688 1.363 . S
C1689 C1695 1.428 . S
H1690 C1686 0.930 1_554 S
H1691 C1688 0.929 . S
S1692 N1693 1.613 . S
S1692 N1694 1.610 . S
N1693 S1692 1.613 . S
N1693 C1696 1.350 . S
N1694 S1692 1.610 . S
N1694 C1695 1.351 . S
C1695 C1689 1.428 . S
C1695 N1694 1.351 . S
C1695 C1696 1.434 . S
C1696 C1687 1.429 . S
C1696 N1693 1.350 . S
C1696 C1695 1.434 . S
C1697 C1698 1.369 . S
C1697 C1699 1.419 . S
C1697 H1701 0.930 . S
C1698 C1697 1.369 . S
C1698 C1707 1.429 . S
C1699 C1697 1.419 . S
C1699 C1700 1.363 . S
C1699 H1702 0.929 . S
C1700 C1699 1.363 . S
C1700 C1706 1.428 . S
H1701 C1697 0.930 . S
H1702 C1699 0.929 . S
S1703 N1704 1.613 . S
S1703 N1705 1.610 . S
N1704 S1703 1.613 . S
N1704 C1707 1.350 . S
N1705 S1703 1.610 . S
N1705 C1706 1.351 . S
C1706 C1700 1.428 . S
C1706 N1705 1.351 . S
C1706 C1707 1.434 . S
C1707 C1698 1.429 . S
C1707 N1704 1.350 . S
C1707 C1706 1.434 . S
C1708 C1709 1.369 . S
C1708 C1710 1.419 . S
C1708 H1712 0.930 . S
C1709 C1708 1.369 . S
C1709 C1718 1.429 . S
C1710 C1708 1.419 . S
C1710 C1711 1.363 . S
C1710 H1713 0.929 . S
C1711 C1710 1.363 . S
C1711 C1717 1.428 . S
H1712 C1708 0.930 . S
H1713 C1710 0.929 . S
S1714 N1715 1.613 . S
S1714 N1716 1.610 . S
N1715 S1714 1.613 . S
N1715 C1718 1.350 . S
N1716 S1714 1.610 . S
N1716 C1717 1.351 . S
C1717 C1711 1.428 . S
C1717 N1716 1.351 . S
C1717 C1718 1.434 . S
C1718 C1709 1.429 . S
C1718 N1715 1.350 . S
C1718 C1717 1.434 . S
C1719 C1720 1.369 . S
C1719 C1721 1.419 . S
C1719 H1723 0.930 . S
C1720 C1719 1.369 . S
C1720 C1729 1.429 . S
C1721 C1719 1.419 . S
C1721 C1722 1.363 . S
C1721 H1724 0.929 . S
C1722 C1721 1.363 . S
C1722 C1728 1.428 . S
H1723 C1719 0.930 . S
H1724 C1721 0.929 . S
S1725 N1726 1.613 . S
S1725 N1727 1.610 . S
N1726 S1725 1.613 . S
N1726 C1729 1.350 . S
N1727 S1725 1.610 . S
N1727 C1728 1.351 . S
C1728 C1722 1.428 . S
C1728 N1727 1.351 . S
C1728 C1729 1.434 . S
C1729 C1720 1.429 . S
C1729 N1726 1.350 . S
C1729 C1728 1.434 . S
C1730 C1731 1.369 . S
C1730 C1732 1.419 . S
C1730 H1734 0.930 . S
C1731 C1730 1.369 . S
C1731 C1740 1.429 . S
C1732 C1730 1.419 . S
C1732 C1733 1.363 . S
C1732 H1735 0.929 . S
C1733 C1732 1.363 . S
C1733 C1739 1.428 . S
H1734 C1730 0.930 . S
H1735 C1732 0.929 . S
S1736 N1737 1.613 . S
S1736 N1738 1.610 . S
N1737 S1736 1.613 . S
N1737 C1740 1.350 . S
N1738 S1736 1.610 . S
N1738 C1739 1.351 . S
C1739 C1733 1.428 . S
C1739 N1738 1.351 . S
C1739 C1740 1.434 . S
C1740 C1731 1.429 . S
C1740 N1737 1.350 . S
C1740 C1739 1.434 . S
C1741 C1742 1.369 . S
C1741 C1743 1.419 . S
C1741 H1745 0.930 . S
C1742 C1741 1.369 . S
C1742 C1751 1.429 . S
C1743 C1741 1.419 . S
C1743 C1744 1.363 . S
C1743 H1746 0.929 . S
C1744 C1743 1.363 . S
C1744 C1750 1.428 . S
H1745 C1741 0.930 . S
H1746 C1743 0.929 . S
S1747 N1748 1.613 . S
S1747 N1749 1.610 . S
N1748 S1747 1.613 . S
N1748 C1751 1.350 . S
N1749 S1747 1.610 . S
N1749 C1750 1.351 . S
C1750 C1744 1.428 . S
C1750 N1749 1.351 . S
C1750 C1751 1.434 . S
C1751 C1742 1.429 . S
C1751 N1748 1.350 . S
C1751 C1750 1.434 . S
C1752 C1753 1.369 . S
C1752 C1754 1.419 . S
C1752 H1756 0.930 . S
C1753 C1752 1.369 . S
C1753 C1762 1.429 . S
C1754 C1752 1.419 . S
C1754 C1755 1.363 . S
C1754 H1757 0.929 . S
C1755 C1754 1.363 . S
C1755 C1761 1.428 . S
H1756 C1752 0.930 . S
H1757 C1754 0.929 . S
S1758 N1759 1.613 . S
S1758 N1760 1.610 . S
N1759 S1758 1.613 . S
N1759 C1762 1.350 . S
N1760 S1758 1.610 . S
N1760 C1761 1.351 . S
C1761 C1755 1.428 . S
C1761 N1760 1.351 . S
C1761 C1762 1.434 . S
C1762 C1753 1.429 . S
C1762 N1759 1.350 . S
C1762 C1761 1.434 . S
C1763 C1764 1.369 . S
C1763 C1765 1.419 . S
C1763 H1767 0.930 . S
C1764 C1763 1.369 . S
C1764 C1773 1.429 . S
C1765 C1763 1.419 . S
C1765 C1766 1.363 . S
C1765 H1768 0.929 . S
C1766 C1765 1.363 . S
C1766 C1772 1.428 . S
H1767 C1763 0.930 . S
H1768 C1765 0.929 . S
S1769 N1770 1.613 . S
S1769 N1771 1.610 . S
N1770 S1769 1.613 . S
N1770 C1773 1.350 . S
N1771 S1769 1.610 . S
N1771 C1772 1.351 . S
C1772 C1766 1.428 . S
C1772 N1771 1.351 . S
C1772 C1773 1.434 . S
C1773 C1764 1.429 . S
C1773 N1770 1.350 . S
C1773 C1772 1.434 . S
C1774 C1775 1.369 . S
C1774 C1776 1.419 . S
C1774 H1778 0.930 . S
C1775 C1774 1.369 . S
C1775 C1784 1.429 . S
C1776 C1774 1.419 . S
C1776 C1777 1.363 . S
C1776 H1779 0.929 . S
C1777 C1776 1.363 . S
C1777 C1783 1.428 . S
H1778 C1774 0.930 . S
H1779 C1776 0.929 . S
S1780 N1781 1.613 . S
S1780 N1782 1.610 . S
N1781 S1780 1.613 . S
N1781 C1784 1.350 . S
N1782 S1780 1.610 . S
N1782 C1783 1.351 . S
C1783 C1777 1.428 . S
C1783 N1782 1.351 . S
C1783 C1784 1.434 . S
C1784 C1775 1.429 . S
C1784 N1781 1.350 . S
C1784 C1783 1.434 . S
C1785 C1786 1.369 . S
C1785 C1787 1.419 . S
C1785 H1789 0.930 . S
C1786 C1785 1.369 . S
C1786 C1795 1.429 . S
C1787 C1785 1.419 . S
C1787 C1788 1.363 . S
C1787 H1790 0.929 . S
C1788 C1787 1.363 . S
C1788 C1794 1.428 . S
H1789 C1785 0.930 . S
H1790 C1787 0.929 . S
S1791 N1792 1.613 . S
S1791 N1793 1.610 . S
N1792 S1791 1.613 . S
N1792 C1795 1.350 . S
N1793 S1791 1.610 . S
N1793 C1794 1.351 . S
C1794 C1788 1.428 . S
C1794 N1793 1.351 . S
C1794 C1795 1.434 . S
C1795 C1786 1.429 . S
C1795 N1792 1.350 . S
C1795 C1794 1.434 . S
C1796 C1797 1.369 . S
C1796 C1798 1.419 . S
C1796 H1800 0.930 . S
C1797 C1796 1.369 . S
C1797 C1806 1.429 . S
C1798 C1796 1.419 . S
C1798 C1799 1.363 . S
C1798 H1801 0.929 . S
C1799 C1798 1.363 . S
C1799 C1805 1.428 . S
H1800 C1796 0.930 . S
H1801 C1798 0.929 . S
S1802 N1803 1.613 . S
S1802 N1804 1.610 . S
N1803 S1802 1.613 . S
N1803 C1806 1.350 . S
N1804 S1802 1.610 . S
N1804 C1805 1.351 . S
C1805 C1799 1.428 . S
C1805 N1804 1.351 . S
C1805 C1806 1.434 . S
C1806 C1797 1.429 . S
C1806 N1803 1.350 . S
C1806 C1805 1.434 . S
C1807 C1808 1.369 . S
C1807 C1809 1.419 . S
C1807 H1811 0.930 . S
C1808 C1807 1.369 . S
C1808 C1817 1.429 . S
C1809 C1807 1.419 . S
C1809 C1810 1.363 . S
C1809 H1812 0.929 . S
C1810 C1809 1.363 . S
C1810 C1816 1.428 . S
H1811 C1807 0.930 . S
H1812 C1809 0.929 . S
S1813 N1814 1.613 . S
S1813 N1815 1.610 . S
N1814 S1813 1.613 . S
N1814 C1817 1.350 . S
N1815 S1813 1.610 . S
N1815 C1816 1.351 . S
C1816 C1810 1.428 . S
C1816 N1815 1.351 . S
C1816 C1817 1.434 . S
C1817 C1808 1.429 . S
C1817 N1814 1.350 . S
C1817 C1816 1.434 . S
C1818 C1819 1.369 . S
C1818 C1820 1.419 . S
C1818 H1822 0.930 . S
C1819 C1818 1.369 . S
C1819 C1828 1.429 . S
C1820 C1818 1.419 . S
C1820 C1821 1.363 . S
C1820 H1823 0.929 . S
C1821 C1820 1.363 . S
C1821 C1827 1.428 . S
H1822 C1818 0.930 . S
H1823 C1820 0.929 . S
S1824 N1825 1.613 . S
S1824 N1826 1.610 . S
N1825 S1824 1.613 . S
N1825 C1828 1.350 . S
N1826 S1824 1.610 . S
N1826 C1827 1.351 . S
C1827 C1821 1.428 . S
C1827 N1826 1.351 . S
C1827 C1828 1.434 . S
C1828 C1819 1.429 . S
C1828 N1825 1.350 . S
C1828 C1827 1.434 . S
C1829 C1830 1.369 . S
C1829 C1831 1.419 . S
C1829 H1833 0.930 . S
C1830 C1829 1.369 . S
C1830 C1839 1.429 . S
C1831 C1829 1.419 . S
C1831 C1832 1.363 . S
C1831 H1834 0.929 . S
C1832 C1831 1.363 . S
C1832 C1838 1.428 . S
H1833 C1829 0.930 . S
H1834 C1831 0.929 . S
S1835 N1836 1.613 . S
S1835 N1837 1.610 . S
N1836 S1835 1.613 . S
N1836 C1839 1.350 . S
N1837 S1835 1.610 . S
N1837 C1838 1.351 . S
C1838 C1832 1.428 . S
C1838 N1837 1.351 . S
C1838 C1839 1.434 . S
C1839 C1830 1.429 . S
C1839 N1836 1.350 . S
C1839 C1838 1.434 . S
C1840 C1841 1.369 . S
C1840 C1842 1.419 . S
C1840 H1844 0.930 . S
C1841 C1840 1.369 . S
C1841 C1850 1.429 . S
C1842 C1840 1.419 . S
C1842 C1843 1.363 . S
C1842 H1845 0.929 . S
C1843 C1842 1.363 . S
C1843 C1849 1.428 . S
H1844 C1840 0.930 . S
H1845 C1842 0.929 . S
S1846 N1847 1.613 . S
S1846 N1848 1.610 . S
N1847 S1846 1.613 . S
N1847 C1850 1.350 . S
N1848 S1846 1.610 . S
N1848 C1849 1.351 . S
C1849 C1843 1.428 . S
C1849 N1848 1.351 . S
C1849 C1850 1.434 . S
C1850 C1841 1.429 . S
C1850 N1847 1.350 . S
C1850 C1849 1.434 . S
C1851 C1852 1.369 . S
C1851 C1853 1.419 . S
C1851 H1855 0.930 . S
C1852 C1851 1.369 . S
C1852 C1861 1.429 . S
C1853 C1851 1.419 . S
C1853 C1854 1.363 . S
C1853 H1856 0.929 . S
C1854 C1853 1.363 . S
C1854 C1860 1.428 . S
H1855 C1851 0.930 . S
H1856 C1853 0.929 . S
S1857 N1858 1.613 . S
S1857 N1859 1.610 . S
N1858 S1857 1.613 . S
N1858 C1861 1.350 . S
N1859 S1857 1.610 . S
N1859 C1860 1.351 . S
C1860 C1854 1.428 . S
C1860 N1859 1.351 . S
C1860 C1861 1.434 . S
C1861 C1852 1.429 . S
C1861 N1858 1.350 . S
C1861 C1860 1.434 . S
C1862 C1863 1.369 . S
C1862 C1864 1.419 . S
C1862 H1866 0.930 . S
C1863 C1862 1.369 . S
C1863 C1872 1.429 . S
C1864 C1862 1.419 . S
C1864 C1865 1.363 . S
C1864 H1867 0.929 . S
C1865 C1864 1.363 . S
C1865 C1871 1.428 . S
H1866 C1862 0.930 . S
H1867 C1864 0.929 . S
S1868 N1869 1.613 . S
S1868 N1870 1.610 . S
N1869 S1868 1.613 . S
N1869 C1872 1.350 . S
N1870 S1868 1.610 . S
N1870 C1871 1.351 . S
C1871 C1865 1.428 . S
C1871 N1870 1.351 . S
C1871 C1872 1.434 . S
C1872 C1863 1.429 . S
C1872 N1869 1.350 . S
C1872 C1871 1.434 . S
C1873 C1874 1.369 . S
C1873 C1875 1.419 . S
C1873 H1877 0.930 . S
C1874 C1873 1.369 . S
C1874 C1883 1.429 . S
C1875 C1873 1.419 . S
C1875 C1876 1.363 . S
C1875 H1878 0.929 . S
C1876 C1875 1.363 . S
C1876 C1882 1.428 . S
H1877 C1873 0.930 . S
H1878 C1875 0.929 . S
S1879 N1880 1.613 . S
S1879 N1881 1.610 . S
N1880 S1879 1.613 . S
N1880 C1883 1.350 . S
N1881 S1879 1.610 . S
N1881 C1882 1.351 . S
C1882 C1876 1.428 . S
C1882 N1881 1.351 . S
C1882 C1883 1.434 . S
C1883 C1874 1.429 . S
C1883 N1880 1.350 . S
C1883 C1882 1.434 . S
C1884 C1885 1.369 . S
C1884 C1886 1.419 . S
C1884 H1888 0.930 . S
C1885 C1884 1.369 . S
C1885 C1894 1.429 . S
C1886 C1884 1.419 . S
C1886 C1887 1.363 . S
C1886 H1889 0.929 . S
C1887 C1886 1.363 . S
C1887 C1893 1.428 . S
H1888 C1884 0.930 . S
H1889 C1886 0.929 . S
S1890 N1891 1.613 . S
S1890 N1892 1.610 . S
N1891 S1890 1.613 . S
N1891 C1894 1.350 . S
N1892 S1890 1.610 . S
N1892 C1893 1.351 . S
C1893 C1887 1.428 . S
C1893 N1892 1.351 . S
C1893 C1894 1.434 . S
C1894 C1885 1.429 . S
C1894 N1891 1.350 . S
C1894 C1893 1.434 . S
C1895 C1896 1.369 . S
C1895 C1897 1.419 . S
C1895 H1899 0.930 . S
C1896 C1895 1.369 . S
C1896 C1905 1.429 . S
C1897 C1895 1.419 . S
C1897 C1898 1.363 . S
C1897 H1900 0.929 . S
C1898 C1897 1.363 . S
C1898 C1904 1.428 . S
H1899 C1895 0.930 . S
H1900 C1897 0.929 . S
S1901 N1902 1.613 . S
S1901 N1903 1.610 . S
N1902 S1901 1.613 . S
N1902 C1905 1.350 . S
N1903 S1901 1.610 . S
N1903 C1904 1.351 . S
C1904 C1898 1.428 . S
C1904 N1903 1.351 . S
C1904 C1905 1.434 . S
C1905 C1896 1.429 . S
C1905 N1902 1.350 . S
C1905 C1904 1.434 . S
C1906 C1907 1.369 . S
C1906 C1908 1.419 . S
C1906 H1910 0.930 . S
C1907 C1906 1.369 . S
C1907 C1916 1.429 . S
C1908 C1906 1.419 . S
C1908 C1909 1.363 . S
C1908 H1911 0.929 . S
C1909 C1908 1.363 . S
C1909 C1915 1.428 . S
H1910 C1906 0.930 . S
H1911 C1908 0.929 . S
S1912 N1913 1.613 . S
S1912 N1914 1.610 . S
N1913 S1912 1.613 . S
N1913 C1916 1.350 . S
N1914 S1912 1.610 . S
N1914 C1915 1.351 . S
C1915 C1909 1.428 . S
C1915 N1914 1.351 . S
C1915 C1916 1.434 . S
C1916 C1907 1.429 . S
C1916 N1913 1.350 . S
C1916 C1915 1.434 . S
C1917 C1918 1.369 . S
C1917 C1919 1.419 . S
C1917 H1921 0.930 . S
C1918 C1917 1.369 . S
C1918 C1927 1.429 . S
C1919 C1917 1.419 . S
C1919 C1920 1.363 . S
C1919 H1922 0.929 . S
C1920 C1919 1.363 . S
C1920 C1926 1.428 . S
H1921 C1917 0.930 . S
H1922 C1919 0.929 . S
S1923 N1924 1.613 . S
S1923 N1925 1.610 . S
N1924 S1923 1.613 . S
N1924 C1927 1.350 . S
N1925 S1923 1.610 . S
N1925 C1926 1.351 . S
C1926 C1920 1.428 . S
C1926 N1925 1.351 . S
C1926 C1927 1.434 . S
C1927 C1918 1.429 . S
C1927 N1924 1.350 . S
C1927 C1926 1.434 . S
C1928 C1929 1.369 . S
C1928 C1930 1.419 . S
C1928 H1932 0.930 . S
C1929 C1928 1.369 . S
C1929 C1938 1.429 . S
C1930 C1928 1.419 . S
C1930 C1931 1.363 . S
C1930 H1933 0.929 . S
C1931 C1930 1.363 . S
C1931 C1937 1.428 . S
H1932 C1928 0.930 . S
H1933 C1930 0.929 . S
S1934 N1935 1.613 . S
S1934 N1936 1.610 . S
N1935 S1934 1.613 . S
N1935 C1938 1.350 . S
N1936 S1934 1.610 . S
N1936 C1937 1.351 . S
C1937 C1931 1.428 . S
C1937 N1936 1.351 . S
C1937 C1938 1.434 . S
C1938 C1929 1.429 . S
C1938 N1935 1.350 . S
C1938 C1937 1.434 . S
C1939 C1940 1.369 . S
C1939 C1941 1.419 . S
C1939 H1943 0.930 . S
C1940 C1939 1.369 . S
C1940 C1949 1.429 . S
C1941 C1939 1.419 . S
C1941 C1942 1.363 . S
C1941 H1944 0.929 . S
C1942 C1941 1.363 . S
C1942 C1948 1.428 . S
H1943 C1939 0.930 . S
H1944 C1941 0.929 . S
S1945 N1946 1.613 . S
S1945 N1947 1.610 . S
N1946 S1945 1.613 . S
N1946 C1949 1.350 . S
N1947 S1945 1.610 . S
N1947 C1948 1.351 . S
C1948 C1942 1.428 . S
C1948 N1947 1.351 . S
C1948 C1949 1.434 . S
C1949 C1940 1.429 . S
C1949 N1946 1.350 . S
C1949 C1948 1.434 . S
C1950 C1951 1.369 . S
C1950 C1952 1.419 . S
C1950 H1954 0.930 . S
C1951 C1950 1.369 . S
C1951 C1960 1.429 . S
C1952 C1950 1.419 . S
C1952 C1953 1.363 . S
C1952 H1955 0.929 . S
C1953 C1952 1.363 . S
C1953 C1959 1.428 . S
H1954 C1950 0.930 . S
H1955 C1952 0.929 . S
S1956 N1957 1.613 . S
S1956 N1958 1.610 . S
N1957 S1956 1.613 . S
N1957 C1960 1.350 . S
N1958 S1956 1.610 . S
N1958 C1959 1.351 . S
C1959 C1953 1.428 . S
C1959 N1958 1.351 . S
C1959 C1960 1.434 . S
C1960 C1951 1.429 . S
C1960 N1957 1.350 . S
C1960 C1959 1.434 . S
C1961 C1962 1.369 . S
C1961 C1963 1.419 . S
C1961 H1965 0.930 . S
C1962 C1961 1.369 . S
C1962 C1971 1.429 . S
C1963 C1961 1.419 . S
C1963 C1964 1.363 . S
C1963 H1966 0.929 . S
C1964 C1963 1.363 . S
C1964 C1970 1.428 . S
H1965 C1961 0.930 . S
H1966 C1963 0.929 . S
S1967 N1968 1.613 . S
S1967 N1969 1.610 . S
N1968 S1967 1.613 . S
N1968 C1971 1.350 . S
N1969 S1967 1.610 . S
N1969 C1970 1.351 . S
C1970 C1964 1.428 . S
C1970 N1969 1.351 . S
C1970 C1971 1.434 . S
C1971 C1962 1.429 . S
C1971 N1968 1.350 . S
C1971 C1970 1.434 . S
C1972 C1973 1.369 . S
C1972 C1974 1.419 . S
C1972 H1976 0.930 . S
C1973 C1972 1.369 . S
C1973 C1982 1.429 . S
C1974 C1972 1.419 . S
C1974 C1975 1.363 . S
C1974 H1977 0.929 . S
C1975 C1974 1.363 . S
C1975 C1981 1.428 . S
H1976 C1972 0.930 . S
H1977 C1974 0.929 . S
S1978 N1979 1.613 . S
S1978 N1980 1.610 . S
N1979 S1978 1.613 . S
N1979 C1982 1.350 . S
N1980 S1978 1.610 . S
N1980 C1981 1.351 . S
C1981 C1975 1.428 . S
C1981 N1980 1.351 . S
C1981 C1982 1.434 . S
C1982 C1973 1.429 . S
C1982 N1979 1.350 . S
C1982 C1981 1.434 . S
C1983 C1984 1.369 . S
C1983 C1985 1.419 . S
C1983 H1987 0.930 . S
C1984 C1983 1.369 . S
C1984 C1993 1.429 . S
C1985 C1983 1.419 . S
C1985 C1986 1.363 . S
C1985 H1988 0.929 . S
C1986 C1985 1.363 . S
C1986 C1992 1.428 . S
H1987 C1983 0.930 . S
H1988 C1985 0.929 . S
S1989 N1990 1.613 . S
S1989 N1991 1.610 . S
N1990 S1989 1.613 . S
N1990 C1993 1.350 . S
N1991 S1989 1.610 . S
N1991 C1992 1.351 . S
C1992 C1986 1.428 . S
C1992 N1991 1.351 . S
C1992 C1993 1.434 . S
C1993 C1984 1.429 . S
C1993 N1990 1.350 . S
C1993 C1992 1.434 . S
C1994 C1995 1.369 . S
C1994 C1996 1.419 . S
C1994 H1998 0.930 . S
C1995 C1994 1.369 . S
C1995 C2004 1.429 . S
C1996 C1994 1.419 . S
C1996 C1997 1.363 . S
C1996 H1999 0.929 . S
C1997 C1996 1.363 . S
C1997 C2003 1.428 . S
H1998 C1994 0.930 . S
H1999 C1996 0.929 . S
S2000 N2001 1.613 . S
S2000 N2002 1.610 . S
N2001 S2000 1.613 . S
N2001 C2004 1.350 . S
N2002 S2000 1.610 . S
N2002 C2003 1.351 . S
C2003 C1997 1.428 . S
C2003 N2002 1.351 . S
C2003 C2004 1.434 . S
C2004 C1995 1.429 . S
C2004 N2001 1.350 . S
C2004 C2003 1.434 . S
C2005 C2006 1.369 . S
C2005 C2007 1.419 . S
C2005 H2009 0.930 . S
C2006 C2005 1.369 . S
C2006 C2015 1.429 . S
C2007 C2005 1.419 . S
C2007 C2008 1.363 . S
C2007 H2010 0.929 . S
C2008 C2007 1.363 . S
C2008 C2014 1.428 . S
H2009 C2005 0.930 . S
H2010 C2007 0.929 . S
S2011 N2012 1.613 . S
S2011 N2013 1.610 . S
N2012 S2011 1.613 . S
N2012 C2015 1.350 . S
N2013 S2011 1.610 . S
N2013 C2014 1.351 . S
C2014 C2008 1.428 . S
C2014 N2013 1.351 . S
C2014 C2015 1.434 . S
C2015 C2006 1.429 . S
C2015 N2012 1.350 . S
C2015 C2014 1.434 . S
C2016 C2017 1.369 . S
C2016 C2018 1.419 . S
C2016 H2020 0.930 . S
C2017 C2016 1.369 . S
C2017 C2026 1.429 . S
C2018 C2016 1.419 . S
C2018 C2019 1.363 . S
C2018 H2021 0.929 . S
C2019 C2018 1.363 . S
C2019 C2025 1.428 . S
H2020 C2016 0.930 . S
H2021 C2018 0.929 . S
S2022 N2023 1.613 . S
S2022 N2024 1.610 . S
N2023 S2022 1.613 . S
N2023 C2026 1.350 . S
N2024 S2022 1.610 . S
N2024 C2025 1.351 . S
C2025 C2019 1.428 . S
C2025 N2024 1.351 . S
C2025 C2026 1.434 . S
C2026 C2017 1.429 . S
C2026 N2023 1.350 . S
C2026 C2025 1.434 . S
C2027 C2028 1.369 . S
C2027 C2029 1.419 . S
C2027 H2031 0.930 . S
C2028 C2027 1.369 . S
C2028 C2037 1.429 . S
C2029 C2027 1.419 . S
C2029 C2030 1.363 . S
C2029 H2032 0.929 . S
C2030 C2029 1.363 . S
C2030 C2036 1.428 . S
H2031 C2027 0.930 . S
H2032 C2029 0.929 . S
S2033 N2034 1.613 . S
S2033 N2035 1.610 . S
N2034 S2033 1.613 . S
N2034 C2037 1.350 . S
N2035 S2033 1.610 . S
N2035 C2036 1.351 . S
C2036 C2030 1.428 . S
C2036 N2035 1.351 . S
C2036 C2037 1.434 . S
C2037 C2028 1.429 . S
C2037 N2034 1.350 . S
C2037 C2036 1.434 . S
C2038 C2039 1.369 . S
C2038 C2040 1.419 . S
C2038 H2042 0.930 . S
C2039 C2038 1.369 . S
C2039 C2048 1.429 . S
C2040 C2038 1.419 . S
C2040 C2041 1.363 . S
C2040 H2043 0.929 . S
C2041 C2040 1.363 . S
C2041 C2047 1.428 . S
H2042 C2038 0.930 . S
H2043 C2040 0.929 . S
S2044 N2045 1.613 . S
S2044 N2046 1.610 . S
N2045 S2044 1.613 . S
N2045 C2048 1.350 . S
N2046 S2044 1.610 . S
N2046 C2047 1.351 . S
C2047 C2041 1.428 . S
C2047 N2046 1.351 . S
C2047 C2048 1.434 . S
C2048 C2039 1.429 . S
C2048 N2045 1.350 . S
C2048 C2047 1.434 . S
C2049 C2050 1.369 . S
C2049 C2051 1.419 . S
C2049 H2053 0.930 . S
C2050 C2049 1.369 . S
C2050 C2059 1.429 . S
C2051 C2049 1.419 . S
C2051 C2052 1.363 . S
C2051 H2054 0.929 . S
C2052 C2051 1.363 . S
C2052 C2058 1.428 . S
H2053 C2049 0.930 . S
H2054 C2051 0.929 . S
S2055 N2056 1.613 . S
S2055 N2057 1.610 . S
N2056 S2055 1.613 . S
N2056 C2059 1.350 . S
N2057 S2055 1.610 . S
N2057 C2058 1.351 . S
C2058 C2052 1.428 . S
C2058 N2057 1.351 . S
C2058 C2059 1.434 . S
C2059 C2050 1.429 . S
C2059 N2056 1.350 . S
C2059 C2058 1.434 . S
C2060 C2061 1.369 . S
C2060 C2062 1.419 . S
C2060 H2064 0.930 . S
C2061 C2060 1.369 . S
C2061 C2070 1.429 . S
C2062 C2060 1.419 . S
C2062 C2063 1.363 . S
C2062 H2065 0.929 . S
C2063 C2062 1.363 . S
C2063 C2069 1.428 . S
H2064 C2060 0.930 . S
H2065 C2062 0.929 . S
S2066 N2067 1.613 . S
S2066 N2068 1.610 . S
N2067 S2066 1.613 . S
N2067 C2070 1.350 . S
N2068 S2066 1.610 . S
N2068 C2069 1.351 . S
C2069 C2063 1.428 . S
C2069 N2068 1.351 . S
C2069 C2070 1.434 . S
C2070 C2061 1.429 . S
C2070 N2067 1.350 . S
C2070 C2069 1.434 . S
C2071 C2072 1.369 . S
C2071 C2073 1.419 . S
C2071 H2075 0.930 . S
C2072 C2071 1.369 . S
C2072 C2081 1.429 . S
C2073 C2071 1.419 . S
C2073 C2074 1.363 . S
C2073 H2076 0.929 . S
C2074 C2073 1.363 . S
C2074 C2080 1.428 . S
H2075 C2071 0.930 . S
H2076 C2073 0.929 . S
S2077 N2078 1.613 . S
S2077 N2079 1.610 . S
N2078 S2077 1.613 . S
N2078 C2081 1.350 . S
N2079 S2077 1.610 . S
N2079 C2080 1.351 . S
C2080 C2074 1.428 . S
C2080 N2079 1.351 . S
C2080 C2081 1.434 . S
C2081 C2072 1.429 . S
C2081 N2078 1.350 . S
C2081 C2080 1.434 . S
C2082 C2083 1.369 . S
C2082 C2084 1.419 . S
C2082 H2086 0.930 . S
C2083 C2082 1.369 . S
C2083 C2092 1.429 . S
C2084 C2082 1.419 . S
C2084 C2085 1.363 . S
C2084 H2087 0.929 . S
C2085 C2084 1.363 . S
C2085 C2091 1.428 . S
H2086 C2082 0.930 . S
H2087 C2084 0.929 . S
S2088 N2089 1.613 . S
S2088 N2090 1.610 . S
N2089 S2088 1.613 . S
N2089 C2092 1.350 . S
N2090 S2088 1.610 . S
N2090 C2091 1.351 . S
C2091 C2085 1.428 . S
C2091 N2090 1.351 . S
C2091 C2092 1.434 . S
C2092 C2083 1.429 . S
C2092 N2089 1.350 . S
C2092 C2091 1.434 . S
C2093 C2094 1.369 . S
C2093 C2095 1.419 . S
C2093 H2097 0.930 1_565 S
C2094 C2093 1.369 . S
C2094 C2103 1.429 . S
C2095 C2093 1.419 . S
C2095 C2096 1.363 . S
C2095 H2098 0.929 . S
C2096 C2095 1.363 . S
C2096 C2102 1.428 . S
H2097 C2093 0.930 1_545 S
H2098 C2095 0.929 . S
S2099 N2100 1.613 . S
S2099 N2101 1.610 . S
N2100 S2099 1.613 . S
N2100 C2103 1.350 . S
N2101 S2099 1.610 . S
N2101 C2102 1.351 . S
C2102 C2096 1.428 . S
C2102 N2101 1.351 . S
C2102 C2103 1.434 . S
C2103 C2094 1.429 . S
C2103 N2100 1.350 . S
C2103 C2102 1.434 . S
C2104 C2105 1.369 . S
C2104 C2106 1.419 . S
C2104 H2108 0.930 . S
C2105 C2104 1.369 . S
C2105 C2114 1.429 . S
C2106 C2104 1.419 . S
C2106 C2107 1.363 . S
C2106 H2109 0.929 . S
C2107 C2106 1.363 . S
C2107 C2113 1.428 . S
H2108 C2104 0.930 . S
H2109 C2106 0.929 . S
S2110 N2111 1.613 . S
S2110 N2112 1.610 . S
N2111 S2110 1.613 . S
N2111 C2114 1.350 . S
N2112 S2110 1.610 . S
N2112 C2113 1.351 . S
C2113 C2107 1.428 . S
C2113 N2112 1.351 . S
C2113 C2114 1.434 . S
C2114 C2105 1.429 . S
C2114 N2111 1.350 . S
C2114 C2113 1.434 . S
C2115 C2116 1.369 . S
C2115 C2117 1.419 . S
C2115 H2119 0.930 . S
C2116 C2115 1.369 . S
C2116 C2125 1.429 . S
C2117 C2115 1.419 . S
C2117 C2118 1.363 . S
C2117 H2120 0.929 . S
C2118 C2117 1.363 . S
C2118 C2124 1.428 . S
H2119 C2115 0.930 . S
H2120 C2117 0.929 . S
S2121 N2122 1.613 . S
S2121 N2123 1.610 . S
N2122 S2121 1.613 . S
N2122 C2125 1.350 . S
N2123 S2121 1.610 . S
N2123 C2124 1.351 . S
C2124 C2118 1.428 . S
C2124 N2123 1.351 . S
C2124 C2125 1.434 . S
C2125 C2116 1.429 . S
C2125 N2122 1.350 . S
C2125 C2124 1.434 . S
C2126 C2127 1.369 . S
C2126 C2128 1.419 . S
C2126 H2130 0.930 . S
C2127 C2126 1.369 . S
C2127 C2136 1.429 . S
C2128 C2126 1.419 . S
C2128 C2129 1.363 . S
C2128 H2131 0.929 . S
C2129 C2128 1.363 . S
C2129 C2135 1.428 . S
H2130 C2126 0.930 . S
H2131 C2128 0.929 . S
S2132 N2133 1.613 . S
S2132 N2134 1.610 . S
N2133 S2132 1.613 . S
N2133 C2136 1.350 . S
N2134 S2132 1.610 . S
N2134 C2135 1.351 . S
C2135 C2129 1.428 . S
C2135 N2134 1.351 . S
C2135 C2136 1.434 . S
C2136 C2127 1.429 . S
C2136 N2133 1.350 . S
C2136 C2135 1.434 . S
C2137 C2138 1.369 . S
C2137 C2139 1.419 . S
C2137 H2141 0.930 . S
C2138 C2137 1.369 . S
C2138 C2147 1.429 . S
C2139 C2137 1.419 . S
C2139 C2140 1.363 . S
C2139 H2142 0.929 . S
C2140 C2139 1.363 . S
C2140 C2146 1.428 . S
H2141 C2137 0.930 . S
H2142 C2139 0.929 . S
S2143 N2144 1.613 . S
S2143 N2145 1.610 . S
N2144 S2143 1.613 . S
N2144 C2147 1.350 . S
N2145 S2143 1.610 . S
N2145 C2146 1.351 . S
C2146 C2140 1.428 . S
C2146 N2145 1.351 . S
C2146 C2147 1.434 . S
C2147 C2138 1.429 . S
C2147 N2144 1.350 . S
C2147 C2146 1.434 . S
C2148 C2149 1.369 . S
C2148 C2150 1.419 . S
C2148 H2152 0.930 . S
C2149 C2148 1.369 . S
C2149 C2158 1.429 . S
C2150 C2148 1.419 . S
C2150 C2151 1.363 . S
C2150 H2153 0.929 . S
C2151 C2150 1.363 . S
C2151 C2157 1.428 . S
H2152 C2148 0.930 . S
H2153 C2150 0.929 . S
S2154 N2155 1.613 . S
S2154 N2156 1.610 . S
N2155 S2154 1.613 . S
N2155 C2158 1.350 . S
N2156 S2154 1.610 . S
N2156 C2157 1.351 . S
C2157 C2151 1.428 . S
C2157 N2156 1.351 . S
C2157 C2158 1.434 . S
C2158 C2149 1.429 . S
C2158 N2155 1.350 . S
C2158 C2157 1.434 . S
C2159 C2160 1.369 . S
C2159 C2161 1.419 . S
C2159 H2163 0.930 . S
C2160 C2159 1.369 . S
C2160 C2169 1.429 . S
C2161 C2159 1.419 . S
C2161 C2162 1.363 . S
C2161 H2164 0.929 . S
C2162 C2161 1.363 . S
C2162 C2168 1.428 . S
H2163 C2159 0.930 . S
H2164 C2161 0.929 . S
S2165 N2166 1.613 . S
S2165 N2167 1.610 . S
N2166 S2165 1.613 . S
N2166 C2169 1.350 . S
N2167 S2165 1.610 . S
N2167 C2168 1.351 . S
C2168 C2162 1.428 . S
C2168 N2167 1.351 . S
C2168 C2169 1.434 . S
C2169 C2160 1.429 . S
C2169 N2166 1.350 . S
C2169 C2168 1.434 . S
C2170 C2171 1.369 . S
C2170 C2172 1.419 . S
C2170 H2174 0.930 . S
C2171 C2170 1.369 . S
C2171 C2180 1.429 . S
C2172 C2170 1.419 . S
C2172 C2173 1.363 . S
C2172 H2175 0.929 . S
C2173 C2172 1.363 . S
C2173 C2179 1.428 . S
H2174 C2170 0.930 . S
H2175 C2172 0.929 . S
S2176 N2177 1.613 . S
S2176 N2178 1.610 . S
N2177 S2176 1.613 . S
N2177 C2180 1.350 . S
N2178 S2176 1.610 . S
N2178 C2179 1.351 . S
C2179 C2173 1.428 . S
C2179 N2178 1.351 . S
C2179 C2180 1.434 . S
C2180 C2171 1.429 . S
C2180 N2177 1.350 . S
C2180 C2179 1.434 . S
C2181 C2182 1.369 . S
C2181 C2183 1.419 . S
C2181 H2185 0.930 . S
C2182 C2181 1.369 . S
C2182 C2191 1.429 . S
C2183 C2181 1.419 . S
C2183 C2184 1.363 . S
C2183 H2186 0.929 . S
C2184 C2183 1.363 . S
C2184 C2190 1.428 . S
H2185 C2181 0.930 . S
H2186 C2183 0.929 . S
S2187 N2188 1.613 . S
S2187 N2189 1.610 . S
N2188 S2187 1.613 . S
N2188 C2191 1.350 . S
N2189 S2187 1.610 . S
N2189 C2190 1.351 . S
C2190 C2184 1.428 . S
C2190 N2189 1.351 . S
C2190 C2191 1.434 . S
C2191 C2182 1.429 . S
C2191 N2188 1.350 . S
C2191 C2190 1.434 . S
C2192 C2193 1.369 . S
C2192 C2194 1.419 . S
C2192 H2196 0.930 . S
C2193 C2192 1.369 . S
C2193 C2202 1.429 . S
C2194 C2192 1.419 . S
C2194 C2195 1.363 . S
C2194 H2197 0.929 . S
C2195 C2194 1.363 . S
C2195 C2201 1.428 . S
H2196 C2192 0.930 . S
H2197 C2194 0.929 . S
S2198 N2199 1.613 . S
S2198 N2200 1.610 . S
N2199 S2198 1.613 . S
N2199 C2202 1.350 . S
N2200 S2198 1.610 . S
N2200 C2201 1.351 . S
C2201 C2195 1.428 . S
C2201 N2200 1.351 . S
C2201 C2202 1.434 . S
C2202 C2193 1.429 . S
C2202 N2199 1.350 . S
C2202 C2201 1.434 . S
C2203 C2204 1.369 . S
C2203 C2205 1.419 . S
C2203 H2207 0.930 . S
C2204 C2203 1.369 . S
C2204 C2213 1.429 . S
C2205 C2203 1.419 . S
C2205 C2206 1.363 . S
C2205 H2208 0.929 . S
C2206 C2205 1.363 . S
C2206 C2212 1.428 . S
H2207 C2203 0.930 . S
H2208 C2205 0.929 . S
S2209 N2210 1.613 . S
S2209 N2211 1.610 . S
N2210 S2209 1.613 . S
N2210 C2213 1.350 . S
N2211 S2209 1.610 . S
N2211 C2212 1.351 . S
C2212 C2206 1.428 . S
C2212 N2211 1.351 . S
C2212 C2213 1.434 . S
C2213 C2204 1.429 . S
C2213 N2210 1.350 . S
C2213 C2212 1.434 . S
C2214 C2215 1.369 . S
C2214 C2216 1.419 . S
C2214 H2218 0.930 . S
C2215 C2214 1.369 . S
C2215 C2224 1.429 . S
C2216 C2214 1.419 . S
C2216 C2217 1.363 . S
C2216 H2219 0.929 . S
C2217 C2216 1.363 . S
C2217 C2223 1.428 . S
H2218 C2214 0.930 . S
H2219 C2216 0.929 . S
S2220 N2221 1.613 . S
S2220 N2222 1.610 . S
N2221 S2220 1.613 . S
N2221 C2224 1.350 . S
N2222 S2220 1.610 . S
N2222 C2223 1.351 . S
C2223 C2217 1.428 . S
C2223 N2222 1.351 . S
C2223 C2224 1.434 . S
C2224 C2215 1.429 . S
C2224 N2221 1.350 . S
C2224 C2223 1.434 . S
C2225 C2226 1.369 . S
C2225 C2227 1.419 . S
C2225 H2229 0.930 . S
C2226 C2225 1.369 . S
C2226 C2235 1.429 . S
C2227 C2225 1.419 . S
C2227 C2228 1.363 . S
C2227 H2230 0.929 . S
C2228 C2227 1.363 . S
C2228 C2234 1.428 . S
H2229 C2225 0.930 . S
H2230 C2227 0.929 . S
S2231 N2232 1.613 1_556 S
S2231 N2233 1.610 . S
N2232 S2231 1.613 1_554 S
N2232 C2235 1.350 1_554 S
N2233 S2231 1.610 . S
N2233 C2234 1.351 . S
C2234 C2228 1.428 . S
C2234 N2233 1.351 . S
C2234 C2235 1.434 . S
C2235 C2226 1.429 . S
C2235 N2232 1.350 1_556 S
C2235 C2234 1.434 . S
C2236 C2237 1.369 . S
C2236 C2238 1.419 . S
C2236 H2240 0.930 . S
C2237 C2236 1.369 . S
C2237 C2246 1.429 . S
C2238 C2236 1.419 . S
C2238 C2239 1.363 . S
C2238 H2241 0.929 . S
C2239 C2238 1.363 . S
C2239 C2245 1.428 . S
H2240 C2236 0.930 . S
H2241 C2238 0.929 . S
S2242 N2243 1.613 . S
S2242 N2244 1.610 . S
N2243 S2242 1.613 . S
N2243 C2246 1.350 . S
N2244 S2242 1.610 . S
N2244 C2245 1.351 . S
C2245 C2239 1.428 . S
C2245 N2244 1.351 . S
C2245 C2246 1.434 . S
C2246 C2237 1.429 . S
C2246 N2243 1.350 . S
C2246 C2245 1.434 . S
C2247 C2248 1.369 . S
C2247 C2249 1.419 . S
C2247 H2251 0.930 . S
C2248 C2247 1.369 . S
C2248 C2257 1.429 . S
C2249 C2247 1.419 . S
C2249 C2250 1.363 . S
C2249 H2252 0.929 . S
C2250 C2249 1.363 . S
C2250 C2256 1.428 . S
H2251 C2247 0.930 . S
H2252 C2249 0.929 . S
S2253 N2254 1.613 . S
S2253 N2255 1.610 . S
N2254 S2253 1.613 . S
N2254 C2257 1.350 . S
N2255 S2253 1.610 . S
N2255 C2256 1.351 . S
C2256 C2250 1.428 . S
C2256 N2255 1.351 . S
C2256 C2257 1.434 . S
C2257 C2248 1.429 . S
C2257 N2254 1.350 . S
C2257 C2256 1.434 . S
C2258 C2259 1.369 . S
C2258 C2260 1.419 . S
C2258 H2262 0.930 . S
C2259 C2258 1.369 . S
C2259 C2268 1.429 . S
C2260 C2258 1.419 . S
C2260 C2261 1.363 . S
C2260 H2263 0.929 . S
C2261 C2260 1.363 . S
C2261 C2267 1.428 . S
H2262 C2258 0.930 . S
H2263 C2260 0.929 . S
S2264 N2265 1.613 . S
S2264 N2266 1.610 . S
N2265 S2264 1.613 . S
N2265 C2268 1.350 . S
N2266 S2264 1.610 . S
N2266 C2267 1.351 . S
C2267 C2261 1.428 . S
C2267 N2266 1.351 . S
C2267 C2268 1.434 . S
C2268 C2259 1.429 . S
C2268 N2265 1.350 . S
C2268 C2267 1.434 . S
C2269 C2270 1.369 . S
C2269 C2271 1.419 . S
C2269 H2273 0.930 . S
C2270 C2269 1.369 . S
C2270 C2279 1.429 . S
C2271 C2269 1.419 . S
C2271 C2272 1.363 . S
C2271 H2274 0.929 . S
C2272 C2271 1.363 . S
C2272 C2278 1.428 . S
H2273 C2269 0.930 . S
H2274 C2271 0.929 . S
S2275 N2276 1.613 . S
S2275 N2277 1.610 . S
N2276 S2275 1.613 . S
N2276 C2279 1.350 . S
N2277 S2275 1.610 . S
N2277 C2278 1.351 . S
C2278 C2272 1.428 . S
C2278 N2277 1.351 . S
C2278 C2279 1.434 . S
C2279 C2270 1.429 . S
C2279 N2276 1.350 . S
C2279 C2278 1.434 . S
C2280 C2281 1.369 . S
C2280 C2282 1.419 . S
C2280 H2284 0.930 . S
C2281 C2280 1.369 . S
C2281 C2290 1.429 . S
C2282 C2280 1.419 . S
C2282 C2283 1.363 . S
C2282 H2285 0.929 . S
C2283 C2282 1.363 . S
C2283 C2289 1.428 . S
H2284 C2280 0.930 . S
H2285 C2282 0.929 . S
S2286 N2287 1.613 . S
S2286 N2288 1.610 . S
N2287 S2286 1.613 . S
N2287 C2290 1.350 . S
N2288 S2286 1.610 . S
N2288 C2289 1.351 . S
C2289 C2283 1.428 . S
C2289 N2288 1.351 . S
C2289 C2290 1.434 . S
C2290 C2281 1.429 . S
C2290 N2287 1.350 . S
C2290 C2289 1.434 . S
C2291 C2292 1.369 . S
C2291 C2293 1.419 . S
C2291 H2295 0.930 1_565 S
C2292 C2291 1.369 . S
C2292 C2301 1.429 . S
C2293 C2291 1.419 . S
C2293 C2294 1.363 . S
C2293 H2296 0.929 . S
C2294 C2293 1.363 . S
C2294 C2300 1.428 . S
H2295 C2291 0.930 1_545 S
H2296 C2293 0.929 . S
S2297 N2298 1.613 . S
S2297 N2299 1.610 . S
N2298 S2297 1.613 . S
N2298 C2301 1.350 . S
N2299 S2297 1.610 . S
N2299 C2300 1.351 . S
C2300 C2294 1.428 . S
C2300 N2299 1.351 . S
C2300 C2301 1.434 . S
C2301 C2292 1.429 . S
C2301 N2298 1.350 . S
C2301 C2300 1.434 . S
C2302 C2303 1.369 . S
C2302 C2304 1.419 . S
C2302 H2306 0.930 . S
C2303 C2302 1.369 . S
C2303 C2312 1.429 . S
C2304 C2302 1.419 . S
C2304 C2305 1.363 . S
C2304 H2307 0.929 . S
C2305 C2304 1.363 . S
C2305 C2311 1.428 . S
H2306 C2302 0.930 . S
H2307 C2304 0.929 . S
S2308 N2309 1.613 . S
S2308 N2310 1.610 . S
N2309 S2308 1.613 . S
N2309 C2312 1.350 . S
N2310 S2308 1.610 . S
N2310 C2311 1.351 . S
C2311 C2305 1.428 . S
C2311 N2310 1.351 . S
C2311 C2312 1.434 . S
C2312 C2303 1.429 . S
C2312 N2309 1.350 . S
C2312 C2311 1.434 . S
C2313 C2314 1.369 . S
C2313 C2315 1.419 . S
C2313 H2317 0.930 . S
C2314 C2313 1.369 . S
C2314 C2323 1.429 . S
C2315 C2313 1.419 . S
C2315 C2316 1.363 . S
C2315 H2318 0.929 . S
C2316 C2315 1.363 . S
C2316 C2322 1.428 . S
H2317 C2313 0.930 . S
H2318 C2315 0.929 . S
S2319 N2320 1.613 . S
S2319 N2321 1.610 . S
N2320 S2319 1.613 . S
N2320 C2323 1.350 . S
N2321 S2319 1.610 . S
N2321 C2322 1.351 . S
C2322 C2316 1.428 . S
C2322 N2321 1.351 . S
C2322 C2323 1.434 . S
C2323 C2314 1.429 . S
C2323 N2320 1.350 . S
C2323 C2322 1.434 . S
C2324 C2325 1.369 . S
C2324 C2326 1.419 . S
C2324 H2328 0.930 . S
C2325 C2324 1.369 . S
C2325 C2334 1.429 . S
C2326 C2324 1.419 . S
C2326 C2327 1.363 . S
C2326 H2329 0.929 . S
C2327 C2326 1.363 . S
C2327 C2333 1.428 . S
H2328 C2324 0.930 . S
H2329 C2326 0.929 . S
S2330 N2331 1.613 . S
S2330 N2332 1.610 . S
N2331 S2330 1.613 . S
N2331 C2334 1.350 . S
N2332 S2330 1.610 . S
N2332 C2333 1.351 . S
C2333 C2327 1.428 . S
C2333 N2332 1.351 . S
C2333 C2334 1.434 . S
C2334 C2325 1.429 . S
C2334 N2331 1.350 . S
C2334 C2333 1.434 . S
C2335 C2336 1.369 . S
C2335 C2337 1.419 . S
C2335 H2339 0.930 . S
C2336 C2335 1.369 . S
C2336 C2345 1.429 . S
C2337 C2335 1.419 . S
C2337 C2338 1.363 . S
C2337 H2340 0.929 . S
C2338 C2337 1.363 . S
C2338 C2344 1.428 . S
H2339 C2335 0.930 . S
H2340 C2337 0.929 . S
S2341 N2342 1.613 . S
S2341 N2343 1.610 . S
N2342 S2341 1.613 . S
N2342 C2345 1.350 . S
N2343 S2341 1.610 . S
N2343 C2344 1.351 . S
C2344 C2338 1.428 . S
C2344 N2343 1.351 . S
C2344 C2345 1.434 . S
C2345 C2336 1.429 . S
C2345 N2342 1.350 . S
C2345 C2344 1.434 . S
C2346 C2347 1.369 . S
C2346 C2348 1.419 . S
C2346 H2350 0.930 . S
C2347 C2346 1.369 . S
C2347 C2356 1.429 . S
C2348 C2346 1.419 . S
C2348 C2349 1.363 . S
C2348 H2351 0.929 . S
C2349 C2348 1.363 . S
C2349 C2355 1.428 . S
H2350 C2346 0.930 . S
H2351 C2348 0.929 . S
S2352 N2353 1.613 . S
S2352 N2354 1.610 . S
N2353 S2352 1.613 . S
N2353 C2356 1.350 . S
N2354 S2352 1.610 . S
N2354 C2355 1.351 . S
C2355 C2349 1.428 . S
C2355 N2354 1.351 . S
C2355 C2356 1.434 . S
C2356 C2347 1.429 . S
C2356 N2353 1.350 . S
C2356 C2355 1.434 . S
C2357 C2358 1.369 . S
C2357 C2359 1.419 . S
C2357 H2361 0.930 . S
C2358 C2357 1.369 . S
C2358 C2367 1.429 . S
C2359 C2357 1.419 . S
C2359 C2360 1.363 . S
C2359 H2362 0.929 . S
C2360 C2359 1.363 . S
C2360 C2366 1.428 . S
H2361 C2357 0.930 . S
H2362 C2359 0.929 . S
S2363 N2364 1.613 . S
S2363 N2365 1.610 . S
N2364 S2363 1.613 . S
N2364 C2367 1.350 . S
N2365 S2363 1.610 . S
N2365 C2366 1.351 . S
C2366 C2360 1.428 . S
C2366 N2365 1.351 . S
C2366 C2367 1.434 . S
C2367 C2358 1.429 . S
C2367 N2364 1.350 . S
C2367 C2366 1.434 . S
C2368 C2369 1.369 . S
C2368 C2370 1.419 . S
C2368 H2372 0.930 . S
C2369 C2368 1.369 . S
C2369 C2378 1.429 . S
C2370 C2368 1.419 . S
C2370 C2371 1.363 . S
C2370 H2373 0.929 . S
C2371 C2370 1.363 . S
C2371 C2377 1.428 . S
H2372 C2368 0.930 . S
H2373 C2370 0.929 . S
S2374 N2375 1.613 . S
S2374 N2376 1.610 . S
N2375 S2374 1.613 . S
N2375 C2378 1.350 . S
N2376 S2374 1.610 . S
N2376 C2377 1.351 . S
C2377 C2371 1.428 . S
C2377 N2376 1.351 . S
C2377 C2378 1.434 . S
C2378 C2369 1.429 . S
C2378 N2375 1.350 . S
C2378 C2377 1.434 . S
C2379 C2380 1.369 . S
C2379 C2381 1.419 . S
C2379 H2383 0.930 . S
C2380 C2379 1.369 . S
C2380 C2389 1.429 . S
C2381 C2379 1.419 . S
C2381 C2382 1.363 . S
C2381 H2384 0.929 . S
C2382 C2381 1.363 . S
C2382 C2388 1.428 . S
H2383 C2379 0.930 . S
H2384 C2381 0.929 . S
S2385 N2386 1.613 . S
S2385 N2387 1.610 . S
N2386 S2385 1.613 . S
N2386 C2389 1.350 . S
N2387 S2385 1.610 . S
N2387 C2388 1.351 . S
C2388 C2382 1.428 . S
C2388 N2387 1.351 . S
C2388 C2389 1.434 . S
C2389 C2380 1.429 . S
C2389 N2386 1.350 . S
C2389 C2388 1.434 . S
C2390 C2391 1.369 . S
C2390 C2392 1.419 . S
C2390 H2394 0.930 . S
C2391 C2390 1.369 . S
C2391 C2400 1.429 . S
C2392 C2390 1.419 . S
C2392 C2393 1.363 . S
C2392 H2395 0.929 . S
C2393 C2392 1.363 . S
C2393 C2399 1.428 . S
H2394 C2390 0.930 . S
H2395 C2392 0.929 . S
S2396 N2397 1.613 . S
S2396 N2398 1.610 . S
N2397 S2396 1.613 . S
N2397 C2400 1.350 . S
N2398 S2396 1.610 . S
N2398 C2399 1.351 . S
C2399 C2393 1.428 . S
C2399 N2398 1.351 . S
C2399 C2400 1.434 . S
C2400 C2391 1.429 . S
C2400 N2397 1.350 . S
C2400 C2399 1.434 . S
C2401 C2402 1.369 . S
C2401 C2403 1.419 . S
C2401 H2405 0.930 . S
C2402 C2401 1.369 . S
C2402 C2411 1.429 . S
C2403 C2401 1.419 . S
C2403 C2404 1.363 . S
C2403 H2406 0.929 . S
C2404 C2403 1.363 . S
C2404 C2410 1.428 . S
H2405 C2401 0.930 . S
H2406 C2403 0.929 . S
S2407 N2408 1.613 . S
S2407 N2409 1.610 . S
N2408 S2407 1.613 . S
N2408 C2411 1.350 . S
N2409 S2407 1.610 . S
N2409 C2410 1.351 . S
C2410 C2404 1.428 . S
C2410 N2409 1.351 . S
C2410 C2411 1.434 . S
C2411 C2402 1.429 . S
C2411 N2408 1.350 . S
C2411 C2410 1.434 . S
C2412 C2413 1.369 . S
C2412 C2414 1.419 . S
C2412 H2416 0.930 . S
C2413 C2412 1.369 . S
C2413 C2422 1.429 . S
C2414 C2412 1.419 . S
C2414 C2415 1.363 . S
C2414 H2417 0.929 . S
C2415 C2414 1.363 . S
C2415 C2421 1.428 . S
H2416 C2412 0.930 . S
H2417 C2414 0.929 . S
S2418 N2419 1.613 . S
S2418 N2420 1.610 . S
N2419 S2418 1.613 . S
N2419 C2422 1.350 . S
N2420 S2418 1.610 . S
N2420 C2421 1.351 . S
C2421 C2415 1.428 . S
C2421 N2420 1.351 . S
C2421 C2422 1.434 . S
C2422 C2413 1.429 . S
C2422 N2419 1.350 . S
C2422 C2421 1.434 . S
C2423 C2424 1.369 . S
C2423 C2425 1.419 . S
C2423 H2427 0.930 . S
C2424 C2423 1.369 . S
C2424 C2433 1.429 . S
C2425 C2423 1.419 . S
C2425 C2426 1.363 . S
C2425 H2428 0.929 . S
C2426 C2425 1.363 . S
C2426 C2432 1.428 . S
H2427 C2423 0.930 . S
H2428 C2425 0.929 . S
S2429 N2430 1.613 . S
S2429 N2431 1.610 . S
N2430 S2429 1.613 . S
N2430 C2433 1.350 . S
N2431 S2429 1.610 . S
N2431 C2432 1.351 . S
C2432 C2426 1.428 . S
C2432 N2431 1.351 . S
C2432 C2433 1.434 . S
C2433 C2424 1.429 . S
C2433 N2430 1.350 . S
C2433 C2432 1.434 . S
C2434 C2435 1.369 . S
C2434 C2436 1.419 . S
C2434 H2438 0.930 . S
C2435 C2434 1.369 . S
C2435 C2444 1.429 . S
C2436 C2434 1.419 . S
C2436 C2437 1.363 . S
C2436 H2439 0.929 . S
C2437 C2436 1.363 . S
C2437 C2443 1.428 . S
H2438 C2434 0.930 . S
H2439 C2436 0.929 . S
S2440 N2441 1.613 . S
S2440 N2442 1.610 . S
N2441 S2440 1.613 . S
N2441 C2444 1.350 . S
N2442 S2440 1.610 . S
N2442 C2443 1.351 . S
C2443 C2437 1.428 . S
C2443 N2442 1.351 . S
C2443 C2444 1.434 . S
C2444 C2435 1.429 . S
C2444 N2441 1.350 . S
C2444 C2443 1.434 . S
C2445 C2446 1.369 . S
C2445 C2447 1.419 . S
C2445 H2449 0.930 . S
C2446 C2445 1.369 . S
C2446 C2455 1.429 . S
C2447 C2445 1.419 . S
C2447 C2448 1.363 . S
C2447 H2450 0.929 . S
C2448 C2447 1.363 . S
C2448 C2454 1.428 . S
H2449 C2445 0.930 . S
H2450 C2447 0.929 . S
S2451 N2452 1.613 . S
S2451 N2453 1.610 . S
N2452 S2451 1.613 . S
N2452 C2455 1.350 . S
N2453 S2451 1.610 . S
N2453 C2454 1.351 . S
C2454 C2448 1.428 . S
C2454 N2453 1.351 . S
C2454 C2455 1.434 . S
C2455 C2446 1.429 . S
C2455 N2452 1.350 . S
C2455 C2454 1.434 . S
C2456 C2457 1.369 . S
C2456 C2458 1.419 . S
C2456 H2460 0.930 . S
C2457 C2456 1.369 . S
C2457 C2466 1.429 . S
C2458 C2456 1.419 . S
C2458 C2459 1.363 . S
C2458 H2461 0.929 . S
C2459 C2458 1.363 . S
C2459 C2465 1.428 . S
H2460 C2456 0.930 . S
H2461 C2458 0.929 . S
S2462 N2463 1.613 . S
S2462 N2464 1.610 . S
N2463 S2462 1.613 . S
N2463 C2466 1.350 . S
N2464 S2462 1.610 . S
N2464 C2465 1.351 . S
C2465 C2459 1.428 . S
C2465 N2464 1.351 . S
C2465 C2466 1.434 . S
C2466 C2457 1.429 . S
C2466 N2463 1.350 . S
C2466 C2465 1.434 . S
C2467 C2468 1.369 . S
C2467 C2469 1.419 . S
C2467 H2471 0.930 . S
C2468 C2467 1.369 . S
C2468 C2477 1.429 . S
C2469 C2467 1.419 . S
C2469 C2470 1.363 . S
C2469 H2472 0.929 . S
C2470 C2469 1.363 . S
C2470 C2476 1.428 . S
H2471 C2467 0.930 . S
H2472 C2469 0.929 . S
S2473 N2474 1.613 . S
S2473 N2475 1.610 . S
N2474 S2473 1.613 . S
N2474 C2477 1.350 . S
N2475 S2473 1.610 . S
N2475 C2476 1.351 . S
C2476 C2470 1.428 . S
C2476 N2475 1.351 . S
C2476 C2477 1.434 . S
C2477 C2468 1.429 . S
C2477 N2474 1.350 . S
C2477 C2476 1.434 . S
C2478 C2479 1.369 . S
C2478 C2480 1.419 . S
C2478 H2482 0.930 . S
C2479 C2478 1.369 . S
C2479 C2488 1.429 . S
C2480 C2478 1.419 . S
C2480 C2481 1.363 . S
C2480 H2483 0.929 . S
C2481 C2480 1.363 . S
C2481 C2487 1.428 . S
H2482 C2478 0.930 . S
H2483 C2480 0.929 . S
S2484 N2485 1.613 . S
S2484 N2486 1.610 . S
N2485 S2484 1.613 . S
N2485 C2488 1.350 . S
N2486 S2484 1.610 . S
N2486 C2487 1.351 . S
C2487 C2481 1.428 . S
C2487 N2486 1.351 . S
C2487 C2488 1.434 . S
C2488 C2479 1.429 . S
C2488 N2485 1.350 . S
C2488 C2487 1.434 . S
C2489 C2490 1.369 . S
C2489 C2491 1.419 . S
C2489 H2493 0.930 . S
C2490 C2489 1.369 . S
C2490 C2499 1.429 . S
C2491 C2489 1.419 . S
C2491 C2492 1.363 . S
C2491 H2494 0.929 . S
C2492 C2491 1.363 . S
C2492 C2498 1.428 . S
H2493 C2489 0.930 . S
H2494 C2491 0.929 . S
S2495 N2496 1.613 . S
S2495 N2497 1.610 . S
N2496 S2495 1.613 . S
N2496 C2499 1.350 . S
N2497 S2495 1.610 . S
N2497 C2498 1.351 . S
C2498 C2492 1.428 . S
C2498 N2497 1.351 . S
C2498 C2499 1.434 . S
C2499 C2490 1.429 . S
C2499 N2496 1.350 . S
C2499 C2498 1.434 . S
C2500 C2501 1.369 . S
C2500 C2502 1.419 . S
C2500 H2504 0.930 . S
C2501 C2500 1.369 . S
C2501 C2510 1.429 . S
C2502 C2500 1.419 . S
C2502 C2503 1.363 . S
C2502 H2505 0.929 . S
C2503 C2502 1.363 . S
C2503 C2509 1.428 . S
H2504 C2500 0.930 . S
H2505 C2502 0.929 . S
S2506 N2507 1.613 . S
S2506 N2508 1.610 . S
N2507 S2506 1.613 . S
N2507 C2510 1.350 . S
N2508 S2506 1.610 . S
N2508 C2509 1.351 . S
C2509 C2503 1.428 . S
C2509 N2508 1.351 . S
C2509 C2510 1.434 . S
C2510 C2501 1.429 . S
C2510 N2507 1.350 . S
C2510 C2509 1.434 . S
C2511 C2512 1.369 . S
C2511 C2513 1.419 . S
C2511 H2515 0.930 . S
C2512 C2511 1.369 . S
C2512 C2521 1.429 . S
C2513 C2511 1.419 . S
C2513 C2514 1.363 . S
C2513 H2516 0.929 . S
C2514 C2513 1.363 . S
C2514 C2520 1.428 . S
H2515 C2511 0.930 . S
H2516 C2513 0.929 . S
S2517 N2518 1.613 . S
S2517 N2519 1.610 . S
N2518 S2517 1.613 . S
N2518 C2521 1.350 . S
N2519 S2517 1.610 . S
N2519 C2520 1.351 . S
C2520 C2514 1.428 . S
C2520 N2519 1.351 . S
C2520 C2521 1.434 . S
C2521 C2512 1.429 . S
C2521 N2518 1.350 . S
C2521 C2520 1.434 . S
C2522 C2523 1.369 . S
C2522 C2524 1.419 . S
C2522 H2526 0.930 . S
C2523 C2522 1.369 . S
C2523 C2532 1.429 . S
C2524 C2522 1.419 . S
C2524 C2525 1.363 . S
C2524 H2527 0.929 . S
C2525 C2524 1.363 . S
C2525 C2531 1.428 . S
H2526 C2522 0.930 . S
H2527 C2524 0.929 . S
S2528 N2529 1.613 . S
S2528 N2530 1.610 . S
N2529 S2528 1.613 . S
N2529 C2532 1.350 . S
N2530 S2528 1.610 . S
N2530 C2531 1.351 . S
C2531 C2525 1.428 . S
C2531 N2530 1.351 . S
C2531 C2532 1.434 . S
C2532 C2523 1.429 . S
C2532 N2529 1.350 . S
C2532 C2531 1.434 . S
C2533 C2534 1.369 . S
C2533 C2535 1.419 . S
C2533 H2537 0.930 . S
C2534 C2533 1.369 . S
C2534 C2543 1.429 . S
C2535 C2533 1.419 . S
C2535 C2536 1.363 . S
C2535 H2538 0.929 . S
C2536 C2535 1.363 . S
C2536 C2542 1.428 . S
H2537 C2533 0.930 . S
H2538 C2535 0.929 . S
S2539 N2540 1.613 . S
S2539 N2541 1.610 . S
N2540 S2539 1.613 . S
N2540 C2543 1.350 . S
N2541 S2539 1.610 . S
N2541 C2542 1.351 . S
C2542 C2536 1.428 . S
C2542 N2541 1.351 . S
C2542 C2543 1.434 . S
C2543 C2534 1.429 . S
C2543 N2540 1.350 . S
C2543 C2542 1.434 . S
C961 C128 2.476 . S
C963 C8 2.481 1_455 S
C972 C149 2.434 . S
C974 C28 2.518 . S
C983 C88 2.490 . S
C985 C48 2.493 . S
C994 C108 2.447 . S
C996 C68 2.450 . S
C1005 C208 2.501 . S
C1007 C168 2.502 . S
C1016 C228 2.475 . S
C1018 C188 2.455 . S
C1027 C289 2.445 . S
C1029 C248 2.521 . S
C1038 C308 2.469 . S
C1040 C268 2.480 . S
C1049 C348 2.482 . S
C1051 C328 2.487 . S
C1060 C468 2.497 . S
C1062 C368 2.499 . S
C1071 C429 2.425 . S
C1073 C389 2.428 . S
C1082 C408 2.485 . S
C1084 C448 2.490 1_554 S
C1093 C488 2.484 . S
C1095 C608 2.476 . S
C1104 C508 2.520 . S
C1106 C629 2.438 . S
C1115 C528 2.493 . S
C1117 C568 2.491 . S
C1126 C548 2.452 . S
C1128 C588 2.446 . S
C1137 C648 2.504 . S
C1139 C688 2.500 . S
C1148 C668 2.458 . S
C1150 C708 2.471 . S
C1159 C728 2.522 . S
C1161 C769 2.446 . S
C1170 C788 2.471 . S
C1172 C748 2.479 . S
C1181 C808 2.487 1_545 S
C1183 C828 2.481 . S
C1192 C948 2.498 . S
C1194 C848 2.498 . S
C1203 C869 2.425 . S
C1205 C909 2.427 . S
C1214 C888 2.482 . S
C1216 C928 2.491 . S
C1225 C9 2.745 . S
C1227 C189 2.714 . S
C1236 C29 2.729 . S
C1238 C209 2.735 . S
C1247 C49 2.742 . S
C1249 C229 2.790 . S
C1258 C169 2.745 . S
C1260 C69 2.764 . S
C1269 C309 2.673 . S
C1271 C89 2.642 . S
C1280 C249 2.746 . S
C1282 C109 2.768 . S
C1291 C269 2.781 . S
C1293 C129 2.804 . S
C1302 C148 2.854 . S
C1304 C288 2.849 1_545 S
C1313 C369 2.846 . S
C1315 C329 2.891 . S
C1324 C449 2.659 . S
C1326 C349 2.617 . S
C1335 C388 2.609 . S
C1337 C469 2.530 . S
C1346 C428 2.917 1_554 S
C1348 C409 2.894 . S
C1357 C489 2.745 . S
C1359 C669 2.708 . S
C1368 C689 2.734 . S
C1370 C509 2.724 . S
C1379 C709 2.792 . S
C1381 C529 2.741 . S
C1390 C549 2.763 . S
C1392 C649 2.742 . S
C1401 C789 2.675 . S
C1403 C569 2.639 . S
C1412 C589 2.772 . S
C1414 C729 2.744 . S
C1423 C609 2.798 . S
C1425 C749 2.779 . S
C1434 C628 2.856 . S
C1436 C768 2.849 . S
C1445 C809 2.893 . S
C1447 C849 2.840 . S
C1456 C929 2.656 . S
C1458 C829 2.612 . S
C1467 C949 2.525 . S
C1469 C868 2.605 . S
C1478 C889 2.897 . S
C1480 C908 2.922 . S
C1489 C18 1.163 . S
C1491 C62 1.074 . S
C1500 C2 0.746 . S
C1502 C38 0.762 . S
C1511 C58 1.179 . S
C1513 C22 1.105 . S
C1522 C78 0.752 . S
C1524 C42 0.753 . S
C1533 C102 1.002 . S
C1535 C98 1.080 . S
C1544 C122 0.816 . S
C1546 C118 0.875 . S
C1555 C138 1.289 . S
C1557 C159 1.302 . S
C1566 C82 0.651 . S
C1568 C141 0.663 . S
C1577 C178 0.892 . S
C1579 C362 0.861 . S
C1588 C198 1.233 . S
C1590 C399 1.285 . S
C1599 C218 1.072 1_565 S
C1601 C402 1.014 . S
C1610 C238 1.136 . S
C1612 C342 0.962 . S
C1621 C258 0.760 . S
C1623 C442 0.757 . S
C1632 C322 1.016 . S
C1634 C278 1.051 . S
C1643 C462 0.740 . S
C1645 C281 0.746 . S
C1654 C318 1.418 . S
C1656 C439 1.389 . S
C1665 C338 1.138 . S
C1667 C182 0.980 . S
C1676 C358 0.767 . S
C1678 C302 0.765 . S
C1687 C378 1.155 1_556 S
C1689 C242 1.084 . S
C1698 C262 0.617 . S
C1700 C381 0.602 . S
C1709 C299 1.206 . S
C1711 C418 1.190 . S
C1720 C222 0.730 . S
C1722 C421 0.741 . S
C1731 C162 0.967 . S
C1733 C458 1.005 . S
C1742 C478 0.788 . S
C1744 C202 0.770 . S
C1753 C498 1.166 . S
C1755 C542 1.085 . S
C1764 C518 0.763 . S
C1766 C482 0.759 . S
C1775 C502 1.103 . S
C1777 C538 1.177 . S
C1786 C522 0.743 . S
C1788 C558 0.746 . S
C1797 C578 1.083 . S
C1799 C582 0.995 . S
C1808 C602 0.828 . S
C1810 C598 0.881 . S
C1819 C639 1.302 . S
C1821 C618 1.288 . S
C1830 C621 0.664 . S
C1832 C562 0.654 . S
C1841 C658 0.892 . S
C1843 C842 0.862 . S
C1852 C879 1.290 . S
C1854 C678 1.242 . S
C1863 C882 1.015 . S
C1865 C698 1.077 . S
C1874 C718 1.136 . S
C1876 C822 0.966 . S
C1885 C922 0.761 . S
C1887 C738 0.759 . S
C1896 C758 1.056 . S
C1898 C802 1.024 . S
C1907 C761 0.729 . S
C1909 C942 0.734 . S
C1918 C798 1.421 . S
C1920 C919 1.390 . S
C1929 C662 0.982 . S
C1931 C818 1.137 . S
C1940 C782 0.761 . S
C1942 C838 0.772 . S
C1951 C722 1.084 . S
C1953 C858 1.156 . S
C1962 C861 0.589 . S
C1964 C742 0.612 . S
C1973 C779 1.198 . S
C1975 C898 1.186 . S
C1984 C901 0.744 . S
C1986 C702 0.728 . S
C1995 C938 1.004 . S
C1997 C642 0.961 . S
C2006 C682 0.769 . S
C2008 C958 0.787 . S
C2017 C1 0.786 . S
C2019 C881 0.766 . S
C2028 C821 0.847 . S
C2030 C21 0.835 . S
C2039 C41 0.796 . S
C2041 C841 0.767 . S
C2050 C61 1.142 . S
C2052 C878 1.193 . S
C2061 C81 0.766 . S
C2063 C941 0.777 . S
C2072 C101 1.148 . S
C2074 C918 1.180 . S
C2083 C121 0.777 . S
C2085 C921 0.751 . S
C2094 C158 1.186 1_565 S
C2096 C801 1.158 . S
C2105 C161 0.770 . S
C2107 C781 0.749 . S
C2116 C181 0.835 . S
C2118 C721 0.805 . S
C2127 C201 0.741 . S
C2129 C741 0.770 . S
C2138 C221 1.038 . S
C2140 C778 1.092 . S
C2149 C241 0.816 . S
C2151 C661 0.816 . S
C2160 C261 0.749 . S
C2162 C681 0.758 . S
C2171 C298 1.085 . S
C2173 C701 1.045 . S
C2182 C301 0.771 . S
C2184 C641 0.748 . S
C2193 C321 1.157 . S
C2195 C638 1.192 . S
C2204 C341 0.845 . S
C2206 C501 0.846 . S
C2215 C361 0.784 . S
C2217 C521 0.771 . S
C2226 C398 1.191 1_556 S
C2228 C541 1.150 . S
C2237 C401 0.775 . S
C2239 C481 0.778 . S
C2248 C438 1.181 . S
C2250 C581 1.147 . S
C2259 C441 0.744 . S
C2261 C601 0.773 . S
C2270 C461 0.758 . S
C2272 C561 0.786 . S
C2281 C99 1.667 . S
C2283 C859 1.670 . S
C2292 C119 0.978 . S
C2294 C862 0.969 . S
C2303 C139 1.796 . S
C2305 C899 1.799 . S
C2314 C142 0.945 . S
C2316 C839 0.958 . S
C2325 C19 1.762 . S
C2327 C939 1.770 . S
C2336 C39 1.489 . S
C2338 C819 1.478 . S
C2347 C59 1.580 . S
C2349 C959 1.580 . S
C2358 C902 0.989 . S
C2360 C79 1.021 . S
C2369 C282 1.073 . S
C2371 C679 1.089 . S
C2380 C319 1.813 . S
C2382 C699 1.814 . S
C2391 C259 1.497 . S
C2393 C719 1.482 . S
C2402 C279 1.681 . S
C2404 C659 1.689 . S
C2413 C219 1.813 . S
C2415 C799 1.816 . S
C2424 C239 1.481 . S
C2426 C739 1.497 . S
C2435 C179 1.691 . S
C2437 C759 1.679 . S
C2446 C199 1.098 . S
C2448 C762 1.064 . S
C2457 C422 0.984 . S
C2459 C559 1.021 . S
C2468 C382 0.970 . S
C2470 C599 0.983 . S
C2479 C419 1.799 . S
C2481 C619 1.796 . S
C2490 C359 0.958 . S
C2492 C622 0.948 . S
C2501 C379 1.669 . S
C2503 C579 1.665 . S
C2512 C339 1.484 . S
C2514 C519 1.485 . S
C2523 C479 1.579 . S
C2525 C539 1.582 . S
C2534 C459 1.768 . S
C2536 C499 1.763 . S
