# Generated by pormake.
# Topology uki, (4)-cn, num edge types: 1
# Building blocks:
#     Node 0, Type 0, BuildingBlock: GALJAG_clean_sbu_0, # of connection points: 4
#     Node 1, Type 0, BuildingBlock: GALJAG_clean_sbu_0, # of connection points: 4
#     Node 2, Type 0, BuildingBlock: GALJAG_clean_sbu_0, # of connection points: 4
#     Node 3, Type 0, BuildingBlock: GALJAG_clean_sbu_0, # of connection points: 4
#     Node 4, Type 0, BuildingBlock: GALJAG_clean_sbu_0, # of connection points: 4
#     Node 5, Type 0, BuildingBlock: GALJAG_clean_sbu_0, # of connection points: 4
#     Node 6, Type 0, BuildingBlock: GALJAG_clean_sbu_0, # of connection points: 4
#     Node 7, Type 0, BuildingBlock: GALJAG_clean_sbu_0, # of connection points: 4
#     Node 8, Type 0, BuildingBlock: GALJAG_clean_sbu_0, # of connection points: 4
#     Node 9, Type 0, BuildingBlock: GALJAG_clean_sbu_0, # of connection points: 4
#     Node 10, Type 0, BuildingBlock: GALJAG_clean_sbu_0, # of connection points: 4
#     Node 11, Type 0, BuildingBlock: GALJAG_clean_sbu_0, # of connection points: 4
#     Node 12, Type 0, BuildingBlock: GALJAG_clean_sbu_0, # of connection points: 4
#     Node 13, Type 0, BuildingBlock: GALJAG_clean_sbu_0, # of connection points: 4
#     Node 14, Type 0, BuildingBlock: GALJAG_clean_sbu_0, # of connection points: 4
#     Node 15, Type 0, BuildingBlock: GALJAG_clean_sbu_0, # of connection points: 4
#     Edge 16, Type (0, 0), BuildingBlock: OJICUG_clean_linker_0, # of connection points: 2
#     Edge 17, Type (0, 0), BuildingBlock: OJICUG_clean_linker_0, # of connection points: 2
#     Edge 18, Type (0, 0), BuildingBlock: OJICUG_clean_linker_0, # of connection points: 2
#     Edge 19, Type (0, 0), BuildingBlock: OJICUG_clean_linker_0, # of connection points: 2
#     Edge 20, Type (0, 0), BuildingBlock: OJICUG_clean_linker_0, # of connection points: 2
#     Edge 21, Type (0, 0), BuildingBlock: OJICUG_clean_linker_0, # of connection points: 2
#     Edge 22, Type (0, 0), BuildingBlock: OJICUG_clean_linker_0, # of connection points: 2
#     Edge 23, Type (0, 0), BuildingBlock: OJICUG_clean_linker_0, # of connection points: 2
#     Edge 24, Type (0, 0), BuildingBlock: OJICUG_clean_linker_0, # of connection points: 2
#     Edge 25, Type (0, 0), BuildingBlock: OJICUG_clean_linker_0, # of connection points: 2
#     Edge 26, Type (0, 0), BuildingBlock: OJICUG_clean_linker_0, # of connection points: 2
#     Edge 27, Type (0, 0), BuildingBlock: OJICUG_clean_linker_0, # of connection points: 2
#     Edge 28, Type (0, 0), BuildingBlock: OJICUG_clean_linker_0, # of connection points: 2
#     Edge 29, Type (0, 0), BuildingBlock: OJICUG_clean_linker_0, # of connection points: 2
#     Edge 30, Type (0, 0), BuildingBlock: OJICUG_clean_linker_0, # of connection points: 2
#     Edge 31, Type (0, 0), BuildingBlock: OJICUG_clean_linker_0, # of connection points: 2
#     Edge 32, Type (0, 0), BuildingBlock: OJICUG_clean_linker_0, # of connection points: 2
#     Edge 33, Type (0, 0), BuildingBlock: OJICUG_clean_linker_0, # of connection points: 2
#     Edge 34, Type (0, 0), BuildingBlock: OJICUG_clean_linker_0, # of connection points: 2
#     Edge 35, Type (0, 0), BuildingBlock: OJICUG_clean_linker_0, # of connection points: 2
#     Edge 36, Type (0, 0), BuildingBlock: OJICUG_clean_linker_0, # of connection points: 2
#     Edge 37, Type (0, 0), BuildingBlock: OJICUG_clean_linker_0, # of connection points: 2
#     Edge 38, Type (0, 0), BuildingBlock: OJICUG_clean_linker_0, # of connection points: 2
#     Edge 39, Type (0, 0), BuildingBlock: OJICUG_clean_linker_0, # of connection points: 2
#     Edge 40, Type (0, 0), BuildingBlock: OJICUG_clean_linker_0, # of connection points: 2
#     Edge 41, Type (0, 0), BuildingBlock: OJICUG_clean_linker_0, # of connection points: 2
#     Edge 42, Type (0, 0), BuildingBlock: OJICUG_clean_linker_0, # of connection points: 2
#     Edge 43, Type (0, 0), BuildingBlock: OJICUG_clean_linker_0, # of connection points: 2
#     Edge 44, Type (0, 0), BuildingBlock: OJICUG_clean_linker_0, # of connection points: 2
#     Edge 45, Type (0, 0), BuildingBlock: OJICUG_clean_linker_0, # of connection points: 2
#     Edge 46, Type (0, 0), BuildingBlock: OJICUG_clean_linker_0, # of connection points: 2
#     Edge 47, Type (0, 0), BuildingBlock: OJICUG_clean_linker_0, # of connection points: 2
# Relax obj value: 0.105
# Max RMSD: 0.179
# Mean RMSD: 0.179
data_MOF--net-uki--node1-GALJAG_clean_sbu_0--edge1-OJICUG_clean_linker_0
_symmetry_space_group_name_H-M    P1
_symmetry_Int_Tables_number       1
_symmetry_cell_setting            triclinic
loop_
_symmetry_equiv_pos_as_xyz
'x, y, z'
_cell_length_a     22.284574
_cell_length_b     22.2358
_cell_length_c     55.194329
_cell_angle_alpha  89.991722
_cell_angle_beta   89.979267
_cell_angle_gamma 89.997604
loop_
_atom_site_label
_atom_site_type_symbol
_atom_site_fract_x
_atom_site_fract_y
_atom_site_fract_z
_atom_type_partial_charge
In0 In 0.05923 0.23684 0.31035 0.0
O1 O 0.08835 0.2613 0.3492 0.0
O2 O 0.15607 0.24017 0.32344 0.0
C3 C 0.94157 0.26306 0.30672 0.0
C4 C 0.04341 0.11732 0.31116 0.0
C5 C 0.09207 0.30733 0.2729 0.0
O6 O 0.97587 0.29326 0.32045 0.0
O7 O 0.96648 0.21964 0.29611 0.0
O8 O 0.10811 0.25279 0.27419 0.0
O9 O 0.06184 0.32593 0.2907 0.0
C10 C 0.14382 0.2546 0.34499 0.0
O11 O 0.06199 0.14458 0.29246 0.0
O12 O 0.03646 0.15 0.32968 0.0
In13 In 0.23126 0.90539 0.71373 0.0
O14 O 0.28244 0.86196 0.68169 0.0
O15 O 0.19563 0.82917 0.69043 0.0
C16 C 0.3041 0.00253 0.71384 0.0
C17 C 0.11847 0.94751 0.7126 0.0
C18 C 0.26013 0.85313 0.75647 0.0
O19 O 0.32357 0.94954 0.71613 0.0
O20 O 0.24911 0.00572 0.7087 0.0
O21 O 0.25143 0.90875 0.7543 0.0
O22 O 0.25036 0.82336 0.73743 0.0
C23 C 0.24097 0.82501 0.67689 0.0
O24 O 0.14062 0.92384 0.73139 0.0
O25 O 0.15287 0.94897 0.69443 0.0
In26 In 0.91656 0.76127 0.30662 0.0
O27 O 0.92156 0.85499 0.29029 0.0
O28 O 0.94931 0.84304 0.32709 0.0
C29 C 0.87994 0.6926 0.26911 0.0
C30 C 0.82988 0.75022 0.34075 0.0
C31 C 0.03349 0.73307 0.30387 0.0
O32 O 0.86535 0.74746 0.27065 0.0
O33 O 0.9101 0.67298 0.28669 0.0
O34 O -0.00027 0.70814 0.31945 0.0
O35 O 0.0081 0.77137 0.29056 0.0
C36 C 0.94387 0.87828 0.30923 0.0
O37 O 0.87829 0.72055 0.34187 0.0
O38 O 0.82543 0.78428 0.32257 0.0
In39 In 0.76734 0.0877 0.70755 0.0
O40 O 0.85793 0.07859 0.72636 0.0
O41 O 0.84718 0.03984 0.69124 0.0
C42 C 0.73767 0.14532 0.74909 0.0
C43 C 0.75787 0.15983 0.66791 0.0
C44 C 0.69781 0.98796 0.70934 0.0
O45 O 0.74688 0.08959 0.74802 0.0
O46 O 0.74733 0.1729 0.72948 0.0
O47 O 0.67647 0.04044 0.71028 0.0
O48 O 0.75308 0.98612 0.7047 0.0
C49 C 0.88108 0.04885 0.70921 0.0
O50 O 0.71304 0.13267 0.67665 0.0
O51 O 0.80634 0.15038 0.67896 0.0
In52 In 0.07388 0.25941 0.95187 0.0
O53 O 0.10581 0.23648 0.91335 0.0
O54 O 0.1721 0.25536 0.93988 0.0
C55 C 0.95794 0.22458 0.95152 0.0
C56 C 0.05465 0.37856 0.95184 0.0
C57 C 0.10281 0.19325 0.99115 0.0
O58 O -0.00155 0.19437 0.94097 0.0
O59 O 0.97575 0.27328 0.96064 0.0
O60 O 0.1202 0.24718 0.98894 0.0
O61 O 0.07355 0.17315 0.9734 0.0
C62 C 0.16101 0.24206 0.91812 0.0
O63 O 0.06974 0.35037 0.97081 0.0
O64 O 0.05262 0.34708 0.93281 0.0
In65 In 0.25701 0.91541 0.05589 0.0
O66 O 0.20686 0.8722 0.08828 0.0
O67 O 0.2952 0.84265 0.08027 0.0
C68 C 0.18719 0.01468 0.05611 0.0
C69 C 0.36997 0.95683 0.05444 0.0
C70 C 0.22414 0.86112 0.01401 0.0
O71 O 0.16591 0.96226 0.05424 0.0
O72 O 0.24246 0.01616 0.06082 0.0
O73 O 0.23169 0.917 0.01576 0.0
O74 O 0.2367 0.83218 0.03299 0.0
C75 C 0.24971 0.83739 0.09364 0.0
O76 O 0.34632 0.93011 0.03662 0.0
O77 O 0.33704 0.96131 0.07296 0.0
In78 In 0.91967 0.73183 0.95553 0.0
O79 O 0.92598 0.63801 0.97164 0.0
O80 O 0.95718 0.65158 0.93538 0.0
C81 C 0.87471 0.79342 0.99365 0.0
C82 C 0.83843 0.74452 0.91936 0.0
C83 C 0.03545 0.76388 0.95973 0.0
O84 O 0.8584 0.74009 0.98923 0.0
O85 O 0.91113 0.81517 0.97862 0.0
O86 O 0.00182 0.78846 0.94403 0.0
O87 O 0.01056 0.72398 0.97243 0.0
C88 C 0.95085 0.61578 0.95302 0.0
O89 O 0.88299 0.77942 0.92133 0.0
O90 O 0.83519 0.7043 0.93537 0.0
In91 In 0.72517 0.08544 0.05156 0.0
O92 O 0.6352 0.07105 0.03284 0.0
O93 O 0.64059 0.05632 0.07098 0.0
C94 C 0.77666 0.12693 0.01016 0.0
C95 C 0.73923 0.16784 0.08754 0.0
C96 C 0.77208 0.9737 0.05275 0.0
O97 O 0.73161 0.15246 0.01942 0.0
O98 O 0.79517 0.08221 0.02179 0.0
O99 O 0.80111 0.01933 0.05995 0.0
O100 O 0.71838 0.98425 0.04699 0.0
C101 C 0.60854 0.05567 0.05211 0.0
O102 O 0.76857 0.11921 0.08726 0.0
O103 O 0.70479 0.17486 0.06971 0.0
In104 In 0.57102 0.73775 0.81027 0.0
O105 O 0.60976 0.77765 0.84558 0.0
O106 O 0.66238 0.71447 0.82589 0.0
C107 C 0.45354 0.76435 0.80884 0.0
C108 C 0.54534 0.6202 0.81191 0.0
C109 C 0.60652 0.80782 0.7729 0.0
O110 O 0.48792 0.78964 0.82408 0.0
O111 O 0.47867 0.72675 0.79515 0.0
O112 O 0.62127 0.75298 0.77418 0.0
O113 O 0.57649 0.82679 0.79064 0.0
C114 C 0.65817 0.74806 0.84421 0.0
O115 O 0.56632 0.64501 0.79304 0.0
O116 O 0.54042 0.65421 0.83018 0.0
In117 In 0.7231 0.40839 0.20697 0.0
O118 O 0.77887 0.36316 0.17654 0.0
O119 O 0.68627 0.3423 0.17925 0.0
C120 C 0.78895 0.5106 0.2069 0.0
C121 C 0.60828 0.44418 0.20798 0.0
C122 C 0.75523 0.35487 0.24915 0.0
O123 O 0.8124 0.45897 0.20745 0.0
O124 O 0.73306 0.51028 0.20366 0.0
O125 O 0.74304 0.32529 0.23027 0.0
O126 O 0.74763 0.41065 0.24707 0.0
C127 C 0.73494 0.33386 0.16819 0.0
O128 O 0.63235 0.41757 0.22575 0.0
O129 O 0.64185 0.4516 0.18979 0.0
In130 In 0.43239 0.26073 0.81057 0.0
O131 O 0.42859 0.35382 0.79338 0.0
O132 O 0.45577 0.34658 0.83037 0.0
C133 C 0.39888 0.18745 0.77416 0.0
C134 C 0.34772 0.24282 0.84506 0.0
C135 C 0.55014 0.23707 0.80585 0.0
O136 O 0.38312 0.24219 0.77474 0.0
O137 O 0.42942 0.1702 0.7921 0.0
O138 O 0.518 0.20823 0.82089 0.0
O139 O 0.52296 0.27762 0.79431 0.0
C140 C 0.44795 0.38016 0.81218 0.0
O141 O 0.40308 0.23485 0.84922 0.0
O142 O 0.33569 0.25875 0.82366 0.0
In143 In 0.25671 0.58472 0.20917 0.0
O144 O 0.34668 0.56764 0.22761 0.0
O145 O 0.33567 0.53952 0.19095 0.0
C146 C 0.22573 0.63973 0.25111 0.0
C147 C 0.24948 0.66304 0.17156 0.0
C148 C 0.18417 0.4874 0.20973 0.0
O149 O 0.23498 0.58404 0.24966 0.0
O150 O 0.23598 0.6682 0.23178 0.0
O151 O 0.16443 0.54043 0.21146 0.0
O152 O 0.23929 0.48418 0.20483 0.0
C153 C 0.36945 0.54243 0.20926 0.0
O154 O 0.20732 0.6269 0.17641 0.0
O155 O 0.29421 0.65904 0.18541 0.0
In156 In 0.57575 0.76482 0.45486 0.0
O157 O 0.57036 0.85925 0.47038 0.0
O158 O 0.53377 0.84343 0.4351 0.0
C159 C 0.62737 0.70334 0.49146 0.0
C160 C 0.6529 0.75296 0.41723 0.0
C161 C 0.46159 0.73186 0.46303 0.0
O162 O 0.64168 0.75727 0.48705 0.0
O163 O 0.58956 0.68101 0.47715 0.0
O164 O 0.49152 0.70852 0.44584 0.0
O165 O 0.48921 0.77091 0.47522 0.0
C166 C 0.54223 0.88015 0.45228 0.0
O167 O 0.6086 0.71792 0.41986 0.0
O168 O 0.65775 0.79294 0.43328 0.0
In169 In 0.77306 0.40634 0.55075 0.0
O170 O 0.73177 0.37496 0.58707 0.0
O171 O 0.7901 0.31542 0.56837 0.0
C172 C 0.73411 0.52087 0.54819 0.0
C173 C 0.88995 0.43364 0.55334 0.0
C174 C 0.71473 0.36459 0.51122 0.0
O175 O 0.70643 0.48124 0.56035 0.0
O176 O 0.78243 0.5032 0.53872 0.0
O177 O 0.76667 0.34613 0.51658 0.0
O178 O 0.69263 0.40137 0.52599 0.0
C179 C 0.75795 0.32452 0.58679 0.0
O180 O 0.86591 0.41499 0.53397 0.0
O181 O 0.85525 0.4369 0.57141 0.0
In182 In 0.41714 0.23573 0.45203 0.0
O183 O 0.42207 0.14467 0.47088 0.0
O184 O 0.4381 0.14816 0.4328 0.0
C185 C 0.3891 0.30028 0.49189 0.0
C186 C 0.32999 0.25372 0.4183 0.0
C187 C 0.53284 0.2716 0.45147 0.0
O188 O 0.37151 0.2465 0.48938 0.0
O189 O 0.41783 0.3211 0.47413 0.0
O190 O 0.49158 0.30242 0.44174 0.0
O191 O 0.51598 0.22163 0.45972 0.0
C192 C 0.43666 0.11659 0.45182 0.0
O193 O 0.38522 0.25934 0.41357 0.0
O194 O 0.31885 0.24012 0.44003 0.0
In195 In 0.24071 0.57516 0.56037 0.0
O196 O 0.15223 0.56085 0.54042 0.0
O197 O 0.15981 0.52907 0.57674 0.0
C198 C 0.27524 0.63311 0.51947 0.0
C199 C 0.24573 0.65095 0.59889 0.0
C200 C 0.31004 0.47547 0.55953 0.0
O201 O 0.26499 0.57749 0.52008 0.0
O202 O 0.26447 0.66009 0.53909 0.0
O203 O 0.33155 0.52783 0.5579 0.0
O204 O 0.25504 0.47416 0.56471 0.0
C205 C 0.12778 0.53377 0.55799 0.0
O206 O 0.28886 0.61625 0.5937 0.0
O207 O 0.20117 0.64664 0.58497 0.0
C208 C 0.15791 0.33517 0.23774 0.0
C209 C 0.10874 0.34788 0.25279 0.0
H210 H 0.22016 0.36974 0.2116 0.0
C211 C 0.07786 0.40246 0.24976 0.0
H212 H 0.18213 0.29317 0.23955 0.0
C213 C 0.09873 0.44571 0.23347 0.0
C214 C 0.15151 0.43559 0.22017 0.0
H215 H 0.03906 0.41298 0.26081 0.0
H216 H 0.07616 0.48883 0.23278 0.0
C217 C 0.17936 0.37886 0.22163 0.0
C218 C 0.35414 0.74367 0.79084 0.0
C219 C 0.39153 0.78324 0.80372 0.0
H220 H 0.28128 0.73505 0.76592 0.0
C221 C 0.37471 0.84374 0.80602 0.0
H222 H 0.36583 0.69656 0.78908 0.0
C223 C 0.32599 0.86587 0.79271 0.0
C224 C 0.294 0.82761 0.77701 0.0
H225 H 0.40284 0.87509 0.81585 0.0
H226 H 0.31765 0.91387 0.79276 0.0
C227 C 0.3057 0.76568 0.77757 0.0
C228 C 0.87547 0.55677 0.22844 0.0
C229 C 0.81994 0.56402 0.2168 0.0
H230 H 0.93745 0.59192 0.25438 0.0
C231 C 0.78891 0.61881 0.21953 0.0
H232 H 0.90055 0.51524 0.22672 0.0
C233 C 0.81038 0.66312 0.23537 0.0
C234 C 0.86266 0.65278 0.2489 0.0
H235 H 0.74595 0.62567 0.21078 0.0
H236 H 0.78394 0.70335 0.2383 0.0
C237 C 0.8963 0.60047 0.2445 0.0
C238 C 0.62992 0.15884 0.80121 0.0
C239 C 0.61079 0.21846 0.79818 0.0
H240 H 0.68695 0.08865 0.78799 0.0
C241 C 0.64403 0.25694 0.78304 0.0
H242 H 0.60518 0.12827 0.81279 0.0
C243 C 0.69047 0.23434 0.76875 0.0
C244 C 0.70457 0.17293 0.76944 0.0
H245 H 0.63072 0.30343 0.78062 0.0
H246 H 0.71167 0.26387 0.75568 0.0
C247 C 0.67669 0.13619 0.78693 0.0
C248 C 0.10258 0.05904 0.03277 0.0
C249 C 0.15619 0.06749 0.04568 0.0
H250 H 0.0441 0.09242 1.00517 0.0
C251 C 0.18651 0.12282 0.04353 0.0
H252 H 0.07805 0.01708 0.03402 0.0
C253 C 0.16689 0.16625 0.02693 0.0
C254 C 0.11707 0.1546 0.01213 0.0
H255 H 0.22797 0.13068 0.05327 0.0
H256 H 0.19316 0.20678 0.02445 0.0
C257 C 0.08349 0.10197 0.01602 0.0
C258 C 0.15786 0.87058 0.97765 0.0
C259 C 0.19014 0.83387 0.99386 0.0
H260 H 0.08268 0.87654 0.95345 0.0
C261 C 0.17988 0.77167 0.99375 0.0
H262 H 0.16507 0.91875 0.97727 0.0
C263 C 0.13305 0.74771 0.98009 0.0
C264 C 0.09574 0.78551 0.96633 0.0
H265 H 0.20451 0.74221 1.00581 0.0
H266 H 0.12277 0.7003 0.98199 0.0
C267 C 0.11078 0.84647 0.96393 0.0
C268 C 0.88775 0.87622 0.02335 0.0
C269 C 0.85179 0.82993 0.01391 0.0
H270 H 0.89105 0.95707 0.04425 0.0
C271 C 0.79224 0.82442 0.02182 0.0
H272 H 0.93412 0.8809 0.01772 0.0
C273 C 0.76726 0.8686 0.03684 0.0
C274 C 0.8019 0.91806 0.04448 0.0
H275 H 0.76374 0.78899 0.01482 0.0
H276 H 0.71977 0.86644 0.04097 0.0
C277 C 0.86324 0.91951 0.03875 0.0
C278 C 0.85056 0.11234 0.97693 0.0
C279 C 0.81061 0.15047 0.9893 0.0
H280 H 0.92799 0.10621 0.95415 0.0
C281 C 0.81108 0.21222 0.98417 0.0
H282 H 0.8506 0.06436 0.9804 0.0
C283 C 0.8558 0.23626 0.96924 0.0
C284 C 0.89992 0.19871 0.95902 0.0
H285 H 0.78061 0.24249 0.9934 0.0
H286 H 0.8589 0.28468 0.96739 0.0
C287 C 0.89457 0.13622 0.96171 0.0
C288 C 0.67386 0.83609 0.73822 0.0
C289 C 0.62369 0.84819 0.7528 0.0
H290 H 0.73664 0.87126 0.71239 0.0
C291 C 0.59198 0.90213 0.74932 0.0
H292 H 0.69877 0.79462 0.7404 0.0
C293 C 0.61271 0.94532 0.73299 0.0
C294 C 0.66621 0.93587 0.72009 0.0
H295 H 0.55246 0.91217 0.76003 0.0
H296 H 0.58926 0.98792 0.73191 0.0
C297 C 0.69523 0.87982 0.72208 0.0
C298 C 0.86482 0.34375 0.30077 0.0
C299 C 0.8814 0.28305 0.29897 0.0
H300 H 0.81018 0.41439 0.28635 0.0
C301 C 0.84616 0.24406 0.28482 0.0
H302 H 0.89113 0.37476 0.31155 0.0
C303 C 0.80024 0.26668 0.27025 0.0
C304 C 0.78857 0.32861 0.26972 0.0
H305 H 0.85751 0.19682 0.28333 0.0
H306 H 0.77739 0.23639 0.25796 0.0
C307 C 0.81854 0.3664 0.28624 0.0
C308 C 0.39002 0.04553 0.73691 0.0
C309 C 0.33707 0.0549 0.72364 0.0
H310 H 0.45062 0.08022 0.76349 0.0
C311 C 0.30967 0.11193 0.72439 0.0
H312 H 0.41224 0.00219 0.73676 0.0
C313 C 0.33187 0.1569 0.73974 0.0
C314 C 0.38135 0.1452 0.75475 0.0
H315 H 0.26875 0.12049 0.71438 0.0
H316 H 0.30803 0.19923 0.74102 0.0
C317 C 0.41165 0.09007 0.75244 0.0
C318 C 0.13176 0.75163 0.2844 0.0
C319 C 0.09484 0.71314 0.29804 0.0
H320 H 0.20389 0.75835 0.25902 0.0
C321 C 0.11144 0.6527 0.30082 0.0
H322 H 0.12026 0.79869 0.28223 0.0
C323 C 0.15965 0.62951 0.28747 0.0
C324 C 0.19143 0.66664 0.27125 0.0
H325 H 0.08365 0.62214 0.31121 0.0
H326 H 0.16795 0.58152 0.28803 0.0
C327 C 0.17969 0.72857 0.2711 0.0
C328 C 0.74149 0.62337 0.53 0.0
C329 C 0.70598 0.57744 0.54013 0.0
H330 H 0.74379 0.70106 0.50685 0.0
C331 C 0.64344 0.58006 0.53749 0.0
H332 H 0.78991 0.62212 0.5317 0.0
C333 C 0.61752 0.62398 0.52276 0.0
C334 C 0.65349 0.66696 0.51105 0.0
H335 H 0.61506 0.54502 0.54489 0.0
H336 H 0.56961 0.62235 0.51945 0.0
C337 C 0.71526 0.6684 0.51577 0.0
C338 C 0.68104 0.28275 0.48334 0.0
C339 C 0.67964 0.34332 0.49033 0.0
H340 H 0.63459 0.21193 0.46483 0.0
C341 C 0.6374 0.38211 0.47971 0.0
H342 H 0.71324 0.25208 0.49132 0.0
C343 C 0.59355 0.35966 0.4641 0.0
C344 C 0.59035 0.29775 0.45942 0.0
H345 H 0.63591 0.42922 0.48471 0.0
H346 H 0.55869 0.3898 0.45779 0.0
C347 C 0.63619 0.25993 0.46814 0.0
C348 C 0.30893 0.36818 0.54578 0.0
C349 C 0.33991 0.42308 0.54822 0.0
H350 H 0.30035 0.28557 0.52588 0.0
C351 C 0.39275 0.43193 0.53482 0.0
H352 H 0.26801 0.36003 0.55586 0.0
C353 C 0.41038 0.38998 0.51742 0.0
C354 C 0.37613 0.33789 0.51332 0.0
H355 H 0.41774 0.47357 0.53628 0.0
H356 H 0.44922 0.39989 0.50629 0.0
C357 C 0.3271 0.32571 0.5285 0.0
C358 C 0.38503 0.65033 0.46799 0.0
C359 C 0.40239 0.71042 0.47126 0.0
H360 H 0.32957 0.57826 0.48082 0.0
C361 C 0.36844 0.7474 0.48671 0.0
H362 H 0.41055 0.6209 0.45622 0.0
C363 C 0.32239 0.72323 0.50076 0.0
C364 C 0.30948 0.66159 0.49963 0.0
H365 H 0.38049 0.79416 0.48935 0.0
H366 H 0.3002 0.7519 0.51387 0.0
C367 C 0.33875 0.62599 0.48213 0.0
C368 C 0.22126 0.25917 0.40632 0.0
C369 C 0.28224 0.25901 0.39965 0.0
H370 H 0.1296 0.25884 0.39431 0.0
C371 C 0.29704 0.26093 0.37492 0.0
H372 H 0.20838 0.25784 0.42524 0.0
C373 C 0.25196 0.26084 0.35724 0.0
C374 C 0.191 0.25965 0.36387 0.0
H375 H 0.34352 0.26079 0.36918 0.0
H376 H 0.26494 0.26083 0.33833 0.0
C377 C 0.17611 0.2599 0.38862 0.0
C378 C 0.30003 0.71699 0.62891 0.0
C379 C 0.2462 0.69398 0.61937 0.0
H380 H 0.34078 0.77801 0.65433 0.0
C381 C 0.19144 0.71438 0.62891 0.0
H382 H 0.34286 0.7023 0.62176 0.0
C383 C 0.19027 0.75651 0.64765 0.0
C384 C 0.2438 0.78047 0.65696 0.0
H385 H 0.14922 0.69749 0.62195 0.0
H386 H 0.14718 0.77098 0.65464 0.0
C387 C 0.29882 0.76052 0.64738 0.0
C388 C 0.72436 0.69609 0.39042 0.0
C389 C 0.69523 0.74995 0.39669 0.0
H390 H 0.79185 0.65418 0.36813 0.0
C391 C 0.70996 0.80293 0.38423 0.0
H392 H 0.71408 0.65482 0.39999 0.0
C393 C 0.75268 0.80223 0.36571 0.0
C394 C 0.78332 0.74899 0.35986 0.0
H395 H 0.68827 0.84503 0.38884 0.0
H396 H 0.76298 0.84385 0.35637 0.0
C397 C 0.76898 0.69584 0.3724 0.0
C398 C 0.80502 0.2037 0.63104 0.0
C399 C 0.75512 0.1997 0.64648 0.0
H400 H 0.84414 0.2452 0.59982 0.0
C401 C 0.70482 0.23613 0.64186 0.0
H402 H 0.84437 0.17615 0.63419 0.0
C403 C 0.7054 0.27725 0.62251 0.0
C404 C 0.75547 0.28098 0.60707 0.0
H405 H 0.66596 0.23414 0.65362 0.0
H406 H 0.66675 0.30586 0.61957 0.0
C407 C 0.80482 0.24314 0.61135 0.0
C408 C 0.19425 0.23634 0.87475 0.0
C409 C 0.20886 0.23712 0.8995 0.0
H410 H 0.22668 0.23778 0.83821 0.0
C411 C 0.26976 0.23622 0.90625 0.0
H412 H 0.14782 0.23708 0.86896 0.0
C413 C 0.31507 0.23589 0.8886 0.0
C414 C 0.30039 0.23733 0.86386 0.0
H415 H 0.28247 0.23665 0.92519 0.0
H416 H 0.36154 0.23635 0.89435 0.0
C417 C 0.23949 0.23687 0.85714 0.0
C418 C 0.30212 0.72971 0.14219 0.0
C419 C 0.24793 0.7069 0.15137 0.0
H420 H 0.34486 0.78809 0.1167 0.0
C421 C 0.19351 0.72779 0.14158 0.0
H422 H 0.34476 0.71446 0.14934 0.0
C423 C 0.19355 0.77138 0.12312 0.0
C424 C 0.24802 0.79352 0.11382 0.0
H425 H 0.15108 0.71119 0.14843 0.0
H426 H 0.15115 0.787 0.11588 0.0
C427 C 0.30217 0.77192 0.12348 0.0
C428 C 0.76498 0.80146 0.89349 0.0
C429 C 0.79455 0.74759 0.89938 0.0
H430 H 0.69656 0.8436 0.87176 0.0
C431 C 0.77945 0.69477 0.88691 0.0
H432 H 0.77562 0.84261 0.90307 0.0
C433 C 0.73602 0.69568 0.86867 0.0
C434 C 0.70509 0.74897 0.86316 0.0
H435 H 0.80155 0.65269 0.89121 0.0
H436 H 0.72555 0.65423 0.85926 0.0
C437 C 0.71967 0.80191 0.87578 0.0
C438 C 0.79114 0.2179 0.12284 0.0
C439 C 0.74058 0.2114 0.10783 0.0
H440 H 0.82984 0.2636 0.1535 0.0
C441 C 0.68957 0.24668 0.11246 0.0
H442 H 0.83107 0.1913 0.11962 0.0
C443 C 0.68832 0.28642 0.13202 0.0
C444 C 0.73869 0.29328 0.14701 0.0
H445 H 0.64983 0.24249 0.10127 0.0
H446 H 0.6478 0.31204 0.13538 0.0
C447 C 0.79054 0.25935 0.14209 0.0
C448 C 0.98083 0.97034 0.28797 0.0
C449 C 0.96846 0.93982 0.30969 0.0
H450 H 0.01612 0.04999 0.27141 0.0
C451 C 0.98372 0.9669 0.33183 0.0
H452 H 0.97026 0.95012 0.27064 0.0
C453 C 0.00978 0.024 0.33228 0.0
C454 C 0.02208 0.05459 0.31057 0.0
H455 H 0.97512 0.94412 0.34883 0.0
H456 H 0.01989 0.04441 0.34962 0.0
C457 C 0.00785 0.02706 0.28841 0.0
C458 C 0.97115 0.0156 0.73257 0.0
C459 C 0.94234 0.02437 0.71023 0.0
H460 H 0.04951 0.9829 0.75086 0.0
C461 C 0.97168 0.00755 0.68877 0.0
H462 H 0.9492 0.02788 0.74937 0.0
C463 C 0.02912 0.98275 0.68959 0.0
C464 C 0.05765 0.97314 0.71192 0.0
H465 H 0.95036 0.01388 0.67131 0.0
H466 H 0.05094 0.97051 0.67276 0.0
C467 C 0.02819 0.98953 0.73342 0.0
C468 C 0.0141 0.46714 0.97432 0.0
C469 C 0.03208 0.44085 0.95235 0.0
H470 H 0.97273 0.54269 0.99168 0.0
C471 C 0.02273 0.4723 0.93061 0.0
H472 H 0.02013 0.44356 0.99132 0.0
C473 C 0.99576 0.52898 0.93082 0.0
C474 C 0.97674 0.55479 0.95273 0.0
H475 H 0.03582 0.45287 0.9134 0.0
H476 H 0.9894 0.5524 0.9138 0.0
C477 C 0.98625 0.52345 0.97449 0.0
C478 C 0.46071 0.9902 0.03145 0.0
C479 C 0.43073 0.98267 0.05362 0.0
H480 H 0.54047 0.02059 0.01353 0.0
C481 C 0.45876 0.0013 0.07512 0.0
H482 H 0.43983 0.97661 0.01459 0.0
C483 C 0.51625 0.02597 0.07454 0.0
C484 C 0.5464 0.03329 0.0524 0.0
H485 H 0.43655 0.99615 0.09247 0.0
H486 H 0.53721 0.03907 0.09144 0.0
C487 C 0.51798 0.01575 0.03082 0.0
C488 C 0.48183 0.47242 0.83394 0.0
C489 C 0.46883 0.44307 0.81203 0.0
H490 H 0.51652 0.55153 0.85105 0.0
C491 C 0.48185 0.47211 0.79005 0.0
H492 H 0.47265 0.45085 0.85115 0.0
C493 C 0.50835 0.52909 0.79 0.0
C494 C 0.52141 0.55837 0.81192 0.0
H495 H 0.47301 0.45017 0.77289 0.0
H496 H 0.51796 0.5505 0.7728 0.0
C497 C 0.50738 0.52976 0.83389 0.0
C498 C 0.51689 0.48082 0.18676 0.0
C499 C 0.54646 0.4673 0.20853 0.0
H500 H 0.43727 0.51473 0.16999 0.0
C501 C 0.51741 0.47842 0.23066 0.0
H502 H 0.53835 0.47261 0.16945 0.0
C503 C 0.45999 0.50375 0.23098 0.0
C504 C 0.43043 0.51707 0.20916 0.0
H505 H 0.53952 0.46869 0.2477 0.0
H506 H 0.43854 0.51237 0.24825 0.0
C507 C 0.45914 0.50491 0.18706 0.0
C508 C 0.46708 0.02253 0.43044 0.0
C509 C 0.45948 0.05438 0.45219 0.0
H510 H 0.49941 0.94224 0.41343 0.0
C511 C 0.47955 0.02866 0.47397 0.0
H512 H 0.45236 0.04153 0.41337 0.0
C513 C 0.50782 0.97256 0.47393 0.0
C514 C 0.51561 0.94083 0.45215 0.0
H515 H 0.4749 0.05257 0.49097 0.0
H516 H 0.52305 0.95381 0.49096 0.0
C517 C 0.49439 0.96599 0.43045 0.0
C518 C 0.9826 0.47161 0.53297 0.0
C519 C 0.9521 0.45589 0.55433 0.0
H520 H 0.06204 0.50994 0.51742 0.0
C521 C 0.97995 0.46549 0.5768 0.0
H522 H 0.96187 0.46508 0.51542 0.0
C523 C 0.03724 0.49059 0.57793 0.0
C524 C 0.06724 0.50753 0.55662 0.0
H525 H 0.95732 0.45387 0.59354 0.0
H526 H 0.0577 0.49749 0.59551 0.0
C527 C 0.03956 0.49774 0.53412 0.0
loop_
_geom_bond_atom_site_label_1
_geom_bond_atom_site_label_2
_geom_bond_distance
_geom_bond_site_symmetry_2
_ccdc_geom_bond_type
In0 O1 2.294 . S
In0 O2 2.326 . S
In0 O6 2.266 1_455 S
In0 O7 2.326 . S
In0 O8 2.266 . S
In0 O9 2.326 . S
In0 O11 2.294 . S
In0 O12 2.326 . S
O1 In0 2.294 . S
O1 C10 1.240 . S
O2 In0 2.326 . S
O2 C10 1.252 . S
C3 O6 1.252 . S
C3 O7 1.260 1_655 S
C4 O11 1.240 . S
C4 O12 1.252 . S
C5 O8 1.252 . S
C5 O9 1.260 . S
O6 In0 2.266 1_655 S
O6 C3 1.252 . S
O7 In0 2.326 . S
O7 C3 1.260 1_455 S
O8 In0 2.266 . S
O8 C5 1.252 . S
O9 In0 2.326 . S
O9 C5 1.260 . S
C10 O1 1.240 . S
C10 O2 1.252 . S
O11 In0 2.294 . S
O11 C4 1.240 . S
O12 In0 2.326 . S
O12 C4 1.252 . S
In13 O14 2.294 . S
In13 O15 2.326 . S
In13 O19 2.266 1_565 S
In13 O20 2.326 . S
In13 O21 2.266 . S
In13 O22 2.326 . S
In13 O24 2.294 . S
In13 O25 2.326 . S
O14 In13 2.294 . S
O14 C23 1.240 . S
O15 In13 2.326 . S
O15 C23 1.252 . S
C16 O19 1.252 . S
C16 O20 1.260 1_545 S
C17 O24 1.240 . S
C17 O25 1.252 . S
C18 O21 1.252 . S
C18 O22 1.260 . S
O19 In13 2.266 1_545 S
O19 C16 1.252 . S
O20 In13 2.326 . S
O20 C16 1.260 1_565 S
O21 In13 2.266 . S
O21 C18 1.252 . S
O22 In13 2.326 . S
O22 C18 1.260 . S
C23 O14 1.240 . S
C23 O15 1.252 . S
O24 In13 2.294 . S
O24 C17 1.240 . S
O25 In13 2.326 . S
O25 C17 1.252 . S
In26 O27 2.294 . S
In26 O28 2.326 . S
In26 O32 2.266 . S
In26 O33 2.326 . S
In26 O34 2.266 1_655 S
In26 O35 2.326 . S
In26 O37 2.294 . S
In26 O38 2.326 . S
O27 In26 2.294 . S
O27 C36 1.240 . S
O28 In26 2.326 . S
O28 C36 1.252 . S
C29 O32 1.252 . S
C29 O33 1.260 . S
C30 O37 1.240 . S
C30 O38 1.252 . S
C31 O34 1.252 . S
C31 O35 1.260 1_455 S
O32 In26 2.266 . S
O32 C29 1.252 . S
O33 In26 2.326 . S
O33 C29 1.260 . S
O34 In26 2.266 1_455 S
O34 C31 1.252 . S
O35 In26 2.326 . S
O35 C31 1.260 1_655 S
C36 O27 1.240 . S
C36 O28 1.252 . S
O37 In26 2.294 . S
O37 C30 1.240 . S
O38 In26 2.326 . S
O38 C30 1.252 . S
In39 O40 2.294 . S
In39 O41 2.326 . S
In39 O45 2.266 . S
In39 O46 2.326 . S
In39 O47 2.266 1_545 S
In39 O48 2.326 . S
In39 O50 2.294 . S
In39 O51 2.326 . S
O40 In39 2.294 . S
O40 C49 1.240 . S
O41 In39 2.326 . S
O41 C49 1.252 . S
C42 O45 1.252 . S
C42 O46 1.260 . S
C43 O50 1.240 . S
C43 O51 1.252 . S
C44 O47 1.252 . S
C44 O48 1.260 1_565 S
O45 In39 2.266 . S
O45 C42 1.252 . S
O46 In39 2.326 . S
O46 C42 1.260 . S
O47 In39 2.266 1_565 S
O47 C44 1.252 . S
O48 In39 2.326 . S
O48 C44 1.260 1_545 S
C49 O40 1.240 . S
C49 O41 1.252 . S
O50 In39 2.294 . S
O50 C43 1.240 . S
O51 In39 2.326 . S
O51 C43 1.252 . S
In52 O53 2.294 . S
In52 O54 2.326 . S
In52 O58 2.266 1_455 S
In52 O59 2.326 . S
In52 O60 2.266 . S
In52 O61 2.326 . S
In52 O63 2.294 . S
In52 O64 2.326 . S
O53 In52 2.294 . S
O53 C62 1.240 . S
O54 In52 2.326 . S
O54 C62 1.252 . S
C55 O58 1.252 . S
C55 O59 1.260 1_655 S
C56 O63 1.240 . S
C56 O64 1.252 . S
C57 O60 1.252 . S
C57 O61 1.260 . S
O58 In52 2.266 1_655 S
O58 C55 1.252 . S
O59 In52 2.326 . S
O59 C55 1.260 1_455 S
O60 In52 2.266 . S
O60 C57 1.252 . S
O61 In52 2.326 . S
O61 C57 1.260 . S
C62 O53 1.240 . S
C62 O54 1.252 . S
O63 In52 2.294 . S
O63 C56 1.240 . S
O64 In52 2.326 . S
O64 C56 1.252 . S
In65 O66 2.294 . S
In65 O67 2.326 . S
In65 O71 2.266 1_565 S
In65 O72 2.326 . S
In65 O73 2.266 . S
In65 O74 2.326 . S
In65 O76 2.294 . S
In65 O77 2.326 . S
O66 In65 2.294 . S
O66 C75 1.240 . S
O67 In65 2.326 . S
O67 C75 1.252 . S
C68 O71 1.252 . S
C68 O72 1.260 1_545 S
C69 O76 1.240 . S
C69 O77 1.252 . S
C70 O73 1.252 . S
C70 O74 1.260 . S
O71 In65 2.266 1_545 S
O71 C68 1.252 . S
O72 In65 2.326 . S
O72 C68 1.260 1_565 S
O73 In65 2.266 . S
O73 C70 1.252 . S
O74 In65 2.326 . S
O74 C70 1.260 . S
C75 O66 1.240 . S
C75 O67 1.252 . S
O76 In65 2.294 . S
O76 C69 1.240 . S
O77 In65 2.326 . S
O77 C69 1.252 . S
In78 O79 2.294 . S
In78 O80 2.326 . S
In78 O84 2.266 . S
In78 O85 2.326 . S
In78 O86 2.266 1_655 S
In78 O87 2.326 . S
In78 O89 2.294 . S
In78 O90 2.326 . S
O79 In78 2.294 . S
O79 C88 1.240 . S
O80 In78 2.326 . S
O80 C88 1.252 . S
C81 O84 1.252 . S
C81 O85 1.260 . S
C82 O89 1.240 . S
C82 O90 1.252 . S
C83 O86 1.252 . S
C83 O87 1.260 1_455 S
O84 In78 2.266 . S
O84 C81 1.252 . S
O85 In78 2.326 . S
O85 C81 1.260 . S
O86 In78 2.266 1_455 S
O86 C83 1.252 . S
O87 In78 2.326 . S
O87 C83 1.260 1_655 S
C88 O79 1.240 . S
C88 O80 1.252 . S
O89 In78 2.294 . S
O89 C82 1.240 . S
O90 In78 2.326 . S
O90 C82 1.252 . S
In91 O92 2.294 . S
In91 O93 2.326 . S
In91 O97 2.266 . S
In91 O98 2.326 . S
In91 O99 2.266 1_545 S
In91 O100 2.326 . S
In91 O102 2.294 . S
In91 O103 2.326 . S
O92 In91 2.294 . S
O92 C101 1.240 . S
O93 In91 2.326 . S
O93 C101 1.252 . S
C94 O97 1.252 . S
C94 O98 1.260 . S
C95 O102 1.240 . S
C95 O103 1.252 . S
C96 O99 1.252 . S
C96 O100 1.260 1_565 S
O97 In91 2.266 . S
O97 C94 1.252 . S
O98 In91 2.326 . S
O98 C94 1.260 . S
O99 In91 2.266 1_565 S
O99 C96 1.252 . S
O100 In91 2.326 . S
O100 C96 1.260 1_545 S
C101 O92 1.240 . S
C101 O93 1.252 . S
O102 In91 2.294 . S
O102 C95 1.240 . S
O103 In91 2.326 . S
O103 C95 1.252 . S
In104 O105 2.294 . S
In104 O106 2.326 . S
In104 O110 2.266 . S
In104 O111 2.326 . S
In104 O112 2.266 . S
In104 O113 2.326 . S
In104 O115 2.294 . S
In104 O116 2.326 . S
O105 In104 2.294 . S
O105 C114 1.240 . S
O106 In104 2.326 . S
O106 C114 1.252 . S
C107 O110 1.252 . S
C107 O111 1.260 . S
C108 O115 1.240 . S
C108 O116 1.252 . S
C109 O112 1.252 . S
C109 O113 1.260 . S
O110 In104 2.266 . S
O110 C107 1.252 . S
O111 In104 2.326 . S
O111 C107 1.260 . S
O112 In104 2.266 . S
O112 C109 1.252 . S
O113 In104 2.326 . S
O113 C109 1.260 . S
C114 O105 1.240 . S
C114 O106 1.252 . S
O115 In104 2.294 . S
O115 C108 1.240 . S
O116 In104 2.326 . S
O116 C108 1.252 . S
In117 O118 2.294 . S
In117 O119 2.326 . S
In117 O123 2.266 . S
In117 O124 2.326 . S
In117 O125 2.266 . S
In117 O126 2.326 . S
In117 O128 2.294 . S
In117 O129 2.326 . S
O118 In117 2.294 . S
O118 C127 1.240 . S
O119 In117 2.326 . S
O119 C127 1.252 . S
C120 O123 1.252 . S
C120 O124 1.260 . S
C121 O128 1.240 . S
C121 O129 1.252 . S
C122 O125 1.252 . S
C122 O126 1.260 . S
O123 In117 2.266 . S
O123 C120 1.252 . S
O124 In117 2.326 . S
O124 C120 1.260 . S
O125 In117 2.266 . S
O125 C122 1.252 . S
O126 In117 2.326 . S
O126 C122 1.260 . S
C127 O118 1.240 . S
C127 O119 1.252 . S
O128 In117 2.294 . S
O128 C121 1.240 . S
O129 In117 2.326 . S
O129 C121 1.252 . S
In130 O131 2.294 . S
In130 O132 2.326 . S
In130 O136 2.266 . S
In130 O137 2.326 . S
In130 O138 2.266 . S
In130 O139 2.326 . S
In130 O141 2.294 . S
In130 O142 2.326 . S
O131 In130 2.294 . S
O131 C140 1.240 . S
O132 In130 2.326 . S
O132 C140 1.252 . S
C133 O136 1.252 . S
C133 O137 1.260 . S
C134 O141 1.240 . S
C134 O142 1.252 . S
C135 O138 1.252 . S
C135 O139 1.260 . S
O136 In130 2.266 . S
O136 C133 1.252 . S
O137 In130 2.326 . S
O137 C133 1.260 . S
O138 In130 2.266 . S
O138 C135 1.252 . S
O139 In130 2.326 . S
O139 C135 1.260 . S
C140 O131 1.240 . S
C140 O132 1.252 . S
O141 In130 2.294 . S
O141 C134 1.240 . S
O142 In130 2.326 . S
O142 C134 1.252 . S
In143 O144 2.294 . S
In143 O145 2.326 . S
In143 O149 2.266 . S
In143 O150 2.326 . S
In143 O151 2.266 . S
In143 O152 2.326 . S
In143 O154 2.294 . S
In143 O155 2.326 . S
O144 In143 2.294 . S
O144 C153 1.240 . S
O145 In143 2.326 . S
O145 C153 1.252 . S
C146 O149 1.252 . S
C146 O150 1.260 . S
C147 O154 1.240 . S
C147 O155 1.252 . S
C148 O151 1.252 . S
C148 O152 1.260 . S
O149 In143 2.266 . S
O149 C146 1.252 . S
O150 In143 2.326 . S
O150 C146 1.260 . S
O151 In143 2.266 . S
O151 C148 1.252 . S
O152 In143 2.326 . S
O152 C148 1.260 . S
C153 O144 1.240 . S
C153 O145 1.252 . S
O154 In143 2.294 . S
O154 C147 1.240 . S
O155 In143 2.326 . S
O155 C147 1.252 . S
In156 O157 2.294 . S
In156 O158 2.326 . S
In156 O162 2.266 . S
In156 O163 2.326 . S
In156 O164 2.266 . S
In156 O165 2.326 . S
In156 O167 2.294 . S
In156 O168 2.326 . S
O157 In156 2.294 . S
O157 C166 1.240 . S
O158 In156 2.326 . S
O158 C166 1.252 . S
C159 O162 1.252 . S
C159 O163 1.260 . S
C160 O167 1.240 . S
C160 O168 1.252 . S
C161 O164 1.252 . S
C161 O165 1.260 . S
O162 In156 2.266 . S
O162 C159 1.252 . S
O163 In156 2.326 . S
O163 C159 1.260 . S
O164 In156 2.266 . S
O164 C161 1.252 . S
O165 In156 2.326 . S
O165 C161 1.260 . S
C166 O157 1.240 . S
C166 O158 1.252 . S
O167 In156 2.294 . S
O167 C160 1.240 . S
O168 In156 2.326 . S
O168 C160 1.252 . S
In169 O170 2.294 . S
In169 O171 2.326 . S
In169 O175 2.266 . S
In169 O176 2.326 . S
In169 O177 2.266 . S
In169 O178 2.326 . S
In169 O180 2.294 . S
In169 O181 2.326 . S
O170 In169 2.294 . S
O170 C179 1.240 . S
O171 In169 2.326 . S
O171 C179 1.252 . S
C172 O175 1.252 . S
C172 O176 1.260 . S
C173 O180 1.240 . S
C173 O181 1.252 . S
C174 O177 1.252 . S
C174 O178 1.260 . S
O175 In169 2.266 . S
O175 C172 1.252 . S
O176 In169 2.326 . S
O176 C172 1.260 . S
O177 In169 2.266 . S
O177 C174 1.252 . S
O178 In169 2.326 . S
O178 C174 1.260 . S
C179 O170 1.240 . S
C179 O171 1.252 . S
O180 In169 2.294 . S
O180 C173 1.240 . S
O181 In169 2.326 . S
O181 C173 1.252 . S
In182 O183 2.294 . S
In182 O184 2.326 . S
In182 O188 2.266 . S
In182 O189 2.326 . S
In182 O190 2.266 . S
In182 O191 2.326 . S
In182 O193 2.294 . S
In182 O194 2.326 . S
O183 In182 2.294 . S
O183 C192 1.240 . S
O184 In182 2.326 . S
O184 C192 1.252 . S
C185 O188 1.252 . S
C185 O189 1.260 . S
C186 O193 1.240 . S
C186 O194 1.252 . S
C187 O190 1.252 . S
C187 O191 1.260 . S
O188 In182 2.266 . S
O188 C185 1.252 . S
O189 In182 2.326 . S
O189 C185 1.260 . S
O190 In182 2.266 . S
O190 C187 1.252 . S
O191 In182 2.326 . S
O191 C187 1.260 . S
C192 O183 1.240 . S
C192 O184 1.252 . S
O193 In182 2.294 . S
O193 C186 1.240 . S
O194 In182 2.326 . S
O194 C186 1.252 . S
In195 O196 2.294 . S
In195 O197 2.326 . S
In195 O201 2.266 . S
In195 O202 2.326 . S
In195 O203 2.266 . S
In195 O204 2.326 . S
In195 O206 2.294 . S
In195 O207 2.326 . S
O196 In195 2.294 . S
O196 C205 1.240 . S
O197 In195 2.326 . S
O197 C205 1.252 . S
C198 O201 1.252 . S
C198 O202 1.260 . S
C199 O206 1.240 . S
C199 O207 1.252 . S
C200 O203 1.252 . S
C200 O204 1.260 . S
O201 In195 2.266 . S
O201 C198 1.252 . S
O202 In195 2.326 . S
O202 C198 1.260 . S
O203 In195 2.266 . S
O203 C200 1.252 . S
O204 In195 2.326 . S
O204 C200 1.260 . S
C205 O196 1.240 . S
C205 O197 1.252 . S
O206 In195 2.294 . S
O206 C199 1.240 . S
O207 In195 2.326 . S
O207 C199 1.252 . S
C208 C209 1.387 . S
C208 H212 0.950 . S
C208 C217 1.390 . S
C209 C208 1.387 . S
C209 C211 1.387 . S
H210 C217 0.950 . S
C211 C209 1.387 . S
C211 C213 1.390 . S
C211 H215 0.950 . S
H212 C208 0.950 . S
C213 C211 1.390 . S
C213 C214 1.387 . S
C213 H216 0.950 . S
C214 C213 1.387 . S
C214 C217 1.387 . S
H215 C211 0.950 . S
H216 C213 0.950 . S
C217 C208 1.390 . S
C217 H210 0.950 . S
C217 C214 1.387 . S
C218 C219 1.387 . S
C218 H222 0.950 . S
C218 C227 1.390 . S
C219 C218 1.387 . S
C219 C221 1.387 . S
H220 C227 0.950 . S
C221 C219 1.387 . S
C221 C223 1.390 . S
C221 H225 0.950 . S
H222 C218 0.950 . S
C223 C221 1.390 . S
C223 C224 1.387 . S
C223 H226 0.950 . S
C224 C223 1.387 . S
C224 C227 1.387 . S
H225 C221 0.950 . S
H226 C223 0.950 . S
C227 C218 1.390 . S
C227 H220 0.950 . S
C227 C224 1.387 . S
C228 C229 1.387 . S
C228 H232 0.950 . S
C228 C237 1.390 . S
C229 C228 1.387 . S
C229 C231 1.387 . S
H230 C237 0.950 . S
C231 C229 1.387 . S
C231 C233 1.390 . S
C231 H235 0.950 . S
H232 C228 0.950 . S
C233 C231 1.390 . S
C233 C234 1.387 . S
C233 H236 0.950 . S
C234 C233 1.387 . S
C234 C237 1.387 . S
H235 C231 0.950 . S
H236 C233 0.950 . S
C237 C228 1.390 . S
C237 H230 0.950 . S
C237 C234 1.387 . S
C238 C239 1.387 . S
C238 H242 0.950 . S
C238 C247 1.390 . S
C239 C238 1.387 . S
C239 C241 1.387 . S
H240 C247 0.950 . S
C241 C239 1.387 . S
C241 C243 1.390 . S
C241 H245 0.950 . S
H242 C238 0.950 . S
C243 C241 1.390 . S
C243 C244 1.387 . S
C243 H246 0.950 . S
C244 C243 1.387 . S
C244 C247 1.387 . S
H245 C241 0.950 . S
H246 C243 0.950 . S
C247 C238 1.390 . S
C247 H240 0.950 . S
C247 C244 1.387 . S
C248 C249 1.387 . S
C248 H252 0.950 . S
C248 C257 1.390 1_554 S
C249 C248 1.387 . S
C249 C251 1.387 . S
H250 C257 0.950 . S
C251 C249 1.387 . S
C251 C253 1.390 . S
C251 H255 0.950 . S
H252 C248 0.950 . S
C253 C251 1.390 . S
C253 C254 1.387 1_554 S
C253 H256 0.950 . S
C254 C253 1.387 1_556 S
C254 C257 1.387 . S
H255 C251 0.950 . S
H256 C253 0.950 . S
C257 C248 1.390 1_556 S
C257 H250 0.950 . S
C257 C254 1.387 . S
C258 C259 1.387 1_556 S
C258 H262 0.950 . S
C258 C267 1.390 . S
C259 C258 1.387 1_554 S
C259 C261 1.387 . S
H260 C267 0.950 . S
C261 C259 1.387 . S
C261 C263 1.390 1_554 S
C261 H265 0.950 . S
H262 C258 0.950 . S
C263 C261 1.390 1_556 S
C263 C264 1.387 . S
C263 H266 0.950 . S
C264 C263 1.387 . S
C264 C267 1.387 . S
H265 C261 0.950 . S
H266 C263 0.950 . S
C267 C258 1.390 . S
C267 H260 0.950 . S
C267 C264 1.387 . S
C268 C269 1.387 1_554 S
C268 H272 0.950 . S
C268 C277 1.390 . S
C269 C268 1.387 1_556 S
C269 C271 1.387 . S
H270 C277 0.950 . S
C271 C269 1.387 . S
C271 C273 1.390 1_556 S
C271 H275 0.950 . S
H272 C268 0.950 . S
C273 C271 1.390 1_554 S
C273 C274 1.387 . S
C273 H276 0.950 1_554 S
C274 C273 1.387 . S
C274 C277 1.387 . S
H275 C271 0.950 . S
H276 C273 0.950 1_556 S
C277 C268 1.390 . S
C277 H270 0.950 . S
C277 C274 1.387 . S
C278 C279 1.387 1_556 S
C278 H282 0.950 1_556 S
C278 C287 1.390 . S
C279 C278 1.387 1_554 S
C279 C281 1.387 . S
H280 C287 0.950 . S
C281 C279 1.387 . S
C281 C283 1.390 1_554 S
C281 H285 0.950 . S
H282 C278 0.950 1_554 S
C283 C281 1.390 1_556 S
C283 C284 1.387 . S
C283 H286 0.950 . S
C284 C283 1.387 . S
C284 C287 1.387 . S
H285 C281 0.950 . S
H286 C283 0.950 . S
C287 C278 1.390 . S
C287 H280 0.950 . S
C287 C284 1.387 . S
C288 C289 1.387 . S
C288 H292 0.950 . S
C288 C297 1.390 . S
C289 C288 1.387 . S
C289 C291 1.387 . S
H290 C297 0.950 . S
C291 C289 1.387 . S
C291 C293 1.390 . S
C291 H295 0.950 . S
H292 C288 0.950 . S
C293 C291 1.390 . S
C293 C294 1.387 . S
C293 H296 0.950 . S
C294 C293 1.387 . S
C294 C297 1.387 . S
H295 C291 0.950 . S
H296 C293 0.950 . S
C297 C288 1.390 . S
C297 H290 0.950 . S
C297 C294 1.387 . S
C298 C299 1.387 . S
C298 H302 0.950 . S
C298 C307 1.390 . S
C299 C298 1.387 . S
C299 C301 1.387 . S
H300 C307 0.950 . S
C301 C299 1.387 . S
C301 C303 1.390 . S
C301 H305 0.950 . S
H302 C298 0.950 . S
C303 C301 1.390 . S
C303 C304 1.387 . S
C303 H306 0.950 . S
C304 C303 1.387 . S
C304 C307 1.387 . S
H305 C301 0.950 . S
H306 C303 0.950 . S
C307 C298 1.390 . S
C307 H300 0.950 . S
C307 C304 1.387 . S
C308 C309 1.387 . S
C308 H312 0.950 . S
C308 C317 1.390 . S
C309 C308 1.387 . S
C309 C311 1.387 . S
H310 C317 0.950 . S
C311 C309 1.387 . S
C311 C313 1.390 . S
C311 H315 0.950 . S
H312 C308 0.950 . S
C313 C311 1.390 . S
C313 C314 1.387 . S
C313 H316 0.950 . S
C314 C313 1.387 . S
C314 C317 1.387 . S
H315 C311 0.950 . S
H316 C313 0.950 . S
C317 C308 1.390 . S
C317 H310 0.950 . S
C317 C314 1.387 . S
C318 C319 1.387 . S
C318 H322 0.950 . S
C318 C327 1.390 . S
C319 C318 1.387 . S
C319 C321 1.387 . S
H320 C327 0.950 . S
C321 C319 1.387 . S
C321 C323 1.390 . S
C321 H325 0.950 . S
H322 C318 0.950 . S
C323 C321 1.390 . S
C323 C324 1.387 . S
C323 H326 0.950 . S
C324 C323 1.387 . S
C324 C327 1.387 . S
H325 C321 0.950 . S
H326 C323 0.950 . S
C327 C318 1.390 . S
C327 H320 0.950 . S
C327 C324 1.387 . S
C328 C329 1.387 . S
C328 H332 0.950 . S
C328 C337 1.390 . S
C329 C328 1.387 . S
C329 C331 1.387 . S
H330 C337 0.950 . S
C331 C329 1.387 . S
C331 C333 1.390 . S
C331 H335 0.950 . S
H332 C328 0.950 . S
C333 C331 1.390 . S
C333 C334 1.387 . S
C333 H336 0.950 . S
C334 C333 1.387 . S
C334 C337 1.387 . S
H335 C331 0.950 . S
H336 C333 0.950 . S
C337 C328 1.390 . S
C337 H330 0.950 . S
C337 C334 1.387 . S
C338 C339 1.387 . S
C338 H342 0.950 . S
C338 C347 1.390 . S
C339 C338 1.387 . S
C339 C341 1.387 . S
H340 C347 0.950 . S
C341 C339 1.387 . S
C341 C343 1.390 . S
C341 H345 0.950 . S
H342 C338 0.950 . S
C343 C341 1.390 . S
C343 C344 1.387 . S
C343 H346 0.950 . S
C344 C343 1.387 . S
C344 C347 1.387 . S
H345 C341 0.950 . S
H346 C343 0.950 . S
C347 C338 1.390 . S
C347 H340 0.950 . S
C347 C344 1.387 . S
C348 C349 1.387 . S
C348 H352 0.950 . S
C348 C357 1.390 . S
C349 C348 1.387 . S
C349 C351 1.387 . S
H350 C357 0.950 . S
C351 C349 1.387 . S
C351 C353 1.390 . S
C351 H355 0.950 . S
H352 C348 0.950 . S
C353 C351 1.390 . S
C353 C354 1.387 . S
C353 H356 0.950 . S
C354 C353 1.387 . S
C354 C357 1.387 . S
H355 C351 0.950 . S
H356 C353 0.950 . S
C357 C348 1.390 . S
C357 H350 0.950 . S
C357 C354 1.387 . S
C358 C359 1.387 . S
C358 H362 0.950 . S
C358 C367 1.390 . S
C359 C358 1.387 . S
C359 C361 1.387 . S
H360 C367 0.950 . S
C361 C359 1.387 . S
C361 C363 1.390 . S
C361 H365 0.950 . S
H362 C358 0.950 . S
C363 C361 1.390 . S
C363 C364 1.387 . S
C363 H366 0.950 . S
C364 C363 1.387 . S
C364 C367 1.387 . S
H365 C361 0.950 . S
H366 C363 0.950 . S
C367 C358 1.390 . S
C367 H360 0.950 . S
C367 C364 1.387 . S
C368 C369 1.387 . S
C368 H372 0.950 . S
C368 C377 1.390 . S
C369 C368 1.387 . S
C369 C371 1.387 . S
H370 C377 0.950 . S
C371 C369 1.387 . S
C371 C373 1.390 . S
C371 H375 0.950 . S
H372 C368 0.950 . S
C373 C371 1.390 . S
C373 C374 1.387 . S
C373 H376 0.950 . S
C374 C373 1.387 . S
C374 C377 1.387 . S
H375 C371 0.950 . S
H376 C373 0.950 . S
C377 C368 1.390 . S
C377 H370 0.950 . S
C377 C374 1.387 . S
C378 C379 1.387 . S
C378 H382 0.950 . S
C378 C387 1.390 . S
C379 C378 1.387 . S
C379 C381 1.387 . S
H380 C387 0.950 . S
C381 C379 1.387 . S
C381 C383 1.390 . S
C381 H385 0.950 . S
H382 C378 0.950 . S
C383 C381 1.390 . S
C383 C384 1.387 . S
C383 H386 0.950 . S
C384 C383 1.387 . S
C384 C387 1.387 . S
H385 C381 0.950 . S
H386 C383 0.950 . S
C387 C378 1.390 . S
C387 H380 0.950 . S
C387 C384 1.387 . S
C388 C389 1.387 . S
C388 H392 0.950 . S
C388 C397 1.390 . S
C389 C388 1.387 . S
C389 C391 1.387 . S
H390 C397 0.950 . S
C391 C389 1.387 . S
C391 C393 1.390 . S
C391 H395 0.950 . S
H392 C388 0.950 . S
C393 C391 1.390 . S
C393 C394 1.387 . S
C393 H396 0.950 . S
C394 C393 1.387 . S
C394 C397 1.387 . S
H395 C391 0.950 . S
H396 C393 0.950 . S
C397 C388 1.390 . S
C397 H390 0.950 . S
C397 C394 1.387 . S
C398 C399 1.387 . S
C398 H402 0.950 . S
C398 C407 1.390 . S
C399 C398 1.387 . S
C399 C401 1.387 . S
H400 C407 0.950 . S
C401 C399 1.387 . S
C401 C403 1.390 . S
C401 H405 0.950 . S
H402 C398 0.950 . S
C403 C401 1.390 . S
C403 C404 1.387 . S
C403 H406 0.950 . S
C404 C403 1.387 . S
C404 C407 1.387 . S
H405 C401 0.950 . S
H406 C403 0.950 . S
C407 C398 1.390 . S
C407 H400 0.950 . S
C407 C404 1.387 . S
C408 C409 1.387 . S
C408 H412 0.950 . S
C408 C417 1.390 . S
C409 C408 1.387 . S
C409 C411 1.387 . S
H410 C417 0.950 . S
C411 C409 1.387 . S
C411 C413 1.390 . S
C411 H415 0.950 . S
H412 C408 0.950 . S
C413 C411 1.390 . S
C413 C414 1.387 . S
C413 H416 0.950 . S
C414 C413 1.387 . S
C414 C417 1.387 . S
H415 C411 0.950 . S
H416 C413 0.950 . S
C417 C408 1.390 . S
C417 H410 0.950 . S
C417 C414 1.387 . S
C418 C419 1.387 . S
C418 H422 0.950 . S
C418 C427 1.390 . S
C419 C418 1.387 . S
C419 C421 1.387 . S
H420 C427 0.950 . S
C421 C419 1.387 . S
C421 C423 1.390 . S
C421 H425 0.950 . S
H422 C418 0.950 . S
C423 C421 1.390 . S
C423 C424 1.387 . S
C423 H426 0.950 . S
C424 C423 1.387 . S
C424 C427 1.387 . S
H425 C421 0.950 . S
H426 C423 0.950 . S
C427 C418 1.390 . S
C427 H420 0.950 . S
C427 C424 1.387 . S
C428 C429 1.387 . S
C428 H432 0.950 . S
C428 C437 1.390 . S
C429 C428 1.387 . S
C429 C431 1.387 . S
H430 C437 0.950 . S
C431 C429 1.387 . S
C431 C433 1.390 . S
C431 H435 0.950 . S
H432 C428 0.950 . S
C433 C431 1.390 . S
C433 C434 1.387 . S
C433 H436 0.950 . S
C434 C433 1.387 . S
C434 C437 1.387 . S
H435 C431 0.950 . S
H436 C433 0.950 . S
C437 C428 1.390 . S
C437 H430 0.950 . S
C437 C434 1.387 . S
C438 C439 1.387 . S
C438 H442 0.950 . S
C438 C447 1.390 . S
C439 C438 1.387 . S
C439 C441 1.387 . S
H440 C447 0.950 . S
C441 C439 1.387 . S
C441 C443 1.390 . S
C441 H445 0.950 . S
H442 C438 0.950 . S
C443 C441 1.390 . S
C443 C444 1.387 . S
C443 H446 0.950 . S
C444 C443 1.387 . S
C444 C447 1.387 . S
H445 C441 0.950 . S
H446 C443 0.950 . S
C447 C438 1.390 . S
C447 H440 0.950 . S
C447 C444 1.387 . S
C448 C449 1.387 . S
C448 H452 0.950 . S
C448 C457 1.390 1_665 S
C449 C448 1.387 . S
C449 C451 1.387 . S
H450 C457 0.950 . S
C451 C449 1.387 . S
C451 C453 1.390 1_665 S
C451 H455 0.950 . S
H452 C448 0.950 . S
C453 C451 1.390 1_445 S
C453 C454 1.387 . S
C453 H456 0.950 . S
C454 C453 1.387 . S
C454 C457 1.387 . S
H455 C451 0.950 . S
H456 C453 0.950 . S
C457 C448 1.390 1_445 S
C457 H450 0.950 . S
C457 C454 1.387 . S
C458 C459 1.387 . S
C458 H462 0.950 . S
C458 C467 1.390 1_645 S
C459 C458 1.387 . S
C459 C461 1.387 . S
H460 C467 0.950 . S
C461 C459 1.387 . S
C461 C463 1.390 1_645 S
C461 H465 0.950 . S
H462 C458 0.950 . S
C463 C461 1.390 1_465 S
C463 C464 1.387 . S
C463 H466 0.950 . S
C464 C463 1.387 . S
C464 C467 1.387 . S
H465 C461 0.950 . S
H466 C463 0.950 . S
C467 C458 1.390 1_465 S
C467 H460 0.950 . S
C467 C464 1.387 . S
C468 C469 1.387 . S
C468 H472 0.950 . S
C468 C477 1.390 1_455 S
C469 C468 1.387 . S
C469 C471 1.387 . S
H470 C477 0.950 . S
C471 C469 1.387 . S
C471 C473 1.390 1_455 S
C471 H475 0.950 . S
H472 C468 0.950 . S
C473 C471 1.390 1_655 S
C473 C474 1.387 . S
C473 H476 0.950 . S
C474 C473 1.387 . S
C474 C477 1.387 . S
H475 C471 0.950 . S
H476 C473 0.950 . S
C477 C468 1.390 1_655 S
C477 H470 0.950 . S
C477 C474 1.387 . S
C478 C479 1.387 . S
C478 H482 0.950 . S
C478 C487 1.390 1_565 S
C479 C478 1.387 . S
C479 C481 1.387 . S
H480 C487 0.950 . S
C481 C479 1.387 . S
C481 C483 1.390 1_565 S
C481 H485 0.950 . S
H482 C478 0.950 . S
C483 C481 1.390 1_545 S
C483 C484 1.387 . S
C483 H486 0.950 . S
C484 C483 1.387 . S
C484 C487 1.387 . S
H485 C481 0.950 . S
H486 C483 0.950 . S
C487 C478 1.390 1_545 S
C487 H480 0.950 . S
C487 C484 1.387 . S
C488 C489 1.387 . S
C488 H492 0.950 . S
C488 C497 1.390 . S
C489 C488 1.387 . S
C489 C491 1.387 . S
H490 C497 0.950 . S
C491 C489 1.387 . S
C491 C493 1.390 . S
C491 H495 0.950 . S
H492 C488 0.950 . S
C493 C491 1.390 . S
C493 C494 1.387 . S
C493 H496 0.950 . S
C494 C493 1.387 . S
C494 C497 1.387 . S
H495 C491 0.950 . S
H496 C493 0.950 . S
C497 C488 1.390 . S
C497 H490 0.950 . S
C497 C494 1.387 . S
C498 C499 1.387 . S
C498 H502 0.950 . S
C498 C507 1.390 . S
C499 C498 1.387 . S
C499 C501 1.387 . S
H500 C507 0.950 . S
C501 C499 1.387 . S
C501 C503 1.390 . S
C501 H505 0.950 . S
H502 C498 0.950 . S
C503 C501 1.390 . S
C503 C504 1.387 . S
C503 H506 0.950 . S
C504 C503 1.387 . S
C504 C507 1.387 . S
H505 C501 0.950 . S
H506 C503 0.950 . S
C507 C498 1.390 . S
C507 H500 0.950 . S
C507 C504 1.387 . S
C508 C509 1.387 . S
C508 H512 0.950 . S
C508 C517 1.390 1_545 S
C509 C508 1.387 . S
C509 C511 1.387 . S
H510 C517 0.950 . S
C511 C509 1.387 . S
C511 C513 1.390 1_545 S
C511 H515 0.950 . S
H512 C508 0.950 . S
C513 C511 1.390 1_565 S
C513 C514 1.387 . S
C513 H516 0.950 . S
C514 C513 1.387 . S
C514 C517 1.387 . S
H515 C511 0.950 . S
H516 C513 0.950 . S
C517 C508 1.390 1_565 S
C517 H510 0.950 . S
C517 C514 1.387 . S
C518 C519 1.387 . S
C518 H522 0.950 . S
C518 C527 1.390 1_655 S
C519 C518 1.387 . S
C519 C521 1.387 . S
H520 C527 0.950 . S
C521 C519 1.387 . S
C521 C523 1.390 1_655 S
C521 H525 0.950 . S
H522 C518 0.950 . S
C523 C521 1.390 1_455 S
C523 C524 1.387 . S
C523 H526 0.950 . S
C524 C523 1.387 . S
C524 C527 1.387 . S
H525 C521 0.950 . S
H526 C523 0.950 . S
C527 C518 1.390 1_455 S
C527 H520 0.950 . S
C527 C524 1.387 . S
C209 C5 1.318 . S
C214 C148 1.287 . S
C219 C107 1.286 . S
C224 C18 1.317 . S
C229 C120 1.286 . S
C234 C29 1.318 . S
C239 C135 1.288 . S
C244 C42 1.316 . S
C249 C68 1.285 . S
C254 C57 1.316 . S
C259 C70 1.316 . S
C264 C83 1.288 . S
C269 C81 1.318 . S
C274 C96 1.287 . S
C279 C94 1.317 . S
C284 C55 1.288 . S
C289 C109 1.317 . S
C294 C44 1.288 . S
C299 C3 1.288 . S
C304 C122 1.317 . S
C309 C16 1.285 . S
C314 C133 1.316 . S
C319 C31 1.285 . S
C324 C146 1.317 . S
C329 C172 1.286 . S
C334 C159 1.316 . S
C339 C174 1.317 . S
C344 C187 1.285 . S
C349 C200 1.288 . S
C354 C185 1.318 . S
C359 C161 1.287 . S
C364 C198 1.316 . S
C369 C186 1.738 . S
C374 C10 1.738 . S
C379 C199 1.738 . S
C384 C23 1.738 . S
C389 C160 1.735 . S
C394 C30 1.735 . S
C399 C43 1.735 . S
C404 C179 1.735 . S
C409 C62 1.735 . S
C414 C134 1.735 . S
C419 C147 1.735 . S
C424 C75 1.735 . S
C429 C82 1.735 . S
C434 C114 1.735 . S
C439 C95 1.738 . S
C444 C127 1.738 . S
C449 C36 1.436 . S
C454 C4 1.436 . S
C459 C49 1.438 . S
C464 C17 1.438 . S
C469 C56 1.436 . S
C474 C88 1.436 . S
C479 C69 1.438 . S
C484 C101 1.438 . S
C489 C140 1.438 . S
C494 C108 1.438 . S
C499 C121 1.436 . S
C504 C153 1.436 . S
C509 C192 1.438 . S
C514 C166 1.438 . S
C519 C173 1.438 . S
C524 C205 1.438 . S
