# Generated by pormake.
# Topology ukd, (4)-cn, num edge types: 1
# Building blocks:
#     Node 0, Type 0, BuildingBlock: KUFVIS_clean_sbu_0, # of connection points: 4
#     Node 1, Type 0, BuildingBlock: KUFVIS_clean_sbu_0, # of connection points: 4
#     Node 2, Type 0, BuildingBlock: KUFVIS_clean_sbu_0, # of connection points: 4
#     Node 3, Type 0, BuildingBlock: KUFVIS_clean_sbu_0, # of connection points: 4
#     Node 4, Type 0, BuildingBlock: KUFVIS_clean_sbu_0, # of connection points: 4
#     Node 5, Type 0, BuildingBlock: KUFVIS_clean_sbu_0, # of connection points: 4
#     Node 6, Type 0, BuildingBlock: KUFVIS_clean_sbu_0, # of connection points: 4
#     Node 7, Type 0, BuildingBlock: KUFVIS_clean_sbu_0, # of connection points: 4
#     Node 8, Type 0, BuildingBlock: KUFVIS_clean_sbu_0, # of connection points: 4
#     Node 9, Type 0, BuildingBlock: KUFVIS_clean_sbu_0, # of connection points: 4
#     Node 10, Type 0, BuildingBlock: KUFVIS_clean_sbu_0, # of connection points: 4
#     Node 11, Type 0, BuildingBlock: KUFVIS_clean_sbu_0, # of connection points: 4
#     Node 12, Type 0, BuildingBlock: KUFVIS_clean_sbu_0, # of connection points: 4
#     Node 13, Type 0, BuildingBlock: KUFVIS_clean_sbu_0, # of connection points: 4
#     Node 14, Type 0, BuildingBlock: KUFVIS_clean_sbu_0, # of connection points: 4
#     Node 15, Type 0, BuildingBlock: KUFVIS_clean_sbu_0, # of connection points: 4
#     Node 16, Type 0, BuildingBlock: KUFVIS_clean_sbu_0, # of connection points: 4
#     Node 17, Type 0, BuildingBlock: KUFVIS_clean_sbu_0, # of connection points: 4
#     Node 18, Type 0, BuildingBlock: KUFVIS_clean_sbu_0, # of connection points: 4
#     Node 19, Type 0, BuildingBlock: KUFVIS_clean_sbu_0, # of connection points: 4
#     Node 20, Type 0, BuildingBlock: KUFVIS_clean_sbu_0, # of connection points: 4
#     Node 21, Type 0, BuildingBlock: KUFVIS_clean_sbu_0, # of connection points: 4
#     Node 22, Type 0, BuildingBlock: KUFVIS_clean_sbu_0, # of connection points: 4
#     Node 23, Type 0, BuildingBlock: KUFVIS_clean_sbu_0, # of connection points: 4
#     Node 24, Type 0, BuildingBlock: KUFVIS_clean_sbu_0, # of connection points: 4
#     Node 25, Type 0, BuildingBlock: KUFVIS_clean_sbu_0, # of connection points: 4
#     Node 26, Type 0, BuildingBlock: KUFVIS_clean_sbu_0, # of connection points: 4
#     Node 27, Type 0, BuildingBlock: KUFVIS_clean_sbu_0, # of connection points: 4
#     Node 28, Type 0, BuildingBlock: KUFVIS_clean_sbu_0, # of connection points: 4
#     Node 29, Type 0, BuildingBlock: KUFVIS_clean_sbu_0, # of connection points: 4
#     Node 30, Type 0, BuildingBlock: KUFVIS_clean_sbu_0, # of connection points: 4
#     Node 31, Type 0, BuildingBlock: KUFVIS_clean_sbu_0, # of connection points: 4
#     Edge 32, Type (0, 0), BuildingBlock: CIFDUS_clean_linker_0, # of connection points: 2
#     Edge 33, Type (0, 0), BuildingBlock: CIFDUS_clean_linker_0, # of connection points: 2
#     Edge 34, Type (0, 0), BuildingBlock: CIFDUS_clean_linker_0, # of connection points: 2
#     Edge 35, Type (0, 0), BuildingBlock: CIFDUS_clean_linker_0, # of connection points: 2
#     Edge 36, Type (0, 0), BuildingBlock: CIFDUS_clean_linker_0, # of connection points: 2
#     Edge 37, Type (0, 0), BuildingBlock: CIFDUS_clean_linker_0, # of connection points: 2
#     Edge 38, Type (0, 0), BuildingBlock: CIFDUS_clean_linker_0, # of connection points: 2
#     Edge 39, Type (0, 0), BuildingBlock: CIFDUS_clean_linker_0, # of connection points: 2
#     Edge 40, Type (0, 0), BuildingBlock: CIFDUS_clean_linker_0, # of connection points: 2
#     Edge 41, Type (0, 0), BuildingBlock: CIFDUS_clean_linker_0, # of connection points: 2
#     Edge 42, Type (0, 0), BuildingBlock: CIFDUS_clean_linker_0, # of connection points: 2
#     Edge 43, Type (0, 0), BuildingBlock: CIFDUS_clean_linker_0, # of connection points: 2
#     Edge 44, Type (0, 0), BuildingBlock: CIFDUS_clean_linker_0, # of connection points: 2
#     Edge 45, Type (0, 0), BuildingBlock: CIFDUS_clean_linker_0, # of connection points: 2
#     Edge 46, Type (0, 0), BuildingBlock: CIFDUS_clean_linker_0, # of connection points: 2
#     Edge 47, Type (0, 0), BuildingBlock: CIFDUS_clean_linker_0, # of connection points: 2
#     Edge 48, Type (0, 0), BuildingBlock: CIFDUS_clean_linker_0, # of connection points: 2
#     Edge 49, Type (0, 0), BuildingBlock: CIFDUS_clean_linker_0, # of connection points: 2
#     Edge 50, Type (0, 0), BuildingBlock: CIFDUS_clean_linker_0, # of connection points: 2
#     Edge 51, Type (0, 0), BuildingBlock: CIFDUS_clean_linker_0, # of connection points: 2
#     Edge 52, Type (0, 0), BuildingBlock: CIFDUS_clean_linker_0, # of connection points: 2
#     Edge 53, Type (0, 0), BuildingBlock: CIFDUS_clean_linker_0, # of connection points: 2
#     Edge 54, Type (0, 0), BuildingBlock: CIFDUS_clean_linker_0, # of connection points: 2
#     Edge 55, Type (0, 0), BuildingBlock: CIFDUS_clean_linker_0, # of connection points: 2
#     Edge 56, Type (0, 0), BuildingBlock: CIFDUS_clean_linker_0, # of connection points: 2
#     Edge 57, Type (0, 0), BuildingBlock: CIFDUS_clean_linker_0, # of connection points: 2
#     Edge 58, Type (0, 0), BuildingBlock: CIFDUS_clean_linker_0, # of connection points: 2
#     Edge 59, Type (0, 0), BuildingBlock: CIFDUS_clean_linker_0, # of connection points: 2
#     Edge 60, Type (0, 0), BuildingBlock: CIFDUS_clean_linker_0, # of connection points: 2
#     Edge 61, Type (0, 0), BuildingBlock: CIFDUS_clean_linker_0, # of connection points: 2
#     Edge 62, Type (0, 0), BuildingBlock: CIFDUS_clean_linker_0, # of connection points: 2
#     Edge 63, Type (0, 0), BuildingBlock: CIFDUS_clean_linker_0, # of connection points: 2
#     Edge 64, Type (0, 0), BuildingBlock: CIFDUS_clean_linker_0, # of connection points: 2
#     Edge 65, Type (0, 0), BuildingBlock: CIFDUS_clean_linker_0, # of connection points: 2
#     Edge 66, Type (0, 0), BuildingBlock: CIFDUS_clean_linker_0, # of connection points: 2
#     Edge 67, Type (0, 0), BuildingBlock: CIFDUS_clean_linker_0, # of connection points: 2
#     Edge 68, Type (0, 0), BuildingBlock: CIFDUS_clean_linker_0, # of connection points: 2
#     Edge 69, Type (0, 0), BuildingBlock: CIFDUS_clean_linker_0, # of connection points: 2
#     Edge 70, Type (0, 0), BuildingBlock: CIFDUS_clean_linker_0, # of connection points: 2
#     Edge 71, Type (0, 0), BuildingBlock: CIFDUS_clean_linker_0, # of connection points: 2
#     Edge 72, Type (0, 0), BuildingBlock: CIFDUS_clean_linker_0, # of connection points: 2
#     Edge 73, Type (0, 0), BuildingBlock: CIFDUS_clean_linker_0, # of connection points: 2
#     Edge 74, Type (0, 0), BuildingBlock: CIFDUS_clean_linker_0, # of connection points: 2
#     Edge 75, Type (0, 0), BuildingBlock: CIFDUS_clean_linker_0, # of connection points: 2
#     Edge 76, Type (0, 0), BuildingBlock: CIFDUS_clean_linker_0, # of connection points: 2
#     Edge 77, Type (0, 0), BuildingBlock: CIFDUS_clean_linker_0, # of connection points: 2
#     Edge 78, Type (0, 0), BuildingBlock: CIFDUS_clean_linker_0, # of connection points: 2
#     Edge 79, Type (0, 0), BuildingBlock: CIFDUS_clean_linker_0, # of connection points: 2
#     Edge 80, Type (0, 0), BuildingBlock: CIFDUS_clean_linker_0, # of connection points: 2
#     Edge 81, Type (0, 0), BuildingBlock: CIFDUS_clean_linker_0, # of connection points: 2
#     Edge 82, Type (0, 0), BuildingBlock: CIFDUS_clean_linker_0, # of connection points: 2
#     Edge 83, Type (0, 0), BuildingBlock: CIFDUS_clean_linker_0, # of connection points: 2
#     Edge 84, Type (0, 0), BuildingBlock: CIFDUS_clean_linker_0, # of connection points: 2
#     Edge 85, Type (0, 0), BuildingBlock: CIFDUS_clean_linker_0, # of connection points: 2
#     Edge 86, Type (0, 0), BuildingBlock: CIFDUS_clean_linker_0, # of connection points: 2
#     Edge 87, Type (0, 0), BuildingBlock: CIFDUS_clean_linker_0, # of connection points: 2
#     Edge 88, Type (0, 0), BuildingBlock: CIFDUS_clean_linker_0, # of connection points: 2
#     Edge 89, Type (0, 0), BuildingBlock: CIFDUS_clean_linker_0, # of connection points: 2
#     Edge 90, Type (0, 0), BuildingBlock: CIFDUS_clean_linker_0, # of connection points: 2
#     Edge 91, Type (0, 0), BuildingBlock: CIFDUS_clean_linker_0, # of connection points: 2
#     Edge 92, Type (0, 0), BuildingBlock: CIFDUS_clean_linker_0, # of connection points: 2
#     Edge 93, Type (0, 0), BuildingBlock: CIFDUS_clean_linker_0, # of connection points: 2
#     Edge 94, Type (0, 0), BuildingBlock: CIFDUS_clean_linker_0, # of connection points: 2
#     Edge 95, Type (0, 0), BuildingBlock: CIFDUS_clean_linker_0, # of connection points: 2
# Relax obj value: 0.060
# Max RMSD: 0.103
# Mean RMSD: 0.101
data_MOF--net-ukd--node1-KUFVIS_clean_sbu_0--edge1-CIFDUS_clean_linker_0
_symmetry_space_group_name_H-M    P1
_symmetry_Int_Tables_number       1
_symmetry_cell_setting            triclinic
loop_
_symmetry_equiv_pos_as_xyz
'x, y, z'
_cell_length_a     39.151438
_cell_length_b     39.135041
_cell_length_c     63.28459
_cell_angle_alpha  89.937086
_cell_angle_beta   90.043843
_cell_angle_gamma 90.021011
loop_
_atom_site_label
_atom_site_type_symbol
_atom_site_fract_x
_atom_site_fract_y
_atom_site_fract_z
_atom_type_partial_charge
Mn0 Mn 0.21181 0.17658 0.34917 0.0
Mn1 Mn 0.14064 0.19379 0.32102 0.0
C2 C 0.16043 0.15259 0.35914 0.0
C3 C 0.25918 0.14138 0.35461 0.0
C4 C 0.17378 0.24414 0.35134 0.0
O5 O 0.23009 0.19744 0.32185 0.0
O6 O 0.18134 0.20088 0.30283 0.0
C7 C 0.14347 0.13733 0.29004 0.0
N8 N 0.12646 0.15442 0.30552 0.0
C9 C 0.07807 0.11681 0.3026 0.0
C10 C 0.09497 0.09891 0.28652 0.0
C11 C 0.12784 0.10917 0.28026 0.0
C12 C 0.09487 0.14472 0.31172 0.0
H13 H 0.16876 0.14513 0.28523 0.0
C14 C 0.21377 0.20408 0.30481 0.0
O15 O 0.25873 0.17247 0.36185 0.0
O16 O 0.23345 0.13205 0.34313 0.0
N17 N 0.0993 0.18799 0.33676 0.0
C18 C 0.08725 0.20691 0.35321 0.0
C19 C 0.05503 0.19935 0.36177 0.0
C20 C 0.03542 0.17266 0.35322 0.0
C21 C 0.04818 0.15383 0.33612 0.0
C22 C 0.08037 0.16267 0.32817 0.0
H23 H 0.10217 0.22749 0.35983 0.0
O24 O 0.18546 0.15456 0.3725 0.0
O25 O 0.16635 0.16443 0.3403 0.0
O26 O 0.19651 0.22424 0.35898 0.0
O27 O 0.15289 0.23561 0.33674 0.0
C28 C 0.03052 0.12621 0.32692 0.0
C29 C 0.04548 0.10768 0.3102 0.0
H30 H 0.08307 0.07708 0.279 0.0
H31 H 0.14111 0.09538 0.26793 0.0
H32 H 0.04538 0.21397 0.37499 0.0
H33 H 0.01075 0.16667 0.36001 0.0
H34 H 0.00565 0.11869 0.3328 0.0
H35 H 0.03186 0.08619 0.30346 0.0
Mn36 Mn 0.06523 0.97487 0.60217 0.0
Mn37 Mn 0.0539 0.90109 0.57523 0.0
C38 C 0.08851 0.92484 0.61509 0.0
C39 C 0.09713 0.02424 0.60818 0.0
C40 C 0.99978 0.93239 0.6033 0.0
O41 O 0.04743 0.99117 0.57366 0.0
O42 O 0.04365 0.94081 0.55664 0.0
C43 C 0.11161 0.90961 0.54553 0.0
N44 N 0.09521 0.89079 0.56052 0.0
C45 C 0.13721 0.84607 0.55827 0.0
C46 C 0.15448 0.86489 0.54272 0.0
C47 C 0.14167 0.89684 0.53638 0.0
C48 C 0.1075 0.86021 0.56691 0.0
H49 H 0.10181 0.93417 0.54063 0.0
C50 C 0.04027 0.97334 0.55737 0.0
O51 O 0.06516 0.02266 0.61361 0.0
O52 O 0.10967 0.99818 0.59827 0.0
N53 N 0.06231 0.85995 0.59076 0.0
C54 C 0.04248 0.84496 0.60585 0.0
C55 C 0.05168 0.81279 0.61389 0.0
C56 C 0.08081 0.79609 0.60608 0.0
C57 C 0.10028 0.81159 0.59014 0.0
C58 C 0.08977 0.84362 0.58269 0.0
H59 H 0.01988 0.85751 0.61177 0.0
O60 O 0.08429 0.95098 0.62734 0.0
O61 O 0.07997 0.92898 0.59533 0.0
O62 O 0.01701 0.95814 0.60966 0.0
O63 O 0.01089 0.90978 0.59048 0.0
C64 C 0.12983 0.79664 0.58146 0.0
C65 C 0.14839 0.81395 0.56562 0.0
H66 H 0.17764 0.85511 0.5356 0.0
H67 H 0.15492 0.91156 0.52444 0.0
H68 H 0.03638 0.80089 0.62608 0.0
H69 H 0.08797 0.77139 0.61243 0.0
H70 H 0.13873 0.77201 0.58703 0.0
H71 H 0.17129 0.80237 0.55924 0.0
Mn72 Mn 0.28159 0.81296 0.85099 0.0
Mn73 Mn 0.35668 0.7934 0.82759 0.0
C74 C 0.33178 0.83531 0.86418 0.0
C75 C 0.23491 0.8501 0.85341 0.0
C76 C 0.31963 0.7458 0.85785 0.0
O77 O 0.26676 0.79157 0.82294 0.0
O78 O 0.31834 0.78432 0.80778 0.0
C79 C 0.3559 0.84796 0.79516 0.0
N80 N 0.37176 0.832 0.81159 0.0
C81 C 0.41933 0.87087 0.80984 0.0
C82 C 0.40363 0.88754 0.79278 0.0
C83 C 0.37173 0.8761 0.78546 0.0
C84 C 0.40226 0.84306 0.81892 0.0
H85 H 0.3313 0.83935 0.78957 0.0
C86 C 0.28568 0.78282 0.80739 0.0
O87 O 0.23312 0.8192 0.86095 0.0
O88 O 0.26233 0.85786 0.84308 0.0
N89 N 0.39655 0.80076 0.84455 0.0
C90 C 0.40834 0.78179 0.8611 0.0
C91 C 0.43999 0.78989 0.87028 0.0
C92 C 0.45944 0.81705 0.86216 0.0
C93 C 0.44724 0.83561 0.84476 0.0
C94 C 0.41562 0.82619 0.83618 0.0
H95 H 0.3937 0.76069 0.86729 0.0
O96 O 0.30444 0.83483 0.87565 0.0
O97 O 0.32877 0.82373 0.845 0.0
O98 O 0.29475 0.76557 0.86254 0.0
O99 O 0.34308 0.75316 0.84453 0.0
C100 C 0.4651 0.86323 0.83569 0.0
C101 C 0.45107 0.88095 0.8183 0.0
H102 H 0.41575 0.90926 0.78526 0.0
H103 H 0.35937 0.88895 0.77238 0.0
H104 H 0.44935 0.77526 0.88359 0.0
H105 H 0.48371 0.82341 0.86939 0.0
H106 H 0.48946 0.87128 0.84211 0.0
H107 H 0.46485 0.90239 0.81162 0.0
Mn108 Mn 0.4412 0.02496 0.0997 0.0
Mn109 Mn 0.45106 0.09878 0.07241 0.0
C110 C 0.41155 0.07344 0.10999 0.0
C111 C 0.4133 0.97296 0.10531 0.0
C112 C 0.50314 0.07174 0.10374 0.0
O113 O 0.46421 0.0095 0.07216 0.0
O114 O 0.464 0.05949 0.05437 0.0
C115 C 0.39671 0.0886 0.0405 0.0
N116 N 0.41106 0.10787 0.05605 0.0
C117 C 0.36861 0.15177 0.0517 0.0
C118 C 0.35351 0.13251 0.03551 0.0
C119 C 0.36756 0.10073 0.02995 0.0
C120 C 0.39756 0.13831 0.06168 0.0
H121 H 0.40744 0.06415 0.03621 0.0
C122 C 0.46987 0.02735 0.05556 0.0
O123 O 0.44412 0.978 0.11219 0.0
O124 O 0.39963 0.99714 0.09411 0.0
N125 N 0.43961 0.1394 0.08768 0.0
C126 C 0.45682 0.15448 0.10392 0.0
C127 C 0.44589 0.18637 0.11151 0.0
C128 C 0.4177 0.20263 0.10216 0.0
C129 C 0.40079 0.18693 0.08521 0.0
C130 C 0.41297 0.15524 0.07824 0.0
H131 H 0.47868 0.14228 0.11107 0.0
O132 O 0.41609 0.04837 0.12309 0.0
O133 O 0.42394 0.06927 0.0911 0.0
O134 O 0.48617 0.04588 0.11005 0.0
O135 O 0.49312 0.0921 0.08922 0.0
C136 C 0.37203 0.20124 0.07515 0.0
C137 C 0.35586 0.1836 0.05847 0.0
H138 H 0.33102 0.14177 0.02734 0.0
H139 H 0.35595 0.08564 0.01755 0.0
H140 H 0.45912 0.19834 0.12457 0.0
H141 H 0.40913 0.22706 0.1082 0.0
H142 H 0.36188 0.2256 0.08029 0.0
H143 H 0.33351 0.19467 0.05104 0.0
Mn144 Mn 0.22529 0.81292 0.15816 0.0
Mn145 Mn 0.14952 0.79676 0.18176 0.0
C146 C 0.17587 0.83652 0.14454 0.0
C147 C 0.27338 0.84821 0.15514 0.0
C148 C 0.18503 0.74682 0.15237 0.0
O149 O 0.23933 0.79188 0.18656 0.0
O150 O 0.18749 0.78713 0.20177 0.0
C151 C 0.15198 0.85247 0.21332 0.0
N152 N 0.13568 0.83644 0.1971 0.0
C153 C 0.08944 0.87689 0.19813 0.0
C154 C 0.1056 0.89369 0.21495 0.0
C155 C 0.13706 0.88148 0.22253 0.0
C156 C 0.1056 0.8482 0.18953 0.0
H157 H 0.17624 0.84324 0.21912 0.0
C158 C 0.22006 0.78429 0.2022 0.0
O159 O 0.27396 0.81699 0.14811 0.0
O160 O 0.24628 0.85738 0.16536 0.0
N161 N 0.10997 0.80472 0.16463 0.0
C162 C 0.09762 0.78548 0.14838 0.0
C163 C 0.06627 0.79423 0.13902 0.0
C164 C 0.04771 0.82232 0.14665 0.0
C165 C 0.06047 0.84117 0.16375 0.0
C166 C 0.09173 0.83109 0.17254 0.0
H167 H 0.1116 0.76369 0.14254 0.0
O168 O 0.20324 0.83471 0.13315 0.0
O169 O 0.17844 0.82554 0.1639 0.0
O170 O 0.21048 0.76563 0.14732 0.0
O171 O 0.16185 0.75544 0.16556 0.0
C172 C 0.04352 0.86972 0.17232 0.0
C173 C 0.05807 0.88766 0.18944 0.0
H174 H 0.09418 0.91608 0.22209 0.0
H175 H 0.14978 0.89441 0.23544 0.0
H176 H 0.05647 0.77938 0.12593 0.0
H177 H 0.02368 0.82917 0.13928 0.0
H178 H 0.01946 0.8783 0.16573 0.0
H179 H 0.04499 0.9098 0.19574 0.0
Mn180 Mn 0.43377 0.9701 0.4095 0.0
Mn181 Mn 0.44485 0.89595 0.4362 0.0
C182 C 0.41043 0.92017 0.39635 0.0
C183 C 0.40275 0.01994 0.40334 0.0
C184 C 0.49943 0.9281 0.40876 0.0
O185 O 0.45117 0.98586 0.43824 0.0
O186 O 0.45417 0.93531 0.45522 0.0
C187 C 0.38626 0.90308 0.46535 0.0
N188 N 0.40327 0.88482 0.45039 0.0
C189 C 0.3617 0.83958 0.45185 0.0
C190 C 0.34381 0.85781 0.46736 0.0
C191 C 0.35609 0.88975 0.47409 0.0
C192 C 0.39148 0.85426 0.44363 0.0
H193 H 0.39566 0.92763 0.47054 0.0
C194 C 0.45771 0.96784 0.45459 0.0
O195 O 0.4348 0.01791 0.39824 0.0
O196 O 0.38945 0.99393 0.41301 0.0
N197 N 0.43725 0.85516 0.42021 0.0
C198 C 0.45755 0.84087 0.40513 0.0
C199 C 0.44888 0.80882 0.39671 0.0
C200 C 0.41978 0.79156 0.40411 0.0
C201 C 0.39978 0.80638 0.42002 0.0
C202 C 0.40978 0.8383 0.42788 0.0
H203 H 0.4801 0.85388 0.3995 0.0
O204 O 0.41493 0.94641 0.38416 0.0
O205 O 0.41886 0.92413 0.41613 0.0
O206 O 0.48193 0.95349 0.40221 0.0
O207 O 0.48838 0.90537 0.42155 0.0
C208 C 0.37017 0.79087 0.42828 0.0
C209 C 0.35105 0.80753 0.44411 0.0
H210 H 0.32056 0.8476 0.47416 0.0
H211 H 0.34236 0.90402 0.486 0.0
H212 H 0.46458 0.79746 0.38453 0.0
H213 H 0.41303 0.76697 0.39747 0.0
H214 H 0.36166 0.76631 0.4224 0.0
H215 H 0.32811 0.79554 0.45015 0.0
Mn216 Mn 0.29362 0.18124 0.65452 0.0
Mn217 Mn 0.36845 0.20079 0.67842 0.0
C218 C 0.34456 0.16199 0.64046 0.0
C219 C 0.24724 0.14431 0.65024 0.0
C220 C 0.32973 0.25049 0.65073 0.0
O221 O 0.27819 0.19721 0.68365 0.0
O222 O 0.32963 0.20874 0.698 0.0
C223 C 0.36783 0.14469 0.70981 0.0
N224 N 0.38371 0.16161 0.69378 0.0
C225 C 0.43216 0.12389 0.69551 0.0
C226 C 0.41641 0.10616 0.71213 0.0
C227 C 0.38405 0.11654 0.71926 0.0
C228 C 0.41466 0.15161 0.68664 0.0
H229 H 0.34296 0.15261 0.71531 0.0
C230 C 0.29696 0.20757 0.69886 0.0
O231 O 0.24524 0.17613 0.64447 0.0
O232 O 0.27522 0.13482 0.65948 0.0
N233 N 0.40863 0.19479 0.66162 0.0
C234 C 0.42019 0.21448 0.64535 0.0
C235 C 0.45217 0.2074 0.63632 0.0
C236 C 0.47215 0.18051 0.64431 0.0
C237 C 0.46008 0.16113 0.66139 0.0
C238 C 0.42808 0.16949 0.66981 0.0
H239 H 0.40506 0.23534 0.63925 0.0
O240 O 0.31741 0.16394 0.6288 0.0
O241 O 0.34114 0.17101 0.66013 0.0
O242 O 0.30463 0.23096 0.6461 0.0
O243 O 0.35475 0.2418 0.66251 0.0
C244 C 0.4784 0.13367 0.67029 0.0
C245 C 0.46439 0.11497 0.68728 0.0
H246 H 0.42885 0.08445 0.71947 0.0
H247 H 0.37168 0.10291 0.73202 0.0
H248 H 0.46139 0.22261 0.62322 0.0
H249 H 0.49669 0.17497 0.63721 0.0
H250 H 0.5031 0.12645 0.66402 0.0
H251 H 0.47853 0.09364 0.69381 0.0
Mn252 Mn 0.0707 0.0339 0.90472 0.0
Mn253 Mn 0.06083 0.10793 0.93167 0.0
C254 C 0.10023 0.08239 0.89407 0.0
C255 C 0.09822 0.98166 0.89956 0.0
C256 C 0.00875 0.08055 0.90047 0.0
O257 O 0.04779 0.01867 0.93232 0.0
O258 O 0.04769 0.06875 0.94991 0.0
C259 C 0.11505 0.09777 0.96368 0.0
N260 N 0.10083 0.117 0.94804 0.0
C261 C 0.14357 0.16068 0.95218 0.0
C262 C 0.15854 0.14147 0.96846 0.0
C263 C 0.14428 0.10982 0.97417 0.0
C264 C 0.11453 0.14731 0.94227 0.0
H265 H 0.10418 0.07342 0.96808 0.0
C266 C 0.04194 0.03658 0.94884 0.0
O267 O 0.06745 0.9868 0.89262 0.0
O268 O 0.11221 0.00604 0.91041 0.0
N269 N 0.07242 0.14847 0.9163 0.0
C270 C 0.05521 0.1636 0.90006 0.0
C271 C 0.06631 0.19538 0.89235 0.0
C272 C 0.09467 0.21151 0.90159 0.0
C273 C 0.11155 0.19579 0.91856 0.0
C274 C 0.09919 0.16421 0.92566 0.0
H275 H 0.03323 0.1515 0.89299 0.0
O276 O 0.09569 0.0571 0.88115 0.0
O277 O 0.08798 0.07838 0.91303 0.0
O278 O 0.02566 0.05457 0.89437 0.0
O279 O 0.01882 0.10121 0.9148 0.0
C280 C 0.14043 0.21 0.92854 0.0
C281 C 0.15652 0.19238 0.94527 0.0
H282 H 0.18109 0.15067 0.97659 0.0
H283 H 0.15579 0.09478 0.98664 0.0
H284 H 0.05309 0.20738 0.87929 0.0
H285 H 0.10336 0.23586 0.89546 0.0
H286 H 0.1507 0.23428 0.9233 0.0
H287 H 0.17893 0.20338 0.95265 0.0
Mn288 Mn 0.79738 0.8078 0.66499 0.0
Mn289 Mn 0.81104 0.87768 0.69493 0.0
C290 C 0.83683 0.84838 0.65453 0.0
C291 C 0.81104 0.7513 0.65648 0.0
C292 C 0.74841 0.86839 0.66701 0.0
O293 O 0.77691 0.79456 0.69363 0.0
O294 O 0.7929 0.84027 0.713 0.0
C295 C 0.86673 0.85214 0.72241 0.0
N296 N 0.85493 0.87536 0.70811 0.0
C297 C 0.90854 0.90549 0.70836 0.0
C298 C 0.92111 0.88212 0.72326 0.0
C299 C 0.90012 0.8553 0.73028 0.0
C300 C 0.8749 0.90129 0.70126 0.0
H301 H 0.85085 0.83126 0.72769 0.0
C302 C 0.78005 0.81023 0.71128 0.0
O303 O 0.78172 0.76444 0.65128 0.0
O304 O 0.83152 0.77047 0.66734 0.0
N305 N 0.82947 0.91516 0.6791 0.0
C306 C 0.81446 0.93392 0.6635 0.0
C307 C 0.83265 0.96083 0.65407 0.0
C308 C 0.86604 0.96823 0.66079 0.0
C309 C 0.88091 0.94868 0.67693 0.0
C310 C 0.86142 0.92237 0.68589 0.0
H311 H 0.78889 0.92827 0.65815 0.0
O312 O 0.8238 0.82752 0.6408 0.0
O313 O 0.82636 0.84472 0.67384 0.0
O314 O 0.75743 0.84022 0.65854 0.0
O315 O 0.76555 0.8832 0.68156 0.0
C316 C 0.91459 0.95377 0.68413 0.0
C317 C 0.92838 0.93221 0.69984 0.0
H318 H 0.94697 0.88425 0.7292 0.0
H319 H 0.90974 0.83698 0.74164 0.0
H320 H 0.82105 0.97571 0.64156 0.0
H321 H 0.88014 0.98874 0.6533 0.0
H322 H 0.93029 0.97384 0.67745 0.0
H323 H 0.95449 0.93603 0.705 0.0
Mn324 Mn 0.93322 0.0516 0.40919 0.0
Mn325 Mn 0.86608 0.0535 0.44196 0.0
C326 C 0.88938 0.08943 0.40256 0.0
C327 C 0.98822 0.07177 0.40276 0.0
C328 C 0.87788 0.99753 0.40921 0.0
O329 O 0.94931 0.02508 0.43495 0.0
O330 O 0.90685 0.03649 0.45796 0.0
C331 C 0.88834 0.10716 0.47192 0.0
N332 N 0.86517 0.09522 0.45766 0.0
C333 C 0.83042 0.14552 0.46161 0.0
C334 C 0.85363 0.15807 0.4766 0.0
C335 C 0.88276 0.13882 0.48173 0.0
C336 C 0.83706 0.11354 0.45258 0.0
H337 H 0.91104 0.09277 0.47563 0.0
C338 C 0.93656 0.02464 0.45349 0.0
O339 O 0.97766 0.04342 0.39421 0.0
O340 O 0.96712 0.08758 0.41502 0.0
N341 N 0.82578 0.07038 0.42828 0.0
C342 C 0.80751 0.05615 0.41219 0.0
C343 C 0.77858 0.07315 0.40434 0.0
C344 C 0.76871 0.10458 0.41309 0.0
C345 C 0.78783 0.11871 0.42966 0.0
C346 C 0.81625 0.10044 0.43698 0.0
H347 H 0.81502 0.03213 0.40526 0.0
O348 O 0.91084 0.08145 0.38777 0.0
O349 O 0.89494 0.07547 0.42089 0.0
O350 O 0.90335 0.01127 0.39987 0.0
O351 O 0.86415 0.0099 0.42591 0.0
C352 C 0.78029 0.15061 0.43883 0.0
C353 C 0.80154 0.16399 0.45481 0.0
H354 H 0.84964 0.18268 0.48401 0.0
H355 H 0.90101 0.14851 0.49309 0.0
H356 H 0.76404 0.06214 0.39149 0.0
H357 H 0.74658 0.11779 0.40684 0.0
H358 H 0.7585 0.16532 0.43347 0.0
H359 H 0.7958 0.1888 0.46149 0.0
Mn360 Mn 0.70962 0.20167 0.15242 0.0
Mn361 Mn 0.7052 0.12794 0.18007 0.0
C362 C 0.67503 0.15814 0.14056 0.0
C363 C 0.69152 0.25724 0.14577 0.0
C364 C 0.76337 0.14479 0.15035 0.0
O365 O 0.72973 0.2149 0.18091 0.0
O366 O 0.72483 0.16474 0.19823 0.0
C367 C 0.65288 0.14911 0.21118 0.0
N368 N 0.66356 0.12722 0.19583 0.0
C369 C 0.61223 0.09375 0.19892 0.0
C370 C 0.60081 0.11577 0.21488 0.0
C371 C 0.6212 0.1436 0.221 0.0
C372 C 0.64412 0.1004 0.18979 0.0
H373 H 0.66837 0.17064 0.21587 0.0
C374 C 0.73301 0.19642 0.19738 0.0
O375 O 0.72159 0.24682 0.14002 0.0
O376 O 0.67248 0.23574 0.15602 0.0
N377 N 0.68644 0.09015 0.16478 0.0
C378 C 0.70025 0.07251 0.14831 0.0
C379 C 0.68245 0.04458 0.13978 0.0
C380 C 0.65083 0.03488 0.14839 0.0
C381 C 0.63736 0.05311 0.16552 0.0
C382 C 0.65635 0.08062 0.17344 0.0
H383 H 0.72449 0.07989 0.14159 0.0
O384 O 0.68534 0.18196 0.12782 0.0
O385 O 0.68458 0.16088 0.16026 0.0
O386 O 0.75222 0.17394 0.14451 0.0
O387 O 0.74833 0.12589 0.16392 0.0
C388 C 0.6055 0.04556 0.17474 0.0
C389 C 0.59294 0.06587 0.19142 0.0
H390 H 0.57629 0.11173 0.2224 0.0
H391 H 0.61246 0.16082 0.23323 0.0
H392 H 0.69301 0.03064 0.12656 0.0
H393 H 0.63703 0.01352 0.14164 0.0
H394 H 0.59019 0.02452 0.16891 0.0
H395 H 0.56817 0.06013 0.19817 0.0
Mn396 Mn 0.55363 0.95859 0.8991 0.0
Mn397 Mn 0.62417 0.95083 0.92911 0.0
C398 C 0.59628 0.92193 0.88857 0.0
C399 C 0.49788 0.94202 0.89198 0.0
C400 C 0.61115 0.01073 0.89947 0.0
O401 O 0.5401 0.98062 0.92695 0.0
O402 O 0.58575 0.96774 0.94716 0.0
C403 C 0.60168 0.89488 0.95741 0.0
N404 N 0.62445 0.90753 0.94315 0.0
C405 C 0.65784 0.85596 0.94458 0.0
C406 C 0.63503 0.84261 0.95953 0.0
C407 C 0.60678 0.86213 0.96593 0.0
C408 C 0.65166 0.88891 0.93682 0.0
H409 H 0.57965 0.90955 0.96214 0.0
C410 C 0.5554 0.97951 0.94475 0.0
O411 O 0.50937 0.9715 0.88571 0.0
O412 O 0.5184 0.92291 0.90289 0.0
N413 N 0.66282 0.93395 0.91377 0.0
C414 C 0.68081 0.94933 0.89797 0.0
C415 C 0.70893 0.93241 0.88905 0.0
C416 C 0.71834 0.89993 0.89649 0.0
C417 C 0.69961 0.8847 0.91286 0.0
C418 C 0.67202 0.90293 0.92129 0.0
H419 H 0.67367 0.9742 0.89208 0.0
O420 O 0.57357 0.93259 0.87518 0.0
O421 O 0.59257 0.93218 0.90802 0.0
O422 O 0.58354 0.99941 0.89141 0.0
O423 O 0.62695 0.9959 0.91464 0.0
C424 C 0.70674 0.85181 0.92077 0.0
C425 C 0.68589 0.83746 0.93663 0.0
H426 H 0.63867 0.81721 0.96597 0.0
H427 H 0.58884 0.85185 0.97728 0.0
H428 H 0.72321 0.9443 0.87639 0.0
H429 H 0.73982 0.88681 0.88941 0.0
H430 H 0.72785 0.83709 0.91452 0.0
H431 H 0.69125 0.81189 0.94231 0.0
Mn432 Mn 0.79642 0.20438 0.85724 0.0
Mn433 Mn 0.80257 0.13522 0.82596 0.0
C434 C 0.83312 0.16097 0.86663 0.0
C435 C 0.81379 0.25971 0.86494 0.0
C436 C 0.74406 0.14706 0.85674 0.0
O437 O 0.77296 0.2193 0.83005 0.0
O438 O 0.78517 0.17468 0.80887 0.0
C439 C 0.85772 0.15908 0.79754 0.0
N440 N 0.84536 0.1355 0.8114 0.0
C441 C 0.89672 0.10201 0.80874 0.0
C442 C 0.90973 0.12564 0.79415 0.0
C443 C 0.89017 0.15435 0.78858 0.0
C444 C 0.86405 0.10788 0.81698 0.0
H445 H 0.84306 0.18148 0.79349 0.0
C446 C 0.77331 0.20482 0.812 0.0
O447 O 0.7845 0.24819 0.8715 0.0
O448 O 0.83216 0.23952 0.85338 0.0
N449 N 0.81971 0.09559 0.84027 0.0
C450 C 0.80462 0.0766 0.85573 0.0
C451 C 0.8216 0.0478 0.8638 0.0
C452 C 0.8538 0.03871 0.85584 0.0
C453 C 0.86868 0.05842 0.83979 0.0
C454 C 0.85041 0.08667 0.83221 0.0
H455 H 0.77995 0.08346 0.86201 0.0
O456 O 0.82335 0.18334 0.88044 0.0
O457 O 0.82217 0.16556 0.84738 0.0
O458 O 0.75585 0.17424 0.86512 0.0
O459 O 0.7581 0.13201 0.84103 0.0
C460 C 0.90128 0.05161 0.83138 0.0
C461 C 0.91529 0.07339 0.81587 0.0
H462 H 0.93489 0.12226 0.78737 0.0
H463 H 0.9002 0.17293 0.77752 0.0
H464 H 0.80996 0.03274 0.87621 0.0
H465 H 0.86698 0.0167 0.86228 0.0
H466 H 0.91604 0.03002 0.83699 0.0
H467 H 0.94063 0.06824 0.8098 0.0
Mn468 Mn 0.56798 0.04118 0.60353 0.0
Mn469 Mn 0.6322 0.04707 0.56861 0.0
C470 C 0.61091 0.08074 0.60899 0.0
C471 C 0.51287 0.05784 0.6129 0.0
C472 C 0.62552 0.98945 0.60086 0.0
O473 O 0.5504 0.01537 0.57776 0.0
O474 O 0.59082 0.02909 0.55378 0.0
C475 C 0.60516 0.10107 0.54038 0.0
N476 N 0.63015 0.08936 0.55349 0.0
C477 C 0.6628 0.14096 0.54888 0.0
C478 C 0.63773 0.15323 0.53499 0.0
C479 C 0.60873 0.13323 0.53078 0.0
C480 C 0.65811 0.10847 0.55774 0.0
H481 H 0.58249 0.08616 0.53746 0.0
C482 C 0.56175 0.01627 0.55885 0.0
O483 O 0.52602 0.02965 0.62016 0.0
O484 O 0.53147 0.07567 0.60008 0.0
N485 N 0.673 0.06505 0.58116 0.0
C486 C 0.69318 0.051 0.59643 0.0
C487 C 0.72223 0.06875 0.60342 0.0
C488 C 0.73026 0.10073 0.59466 0.0
C489 C 0.70919 0.11466 0.57894 0.0
C490 C 0.68076 0.09564 0.57243 0.0
H491 H 0.6871 0.02655 0.60335 0.0
O492 O 0.59145 0.07128 0.62451 0.0
O493 O 0.60407 0.0671 0.59078 0.0
O494 O 0.60026 1.00181 0.61105 0.0
O495 O 0.6374 0.00293 0.58394 0.0
C496 C 0.71482 0.14707 0.56988 0.0
C497 C 0.69167 0.16019 0.55484 0.0
H498 H 0.64017 0.17822 0.52777 0.0
H499 H 0.58901 0.14273 0.52032 0.0
H500 H 0.73828 0.0579 0.61563 0.0
H501 H 0.75248 0.11452 0.60027 0.0
H502 H 0.73657 0.16236 0.57462 0.0
H503 H 0.69594 0.18541 0.54827 0.0
Mn504 Mn 0.7067 0.81825 0.34407 0.0
Mn505 Mn 0.69169 0.88831 0.31455 0.0
C506 C 0.66701 0.85814 0.35499 0.0
C507 C 0.69326 0.76192 0.35288 0.0
C508 C 0.75509 0.87928 0.34184 0.0
O509 O 0.72649 0.80538 0.31521 0.0
O510 O 0.71019 0.85145 0.29619 0.0
C511 C 0.63613 0.86251 0.28707 0.0
N512 N 0.64769 0.88556 0.30152 0.0
C513 C 0.59352 0.91461 0.30185 0.0
C514 C 0.58118 0.89141 0.2868 0.0
C515 C 0.60258 0.86522 0.27941 0.0
C516 C 0.62735 0.91094 0.3087 0.0
H517 H 0.65231 0.84208 0.28153 0.0
C518 C 0.72318 0.82142 0.29767 0.0
O519 O 0.72277 0.77498 0.35774 0.0
O520 O 0.67266 0.78093 0.34199 0.0
N521 N 0.67283 0.92507 0.33074 0.0
C522 C 0.68758 0.94343 0.3466 0.0
C523 C 0.66892 0.96949 0.35651 0.0
C524 C 0.63531 0.97643 0.35004 0.0
C525 C 0.62068 0.95727 0.33366 0.0
C526 C 0.64063 0.93181 0.32421 0.0
H527 H 0.71329 0.93804 0.3518 0.0
O528 O 0.68092 0.83754 0.36855 0.0
O529 O 0.67706 0.85485 0.33556 0.0
O530 O 0.74666 0.85077 0.35013 0.0
O531 O 0.73725 0.89433 0.3277 0.0
C532 C 0.58679 0.96184 0.32672 0.0
C533 C 0.57324 0.94056 0.3108 0.0
H534 H 0.55518 0.89316 0.28104 0.0
H535 H 0.59314 0.84703 0.26793 0.0
H536 H 0.68033 0.98406 0.36922 0.0
H537 H 0.62086 0.9963 0.3579 0.0
H538 H 0.57074 0.98127 0.33376 0.0
H539 H 0.54696 0.94396 0.30585 0.0
Mn540 Mn 0.95797 0.96422 0.10513 0.0
Mn541 Mn 0.88757 0.95797 0.07474 0.0
C542 C 0.91424 0.92868 0.11557 0.0
C543 C 0.01325 0.94641 0.11289 0.0
C544 C 0.90111 0.0173 0.10461 0.0
O545 O 0.97251 0.98598 0.07734 0.0
O546 O 0.92653 0.97478 0.05705 0.0
C547 C 0.91001 0.90218 0.04638 0.0
N548 N 0.88704 0.91493 0.06047 0.0
C549 C 0.85275 0.86399 0.05828 0.0
C550 C 0.87578 0.85056 0.0435 0.0
C551 C 0.90458 0.86971 0.03758 0.0
C552 C 0.85932 0.89665 0.06636 0.0
H553 H 0.93243 0.91658 0.042 0.0
C554 C 0.95715 0.98576 0.05955 0.0
O555 O 0.00226 0.97621 0.11885 0.0
O556 O 0.99261 0.92774 0.10179 0.0
N557 N 0.84827 0.94138 0.08958 0.0
C558 C 0.82999 0.95681 0.10521 0.0
C559 C 0.80125 0.94024 0.11365 0.0
C560 C 0.79147 0.9081 0.10587 0.0
C561 C 0.81046 0.89286 0.08965 0.0
C562 C 0.83871 0.91071 0.08172 0.0
H563 H 0.83739 0.98144 0.11135 0.0
O564 O 0.9371 0.93882 0.12899 0.0
O565 O 0.91844 0.93858 0.09605 0.0
O566 O 0.92873 0.00569 0.11253 0.0
O567 O 0.88506 0.00275 0.08946 0.0
C568 C 0.80295 0.86029 0.0814 0.0
C569 C 0.82407 0.84587 0.06572 0.0
H570 H 0.87185 0.82538 0.03683 0.0
H571 H 0.92266 0.85937 0.02636 0.0
H572 H 0.78675 0.95215 0.12619 0.0
H573 H 0.76949 0.89525 0.11258 0.0
H574 H 0.78132 0.84585 0.08726 0.0
H575 H 0.81838 0.82055 0.05978 0.0
Mn576 Mn 0.71431 0.67904 0.85361 0.0
Mn577 Mn 0.63827 0.68677 0.82846 0.0
C578 C 0.66638 0.65246 0.86745 0.0
C579 C 0.76656 0.65149 0.85841 0.0
C580 C 0.66933 0.74232 0.85586 0.0
O581 O 0.72736 0.69794 0.82453 0.0
O582 O 0.67609 0.69568 0.80834 0.0
C583 C 0.64443 0.62731 0.79984 0.0
N584 N 0.62673 0.64476 0.81487 0.0
C585 C 0.58064 0.60413 0.8137 0.0
C586 C 0.59822 0.58586 0.79807 0.0
C587 C 0.63035 0.5974 0.7912 0.0
C588 C 0.59613 0.63352 0.82188 0.0
H589 H 0.66909 0.63617 0.79451 0.0
C590 C 0.7083 0.70114 0.80825 0.0
O591 O 0.76242 0.68316 0.86387 0.0
O592 O 0.74104 0.63645 0.84919 0.0
N593 N 0.5986 0.67901 0.84549 0.0
C594 C 0.58511 0.69934 0.86084 0.0
C595 C 0.55315 0.69119 0.86955 0.0
C596 C 0.53503 0.66266 0.86211 0.0
C597 C 0.549 0.64261 0.84594 0.0
C598 C 0.58098 0.65197 0.83787 0.0
H599 H 0.59859 0.72163 0.86641 0.0
O600 O 0.69304 0.65788 0.87915 0.0
O601 O 0.66879 0.66175 0.84775 0.0
O602 O 0.69527 0.72556 0.8622 0.0
O603 O 0.6475 0.73098 0.84258 0.0
C604 C 0.53254 0.61358 0.83759 0.0
C605 C 0.54844 0.59423 0.82157 0.0
H606 H 0.58739 0.56286 0.79131 0.0
H607 H 0.64417 0.58335 0.77923 0.0
H608 H 0.54244 0.70695 0.88193 0.0
H609 H 0.51044 0.65637 0.86893 0.0
H610 H 0.50789 0.60561 0.84359 0.0
H611 H 0.53578 0.57166 0.81551 0.0
Mn612 Mn 0.56818 0.47624 0.10322 0.0
Mn613 Mn 0.55001 0.40251 0.07791 0.0
C614 C 0.58725 0.42495 0.11694 0.0
C615 C 0.60616 0.52175 0.10773 0.0
C616 C 0.49911 0.44078 0.10527 0.0
O617 O 0.55077 0.49245 0.07444 0.0
O618 O 0.54487 0.44159 0.05814 0.0
C619 C 0.60897 0.40207 0.0487 0.0
N620 N 0.59026 0.38648 0.06407 0.0
C621 C 0.62752 0.3376 0.06405 0.0
C622 C 0.6471 0.35304 0.04813 0.0
C623 C 0.63783 0.38546 0.04047 0.0
C624 C 0.59913 0.35545 0.07169 0.0
H625 H 0.60194 0.42703 0.04283 0.0
C626 C 0.54344 0.47428 0.05828 0.0
O627 O 0.57452 0.52438 0.1138 0.0
O628 O 0.61447 0.49413 0.09778 0.0
N629 N 0.55353 0.36214 0.09488 0.0
C630 C 0.532 0.35086 0.11029 0.0
C631 C 0.5377 0.3188 0.11965 0.0
C632 C 0.56517 0.2985 0.11288 0.0
C633 C 0.5865 0.31031 0.09665 0.0
C634 C 0.5794 0.34235 0.08781 0.0
H635 H 0.5107 0.36623 0.11546 0.0
O636 O 0.58601 0.45195 0.1287 0.0
O637 O 0.57835 0.42899 0.09729 0.0
O638 O 0.51892 0.46451 0.11182 0.0
O639 O 0.50793 0.41726 0.09236 0.0
C640 C 0.61468 0.29166 0.08901 0.0
C641 C 0.63525 0.30536 0.07278 0.0
H642 H 0.66938 0.34032 0.04175 0.0
H643 H 0.65289 0.3976 0.02825 0.0
H644 H 0.52099 0.30978 0.13208 0.0
H645 H 0.56966 0.27392 0.12026 0.0
H646 H 0.62097 0.26694 0.09566 0.0
H647 H 0.65709 0.29097 0.06721 0.0
Mn648 Mn 0.77778 0.3229 0.34712 0.0
Mn649 Mn 0.85405 0.3076 0.32383 0.0
C650 C 0.82745 0.34603 0.36108 0.0
C651 C 0.72843 0.35527 0.35188 0.0
C652 C 0.81787 0.25603 0.35135 0.0
O653 O 0.76376 0.30605 0.31773 0.0
O654 O 0.81616 0.29684 0.30402 0.0
C655 C 0.85081 0.36276 0.29186 0.0
N656 N 0.86727 0.34728 0.30823 0.0
C657 C 0.91325 0.38802 0.3067 0.0
C658 C 0.8969 0.40429 0.28972 0.0
C659 C 0.8655 0.39165 0.28232 0.0
C660 C 0.89735 0.35938 0.31559 0.0
H661 H 0.82666 0.35312 0.28615 0.0
C662 C 0.78349 0.29631 0.3028 0.0
O663 O 0.72939 0.32322 0.35709 0.0
O664 O 0.75533 0.36795 0.34283 0.0
N665 N 0.89333 0.31652 0.34098 0.0
C666 C 0.90547 0.29821 0.3577 0.0
C667 C 0.93663 0.30759 0.36706 0.0
C668 C 0.95516 0.33544 0.35898 0.0
C669 C 0.94245 0.3535 0.34152 0.0
C670 C 0.91139 0.3428 0.33276 0.0
H671 H 0.89141 0.27668 0.36391 0.0
O672 O 0.80067 0.34194 0.37286 0.0
O673 O 0.82452 0.33634 0.34151 0.0
O674 O 0.79176 0.27422 0.35552 0.0
O675 O 0.84275 0.26592 0.33986 0.0
C676 C 0.95916 0.38199 0.33263 0.0
C677 C 0.9445 0.39932 0.31529 0.0
H678 H 0.90812 0.42661 0.28234 0.0
H679 H 0.85266 0.40416 0.26928 0.0
H680 H 0.94629 0.29349 0.38051 0.0
H681 H 0.979 0.34283 0.36638 0.0
H682 H 0.9831 0.39101 0.33916 0.0
H683 H 0.9574 0.42141 0.30874 0.0
Mn684 Mn 0.93425 0.53873 0.60058 0.0
Mn685 Mn 0.93946 0.61446 0.57497 0.0
C686 C 0.91161 0.58719 0.61614 0.0
C687 C 0.90517 0.48764 0.60683 0.0
C688 C 0.99886 0.58179 0.59832 0.0
O689 O 0.94836 0.52541 0.57062 0.0
O690 O 0.94452 0.57653 0.55427 0.0
C691 C 0.87549 0.60953 0.55023 0.0
N692 N 0.89547 0.62666 0.56429 0.0
C693 C 0.85448 0.67224 0.56699 0.0
C694 C 0.83353 0.6552 0.55242 0.0
C695 C 0.84404 0.62365 0.54407 0.0
C696 C 0.88544 0.65682 0.57262 0.0
H697 H 0.88352 0.58528 0.5438 0.0
C698 C 0.94992 0.54427 0.55415 0.0
O699 O 0.93772 0.49019 0.61048 0.0
O700 O 0.89017 0.51393 0.59849 0.0
N701 N 0.93528 0.65397 0.59259 0.0
C702 C 0.95833 0.66697 0.60659 0.0
C703 C 0.95161 0.69837 0.61647 0.0
C704 C 0.92157 0.71635 0.61161 0.0
C705 C 0.89864 0.70288 0.59677 0.0
C706 C 0.90676 0.67153 0.58738 0.0
H707 H 0.98163 0.65345 0.61026 0.0
O708 O 0.9181 0.56023 0.62734 0.0
O709 O 0.91747 0.58467 0.59593 0.0
O710 O 0.98269 0.55637 0.60603 0.0
O711 O 0.98561 0.6041 0.58602 0.0
C712 C 0.86789 0.71917 0.59107 0.0
C713 C 0.84575 0.70379 0.57626 0.0
H714 H 0.80928 0.66602 0.54761 0.0
H715 H 0.82795 0.61027 0.53289 0.0
H716 H 0.96955 0.70869 0.62782 0.0
H717 H 0.91636 0.74045 0.61937 0.0
H718 H 0.86081 0.74331 0.59818 0.0
H719 H 0.82197 0.71633 0.57221 0.0
Mn720 Mn 0.72296 0.31838 0.65791 0.0
Mn721 Mn 0.64897 0.29806 0.68231 0.0
C722 C 0.67165 0.33682 0.64383 0.0
C723 C 0.76813 0.35701 0.65395 0.0
C724 C 0.68873 0.24858 0.65478 0.0
O725 O 0.7388 0.301 0.68675 0.0
O726 O 0.68775 0.29267 0.70242 0.0
C727 C 0.64718 0.3559 0.71236 0.0
N728 N 0.63217 0.33763 0.69658 0.0
C729 C 0.58321 0.37478 0.69641 0.0
C730 C 0.59803 0.39387 0.71277 0.0
C731 C 0.63018 0.38443 0.72074 0.0
C732 C 0.60137 0.34664 0.68868 0.0
H733 H 0.67196 0.3488 0.71844 0.0
C734 C 0.72049 0.29249 0.70263 0.0
O735 O 0.77119 0.32547 0.64776 0.0
O736 O 0.74014 0.36494 0.66362 0.0
N737 N 0.60897 0.30179 0.66504 0.0
C738 C 0.59832 0.2808 0.64918 0.0
C739 C 0.56663 0.28678 0.63944 0.0
C740 C 0.54605 0.31401 0.64627 0.0
C741 C 0.55719 0.33478 0.66295 0.0
C742 C 0.58888 0.32739 0.67217 0.0
H743 H 0.61393 0.25973 0.64393 0.0
O744 O 0.69896 0.33608 0.63233 0.0
O745 O 0.67533 0.32762 0.66348 0.0
O746 O 0.7125 0.26895 0.64899 0.0
O747 O 0.66448 0.25662 0.66736 0.0
C748 C 0.53826 0.36272 0.67066 0.0
C749 C 0.55132 0.38278 0.68733 0.0
H750 H 0.58504 0.41593 0.71925 0.0
H751 H 0.64186 0.39913 0.73329 0.0
H752 H 0.55812 0.2705 0.62667 0.0
H753 H 0.52177 0.31874 0.63859 0.0
H754 H 0.5138 0.36923 0.66372 0.0
H755 H 0.53671 0.40443 0.69295 0.0
Mn756 Mn 0.94166 0.47474 0.90858 0.0
Mn757 Mn 0.96175 0.40011 0.93231 0.0
C758 C 0.92237 0.42395 0.89447 0.0
C759 C 0.90254 0.51958 0.90525 0.0
C760 C 0.011 0.44015 0.90464 0.0
O761 O 0.95998 0.48985 0.93735 0.0
O762 O 0.96731 0.43829 0.95269 0.0
C763 C 0.90423 0.39746 0.96257 0.0
N764 N 0.92232 0.38291 0.94657 0.0
C765 C 0.88523 0.33387 0.94614 0.0
C766 C 0.86633 0.34822 0.96271 0.0
C767 C 0.87582 0.3802 0.97092 0.0
C768 C 0.91324 0.3523 0.93844 0.0
H769 H 0.91138 0.42211 0.96884 0.0
C770 C 0.96806 0.47101 0.95311 0.0
O771 O 0.93386 0.52313 0.8987 0.0
O772 O 0.89538 0.49156 0.91512 0.0
N773 N 0.95771 0.36067 0.91461 0.0
C774 C 0.97835 0.3506 0.89844 0.0
C775 C 0.9722 0.31921 0.88839 0.0
C776 C 0.94515 0.29835 0.8952 0.0
C777 C 0.9247 0.30892 0.91216 0.0
C778 C 0.93224 0.34032 0.92168 0.0
H779 H 0.99928 0.36644 0.89319 0.0
O780 O 0.92299 0.4514 0.88306 0.0
O781 O 0.93221 0.42721 0.91399 0.0
O782 O 0.99067 0.46401 0.8989 0.0
O783 O 0.00304 0.41601 0.91736 0.0
C784 C 0.89691 0.2897 0.91984 0.0
C785 C 0.87713 0.30221 0.93678 0.0
H786 H 0.84436 0.33502 0.96917 0.0
H787 H 0.86126 0.39151 0.98364 0.0
H788 H 0.9882 0.31117 0.87538 0.0
H789 H 0.94028 0.27431 0.88728 0.0
H790 H 0.89028 0.26545 0.91269 0.0
H791 H 0.85556 0.28741 0.94238 0.0
Mn792 Mn 0.78833 0.69094 0.15499 0.0
Mn793 Mn 0.8649 0.69987 0.17924 0.0
C794 C 0.83602 0.6643 0.14105 0.0
C795 C 0.73659 0.66203 0.15118 0.0
C796 C 0.83292 0.75435 0.15131 0.0
O797 O 0.77588 0.71072 0.18393 0.0
O798 O 0.82758 0.70919 0.19965 0.0
C799 C 0.8597 0.64118 0.20863 0.0
N800 N 0.87693 0.65826 0.1932 0.0
C801 C 0.92279 0.61736 0.19403 0.0
C802 C 0.9057 0.59952 0.21009 0.0
C803 C 0.87393 0.61138 0.21732 0.0
C804 C 0.90718 0.6467 0.18583 0.0
H805 H 0.83526 0.65022 0.21419 0.0
C806 C 0.79534 0.71445 0.2 0.0
O807 O 0.7398 0.69358 0.14512 0.0
O808 O 0.76262 0.64818 0.16054 0.0
N809 N 0.90404 0.69168 0.16183 0.0
C810 C 0.91702 0.71157 0.14606 0.0
C811 C 0.94855 0.70301 0.13692 0.0
C812 C 0.96674 0.67449 0.14433 0.0
C813 C 0.95331 0.65489 0.16091 0.0
C814 C 0.92178 0.66469 0.16943 0.0
H815 H 0.90348 0.73382 0.14048 0.0
O816 O 0.80905 0.66906 0.12953 0.0
O817 O 0.83402 0.67426 0.16061 0.0
O818 O 0.80682 0.73733 0.14545 0.0
O819 O 0.85504 0.74355 0.16461 0.0
C820 C 0.96987 0.62588 0.16925 0.0
C821 C 0.95453 0.60703 0.18573 0.0
H822 H 0.91664 0.57657 0.21688 0.0
H823 H 0.86048 0.59762 0.22961 0.0
H824 H 0.95885 0.71841 0.12422 0.0
H825 H 0.99097 0.66786 0.13717 0.0
H826 H 0.99417 0.61757 0.16289 0.0
H827 H 0.96725 0.58447 0.19178 0.0
Mn828 Mn 0.57102 0.54579 0.40431 0.0
Mn829 Mn 0.55376 0.61971 0.42968 0.0
C830 C 0.59309 0.59627 0.39132 0.0
C831 C 0.60651 0.4982 0.4005 0.0
C832 C 0.50389 0.58477 0.39994 0.0
O833 O 0.55083 0.52987 0.43239 0.0
O834 O 0.54508 0.5804 0.44903 0.0
C835 C 0.61021 0.61632 0.46073 0.0
N836 N 0.59365 0.63325 0.44495 0.0
C837 C 0.63411 0.6795 0.4462 0.0
C838 C 0.65147 0.66268 0.46258 0.0
C839 C 0.6395 0.63091 0.46983 0.0
C840 C 0.60512 0.66366 0.43772 0.0
H841 H 0.6012 0.5918 0.46626 0.0
C842 C 0.54286 0.54775 0.44854 0.0
O843 O 0.57524 0.49769 0.39356 0.0
O844 O 0.61589 0.52514 0.41085 0.0
N845 N 0.56065 0.66038 0.41339 0.0
C846 C 0.54061 0.67356 0.39776 0.0
C847 C 0.5489 0.7054 0.38887 0.0
C848 C 0.57738 0.72359 0.39634 0.0
C849 C 0.59701 0.71 0.41287 0.0
C850 C 0.58733 0.67829 0.42123 0.0
H851 H 0.51858 0.65981 0.39202 0.0
O852 O 0.59178 0.56925 0.37958 0.0
O853 O 0.5827 0.59265 0.41078 0.0
O854 O 0.52323 0.56015 0.39418 0.0
O855 O 0.51225 0.6075 0.41353 0.0
C856 C 0.62593 0.72656 0.42129 0.0
C857 C 0.64457 0.71124 0.43787 0.0
H858 H 0.67408 0.67384 0.46963 0.0
H859 H 0.65285 0.6177 0.4824 0.0
H860 H 0.53344 0.71585 0.37624 0.0
H861 H 0.58389 0.74798 0.38931 0.0
H862 H 0.63422 0.75094 0.41501 0.0
H863 H 0.66693 0.72407 0.44409 0.0
Mn864 Mn 0.30553 0.30046 0.15646 0.0
Mn865 Mn 0.3007 0.36923 0.18811 0.0
C866 C 0.34184 0.346 0.15083 0.0
C867 C 0.32762 0.24566 0.15137 0.0
C868 C 0.24939 0.35362 0.1532 0.0
O869 O 0.27695 0.28427 0.18137 0.0
O870 O 0.284 0.32835 0.20392 0.0
C871 C 0.35223 0.35047 0.22037 0.0
N872 N 0.34051 0.37276 0.2055 0.0
C873 C 0.38801 0.41062 0.21142 0.0
C874 C 0.40022 0.38836 0.22707 0.0
C875 C 0.3823 0.3581 0.23151 0.0
C876 C 0.35765 0.40187 0.20102 0.0
H877 H 0.33892 0.3269 0.22355 0.0
C878 C 0.27404 0.29791 0.19958 0.0
O879 O 0.29992 0.25546 0.14175 0.0
O880 O 0.34191 0.26748 0.16394 0.0
N881 N 0.31692 0.41006 0.17469 0.0
C882 C 0.30332 0.42741 0.15799 0.0
C883 C 0.31925 0.45739 0.1508 0.0
C884 C 0.34892 0.4693 0.16086 0.0
C885 C 0.36233 0.45118 0.17809 0.0
C886 C 0.34515 0.42164 0.18471 0.0
H887 H 0.28061 0.41841 0.1501 0.0
O888 O 0.3369 0.32352 0.13608 0.0
O889 O 0.32619 0.34039 0.16858 0.0
O890 O 0.2653 0.3284 0.14503 0.0
O891 O 0.25897 0.36852 0.17022 0.0
C892 C 0.39252 0.46085 0.18864 0.0
C893 C 0.40534 0.44059 0.2053 0.0
H894 H 0.42362 0.39397 0.23553 0.0
H895 H 0.3918 0.34057 0.24337 0.0
H896 H 0.30878 0.47118 0.13746 0.0
H897 H 0.36136 0.49222 0.15511 0.0
H898 H 0.40637 0.48353 0.18384 0.0
H899 H 0.42889 0.44798 0.21304 0.0
Mn900 Mn 0.44146 0.53539 0.90493 0.0
Mn901 Mn 0.37573 0.54695 0.93836 0.0
C902 C 0.39789 0.57197 0.89534 0.0
C903 C 0.49717 0.5507 0.8958 0.0
C904 C 0.38386 0.48395 0.91048 0.0
O905 O 0.45812 0.51485 0.93251 0.0
O906 O 0.41669 0.53173 0.95485 0.0
C907 C 0.40218 0.60558 0.96297 0.0
N908 N 0.37739 0.59154 0.95061 0.0
C909 C 0.34367 0.64286 0.95235 0.0
C910 C 0.36862 0.65769 0.96535 0.0
C911 C 0.39804 0.63899 0.97062 0.0
C912 C 0.34903 0.60935 0.94537 0.0
H913 H 0.42501 0.59147 0.96686 0.0
C914 C 0.44599 0.51843 0.95105 0.0
O915 O 0.4846 0.52124 0.89031 0.0
O916 O 0.47745 0.57083 0.90649 0.0
N917 N 0.33487 0.5623 0.92465 0.0
C918 C 0.31471 0.54546 0.91051 0.0
C919 C 0.28513 0.56139 0.90273 0.0
C920 C 0.27646 0.59435 0.90964 0.0
C921 C 0.29743 0.61108 0.92431 0.0
C922 C 0.32648 0.59384 0.93164 0.0
H923 H 0.32122 0.52018 0.90506 0.0
O924 O 0.41893 0.56025 0.88129 0.0
O925 O 0.40398 0.56302 0.91483 0.0
O926 O 0.40985 0.49428 0.90005 0.0
O927 O 0.37103 0.50055 0.926 0.0
C928 C 0.29111 0.64452 0.93154 0.0
C929 C 0.3142 0.66039 0.94557 0.0
H930 H 0.36568 0.68357 0.97111 0.0
H931 H 0.41758 0.65038 0.98046 0.0
H932 H 0.26911 0.54834 0.89137 0.0
H933 H 0.2538 0.60668 0.90344 0.0
H934 H 0.2689 0.6585 0.92612 0.0
H935 H 0.3094 0.68634 0.9507 0.0
Mn936 Mn 0.20931 0.70176 0.65182 0.0
Mn937 Mn 0.20265 0.63131 0.68206 0.0
C938 C 0.16852 0.66108 0.64387 0.0
C939 C 0.19419 0.75838 0.64515 0.0
C940 C 0.259 0.64212 0.64955 0.0
O941 O 0.23578 0.7142 0.67858 0.0
O942 O 0.22283 0.66902 0.69932 0.0
C943 C 0.15094 0.65499 0.71288 0.0
N944 N 0.16129 0.63194 0.69811 0.0
C945 C 0.1093 0.59967 0.70199 0.0
C946 C 0.09853 0.62259 0.71763 0.0
C947 C 0.11938 0.65046 0.72302 0.0
C948 C 0.14128 0.60518 0.69266 0.0
H949 H 0.16643 0.67689 0.71668 0.0
C950 C 0.23563 0.69889 0.69644 0.0
O951 O 0.22216 0.74546 0.63755 0.0
O952 O 0.17596 0.73885 0.65726 0.0
N953 N 0.18259 0.59363 0.66722 0.0
C954 C 0.19499 0.57601 0.65031 0.0
C955 C 0.17603 0.54873 0.64195 0.0
C956 C 0.14458 0.53978 0.65104 0.0
C957 C 0.13235 0.55819 0.66845 0.0
C958 C 0.15251 0.58495 0.67625 0.0
H959 H 0.21903 0.58281 0.64314 0.0
O960 O 0.17842 0.68277 0.62963 0.0
O961 O 0.18255 0.66424 0.66239 0.0
O962 O 0.24747 0.66997 0.64191 0.0
O963 O 0.24579 0.62718 0.66559 0.0
C964 C 0.10052 0.55162 0.67799 0.0
C965 C 0.08902 0.57232 0.69476 0.0
H966 H 0.07399 0.61945 0.72529 0.0
H967 H 0.11098 0.66861 0.73481 0.0
H968 H 0.18557 0.53474 0.62844 0.0
H969 H 0.12985 0.51896 0.64438 0.0
H970 H 0.08439 0.53112 0.67228 0.0
H971 H 0.06419 0.56746 0.70168 0.0
Mn972 Mn 0.05307 0.44673 0.41264 0.0
Mn973 Mn 0.12719 0.44529 0.43965 0.0
C974 C 0.09563 0.4088 0.40298 0.0
C975 C 0.99695 0.42718 0.4087 0.0
C976 C 0.10894 0.50065 0.40776 0.0
O977 O 0.04157 0.47207 0.44 0.0
O978 O 0.09034 0.46346 0.45823 0.0
C979 C 0.1107 0.39348 0.47223 0.0
N980 N 0.13083 0.40435 0.45602 0.0
C981 C 0.16611 0.35417 0.45861 0.0
C982 C 0.146 0.34266 0.47551 0.0
C983 C 0.11814 0.36239 0.48232 0.0
C984 C 0.15774 0.38559 0.44935 0.0
H985 H 0.08901 0.40832 0.47736 0.0
C986 C 0.05918 0.4735 0.45701 0.0
O987 O 0.0068 0.4559 0.40035 0.0
O988 O 0.01931 0.41063 0.41979 0.0
N989 N 0.16426 0.42724 0.42337 0.0
C990 C 0.17933 0.44048 0.40576 0.0
C991 C 0.20656 0.42292 0.39629 0.0
C992 C 0.21806 0.39198 0.40501 0.0
C993 C 0.20225 0.3789 0.42317 0.0
C994 C 0.17542 0.39768 0.43204 0.0
H995 H 0.17052 0.46412 0.39888 0.0
O996 O 0.0718 0.41715 0.38969 0.0
O997 O 0.09357 0.42275 0.42155 0.0
O998 O 0.08096 0.4874 0.40138 0.0
O999 O 0.12672 0.48818 0.42286 0.0
C1000 C 0.21153 0.34755 0.43249 0.0
C1001 C 0.19351 0.33521 0.45022 0.0
H1002 H 0.15143 0.31851 0.48318 0.0
H1003 H 0.10231 0.35353 0.49522 0.0
H1004 H 0.21854 0.43311 0.38222 0.0
H1005 H 0.23883 0.37832 0.39751 0.0
H1006 H 0.23215 0.33245 0.42596 0.0
H1007 H 0.20053 0.3108 0.45704 0.0
Mn1008 Mn 0.28597 0.69855 0.35898 0.0
Mn1009 Mn 0.29309 0.62828 0.32861 0.0
C1010 C 0.32341 0.65583 0.36881 0.0
C1011 C 0.30285 0.7546 0.36629 0.0
C1012 C 0.2342 0.64013 0.35919 0.0
O1013 O 0.26293 0.7125 0.33138 0.0
O1014 O 0.27538 0.66698 0.31099 0.0
C1015 C 0.34811 0.65194 0.30001 0.0
N1016 N 0.33586 0.62853 0.31403 0.0
C1017 C 0.38733 0.59518 0.31149 0.0
C1018 C 0.40015 0.61854 0.29668 0.0
C1019 C 0.3805 0.64712 0.29098 0.0
C1020 C 0.3547 0.6011 0.31977 0.0
H1021 H 0.33344 0.6743 0.29592 0.0
C1022 C 0.26368 0.69733 0.31353 0.0
O1023 O 0.27362 0.74285 0.37277 0.0
O1024 O 0.32148 0.73421 0.35502 0.0
N1025 N 0.31075 0.5894 0.34346 0.0
C1026 C 0.29612 0.57104 0.35938 0.0
C1027 C 0.31343 0.5427 0.3678 0.0
C1028 C 0.3455 0.53343 0.35973 0.0
C1029 C 0.35995 0.55253 0.34325 0.0
C1030 C 0.34137 0.58034 0.33534 0.0
H1031 H 0.27156 0.57805 0.36576 0.0
O1032 O 0.31308 0.67825 0.38244 0.0
O1033 O 0.31229 0.65976 0.34956 0.0
O1034 O 0.24548 0.66799 0.36705 0.0
O1035 O 0.24857 0.62479 0.3437 0.0
C1036 C 0.39246 0.54558 0.33475 0.0
C1037 C 0.40613 0.56688 0.31887 0.0
H1038 H 0.42529 0.61512 0.28987 0.0
H1039 H 0.39042 0.66555 0.2798 0.0
H1040 H 0.30213 0.52814 0.38055 0.0
H1041 H 0.35893 0.51177 0.36642 0.0
H1042 H 0.40744 0.5243 0.34059 0.0
H1043 H 0.43145 0.56169 0.31278 0.0
Mn1044 Mn 0.05717 0.53792 0.10833 0.0
Mn1045 Mn 0.12715 0.54336 0.07761 0.0
C1046 C 0.10098 0.57397 0.11822 0.0
C1047 C 1.00136 0.5554 0.11507 0.0
C1048 C 0.11344 0.48433 0.10784 0.0
O1049 O 0.04275 0.51502 0.08094 0.0
O1050 O 0.08762 0.52762 0.06005 0.0
C1051 C 0.10565 0.59993 0.04947 0.0
N1052 N 0.12857 0.58645 0.06336 0.0
C1053 C 0.16442 0.63625 0.06077 0.0
C1054 C 0.14149 0.65038 0.04615 0.0
C1055 C 0.11192 0.63219 0.04054 0.0
C1056 C 0.15699 0.60384 0.069 0.0
H1057 H 0.08265 0.58629 0.04537 0.0
C1058 C 0.05733 0.51601 0.06295 0.0
O1059 O 0.01265 0.52615 0.12187 0.0
O1060 O 0.02231 0.57403 0.10416 0.0
N1061 N 0.16694 0.55897 0.09237 0.0
C1062 C 0.18491 0.54314 0.10803 0.0
C1063 C 0.21425 0.55888 0.11628 0.0
C1064 C 0.22496 0.59061 0.10829 0.0
C1065 C 0.20626 0.60628 0.09205 0.0
C1066 C 0.17737 0.58925 0.08432 0.0
H1067 H 0.17684 0.51881 0.11431 0.0
O1068 O 0.07803 0.5645 0.13179 0.0
O1069 O 0.09671 0.5632 0.09892 0.0
O1070 O 0.08658 0.49671 0.11629 0.0
O1071 O 0.12883 0.49837 0.09224 0.0
C1072 C 0.2147 0.63851 0.08361 0.0
C1073 C 0.1938 0.65348 0.06797 0.0
H1074 H 0.14606 0.6754 0.03938 0.0
H1075 H 0.09388 0.6431 0.02946 0.0
H1076 H 0.22852 0.54665 0.12884 0.0
H1077 H 0.24741 0.60283 0.11484 0.0
H1078 H 0.23685 0.65231 0.08931 0.0
H1079 H 0.20018 0.67857 0.0619 0.0
Mn1080 Mn 0.20449 0.30894 0.84391 0.0
Mn1081 Mn 0.20475 0.38009 0.81373 0.0
C1082 C 0.1686 0.35379 0.85209 0.0
C1083 C 0.18291 0.25391 0.84975 0.0
C1084 C 0.25989 0.36413 0.84604 0.0
O1085 O 0.22882 0.29361 0.81715 0.0
O1086 O 0.22451 0.34147 0.79732 0.0
C1087 C 0.15432 0.35888 0.78145 0.0
N1088 N 0.16441 0.38119 0.79673 0.0
C1089 C 0.11398 0.41542 0.79182 0.0
C1090 C 0.10318 0.39297 0.7759 0.0
C1091 C 0.12343 0.36456 0.77072 0.0
C1092 C 0.14517 0.40865 0.80182 0.0
H1093 H 0.16969 0.33687 0.77754 0.0
C1094 C 0.23321 0.3102 0.80001 0.0
O1095 O 0.212 0.26334 0.8578 0.0
O1096 O 0.16701 0.27615 0.83823 0.0
N1097 N 0.18607 0.41919 0.82771 0.0
C1098 C 0.19903 0.43707 0.84435 0.0
C1099 C 0.18118 0.46557 0.85206 0.0
C1100 C 0.15031 0.47545 0.84253 0.0
C1101 C 0.13763 0.45683 0.8253 0.0
C1102 C 0.1567 0.42885 0.81818 0.0
H1103 H 0.22264 0.42946 0.85182 0.0
O1104 O 0.17635 0.33111 0.86627 0.0
O1105 O 0.18178 0.34919 0.83345 0.0
O1106 O 0.2468 0.33662 0.85342 0.0
O1107 O 0.24667 0.38145 0.83099 0.0
C1108 C 0.10645 0.46446 0.81523 0.0
C1109 C 0.09463 0.44378 0.7985 0.0
H1110 H 0.07923 0.39709 0.76771 0.0
H1111 H 0.11516 0.347 0.75854 0.0
H1112 H 0.19109 0.47975 0.86539 0.0
H1113 H 0.13642 0.49721 0.84867 0.0
H1114 H 0.09111 0.48589 0.82042 0.0
H1115 H 0.07039 0.44963 0.79108 0.0
Mn1116 Mn 0.45127 0.45861 0.60024 0.0
Mn1117 Mn 0.38405 0.45496 0.56713 0.0
C1118 C 0.4087 0.41862 0.60578 0.0
C1119 C 0.50648 0.44176 0.60941 0.0
C1120 C 0.39227 0.50941 0.60109 0.0
O1121 O 0.4674 0.48591 0.57449 0.0
O1122 O 0.42373 0.47586 0.55199 0.0
C1123 C 0.41101 0.40473 0.5364 0.0
N1124 N 0.38637 0.41441 0.55034 0.0
C1125 C 0.35504 0.36232 0.54452 0.0
C1126 C 0.37965 0.35223 0.5297 0.0
C1127 C 0.40783 0.37348 0.5257 0.0
C1128 C 0.35931 0.39399 0.55447 0.0
H1129 H 0.43313 0.4205 0.53368 0.0
C1130 C 0.45361 0.48763 0.55618 0.0
O1131 O 0.49331 0.46985 0.61668 0.0
O1132 O 0.4882 0.42448 0.59608 0.0
N1133 N 0.3446 0.43444 0.57982 0.0
C1134 C 0.32478 0.44641 0.59589 0.0
C1135 C 0.29657 0.42718 0.60271 0.0
C1136 C 0.28897 0.3959 0.59294 0.0
C1137 C 0.3096 0.38416 0.57637 0.0
C1138 C 0.33717 0.40461 0.57008 0.0
H1139 H 0.33054 0.47031 0.6036 0.0
O1140 O 0.42896 0.42738 0.62106 0.0
O1141 O 0.41438 0.43323 0.58768 0.0
O1142 O 0.41936 0.49718 0.60931 0.0
O1143 O 0.37843 0.49715 0.5844 0.0
C1144 C 0.30437 0.35258 0.56621 0.0
C1145 C 0.32706 0.34167 0.55029 0.0
H1146 H 0.37751 0.32795 0.52162 0.0
H1147 H 0.42724 0.36561 0.51456 0.0
H1148 H 0.28085 0.43636 0.61556 0.0
H1149 H 0.26744 0.38094 0.59842 0.0
H1150 H 0.28331 0.33621 0.57077 0.0
H1151 H 0.32314 0.31705 0.54287 0.0
H1152 H 0.13261 0.39618 0.36791 0.0
H1153 H 0.10242 0.35251 0.42748 0.0
H1154 H 0.13014 0.29856 0.41825 0.0
H1155 H 0.15635 0.26156 0.3912 0.0
H1156 H 0.18024 0.30353 0.33005 0.0
H1157 H 0.16227 0.36034 0.34179 0.0
C1158 C 0.13288 0.37499 0.37897 0.0
C1159 C 0.11672 0.37851 0.39862 0.0
C1160 C 0.14761 0.34366 0.37315 0.0
C1161 C 0.11603 0.35069 0.41263 0.0
C1162 C 0.13148 0.31974 0.40724 0.0
C1163 C 0.15851 0.28346 0.38075 0.0
C1164 C 0.1699 0.27877 0.35994 0.0
C1165 C 0.14663 0.31565 0.38732 0.0
C1166 C 0.17179 0.30689 0.34622 0.0
C1167 C 0.16131 0.33923 0.35287 0.0
H1168 H 0.98625 0.90138 0.63995 0.0
H1169 H 0.93849 0.94785 0.58581 0.0
H1170 H 0.88225 0.92792 0.59783 0.0
H1171 H 0.84781 0.89227 0.62211 0.0
H1172 H 0.897 0.84267 0.67474 0.0
H1173 H 0.95162 0.8685 0.66508 0.0
C1174 C 0.96329 0.90776 0.63116 0.0
C1175 C 0.96595 0.92633 0.61231 0.0
C1176 C 0.93153 0.89523 0.63778 0.0
C1177 C 0.93655 0.93393 0.60058 0.0
C1178 C 0.9046 0.92231 0.60734 0.0
C1179 C 0.8705 0.88768 0.63154 0.0
C1180 C 0.86849 0.86662 0.64943 0.0
C1181 C 0.90191 0.90218 0.62564 0.0
C1182 C 0.89799 0.8598 0.66129 0.0
C1183 C 0.92919 0.87434 0.6557 0.0
H1184 H 0.39001 0.63451 0.91273 0.0
H1185 H 0.35406 0.56993 0.8624 0.0
H1186 H 0.32218 0.61782 0.84715 0.0
H1187 H 0.31082 0.67993 0.84594 0.0
H1188 H 0.344 0.74351 0.8975 0.0
H1189 H 0.36966 0.694 0.91506 0.0
C1190 C 0.37385 0.63061 0.89903 0.0
C1191 C 0.37341 0.59863 0.88904 0.0
C1192 C 0.35528 0.65813 0.89056 0.0
C1193 C 0.3541 0.59428 0.87054 0.0
C1194 C 0.33599 0.62163 0.86181 0.0
C1195 C 0.32255 0.68251 0.86139 0.0
C1196 C 0.32541 0.71498 0.87059 0.0
C1197 C 0.33714 0.65391 0.87138 0.0
C1198 C 0.34113 0.71848 0.8904 0.0
C1199 C 0.35614 0.69031 0.90028 0.0
H1200 H 0.5675 0.07438 0.08848 0.0
H1201 H 0.50742 0.09207 0.14436 0.0
H1202 H 0.5565 0.11906 0.1617 0.0
H1203 H 0.61452 0.14339 0.1591 0.0
H1204 H 0.67574 0.12242 0.10414 0.0
H1205 H 0.62829 0.091 0.0881 0.0
C1206 C 0.5656 0.08341 0.10464 0.0
C1207 C 0.53425 0.08134 0.11524 0.0
C1208 C 0.59397 0.09849 0.11452 0.0
C1209 C 0.53162 0.0932 0.13609 0.0
C1210 C 0.55952 0.10885 0.1459 0.0
C1211 C 0.61782 0.13069 0.14402 0.0
C1212 C 0.64875 0.13419 0.13305 0.0
C1213 C 0.59058 0.11235 0.13507 0.0
C1214 C 0.65225 0.11935 0.11299 0.0
C1215 C 0.62516 0.10151 0.10382 0.0
H1216 H 0.18889 0.68197 0.16685 0.0
H1217 H 0.16422 0.74217 0.11195 0.0
H1218 H 0.13755 0.69242 0.09525 0.0
H1219 H 0.11383 0.63428 0.0989 0.0
H1220 H 0.14113 0.57308 0.15288 0.0
H1221 H 0.17411 0.62065 0.16753 0.0
C1222 C 0.17877 0.68368 0.15092 0.0
C1223 C 0.17864 0.7153 0.14048 0.0
C1224 C 0.16354 0.65499 0.14147 0.0
C1225 C 0.16502 0.71774 0.12002 0.0
C1226 C 0.14941 0.68947 0.11062 0.0
C1227 C 0.12833 0.63096 0.11336 0.0
C1228 C 0.12603 0.60006 0.12453 0.0
C1229 C 0.14753 0.65828 0.1215 0.0
C1230 C 0.1432 0.59656 0.14388 0.0
C1231 C 0.16195 0.62372 0.15225 0.0
H1232 H 0.515 0.90173 0.37102 0.0
H1233 H 0.55976 0.94206 0.42791 0.0
H1234 H 0.61707 0.92701 0.41519 0.0
H1235 H 0.65363 0.89763 0.38908 0.0
H1236 H 0.60741 0.85237 0.33404 0.0
H1237 H 0.55153 0.87417 0.34454 0.0
C1238 C 0.5375 0.90772 0.38035 0.0
C1239 C 0.53371 0.92316 0.40015 0.0
C1240 C 0.56996 0.89799 0.37325 0.0
C1241 C 0.56255 0.93036 0.4125 0.0
C1242 C 0.59513 0.92164 0.40528 0.0
C1243 C 0.63131 0.8932 0.37929 0.0
C1244 C 0.63459 0.87475 0.36042 0.0
C1245 C 0.59907 0.90478 0.38587 0.0
C1246 C 0.60553 0.86789 0.34816 0.0
C1247 C 0.57356 0.87996 0.35428 0.0
H1248 H 0.35586 0.26813 0.61307 0.0
H1249 H 0.31002 0.30938 0.66932 0.0
H1250 H 0.32691 0.36726 0.65874 0.0
H1251 H 0.36243 0.40448 0.63619 0.0
H1252 H 0.41169 0.3622 0.58133 0.0
H1253 H 0.38564 0.30652 0.58832 0.0
C1254 C 0.34859 0.29005 0.62254 0.0
C1255 C 0.33137 0.28495 0.6417 0.0
C1256 C 0.35948 0.32294 0.61671 0.0
C1257 C 0.32279 0.31311 0.6543 0.0
C1258 C 0.33276 0.34605 0.64837 0.0
C1259 C 0.36664 0.38317 0.62556 0.0
C1260 C 0.38811 0.3874 0.60801 0.0
C1261 C 0.35227 0.35107 0.63003 0.0
C1262 C 0.39433 0.35962 0.59456 0.0
C1263 C 0.37973 0.32775 0.59868 0.0
H1264 H 0.94395 0.07594 0.91476 0.0
H1265 H 0.00426 0.1066 0.86113 0.0
H1266 H 0.95371 0.13193 0.84442 0.0
H1267 H 0.89411 0.15173 0.84753 0.0
H1268 H 0.83323 0.11904 0.90045 0.0
H1269 H 0.8821 0.08804 0.91513 0.0
C1270 C 0.94564 0.08747 0.8992 0.0
C1271 C 0.9774 0.08959 0.88908 0.0
C1272 C 0.91651 0.10177 0.88971 0.0
C1273 C 0.97977 0.10463 0.86901 0.0
C1274 C 0.95101 0.11928 0.85957 0.0
C1275 C 0.89127 0.13657 0.86178 0.0
C1276 C 0.86005 0.1367 0.87263 0.0
C1277 C 0.91945 0.11881 0.87005 0.0
C1278 C 0.85699 0.11858 0.89168 0.0
C1279 C 0.88491 0.10105 0.9001 0.0
H1280 H 0.85047 0.61653 0.60721 0.0
H1281 H 0.93706 0.62269 0.64902 0.0
H1282 H 0.91213 0.67254 0.66653 0.0
H1283 H 0.8677 0.71646 0.66828 0.0
H1284 H 0.78022 0.71035 0.62696 0.0
H1285 H 0.80318 0.65819 0.61106 0.0
C1286 C 0.8638 0.62906 0.62008 0.0
C1287 C 0.89614 0.61718 0.62632 0.0
C1288 C 0.84903 0.65743 0.63023 0.0
C1289 C 0.91259 0.63227 0.64364 0.0
C1290 C 0.8983 0.66061 0.65367 0.0
C1291 C 0.85341 0.70354 0.65596 0.0
C1292 C 0.82238 0.71742 0.64874 0.0
C1293 C 0.86684 0.67377 0.64684 0.0
C1294 C 0.80412 0.70018 0.63286 0.0
C1295 C 0.8173 0.67041 0.62371 0.0
H1296 H 0.12001 0.16227 0.39272 0.0
H1297 H 0.13481 0.09718 0.33876 0.0
H1298 H 0.08388 0.06394 0.34827 0.0
H1299 H 0.03301 0.05596 0.371 0.0
H1300 H 0.01891 0.12244 0.42471 0.0
H1301 H 0.07145 0.15256 0.41627 0.0
C1302 C 0.11189 0.14082 0.38309 0.0
C1303 C 0.12989 0.13286 0.36467 0.0
C1304 C 0.08271 0.12213 0.38861 0.0
C1305 C 0.1202 0.10441 0.35258 0.0
C1306 C 0.09136 0.0853 0.35812 0.0
C1307 C 0.04175 0.0767 0.38099 0.0
C1308 C 0.02201 0.08698 0.39839 0.0
C1309 C 0.072 0.09432 0.37592 0.0
C1310 C 0.03351 0.1141 0.41113 0.0
C1311 C 0.06359 0.1314 0.40634 0.0
H1312 H 0.64452 0.39476 0.10276 0.0
H1313 H 0.56685 0.38777 0.15068 0.0
H1314 H 0.59341 0.33576 0.16478 0.0
H1315 H 0.63699 0.29077 0.16207 0.0
H1316 H 0.71635 0.29932 0.11508 0.0
H1317 H 0.69107 0.35237 0.10202 0.0
C1318 C 0.63346 0.38158 0.11621 0.0
C1319 C 0.60313 0.39379 0.1252 0.0
C1320 C 0.64927 0.35226 0.12441 0.0
C1321 C 0.5897 0.37788 0.14322 0.0
C1322 C 0.60492 0.34835 0.15129 0.0
C1323 C 0.64892 0.30443 0.1491 0.0
C1324 C 0.67835 0.29109 0.13947 0.0
C1325 C 0.63441 0.33501 0.14179 0.0
C1326 C 0.69374 0.30917 0.12281 0.0
C1327 C 0.67926 0.33944 0.11529 0.0
H1328 H 0.46265 0.89043 0.91002 0.0
H1329 H 0.45758 0.96441 0.85953 0.0
H1330 H 0.40506 0.93787 0.8464 0.0
H1331 H 0.36262 0.89117 0.84811 0.0
H1332 H 0.36691 0.81883 0.89937 0.0
H1333 H 0.41775 0.84726 0.91356 0.0
C1334 C 0.44985 0.90098 0.89628 0.0
C1335 C 0.464 0.92915 0.88566 0.0
C1336 C 0.41979 0.88569 0.8889 0.0
C1337 C 0.44703 0.9428 0.86801 0.0
C1338 C 0.41712 0.92756 0.86045 0.0
C1339 C 0.37499 0.88168 0.8623 0.0
C1340 C 0.3624 0.85225 0.87228 0.0
C1341 C 0.4037 0.89856 0.87052 0.0
C1342 C 0.37716 0.84092 0.8912 0.0
C1343 C 0.406 0.85721 0.89931 0.0
H1344 H 0.8659 0.39362 0.90983 0.0
H1345 H 0.93979 0.38842 0.85958 0.0
H1346 H 0.91112 0.33795 0.84504 0.0
H1347 H 0.86684 0.29398 0.8478 0.0
H1348 H 0.79149 0.29997 0.89738 0.0
H1349 H 0.81868 0.3518 0.911 0.0
C1350 C 0.8757 0.3811 0.8958 0.0
C1351 C 0.90556 0.39338 0.88619 0.0
C1352 C 0.8587 0.35264 0.88738 0.0
C1353 C 0.91735 0.37842 0.86747 0.0
C1354 C 0.90091 0.3498 0.85915 0.0
C1355 C 0.85616 0.30681 0.86147 0.0
C1356 C 0.82734 0.29315 0.87164 0.0
C1357 C 0.87186 0.33645 0.86916 0.0
C1358 C 0.81358 0.31015 0.88922 0.0
C1359 C 0.82919 0.33966 0.89706 0.0
H1360 H 0.37606 0.10623 0.65639 0.0
H1361 H 0.37944 0.17856 0.6051 0.0
H1362 H 0.43092 0.15106 0.59118 0.0
H1363 H 0.4766 0.10887 0.59495 0.0
H1364 H 0.4732 0.03543 0.64581 0.0
H1365 H 0.4198 0.0607 0.65855 0.0
C1366 C 0.38833 0.11591 0.64223 0.0
C1367 C 0.37518 0.14509 0.63217 0.0
C1368 C 0.4176 0.09969 0.63425 0.0
C1369 C 0.38996 0.15665 0.61332 0.0
C1370 C 0.41923 0.14091 0.60538 0.0
C1371 C 0.46408 0.09819 0.60874 0.0
C1372 C 0.47895 0.07049 0.61953 0.0
C1373 C 0.43359 0.11283 0.61593 0.0
C1374 C 0.46222 0.05672 0.63722 0.0
C1375 C 0.43175 0.0712 0.64452 0.0
H1376 H 0.6389 0.72528 0.33959 0.0
H1377 H 0.72085 0.72419 0.38517 0.0
H1378 H 0.69656 0.673 0.40169 0.0
H1379 H 0.65033 0.62972 0.40393 0.0
H1380 H 0.56994 0.63052 0.35744 0.0
H1381 H 0.59524 0.68067 0.34044 0.0
C1382 C 0.6517 0.71365 0.353 0.0
C1383 C 0.68161 0.72851 0.36115 0.0
C1384 C 0.6376 0.68441 0.36238 0.0
C1385 C 0.69794 0.71306 0.37848 0.0
C1386 C 0.68395 0.68392 0.38801 0.0
C1387 C 0.6383 0.64131 0.39024 0.0
C1388 C 0.60759 0.62772 0.38241 0.0
C1389 C 0.65347 0.66969 0.38029 0.0
C1390 C 0.59301 0.64151 0.36405 0.0
C1391 C 0.60756 0.66995 0.35429 0.0
H1392 H 0.14594 0.89391 0.15925 0.0
H1393 H 0.1408 0.81906 0.10953 0.0
H1394 H 0.09102 0.84798 0.09433 0.0
H1395 H 0.04732 0.89263 0.09643 0.0
H1396 H 0.05335 0.96909 0.14534 0.0
H1397 H 0.10465 0.94173 0.1596 0.0
C1398 C 0.1336 0.88397 0.14519 0.0
C1399 C 0.14568 0.85373 0.13594 0.0
C1400 C 0.1055 0.90114 0.13636 0.0
C1401 C 0.13095 0.84179 0.11716 0.0
C1402 C 0.10271 0.85837 0.10846 0.0
C1403 C 0.06007 0.90353 0.11007 0.0
C1404 C 0.04652 0.93271 0.11989 0.0
C1405 C 0.08947 0.88776 0.11811 0.0
C1406 C 0.06343 0.94672 0.13745 0.0
C1407 C 0.09265 0.93102 0.14566 0.0
H1408 H 0.67431 0.80645 0.83999 0.0
H1409 H 0.64516 0.74932 0.89531 0.0
H1410 H 0.62211 0.80118 0.91159 0.0
H1411 H 0.60418 0.86114 0.90797 0.0
H1412 H 0.63584 0.91929 0.85364 0.0
H1413 H 0.66403 0.86879 0.8389 0.0
C1414 C 0.66355 0.80573 0.85578 0.0
C1415 C 0.66117 0.77449 0.86653 0.0
C1416 C 0.65071 0.83568 0.86508 0.0
C1417 C 0.64723 0.77339 0.88692 0.0
C1418 C 0.63392 0.8029 0.89614 0.0
C1419 C 0.61857 0.86303 0.89338 0.0
C1420 C 0.61898 0.89394 0.88217 0.0
C1421 C 0.63478 0.834 0.88514 0.0
C1422 C 0.63595 0.89576 0.86268 0.0
C1423 C 0.65188 0.86692 0.85423 0.0
H1424 H 0.48337 0.4188 0.14412 0.0
H1425 H 0.43914 0.45221 0.08535 0.0
H1426 H 0.38339 0.42966 0.09607 0.0
H1427 H 0.35045 0.39158 0.11941 0.0
H1428 H 0.39686 0.35271 0.17623 0.0
H1429 H 0.44843 0.3862 0.16935 0.0
C1430 C 0.46108 0.4223 0.13414 0.0
C1431 C 0.46482 0.4375 0.11421 0.0
C1432 C 0.42975 0.40762 0.13995 0.0
C1433 C 0.43636 0.44103 0.10093 0.0
C1434 C 0.40471 0.42778 0.10695 0.0
C1435 C 0.37163 0.39129 0.13047 0.0
C1436 C 0.36979 0.37067 0.14856 0.0
C1437 C 0.40154 0.40966 0.12598 0.0
C1438 C 0.39752 0.36941 0.16258 0.0
C1439 C 0.42706 0.38827 0.15853 0.0
H1440 H 0.84693 0.10198 0.37007 0.0
H1441 H 0.88784 0.14605 0.427 0.0
H1442 H 0.86343 0.20154 0.41773 0.0
H1443 H 0.83876 0.23935 0.39051 0.0
H1444 H 0.80375 0.19645 0.33175 0.0
H1445 H 0.81736 0.13877 0.34437 0.0
C1446 C 0.84947 0.1236 0.38067 0.0
C1447 C 0.86797 0.11985 0.39952 0.0
C1448 C 0.83697 0.15576 0.37462 0.0
C1449 C 0.87232 0.14811 0.41289 0.0
C1450 C 0.8589 0.17996 0.40738 0.0
C1451 C 0.83334 0.21715 0.38081 0.0
C1452 C 0.82016 0.22165 0.36039 0.0
C1453 C 0.84229 0.18435 0.38793 0.0
C1454 C 0.81372 0.19316 0.3476 0.0
C1455 C 0.82162 0.16034 0.35478 0.0
H1456 H 0.15289 0.62205 0.61005 0.0
H1457 H 0.11249 0.6602 0.66871 0.0
H1458 H 0.0572 0.63392 0.66115 0.0
H1459 H 0.01869 0.60528 0.63609 0.0
H1460 H 0.05678 0.57354 0.57542 0.0
H1461 H 0.11465 0.5917 0.58534 0.0
C1462 C 0.13206 0.62389 0.62129 0.0
C1463 C 0.13696 0.64158 0.64032 0.0
C1464 C 0.09993 0.61006 0.61633 0.0
C1465 C 0.10962 0.64518 0.65445 0.0
C1466 C 0.07791 0.6306 0.64999 0.0
C1467 C 0.03995 0.60173 0.62532 0.0
C1468 C 0.03404 0.58783 0.60525 0.0
C1469 C 0.0726 0.61351 0.63081 0.0
C1470 C 0.06121 0.58396 0.59105 0.0
C1471 C 0.0941 0.59448 0.59668 0.0
H1472 H 0.65805 0.09438 0.63901 0.0
H1473 H 0.60634 0.1379 0.58529 0.0
H1474 H 0.63212 0.19355 0.59249 0.0
H1475 H 0.66227 0.23148 0.61721 0.0
H1476 H 0.70899 0.18941 0.67304 0.0
H1477 H 0.693 0.13154 0.66192 0.0
C1478 C 0.65327 0.11596 0.62865 0.0
C1479 C 0.63134 0.11202 0.61127 0.0
C1480 C 0.66716 0.14815 0.63341 0.0
C1481 C 0.62425 0.14019 0.59827 0.0
C1482 C 0.63864 0.17207 0.60254 0.0
C1483 C 0.66988 0.20941 0.62648 0.0
C1484 C 0.68713 0.21423 0.64566 0.0
C1485 C 0.6593 0.17657 0.62042 0.0
C1486 C 0.69614 0.18589 0.65802 0.0
C1487 C 0.68672 0.15296 0.65177 0.0
H1488 H 0.1603 0.39608 0.88529 0.0
H1489 H 0.11111 0.3599 0.82871 0.0
H1490 H 0.05888 0.3906 0.83807 0.0
H1491 H 0.02479 0.42038 0.86501 0.0
H1492 H 0.0721 0.45088 0.92344 0.0
H1493 H 0.12764 0.4307 0.91071 0.0
C1494 C 0.13832 0.39574 0.87484 0.0
C1495 C 0.13968 0.37683 0.85605 0.0
C1496 C 0.10806 0.41244 0.88075 0.0
C1497 C 0.11089 0.37544 0.84287 0.0
C1498 C 0.08095 0.39267 0.84833 0.0
C1499 C 0.04762 0.42374 0.87453 0.0
C1500 C 0.04484 0.43756 0.89489 0.0
C1501 C 0.07894 0.41046 0.86752 0.0
C1502 C 0.07408 0.44081 0.90754 0.0
C1503 C 0.10564 0.42893 0.90036 0.0
H1504 H 0.9026 0.86774 0.09692 0.0
H1505 H 0.87477 0.92937 0.1505 0.0
H1506 H 0.84394 0.88106 0.16605 0.0
H1507 H 0.8306 0.81931 0.16602 0.0
H1508 H 0.8554 0.75887 0.11133 0.0
H1509 H 0.88085 0.80885 0.09413 0.0
C1510 C 0.88843 0.87094 0.1115 0.0
C1511 C 0.88994 0.90218 0.12229 0.0
C1512 C 0.87054 0.84319 0.12018 0.0
C1513 C 0.87324 0.9056 0.14178 0.0
C1514 C 0.85577 0.87801 0.15069 0.0
C1515 C 0.84079 0.81752 0.15012 0.0
C1516 C 0.8413 0.78582 0.13985 0.0
C1517 C 0.85502 0.84641 0.14029 0.0
C1518 C 0.85464 0.78332 0.11934 0.0
C1519 C 0.86939 0.81174 0.10961 0.0
H1520 H 0.44025 0.57704 0.41568 0.0
H1521 H 0.49577 0.60668 0.35989 0.0
H1522 H 0.44328 0.62926 0.34403 0.0
H1523 H 0.38353 0.64777 0.34853 0.0
H1524 H 0.32725 0.61576 0.40351 0.0
H1525 H 0.37804 0.58694 0.41741 0.0
C1526 C 0.44045 0.58749 0.39979 0.0
C1527 C 0.47144 0.59016 0.38882 0.0
C1528 C 0.41022 0.60031 0.39083 0.0
C1529 C 0.47189 0.60406 0.36839 0.0
C1530 C 0.44203 0.61726 0.35945 0.0
C1531 C 0.38207 0.63313 0.36306 0.0
C1532 C 0.3516 0.6329 0.37472 0.0
C1533 C 0.41127 0.61646 0.37081 0.0
C1534 C 0.3504 0.6156 0.39413 0.0
C1535 C 0.3794 0.59926 0.40209 0.0
H1536 H 0.42011 0.11453 0.14357 0.0
H1537 H 0.35382 0.09577 0.09057 0.0
H1538 H 0.31924 0.14586 0.09986 0.0
H1539 H 0.31144 0.19812 0.12127 0.0
H1540 H 0.37989 0.21739 0.17344 0.0
H1541 H 0.41017 0.16438 0.16621 0.0
C1542 C 0.39797 0.12148 0.13417 0.0
C1543 C 0.39007 0.10262 0.11603 0.0
C1544 C 0.3788 0.15056 0.13938 0.0
C1545 C 0.36089 0.11092 0.10421 0.0
C1546 C 0.34107 0.13935 0.1096 0.0
C1547 C 0.33267 0.19045 0.13121 0.0
C1548 C 0.34346 0.21181 0.14779 0.0
C1549 C 0.35037 0.15997 0.12682 0.0
C1550 C 0.37114 0.20157 0.16048 0.0
C1551 C 0.3885 0.17119 0.15641 0.0
H1552 H 0.53304 0.60272 0.91281 0.0
H1553 H 0.53933 0.52378 0.86546 0.0
H1554 H 0.59402 0.54709 0.85324 0.0
H1555 H 0.63717 0.59353 0.85396 0.0
H1556 H 0.63061 0.67136 0.90186 0.0
H1557 H 0.57895 0.64473 0.91613 0.0
C1558 C 0.54648 0.59039 0.89992 0.0
C1559 C 0.53194 0.56189 0.88983 0.0
C1560 C 0.5777 0.60391 0.89303 0.0
C1561 C 0.54996 0.54584 0.87343 0.0
C1562 C 0.58119 0.55918 0.86643 0.0
C1563 C 0.62428 0.60447 0.86753 0.0
C1564 C 0.63647 0.63504 0.87639 0.0
C1565 C 0.59479 0.5888 0.87573 0.0
C1566 C 0.62086 0.64832 0.89452 0.0
C1567 C 0.59145 0.6331 0.90267 0.0
H1568 H 0.14008 0.79251 0.66131 0.0
H1569 H 0.21982 0.80072 0.61455 0.0
H1570 H 0.19455 0.85378 0.60131 0.0
H1571 H 0.14729 0.89579 0.60153 0.0
H1572 H 0.06836 0.88748 0.64861 0.0
H1573 H 0.09582 0.83653 0.66335 0.0
C1574 C 0.15218 0.80608 0.64837 0.0
C1575 C 0.18167 0.79258 0.63885 0.0
C1576 C 0.13742 0.83634 0.64078 0.0
C1577 C 0.19715 0.81061 0.62219 0.0
C1578 C 0.18265 0.84089 0.61457 0.0
C1579 C 0.13615 0.88254 0.61492 0.0
C1580 C 0.1052 0.89412 0.6235 0.0
C1581 C 0.15235 0.85356 0.62343 0.0
C1582 C 0.09169 0.87811 0.64146 0.0
C1583 C 0.10742 0.84916 0.6499 0.0
H1584 H 0.95153 0.44488 0.37787 0.0
H1585 H 0.96626 0.37512 0.42993 0.0
H1586 H 0.91343 0.34546 0.42085 0.0
H1587 H 0.86528 0.33634 0.39638 0.0
H1588 H 0.85232 0.40371 0.34317 0.0
H1589 H 0.90152 0.43775 0.35459 0.0
C1590 C 0.94283 0.42359 0.38745 0.0
C1591 C 0.96283 0.41224 0.40454 0.0
C1592 C 0.91273 0.40612 0.38185 0.0
C1593 C 0.95141 0.38433 0.41664 0.0
C1594 C 0.92117 0.36732 0.41147 0.0
C1595 C 0.87328 0.3586 0.38743 0.0
C1596 C 0.85621 0.36699 0.36864 0.0
C1597 C 0.90203 0.37749 0.39384 0.0
C1598 C 0.86598 0.39628 0.35735 0.0
C1599 C 0.89393 0.41581 0.36393 0.0
H1600 H 0.35779 0.78792 0.35042 0.0
H1601 H 0.27765 0.79726 0.3968 0.0
H1602 H 0.30349 0.85006 0.41002 0.0
H1603 H 0.35124 0.89163 0.40983 0.0
H1604 H 0.43022 0.88256 0.36286 0.0
H1605 H 0.40244 0.83168 0.34829 0.0
C1606 C 0.34575 0.80166 0.36329 0.0
C1607 C 0.31596 0.78855 0.3727 0.0
C1608 C 0.36075 0.83187 0.3708 0.0
C1609 C 0.30054 0.80684 0.38924 0.0
C1610 C 0.31537 0.83698 0.39685 0.0
C1611 C 0.3623 0.87824 0.39649 0.0
C1612 C 0.39338 0.88962 0.38792 0.0
C1613 C 0.34587 0.84933 0.38805 0.0
C1614 C 0.4068 0.8734 0.37001 0.0
C1615 C 0.39088 0.84447 0.36167 0.0
H1616 H 0.96771 0.60804 0.09675 0.0
H1617 H 0.95785 0.53146 0.14547 0.0
H1618 H 0.9042 0.55737 0.15712 0.0
H1619 H 0.86308 0.60527 0.15554 0.0
H1620 H 0.87247 0.68068 0.10629 0.0
H1621 H 0.92325 0.65163 0.09255 0.0
C1622 C 0.95365 0.59678 0.10978 0.0
C1623 C 0.96693 0.56817 0.12042 0.0
C1624 C 0.92293 0.61178 0.11636 0.0
C1625 C 0.94818 0.55355 0.13705 0.0
C1626 C 0.91754 0.56837 0.14374 0.0
C1627 C 0.87638 0.61515 0.14179 0.0
C1628 C 0.86534 0.64569 0.13238 0.0
C1629 C 0.90522 0.59807 0.1339 0.0
C1630 C 0.88142 0.65765 0.11403 0.0
C1631 C 0.91029 0.64104 0.1062 0.0
H1632 H 0.19995 0.20724 0.88035 0.0
H1633 H 0.13012 0.22488 0.82865 0.0
H1634 H 0.09995 0.17215 0.83692 0.0
H1635 H 0.09066 0.12288 0.86023 0.0
H1636 H 0.15817 0.10579 0.91287 0.0
H1637 H 0.19244 0.1557 0.90266 0.0
C1638 C 0.17846 0.19924 0.87073 0.0
C1639 C 0.16728 0.22008 0.85395 0.0
C1640 C 0.16074 0.16895 0.87577 0.0
C1641 C 0.13919 0.20947 0.84173 0.0
C1642 C 0.12188 0.17925 0.84642 0.0
C1643 C 0.11297 0.13017 0.86937 0.0
C1644 C 0.12133 0.11176 0.88765 0.0
C1645 C 0.13199 0.15914 0.86362 0.0
C1646 C 0.15073 0.12054 0.89912 0.0
C1647 C 0.17039 0.14888 0.89321 0.0
H1648 H 0.54189 0.38749 0.59431 0.0
H1649 H 0.54455 0.46516 0.64263 0.0
H1650 H 0.59579 0.43916 0.65784 0.0
H1651 H 0.63889 0.39302 0.65806 0.0
H1652 H 0.63699 0.31668 0.60913 0.0
H1653 H 0.58643 0.34346 0.5934 0.0
C1654 C 0.55384 0.39894 0.60805 0.0
C1655 C 0.5394 0.42821 0.61732 0.0
C1656 C 0.58324 0.38388 0.61669 0.0
C1657 C 0.55526 0.44275 0.6351 0.0
C1658 C 0.58449 0.42783 0.64386 0.0
C1659 C 0.62703 0.38219 0.64409 0.0
C1660 C 0.64045 0.35224 0.63517 0.0
C1661 C 0.59843 0.39814 0.63496 0.0
C1662 C 0.62621 0.3392 0.61652 0.0
C1663 C 0.5975 0.35457 0.60751 0.0
H1664 H 0.2941 0.29676 0.24058 0.0
H1665 H 0.22268 0.25116 0.19703 0.0
H1666 H 0.19896 0.21625 0.22561 0.0
H1667 H 0.19725 0.20046 0.26322 0.0
H1668 H 0.2712 0.24348 0.30624 0.0
H1669 H 0.29592 0.27703 0.27745 0.0
C1670 C 0.27335 0.2792 0.23735 0.0
C1671 C 0.25979 0.27686 0.21683 0.0
C1672 C 0.26062 0.25851 0.25369 0.0
C1673 C 0.23335 0.25352 0.21277 0.0
C1674 C 0.21985 0.23354 0.22907 0.0
C1675 C 0.21906 0.21687 0.26623 0.0
C1676 C 0.23227 0.21963 0.28685 0.0
C1677 C 0.23317 0.23599 0.24961 0.0
C1678 C 0.26072 0.24071 0.29048 0.0
C1679 C 0.27464 0.26016 0.27407 0.0
H1680 H 0.03722 0.95084 0.51673 0.0
H1681 H 0.00391 0.0329 0.5573 0.0
H1682 H 0.96776 0.05523 0.529 0.0
H1683 H 0.94323 0.04967 0.49332 0.0
H1684 H 0.97919 0.96988 0.45204 0.0
H1685 H 0.01625 0.94805 0.48014 0.0
C1686 C 0.02237 0.97386 0.51931 0.0
C1687 C 0.0232 0.99006 0.53916 0.0
C1688 C 1.00163 0.98659 0.50296 0.0
C1689 C 0.004 0.02003 0.54215 0.0
C1690 C 0.98302 0.03264 0.52604 0.0
C1691 C 0.95906 0.02743 0.49053 0.0
C1692 C 0.9581 0.01106 0.47077 0.0
C1693 C 0.98114 0.01575 0.50652 0.0
C1694 C 0.97933 0.98272 0.4672 0.0
C1695 C 1.00058 0.97032 0.48323 0.0
H1696 H 0.2119 0.69636 0.73679 0.0
H1697 H 0.28914 0.74367 0.698 0.0
H1698 H 0.31086 0.77471 0.72881 0.0
H1699 H 0.30845 0.78744 0.76694 0.0
H1700 H 0.22789 0.74398 0.80489 0.0
H1701 H 0.20628 0.71298 0.77407 0.0
C1702 C 0.23344 0.71348 0.73502 0.0
C1703 C 0.24911 0.71739 0.71513 0.0
C1704 C 0.24491 0.73218 0.75261 0.0
C1705 C 0.27675 0.74007 0.71314 0.0
C1706 C 0.28911 0.75786 0.73074 0.0
C1707 C 0.28594 0.77144 0.7684 0.0
C1708 C 0.26985 0.7679 0.78821 0.0
C1709 C 0.27342 0.75407 0.75056 0.0
C1710 C 0.24056 0.74734 0.78982 0.0
C1711 C 0.22839 0.72938 0.77224 0.0
H1712 H 0.46309 0.0473 0.01482 0.0
H1713 H 0.51285 0.97196 0.05396 0.0
H1714 H 0.5447 0.95108 0.02321 0.0
H1715 H 0.56016 0.95615 0.98539 0.0
H1716 H 0.50761 0.02979 0.94634 0.0
H1717 H 0.47544 0.04976 0.97697 0.0
C1718 C 0.48071 0.0261 0.01663 0.0
C1719 C 0.48571 0.01132 0.03671 0.0
C1720 C 0.49877 0.01426 0.99894 0.0
C1721 C 0.50835 0.98364 0.03869 0.0
C1722 C 0.52678 0.97191 0.02114 0.0
C1723 C 0.54173 0.97662 0.98361 0.0
C1724 C 0.53656 0.99171 0.96362 0.0
C1725 C 0.52258 0.98739 1.00124 0.0
C1726 C 0.51216 0.01782 0.96153 0.0
C1727 C 0.49371 0.02922 0.97904 0.0
H1728 H 0.28953 0.69509 0.27355 0.0
H1729 H 0.21147 0.74324 0.31122 0.0
H1730 H 0.19197 0.77547 0.28031 0.0
H1731 H 0.19631 0.78896 0.24242 0.0
H1732 H 0.27716 0.7443 0.20534 0.0
H1733 H 0.29696 0.71234 0.23631 0.0
C1734 C 0.26826 0.71262 0.27501 0.0
C1735 C 0.25171 0.71644 0.29464 0.0
C1736 C 0.25797 0.73196 0.25733 0.0
C1737 C 0.22452 0.7397 0.29629 0.0
C1738 C 0.21341 0.75818 0.27863 0.0
C1739 C 0.2185 0.7725 0.24116 0.0
C1740 C 0.23516 0.76894 0.22155 0.0
C1741 C 0.22989 0.75446 0.25907 0.0
C1742 C 0.26404 0.74773 0.22025 0.0
C1743 C 0.27517 0.7292 0.23792 0.0
H1744 H 0.45927 0.94523 0.49534 0.0
H1745 H 0.49488 0.02683 0.45503 0.0
H1746 H 0.53097 0.04832 0.48355 0.0
H1747 H 0.5552 0.04178 0.51913 0.0
H1748 H 0.51708 0.96276 0.56038 0.0
H1749 H 0.47959 0.94201 0.53217 0.0
C1750 C 0.47458 0.968 0.49289 0.0
C1751 C 0.47445 0.98427 0.47301 0.0
C1752 C 0.49529 0.98028 0.50939 0.0
C1753 C 0.49424 0.01391 0.47018 0.0
C1754 C 0.51519 0.02603 0.48642 0.0
C1755 C 0.53872 0.02003 0.52196 0.0
C1756 C 0.53929 0.00353 0.54173 0.0
C1757 C 0.51645 0.009 0.50593 0.0
C1758 C 0.51728 0.97574 0.54525 0.0
C1759 C 0.49579 0.96394 0.52915 0.0
H1760 H 0.21035 0.25516 0.77812 0.0
H1761 H 0.29308 0.32752 0.78204 0.0
H1762 H 0.32097 0.30075 0.75167 0.0
H1763 H 0.32095 0.25814 0.72354 0.0
H1764 H 0.23606 0.1887 0.71701 0.0
H1765 H 0.2096 0.21296 0.74881 0.0
C1766 C 0.23462 0.26472 0.77232 0.0
C1767 C 0.25003 0.29289 0.78226 0.0
C1768 C 0.24987 0.24989 0.7544 0.0
C1769 C 0.28104 0.30572 0.77456 0.0
C1770 C 0.2969 0.29047 0.75724 0.0
C1771 C 0.29679 0.24806 0.72917 0.0
C1772 C 0.28064 0.22141 0.71811 0.0
C1773 C 0.28144 0.26271 0.74698 0.0
C1774 C 0.24898 0.20917 0.72531 0.0
C1775 C 0.23391 0.223 0.74348 0.0
H1776 H 0.04851 0.05612 0.98972 0.0
H1777 H 0.99913 0.98112 0.95023 0.0
H1778 H 0.96765 0.95932 0.98088 0.0
H1779 H 0.95247 0.96331 0.01877 0.0
H1780 H 0.00493 0.03617 0.05831 0.0
H1781 H 0.0366 0.05734 0.02773 0.0
C1782 C 0.03105 0.03482 0.98782 0.0
C1783 C 0.02606 0.02039 0.96766 0.0
C1784 C 0.01329 0.02231 0.0055 0.0
C1785 C 0.00361 0.99256 0.96556 0.0
C1786 C 0.9854 0.98028 0.98306 0.0
C1787 C 0.9708 0.98384 0.02067 0.0
C1788 C 0.97607 0.99838 0.04078 0.0
C1789 C 0.98969 0.99527 1.00307 0.0
C1790 C 1.00033 0.0246 0.04302 0.0
C1791 C 0.01847 0.03671 0.02554 0.0
H1792 H 0.74193 0.75188 0.71598 0.0
H1793 H 0.79695 0.8283 0.75159 0.0
H1794 H 0.78301 0.79912 0.78439 0.0
H1795 H 0.75325 0.75317 0.80344 0.0
H1796 H 0.69446 0.67936 0.76839 0.0
H1797 H 0.71223 0.70571 0.73509 0.0
C1798 C 0.7509 0.76214 0.7309 0.0
C1799 C 0.77038 0.79239 0.73117 0.0
C1800 C 0.74235 0.74547 0.74992 0.0
C1801 C 0.78168 0.80526 0.75076 0.0
C1802 C 0.77388 0.78848 0.76962 0.0
C1803 C 0.74495 0.74252 0.78847 0.0
C1804 C 0.72301 0.71415 0.78831 0.0
C1805 C 0.75411 0.75867 0.76943 0.0
C1806 C 0.71162 0.70107 0.76886 0.0
C1807 C 0.7216 0.71624 0.74983 0.0
H1808 H 0.70793 0.25122 0.21863 0.0
H1809 H 0.78829 0.17603 0.21961 0.0
H1810 H 0.81129 0.20093 0.25212 0.0
H1811 H 0.80834 0.24365 0.28028 0.0
H1812 H 0.7253 0.31589 0.28169 0.0
H1813 H 0.70314 0.29248 0.24836 0.0
C1814 C 0.73059 0.24057 0.22599 0.0
C1815 C 0.74683 0.21223 0.21671 0.0
C1816 C 0.74292 0.25432 0.2451 0.0
C1817 C 0.77565 0.19799 0.22649 0.0
C1818 C 0.78872 0.21218 0.24504 0.0
C1819 C 0.78542 0.25435 0.27325 0.0
C1820 C 0.76866 0.28171 0.28326 0.0
C1821 C 0.77255 0.24028 0.25449 0.0
C1822 C 0.73861 0.29485 0.27425 0.0
C1823 C 0.72607 0.28154 0.25518 0.0
H1824 H 0.79905 0.20725 0.77207 0.0
H1825 H 0.71793 0.24675 0.81104 0.0
H1826 H 0.69521 0.27881 0.78092 0.0
H1827 H 0.69738 0.29407 0.74317 0.0
H1828 H 0.78097 0.25797 0.70485 0.0
H1829 H 0.80422 0.22679 0.73513 0.0
C1830 C 0.77642 0.22287 0.77395 0.0
C1831 C 0.75991 0.22427 0.79368 0.0
C1832 C 0.76416 0.24212 0.75673 0.0
C1833 C 0.73096 0.24514 0.79598 0.0
C1834 C 0.718 0.2635 0.77877 0.0
C1835 C 0.72092 0.27971 0.74152 0.0
C1836 C 0.73734 0.27827 0.72173 0.0
C1837 C 0.73429 0.26205 0.75904 0.0
C1838 C 0.76796 0.25976 0.71991 0.0
C1839 C 0.7811 0.24164 0.73718 0.0
H1840 H 0.7623 0.76392 0.29257 0.0
H1841 H 0.70547 0.83973 0.2575 0.0
H1842 H 0.71955 0.81122 0.22452 0.0
H1843 H 0.74981 0.76595 0.20516 0.0
H1844 H 0.81036 0.6929 0.23974 0.0
H1845 H 0.79265 0.71862 0.27318 0.0
C1846 C 0.75297 0.7742 0.27773 0.0
C1847 C 0.73291 0.80405 0.27766 0.0
C1848 C 0.76161 0.75794 0.25862 0.0
C1849 C 0.72117 0.81697 0.25817 0.0
C1850 C 0.72906 0.80058 0.23921 0.0
C1851 C 0.75855 0.75535 0.22006 0.0
C1852 C 0.78096 0.72735 0.22004 0.0
C1853 C 0.74937 0.77115 0.2392 0.0
C1854 C 0.79287 0.71433 0.2394 0.0
C1855 C 0.7829 0.72914 0.25852 0.0
H1856 H 0.54422 0.45056 0.01805 0.0
H1857 H 0.50789 0.53441 0.05608 0.0
H1858 H 0.47382 0.55532 0.02632 0.0
H1859 H 0.45117 0.54726 0.99017 0.0
H1860 H 0.48976 0.46466 0.95194 0.0
H1861 H 0.5257 0.44547 0.9812 0.0
C1862 C 0.52923 0.47371 0.01975 0.0
C1863 C 0.52849 0.49079 0.03931 0.0
C1864 C 0.50959 0.48542 1.00264 0.0
C1865 C 0.50916 0.52091 0.04117 0.0
C1866 C 0.48935 0.53265 0.02422 0.0
C1867 C 0.46741 0.52504 0.98829 0.0
C1868 C 0.46744 0.5071 0.96902 0.0
C1869 C 0.48874 0.51465 0.00503 0.0
C1870 C 0.48914 0.47876 0.96666 0.0
C1871 C 0.50975 0.46782 0.98335 0.0
H1872 H 0.99801 0.50709 0.46176 0.0
H1873 H 0.08208 0.46451 0.49735 0.0
H1874 H 0.05371 0.47902 0.53027 0.0
H1875 H 0.00581 0.50505 0.54933 0.0
H1876 H 0.92427 0.55269 0.51439 0.0
H1877 H 0.95037 0.53452 0.481 0.0
C1878 C 0.01016 0.50105 0.4767 0.0
C1879 C 0.04223 0.48465 0.47691 0.0
C1880 C 0.9939 0.51001 0.49579 0.0
C1881 C 0.05756 0.47722 0.49653 0.0
C1882 C 0.04125 0.48535 0.51547 0.0
C1883 C 0.99345 0.51078 0.53439 0.0
C1884 C 0.96282 0.52943 0.53425 0.0
C1885 C 0.00944 0.5017 0.51532 0.0
C1886 C 0.94761 0.53784 0.51482 0.0
C1887 C 0.96267 0.52769 0.49576 0.0
H1888 H 0.05579 0.54376 0.02351 0.0
H1889 H 0.01385 0.46196 0.06111 0.0
H1890 H 0.9807 0.44199 0.03075 0.0
H1891 H 0.96524 0.44666 0.99322 0.0
H1892 H 0.00414 0.5306 0.95612 0.0
H1893 H 0.03617 0.55147 0.98673 0.0
C1894 C 0.03943 0.52155 0.02502 0.0
C1895 C 0.03763 0.50403 0.04442 0.0
C1896 C 0.01961 0.5109 0.00768 0.0
C1897 C 0.0158 0.4757 0.04629 0.0
C1898 C 0.99681 0.46434 0.02896 0.0
C1899 C 0.98039 0.46978 0.99191 0.0
C1900 C 0.98241 0.48697 0.9724 0.0
C1901 C 0.99864 0.48164 0.00956 0.0
C1902 C 1.00191 0.51705 0.97099 0.0
C1903 C 0.02052 0.52879 0.98844 0.0
H1904 H 0.54593 0.56695 0.49001 0.0
H1905 H 0.50379 0.49023 0.44858 0.0
H1906 H 0.47168 0.46576 0.47802 0.0
H1907 H 0.45354 0.46769 0.51509 0.0
H1908 H 0.49928 0.54062 0.55756 0.0
H1909 H 0.53175 0.56534 0.52815 0.0
C1910 C 0.52999 0.54465 0.4875 0.0
C1911 C 0.5272 0.53051 0.46708 0.0
C1912 C 0.51195 0.53032 0.50463 0.0
C1913 C 0.50664 0.50146 0.46413 0.0
C1914 C 0.48803 0.48761 0.48093 0.0
C1915 C 0.47067 0.4889 0.51798 0.0
C1916 C 0.47368 0.5025 0.53849 0.0
C1917 C 0.49013 0.5021 0.50117 0.0
C1918 C 0.49639 0.52976 0.54192 0.0
C1919 C 0.51497 0.54387 0.52511 0.0
H1920 H 0.32312 0.15163 0.37187 0.0
H1921 H 0.25175 0.07297 0.3533 0.0
H1922 H 0.28904 0.02931 0.36772 0.0
H1923 H 0.3409 0.01293 0.38629 0.0
H1924 H 0.41622 0.08894 0.40205 0.0
H1925 H 0.37856 0.13416 0.38822 0.0
C1926 C 0.316 0.12491 0.37084 0.0
C1927 C 0.2846 0.11568 0.36155 0.0
C1928 C 0.33808 0.09947 0.37887 0.0
C1929 C 0.27579 0.0809 0.36022 0.0
C1930 C 0.297 0.0558 0.3686 0.0
C1931 C 0.34895 0.03946 0.38683 0.0
C1932 C 0.38079 0.04784 0.39554 0.0
C1933 C 0.32795 0.06479 0.37814 0.0
C1934 C 0.39152 0.08208 0.3956 0.0
C1935 C 0.37005 0.10783 0.38766 0.0
H1936 H 0.16163 0.01693 0.62104 0.0
H1937 H 0.08324 0.09289 0.61253 0.0
H1938 H 0.1227 0.13756 0.62501 0.0
H1939 H 0.18053 0.15463 0.63789 0.0
H1940 H 0.25584 0.07595 0.64895 0.0
H1941 H 0.21647 0.03273 0.63616 0.0
C1942 C 0.15323 0.04333 0.62179 0.0
C1943 C 0.11993 0.05185 0.61551 0.0
C1944 C 0.17547 0.06831 0.62962 0.0
C1945 C 0.10897 0.0859 0.61711 0.0
C1946 C 0.13149 0.11134 0.62427 0.0
C1947 C 0.18811 0.12798 0.63764 0.0
C1948 C 0.22117 0.11862 0.64431 0.0
C1949 C 0.16493 0.10283 0.63054 0.0
C1950 C 0.23056 0.08395 0.64402 0.0
C1951 C 0.20813 0.05914 0.63658 0.0
H1952 H 0.17063 0.84419 0.87116 0.0
H1953 H 0.24463 0.91803 0.84918 0.0
H1954 H 0.20984 0.96437 0.86257 0.0
H1955 H 0.15962 0.98458 0.88151 0.0
H1956 H 0.08164 0.91341 0.9005 0.0
H1957 H 0.11658 0.86549 0.88752 0.0
C1958 C 0.17883 0.87044 0.86909 0.0
C1959 C 0.21036 0.87743 0.85922 0.0
C1960 C 0.1582 0.89749 0.87657 0.0
C1961 C 0.22052 0.91168 0.8566 0.0
C1962 C 0.20074 0.93836 0.86439 0.0
C1963 C 0.15043 0.95851 0.88292 0.0
C1964 C 0.11865 0.95226 0.89233 0.0
C1965 C 0.16985 0.93158 0.87464 0.0
C1966 C 0.10636 0.91861 0.89352 0.0
C1967 C 0.12627 0.89132 0.88605 0.0
H1968 H 0.33663 0.83922 0.13649 0.0
H1969 H 0.26708 0.91659 0.15922 0.0
H1970 H 0.30329 0.96113 0.14486 0.0
H1971 H 0.3533 0.97879 0.12472 0.0
H1972 H 0.42702 0.90398 0.10477 0.0
H1973 H 0.39076 0.85786 0.11894 0.0
C1974 C 0.32973 0.86583 0.13852 0.0
C1975 C 0.29898 0.87436 0.14887 0.0
C1976 C 0.35118 0.89183 0.13044 0.0
C1977 C 0.29052 0.90907 0.15143 0.0
C1978 C 0.31113 0.93472 0.14308 0.0
C1979 C 0.36128 0.95232 0.12338 0.0
C1980 C 0.3922 0.94453 0.11333 0.0
C1981 C 0.34116 0.92642 0.1323 0.0
C1982 C 0.40297 0.91037 0.11222 0.0
C1983 C 0.3823 0.88411 0.12038 0.0
H1984 H 0.72813 0.87182 0.62598 0.0
H1985 H 0.70314 0.90838 0.68831 0.0
H1986 H 0.6596 0.9462 0.6734 0.0
H1987 H 0.6328 0.97313 0.64241 0.0
H1988 H 0.66191 0.94063 0.57987 0.0
H1989 H 0.69932 0.89694 0.595 0.0
C1990 C 0.71257 0.8875 0.63632 0.0
C1991 C 0.71865 0.8871 0.65824 0.0
C1992 C 0.68853 0.91023 0.62753 0.0
C1993 C 0.69887 0.90816 0.6714 0.0
C1994 C 0.67405 0.92988 0.66287 0.0
C1995 C 0.64679 0.956 0.63209 0.0
C1996 C 0.64441 0.96005 0.61003 0.0
C1997 C 0.66923 0.93176 0.64092 0.0
C1998 C 0.66327 0.93807 0.5969 0.0
C1999 C 0.68473 0.91312 0.60555 0.0
H2000 H 0.86891 0.98543 0.36733 0.0
H2001 H 0.84662 0.94423 0.429 0.0
H2002 H 0.81001 0.90059 0.41311 0.0
H2003 H 0.77923 0.87836 0.38212 0.0
H2004 H 0.79709 0.9234 0.32091 0.0
H2005 H 0.84062 0.96095 0.33603 0.0
C2006 C 0.85669 0.96635 0.37721 0.0
C2007 C 0.86063 0.9679 0.39929 0.0
C2008 C 0.83452 0.94221 0.36802 0.0
C2009 C 0.84402 0.9435 0.41196 0.0
C2010 C 0.82298 0.91863 0.40288 0.0
C2011 C 0.79323 0.89584 0.37202 0.0
C2012 C 0.78502 0.89798 0.3504 0.0
C2013 C 0.8173 0.91831 0.38099 0.0
C2014 C 0.80291 0.92127 0.33759 0.0
C2015 C 0.82775 0.94282 0.34625 0.0
H2016 H 0.81614 0.10853 0.16681 0.0
H2017 H 0.77503 0.14648 0.10813 0.0
H2018 H 0.81624 0.11222 0.08827 0.0
H2019 H 0.85953 0.06626 0.08773 0.0
H2020 H 0.90291 0.03121 0.14657 0.0
H2021 H 0.86578 0.06984 0.16619 0.0
C2022 C 0.8168 0.10981 0.14969 0.0
C2023 C 0.79259 0.12978 0.13892 0.0
C2024 C 0.84083 0.09039 0.1384 0.0
C2025 C 0.79366 0.13145 0.11675 0.0
C2026 C 0.81702 0.11165 0.10539 0.0
C2027 C 0.86133 0.06768 0.10481 0.0
C2028 C 0.88377 0.04575 0.11566 0.0
C2029 C 0.84009 0.09028 0.11605 0.0
C2030 C 0.88602 0.04797 0.1378 0.0
C2031 C 0.86457 0.06986 0.14908 0.0
H2032 H 0.65086 0.06021 0.91724 0.0
H2033 H 0.61078 0.02529 0.85755 0.0
H2034 H 0.64673 0.06625 0.83877 0.0
H2035 H 0.69399 0.10791 0.83917 0.0
H2036 H 0.73152 0.14538 0.8989 0.0
H2037 H 0.69197 0.10799 0.91775 0.0
C2038 C 0.64959 0.06206 0.90015 0.0
C2039 C 0.62837 0.03965 0.88881 0.0
C2040 C 0.67004 0.08601 0.88943 0.0
C2041 C 0.62675 0.04243 0.86667 0.0
C2042 C 0.6475 0.06567 0.85589 0.0
C2043 C 0.69299 0.10831 0.8563 0.0
C2044 C 0.71575 0.12921 0.86761 0.0
C2045 C 0.66987 0.08701 0.86707 0.0
C2046 C 0.71409 0.12969 0.88981 0.0
C2047 C 0.69166 0.1081 0.90062 0.0
H2048 H 0.76595 0.58903 0.87534 0.0
H2049 H 0.83406 0.6708 0.85814 0.0
H2050 H 0.88307 0.63764 0.87137 0.0
H2051 H 0.90623 0.58434 0.88779 0.0
H2052 H 0.83507 0.50643 0.90797 0.0
H2053 H 0.78778 0.53924 0.89398 0.0
C2054 C 0.7916 0.59943 0.87432 0.0
C2055 C 0.79666 0.63181 0.86539 0.0
C2056 C 0.8191 0.58102 0.88276 0.0
C2057 C 0.82977 0.64561 0.86473 0.0
C2058 C 0.85769 0.62672 0.87237 0.0
C2059 C 0.88034 0.57483 0.88931 0.0
C2060 C 0.87441 0.54284 0.89889 0.0
C2061 C 0.85267 0.5943 0.88148 0.0
C2062 C 0.8406 0.53096 0.90079 0.0
C2063 C 0.81337 0.5496 0.89265 0.0
H2064 H 0.73884 0.59686 0.13894 0.0
H2065 H 0.66889 0.68048 0.14786 0.0
H2066 H 0.62137 0.64456 0.13532 0.0
H2067 H 0.60017 0.58854 0.1215 0.0
H2068 H 0.6735 0.50837 0.10961 0.0
H2069 H 0.71911 0.54379 0.12336 0.0
C2070 C 0.7131 0.60713 0.13836 0.0
C2071 C 0.70713 0.64091 0.1447 0.0
C2072 C 0.68655 0.58698 0.13033 0.0
C2073 C 0.67392 0.65431 0.14326 0.0
C2074 C 0.64685 0.63382 0.13603 0.0
C2075 C 0.62618 0.57906 0.1218 0.0
C2076 C 0.63328 0.5458 0.11451 0.0
C2077 C 0.65289 0.60004 0.12941 0.0
C2078 C 0.66719 0.5339 0.11492 0.0
C2079 C 0.6934 0.55406 0.12294 0.0
H2080 H 0.73576 0.41463 0.37206 0.0
H2081 H 0.65924 0.34498 0.34903 0.0
H2082 H 0.61387 0.3826 0.36254 0.0
H2083 H 0.59645 0.4364 0.38061 0.0
H2084 H 0.67486 0.50207 0.40631 0.0
H2085 H 0.71887 0.46467 0.39247 0.0
C2086 C 0.7091 0.40789 0.36987 0.0
C2087 C 0.70063 0.3777 0.35918 0.0
C2088 C 0.68352 0.42874 0.37842 0.0
C2089 C 0.66616 0.36848 0.35698 0.0
C2090 C 0.64033 0.38989 0.36478 0.0
C2091 C 0.62315 0.44223 0.38338 0.0
C2092 C 0.63221 0.47219 0.39439 0.0
C2093 C 0.64871 0.42019 0.37555 0.0
C2094 C 0.66699 0.47926 0.39793 0.0
C2095 C 0.69232 0.45799 0.38989 0.0
H2096 H 0.84333 0.4908 0.62446 0.0
H2097 H 0.92217 0.41937 0.6073 0.0
H2098 H 0.88716 0.37182 0.62076 0.0
H2099 H 0.83284 0.35087 0.63696 0.0
H2100 H 0.75756 0.42502 0.6566 0.0
H2101 H 0.79259 0.47105 0.64293 0.0
C2102 C 0.85276 0.46476 0.62354 0.0
C2103 C 0.88484 0.45838 0.61454 0.0
C2104 C 0.8332 0.43805 0.63197 0.0
C2105 C 0.89729 0.42474 0.61399 0.0
C2106 C 0.87732 0.39764 0.62172 0.0
C2107 C 0.82438 0.37713 0.63843 0.0
C2108 C 0.79246 0.38431 0.64774 0.0
C2109 C 0.84508 0.40399 0.63074 0.0
C2110 C 0.78196 0.41856 0.6496 0.0
C2111 C 0.80189 0.44505 0.64166 0.0
H2112 H 0.15767 0.43813 0.09059 0.0
H2113 H 0.10817 0.46529 0.14912 0.0
H2114 H 0.14394 0.42471 0.16824 0.0
H2115 H 0.19386 0.38652 0.16899 0.0
H2116 H 0.24203 0.35744 0.11046 0.0
H2117 H 0.20201 0.39329 0.09072 0.0
C2118 C 0.15428 0.43468 0.10746 0.0
C2119 C 0.13046 0.45501 0.11839 0.0
C2120 C 0.1749 0.4111 0.11842 0.0
C2121 C 0.12619 0.44998 0.14025 0.0
C2122 C 0.14684 0.42691 0.15126 0.0
C2123 C 0.19513 0.38753 0.15187 0.0
C2124 C 0.22102 0.36956 0.14122 0.0
C2125 C 0.17194 0.40808 0.14061 0.0
C2126 C 0.22222 0.37087 0.11903 0.0
C2127 C 0.19951 0.3916 0.10774 0.0
H2128 H 0.38407 0.45665 0.87093 0.0
H2129 H 0.33943 0.4437 0.93273 0.0
H2130 H 0.30008 0.40089 0.91871 0.0
H2131 H 0.27322 0.37279 0.88792 0.0
H2132 H 0.31497 0.38999 0.82584 0.0
H2133 H 0.36072 0.42482 0.84088 0.0
C2134 C 0.36633 0.44387 0.88146 0.0
C2135 C 0.36472 0.45353 0.90285 0.0
C2136 C 0.34294 0.42009 0.87315 0.0
C2137 C 0.34118 0.43692 0.91617 0.0
C2138 C 0.31855 0.41246 0.90815 0.0
C2139 C 0.29296 0.38339 0.87783 0.0
C2140 C 0.29092 0.37872 0.85584 0.0
C2141 C 0.31844 0.40462 0.88653 0.0
C2142 C 0.31615 0.3932 0.84283 0.0
C2143 C 0.3422 0.41326 0.85141 0.0
H2144 H 0.35067 0.55957 0.58538 0.0
H2145 H 0.39131 0.51901 0.6436 0.0
H2146 H 0.35495 0.55747 0.66392 0.0
H2147 H 0.3082 0.59965 0.66525 0.0
H2148 H 0.27019 0.643 0.60714 0.0
H2149 H 0.30897 0.6069 0.5868 0.0
C2150 C 0.35188 0.55953 0.60251 0.0
C2151 C 0.37359 0.53631 0.61292 0.0
C2152 C 0.33121 0.58217 0.61417 0.0
C2153 C 0.37503 0.53674 0.63514 0.0
C2154 C 0.35405 0.5586 0.64681 0.0
C2155 C 0.3088 0.60152 0.64815 0.0
C2156 C 0.28623 0.6239 0.63775 0.0
C2157 C 0.33157 0.581 0.63651 0.0
C2158 C 0.28746 0.62619 0.61558 0.0
C2159 C 0.30948 0.60536 0.6039 0.0
H2160 H 0.14408 0.55543 0.42295 0.0
H2161 H 0.10901 0.50922 0.36508 0.0
H2162 H 0.14297 0.54988 0.34449 0.0
H2163 H 0.18738 0.59491 0.34315 0.0
H2164 H 0.21934 0.64333 0.40111 0.0
H2165 H 0.18164 0.60599 0.42132 0.0
C2166 C 0.14337 0.55475 0.40582 0.0
C2167 C 0.12416 0.52927 0.39556 0.0
C2168 C 0.16261 0.57852 0.39406 0.0
C2169 C 0.12335 0.52876 0.37335 0.0
C2170 C 0.143 0.55184 0.36157 0.0
C2171 C 0.18556 0.59772 0.36016 0.0
C2172 C 0.20637 0.62184 0.37056 0.0
C2173 C 0.16341 0.57633 0.37176 0.0
C2174 C 0.20353 0.62523 0.39262 0.0
C2175 C 0.18213 0.60365 0.40426 0.0
loop_
_geom_bond_atom_site_label_1
_geom_bond_atom_site_label_2
_geom_bond_distance
_geom_bond_site_symmetry_2
_ccdc_geom_bond_type
Mn0 O5 2.095 . S
Mn0 O15 2.162 . S
Mn0 O16 2.297 . S
Mn0 O24 2.385 . S
Mn0 O25 2.209 . S
Mn0 O26 2.094 . S
Mn1 O6 2.121 . S
Mn1 N8 2.257 . S
Mn1 N17 2.282 . S
Mn1 O25 2.215 . S
Mn1 O27 2.117 . S
C2 O24 1.234 . S
C2 O25 1.283 . S
C3 O15 1.281 . S
C3 O16 1.236 . S
C4 O26 1.240 . S
C4 O27 1.264 . S
O5 Mn0 2.095 . S
O5 C14 1.250 . S
O6 Mn1 2.121 . S
O6 C14 1.258 . S
C7 N8 1.326 . S
C7 C11 1.460 . S
C7 H13 0.929 . S
N8 Mn1 2.257 . S
N8 C7 1.326 . S
N8 C12 1.362 . S
C9 C10 1.258 . S
C9 C12 1.431 . S
C9 C29 1.449 . S
C10 C9 1.258 . S
C10 C11 1.477 . S
C10 H30 0.931 . S
C11 C7 1.460 . S
C11 C10 1.477 . S
C11 H31 0.930 . S
C12 N8 1.362 . S
C12 C9 1.431 . S
C12 C22 1.476 . S
H13 C7 0.929 . S
C14 O5 1.250 . S
C14 O6 1.258 . S
O15 Mn0 2.162 . S
O15 C3 1.281 . S
O16 Mn0 2.297 . S
O16 C3 1.236 . S
N17 Mn1 2.282 . S
N17 C18 1.328 . S
N17 C22 1.318 . S
C18 N17 1.328 . S
C18 C19 1.457 . S
C18 H23 0.929 . S
C19 C18 1.457 . S
C19 C20 1.291 . S
C19 H32 0.931 . S
C20 C19 1.291 . S
C20 C21 1.373 . S
C20 H33 0.929 . S
C21 C20 1.373 . S
C21 C22 1.396 . S
C21 C28 1.403 . S
C22 C12 1.476 . S
C22 N17 1.318 . S
C22 C21 1.396 . S
H23 C18 0.929 . S
O24 Mn0 2.385 . S
O24 C2 1.234 . S
O25 Mn0 2.209 . S
O25 Mn1 2.215 . S
O25 C2 1.283 . S
O26 Mn0 2.094 . S
O26 C4 1.240 . S
O27 Mn1 2.117 . S
O27 C4 1.264 . S
C28 C21 1.403 . S
C28 C29 1.399 . S
C28 H34 0.929 . S
C29 C9 1.449 . S
C29 C28 1.399 . S
C29 H35 0.930 . S
H30 C10 0.931 . S
H31 C11 0.930 . S
H32 C19 0.931 . S
H33 C20 0.929 . S
H34 C28 0.929 . S
H35 C29 0.930 . S
Mn36 O41 2.095 . S
Mn36 O51 2.162 1_565 S
Mn36 O52 2.297 1_565 S
Mn36 O60 2.385 . S
Mn36 O61 2.209 . S
Mn36 O62 2.096 1_455 S
Mn37 O42 2.121 . S
Mn37 N44 2.257 . S
Mn37 N53 2.282 . S
Mn37 O61 2.215 . S
Mn37 O63 2.117 1_455 S
C38 O60 1.234 . S
C38 O61 1.283 . S
C39 O51 1.281 . S
C39 O52 1.236 . S
C40 O62 1.239 . S
C40 O63 1.264 . S
O41 Mn36 2.095 . S
O41 C50 1.250 . S
O42 Mn37 2.121 . S
O42 C50 1.258 . S
C43 N44 1.326 . S
C43 C47 1.460 . S
C43 H49 0.929 . S
N44 Mn37 2.257 . S
N44 C43 1.326 . S
N44 C48 1.362 . S
C45 C46 1.258 . S
C45 C48 1.431 . S
C45 C65 1.449 . S
C46 C45 1.258 . S
C46 C47 1.477 . S
C46 H66 0.931 . S
C47 C43 1.460 . S
C47 C46 1.477 . S
C47 H67 0.930 . S
C48 N44 1.362 . S
C48 C45 1.431 . S
C48 C58 1.476 . S
H49 C43 0.929 . S
C50 O41 1.250 . S
C50 O42 1.258 . S
O51 Mn36 2.162 1_545 S
O51 C39 1.281 . S
O52 Mn36 2.297 1_545 S
O52 C39 1.236 . S
N53 Mn37 2.282 . S
N53 C54 1.328 . S
N53 C58 1.318 . S
C54 N53 1.328 . S
C54 C55 1.457 . S
C54 H59 0.929 . S
C55 C54 1.457 . S
C55 C56 1.291 . S
C55 H68 0.931 . S
C56 C55 1.291 . S
C56 C57 1.373 . S
C56 H69 0.929 . S
C57 C56 1.373 . S
C57 C58 1.396 . S
C57 C64 1.403 . S
C58 C48 1.476 . S
C58 N53 1.318 . S
C58 C57 1.396 . S
H59 C54 0.929 . S
O60 Mn36 2.385 . S
O60 C38 1.234 . S
O61 Mn36 2.209 . S
O61 Mn37 2.215 . S
O61 C38 1.283 . S
O62 Mn36 2.096 1_655 S
O62 C40 1.239 . S
O63 Mn37 2.117 1_655 S
O63 C40 1.264 . S
C64 C57 1.403 . S
C64 C65 1.399 . S
C64 H70 0.929 . S
C65 C45 1.449 . S
C65 C64 1.399 . S
C65 H71 0.930 . S
H66 C46 0.931 . S
H67 C47 0.930 . S
H68 C55 0.931 . S
H69 C56 0.929 . S
H70 C64 0.929 . S
H71 C65 0.930 . S
Mn72 O77 2.095 . S
Mn72 O87 2.162 . S
Mn72 O88 2.297 . S
Mn72 O96 2.385 . S
Mn72 O97 2.209 . S
Mn72 O98 2.094 . S
Mn73 O78 2.121 . S
Mn73 N80 2.257 . S
Mn73 N89 2.282 . S
Mn73 O97 2.215 . S
Mn73 O99 2.117 . S
C74 O96 1.234 . S
C74 O97 1.283 . S
C75 O87 1.281 . S
C75 O88 1.236 . S
C76 O98 1.240 . S
C76 O99 1.264 . S
O77 Mn72 2.095 . S
O77 C86 1.250 . S
O78 Mn73 2.121 . S
O78 C86 1.258 . S
C79 N80 1.326 . S
C79 C83 1.460 . S
C79 H85 0.929 . S
N80 Mn73 2.257 . S
N80 C79 1.326 . S
N80 C84 1.362 . S
C81 C82 1.258 . S
C81 C84 1.431 . S
C81 C101 1.449 . S
C82 C81 1.258 . S
C82 C83 1.477 . S
C82 H102 0.931 . S
C83 C79 1.460 . S
C83 C82 1.477 . S
C83 H103 0.930 . S
C84 N80 1.362 . S
C84 C81 1.431 . S
C84 C94 1.476 . S
H85 C79 0.929 . S
C86 O77 1.250 . S
C86 O78 1.258 . S
O87 Mn72 2.162 . S
O87 C75 1.281 . S
O88 Mn72 2.297 . S
O88 C75 1.236 . S
N89 Mn73 2.282 . S
N89 C90 1.328 . S
N89 C94 1.318 . S
C90 N89 1.328 . S
C90 C91 1.457 . S
C90 H95 0.929 . S
C91 C90 1.457 . S
C91 C92 1.291 . S
C91 H104 0.931 . S
C92 C91 1.291 . S
C92 C93 1.373 . S
C92 H105 0.929 . S
C93 C92 1.373 . S
C93 C94 1.396 . S
C93 C100 1.403 . S
C94 C84 1.476 . S
C94 N89 1.318 . S
C94 C93 1.396 . S
H95 C90 0.929 . S
O96 Mn72 2.385 . S
O96 C74 1.234 . S
O97 Mn72 2.209 . S
O97 Mn73 2.215 . S
O97 C74 1.283 . S
O98 Mn72 2.094 . S
O98 C76 1.240 . S
O99 Mn73 2.117 . S
O99 C76 1.264 . S
C100 C93 1.403 . S
C100 C101 1.399 . S
C100 H106 0.929 . S
C101 C81 1.449 . S
C101 C100 1.399 . S
C101 H107 0.930 . S
H102 C82 0.931 . S
H103 C83 0.930 . S
H104 C91 0.931 . S
H105 C92 0.929 . S
H106 C100 0.929 . S
H107 C101 0.930 . S
Mn108 O113 2.095 . S
Mn108 O123 2.162 1_545 S
Mn108 O124 2.297 1_545 S
Mn108 O132 2.385 . S
Mn108 O133 2.209 . S
Mn108 O134 2.094 . S
Mn109 O114 2.121 . S
Mn109 N116 2.257 . S
Mn109 N125 2.282 . S
Mn109 O133 2.215 . S
Mn109 O135 2.117 . S
C110 O132 1.234 . S
C110 O133 1.283 . S
C111 O123 1.281 . S
C111 O124 1.236 . S
C112 O134 1.240 . S
C112 O135 1.264 . S
O113 Mn108 2.095 . S
O113 C122 1.250 . S
O114 Mn109 2.121 . S
O114 C122 1.258 . S
C115 N116 1.326 . S
C115 C119 1.460 . S
C115 H121 0.929 . S
N116 Mn109 2.257 . S
N116 C115 1.326 . S
N116 C120 1.362 . S
C117 C118 1.258 . S
C117 C120 1.431 . S
C117 C137 1.449 . S
C118 C117 1.258 . S
C118 C119 1.477 . S
C118 H138 0.931 . S
C119 C115 1.460 . S
C119 C118 1.477 . S
C119 H139 0.930 . S
C120 N116 1.362 . S
C120 C117 1.431 . S
C120 C130 1.476 . S
H121 C115 0.929 . S
C122 O113 1.250 . S
C122 O114 1.258 . S
O123 Mn108 2.162 1_565 S
O123 C111 1.281 . S
O124 Mn108 2.297 1_565 S
O124 C111 1.236 . S
N125 Mn109 2.282 . S
N125 C126 1.328 . S
N125 C130 1.318 . S
C126 N125 1.328 . S
C126 C127 1.457 . S
C126 H131 0.929 . S
C127 C126 1.457 . S
C127 C128 1.291 . S
C127 H140 0.931 . S
C128 C127 1.291 . S
C128 C129 1.373 . S
C128 H141 0.929 . S
C129 C128 1.373 . S
C129 C130 1.396 . S
C129 C136 1.403 . S
C130 C120 1.476 . S
C130 N125 1.318 . S
C130 C129 1.396 . S
H131 C126 0.929 . S
O132 Mn108 2.385 . S
O132 C110 1.234 . S
O133 Mn108 2.209 . S
O133 Mn109 2.215 . S
O133 C110 1.283 . S
O134 Mn108 2.094 . S
O134 C112 1.240 . S
O135 Mn109 2.117 . S
O135 C112 1.264 . S
C136 C129 1.403 . S
C136 C137 1.399 . S
C136 H142 0.929 . S
C137 C117 1.449 . S
C137 C136 1.399 . S
C137 H143 0.930 . S
H138 C118 0.931 . S
H139 C119 0.930 . S
H140 C127 0.931 . S
H141 C128 0.929 . S
H142 C136 0.929 . S
H143 C137 0.930 . S
Mn144 O149 2.095 . S
Mn144 O159 2.162 . S
Mn144 O160 2.297 . S
Mn144 O168 2.385 . S
Mn144 O169 2.209 . S
Mn144 O170 2.094 . S
Mn145 O150 2.121 . S
Mn145 N152 2.257 . S
Mn145 N161 2.282 . S
Mn145 O169 2.215 . S
Mn145 O171 2.117 . S
C146 O168 1.234 . S
C146 O169 1.283 . S
C147 O159 1.281 . S
C147 O160 1.236 . S
C148 O170 1.240 . S
C148 O171 1.264 . S
O149 Mn144 2.095 . S
O149 C158 1.250 . S
O150 Mn145 2.121 . S
O150 C158 1.258 . S
C151 N152 1.326 . S
C151 C155 1.460 . S
C151 H157 0.929 . S
N152 Mn145 2.257 . S
N152 C151 1.326 . S
N152 C156 1.362 . S
C153 C154 1.258 . S
C153 C156 1.431 . S
C153 C173 1.449 . S
C154 C153 1.258 . S
C154 C155 1.477 . S
C154 H174 0.931 . S
C155 C151 1.460 . S
C155 C154 1.477 . S
C155 H175 0.930 . S
C156 N152 1.362 . S
C156 C153 1.431 . S
C156 C166 1.476 . S
H157 C151 0.929 . S
C158 O149 1.250 . S
C158 O150 1.258 . S
O159 Mn144 2.162 . S
O159 C147 1.281 . S
O160 Mn144 2.297 . S
O160 C147 1.236 . S
N161 Mn145 2.282 . S
N161 C162 1.328 . S
N161 C166 1.318 . S
C162 N161 1.328 . S
C162 C163 1.457 . S
C162 H167 0.929 . S
C163 C162 1.457 . S
C163 C164 1.291 . S
C163 H176 0.931 . S
C164 C163 1.291 . S
C164 C165 1.373 . S
C164 H177 0.929 . S
C165 C164 1.373 . S
C165 C166 1.396 . S
C165 C172 1.403 . S
C166 C156 1.476 . S
C166 N161 1.318 . S
C166 C165 1.396 . S
H167 C162 0.929 . S
O168 Mn144 2.385 . S
O168 C146 1.234 . S
O169 Mn144 2.209 . S
O169 Mn145 2.215 . S
O169 C146 1.283 . S
O170 Mn144 2.094 . S
O170 C148 1.240 . S
O171 Mn145 2.117 . S
O171 C148 1.264 . S
C172 C165 1.403 . S
C172 C173 1.399 . S
C172 H178 0.929 . S
C173 C153 1.449 . S
C173 C172 1.399 . S
C173 H179 0.930 . S
H174 C154 0.931 . S
H175 C155 0.930 . S
H176 C163 0.931 . S
H177 C164 0.929 . S
H178 C172 0.929 . S
H179 C173 0.930 . S
Mn180 O185 2.095 . S
Mn180 O195 2.162 1_565 S
Mn180 O196 2.297 1_565 S
Mn180 O204 2.385 . S
Mn180 O205 2.209 . S
Mn180 O206 2.094 . S
Mn181 O186 2.121 . S
Mn181 N188 2.257 . S
Mn181 N197 2.282 . S
Mn181 O205 2.215 . S
Mn181 O207 2.117 . S
C182 O204 1.234 . S
C182 O205 1.283 . S
C183 O195 1.281 . S
C183 O196 1.236 . S
C184 O206 1.240 . S
C184 O207 1.264 . S
O185 Mn180 2.095 . S
O185 C194 1.250 . S
O186 Mn181 2.121 . S
O186 C194 1.258 . S
C187 N188 1.326 . S
C187 C191 1.460 . S
C187 H193 0.929 . S
N188 Mn181 2.257 . S
N188 C187 1.326 . S
N188 C192 1.362 . S
C189 C190 1.258 . S
C189 C192 1.431 . S
C189 C209 1.449 . S
C190 C189 1.258 . S
C190 C191 1.477 . S
C190 H210 0.931 . S
C191 C187 1.460 . S
C191 C190 1.477 . S
C191 H211 0.930 . S
C192 N188 1.362 . S
C192 C189 1.431 . S
C192 C202 1.476 . S
H193 C187 0.929 . S
C194 O185 1.250 . S
C194 O186 1.258 . S
O195 Mn180 2.162 1_545 S
O195 C183 1.281 . S
O196 Mn180 2.297 1_545 S
O196 C183 1.236 . S
N197 Mn181 2.282 . S
N197 C198 1.328 . S
N197 C202 1.318 . S
C198 N197 1.328 . S
C198 C199 1.457 . S
C198 H203 0.929 . S
C199 C198 1.457 . S
C199 C200 1.291 . S
C199 H212 0.931 . S
C200 C199 1.291 . S
C200 C201 1.373 . S
C200 H213 0.929 . S
C201 C200 1.373 . S
C201 C202 1.396 . S
C201 C208 1.403 . S
C202 C192 1.476 . S
C202 N197 1.318 . S
C202 C201 1.396 . S
H203 C198 0.929 . S
O204 Mn180 2.385 . S
O204 C182 1.234 . S
O205 Mn180 2.209 . S
O205 Mn181 2.215 . S
O205 C182 1.283 . S
O206 Mn180 2.094 . S
O206 C184 1.240 . S
O207 Mn181 2.117 . S
O207 C184 1.264 . S
C208 C201 1.403 . S
C208 C209 1.399 . S
C208 H214 0.929 . S
C209 C189 1.449 . S
C209 C208 1.399 . S
C209 H215 0.930 . S
H210 C190 0.931 . S
H211 C191 0.930 . S
H212 C199 0.931 . S
H213 C200 0.929 . S
H214 C208 0.929 . S
H215 C209 0.930 . S
Mn216 O221 2.095 . S
Mn216 O231 2.162 . S
Mn216 O232 2.297 . S
Mn216 O240 2.385 . S
Mn216 O241 2.209 . S
Mn216 O242 2.094 . S
Mn217 O222 2.121 . S
Mn217 N224 2.257 . S
Mn217 N233 2.282 . S
Mn217 O241 2.215 . S
Mn217 O243 2.117 . S
C218 O240 1.234 . S
C218 O241 1.283 . S
C219 O231 1.281 . S
C219 O232 1.236 . S
C220 O242 1.240 . S
C220 O243 1.264 . S
O221 Mn216 2.095 . S
O221 C230 1.250 . S
O222 Mn217 2.121 . S
O222 C230 1.258 . S
C223 N224 1.326 . S
C223 C227 1.460 . S
C223 H229 0.929 . S
N224 Mn217 2.257 . S
N224 C223 1.326 . S
N224 C228 1.362 . S
C225 C226 1.258 . S
C225 C228 1.431 . S
C225 C245 1.449 . S
C226 C225 1.258 . S
C226 C227 1.477 . S
C226 H246 0.931 . S
C227 C223 1.460 . S
C227 C226 1.477 . S
C227 H247 0.930 . S
C228 N224 1.362 . S
C228 C225 1.431 . S
C228 C238 1.476 . S
H229 C223 0.929 . S
C230 O221 1.250 . S
C230 O222 1.258 . S
O231 Mn216 2.162 . S
O231 C219 1.281 . S
O232 Mn216 2.297 . S
O232 C219 1.236 . S
N233 Mn217 2.282 . S
N233 C234 1.328 . S
N233 C238 1.318 . S
C234 N233 1.328 . S
C234 C235 1.457 . S
C234 H239 0.929 . S
C235 C234 1.457 . S
C235 C236 1.291 . S
C235 H248 0.931 . S
C236 C235 1.291 . S
C236 C237 1.373 . S
C236 H249 0.929 . S
C237 C236 1.373 . S
C237 C238 1.396 . S
C237 C244 1.403 . S
C238 C228 1.476 . S
C238 N233 1.318 . S
C238 C237 1.396 . S
H239 C234 0.929 . S
O240 Mn216 2.385 . S
O240 C218 1.234 . S
O241 Mn216 2.209 . S
O241 Mn217 2.215 . S
O241 C218 1.283 . S
O242 Mn216 2.094 . S
O242 C220 1.240 . S
O243 Mn217 2.117 . S
O243 C220 1.264 . S
C244 C237 1.403 . S
C244 C245 1.399 . S
C244 H250 0.929 . S
C245 C225 1.449 . S
C245 C244 1.399 . S
C245 H251 0.930 . S
H246 C226 0.931 . S
H247 C227 0.930 . S
H248 C235 0.931 . S
H249 C236 0.929 . S
H250 C244 0.929 . S
H251 C245 0.930 . S
Mn252 O257 2.095 . S
Mn252 O267 2.162 1_545 S
Mn252 O268 2.297 1_545 S
Mn252 O276 2.385 . S
Mn252 O277 2.209 . S
Mn252 O278 2.097 1_455 S
Mn253 O258 2.121 . S
Mn253 N260 2.257 . S
Mn253 N269 2.282 . S
Mn253 O277 2.215 . S
Mn253 O279 2.117 1_455 S
C254 O276 1.234 . S
C254 O277 1.283 . S
C255 O267 1.281 . S
C255 O268 1.236 . S
C256 O278 1.239 . S
C256 O279 1.264 . S
O257 Mn252 2.095 . S
O257 C266 1.250 . S
O258 Mn253 2.121 . S
O258 C266 1.258 . S
C259 N260 1.326 . S
C259 C263 1.460 . S
C259 H265 0.929 . S
N260 Mn253 2.257 . S
N260 C259 1.326 . S
N260 C264 1.362 . S
C261 C262 1.258 . S
C261 C264 1.431 . S
C261 C281 1.449 . S
C262 C261 1.258 . S
C262 C263 1.477 . S
C262 H282 0.931 . S
C263 C259 1.460 . S
C263 C262 1.477 . S
C263 H283 0.930 . S
C264 N260 1.362 . S
C264 C261 1.431 . S
C264 C274 1.476 . S
H265 C259 0.929 . S
C266 O257 1.250 . S
C266 O258 1.258 . S
O267 Mn252 2.162 1_565 S
O267 C255 1.281 . S
O268 Mn252 2.297 1_565 S
O268 C255 1.236 . S
N269 Mn253 2.282 . S
N269 C270 1.328 . S
N269 C274 1.318 . S
C270 N269 1.328 . S
C270 C271 1.457 . S
C270 H275 0.929 . S
C271 C270 1.457 . S
C271 C272 1.291 . S
C271 H284 0.931 . S
C272 C271 1.291 . S
C272 C273 1.373 . S
C272 H285 0.929 . S
C273 C272 1.373 . S
C273 C274 1.396 . S
C273 C280 1.403 . S
C274 C264 1.476 . S
C274 N269 1.318 . S
C274 C273 1.396 . S
H275 C270 0.929 . S
O276 Mn252 2.385 . S
O276 C254 1.234 . S
O277 Mn252 2.209 . S
O277 Mn253 2.215 . S
O277 C254 1.283 . S
O278 Mn252 2.097 1_655 S
O278 C256 1.239 . S
O279 Mn253 2.117 1_655 S
O279 C256 1.264 . S
C280 C273 1.403 . S
C280 C281 1.399 . S
C280 H286 0.929 . S
C281 C261 1.449 . S
C281 C280 1.399 . S
C281 H287 0.930 . S
H282 C262 0.931 . S
H283 C263 0.930 . S
H284 C271 0.931 . S
H285 C272 0.929 . S
H286 C280 0.929 . S
H287 C281 0.930 . S
Mn288 O293 2.095 . S
Mn288 O303 2.162 . S
Mn288 O304 2.297 . S
Mn288 O312 2.385 . S
Mn288 O313 2.209 . S
Mn288 O314 2.094 . S
Mn289 O294 2.121 . S
Mn289 N296 2.257 . S
Mn289 N305 2.282 . S
Mn289 O313 2.215 . S
Mn289 O315 2.117 . S
C290 O312 1.234 . S
C290 O313 1.283 . S
C291 O303 1.281 . S
C291 O304 1.236 . S
C292 O314 1.240 . S
C292 O315 1.264 . S
O293 Mn288 2.095 . S
O293 C302 1.250 . S
O294 Mn289 2.121 . S
O294 C302 1.258 . S
C295 N296 1.326 . S
C295 C299 1.460 . S
C295 H301 0.929 . S
N296 Mn289 2.257 . S
N296 C295 1.326 . S
N296 C300 1.362 . S
C297 C298 1.258 . S
C297 C300 1.431 . S
C297 C317 1.449 . S
C298 C297 1.258 . S
C298 C299 1.477 . S
C298 H318 0.931 . S
C299 C295 1.460 . S
C299 C298 1.477 . S
C299 H319 0.930 . S
C300 N296 1.362 . S
C300 C297 1.431 . S
C300 C310 1.476 . S
H301 C295 0.929 . S
C302 O293 1.250 . S
C302 O294 1.258 . S
O303 Mn288 2.162 . S
O303 C291 1.281 . S
O304 Mn288 2.297 . S
O304 C291 1.236 . S
N305 Mn289 2.282 . S
N305 C306 1.328 . S
N305 C310 1.318 . S
C306 N305 1.328 . S
C306 C307 1.457 . S
C306 H311 0.929 . S
C307 C306 1.457 . S
C307 C308 1.291 . S
C307 H320 0.931 . S
C308 C307 1.291 . S
C308 C309 1.373 . S
C308 H321 0.929 . S
C309 C308 1.373 . S
C309 C310 1.396 . S
C309 C316 1.403 . S
C310 C300 1.476 . S
C310 N305 1.318 . S
C310 C309 1.396 . S
H311 C306 0.929 . S
O312 Mn288 2.385 . S
O312 C290 1.234 . S
O313 Mn288 2.209 . S
O313 Mn289 2.215 . S
O313 C290 1.283 . S
O314 Mn288 2.094 . S
O314 C292 1.240 . S
O315 Mn289 2.117 . S
O315 C292 1.264 . S
C316 C309 1.403 . S
C316 C317 1.399 . S
C316 H322 0.929 . S
C317 C297 1.449 . S
C317 C316 1.399 . S
C317 H323 0.930 . S
H318 C298 0.931 . S
H319 C299 0.930 . S
H320 C307 0.931 . S
H321 C308 0.929 . S
H322 C316 0.929 . S
H323 C317 0.930 . S
Mn324 O329 2.095 . S
Mn324 O339 2.162 1_655 S
Mn324 O340 2.297 1_655 S
Mn324 O348 2.385 . S
Mn324 O349 2.209 . S
Mn324 O350 2.094 1_545 S
Mn325 O330 2.121 . S
Mn325 N332 2.257 . S
Mn325 N341 2.282 . S
Mn325 O349 2.215 . S
Mn325 O351 2.117 1_545 S
C326 O348 1.234 . S
C326 O349 1.283 . S
C327 O339 1.281 . S
C327 O340 1.236 . S
C328 O350 1.240 . S
C328 O351 1.264 . S
O329 Mn324 2.095 . S
O329 C338 1.250 . S
O330 Mn325 2.121 . S
O330 C338 1.258 . S
C331 N332 1.326 . S
C331 C335 1.460 . S
C331 H337 0.929 . S
N332 Mn325 2.257 . S
N332 C331 1.326 . S
N332 C336 1.362 . S
C333 C334 1.258 . S
C333 C336 1.431 . S
C333 C353 1.449 . S
C334 C333 1.258 . S
C334 C335 1.477 . S
C334 H354 0.931 . S
C335 C331 1.460 . S
C335 C334 1.477 . S
C335 H355 0.930 . S
C336 N332 1.362 . S
C336 C333 1.431 . S
C336 C346 1.476 . S
H337 C331 0.929 . S
C338 O329 1.250 . S
C338 O330 1.258 . S
O339 Mn324 2.162 1_455 S
O339 C327 1.281 . S
O340 Mn324 2.297 1_455 S
O340 C327 1.236 . S
N341 Mn325 2.282 . S
N341 C342 1.328 . S
N341 C346 1.318 . S
C342 N341 1.328 . S
C342 C343 1.457 . S
C342 H347 0.929 . S
C343 C342 1.457 . S
C343 C344 1.291 . S
C343 H356 0.931 . S
C344 C343 1.291 . S
C344 C345 1.373 . S
C344 H357 0.929 . S
C345 C344 1.373 . S
C345 C346 1.396 . S
C345 C352 1.403 . S
C346 C336 1.476 . S
C346 N341 1.318 . S
C346 C345 1.396 . S
H347 C342 0.929 . S
O348 Mn324 2.385 . S
O348 C326 1.234 . S
O349 Mn324 2.209 . S
O349 Mn325 2.215 . S
O349 C326 1.283 . S
O350 Mn324 2.094 1_565 S
O350 C328 1.240 . S
O351 Mn325 2.117 1_565 S
O351 C328 1.264 . S
C352 C345 1.403 . S
C352 C353 1.399 . S
C352 H358 0.929 . S
C353 C333 1.449 . S
C353 C352 1.399 . S
C353 H359 0.930 . S
H354 C334 0.931 . S
H355 C335 0.930 . S
H356 C343 0.931 . S
H357 C344 0.929 . S
H358 C352 0.929 . S
H359 C353 0.930 . S
Mn360 O365 2.095 . S
Mn360 O375 2.162 . S
Mn360 O376 2.297 . S
Mn360 O384 2.385 . S
Mn360 O385 2.209 . S
Mn360 O386 2.094 . S
Mn361 O366 2.121 . S
Mn361 N368 2.257 . S
Mn361 N377 2.282 . S
Mn361 O385 2.215 . S
Mn361 O387 2.117 . S
C362 O384 1.234 . S
C362 O385 1.283 . S
C363 O375 1.281 . S
C363 O376 1.236 . S
C364 O386 1.240 . S
C364 O387 1.264 . S
O365 Mn360 2.095 . S
O365 C374 1.250 . S
O366 Mn361 2.121 . S
O366 C374 1.258 . S
C367 N368 1.326 . S
C367 C371 1.460 . S
C367 H373 0.929 . S
N368 Mn361 2.257 . S
N368 C367 1.326 . S
N368 C372 1.362 . S
C369 C370 1.258 . S
C369 C372 1.431 . S
C369 C389 1.449 . S
C370 C369 1.258 . S
C370 C371 1.477 . S
C370 H390 0.931 . S
C371 C367 1.460 . S
C371 C370 1.477 . S
C371 H391 0.930 . S
C372 N368 1.362 . S
C372 C369 1.431 . S
C372 C382 1.476 . S
H373 C367 0.929 . S
C374 O365 1.250 . S
C374 O366 1.258 . S
O375 Mn360 2.162 . S
O375 C363 1.281 . S
O376 Mn360 2.297 . S
O376 C363 1.236 . S
N377 Mn361 2.282 . S
N377 C378 1.328 . S
N377 C382 1.318 . S
C378 N377 1.328 . S
C378 C379 1.457 . S
C378 H383 0.929 . S
C379 C378 1.457 . S
C379 C380 1.291 . S
C379 H392 0.931 . S
C380 C379 1.291 . S
C380 C381 1.373 . S
C380 H393 0.929 . S
C381 C380 1.373 . S
C381 C382 1.396 . S
C381 C388 1.403 . S
C382 C372 1.476 . S
C382 N377 1.318 . S
C382 C381 1.396 . S
H383 C378 0.929 . S
O384 Mn360 2.385 . S
O384 C362 1.234 . S
O385 Mn360 2.209 . S
O385 Mn361 2.215 . S
O385 C362 1.283 . S
O386 Mn360 2.094 . S
O386 C364 1.240 . S
O387 Mn361 2.117 . S
O387 C364 1.264 . S
C388 C381 1.403 . S
C388 C389 1.399 . S
C388 H394 0.929 . S
C389 C369 1.449 . S
C389 C388 1.399 . S
C389 H395 0.930 . S
H390 C370 0.931 . S
H391 C371 0.930 . S
H392 C379 0.931 . S
H393 C380 0.929 . S
H394 C388 0.929 . S
H395 C389 0.930 . S
Mn396 O401 2.095 . S
Mn396 O411 2.162 . S
Mn396 O412 2.297 . S
Mn396 O420 2.385 . S
Mn396 O421 2.209 . S
Mn396 O422 2.094 1_565 S
Mn397 O402 2.121 . S
Mn397 N404 2.257 . S
Mn397 N413 2.282 . S
Mn397 O421 2.215 . S
Mn397 O423 2.117 1_565 S
C398 O420 1.234 . S
C398 O421 1.283 . S
C399 O411 1.281 . S
C399 O412 1.236 . S
C400 O422 1.240 . S
C400 O423 1.264 . S
O401 Mn396 2.095 . S
O401 C410 1.250 . S
O402 Mn397 2.121 . S
O402 C410 1.258 . S
C403 N404 1.326 . S
C403 C407 1.460 . S
C403 H409 0.929 . S
N404 Mn397 2.257 . S
N404 C403 1.326 . S
N404 C408 1.362 . S
C405 C406 1.258 . S
C405 C408 1.431 . S
C405 C425 1.449 . S
C406 C405 1.258 . S
C406 C407 1.477 . S
C406 H426 0.931 . S
C407 C403 1.460 . S
C407 C406 1.477 . S
C407 H427 0.930 . S
C408 N404 1.362 . S
C408 C405 1.431 . S
C408 C418 1.476 . S
H409 C403 0.929 . S
C410 O401 1.250 . S
C410 O402 1.258 . S
O411 Mn396 2.162 . S
O411 C399 1.281 . S
O412 Mn396 2.297 . S
O412 C399 1.236 . S
N413 Mn397 2.282 . S
N413 C414 1.328 . S
N413 C418 1.318 . S
C414 N413 1.328 . S
C414 C415 1.457 . S
C414 H419 0.929 . S
C415 C414 1.457 . S
C415 C416 1.291 . S
C415 H428 0.931 . S
C416 C415 1.291 . S
C416 C417 1.373 . S
C416 H429 0.929 . S
C417 C416 1.373 . S
C417 C418 1.396 . S
C417 C424 1.403 . S
C418 C408 1.476 . S
C418 N413 1.318 . S
C418 C417 1.396 . S
H419 C414 0.929 . S
O420 Mn396 2.385 . S
O420 C398 1.234 . S
O421 Mn396 2.209 . S
O421 Mn397 2.215 . S
O421 C398 1.283 . S
O422 Mn396 2.094 1_545 S
O422 C400 1.240 . S
O423 Mn397 2.117 1_545 S
O423 C400 1.264 . S
C424 C417 1.403 . S
C424 C425 1.399 . S
C424 H430 0.929 . S
C425 C405 1.449 . S
C425 C424 1.399 . S
C425 H431 0.930 . S
H426 C406 0.931 . S
H427 C407 0.930 . S
H428 C415 0.931 . S
H429 C416 0.929 . S
H430 C424 0.929 . S
H431 C425 0.930 . S
Mn432 O437 2.095 . S
Mn432 O447 2.162 . S
Mn432 O448 2.297 . S
Mn432 O456 2.385 . S
Mn432 O457 2.209 . S
Mn432 O458 2.094 . S
Mn433 O438 2.121 . S
Mn433 N440 2.257 . S
Mn433 N449 2.282 . S
Mn433 O457 2.215 . S
Mn433 O459 2.117 . S
C434 O456 1.234 . S
C434 O457 1.283 . S
C435 O447 1.281 . S
C435 O448 1.236 . S
C436 O458 1.240 . S
C436 O459 1.264 . S
O437 Mn432 2.095 . S
O437 C446 1.250 . S
O438 Mn433 2.121 . S
O438 C446 1.258 . S
C439 N440 1.326 . S
C439 C443 1.460 . S
C439 H445 0.929 . S
N440 Mn433 2.257 . S
N440 C439 1.326 . S
N440 C444 1.362 . S
C441 C442 1.258 . S
C441 C444 1.431 . S
C441 C461 1.449 . S
C442 C441 1.258 . S
C442 C443 1.477 . S
C442 H462 0.931 . S
C443 C439 1.460 . S
C443 C442 1.477 . S
C443 H463 0.930 . S
C444 N440 1.362 . S
C444 C441 1.431 . S
C444 C454 1.476 . S
H445 C439 0.929 . S
C446 O437 1.250 . S
C446 O438 1.258 . S
O447 Mn432 2.162 . S
O447 C435 1.281 . S
O448 Mn432 2.297 . S
O448 C435 1.236 . S
N449 Mn433 2.282 . S
N449 C450 1.328 . S
N449 C454 1.318 . S
C450 N449 1.328 . S
C450 C451 1.457 . S
C450 H455 0.929 . S
C451 C450 1.457 . S
C451 C452 1.291 . S
C451 H464 0.931 . S
C452 C451 1.291 . S
C452 C453 1.373 . S
C452 H465 0.929 . S
C453 C452 1.373 . S
C453 C454 1.396 . S
C453 C460 1.403 . S
C454 C444 1.476 . S
C454 N449 1.318 . S
C454 C453 1.396 . S
H455 C450 0.929 . S
O456 Mn432 2.385 . S
O456 C434 1.234 . S
O457 Mn432 2.209 . S
O457 Mn433 2.215 . S
O457 C434 1.283 . S
O458 Mn432 2.094 . S
O458 C436 1.240 . S
O459 Mn433 2.117 . S
O459 C436 1.264 . S
C460 C453 1.403 . S
C460 C461 1.399 . S
C460 H466 0.929 . S
C461 C441 1.449 . S
C461 C460 1.399 . S
C461 H467 0.930 . S
H462 C442 0.931 . S
H463 C443 0.930 . S
H464 C451 0.931 . S
H465 C452 0.929 . S
H466 C460 0.929 . S
H467 C461 0.930 . S
Mn468 O473 2.095 . S
Mn468 O483 2.162 . S
Mn468 O484 2.297 . S
Mn468 O492 2.385 . S
Mn468 O493 2.209 . S
Mn468 O494 2.094 1_545 S
Mn469 O474 2.121 . S
Mn469 N476 2.257 . S
Mn469 N485 2.282 . S
Mn469 O493 2.215 . S
Mn469 O495 2.117 1_545 S
C470 O492 1.234 . S
C470 O493 1.283 . S
C471 O483 1.281 . S
C471 O484 1.236 . S
C472 O494 1.240 . S
C472 O495 1.264 . S
O473 Mn468 2.095 . S
O473 C482 1.250 . S
O474 Mn469 2.121 . S
O474 C482 1.258 . S
C475 N476 1.326 . S
C475 C479 1.460 . S
C475 H481 0.929 . S
N476 Mn469 2.257 . S
N476 C475 1.326 . S
N476 C480 1.362 . S
C477 C478 1.258 . S
C477 C480 1.431 . S
C477 C497 1.449 . S
C478 C477 1.258 . S
C478 C479 1.477 . S
C478 H498 0.931 . S
C479 C475 1.460 . S
C479 C478 1.477 . S
C479 H499 0.930 . S
C480 N476 1.362 . S
C480 C477 1.431 . S
C480 C490 1.476 . S
H481 C475 0.929 . S
C482 O473 1.250 . S
C482 O474 1.258 . S
O483 Mn468 2.162 . S
O483 C471 1.281 . S
O484 Mn468 2.297 . S
O484 C471 1.236 . S
N485 Mn469 2.282 . S
N485 C486 1.328 . S
N485 C490 1.318 . S
C486 N485 1.328 . S
C486 C487 1.457 . S
C486 H491 0.929 . S
C487 C486 1.457 . S
C487 C488 1.291 . S
C487 H500 0.931 . S
C488 C487 1.291 . S
C488 C489 1.373 . S
C488 H501 0.929 . S
C489 C488 1.373 . S
C489 C490 1.396 . S
C489 C496 1.403 . S
C490 C480 1.476 . S
C490 N485 1.318 . S
C490 C489 1.396 . S
H491 C486 0.929 . S
O492 Mn468 2.385 . S
O492 C470 1.234 . S
O493 Mn468 2.209 . S
O493 Mn469 2.215 . S
O493 C470 1.283 . S
O494 Mn468 2.094 1_565 S
O494 C472 1.240 . S
O495 Mn469 2.117 1_565 S
O495 C472 1.264 . S
C496 C489 1.403 . S
C496 C497 1.399 . S
C496 H502 0.929 . S
C497 C477 1.449 . S
C497 C496 1.399 . S
C497 H503 0.930 . S
H498 C478 0.931 . S
H499 C479 0.930 . S
H500 C487 0.931 . S
H501 C488 0.929 . S
H502 C496 0.929 . S
H503 C497 0.930 . S
Mn504 O509 2.095 . S
Mn504 O519 2.162 . S
Mn504 O520 2.297 . S
Mn504 O528 2.385 . S
Mn504 O529 2.209 . S
Mn504 O530 2.094 . S
Mn505 O510 2.121 . S
Mn505 N512 2.257 . S
Mn505 N521 2.282 . S
Mn505 O529 2.215 . S
Mn505 O531 2.117 . S
C506 O528 1.234 . S
C506 O529 1.283 . S
C507 O519 1.281 . S
C507 O520 1.236 . S
C508 O530 1.240 . S
C508 O531 1.264 . S
O509 Mn504 2.095 . S
O509 C518 1.250 . S
O510 Mn505 2.121 . S
O510 C518 1.258 . S
C511 N512 1.326 . S
C511 C515 1.460 . S
C511 H517 0.929 . S
N512 Mn505 2.257 . S
N512 C511 1.326 . S
N512 C516 1.362 . S
C513 C514 1.258 . S
C513 C516 1.431 . S
C513 C533 1.449 . S
C514 C513 1.258 . S
C514 C515 1.477 . S
C514 H534 0.931 . S
C515 C511 1.460 . S
C515 C514 1.477 . S
C515 H535 0.930 . S
C516 N512 1.362 . S
C516 C513 1.431 . S
C516 C526 1.476 . S
H517 C511 0.929 . S
C518 O509 1.250 . S
C518 O510 1.258 . S
O519 Mn504 2.162 . S
O519 C507 1.281 . S
O520 Mn504 2.297 . S
O520 C507 1.236 . S
N521 Mn505 2.282 . S
N521 C522 1.328 . S
N521 C526 1.318 . S
C522 N521 1.328 . S
C522 C523 1.457 . S
C522 H527 0.929 . S
C523 C522 1.457 . S
C523 C524 1.291 . S
C523 H536 0.931 . S
C524 C523 1.291 . S
C524 C525 1.373 . S
C524 H537 0.929 . S
C525 C524 1.373 . S
C525 C526 1.396 . S
C525 C532 1.403 . S
C526 C516 1.476 . S
C526 N521 1.318 . S
C526 C525 1.396 . S
H527 C522 0.929 . S
O528 Mn504 2.385 . S
O528 C506 1.234 . S
O529 Mn504 2.209 . S
O529 Mn505 2.215 . S
O529 C506 1.283 . S
O530 Mn504 2.094 . S
O530 C508 1.240 . S
O531 Mn505 2.117 . S
O531 C508 1.264 . S
C532 C525 1.403 . S
C532 C533 1.399 . S
C532 H538 0.929 . S
C533 C513 1.449 . S
C533 C532 1.399 . S
C533 H539 0.930 . S
H534 C514 0.931 . S
H535 C515 0.930 . S
H536 C523 0.931 . S
H537 C524 0.929 . S
H538 C532 0.929 . S
H539 C533 0.930 . S
Mn540 O545 2.095 . S
Mn540 O555 2.162 1_655 S
Mn540 O556 2.297 1_655 S
Mn540 O564 2.385 . S
Mn540 O565 2.209 . S
Mn540 O566 2.094 1_565 S
Mn541 O546 2.121 . S
Mn541 N548 2.257 . S
Mn541 N557 2.282 . S
Mn541 O565 2.215 . S
Mn541 O567 2.117 1_565 S
C542 O564 1.234 . S
C542 O565 1.283 . S
C543 O555 1.281 . S
C543 O556 1.236 . S
C544 O566 1.240 . S
C544 O567 1.264 . S
O545 Mn540 2.095 . S
O545 C554 1.250 . S
O546 Mn541 2.121 . S
O546 C554 1.258 . S
C547 N548 1.326 . S
C547 C551 1.460 . S
C547 H553 0.929 . S
N548 Mn541 2.257 . S
N548 C547 1.326 . S
N548 C552 1.362 . S
C549 C550 1.258 . S
C549 C552 1.431 . S
C549 C569 1.449 . S
C550 C549 1.258 . S
C550 C551 1.477 . S
C550 H570 0.931 . S
C551 C547 1.460 . S
C551 C550 1.477 . S
C551 H571 0.930 . S
C552 N548 1.362 . S
C552 C549 1.431 . S
C552 C562 1.476 . S
H553 C547 0.929 . S
C554 O545 1.250 . S
C554 O546 1.258 . S
O555 Mn540 2.162 1_455 S
O555 C543 1.281 . S
O556 Mn540 2.297 1_455 S
O556 C543 1.236 . S
N557 Mn541 2.282 . S
N557 C558 1.328 . S
N557 C562 1.318 . S
C558 N557 1.328 . S
C558 C559 1.457 . S
C558 H563 0.929 . S
C559 C558 1.457 . S
C559 C560 1.291 . S
C559 H572 0.931 . S
C560 C559 1.291 . S
C560 C561 1.373 . S
C560 H573 0.929 . S
C561 C560 1.373 . S
C561 C562 1.396 . S
C561 C568 1.403 . S
C562 C552 1.476 . S
C562 N557 1.318 . S
C562 C561 1.396 . S
H563 C558 0.929 . S
O564 Mn540 2.385 . S
O564 C542 1.234 . S
O565 Mn540 2.209 . S
O565 Mn541 2.215 . S
O565 C542 1.283 . S
O566 Mn540 2.094 1_545 S
O566 C544 1.240 . S
O567 Mn541 2.117 1_545 S
O567 C544 1.264 . S
C568 C561 1.403 . S
C568 C569 1.399 . S
C568 H574 0.929 . S
C569 C549 1.449 . S
C569 C568 1.399 . S
C569 H575 0.930 . S
H570 C550 0.931 . S
H571 C551 0.930 . S
H572 C559 0.931 . S
H573 C560 0.929 . S
H574 C568 0.929 . S
H575 C569 0.930 . S
Mn576 O581 2.095 . S
Mn576 O591 2.162 . S
Mn576 O592 2.297 . S
Mn576 O600 2.385 . S
Mn576 O601 2.209 . S
Mn576 O602 2.094 . S
Mn577 O582 2.121 . S
Mn577 N584 2.257 . S
Mn577 N593 2.282 . S
Mn577 O601 2.215 . S
Mn577 O603 2.117 . S
C578 O600 1.234 . S
C578 O601 1.283 . S
C579 O591 1.281 . S
C579 O592 1.236 . S
C580 O602 1.240 . S
C580 O603 1.264 . S
O581 Mn576 2.095 . S
O581 C590 1.250 . S
O582 Mn577 2.121 . S
O582 C590 1.258 . S
C583 N584 1.326 . S
C583 C587 1.460 . S
C583 H589 0.929 . S
N584 Mn577 2.257 . S
N584 C583 1.326 . S
N584 C588 1.362 . S
C585 C586 1.258 . S
C585 C588 1.431 . S
C585 C605 1.449 . S
C586 C585 1.258 . S
C586 C587 1.477 . S
C586 H606 0.931 . S
C587 C583 1.460 . S
C587 C586 1.477 . S
C587 H607 0.930 . S
C588 N584 1.362 . S
C588 C585 1.431 . S
C588 C598 1.476 . S
H589 C583 0.929 . S
C590 O581 1.250 . S
C590 O582 1.258 . S
O591 Mn576 2.162 . S
O591 C579 1.281 . S
O592 Mn576 2.297 . S
O592 C579 1.236 . S
N593 Mn577 2.282 . S
N593 C594 1.328 . S
N593 C598 1.318 . S
C594 N593 1.328 . S
C594 C595 1.457 . S
C594 H599 0.929 . S
C595 C594 1.457 . S
C595 C596 1.291 . S
C595 H608 0.931 . S
C596 C595 1.291 . S
C596 C597 1.373 . S
C596 H609 0.929 . S
C597 C596 1.373 . S
C597 C598 1.396 . S
C597 C604 1.403 . S
C598 C588 1.476 . S
C598 N593 1.318 . S
C598 C597 1.396 . S
H599 C594 0.929 . S
O600 Mn576 2.385 . S
O600 C578 1.234 . S
O601 Mn576 2.209 . S
O601 Mn577 2.215 . S
O601 C578 1.283 . S
O602 Mn576 2.094 . S
O602 C580 1.240 . S
O603 Mn577 2.117 . S
O603 C580 1.264 . S
C604 C597 1.403 . S
C604 C605 1.399 . S
C604 H610 0.929 . S
C605 C585 1.449 . S
C605 C604 1.399 . S
C605 H611 0.930 . S
H606 C586 0.931 . S
H607 C587 0.930 . S
H608 C595 0.931 . S
H609 C596 0.929 . S
H610 C604 0.929 . S
H611 C605 0.930 . S
Mn612 O617 2.095 . S
Mn612 O627 2.162 . S
Mn612 O628 2.297 . S
Mn612 O636 2.385 . S
Mn612 O637 2.209 . S
Mn612 O638 2.094 . S
Mn613 O618 2.121 . S
Mn613 N620 2.257 . S
Mn613 N629 2.282 . S
Mn613 O637 2.215 . S
Mn613 O639 2.117 . S
C614 O636 1.234 . S
C614 O637 1.283 . S
C615 O627 1.281 . S
C615 O628 1.236 . S
C616 O638 1.240 . S
C616 O639 1.264 . S
O617 Mn612 2.095 . S
O617 C626 1.250 . S
O618 Mn613 2.121 . S
O618 C626 1.258 . S
C619 N620 1.326 . S
C619 C623 1.460 . S
C619 H625 0.929 . S
N620 Mn613 2.257 . S
N620 C619 1.326 . S
N620 C624 1.362 . S
C621 C622 1.258 . S
C621 C624 1.431 . S
C621 C641 1.449 . S
C622 C621 1.258 . S
C622 C623 1.477 . S
C622 H642 0.931 . S
C623 C619 1.460 . S
C623 C622 1.477 . S
C623 H643 0.930 . S
C624 N620 1.362 . S
C624 C621 1.431 . S
C624 C634 1.476 . S
H625 C619 0.929 . S
C626 O617 1.250 . S
C626 O618 1.258 . S
O627 Mn612 2.162 . S
O627 C615 1.281 . S
O628 Mn612 2.297 . S
O628 C615 1.236 . S
N629 Mn613 2.282 . S
N629 C630 1.328 . S
N629 C634 1.318 . S
C630 N629 1.328 . S
C630 C631 1.457 . S
C630 H635 0.929 . S
C631 C630 1.457 . S
C631 C632 1.291 . S
C631 H644 0.931 . S
C632 C631 1.291 . S
C632 C633 1.373 . S
C632 H645 0.929 . S
C633 C632 1.373 . S
C633 C634 1.396 . S
C633 C640 1.403 . S
C634 C624 1.476 . S
C634 N629 1.318 . S
C634 C633 1.396 . S
H635 C630 0.929 . S
O636 Mn612 2.385 . S
O636 C614 1.234 . S
O637 Mn612 2.209 . S
O637 Mn613 2.215 . S
O637 C614 1.283 . S
O638 Mn612 2.094 . S
O638 C616 1.240 . S
O639 Mn613 2.117 . S
O639 C616 1.264 . S
C640 C633 1.403 . S
C640 C641 1.399 . S
C640 H646 0.929 . S
C641 C621 1.449 . S
C641 C640 1.399 . S
C641 H647 0.930 . S
H642 C622 0.931 . S
H643 C623 0.930 . S
H644 C631 0.931 . S
H645 C632 0.929 . S
H646 C640 0.929 . S
H647 C641 0.930 . S
Mn648 O653 2.095 . S
Mn648 O663 2.162 . S
Mn648 O664 2.297 . S
Mn648 O672 2.385 . S
Mn648 O673 2.209 . S
Mn648 O674 2.094 . S
Mn649 O654 2.121 . S
Mn649 N656 2.257 . S
Mn649 N665 2.282 . S
Mn649 O673 2.215 . S
Mn649 O675 2.117 . S
C650 O672 1.234 . S
C650 O673 1.283 . S
C651 O663 1.281 . S
C651 O664 1.236 . S
C652 O674 1.240 . S
C652 O675 1.264 . S
O653 Mn648 2.095 . S
O653 C662 1.250 . S
O654 Mn649 2.121 . S
O654 C662 1.258 . S
C655 N656 1.326 . S
C655 C659 1.460 . S
C655 H661 0.929 . S
N656 Mn649 2.257 . S
N656 C655 1.326 . S
N656 C660 1.362 . S
C657 C658 1.258 . S
C657 C660 1.431 . S
C657 C677 1.449 . S
C658 C657 1.258 . S
C658 C659 1.477 . S
C658 H678 0.931 . S
C659 C655 1.460 . S
C659 C658 1.477 . S
C659 H679 0.930 . S
C660 N656 1.362 . S
C660 C657 1.431 . S
C660 C670 1.476 . S
H661 C655 0.929 . S
C662 O653 1.250 . S
C662 O654 1.258 . S
O663 Mn648 2.162 . S
O663 C651 1.281 . S
O664 Mn648 2.297 . S
O664 C651 1.236 . S
N665 Mn649 2.282 . S
N665 C666 1.328 . S
N665 C670 1.318 . S
C666 N665 1.328 . S
C666 C667 1.457 . S
C666 H671 0.929 . S
C667 C666 1.457 . S
C667 C668 1.291 . S
C667 H680 0.931 . S
C668 C667 1.291 . S
C668 C669 1.373 . S
C668 H681 0.929 . S
C669 C668 1.373 . S
C669 C670 1.396 . S
C669 C676 1.403 . S
C670 C660 1.476 . S
C670 N665 1.318 . S
C670 C669 1.396 . S
H671 C666 0.929 . S
O672 Mn648 2.385 . S
O672 C650 1.234 . S
O673 Mn648 2.209 . S
O673 Mn649 2.215 . S
O673 C650 1.283 . S
O674 Mn648 2.094 . S
O674 C652 1.240 . S
O675 Mn649 2.117 . S
O675 C652 1.264 . S
C676 C669 1.403 . S
C676 C677 1.399 . S
C676 H682 0.929 . S
C677 C657 1.449 . S
C677 C676 1.399 . S
C677 H683 0.930 . S
H678 C658 0.931 . S
H679 C659 0.930 . S
H680 C667 0.931 . S
H681 C668 0.929 . S
H682 C676 0.929 . S
H683 C677 0.930 . S
Mn684 O689 2.095 . S
Mn684 O699 2.162 . S
Mn684 O700 2.297 . S
Mn684 O708 2.385 . S
Mn684 O709 2.209 . S
Mn684 O710 2.080 1_655 S
Mn685 O690 2.121 . S
Mn685 N692 2.257 . S
Mn685 N701 2.282 . S
Mn685 O709 2.215 . S
Mn685 O711 2.117 1_655 S
C686 O708 1.234 . S
C686 O709 1.283 . S
C687 O699 1.281 . S
C687 O700 1.236 . S
C688 O710 1.249 . S
C688 O711 1.264 . S
O689 Mn684 2.095 . S
O689 C698 1.250 . S
O690 Mn685 2.121 . S
O690 C698 1.258 . S
C691 N692 1.326 . S
C691 C695 1.460 . S
C691 H697 0.929 . S
N692 Mn685 2.257 . S
N692 C691 1.326 . S
N692 C696 1.362 . S
C693 C694 1.258 . S
C693 C696 1.431 . S
C693 C713 1.449 . S
C694 C693 1.258 . S
C694 C695 1.477 . S
C694 H714 0.931 . S
C695 C691 1.460 . S
C695 C694 1.477 . S
C695 H715 0.930 . S
C696 N692 1.362 . S
C696 C693 1.431 . S
C696 C706 1.476 . S
H697 C691 0.929 . S
C698 O689 1.250 . S
C698 O690 1.258 . S
O699 Mn684 2.162 . S
O699 C687 1.281 . S
O700 Mn684 2.297 . S
O700 C687 1.236 . S
N701 Mn685 2.282 . S
N701 C702 1.328 . S
N701 C706 1.318 . S
C702 N701 1.328 . S
C702 C703 1.457 . S
C702 H707 0.929 . S
C703 C702 1.457 . S
C703 C704 1.291 . S
C703 H716 0.931 . S
C704 C703 1.291 . S
C704 C705 1.373 . S
C704 H717 0.929 . S
C705 C704 1.373 . S
C705 C706 1.396 . S
C705 C712 1.403 . S
C706 C696 1.476 . S
C706 N701 1.318 . S
C706 C705 1.396 . S
H707 C702 0.929 . S
O708 Mn684 2.385 . S
O708 C686 1.234 . S
O709 Mn684 2.209 . S
O709 Mn685 2.215 . S
O709 C686 1.283 . S
O710 Mn684 2.080 1_455 S
O710 C688 1.249 . S
O711 Mn685 2.117 1_455 S
O711 C688 1.264 . S
C712 C705 1.403 . S
C712 C713 1.399 . S
C712 H718 0.929 . S
C713 C693 1.449 . S
C713 C712 1.399 . S
C713 H719 0.930 . S
H714 C694 0.931 . S
H715 C695 0.930 . S
H716 C703 0.931 . S
H717 C704 0.929 . S
H718 C712 0.929 . S
H719 C713 0.930 . S
Mn720 O725 2.095 . S
Mn720 O735 2.162 . S
Mn720 O736 2.297 . S
Mn720 O744 2.385 . S
Mn720 O745 2.209 . S
Mn720 O746 2.094 . S
Mn721 O726 2.121 . S
Mn721 N728 2.257 . S
Mn721 N737 2.282 . S
Mn721 O745 2.215 . S
Mn721 O747 2.117 . S
C722 O744 1.234 . S
C722 O745 1.283 . S
C723 O735 1.281 . S
C723 O736 1.236 . S
C724 O746 1.240 . S
C724 O747 1.264 . S
O725 Mn720 2.095 . S
O725 C734 1.250 . S
O726 Mn721 2.121 . S
O726 C734 1.258 . S
C727 N728 1.326 . S
C727 C731 1.460 . S
C727 H733 0.929 . S
N728 Mn721 2.257 . S
N728 C727 1.326 . S
N728 C732 1.362 . S
C729 C730 1.258 . S
C729 C732 1.431 . S
C729 C749 1.449 . S
C730 C729 1.258 . S
C730 C731 1.477 . S
C730 H750 0.931 . S
C731 C727 1.460 . S
C731 C730 1.477 . S
C731 H751 0.930 . S
C732 N728 1.362 . S
C732 C729 1.431 . S
C732 C742 1.476 . S
H733 C727 0.929 . S
C734 O725 1.250 . S
C734 O726 1.258 . S
O735 Mn720 2.162 . S
O735 C723 1.281 . S
O736 Mn720 2.297 . S
O736 C723 1.236 . S
N737 Mn721 2.282 . S
N737 C738 1.328 . S
N737 C742 1.318 . S
C738 N737 1.328 . S
C738 C739 1.457 . S
C738 H743 0.929 . S
C739 C738 1.457 . S
C739 C740 1.291 . S
C739 H752 0.931 . S
C740 C739 1.291 . S
C740 C741 1.373 . S
C740 H753 0.929 . S
C741 C740 1.373 . S
C741 C742 1.396 . S
C741 C748 1.403 . S
C742 C732 1.476 . S
C742 N737 1.318 . S
C742 C741 1.396 . S
H743 C738 0.929 . S
O744 Mn720 2.385 . S
O744 C722 1.234 . S
O745 Mn720 2.209 . S
O745 Mn721 2.215 . S
O745 C722 1.283 . S
O746 Mn720 2.094 . S
O746 C724 1.240 . S
O747 Mn721 2.117 . S
O747 C724 1.264 . S
C748 C741 1.403 . S
C748 C749 1.399 . S
C748 H754 0.929 . S
C749 C729 1.449 . S
C749 C748 1.399 . S
C749 H755 0.930 . S
H750 C730 0.931 . S
H751 C731 0.930 . S
H752 C739 0.931 . S
H753 C740 0.929 . S
H754 C748 0.929 . S
H755 C749 0.930 . S
Mn756 O761 2.095 . S
Mn756 O771 2.162 . S
Mn756 O772 2.297 . S
Mn756 O780 2.385 . S
Mn756 O781 2.209 . S
Mn756 O782 2.080 1_655 S
Mn757 O762 2.121 . S
Mn757 N764 2.257 . S
Mn757 N773 2.282 . S
Mn757 O781 2.215 . S
Mn757 O783 2.117 1_655 S
C758 O780 1.234 . S
C758 O781 1.283 . S
C759 O771 1.281 . S
C759 O772 1.236 . S
C760 O782 1.249 . S
C760 O783 1.264 . S
O761 Mn756 2.095 . S
O761 C770 1.250 . S
O762 Mn757 2.121 . S
O762 C770 1.258 . S
C763 N764 1.326 . S
C763 C767 1.460 . S
C763 H769 0.929 . S
N764 Mn757 2.257 . S
N764 C763 1.326 . S
N764 C768 1.362 . S
C765 C766 1.258 . S
C765 C768 1.431 . S
C765 C785 1.449 . S
C766 C765 1.258 . S
C766 C767 1.477 . S
C766 H786 0.931 . S
C767 C763 1.460 . S
C767 C766 1.477 . S
C767 H787 0.930 . S
C768 N764 1.362 . S
C768 C765 1.431 . S
C768 C778 1.476 . S
H769 C763 0.929 . S
C770 O761 1.250 . S
C770 O762 1.258 . S
O771 Mn756 2.162 . S
O771 C759 1.281 . S
O772 Mn756 2.297 . S
O772 C759 1.236 . S
N773 Mn757 2.282 . S
N773 C774 1.328 . S
N773 C778 1.318 . S
C774 N773 1.328 . S
C774 C775 1.457 . S
C774 H779 0.929 . S
C775 C774 1.457 . S
C775 C776 1.291 . S
C775 H788 0.931 . S
C776 C775 1.291 . S
C776 C777 1.373 . S
C776 H789 0.929 . S
C777 C776 1.373 . S
C777 C778 1.396 . S
C777 C784 1.403 . S
C778 C768 1.476 . S
C778 N773 1.318 . S
C778 C777 1.396 . S
H779 C774 0.929 . S
O780 Mn756 2.385 . S
O780 C758 1.234 . S
O781 Mn756 2.209 . S
O781 Mn757 2.215 . S
O781 C758 1.283 . S
O782 Mn756 2.080 1_455 S
O782 C760 1.249 . S
O783 Mn757 2.117 1_455 S
O783 C760 1.264 . S
C784 C777 1.403 . S
C784 C785 1.399 . S
C784 H790 0.929 . S
C785 C765 1.449 . S
C785 C784 1.399 . S
C785 H791 0.930 . S
H786 C766 0.931 . S
H787 C767 0.930 . S
H788 C775 0.931 . S
H789 C776 0.929 . S
H790 C784 0.929 . S
H791 C785 0.930 . S
Mn792 O797 2.095 . S
Mn792 O807 2.162 . S
Mn792 O808 2.297 . S
Mn792 O816 2.385 . S
Mn792 O817 2.209 . S
Mn792 O818 2.094 . S
Mn793 O798 2.121 . S
Mn793 N800 2.257 . S
Mn793 N809 2.282 . S
Mn793 O817 2.215 . S
Mn793 O819 2.117 . S
C794 O816 1.234 . S
C794 O817 1.283 . S
C795 O807 1.281 . S
C795 O808 1.236 . S
C796 O818 1.240 . S
C796 O819 1.264 . S
O797 Mn792 2.095 . S
O797 C806 1.250 . S
O798 Mn793 2.121 . S
O798 C806 1.258 . S
C799 N800 1.326 . S
C799 C803 1.460 . S
C799 H805 0.929 . S
N800 Mn793 2.257 . S
N800 C799 1.326 . S
N800 C804 1.362 . S
C801 C802 1.258 . S
C801 C804 1.431 . S
C801 C821 1.449 . S
C802 C801 1.258 . S
C802 C803 1.477 . S
C802 H822 0.931 . S
C803 C799 1.460 . S
C803 C802 1.477 . S
C803 H823 0.930 . S
C804 N800 1.362 . S
C804 C801 1.431 . S
C804 C814 1.476 . S
H805 C799 0.929 . S
C806 O797 1.250 . S
C806 O798 1.258 . S
O807 Mn792 2.162 . S
O807 C795 1.281 . S
O808 Mn792 2.297 . S
O808 C795 1.236 . S
N809 Mn793 2.282 . S
N809 C810 1.328 . S
N809 C814 1.318 . S
C810 N809 1.328 . S
C810 C811 1.457 . S
C810 H815 0.929 . S
C811 C810 1.457 . S
C811 C812 1.291 . S
C811 H824 0.931 . S
C812 C811 1.291 . S
C812 C813 1.373 . S
C812 H825 0.929 . S
C813 C812 1.373 . S
C813 C814 1.396 . S
C813 C820 1.403 . S
C814 C804 1.476 . S
C814 N809 1.318 . S
C814 C813 1.396 . S
H815 C810 0.929 . S
O816 Mn792 2.385 . S
O816 C794 1.234 . S
O817 Mn792 2.209 . S
O817 Mn793 2.215 . S
O817 C794 1.283 . S
O818 Mn792 2.094 . S
O818 C796 1.240 . S
O819 Mn793 2.117 . S
O819 C796 1.264 . S
C820 C813 1.403 . S
C820 C821 1.399 . S
C820 H826 0.929 . S
C821 C801 1.449 . S
C821 C820 1.399 . S
C821 H827 0.930 . S
H822 C802 0.931 . S
H823 C803 0.930 . S
H824 C811 0.931 . S
H825 C812 0.929 . S
H826 C820 0.929 . S
H827 C821 0.930 . S
Mn828 O833 2.095 . S
Mn828 O843 2.162 . S
Mn828 O844 2.297 . S
Mn828 O852 2.385 . S
Mn828 O853 2.209 . S
Mn828 O854 2.094 . S
Mn829 O834 2.121 . S
Mn829 N836 2.257 . S
Mn829 N845 2.282 . S
Mn829 O853 2.215 . S
Mn829 O855 2.117 . S
C830 O852 1.234 . S
C830 O853 1.283 . S
C831 O843 1.281 . S
C831 O844 1.236 . S
C832 O854 1.240 . S
C832 O855 1.264 . S
O833 Mn828 2.095 . S
O833 C842 1.250 . S
O834 Mn829 2.121 . S
O834 C842 1.258 . S
C835 N836 1.326 . S
C835 C839 1.460 . S
C835 H841 0.929 . S
N836 Mn829 2.257 . S
N836 C835 1.326 . S
N836 C840 1.362 . S
C837 C838 1.258 . S
C837 C840 1.431 . S
C837 C857 1.449 . S
C838 C837 1.258 . S
C838 C839 1.477 . S
C838 H858 0.931 . S
C839 C835 1.460 . S
C839 C838 1.477 . S
C839 H859 0.930 . S
C840 N836 1.362 . S
C840 C837 1.431 . S
C840 C850 1.476 . S
H841 C835 0.929 . S
C842 O833 1.250 . S
C842 O834 1.258 . S
O843 Mn828 2.162 . S
O843 C831 1.281 . S
O844 Mn828 2.297 . S
O844 C831 1.236 . S
N845 Mn829 2.282 . S
N845 C846 1.328 . S
N845 C850 1.318 . S
C846 N845 1.328 . S
C846 C847 1.457 . S
C846 H851 0.929 . S
C847 C846 1.457 . S
C847 C848 1.291 . S
C847 H860 0.931 . S
C848 C847 1.291 . S
C848 C849 1.373 . S
C848 H861 0.929 . S
C849 C848 1.373 . S
C849 C850 1.396 . S
C849 C856 1.403 . S
C850 C840 1.476 . S
C850 N845 1.318 . S
C850 C849 1.396 . S
H851 C846 0.929 . S
O852 Mn828 2.385 . S
O852 C830 1.234 . S
O853 Mn828 2.209 . S
O853 Mn829 2.215 . S
O853 C830 1.283 . S
O854 Mn828 2.094 . S
O854 C832 1.240 . S
O855 Mn829 2.117 . S
O855 C832 1.264 . S
C856 C849 1.403 . S
C856 C857 1.399 . S
C856 H862 0.929 . S
C857 C837 1.449 . S
C857 C856 1.399 . S
C857 H863 0.930 . S
H858 C838 0.931 . S
H859 C839 0.930 . S
H860 C847 0.931 . S
H861 C848 0.929 . S
H862 C856 0.929 . S
H863 C857 0.930 . S
Mn864 O869 2.095 . S
Mn864 O879 2.162 . S
Mn864 O880 2.297 . S
Mn864 O888 2.385 . S
Mn864 O889 2.209 . S
Mn864 O890 2.094 . S
Mn865 O870 2.121 . S
Mn865 N872 2.257 . S
Mn865 N881 2.282 . S
Mn865 O889 2.215 . S
Mn865 O891 2.117 . S
C866 O888 1.234 . S
C866 O889 1.283 . S
C867 O879 1.281 . S
C867 O880 1.236 . S
C868 O890 1.240 . S
C868 O891 1.264 . S
O869 Mn864 2.095 . S
O869 C878 1.250 . S
O870 Mn865 2.121 . S
O870 C878 1.258 . S
C871 N872 1.326 . S
C871 C875 1.460 . S
C871 H877 0.929 . S
N872 Mn865 2.257 . S
N872 C871 1.326 . S
N872 C876 1.362 . S
C873 C874 1.258 . S
C873 C876 1.431 . S
C873 C893 1.449 . S
C874 C873 1.258 . S
C874 C875 1.477 . S
C874 H894 0.931 . S
C875 C871 1.460 . S
C875 C874 1.477 . S
C875 H895 0.930 . S
C876 N872 1.362 . S
C876 C873 1.431 . S
C876 C886 1.476 . S
H877 C871 0.929 . S
C878 O869 1.250 . S
C878 O870 1.258 . S
O879 Mn864 2.162 . S
O879 C867 1.281 . S
O880 Mn864 2.297 . S
O880 C867 1.236 . S
N881 Mn865 2.282 . S
N881 C882 1.328 . S
N881 C886 1.318 . S
C882 N881 1.328 . S
C882 C883 1.457 . S
C882 H887 0.929 . S
C883 C882 1.457 . S
C883 C884 1.291 . S
C883 H896 0.931 . S
C884 C883 1.291 . S
C884 C885 1.373 . S
C884 H897 0.929 . S
C885 C884 1.373 . S
C885 C886 1.396 . S
C885 C892 1.403 . S
C886 C876 1.476 . S
C886 N881 1.318 . S
C886 C885 1.396 . S
H887 C882 0.929 . S
O888 Mn864 2.385 . S
O888 C866 1.234 . S
O889 Mn864 2.209 . S
O889 Mn865 2.215 . S
O889 C866 1.283 . S
O890 Mn864 2.094 . S
O890 C868 1.240 . S
O891 Mn865 2.117 . S
O891 C868 1.264 . S
C892 C885 1.403 . S
C892 C893 1.399 . S
C892 H898 0.929 . S
C893 C873 1.449 . S
C893 C892 1.399 . S
C893 H899 0.930 . S
H894 C874 0.931 . S
H895 C875 0.930 . S
H896 C883 0.931 . S
H897 C884 0.929 . S
H898 C892 0.929 . S
H899 C893 0.930 . S
Mn900 O905 2.095 . S
Mn900 O915 2.162 . S
Mn900 O916 2.297 . S
Mn900 O924 2.385 . S
Mn900 O925 2.209 . S
Mn900 O926 2.094 . S
Mn901 O906 2.121 . S
Mn901 N908 2.257 . S
Mn901 N917 2.282 . S
Mn901 O925 2.215 . S
Mn901 O927 2.117 . S
C902 O924 1.234 . S
C902 O925 1.283 . S
C903 O915 1.281 . S
C903 O916 1.236 . S
C904 O926 1.240 . S
C904 O927 1.264 . S
O905 Mn900 2.095 . S
O905 C914 1.250 . S
O906 Mn901 2.121 . S
O906 C914 1.258 . S
C907 N908 1.326 . S
C907 C911 1.460 . S
C907 H913 0.929 . S
N908 Mn901 2.257 . S
N908 C907 1.326 . S
N908 C912 1.362 . S
C909 C910 1.258 . S
C909 C912 1.431 . S
C909 C929 1.449 . S
C910 C909 1.258 . S
C910 C911 1.477 . S
C910 H930 0.931 . S
C911 C907 1.460 . S
C911 C910 1.477 . S
C911 H931 0.930 . S
C912 N908 1.362 . S
C912 C909 1.431 . S
C912 C922 1.476 . S
H913 C907 0.929 . S
C914 O905 1.250 . S
C914 O906 1.258 . S
O915 Mn900 2.162 . S
O915 C903 1.281 . S
O916 Mn900 2.297 . S
O916 C903 1.236 . S
N917 Mn901 2.282 . S
N917 C918 1.328 . S
N917 C922 1.318 . S
C918 N917 1.328 . S
C918 C919 1.457 . S
C918 H923 0.929 . S
C919 C918 1.457 . S
C919 C920 1.291 . S
C919 H932 0.931 . S
C920 C919 1.291 . S
C920 C921 1.373 . S
C920 H933 0.929 . S
C921 C920 1.373 . S
C921 C922 1.396 . S
C921 C928 1.403 . S
C922 C912 1.476 . S
C922 N917 1.318 . S
C922 C921 1.396 . S
H923 C918 0.929 . S
O924 Mn900 2.385 . S
O924 C902 1.234 . S
O925 Mn900 2.209 . S
O925 Mn901 2.215 . S
O925 C902 1.283 . S
O926 Mn900 2.094 . S
O926 C904 1.240 . S
O927 Mn901 2.117 . S
O927 C904 1.264 . S
C928 C921 1.403 . S
C928 C929 1.399 . S
C928 H934 0.929 . S
C929 C909 1.449 . S
C929 C928 1.399 . S
C929 H935 0.930 . S
H930 C910 0.931 . S
H931 C911 0.930 . S
H932 C919 0.931 . S
H933 C920 0.929 . S
H934 C928 0.929 . S
H935 C929 0.930 . S
Mn936 O941 2.095 . S
Mn936 O951 2.162 . S
Mn936 O952 2.297 . S
Mn936 O960 2.385 . S
Mn936 O961 2.209 . S
Mn936 O962 2.094 . S
Mn937 O942 2.121 . S
Mn937 N944 2.257 . S
Mn937 N953 2.282 . S
Mn937 O961 2.215 . S
Mn937 O963 2.117 . S
C938 O960 1.234 . S
C938 O961 1.283 . S
C939 O951 1.281 . S
C939 O952 1.236 . S
C940 O962 1.240 . S
C940 O963 1.264 . S
O941 Mn936 2.095 . S
O941 C950 1.250 . S
O942 Mn937 2.121 . S
O942 C950 1.258 . S
C943 N944 1.326 . S
C943 C947 1.460 . S
C943 H949 0.929 . S
N944 Mn937 2.257 . S
N944 C943 1.326 . S
N944 C948 1.362 . S
C945 C946 1.258 . S
C945 C948 1.431 . S
C945 C965 1.449 . S
C946 C945 1.258 . S
C946 C947 1.477 . S
C946 H966 0.931 . S
C947 C943 1.460 . S
C947 C946 1.477 . S
C947 H967 0.930 . S
C948 N944 1.362 . S
C948 C945 1.431 . S
C948 C958 1.476 . S
H949 C943 0.929 . S
C950 O941 1.250 . S
C950 O942 1.258 . S
O951 Mn936 2.162 . S
O951 C939 1.281 . S
O952 Mn936 2.297 . S
O952 C939 1.236 . S
N953 Mn937 2.282 . S
N953 C954 1.328 . S
N953 C958 1.318 . S
C954 N953 1.328 . S
C954 C955 1.457 . S
C954 H959 0.929 . S
C955 C954 1.457 . S
C955 C956 1.291 . S
C955 H968 0.931 . S
C956 C955 1.291 . S
C956 C957 1.373 . S
C956 H969 0.929 . S
C957 C956 1.373 . S
C957 C958 1.396 . S
C957 C964 1.403 . S
C958 C948 1.476 . S
C958 N953 1.318 . S
C958 C957 1.396 . S
H959 C954 0.929 . S
O960 Mn936 2.385 . S
O960 C938 1.234 . S
O961 Mn936 2.209 . S
O961 Mn937 2.215 . S
O961 C938 1.283 . S
O962 Mn936 2.094 . S
O962 C940 1.240 . S
O963 Mn937 2.117 . S
O963 C940 1.264 . S
C964 C957 1.403 . S
C964 C965 1.399 . S
C964 H970 0.929 . S
C965 C945 1.449 . S
C965 C964 1.399 . S
C965 H971 0.930 . S
H966 C946 0.931 . S
H967 C947 0.930 . S
H968 C955 0.931 . S
H969 C956 0.929 . S
H970 C964 0.929 . S
H971 C965 0.930 . S
Mn972 O977 2.095 . S
Mn972 O987 2.162 1_455 S
Mn972 O988 2.297 1_455 S
Mn972 O996 2.385 . S
Mn972 O997 2.209 . S
Mn972 O998 2.094 . S
Mn973 O978 2.121 . S
Mn973 N980 2.257 . S
Mn973 N989 2.282 . S
Mn973 O997 2.215 . S
Mn973 O999 2.117 . S
C974 O996 1.234 . S
C974 O997 1.283 . S
C975 O987 1.281 . S
C975 O988 1.236 . S
C976 O998 1.240 . S
C976 O999 1.264 . S
O977 Mn972 2.095 . S
O977 C986 1.250 . S
O978 Mn973 2.121 . S
O978 C986 1.258 . S
C979 N980 1.326 . S
C979 C983 1.460 . S
C979 H985 0.929 . S
N980 Mn973 2.257 . S
N980 C979 1.326 . S
N980 C984 1.362 . S
C981 C982 1.258 . S
C981 C984 1.431 . S
C981 C1001 1.449 . S
C982 C981 1.258 . S
C982 C983 1.477 . S
C982 H1002 0.931 . S
C983 C979 1.460 . S
C983 C982 1.477 . S
C983 H1003 0.930 . S
C984 N980 1.362 . S
C984 C981 1.431 . S
C984 C994 1.476 . S
H985 C979 0.929 . S
C986 O977 1.250 . S
C986 O978 1.258 . S
O987 Mn972 2.162 1_655 S
O987 C975 1.281 . S
O988 Mn972 2.297 1_655 S
O988 C975 1.236 . S
N989 Mn973 2.282 . S
N989 C990 1.328 . S
N989 C994 1.318 . S
C990 N989 1.328 . S
C990 C991 1.457 . S
C990 H995 0.929 . S
C991 C990 1.457 . S
C991 C992 1.291 . S
C991 H1004 0.931 . S
C992 C991 1.291 . S
C992 C993 1.373 . S
C992 H1005 0.929 . S
C993 C992 1.373 . S
C993 C994 1.396 . S
C993 C1000 1.403 . S
C994 C984 1.476 . S
C994 N989 1.318 . S
C994 C993 1.396 . S
H995 C990 0.929 . S
O996 Mn972 2.385 . S
O996 C974 1.234 . S
O997 Mn972 2.209 . S
O997 Mn973 2.215 . S
O997 C974 1.283 . S
O998 Mn972 2.094 . S
O998 C976 1.240 . S
O999 Mn973 2.117 . S
O999 C976 1.264 . S
C1000 C993 1.403 . S
C1000 C1001 1.399 . S
C1000 H1006 0.929 . S
C1001 C981 1.449 . S
C1001 C1000 1.399 . S
C1001 H1007 0.930 . S
H1002 C982 0.931 . S
H1003 C983 0.930 . S
H1004 C991 0.931 . S
H1005 C992 0.929 . S
H1006 C1000 0.929 . S
H1007 C1001 0.930 . S
Mn1008 O1013 2.095 . S
Mn1008 O1023 2.162 . S
Mn1008 O1024 2.297 . S
Mn1008 O1032 2.385 . S
Mn1008 O1033 2.209 . S
Mn1008 O1034 2.094 . S
Mn1009 O1014 2.121 . S
Mn1009 N1016 2.257 . S
Mn1009 N1025 2.282 . S
Mn1009 O1033 2.215 . S
Mn1009 O1035 2.117 . S
C1010 O1032 1.234 . S
C1010 O1033 1.283 . S
C1011 O1023 1.281 . S
C1011 O1024 1.236 . S
C1012 O1034 1.240 . S
C1012 O1035 1.264 . S
O1013 Mn1008 2.095 . S
O1013 C1022 1.250 . S
O1014 Mn1009 2.121 . S
O1014 C1022 1.258 . S
C1015 N1016 1.326 . S
C1015 C1019 1.460 . S
C1015 H1021 0.929 . S
N1016 Mn1009 2.257 . S
N1016 C1015 1.326 . S
N1016 C1020 1.362 . S
C1017 C1018 1.258 . S
C1017 C1020 1.431 . S
C1017 C1037 1.449 . S
C1018 C1017 1.258 . S
C1018 C1019 1.477 . S
C1018 H1038 0.931 . S
C1019 C1015 1.460 . S
C1019 C1018 1.477 . S
C1019 H1039 0.930 . S
C1020 N1016 1.362 . S
C1020 C1017 1.431 . S
C1020 C1030 1.476 . S
H1021 C1015 0.929 . S
C1022 O1013 1.250 . S
C1022 O1014 1.258 . S
O1023 Mn1008 2.162 . S
O1023 C1011 1.281 . S
O1024 Mn1008 2.297 . S
O1024 C1011 1.236 . S
N1025 Mn1009 2.282 . S
N1025 C1026 1.328 . S
N1025 C1030 1.318 . S
C1026 N1025 1.328 . S
C1026 C1027 1.457 . S
C1026 H1031 0.929 . S
C1027 C1026 1.457 . S
C1027 C1028 1.291 . S
C1027 H1040 0.931 . S
C1028 C1027 1.291 . S
C1028 C1029 1.373 . S
C1028 H1041 0.929 . S
C1029 C1028 1.373 . S
C1029 C1030 1.396 . S
C1029 C1036 1.403 . S
C1030 C1020 1.476 . S
C1030 N1025 1.318 . S
C1030 C1029 1.396 . S
H1031 C1026 0.929 . S
O1032 Mn1008 2.385 . S
O1032 C1010 1.234 . S
O1033 Mn1008 2.209 . S
O1033 Mn1009 2.215 . S
O1033 C1010 1.283 . S
O1034 Mn1008 2.094 . S
O1034 C1012 1.240 . S
O1035 Mn1009 2.117 . S
O1035 C1012 1.264 . S
C1036 C1029 1.403 . S
C1036 C1037 1.399 . S
C1036 H1042 0.929 . S
C1037 C1017 1.449 . S
C1037 C1036 1.399 . S
C1037 H1043 0.930 . S
H1038 C1018 0.931 . S
H1039 C1019 0.930 . S
H1040 C1027 0.931 . S
H1041 C1028 0.929 . S
H1042 C1036 0.929 . S
H1043 C1037 0.930 . S
Mn1044 O1049 2.095 . S
Mn1044 O1059 2.162 1_455 S
Mn1044 O1060 2.297 1_455 S
Mn1044 O1068 2.385 . S
Mn1044 O1069 2.209 . S
Mn1044 O1070 2.094 . S
Mn1045 O1050 2.121 . S
Mn1045 N1052 2.257 . S
Mn1045 N1061 2.282 . S
Mn1045 O1069 2.215 . S
Mn1045 O1071 2.117 . S
C1046 O1068 1.234 . S
C1046 O1069 1.283 . S
C1047 O1059 1.281 . S
C1047 O1060 1.236 . S
C1048 O1070 1.240 . S
C1048 O1071 1.264 . S
O1049 Mn1044 2.095 . S
O1049 C1058 1.250 . S
O1050 Mn1045 2.121 . S
O1050 C1058 1.258 . S
C1051 N1052 1.326 . S
C1051 C1055 1.460 . S
C1051 H1057 0.929 . S
N1052 Mn1045 2.257 . S
N1052 C1051 1.326 . S
N1052 C1056 1.362 . S
C1053 C1054 1.258 . S
C1053 C1056 1.431 . S
C1053 C1073 1.449 . S
C1054 C1053 1.258 . S
C1054 C1055 1.477 . S
C1054 H1074 0.931 . S
C1055 C1051 1.460 . S
C1055 C1054 1.477 . S
C1055 H1075 0.930 . S
C1056 N1052 1.362 . S
C1056 C1053 1.431 . S
C1056 C1066 1.476 . S
H1057 C1051 0.929 . S
C1058 O1049 1.250 . S
C1058 O1050 1.258 . S
O1059 Mn1044 2.162 1_655 S
O1059 C1047 1.281 . S
O1060 Mn1044 2.297 1_655 S
O1060 C1047 1.236 . S
N1061 Mn1045 2.282 . S
N1061 C1062 1.328 . S
N1061 C1066 1.318 . S
C1062 N1061 1.328 . S
C1062 C1063 1.457 . S
C1062 H1067 0.929 . S
C1063 C1062 1.457 . S
C1063 C1064 1.291 . S
C1063 H1076 0.931 . S
C1064 C1063 1.291 . S
C1064 C1065 1.373 . S
C1064 H1077 0.929 . S
C1065 C1064 1.373 . S
C1065 C1066 1.396 . S
C1065 C1072 1.403 . S
C1066 C1056 1.476 . S
C1066 N1061 1.318 . S
C1066 C1065 1.396 . S
H1067 C1062 0.929 . S
O1068 Mn1044 2.385 . S
O1068 C1046 1.234 . S
O1069 Mn1044 2.209 . S
O1069 Mn1045 2.215 . S
O1069 C1046 1.283 . S
O1070 Mn1044 2.094 . S
O1070 C1048 1.240 . S
O1071 Mn1045 2.117 . S
O1071 C1048 1.264 . S
C1072 C1065 1.403 . S
C1072 C1073 1.399 . S
C1072 H1078 0.929 . S
C1073 C1053 1.449 . S
C1073 C1072 1.399 . S
C1073 H1079 0.930 . S
H1074 C1054 0.931 . S
H1075 C1055 0.930 . S
H1076 C1063 0.931 . S
H1077 C1064 0.929 . S
H1078 C1072 0.929 . S
H1079 C1073 0.930 . S
Mn1080 O1085 2.095 . S
Mn1080 O1095 2.162 . S
Mn1080 O1096 2.297 . S
Mn1080 O1104 2.385 . S
Mn1080 O1105 2.209 . S
Mn1080 O1106 2.094 . S
Mn1081 O1086 2.121 . S
Mn1081 N1088 2.257 . S
Mn1081 N1097 2.282 . S
Mn1081 O1105 2.215 . S
Mn1081 O1107 2.117 . S
C1082 O1104 1.234 . S
C1082 O1105 1.283 . S
C1083 O1095 1.281 . S
C1083 O1096 1.236 . S
C1084 O1106 1.240 . S
C1084 O1107 1.264 . S
O1085 Mn1080 2.095 . S
O1085 C1094 1.250 . S
O1086 Mn1081 2.121 . S
O1086 C1094 1.258 . S
C1087 N1088 1.326 . S
C1087 C1091 1.460 . S
C1087 H1093 0.929 . S
N1088 Mn1081 2.257 . S
N1088 C1087 1.326 . S
N1088 C1092 1.362 . S
C1089 C1090 1.258 . S
C1089 C1092 1.431 . S
C1089 C1109 1.449 . S
C1090 C1089 1.258 . S
C1090 C1091 1.477 . S
C1090 H1110 0.931 . S
C1091 C1087 1.460 . S
C1091 C1090 1.477 . S
C1091 H1111 0.930 . S
C1092 N1088 1.362 . S
C1092 C1089 1.431 . S
C1092 C1102 1.476 . S
H1093 C1087 0.929 . S
C1094 O1085 1.250 . S
C1094 O1086 1.258 . S
O1095 Mn1080 2.162 . S
O1095 C1083 1.281 . S
O1096 Mn1080 2.297 . S
O1096 C1083 1.236 . S
N1097 Mn1081 2.282 . S
N1097 C1098 1.328 . S
N1097 C1102 1.318 . S
C1098 N1097 1.328 . S
C1098 C1099 1.457 . S
C1098 H1103 0.929 . S
C1099 C1098 1.457 . S
C1099 C1100 1.291 . S
C1099 H1112 0.931 . S
C1100 C1099 1.291 . S
C1100 C1101 1.373 . S
C1100 H1113 0.929 . S
C1101 C1100 1.373 . S
C1101 C1102 1.396 . S
C1101 C1108 1.403 . S
C1102 C1092 1.476 . S
C1102 N1097 1.318 . S
C1102 C1101 1.396 . S
H1103 C1098 0.929 . S
O1104 Mn1080 2.385 . S
O1104 C1082 1.234 . S
O1105 Mn1080 2.209 . S
O1105 Mn1081 2.215 . S
O1105 C1082 1.283 . S
O1106 Mn1080 2.094 . S
O1106 C1084 1.240 . S
O1107 Mn1081 2.117 . S
O1107 C1084 1.264 . S
C1108 C1101 1.403 . S
C1108 C1109 1.399 . S
C1108 H1114 0.929 . S
C1109 C1089 1.449 . S
C1109 C1108 1.399 . S
C1109 H1115 0.930 . S
H1110 C1090 0.931 . S
H1111 C1091 0.930 . S
H1112 C1099 0.931 . S
H1113 C1100 0.929 . S
H1114 C1108 0.929 . S
H1115 C1109 0.930 . S
Mn1116 O1121 2.095 . S
Mn1116 O1131 2.162 . S
Mn1116 O1132 2.297 . S
Mn1116 O1140 2.385 . S
Mn1116 O1141 2.209 . S
Mn1116 O1142 2.094 . S
Mn1117 O1122 2.121 . S
Mn1117 N1124 2.257 . S
Mn1117 N1133 2.282 . S
Mn1117 O1141 2.215 . S
Mn1117 O1143 2.117 . S
C1118 O1140 1.234 . S
C1118 O1141 1.283 . S
C1119 O1131 1.281 . S
C1119 O1132 1.236 . S
C1120 O1142 1.240 . S
C1120 O1143 1.264 . S
O1121 Mn1116 2.095 . S
O1121 C1130 1.250 . S
O1122 Mn1117 2.121 . S
O1122 C1130 1.258 . S
C1123 N1124 1.326 . S
C1123 C1127 1.460 . S
C1123 H1129 0.929 . S
N1124 Mn1117 2.257 . S
N1124 C1123 1.326 . S
N1124 C1128 1.362 . S
C1125 C1126 1.258 . S
C1125 C1128 1.431 . S
C1125 C1145 1.449 . S
C1126 C1125 1.258 . S
C1126 C1127 1.477 . S
C1126 H1146 0.931 . S
C1127 C1123 1.460 . S
C1127 C1126 1.477 . S
C1127 H1147 0.930 . S
C1128 N1124 1.362 . S
C1128 C1125 1.431 . S
C1128 C1138 1.476 . S
H1129 C1123 0.929 . S
C1130 O1121 1.250 . S
C1130 O1122 1.258 . S
O1131 Mn1116 2.162 . S
O1131 C1119 1.281 . S
O1132 Mn1116 2.297 . S
O1132 C1119 1.236 . S
N1133 Mn1117 2.282 . S
N1133 C1134 1.328 . S
N1133 C1138 1.318 . S
C1134 N1133 1.328 . S
C1134 C1135 1.457 . S
C1134 H1139 0.929 . S
C1135 C1134 1.457 . S
C1135 C1136 1.291 . S
C1135 H1148 0.931 . S
C1136 C1135 1.291 . S
C1136 C1137 1.373 . S
C1136 H1149 0.929 . S
C1137 C1136 1.373 . S
C1137 C1138 1.396 . S
C1137 C1144 1.403 . S
C1138 C1128 1.476 . S
C1138 N1133 1.318 . S
C1138 C1137 1.396 . S
H1139 C1134 0.929 . S
O1140 Mn1116 2.385 . S
O1140 C1118 1.234 . S
O1141 Mn1116 2.209 . S
O1141 Mn1117 2.215 . S
O1141 C1118 1.283 . S
O1142 Mn1116 2.094 . S
O1142 C1120 1.240 . S
O1143 Mn1117 2.117 . S
O1143 C1120 1.264 . S
C1144 C1137 1.403 . S
C1144 C1145 1.399 . S
C1144 H1150 0.929 . S
C1145 C1125 1.449 . S
C1145 C1144 1.399 . S
C1145 H1151 0.930 . S
H1146 C1126 0.931 . S
H1147 C1127 0.930 . S
H1148 C1135 0.931 . S
H1149 C1136 0.929 . S
H1150 C1144 0.929 . S
H1151 C1145 0.930 . S
H1152 C1158 0.930 . S
H1153 C1161 0.930 . S
H1154 C1162 0.930 . S
H1155 C1163 0.930 . S
H1156 C1166 0.930 . S
H1157 C1167 0.930 . S
C1158 H1152 0.930 . S
C1158 C1159 1.355 . S
C1158 C1160 1.415 . S
C1159 C1158 1.355 . S
C1159 C1161 1.419 . S
C1160 C1158 1.415 . S
C1160 C1165 1.425 . S
C1160 C1167 1.409 . S
C1161 H1153 0.930 . S
C1161 C1159 1.419 . S
C1161 C1162 1.362 . S
C1162 H1154 0.930 . S
C1162 C1161 1.362 . S
C1162 C1165 1.409 . S
C1163 H1155 0.930 . S
C1163 C1164 1.355 . S
C1163 C1165 1.415 . S
C1164 C1163 1.355 . S
C1164 C1166 1.419 . S
C1165 C1160 1.425 . S
C1165 C1162 1.409 . S
C1165 C1163 1.415 . S
C1166 H1156 0.930 . S
C1166 C1164 1.419 . S
C1166 C1167 1.362 . S
C1167 H1157 0.930 . S
C1167 C1160 1.409 . S
C1167 C1166 1.362 . S
H1168 C1174 0.930 . S
H1169 C1177 0.930 . S
H1170 C1178 0.930 . S
H1171 C1179 0.930 . S
H1172 C1182 0.930 . S
H1173 C1183 0.930 . S
C1174 H1168 0.930 . S
C1174 C1175 1.355 . S
C1174 C1176 1.415 . S
C1175 C1174 1.355 . S
C1175 C1177 1.419 . S
C1176 C1174 1.415 . S
C1176 C1181 1.425 . S
C1176 C1183 1.409 . S
C1177 H1169 0.930 . S
C1177 C1175 1.419 . S
C1177 C1178 1.362 . S
C1178 H1170 0.930 . S
C1178 C1177 1.362 . S
C1178 C1181 1.409 . S
C1179 H1171 0.930 . S
C1179 C1180 1.355 . S
C1179 C1181 1.415 . S
C1180 C1179 1.355 . S
C1180 C1182 1.419 . S
C1181 C1176 1.425 . S
C1181 C1178 1.409 . S
C1181 C1179 1.415 . S
C1182 H1172 0.930 . S
C1182 C1180 1.419 . S
C1182 C1183 1.362 . S
C1183 H1173 0.930 . S
C1183 C1176 1.409 . S
C1183 C1182 1.362 . S
H1184 C1190 0.930 . S
H1185 C1193 0.930 . S
H1186 C1194 0.930 . S
H1187 C1195 0.930 . S
H1188 C1198 0.930 . S
H1189 C1199 0.930 . S
C1190 H1184 0.930 . S
C1190 C1191 1.355 . S
C1190 C1192 1.415 . S
C1191 C1190 1.355 . S
C1191 C1193 1.419 . S
C1192 C1190 1.415 . S
C1192 C1197 1.425 . S
C1192 C1199 1.409 . S
C1193 H1185 0.930 . S
C1193 C1191 1.419 . S
C1193 C1194 1.362 . S
C1194 H1186 0.930 . S
C1194 C1193 1.362 . S
C1194 C1197 1.409 . S
C1195 H1187 0.930 . S
C1195 C1196 1.355 . S
C1195 C1197 1.415 . S
C1196 C1195 1.355 . S
C1196 C1198 1.419 . S
C1197 C1192 1.425 . S
C1197 C1194 1.409 . S
C1197 C1195 1.415 . S
C1198 H1188 0.930 . S
C1198 C1196 1.419 . S
C1198 C1199 1.362 . S
C1199 H1189 0.930 . S
C1199 C1192 1.409 . S
C1199 C1198 1.362 . S
H1200 C1206 0.930 . S
H1201 C1209 0.930 . S
H1202 C1210 0.930 . S
H1203 C1211 0.930 . S
H1204 C1214 0.930 . S
H1205 C1215 0.930 . S
C1206 H1200 0.930 . S
C1206 C1207 1.355 . S
C1206 C1208 1.415 . S
C1207 C1206 1.355 . S
C1207 C1209 1.419 . S
C1208 C1206 1.415 . S
C1208 C1213 1.425 . S
C1208 C1215 1.409 . S
C1209 H1201 0.930 . S
C1209 C1207 1.419 . S
C1209 C1210 1.362 . S
C1210 H1202 0.930 . S
C1210 C1209 1.362 . S
C1210 C1213 1.409 . S
C1211 H1203 0.930 . S
C1211 C1212 1.355 . S
C1211 C1213 1.415 . S
C1212 C1211 1.355 . S
C1212 C1214 1.419 . S
C1213 C1208 1.425 . S
C1213 C1210 1.409 . S
C1213 C1211 1.415 . S
C1214 H1204 0.930 . S
C1214 C1212 1.419 . S
C1214 C1215 1.362 . S
C1215 H1205 0.930 . S
C1215 C1208 1.409 . S
C1215 C1214 1.362 . S
H1216 C1222 0.930 . S
H1217 C1225 0.930 . S
H1218 C1226 0.930 . S
H1219 C1227 0.930 . S
H1220 C1230 0.930 . S
H1221 C1231 0.930 . S
C1222 H1216 0.930 . S
C1222 C1223 1.355 . S
C1222 C1224 1.415 . S
C1223 C1222 1.355 . S
C1223 C1225 1.419 . S
C1224 C1222 1.415 . S
C1224 C1229 1.425 . S
C1224 C1231 1.409 . S
C1225 H1217 0.930 . S
C1225 C1223 1.419 . S
C1225 C1226 1.362 . S
C1226 H1218 0.930 . S
C1226 C1225 1.362 . S
C1226 C1229 1.409 . S
C1227 H1219 0.930 . S
C1227 C1228 1.355 . S
C1227 C1229 1.415 . S
C1228 C1227 1.355 . S
C1228 C1230 1.419 . S
C1229 C1224 1.425 . S
C1229 C1226 1.409 . S
C1229 C1227 1.415 . S
C1230 H1220 0.930 . S
C1230 C1228 1.419 . S
C1230 C1231 1.362 . S
C1231 H1221 0.930 . S
C1231 C1224 1.409 . S
C1231 C1230 1.362 . S
H1232 C1238 0.930 . S
H1233 C1241 0.930 . S
H1234 C1242 0.930 . S
H1235 C1243 0.930 . S
H1236 C1246 0.930 . S
H1237 C1247 0.930 . S
C1238 H1232 0.930 . S
C1238 C1239 1.355 . S
C1238 C1240 1.415 . S
C1239 C1238 1.355 . S
C1239 C1241 1.419 . S
C1240 C1238 1.415 . S
C1240 C1245 1.425 . S
C1240 C1247 1.409 . S
C1241 H1233 0.930 . S
C1241 C1239 1.419 . S
C1241 C1242 1.362 . S
C1242 H1234 0.930 . S
C1242 C1241 1.362 . S
C1242 C1245 1.409 . S
C1243 H1235 0.930 . S
C1243 C1244 1.355 . S
C1243 C1245 1.415 . S
C1244 C1243 1.355 . S
C1244 C1246 1.419 . S
C1245 C1240 1.425 . S
C1245 C1242 1.409 . S
C1245 C1243 1.415 . S
C1246 H1236 0.930 . S
C1246 C1244 1.419 . S
C1246 C1247 1.362 . S
C1247 H1237 0.930 . S
C1247 C1240 1.409 . S
C1247 C1246 1.362 . S
H1248 C1254 0.930 . S
H1249 C1257 0.930 . S
H1250 C1258 0.930 . S
H1251 C1259 0.930 . S
H1252 C1262 0.930 . S
H1253 C1263 0.930 . S
C1254 H1248 0.930 . S
C1254 C1255 1.355 . S
C1254 C1256 1.415 . S
C1255 C1254 1.355 . S
C1255 C1257 1.419 . S
C1256 C1254 1.415 . S
C1256 C1261 1.425 . S
C1256 C1263 1.409 . S
C1257 H1249 0.930 . S
C1257 C1255 1.419 . S
C1257 C1258 1.362 . S
C1258 H1250 0.930 . S
C1258 C1257 1.362 . S
C1258 C1261 1.409 . S
C1259 H1251 0.930 . S
C1259 C1260 1.355 . S
C1259 C1261 1.415 . S
C1260 C1259 1.355 . S
C1260 C1262 1.419 . S
C1261 C1256 1.425 . S
C1261 C1258 1.409 . S
C1261 C1259 1.415 . S
C1262 H1252 0.930 . S
C1262 C1260 1.419 . S
C1262 C1263 1.362 . S
C1263 H1253 0.930 . S
C1263 C1256 1.409 . S
C1263 C1262 1.362 . S
H1264 C1270 0.930 . S
H1265 C1273 0.930 . S
H1266 C1274 0.930 . S
H1267 C1275 0.930 . S
H1268 C1278 0.930 . S
H1269 C1279 0.930 . S
C1270 H1264 0.930 . S
C1270 C1271 1.355 . S
C1270 C1272 1.415 . S
C1271 C1270 1.355 . S
C1271 C1273 1.419 . S
C1272 C1270 1.415 . S
C1272 C1277 1.425 . S
C1272 C1279 1.409 . S
C1273 H1265 0.930 . S
C1273 C1271 1.419 . S
C1273 C1274 1.362 . S
C1274 H1266 0.930 . S
C1274 C1273 1.362 . S
C1274 C1277 1.409 . S
C1275 H1267 0.930 . S
C1275 C1276 1.355 . S
C1275 C1277 1.415 . S
C1276 C1275 1.355 . S
C1276 C1278 1.419 . S
C1277 C1272 1.425 . S
C1277 C1274 1.409 . S
C1277 C1275 1.415 . S
C1278 H1268 0.930 . S
C1278 C1276 1.419 . S
C1278 C1279 1.362 . S
C1279 H1269 0.930 . S
C1279 C1272 1.409 . S
C1279 C1278 1.362 . S
H1280 C1286 0.930 . S
H1281 C1289 0.930 . S
H1282 C1290 0.930 . S
H1283 C1291 0.930 . S
H1284 C1294 0.930 . S
H1285 C1295 0.930 . S
C1286 H1280 0.930 . S
C1286 C1287 1.355 . S
C1286 C1288 1.415 . S
C1287 C1286 1.355 . S
C1287 C1289 1.419 . S
C1288 C1286 1.415 . S
C1288 C1293 1.425 . S
C1288 C1295 1.409 . S
C1289 H1281 0.930 . S
C1289 C1287 1.419 . S
C1289 C1290 1.362 . S
C1290 H1282 0.930 . S
C1290 C1289 1.362 . S
C1290 C1293 1.409 . S
C1291 H1283 0.930 . S
C1291 C1292 1.355 . S
C1291 C1293 1.415 . S
C1292 C1291 1.355 . S
C1292 C1294 1.419 . S
C1293 C1288 1.425 . S
C1293 C1290 1.409 . S
C1293 C1291 1.415 . S
C1294 H1284 0.930 . S
C1294 C1292 1.419 . S
C1294 C1295 1.362 . S
C1295 H1285 0.930 . S
C1295 C1288 1.409 . S
C1295 C1294 1.362 . S
H1296 C1302 0.930 . S
H1297 C1305 0.930 . S
H1298 C1306 0.930 . S
H1299 C1307 0.930 . S
H1300 C1310 0.930 . S
H1301 C1311 0.930 . S
C1302 H1296 0.930 . S
C1302 C1303 1.355 . S
C1302 C1304 1.415 . S
C1303 C1302 1.355 . S
C1303 C1305 1.419 . S
C1304 C1302 1.415 . S
C1304 C1309 1.425 . S
C1304 C1311 1.409 . S
C1305 H1297 0.930 . S
C1305 C1303 1.419 . S
C1305 C1306 1.362 . S
C1306 H1298 0.930 . S
C1306 C1305 1.362 . S
C1306 C1309 1.409 . S
C1307 H1299 0.930 . S
C1307 C1308 1.355 . S
C1307 C1309 1.415 . S
C1308 C1307 1.355 . S
C1308 C1310 1.419 . S
C1309 C1304 1.425 . S
C1309 C1306 1.409 . S
C1309 C1307 1.415 . S
C1310 H1300 0.930 . S
C1310 C1308 1.419 . S
C1310 C1311 1.362 . S
C1311 H1301 0.930 . S
C1311 C1304 1.409 . S
C1311 C1310 1.362 . S
H1312 C1318 0.930 . S
H1313 C1321 0.930 . S
H1314 C1322 0.930 . S
H1315 C1323 0.930 . S
H1316 C1326 0.930 . S
H1317 C1327 0.930 . S
C1318 H1312 0.930 . S
C1318 C1319 1.355 . S
C1318 C1320 1.415 . S
C1319 C1318 1.355 . S
C1319 C1321 1.419 . S
C1320 C1318 1.415 . S
C1320 C1325 1.425 . S
C1320 C1327 1.409 . S
C1321 H1313 0.930 . S
C1321 C1319 1.419 . S
C1321 C1322 1.362 . S
C1322 H1314 0.930 . S
C1322 C1321 1.362 . S
C1322 C1325 1.409 . S
C1323 H1315 0.930 . S
C1323 C1324 1.355 . S
C1323 C1325 1.415 . S
C1324 C1323 1.355 . S
C1324 C1326 1.419 . S
C1325 C1320 1.425 . S
C1325 C1322 1.409 . S
C1325 C1323 1.415 . S
C1326 H1316 0.930 . S
C1326 C1324 1.419 . S
C1326 C1327 1.362 . S
C1327 H1317 0.930 . S
C1327 C1320 1.409 . S
C1327 C1326 1.362 . S
H1328 C1334 0.930 . S
H1329 C1337 0.930 . S
H1330 C1338 0.930 . S
H1331 C1339 0.930 . S
H1332 C1342 0.930 . S
H1333 C1343 0.930 . S
C1334 H1328 0.930 . S
C1334 C1335 1.355 . S
C1334 C1336 1.415 . S
C1335 C1334 1.355 . S
C1335 C1337 1.419 . S
C1336 C1334 1.415 . S
C1336 C1341 1.425 . S
C1336 C1343 1.409 . S
C1337 H1329 0.930 . S
C1337 C1335 1.419 . S
C1337 C1338 1.362 . S
C1338 H1330 0.930 . S
C1338 C1337 1.362 . S
C1338 C1341 1.409 . S
C1339 H1331 0.930 . S
C1339 C1340 1.355 . S
C1339 C1341 1.415 . S
C1340 C1339 1.355 . S
C1340 C1342 1.419 . S
C1341 C1336 1.425 . S
C1341 C1338 1.409 . S
C1341 C1339 1.415 . S
C1342 H1332 0.930 . S
C1342 C1340 1.419 . S
C1342 C1343 1.362 . S
C1343 H1333 0.930 . S
C1343 C1336 1.409 . S
C1343 C1342 1.362 . S
H1344 C1350 0.930 . S
H1345 C1353 0.930 . S
H1346 C1354 0.930 . S
H1347 C1355 0.930 . S
H1348 C1358 0.930 . S
H1349 C1359 0.930 . S
C1350 H1344 0.930 . S
C1350 C1351 1.355 . S
C1350 C1352 1.415 . S
C1351 C1350 1.355 . S
C1351 C1353 1.419 . S
C1352 C1350 1.415 . S
C1352 C1357 1.425 . S
C1352 C1359 1.409 . S
C1353 H1345 0.930 . S
C1353 C1351 1.419 . S
C1353 C1354 1.362 . S
C1354 H1346 0.930 . S
C1354 C1353 1.362 . S
C1354 C1357 1.409 . S
C1355 H1347 0.930 . S
C1355 C1356 1.355 . S
C1355 C1357 1.415 . S
C1356 C1355 1.355 . S
C1356 C1358 1.419 . S
C1357 C1352 1.425 . S
C1357 C1354 1.409 . S
C1357 C1355 1.415 . S
C1358 H1348 0.930 . S
C1358 C1356 1.419 . S
C1358 C1359 1.362 . S
C1359 H1349 0.930 . S
C1359 C1352 1.409 . S
C1359 C1358 1.362 . S
H1360 C1366 0.930 . S
H1361 C1369 0.930 . S
H1362 C1370 0.930 . S
H1363 C1371 0.930 . S
H1364 C1374 0.930 . S
H1365 C1375 0.930 . S
C1366 H1360 0.930 . S
C1366 C1367 1.355 . S
C1366 C1368 1.415 . S
C1367 C1366 1.355 . S
C1367 C1369 1.419 . S
C1368 C1366 1.415 . S
C1368 C1373 1.425 . S
C1368 C1375 1.409 . S
C1369 H1361 0.930 . S
C1369 C1367 1.419 . S
C1369 C1370 1.362 . S
C1370 H1362 0.930 . S
C1370 C1369 1.362 . S
C1370 C1373 1.409 . S
C1371 H1363 0.930 . S
C1371 C1372 1.355 . S
C1371 C1373 1.415 . S
C1372 C1371 1.355 . S
C1372 C1374 1.419 . S
C1373 C1368 1.425 . S
C1373 C1370 1.409 . S
C1373 C1371 1.415 . S
C1374 H1364 0.930 . S
C1374 C1372 1.419 . S
C1374 C1375 1.362 . S
C1375 H1365 0.930 . S
C1375 C1368 1.409 . S
C1375 C1374 1.362 . S
H1376 C1382 0.930 . S
H1377 C1385 0.930 . S
H1378 C1386 0.930 . S
H1379 C1387 0.930 . S
H1380 C1390 0.930 . S
H1381 C1391 0.930 . S
C1382 H1376 0.930 . S
C1382 C1383 1.355 . S
C1382 C1384 1.415 . S
C1383 C1382 1.355 . S
C1383 C1385 1.419 . S
C1384 C1382 1.415 . S
C1384 C1389 1.425 . S
C1384 C1391 1.409 . S
C1385 H1377 0.930 . S
C1385 C1383 1.419 . S
C1385 C1386 1.362 . S
C1386 H1378 0.930 . S
C1386 C1385 1.362 . S
C1386 C1389 1.409 . S
C1387 H1379 0.930 . S
C1387 C1388 1.355 . S
C1387 C1389 1.415 . S
C1388 C1387 1.355 . S
C1388 C1390 1.419 . S
C1389 C1384 1.425 . S
C1389 C1386 1.409 . S
C1389 C1387 1.415 . S
C1390 H1380 0.930 . S
C1390 C1388 1.419 . S
C1390 C1391 1.362 . S
C1391 H1381 0.930 . S
C1391 C1384 1.409 . S
C1391 C1390 1.362 . S
H1392 C1398 0.930 . S
H1393 C1401 0.930 . S
H1394 C1402 0.930 . S
H1395 C1403 0.930 . S
H1396 C1406 0.930 . S
H1397 C1407 0.930 . S
C1398 H1392 0.930 . S
C1398 C1399 1.355 . S
C1398 C1400 1.415 . S
C1399 C1398 1.355 . S
C1399 C1401 1.419 . S
C1400 C1398 1.415 . S
C1400 C1405 1.425 . S
C1400 C1407 1.409 . S
C1401 H1393 0.930 . S
C1401 C1399 1.419 . S
C1401 C1402 1.362 . S
C1402 H1394 0.930 . S
C1402 C1401 1.362 . S
C1402 C1405 1.409 . S
C1403 H1395 0.930 . S
C1403 C1404 1.355 . S
C1403 C1405 1.415 . S
C1404 C1403 1.355 . S
C1404 C1406 1.419 . S
C1405 C1400 1.425 . S
C1405 C1402 1.409 . S
C1405 C1403 1.415 . S
C1406 H1396 0.930 . S
C1406 C1404 1.419 . S
C1406 C1407 1.362 . S
C1407 H1397 0.930 . S
C1407 C1400 1.409 . S
C1407 C1406 1.362 . S
H1408 C1414 0.930 . S
H1409 C1417 0.930 . S
H1410 C1418 0.930 . S
H1411 C1419 0.930 . S
H1412 C1422 0.930 . S
H1413 C1423 0.930 . S
C1414 H1408 0.930 . S
C1414 C1415 1.355 . S
C1414 C1416 1.415 . S
C1415 C1414 1.355 . S
C1415 C1417 1.419 . S
C1416 C1414 1.415 . S
C1416 C1421 1.425 . S
C1416 C1423 1.409 . S
C1417 H1409 0.930 . S
C1417 C1415 1.419 . S
C1417 C1418 1.362 . S
C1418 H1410 0.930 . S
C1418 C1417 1.362 . S
C1418 C1421 1.409 . S
C1419 H1411 0.930 . S
C1419 C1420 1.355 . S
C1419 C1421 1.415 . S
C1420 C1419 1.355 . S
C1420 C1422 1.419 . S
C1421 C1416 1.425 . S
C1421 C1418 1.409 . S
C1421 C1419 1.415 . S
C1422 H1412 0.930 . S
C1422 C1420 1.419 . S
C1422 C1423 1.362 . S
C1423 H1413 0.930 . S
C1423 C1416 1.409 . S
C1423 C1422 1.362 . S
H1424 C1430 0.930 . S
H1425 C1433 0.930 . S
H1426 C1434 0.930 . S
H1427 C1435 0.930 . S
H1428 C1438 0.930 . S
H1429 C1439 0.930 . S
C1430 H1424 0.930 . S
C1430 C1431 1.355 . S
C1430 C1432 1.415 . S
C1431 C1430 1.355 . S
C1431 C1433 1.419 . S
C1432 C1430 1.415 . S
C1432 C1437 1.425 . S
C1432 C1439 1.409 . S
C1433 H1425 0.930 . S
C1433 C1431 1.419 . S
C1433 C1434 1.362 . S
C1434 H1426 0.930 . S
C1434 C1433 1.362 . S
C1434 C1437 1.409 . S
C1435 H1427 0.930 . S
C1435 C1436 1.355 . S
C1435 C1437 1.415 . S
C1436 C1435 1.355 . S
C1436 C1438 1.419 . S
C1437 C1432 1.425 . S
C1437 C1434 1.409 . S
C1437 C1435 1.415 . S
C1438 H1428 0.930 . S
C1438 C1436 1.419 . S
C1438 C1439 1.362 . S
C1439 H1429 0.930 . S
C1439 C1432 1.409 . S
C1439 C1438 1.362 . S
H1440 C1446 0.930 . S
H1441 C1449 0.930 . S
H1442 C1450 0.930 . S
H1443 C1451 0.930 . S
H1444 C1454 0.930 . S
H1445 C1455 0.930 . S
C1446 H1440 0.930 . S
C1446 C1447 1.355 . S
C1446 C1448 1.415 . S
C1447 C1446 1.355 . S
C1447 C1449 1.419 . S
C1448 C1446 1.415 . S
C1448 C1453 1.425 . S
C1448 C1455 1.409 . S
C1449 H1441 0.930 . S
C1449 C1447 1.419 . S
C1449 C1450 1.362 . S
C1450 H1442 0.930 . S
C1450 C1449 1.362 . S
C1450 C1453 1.409 . S
C1451 H1443 0.930 . S
C1451 C1452 1.355 . S
C1451 C1453 1.415 . S
C1452 C1451 1.355 . S
C1452 C1454 1.419 . S
C1453 C1448 1.425 . S
C1453 C1450 1.409 . S
C1453 C1451 1.415 . S
C1454 H1444 0.930 . S
C1454 C1452 1.419 . S
C1454 C1455 1.362 . S
C1455 H1445 0.930 . S
C1455 C1448 1.409 . S
C1455 C1454 1.362 . S
H1456 C1462 0.930 . S
H1457 C1465 0.930 . S
H1458 C1466 0.930 . S
H1459 C1467 0.930 . S
H1460 C1470 0.930 . S
H1461 C1471 0.930 . S
C1462 H1456 0.930 . S
C1462 C1463 1.355 . S
C1462 C1464 1.415 . S
C1463 C1462 1.355 . S
C1463 C1465 1.419 . S
C1464 C1462 1.415 . S
C1464 C1469 1.425 . S
C1464 C1471 1.409 . S
C1465 H1457 0.930 . S
C1465 C1463 1.419 . S
C1465 C1466 1.362 . S
C1466 H1458 0.930 . S
C1466 C1465 1.362 . S
C1466 C1469 1.409 . S
C1467 H1459 0.930 . S
C1467 C1468 1.355 . S
C1467 C1469 1.415 . S
C1468 C1467 1.355 . S
C1468 C1470 1.419 . S
C1469 C1464 1.425 . S
C1469 C1466 1.409 . S
C1469 C1467 1.415 . S
C1470 H1460 0.930 . S
C1470 C1468 1.419 . S
C1470 C1471 1.362 . S
C1471 H1461 0.930 . S
C1471 C1464 1.409 . S
C1471 C1470 1.362 . S
H1472 C1478 0.930 . S
H1473 C1481 0.930 . S
H1474 C1482 0.930 . S
H1475 C1483 0.930 . S
H1476 C1486 0.930 . S
H1477 C1487 0.930 . S
C1478 H1472 0.930 . S
C1478 C1479 1.355 . S
C1478 C1480 1.415 . S
C1479 C1478 1.355 . S
C1479 C1481 1.419 . S
C1480 C1478 1.415 . S
C1480 C1485 1.425 . S
C1480 C1487 1.409 . S
C1481 H1473 0.930 . S
C1481 C1479 1.419 . S
C1481 C1482 1.362 . S
C1482 H1474 0.930 . S
C1482 C1481 1.362 . S
C1482 C1485 1.409 . S
C1483 H1475 0.930 . S
C1483 C1484 1.355 . S
C1483 C1485 1.415 . S
C1484 C1483 1.355 . S
C1484 C1486 1.419 . S
C1485 C1480 1.425 . S
C1485 C1482 1.409 . S
C1485 C1483 1.415 . S
C1486 H1476 0.930 . S
C1486 C1484 1.419 . S
C1486 C1487 1.362 . S
C1487 H1477 0.930 . S
C1487 C1480 1.409 . S
C1487 C1486 1.362 . S
H1488 C1494 0.930 . S
H1489 C1497 0.930 . S
H1490 C1498 0.930 . S
H1491 C1499 0.930 . S
H1492 C1502 0.930 . S
H1493 C1503 0.930 . S
C1494 H1488 0.930 . S
C1494 C1495 1.355 . S
C1494 C1496 1.415 . S
C1495 C1494 1.355 . S
C1495 C1497 1.419 . S
C1496 C1494 1.415 . S
C1496 C1501 1.425 . S
C1496 C1503 1.409 . S
C1497 H1489 0.930 . S
C1497 C1495 1.419 . S
C1497 C1498 1.362 . S
C1498 H1490 0.930 . S
C1498 C1497 1.362 . S
C1498 C1501 1.409 . S
C1499 H1491 0.930 . S
C1499 C1500 1.355 . S
C1499 C1501 1.415 . S
C1500 C1499 1.355 . S
C1500 C1502 1.419 . S
C1501 C1496 1.425 . S
C1501 C1498 1.409 . S
C1501 C1499 1.415 . S
C1502 H1492 0.930 . S
C1502 C1500 1.419 . S
C1502 C1503 1.362 . S
C1503 H1493 0.930 . S
C1503 C1496 1.409 . S
C1503 C1502 1.362 . S
H1504 C1510 0.930 . S
H1505 C1513 0.930 . S
H1506 C1514 0.930 . S
H1507 C1515 0.930 . S
H1508 C1518 0.930 . S
H1509 C1519 0.930 . S
C1510 H1504 0.930 . S
C1510 C1511 1.355 . S
C1510 C1512 1.415 . S
C1511 C1510 1.355 . S
C1511 C1513 1.419 . S
C1512 C1510 1.415 . S
C1512 C1517 1.425 . S
C1512 C1519 1.409 . S
C1513 H1505 0.930 . S
C1513 C1511 1.419 . S
C1513 C1514 1.362 . S
C1514 H1506 0.930 . S
C1514 C1513 1.362 . S
C1514 C1517 1.409 . S
C1515 H1507 0.930 . S
C1515 C1516 1.355 . S
C1515 C1517 1.415 . S
C1516 C1515 1.355 . S
C1516 C1518 1.419 . S
C1517 C1512 1.425 . S
C1517 C1514 1.409 . S
C1517 C1515 1.415 . S
C1518 H1508 0.930 . S
C1518 C1516 1.419 . S
C1518 C1519 1.362 . S
C1519 H1509 0.930 . S
C1519 C1512 1.409 . S
C1519 C1518 1.362 . S
H1520 C1526 0.930 . S
H1521 C1529 0.930 . S
H1522 C1530 0.930 . S
H1523 C1531 0.930 . S
H1524 C1534 0.930 . S
H1525 C1535 0.930 . S
C1526 H1520 0.930 . S
C1526 C1527 1.355 . S
C1526 C1528 1.415 . S
C1527 C1526 1.355 . S
C1527 C1529 1.419 . S
C1528 C1526 1.415 . S
C1528 C1533 1.425 . S
C1528 C1535 1.409 . S
C1529 H1521 0.930 . S
C1529 C1527 1.419 . S
C1529 C1530 1.362 . S
C1530 H1522 0.930 . S
C1530 C1529 1.362 . S
C1530 C1533 1.409 . S
C1531 H1523 0.930 . S
C1531 C1532 1.355 . S
C1531 C1533 1.415 . S
C1532 C1531 1.355 . S
C1532 C1534 1.419 . S
C1533 C1528 1.425 . S
C1533 C1530 1.409 . S
C1533 C1531 1.415 . S
C1534 H1524 0.930 . S
C1534 C1532 1.419 . S
C1534 C1535 1.362 . S
C1535 H1525 0.930 . S
C1535 C1528 1.409 . S
C1535 C1534 1.362 . S
H1536 C1542 0.930 . S
H1537 C1545 0.930 . S
H1538 C1546 0.930 . S
H1539 C1547 0.930 . S
H1540 C1550 0.930 . S
H1541 C1551 0.930 . S
C1542 H1536 0.930 . S
C1542 C1543 1.355 . S
C1542 C1544 1.415 . S
C1543 C1542 1.355 . S
C1543 C1545 1.419 . S
C1544 C1542 1.415 . S
C1544 C1549 1.425 . S
C1544 C1551 1.409 . S
C1545 H1537 0.930 . S
C1545 C1543 1.419 . S
C1545 C1546 1.362 . S
C1546 H1538 0.930 . S
C1546 C1545 1.362 . S
C1546 C1549 1.409 . S
C1547 H1539 0.930 . S
C1547 C1548 1.355 . S
C1547 C1549 1.415 . S
C1548 C1547 1.355 . S
C1548 C1550 1.419 . S
C1549 C1544 1.425 . S
C1549 C1546 1.409 . S
C1549 C1547 1.415 . S
C1550 H1540 0.930 . S
C1550 C1548 1.419 . S
C1550 C1551 1.362 . S
C1551 H1541 0.930 . S
C1551 C1544 1.409 . S
C1551 C1550 1.362 . S
H1552 C1558 0.930 . S
H1553 C1561 0.930 . S
H1554 C1562 0.930 . S
H1555 C1563 0.930 . S
H1556 C1566 0.930 . S
H1557 C1567 0.930 . S
C1558 H1552 0.930 . S
C1558 C1559 1.355 . S
C1558 C1560 1.415 . S
C1559 C1558 1.355 . S
C1559 C1561 1.419 . S
C1560 C1558 1.415 . S
C1560 C1565 1.425 . S
C1560 C1567 1.409 . S
C1561 H1553 0.930 . S
C1561 C1559 1.419 . S
C1561 C1562 1.362 . S
C1562 H1554 0.930 . S
C1562 C1561 1.362 . S
C1562 C1565 1.409 . S
C1563 H1555 0.930 . S
C1563 C1564 1.355 . S
C1563 C1565 1.415 . S
C1564 C1563 1.355 . S
C1564 C1566 1.419 . S
C1565 C1560 1.425 . S
C1565 C1562 1.409 . S
C1565 C1563 1.415 . S
C1566 H1556 0.930 . S
C1566 C1564 1.419 . S
C1566 C1567 1.362 . S
C1567 H1557 0.930 . S
C1567 C1560 1.409 . S
C1567 C1566 1.362 . S
H1568 C1574 0.930 . S
H1569 C1577 0.930 . S
H1570 C1578 0.930 . S
H1571 C1579 0.930 . S
H1572 C1582 0.930 . S
H1573 C1583 0.930 . S
C1574 H1568 0.930 . S
C1574 C1575 1.355 . S
C1574 C1576 1.415 . S
C1575 C1574 1.355 . S
C1575 C1577 1.419 . S
C1576 C1574 1.415 . S
C1576 C1581 1.425 . S
C1576 C1583 1.409 . S
C1577 H1569 0.930 . S
C1577 C1575 1.419 . S
C1577 C1578 1.362 . S
C1578 H1570 0.930 . S
C1578 C1577 1.362 . S
C1578 C1581 1.409 . S
C1579 H1571 0.930 . S
C1579 C1580 1.355 . S
C1579 C1581 1.415 . S
C1580 C1579 1.355 . S
C1580 C1582 1.419 . S
C1581 C1576 1.425 . S
C1581 C1578 1.409 . S
C1581 C1579 1.415 . S
C1582 H1572 0.930 . S
C1582 C1580 1.419 . S
C1582 C1583 1.362 . S
C1583 H1573 0.930 . S
C1583 C1576 1.409 . S
C1583 C1582 1.362 . S
H1584 C1590 0.930 . S
H1585 C1593 0.930 . S
H1586 C1594 0.930 . S
H1587 C1595 0.930 . S
H1588 C1598 0.930 . S
H1589 C1599 0.930 . S
C1590 H1584 0.930 . S
C1590 C1591 1.355 . S
C1590 C1592 1.415 . S
C1591 C1590 1.355 . S
C1591 C1593 1.419 . S
C1592 C1590 1.415 . S
C1592 C1597 1.425 . S
C1592 C1599 1.409 . S
C1593 H1585 0.930 . S
C1593 C1591 1.419 . S
C1593 C1594 1.362 . S
C1594 H1586 0.930 . S
C1594 C1593 1.362 . S
C1594 C1597 1.409 . S
C1595 H1587 0.930 . S
C1595 C1596 1.355 . S
C1595 C1597 1.415 . S
C1596 C1595 1.355 . S
C1596 C1598 1.419 . S
C1597 C1592 1.425 . S
C1597 C1594 1.409 . S
C1597 C1595 1.415 . S
C1598 H1588 0.930 . S
C1598 C1596 1.419 . S
C1598 C1599 1.362 . S
C1599 H1589 0.930 . S
C1599 C1592 1.409 . S
C1599 C1598 1.362 . S
H1600 C1606 0.930 . S
H1601 C1609 0.930 . S
H1602 C1610 0.930 . S
H1603 C1611 0.930 . S
H1604 C1614 0.930 . S
H1605 C1615 0.930 . S
C1606 H1600 0.930 . S
C1606 C1607 1.355 . S
C1606 C1608 1.415 . S
C1607 C1606 1.355 . S
C1607 C1609 1.419 . S
C1608 C1606 1.415 . S
C1608 C1613 1.425 . S
C1608 C1615 1.409 . S
C1609 H1601 0.930 . S
C1609 C1607 1.419 . S
C1609 C1610 1.362 . S
C1610 H1602 0.930 . S
C1610 C1609 1.362 . S
C1610 C1613 1.409 . S
C1611 H1603 0.930 . S
C1611 C1612 1.355 . S
C1611 C1613 1.415 . S
C1612 C1611 1.355 . S
C1612 C1614 1.419 . S
C1613 C1608 1.425 . S
C1613 C1610 1.409 . S
C1613 C1611 1.415 . S
C1614 H1604 0.930 . S
C1614 C1612 1.419 . S
C1614 C1615 1.362 . S
C1615 H1605 0.930 . S
C1615 C1608 1.409 . S
C1615 C1614 1.362 . S
H1616 C1622 0.930 . S
H1617 C1625 0.930 . S
H1618 C1626 0.930 . S
H1619 C1627 0.930 . S
H1620 C1630 0.930 . S
H1621 C1631 0.930 . S
C1622 H1616 0.930 . S
C1622 C1623 1.355 . S
C1622 C1624 1.415 . S
C1623 C1622 1.355 . S
C1623 C1625 1.419 . S
C1624 C1622 1.415 . S
C1624 C1629 1.425 . S
C1624 C1631 1.409 . S
C1625 H1617 0.930 . S
C1625 C1623 1.419 . S
C1625 C1626 1.362 . S
C1626 H1618 0.930 . S
C1626 C1625 1.362 . S
C1626 C1629 1.409 . S
C1627 H1619 0.930 . S
C1627 C1628 1.355 . S
C1627 C1629 1.415 . S
C1628 C1627 1.355 . S
C1628 C1630 1.419 . S
C1629 C1624 1.425 . S
C1629 C1626 1.409 . S
C1629 C1627 1.415 . S
C1630 H1620 0.930 . S
C1630 C1628 1.419 . S
C1630 C1631 1.362 . S
C1631 H1621 0.930 . S
C1631 C1624 1.409 . S
C1631 C1630 1.362 . S
H1632 C1638 0.930 . S
H1633 C1641 0.930 . S
H1634 C1642 0.930 . S
H1635 C1643 0.930 . S
H1636 C1646 0.930 . S
H1637 C1647 0.930 . S
C1638 H1632 0.930 . S
C1638 C1639 1.355 . S
C1638 C1640 1.415 . S
C1639 C1638 1.355 . S
C1639 C1641 1.419 . S
C1640 C1638 1.415 . S
C1640 C1645 1.425 . S
C1640 C1647 1.409 . S
C1641 H1633 0.930 . S
C1641 C1639 1.419 . S
C1641 C1642 1.362 . S
C1642 H1634 0.930 . S
C1642 C1641 1.362 . S
C1642 C1645 1.409 . S
C1643 H1635 0.930 . S
C1643 C1644 1.355 . S
C1643 C1645 1.415 . S
C1644 C1643 1.355 . S
C1644 C1646 1.419 . S
C1645 C1640 1.425 . S
C1645 C1642 1.409 . S
C1645 C1643 1.415 . S
C1646 H1636 0.930 . S
C1646 C1644 1.419 . S
C1646 C1647 1.362 . S
C1647 H1637 0.930 . S
C1647 C1640 1.409 . S
C1647 C1646 1.362 . S
H1648 C1654 0.930 . S
H1649 C1657 0.930 . S
H1650 C1658 0.930 . S
H1651 C1659 0.930 . S
H1652 C1662 0.930 . S
H1653 C1663 0.930 . S
C1654 H1648 0.930 . S
C1654 C1655 1.355 . S
C1654 C1656 1.415 . S
C1655 C1654 1.355 . S
C1655 C1657 1.419 . S
C1656 C1654 1.415 . S
C1656 C1661 1.425 . S
C1656 C1663 1.409 . S
C1657 H1649 0.930 . S
C1657 C1655 1.419 . S
C1657 C1658 1.362 . S
C1658 H1650 0.930 . S
C1658 C1657 1.362 . S
C1658 C1661 1.409 . S
C1659 H1651 0.930 . S
C1659 C1660 1.355 . S
C1659 C1661 1.415 . S
C1660 C1659 1.355 . S
C1660 C1662 1.419 . S
C1661 C1656 1.425 . S
C1661 C1658 1.409 . S
C1661 C1659 1.415 . S
C1662 H1652 0.930 . S
C1662 C1660 1.419 . S
C1662 C1663 1.362 . S
C1663 H1653 0.930 . S
C1663 C1656 1.409 . S
C1663 C1662 1.362 . S
H1664 C1670 0.930 . S
H1665 C1673 0.930 . S
H1666 C1674 0.930 . S
H1667 C1675 0.930 . S
H1668 C1678 0.930 . S
H1669 C1679 0.930 . S
C1670 H1664 0.930 . S
C1670 C1671 1.355 . S
C1670 C1672 1.415 . S
C1671 C1670 1.355 . S
C1671 C1673 1.419 . S
C1672 C1670 1.415 . S
C1672 C1677 1.425 . S
C1672 C1679 1.409 . S
C1673 H1665 0.930 . S
C1673 C1671 1.419 . S
C1673 C1674 1.362 . S
C1674 H1666 0.930 . S
C1674 C1673 1.362 . S
C1674 C1677 1.409 . S
C1675 H1667 0.930 . S
C1675 C1676 1.355 . S
C1675 C1677 1.415 . S
C1676 C1675 1.355 . S
C1676 C1678 1.419 . S
C1677 C1672 1.425 . S
C1677 C1674 1.409 . S
C1677 C1675 1.415 . S
C1678 H1668 0.930 . S
C1678 C1676 1.419 . S
C1678 C1679 1.362 . S
C1679 H1669 0.930 . S
C1679 C1672 1.409 . S
C1679 C1678 1.362 . S
H1680 C1686 0.930 1_655 S
H1681 C1689 0.930 . S
H1682 C1690 0.930 . S
H1683 C1691 0.920 1_455 S
H1684 C1694 0.930 . S
H1685 C1695 0.930 . S
C1686 H1680 0.930 1_455 S
C1686 C1687 1.355 . S
C1686 C1688 1.415 1_455 S
C1687 C1686 1.355 . S
C1687 C1689 1.419 1_565 S
C1688 C1686 1.415 1_655 S
C1688 C1693 1.425 1_665 S
C1688 C1695 1.409 . S
C1689 H1681 0.930 . S
C1689 C1687 1.419 1_545 S
C1689 C1690 1.362 . S
C1690 H1682 0.930 . S
C1690 C1689 1.362 . S
C1690 C1693 1.409 . S
C1691 H1683 0.920 1_655 S
C1691 C1692 1.371 . S
C1691 C1693 1.409 1_655 S
C1692 C1691 1.371 . S
C1692 C1694 1.419 1_545 S
C1693 C1688 1.425 1_445 S
C1693 C1690 1.409 . S
C1693 C1691 1.409 1_455 S
C1694 H1684 0.930 . S
C1694 C1692 1.419 1_565 S
C1694 C1695 1.362 . S
C1695 H1685 0.930 . S
C1695 C1688 1.409 . S
C1695 C1694 1.362 . S
H1696 C1702 0.930 . S
H1697 C1705 0.930 . S
H1698 C1706 0.930 . S
H1699 C1707 0.930 . S
H1700 C1710 0.930 . S
H1701 C1711 0.930 . S
C1702 H1696 0.930 . S
C1702 C1703 1.355 . S
C1702 C1704 1.415 . S
C1703 C1702 1.355 . S
C1703 C1705 1.419 . S
C1704 C1702 1.415 . S
C1704 C1709 1.425 . S
C1704 C1711 1.409 . S
C1705 H1697 0.930 . S
C1705 C1703 1.419 . S
C1705 C1706 1.362 . S
C1706 H1698 0.930 . S
C1706 C1705 1.362 . S
C1706 C1709 1.409 . S
C1707 H1699 0.930 . S
C1707 C1708 1.355 . S
C1707 C1709 1.415 . S
C1708 C1707 1.355 . S
C1708 C1710 1.419 . S
C1709 C1704 1.425 . S
C1709 C1706 1.409 . S
C1709 C1707 1.415 . S
C1710 H1700 0.930 . S
C1710 C1708 1.419 . S
C1710 C1711 1.362 . S
C1711 H1701 0.930 . S
C1711 C1704 1.409 . S
C1711 C1710 1.362 . S
H1712 C1718 0.930 . S
H1713 C1721 0.930 . S
H1714 C1722 0.930 . S
H1715 C1723 0.930 . S
H1716 C1726 0.930 . S
H1717 C1727 0.930 . S
C1718 H1712 0.930 . S
C1718 C1719 1.355 . S
C1718 C1720 1.415 1_554 S
C1719 C1718 1.355 . S
C1719 C1721 1.419 1_545 S
C1720 C1718 1.415 1_556 S
C1720 C1725 1.425 1_545 S
C1720 C1727 1.409 . S
C1721 H1713 0.930 . S
C1721 C1719 1.419 1_565 S
C1721 C1722 1.362 . S
C1722 H1714 0.930 . S
C1722 C1721 1.362 . S
C1722 C1725 1.409 1_554 S
C1723 H1715 0.930 . S
C1723 C1724 1.355 . S
C1723 C1725 1.415 . S
C1724 C1723 1.355 . S
C1724 C1726 1.419 1_565 S
C1725 C1720 1.425 1_565 S
C1725 C1722 1.409 1_556 S
C1725 C1723 1.415 . S
C1726 H1716 0.930 . S
C1726 C1724 1.419 1_545 S
C1726 C1727 1.362 . S
C1727 H1717 0.930 . S
C1727 C1720 1.409 . S
C1727 C1726 1.362 . S
H1728 C1734 0.930 . S
H1729 C1737 0.930 . S
H1730 C1738 0.930 . S
H1731 C1739 0.930 . S
H1732 C1742 0.930 . S
H1733 C1743 0.930 . S
C1734 H1728 0.930 . S
C1734 C1735 1.355 . S
C1734 C1736 1.415 . S
C1735 C1734 1.355 . S
C1735 C1737 1.419 . S
C1736 C1734 1.415 . S
C1736 C1741 1.425 . S
C1736 C1743 1.409 . S
C1737 H1729 0.930 . S
C1737 C1735 1.419 . S
C1737 C1738 1.362 . S
C1738 H1730 0.930 . S
C1738 C1737 1.362 . S
C1738 C1741 1.409 . S
C1739 H1731 0.930 . S
C1739 C1740 1.355 . S
C1739 C1741 1.415 . S
C1740 C1739 1.355 . S
C1740 C1742 1.419 . S
C1741 C1736 1.425 . S
C1741 C1738 1.409 . S
C1741 C1739 1.415 . S
C1742 H1732 0.930 . S
C1742 C1740 1.419 . S
C1742 C1743 1.362 . S
C1743 H1733 0.930 . S
C1743 C1736 1.409 . S
C1743 C1742 1.362 . S
H1744 C1750 0.930 . S
H1745 C1753 0.930 . S
H1746 C1754 0.930 . S
H1747 C1755 0.930 . S
H1748 C1758 0.930 . S
H1749 C1759 0.930 . S
C1750 H1744 0.930 . S
C1750 C1751 1.355 . S
C1750 C1752 1.415 . S
C1751 C1750 1.355 . S
C1751 C1753 1.419 1_565 S
C1752 C1750 1.415 . S
C1752 C1757 1.425 1_565 S
C1752 C1759 1.409 . S
C1753 H1745 0.930 . S
C1753 C1751 1.419 1_545 S
C1753 C1754 1.362 . S
C1754 H1746 0.930 . S
C1754 C1753 1.362 . S
C1754 C1757 1.409 . S
C1755 H1747 0.930 . S
C1755 C1756 1.355 . S
C1755 C1757 1.415 . S
C1756 C1755 1.355 . S
C1756 C1758 1.419 1_545 S
C1757 C1752 1.425 1_545 S
C1757 C1754 1.409 . S
C1757 C1755 1.415 . S
C1758 H1748 0.930 . S
C1758 C1756 1.419 1_565 S
C1758 C1759 1.362 . S
C1759 H1749 0.930 . S
C1759 C1752 1.409 . S
C1759 C1758 1.362 . S
H1760 C1766 0.930 . S
H1761 C1769 0.930 . S
H1762 C1770 0.930 . S
H1763 C1771 0.930 . S
H1764 C1774 0.930 . S
H1765 C1775 0.930 . S
C1766 H1760 0.930 . S
C1766 C1767 1.355 . S
C1766 C1768 1.415 . S
C1767 C1766 1.355 . S
C1767 C1769 1.419 . S
C1768 C1766 1.415 . S
C1768 C1773 1.425 . S
C1768 C1775 1.409 . S
C1769 H1761 0.930 . S
C1769 C1767 1.419 . S
C1769 C1770 1.362 . S
C1770 H1762 0.930 . S
C1770 C1769 1.362 . S
C1770 C1773 1.409 . S
C1771 H1763 0.930 . S
C1771 C1772 1.355 . S
C1771 C1773 1.415 . S
C1772 C1771 1.355 . S
C1772 C1774 1.419 . S
C1773 C1768 1.425 . S
C1773 C1770 1.409 . S
C1773 C1771 1.415 . S
C1774 H1764 0.930 . S
C1774 C1772 1.419 . S
C1774 C1775 1.362 . S
C1775 H1765 0.930 . S
C1775 C1768 1.409 . S
C1775 C1774 1.362 . S
H1776 C1782 0.930 . S
H1777 C1785 0.930 . S
H1778 C1786 0.930 1_554 S
H1779 C1787 0.930 . S
H1780 C1790 0.930 . S
H1781 C1791 0.930 1_556 S
C1782 H1776 0.930 . S
C1782 C1783 1.355 1_655 S
C1782 C1784 1.415 . S
C1783 C1782 1.355 1_455 S
C1783 C1785 1.419 1_545 S
C1784 C1782 1.415 . S
C1784 C1789 1.425 1_646 S
C1784 C1791 1.409 1_556 S
C1785 H1777 0.930 . S
C1785 C1783 1.419 1_565 S
C1785 C1786 1.362 . S
C1786 H1778 0.930 1_556 S
C1786 C1785 1.362 . S
C1786 C1789 1.409 1_556 S
C1787 H1779 0.930 . S
C1787 C1788 1.355 1_455 S
C1787 C1789 1.415 . S
C1788 C1787 1.355 1_655 S
C1788 C1790 1.419 1_565 S
C1789 C1784 1.425 1_464 S
C1789 C1786 1.409 1_554 S
C1789 C1787 1.415 . S
C1790 H1780 0.930 . S
C1790 C1788 1.419 1_545 S
C1790 C1791 1.362 . S
C1791 H1781 0.930 1_554 S
C1791 C1784 1.409 1_554 S
C1791 C1790 1.362 . S
H1792 C1798 0.930 . S
H1793 C1801 0.930 . S
H1794 C1802 0.930 . S
H1795 C1803 0.930 . S
H1796 C1806 0.930 . S
H1797 C1807 0.930 . S
C1798 H1792 0.930 . S
C1798 C1799 1.355 . S
C1798 C1800 1.415 . S
C1799 C1798 1.355 . S
C1799 C1801 1.419 . S
C1800 C1798 1.415 . S
C1800 C1805 1.425 . S
C1800 C1807 1.409 . S
C1801 H1793 0.930 . S
C1801 C1799 1.419 . S
C1801 C1802 1.362 . S
C1802 H1794 0.930 . S
C1802 C1801 1.362 . S
C1802 C1805 1.409 . S
C1803 H1795 0.930 . S
C1803 C1804 1.355 . S
C1803 C1805 1.415 . S
C1804 C1803 1.355 . S
C1804 C1806 1.419 . S
C1805 C1800 1.425 . S
C1805 C1802 1.409 . S
C1805 C1803 1.415 . S
C1806 H1796 0.930 . S
C1806 C1804 1.419 . S
C1806 C1807 1.362 . S
C1807 H1797 0.930 . S
C1807 C1800 1.409 . S
C1807 C1806 1.362 . S
H1808 C1814 0.930 . S
H1809 C1817 0.930 . S
H1810 C1818 0.930 . S
H1811 C1819 0.930 . S
H1812 C1822 0.930 . S
H1813 C1823 0.930 . S
C1814 H1808 0.930 . S
C1814 C1815 1.355 . S
C1814 C1816 1.415 . S
C1815 C1814 1.355 . S
C1815 C1817 1.419 . S
C1816 C1814 1.415 . S
C1816 C1821 1.425 . S
C1816 C1823 1.409 . S
C1817 H1809 0.930 . S
C1817 C1815 1.419 . S
C1817 C1818 1.362 . S
C1818 H1810 0.930 . S
C1818 C1817 1.362 . S
C1818 C1821 1.409 . S
C1819 H1811 0.930 . S
C1819 C1820 1.355 . S
C1819 C1821 1.415 . S
C1820 C1819 1.355 . S
C1820 C1822 1.419 . S
C1821 C1816 1.425 . S
C1821 C1818 1.409 . S
C1821 C1819 1.415 . S
C1822 H1812 0.930 . S
C1822 C1820 1.419 . S
C1822 C1823 1.362 . S
C1823 H1813 0.930 . S
C1823 C1816 1.409 . S
C1823 C1822 1.362 . S
H1824 C1830 0.930 . S
H1825 C1833 0.930 . S
H1826 C1834 0.930 . S
H1827 C1835 0.930 . S
H1828 C1838 0.930 . S
H1829 C1839 0.930 . S
C1830 H1824 0.930 . S
C1830 C1831 1.355 . S
C1830 C1832 1.415 . S
C1831 C1830 1.355 . S
C1831 C1833 1.419 . S
C1832 C1830 1.415 . S
C1832 C1837 1.425 . S
C1832 C1839 1.409 . S
C1833 H1825 0.930 . S
C1833 C1831 1.419 . S
C1833 C1834 1.362 . S
C1834 H1826 0.930 . S
C1834 C1833 1.362 . S
C1834 C1837 1.409 . S
C1835 H1827 0.930 . S
C1835 C1836 1.355 . S
C1835 C1837 1.415 . S
C1836 C1835 1.355 . S
C1836 C1838 1.419 . S
C1837 C1832 1.425 . S
C1837 C1834 1.409 . S
C1837 C1835 1.415 . S
C1838 H1828 0.930 . S
C1838 C1836 1.419 . S
C1838 C1839 1.362 . S
C1839 H1829 0.930 . S
C1839 C1832 1.409 . S
C1839 C1838 1.362 . S
H1840 C1846 0.930 . S
H1841 C1849 0.930 . S
H1842 C1850 0.930 . S
H1843 C1851 0.930 . S
H1844 C1854 0.930 . S
H1845 C1855 0.930 . S
C1846 H1840 0.930 . S
C1846 C1847 1.355 . S
C1846 C1848 1.415 . S
C1847 C1846 1.355 . S
C1847 C1849 1.419 . S
C1848 C1846 1.415 . S
C1848 C1853 1.425 . S
C1848 C1855 1.409 . S
C1849 H1841 0.930 . S
C1849 C1847 1.419 . S
C1849 C1850 1.362 . S
C1850 H1842 0.930 . S
C1850 C1849 1.362 . S
C1850 C1853 1.409 . S
C1851 H1843 0.930 . S
C1851 C1852 1.355 . S
C1851 C1853 1.415 . S
C1852 C1851 1.355 . S
C1852 C1854 1.419 . S
C1853 C1848 1.425 . S
C1853 C1850 1.409 . S
C1853 C1851 1.415 . S
C1854 H1844 0.930 . S
C1854 C1852 1.419 . S
C1854 C1855 1.362 . S
C1855 H1845 0.930 . S
C1855 C1848 1.409 . S
C1855 C1854 1.362 . S
H1856 C1862 0.930 . S
H1857 C1865 0.930 . S
H1858 C1866 0.930 . S
H1859 C1867 0.930 . S
H1860 C1870 0.930 . S
H1861 C1871 0.930 . S
C1862 H1856 0.930 . S
C1862 C1863 1.355 . S
C1862 C1864 1.415 1_554 S
C1863 C1862 1.355 . S
C1863 C1865 1.419 . S
C1864 C1862 1.415 1_556 S
C1864 C1869 1.425 . S
C1864 C1871 1.409 . S
C1865 H1857 0.930 . S
C1865 C1863 1.419 . S
C1865 C1866 1.362 . S
C1866 H1858 0.930 . S
C1866 C1865 1.362 . S
C1866 C1869 1.409 1_554 S
C1867 H1859 0.930 . S
C1867 C1868 1.355 . S
C1867 C1869 1.415 . S
C1868 C1867 1.355 . S
C1868 C1870 1.419 . S
C1869 C1864 1.425 . S
C1869 C1866 1.409 1_556 S
C1869 C1867 1.415 . S
C1870 H1860 0.930 . S
C1870 C1868 1.419 . S
C1870 C1871 1.362 . S
C1871 H1861 0.930 . S
C1871 C1864 1.409 . S
C1871 C1870 1.362 . S
H1872 C1878 0.930 . S
H1873 C1881 0.930 . S
H1874 C1882 0.930 . S
H1875 C1883 0.930 . S
H1876 C1886 0.930 . S
H1877 C1887 0.930 . S
C1878 H1872 0.930 . S
C1878 C1879 1.355 1_655 S
C1878 C1880 1.415 . S
C1879 C1878 1.355 1_455 S
C1879 C1881 1.419 . S
C1880 C1878 1.415 . S
C1880 C1885 1.425 1_655 S
C1880 C1887 1.409 . S
C1881 H1873 0.930 . S
C1881 C1879 1.419 . S
C1881 C1882 1.362 . S
C1882 H1874 0.930 . S
C1882 C1881 1.362 . S
C1882 C1885 1.409 . S
C1883 H1875 0.930 . S
C1883 C1884 1.355 1_455 S
C1883 C1885 1.415 . S
C1884 C1883 1.355 1_655 S
C1884 C1886 1.419 . S
C1885 C1880 1.425 1_455 S
C1885 C1882 1.409 . S
C1885 C1883 1.415 . S
C1886 H1876 0.930 . S
C1886 C1884 1.419 . S
C1886 C1887 1.362 . S
C1887 H1877 0.930 . S
C1887 C1880 1.409 . S
C1887 C1886 1.362 . S
H1888 C1894 0.930 . S
H1889 C1897 0.930 . S
H1890 C1898 0.930 . S
H1891 C1899 0.930 . S
H1892 C1902 0.930 . S
H1893 C1903 0.930 . S
C1894 H1888 0.930 . S
C1894 C1895 1.355 . S
C1894 C1896 1.415 . S
C1895 C1894 1.355 . S
C1895 C1897 1.419 1_455 S
C1896 C1894 1.415 . S
C1896 C1901 1.431 1_455 S
C1896 C1903 1.409 1_554 S
C1897 H1889 0.930 . S
C1897 C1895 1.419 1_655 S
C1897 C1898 1.362 . S
C1898 H1890 0.930 . S
C1898 C1897 1.362 . S
C1898 C1901 1.448 . S
C1899 H1891 0.930 . S
C1899 C1900 1.355 . S
C1899 C1901 1.372 1_556 S
C1900 C1899 1.355 . S
C1900 C1902 1.419 1_655 S
C1901 C1896 1.431 1_655 S
C1901 C1898 1.448 . S
C1901 C1899 1.372 1_554 S
C1902 H1892 0.930 . S
C1902 C1900 1.419 1_455 S
C1902 C1903 1.362 . S
C1903 H1893 0.930 . S
C1903 C1896 1.409 1_556 S
C1903 C1902 1.362 . S
H1904 C1910 0.930 . S
H1905 C1913 0.930 . S
H1906 C1914 0.930 . S
H1907 C1915 0.930 . S
H1908 C1918 0.930 . S
H1909 C1919 0.930 . S
C1910 H1904 0.930 . S
C1910 C1911 1.355 . S
C1910 C1912 1.415 . S
C1911 C1910 1.355 . S
C1911 C1913 1.419 . S
C1912 C1910 1.415 . S
C1912 C1917 1.425 . S
C1912 C1919 1.409 . S
C1913 H1905 0.930 . S
C1913 C1911 1.419 . S
C1913 C1914 1.362 . S
C1914 H1906 0.930 . S
C1914 C1913 1.362 . S
C1914 C1917 1.409 . S
C1915 H1907 0.930 . S
C1915 C1916 1.355 . S
C1915 C1917 1.415 . S
C1916 C1915 1.355 . S
C1916 C1918 1.419 . S
C1917 C1912 1.425 . S
C1917 C1914 1.409 . S
C1917 C1915 1.415 . S
C1918 H1908 0.930 . S
C1918 C1916 1.419 . S
C1918 C1919 1.362 . S
C1919 H1909 0.930 . S
C1919 C1912 1.409 . S
C1919 C1918 1.362 . S
H1920 C1926 0.930 . S
H1921 C1929 0.930 . S
H1922 C1930 0.930 . S
H1923 C1931 0.930 . S
H1924 C1934 0.930 . S
H1925 C1935 0.930 . S
C1926 H1920 0.930 . S
C1926 C1927 1.355 . S
C1926 C1928 1.415 . S
C1927 C1926 1.355 . S
C1927 C1929 1.419 . S
C1928 C1926 1.415 . S
C1928 C1933 1.425 . S
C1928 C1935 1.409 . S
C1929 H1921 0.930 . S
C1929 C1927 1.419 . S
C1929 C1930 1.362 . S
C1930 H1922 0.930 . S
C1930 C1929 1.362 . S
C1930 C1933 1.409 . S
C1931 H1923 0.930 . S
C1931 C1932 1.355 . S
C1931 C1933 1.415 . S
C1932 C1931 1.355 . S
C1932 C1934 1.419 . S
C1933 C1928 1.425 . S
C1933 C1930 1.409 . S
C1933 C1931 1.415 . S
C1934 H1924 0.930 . S
C1934 C1932 1.419 . S
C1934 C1935 1.362 . S
C1935 H1925 0.930 . S
C1935 C1928 1.409 . S
C1935 C1934 1.362 . S
H1936 C1942 0.930 . S
H1937 C1945 0.930 . S
H1938 C1946 0.930 . S
H1939 C1947 0.930 . S
H1940 C1950 0.930 . S
H1941 C1951 0.930 . S
C1942 H1936 0.930 . S
C1942 C1943 1.355 . S
C1942 C1944 1.415 . S
C1943 C1942 1.355 . S
C1943 C1945 1.419 . S
C1944 C1942 1.415 . S
C1944 C1949 1.425 . S
C1944 C1951 1.409 . S
C1945 H1937 0.930 . S
C1945 C1943 1.419 . S
C1945 C1946 1.362 . S
C1946 H1938 0.930 . S
C1946 C1945 1.362 . S
C1946 C1949 1.409 . S
C1947 H1939 0.930 . S
C1947 C1948 1.355 . S
C1947 C1949 1.415 . S
C1948 C1947 1.355 . S
C1948 C1950 1.419 . S
C1949 C1944 1.425 . S
C1949 C1946 1.409 . S
C1949 C1947 1.415 . S
C1950 H1940 0.930 . S
C1950 C1948 1.419 . S
C1950 C1951 1.362 . S
C1951 H1941 0.930 . S
C1951 C1944 1.409 . S
C1951 C1950 1.362 . S
H1952 C1958 0.930 . S
H1953 C1961 0.930 . S
H1954 C1962 0.930 . S
H1955 C1963 0.930 . S
H1956 C1966 0.930 . S
H1957 C1967 0.930 . S
C1958 H1952 0.930 . S
C1958 C1959 1.355 . S
C1958 C1960 1.415 . S
C1959 C1958 1.355 . S
C1959 C1961 1.419 . S
C1960 C1958 1.415 . S
C1960 C1965 1.425 . S
C1960 C1967 1.409 . S
C1961 H1953 0.930 . S
C1961 C1959 1.419 . S
C1961 C1962 1.362 . S
C1962 H1954 0.930 . S
C1962 C1961 1.362 . S
C1962 C1965 1.409 . S
C1963 H1955 0.930 . S
C1963 C1964 1.355 . S
C1963 C1965 1.415 . S
C1964 C1963 1.355 . S
C1964 C1966 1.419 . S
C1965 C1960 1.425 . S
C1965 C1962 1.409 . S
C1965 C1963 1.415 . S
C1966 H1956 0.930 . S
C1966 C1964 1.419 . S
C1966 C1967 1.362 . S
C1967 H1957 0.930 . S
C1967 C1960 1.409 . S
C1967 C1966 1.362 . S
H1968 C1974 0.930 . S
H1969 C1977 0.930 . S
H1970 C1978 0.930 . S
H1971 C1979 0.930 . S
H1972 C1982 0.930 . S
H1973 C1983 0.930 . S
C1974 H1968 0.930 . S
C1974 C1975 1.355 . S
C1974 C1976 1.415 . S
C1975 C1974 1.355 . S
C1975 C1977 1.419 . S
C1976 C1974 1.415 . S
C1976 C1981 1.425 . S
C1976 C1983 1.409 . S
C1977 H1969 0.930 . S
C1977 C1975 1.419 . S
C1977 C1978 1.362 . S
C1978 H1970 0.930 . S
C1978 C1977 1.362 . S
C1978 C1981 1.409 . S
C1979 H1971 0.930 . S
C1979 C1980 1.355 . S
C1979 C1981 1.415 . S
C1980 C1979 1.355 . S
C1980 C1982 1.419 . S
C1981 C1976 1.425 . S
C1981 C1978 1.409 . S
C1981 C1979 1.415 . S
C1982 H1972 0.930 . S
C1982 C1980 1.419 . S
C1982 C1983 1.362 . S
C1983 H1973 0.930 . S
C1983 C1976 1.409 . S
C1983 C1982 1.362 . S
H1984 C1990 0.930 . S
H1985 C1993 0.930 . S
H1986 C1994 0.930 . S
H1987 C1995 0.930 . S
H1988 C1998 0.930 . S
H1989 C1999 0.930 . S
C1990 H1984 0.930 . S
C1990 C1991 1.355 . S
C1990 C1992 1.415 . S
C1991 C1990 1.355 . S
C1991 C1993 1.419 . S
C1992 C1990 1.415 . S
C1992 C1997 1.425 . S
C1992 C1999 1.409 . S
C1993 H1985 0.930 . S
C1993 C1991 1.419 . S
C1993 C1994 1.362 . S
C1994 H1986 0.930 . S
C1994 C1993 1.362 . S
C1994 C1997 1.409 . S
C1995 H1987 0.930 . S
C1995 C1996 1.355 . S
C1995 C1997 1.415 . S
C1996 C1995 1.355 . S
C1996 C1998 1.419 . S
C1997 C1992 1.425 . S
C1997 C1994 1.409 . S
C1997 C1995 1.415 . S
C1998 H1988 0.930 . S
C1998 C1996 1.419 . S
C1998 C1999 1.362 . S
C1999 H1989 0.930 . S
C1999 C1992 1.409 . S
C1999 C1998 1.362 . S
H2000 C2006 0.930 . S
H2001 C2009 0.930 . S
H2002 C2010 0.930 . S
H2003 C2011 0.930 . S
H2004 C2014 0.930 . S
H2005 C2015 0.930 . S
C2006 H2000 0.930 . S
C2006 C2007 1.355 . S
C2006 C2008 1.415 . S
C2007 C2006 1.355 . S
C2007 C2009 1.419 . S
C2008 C2006 1.415 . S
C2008 C2013 1.425 . S
C2008 C2015 1.409 . S
C2009 H2001 0.930 . S
C2009 C2007 1.419 . S
C2009 C2010 1.362 . S
C2010 H2002 0.930 . S
C2010 C2009 1.362 . S
C2010 C2013 1.409 . S
C2011 H2003 0.930 . S
C2011 C2012 1.355 . S
C2011 C2013 1.415 . S
C2012 C2011 1.355 . S
C2012 C2014 1.419 . S
C2013 C2008 1.425 . S
C2013 C2010 1.409 . S
C2013 C2011 1.415 . S
C2014 H2004 0.930 . S
C2014 C2012 1.419 . S
C2014 C2015 1.362 . S
C2015 H2005 0.930 . S
C2015 C2008 1.409 . S
C2015 C2014 1.362 . S
H2016 C2022 0.930 . S
H2017 C2025 0.930 . S
H2018 C2026 0.930 . S
H2019 C2027 0.930 . S
H2020 C2030 0.930 . S
H2021 C2031 0.930 . S
C2022 H2016 0.930 . S
C2022 C2023 1.355 . S
C2022 C2024 1.415 . S
C2023 C2022 1.355 . S
C2023 C2025 1.419 . S
C2024 C2022 1.415 . S
C2024 C2029 1.425 . S
C2024 C2031 1.409 . S
C2025 H2017 0.930 . S
C2025 C2023 1.419 . S
C2025 C2026 1.362 . S
C2026 H2018 0.930 . S
C2026 C2025 1.362 . S
C2026 C2029 1.409 . S
C2027 H2019 0.930 . S
C2027 C2028 1.355 . S
C2027 C2029 1.415 . S
C2028 C2027 1.355 . S
C2028 C2030 1.419 . S
C2029 C2024 1.425 . S
C2029 C2026 1.409 . S
C2029 C2027 1.415 . S
C2030 H2020 0.930 . S
C2030 C2028 1.419 . S
C2030 C2031 1.362 . S
C2031 H2021 0.930 . S
C2031 C2024 1.409 . S
C2031 C2030 1.362 . S
H2032 C2038 0.930 . S
H2033 C2041 0.930 . S
H2034 C2042 0.930 . S
H2035 C2043 0.930 . S
H2036 C2046 0.930 . S
H2037 C2047 0.930 . S
C2038 H2032 0.930 . S
C2038 C2039 1.355 . S
C2038 C2040 1.415 . S
C2039 C2038 1.355 . S
C2039 C2041 1.419 . S
C2040 C2038 1.415 . S
C2040 C2045 1.425 . S
C2040 C2047 1.409 . S
C2041 H2033 0.930 . S
C2041 C2039 1.419 . S
C2041 C2042 1.362 . S
C2042 H2034 0.930 . S
C2042 C2041 1.362 . S
C2042 C2045 1.409 . S
C2043 H2035 0.930 . S
C2043 C2044 1.355 . S
C2043 C2045 1.415 . S
C2044 C2043 1.355 . S
C2044 C2046 1.419 . S
C2045 C2040 1.425 . S
C2045 C2042 1.409 . S
C2045 C2043 1.415 . S
C2046 H2036 0.930 . S
C2046 C2044 1.419 . S
C2046 C2047 1.362 . S
C2047 H2037 0.930 . S
C2047 C2040 1.409 . S
C2047 C2046 1.362 . S
H2048 C2054 0.930 . S
H2049 C2057 0.930 . S
H2050 C2058 0.930 . S
H2051 C2059 0.930 . S
H2052 C2062 0.930 . S
H2053 C2063 0.930 . S
C2054 H2048 0.930 . S
C2054 C2055 1.355 . S
C2054 C2056 1.415 . S
C2055 C2054 1.355 . S
C2055 C2057 1.419 . S
C2056 C2054 1.415 . S
C2056 C2061 1.425 . S
C2056 C2063 1.409 . S
C2057 H2049 0.930 . S
C2057 C2055 1.419 . S
C2057 C2058 1.362 . S
C2058 H2050 0.930 . S
C2058 C2057 1.362 . S
C2058 C2061 1.409 . S
C2059 H2051 0.930 . S
C2059 C2060 1.355 . S
C2059 C2061 1.415 . S
C2060 C2059 1.355 . S
C2060 C2062 1.419 . S
C2061 C2056 1.425 . S
C2061 C2058 1.409 . S
C2061 C2059 1.415 . S
C2062 H2052 0.930 . S
C2062 C2060 1.419 . S
C2062 C2063 1.362 . S
C2063 H2053 0.930 . S
C2063 C2056 1.409 . S
C2063 C2062 1.362 . S
H2064 C2070 0.930 . S
H2065 C2073 0.930 . S
H2066 C2074 0.930 . S
H2067 C2075 0.930 . S
H2068 C2078 0.930 . S
H2069 C2079 0.930 . S
C2070 H2064 0.930 . S
C2070 C2071 1.355 . S
C2070 C2072 1.415 . S
C2071 C2070 1.355 . S
C2071 C2073 1.419 . S
C2072 C2070 1.415 . S
C2072 C2077 1.425 . S
C2072 C2079 1.409 . S
C2073 H2065 0.930 . S
C2073 C2071 1.419 . S
C2073 C2074 1.362 . S
C2074 H2066 0.930 . S
C2074 C2073 1.362 . S
C2074 C2077 1.409 . S
C2075 H2067 0.930 . S
C2075 C2076 1.355 . S
C2075 C2077 1.415 . S
C2076 C2075 1.355 . S
C2076 C2078 1.419 . S
C2077 C2072 1.425 . S
C2077 C2074 1.409 . S
C2077 C2075 1.415 . S
C2078 H2068 0.930 . S
C2078 C2076 1.419 . S
C2078 C2079 1.362 . S
C2079 H2069 0.930 . S
C2079 C2072 1.409 . S
C2079 C2078 1.362 . S
H2080 C2086 0.930 . S
H2081 C2089 0.930 . S
H2082 C2090 0.930 . S
H2083 C2091 0.930 . S
H2084 C2094 0.930 . S
H2085 C2095 0.930 . S
C2086 H2080 0.930 . S
C2086 C2087 1.355 . S
C2086 C2088 1.415 . S
C2087 C2086 1.355 . S
C2087 C2089 1.419 . S
C2088 C2086 1.415 . S
C2088 C2093 1.425 . S
C2088 C2095 1.409 . S
C2089 H2081 0.930 . S
C2089 C2087 1.419 . S
C2089 C2090 1.362 . S
C2090 H2082 0.930 . S
C2090 C2089 1.362 . S
C2090 C2093 1.409 . S
C2091 H2083 0.930 . S
C2091 C2092 1.355 . S
C2091 C2093 1.415 . S
C2092 C2091 1.355 . S
C2092 C2094 1.419 . S
C2093 C2088 1.425 . S
C2093 C2090 1.409 . S
C2093 C2091 1.415 . S
C2094 H2084 0.930 . S
C2094 C2092 1.419 . S
C2094 C2095 1.362 . S
C2095 H2085 0.930 . S
C2095 C2088 1.409 . S
C2095 C2094 1.362 . S
H2096 C2102 0.930 . S
H2097 C2105 0.930 . S
H2098 C2106 0.930 . S
H2099 C2107 0.930 . S
H2100 C2110 0.930 . S
H2101 C2111 0.930 . S
C2102 H2096 0.930 . S
C2102 C2103 1.355 . S
C2102 C2104 1.415 . S
C2103 C2102 1.355 . S
C2103 C2105 1.419 . S
C2104 C2102 1.415 . S
C2104 C2109 1.425 . S
C2104 C2111 1.409 . S
C2105 H2097 0.930 . S
C2105 C2103 1.419 . S
C2105 C2106 1.362 . S
C2106 H2098 0.930 . S
C2106 C2105 1.362 . S
C2106 C2109 1.409 . S
C2107 H2099 0.930 . S
C2107 C2108 1.355 . S
C2107 C2109 1.415 . S
C2108 C2107 1.355 . S
C2108 C2110 1.419 . S
C2109 C2104 1.425 . S
C2109 C2106 1.409 . S
C2109 C2107 1.415 . S
C2110 H2100 0.930 . S
C2110 C2108 1.419 . S
C2110 C2111 1.362 . S
C2111 H2101 0.930 . S
C2111 C2104 1.409 . S
C2111 C2110 1.362 . S
H2112 C2118 0.930 . S
H2113 C2121 0.930 . S
H2114 C2122 0.930 . S
H2115 C2123 0.930 . S
H2116 C2126 0.930 . S
H2117 C2127 0.930 . S
C2118 H2112 0.930 . S
C2118 C2119 1.355 . S
C2118 C2120 1.415 . S
C2119 C2118 1.355 . S
C2119 C2121 1.419 . S
C2120 C2118 1.415 . S
C2120 C2125 1.425 . S
C2120 C2127 1.409 . S
C2121 H2113 0.930 . S
C2121 C2119 1.419 . S
C2121 C2122 1.362 . S
C2122 H2114 0.930 . S
C2122 C2121 1.362 . S
C2122 C2125 1.409 . S
C2123 H2115 0.930 . S
C2123 C2124 1.355 . S
C2123 C2125 1.415 . S
C2124 C2123 1.355 . S
C2124 C2126 1.419 . S
C2125 C2120 1.425 . S
C2125 C2122 1.409 . S
C2125 C2123 1.415 . S
C2126 H2116 0.930 . S
C2126 C2124 1.419 . S
C2126 C2127 1.362 . S
C2127 H2117 0.930 . S
C2127 C2120 1.409 . S
C2127 C2126 1.362 . S
H2128 C2134 0.930 . S
H2129 C2137 0.930 . S
H2130 C2138 0.930 . S
H2131 C2139 0.930 . S
H2132 C2142 0.930 . S
H2133 C2143 0.930 . S
C2134 H2128 0.930 . S
C2134 C2135 1.355 . S
C2134 C2136 1.415 . S
C2135 C2134 1.355 . S
C2135 C2137 1.419 . S
C2136 C2134 1.415 . S
C2136 C2141 1.425 . S
C2136 C2143 1.409 . S
C2137 H2129 0.930 . S
C2137 C2135 1.419 . S
C2137 C2138 1.362 . S
C2138 H2130 0.930 . S
C2138 C2137 1.362 . S
C2138 C2141 1.409 . S
C2139 H2131 0.930 . S
C2139 C2140 1.355 . S
C2139 C2141 1.415 . S
C2140 C2139 1.355 . S
C2140 C2142 1.419 . S
C2141 C2136 1.425 . S
C2141 C2138 1.409 . S
C2141 C2139 1.415 . S
C2142 H2132 0.930 . S
C2142 C2140 1.419 . S
C2142 C2143 1.362 . S
C2143 H2133 0.930 . S
C2143 C2136 1.409 . S
C2143 C2142 1.362 . S
H2144 C2150 0.930 . S
H2145 C2153 0.930 . S
H2146 C2154 0.930 . S
H2147 C2155 0.930 . S
H2148 C2158 0.930 . S
H2149 C2159 0.930 . S
C2150 H2144 0.930 . S
C2150 C2151 1.355 . S
C2150 C2152 1.415 . S
C2151 C2150 1.355 . S
C2151 C2153 1.419 . S
C2152 C2150 1.415 . S
C2152 C2157 1.425 . S
C2152 C2159 1.409 . S
C2153 H2145 0.930 . S
C2153 C2151 1.419 . S
C2153 C2154 1.362 . S
C2154 H2146 0.930 . S
C2154 C2153 1.362 . S
C2154 C2157 1.409 . S
C2155 H2147 0.930 . S
C2155 C2156 1.355 . S
C2155 C2157 1.415 . S
C2156 C2155 1.355 . S
C2156 C2158 1.419 . S
C2157 C2152 1.425 . S
C2157 C2154 1.409 . S
C2157 C2155 1.415 . S
C2158 H2148 0.930 . S
C2158 C2156 1.419 . S
C2158 C2159 1.362 . S
C2159 H2149 0.930 . S
C2159 C2152 1.409 . S
C2159 C2158 1.362 . S
H2160 C2166 0.930 . S
H2161 C2169 0.930 . S
H2162 C2170 0.930 . S
H2163 C2171 0.930 . S
H2164 C2174 0.930 . S
H2165 C2175 0.930 . S
C2166 H2160 0.930 . S
C2166 C2167 1.355 . S
C2166 C2168 1.415 . S
C2167 C2166 1.355 . S
C2167 C2169 1.419 . S
C2168 C2166 1.415 . S
C2168 C2173 1.425 . S
C2168 C2175 1.409 . S
C2169 H2161 0.930 . S
C2169 C2167 1.419 . S
C2169 C2170 1.362 . S
C2170 H2162 0.930 . S
C2170 C2169 1.362 . S
C2170 C2173 1.409 . S
C2171 H2163 0.930 . S
C2171 C2172 1.355 . S
C2171 C2173 1.415 . S
C2172 C2171 1.355 . S
C2172 C2174 1.419 . S
C2173 C2168 1.425 . S
C2173 C2170 1.409 . S
C2173 C2171 1.415 . S
C2174 H2164 0.930 . S
C2174 C2172 1.419 . S
C2174 C2175 1.362 . S
C2175 H2165 0.930 . S
C2175 C2168 1.409 . S
C2175 C2174 1.362 . S
C1159 C974 1.342 . S
C1164 C4 1.357 . S
C1175 C40 1.323 . S
C1180 C290 1.372 . S
C1191 C902 1.362 . S
C1196 C76 1.287 . S
C1207 C112 1.309 . S
C1212 C362 1.341 . S
C1223 C148 1.339 . S
C1228 C1046 1.336 . S
C1239 C184 1.358 . S
C1244 C506 1.355 . S
C1255 C220 1.313 . S
C1260 C1118 1.373 . S
C1271 C256 1.294 . S
C1276 C434 1.349 . S
C1287 C686 1.283 . S
C1292 C291 1.306 . S
C1303 C2 1.313 . S
C1308 C327 1.302 . S
C1319 C614 1.282 . S
C1324 C363 1.311 . S
C1335 C399 1.285 . S
C1340 C74 1.302 . S
C1351 C758 1.307 . S
C1356 C435 1.309 . S
C1367 C218 1.282 . S
C1372 C471 1.312 . S
C1383 C507 1.317 . S
C1388 C830 1.283 . S
C1399 C146 1.287 . S
C1404 C543 1.299 . S
C1415 C580 1.303 . S
C1420 C398 1.343 . S
C1431 C616 1.328 . S
C1436 C866 1.371 . S
C1447 C326 1.370 . S
C1452 C652 1.295 . S
C1463 C938 1.354 . S
C1468 C688 1.359 . S
C1479 C470 1.346 . S
C1484 C724 1.360 . S
C1495 C1082 1.373 . S
C1500 C760 1.316 . S
C1511 C542 1.337 . S
C1516 C796 1.348 . S
C1527 C832 1.312 . S
C1532 C1010 1.340 . S
C1543 C110 1.296 . S
C1548 C867 1.289 . S
C1559 C903 1.315 . S
C1564 C578 1.282 . S
C1575 C939 1.319 . S
C1580 C38 1.290 . S
C1591 C975 1.284 . S
C1596 C650 1.303 . S
C1607 C1011 1.319 . S
C1612 C182 1.289 . S
C1623 C1047 1.292 . S
C1628 C794 1.293 . S
C1639 C1083 1.310 . S
C1644 C254 1.307 . S
C1655 C1119 1.316 . S
C1660 C722 1.282 . S
C1671 C878 1.488 . S
C1676 C14 1.473 . S
C1687 C50 1.474 . S
C1692 C338 1.464 . S
C1703 C950 1.474 . S
C1708 C86 1.478 . S
C1719 C122 1.461 . S
C1724 C410 1.498 . S
C1735 C1022 1.486 . S
C1740 C158 1.474 . S
C1751 C194 1.473 . S
C1756 C482 1.463 . S
C1767 C1094 1.460 . S
C1772 C230 1.466 . S
C1783 C266 1.458 . S
C1788 C554 1.459 . S
C1799 C302 1.465 . S
C1804 C590 1.424 . S
C1815 C374 1.464 . S
C1820 C662 1.474 . S
C1831 C446 1.483 . S
C1836 C734 1.476 . S
C1847 C518 1.464 . S
C1852 C806 1.428 . S
C1863 C626 1.464 . S
C1868 C914 1.496 . S
C1879 C986 1.459 . S
C1884 C698 1.448 . S
C1895 C1058 1.503 . S
C1900 C770 1.393 . S
C1911 C842 1.464 . S
C1916 C1130 1.460 . S
C1927 C3 1.477 . S
C1932 C183 1.487 . S
C1943 C39 1.483 . S
C1948 C219 1.475 . S
C1959 C75 1.476 . S
C1964 C255 1.485 . S
C1975 C147 1.476 . S
C1980 C111 1.485 . S
C1991 C292 1.361 . S
C1996 C472 1.341 . S
C2007 C328 1.374 . S
C2012 C508 1.336 . S
C2023 C364 1.389 . S
C2028 C544 1.362 . S
C2039 C400 1.390 . S
C2044 C436 1.343 . S
C2055 C579 1.489 . S
C2060 C759 1.486 . S
C2071 C795 1.489 . S
C2076 C615 1.482 . S
C2087 C651 1.479 . S
C2092 C831 1.474 . S
C2103 C687 1.489 . S
C2108 C723 1.485 . S
C2119 C1048 1.391 . S
C2124 C868 1.346 . S
C2135 C904 1.371 . S
C2140 C1084 1.337 . S
C2151 C1120 1.352 . S
C2156 C940 1.392 . S
C2167 C976 1.360 . S
C2172 C1012 1.390 . S
